# Generated by pormake.
# Topology upc, (4)-cn, num edge types: 1
# Building blocks:
#     Node 0, Type 0, BuildingBlock: ICAMEG_clean_sbu_1, # of connection points: 4
#     Node 1, Type 0, BuildingBlock: ICAMEG_clean_sbu_1, # of connection points: 4
#     Node 2, Type 0, BuildingBlock: ICAMEG_clean_sbu_1, # of connection points: 4
#     Node 3, Type 0, BuildingBlock: ICAMEG_clean_sbu_1, # of connection points: 4
#     Node 4, Type 0, BuildingBlock: ICAMEG_clean_sbu_1, # of connection points: 4
#     Node 5, Type 0, BuildingBlock: ICAMEG_clean_sbu_1, # of connection points: 4
#     Node 6, Type 0, BuildingBlock: ICAMEG_clean_sbu_1, # of connection points: 4
#     Node 7, Type 0, BuildingBlock: ICAMEG_clean_sbu_1, # of connection points: 4
#     Node 8, Type 0, BuildingBlock: ICAMEG_clean_sbu_1, # of connection points: 4
#     Node 9, Type 0, BuildingBlock: ICAMEG_clean_sbu_1, # of connection points: 4
#     Node 10, Type 0, BuildingBlock: ICAMEG_clean_sbu_1, # of connection points: 4
#     Node 11, Type 0, BuildingBlock: ICAMEG_clean_sbu_1, # of connection points: 4
#     Node 12, Type 0, BuildingBlock: ICAMEG_clean_sbu_1, # of connection points: 4
#     Node 13, Type 0, BuildingBlock: ICAMEG_clean_sbu_1, # of connection points: 4
#     Node 14, Type 0, BuildingBlock: ICAMEG_clean_sbu_1, # of connection points: 4
#     Node 15, Type 0, BuildingBlock: ICAMEG_clean_sbu_1, # of connection points: 4
#     Edge 16, Type (0, 0), BuildingBlock: ZUJKAS_clean_linker_0, # of connection points: 2
#     Edge 17, Type (0, 0), BuildingBlock: ZUJKAS_clean_linker_0, # of connection points: 2
#     Edge 18, Type (0, 0), BuildingBlock: ZUJKAS_clean_linker_0, # of connection points: 2
#     Edge 19, Type (0, 0), BuildingBlock: ZUJKAS_clean_linker_0, # of connection points: 2
#     Edge 20, Type (0, 0), BuildingBlock: ZUJKAS_clean_linker_0, # of connection points: 2
#     Edge 21, Type (0, 0), BuildingBlock: ZUJKAS_clean_linker_0, # of connection points: 2
#     Edge 22, Type (0, 0), BuildingBlock: ZUJKAS_clean_linker_0, # of connection points: 2
#     Edge 23, Type (0, 0), BuildingBlock: ZUJKAS_clean_linker_0, # of connection points: 2
#     Edge 24, Type (0, 0), BuildingBlock: ZUJKAS_clean_linker_0, # of connection points: 2
#     Edge 25, Type (0, 0), BuildingBlock: ZUJKAS_clean_linker_0, # of connection points: 2
#     Edge 26, Type (0, 0), BuildingBlock: ZUJKAS_clean_linker_0, # of connection points: 2
#     Edge 27, Type (0, 0), BuildingBlock: ZUJKAS_clean_linker_0, # of connection points: 2
#     Edge 28, Type (0, 0), BuildingBlock: ZUJKAS_clean_linker_0, # of connection points: 2
#     Edge 29, Type (0, 0), BuildingBlock: ZUJKAS_clean_linker_0, # of connection points: 2
#     Edge 30, Type (0, 0), BuildingBlock: ZUJKAS_clean_linker_0, # of connection points: 2
#     Edge 31, Type (0, 0), BuildingBlock: ZUJKAS_clean_linker_0, # of connection points: 2
#     Edge 32, Type (0, 0), BuildingBlock: ZUJKAS_clean_linker_0, # of connection points: 2
#     Edge 33, Type (0, 0), BuildingBlock: ZUJKAS_clean_linker_0, # of connection points: 2
#     Edge 34, Type (0, 0), BuildingBlock: ZUJKAS_clean_linker_0, # of connection points: 2
#     Edge 35, Type (0, 0), BuildingBlock: ZUJKAS_clean_linker_0, # of connection points: 2
#     Edge 36, Type (0, 0), BuildingBlock: ZUJKAS_clean_linker_0, # of connection points: 2
#     Edge 37, Type (0, 0), BuildingBlock: ZUJKAS_clean_linker_0, # of connection points: 2
#     Edge 38, Type (0, 0), BuildingBlock: ZUJKAS_clean_linker_0, # of connection points: 2
#     Edge 39, Type (0, 0), BuildingBlock: ZUJKAS_clean_linker_0, # of connection points: 2
#     Edge 40, Type (0, 0), BuildingBlock: ZUJKAS_clean_linker_0, # of connection points: 2
#     Edge 41, Type (0, 0), BuildingBlock: ZUJKAS_clean_linker_0, # of connection points: 2
#     Edge 42, Type (0, 0), BuildingBlock: ZUJKAS_clean_linker_0, # of connection points: 2
#     Edge 43, Type (0, 0), BuildingBlock: ZUJKAS_clean_linker_0, # of connection points: 2
#     Edge 44, Type (0, 0), BuildingBlock: ZUJKAS_clean_linker_0, # of connection points: 2
#     Edge 45, Type (0, 0), BuildingBlock: ZUJKAS_clean_linker_0, # of connection points: 2
#     Edge 46, Type (0, 0), BuildingBlock: ZUJKAS_clean_linker_0, # of connection points: 2
#     Edge 47, Type (0, 0), BuildingBlock: ZUJKAS_clean_linker_0, # of connection points: 2
# Relax obj value: 0.215
# Max RMSD: 0.207
# Mean RMSD: 0.207
data_MOF--net-upc--node1-ICAMEG_clean_sbu_1--edge1-ZUJKAS_clean_linker_0
_symmetry_space_group_name_H-M    P1
_symmetry_Int_Tables_number       1
_symmetry_cell_setting            triclinic
loop_
_symmetry_equiv_pos_as_xyz
'x, y, z'
_cell_length_a     45.511545
_cell_length_b     45.513803
_cell_length_c     60.569372
_cell_angle_alpha  89.999261
_cell_angle_beta   89.993075
_cell_angle_gamma 90.02459
loop_
_atom_site_label
_atom_site_type_symbol
_atom_site_fract_x
_atom_site_fract_y
_atom_site_fract_z
_atom_type_partial_charge
Co0 Co 0.11808 0.60188 0.13655 0.0
Co1 Co 0.06976 0.64618 0.10787 0.0
O2 O 0.08271 0.60838 0.11927 0.0
C3 C 0.07002 0.58101 0.16457 0.0
O4 O 0.05681 0.60558 0.15914 0.0
C5 C 0.07433 0.60648 0.06962 0.0
O6 O 0.10125 0.60105 0.07624 0.0
O7 O 0.10983 0.65531 0.0963 0.0
O8 O 0.14112 0.62903 0.11723 0.0
H9 H 0.07605 0.75494 0.09457 0.0
H10 H 0.08451 0.55097 0.11939 0.0
O11 O 0.09531 0.57516 0.15665 0.0
H12 H 0.18303 0.54275 0.08606 0.0
H13 H 0.18913 0.5395 0.17958 0.0
H14 H 0.16548 0.63978 0.15444 0.0
H15 H 0.17158 0.58307 0.11191 0.0
H16 H 0.14507 0.54881 0.15689 0.0
O17 O 0.05909 0.62601 0.07946 0.0
H18 H 0.09218 0.70727 0.10972 0.0
H19 H 0.01905 0.6648 0.08007 0.0
H20 H 0.20989 0.63147 0.17693 0.0
H21 H 0.09502 0.51028 0.09366 0.0
H22 H 0.22195 0.58101 0.18966 0.0
H23 H 0.14456 0.50604 0.07677 0.0
O24 O 0.10864 0.6355 0.15614 0.0
H25 H 0.9812 0.58252 0.12131 0.0
H26 H 0.02573 0.67981 0.1341 0.0
H27 H 0.97687 0.66885 0.14967 0.0
H28 H 0.95427 0.6199 0.14328 0.0
H29 H 0.03014 0.59428 0.10627 0.0
H30 H 0.00222 0.71197 0.06447 0.0
H31 H 0.03076 0.75748 0.07177 0.0
O32 O 0.07984 0.66618 0.13654 0.0
C33 C 0.13576 0.64825 0.10239 0.0
C34 C 0.06337 0.73528 0.09134 0.0
C35 C 0.02196 0.71115 0.07441 0.0
N36 N 0.05643 0.68336 0.09592 0.0
C37 C 0.07235 0.70825 0.09992 0.0
C38 C 0.03162 0.6845 0.08325 0.0
C39 C 0.03797 0.73668 0.07853 0.0
C40 C 0.10622 0.54906 0.11229 0.0
N41 N 0.12747 0.56923 0.11725 0.0
C42 C 0.112 0.52606 0.09767 0.0
C43 C 0.13979 0.52373 0.08816 0.0
C44 C 0.16138 0.54434 0.09335 0.0
C45 C 0.15477 0.56712 0.10798 0.0
C46 C 0.18418 0.56156 0.17406 0.0
C47 C 0.17077 0.61773 0.15972 0.0
C48 C 0.15927 0.56696 0.16122 0.0
N49 N 0.15299 0.59474 0.15408 0.0
C50 C 0.19586 0.61317 0.17254 0.0
C51 C 0.20259 0.58486 0.1797 0.0
C52 C 0.09437 0.65944 0.15392 0.0
C53 C 0.99079 0.60395 0.12417 0.0
C54 C 0.01611 0.65843 0.13134 0.0
C55 C 0.98839 0.65237 0.14013 0.0
C56 C 0.97571 0.62491 0.13652 0.0
N57 N 0.03078 0.63775 0.11926 0.0
C58 C 0.01845 0.61079 0.11561 0.0
Co59 Co 0.90116 0.11608 0.13655 0.0
Co60 Co 0.8554 0.06929 0.10782 0.0
O61 O 0.89377 0.08137 0.11873 0.0
C62 C 0.92326 0.0671 0.16299 0.0
O63 O 0.89849 0.05402 0.15785 0.0
C64 C 0.8941 0.07397 0.06906 0.0
O65 O 0.89975 0.10081 0.07576 0.0
O66 O 0.84685 0.10962 0.09668 0.0
O67 O 0.87307 0.13987 0.11849 0.0
H68 H 0.74647 0.07779 0.09608 0.0
H69 H 0.95125 0.08337 0.11728 0.0
O70 O 0.92881 0.09264 0.15539 0.0
H71 H 0.95778 0.18318 0.08598 0.0
H72 H 0.96553 0.18559 0.17939 0.0
H73 H 0.86408 0.1625 0.15663 0.0
H74 H 0.9187 0.17058 0.11259 0.0
H75 H 0.95518 0.14247 0.15594 0.0
O76 O 0.87473 0.05867 0.07906 0.0
H77 H 0.79481 0.09287 0.11064 0.0
H78 H 0.83511 0.01928 0.07998 0.0
H79 H 0.87342 0.20598 0.17993 0.0
H80 H 0.99074 0.09503 0.09078 0.0
H81 H 0.92447 0.21776 0.19145 0.0
H82 H 0.99412 0.14523 0.07489 0.0
O83 O 0.86864 0.10567 0.15682 0.0
H84 H 0.91706 0.97889 0.11927 0.0
H85 H 0.82173 0.02605 0.13479 0.0
H86 H 0.83191 0.9767 0.14973 0.0
H87 H 0.87986 0.95278 0.14197 0.0
H88 H 0.90613 0.02833 0.10485 0.0
H89 H 0.78724 0.0035 0.06495 0.0
H90 H 0.74248 0.0328 0.07306 0.0
O91 O 0.83622 0.07942 0.13684 0.0
C92 C 0.85387 0.13522 0.10351 0.0
C93 C 0.76579 0.06479 0.0925 0.0
C94 C 0.78869 0.02311 0.075 0.0
N95 N 0.81767 0.05683 0.09631 0.0
C96 C 0.7932 0.07317 0.10075 0.0
C97 C 0.81573 0.03218 0.08351 0.0
C98 C 0.76358 0.03956 0.07956 0.0
C99 C 0.95279 0.10535 0.11062 0.0
N100 N 0.93283 0.12632 0.11657 0.0
C101 C 0.97512 0.11179 0.09555 0.0
C102 C 0.97696 0.13995 0.08661 0.0
C103 C 0.95656 0.16124 0.09281 0.0
C104 C 0.93447 0.15398 0.10787 0.0
C105 C 0.94321 0.18078 0.17439 0.0
C106 C 0.88637 0.16769 0.16139 0.0
C107 C 0.93722 0.1564 0.16112 0.0
N108 N 0.90911 0.15029 0.15464 0.0
C109 C 0.89152 0.19224 0.17467 0.0
C110 C 0.92016 0.19881 0.18115 0.0
C111 C 0.84415 0.09235 0.15465 0.0
C112 C 0.89605 0.98905 0.12271 0.0
C113 C 0.84268 0.01582 0.13137 0.0
C114 C 0.84829 0.98784 0.13985 0.0
C115 C 0.87519 0.97443 0.13547 0.0
N116 N 0.86324 0.03003 0.11885 0.0
C117 C 0.88967 0.017 0.11448 0.0
Co118 Co 0.38281 0.89815 0.1365 0.0
Co119 Co 0.43228 0.85539 0.10755 0.0
O120 O 0.41838 0.89279 0.11918 0.0
C121 C 0.43008 0.91993 0.16488 0.0
O122 O 0.44421 0.89601 0.15911 0.0
C123 C 0.42703 0.8954 0.06945 0.0
O124 O 0.40014 0.90069 0.07619 0.0
O125 O 0.39243 0.84535 0.09592 0.0
O126 O 0.36055 0.87071 0.11696 0.0
H127 H 0.42862 0.74662 0.09376 0.0
H128 H 0.41499 0.95024 0.11984 0.0
O129 O 0.40472 0.92517 0.15686 0.0
H130 H 0.31636 0.95627 0.08646 0.0
H131 H 0.30997 0.958 0.1799 0.0
H132 H 0.33638 0.85875 0.154 0.0
H133 H 0.32889 0.91583 0.1119 0.0
H134 H 0.35433 0.95021 0.15721 0.0
O135 O 0.44247 0.87596 0.07921 0.0
H136 H 0.41135 0.79377 0.10912 0.0
H137 H 0.48345 0.83822 0.07968 0.0
H138 H 0.2917 0.86555 0.17648 0.0
H139 H 0.40338 0.99111 0.09455 0.0
H140 H 0.27824 0.91548 0.18959 0.0
H141 H 0.35378 0.99425 0.07762 0.0
O142 O 0.39311 0.86457 0.15588 0.0
H143 H 0.51925 0.92112 0.1212 0.0
H144 H 0.47719 0.82264 0.13357 0.0
H145 H 0.5258 0.83467 0.14911 0.0
H146 H 0.54717 0.88422 0.14293 0.0
H147 H 0.47057 0.90828 0.10619 0.0
H148 H 0.50141 0.7916 0.06386 0.0
H149 H 0.47397 0.74536 0.07095 0.0
O150 O 0.42276 0.83491 0.13613 0.0
C151 C 0.36635 0.85176 0.10204 0.0
C152 C 0.44083 0.76661 0.09061 0.0
C153 C 0.48165 0.79186 0.0738 0.0
N154 N 0.44651 0.81864 0.09544 0.0
C155 C 0.4312 0.79334 0.09932 0.0
C156 C 0.47135 0.8182 0.08276 0.0
C157 C 0.46625 0.76592 0.0778 0.0
C158 C 0.39326 0.95165 0.11273 0.0
N159 N 0.37258 0.93081 0.11744 0.0
C160 C 0.38685 0.97477 0.09835 0.0
C161 C 0.35903 0.97648 0.08882 0.0
C162 C 0.33803 0.95517 0.09376 0.0
C163 C 0.34526 0.93231 0.10816 0.0
C164 C 0.31553 0.93616 0.17421 0.0
C165 C 0.3305 0.88057 0.15946 0.0
C166 C 0.34061 0.93161 0.16137 0.0
N167 N 0.34767 0.90411 0.15403 0.0
C168 C 0.30525 0.88428 0.17227 0.0
C169 C 0.29774 0.91229 0.17964 0.0
C170 C 0.40808 0.84108 0.15355 0.0
C171 C 0.5102 0.89944 0.12398 0.0
C172 C 0.48626 0.84428 0.13091 0.0
C173 C 0.51385 0.85094 0.13969 0.0
C174 C 0.52583 0.87874 0.13619 0.0
N175 N 0.47104 0.8647 0.11896 0.0
C176 C 0.48268 0.89199 0.11543 0.0
Co177 Co 0.60218 0.38189 0.13687 0.0
Co178 Co 0.6442 0.43189 0.10766 0.0
O179 O 0.60686 0.41716 0.11899 0.0
C180 C 0.5776 0.42975 0.16339 0.0
O181 O 0.59997 0.44544 0.15652 0.0
C182 C 0.60507 0.42476 0.06922 0.0
O183 O 0.60011 0.39793 0.07625 0.0
O184 O 0.65559 0.39208 0.09677 0.0
O185 O 0.63048 0.36001 0.11783 0.0
H186 H 0.75336 0.43098 0.0954 0.0
H187 H 0.5495 0.41211 0.11934 0.0
O188 O 0.57434 0.40333 0.15687 0.0
H189 H 0.54665 0.31249 0.08739 0.0
H190 H 0.54402 0.30831 0.18093 0.0
H191 H 0.64272 0.33709 0.15519 0.0
H192 H 0.58637 0.32684 0.11295 0.0
H193 H 0.55073 0.35232 0.15766 0.0
O194 O 0.62414 0.44073 0.07891 0.0
H195 H 0.70632 0.41276 0.11035 0.0
H196 H 0.66067 0.48284 0.07929 0.0
H197 H 0.63701 0.2928 0.17826 0.0
H198 H 0.50932 0.39868 0.09392 0.0
H199 H 0.58736 0.27815 0.19129 0.0
H200 H 0.50778 0.34857 0.07771 0.0
O201 O 0.63499 0.39377 0.1564 0.0
H202 H 0.57602 0.51764 0.11846 0.0
H203 H 0.67489 0.4783 0.13367 0.0
H204 H 0.66119 0.52707 0.14809 0.0
H205 H 0.61144 0.54707 0.14047 0.0
H206 H 0.59048 0.46882 0.10462 0.0
H207 H 0.70718 0.50172 0.06387 0.0
H208 H 0.75396 0.47579 0.07198 0.0
O209 O 0.66425 0.42377 0.13664 0.0
C210 C 0.64961 0.36597 0.10307 0.0
C211 C 0.73313 0.44254 0.09181 0.0
C212 C 0.70721 0.48221 0.07409 0.0
N213 N 0.68085 0.44686 0.09584 0.0
C214 C 0.70646 0.43237 0.10029 0.0
C215 C 0.68094 0.47139 0.08282 0.0
C216 C 0.73345 0.46766 0.07865 0.0
C217 C 0.54878 0.39017 0.11254 0.0
N218 N 0.57011 0.37022 0.11772 0.0
C219 C 0.52605 0.38273 0.09808 0.0
C220 C 0.52524 0.35462 0.08897 0.0
C221 C 0.54705 0.33438 0.09438 0.0
C222 C 0.56949 0.34262 0.10883 0.0
C223 C 0.56575 0.3144 0.17528 0.0
C224 C 0.62102 0.33069 0.16062 0.0
C225 C 0.56968 0.33929 0.16212 0.0
N226 N 0.59704 0.34701 0.15483 0.0
C227 C 0.61793 0.30566 0.17376 0.0
C228 C 0.59008 0.29749 0.18109 0.0
C229 C 0.65806 0.40938 0.15419 0.0
C230 C 0.59778 0.50919 0.12185 0.0
C231 C 0.65315 0.48677 0.1304 0.0
C232 C 0.64555 0.51445 0.13853 0.0
C233 C 0.61765 0.52567 0.13423 0.0
N234 N 0.63354 0.4707 0.11829 0.0
C235 C 0.60616 0.48161 0.11395 0.0
Co236 Co 0.11819 0.89741 0.36644 0.0
Co237 Co 0.06923 0.85363 0.39505 0.0
O238 O 0.08242 0.89123 0.38336 0.0
C239 C 0.07092 0.91727 0.3373 0.0
O240 O 0.05731 0.89309 0.34318 0.0
C241 C 0.07359 0.89389 0.43296 0.0
O242 O 0.10054 0.89925 0.42637 0.0
O243 O 0.10914 0.84451 0.40694 0.0
O244 O 0.14081 0.87098 0.38649 0.0
H245 H 0.07498 0.74505 0.40929 0.0
H246 H 0.08402 0.94862 0.38231 0.0
O247 O 0.09594 0.92341 0.34557 0.0
H248 H 0.18165 0.95828 0.41686 0.0
H249 H 0.19016 0.95883 0.32342 0.0
H250 H 0.16611 0.85919 0.34982 0.0
H251 H 0.17101 0.91719 0.3915 0.0
H252 H 0.14557 0.95001 0.34564 0.0
O253 O 0.05838 0.87423 0.42323 0.0
H254 H 0.09142 0.79244 0.39382 0.0
H255 H 0.01819 0.83557 0.42275 0.0
H256 H 0.21104 0.86702 0.32781 0.0
H257 H 0.09371 0.99007 0.40753 0.0
H258 H 0.22332 0.91715 0.31445 0.0
H259 H 0.14281 0.99503 0.42505 0.0
O260 O 0.10931 0.86321 0.34725 0.0
H261 H 0.981 0.9173 0.38067 0.0
H262 H 0.02531 0.81972 0.3689 0.0
H263 H 0.9766 0.83054 0.35305 0.0
H264 H 0.9541 0.87963 0.35893 0.0
H265 H 0.0298 0.90567 0.39599 0.0
H266 H 0.00105 0.78869 0.43868 0.0
H267 H 0.02947 0.74299 0.4319 0.0
O268 O 0.0795 0.8332 0.36661 0.0
C269 C 0.13517 0.85179 0.40127 0.0
C270 C 0.06234 0.7648 0.4123 0.0
C271 C 0.02088 0.7893 0.42882 0.0
N272 N 0.05564 0.81666 0.40724 0.0
C273 C 0.0715 0.79166 0.40352 0.0
C274 C 0.03072 0.81578 0.4198 0.0
C275 C 0.03683 0.76366 0.425 0.0
C276 C 0.10553 0.95084 0.38968 0.0
N277 N 0.12699 0.93065 0.38533 0.0
C278 C 0.11086 0.97427 0.40402 0.0
C279 C 0.13839 0.97701 0.41387 0.0
C280 C 0.16019 0.95638 0.4093 0.0
C281 C 0.15404 0.93316 0.39494 0.0
C282 C 0.18513 0.9369 0.32923 0.0
C283 C 0.17147 0.8811 0.34425 0.0
C284 C 0.15991 0.93178 0.3418 0.0
N285 N 0.15351 0.90418 0.34929 0.0
C286 C 0.19687 0.88539 0.33171 0.0
C287 C 0.20372 0.91351 0.3242 0.0
C288 C 0.09464 0.83949 0.34942 0.0
C289 C 0.99054 0.89581 0.37803 0.0
C290 C 0.01574 0.84117 0.37143 0.0
C291 C 0.98811 0.84714 0.36248 0.0
C292 C 0.97549 0.87468 0.3658 0.0
N293 N 0.0304 0.862 0.38338 0.0
C294 C 0.01813 0.88904 0.38674 0.0
Co295 Co 0.60105 0.11878 0.36501 0.0
Co296 Co 0.64569 0.07071 0.39352 0.0
O297 O 0.60768 0.08357 0.38245 0.0
C298 C 0.5788 0.0706 0.33778 0.0
O299 O 0.60343 0.05724 0.34287 0.0
C300 C 0.60642 0.07476 0.43206 0.0
O301 O 0.60095 0.10177 0.42568 0.0
O302 O 0.65468 0.1107 0.40524 0.0
O303 O 0.62906 0.14178 0.3837 0.0
H304 H 0.75458 0.07735 0.40616 0.0
H305 H 0.55026 0.08613 0.38333 0.0
O306 O 0.57344 0.09606 0.34558 0.0
H307 H 0.54426 0.18524 0.4159 0.0
H308 H 0.53835 0.19 0.3224 0.0
H309 H 0.63902 0.16543 0.34616 0.0
H310 H 0.58367 0.17288 0.3895 0.0
H311 H 0.54774 0.14615 0.34531 0.0
O312 O 0.62584 0.05964 0.42199 0.0
H313 H 0.70666 0.09348 0.39147 0.0
H314 H 0.66485 0.01977 0.42084 0.0
H315 H 0.63063 0.20962 0.32343 0.0
H316 H 0.51045 0.09755 0.40962 0.0
H317 H 0.57998 0.22214 0.3114 0.0
H318 H 0.50734 0.1474 0.42614 0.0
O319 O 0.63385 0.10854 0.34491 0.0
H320 H 0.58271 0.98163 0.38024 0.0
H321 H 0.67912 0.02753 0.36634 0.0
H322 H 0.66833 0.97875 0.35058 0.0
H323 H 0.61984 0.95546 0.35753 0.0
H324 H 0.59426 0.03049 0.39549 0.0
H325 H 0.71228 0.00293 0.436 0.0
H326 H 0.75758 0.03176 0.4286 0.0
O327 O 0.66542 0.0812 0.36481 0.0
C328 C 0.64805 0.13656 0.39873 0.0
C329 C 0.73501 0.06455 0.40944 0.0
C330 C 0.71126 0.0228 0.42621 0.0
N331 N 0.68307 0.05745 0.40516 0.0
C332 C 0.70784 0.07353 0.40111 0.0
C333 C 0.68447 0.03247 0.41763 0.0
C334 C 0.73667 0.03898 0.42205 0.0
C335 C 0.54884 0.10796 0.39027 0.0
N336 N 0.56912 0.12887 0.38479 0.0
C337 C 0.52633 0.11427 0.40521 0.0
C338 C 0.52463 0.14223 0.41451 0.0
C339 C 0.54536 0.16346 0.40878 0.0
C340 C 0.56763 0.15633 0.39385 0.0
C341 C 0.5605 0.18485 0.32762 0.0
C342 C 0.61689 0.17091 0.34116 0.0
C343 C 0.56594 0.16005 0.34057 0.0
N344 N 0.59384 0.15352 0.34732 0.0
C345 C 0.61229 0.19588 0.32822 0.0
C346 C 0.58387 0.20287 0.32145 0.0
C347 C 0.65807 0.09478 0.34714 0.0
C348 C 0.60395 0.99151 0.37716 0.0
C349 C 0.65794 0.01758 0.3694 0.0
C350 C 0.65198 0.98992 0.36047 0.0
C351 C 0.62478 0.97686 0.36439 0.0
N352 N 0.63741 0.03181 0.38192 0.0
C353 C 0.61069 0.01912 0.38585 0.0
Co354 Co 0.38208 0.60296 0.36539 0.0
Co355 Co 0.43184 0.64535 0.39447 0.0
O356 O 0.4174 0.60793 0.38315 0.0
C357 C 0.43002 0.57833 0.339 0.0
O358 O 0.44549 0.60108 0.34543 0.0
C359 C 0.42539 0.60609 0.43287 0.0
O360 O 0.39846 0.60117 0.42605 0.0
O361 O 0.39204 0.65619 0.40569 0.0
O362 O 0.36009 0.6313 0.38437 0.0
H363 H 0.42989 0.75442 0.40705 0.0
H364 H 0.41261 0.55058 0.38315 0.0
O365 O 0.40363 0.57502 0.34555 0.0
H366 H 0.31308 0.54749 0.41525 0.0
H367 H 0.30864 0.54406 0.32178 0.0
H368 H 0.33706 0.64312 0.34691 0.0
H369 H 0.32716 0.58706 0.38947 0.0
H370 H 0.35269 0.55119 0.34492 0.0
O371 O 0.44123 0.62519 0.42309 0.0
H372 H 0.412 0.70727 0.39209 0.0
H373 H 0.48291 0.66222 0.42257 0.0
H374 H 0.29271 0.63699 0.32396 0.0
H375 H 0.39945 0.51057 0.4088 0.0
H376 H 0.27825 0.58715 0.31123 0.0
H377 H 0.34939 0.50891 0.42508 0.0
O378 O 0.39373 0.63571 0.34572 0.0
H379 H 0.51827 0.57826 0.38292 0.0
H380 H 0.47758 0.67672 0.36824 0.0
H381 H 0.52637 0.66369 0.35349 0.0
H382 H 0.54704 0.61414 0.36085 0.0
H383 H 0.46943 0.59205 0.3971 0.0
H384 H 0.50147 0.70885 0.438 0.0
H385 H 0.47495 0.75539 0.43019 0.0
O386 O 0.42311 0.66549 0.36559 0.0
C387 C 0.36597 0.65018 0.39932 0.0
C388 C 0.4417 0.7343 0.41051 0.0
C389 C 0.48185 0.70871 0.42791 0.0
N390 N 0.44654 0.6821 0.4063 0.0
C391 C 0.43172 0.70756 0.40203 0.0
C392 C 0.47121 0.68238 0.41917 0.0
C393 C 0.46696 0.73482 0.42351 0.0
C394 C 0.39069 0.5498 0.38998 0.0
N395 N 0.37061 0.57098 0.38471 0.0
C396 C 0.3834 0.52717 0.40456 0.0
C397 C 0.35532 0.52629 0.41372 0.0
C398 C 0.33495 0.54795 0.40823 0.0
C399 C 0.34304 0.5703 0.39364 0.0
C400 C 0.31464 0.56586 0.32729 0.0
C401 C 0.33073 0.62134 0.34162 0.0
C402 C 0.33956 0.57004 0.34039 0.0
N403 N 0.34717 0.5975 0.34751 0.0
C404 C 0.30568 0.61802 0.32854 0.0
C405 C 0.2976 0.59006 0.32138 0.0
C406 C 0.40888 0.65908 0.348 0.0
C407 C 0.50953 0.59993 0.37965 0.0
C408 C 0.48634 0.65507 0.3714 0.0
C409 C 0.51403 0.64785 0.36307 0.0
C410 C 0.52563 0.62006 0.36723 0.0
N411 N 0.47064 0.63521 0.38354 0.0
C412 C 0.48192 0.60794 0.38773 0.0
Co413 Co 0.89631 0.38364 0.36527 0.0
Co414 Co 0.85366 0.43285 0.39457 0.0
O415 O 0.89099 0.41906 0.38277 0.0
C416 C 0.91755 0.43127 0.33697 0.0
O417 O 0.89366 0.44524 0.34302 0.0
C418 C 0.89381 0.42697 0.43251 0.0
O419 O 0.8989 0.40012 0.4256 0.0
O420 O 0.84357 0.39286 0.4059 0.0
O421 O 0.86919 0.36113 0.38491 0.0
H422 H 0.74491 0.42928 0.4085 0.0
H423 H 0.94837 0.41598 0.38179 0.0
O424 O 0.92301 0.40585 0.34482 0.0
H425 H 0.95527 0.31715 0.41473 0.0
H426 H 0.95595 0.31144 0.32112 0.0
H427 H 0.85694 0.33704 0.34801 0.0
H428 H 0.91455 0.32961 0.38951 0.0
H429 H 0.94823 0.35562 0.34402 0.0
O430 O 0.87436 0.44259 0.42294 0.0
H431 H 0.79197 0.4121 0.39294 0.0
H432 H 0.8367 0.48364 0.42289 0.0
H433 H 0.86368 0.29254 0.32531 0.0
H434 H 0.98948 0.40445 0.40688 0.0
H435 H 0.91349 0.2795 0.31171 0.0
H436 H 0.99306 0.35474 0.42358 0.0
O437 O 0.86248 0.39394 0.34613 0.0
H438 H 0.91952 0.51987 0.38148 0.0
H439 H 0.82092 0.47817 0.36895 0.0
H440 H 0.833 0.52696 0.35375 0.0
H441 H 0.88261 0.54815 0.36002 0.0
H442 H 0.90664 0.47102 0.39614 0.0
H443 H 0.79017 0.5015 0.43892 0.0
H444 H 0.74383 0.4743 0.43168 0.0
O445 O 0.83311 0.42376 0.36597 0.0
C446 C 0.85013 0.36681 0.39979 0.0
C447 C 0.76494 0.44138 0.41171 0.0
C448 C 0.79035 0.48189 0.42882 0.0
N449 N 0.81698 0.44699 0.40686 0.0
C450 C 0.79162 0.4318 0.40289 0.0
C451 C 0.81663 0.47164 0.41974 0.0
C452 C 0.76435 0.46662 0.42474 0.0
C453 C 0.94998 0.39421 0.3888 0.0
N454 N 0.92922 0.37344 0.38409 0.0
C455 C 0.97323 0.38785 0.40307 0.0
C456 C 0.97518 0.35997 0.41247 0.0
C457 C 0.95398 0.33887 0.40752 0.0
C458 C 0.93097 0.34605 0.39325 0.0
C459 C 0.93416 0.31683 0.32702 0.0
C460 C 0.87871 0.33135 0.34232 0.0
C461 C 0.92966 0.34181 0.33997 0.0
N462 N 0.90222 0.34865 0.34758 0.0
C463 C 0.88238 0.3062 0.3294 0.0
C464 C 0.91033 0.29891 0.32175 0.0
C465 C 0.83911 0.40907 0.34852 0.0
C466 C 0.89781 0.5109 0.37867 0.0
C467 C 0.84259 0.48716 0.37165 0.0
C468 C 0.84928 0.51485 0.36306 0.0
C469 C 0.87711 0.52674 0.3666 0.0
N470 N 0.86301 0.47174 0.38345 0.0
C471 C 0.89033 0.48329 0.38701 0.0
Co472 Co 0.88343 0.3984 0.86483 0.0
Co473 Co 0.9326 0.35544 0.89385 0.0
O474 O 0.91875 0.39289 0.88237 0.0
C475 C 0.93131 0.42059 0.83717 0.0
O476 O 0.94509 0.39636 0.84268 0.0
C477 C 0.9267 0.39503 0.93209 0.0
O478 O 0.89977 0.40001 0.9253 0.0
O479 O 0.89265 0.3452 0.90513 0.0
O480 O 0.86091 0.37068 0.88404 0.0
H481 H 0.92915 0.24652 0.90703 0.0
H482 H 0.91538 0.45024 0.88217 0.0
O483 O 0.90573 0.42572 0.84486 0.0
H484 H 0.81624 0.45586 0.91475 0.0
H485 H 0.81131 0.4587 0.82112 0.0
H486 H 0.83709 0.35923 0.84691 0.0
H487 H 0.82913 0.4158 0.88906 0.0
H488 H 0.85536 0.45065 0.84409 0.0
O489 O 0.9424 0.3758 0.92234 0.0
H490 H 0.91188 0.29375 0.89183 0.0
H491 H 0.98349 0.33817 0.92195 0.0
H492 H 0.79273 0.36628 0.82413 0.0
H493 H 0.90343 0.4907 0.90774 0.0
H494 H 0.77959 0.41633 0.81108 0.0
H495 H 0.85357 0.49364 0.92426 0.0
O496 O 0.89401 0.36504 0.84533 0.0
H497 H 0.01948 0.42157 0.88099 0.0
H498 H 0.97787 0.32307 0.86791 0.0
H499 H 0.02656 0.33541 0.85264 0.0
H500 H 0.04769 0.38499 0.85917 0.0
H501 H 0.97074 0.40842 0.89573 0.0
H502 H 0.00144 0.29146 0.93763 0.0
H503 H 0.97424 0.24519 0.93011 0.0
O504 O 0.92343 0.33521 0.86512 0.0
C505 C 0.8666 0.35156 0.89888 0.0
C506 C 0.94124 0.26652 0.91036 0.0
C507 C 0.98179 0.29175 0.92756 0.0
N508 N 0.9468 0.31861 0.90586 0.0
C509 C 0.93162 0.2933 0.90174 0.0
C510 C 0.9715 0.31813 0.91869 0.0
C511 C 0.96653 0.26579 0.92333 0.0
C512 C 0.89354 0.45157 0.88911 0.0
N513 N 0.87291 0.43082 0.88403 0.0
C514 C 0.88694 0.47446 0.90364 0.0
C515 C 0.85897 0.47605 0.91294 0.0
C516 C 0.83803 0.45485 0.90762 0.0
C517 C 0.84545 0.43221 0.89309 0.0
C518 C 0.81674 0.4368 0.82678 0.0
C519 C 0.83136 0.3811 0.84146 0.0
C520 C 0.84166 0.43211 0.83977 0.0
N521 N 0.84854 0.40455 0.84707 0.0
C522 C 0.80629 0.38494 0.82849 0.0
C523 C 0.79895 0.41302 0.82115 0.0
C524 C 0.90893 0.34152 0.84765 0.0
C525 C 0.01054 0.39988 0.87807 0.0
C526 C 0.98685 0.34471 0.87073 0.0
C527 C 0.01448 0.35155 0.86211 0.0
C528 C 0.02633 0.37936 0.8658 0.0
N529 N 0.97146 0.36496 0.88273 0.0
C530 C 0.98299 0.39225 0.88646 0.0
Co531 Co 0.10148 0.88209 0.86538 0.0
Co532 Co 0.14515 0.93217 0.89299 0.0
O533 O 0.10754 0.91821 0.88186 0.0
C534 C 0.08117 0.92904 0.83611 0.0
O535 O 0.10554 0.94257 0.84163 0.0
C536 C 0.10569 0.92735 0.93137 0.0
O537 O 0.10054 0.90034 0.92485 0.0
O538 O 0.1554 0.8925 0.90482 0.0
O539 O 0.12798 0.86009 0.88577 0.0
H540 H 0.25422 0.92896 0.90554 0.0
H541 H 0.05022 0.91645 0.881 0.0
O542 O 0.0753 0.90392 0.84433 0.0
H543 H 0.04078 0.81936 0.91644 0.0
H544 H 0.04053 0.80921 0.82288 0.0
H545 H 0.1397 0.83326 0.8503 0.0
H546 H 0.08182 0.82967 0.89096 0.0
H547 H 0.04916 0.85444 0.8444 0.0
O548 O 0.12498 0.9428 0.92143 0.0
H549 H 0.20681 0.91137 0.89084 0.0
H550 H 0.16279 0.98366 0.92033 0.0
H551 H 0.13202 0.78769 0.82901 0.0
H552 H 0.0088 0.90706 0.90631 0.0
H553 H 0.08213 0.77543 0.81514 0.0
H554 H 0.00395 0.85825 0.92428 0.0
O555 O 0.13565 0.8906 0.84599 0.0
H556 H 0.07937 0.01896 0.87902 0.0
H557 H 0.17751 0.97647 0.86611 0.0
H558 H 0.1653 0.02476 0.8501 0.0
H559 H 0.11591 0.04633 0.85654 0.0
H560 H 0.09238 0.97062 0.89452 0.0
H561 H 0.20969 0.00193 0.9355 0.0
H562 H 0.25584 0.97456 0.92805 0.0
O563 O 0.16507 0.92203 0.86436 0.0
C564 C 0.14785 0.86625 0.89991 0.0
C565 C 0.23427 0.94113 0.90884 0.0
C566 C 0.20927 0.98206 0.92569 0.0
N567 N 0.18213 0.94659 0.90461 0.0
C568 C 0.20738 0.93132 0.90051 0.0
C569 C 0.18278 0.97158 0.91711 0.0
C570 C 0.23516 0.9667 0.92149 0.0
C571 C 0.04807 0.89505 0.88857 0.0
N572 N 0.06829 0.87357 0.88441 0.0
C573 C 0.02464 0.8899 0.90296 0.0
C574 C 0.02196 0.86253 0.91306 0.0
C575 C 0.04263 0.8407 0.90868 0.0
C576 C 0.06583 0.84667 0.89426 0.0
C577 C 0.06235 0.81428 0.82888 0.0
C578 C 0.11789 0.82796 0.84445 0.0
C579 C 0.06738 0.83987 0.84103 0.0
N580 N 0.09485 0.84632 0.84874 0.0
C581 C 0.11369 0.80218 0.83234 0.0
C582 C 0.0857 0.79533 0.82455 0.0
C583 C 0.159 0.906 0.84762 0.0
C584 C 0.10098 0.00983 0.87614 0.0
C585 C 0.15596 0.98566 0.86892 0.0
C586 C 0.14919 0.01305 0.85987 0.0
C587 C 0.12148 0.02515 0.8635 0.0
N588 N 0.13573 0.97074 0.88129 0.0
C589 C 0.10854 0.9825 0.88496 0.0
Co590 Co 0.62062 0.10011 0.864 0.0
Co591 Co 0.57254 0.14446 0.89282 0.0
O592 O 0.58532 0.10655 0.88141 0.0
C593 C 0.57267 0.07863 0.83616 0.0
O594 O 0.55922 0.10305 0.84165 0.0
C595 C 0.57626 0.10463 0.93106 0.0
O596 O 0.60318 0.0989 0.92458 0.0
O597 O 0.61251 0.15314 0.90469 0.0
O598 O 0.64362 0.12772 0.88304 0.0
H599 H 0.57957 0.25311 0.90643 0.0
H600 H 0.58775 0.04902 0.88159 0.0
O601 O 0.59797 0.07296 0.84415 0.0
H602 H 0.68661 0.04216 0.91449 0.0
H603 H 0.69193 0.03797 0.821 0.0
H604 H 0.66748 0.13828 0.84567 0.0
H605 H 0.6745 0.08216 0.88854 0.0
H606 H 0.64797 0.04707 0.84386 0.0
O607 O 0.56131 0.12428 0.92111 0.0
H608 H 0.59557 0.20536 0.89135 0.0
H609 H 0.52155 0.16341 0.92018 0.0
H610 H 0.71178 0.13018 0.82299 0.0
H611 H 0.59894 0.00861 0.90741 0.0
H612 H 0.72424 0.0797 0.81051 0.0
H613 H 0.64866 0.00506 0.92409 0.0
O614 O 0.61061 0.13329 0.84422 0.0
H615 H 0.48319 0.08209 0.87894 0.0
H616 H 0.52962 0.17843 0.8658 0.0
H617 H 0.48081 0.16812 0.84993 0.0
H618 H 0.45725 0.11966 0.85649 0.0
H619 H 0.5321 0.09318 0.8943 0.0
H620 H 0.50485 0.21066 0.93571 0.0
H621 H 0.53389 0.25596 0.92878 0.0
O622 O 0.58321 0.16457 0.86432 0.0
C623 C 0.63838 0.14655 0.89818 0.0
C624 C 0.56667 0.23355 0.9095 0.0
C625 C 0.52476 0.20971 0.92597 0.0
N626 N 0.55938 0.18171 0.90475 0.0
C627 C 0.57558 0.20648 0.90096 0.0
C628 C 0.53435 0.18302 0.91717 0.0
C629 C 0.54106 0.23512 0.92206 0.0
C630 C 0.60953 0.04741 0.8886 0.0
N631 N 0.6305 0.06778 0.88347 0.0
C632 C 0.6157 0.02457 0.90328 0.0
C633 C 0.64358 0.02262 0.91267 0.0
C634 C 0.66489 0.04345 0.9073 0.0
C635 C 0.65789 0.06606 0.89262 0.0
C636 C 0.6868 0.06004 0.82642 0.0
C637 C 0.67294 0.11623 0.84048 0.0
C638 C 0.66195 0.06533 0.83935 0.0
N639 N 0.65545 0.09312 0.84635 0.0
C640 C 0.69797 0.11179 0.82756 0.0
C641 C 0.70492 0.08347 0.82054 0.0
C642 C 0.59689 0.1575 0.84664 0.0
C643 C 0.49319 0.10332 0.87602 0.0
C644 C 0.51956 0.15727 0.8687 0.0
C645 C 0.49188 0.15158 0.8597 0.0
C646 C 0.47867 0.12439 0.8634 0.0
N647 N 0.53366 0.1365 0.88108 0.0
C648 C 0.52083 0.10979 0.88478 0.0
Co649 Co 0.39701 0.61861 0.86699 0.0
Co650 Co 0.35368 0.56751 0.89389 0.0
O651 O 0.39128 0.58215 0.88315 0.0
C652 C 0.41831 0.5725 0.83736 0.0
O653 O 0.39422 0.5584 0.84278 0.0
C654 C 0.39266 0.57185 0.93259 0.0
O655 O 0.39795 0.59897 0.92637 0.0
O656 O 0.3428 0.60685 0.906 0.0
O657 O 0.36993 0.63991 0.88735 0.0
H658 H 0.24444 0.56934 0.90568 0.0
H659 H 0.44863 0.58484 0.8826 0.0
O660 O 0.42375 0.59754 0.84588 0.0
H661 H 0.45616 0.6815 0.91894 0.0
H662 H 0.45733 0.69309 0.82553 0.0
H663 H 0.35821 0.66703 0.85199 0.0
H664 H 0.41552 0.67092 0.89317 0.0
H665 H 0.44915 0.64742 0.84662 0.0
O666 O 0.37348 0.55662 0.92236 0.0
H667 H 0.29184 0.58768 0.8915 0.0
H668 H 0.33624 0.51531 0.92055 0.0
H669 H 0.36542 0.71302 0.83114 0.0
H670 H 0.48968 0.5945 0.9082 0.0
H671 H 0.41528 0.72629 0.81774 0.0
H672 H 0.49357 0.64311 0.92661 0.0
O673 O 0.36325 0.60986 0.84726 0.0
H674 H 0.42074 0.48176 0.87972 0.0
H675 H 0.32225 0.52321 0.86639 0.0
H676 H 0.33528 0.4753 0.8501 0.0
H677 H 0.38484 0.45425 0.85675 0.0
H678 H 0.40691 0.52973 0.89547 0.0
H679 H 0.28934 0.49628 0.93519 0.0
H680 H 0.243 0.52331 0.9277 0.0
O681 O 0.33405 0.57782 0.86522 0.0
C682 C 0.35 0.63327 0.90132 0.0
C683 C 0.26447 0.55731 0.90899 0.0
C684 C 0.28968 0.51633 0.92559 0.0
N685 N 0.31672 0.55247 0.90507 0.0
C686 C 0.29135 0.56755 0.90096 0.0
C687 C 0.31617 0.52725 0.91731 0.0
C688 C 0.26368 0.5315 0.92137 0.0
C689 C 0.45037 0.60615 0.89037 0.0
N690 N 0.42984 0.62735 0.8863 0.0
C691 C 0.47358 0.61145 0.90492 0.0
C692 C 0.47572 0.63871 0.91527 0.0
C693 C 0.45473 0.66026 0.91099 0.0
C694 C 0.43176 0.65413 0.8964 0.0
C695 C 0.43552 0.68758 0.83132 0.0
C696 C 0.38 0.67277 0.84635 0.0
C697 C 0.43075 0.66173 0.84323 0.0
N698 N 0.40329 0.65472 0.85068 0.0
C699 C 0.38394 0.69878 0.83449 0.0
C700 C 0.41191 0.7062 0.82696 0.0
C701 C 0.34012 0.59411 0.84861 0.0
C702 C 0.39905 0.49067 0.87673 0.0
C703 C 0.34388 0.51426 0.86929 0.0
C704 C 0.35112 0.48708 0.86007 0.0
C705 C 0.37892 0.47527 0.86383 0.0
N706 N 0.36375 0.52925 0.88192 0.0
C707 C 0.39104 0.51778 0.8857 0.0
Co708 Co 0.88293 0.10264 0.6364 0.0
Co709 Co 0.93193 0.14587 0.60737 0.0
O710 O 0.91821 0.10832 0.61882 0.0
C711 C 0.93073 0.08061 0.66413 0.0
O712 O 0.94469 0.10466 0.65841 0.0
C713 C 0.92579 0.10647 0.56908 0.0
O714 O 0.89889 0.10147 0.57596 0.0
O715 O 0.89192 0.1561 0.59625 0.0
O716 O 0.86032 0.13032 0.61726 0.0
H717 H 0.92819 0.25484 0.5945 0.0
H718 H 0.91499 0.05095 0.619 0.0
O719 O 0.90523 0.0754 0.65635 0.0
H720 H 0.81587 0.04506 0.58642 0.0
H721 H 0.8109 0.04201 0.67999 0.0
H722 H 0.83669 0.14168 0.65459 0.0
H723 H 0.82865 0.08511 0.61216 0.0
H724 H 0.85488 0.05024 0.65696 0.0
O725 O 0.94157 0.12568 0.57881 0.0
H726 H 0.91112 0.20749 0.60965 0.0
H727 H 0.98262 0.16341 0.57913 0.0
H728 H 0.7924 0.13445 0.67743 0.0
H729 H 0.90315 0.0105 0.59338 0.0
H730 H 0.77925 0.0843 0.69028 0.0
H731 H 0.85329 0.00743 0.57686 0.0
O732 O 0.89348 0.136 0.65593 0.0
H733 H 0.01908 0.07996 0.61961 0.0
H734 H 0.9773 0.17822 0.63326 0.0
H735 H 0.02616 0.16597 0.64824 0.0
H736 H 0.04738 0.11652 0.64141 0.0
H737 H 0.97016 0.09301 0.60518 0.0
H738 H 1.00037 0.21025 0.56351 0.0
H739 H 0.97314 0.2564 0.57125 0.0
O740 O 0.92291 0.16592 0.63619 0.0
C741 C 0.86592 0.14956 0.6025 0.0
C742 C 0.94031 0.23489 0.59107 0.0
C743 C 0.9808 0.20986 0.57365 0.0
N744 N 0.946 0.18279 0.59542 0.0
C745 C 0.9308 0.20805 0.59966 0.0
C746 C 0.97061 0.1834 0.5825 0.0
C747 C 0.96551 0.23575 0.57801 0.0
C748 C 0.89316 0.04956 0.61206 0.0
N749 N 0.87248 0.07023 0.61717 0.0
C750 C 0.88661 0.02669 0.5975 0.0
C751 C 0.85865 0.02501 0.5882 0.0
C752 C 0.83765 0.04613 0.59355 0.0
C753 C 0.84501 0.06876 0.60811 0.0
C754 C 0.81632 0.06394 0.67441 0.0
C755 C 0.83094 0.11976 0.65994 0.0
C756 C 0.8412 0.06873 0.66138 0.0
N757 N 0.84807 0.09635 0.65418 0.0
C758 C 0.80591 0.11582 0.67295 0.0
C759 C 0.79858 0.08768 0.68018 0.0
C760 C 0.90844 0.15952 0.65366 0.0
C761 C 0.01009 0.1016 0.62266 0.0
C762 C 0.98631 0.15663 0.63032 0.0
C763 C 0.01404 0.14984 0.63877 0.0
C764 C 0.02594 0.1221 0.63492 0.0
N765 N 0.97088 0.1364 0.61833 0.0
C766 C 0.98244 0.10917 0.61445 0.0
Co767 Co 0.39905 0.87944 0.63624 0.0
Co768 Co 0.35608 0.92907 0.60766 0.0
O769 O 0.39347 0.91525 0.61927 0.0
C770 C 0.42023 0.92661 0.66497 0.0
O771 O 0.39593 0.94029 0.65949 0.0
C772 C 0.39639 0.92475 0.56969 0.0
O773 O 0.40152 0.89768 0.57608 0.0
O774 O 0.34647 0.88938 0.59556 0.0
O775 O 0.37187 0.85727 0.61638 0.0
H776 H 0.24745 0.92493 0.59332 0.0
H777 H 0.45086 0.91244 0.61996 0.0
O778 O 0.4258 0.90137 0.65684 0.0
H779 H 0.45799 0.81443 0.58567 0.0
H780 H 0.45936 0.80655 0.67919 0.0
H781 H 0.36004 0.83222 0.65303 0.0
H782 H 0.41738 0.82611 0.61121 0.0
H783 H 0.45124 0.85123 0.65693 0.0
O784 O 0.37688 0.94 0.57954 0.0
H785 H 0.29459 0.90765 0.60868 0.0
H786 H 0.33879 0.98066 0.5803 0.0
H787 H 0.36717 0.78722 0.67508 0.0
H788 H 0.49185 0.90169 0.59457 0.0
H789 H 0.41715 0.77414 0.68832 0.0
H790 H 0.49555 0.85241 0.57719 0.0
O791 O 0.36524 0.88907 0.6556 0.0
H792 H 0.42099 0.01624 0.62272 0.0
H793 H 0.32277 0.9731 0.63412 0.0
H794 H 0.33429 0.02142 0.65037 0.0
H795 H 0.38372 0.04332 0.64468 0.0
H796 H 0.40865 0.96784 0.60699 0.0
H797 H 0.29217 0.99863 0.56449 0.0
H798 H 0.24606 0.97074 0.57104 0.0
O799 O 0.33542 0.91875 0.63602 0.0
C800 C 0.35297 0.86322 0.60144 0.0
C801 C 0.26737 0.93733 0.59041 0.0
C802 C 0.29248 0.97867 0.5742 0.0
N803 N 0.31933 0.94327 0.59553 0.0
C804 C 0.2941 0.9277 0.59912 0.0
C805 C 0.31882 0.96836 0.58315 0.0
C806 C 0.26662 0.96302 0.57789 0.0
C807 C 0.45251 0.89084 0.61265 0.0
N808 N 0.43189 0.86986 0.61717 0.0
C809 C 0.4757 0.88492 0.59821 0.0
C810 C 0.47772 0.85728 0.58843 0.0
C811 C 0.45664 0.83597 0.59318 0.0
C812 C 0.4337 0.84271 0.60763 0.0
C813 C 0.43751 0.81195 0.67344 0.0
C814 C 0.38188 0.82651 0.65855 0.0
C815 C 0.43277 0.83722 0.66085 0.0
N816 N 0.40526 0.84407 0.65344 0.0
C817 C 0.38577 0.80108 0.67111 0.0
C818 C 0.41381 0.79377 0.67856 0.0
C819 C 0.34158 0.90378 0.6533 0.0
C820 C 0.39936 0.00696 0.62527 0.0
C821 C 0.34435 0.98242 0.63166 0.0
C822 C 0.35072 0.00983 0.64084 0.0
C823 C 0.37845 0.02212 0.63762 0.0
N824 N 0.36497 0.96765 0.61958 0.0
C825 C 0.39219 0.9796 0.61632 0.0
Co826 Co 0.61744 0.40225 0.63674 0.0
Co827 Co 0.57004 0.35628 0.60874 0.0
O828 O 0.5823 0.39474 0.6194 0.0
C829 C 0.56914 0.42424 0.66395 0.0
O830 O 0.5559 0.39955 0.65884 0.0
C831 C 0.57356 0.39482 0.56983 0.0
O832 O 0.6005 0.40075 0.57616 0.0
O833 O 0.61012 0.34775 0.59708 0.0
O834 O 0.64084 0.37416 0.61838 0.0
H835 H 0.57853 0.24732 0.59718 0.0
H836 H 0.58413 0.45224 0.61795 0.0
O837 O 0.59444 0.42988 0.65594 0.0
H838 H 0.68307 0.45893 0.58513 0.0
H839 H 0.68795 0.46687 0.67844 0.0
H840 H 0.66443 0.36531 0.65623 0.0
H841 H 0.67126 0.41985 0.61195 0.0
H842 H 0.64423 0.45638 0.65566 0.0
O843 O 0.55867 0.37538 0.58009 0.0
H844 H 0.59384 0.29577 0.61139 0.0
H845 H 0.51938 0.33572 0.58168 0.0
H846 H 0.7085 0.3748 0.67885 0.0
H847 H 0.59501 0.49173 0.59126 0.0
H848 H 0.7205 0.42591 0.6901 0.0
H849 H 0.64477 0.49519 0.57462 0.0
O850 O 0.60763 0.36975 0.6572 0.0
H851 H 0.47978 0.41781 0.62118 0.0
H852 H 0.52751 0.32268 0.6364 0.0
H853 H 0.47849 0.33284 0.65196 0.0
H854 H 0.45428 0.38068 0.64435 0.0
H855 H 0.52891 0.4069 0.60616 0.0
H856 H 0.50335 0.28774 0.56701 0.0
H857 H 0.53296 0.2431 0.57482 0.0
O858 O 0.58089 0.33729 0.63764 0.0
C859 C 0.63586 0.35484 0.60354 0.0
C860 C 0.56538 0.26659 0.59373 0.0
C861 C 0.52321 0.28929 0.57677 0.0
N862 N 0.55739 0.31846 0.59751 0.0
C863 C 0.5739 0.29406 0.60178 0.0
C864 C 0.53242 0.3164 0.58507 0.0
C865 C 0.53983 0.26424 0.58117 0.0
C866 C 0.60593 0.45382 0.61096 0.0
N867 N 0.62709 0.43391 0.61659 0.0
C868 C 0.61192 0.47615 0.59579 0.0
C869 C 0.63983 0.47804 0.58642 0.0
C870 C 0.66133 0.45768 0.5923 0.0
C871 C 0.65451 0.43559 0.60747 0.0
C872 C 0.68304 0.44453 0.67355 0.0
C873 C 0.6697 0.38763 0.66086 0.0
C874 C 0.65832 0.43846 0.66066 0.0
N875 N 0.65209 0.41032 0.65433 0.0
C876 C 0.6946 0.39286 0.67376 0.0
C877 C 0.70129 0.42153 0.68009 0.0
C878 C 0.59427 0.34525 0.65523 0.0
C879 C 0.49006 0.39684 0.62456 0.0
C880 C 0.51716 0.34358 0.63305 0.0
C881 C 0.48937 0.34919 0.64187 0.0
C882 C 0.47579 0.37602 0.63759 0.0
N883 N 0.53102 0.36411 0.62027 0.0
C884 C 0.51783 0.39048 0.616 0.0
Co885 Co 0.10254 0.61994 0.63638 0.0
Co886 Co 0.14564 0.57048 0.60771 0.0
O887 O 0.10821 0.58416 0.61938 0.0
C888 C 0.08176 0.57275 0.66531 0.0
O889 O 0.1059 0.55899 0.65955 0.0
C890 C 0.10536 0.57497 0.56977 0.0
O891 O 0.10014 0.60197 0.57629 0.0
O892 O 0.1552 0.61024 0.59573 0.0
O893 O 0.1295 0.64225 0.61644 0.0
H894 H 0.25428 0.57489 0.59342 0.0
H895 H 0.0508 0.5867 0.6203 0.0
O896 O 0.07603 0.59792 0.65712 0.0
H897 H 0.04301 0.68465 0.58599 0.0
H898 H 0.04214 0.6926 0.6795 0.0
H899 H 0.14146 0.66726 0.65311 0.0
H900 H 0.08382 0.67318 0.6114 0.0
H901 H 0.05033 0.64797 0.65719 0.0
O902 O 0.12491 0.5597 0.57956 0.0
H903 H 0.2071 0.59199 0.60883 0.0
H904 H 0.16305 0.51909 0.58017 0.0
H905 H 0.13426 0.71222 0.67521 0.0
H906 H 0.00961 0.59723 0.59503 0.0
H907 H 0.08429 0.72513 0.68856 0.0
H908 H 0.00559 0.64649 0.57765 0.0
O909 O 0.13647 0.61044 0.65563 0.0
H910 H 0.0809 0.48306 0.62237 0.0
H911 H 0.17901 0.52634 0.63403 0.0
H912 H 0.16758 0.47787 0.65006 0.0
H913 H 0.11822 0.45589 0.64424 0.0
H914 H 0.09314 0.53161 0.60687 0.0
H915 H 0.20971 0.5013 0.56431 0.0
H916 H 0.25577 0.52923 0.57098 0.0
O917 O 0.16624 0.58065 0.6361 0.0
C918 C 0.1485 0.63638 0.60156 0.0
C919 C 0.23438 0.56248 0.59046 0.0
C920 C 0.20935 0.52119 0.57409 0.0
N921 N 0.18243 0.55642 0.59554 0.0
C922 C 0.20762 0.572 0.59919 0.0
C923 C 0.18299 0.5314 0.58307 0.0
C924 C 0.23519 0.53687 0.57785 0.0
C925 C 0.049 0.60829 0.61298 0.0
N926 N 0.06955 0.62937 0.61742 0.0
C927 C 0.0257 0.61408 0.59862 0.0
C928 C 0.02349 0.64171 0.58884 0.0
C929 C 0.0445 0.66312 0.5935 0.0
C930 C 0.06756 0.6565 0.60788 0.0
C931 C 0.06399 0.68727 0.6737 0.0
C932 C 0.11961 0.6729 0.65868 0.0
C933 C 0.06876 0.66204 0.66108 0.0
N934 N 0.09627 0.65528 0.6536 0.0
C935 C 0.11569 0.69831 0.67127 0.0
C936 C 0.08765 0.70552 0.67878 0.0
C937 C 0.16009 0.59566 0.65336 0.0
C938 C 0.10251 0.49237 0.62499 0.0
C939 C 0.15745 0.517 0.63152 0.0
C940 C 0.15113 0.48949 0.64057 0.0
C941 C 0.12344 0.47716 0.63728 0.0
N942 N 0.13681 0.5318 0.61949 0.0
C943 C 0.10962 0.51982 0.61616 0.0
H944 H 0.19101 0.65228 0.11956 0.0
H945 H 0.22937 0.68672 0.10949 0.0
H946 H 0.17735 0.71661 0.05432 0.0
H947 H 0.13759 0.68343 0.0654 0.0
H948 H 0.26382 0.69637 0.07729 0.0
H949 H 0.18969 0.79306 0.08324 0.0
H950 H 0.1779 0.75671 0.09085 0.0
H951 H 0.1796 0.76726 0.06221 0.0
C952 C 0.18762 0.66601 0.1052 0.0
C953 C 0.16089 0.66543 0.09357 0.0
C954 C 0.20975 0.68575 0.09938 0.0
C955 C 0.20607 0.70503 0.08149 0.0
C956 C 0.18035 0.70286 0.06871 0.0
H957 H 0.36567 0.81518 0.06575 0.0
H958 H 0.32633 0.78143 0.05476 0.0
C959 C 0.15775 0.6836 0.07492 0.0
C960 C 0.22874 0.72807 0.07732 0.0
H961 H 0.23923 0.80239 0.07587 0.0
C962 C 0.25843 0.71958 0.07685 0.0
C963 C 0.22177 0.75842 0.07674 0.0
C964 C 0.19057 0.7695 0.07848 0.0
C965 C 0.28126 0.74037 0.0774 0.0
C966 C 0.27428 0.77073 0.07717 0.0
C967 C 0.24462 0.77918 0.07605 0.0
C968 C 0.29682 0.79393 0.08122 0.0
C969 C 0.31241 0.7294 0.07985 0.0
C970 C 0.29259 0.81384 0.09865 0.0
C971 C 0.31449 0.83385 0.1044 0.0
C972 C 0.34155 0.83412 0.09317 0.0
C973 C 0.34526 0.81528 0.07495 0.0
C974 C 0.32289 0.79571 0.06881 0.0
H975 H 0.31317 0.70601 0.08509 0.0
H976 H 0.32384 0.73108 0.06372 0.0
H977 H 0.32471 0.74264 0.09215 0.0
H978 H 0.27269 0.81318 0.10846 0.0
H979 H 0.31063 0.8481 0.1184 0.0
H980 H 0.84871 0.18924 0.12256 0.0
H981 H 0.81454 0.22809 0.11293 0.0
H982 H 0.78708 0.17917 0.05548 0.0
H983 H 0.82004 0.13898 0.06597 0.0
H984 H 0.8063 0.26423 0.08119 0.0
H985 H 0.70953 0.18979 0.08349 0.0
H986 H 0.74563 0.17778 0.09157 0.0
H987 H 0.73609 0.18054 0.06278 0.0
C988 C 0.83559 0.18668 0.10779 0.0
C989 C 0.83678 0.1607 0.09527 0.0
C990 C 0.81602 0.20907 0.10223 0.0
C991 C 0.79751 0.20635 0.08379 0.0
C992 C 0.80025 0.18139 0.07026 0.0
H993 H 0.68767 0.36586 0.06767 0.0
H994 H 0.72206 0.32684 0.05724 0.0
C995 C 0.81936 0.15855 0.07614 0.0
C996 C 0.77463 0.22915 0.07976 0.0
H997 H 0.70039 0.23959 0.07687 0.0
C998 C 0.78313 0.25884 0.08011 0.0
C999 C 0.74433 0.22216 0.07838 0.0
C1000 C 0.73325 0.19089 0.07923 0.0
C1001 C 0.7623 0.28162 0.08056 0.0
C1002 C 0.73199 0.27461 0.07948 0.0
C1003 C 0.72358 0.24499 0.07767 0.0
C1004 C 0.70863 0.29701 0.08323 0.0
C1005 C 0.7731 0.31271 0.08377 0.0
C1006 C 0.68813 0.29251 0.10022 0.0
C1007 C 0.66783 0.31426 0.10569 0.0
C1008 C 0.66783 0.34139 0.09457 0.0
C1009 C 0.68733 0.34538 0.07677 0.0
C1010 C 0.70725 0.3232 0.07095 0.0
H1011 H 0.79625 0.31337 0.08958 0.0
H1012 H 0.77206 0.3246 0.06781 0.0
H1013 H 0.75931 0.32462 0.09595 0.0
H1014 H 0.6885 0.2725 0.10992 0.0
H1015 H 0.65308 0.31019 0.11936 0.0
H1016 H 0.19135 0.84967 0.38568 0.0
H1017 H 0.22971 0.81541 0.3959 0.0
H1018 H 0.17567 0.78235 0.44894 0.0
H1019 H 0.13593 0.81538 0.43762 0.0
H1020 H 0.26288 0.80431 0.42868 0.0
H1021 H 0.18954 0.70762 0.4179 0.0
H1022 H 0.17789 0.74428 0.41111 0.0
H1023 H 0.17857 0.73227 0.43945 0.0
C1024 C 0.1875 0.83529 0.3996 0.0
C1025 C 0.16021 0.83489 0.41049 0.0
C1026 C 0.20965 0.81567 0.40553 0.0
C1027 C 0.20541 0.79553 0.42281 0.0
C1028 C 0.17912 0.7968 0.43499 0.0
H1029 H 0.36474 0.68458 0.43675 0.0
H1030 H 0.32532 0.71777 0.4485 0.0
C1031 C 0.15652 0.81596 0.42866 0.0
C1032 C 0.22803 0.77244 0.42676 0.0
H1033 H 0.23893 0.69819 0.42543 0.0
C1034 C 0.25763 0.78107 0.42813 0.0
C1035 C 0.22122 0.74204 0.42606 0.0
C1036 C 0.19015 0.73092 0.42337 0.0
C1037 C 0.28061 0.76049 0.42711 0.0
C1038 C 0.27379 0.73013 0.42592 0.0
C1039 C 0.24417 0.72142 0.42629 0.0
C1040 C 0.2965 0.70742 0.4211 0.0
C1041 C 0.31176 0.77178 0.42566 0.0
C1042 C 0.29272 0.68898 0.40272 0.0
C1043 C 0.31465 0.6693 0.39649 0.0
C1044 C 0.34129 0.66791 0.40819 0.0
C1045 C 0.34464 0.6854 0.42719 0.0
C1046 C 0.32223 0.70463 0.43379 0.0
H1047 H 0.31256 0.79556 0.42154 0.0
H1048 H 0.32276 0.76878 0.44184 0.0
H1049 H 0.32444 0.75964 0.41294 0.0
H1050 H 0.27312 0.6905 0.39264 0.0
H1051 H 0.31113 0.65613 0.38185 0.0
H1052 H 0.8116 0.3668 0.43486 0.0
H1053 H 0.77846 0.32709 0.44602 0.0
H1054 H 0.81431 0.27189 0.39474 0.0
H1055 H 0.84842 0.31039 0.38453 0.0
H1056 H 0.73596 0.30511 0.42515 0.0
H1057 H 0.80975 0.21232 0.44115 0.0
H1058 H 0.82356 0.24927 0.43822 0.0
H1059 H 0.8182 0.2262 0.41427 0.0
C1060 C 0.81297 0.34588 0.42639 0.0
C1061 C 0.83277 0.34187 0.40879 0.0
C1062 C 0.79391 0.3232 0.43274 0.0
C1063 C 0.79406 0.29614 0.42151 0.0
C1064 C 0.8143 0.292 0.40428 0.0
H1065 H 0.65148 0.19203 0.38182 0.0
H1066 H 0.68506 0.2309 0.39235 0.0
C1067 C 0.8337 0.31434 0.39825 0.0
C1068 C 0.77118 0.2734 0.42592 0.0
H1069 H 0.76091 0.19914 0.42693 0.0
C1070 C 0.74151 0.28198 0.42607 0.0
C1071 C 0.77805 0.24315 0.42789 0.0
C1072 C 0.80917 0.23234 0.43065 0.0
C1073 C 0.71874 0.26114 0.42634 0.0
C1074 C 0.72572 0.23083 0.42537 0.0
C1075 C 0.75532 0.2223 0.42707 0.0
C1076 C 0.70319 0.2079 0.42055 0.0
C1077 C 0.68746 0.27204 0.42745 0.0
C1078 C 0.70242 0.18138 0.43247 0.0
C1079 C 0.68371 0.15849 0.42598 0.0
C1080 C 0.66515 0.16175 0.40756 0.0
C1081 C 0.66519 0.18872 0.39621 0.0
C1082 C 0.68428 0.21126 0.4024 0.0
H1083 H 0.68607 0.29251 0.43738 0.0
H1084 H 0.67974 0.27741 0.41055 0.0
H1085 H 0.6725 0.25543 0.4348 0.0
H1086 H 0.71686 0.17809 0.44647 0.0
H1087 H 0.6843 0.13801 0.43508 0.0
H1088 H 0.81052 0.34879 0.88299 0.0
H1089 H 0.77235 0.31416 0.89298 0.0
H1090 H 0.82714 0.27965 0.94501 0.0
H1091 H 0.86652 0.31332 0.9341 0.0
H1092 H 0.80611 0.2366 0.92412 0.0
H1093 H 0.71211 0.30938 0.93895 0.0
H1094 H 0.72633 0.31761 0.91213 0.0
H1095 H 0.74893 0.32361 0.93624 0.0
C1096 C 0.81443 0.33425 0.89682 0.0
C1097 C 0.84176 0.33387 0.90767 0.0
C1098 C 0.79228 0.31455 0.90272 0.0
C1099 C 0.79641 0.29454 0.9201 0.0
C1100 C 0.82326 0.2949 0.9316 0.0
H1101 H 0.63957 0.18318 0.93433 0.0
H1102 H 0.67934 0.21626 0.94543 0.0
C1103 C 0.84576 0.31427 0.92539 0.0
C1104 C 0.77392 0.2714 0.92446 0.0
H1105 H 0.69979 0.26013 0.92531 0.0
C1106 C 0.78289 0.24185 0.9249 0.0
C1107 C 0.74356 0.27788 0.92623 0.0
C1108 C 0.7323 0.3089 0.92864 0.0
C1109 C 0.76236 0.21879 0.92532 0.0
C1110 C 0.73196 0.22535 0.92423 0.0
C1111 C 0.72302 0.25485 0.92557 0.0
C1112 C 0.70932 0.20241 0.91968 0.0
C1113 C 0.77368 0.18769 0.92676 0.0
C1114 C 0.71291 0.18315 0.90176 0.0
C1115 C 0.69055 0.16375 0.89574 0.0
C1116 C 0.66353 0.16373 0.90702 0.0
C1117 C 0.66009 0.18256 0.92528 0.0
C1118 C 0.6828 0.20159 0.9316 0.0
H1119 H 0.79416 0.18675 0.93671 0.0
H1120 H 0.75727 0.17265 0.93426 0.0
H1121 H 0.77916 0.17973 0.90994 0.0
H1122 H 0.73257 0.18392 0.89171 0.0
H1123 H 0.69401 0.14982 0.88149 0.0
H1124 H 0.29928 0.62954 0.92584 0.0
H1125 H 0.26455 0.66933 0.93343 0.0
H1126 H 0.32455 0.73179 0.90469 0.0
H1127 H 0.35943 0.69242 0.89699 0.0
H1128 H 0.27066 0.73198 0.95486 0.0
H1129 H 0.24639 0.72645 0.86486 0.0
H1130 H 0.26387 0.69668 0.87953 0.0
H1131 H 0.2845 0.72896 0.87253 0.0
C1132 C 0.30551 0.65182 0.92166 0.0
C1133 C 0.33203 0.65764 0.91047 0.0
C1134 C 0.2856 0.67453 0.92605 0.0
C1135 C 0.29193 0.70336 0.91941 0.0
C1136 C 0.31927 0.70961 0.90985 0.0
H1137 H 0.19915 0.86875 0.92377 0.0
H1138 H 0.23223 0.82795 0.93205 0.0
C1139 C 0.33916 0.687 0.90544 0.0
C1140 C 0.26868 0.72608 0.91964 0.0
H1141 H 0.22334 0.76409 0.88511 0.0
C1142 C 0.26017 0.73902 0.93968 0.0
C1143 C 0.25487 0.73485 0.89981 0.0
C1144 C 0.26261 0.72095 0.87793 0.0
C1145 C 0.23849 0.76108 0.94028 0.0
C1146 C 0.22525 0.77037 0.92032 0.0
C1147 C 0.23349 0.75695 0.9004 0.0
C1148 C 0.20319 0.79435 0.91928 0.0
C1149 C 0.22974 0.77407 0.96221 0.0
C1150 C 0.17563 0.78901 0.9097 0.0
C1151 C 0.15675 0.81228 0.90477 0.0
C1152 C 0.16508 0.84147 0.90923 0.0
C1153 C 0.19193 0.84659 0.92014 0.0
C1154 C 0.21088 0.82323 0.92501 0.0
H1155 H 0.23603 0.75954 0.97618 0.0
H1156 H 0.24108 0.79545 0.96444 0.0
H1157 H 0.20569 0.77807 0.96289 0.0
H1158 H 0.16928 0.7669 0.90511 0.0
H1159 H 0.13622 0.80742 0.89648 0.0
H1160 H 0.63869 0.32011 0.56641 0.0
H1161 H 0.67847 0.28667 0.55591 0.0
H1162 H 0.72883 0.31543 0.61229 0.0
H1163 H 0.69039 0.35008 0.62188 0.0
H1164 H 0.76423 0.30599 0.58041 0.0
H1165 H 0.68923 0.20982 0.58487 0.0
H1166 H 0.6797 0.23586 0.56386 0.0
H1167 H 0.6776 0.2462 0.59253 0.0
C1168 C 0.65849 0.31963 0.57632 0.0
C1169 C 0.66115 0.33755 0.59516 0.0
C1170 C 0.68109 0.30023 0.57045 0.0
C1171 C 0.70633 0.29769 0.58371 0.0
C1172 C 0.70957 0.31671 0.60181 0.0
H1173 H 0.81033 0.15288 0.61922 0.0
H1174 H 0.77246 0.18824 0.61 0.0
C1175 C 0.68742 0.33657 0.60734 0.0
C1176 C 0.72891 0.27455 0.57976 0.0
H1177 H 0.73879 0.20018 0.57757 0.0
C1178 C 0.75866 0.28284 0.57966 0.0
C1179 C 0.72169 0.24426 0.57884 0.0
C1180 C 0.69037 0.23341 0.58023 0.0
C1181 C 0.78131 0.26187 0.58008 0.0
C1182 C 0.77409 0.23157 0.57937 0.0
C1183 C 0.74437 0.22335 0.57806 0.0
C1184 C 0.79646 0.20812 0.58295 0.0
C1185 C 0.81253 0.27253 0.58282 0.0
C1186 C 0.82239 0.20656 0.57036 0.0
C1187 C 0.84468 0.1867 0.57606 0.0
C1188 C 0.84106 0.16741 0.59402 0.0
C1189 C 0.81412 0.16748 0.60541 0.0
C1190 C 0.79226 0.18775 0.60008 0.0
H1191 H 0.81343 0.29573 0.58851 0.0
H1192 H 0.82467 0.25879 0.59491 0.0
H1193 H 0.82403 0.27132 0.5667 0.0
H1194 H 0.82577 0.22122 0.55653 0.0
H1195 H 0.865 0.18698 0.56675 0.0
H1196 H 0.1514 0.69268 0.6169 0.0
H1197 H 0.18559 0.73082 0.6061 0.0
H1198 H 0.21871 0.67554 0.55383 0.0
H1199 H 0.18557 0.63615 0.56562 0.0
H1200 H 0.26225 0.69672 0.57346 0.0
H1201 H 0.18938 0.79089 0.5602 0.0
H1202 H 0.18183 0.77689 0.58719 0.0
H1203 H 0.17504 0.75417 0.56325 0.0
C1204 C 0.16552 0.68865 0.60285 0.0
C1205 C 0.16572 0.66118 0.59221 0.0
C1206 C 0.18497 0.71079 0.59647 0.0
C1207 C 0.20448 0.70653 0.57879 0.0
C1208 C 0.20385 0.67954 0.56747 0.0
H1209 H 0.31569 0.86363 0.56563 0.0
H1210 H 0.28242 0.82434 0.55388 0.0
C1211 C 0.18478 0.65704 0.57418 0.0
C1212 C 0.22752 0.72898 0.57399 0.0
H1213 H 0.23894 0.80309 0.57365 0.0
C1214 C 0.25702 0.71995 0.57296 0.0
C1215 C 0.22107 0.75938 0.57251 0.0
C1216 C 0.19004 0.77076 0.57057 0.0
C1217 C 0.28011 0.74043 0.57237 0.0
C1218 C 0.27367 0.77082 0.57395 0.0
C1219 C 0.24416 0.77985 0.57306 0.0
C1220 C 0.29675 0.79324 0.57873 0.0
C1221 C 0.31113 0.72906 0.57027 0.0
C1222 C 0.31634 0.78889 0.59634 0.0
C1223 C 0.33586 0.81097 0.60269 0.0
C1224 C 0.33565 0.83849 0.59211 0.0
C1225 C 0.31649 0.84272 0.57415 0.0
C1226 C 0.29735 0.82027 0.56746 0.0
H1227 H 0.31172 0.70898 0.55985 0.0
H1228 H 0.32608 0.74569 0.56293 0.0
H1229 H 0.31945 0.72286 0.58685 0.0
H1230 H 0.31575 0.76883 0.60592 0.0
H1231 H 0.35005 0.80687 0.61669 0.0
H1232 H 0.91017 0.48347 0.31569 0.0
H1233 H 0.93949 0.50337 0.28546 0.0
H1234 H 0.99752 0.42869 0.28899 0.0
H1235 H 0.96816 0.40832 0.31936 0.0
H1236 H 0.02482 0.48886 0.2858 0.0
H1237 H 0.94059 0.46512 0.22188 0.0
H1238 H 0.92708 0.48314 0.24627 0.0
H1239 H 0.9415 0.4465 0.24823 0.0
C1240 C 0.92922 0.47125 0.31015 0.0
C1241 C 0.93671 0.44418 0.31982 0.0
C1242 C 0.94587 0.48264 0.29283 0.0
C1243 C 0.97032 0.46724 0.28486 0.0
C1244 C 0.97855 0.44073 0.29488 0.0
H1245 H 0.09192 0.52967 0.18171 0.0
H1246 H 0.06937 0.49852 0.21006 0.0
C1247 C 0.96178 0.42918 0.3122 0.0
C1248 C 0.98695 0.47903 0.26589 0.0
H1249 H 0.9793 0.49752 0.21163 0.0
C1250 C 0.01517 0.49041 0.26947 0.0
C1251 C 0.97415 0.48089 0.24469 0.0
C1252 C 0.94425 0.46806 0.23988 0.0
C1253 C 0.03039 0.5051 0.25257 0.0
C1254 C 0.01714 0.50784 0.23153 0.0
C1255 C 0.98937 0.49541 0.22779 0.0
C1256 C 0.03057 0.52557 0.21369 0.0
C1257 C 0.0598 0.51884 0.25769 0.0
C1258 C 0.01577 0.55049 0.20586 0.0
C1259 C 0.0284 0.56812 0.1896 0.0
C1260 C 0.05612 0.56115 0.18081 0.0
C1261 C 0.07062 0.53571 0.18826 0.0
C1262 C 0.05788 0.51801 0.20454 0.0
H1263 H 0.06411 0.51981 0.27573 0.0
H1264 H 0.07745 0.50557 0.24993 0.0
H1265 H 0.06109 0.54145 0.25086 0.0
H1266 H 0.9946 0.55662 0.21264 0.0
H1267 H 0.01655 0.58745 0.18417 0.0
H1268 H 0.91754 0.01312 0.18189 0.0
H1269 H 0.94835 0.9913 0.21043 0.0
H1270 H 0.00566 0.06676 0.20849 0.0
H1271 H 0.97454 0.08917 0.18009 0.0
H1272 H 0.00776 0.97677 0.21036 0.0
H1273 H 0.98233 0.06158 0.27379 0.0
H1274 H 0.96149 0.05809 0.24858 0.0
H1275 H 0.99715 0.07498 0.2482 0.0
C1276 C 0.93673 0.02511 0.18745 0.0
C1277 C 0.94343 0.05303 0.17889 0.0
C1278 C 0.95434 0.01256 0.20374 0.0
C1279 C 0.97897 0.02764 0.21181 0.0
C1280 C 0.98639 0.05505 0.20278 0.0
H1281 H 0.09333 0.96828 0.31999 0.0
H1282 H 0.07353 0.99688 0.28904 0.0
C1283 C 0.9687 0.06771 0.18647 0.0
C1284 C 0.99634 0.01456 0.22996 0.0
H1285 H 0.01345 0.0228 0.28452 0.0
C1286 C 0.00924 0.98695 0.22652 0.0
C1287 C 0.99821 0.02795 0.25101 0.0
C1288 C 0.98391 0.05718 0.25579 0.0
C1289 C 0.0234 0.97202 0.24373 0.0
C1290 C 0.02441 0.98497 0.26491 0.0
C1291 C 0.01255 0.01304 0.2682 0.0
C1292 C 0.03584 0.96868 0.28415 0.0
C1293 C 0.0368 0.9423 0.23924 0.0
C1294 C 0.0207 0.94392 0.29187 0.0
C1295 C 0.03176 0.92769 0.30954 0.0
C1296 C 0.05823 0.93594 0.31978 0.0
C1297 C 0.07294 0.96131 0.31239 0.0
C1298 C 0.06173 0.97764 0.29474 0.0
H1299 H 0.04046 0.93864 0.22132 0.0
H1300 H 0.05807 0.93986 0.24804 0.0
H1301 H 0.02171 0.92493 0.24533 0.0
H1302 H 1.00042 0.93699 0.28408 0.0
H1303 H 0.01978 0.90839 0.31488 0.0
H1304 H 0.52843 0.0937 0.31996 0.0
H1305 H 0.4965 0.07106 0.29211 0.0
H1306 H 0.55157 0.99396 0.29181 0.0
H1307 H 0.58315 0.01601 0.31972 0.0
H1308 H 0.51268 0.05318 0.25 0.0
H1309 H 0.46983 0.95888 0.29783 0.0
H1310 H 0.4874 0.99001 0.31079 0.0
H1311 H 0.50915 0.96104 0.29885 0.0
C1312 C 0.53349 0.07176 0.31416 0.0
C1313 C 0.5583 0.05663 0.32205 0.0
C1314 C 0.51527 0.05891 0.29824 0.0
C1315 C 0.52144 0.03068 0.29016 0.0
C1316 C 0.54602 0.01549 0.29819 0.0
H1317 H 0.48224 0.91332 0.18638 0.0
H1318 H 0.50153 0.94306 0.21661 0.0
C1319 C 0.56419 0.02825 0.31404 0.0
C1320 C 0.50345 0.01755 0.27237 0.0
H1321 H 0.46698 0.95479 0.25823 0.0
C1322 C 0.50217 0.03193 0.25188 0.0
C1323 C 0.48969 0.98989 0.27493 0.0
C1324 C 0.4888 0.9742 0.29687 0.0
C1325 C 0.4889 0.01856 0.23352 0.0
C1326 C 0.47658 0.99026 0.23585 0.0
C1327 C 0.47671 0.97644 0.25654 0.0
C1328 C 0.46522 0.97367 0.21674 0.0
C1329 C 0.48934 0.03403 0.2115 0.0
C1330 C 0.4385 0.9813 0.20675 0.0
C1331 C 0.42729 0.96427 0.18946 0.0
C1332 C 0.44269 0.93938 0.18197 0.0
C1333 C 0.46978 0.93229 0.19176 0.0
C1334 C 0.48085 0.94921 0.20905 0.0
H1335 H 0.50233 0.05469 0.21198 0.0
H1336 H 0.4987 0.01936 0.19865 0.0
H1337 H 0.46651 0.03945 0.20652 0.0
H1338 H 0.42607 1.00003 0.21263 0.0
H1339 H 0.40634 0.97027 0.18227 0.0
H1340 H 0.55847 0.48597 0.16666 0.0
H1341 H 0.52994 0.50764 0.19675 0.0
H1342 H 0.52641 0.42323 0.22921 0.0
H1343 H 0.55303 0.40113 0.19823 0.0
H1344 H 0.4777 0.44947 0.23592 0.0
H1345 H 0.56545 0.52995 0.25354 0.0
H1346 H 0.55182 0.53482 0.22607 0.0
H1347 H 0.57007 0.50105 0.23354 0.0
C1348 C 0.55121 0.47206 0.18011 0.0
C1349 C 0.55803 0.44202 0.18032 0.0
C1350 C 0.53522 0.48447 0.19742 0.0
C1351 C 0.52696 0.46733 0.21569 0.0
C1352 C 0.53276 0.43699 0.21542 0.0
H1353 H 0.48595 0.55806 0.33815 0.0
H1354 H 0.5086 0.52692 0.30999 0.0
C1355 C 0.54793 0.42437 0.19774 0.0
C1356 C 0.51293 0.48113 0.23526 0.0
H1357 H 0.51923 0.53878 0.27087 0.0
C1358 C 0.48694 0.46884 0.24372 0.0
C1359 C 0.52536 0.50591 0.2459 0.0
C1360 C 0.55488 0.51844 0.23944 0.0
C1361 C 0.47272 0.481 0.26217 0.0
C1362 C 0.484 0.50708 0.27174 0.0
C1363 C 0.51027 0.519 0.26348 0.0
C1364 C 0.46912 0.52271 0.29018 0.0
C1365 C 0.44626 0.46524 0.27141 0.0
C1366 C 0.43922 0.53029 0.28879 0.0
C1367 C 0.42604 0.54715 0.30534 0.0
C1368 C 0.44284 0.5577 0.32306 0.0
C1369 C 0.47262 0.55012 0.32457 0.0
C1370 C 0.48553 0.53243 0.30845 0.0
H1371 H 0.44731 0.44129 0.26791 0.0
H1372 H 0.44435 0.46832 0.28954 0.0
H1373 H 0.4261 0.47386 0.26341 0.0
H1374 H 0.42625 0.5241 0.27456 0.0
H1375 H 0.40311 0.55317 0.30372 0.0
H1376 H 0.08932 0.52076 0.68685 0.0
H1377 H 0.05967 0.50066 0.71682 0.0
H1378 H 0.00119 0.57494 0.71275 0.0
H1379 H 0.03086 0.59549 0.68264 0.0
H1380 H 0.04678 0.53373 0.75847 0.0
H1381 H 0.94779 0.49822 0.71125 0.0
H1382 H 0.98314 0.50299 0.69814 0.0
H1383 H 0.96229 0.53451 0.70644 0.0
C1384 C 0.07005 0.53281 0.69217 0.0
C1385 C 0.0625 0.55979 0.68239 0.0
C1386 C 0.05317 0.52127 0.70931 0.0
C1387 C 0.02828 0.5363 0.71689 0.0
C1388 C 0.02024 0.56295 0.70696 0.0
H1389 H 0.90788 0.4707 0.81913 0.0
H1390 H 0.93044 0.50282 0.79136 0.0
C1391 C 0.03723 0.57464 0.6898 0.0
C1392 C 0.01161 0.52435 0.73579 0.0
H1393 H 0.94886 0.48739 0.7492 0.0
C1394 C 0.02524 0.52385 0.75654 0.0
C1395 C 0.98344 0.51179 0.73317 0.0
C1396 C 0.96817 0.51166 0.71107 0.0
C1397 C 0.01174 0.51036 0.77471 0.0
C1398 C 0.98421 0.49643 0.77186 0.0
C1399 C 0.97001 0.49802 0.75131 0.0
C1400 C 0.97097 0.47811 0.78945 0.0
C1401 C 0.02722 0.51094 0.79673 0.0
C1402 C 0.98623 0.45355 0.79744 0.0
C1403 C 0.97351 0.43528 0.81326 0.0
C1404 C 0.9451 0.44103 0.82127 0.0
C1405 C 0.92984 0.46575 0.81334 0.0
C1406 C 0.94265 0.48408 0.79746 0.0
H1407 H 0.04244 0.52996 0.79797 0.0
H1408 H 0.01128 0.51201 0.81059 0.0
H1409 H 0.04046 0.49061 0.79858 0.0
H1410 H 0.00783 0.44816 0.79112 0.0
H1411 H 0.98585 0.41639 0.81895 0.0
H1412 H 0.0868 0.98286 0.81696 0.0
H1413 H 0.05552 0.00486 0.78885 0.0
H1414 H 0.99911 0.92871 0.79013 0.0
H1415 H 0.03072 0.90612 0.81821 0.0
H1416 H 0.01491 0.94629 0.74759 0.0
H1417 H 0.97429 0.04105 0.79602 0.0
H1418 H 0.0136 0.03823 0.79658 0.0
H1419 H 0.99158 0.00962 0.80874 0.0
C1420 C 0.06766 0.97079 0.81142 0.0
C1421 C 0.06123 0.94273 0.81984 0.0
C1422 C 0.04968 0.98352 0.79544 0.0
C1423 C 0.02475 0.96863 0.78769 0.0
C1424 C 0.01816 0.94063 0.79605 0.0
H1425 H 0.9074 0.03006 0.68157 0.0
H1426 H 0.92792 0.99997 0.71143 0.0
C1427 C 0.03619 0.92781 0.81209 0.0
C1428 C 0.00658 0.98198 0.7701 0.0
H1429 H 0.97033 0.04504 0.75653 0.0
C1430 C 0.00466 0.96763 0.74962 0.0
C1431 C 0.99316 0.00975 0.77286 0.0
C1432 C 0.99298 0.02543 0.79482 0.0
C1433 C 0.99105 0.98114 0.73146 0.0
C1434 C 0.97902 0.00953 0.73399 0.0
C1435 C 0.97983 0.02332 0.75467 0.0
C1436 C 0.96723 0.02623 0.71507 0.0
C1437 C 0.99078 0.96569 0.70943 0.0
C1438 C 0.98269 0.05076 0.70729 0.0
C1439 C 0.97116 0.06788 0.69028 0.0
C1440 C 0.94378 0.06093 0.68088 0.0
C1441 C 0.92856 0.03596 0.68845 0.0
C1442 C 0.94023 0.01873 0.70546 0.0
H1443 H 0.00372 0.945 0.70969 0.0
H1444 H 0.96779 0.96033 0.70484 0.0
H1445 H 0.9998 0.98036 0.69643 0.0
H1446 H 0.00358 0.05683 0.71456 0.0
H1447 H 0.9835 0.0869 0.68483 0.0
H1448 H 0.59495 0.02736 0.81911 0.0
H1449 H 0.57405 0.99757 0.78918 0.0
H1450 H 0.49983 0.05616 0.78539 0.0
H1451 H 0.52025 0.08589 0.81518 0.0
H1452 H 0.51315 0.97086 0.7863 0.0
H1453 H 0.53842 0.05381 0.72176 0.0
H1454 H 0.55708 0.05285 0.74809 0.0
H1455 H 0.52072 0.06794 0.74608 0.0
C1456 C 0.57407 0.03376 0.81201 0.0
C1457 C 0.55937 0.05913 0.8194 0.0
C1458 C 0.56222 0.01674 0.79494 0.0
C1459 C 0.53568 0.025 0.78496 0.0
C1460 C 0.52056 0.04973 0.79274 0.0
H1461 H 0.41461 0.98008 0.68469 0.0
H1462 H 0.4458 0.00148 0.71317 0.0
C1463 C 0.53226 0.06663 0.80981 0.0
C1464 C 0.52369 0.00828 0.76611 0.0
H1465 H 0.50531 0.01558 0.7118 0.0
C1466 C 0.51178 0.98032 0.7699 0.0
C1467 C 0.52207 0.02083 0.74481 0.0
C1468 C 0.53545 0.05042 0.73979 0.0
C1469 C 0.4968 0.96517 0.75311 0.0
C1470 C 0.49427 0.97821 0.73198 0.0
C1471 C 0.50725 0.00567 0.72803 0.0
C1472 C 0.4762 0.96497 0.71426 0.0
C1473 C 0.48253 0.93608 0.75842 0.0
C1474 C 0.48325 0.9375 0.70516 0.0
C1475 C 0.46534 0.92507 0.68885 0.0
C1476 C 0.4402 0.94005 0.68136 0.0
C1477 C 0.4337 0.96787 0.69016 0.0
C1478 C 0.45153 0.98019 0.70643 0.0
H1479 H 0.48163 0.93191 0.77648 0.0
H1480 H 0.45984 0.9352 0.75171 0.0
H1481 H 0.49536 0.91811 0.75066 0.0
H1482 H 0.50253 0.92567 0.71069 0.0
H1483 H 0.47102 0.90367 0.6823 0.0
H1484 H 0.59155 0.47554 0.68088 0.0
H1485 H 0.57085 0.50528 0.71091 0.0
H1486 H 0.49629 0.44706 0.71458 0.0
H1487 H 0.5165 0.41737 0.68469 0.0
H1488 H 0.50887 0.5318 0.71435 0.0
H1489 H 0.53722 0.44852 0.77796 0.0
H1490 H 0.55548 0.45039 0.7515 0.0
H1491 H 0.51946 0.43453 0.75361 0.0
C1492 C 0.57061 0.46925 0.68794 0.0
C1493 C 0.55579 0.44395 0.68054 0.0
C1494 C 0.55887 0.48624 0.70506 0.0
C1495 C 0.53232 0.47803 0.71505 0.0
C1496 C 0.51701 0.45346 0.70719 0.0
H1497 H 0.41314 0.51938 0.81709 0.0
H1498 H 0.44406 0.49912 0.788 0.0
C1499 C 0.5286 0.43658 0.69008 0.0
C1500 C 0.52068 0.49442 0.73417 0.0
H1501 H 0.50405 0.48623 0.78871 0.0
C1502 C 0.50816 0.52218 0.73073 0.0
C1503 C 0.51994 0.48164 0.75541 0.0
C1504 C 0.53394 0.45222 0.76 0.0
C1505 C 0.49342 0.53688 0.74785 0.0
C1506 C 0.49175 0.52357 0.76894 0.0
C1507 C 0.50536 0.49634 0.77252 0.0
C1508 C 0.47383 0.53618 0.78698 0.0
C1509 C 0.47847 0.56574 0.74297 0.0
C1510 C 0.48062 0.56358 0.79631 0.0
C1511 C 0.46287 0.57535 0.81297 0.0
C1512 C 0.43815 0.55978 0.8206 0.0
C1513 C 0.43191 0.53203 0.81154 0.0
C1514 C 0.44958 0.52037 0.79492 0.0
H1515 H 0.47719 0.57022 0.72497 0.0
H1516 H 0.45589 0.56599 0.74991 0.0
H1517 H 0.49105 0.58384 0.75081 0.0
H1518 H 0.49958 0.57586 0.79067 0.0
H1519 H 0.46833 0.59671 0.81971 0.0
H1520 H 0.05532 0.70404 0.16272 0.0
H1521 H 0.05289 0.73447 0.19598 0.0
H1522 H 0.13029 0.69155 0.22146 0.0
H1523 H 0.1322 0.66039 0.18882 0.0
H1524 H 0.08936 0.69495 0.25233 0.0
H1525 H 0.10164 0.80425 0.21288 0.0
H1526 H 0.07098 0.78362 0.20258 0.0
H1527 H 0.10777 0.77045 0.19805 0.0
C1528 C 0.07195 0.70124 0.17532 0.0
C1529 C 0.09391 0.67971 0.17308 0.0
C1530 C 0.07062 0.71878 0.1943 0.0
C1531 C 0.09162 0.71557 0.21114 0.0
C1532 C 0.1138 0.69442 0.20873 0.0
H1533 H 0.13331 0.83745 0.31506 0.0
H1534 H 0.1313 0.80625 0.28242 0.0
C1535 C 0.1149 0.67665 0.18999 0.0
C1536 C 0.09023 0.73345 0.23166 0.0
H1537 H 0.09081 0.80384 0.25112 0.0
C1538 C 0.0897 0.71877 0.25207 0.0
C1539 C 0.09092 0.76453 0.23132 0.0
C1540 C 0.09315 0.78167 0.21005 0.0
C1541 C 0.09024 0.73424 0.27213 0.0
C1542 C 0.09038 0.76533 0.2718 0.0
C1543 C 0.09053 0.78001 0.25138 0.0
C1544 C 0.09186 0.78316 0.29233 0.0
C1545 C 0.09172 0.71705 0.29342 0.0
C1546 C 0.07048 0.78046 0.30895 0.0
C1547 C 0.07184 0.79801 0.32791 0.0
C1548 C 0.09425 0.81905 0.33037 0.0
C1549 C 0.11566 0.82157 0.31371 0.0
C1550 C 0.11451 0.80378 0.29497 0.0
H1551 H 0.09971 0.69428 0.29066 0.0
H1552 H 0.10643 0.72792 0.30555 0.0
H1553 H 0.0694 0.71562 0.3007 0.0
H1554 H 0.0524 0.7652 0.30708 0.0
H1555 H 0.05488 0.79565 0.34031 0.0
H1556 H 0.85603 0.11225 0.19622 0.0
H1557 H 0.82471 0.1103 0.2287 0.0
H1558 H 0.75638 0.06879 0.19048 0.0
H1559 H 0.78797 0.07004 0.1577 0.0
H1560 H 0.77209 0.13608 0.23524 0.0
H1561 H 0.76169 0.01513 0.24412 0.0
H1562 H 0.78854 0.03201 0.22621 0.0
H1563 H 0.75088 0.02893 0.21756 0.0
C1564 C 0.83439 0.10257 0.1946 0.0
C1565 C 0.82458 0.09126 0.17425 0.0
C1566 C 0.8165 0.10147 0.21327 0.0
C1567 C 0.78835 0.08906 0.21214 0.0
C1568 C 0.77828 0.07789 0.19187 0.0
H1569 H 0.64962 0.12018 0.30674 0.0
H1570 H 0.68151 0.11811 0.27454 0.0
C1571 C 0.79629 0.07883 0.1731 0.0
C1572 C 0.7694 0.08902 0.2321 0.0
H1573 H 0.73202 0.04441 0.26777 0.0
C1574 C 0.76337 0.11602 0.24236 0.0
C1575 C 0.75841 0.0628 0.24157 0.0
C1576 C 0.76539 0.03303 0.23196 0.0
C1577 C 0.74641 0.11758 0.26166 0.0
C1578 C 0.73462 0.09148 0.27073 0.0
C1579 C 0.74094 0.0644 0.26069 0.0
C1580 C 0.71517 0.09203 0.29038 0.0
C1581 C 0.74166 0.14715 0.27236 0.0
C1582 C 0.72317 0.07744 0.3099 0.0
C1583 C 0.70484 0.07843 0.32848 0.0
C1584 C 0.67808 0.0939 0.32778 0.0
C1585 C 0.67011 0.10821 0.30804 0.0
C1586 C 0.68838 0.10717 0.28956 0.0
H1587 H 0.75855 0.16335 0.26711 0.0
H1588 H 0.71983 0.15579 0.26742 0.0
H1589 H 0.74214 0.14537 0.29064 0.0
H1590 H 0.74373 0.06551 0.31082 0.0
H1591 H 0.71164 0.06705 0.34333 0.0
H1592 H 0.44918 0.7028 0.3396 0.0
H1593 H 0.45258 0.73357 0.30653 0.0
H1594 H 0.37466 0.69235 0.28031 0.0
H1595 H 0.37179 0.66089 0.31271 0.0
H1596 H 0.41574 0.69566 0.24962 0.0
H1597 H 0.40508 0.80444 0.29021 0.0
H1598 H 0.43537 0.78304 0.30024 0.0
H1599 H 0.39835 0.77046 0.30468 0.0
C1600 C 0.43269 0.70042 0.32685 0.0
C1601 C 0.41026 0.67931 0.32883 0.0
C1602 C 0.43456 0.71816 0.30799 0.0
C1603 C 0.41367 0.71555 0.29101 0.0
C1604 C 0.39109 0.69475 0.29314 0.0
H1605 H 0.37073 0.83894 0.18874 0.0
H1606 H 0.37381 0.80753 0.22121 0.0
C1607 C 0.38945 0.6768 0.31175 0.0
C1608 C 0.41539 0.73379 0.27068 0.0
H1609 H 0.41507 0.80452 0.2519 0.0
C1610 C 0.41561 0.71948 0.25011 0.0
C1611 C 0.41499 0.76487 0.27132 0.0
C1612 C 0.41315 0.78165 0.29277 0.0
C1613 C 0.4149 0.7353 0.23021 0.0
C1614 C 0.41491 0.76638 0.23085 0.0
C1615 C 0.41522 0.7807 0.25141 0.0
C1616 C 0.41294 0.78456 0.21051 0.0
C1617 C 0.41295 0.71847 0.20878 0.0
C1618 C 0.43381 0.78205 0.19351 0.0
C1619 C 0.43181 0.79972 0.17463 0.0
C1620 C 0.40927 0.8207 0.17264 0.0
C1621 C 0.38844 0.82311 0.18971 0.0
C1622 C 0.39022 0.8052 0.20836 0.0
H1623 H 0.405 0.69565 0.2114 0.0
H1624 H 0.39799 0.72955 0.19693 0.0
H1625 H 0.43511 0.71718 0.20121 0.0
H1626 H 0.45194 0.76679 0.19497 0.0
H1627 H 0.44834 0.79743 0.1619 0.0
H1628 H 0.65989 0.3731 0.18999 0.0
H1629 H 0.69054 0.37749 0.22273 0.0
H1630 H 0.73157 0.45489 0.19554 0.0
H1631 H 0.70157 0.45005 0.16215 0.0
H1632 H 0.77132 0.42031 0.21425 0.0
H1633 H 0.67918 0.43394 0.27267 0.0
H1634 H 0.67525 0.40071 0.25708 0.0
H1635 H 0.67418 0.43569 0.24316 0.0
C1636 C 0.6754 0.39112 0.19089 0.0
C1637 C 0.67799 0.41145 0.17349 0.0
C1638 C 0.69275 0.39373 0.20977 0.0
C1639 C 0.71271 0.41705 0.21194 0.0
C1640 C 0.71603 0.43693 0.19436 0.0
H1641 H 0.79526 0.44933 0.34076 0.0
H1642 H 0.76526 0.45421 0.30742 0.0
C1643 C 0.69888 0.43412 0.17526 0.0
C1644 C 0.73058 0.41998 0.23235 0.0
H1645 H 0.72558 0.41999 0.28862 0.0
C1646 C 0.76131 0.4206 0.2305 0.0
C1647 C 0.71756 0.4211 0.25358 0.0
C1648 C 0.68473 0.42317 0.25674 0.0
C1649 C 0.77936 0.42089 0.2493 0.0
C1650 C 0.76633 0.41958 0.27053 0.0
C1651 C 0.73561 0.4204 0.27237 0.0
C1652 C 0.78416 0.41647 0.29094 0.0
C1653 C 0.81221 0.42277 0.24616 0.0
C1654 C 0.80412 0.39315 0.29308 0.0
C1655 C 0.82149 0.3905 0.31195 0.0
C1656 C 0.8189 0.4108 0.32937 0.0
C1657 C 0.79794 0.4334 0.32765 0.0
C1658 C 0.7808 0.43625 0.30857 0.0
H1659 H 0.81785 0.43362 0.23027 0.0
H1660 H 0.82284 0.43513 0.2598 0.0
H1661 H 0.82153 0.40026 0.24574 0.0
H1662 H 0.80636 0.37697 0.28008 0.0
H1663 H 0.83707 0.37255 0.31282 0.0
H1664 H 0.94839 0.20359 0.66164 0.0
H1665 H 0.95277 0.23367 0.69497 0.0
H1666 H 0.8757 0.19186 0.72204 0.0
H1667 H 0.87182 0.16104 0.68932 0.0
H1668 H 0.91807 0.27304 0.71348 0.0
H1669 H 0.93189 0.18118 0.77216 0.0
H1670 H 0.93365 0.17605 0.74265 0.0
H1671 H 0.89866 0.1772 0.75657 0.0
C1672 C 0.93242 0.20075 0.6747 0.0
C1673 C 0.91001 0.17958 0.67291 0.0
C1674 C 0.93497 0.21795 0.69377 0.0
C1675 C 0.91506 0.21444 0.71131 0.0
C1676 C 0.89197 0.19422 0.70912 0.0
H1677 H 0.87203 0.33968 0.81219 0.0
H1678 H 0.87572 0.30872 0.77953 0.0
C1679 C 0.88963 0.17678 0.69025 0.0
C1680 C 0.91782 0.23239 0.73169 0.0
H1681 H 0.91833 0.22771 0.78798 0.0
C1682 C 0.91846 0.26311 0.72976 0.0
C1683 C 0.91907 0.21948 0.75296 0.0
C1684 C 0.92113 0.18667 0.75621 0.0
C1685 C 0.91901 0.28126 0.74849 0.0
C1686 C 0.91791 0.26835 0.76976 0.0
C1687 C 0.9186 0.23764 0.7717 0.0
C1688 C 0.91523 0.28632 0.79014 0.0
C1689 C 0.921 0.31408 0.74523 0.0
C1690 C 0.93527 0.28294 0.80761 0.0
C1691 C 0.93283 0.30023 0.82664 0.0
C1692 C 0.9104 0.32135 0.82847 0.0
C1693 C 0.88987 0.32398 0.81122 0.0
C1694 C 0.89209 0.30646 0.7924 0.0
H1695 H 0.93165 0.31959 0.72925 0.0
H1696 H 0.89852 0.3235 0.74496 0.0
H1697 H 0.9336 0.32473 0.75874 0.0
H1698 H 0.9531 0.26727 0.80636 0.0
H1699 H 0.94891 0.29751 0.83964 0.0
H1700 H 0.34003 0.86604 0.68828 0.0
H1701 H 0.30825 0.86803 0.72059 0.0
H1702 H 0.26566 0.94523 0.69448 0.0
H1703 H 0.29674 0.94276 0.66157 0.0
H1704 H 0.30428 0.9093 0.7513 0.0
H1705 H 0.19568 0.89625 0.71091 0.0
H1706 H 0.22975 0.89003 0.69645 0.0
H1707 H 0.21641 0.92684 0.70058 0.0
C1708 C 0.32372 0.88332 0.68924 0.0
C1709 C 0.32096 0.90426 0.67227 0.0
C1710 C 0.30559 0.88445 0.70779 0.0
C1711 C 0.28435 0.9066 0.70994 0.0
C1712 C 0.28142 0.92753 0.69301 0.0
H1713 H 0.2025 0.94584 0.83787 0.0
H1714 H 0.23316 0.94753 0.80473 0.0
C1715 C 0.29934 0.92619 0.67423 0.0
C1716 C 0.26612 0.90809 0.73027 0.0
H1717 H 0.1954 0.9077 0.74909 0.0
C1718 C 0.28045 0.90892 0.75082 0.0
C1719 C 0.23505 0.90732 0.72966 0.0
C1720 C 0.21828 0.90477 0.70824 0.0
C1721 C 0.26465 0.9087 0.77073 0.0
C1722 C 0.23357 0.90856 0.77011 0.0
C1723 C 0.21923 0.90801 0.74956 0.0
C1724 C 0.21541 0.90764 0.7905 0.0
C1725 C 0.28148 0.90761 0.79219 0.0
C1726 C 0.19478 0.88504 0.79337 0.0
C1727 C 0.17688 0.88431 0.81208 0.0
C1728 C 0.17927 0.90612 0.82845 0.0
C1729 C 0.20023 0.92856 0.82571 0.0
C1730 C 0.2179 0.92948 0.80679 0.0
H1731 H 0.30428 0.89952 0.78973 0.0
H1732 H 0.28284 0.93007 0.79923 0.0
H1733 H 0.27038 0.89317 0.80439 0.0
H1734 H 0.19246 0.86792 0.78107 0.0
H1735 H 0.16107 0.86663 0.81365 0.0
H1736 H 0.62134 0.14911 0.80591 0.0
H1737 H 0.61952 0.18164 0.77408 0.0
H1738 H 0.5692 0.24451 0.81154 0.0
H1739 H 0.57044 0.21178 0.84367 0.0
H1740 H 0.54695 0.23436 0.7689 0.0
H1741 H 0.66656 0.25736 0.76659 0.0
H1742 H 0.65799 0.21887 0.76654 0.0
H1743 H 0.64879 0.24092 0.79019 0.0
C1744 C 0.60994 0.16988 0.80755 0.0
C1745 C 0.59617 0.17785 0.8275 0.0
C1746 C 0.60905 0.18852 0.78928 0.0
C1747 C 0.59464 0.21567 0.79054 0.0
C1748 C 0.58058 0.22368 0.81028 0.0
H1749 H 0.61608 0.35665 0.69637 0.0
H1750 H 0.61443 0.32539 0.72891 0.0
C1751 C 0.58139 0.20497 0.82864 0.0
C1752 C 0.59415 0.23545 0.7711 0.0
H1753 H 0.6389 0.27191 0.73511 0.0
C1754 C 0.56701 0.24274 0.76155 0.0
C1755 C 0.62035 0.24656 0.76169 0.0
C1756 C 0.65006 0.24079 0.77189 0.0
C1757 C 0.56541 0.26046 0.74258 0.0
C1758 C 0.5917 0.27068 0.73273 0.0
C1759 C 0.61878 0.26376 0.74252 0.0
C1760 C 0.59174 0.28958 0.71276 0.0
C1761 C 0.53561 0.26849 0.7335 0.0
C1762 C 0.57972 0.27975 0.69271 0.0
C1763 C 0.58049 0.2977 0.67393 0.0
C1764 C 0.59358 0.32569 0.67484 0.0
C1765 C 0.60584 0.33524 0.69495 0.0
C1766 C 0.60492 0.3174 0.71365 0.0
H1767 H 0.51798 0.26536 0.74598 0.0
H1768 H 0.5352 0.29167 0.72781 0.0
H1769 H 0.53057 0.25417 0.71917 0.0
H1770 H 0.57001 0.25808 0.69152 0.0
H1771 H 0.57097 0.28957 0.65872 0.0
H1772 H 0.29685 0.55404 0.83888 0.0
H1773 H 0.26737 0.55118 0.80519 0.0
H1774 H 0.3082 0.63049 0.78112 0.0
H1775 H 0.33844 0.63297 0.81427 0.0
H1776 H 0.22767 0.58653 0.7875 0.0
H1777 H 0.32086 0.57704 0.7294 0.0
H1778 H 0.32542 0.57373 0.75888 0.0
H1779 H 0.32379 0.60943 0.74609 0.0
C1780 C 0.2996 0.57087 0.82642 0.0
C1781 C 0.32033 0.59351 0.82918 0.0
C1782 C 0.28274 0.56917 0.80714 0.0
C1783 C 0.28615 0.59016 0.79033 0.0
C1784 C 0.30591 0.61346 0.79348 0.0
H1785 H 0.16148 0.63298 0.6886 0.0
H1786 H 0.19243 0.62997 0.72131 0.0
C1787 C 0.32301 0.61498 0.81258 0.0
C1788 C 0.26861 0.58817 0.7697 0.0
H1789 H 0.27423 0.58942 0.71346 0.0
C1790 C 0.23787 0.58689 0.77132 0.0
C1791 C 0.2819 0.58794 0.74855 0.0
C1792 C 0.31481 0.58677 0.7456 0.0
C1793 C 0.22005 0.58651 0.75241 0.0
C1794 C 0.2333 0.58839 0.73129 0.0
C1795 C 0.26405 0.5885 0.72964 0.0
C1796 C 0.21559 0.59088 0.71078 0.0
C1797 C 0.18722 0.58378 0.75531 0.0
C1798 C 0.21939 0.57085 0.69336 0.0
C1799 C 0.20206 0.57285 0.67432 0.0
C1800 C 0.18049 0.59485 0.67243 0.0
C1801 C 0.17752 0.61546 0.68961 0.0
C1802 C 0.19506 0.61364 0.70845 0.0
H1803 H 0.1816 0.57296 0.7712 0.0
H1804 H 0.1773 0.60605 0.75549 0.0
H1805 H 0.17714 0.57101 0.74164 0.0
H1806 H 0.23537 0.5533 0.69468 0.0
H1807 H 0.20506 0.55673 0.66138 0.0
H1808 H 0.01789 0.609 0.05399 0.0
H1809 H 0.99278 0.57285 0.03079 0.0
H1810 H 0.07295 0.52292 0.02545 0.0
H1811 H 0.0982 0.5587 0.04883 0.0
H1812 H 0.00434 0.55239 0.9878 0.0
H1813 H 0.01396 0.46274 0.04956 0.0
H1814 H 0.02079 0.50076 0.05633 0.0
H1815 H 0.04824 0.47961 0.04211 0.0
C1816 C 0.0303 0.5905 0.04771 0.0
C1817 C 0.06006 0.58671 0.05337 0.0
C1818 C 0.01588 0.56982 0.03448 0.0
C1819 C 0.03084 0.5449 0.02676 0.0
C1820 C 0.06082 0.54167 0.03162 0.0
H1821 H 0.98285 0.39306 0.94827 0.0
H1822 H 0.00725 0.42943 0.97166 0.0
C1823 C 0.07529 0.56232 0.04484 0.0
C1824 C 0.01495 0.52211 0.01389 0.0
H1825 H 0.99502 0.4497 0.01443 0.0
C1826 C 0.00218 0.52997 0.99365 0.0
C1827 C 0.01212 0.49287 0.02159 0.0
C1828 C 0.02425 0.48345 0.04367 0.0
C1829 C 0.9872 0.50923 0.98065 0.0
C1830 C 0.98443 0.47997 0.98833 0.0
C1831 C 0.99714 0.47213 0.0086 0.0
C1832 C 0.9689 0.45706 0.97533 0.0
C1833 C 0.97511 0.51864 0.95855 0.0
C1834 C 0.93897 0.46003 0.97018 0.0
C1835 C 0.9249 0.43924 0.95684 0.0
C1836 C 0.94048 0.41497 0.94848 0.0
C1837 C 0.97017 0.41146 0.95442 0.0
C1838 C 0.98419 0.43226 0.96776 0.0
H1839 H 0.98527 0.53945 0.95273 0.0
H1840 H 0.97877 0.5014 0.94587 0.0
H1841 H 0.95109 0.52229 0.96006 0.0
H1842 H 0.92657 0.47868 0.97623 0.0
H1843 H 0.90202 0.44264 0.95262 0.0
H1844 H 0.10773 0.9838 0.94703 0.0
H1845 H 0.07185 0.00829 0.97082 0.0
H1846 H 0.02225 0.92781 0.97564 0.0
H1847 H 0.05813 0.90303 0.95213 0.0
H1848 H 0.01225 0.01537 0.96176 0.0
H1849 H 0.02797 0.95393 0.04 0.0
H1850 H 0.05435 0.95283 0.01775 0.0
H1851 H 0.02147 0.931 0.01638 0.0
C1852 C 0.08948 0.97113 0.95347 0.0
C1853 C 0.08594 0.94137 0.94777 0.0
C1854 C 0.06892 0.98522 0.96699 0.0
C1855 C 0.04452 0.96982 0.9752 0.0
C1856 C 0.0412 0.93999 0.96987 0.0
H1857 H 0.89149 0.01755 0.05335 0.0
H1858 H 0.92697 0.99288 0.02931 0.0
C1859 C 0.06174 0.92586 0.95636 0.0
C1860 C 0.02172 0.98536 0.9883 0.0
H1861 H 0.98655 0.98554 0.03812 0.0
C1862 C 0.00673 0.00897 0.9785 0.0
C1863 C 0.01444 0.97687 0.01009 0.0
C1864 C 0.03055 0.95245 0.0218 0.0
C1865 C 0.98434 0.02403 0.98978 0.0
C1866 C 0.97708 0.01556 0.01158 0.0
C1867 C 0.99205 0.99193 0.02137 0.0
C1868 C 0.95442 0.03122 0.02474 0.0
C1869 C 0.96824 0.04846 0.97808 0.0
C1870 C 0.95793 0.06105 0.03002 0.0
C1871 C 0.93761 0.07527 0.04366 0.0
C1872 C 0.91347 0.05988 0.05245 0.0
C1873 C 0.90971 0.03013 0.04677 0.0
C1874 C 0.93004 0.01595 0.03311 0.0
H1875 H 0.9707 0.04688 0.95986 0.0
H1876 H 0.94447 0.04819 0.98221 0.0
H1877 H 0.97745 0.0699 0.9834 0.0
H1878 H 0.97687 0.07314 0.02413 0.0
H1879 H 0.94139 0.0981 0.04786 0.0
H1880 H 0.40317 0.94356 0.04911 0.0
H1881 H 0.42807 0.97879 0.025 0.0
H1882 H 0.50773 0.92785 0.02916 0.0
H1883 H 0.48299 0.89233 0.05302 0.0
H1884 H 0.47715 0.0122 0.03582 0.0
H1885 H 0.50027 0.94212 0.96293 0.0
H1886 H 0.47411 0.93182 0.98397 0.0
H1887 H 0.51282 0.92681 0.98856 0.0
C1888 C 0.42583 0.93952 0.04458 0.0
C1889 C 0.44101 0.91497 0.05291 0.0
C1890 C 0.44007 0.95978 0.03087 0.0
C1891 C 0.46967 0.95581 0.02507 0.0
C1892 C 0.48473 0.93107 0.03304 0.0
H1893 H 0.59926 0.05642 0.95183 0.0
H1894 H 0.57356 0.0215 0.97569 0.0
C1895 C 0.47054 0.91081 0.04675 0.0
C1896 C 0.48527 0.97836 0.01174 0.0
H1897 H 0.52422 0.98853 0.96413 0.0
C1898 C 0.48728 0.00709 0.02007 0.0
C1899 C 0.4986 0.97162 0.99125 0.0
C1900 C 0.49617 0.9415 0.98101 0.0
C1901 C 0.50273 0.02913 0.00867 0.0
C1902 C 0.51613 0.02237 0.98822 0.0
C1903 C 0.51405 0.99365 0.97986 0.0
C1904 C 0.53214 0.04478 0.97504 0.0
C1905 C 0.50514 0.05928 0.01888 0.0
C1906 C 0.51745 0.06961 0.96685 0.0
C1907 C 0.5321 0.0897 0.95326 0.0
C1908 C 0.56172 0.08528 0.94748 0.0
C1909 C 0.57652 0.06066 0.95606 0.0
C1910 C 0.56184 0.04057 0.96963 0.0
H1911 H 0.50061 0.05877 0.0369 0.0
H1912 H 0.52734 0.06875 0.01619 0.0
H1913 H 0.48881 0.07407 0.01106 0.0
H1914 H 0.49439 0.07302 0.97044 0.0
H1915 H 0.51994 0.10826 0.94678 0.0
H1916 H 0.44104 0.59499 0.9531 0.0
H1917 H 0.47674 0.56908 0.97616 0.0
H1918 H 0.4248 0.49005 0.97174 0.0
H1919 H 0.38915 0.51561 0.94843 0.0
H1920 H 0.47086 0.53933 0.0165 0.0
H1921 H 0.50562 0.46352 0.94957 0.0
H1922 H 0.48402 0.49604 0.94438 0.0
H1923 H 0.46686 0.46346 0.95511 0.0
C1924 C 0.43699 0.57218 0.95722 0.0
C1925 C 0.41226 0.55735 0.94882 0.0
C1926 C 0.45748 0.55739 0.97036 0.0
C1927 C 0.45373 0.52749 0.97528 0.0
C1928 C 0.42846 0.51295 0.96772 0.0
H1929 H 0.55657 0.40035 0.04963 0.0
H1930 H 0.52017 0.42516 0.02644 0.0
C1931 C 0.40798 0.52769 0.95455 0.0
C1932 C 0.47645 0.51147 0.9881 0.0
H1933 H 0.52531 0.45457 0.98517 0.0
C1934 C 0.48283 0.52086 0.00964 0.0
C1935 C 0.49205 0.48737 0.9791 0.0
C1936 C 0.48705 0.47709 0.95571 0.0
C1937 C 0.50407 0.50651 0.02256 0.0
C1938 C 0.51972 0.48247 0.01353 0.0
C1939 C 0.51328 0.473 0.99203 0.0
C1940 C 0.54288 0.46692 0.02622 0.0
C1941 C 0.50918 0.51686 0.04592 0.0
C1942 C 0.5682 0.4819 0.03316 0.0
C1943 C 0.58907 0.46781 0.04635 0.0
C1944 C 0.58512 0.43835 0.05278 0.0
C1945 C 0.56036 0.42301 0.04497 0.0
C1946 C 0.53947 0.43717 0.03176 0.0
H1947 H 0.4906 0.53038 0.0521 0.0
H1948 H 0.51237 0.49794 0.05725 0.0
H1949 H 0.52934 0.53057 0.04643 0.0
H1950 H 0.57156 0.5047 0.02868 0.0
H1951 H 0.60791 0.48027 0.052 0.0
H1952 H 0.01713 0.89142 0.44855 0.0
H1953 H 0.99192 0.9278 0.47145 0.0
H1954 H 0.072 0.978 0.4765 0.0
H1955 H 0.09735 0.94197 0.45341 0.0
H1956 H 0.00344 0.94885 0.51431 0.0
H1957 H 0.0129 0.03765 0.45183 0.0
H1958 H 0.01979 0.99955 0.44537 0.0
H1959 H 0.0472 0.02098 0.45942 0.0
C1960 C 0.0295 0.91003 0.4547 0.0
C1961 C 0.05926 0.91382 0.44905 0.0
C1962 C 0.01502 0.93084 0.46776 0.0
C1963 C 0.02993 0.95589 0.47531 0.0
C1964 C 0.05992 0.95914 0.47046 0.0
H1965 H 0.98187 0.10845 0.55278 0.0
H1966 H 0.00623 0.0719 0.52953 0.0
C1967 C 0.07444 0.93836 0.45741 0.0
C1968 C 0.01398 0.9788 0.48798 0.0
H1969 H 0.9939 0.05113 0.48685 0.0
C1970 C 0.00123 0.97118 0.50828 0.0
C1971 C 0.0111 0.00791 0.48004 0.0
C1972 C 0.02322 0.01705 0.45788 0.0
C1973 C 0.9862 0.99206 0.52111 0.0
C1974 C 0.98338 0.0212 0.5132 0.0
C1975 C 0.99607 0.02879 0.49286 0.0
C1976 C 0.96785 0.04424 0.52602 0.0
C1977 C 0.97412 0.98294 0.54328 0.0
C1978 C 0.93792 0.0413 0.53118 0.0
C1979 C 0.92387 0.06219 0.54444 0.0
C1980 C 0.93949 0.08651 0.5527 0.0
C1981 C 0.96917 0.09001 0.54671 0.0
C1982 C 0.98316 0.06911 0.53345 0.0
H1983 H 0.98427 0.96221 0.54926 0.0
H1984 H 0.97781 1.00035 0.55583 0.0
H1985 H 0.9501 0.97927 0.54182 0.0
H1986 H 0.92552 0.0226 0.52523 0.0
H1987 H 0.90101 0.0588 0.5487 0.0
H1988 H 0.60892 0.01806 0.44721 0.0
H1989 H 0.57304 0.99277 0.47055 0.0
H1990 H 0.52352 0.07304 0.47697 0.0
H1991 H 0.55903 0.09847 0.45346 0.0
H1992 H 0.55334 0.00376 0.51381 0.0
H1993 H 0.46264 0.01469 0.45306 0.0
H1994 H 0.50056 0.02147 0.44596 0.0
H1995 H 0.47978 0.04878 0.46064 0.0
C1996 C 0.59056 0.03045 0.45376 0.0
C1997 C 0.58682 0.0603 0.44837 0.0
C1998 C 0.57004 0.01592 0.46707 0.0
C1999 C 0.5453 0.03086 0.47514 0.0
C2000 C 0.54212 0.06092 0.47053 0.0
H2001 H 0.39427 0.98136 0.55438 0.0
H2002 H 0.43041 0.00641 0.53114 0.0
C2003 C 0.56261 0.07549 0.45724 0.0
C2004 C 0.52266 0.01488 0.48812 0.0
H2005 H 0.45016 0.99519 0.48813 0.0
C2006 C 0.53081 0.00177 0.50817 0.0
C2007 C 0.49326 0.01229 0.4807 0.0
C2008 C 0.4835 0.02481 0.45883 0.0
C2009 C 0.51024 0.98665 0.52125 0.0
C2010 C 0.48084 0.98408 0.51384 0.0
C2011 C 0.4727 0.99717 0.49377 0.0
C2012 C 0.45813 0.96824 0.52686 0.0
C2013 C 0.52 0.97418 0.54313 0.0
C2014 C 0.46123 0.93821 0.53163 0.0
C2015 C 0.44058 0.92378 0.54488 0.0
C2016 C 0.4163 0.93907 0.55353 0.0
C2017 C 0.41268 0.96889 0.548 0.0
C2018 C 0.43335 0.98329 0.53475 0.0
H2019 H 0.54086 0.98429 0.54889 0.0
H2020 H 0.50294 0.97754 0.55599 0.0
H2021 H 0.52371 0.9502 0.54134 0.0
H2022 H 0.47985 0.926 0.52533 0.0
H2023 H 0.44408 0.90082 0.54877 0.0
H2024 H 0.59634 0.4428 0.54864 0.0
H2025 H 0.57011 0.47804 0.52542 0.0
H2026 H 0.49121 0.42607 0.53089 0.0
H2027 H 0.51711 0.39087 0.55438 0.0
H2028 H 0.53984 0.47144 0.48533 0.0
H2029 H 0.46495 0.5073 0.55255 0.0
H2030 H 0.49757 0.48581 0.55768 0.0
H2031 H 0.46488 0.46845 0.54732 0.0
C2032 C 0.57349 0.43864 0.54472 0.0
C2033 C 0.5588 0.41405 0.55348 0.0
C2034 C 0.55852 0.45887 0.53148 0.0
C2035 C 0.52857 0.45499 0.52679 0.0
C2036 C 0.51415 0.42983 0.53471 0.0
H2037 H 0.40095 0.5579 0.45286 0.0
H2038 H 0.42583 0.52148 0.47598 0.0
C2039 C 0.52908 0.4096 0.54798 0.0
C2040 C 0.51239 0.47751 0.51389 0.0
H2041 H 0.4558 0.52673 0.51693 0.0
C2042 C 0.52151 0.48358 0.49224 0.0
C2043 C 0.48848 0.49334 0.52297 0.0
C2044 C 0.47848 0.48866 0.54647 0.0
C2045 C 0.50713 0.50476 0.47929 0.0
C2046 C 0.48332 0.52068 0.4884 0.0
C2047 C 0.47407 0.51451 0.51001 0.0
C2048 C 0.46779 0.54383 0.4757 0.0
C2049 C 0.5172 0.50955 0.45582 0.0
C2050 C 0.48287 0.56896 0.46849 0.0
C2051 C 0.46873 0.58985 0.45534 0.0
C2052 C 0.43913 0.58611 0.44922 0.0
C2053 C 0.42372 0.56153 0.45728 0.0
C2054 C 0.43792 0.54063 0.47044 0.0
H2055 H 0.53047 0.49078 0.44965 0.0
H2056 H 0.49816 0.51278 0.44462 0.0
H2057 H 0.53109 0.52957 0.45509 0.0
H2058 H 0.50576 0.57217 0.47275 0.0
H2059 H 0.48126 0.60854 0.44949 0.0
H2060 H 0.89156 0.48299 0.44893 0.0
H2061 H 0.92792 0.50747 0.47227 0.0
H2062 H 0.97779 0.42713 0.47629 0.0
H2063 H 0.94177 0.4025 0.45271 0.0
H2064 H 0.94853 0.49515 0.51487 0.0
H2065 H 0.03801 0.48638 0.45287 0.0
H2066 H 0.99998 0.47962 0.44611 0.0
H2067 H 0.02117 0.45203 0.46014 0.0
C2068 C 0.91009 0.47039 0.45494 0.0
C2069 C 0.91378 0.44078 0.44885 0.0
C2070 C 0.93089 0.48447 0.46826 0.0
C2071 C 0.95586 0.4693 0.47566 0.0
C2072 C 0.95901 0.43943 0.47037 0.0
H2073 H 0.10791 0.5186 0.55403 0.0
H2074 H 0.07171 0.49347 0.53089 0.0
C2075 C 0.93823 0.42532 0.45705 0.0
C2076 C 0.97873 0.48491 0.48864 0.0
H2077 H 0.05104 0.50527 0.48799 0.0
C2078 C 0.97092 0.49745 0.50898 0.0
C2079 C 0.00794 0.48791 0.48089 0.0
C2080 C 0.01732 0.47602 0.45872 0.0
C2081 C 0.99163 0.51248 0.52197 0.0
C2082 C 0.02082 0.51552 0.5142 0.0
C2083 C 0.02865 0.50293 0.49389 0.0
C2084 C 0.04359 0.53143 0.52707 0.0
C2085 C 0.98225 0.52442 0.54412 0.0
C2086 C 0.04026 0.56138 0.53205 0.0
C2087 C 0.06094 0.57586 0.54523 0.0
C2088 C 0.08546 0.56068 0.55361 0.0
C2089 C 0.08931 0.53097 0.54786 0.0
C2090 C 0.06861 0.51653 0.53467 0.0
H2091 H 0.9616 0.51401 0.55001 0.0
H2092 H 0.99963 0.52094 0.55672 0.0
H2093 H 0.97831 0.5484 0.54265 0.0
H2094 H 0.02143 0.57346 0.52598 0.0
H2095 H 0.05728 0.59874 0.5493 0.0
loop_
_geom_bond_atom_site_label_1
_geom_bond_atom_site_label_2
_geom_bond_distance
_geom_bond_site_symmetry_2
_ccdc_geom_bond_type
Co0 O2 2.143 . S
Co0 O8 2.074 . S
Co0 O11 2.093 . S
Co0 O24 2.097 . S
Co0 N41 2.151 . S
Co0 N49 2.214 . S
Co1 O2 2.160 . S
Co1 O7 2.058 . S
Co1 O17 2.057 . S
Co1 O32 2.037 . S
Co1 N36 2.145 . S
Co1 N57 2.257 1_455 S
O2 Co0 2.143 . S
O2 Co1 2.160 . S
C3 O4 1.278 . S
C3 O11 1.224 . S
O4 C3 1.278 . S
C5 O6 1.245 . S
C5 O17 1.232 . S
O6 C5 1.245 . S
O7 Co1 2.058 . S
O7 C33 1.269 . S
O8 Co0 2.074 . S
O8 C33 1.257 . S
H9 C34 0.930 . S
H10 C40 0.930 . S
O11 Co0 2.093 . S
O11 C3 1.224 . S
H12 C44 0.929 . S
H13 C46 0.930 . S
H14 C47 0.930 . S
H15 C45 0.929 . S
H16 C48 0.928 . S
O17 Co1 2.057 . S
O17 C5 1.232 . S
H18 C37 0.929 . S
H19 C38 0.929 . S
H20 C50 0.931 . S
H21 C42 0.929 . S
H22 C51 0.930 . S
H23 C43 0.931 . S
O24 Co0 2.097 . S
O24 C52 1.214 . S
H25 C53 0.929 . S
H26 C54 0.929 . S
H27 C55 0.930 . S
H28 C56 0.929 . S
H29 C58 0.930 . S
H30 C35 0.930 . S
H31 C39 0.930 . S
O32 Co1 2.037 . S
O32 C52 1.234 . S
C33 O7 1.269 . S
C33 O8 1.257 . S
C34 H9 0.930 . S
C34 C37 1.388 . S
C34 C39 1.418 . S
C35 H30 0.930 . S
C35 C38 1.404 . S
C35 C39 1.353 . S
N36 Co1 2.145 . S
N36 C37 1.397 . S
N36 C38 1.334 . S
C37 H18 0.929 . S
C37 C34 1.388 . S
C37 N36 1.397 . S
C38 H19 0.929 . S
C38 C35 1.404 . S
C38 N36 1.334 . S
C39 H31 0.930 . S
C39 C34 1.418 . S
C39 C35 1.353 . S
C40 H10 0.930 . S
C40 N41 1.330 . S
C40 C42 1.446 . S
N41 Co0 2.151 . S
N41 C40 1.330 . S
N41 C45 1.418 . S
C42 H21 0.929 . S
C42 C40 1.446 . S
C42 C43 1.332 . S
C43 H23 0.931 . S
C43 C42 1.332 . S
C43 C44 1.267 . S
C44 H12 0.929 . S
C44 C43 1.267 . S
C44 C45 1.251 . S
C45 H15 0.929 . S
C45 N41 1.418 . S
C45 C44 1.251 . S
C46 H13 0.930 . S
C46 C48 1.406 . S
C46 C51 1.261 . S
C47 H14 0.930 . S
C47 N49 1.325 . S
C47 C50 1.357 . S
C48 H16 0.928 . S
C48 C46 1.406 . S
C48 N49 1.261 . S
N49 Co0 2.214 . S
N49 C47 1.325 . S
N49 C48 1.261 . S
C50 H20 0.931 . S
C50 C47 1.357 . S
C50 C51 1.312 . S
C51 H22 0.930 . S
C51 C46 1.261 . S
C51 C50 1.312 . S
C52 O24 1.214 . S
C52 O32 1.234 . S
C53 H25 0.929 . S
C53 C56 1.391 . S
C53 C58 1.391 . S
C54 H26 0.929 . S
C54 C55 1.390 . S
C54 N57 1.391 . S
C55 H27 0.930 . S
C55 C54 1.390 . S
C55 C56 1.392 . S
C56 H28 0.929 . S
C56 C53 1.391 . S
C56 C55 1.392 . S
N57 Co1 2.257 1_655 S
N57 C54 1.391 . S
N57 C58 1.388 . S
C58 H29 0.930 . S
C58 C53 1.391 . S
C58 N57 1.388 . S
Co59 O61 2.143 . S
Co59 O67 2.074 . S
Co59 O70 2.093 . S
Co59 O83 2.097 . S
Co59 N100 2.151 . S
Co59 N108 2.214 . S
Co60 O61 2.160 . S
Co60 O66 2.058 . S
Co60 O76 2.057 . S
Co60 O91 2.037 . S
Co60 N95 2.145 . S
Co60 N116 2.257 1_545 S
O61 Co59 2.143 . S
O61 Co60 2.160 . S
C62 O63 1.278 . S
C62 O70 1.224 . S
O63 C62 1.278 . S
C64 O65 1.245 . S
C64 O76 1.232 . S
O65 C64 1.245 . S
O66 Co60 2.058 . S
O66 C92 1.269 . S
O67 Co59 2.074 . S
O67 C92 1.257 . S
H68 C93 0.930 . S
H69 C99 0.930 . S
O70 Co59 2.093 . S
O70 C62 1.224 . S
H71 C103 0.929 . S
H72 C105 0.930 . S
H73 C106 0.930 . S
H74 C104 0.929 . S
H75 C107 0.928 . S
O76 Co60 2.057 . S
O76 C64 1.232 . S
H77 C96 0.929 . S
H78 C97 0.929 . S
H79 C109 0.931 . S
H80 C101 0.929 . S
H81 C110 0.930 . S
H82 C102 0.931 . S
O83 Co59 2.097 . S
O83 C111 1.214 . S
H84 C112 0.929 . S
H85 C113 0.929 . S
H86 C114 0.930 . S
H87 C115 0.929 . S
H88 C117 0.930 . S
H89 C94 0.930 . S
H90 C98 0.930 . S
O91 Co60 2.037 . S
O91 C111 1.234 . S
C92 O66 1.269 . S
C92 O67 1.257 . S
C93 H68 0.930 . S
C93 C96 1.388 . S
C93 C98 1.418 . S
C94 H89 0.930 . S
C94 C97 1.404 . S
C94 C98 1.353 . S
N95 Co60 2.145 . S
N95 C96 1.397 . S
N95 C97 1.334 . S
C96 H77 0.929 . S
C96 C93 1.388 . S
C96 N95 1.397 . S
C97 H78 0.929 . S
C97 C94 1.404 . S
C97 N95 1.334 . S
C98 H90 0.930 . S
C98 C93 1.418 . S
C98 C94 1.353 . S
C99 H69 0.930 . S
C99 N100 1.330 . S
C99 C101 1.446 . S
N100 Co59 2.151 . S
N100 C99 1.330 . S
N100 C104 1.418 . S
C101 H80 0.929 . S
C101 C99 1.446 . S
C101 C102 1.332 . S
C102 H82 0.931 . S
C102 C101 1.332 . S
C102 C103 1.267 . S
C103 H71 0.929 . S
C103 C102 1.267 . S
C103 C104 1.251 . S
C104 H74 0.929 . S
C104 N100 1.418 . S
C104 C103 1.251 . S
C105 H72 0.930 . S
C105 C107 1.406 . S
C105 C110 1.261 . S
C106 H73 0.930 . S
C106 N108 1.325 . S
C106 C109 1.357 . S
C107 H75 0.928 . S
C107 C105 1.406 . S
C107 N108 1.261 . S
N108 Co59 2.214 . S
N108 C106 1.325 . S
N108 C107 1.261 . S
C109 H79 0.931 . S
C109 C106 1.357 . S
C109 C110 1.312 . S
C110 H81 0.930 . S
C110 C105 1.261 . S
C110 C109 1.312 . S
C111 O83 1.214 . S
C111 O91 1.234 . S
C112 H84 0.929 . S
C112 C115 1.391 . S
C112 C117 1.391 . S
C113 H85 0.929 . S
C113 C114 1.390 . S
C113 N116 1.391 . S
C114 H86 0.930 . S
C114 C113 1.390 . S
C114 C115 1.392 . S
C115 H87 0.929 . S
C115 C112 1.391 . S
C115 C114 1.392 . S
N116 Co60 2.257 1_565 S
N116 C113 1.391 . S
N116 C117 1.388 . S
C117 H88 0.930 . S
C117 C112 1.391 . S
C117 N116 1.388 . S
Co118 O120 2.143 . S
Co118 O126 2.074 . S
Co118 O129 2.093 . S
Co118 O142 2.097 . S
Co118 N159 2.151 . S
Co118 N167 2.214 . S
Co119 O120 2.160 . S
Co119 O125 2.058 . S
Co119 O135 2.057 . S
Co119 O150 2.037 . S
Co119 N154 2.145 . S
Co119 N175 2.257 . S
O120 Co118 2.143 . S
O120 Co119 2.160 . S
C121 O122 1.278 . S
C121 O129 1.224 . S
O122 C121 1.278 . S
C123 O124 1.245 . S
C123 O135 1.232 . S
O124 C123 1.245 . S
O125 Co119 2.058 . S
O125 C151 1.269 . S
O126 Co118 2.074 . S
O126 C151 1.257 . S
H127 C152 0.930 . S
H128 C158 0.930 . S
O129 Co118 2.093 . S
O129 C121 1.224 . S
H130 C162 0.929 . S
H131 C164 0.930 . S
H132 C165 0.930 . S
H133 C163 0.929 . S
H134 C166 0.928 . S
O135 Co119 2.057 . S
O135 C123 1.232 . S
H136 C155 0.929 . S
H137 C156 0.929 . S
H138 C168 0.931 . S
H139 C160 0.929 . S
H140 C169 0.930 . S
H141 C161 0.931 . S
O142 Co118 2.097 . S
O142 C170 1.214 . S
H143 C171 0.929 . S
H144 C172 0.929 . S
H145 C173 0.930 . S
H146 C174 0.929 . S
H147 C176 0.930 . S
H148 C153 0.930 . S
H149 C157 0.930 . S
O150 Co119 2.037 . S
O150 C170 1.234 . S
C151 O125 1.269 . S
C151 O126 1.257 . S
C152 H127 0.930 . S
C152 C155 1.388 . S
C152 C157 1.418 . S
C153 H148 0.930 . S
C153 C156 1.404 . S
C153 C157 1.353 . S
N154 Co119 2.145 . S
N154 C155 1.397 . S
N154 C156 1.334 . S
C155 H136 0.929 . S
C155 C152 1.388 . S
C155 N154 1.397 . S
C156 H137 0.929 . S
C156 C153 1.404 . S
C156 N154 1.334 . S
C157 H149 0.930 . S
C157 C152 1.418 . S
C157 C153 1.353 . S
C158 H128 0.930 . S
C158 N159 1.330 . S
C158 C160 1.446 . S
N159 Co118 2.151 . S
N159 C158 1.330 . S
N159 C163 1.418 . S
C160 H139 0.929 . S
C160 C158 1.446 . S
C160 C161 1.332 . S
C161 H141 0.931 . S
C161 C160 1.332 . S
C161 C162 1.267 . S
C162 H130 0.929 . S
C162 C161 1.267 . S
C162 C163 1.251 . S
C163 H133 0.929 . S
C163 N159 1.418 . S
C163 C162 1.251 . S
C164 H131 0.930 . S
C164 C166 1.406 . S
C164 C169 1.261 . S
C165 H132 0.930 . S
C165 N167 1.325 . S
C165 C168 1.357 . S
C166 H134 0.928 . S
C166 C164 1.406 . S
C166 N167 1.261 . S
N167 Co118 2.214 . S
N167 C165 1.325 . S
N167 C166 1.261 . S
C168 H138 0.931 . S
C168 C165 1.357 . S
C168 C169 1.312 . S
C169 H140 0.930 . S
C169 C164 1.261 . S
C169 C168 1.312 . S
C170 O142 1.214 . S
C170 O150 1.234 . S
C171 H143 0.929 . S
C171 C174 1.391 . S
C171 C176 1.391 . S
C172 H144 0.929 . S
C172 C173 1.390 . S
C172 N175 1.391 . S
C173 H145 0.930 . S
C173 C172 1.390 . S
C173 C174 1.392 . S
C174 H146 0.929 . S
C174 C171 1.391 . S
C174 C173 1.392 . S
N175 Co119 2.257 . S
N175 C172 1.391 . S
N175 C176 1.388 . S
C176 H147 0.930 . S
C176 C171 1.391 . S
C176 N175 1.388 . S
Co177 O179 2.143 . S
Co177 O185 2.074 . S
Co177 O188 2.093 . S
Co177 O201 2.097 . S
Co177 N218 2.151 . S
Co177 N226 2.214 . S
Co178 O179 2.160 . S
Co178 O184 2.058 . S
Co178 O194 2.057 . S
Co178 O209 2.037 . S
Co178 N213 2.145 . S
Co178 N234 2.257 . S
O179 Co177 2.143 . S
O179 Co178 2.160 . S
C180 O181 1.278 . S
C180 O188 1.224 . S
O181 C180 1.278 . S
C182 O183 1.245 . S
C182 O194 1.232 . S
O183 C182 1.245 . S
O184 Co178 2.058 . S
O184 C210 1.269 . S
O185 Co177 2.074 . S
O185 C210 1.257 . S
H186 C211 0.930 . S
H187 C217 0.930 . S
O188 Co177 2.093 . S
O188 C180 1.224 . S
H189 C221 0.929 . S
H190 C223 0.930 . S
H191 C224 0.930 . S
H192 C222 0.929 . S
H193 C225 0.928 . S
O194 Co178 2.057 . S
O194 C182 1.232 . S
H195 C214 0.929 . S
H196 C215 0.929 . S
H197 C227 0.931 . S
H198 C219 0.929 . S
H199 C228 0.930 . S
H200 C220 0.931 . S
O201 Co177 2.097 . S
O201 C229 1.214 . S
H202 C230 0.929 . S
H203 C231 0.929 . S
H204 C232 0.930 . S
H205 C233 0.929 . S
H206 C235 0.930 . S
H207 C212 0.930 . S
H208 C216 0.930 . S
O209 Co178 2.037 . S
O209 C229 1.234 . S
C210 O184 1.269 . S
C210 O185 1.257 . S
C211 H186 0.930 . S
C211 C214 1.388 . S
C211 C216 1.418 . S
C212 H207 0.930 . S
C212 C215 1.404 . S
C212 C216 1.353 . S
N213 Co178 2.145 . S
N213 C214 1.397 . S
N213 C215 1.334 . S
C214 H195 0.929 . S
C214 C211 1.388 . S
C214 N213 1.397 . S
C215 H196 0.929 . S
C215 C212 1.404 . S
C215 N213 1.334 . S
C216 H208 0.930 . S
C216 C211 1.418 . S
C216 C212 1.353 . S
C217 H187 0.930 . S
C217 N218 1.330 . S
C217 C219 1.446 . S
N218 Co177 2.151 . S
N218 C217 1.330 . S
N218 C222 1.418 . S
C219 H198 0.929 . S
C219 C217 1.446 . S
C219 C220 1.332 . S
C220 H200 0.931 . S
C220 C219 1.332 . S
C220 C221 1.267 . S
C221 H189 0.929 . S
C221 C220 1.267 . S
C221 C222 1.251 . S
C222 H192 0.929 . S
C222 N218 1.418 . S
C222 C221 1.251 . S
C223 H190 0.930 . S
C223 C225 1.406 . S
C223 C228 1.261 . S
C224 H191 0.930 . S
C224 N226 1.325 . S
C224 C227 1.357 . S
C225 H193 0.928 . S
C225 C223 1.406 . S
C225 N226 1.261 . S
N226 Co177 2.214 . S
N226 C224 1.325 . S
N226 C225 1.261 . S
C227 H197 0.931 . S
C227 C224 1.357 . S
C227 C228 1.312 . S
C228 H199 0.930 . S
C228 C223 1.261 . S
C228 C227 1.312 . S
C229 O201 1.214 . S
C229 O209 1.234 . S
C230 H202 0.929 . S
C230 C233 1.391 . S
C230 C235 1.391 . S
C231 H203 0.929 . S
C231 C232 1.390 . S
C231 N234 1.391 . S
C232 H204 0.930 . S
C232 C231 1.390 . S
C232 C233 1.392 . S
C233 H205 0.929 . S
C233 C230 1.391 . S
C233 C232 1.392 . S
N234 Co178 2.257 . S
N234 C231 1.391 . S
N234 C235 1.388 . S
C235 H206 0.930 . S
C235 C230 1.391 . S
C235 N234 1.388 . S
Co236 O238 2.143 . S
Co236 O244 2.074 . S
Co236 O247 2.093 . S
Co236 O260 2.097 . S
Co236 N277 2.151 . S
Co236 N285 2.214 . S
Co237 O238 2.160 . S
Co237 O243 2.058 . S
Co237 O253 2.057 . S
Co237 O268 2.037 . S
Co237 N272 2.145 . S
Co237 N293 2.257 1_455 S
O238 Co236 2.143 . S
O238 Co237 2.160 . S
C239 O240 1.278 . S
C239 O247 1.224 . S
O240 C239 1.278 . S
C241 O242 1.245 . S
C241 O253 1.232 . S
O242 C241 1.245 . S
O243 Co237 2.058 . S
O243 C269 1.269 . S
O244 Co236 2.074 . S
O244 C269 1.257 . S
H245 C270 0.930 . S
H246 C276 0.930 . S
O247 Co236 2.093 . S
O247 C239 1.224 . S
H248 C280 0.929 . S
H249 C282 0.930 . S
H250 C283 0.930 . S
H251 C281 0.929 . S
H252 C284 0.928 . S
O253 Co237 2.057 . S
O253 C241 1.232 . S
H254 C273 0.929 . S
H255 C274 0.929 . S
H256 C286 0.931 . S
H257 C278 0.929 . S
H258 C287 0.930 . S
H259 C279 0.931 . S
O260 Co236 2.097 . S
O260 C288 1.214 . S
H261 C289 0.929 . S
H262 C290 0.929 . S
H263 C291 0.930 . S
H264 C292 0.929 . S
H265 C294 0.930 . S
H266 C271 0.930 . S
H267 C275 0.930 . S
O268 Co237 2.037 . S
O268 C288 1.234 . S
C269 O243 1.269 . S
C269 O244 1.257 . S
C270 H245 0.930 . S
C270 C273 1.388 . S
C270 C275 1.418 . S
C271 H266 0.930 . S
C271 C274 1.404 . S
C271 C275 1.353 . S
N272 Co237 2.145 . S
N272 C273 1.397 . S
N272 C274 1.334 . S
C273 H254 0.929 . S
C273 C270 1.388 . S
C273 N272 1.397 . S
C274 H255 0.929 . S
C274 C271 1.404 . S
C274 N272 1.334 . S
C275 H267 0.930 . S
C275 C270 1.418 . S
C275 C271 1.353 . S
C276 H246 0.930 . S
C276 N277 1.330 . S
C276 C278 1.446 . S
N277 Co236 2.151 . S
N277 C276 1.330 . S
N277 C281 1.418 . S
C278 H257 0.929 . S
C278 C276 1.446 . S
C278 C279 1.332 . S
C279 H259 0.931 . S
C279 C278 1.332 . S
C279 C280 1.267 . S
C280 H248 0.929 . S
C280 C279 1.267 . S
C280 C281 1.251 . S
C281 H251 0.929 . S
C281 N277 1.418 . S
C281 C280 1.251 . S
C282 H249 0.930 . S
C282 C284 1.406 . S
C282 C287 1.261 . S
C283 H250 0.930 . S
C283 N285 1.325 . S
C283 C286 1.357 . S
C284 H252 0.928 . S
C284 C282 1.406 . S
C284 N285 1.261 . S
N285 Co236 2.214 . S
N285 C283 1.325 . S
N285 C284 1.261 . S
C286 H256 0.931 . S
C286 C283 1.357 . S
C286 C287 1.312 . S
C287 H258 0.930 . S
C287 C282 1.261 . S
C287 C286 1.312 . S
C288 O260 1.214 . S
C288 O268 1.234 . S
C289 H261 0.929 . S
C289 C292 1.391 . S
C289 C294 1.391 . S
C290 H262 0.929 . S
C290 C291 1.390 . S
C290 N293 1.391 . S
C291 H263 0.930 . S
C291 C290 1.390 . S
C291 C292 1.392 . S
C292 H264 0.929 . S
C292 C289 1.391 . S
C292 C291 1.392 . S
N293 Co237 2.257 1_655 S
N293 C290 1.391 . S
N293 C294 1.388 . S
C294 H265 0.930 . S
C294 C289 1.391 . S
C294 N293 1.388 . S
Co295 O297 2.143 . S
Co295 O303 2.074 . S
Co295 O306 2.093 . S
Co295 O319 2.097 . S
Co295 N336 2.151 . S
Co295 N344 2.214 . S
Co296 O297 2.160 . S
Co296 O302 2.058 . S
Co296 O312 2.057 . S
Co296 O327 2.037 . S
Co296 N331 2.145 . S
Co296 N352 2.257 1_545 S
O297 Co295 2.143 . S
O297 Co296 2.160 . S
C298 O299 1.278 . S
C298 O306 1.224 . S
O299 C298 1.278 . S
C300 O301 1.245 . S
C300 O312 1.232 . S
O301 C300 1.245 . S
O302 Co296 2.058 . S
O302 C328 1.269 . S
O303 Co295 2.074 . S
O303 C328 1.257 . S
H304 C329 0.930 . S
H305 C335 0.930 . S
O306 Co295 2.093 . S
O306 C298 1.224 . S
H307 C339 0.929 . S
H308 C341 0.930 . S
H309 C342 0.930 . S
H310 C340 0.929 . S
H311 C343 0.928 . S
O312 Co296 2.057 . S
O312 C300 1.232 . S
H313 C332 0.929 . S
H314 C333 0.929 . S
H315 C345 0.931 . S
H316 C337 0.929 . S
H317 C346 0.930 . S
H318 C338 0.931 . S
O319 Co295 2.097 . S
O319 C347 1.214 . S
H320 C348 0.929 . S
H321 C349 0.929 . S
H322 C350 0.930 . S
H323 C351 0.929 . S
H324 C353 0.930 . S
H325 C330 0.930 . S
H326 C334 0.930 . S
O327 Co296 2.037 . S
O327 C347 1.234 . S
C328 O302 1.269 . S
C328 O303 1.257 . S
C329 H304 0.930 . S
C329 C332 1.388 . S
C329 C334 1.418 . S
C330 H325 0.930 . S
C330 C333 1.404 . S
C330 C334 1.353 . S
N331 Co296 2.145 . S
N331 C332 1.397 . S
N331 C333 1.334 . S
C332 H313 0.929 . S
C332 C329 1.388 . S
C332 N331 1.397 . S
C333 H314 0.929 . S
C333 C330 1.404 . S
C333 N331 1.334 . S
C334 H326 0.930 . S
C334 C329 1.418 . S
C334 C330 1.353 . S
C335 H305 0.930 . S
C335 N336 1.330 . S
C335 C337 1.446 . S
N336 Co295 2.151 . S
N336 C335 1.330 . S
N336 C340 1.418 . S
C337 H316 0.929 . S
C337 C335 1.446 . S
C337 C338 1.332 . S
C338 H318 0.931 . S
C338 C337 1.332 . S
C338 C339 1.267 . S
C339 H307 0.929 . S
C339 C338 1.267 . S
C339 C340 1.251 . S
C340 H310 0.929 . S
C340 N336 1.418 . S
C340 C339 1.251 . S
C341 H308 0.930 . S
C341 C343 1.406 . S
C341 C346 1.261 . S
C342 H309 0.930 . S
C342 N344 1.325 . S
C342 C345 1.357 . S
C343 H311 0.928 . S
C343 C341 1.406 . S
C343 N344 1.261 . S
N344 Co295 2.214 . S
N344 C342 1.325 . S
N344 C343 1.261 . S
C345 H315 0.931 . S
C345 C342 1.357 . S
C345 C346 1.312 . S
C346 H317 0.930 . S
C346 C341 1.261 . S
C346 C345 1.312 . S
C347 O319 1.214 . S
C347 O327 1.234 . S
C348 H320 0.929 . S
C348 C351 1.391 . S
C348 C353 1.391 . S
C349 H321 0.929 . S
C349 C350 1.390 . S
C349 N352 1.391 . S
C350 H322 0.930 . S
C350 C349 1.390 . S
C350 C351 1.392 . S
C351 H323 0.929 . S
C351 C348 1.391 . S
C351 C350 1.392 . S
N352 Co296 2.257 1_565 S
N352 C349 1.391 . S
N352 C353 1.388 . S
C353 H324 0.930 . S
C353 C348 1.391 . S
C353 N352 1.388 . S
Co354 O356 2.143 . S
Co354 O362 2.074 . S
Co354 O365 2.093 . S
Co354 O378 2.097 . S
Co354 N395 2.151 . S
Co354 N403 2.214 . S
Co355 O356 2.160 . S
Co355 O361 2.058 . S
Co355 O371 2.057 . S
Co355 O386 2.037 . S
Co355 N390 2.145 . S
Co355 N411 2.257 . S
O356 Co354 2.143 . S
O356 Co355 2.160 . S
C357 O358 1.278 . S
C357 O365 1.224 . S
O358 C357 1.278 . S
C359 O360 1.245 . S
C359 O371 1.232 . S
O360 C359 1.245 . S
O361 Co355 2.058 . S
O361 C387 1.269 . S
O362 Co354 2.074 . S
O362 C387 1.257 . S
H363 C388 0.930 . S
H364 C394 0.930 . S
O365 Co354 2.093 . S
O365 C357 1.224 . S
H366 C398 0.929 . S
H367 C400 0.930 . S
H368 C401 0.930 . S
H369 C399 0.929 . S
H370 C402 0.928 . S
O371 Co355 2.057 . S
O371 C359 1.232 . S
H372 C391 0.929 . S
H373 C392 0.929 . S
H374 C404 0.931 . S
H375 C396 0.929 . S
H376 C405 0.930 . S
H377 C397 0.931 . S
O378 Co354 2.097 . S
O378 C406 1.214 . S
H379 C407 0.929 . S
H380 C408 0.929 . S
H381 C409 0.930 . S
H382 C410 0.929 . S
H383 C412 0.930 . S
H384 C389 0.930 . S
H385 C393 0.930 . S
O386 Co355 2.037 . S
O386 C406 1.234 . S
C387 O361 1.269 . S
C387 O362 1.257 . S
C388 H363 0.930 . S
C388 C391 1.388 . S
C388 C393 1.418 . S
C389 H384 0.930 . S
C389 C392 1.404 . S
C389 C393 1.353 . S
N390 Co355 2.145 . S
N390 C391 1.397 . S
N390 C392 1.334 . S
C391 H372 0.929 . S
C391 C388 1.388 . S
C391 N390 1.397 . S
C392 H373 0.929 . S
C392 C389 1.404 . S
C392 N390 1.334 . S
C393 H385 0.930 . S
C393 C388 1.418 . S
C393 C389 1.353 . S
C394 H364 0.930 . S
C394 N395 1.330 . S
C394 C396 1.446 . S
N395 Co354 2.151 . S
N395 C394 1.330 . S
N395 C399 1.418 . S
C396 H375 0.929 . S
C396 C394 1.446 . S
C396 C397 1.332 . S
C397 H377 0.931 . S
C397 C396 1.332 . S
C397 C398 1.267 . S
C398 H366 0.929 . S
C398 C397 1.267 . S
C398 C399 1.251 . S
C399 H369 0.929 . S
C399 N395 1.418 . S
C399 C398 1.251 . S
C400 H367 0.930 . S
C400 C402 1.406 . S
C400 C405 1.261 . S
C401 H368 0.930 . S
C401 N403 1.325 . S
C401 C404 1.357 . S
C402 H370 0.928 . S
C402 C400 1.406 . S
C402 N403 1.261 . S
N403 Co354 2.214 . S
N403 C401 1.325 . S
N403 C402 1.261 . S
C404 H374 0.931 . S
C404 C401 1.357 . S
C404 C405 1.312 . S
C405 H376 0.930 . S
C405 C400 1.261 . S
C405 C404 1.312 . S
C406 O378 1.214 . S
C406 O386 1.234 . S
C407 H379 0.929 . S
C407 C410 1.391 . S
C407 C412 1.391 . S
C408 H380 0.929 . S
C408 C409 1.390 . S
C408 N411 1.391 . S
C409 H381 0.930 . S
C409 C408 1.390 . S
C409 C410 1.392 . S
C410 H382 0.929 . S
C410 C407 1.391 . S
C410 C409 1.392 . S
N411 Co355 2.257 . S
N411 C408 1.391 . S
N411 C412 1.388 . S
C412 H383 0.930 . S
C412 C407 1.391 . S
C412 N411 1.388 . S
Co413 O415 2.143 . S
Co413 O421 2.074 . S
Co413 O424 2.093 . S
Co413 O437 2.097 . S
Co413 N454 2.151 . S
Co413 N462 2.214 . S
Co414 O415 2.160 . S
Co414 O420 2.058 . S
Co414 O430 2.057 . S
Co414 O445 2.037 . S
Co414 N449 2.145 . S
Co414 N470 2.257 . S
O415 Co413 2.143 . S
O415 Co414 2.160 . S
C416 O417 1.278 . S
C416 O424 1.224 . S
O417 C416 1.278 . S
C418 O419 1.245 . S
C418 O430 1.232 . S
O419 C418 1.245 . S
O420 Co414 2.058 . S
O420 C446 1.269 . S
O421 Co413 2.074 . S
O421 C446 1.257 . S
H422 C447 0.930 . S
H423 C453 0.930 . S
O424 Co413 2.093 . S
O424 C416 1.224 . S
H425 C457 0.929 . S
H426 C459 0.930 . S
H427 C460 0.930 . S
H428 C458 0.929 . S
H429 C461 0.928 . S
O430 Co414 2.057 . S
O430 C418 1.232 . S
H431 C450 0.929 . S
H432 C451 0.929 . S
H433 C463 0.931 . S
H434 C455 0.929 . S
H435 C464 0.930 . S
H436 C456 0.931 . S
O437 Co413 2.097 . S
O437 C465 1.214 . S
H438 C466 0.929 . S
H439 C467 0.929 . S
H440 C468 0.930 . S
H441 C469 0.929 . S
H442 C471 0.930 . S
H443 C448 0.930 . S
H444 C452 0.930 . S
O445 Co414 2.037 . S
O445 C465 1.234 . S
C446 O420 1.269 . S
C446 O421 1.257 . S
C447 H422 0.930 . S
C447 C450 1.388 . S
C447 C452 1.418 . S
C448 H443 0.930 . S
C448 C451 1.404 . S
C448 C452 1.353 . S
N449 Co414 2.145 . S
N449 C450 1.397 . S
N449 C451 1.334 . S
C450 H431 0.929 . S
C450 C447 1.388 . S
C450 N449 1.397 . S
C451 H432 0.929 . S
C451 C448 1.404 . S
C451 N449 1.334 . S
C452 H444 0.930 . S
C452 C447 1.418 . S
C452 C448 1.353 . S
C453 H423 0.930 . S
C453 N454 1.330 . S
C453 C455 1.446 . S
N454 Co413 2.151 . S
N454 C453 1.330 . S
N454 C458 1.418 . S
C455 H434 0.929 . S
C455 C453 1.446 . S
C455 C456 1.332 . S
C456 H436 0.931 . S
C456 C455 1.332 . S
C456 C457 1.267 . S
C457 H425 0.929 . S
C457 C456 1.267 . S
C457 C458 1.251 . S
C458 H428 0.929 . S
C458 N454 1.418 . S
C458 C457 1.251 . S
C459 H426 0.930 . S
C459 C461 1.406 . S
C459 C464 1.261 . S
C460 H427 0.930 . S
C460 N462 1.325 . S
C460 C463 1.357 . S
C461 H429 0.928 . S
C461 C459 1.406 . S
C461 N462 1.261 . S
N462 Co413 2.214 . S
N462 C460 1.325 . S
N462 C461 1.261 . S
C463 H433 0.931 . S
C463 C460 1.357 . S
C463 C464 1.312 . S
C464 H435 0.930 . S
C464 C459 1.261 . S
C464 C463 1.312 . S
C465 O437 1.214 . S
C465 O445 1.234 . S
C466 H438 0.929 . S
C466 C469 1.391 . S
C466 C471 1.391 . S
C467 H439 0.929 . S
C467 C468 1.390 . S
C467 N470 1.391 . S
C468 H440 0.930 . S
C468 C467 1.390 . S
C468 C469 1.392 . S
C469 H441 0.929 . S
C469 C466 1.391 . S
C469 C468 1.392 . S
N470 Co414 2.257 . S
N470 C467 1.391 . S
N470 C471 1.388 . S
C471 H442 0.930 . S
C471 C466 1.391 . S
C471 N470 1.388 . S
Co472 O474 2.143 . S
Co472 O480 2.074 . S
Co472 O483 2.093 . S
Co472 O496 2.097 . S
Co472 N513 2.151 . S
Co472 N521 2.214 . S
Co473 O474 2.160 . S
Co473 O479 2.058 . S
Co473 O489 2.057 . S
Co473 O504 2.037 . S
Co473 N508 2.145 . S
Co473 N529 2.257 1_655 S
O474 Co472 2.143 . S
O474 Co473 2.160 . S
C475 O476 1.278 . S
C475 O483 1.224 . S
O476 C475 1.278 . S
C477 O478 1.245 . S
C477 O489 1.232 . S
O478 C477 1.245 . S
O479 Co473 2.058 . S
O479 C505 1.269 . S
O480 Co472 2.074 . S
O480 C505 1.257 . S
H481 C506 0.930 . S
H482 C512 0.930 . S
O483 Co472 2.093 . S
O483 C475 1.224 . S
H484 C516 0.929 . S
H485 C518 0.930 . S
H486 C519 0.930 . S
H487 C517 0.929 . S
H488 C520 0.928 . S
O489 Co473 2.057 . S
O489 C477 1.232 . S
H490 C509 0.929 . S
H491 C510 0.929 . S
H492 C522 0.931 . S
H493 C514 0.929 . S
H494 C523 0.930 . S
H495 C515 0.931 . S
O496 Co472 2.097 . S
O496 C524 1.214 . S
H497 C525 0.929 . S
H498 C526 0.929 . S
H499 C527 0.930 . S
H500 C528 0.929 . S
H501 C530 0.930 . S
H502 C507 0.930 . S
H503 C511 0.930 . S
O504 Co473 2.037 . S
O504 C524 1.234 . S
C505 O479 1.269 . S
C505 O480 1.257 . S
C506 H481 0.930 . S
C506 C509 1.388 . S
C506 C511 1.418 . S
C507 H502 0.930 . S
C507 C510 1.404 . S
C507 C511 1.353 . S
N508 Co473 2.145 . S
N508 C509 1.397 . S
N508 C510 1.334 . S
C509 H490 0.929 . S
C509 C506 1.388 . S
C509 N508 1.397 . S
C510 H491 0.929 . S
C510 C507 1.404 . S
C510 N508 1.334 . S
C511 H503 0.930 . S
C511 C506 1.418 . S
C511 C507 1.353 . S
C512 H482 0.930 . S
C512 N513 1.330 . S
C512 C514 1.446 . S
N513 Co472 2.151 . S
N513 C512 1.330 . S
N513 C517 1.418 . S
C514 H493 0.929 . S
C514 C512 1.446 . S
C514 C515 1.332 . S
C515 H495 0.931 . S
C515 C514 1.332 . S
C515 C516 1.267 . S
C516 H484 0.929 . S
C516 C515 1.267 . S
C516 C517 1.251 . S
C517 H487 0.929 . S
C517 N513 1.418 . S
C517 C516 1.251 . S
C518 H485 0.930 . S
C518 C520 1.406 . S
C518 C523 1.261 . S
C519 H486 0.930 . S
C519 N521 1.325 . S
C519 C522 1.357 . S
C520 H488 0.928 . S
C520 C518 1.406 . S
C520 N521 1.261 . S
N521 Co472 2.214 . S
N521 C519 1.325 . S
N521 C520 1.261 . S
C522 H492 0.931 . S
C522 C519 1.357 . S
C522 C523 1.312 . S
C523 H494 0.930 . S
C523 C518 1.261 . S
C523 C522 1.312 . S
C524 O496 1.214 . S
C524 O504 1.234 . S
C525 H497 0.929 . S
C525 C528 1.391 . S
C525 C530 1.391 . S
C526 H498 0.929 . S
C526 C527 1.390 . S
C526 N529 1.391 . S
C527 H499 0.930 . S
C527 C526 1.390 . S
C527 C528 1.392 . S
C528 H500 0.929 . S
C528 C525 1.391 . S
C528 C527 1.392 . S
N529 Co473 2.257 1_455 S
N529 C526 1.391 . S
N529 C530 1.388 . S
C530 H501 0.930 . S
C530 C525 1.391 . S
C530 N529 1.388 . S
Co531 O533 2.143 . S
Co531 O539 2.074 . S
Co531 O542 2.093 . S
Co531 O555 2.097 . S
Co531 N572 2.151 . S
Co531 N580 2.214 . S
Co532 O533 2.160 . S
Co532 O538 2.058 . S
Co532 O548 2.057 . S
Co532 O563 2.037 . S
Co532 N567 2.145 . S
Co532 N588 2.257 1_565 S
O533 Co531 2.143 . S
O533 Co532 2.160 . S
C534 O535 1.278 . S
C534 O542 1.224 . S
O535 C534 1.278 . S
C536 O537 1.245 . S
C536 O548 1.232 . S
O537 C536 1.245 . S
O538 Co532 2.058 . S
O538 C564 1.269 . S
O539 Co531 2.074 . S
O539 C564 1.257 . S
H540 C565 0.930 . S
H541 C571 0.930 . S
O542 Co531 2.093 . S
O542 C534 1.224 . S
H543 C575 0.929 . S
H544 C577 0.930 . S
H545 C578 0.930 . S
H546 C576 0.929 . S
H547 C579 0.928 . S
O548 Co532 2.057 . S
O548 C536 1.232 . S
H549 C568 0.929 . S
H550 C569 0.929 . S
H551 C581 0.931 . S
H552 C573 0.929 . S
H553 C582 0.930 . S
H554 C574 0.931 . S
O555 Co531 2.097 . S
O555 C583 1.214 . S
H556 C584 0.929 . S
H557 C585 0.929 . S
H558 C586 0.930 . S
H559 C587 0.929 . S
H560 C589 0.930 . S
H561 C566 0.930 . S
H562 C570 0.930 . S
O563 Co532 2.037 . S
O563 C583 1.234 . S
C564 O538 1.269 . S
C564 O539 1.257 . S
C565 H540 0.930 . S
C565 C568 1.388 . S
C565 C570 1.418 . S
C566 H561 0.930 . S
C566 C569 1.404 . S
C566 C570 1.353 . S
N567 Co532 2.145 . S
N567 C568 1.397 . S
N567 C569 1.334 . S
C568 H549 0.929 . S
C568 C565 1.388 . S
C568 N567 1.397 . S
C569 H550 0.929 . S
C569 C566 1.404 . S
C569 N567 1.334 . S
C570 H562 0.930 . S
C570 C565 1.418 . S
C570 C566 1.353 . S
C571 H541 0.930 . S
C571 N572 1.330 . S
C571 C573 1.446 . S
N572 Co531 2.151 . S
N572 C571 1.330 . S
N572 C576 1.418 . S
C573 H552 0.929 . S
C573 C571 1.446 . S
C573 C574 1.332 . S
C574 H554 0.931 . S
C574 C573 1.332 . S
C574 C575 1.267 . S
C575 H543 0.929 . S
C575 C574 1.267 . S
C575 C576 1.251 . S
C576 H546 0.929 . S
C576 N572 1.418 . S
C576 C575 1.251 . S
C577 H544 0.930 . S
C577 C579 1.406 . S
C577 C582 1.261 . S
C578 H545 0.930 . S
C578 N580 1.325 . S
C578 C581 1.357 . S
C579 H547 0.928 . S
C579 C577 1.406 . S
C579 N580 1.261 . S
N580 Co531 2.214 . S
N580 C578 1.325 . S
N580 C579 1.261 . S
C581 H551 0.931 . S
C581 C578 1.357 . S
C581 C582 1.312 . S
C582 H553 0.930 . S
C582 C577 1.261 . S
C582 C581 1.312 . S
C583 O555 1.214 . S
C583 O563 1.234 . S
C584 H556 0.929 . S
C584 C587 1.391 . S
C584 C589 1.391 . S
C585 H557 0.929 . S
C585 C586 1.390 . S
C585 N588 1.391 . S
C586 H558 0.930 . S
C586 C585 1.390 . S
C586 C587 1.392 . S
C587 H559 0.929 . S
C587 C584 1.391 . S
C587 C586 1.392 . S
N588 Co532 2.257 1_545 S
N588 C585 1.391 . S
N588 C589 1.388 . S
C589 H560 0.930 . S
C589 C584 1.391 . S
C589 N588 1.388 . S
Co590 O592 2.143 . S
Co590 O598 2.074 . S
Co590 O601 2.093 . S
Co590 O614 2.097 . S
Co590 N631 2.151 . S
Co590 N639 2.214 . S
Co591 O592 2.160 . S
Co591 O597 2.058 . S
Co591 O607 2.057 . S
Co591 O622 2.037 . S
Co591 N626 2.145 . S
Co591 N647 2.257 . S
O592 Co590 2.143 . S
O592 Co591 2.160 . S
C593 O594 1.278 . S
C593 O601 1.224 . S
O594 C593 1.278 . S
C595 O596 1.245 . S
C595 O607 1.232 . S
O596 C595 1.245 . S
O597 Co591 2.058 . S
O597 C623 1.269 . S
O598 Co590 2.074 . S
O598 C623 1.257 . S
H599 C624 0.930 . S
H600 C630 0.930 . S
O601 Co590 2.093 . S
O601 C593 1.224 . S
H602 C634 0.929 . S
H603 C636 0.930 . S
H604 C637 0.930 . S
H605 C635 0.929 . S
H606 C638 0.928 . S
O607 Co591 2.057 . S
O607 C595 1.232 . S
H608 C627 0.929 . S
H609 C628 0.929 . S
H610 C640 0.931 . S
H611 C632 0.929 . S
H612 C641 0.930 . S
H613 C633 0.931 . S
O614 Co590 2.097 . S
O614 C642 1.214 . S
H615 C643 0.929 . S
H616 C644 0.929 . S
H617 C645 0.930 . S
H618 C646 0.929 . S
H619 C648 0.930 . S
H620 C625 0.930 . S
H621 C629 0.930 . S
O622 Co591 2.037 . S
O622 C642 1.234 . S
C623 O597 1.269 . S
C623 O598 1.257 . S
C624 H599 0.930 . S
C624 C627 1.388 . S
C624 C629 1.418 . S
C625 H620 0.930 . S
C625 C628 1.404 . S
C625 C629 1.353 . S
N626 Co591 2.145 . S
N626 C627 1.397 . S
N626 C628 1.334 . S
C627 H608 0.929 . S
C627 C624 1.388 . S
C627 N626 1.397 . S
C628 H609 0.929 . S
C628 C625 1.404 . S
C628 N626 1.334 . S
C629 H621 0.930 . S
C629 C624 1.418 . S
C629 C625 1.353 . S
C630 H600 0.930 . S
C630 N631 1.330 . S
C630 C632 1.446 . S
N631 Co590 2.151 . S
N631 C630 1.330 . S
N631 C635 1.418 . S
C632 H611 0.929 . S
C632 C630 1.446 . S
C632 C633 1.332 . S
C633 H613 0.931 . S
C633 C632 1.332 . S
C633 C634 1.267 . S
C634 H602 0.929 . S
C634 C633 1.267 . S
C634 C635 1.251 . S
C635 H605 0.929 . S
C635 N631 1.418 . S
C635 C634 1.251 . S
C636 H603 0.930 . S
C636 C638 1.406 . S
C636 C641 1.261 . S
C637 H604 0.930 . S
C637 N639 1.325 . S
C637 C640 1.357 . S
C638 H606 0.928 . S
C638 C636 1.406 . S
C638 N639 1.261 . S
N639 Co590 2.214 . S
N639 C637 1.325 . S
N639 C638 1.261 . S
C640 H610 0.931 . S
C640 C637 1.357 . S
C640 C641 1.312 . S
C641 H612 0.930 . S
C641 C636 1.261 . S
C641 C640 1.312 . S
C642 O614 1.214 . S
C642 O622 1.234 . S
C643 H615 0.929 . S
C643 C646 1.391 . S
C643 C648 1.391 . S
C644 H616 0.929 . S
C644 C645 1.390 . S
C644 N647 1.391 . S
C645 H617 0.930 . S
C645 C644 1.390 . S
C645 C646 1.392 . S
C646 H618 0.929 . S
C646 C643 1.391 . S
C646 C645 1.392 . S
N647 Co591 2.257 . S
N647 C644 1.391 . S
N647 C648 1.388 . S
C648 H619 0.930 . S
C648 C643 1.391 . S
C648 N647 1.388 . S
Co649 O651 2.143 . S
Co649 O657 2.074 . S
Co649 O660 2.093 . S
Co649 O673 2.097 . S
Co649 N690 2.151 . S
Co649 N698 2.214 . S
Co650 O651 2.160 . S
Co650 O656 2.058 . S
Co650 O666 2.057 . S
Co650 O681 2.037 . S
Co650 N685 2.145 . S
Co650 N706 2.257 . S
O651 Co649 2.143 . S
O651 Co650 2.160 . S
C652 O653 1.278 . S
C652 O660 1.224 . S
O653 C652 1.278 . S
C654 O655 1.245 . S
C654 O666 1.232 . S
O655 C654 1.245 . S
O656 Co650 2.058 . S
O656 C682 1.269 . S
O657 Co649 2.074 . S
O657 C682 1.257 . S
H658 C683 0.930 . S
H659 C689 0.930 . S
O660 Co649 2.093 . S
O660 C652 1.224 . S
H661 C693 0.929 . S
H662 C695 0.930 . S
H663 C696 0.930 . S
H664 C694 0.929 . S
H665 C697 0.928 . S
O666 Co650 2.057 . S
O666 C654 1.232 . S
H667 C686 0.929 . S
H668 C687 0.929 . S
H669 C699 0.931 . S
H670 C691 0.929 . S
H671 C700 0.930 . S
H672 C692 0.931 . S
O673 Co649 2.097 . S
O673 C701 1.214 . S
H674 C702 0.929 . S
H675 C703 0.929 . S
H676 C704 0.930 . S
H677 C705 0.929 . S
H678 C707 0.930 . S
H679 C684 0.930 . S
H680 C688 0.930 . S
O681 Co650 2.037 . S
O681 C701 1.234 . S
C682 O656 1.269 . S
C682 O657 1.257 . S
C683 H658 0.930 . S
C683 C686 1.388 . S
C683 C688 1.418 . S
C684 H679 0.930 . S
C684 C687 1.404 . S
C684 C688 1.353 . S
N685 Co650 2.145 . S
N685 C686 1.397 . S
N685 C687 1.334 . S
C686 H667 0.929 . S
C686 C683 1.388 . S
C686 N685 1.397 . S
C687 H668 0.929 . S
C687 C684 1.404 . S
C687 N685 1.334 . S
C688 H680 0.930 . S
C688 C683 1.418 . S
C688 C684 1.353 . S
C689 H659 0.930 . S
C689 N690 1.330 . S
C689 C691 1.446 . S
N690 Co649 2.151 . S
N690 C689 1.330 . S
N690 C694 1.418 . S
C691 H670 0.929 . S
C691 C689 1.446 . S
C691 C692 1.332 . S
C692 H672 0.931 . S
C692 C691 1.332 . S
C692 C693 1.267 . S
C693 H661 0.929 . S
C693 C692 1.267 . S
C693 C694 1.251 . S
C694 H664 0.929 . S
C694 N690 1.418 . S
C694 C693 1.251 . S
C695 H662 0.930 . S
C695 C697 1.406 . S
C695 C700 1.261 . S
C696 H663 0.930 . S
C696 N698 1.325 . S
C696 C699 1.357 . S
C697 H665 0.928 . S
C697 C695 1.406 . S
C697 N698 1.261 . S
N698 Co649 2.214 . S
N698 C696 1.325 . S
N698 C697 1.261 . S
C699 H669 0.931 . S
C699 C696 1.357 . S
C699 C700 1.312 . S
C700 H671 0.930 . S
C700 C695 1.261 . S
C700 C699 1.312 . S
C701 O673 1.214 . S
C701 O681 1.234 . S
C702 H674 0.929 . S
C702 C705 1.391 . S
C702 C707 1.391 . S
C703 H675 0.929 . S
C703 C704 1.390 . S
C703 N706 1.391 . S
C704 H676 0.930 . S
C704 C703 1.390 . S
C704 C705 1.392 . S
C705 H677 0.929 . S
C705 C702 1.391 . S
C705 C704 1.392 . S
N706 Co650 2.257 . S
N706 C703 1.391 . S
N706 C707 1.388 . S
C707 H678 0.930 . S
C707 C702 1.391 . S
C707 N706 1.388 . S
Co708 O710 2.143 . S
Co708 O716 2.074 . S
Co708 O719 2.093 . S
Co708 O732 2.097 . S
Co708 N749 2.151 . S
Co708 N757 2.214 . S
Co709 O710 2.160 . S
Co709 O715 2.058 . S
Co709 O725 2.057 . S
Co709 O740 2.037 . S
Co709 N744 2.145 . S
Co709 N765 2.257 1_655 S
O710 Co708 2.143 . S
O710 Co709 2.160 . S
C711 O712 1.278 . S
C711 O719 1.224 . S
O712 C711 1.278 . S
C713 O714 1.245 . S
C713 O725 1.232 . S
O714 C713 1.245 . S
O715 Co709 2.058 . S
O715 C741 1.269 . S
O716 Co708 2.074 . S
O716 C741 1.257 . S
H717 C742 0.930 . S
H718 C748 0.930 . S
O719 Co708 2.093 . S
O719 C711 1.224 . S
H720 C752 0.929 . S
H721 C754 0.930 . S
H722 C755 0.930 . S
H723 C753 0.929 . S
H724 C756 0.928 . S
O725 Co709 2.057 . S
O725 C713 1.232 . S
H726 C745 0.929 . S
H727 C746 0.929 . S
H728 C758 0.931 . S
H729 C750 0.929 . S
H730 C759 0.930 . S
H731 C751 0.931 . S
O732 Co708 2.097 . S
O732 C760 1.214 . S
H733 C761 0.929 . S
H734 C762 0.929 . S
H735 C763 0.930 . S
H736 C764 0.929 . S
H737 C766 0.930 . S
H738 C743 0.930 . S
H739 C747 0.930 . S
O740 Co709 2.037 . S
O740 C760 1.234 . S
C741 O715 1.269 . S
C741 O716 1.257 . S
C742 H717 0.930 . S
C742 C745 1.388 . S
C742 C747 1.418 . S
C743 H738 0.930 . S
C743 C746 1.404 . S
C743 C747 1.353 . S
N744 Co709 2.145 . S
N744 C745 1.397 . S
N744 C746 1.334 . S
C745 H726 0.929 . S
C745 C742 1.388 . S
C745 N744 1.397 . S
C746 H727 0.929 . S
C746 C743 1.404 . S
C746 N744 1.334 . S
C747 H739 0.930 . S
C747 C742 1.418 . S
C747 C743 1.353 . S
C748 H718 0.930 . S
C748 N749 1.330 . S
C748 C750 1.446 . S
N749 Co708 2.151 . S
N749 C748 1.330 . S
N749 C753 1.418 . S
C750 H729 0.929 . S
C750 C748 1.446 . S
C750 C751 1.332 . S
C751 H731 0.931 . S
C751 C750 1.332 . S
C751 C752 1.267 . S
C752 H720 0.929 . S
C752 C751 1.267 . S
C752 C753 1.251 . S
C753 H723 0.929 . S
C753 N749 1.418 . S
C753 C752 1.251 . S
C754 H721 0.930 . S
C754 C756 1.406 . S
C754 C759 1.261 . S
C755 H722 0.930 . S
C755 N757 1.325 . S
C755 C758 1.357 . S
C756 H724 0.928 . S
C756 C754 1.406 . S
C756 N757 1.261 . S
N757 Co708 2.214 . S
N757 C755 1.325 . S
N757 C756 1.261 . S
C758 H728 0.931 . S
C758 C755 1.357 . S
C758 C759 1.312 . S
C759 H730 0.930 . S
C759 C754 1.261 . S
C759 C758 1.312 . S
C760 O732 1.214 . S
C760 O740 1.234 . S
C761 H733 0.929 . S
C761 C764 1.391 . S
C761 C766 1.391 . S
C762 H734 0.929 . S
C762 C763 1.390 . S
C762 N765 1.391 . S
C763 H735 0.930 . S
C763 C762 1.390 . S
C763 C764 1.392 . S
C764 H736 0.929 . S
C764 C761 1.391 . S
C764 C763 1.392 . S
N765 Co709 2.257 1_455 S
N765 C762 1.391 . S
N765 C766 1.388 . S
C766 H737 0.930 . S
C766 C761 1.391 . S
C766 N765 1.388 . S
Co767 O769 2.143 . S
Co767 O775 2.074 . S
Co767 O778 2.093 . S
Co767 O791 2.097 . S
Co767 N808 2.151 . S
Co767 N816 2.214 . S
Co768 O769 2.160 . S
Co768 O774 2.058 . S
Co768 O784 2.057 . S
Co768 O799 2.037 . S
Co768 N803 2.145 . S
Co768 N824 2.257 1_565 S
O769 Co767 2.143 . S
O769 Co768 2.160 . S
C770 O771 1.278 . S
C770 O778 1.224 . S
O771 C770 1.278 . S
C772 O773 1.245 . S
C772 O784 1.232 . S
O773 C772 1.245 . S
O774 Co768 2.058 . S
O774 C800 1.269 . S
O775 Co767 2.074 . S
O775 C800 1.257 . S
H776 C801 0.930 . S
H777 C807 0.930 . S
O778 Co767 2.093 . S
O778 C770 1.224 . S
H779 C811 0.929 . S
H780 C813 0.930 . S
H781 C814 0.930 . S
H782 C812 0.929 . S
H783 C815 0.928 . S
O784 Co768 2.057 . S
O784 C772 1.232 . S
H785 C804 0.929 . S
H786 C805 0.929 . S
H787 C817 0.931 . S
H788 C809 0.929 . S
H789 C818 0.930 . S
H790 C810 0.931 . S
O791 Co767 2.097 . S
O791 C819 1.214 . S
H792 C820 0.929 . S
H793 C821 0.929 . S
H794 C822 0.930 . S
H795 C823 0.929 . S
H796 C825 0.930 . S
H797 C802 0.930 . S
H798 C806 0.930 . S
O799 Co768 2.037 . S
O799 C819 1.234 . S
C800 O774 1.269 . S
C800 O775 1.257 . S
C801 H776 0.930 . S
C801 C804 1.388 . S
C801 C806 1.418 . S
C802 H797 0.930 . S
C802 C805 1.404 . S
C802 C806 1.353 . S
N803 Co768 2.145 . S
N803 C804 1.397 . S
N803 C805 1.334 . S
C804 H785 0.929 . S
C804 C801 1.388 . S
C804 N803 1.397 . S
C805 H786 0.929 . S
C805 C802 1.404 . S
C805 N803 1.334 . S
C806 H798 0.930 . S
C806 C801 1.418 . S
C806 C802 1.353 . S
C807 H777 0.930 . S
C807 N808 1.330 . S
C807 C809 1.446 . S
N808 Co767 2.151 . S
N808 C807 1.330 . S
N808 C812 1.418 . S
C809 H788 0.929 . S
C809 C807 1.446 . S
C809 C810 1.332 . S
C810 H790 0.931 . S
C810 C809 1.332 . S
C810 C811 1.267 . S
C811 H779 0.929 . S
C811 C810 1.267 . S
C811 C812 1.251 . S
C812 H782 0.929 . S
C812 N808 1.418 . S
C812 C811 1.251 . S
C813 H780 0.930 . S
C813 C815 1.406 . S
C813 C818 1.261 . S
C814 H781 0.930 . S
C814 N816 1.325 . S
C814 C817 1.357 . S
C815 H783 0.928 . S
C815 C813 1.406 . S
C815 N816 1.261 . S
N816 Co767 2.214 . S
N816 C814 1.325 . S
N816 C815 1.261 . S
C817 H787 0.931 . S
C817 C814 1.357 . S
C817 C818 1.312 . S
C818 H789 0.930 . S
C818 C813 1.261 . S
C818 C817 1.312 . S
C819 O791 1.214 . S
C819 O799 1.234 . S
C820 H792 0.929 . S
C820 C823 1.391 . S
C820 C825 1.391 . S
C821 H793 0.929 . S
C821 C822 1.390 . S
C821 N824 1.391 . S
C822 H794 0.930 . S
C822 C821 1.390 . S
C822 C823 1.392 . S
C823 H795 0.929 . S
C823 C820 1.391 . S
C823 C822 1.392 . S
N824 Co768 2.257 1_545 S
N824 C821 1.391 . S
N824 C825 1.388 . S
C825 H796 0.930 . S
C825 C820 1.391 . S
C825 N824 1.388 . S
Co826 O828 2.143 . S
Co826 O834 2.074 . S
Co826 O837 2.093 . S
Co826 O850 2.097 . S
Co826 N867 2.151 . S
Co826 N875 2.214 . S
Co827 O828 2.160 . S
Co827 O833 2.058 . S
Co827 O843 2.057 . S
Co827 O858 2.037 . S
Co827 N862 2.145 . S
Co827 N883 2.257 . S
O828 Co826 2.143 . S
O828 Co827 2.160 . S
C829 O830 1.278 . S
C829 O837 1.224 . S
O830 C829 1.278 . S
C831 O832 1.245 . S
C831 O843 1.232 . S
O832 C831 1.245 . S
O833 Co827 2.058 . S
O833 C859 1.269 . S
O834 Co826 2.074 . S
O834 C859 1.257 . S
H835 C860 0.930 . S
H836 C866 0.930 . S
O837 Co826 2.093 . S
O837 C829 1.224 . S
H838 C870 0.929 . S
H839 C872 0.930 . S
H840 C873 0.930 . S
H841 C871 0.929 . S
H842 C874 0.928 . S
O843 Co827 2.057 . S
O843 C831 1.232 . S
H844 C863 0.929 . S
H845 C864 0.929 . S
H846 C876 0.931 . S
H847 C868 0.929 . S
H848 C877 0.930 . S
H849 C869 0.931 . S
O850 Co826 2.097 . S
O850 C878 1.214 . S
H851 C879 0.929 . S
H852 C880 0.929 . S
H853 C881 0.930 . S
H854 C882 0.929 . S
H855 C884 0.930 . S
H856 C861 0.930 . S
H857 C865 0.930 . S
O858 Co827 2.037 . S
O858 C878 1.234 . S
C859 O833 1.269 . S
C859 O834 1.257 . S
C860 H835 0.930 . S
C860 C863 1.388 . S
C860 C865 1.418 . S
C861 H856 0.930 . S
C861 C864 1.404 . S
C861 C865 1.353 . S
N862 Co827 2.145 . S
N862 C863 1.397 . S
N862 C864 1.334 . S
C863 H844 0.929 . S
C863 C860 1.388 . S
C863 N862 1.397 . S
C864 H845 0.929 . S
C864 C861 1.404 . S
C864 N862 1.334 . S
C865 H857 0.930 . S
C865 C860 1.418 . S
C865 C861 1.353 . S
C866 H836 0.930 . S
C866 N867 1.330 . S
C866 C868 1.446 . S
N867 Co826 2.151 . S
N867 C866 1.330 . S
N867 C871 1.418 . S
C868 H847 0.929 . S
C868 C866 1.446 . S
C868 C869 1.332 . S
C869 H849 0.931 . S
C869 C868 1.332 . S
C869 C870 1.267 . S
C870 H838 0.929 . S
C870 C869 1.267 . S
C870 C871 1.251 . S
C871 H841 0.929 . S
C871 N867 1.418 . S
C871 C870 1.251 . S
C872 H839 0.930 . S
C872 C874 1.406 . S
C872 C877 1.261 . S
C873 H840 0.930 . S
C873 N875 1.325 . S
C873 C876 1.357 . S
C874 H842 0.928 . S
C874 C872 1.406 . S
C874 N875 1.261 . S
N875 Co826 2.214 . S
N875 C873 1.325 . S
N875 C874 1.261 . S
C876 H846 0.931 . S
C876 C873 1.357 . S
C876 C877 1.312 . S
C877 H848 0.930 . S
C877 C872 1.261 . S
C877 C876 1.312 . S
C878 O850 1.214 . S
C878 O858 1.234 . S
C879 H851 0.929 . S
C879 C882 1.391 . S
C879 C884 1.391 . S
C880 H852 0.929 . S
C880 C881 1.390 . S
C880 N883 1.391 . S
C881 H853 0.930 . S
C881 C880 1.390 . S
C881 C882 1.392 . S
C882 H854 0.929 . S
C882 C879 1.391 . S
C882 C881 1.392 . S
N883 Co827 2.257 . S
N883 C880 1.391 . S
N883 C884 1.388 . S
C884 H855 0.930 . S
C884 C879 1.391 . S
C884 N883 1.388 . S
Co885 O887 2.143 . S
Co885 O893 2.074 . S
Co885 O896 2.093 . S
Co885 O909 2.097 . S
Co885 N926 2.151 . S
Co885 N934 2.214 . S
Co886 O887 2.160 . S
Co886 O892 2.058 . S
Co886 O902 2.057 . S
Co886 O917 2.037 . S
Co886 N921 2.145 . S
Co886 N942 2.257 . S
O887 Co885 2.143 . S
O887 Co886 2.160 . S
C888 O889 1.278 . S
C888 O896 1.224 . S
O889 C888 1.278 . S
C890 O891 1.245 . S
C890 O902 1.232 . S
O891 C890 1.245 . S
O892 Co886 2.058 . S
O892 C918 1.269 . S
O893 Co885 2.074 . S
O893 C918 1.257 . S
H894 C919 0.930 . S
H895 C925 0.930 . S
O896 Co885 2.093 . S
O896 C888 1.224 . S
H897 C929 0.929 . S
H898 C931 0.930 . S
H899 C932 0.930 . S
H900 C930 0.929 . S
H901 C933 0.928 . S
O902 Co886 2.057 . S
O902 C890 1.232 . S
H903 C922 0.929 . S
H904 C923 0.929 . S
H905 C935 0.931 . S
H906 C927 0.929 . S
H907 C936 0.930 . S
H908 C928 0.931 . S
O909 Co885 2.097 . S
O909 C937 1.214 . S
H910 C938 0.929 . S
H911 C939 0.929 . S
H912 C940 0.930 . S
H913 C941 0.929 . S
H914 C943 0.930 . S
H915 C920 0.930 . S
H916 C924 0.930 . S
O917 Co886 2.037 . S
O917 C937 1.234 . S
C918 O892 1.269 . S
C918 O893 1.257 . S
C919 H894 0.930 . S
C919 C922 1.388 . S
C919 C924 1.418 . S
C920 H915 0.930 . S
C920 C923 1.404 . S
C920 C924 1.353 . S
N921 Co886 2.145 . S
N921 C922 1.397 . S
N921 C923 1.334 . S
C922 H903 0.929 . S
C922 C919 1.388 . S
C922 N921 1.397 . S
C923 H904 0.929 . S
C923 C920 1.404 . S
C923 N921 1.334 . S
C924 H916 0.930 . S
C924 C919 1.418 . S
C924 C920 1.353 . S
C925 H895 0.930 . S
C925 N926 1.330 . S
C925 C927 1.446 . S
N926 Co885 2.151 . S
N926 C925 1.330 . S
N926 C930 1.418 . S
C927 H906 0.929 . S
C927 C925 1.446 . S
C927 C928 1.332 . S
C928 H908 0.931 . S
C928 C927 1.332 . S
C928 C929 1.267 . S
C929 H897 0.929 . S
C929 C928 1.267 . S
C929 C930 1.251 . S
C930 H900 0.929 . S
C930 N926 1.418 . S
C930 C929 1.251 . S
C931 H898 0.930 . S
C931 C933 1.406 . S
C931 C936 1.261 . S
C932 H899 0.930 . S
C932 N934 1.325 . S
C932 C935 1.357 . S
C933 H901 0.928 . S
C933 C931 1.406 . S
C933 N934 1.261 . S
N934 Co885 2.214 . S
N934 C932 1.325 . S
N934 C933 1.261 . S
C935 H905 0.931 . S
C935 C932 1.357 . S
C935 C936 1.312 . S
C936 H907 0.930 . S
C936 C931 1.261 . S
C936 C935 1.312 . S
C937 O909 1.214 . S
C937 O917 1.234 . S
C938 H910 0.929 . S
C938 C941 1.391 . S
C938 C943 1.391 . S
C939 H911 0.929 . S
C939 C940 1.390 . S
C939 N942 1.391 . S
C940 H912 0.930 . S
C940 C939 1.390 . S
C940 C941 1.392 . S
C941 H913 0.929 . S
C941 C938 1.391 . S
C941 C940 1.392 . S
N942 Co886 2.257 . S
N942 C939 1.391 . S
N942 C943 1.388 . S
C943 H914 0.930 . S
C943 C938 1.391 . S
C943 N942 1.388 . S
H944 C952 0.929 . S
H945 C954 0.930 . S
H946 C956 0.930 . S
H947 C959 0.929 . S
H948 C962 0.930 . S
H949 C964 0.960 . S
H950 C964 0.960 . S
H951 C964 0.960 . S
C952 H944 0.929 . S
C952 C953 1.377 . S
C952 C954 1.384 . S
C953 C952 1.377 . S
C953 C959 1.390 . S
C954 H945 0.930 . S
C954 C952 1.384 . S
C954 C955 1.372 . S
C955 C954 1.372 . S
C955 C956 1.400 . S
C955 C960 1.490 . S
C956 H946 0.930 . S
C956 C955 1.400 . S
C956 C959 1.386 . S
H957 C973 0.930 . S
H958 C974 0.931 . S
C959 H947 0.929 . S
C959 C953 1.390 . S
C959 C956 1.386 . S
C960 C955 1.490 . S
C960 C962 1.395 . S
C960 C963 1.403 . S
H961 C967 0.930 . S
C962 H948 0.930 . S
C962 C960 1.395 . S
C962 C965 1.403 . S
C963 C960 1.403 . S
C963 C964 1.524 . S
C963 C967 1.400 . S
C964 H949 0.960 . S
C964 H950 0.960 . S
C964 H951 0.960 . S
C964 C963 1.524 . S
C965 C962 1.403 . S
C965 C966 1.392 . S
C965 C969 1.495 . S
C966 C965 1.392 . S
C966 C967 1.385 . S
C966 C968 1.478 . S
C967 H961 0.930 . S
C967 C963 1.400 . S
C967 C966 1.385 . S
C968 C966 1.478 . S
C968 C970 1.381 . S
C968 C974 1.383 . S
C969 C965 1.495 . S
C969 H975 0.959 . S
C969 H976 0.961 . S
C969 H977 0.960 . S
C970 C968 1.381 . S
C970 C971 1.394 . S
C970 H978 0.930 . S
C971 C970 1.394 . S
C971 C972 1.383 . S
C971 H979 0.929 . S
C972 C971 1.383 . S
C972 C973 1.377 . S
C973 H957 0.930 . S
C973 C972 1.377 . S
C973 C974 1.379 . S
C974 H958 0.931 . S
C974 C968 1.383 . S
C974 C973 1.379 . S
H975 C969 0.959 . S
H976 C969 0.961 . S
H977 C969 0.960 . S
H978 C970 0.930 . S
H979 C971 0.929 . S
H980 C988 0.929 . S
H981 C990 0.930 . S
H982 C992 0.930 . S
H983 C995 0.929 . S
H984 C998 0.930 . S
H985 C1000 0.960 . S
H986 C1000 0.960 . S
H987 C1000 0.960 . S
C988 H980 0.929 . S
C988 C989 1.377 . S
C988 C990 1.384 . S
C989 C988 1.377 . S
C989 C995 1.390 . S
C990 H981 0.930 . S
C990 C988 1.384 . S
C990 C991 1.372 . S
C991 C990 1.372 . S
C991 C992 1.400 . S
C991 C996 1.490 . S
C992 H982 0.930 . S
C992 C991 1.400 . S
C992 C995 1.386 . S
H993 C1009 0.930 . S
H994 C1010 0.931 . S
C995 H983 0.929 . S
C995 C989 1.390 . S
C995 C992 1.386 . S
C996 C991 1.490 . S
C996 C998 1.395 . S
C996 C999 1.403 . S
H997 C1003 0.930 . S
C998 H984 0.930 . S
C998 C996 1.395 . S
C998 C1001 1.403 . S
C999 C996 1.403 . S
C999 C1000 1.524 . S
C999 C1003 1.400 . S
C1000 H985 0.960 . S
C1000 H986 0.960 . S
C1000 H987 0.960 . S
C1000 C999 1.524 . S
C1001 C998 1.403 . S
C1001 C1002 1.392 . S
C1001 C1005 1.495 . S
C1002 C1001 1.392 . S
C1002 C1003 1.385 . S
C1002 C1004 1.478 . S
C1003 H997 0.930 . S
C1003 C999 1.400 . S
C1003 C1002 1.385 . S
C1004 C1002 1.478 . S
C1004 C1006 1.381 . S
C1004 C1010 1.383 . S
C1005 C1001 1.495 . S
C1005 H1011 0.959 . S
C1005 H1012 0.961 . S
C1005 H1013 0.960 . S
C1006 C1004 1.381 . S
C1006 C1007 1.394 . S
C1006 H1014 0.930 . S
C1007 C1006 1.394 . S
C1007 C1008 1.383 . S
C1007 H1015 0.929 . S
C1008 C1007 1.383 . S
C1008 C1009 1.377 . S
C1009 H993 0.930 . S
C1009 C1008 1.377 . S
C1009 C1010 1.379 . S
C1010 H994 0.931 . S
C1010 C1004 1.383 . S
C1010 C1009 1.379 . S
H1011 C1005 0.959 . S
H1012 C1005 0.961 . S
H1013 C1005 0.960 . S
H1014 C1006 0.930 . S
H1015 C1007 0.929 . S
H1016 C1024 0.929 . S
H1017 C1026 0.930 . S
H1018 C1028 0.930 . S
H1019 C1031 0.929 . S
H1020 C1034 0.930 . S
H1021 C1036 0.960 . S
H1022 C1036 0.960 . S
H1023 C1036 0.960 . S
C1024 H1016 0.929 . S
C1024 C1025 1.377 . S
C1024 C1026 1.384 . S
C1025 C1024 1.377 . S
C1025 C1031 1.390 . S
C1026 H1017 0.930 . S
C1026 C1024 1.384 . S
C1026 C1027 1.372 . S
C1027 C1026 1.372 . S
C1027 C1028 1.400 . S
C1027 C1032 1.490 . S
C1028 H1018 0.930 . S
C1028 C1027 1.400 . S
C1028 C1031 1.386 . S
H1029 C1045 0.930 . S
H1030 C1046 0.931 . S
C1031 H1019 0.929 . S
C1031 C1025 1.390 . S
C1031 C1028 1.386 . S
C1032 C1027 1.490 . S
C1032 C1034 1.395 . S
C1032 C1035 1.403 . S
H1033 C1039 0.930 . S
C1034 H1020 0.930 . S
C1034 C1032 1.395 . S
C1034 C1037 1.403 . S
C1035 C1032 1.403 . S
C1035 C1036 1.524 . S
C1035 C1039 1.400 . S
C1036 H1021 0.960 . S
C1036 H1022 0.960 . S
C1036 H1023 0.960 . S
C1036 C1035 1.524 . S
C1037 C1034 1.403 . S
C1037 C1038 1.392 . S
C1037 C1041 1.495 . S
C1038 C1037 1.392 . S
C1038 C1039 1.385 . S
C1038 C1040 1.478 . S
C1039 H1033 0.930 . S
C1039 C1035 1.400 . S
C1039 C1038 1.385 . S
C1040 C1038 1.478 . S
C1040 C1042 1.381 . S
C1040 C1046 1.383 . S
C1041 C1037 1.495 . S
C1041 H1047 0.959 . S
C1041 H1048 0.961 . S
C1041 H1049 0.960 . S
C1042 C1040 1.381 . S
C1042 C1043 1.394 . S
C1042 H1050 0.930 . S
C1043 C1042 1.394 . S
C1043 C1044 1.383 . S
C1043 H1051 0.929 . S
C1044 C1043 1.383 . S
C1044 C1045 1.377 . S
C1045 H1029 0.930 . S
C1045 C1044 1.377 . S
C1045 C1046 1.379 . S
C1046 H1030 0.931 . S
C1046 C1040 1.383 . S
C1046 C1045 1.379 . S
H1047 C1041 0.959 . S
H1048 C1041 0.961 . S
H1049 C1041 0.960 . S
H1050 C1042 0.930 . S
H1051 C1043 0.929 . S
H1052 C1060 0.929 . S
H1053 C1062 0.930 . S
H1054 C1064 0.930 . S
H1055 C1067 0.929 . S
H1056 C1070 0.930 . S
H1057 C1072 0.960 . S
H1058 C1072 0.960 . S
H1059 C1072 0.960 . S
C1060 H1052 0.929 . S
C1060 C1061 1.377 . S
C1060 C1062 1.384 . S
C1061 C1060 1.377 . S
C1061 C1067 1.390 . S
C1062 H1053 0.930 . S
C1062 C1060 1.384 . S
C1062 C1063 1.372 . S
C1063 C1062 1.372 . S
C1063 C1064 1.400 . S
C1063 C1068 1.490 . S
C1064 H1054 0.930 . S
C1064 C1063 1.400 . S
C1064 C1067 1.386 . S
H1065 C1081 0.930 . S
H1066 C1082 0.931 . S
C1067 H1055 0.929 . S
C1067 C1061 1.390 . S
C1067 C1064 1.386 . S
C1068 C1063 1.490 . S
C1068 C1070 1.395 . S
C1068 C1071 1.403 . S
H1069 C1075 0.930 . S
C1070 H1056 0.930 . S
C1070 C1068 1.395 . S
C1070 C1073 1.403 . S
C1071 C1068 1.403 . S
C1071 C1072 1.524 . S
C1071 C1075 1.400 . S
C1072 H1057 0.960 . S
C1072 H1058 0.960 . S
C1072 H1059 0.960 . S
C1072 C1071 1.524 . S
C1073 C1070 1.403 . S
C1073 C1074 1.392 . S
C1073 C1077 1.495 . S
C1074 C1073 1.392 . S
C1074 C1075 1.385 . S
C1074 C1076 1.478 . S
C1075 H1069 0.930 . S
C1075 C1071 1.400 . S
C1075 C1074 1.385 . S
C1076 C1074 1.478 . S
C1076 C1078 1.381 . S
C1076 C1082 1.383 . S
C1077 C1073 1.495 . S
C1077 H1083 0.959 . S
C1077 H1084 0.961 . S
C1077 H1085 0.960 . S
C1078 C1076 1.381 . S
C1078 C1079 1.394 . S
C1078 H1086 0.930 . S
C1079 C1078 1.394 . S
C1079 C1080 1.383 . S
C1079 H1087 0.929 . S
C1080 C1079 1.383 . S
C1080 C1081 1.377 . S
C1081 H1065 0.930 . S
C1081 C1080 1.377 . S
C1081 C1082 1.379 . S
C1082 H1066 0.931 . S
C1082 C1076 1.383 . S
C1082 C1081 1.379 . S
H1083 C1077 0.959 . S
H1084 C1077 0.961 . S
H1085 C1077 0.960 . S
H1086 C1078 0.930 . S
H1087 C1079 0.929 . S
H1088 C1096 0.929 . S
H1089 C1098 0.930 . S
H1090 C1100 0.930 . S
H1091 C1103 0.929 . S
H1092 C1106 0.930 . S
H1093 C1108 0.960 . S
H1094 C1108 0.960 . S
H1095 C1108 0.960 . S
C1096 H1088 0.929 . S
C1096 C1097 1.377 . S
C1096 C1098 1.384 . S
C1097 C1096 1.377 . S
C1097 C1103 1.390 . S
C1098 H1089 0.930 . S
C1098 C1096 1.384 . S
C1098 C1099 1.372 . S
C1099 C1098 1.372 . S
C1099 C1100 1.400 . S
C1099 C1104 1.490 . S
C1100 H1090 0.930 . S
C1100 C1099 1.400 . S
C1100 C1103 1.386 . S
H1101 C1117 0.930 . S
H1102 C1118 0.931 . S
C1103 H1091 0.929 . S
C1103 C1097 1.390 . S
C1103 C1100 1.386 . S
C1104 C1099 1.490 . S
C1104 C1106 1.395 . S
C1104 C1107 1.403 . S
H1105 C1111 0.930 . S
C1106 H1092 0.930 . S
C1106 C1104 1.395 . S
C1106 C1109 1.403 . S
C1107 C1104 1.403 . S
C1107 C1108 1.524 . S
C1107 C1111 1.400 . S
C1108 H1093 0.960 . S
C1108 H1094 0.960 . S
C1108 H1095 0.960 . S
C1108 C1107 1.524 . S
C1109 C1106 1.403 . S
C1109 C1110 1.392 . S
C1109 C1113 1.495 . S
C1110 C1109 1.392 . S
C1110 C1111 1.385 . S
C1110 C1112 1.478 . S
C1111 H1105 0.930 . S
C1111 C1107 1.400 . S
C1111 C1110 1.385 . S
C1112 C1110 1.478 . S
C1112 C1114 1.381 . S
C1112 C1118 1.383 . S
C1113 C1109 1.495 . S
C1113 H1119 0.959 . S
C1113 H1120 0.961 . S
C1113 H1121 0.960 . S
C1114 C1112 1.381 . S
C1114 C1115 1.394 . S
C1114 H1122 0.930 . S
C1115 C1114 1.394 . S
C1115 C1116 1.383 . S
C1115 H1123 0.929 . S
C1116 C1115 1.383 . S
C1116 C1117 1.377 . S
C1117 H1101 0.930 . S
C1117 C1116 1.377 . S
C1117 C1118 1.379 . S
C1118 H1102 0.931 . S
C1118 C1112 1.383 . S
C1118 C1117 1.379 . S
H1119 C1113 0.959 . S
H1120 C1113 0.961 . S
H1121 C1113 0.960 . S
H1122 C1114 0.930 . S
H1123 C1115 0.929 . S
H1124 C1132 0.929 . S
H1125 C1134 0.930 . S
H1126 C1136 0.930 . S
H1127 C1139 0.929 . S
H1128 C1142 0.930 . S
H1129 C1144 0.960 . S
H1130 C1144 0.960 . S
H1131 C1144 0.960 . S
C1132 H1124 0.929 . S
C1132 C1133 1.377 . S
C1132 C1134 1.384 . S
C1133 C1132 1.377 . S
C1133 C1139 1.390 . S
C1134 H1125 0.930 . S
C1134 C1132 1.384 . S
C1134 C1135 1.372 . S
C1135 C1134 1.372 . S
C1135 C1136 1.400 . S
C1135 C1140 1.490 . S
C1136 H1126 0.930 . S
C1136 C1135 1.400 . S
C1136 C1139 1.386 . S
H1137 C1153 0.930 . S
H1138 C1154 0.931 . S
C1139 H1127 0.929 . S
C1139 C1133 1.390 . S
C1139 C1136 1.386 . S
C1140 C1135 1.490 . S
C1140 C1142 1.395 . S
C1140 C1143 1.403 . S
H1141 C1147 0.930 . S
C1142 H1128 0.930 . S
C1142 C1140 1.395 . S
C1142 C1145 1.403 . S
C1143 C1140 1.403 . S
C1143 C1144 1.524 . S
C1143 C1147 1.400 . S
C1144 H1129 0.960 . S
C1144 H1130 0.960 . S
C1144 H1131 0.960 . S
C1144 C1143 1.524 . S
C1145 C1142 1.403 . S
C1145 C1146 1.392 . S
C1145 C1149 1.495 . S
C1146 C1145 1.392 . S
C1146 C1147 1.385 . S
C1146 C1148 1.478 . S
C1147 H1141 0.930 . S
C1147 C1143 1.400 . S
C1147 C1146 1.385 . S
C1148 C1146 1.478 . S
C1148 C1150 1.381 . S
C1148 C1154 1.383 . S
C1149 C1145 1.495 . S
C1149 H1155 0.959 . S
C1149 H1156 0.961 . S
C1149 H1157 0.960 . S
C1150 C1148 1.381 . S
C1150 C1151 1.394 . S
C1150 H1158 0.930 . S
C1151 C1150 1.394 . S
C1151 C1152 1.383 . S
C1151 H1159 0.929 . S
C1152 C1151 1.383 . S
C1152 C1153 1.377 . S
C1153 H1137 0.930 . S
C1153 C1152 1.377 . S
C1153 C1154 1.379 . S
C1154 H1138 0.931 . S
C1154 C1148 1.383 . S
C1154 C1153 1.379 . S
H1155 C1149 0.959 . S
H1156 C1149 0.961 . S
H1157 C1149 0.960 . S
H1158 C1150 0.930 . S
H1159 C1151 0.929 . S
H1160 C1168 0.929 . S
H1161 C1170 0.930 . S
H1162 C1172 0.930 . S
H1163 C1175 0.929 . S
H1164 C1178 0.930 . S
H1165 C1180 0.960 . S
H1166 C1180 0.960 . S
H1167 C1180 0.960 . S
C1168 H1160 0.929 . S
C1168 C1169 1.377 . S
C1168 C1170 1.384 . S
C1169 C1168 1.377 . S
C1169 C1175 1.390 . S
C1170 H1161 0.930 . S
C1170 C1168 1.384 . S
C1170 C1171 1.372 . S
C1171 C1170 1.372 . S
C1171 C1172 1.400 . S
C1171 C1176 1.490 . S
C1172 H1162 0.930 . S
C1172 C1171 1.400 . S
C1172 C1175 1.386 . S
H1173 C1189 0.930 . S
H1174 C1190 0.931 . S
C1175 H1163 0.929 . S
C1175 C1169 1.390 . S
C1175 C1172 1.386 . S
C1176 C1171 1.490 . S
C1176 C1178 1.395 . S
C1176 C1179 1.403 . S
H1177 C1183 0.930 . S
C1178 H1164 0.930 . S
C1178 C1176 1.395 . S
C1178 C1181 1.403 . S
C1179 C1176 1.403 . S
C1179 C1180 1.524 . S
C1179 C1183 1.400 . S
C1180 H1165 0.960 . S
C1180 H1166 0.960 . S
C1180 H1167 0.960 . S
C1180 C1179 1.524 . S
C1181 C1178 1.403 . S
C1181 C1182 1.392 . S
C1181 C1185 1.495 . S
C1182 C1181 1.392 . S
C1182 C1183 1.385 . S
C1182 C1184 1.478 . S
C1183 H1177 0.930 . S
C1183 C1179 1.400 . S
C1183 C1182 1.385 . S
C1184 C1182 1.478 . S
C1184 C1186 1.381 . S
C1184 C1190 1.383 . S
C1185 C1181 1.495 . S
C1185 H1191 0.959 . S
C1185 H1192 0.961 . S
C1185 H1193 0.960 . S
C1186 C1184 1.381 . S
C1186 C1187 1.394 . S
C1186 H1194 0.930 . S
C1187 C1186 1.394 . S
C1187 C1188 1.383 . S
C1187 H1195 0.929 . S
C1188 C1187 1.383 . S
C1188 C1189 1.377 . S
C1189 H1173 0.930 . S
C1189 C1188 1.377 . S
C1189 C1190 1.379 . S
C1190 H1174 0.931 . S
C1190 C1184 1.383 . S
C1190 C1189 1.379 . S
H1191 C1185 0.959 . S
H1192 C1185 0.961 . S
H1193 C1185 0.960 . S
H1194 C1186 0.930 . S
H1195 C1187 0.929 . S
H1196 C1204 0.929 . S
H1197 C1206 0.930 . S
H1198 C1208 0.930 . S
H1199 C1211 0.929 . S
H1200 C1214 0.930 . S
H1201 C1216 0.960 . S
H1202 C1216 0.960 . S
H1203 C1216 0.960 . S
C1204 H1196 0.929 . S
C1204 C1205 1.377 . S
C1204 C1206 1.384 . S
C1205 C1204 1.377 . S
C1205 C1211 1.390 . S
C1206 H1197 0.930 . S
C1206 C1204 1.384 . S
C1206 C1207 1.372 . S
C1207 C1206 1.372 . S
C1207 C1208 1.400 . S
C1207 C1212 1.490 . S
C1208 H1198 0.930 . S
C1208 C1207 1.400 . S
C1208 C1211 1.386 . S
H1209 C1225 0.930 . S
H1210 C1226 0.931 . S
C1211 H1199 0.929 . S
C1211 C1205 1.390 . S
C1211 C1208 1.386 . S
C1212 C1207 1.490 . S
C1212 C1214 1.395 . S
C1212 C1215 1.403 . S
H1213 C1219 0.930 . S
C1214 H1200 0.930 . S
C1214 C1212 1.395 . S
C1214 C1217 1.403 . S
C1215 C1212 1.403 . S
C1215 C1216 1.524 . S
C1215 C1219 1.400 . S
C1216 H1201 0.960 . S
C1216 H1202 0.960 . S
C1216 H1203 0.960 . S
C1216 C1215 1.524 . S
C1217 C1214 1.403 . S
C1217 C1218 1.392 . S
C1217 C1221 1.495 . S
C1218 C1217 1.392 . S
C1218 C1219 1.385 . S
C1218 C1220 1.478 . S
C1219 H1213 0.930 . S
C1219 C1215 1.400 . S
C1219 C1218 1.385 . S
C1220 C1218 1.478 . S
C1220 C1222 1.381 . S
C1220 C1226 1.383 . S
C1221 C1217 1.495 . S
C1221 H1227 0.959 . S
C1221 H1228 0.961 . S
C1221 H1229 0.960 . S
C1222 C1220 1.381 . S
C1222 C1223 1.394 . S
C1222 H1230 0.930 . S
C1223 C1222 1.394 . S
C1223 C1224 1.383 . S
C1223 H1231 0.929 . S
C1224 C1223 1.383 . S
C1224 C1225 1.377 . S
C1225 H1209 0.930 . S
C1225 C1224 1.377 . S
C1225 C1226 1.379 . S
C1226 H1210 0.931 . S
C1226 C1220 1.383 . S
C1226 C1225 1.379 . S
H1227 C1221 0.959 . S
H1228 C1221 0.961 . S
H1229 C1221 0.960 . S
H1230 C1222 0.930 . S
H1231 C1223 0.929 . S
H1232 C1240 0.929 . S
H1233 C1242 0.930 . S
H1234 C1244 0.930 . S
H1235 C1247 0.929 . S
H1236 C1250 0.930 . S
H1237 C1252 0.960 . S
H1238 C1252 0.960 . S
H1239 C1252 0.960 . S
C1240 H1232 0.929 . S
C1240 C1241 1.377 . S
C1240 C1242 1.384 . S
C1241 C1240 1.377 . S
C1241 C1247 1.390 . S
C1242 H1233 0.930 . S
C1242 C1240 1.384 . S
C1242 C1243 1.372 . S
C1243 C1242 1.372 . S
C1243 C1244 1.400 . S
C1243 C1248 1.490 . S
C1244 H1234 0.930 . S
C1244 C1243 1.400 . S
C1244 C1247 1.386 . S
H1245 C1261 0.930 . S
H1246 C1262 0.931 . S
C1247 H1235 0.929 . S
C1247 C1241 1.390 . S
C1247 C1244 1.386 . S
C1248 C1243 1.490 . S
C1248 C1250 1.395 . S
C1248 C1251 1.403 . S
H1249 C1255 0.930 . S
C1250 H1236 0.930 . S
C1250 C1248 1.395 . S
C1250 C1253 1.403 . S
C1251 C1248 1.403 . S
C1251 C1252 1.524 . S
C1251 C1255 1.400 . S
C1252 H1237 0.960 . S
C1252 H1238 0.960 . S
C1252 H1239 0.960 . S
C1252 C1251 1.524 . S
C1253 C1250 1.403 . S
C1253 C1254 1.392 . S
C1253 C1257 1.495 1_655 S
C1254 C1253 1.392 . S
C1254 C1255 1.385 . S
C1254 C1256 1.478 . S
C1255 H1249 0.930 . S
C1255 C1251 1.400 . S
C1255 C1254 1.385 . S
C1256 C1254 1.478 . S
C1256 C1258 1.381 1_655 S
C1256 C1262 1.383 . S
C1257 C1253 1.495 1_455 S
C1257 H1263 0.959 . S
C1257 H1264 0.961 . S
C1257 H1265 0.960 . S
C1258 C1256 1.381 1_455 S
C1258 C1259 1.394 . S
C1258 H1266 0.930 . S
C1259 C1258 1.394 . S
C1259 C1260 1.383 . S
C1259 H1267 0.929 . S
C1260 C1259 1.383 . S
C1260 C1261 1.377 . S
C1261 H1245 0.930 . S
C1261 C1260 1.377 . S
C1261 C1262 1.379 1_455 S
C1262 H1246 0.931 . S
C1262 C1256 1.383 . S
C1262 C1261 1.379 1_655 S
H1263 C1257 0.959 . S
H1264 C1257 0.961 . S
H1265 C1257 0.960 . S
H1266 C1258 0.930 . S
H1267 C1259 0.929 . S
H1268 C1276 0.929 . S
H1269 C1278 0.930 . S
H1270 C1280 0.930 . S
H1271 C1283 0.929 . S
H1272 C1286 0.930 . S
H1273 C1288 0.960 . S
H1274 C1288 0.960 . S
H1275 C1288 0.960 . S
C1276 H1268 0.929 . S
C1276 C1277 1.377 1_565 S
C1276 C1278 1.384 . S
C1277 C1276 1.377 1_545 S
C1277 C1283 1.390 . S
C1278 H1269 0.930 . S
C1278 C1276 1.384 . S
C1278 C1279 1.372 . S
C1279 C1278 1.372 . S
C1279 C1280 1.400 1_565 S
C1279 C1284 1.490 . S
C1280 H1270 0.930 . S
C1280 C1279 1.400 1_545 S
C1280 C1283 1.386 . S
H1281 C1297 0.930 . S
H1282 C1298 0.931 . S
C1283 H1271 0.929 . S
C1283 C1277 1.390 . S
C1283 C1280 1.386 . S
C1284 C1279 1.490 . S
C1284 C1286 1.395 . S
C1284 C1287 1.403 . S
H1285 C1291 0.930 . S
C1286 H1272 0.930 . S
C1286 C1284 1.395 . S
C1286 C1289 1.403 . S
C1287 C1284 1.403 . S
C1287 C1288 1.524 1_565 S
C1287 C1291 1.400 . S
C1288 H1273 0.960 . S
C1288 H1274 0.960 . S
C1288 H1275 0.960 . S
C1288 C1287 1.524 1_545 S
C1289 C1286 1.403 . S
C1289 C1290 1.392 . S
C1289 C1293 1.495 1_655 S
C1290 C1289 1.392 . S
C1290 C1291 1.385 . S
C1290 C1292 1.478 . S
C1291 H1285 0.930 . S
C1291 C1287 1.400 . S
C1291 C1290 1.385 . S
C1292 C1290 1.478 . S
C1292 C1294 1.381 . S
C1292 C1298 1.383 1_655 S
C1293 C1289 1.495 1_455 S
C1293 H1299 0.959 . S
C1293 H1300 0.961 . S
C1293 H1301 0.960 1_455 S
C1294 C1292 1.381 . S
C1294 C1295 1.394 . S
C1294 H1302 0.930 . S
C1295 C1294 1.394 . S
C1295 C1296 1.383 1_655 S
C1295 H1303 0.929 . S
C1296 C1295 1.383 1_455 S
C1296 C1297 1.377 . S
C1297 H1281 0.930 . S
C1297 C1296 1.377 . S
C1297 C1298 1.379 . S
C1298 H1282 0.931 . S
C1298 C1292 1.383 1_455 S
C1298 C1297 1.379 . S
H1299 C1293 0.959 . S
H1300 C1293 0.961 . S
H1301 C1293 0.960 1_655 S
H1302 C1294 0.930 . S
H1303 C1295 0.929 . S
H1304 C1312 0.929 . S
H1305 C1314 0.930 . S
H1306 C1316 0.930 . S
H1307 C1319 0.929 . S
H1308 C1322 0.930 1_545 S
H1309 C1324 0.960 . S
H1310 C1324 0.960 . S
H1311 C1324 0.960 . S
C1312 H1304 0.929 . S
C1312 C1313 1.377 . S
C1312 C1314 1.384 . S
C1313 C1312 1.377 . S
C1313 C1319 1.390 1_545 S
C1314 H1305 0.930 . S
C1314 C1312 1.384 . S
C1314 C1315 1.372 1_545 S
C1315 C1314 1.372 1_565 S
C1315 C1316 1.400 . S
C1315 C1320 1.490 . S
C1316 H1306 0.930 . S
C1316 C1315 1.400 . S
C1316 C1319 1.386 . S
H1317 C1333 0.930 . S
H1318 C1334 0.931 . S
C1319 H1307 0.929 . S
C1319 C1313 1.390 1_565 S
C1319 C1316 1.386 . S
C1320 C1315 1.490 . S
C1320 C1322 1.395 . S
C1320 C1323 1.403 . S
H1321 C1327 0.930 . S
C1322 H1308 0.930 1_565 S
C1322 C1320 1.395 . S
C1322 C1325 1.403 . S
C1323 C1320 1.403 . S
C1323 C1324 1.524 . S
C1323 C1327 1.400 . S
C1324 H1309 0.960 . S
C1324 H1310 0.960 . S
C1324 H1311 0.960 . S
C1324 C1323 1.524 . S
C1325 C1322 1.403 . S
C1325 C1326 1.392 . S
C1325 C1329 1.495 1_565 S
C1326 C1325 1.392 . S
C1326 C1327 1.385 . S
C1326 C1328 1.478 . S
C1327 H1321 0.930 . S
C1327 C1323 1.400 . S
C1327 C1326 1.385 . S
C1328 C1326 1.478 . S
C1328 C1330 1.381 . S
C1328 C1334 1.383 . S
C1329 C1325 1.495 1_545 S
C1329 H1335 0.959 . S
C1329 H1336 0.961 1_545 S
C1329 H1337 0.960 . S
C1330 C1328 1.381 . S
C1330 C1331 1.394 . S
C1330 H1338 0.930 . S
C1331 C1330 1.394 . S
C1331 C1332 1.383 . S
C1331 H1339 0.929 . S
C1332 C1331 1.383 . S
C1332 C1333 1.377 . S
C1333 H1317 0.930 . S
C1333 C1332 1.377 . S
C1333 C1334 1.379 . S
C1334 H1318 0.931 . S
C1334 C1328 1.383 . S
C1334 C1333 1.379 . S
H1335 C1329 0.959 . S
H1336 C1329 0.961 1_565 S
H1337 C1329 0.960 . S
H1338 C1330 0.930 . S
H1339 C1331 0.929 . S
H1340 C1348 0.929 . S
H1341 C1350 0.930 . S
H1342 C1352 0.930 . S
H1343 C1355 0.929 . S
H1344 C1358 0.930 . S
H1345 C1360 0.960 . S
H1346 C1360 0.960 . S
H1347 C1360 0.960 . S
C1348 H1340 0.929 . S
C1348 C1349 1.377 . S
C1348 C1350 1.384 . S
C1349 C1348 1.377 . S
C1349 C1355 1.390 . S
C1350 H1341 0.930 . S
C1350 C1348 1.384 . S
C1350 C1351 1.372 . S
C1351 C1350 1.372 . S
C1351 C1352 1.400 . S
C1351 C1356 1.490 . S
C1352 H1342 0.930 . S
C1352 C1351 1.400 . S
C1352 C1355 1.386 . S
H1353 C1369 0.930 . S
H1354 C1370 0.931 . S
C1355 H1343 0.929 . S
C1355 C1349 1.390 . S
C1355 C1352 1.386 . S
C1356 C1351 1.490 . S
C1356 C1358 1.395 . S
C1356 C1359 1.403 . S
H1357 C1363 0.930 . S
C1358 H1344 0.930 . S
C1358 C1356 1.395 . S
C1358 C1361 1.403 . S
C1359 C1356 1.403 . S
C1359 C1360 1.524 . S
C1359 C1363 1.400 . S
C1360 H1345 0.960 . S
C1360 H1346 0.960 . S
C1360 H1347 0.960 . S
C1360 C1359 1.524 . S
C1361 C1358 1.403 . S
C1361 C1362 1.392 . S
C1361 C1365 1.495 . S
C1362 C1361 1.392 . S
C1362 C1363 1.385 . S
C1362 C1364 1.478 . S
C1363 H1357 0.930 . S
C1363 C1359 1.400 . S
C1363 C1362 1.385 . S
C1364 C1362 1.478 . S
C1364 C1366 1.381 . S
C1364 C1370 1.383 . S
C1365 C1361 1.495 . S
C1365 H1371 0.959 . S
C1365 H1372 0.961 . S
C1365 H1373 0.960 . S
C1366 C1364 1.381 . S
C1366 C1367 1.394 . S
C1366 H1374 0.930 . S
C1367 C1366 1.394 . S
C1367 C1368 1.383 . S
C1367 H1375 0.929 . S
C1368 C1367 1.383 . S
C1368 C1369 1.377 . S
C1369 H1353 0.930 . S
C1369 C1368 1.377 . S
C1369 C1370 1.379 . S
C1370 H1354 0.931 . S
C1370 C1364 1.383 . S
C1370 C1369 1.379 . S
H1371 C1365 0.959 . S
H1372 C1365 0.961 . S
H1373 C1365 0.960 . S
H1374 C1366 0.930 . S
H1375 C1367 0.929 . S
H1376 C1384 0.929 . S
H1377 C1386 0.930 . S
H1378 C1388 0.930 . S
H1379 C1391 0.929 . S
H1380 C1394 0.930 . S
H1381 C1396 0.960 1_655 S
H1382 C1396 0.960 1_655 S
H1383 C1396 0.960 . S
C1384 H1376 0.929 . S
C1384 C1385 1.377 . S
C1384 C1386 1.384 . S
C1385 C1384 1.377 . S
C1385 C1391 1.390 . S
C1386 H1377 0.930 . S
C1386 C1384 1.384 . S
C1386 C1387 1.372 . S
C1387 C1386 1.372 . S
C1387 C1388 1.400 . S
C1387 C1392 1.490 . S
C1388 H1378 0.930 . S
C1388 C1387 1.400 . S
C1388 C1391 1.386 . S
H1389 C1405 0.930 . S
H1390 C1406 0.931 . S
C1391 H1379 0.929 . S
C1391 C1385 1.390 . S
C1391 C1388 1.386 . S
C1392 C1387 1.490 . S
C1392 C1394 1.395 . S
C1392 C1395 1.403 . S
H1393 C1399 0.930 1_655 S
C1394 H1380 0.930 . S
C1394 C1392 1.395 . S
C1394 C1397 1.403 . S
C1395 C1392 1.403 . S
C1395 C1396 1.524 . S
C1395 C1399 1.400 . S
C1396 H1381 0.960 1_455 S
C1396 H1382 0.960 1_455 S
C1396 H1383 0.960 . S
C1396 C1395 1.524 . S
C1397 C1394 1.403 . S
C1397 C1398 1.392 . S
C1397 C1401 1.495 . S
C1398 C1397 1.392 . S
C1398 C1399 1.385 . S
C1398 C1400 1.478 . S
C1399 H1393 0.930 1_455 S
C1399 C1395 1.400 . S
C1399 C1398 1.385 . S
C1400 C1398 1.478 . S
C1400 C1402 1.381 . S
C1400 C1406 1.383 . S
C1401 C1397 1.495 . S
C1401 H1407 0.959 . S
C1401 H1408 0.961 . S
C1401 H1409 0.960 . S
C1402 C1400 1.381 . S
C1402 C1403 1.394 1_455 S
C1402 H1410 0.930 . S
C1403 C1402 1.394 1_655 S
C1403 C1404 1.383 . S
C1403 H1411 0.929 . S
C1404 C1403 1.383 . S
C1404 C1405 1.377 . S
C1405 H1389 0.930 . S
C1405 C1404 1.377 . S
C1405 C1406 1.379 1_655 S
C1406 H1390 0.931 . S
C1406 C1400 1.383 . S
C1406 C1405 1.379 1_455 S
H1407 C1401 0.959 . S
H1408 C1401 0.961 . S
H1409 C1401 0.960 . S
H1410 C1402 0.930 . S
H1411 C1403 0.929 . S
H1412 C1420 0.929 . S
H1413 C1422 0.930 . S
H1414 C1424 0.930 . S
H1415 C1427 0.932 . S
H1416 C1430 0.930 1_565 S
H1417 C1432 0.960 . S
H1418 C1432 0.960 . S
H1419 C1432 0.960 . S
C1420 H1412 0.929 . S
C1420 C1421 1.377 . S
C1420 C1422 1.384 . S
C1421 C1420 1.377 . S
C1421 C1427 1.379 1_565 S
C1422 H1413 0.930 . S
C1422 C1420 1.384 . S
C1422 C1423 1.372 1_565 S
C1423 C1422 1.372 1_545 S
C1423 C1424 1.400 . S
C1423 C1428 1.490 . S
C1424 H1414 0.930 . S
C1424 C1423 1.400 . S
C1424 C1427 1.394 . S
H1425 C1441 0.930 . S
H1426 C1442 0.931 . S
C1427 H1415 0.932 . S
C1427 C1421 1.379 1_545 S
C1427 C1424 1.394 . S
C1428 C1423 1.490 . S
C1428 C1430 1.395 . S
C1428 C1431 1.403 . S
H1429 C1435 0.930 . S
C1430 H1416 0.930 1_545 S
C1430 C1428 1.395 . S
C1430 C1433 1.403 . S
C1431 C1428 1.403 . S
C1431 C1432 1.524 . S
C1431 C1435 1.400 . S
C1432 H1417 0.960 . S
C1432 H1418 0.960 . S
C1432 H1419 0.960 . S
C1432 C1431 1.524 . S
C1433 C1430 1.403 . S
C1433 C1434 1.392 . S
C1433 C1437 1.495 1_545 S
C1434 C1433 1.392 . S
C1434 C1435 1.385 . S
C1434 C1436 1.478 . S
C1435 H1429 0.930 . S
C1435 C1431 1.400 . S
C1435 C1434 1.385 . S
C1436 C1434 1.478 . S
C1436 C1438 1.381 . S
C1436 C1442 1.383 1_455 S
C1437 C1433 1.495 1_565 S
C1437 H1443 0.959 . S
C1437 H1444 0.961 1_455 S
C1437 H1445 0.960 . S
C1438 C1436 1.381 . S
C1438 C1439 1.394 . S
C1438 H1446 0.930 . S
C1439 C1438 1.394 . S
C1439 C1440 1.383 1_455 S
C1439 H1447 0.929 . S
C1440 C1439 1.383 1_655 S
C1440 C1441 1.377 . S
C1441 H1425 0.930 . S
C1441 C1440 1.377 . S
C1441 C1442 1.379 . S
C1442 H1426 0.931 . S
C1442 C1436 1.383 1_655 S
C1442 C1441 1.379 . S
H1443 C1437 0.959 . S
H1444 C1437 0.961 1_655 S
H1445 C1437 0.960 . S
H1446 C1438 0.930 . S
H1447 C1439 0.929 . S
H1448 C1456 0.929 . S
H1449 C1458 0.930 . S
H1450 C1460 0.930 . S
H1451 C1463 0.929 . S
H1452 C1466 0.930 . S
H1453 C1468 0.960 . S
H1454 C1468 0.960 . S
H1455 C1468 0.960 . S
C1456 H1448 0.929 . S
C1456 C1457 1.377 . S
C1456 C1458 1.384 . S
C1457 C1456 1.377 . S
C1457 C1463 1.390 . S
C1458 H1449 0.930 . S
C1458 C1456 1.384 . S
C1458 C1459 1.372 . S
C1459 C1458 1.372 . S
C1459 C1460 1.400 . S
C1459 C1464 1.490 . S
C1460 H1450 0.930 . S
C1460 C1459 1.400 . S
C1460 C1463 1.386 . S
H1461 C1477 0.930 . S
H1462 C1478 0.931 . S
C1463 H1451 0.929 . S
C1463 C1457 1.390 . S
C1463 C1460 1.386 . S
C1464 C1459 1.490 . S
C1464 C1466 1.395 . S
C1464 C1467 1.403 . S
H1465 C1471 0.930 . S
C1466 H1452 0.930 . S
C1466 C1464 1.395 . S
C1466 C1469 1.403 . S
C1467 C1464 1.403 . S
C1467 C1468 1.524 . S
C1467 C1471 1.400 . S
C1468 H1453 0.960 . S
C1468 H1454 0.960 . S
C1468 H1455 0.960 . S
C1468 C1467 1.524 . S
C1469 C1466 1.403 . S
C1469 C1470 1.392 . S
C1469 C1473 1.495 1_545 S
C1470 C1469 1.392 . S
C1470 C1471 1.385 . S
C1470 C1472 1.478 . S
C1471 H1465 0.930 . S
C1471 C1467 1.400 . S
C1471 C1470 1.385 . S
C1472 C1470 1.478 . S
C1472 C1474 1.381 1_545 S
C1472 C1478 1.383 . S
C1473 C1469 1.495 1_565 S
C1473 H1479 0.959 . S
C1473 H1480 0.961 . S
C1473 H1481 0.960 . S
C1474 C1472 1.381 1_565 S
C1474 C1475 1.394 . S
C1474 H1482 0.930 . S
C1475 C1474 1.394 . S
C1475 C1476 1.383 . S
C1475 H1483 0.929 . S
C1476 C1475 1.383 . S
C1476 C1477 1.377 . S
C1477 H1461 0.930 . S
C1477 C1476 1.377 . S
C1477 C1478 1.379 1_565 S
C1478 H1462 0.931 . S
C1478 C1472 1.383 . S
C1478 C1477 1.379 1_545 S
H1479 C1473 0.959 . S
H1480 C1473 0.961 . S
H1481 C1473 0.960 . S
H1482 C1474 0.930 . S
H1483 C1475 0.929 . S
H1484 C1492 0.929 . S
H1485 C1494 0.930 . S
H1486 C1496 0.930 . S
H1487 C1499 0.929 . S
H1488 C1502 0.930 . S
H1489 C1504 0.960 . S
H1490 C1504 0.960 . S
H1491 C1504 0.960 . S
C1492 H1484 0.929 . S
C1492 C1493 1.377 . S
C1492 C1494 1.384 . S
C1493 C1492 1.377 . S
C1493 C1499 1.390 . S
C1494 H1485 0.930 . S
C1494 C1492 1.384 . S
C1494 C1495 1.372 . S
C1495 C1494 1.372 . S
C1495 C1496 1.400 . S
C1495 C1500 1.490 . S
C1496 H1486 0.930 . S
C1496 C1495 1.400 . S
C1496 C1499 1.386 . S
H1497 C1513 0.930 . S
H1498 C1514 0.931 . S
C1499 H1487 0.929 . S
C1499 C1493 1.390 . S
C1499 C1496 1.386 . S
C1500 C1495 1.490 . S
C1500 C1502 1.395 . S
C1500 C1503 1.403 . S
H1501 C1507 0.930 . S
C1502 H1488 0.930 . S
C1502 C1500 1.395 . S
C1502 C1505 1.403 . S
C1503 C1500 1.403 . S
C1503 C1504 1.524 . S
C1503 C1507 1.400 . S
C1504 H1489 0.960 . S
C1504 H1490 0.960 . S
C1504 H1491 0.960 . S
C1504 C1503 1.524 . S
C1505 C1502 1.403 . S
C1505 C1506 1.392 . S
C1505 C1509 1.495 . S
C1506 C1505 1.392 . S
C1506 C1507 1.385 . S
C1506 C1508 1.478 . S
C1507 H1501 0.930 . S
C1507 C1503 1.400 . S
C1507 C1506 1.385 . S
C1508 C1506 1.478 . S
C1508 C1510 1.381 . S
C1508 C1514 1.383 . S
C1509 C1505 1.495 . S
C1509 H1515 0.959 . S
C1509 H1516 0.961 . S
C1509 H1517 0.960 . S
C1510 C1508 1.381 . S
C1510 C1511 1.394 . S
C1510 H1518 0.930 . S
C1511 C1510 1.394 . S
C1511 C1512 1.383 . S
C1511 H1519 0.929 . S
C1512 C1511 1.383 . S
C1512 C1513 1.377 . S
C1513 H1497 0.930 . S
C1513 C1512 1.377 . S
C1513 C1514 1.379 . S
C1514 H1498 0.931 . S
C1514 C1508 1.383 . S
C1514 C1513 1.379 . S
H1515 C1509 0.959 . S
H1516 C1509 0.961 . S
H1517 C1509 0.960 . S
H1518 C1510 0.930 . S
H1519 C1511 0.929 . S
H1520 C1528 0.929 . S
H1521 C1530 0.930 . S
H1522 C1532 0.930 . S
H1523 C1535 0.929 . S
H1524 C1538 0.930 . S
H1525 C1540 0.960 . S
H1526 C1540 0.960 . S
H1527 C1540 0.960 . S
C1528 H1520 0.929 . S
C1528 C1529 1.377 . S
C1528 C1530 1.384 . S
C1529 C1528 1.377 . S
C1529 C1535 1.390 . S
C1530 H1521 0.930 . S
C1530 C1528 1.384 . S
C1530 C1531 1.372 . S
C1531 C1530 1.372 . S
C1531 C1532 1.400 . S
C1531 C1536 1.490 . S
C1532 H1522 0.930 . S
C1532 C1531 1.400 . S
C1532 C1535 1.386 . S
H1533 C1549 0.930 . S
H1534 C1550 0.931 . S
C1535 H1523 0.929 . S
C1535 C1529 1.390 . S
C1535 C1532 1.386 . S
C1536 C1531 1.490 . S
C1536 C1538 1.395 . S
C1536 C1539 1.403 . S
H1537 C1543 0.930 . S
C1538 H1524 0.930 . S
C1538 C1536 1.395 . S
C1538 C1541 1.403 . S
C1539 C1536 1.403 . S
C1539 C1540 1.524 . S
C1539 C1543 1.400 . S
C1540 H1525 0.960 . S
C1540 H1526 0.960 . S
C1540 H1527 0.960 . S
C1540 C1539 1.524 . S
C1541 C1538 1.403 . S
C1541 C1542 1.392 . S
C1541 C1545 1.495 . S
C1542 C1541 1.392 . S
C1542 C1543 1.385 . S
C1542 C1544 1.478 . S
C1543 H1537 0.930 . S
C1543 C1539 1.400 . S
C1543 C1542 1.385 . S
C1544 C1542 1.478 . S
C1544 C1546 1.381 . S
C1544 C1550 1.383 . S
C1545 C1541 1.495 . S
C1545 H1551 0.959 . S
C1545 H1552 0.961 . S
C1545 H1553 0.960 . S
C1546 C1544 1.381 . S
C1546 C1547 1.394 . S
C1546 H1554 0.930 . S
C1547 C1546 1.394 . S
C1547 C1548 1.383 . S
C1547 H1555 0.929 . S
C1548 C1547 1.383 . S
C1548 C1549 1.377 . S
C1549 H1533 0.930 . S
C1549 C1548 1.377 . S
C1549 C1550 1.379 . S
C1550 H1534 0.931 . S
C1550 C1544 1.383 . S
C1550 C1549 1.379 . S
H1551 C1545 0.959 . S
H1552 C1545 0.961 . S
H1553 C1545 0.960 . S
H1554 C1546 0.930 . S
H1555 C1547 0.929 . S
H1556 C1564 0.929 . S
H1557 C1566 0.930 . S
H1558 C1568 0.930 . S
H1559 C1571 0.929 . S
H1560 C1574 0.930 . S
H1561 C1576 0.960 . S
H1562 C1576 0.960 . S
H1563 C1576 0.960 . S
C1564 H1556 0.929 . S
C1564 C1565 1.377 . S
C1564 C1566 1.384 . S
C1565 C1564 1.377 . S
C1565 C1571 1.390 . S
C1566 H1557 0.930 . S
C1566 C1564 1.384 . S
C1566 C1567 1.372 . S
C1567 C1566 1.372 . S
C1567 C1568 1.400 . S
C1567 C1572 1.490 . S
C1568 H1558 0.930 . S
C1568 C1567 1.400 . S
C1568 C1571 1.386 . S
H1569 C1585 0.930 . S
H1570 C1586 0.931 . S
C1571 H1559 0.929 . S
C1571 C1565 1.390 . S
C1571 C1568 1.386 . S
C1572 C1567 1.490 . S
C1572 C1574 1.395 . S
C1572 C1575 1.403 . S
H1573 C1579 0.930 . S
C1574 H1560 0.930 . S
C1574 C1572 1.395 . S
C1574 C1577 1.403 . S
C1575 C1572 1.403 . S
C1575 C1576 1.524 . S
C1575 C1579 1.400 . S
C1576 H1561 0.960 . S
C1576 H1562 0.960 . S
C1576 H1563 0.960 . S
C1576 C1575 1.524 . S
C1577 C1574 1.403 . S
C1577 C1578 1.392 . S
C1577 C1581 1.495 . S
C1578 C1577 1.392 . S
C1578 C1579 1.385 . S
C1578 C1580 1.478 . S
C1579 H1573 0.930 . S
C1579 C1575 1.400 . S
C1579 C1578 1.385 . S
C1580 C1578 1.478 . S
C1580 C1582 1.381 . S
C1580 C1586 1.383 . S
C1581 C1577 1.495 . S
C1581 H1587 0.959 . S
C1581 H1588 0.961 . S
C1581 H1589 0.960 . S
C1582 C1580 1.381 . S
C1582 C1583 1.394 . S
C1582 H1590 0.930 . S
C1583 C1582 1.394 . S
C1583 C1584 1.383 . S
C1583 H1591 0.929 . S
C1584 C1583 1.383 . S
C1584 C1585 1.377 . S
C1585 H1569 0.930 . S
C1585 C1584 1.377 . S
C1585 C1586 1.379 . S
C1586 H1570 0.931 . S
C1586 C1580 1.383 . S
C1586 C1585 1.379 . S
H1587 C1581 0.959 . S
H1588 C1581 0.961 . S
H1589 C1581 0.960 . S
H1590 C1582 0.930 . S
H1591 C1583 0.929 . S
H1592 C1600 0.929 . S
H1593 C1602 0.930 . S
H1594 C1604 0.930 . S
H1595 C1607 0.929 . S
H1596 C1610 0.930 . S
H1597 C1612 0.960 . S
H1598 C1612 0.960 . S
H1599 C1612 0.960 . S
C1600 H1592 0.929 . S
C1600 C1601 1.377 . S
C1600 C1602 1.384 . S
C1601 C1600 1.377 . S
C1601 C1607 1.390 . S
C1602 H1593 0.930 . S
C1602 C1600 1.384 . S
C1602 C1603 1.372 . S
C1603 C1602 1.372 . S
C1603 C1604 1.400 . S
C1603 C1608 1.490 . S
C1604 H1594 0.930 . S
C1604 C1603 1.400 . S
C1604 C1607 1.386 . S
H1605 C1621 0.930 . S
H1606 C1622 0.931 . S
C1607 H1595 0.929 . S
C1607 C1601 1.390 . S
C1607 C1604 1.386 . S
C1608 C1603 1.490 . S
C1608 C1610 1.395 . S
C1608 C1611 1.403 . S
H1609 C1615 0.930 . S
C1610 H1596 0.930 . S
C1610 C1608 1.395 . S
C1610 C1613 1.403 . S
C1611 C1608 1.403 . S
C1611 C1612 1.524 . S
C1611 C1615 1.400 . S
C1612 H1597 0.960 . S
C1612 H1598 0.960 . S
C1612 H1599 0.960 . S
C1612 C1611 1.524 . S
C1613 C1610 1.403 . S
C1613 C1614 1.392 . S
C1613 C1617 1.495 . S
C1614 C1613 1.392 . S
C1614 C1615 1.385 . S
C1614 C1616 1.478 . S
C1615 H1609 0.930 . S
C1615 C1611 1.400 . S
C1615 C1614 1.385 . S
C1616 C1614 1.478 . S
C1616 C1618 1.381 . S
C1616 C1622 1.383 . S
C1617 C1613 1.495 . S
C1617 H1623 0.959 . S
C1617 H1624 0.961 . S
C1617 H1625 0.960 . S
C1618 C1616 1.381 . S
C1618 C1619 1.394 . S
C1618 H1626 0.930 . S
C1619 C1618 1.394 . S
C1619 C1620 1.383 . S
C1619 H1627 0.929 . S
C1620 C1619 1.383 . S
C1620 C1621 1.377 . S
C1621 H1605 0.930 . S
C1621 C1620 1.377 . S
C1621 C1622 1.379 . S
C1622 H1606 0.931 . S
C1622 C1616 1.383 . S
C1622 C1621 1.379 . S
H1623 C1617 0.959 . S
H1624 C1617 0.961 . S
H1625 C1617 0.960 . S
H1626 C1618 0.930 . S
H1627 C1619 0.929 . S
H1628 C1636 0.929 . S
H1629 C1638 0.930 . S
H1630 C1640 0.930 . S
H1631 C1643 0.929 . S
H1632 C1646 0.930 . S
H1633 C1648 0.960 . S
H1634 C1648 0.960 . S
H1635 C1648 0.960 . S
C1636 H1628 0.929 . S
C1636 C1637 1.377 . S
C1636 C1638 1.384 . S
C1637 C1636 1.377 . S
C1637 C1643 1.390 . S
C1638 H1629 0.930 . S
C1638 C1636 1.384 . S
C1638 C1639 1.372 . S
C1639 C1638 1.372 . S
C1639 C1640 1.400 . S
C1639 C1644 1.490 . S
C1640 H1630 0.930 . S
C1640 C1639 1.400 . S
C1640 C1643 1.386 . S
H1641 C1657 0.930 . S
H1642 C1658 0.931 . S
C1643 H1631 0.929 . S
C1643 C1637 1.390 . S
C1643 C1640 1.386 . S
C1644 C1639 1.490 . S
C1644 C1646 1.395 . S
C1644 C1647 1.403 . S
H1645 C1651 0.930 . S
C1646 H1632 0.930 . S
C1646 C1644 1.395 . S
C1646 C1649 1.403 . S
C1647 C1644 1.403 . S
C1647 C1648 1.524 . S
C1647 C1651 1.400 . S
C1648 H1633 0.960 . S
C1648 H1634 0.960 . S
C1648 H1635 0.960 . S
C1648 C1647 1.524 . S
C1649 C1646 1.403 . S
C1649 C1650 1.392 . S
C1649 C1653 1.495 . S
C1650 C1649 1.392 . S
C1650 C1651 1.385 . S
C1650 C1652 1.478 . S
C1651 H1645 0.930 . S
C1651 C1647 1.400 . S
C1651 C1650 1.385 . S
C1652 C1650 1.478 . S
C1652 C1654 1.381 . S
C1652 C1658 1.383 . S
C1653 C1649 1.495 . S
C1653 H1659 0.959 . S
C1653 H1660 0.961 . S
C1653 H1661 0.960 . S
C1654 C1652 1.381 . S
C1654 C1655 1.394 . S
C1654 H1662 0.930 . S
C1655 C1654 1.394 . S
C1655 C1656 1.383 . S
C1655 H1663 0.929 . S
C1656 C1655 1.383 . S
C1656 C1657 1.377 . S
C1657 H1641 0.930 . S
C1657 C1656 1.377 . S
C1657 C1658 1.379 . S
C1658 H1642 0.931 . S
C1658 C1652 1.383 . S
C1658 C1657 1.379 . S
H1659 C1653 0.959 . S
H1660 C1653 0.961 . S
H1661 C1653 0.960 . S
H1662 C1654 0.930 . S
H1663 C1655 0.929 . S
H1664 C1672 0.929 . S
H1665 C1674 0.930 . S
H1666 C1676 0.930 . S
H1667 C1679 0.929 . S
H1668 C1682 0.930 . S
H1669 C1684 0.960 . S
H1670 C1684 0.960 . S
H1671 C1684 0.960 . S
C1672 H1664 0.929 . S
C1672 C1673 1.377 . S
C1672 C1674 1.384 . S
C1673 C1672 1.377 . S
C1673 C1679 1.390 . S
C1674 H1665 0.930 . S
C1674 C1672 1.384 . S
C1674 C1675 1.372 . S
C1675 C1674 1.372 . S
C1675 C1676 1.400 . S
C1675 C1680 1.490 . S
C1676 H1666 0.930 . S
C1676 C1675 1.400 . S
C1676 C1679 1.386 . S
H1677 C1693 0.930 . S
H1678 C1694 0.931 . S
C1679 H1667 0.929 . S
C1679 C1673 1.390 . S
C1679 C1676 1.386 . S
C1680 C1675 1.490 . S
C1680 C1682 1.395 . S
C1680 C1683 1.403 . S
H1681 C1687 0.930 . S
C1682 H1668 0.930 . S
C1682 C1680 1.395 . S
C1682 C1685 1.403 . S
C1683 C1680 1.403 . S
C1683 C1684 1.524 . S
C1683 C1687 1.400 . S
C1684 H1669 0.960 . S
C1684 H1670 0.960 . S
C1684 H1671 0.960 . S
C1684 C1683 1.524 . S
C1685 C1682 1.403 . S
C1685 C1686 1.392 . S
C1685 C1689 1.495 . S
C1686 C1685 1.392 . S
C1686 C1687 1.385 . S
C1686 C1688 1.478 . S
C1687 H1681 0.930 . S
C1687 C1683 1.400 . S
C1687 C1686 1.385 . S
C1688 C1686 1.478 . S
C1688 C1690 1.381 . S
C1688 C1694 1.383 . S
C1689 C1685 1.495 . S
C1689 H1695 0.959 . S
C1689 H1696 0.961 . S
C1689 H1697 0.960 . S
C1690 C1688 1.381 . S
C1690 C1691 1.394 . S
C1690 H1698 0.930 . S
C1691 C1690 1.394 . S
C1691 C1692 1.383 . S
C1691 H1699 0.929 . S
C1692 C1691 1.383 . S
C1692 C1693 1.377 . S
C1693 H1677 0.930 . S
C1693 C1692 1.377 . S
C1693 C1694 1.379 . S
C1694 H1678 0.931 . S
C1694 C1688 1.383 . S
C1694 C1693 1.379 . S
H1695 C1689 0.959 . S
H1696 C1689 0.961 . S
H1697 C1689 0.960 . S
H1698 C1690 0.930 . S
H1699 C1691 0.929 . S
H1700 C1708 0.929 . S
H1701 C1710 0.930 . S
H1702 C1712 0.930 . S
H1703 C1715 0.929 . S
H1704 C1718 0.930 . S
H1705 C1720 0.960 . S
H1706 C1720 0.960 . S
H1707 C1720 0.960 . S
C1708 H1700 0.929 . S
C1708 C1709 1.377 . S
C1708 C1710 1.384 . S
C1709 C1708 1.377 . S
C1709 C1715 1.390 . S
C1710 H1701 0.930 . S
C1710 C1708 1.384 . S
C1710 C1711 1.372 . S
C1711 C1710 1.372 . S
C1711 C1712 1.400 . S
C1711 C1716 1.490 . S
C1712 H1702 0.930 . S
C1712 C1711 1.400 . S
C1712 C1715 1.386 . S
H1713 C1729 0.930 . S
H1714 C1730 0.931 . S
C1715 H1703 0.929 . S
C1715 C1709 1.390 . S
C1715 C1712 1.386 . S
C1716 C1711 1.490 . S
C1716 C1718 1.395 . S
C1716 C1719 1.403 . S
H1717 C1723 0.930 . S
C1718 H1704 0.930 . S
C1718 C1716 1.395 . S
C1718 C1721 1.403 . S
C1719 C1716 1.403 . S
C1719 C1720 1.524 . S
C1719 C1723 1.400 . S
C1720 H1705 0.960 . S
C1720 H1706 0.960 . S
C1720 H1707 0.960 . S
C1720 C1719 1.524 . S
C1721 C1718 1.403 . S
C1721 C1722 1.392 . S
C1721 C1725 1.495 . S
C1722 C1721 1.392 . S
C1722 C1723 1.385 . S
C1722 C1724 1.478 . S
C1723 H1717 0.930 . S
C1723 C1719 1.400 . S
C1723 C1722 1.385 . S
C1724 C1722 1.478 . S
C1724 C1726 1.381 . S
C1724 C1730 1.383 . S
C1725 C1721 1.495 . S
C1725 H1731 0.959 . S
C1725 H1732 0.961 . S
C1725 H1733 0.960 . S
C1726 C1724 1.381 . S
C1726 C1727 1.394 . S
C1726 H1734 0.930 . S
C1727 C1726 1.394 . S
C1727 C1728 1.383 . S
C1727 H1735 0.929 . S
C1728 C1727 1.383 . S
C1728 C1729 1.377 . S
C1729 H1713 0.930 . S
C1729 C1728 1.377 . S
C1729 C1730 1.379 . S
C1730 H1714 0.931 . S
C1730 C1724 1.383 . S
C1730 C1729 1.379 . S
H1731 C1725 0.959 . S
H1732 C1725 0.961 . S
H1733 C1725 0.960 . S
H1734 C1726 0.930 . S
H1735 C1727 0.929 . S
H1736 C1744 0.929 . S
H1737 C1746 0.930 . S
H1738 C1748 0.930 . S
H1739 C1751 0.929 . S
H1740 C1754 0.930 . S
H1741 C1756 0.960 . S
H1742 C1756 0.960 . S
H1743 C1756 0.960 . S
C1744 H1736 0.929 . S
C1744 C1745 1.377 . S
C1744 C1746 1.384 . S
C1745 C1744 1.377 . S
C1745 C1751 1.390 . S
C1746 H1737 0.930 . S
C1746 C1744 1.384 . S
C1746 C1747 1.372 . S
C1747 C1746 1.372 . S
C1747 C1748 1.400 . S
C1747 C1752 1.490 . S
C1748 H1738 0.930 . S
C1748 C1747 1.400 . S
C1748 C1751 1.386 . S
H1749 C1765 0.930 . S
H1750 C1766 0.931 . S
C1751 H1739 0.929 . S
C1751 C1745 1.390 . S
C1751 C1748 1.386 . S
C1752 C1747 1.490 . S
C1752 C1754 1.395 . S
C1752 C1755 1.403 . S
H1753 C1759 0.930 . S
C1754 H1740 0.930 . S
C1754 C1752 1.395 . S
C1754 C1757 1.403 . S
C1755 C1752 1.403 . S
C1755 C1756 1.524 . S
C1755 C1759 1.400 . S
C1756 H1741 0.960 . S
C1756 H1742 0.960 . S
C1756 H1743 0.960 . S
C1756 C1755 1.524 . S
C1757 C1754 1.403 . S
C1757 C1758 1.392 . S
C1757 C1761 1.495 . S
C1758 C1757 1.392 . S
C1758 C1759 1.385 . S
C1758 C1760 1.478 . S
C1759 H1753 0.930 . S
C1759 C1755 1.400 . S
C1759 C1758 1.385 . S
C1760 C1758 1.478 . S
C1760 C1762 1.381 . S
C1760 C1766 1.383 . S
C1761 C1757 1.495 . S
C1761 H1767 0.959 . S
C1761 H1768 0.961 . S
C1761 H1769 0.960 . S
C1762 C1760 1.381 . S
C1762 C1763 1.394 . S
C1762 H1770 0.930 . S
C1763 C1762 1.394 . S
C1763 C1764 1.383 . S
C1763 H1771 0.929 . S
C1764 C1763 1.383 . S
C1764 C1765 1.377 . S
C1765 H1749 0.930 . S
C1765 C1764 1.377 . S
C1765 C1766 1.379 . S
C1766 H1750 0.931 . S
C1766 C1760 1.383 . S
C1766 C1765 1.379 . S
H1767 C1761 0.959 . S
H1768 C1761 0.961 . S
H1769 C1761 0.960 . S
H1770 C1762 0.930 . S
H1771 C1763 0.929 . S
H1772 C1780 0.929 . S
H1773 C1782 0.930 . S
H1774 C1784 0.930 . S
H1775 C1787 0.929 . S
H1776 C1790 0.930 . S
H1777 C1792 0.960 . S
H1778 C1792 0.960 . S
H1779 C1792 0.960 . S
C1780 H1772 0.929 . S
C1780 C1781 1.377 . S
C1780 C1782 1.384 . S
C1781 C1780 1.377 . S
C1781 C1787 1.390 . S
C1782 H1773 0.930 . S
C1782 C1780 1.384 . S
C1782 C1783 1.372 . S
C1783 C1782 1.372 . S
C1783 C1784 1.400 . S
C1783 C1788 1.490 . S
C1784 H1774 0.930 . S
C1784 C1783 1.400 . S
C1784 C1787 1.386 . S
H1785 C1801 0.930 . S
H1786 C1802 0.931 . S
C1787 H1775 0.929 . S
C1787 C1781 1.390 . S
C1787 C1784 1.386 . S
C1788 C1783 1.490 . S
C1788 C1790 1.395 . S
C1788 C1791 1.403 . S
H1789 C1795 0.930 . S
C1790 H1776 0.930 . S
C1790 C1788 1.395 . S
C1790 C1793 1.403 . S
C1791 C1788 1.403 . S
C1791 C1792 1.524 . S
C1791 C1795 1.400 . S
C1792 H1777 0.960 . S
C1792 H1778 0.960 . S
C1792 H1779 0.960 . S
C1792 C1791 1.524 . S
C1793 C1790 1.403 . S
C1793 C1794 1.392 . S
C1793 C1797 1.495 . S
C1794 C1793 1.392 . S
C1794 C1795 1.385 . S
C1794 C1796 1.478 . S
C1795 H1789 0.930 . S
C1795 C1791 1.400 . S
C1795 C1794 1.385 . S
C1796 C1794 1.478 . S
C1796 C1798 1.381 . S
C1796 C1802 1.383 . S
C1797 C1793 1.495 . S
C1797 H1803 0.959 . S
C1797 H1804 0.961 . S
C1797 H1805 0.960 . S
C1798 C1796 1.381 . S
C1798 C1799 1.394 . S
C1798 H1806 0.930 . S
C1799 C1798 1.394 . S
C1799 C1800 1.383 . S
C1799 H1807 0.929 . S
C1800 C1799 1.383 . S
C1800 C1801 1.377 . S
C1801 H1785 0.930 . S
C1801 C1800 1.377 . S
C1801 C1802 1.379 . S
C1802 H1786 0.931 . S
C1802 C1796 1.383 . S
C1802 C1801 1.379 . S
H1803 C1797 0.959 . S
H1804 C1797 0.961 . S
H1805 C1797 0.960 . S
H1806 C1798 0.930 . S
H1807 C1799 0.929 . S
H1808 C1816 0.929 1_655 S
H1809 C1818 0.930 . S
H1810 C1820 0.930 . S
H1811 C1823 0.929 . S
H1812 C1826 0.930 . S
H1813 C1828 0.960 . S
H1814 C1828 0.960 . S
H1815 C1828 0.960 . S
C1816 H1808 0.929 1_455 S
C1816 C1817 1.377 . S
C1816 C1818 1.384 1_455 S
C1817 C1816 1.377 . S
C1817 C1823 1.390 . S
C1818 H1809 0.930 . S
C1818 C1816 1.384 1_655 S
C1818 C1819 1.372 1_655 S
C1819 C1818 1.372 1_455 S
C1819 C1820 1.400 . S
C1819 C1824 1.490 . S
C1820 H1810 0.930 . S
C1820 C1819 1.400 . S
C1820 C1823 1.386 . S
H1821 C1837 0.930 1_455 S
H1822 C1838 0.931 . S
C1823 H1811 0.929 . S
C1823 C1817 1.390 . S
C1823 C1820 1.386 . S
C1824 C1819 1.490 . S
C1824 C1826 1.395 1_454 S
C1824 C1827 1.403 . S
H1825 C1831 0.932 . S
C1826 H1812 0.930 . S
C1826 C1824 1.395 1_656 S
C1826 C1829 1.403 . S
C1827 C1824 1.403 . S
C1827 C1828 1.524 . S
C1827 C1831 1.417 . S
C1828 H1813 0.960 . S
C1828 H1814 0.960 . S
C1828 H1815 0.960 . S
C1828 C1827 1.524 . S
C1829 C1826 1.403 . S
C1829 C1830 1.392 . S
C1829 C1833 1.495 . S
C1830 C1829 1.392 . S
C1830 C1831 1.367 1_656 S
C1830 C1832 1.478 . S
C1831 H1825 0.932 . S
C1831 C1827 1.417 . S
C1831 C1830 1.367 1_454 S
C1832 C1830 1.478 . S
C1832 C1834 1.381 . S
C1832 C1838 1.383 1_655 S
C1833 C1829 1.495 . S
C1833 H1839 0.959 . S
C1833 H1840 0.961 . S
C1833 H1841 0.960 . S
C1834 C1832 1.381 . S
C1834 C1835 1.394 . S
C1834 H1842 0.930 . S
C1835 C1834 1.394 . S
C1835 C1836 1.383 . S
C1835 H1843 0.929 . S
C1836 C1835 1.383 . S
C1836 C1837 1.377 . S
C1837 H1821 0.930 1_655 S
C1837 C1836 1.377 . S
C1837 C1838 1.379 1_655 S
C1838 H1822 0.931 . S
C1838 C1832 1.383 1_455 S
C1838 C1837 1.379 1_455 S
H1839 C1833 0.959 . S
H1840 C1833 0.961 . S
H1841 C1833 0.960 . S
H1842 C1834 0.930 . S
H1843 C1835 0.929 . S
H1844 C1852 0.902 1_545 S
H1845 C1854 0.930 . S
H1846 C1856 0.930 . S
H1847 C1859 0.929 . S
H1848 C1862 0.930 . S
H1849 C1864 0.960 . S
H1850 C1864 0.960 . S
H1851 C1864 0.960 . S
C1852 H1844 0.902 1_565 S
C1852 C1853 1.414 . S
C1852 C1854 1.374 1_565 S
C1853 C1852 1.414 . S
C1853 C1859 1.390 . S
C1854 H1845 0.930 . S
C1854 C1852 1.374 1_545 S
C1854 C1855 1.372 1_545 S
C1855 C1854 1.372 1_565 S
C1855 C1856 1.400 . S
C1855 C1860 1.490 . S
C1856 H1846 0.930 . S
C1856 C1855 1.400 . S
C1856 C1859 1.386 . S
H1857 C1873 0.930 1_565 S
H1858 C1874 0.931 . S
C1859 H1847 0.929 . S
C1859 C1853 1.390 . S
C1859 C1856 1.386 . S
C1860 C1855 1.490 . S
C1860 C1862 1.395 1_465 S
C1860 C1863 1.403 1_556 S
H1861 C1867 0.930 . S
C1862 H1848 0.930 . S
C1862 C1860 1.395 1_645 S
C1862 C1865 1.403 . S
C1863 C1860 1.403 1_554 S
C1863 C1864 1.524 . S
C1863 C1867 1.400 1_455 S
C1864 H1849 0.960 . S
C1864 H1850 0.960 . S
C1864 H1851 0.960 . S
C1864 C1863 1.524 . S
C1865 C1862 1.403 . S
C1865 C1866 1.392 1_556 S
C1865 C1869 1.495 . S
C1866 C1865 1.392 1_554 S
C1866 C1867 1.385 1_545 S
C1866 C1868 1.478 . S
C1867 H1861 0.930 . S
C1867 C1863 1.400 1_655 S
C1867 C1866 1.385 1_565 S
C1868 C1866 1.478 . S
C1868 C1870 1.381 . S
C1868 C1874 1.383 1_545 S
C1869 C1865 1.495 . S
C1869 H1875 0.959 . S
C1869 H1876 0.961 . S
C1869 H1877 0.960 . S
C1870 C1868 1.381 . S
C1870 C1871 1.394 . S
C1870 H1878 0.930 . S
C1871 C1870 1.394 . S
C1871 C1872 1.383 . S
C1871 H1879 0.929 . S
C1872 C1871 1.383 . S
C1872 C1873 1.377 . S
C1873 H1857 0.930 1_545 S
C1873 C1872 1.377 . S
C1873 C1874 1.379 1_545 S
C1874 H1858 0.931 . S
C1874 C1868 1.383 1_565 S
C1874 C1873 1.379 1_565 S
H1875 C1869 0.959 . S
H1876 C1869 0.961 . S
H1877 C1869 0.960 . S
H1878 C1870 0.930 . S
H1879 C1871 0.929 . S
H1880 C1888 0.929 . S
H1881 C1890 0.930 . S
H1882 C1892 0.930 . S
H1883 C1895 0.929 . S
H1884 C1898 0.930 . S
H1885 C1900 0.960 . S
H1886 C1900 0.960 . S
H1887 C1900 0.960 . S
C1888 H1880 0.929 . S
C1888 C1889 1.377 . S
C1888 C1890 1.384 . S
C1889 C1888 1.377 . S
C1889 C1895 1.390 . S
C1890 H1881 0.930 . S
C1890 C1888 1.384 . S
C1890 C1891 1.372 . S
C1891 C1890 1.372 . S
C1891 C1892 1.400 . S
C1891 C1896 1.490 . S
C1892 H1882 0.930 . S
C1892 C1891 1.400 . S
C1892 C1895 1.386 . S
H1893 C1909 0.930 . S
H1894 C1910 0.931 . S
C1895 H1883 0.929 . S
C1895 C1889 1.390 . S
C1895 C1892 1.386 . S
C1896 C1891 1.490 . S
C1896 C1898 1.395 1_565 S
C1896 C1899 1.403 1_554 S
H1897 C1903 0.930 . S
C1898 H1884 0.930 . S
C1898 C1896 1.395 1_545 S
C1898 C1901 1.403 . S
C1899 C1896 1.403 1_556 S
C1899 C1900 1.524 . S
C1899 C1903 1.400 1_565 S
C1900 H1885 0.960 . S
C1900 H1886 0.960 . S
C1900 H1887 0.960 . S
C1900 C1899 1.524 . S
C1901 C1898 1.403 . S
C1901 C1902 1.392 1_554 S
C1901 C1905 1.495 . S
C1902 C1901 1.392 1_556 S
C1902 C1903 1.385 . S
C1902 C1904 1.478 . S
C1903 H1897 0.930 . S
C1903 C1899 1.400 1_545 S
C1903 C1902 1.385 . S
C1904 C1902 1.478 . S
C1904 C1906 1.381 . S
C1904 C1910 1.383 . S
C1905 C1901 1.495 . S
C1905 H1911 0.959 . S
C1905 H1912 0.961 . S
C1905 H1913 0.960 . S
C1906 C1904 1.381 . S
C1906 C1907 1.394 . S
C1906 H1914 0.930 . S
C1907 C1906 1.394 . S
C1907 C1908 1.383 . S
C1907 H1915 0.929 . S
C1908 C1907 1.383 . S
C1908 C1909 1.377 . S
C1909 H1893 0.930 . S
C1909 C1908 1.377 . S
C1909 C1910 1.379 . S
C1910 H1894 0.931 . S
C1910 C1904 1.383 . S
C1910 C1909 1.379 . S
H1911 C1905 0.959 . S
H1912 C1905 0.961 . S
H1913 C1905 0.960 . S
H1914 C1906 0.930 . S
H1915 C1907 0.929 . S
H1916 C1924 0.929 . S
H1917 C1926 0.930 . S
H1918 C1928 0.930 . S
H1919 C1931 0.929 . S
H1920 C1934 0.930 . S
H1921 C1936 0.960 . S
H1922 C1936 0.960 . S
H1923 C1936 0.960 . S
C1924 H1916 0.929 . S
C1924 C1925 1.377 . S
C1924 C1926 1.384 . S
C1925 C1924 1.377 . S
C1925 C1931 1.390 . S
C1926 H1917 0.930 . S
C1926 C1924 1.384 . S
C1926 C1927 1.372 . S
C1927 C1926 1.372 . S
C1927 C1928 1.400 . S
C1927 C1932 1.490 . S
C1928 H1918 0.930 . S
C1928 C1927 1.400 . S
C1928 C1931 1.386 . S
H1929 C1945 0.930 . S
H1930 C1946 0.931 . S
C1931 H1919 0.929 . S
C1931 C1925 1.390 . S
C1931 C1928 1.386 . S
C1932 C1927 1.490 . S
C1932 C1934 1.395 . S
C1932 C1935 1.403 1_556 S
H1933 C1939 0.930 . S
C1934 H1920 0.930 . S
C1934 C1932 1.395 . S
C1934 C1937 1.403 . S
C1935 C1932 1.403 1_554 S
C1935 C1936 1.524 . S
C1935 C1939 1.400 . S
C1936 H1921 0.960 . S
C1936 H1922 0.960 . S
C1936 H1923 0.960 . S
C1936 C1935 1.524 . S
C1937 C1934 1.403 . S
C1937 C1938 1.392 1_556 S
C1937 C1941 1.495 . S
C1938 C1937 1.392 1_554 S
C1938 C1939 1.385 . S
C1938 C1940 1.478 . S
C1939 H1933 0.930 . S
C1939 C1935 1.400 . S
C1939 C1938 1.385 . S
C1940 C1938 1.478 . S
C1940 C1942 1.381 . S
C1940 C1946 1.383 . S
C1941 C1937 1.495 . S
C1941 H1947 0.959 . S
C1941 H1948 0.961 . S
C1941 H1949 0.960 . S
C1942 C1940 1.381 . S
C1942 C1943 1.394 . S
C1942 H1950 0.930 . S
C1943 C1942 1.394 . S
C1943 C1944 1.383 . S
C1943 H1951 0.929 . S
C1944 C1943 1.383 . S
C1944 C1945 1.377 . S
C1945 H1929 0.930 . S
C1945 C1944 1.377 . S
C1945 C1946 1.379 . S
C1946 H1930 0.931 . S
C1946 C1940 1.383 . S
C1946 C1945 1.379 . S
H1947 C1941 0.959 . S
H1948 C1941 0.961 . S
H1949 C1941 0.960 . S
H1950 C1942 0.930 . S
H1951 C1943 0.929 . S
H1952 C1960 0.929 1_655 S
H1953 C1962 0.930 . S
H1954 C1964 0.930 . S
H1955 C1967 0.929 . S
H1956 C1970 0.930 . S
H1957 C1972 0.960 . S
H1958 C1972 0.960 . S
H1959 C1972 0.960 . S
C1960 H1952 0.929 1_455 S
C1960 C1961 1.377 . S
C1960 C1962 1.384 1_455 S
C1961 C1960 1.377 . S
C1961 C1967 1.390 . S
C1962 H1953 0.930 . S
C1962 C1960 1.384 1_655 S
C1962 C1963 1.372 1_655 S
C1963 C1962 1.372 1_455 S
C1963 C1964 1.400 . S
C1963 C1968 1.490 . S
C1964 H1954 0.930 . S
C1964 C1963 1.400 . S
C1964 C1967 1.386 . S
H1965 C1981 0.930 1_455 S
H1966 C1982 0.931 . S
C1967 H1955 0.929 . S
C1967 C1961 1.390 . S
C1967 C1964 1.386 . S
C1968 C1963 1.490 . S
C1968 C1970 1.395 1_455 S
C1968 C1971 1.403 1_565 S
H1969 C1975 0.930 . S
C1970 H1956 0.930 . S
C1970 C1968 1.395 1_655 S
C1970 C1973 1.403 . S
C1971 C1968 1.403 1_545 S
C1971 C1972 1.524 . S
C1971 C1975 1.400 . S
C1972 H1957 0.960 . S
C1972 H1958 0.960 . S
C1972 H1959 0.960 . S
C1972 C1971 1.524 . S
C1973 C1970 1.403 . S
C1973 C1974 1.392 1_565 S
C1973 C1977 1.495 . S
C1974 C1973 1.392 1_545 S
C1974 C1975 1.385 1_655 S
C1974 C1976 1.478 . S
C1975 H1969 0.930 . S
C1975 C1971 1.400 . S
C1975 C1974 1.385 1_455 S
C1976 C1974 1.478 . S
C1976 C1978 1.381 . S
C1976 C1982 1.383 1_655 S
C1977 C1973 1.495 . S
C1977 H1983 0.959 . S
C1977 H1984 0.961 . S
C1977 H1985 0.960 . S
C1978 C1976 1.381 . S
C1978 C1979 1.394 . S
C1978 H1986 0.930 . S
C1979 C1978 1.394 . S
C1979 C1980 1.383 . S
C1979 H1987 0.929 . S
C1980 C1979 1.383 . S
C1980 C1981 1.377 . S
C1981 H1965 0.930 1_655 S
C1981 C1980 1.377 . S
C1981 C1982 1.379 1_655 S
C1982 H1966 0.931 . S
C1982 C1976 1.383 1_455 S
C1982 C1981 1.379 1_455 S
H1983 C1977 0.959 . S
H1984 C1977 0.961 . S
H1985 C1977 0.960 . S
H1986 C1978 0.930 . S
H1987 C1979 0.929 . S
H1988 C1996 0.929 1_565 S
H1989 C1998 0.930 . S
H1990 C2000 0.930 . S
H1991 C2003 0.929 . S
H1992 C2006 0.930 . S
H1993 C2008 0.960 . S
H1994 C2008 0.960 . S
H1995 C2008 0.960 1_545 S
C1996 H1988 0.929 1_545 S
C1996 C1997 1.377 . S
C1996 C1998 1.384 1_545 S
C1997 C1996 1.377 . S
C1997 C2003 1.390 . S
C1998 H1989 0.930 . S
C1998 C1996 1.384 1_565 S
C1998 C1999 1.372 1_565 S
C1999 C1998 1.372 1_545 S
C1999 C2000 1.400 . S
C1999 C2004 1.490 . S
C2000 H1990 0.930 . S
C2000 C1999 1.400 . S
C2000 C2003 1.386 . S
H2001 C2017 0.930 1_545 S
H2002 C2018 0.931 . S
C2003 H1991 0.929 . S
C2003 C1997 1.390 . S
C2003 C2000 1.386 . S
C2004 C1999 1.490 . S
C2004 C2006 1.395 . S
C2004 C2007 1.400 1_545 S
H2005 C2011 0.930 . S
C2006 H1992 0.930 . S
C2006 C2004 1.395 . S
C2006 C2009 1.403 1_545 S
C2007 C2004 1.400 1_565 S
C2007 C2008 1.524 . S
C2007 C2011 1.403 . S
C2008 H1993 0.960 . S
C2008 H1994 0.960 . S
C2008 H1995 0.960 1_565 S
C2008 C2007 1.524 . S
C2009 C2006 1.403 1_565 S
C2009 C2010 1.392 . S
C2009 C2013 1.495 . S
C2010 C2009 1.392 . S
C2010 C2011 1.385 . S
C2010 C2012 1.478 . S
C2011 H2005 0.930 . S
C2011 C2007 1.403 . S
C2011 C2010 1.385 . S
C2012 C2010 1.478 . S
C2012 C2014 1.381 . S
C2012 C2018 1.383 1_565 S
C2013 C2009 1.495 . S
C2013 H2019 0.959 1_565 S
C2013 H2020 0.961 1_565 S
C2013 H2021 0.960 . S
C2014 C2012 1.381 . S
C2014 C2015 1.394 . S
C2014 H2022 0.930 . S
C2015 C2014 1.394 . S
C2015 C2016 1.383 . S
C2015 H2023 0.929 . S
C2016 C2015 1.383 . S
C2016 C2017 1.377 . S
C2017 H2001 0.930 1_565 S
C2017 C2016 1.377 . S
C2017 C2018 1.379 1_565 S
C2018 H2002 0.931 . S
C2018 C2012 1.383 1_545 S
C2018 C2017 1.379 1_545 S
H2019 C2013 0.959 1_545 S
H2020 C2013 0.961 1_545 S
H2021 C2013 0.960 . S
H2022 C2014 0.930 . S
H2023 C2015 0.929 . S
H2024 C2032 0.929 . S
H2025 C2034 0.930 . S
H2026 C2036 0.930 . S
H2027 C2039 0.929 . S
H2028 C2042 0.930 . S
H2029 C2044 0.960 . S
H2030 C2044 0.960 . S
H2031 C2044 0.960 . S
C2032 H2024 0.929 . S
C2032 C2033 1.377 . S
C2032 C2034 1.384 . S
C2033 C2032 1.377 . S
C2033 C2039 1.390 . S
C2034 H2025 0.930 . S
C2034 C2032 1.384 . S
C2034 C2035 1.372 . S
C2035 C2034 1.372 . S
C2035 C2036 1.400 . S
C2035 C2040 1.490 . S
C2036 H2026 0.930 . S
C2036 C2035 1.400 . S
C2036 C2039 1.386 . S
H2037 C2053 0.930 . S
H2038 C2054 0.931 . S
C2039 H2027 0.929 . S
C2039 C2033 1.390 . S
C2039 C2036 1.386 . S
C2040 C2035 1.490 . S
C2040 C2042 1.395 . S
C2040 C2043 1.403 . S
H2041 C2047 0.930 . S
C2042 H2028 0.930 . S
C2042 C2040 1.395 . S
C2042 C2045 1.403 . S
C2043 C2040 1.403 . S
C2043 C2044 1.524 . S
C2043 C2047 1.400 . S
C2044 H2029 0.960 . S
C2044 H2030 0.960 . S
C2044 H2031 0.960 . S
C2044 C2043 1.524 . S
C2045 C2042 1.403 . S
C2045 C2046 1.392 . S
C2045 C2049 1.495 . S
C2046 C2045 1.392 . S
C2046 C2047 1.385 . S
C2046 C2048 1.478 . S
C2047 H2041 0.930 . S
C2047 C2043 1.400 . S
C2047 C2046 1.385 . S
C2048 C2046 1.478 . S
C2048 C2050 1.381 . S
C2048 C2054 1.383 . S
C2049 C2045 1.495 . S
C2049 H2055 0.959 . S
C2049 H2056 0.961 . S
C2049 H2057 0.960 . S
C2050 C2048 1.381 . S
C2050 C2051 1.394 . S
C2050 H2058 0.930 . S
C2051 C2050 1.394 . S
C2051 C2052 1.383 . S
C2051 H2059 0.929 . S
C2052 C2051 1.383 . S
C2052 C2053 1.377 . S
C2053 H2037 0.930 . S
C2053 C2052 1.377 . S
C2053 C2054 1.379 . S
C2054 H2038 0.931 . S
C2054 C2048 1.383 . S
C2054 C2053 1.379 . S
H2055 C2049 0.959 . S
H2056 C2049 0.961 . S
H2057 C2049 0.960 . S
H2058 C2050 0.930 . S
H2059 C2051 0.929 . S
H2060 C2068 0.929 . S
H2061 C2070 0.930 . S
H2062 C2072 0.930 . S
H2063 C2075 0.929 . S
H2064 C2078 0.930 . S
H2065 C2080 0.960 . S
H2066 C2080 0.960 . S
H2067 C2080 0.960 . S
C2068 H2060 0.929 . S
C2068 C2069 1.377 . S
C2068 C2070 1.384 . S
C2069 C2068 1.377 . S
C2069 C2075 1.390 . S
C2070 H2061 0.930 . S
C2070 C2068 1.384 . S
C2070 C2071 1.372 . S
C2071 C2070 1.372 . S
C2071 C2072 1.400 . S
C2071 C2076 1.490 . S
C2072 H2062 0.930 . S
C2072 C2071 1.400 . S
C2072 C2075 1.386 . S
H2073 C2089 0.930 . S
H2074 C2090 0.931 . S
C2075 H2063 0.929 . S
C2075 C2069 1.390 . S
C2075 C2072 1.386 . S
C2076 C2071 1.490 . S
C2076 C2078 1.395 . S
C2076 C2079 1.403 1_655 S
H2077 C2083 0.930 . S
C2078 H2064 0.930 . S
C2078 C2076 1.395 . S
C2078 C2081 1.403 . S
C2079 C2076 1.403 1_455 S
C2079 C2080 1.524 . S
C2079 C2083 1.400 . S
C2080 H2065 0.960 . S
C2080 H2066 0.960 . S
C2080 H2067 0.960 . S
C2080 C2079 1.524 . S
C2081 C2078 1.403 . S
C2081 C2082 1.392 1_655 S
C2081 C2085 1.495 . S
C2082 C2081 1.392 1_455 S
C2082 C2083 1.385 . S
C2082 C2084 1.478 . S
C2083 H2077 0.930 . S
C2083 C2079 1.400 . S
C2083 C2082 1.385 . S
C2084 C2082 1.478 . S
C2084 C2086 1.381 . S
C2084 C2090 1.383 . S
C2085 C2081 1.495 . S
C2085 H2091 0.959 . S
C2085 H2092 0.961 . S
C2085 H2093 0.960 . S
C2086 C2084 1.381 . S
C2086 C2087 1.394 . S
C2086 H2094 0.930 . S
C2087 C2086 1.394 . S
C2087 C2088 1.383 . S
C2087 H2095 0.929 . S
C2088 C2087 1.383 . S
C2088 C2089 1.377 . S
C2089 H2073 0.930 . S
C2089 C2088 1.377 . S
C2089 C2090 1.379 . S
C2090 H2074 0.931 . S
C2090 C2084 1.383 . S
C2090 C2089 1.379 . S
H2091 C2085 0.959 . S
H2092 C2085 0.961 . S
H2093 C2085 0.960 . S
H2094 C2086 0.930 . S
H2095 C2087 0.929 . S
C953 C33 1.693 . S
C972 C151 1.679 . S
C989 C92 1.694 . S
C1008 C210 1.680 . S
C1025 C269 1.693 . S
C1044 C387 1.683 . S
C1061 C446 1.698 . S
C1080 C328 1.699 . S
C1097 C505 1.695 . S
C1116 C623 1.704 . S
C1133 C682 1.693 . S
C1152 C564 1.706 . S
C1169 C859 1.697 . S
C1188 C741 1.678 . S
C1205 C918 1.697 . S
C1224 C800 1.695 . S
C1241 C416 0.714 . S
C1260 C3 0.711 . S
C1277 C62 0.705 . S
C1296 C239 0.666 . S
C1313 C298 0.726 . S
C1332 C121 0.767 . S
C1349 C180 0.718 . S
C1368 C357 0.727 . S
C1385 C888 0.726 . S
C1404 C475 0.699 . S
C1421 C534 0.706 . S
C1440 C711 0.765 . S
C1457 C593 0.707 . S
C1476 C770 0.708 . S
C1493 C829 0.705 . S
C1512 C652 0.724 . S
C1529 C52 0.699 . S
C1548 C288 0.757 . S
C1565 C111 0.699 . S
C1584 C347 0.758 . S
C1601 C406 0.708 . S
C1620 C170 0.753 . S
C1637 C229 0.680 . S
C1656 C465 0.660 . S
C1673 C760 0.689 . S
C1692 C524 0.624 . S
C1709 C819 0.704 . S
C1728 C583 0.755 . S
C1745 C642 0.684 . S
C1764 C878 0.734 . S
C1781 C701 0.681 . S
C1800 C937 0.651 . S
C1817 C5 1.822 . S
C1836 C477 1.804 . S
C1853 C536 1.828 . S
C1872 C64 1.837 . S
C1889 C123 1.824 . S
C1908 C595 1.834 . S
C1925 C654 1.825 . S
C1944 C182 1.838 . S
C1961 C241 1.823 . S
C1980 C713 1.803 . S
C1997 C300 1.824 . S
C2016 C772 1.804 . S
C2033 C831 1.825 . S
C2052 C359 1.837 . S
C2069 C418 1.823 . S
C2088 C890 1.803 . S
