# Generated by pormake.
# Topology umb, (4)-cn, num edge types: 1
# Building blocks:
#     Node 0, Type 0, BuildingBlock: CEKHIL_clean_sbu_0, # of connection points: 4
#     Node 1, Type 0, BuildingBlock: CEKHIL_clean_sbu_0, # of connection points: 4
#     Node 2, Type 0, BuildingBlock: CEKHIL_clean_sbu_0, # of connection points: 4
#     Node 3, Type 0, BuildingBlock: CEKHIL_clean_sbu_0, # of connection points: 4
#     Node 4, Type 0, BuildingBlock: CEKHIL_clean_sbu_0, # of connection points: 4
#     Node 5, Type 0, BuildingBlock: CEKHIL_clean_sbu_0, # of connection points: 4
#     Node 6, Type 0, BuildingBlock: CEKHIL_clean_sbu_0, # of connection points: 4
#     Node 7, Type 0, BuildingBlock: CEKHIL_clean_sbu_0, # of connection points: 4
#     Node 8, Type 0, BuildingBlock: CEKHIL_clean_sbu_0, # of connection points: 4
#     Node 9, Type 0, BuildingBlock: CEKHIL_clean_sbu_0, # of connection points: 4
#     Node 10, Type 0, BuildingBlock: CEKHIL_clean_sbu_0, # of connection points: 4
#     Node 11, Type 0, BuildingBlock: CEKHIL_clean_sbu_0, # of connection points: 4
#     Edge 12, Type (0, 0), BuildingBlock: AJUNOK_clean_linker_0, # of connection points: 2
#     Edge 13, Type (0, 0), BuildingBlock: AJUNOK_clean_linker_0, # of connection points: 2
#     Edge 14, Type (0, 0), BuildingBlock: AJUNOK_clean_linker_0, # of connection points: 2
#     Edge 15, Type (0, 0), BuildingBlock: AJUNOK_clean_linker_0, # of connection points: 2
#     Edge 16, Type (0, 0), BuildingBlock: AJUNOK_clean_linker_0, # of connection points: 2
#     Edge 17, Type (0, 0), BuildingBlock: AJUNOK_clean_linker_0, # of connection points: 2
#     Edge 18, Type (0, 0), BuildingBlock: AJUNOK_clean_linker_0, # of connection points: 2
#     Edge 19, Type (0, 0), BuildingBlock: AJUNOK_clean_linker_0, # of connection points: 2
#     Edge 20, Type (0, 0), BuildingBlock: AJUNOK_clean_linker_0, # of connection points: 2
#     Edge 21, Type (0, 0), BuildingBlock: AJUNOK_clean_linker_0, # of connection points: 2
#     Edge 22, Type (0, 0), BuildingBlock: AJUNOK_clean_linker_0, # of connection points: 2
#     Edge 23, Type (0, 0), BuildingBlock: AJUNOK_clean_linker_0, # of connection points: 2
#     Edge 24, Type (0, 0), BuildingBlock: AJUNOK_clean_linker_0, # of connection points: 2
#     Edge 25, Type (0, 0), BuildingBlock: AJUNOK_clean_linker_0, # of connection points: 2
#     Edge 26, Type (0, 0), BuildingBlock: AJUNOK_clean_linker_0, # of connection points: 2
#     Edge 27, Type (0, 0), BuildingBlock: AJUNOK_clean_linker_0, # of connection points: 2
#     Edge 28, Type (0, 0), BuildingBlock: AJUNOK_clean_linker_0, # of connection points: 2
#     Edge 29, Type (0, 0), BuildingBlock: AJUNOK_clean_linker_0, # of connection points: 2
#     Edge 30, Type (0, 0), BuildingBlock: AJUNOK_clean_linker_0, # of connection points: 2
#     Edge 31, Type (0, 0), BuildingBlock: AJUNOK_clean_linker_0, # of connection points: 2
#     Edge 32, Type (0, 0), BuildingBlock: AJUNOK_clean_linker_0, # of connection points: 2
#     Edge 33, Type (0, 0), BuildingBlock: AJUNOK_clean_linker_0, # of connection points: 2
#     Edge 34, Type (0, 0), BuildingBlock: AJUNOK_clean_linker_0, # of connection points: 2
#     Edge 35, Type (0, 0), BuildingBlock: AJUNOK_clean_linker_0, # of connection points: 2
# Relax obj value: 0.276
# Max RMSD: 0.250
# Mean RMSD: 0.250
data_MOF--net-umb--node1-CEKHIL_clean_sbu_0--edge1-AJUNOK_clean_linker_0
_symmetry_space_group_name_H-M    P1
_symmetry_Int_Tables_number       1
_symmetry_cell_setting            triclinic
loop_
_symmetry_equiv_pos_as_xyz
'x, y, z'
_cell_length_a     35.028557
_cell_length_b     35.069667
_cell_length_c     26.021021
_cell_angle_alpha  89.766629
_cell_angle_beta   90.091516
_cell_angle_gamma 119.89714
loop_
_atom_site_label
_atom_site_type_symbol
_atom_site_fract_x
_atom_site_fract_y
_atom_site_fract_z
_atom_type_partial_charge
Co0 Co 0.5194 0.16393 0.34128 0.0
O1 O 0.47709 0.10561 0.31991 0.0
O2 O 0.54869 0.13093 0.32885 0.0
C3 C 0.49715 0.20099 0.2878 0.0
O4 O 0.57265 0.22117 0.36261 0.0
Co5 Co 0.48565 0.21609 0.39974 0.0
O6 O 0.54859 0.25716 0.41218 0.0
C7 C 0.51234 0.16156 0.45873 0.0
C8 C 0.50987 0.09823 0.31798 0.0
C9 C 0.57943 0.25205 0.39409 0.0
O10 O 0.51359 0.14445 0.41567 0.0
O11 O 0.50001 0.19025 0.46182 0.0
O12 O 0.52257 0.18645 0.2722 0.0
O13 O 0.48069 0.18779 0.33367 0.0
Co14 Co 0.37594 0.52848 0.65123 0.0
O15 O 0.38702 0.48026 0.65682 0.0
O16 O 0.43751 0.5498 0.64178 0.0
C17 C 0.31709 0.49643 0.59666 0.0
O18 O 0.37682 0.58619 0.64221 0.0
Co19 Co 0.29117 0.52004 0.69554 0.0
O20 O 0.30625 0.56918 0.64745 0.0
C21 C 0.36905 0.55228 0.76303 0.0
C22 C 0.42802 0.50924 0.64846 0.0
C23 C 0.34624 0.59574 0.63629 0.0
O24 O 0.38777 0.54187 0.72759 0.0
O25 O 0.33005 0.54631 0.75801 0.0
O26 O 0.35716 0.51327 0.58015 0.0
O27 O 0.31334 0.49393 0.64659 0.0
Co28 Co 0.82121 0.33842 1.01315 0.0
O29 O 0.88057 0.35157 1.00065 0.0
O30 O 0.85836 0.40066 1.00323 0.0
C31 C 0.78736 0.28146 0.95631 0.0
O32 O 0.76346 0.33725 1.02461 0.0
Co33 Co 0.75762 0.24991 0.0639 0.0
O34 O 0.71613 0.27225 0.06114 0.0
C35 C 0.80821 0.32832 0.12944 0.0
C36 C 0.89033 0.39235 0.99691 0.0
C37 C 0.72628 0.3106 0.0455 0.0
O38 O 0.83233 0.34817 0.09009 0.0
O39 O 0.77672 0.28838 0.12729 0.0
O40 O 0.80585 0.32205 0.94142 0.0
O41 O 0.79489 0.27617 1.00411 0.0
Co42 Co 0.45742 0.84831 0.3119 0.0
O43 O 0.50319 0.90834 0.31467 0.0
O44 O 0.43302 0.88598 0.29853 0.0
C45 C 0.49196 0.82221 0.26049 0.0
O46 O 0.40266 0.78867 0.30591 0.0
Co47 Co 0.47794 0.78344 0.36837 0.0
O48 O 0.42497 0.74104 0.33007 0.0
C49 C 0.44178 0.82831 0.42892 0.0
C50 C 0.47309 0.91843 0.30446 0.0
C51 C 0.39652 0.74959 0.31117 0.0
O52 O 0.44265 0.84868 0.38737 0.0
O53 O 0.45714 0.80197 0.43114 0.0
O54 O 0.47342 0.84319 0.24173 0.0
O55 O 0.49553 0.82418 0.31047 0.0
Co56 Co 0.62957 0.46392 0.6738 0.0
O57 O 0.61079 0.5052 0.65744 0.0
O58 O 0.56658 0.43325 0.66655 0.0
C59 C 0.6857 0.48862 0.61572 0.0
O60 O 0.63696 0.4115 0.69006 0.0
Co61 Co 0.72002 0.49762 0.72323 0.0
O62 O 0.70535 0.43585 0.72032 0.0
C63 C 0.64165 0.46725 0.78964 0.0
C64 C 0.57105 0.47178 0.6576 0.0
C65 C 0.66717 0.40485 0.7085 0.0
O66 O 0.62073 0.46901 0.74998 0.0
O67 O 0.68206 0.47708 0.78744 0.0
O68 O 0.6452 0.46258 0.60243 0.0
O69 O 0.69099 0.50368 0.66245 0.0
Co70 Co 0.13505 0.59736 0.97714 0.0
O71 O 0.07339 0.57694 0.97432 0.0
O72 O 0.10333 0.53439 0.96807 0.0
C73 C 0.15857 0.65536 0.92164 0.0
O74 O 0.19762 0.60885 0.97843 0.0
Co75 Co 0.1897 0.68677 0.03076 0.0
O76 O 0.23838 0.67958 1.00366 0.0
C77 C 0.1473 0.60794 0.0955 0.0
C78 C 0.06794 0.53773 0.96987 0.0
C79 C 0.23463 0.64371 0.98729 0.0
O80 O 0.13183 0.58598 0.0539 0.0
O81 O 0.16976 0.65004 0.09577 0.0
O82 O 0.14222 0.61542 0.90518 0.0
O83 O 0.15329 0.65806 0.97082 0.0
Co84 Co 0.84153 0.46203 0.41548 0.0
O85 O 0.90053 0.51066 0.40956 0.0
O86 O 0.88252 0.44169 0.42675 0.0
C87 C 0.81397 0.49426 0.46869 0.0
O88 O 0.78495 0.40423 0.42547 0.0
Co89 Co 0.765 0.46911 0.36922 0.0
O90 O 0.73154 0.42146 0.4192 0.0
C91 C 0.81093 0.43609 0.30374 0.0
C92 C 0.91314 0.48236 0.41974 0.0
C93 C 0.74493 0.39501 0.43148 0.0
O94 O 0.84009 0.44722 0.33942 0.0
O95 O 0.77782 0.44202 0.30793 0.0
O96 O 0.83777 0.47827 0.486 0.0
O97 O 0.81287 0.4962 0.41866 0.0
Co98 Co 0.3426 0.82298 0.7248 0.0
O99 O 0.35517 0.88099 0.74298 0.0
O100 O 0.40457 0.85924 0.73726 0.0
C101 C 0.28408 0.78542 0.77892 0.0
O102 O 0.34199 0.7667 0.70694 0.0
Co103 Co 0.25611 0.76503 0.66793 0.0
O104 O 0.28243 0.72742 0.65729 0.0
C105 C 0.33588 0.82143 0.60706 0.0
C106 C 0.39597 0.89066 0.74636 0.0
C107 C 0.31917 0.735 0.67585 0.0
O108 O 0.35507 0.83969 0.64946 0.0
O109 O 0.29519 0.7916 0.60532 0.0
O110 O 0.32427 0.80245 0.79481 0.0
O111 O 0.27994 0.79626 0.73214 0.0
Co112 Co 0.52591 0.38166 0.08341 0.0
O113 O 0.48237 0.39959 0.08415 0.0
O114 O 0.55442 0.44449 0.09023 0.0
C115 C 0.49357 0.32519 0.14142 0.0
O116 O 0.57987 0.37452 0.08439 0.0
Co117 Co 0.50012 0.29145 0.03762 0.0
O118 O 0.55491 0.30246 0.07158 0.0
C119 C 0.53629 0.36861 0.96853 0.0
C120 C 0.51508 0.43951 0.0882 0.0
C121 C 0.58539 0.34102 0.08269 0.0
O122 O 0.53319 0.39062 1.00607 0.0
O123 O 0.52448 0.32779 0.97275 0.0
O124 O 0.51584 0.36579 0.15599 0.0
O125 O 0.48594 0.32022 0.09212 0.0
Co126 Co 0.15867 0.52767 0.39816 0.0
O127 O 0.09988 0.48832 0.42053 0.0
O128 O 0.12821 0.56005 0.40815 0.0
C129 C 0.19354 0.50396 0.45266 0.0
O130 O 0.21751 0.57804 0.37507 0.0
Co131 Co 0.20675 0.48795 0.34171 0.0
O132 O 0.25325 0.54961 0.33252 0.0
C133 C 0.15456 0.51659 0.28128 0.0
C134 C 0.09424 0.52218 0.41977 0.0
C135 C 0.24984 0.58223 0.34755 0.0
O136 O 0.13888 0.52055 0.32413 0.0
O137 O 0.18161 0.50212 0.27891 0.0
O138 O 0.18108 0.5313 0.46733 0.0
O139 O 0.17938 0.48679 0.40741 0.0
Co140 Co 0.59943 0.13616 0.75719 0.0
O141 O 0.57999 0.07478 0.75875 0.0
O142 O 0.53668 0.10364 0.76805 0.0
C143 C 0.65795 0.15895 0.81148 0.0
O144 O 0.60968 0.1981 0.7577 0.0
Co145 Co 0.68824 0.19423 0.70345 0.0
O146 O 0.68098 0.2411 0.73561 0.0
C147 C 0.60848 0.15281 0.63951 0.0
C148 C 0.54069 0.06872 0.76552 0.0
C149 C 0.6442 0.23585 0.75108 0.0
O150 O 0.58699 0.13414 0.68072 0.0
O151 O 0.65052 0.17704 0.63913 0.0
O152 O 0.61809 0.14219 0.82857 0.0
O153 O 0.66059 0.15519 0.76194 0.0
Co154 Co 0.4707 0.6423 0.05557 0.0
O155 O 0.51467 0.6265 0.06988 0.0
O156 O 0.44329 0.57931 0.06237 0.0
C157 C 0.4937 0.69733 0.11483 0.0
O158 O 0.41617 0.64685 0.04109 0.0
Co159 Co 0.50084 0.73333 1.00844 0.0
O160 O 0.43803 0.71519 1.01199 0.0
C161 C 0.47232 0.6564 0.94007 0.0
C162 C 0.48283 0.58603 0.07062 0.0
C163 C 0.40806 0.67622 1.02285 0.0
O164 O 0.47527 0.63515 0.97882 0.0
O165 O 0.48148 0.69652 0.94355 0.0
O166 O 0.46931 0.65642 0.12763 0.0
O167 O 0.5082 0.70381 0.06774 0.0
C168 C 0.51847 0.15178 0.55451 0.0
C169 C 0.53413 0.15401 0.5042 0.0
C170 C 0.54172 0.14923 0.59756 0.0
C171 C 0.58249 0.15036 0.59243 0.0
H172 H 0.48827 0.15251 0.56071 0.0
H173 H 0.52845 0.14821 0.63544 0.0
S174 S 0.63888 0.1578 0.46917 0.0
N175 N 0.59331 0.15741 0.45193 0.0
N176 N 0.63741 0.15438 0.53254 0.0
C177 C 0.59853 0.15274 0.54235 0.0
C178 C 0.5743 0.15409 0.49847 0.0
C179 C 0.39318 0.61397 0.8263 0.0
C180 C 0.39578 0.57738 0.80868 0.0
C181 C 0.41982 0.64045 0.86676 0.0
C182 C 0.44971 0.63111 0.89251 0.0
H183 H 0.37077 0.62275 0.80808 0.0
H184 H 0.41584 0.66774 0.87903 0.0
S185 S 0.46925 0.53895 0.86169 0.0
N186 N 0.43162 0.5338 0.81956 0.0
N187 N 0.47999 0.58212 0.89724 0.0
C188 C 0.45253 0.59447 0.87549 0.0
C189 C 0.42618 0.56814 0.83319 0.0
C190 C 0.77312 0.37278 0.24266 0.0
C191 C 0.81233 0.41001 0.25897 0.0
C192 C 0.77285 0.34566 0.20276 0.0
C193 C 0.81162 0.35488 0.17616 0.0
H194 H 0.74223 0.36405 0.26147 0.0
H195 H 0.74151 0.31787 0.19163 0.0
S196 S 0.92325 0.44851 0.20353 0.0
N197 N 0.89135 0.45407 0.24604 0.0
N198 N 0.89056 0.40449 0.16933 0.0
C199 C 0.85113 0.39215 0.19189 0.0
C200 C 0.85158 0.41918 0.2337 0.0
C201 C 0.43182 0.83412 0.52449 0.0
C202 C 0.41659 0.83121 0.47382 0.0
C203 C 0.40654 0.83377 0.56691 0.0
C204 C 0.36426 0.82904 0.56071 0.0
H205 H 0.46334 0.83631 0.53148 0.0
H206 H 0.41947 0.83512 0.60512 0.0
S207 S 0.30854 0.81865 0.43602 0.0
N208 N 0.35641 0.82359 0.41993 0.0
N209 N 0.30845 0.82092 0.49942 0.0
C210 C 0.34869 0.82602 0.51022 0.0
C211 C 0.37492 0.82766 0.46698 0.0
C212 C 0.58864 0.38159 0.89582 0.0
C213 C 0.56034 0.39323 0.92106 0.0
C214 C 0.61597 0.40696 0.855 0.0
C215 C 0.61553 0.44455 0.83654 0.0
H216 H 0.59072 0.35325 0.90865 0.0
H217 H 0.63704 0.39644 0.83697 0.0
S218 S 0.54664 0.48878 0.88748 0.0
N219 N 0.53386 0.44546 0.92419 0.0
N220 N 0.58334 0.49146 0.84559 0.0
C221 C 0.58673 0.45609 0.8604 0.0
C222 C 0.55978 0.43099 0.90313 0.0
C223 C 0.14747 0.52116 0.18488 0.0
C224 C 0.14659 0.53664 0.2344 0.0
C225 C 0.14537 0.54328 0.14051 0.0
C226 C 0.14373 0.58269 0.14357 0.0
H227 H 0.15056 0.49212 0.18032 0.0
H228 H 0.14706 0.53036 0.10336 0.0
S229 S 0.14053 0.63728 0.2639 0.0
N230 N 0.14279 0.59364 0.28361 0.0
N231 N 0.14051 0.63561 0.20049 0.0
C232 C 0.14233 0.59825 0.19278 0.0
C233 C 0.14329 0.57515 0.23798 0.0
C234 C 0.70341 0.32129 0.39566 0.0
C235 C 0.71029 0.34952 0.43712 0.0
C236 C 0.66093 0.28786 0.38327 0.0
C237 C 0.62451 0.28192 0.41226 0.0
H238 H 0.72996 0.3284 0.36906 0.0
H239 H 0.65633 0.26899 0.34865 0.0
S240 S 0.62841 0.33972 0.53334 0.0
N241 N 0.67985 0.36432 0.51288 0.0
N242 N 0.59986 0.30049 0.49128 0.0
C243 C 0.63222 0.30608 0.45807 0.0
C244 C 0.67535 0.34008 0.47029 0.0
C245 C 0.36495 0.69964 0.68979 0.0
C246 C 0.33687 0.70719 0.65813 0.0
C247 C 0.37527 0.66712 0.67714 0.0
C248 C 0.3575 0.64145 0.63282 0.0
H249 H 0.37596 0.71624 0.72639 0.0
H250 H 0.39249 0.65837 0.7053 0.0
S251 S 0.29386 0.6575 0.53013 0.0
N252 N 0.30072 0.69394 0.5745 0.0
N253 N 0.31887 0.63147 0.55236 0.0
C254 C 0.3348 0.65291 0.59759 0.0
C255 C 0.32453 0.68609 0.61002 0.0
C256 C 0.6371 0.31928 0.11523 0.0
C257 C 0.62952 0.34694 0.08318 0.0
C258 C 0.66981 0.30924 0.10337 0.0
C259 C 0.69577 0.32629 0.05882 0.0
H260 H 0.61528 0.30253 0.1473 0.0
H261 H 0.67345 0.2864 0.12825 0.0
S262 S 0.69152 0.40419 0.96566 0.0
N263 N 0.65247 0.39446 1.00789 0.0
N264 N 0.71473 0.37569 0.9855 0.0
C265 C 0.69099 0.35697 0.02883 0.0
C266 C 0.65758 0.36733 0.04111 0.0
C267 C 0.32009 0.70619 0.34005 0.0
C268 C 0.35283 0.7117 0.30497 0.0
C269 C 0.28578 0.66411 0.35245 0.0
C270 C 0.28344 0.62651 0.33006 0.0
H271 H 0.32338 0.73401 0.36173 0.0
H272 H 0.26257 0.66101 0.38191 0.0
S273 S 0.35715 0.62575 0.22765 0.0
N274 N 0.37801 0.6781 0.24257 0.0
N275 N 0.31312 0.59874 0.26432 0.0
C276 C 0.31373 0.63239 0.29082 0.0
C277 C 0.3485 0.67517 0.2785 0.0
C278 C 0.68184 0.35456 0.7611 0.0
C279 C 0.65618 0.35998 0.72315 0.0
C280 C 0.67431 0.31298 0.77469 0.0
C281 C 0.64062 0.27539 0.75122 0.0
H282 H 0.70889 0.38271 0.77961 0.0
H283 H 0.69672 0.31033 0.80134 0.0
S284 S 0.56155 0.27081 0.65337 0.0
N285 N 0.5934 0.32377 0.66535 0.0
N286 N 0.57946 0.24506 0.69109 0.0
C287 C 0.61266 0.27977 0.71602 0.0
C288 C 0.62044 0.32231 0.70183 0.0
C289 C 0.28345 0.6179 1.02129 0.0
C290 C 0.27545 0.64254 0.98459 0.0
C291 C 0.3266 0.6281 0.03278 0.0
C292 C 0.36265 0.66346 1.00816 0.0
H293 H 0.25658 0.59303 0.044 0.0
H294 H 0.33181 0.60973 0.06287 0.0
S295 S 0.35718 0.73261 0.90271 0.0
N296 N 0.30544 0.69967 0.91955 0.0
N297 N 0.38663 0.71885 0.93997 0.0
C298 C 0.35441 0.68589 0.96837 0.0
C299 C 0.31068 0.67535 0.95682 0.0
C300 C 0.45899 0.01854 0.30181 0.0
C301 C 0.50228 0.0535 0.30859 0.0
C302 C 0.44996 0.97501 0.29884 0.0
C303 C 0.48389 0.96483 0.30253 0.0
H304 H 0.43153 0.02456 0.30029 0.0
H305 H 0.41597 0.94913 0.29512 0.0
S306 S 0.60348 0.04479 0.31585 0.0
N307 N 0.5798 0.07534 0.31553 0.0
N308 N 0.56299 -0.00641 0.30978 0.0
C309 C 0.52761 -0.00034 0.30711 0.0
C310 C 0.53677 0.044 0.31014 0.0
C311 C 0.50584 0.52916 0.63398 0.0
C312 C 0.46277 0.49719 0.64771 0.0
C313 C 0.54024 0.51997 0.63572 0.0
C314 C 0.53297 0.47844 0.65124 0.0
H315 H 0.51335 0.5619 0.62248 0.0
H316 H 0.57299 0.54603 0.62562 0.0
S317 S 0.42587 0.38257 0.68935 0.0
N318 N 0.41426 0.42171 0.67585 0.0
N319 N 0.47925 0.40444 0.67914 0.0
C320 C 0.48984 0.44563 0.66367 0.0
C321 C 0.45465 0.45502 0.66194 0.0
C322 C 0.94401 0.47101 0.97917 0.0
C323 C 0.9358 0.42789 0.98663 0.0
C324 C 0.98677 0.50586 0.97178 0.0
C325 C 0.02314 0.4991 0.97167 0.0
H326 H 0.91729 0.47817 0.97972 0.0
H327 H -0.00872 0.53858 0.9672 0.0
S328 S 0.01936 0.3921 0.98753 0.0
N329 N 0.96745 0.3799 0.99168 0.0
N330 N 0.04809 0.44577 0.97802 0.0
C331 C 0.01541 0.45598 0.97766 0.0
C332 C 0.97168 0.4203 0.98514 0.0
C333 C 0.01583 0.47564 0.44444 0.0
C334 C 0.04968 0.51606 0.42561 0.0
C335 C 0.97194 0.46555 0.44323 0.0
C336 C 0.96015 0.4955 0.42322 0.0
H337 H 0.02307 0.45095 0.45902 0.0
H338 H 0.94703 0.43363 0.45736 0.0
S339 S 0.03656 0.60672 0.37087 0.0
N340 N 0.0688 0.58698 0.38785 0.0
N341 N 0.98602 0.56809 0.38576 0.0
C342 C -0.0062 0.53678 0.40592 0.0
C343 C 0.03867 0.54707 0.40715 0.0
C344 C 0.51 0.98786 0.76418 0.0
C345 C 0.50256 0.02371 0.76653 0.0
C346 C 0.47515 0.94485 0.7594 0.0
C347 C 0.43143 0.93594 0.75684 0.0
H348 H 0.54315 -0.00704 0.7647 0.0
H349 H 0.48278 0.91856 0.75639 0.0
S350 S 0.39386 0.01784 0.76542 0.0
N351 N 0.44805 0.04735 0.76898 0.0
N352 N 0.38219 0.96624 0.7602 0.0
C353 C 0.42325 0.97126 0.76136 0.0
C354 C 0.45891 0.01523 0.76617 0.0
C355 C 0.45718 0.5057 0.07325 0.0
C356 C 0.49157 0.54932 0.07852 0.0
C357 C 0.46502 0.47042 0.07764 0.0
C358 C 0.50757 0.47739 0.08741 0.0
H359 H 0.42401 0.49866 0.06475 0.0
H360 H 0.43754 0.43747 0.07229 0.0
S361 S 0.60859 0.58523 0.10766 0.0
N362 N 0.56956 0.59751 0.09652 0.0
N363 N 0.58421 0.53111 0.10456 0.0
C364 C 0.54209 0.52077 0.09406 0.0
C365 C 0.53412 0.55675 0.08968 0.0
C366 C 0.48579 0.22115 0.19867 0.0
C367 C 0.48684 0.22825 0.25224 0.0
C368 C 0.48409 0.2505 0.16276 0.0
C369 C 0.4849 0.2891 0.17883 0.0
H370 H 0.48772 0.19324 0.1842 0.0
H371 H 0.48472 0.24407 0.12222 0.0
S372 S 0.4829 0.32089 0.31464 0.0
N373 N 0.48426 0.27459 0.31933 0.0
N374 N 0.48258 0.33054 0.25249 0.0
C375 C 0.48342 0.29527 0.23237 0.0
C376 C 0.48406 0.26475 0.26888 0.0
C377 C 0.21485 0.49406 0.54164 0.0
C378 C 0.22048 0.49319 0.48799 0.0
C379 C 0.244 0.49141 0.57692 0.0
C380 C 0.28107 0.48942 0.56004 0.0
H381 H 0.18823 0.49809 0.55661 0.0
H382 H 0.23868 0.49337 0.61756 0.0
S383 S 0.30841 0.48174 0.42369 0.0
N384 N 0.26354 0.48588 0.42001 0.0
N385 N 0.31927 0.48247 0.4856 0.0
C386 C 0.28568 0.48609 0.50646 0.0
C387 C 0.25527 0.48768 0.47065 0.0
C388 C 0.76396 0.25315 0.86644 0.0
C389 C 0.75842 0.24548 0.92006 0.0
C390 C 0.73357 0.22324 0.8307 0.0
C391 C 0.69563 0.1849 0.84718 0.0
H392 H 0.79143 0.28336 0.85187 0.0
H393 H 0.7386 0.23156 0.79026 0.0
S394 S 0.66802 0.14663 0.98263 0.0
N395 N 0.71425 0.1942 0.98708 0.0
N396 N 0.65658 0.13873 0.92067 0.0
C397 C 0.69111 0.17558 0.90047 0.0
C398 C 0.72255 0.20561 0.9367 0.0
C399 C 0.50314 0.7716 0.13595 0.0
C400 C 0.50172 0.73274 0.15226 0.0
C401 C 0.50259 0.80136 0.17172 0.0
C402 C 0.50142 0.79409 0.22542 0.0
H403 H 0.50208 0.77786 0.09532 0.0
H404 H 0.5014 0.82966 0.15691 0.0
S405 S 0.50445 0.70045 0.28789 0.0
N406 N 0.50335 0.69049 0.22576 0.0
N407 N 0.50445 0.74741 0.29254 0.0
C408 C 0.50358 0.75709 0.24215 0.0
C409 C 0.50306 0.72618 0.20571 0.0
C410 C 0.76055 0.499 0.59477 0.0
C411 C 0.72204 0.4985 0.57874 0.0
C412 C 0.79099 0.49989 0.55869 0.0
C413 C 0.78469 0.5011 0.50506 0.0
H414 H 0.76599 0.4961 0.63524 0.0
H415 H 0.81903 0.49802 0.57313 0.0
S416 S 0.69208 0.50703 0.44384 0.0
N417 N 0.68105 0.50329 0.50594 0.0
N418 N 0.73909 0.50708 0.43869 0.0
C419 C 0.74791 0.50401 0.48889 0.0
C420 C 0.71639 0.50203 0.52555 0.0
C421 C 0.18177 0.68559 0.83227 0.0
C422 C 0.1857 0.693 0.88599 0.0
C423 C 0.21156 0.71696 0.79705 0.0
C424 C 0.24708 0.75678 0.81415 0.0
H425 H 0.15634 0.65442 0.81725 0.0
H426 H 0.20834 0.70876 0.75659 0.0
S427 S 0.26966 0.7951 0.94954 0.0
N428 N 0.22542 0.74582 0.95336 0.0
N429 N 0.28242 0.80373 0.88789 0.0
C430 C 0.25006 0.76569 0.86734 0.0
C431 C 0.2191 0.73419 0.90305 0.0
loop_
_geom_bond_atom_site_label_1
_geom_bond_atom_site_label_2
_geom_bond_distance
_geom_bond_site_symmetry_2
_ccdc_geom_bond_type
Co0 O1 2.216 . S
Co0 O2 2.091 . S
Co0 O4 2.004 . S
Co0 O10 2.021 . S
Co0 O12 2.137 . S
Co0 O13 2.244 . S
O1 Co0 2.216 . S
O1 C8 1.247 . S
O2 Co0 2.091 . S
O2 C8 1.261 . S
C3 O12 1.247 . S
C3 O13 1.272 . S
O4 Co0 2.004 . S
O4 C9 1.259 . S
Co5 O6 2.061 . S
Co5 O11 2.052 . S
Co5 O13 2.135 . S
O6 Co5 2.061 . S
O6 C9 1.235 . S
C7 O10 1.238 . S
C7 O11 1.241 . S
C8 O1 1.247 . S
C8 O2 1.261 . S
C9 O4 1.259 . S
C9 O6 1.235 . S
O10 Co0 2.021 . S
O10 C7 1.238 . S
O11 Co5 2.052 . S
O11 C7 1.241 . S
O12 Co0 2.137 . S
O12 C3 1.247 . S
O13 Co0 2.244 . S
O13 C3 1.272 . S
O13 Co5 2.135 . S
Co14 O15 2.216 . S
Co14 O16 2.091 . S
Co14 O18 2.004 . S
Co14 O24 2.021 . S
Co14 O26 2.137 . S
Co14 O27 2.244 . S
O15 Co14 2.216 . S
O15 C22 1.247 . S
O16 Co14 2.091 . S
O16 C22 1.261 . S
C17 O26 1.247 . S
C17 O27 1.272 . S
O18 Co14 2.004 . S
O18 C23 1.259 . S
Co19 O20 2.061 . S
Co19 O25 2.052 . S
Co19 O27 2.135 . S
O20 Co19 2.061 . S
O20 C23 1.235 . S
C21 O24 1.238 . S
C21 O25 1.241 . S
C22 O15 1.247 . S
C22 O16 1.261 . S
C23 O18 1.259 . S
C23 O20 1.235 . S
O24 Co14 2.021 . S
O24 C21 1.238 . S
O25 Co19 2.052 . S
O25 C21 1.241 . S
O26 Co14 2.137 . S
O26 C17 1.247 . S
O27 Co14 2.244 . S
O27 C17 1.272 . S
O27 Co19 2.135 . S
Co28 O29 2.216 . S
Co28 O30 2.091 . S
Co28 O32 2.004 . S
Co28 O38 2.021 1_556 S
Co28 O40 2.137 . S
Co28 O41 2.244 . S
O29 Co28 2.216 . S
O29 C36 1.247 . S
O30 Co28 2.091 . S
O30 C36 1.261 . S
C31 O40 1.247 . S
C31 O41 1.272 . S
O32 Co28 2.004 . S
O32 C37 1.259 . S
Co33 O34 2.061 . S
Co33 O39 2.052 . S
Co33 O41 2.135 1_554 S
O34 Co33 2.061 . S
O34 C37 1.235 1_554 S
C35 O38 1.238 . S
C35 O39 1.241 . S
C36 O29 1.247 . S
C36 O30 1.261 . S
C37 O32 1.259 . S
C37 O34 1.235 1_556 S
O38 Co28 2.021 1_554 S
O38 C35 1.238 . S
O39 Co33 2.052 . S
O39 C35 1.241 . S
O40 Co28 2.137 . S
O40 C31 1.247 . S
O41 Co28 2.244 . S
O41 C31 1.272 . S
O41 Co33 2.135 1_556 S
Co42 O43 2.216 . S
Co42 O44 2.091 . S
Co42 O46 2.004 . S
Co42 O52 2.021 . S
Co42 O54 2.137 . S
Co42 O55 2.244 . S
O43 Co42 2.216 . S
O43 C50 1.247 . S
O44 Co42 2.091 . S
O44 C50 1.261 . S
C45 O54 1.247 . S
C45 O55 1.272 . S
O46 Co42 2.004 . S
O46 C51 1.259 . S
Co47 O48 2.061 . S
Co47 O53 2.052 . S
Co47 O55 2.135 . S
O48 Co47 2.061 . S
O48 C51 1.235 . S
C49 O52 1.238 . S
C49 O53 1.241 . S
C50 O43 1.247 . S
C50 O44 1.261 . S
C51 O46 1.259 . S
C51 O48 1.235 . S
O52 Co42 2.021 . S
O52 C49 1.238 . S
O53 Co47 2.052 . S
O53 C49 1.241 . S
O54 Co42 2.137 . S
O54 C45 1.247 . S
O55 Co42 2.244 . S
O55 C45 1.272 . S
O55 Co47 2.135 . S
Co56 O57 2.216 . S
Co56 O58 2.091 . S
Co56 O60 2.004 . S
Co56 O66 2.021 . S
Co56 O68 2.137 . S
Co56 O69 2.244 . S
O57 Co56 2.216 . S
O57 C64 1.247 . S
O58 Co56 2.091 . S
O58 C64 1.261 . S
C59 O68 1.247 . S
C59 O69 1.272 . S
O60 Co56 2.004 . S
O60 C65 1.259 . S
Co61 O62 2.061 . S
Co61 O67 2.052 . S
Co61 O69 2.135 . S
O62 Co61 2.061 . S
O62 C65 1.235 . S
C63 O66 1.238 . S
C63 O67 1.241 . S
C64 O57 1.247 . S
C64 O58 1.261 . S
C65 O60 1.259 . S
C65 O62 1.235 . S
O66 Co56 2.021 . S
O66 C63 1.238 . S
O67 Co61 2.052 . S
O67 C63 1.241 . S
O68 Co56 2.137 . S
O68 C59 1.247 . S
O69 Co56 2.244 . S
O69 C59 1.272 . S
O69 Co61 2.135 . S
Co70 O71 2.216 . S
Co70 O72 2.091 . S
Co70 O74 2.004 . S
Co70 O80 2.021 1_556 S
Co70 O82 2.137 . S
Co70 O83 2.244 . S
O71 Co70 2.216 . S
O71 C78 1.247 . S
O72 Co70 2.091 . S
O72 C78 1.261 . S
C73 O82 1.247 . S
C73 O83 1.272 . S
O74 Co70 2.004 . S
O74 C79 1.259 . S
Co75 O76 2.061 . S
Co75 O81 2.052 . S
Co75 O83 2.135 1_554 S
O76 Co75 2.061 . S
O76 C79 1.235 1_554 S
C77 O80 1.238 . S
C77 O81 1.241 . S
C78 O71 1.247 . S
C78 O72 1.261 . S
C79 O74 1.259 . S
C79 O76 1.235 1_556 S
O80 Co70 2.021 1_554 S
O80 C77 1.238 . S
O81 Co75 2.052 . S
O81 C77 1.241 . S
O82 Co70 2.137 . S
O82 C73 1.247 . S
O83 Co70 2.244 . S
O83 C73 1.272 . S
O83 Co75 2.135 1_556 S
Co84 O85 2.216 . S
Co84 O86 2.091 . S
Co84 O88 2.004 . S
Co84 O94 2.021 . S
Co84 O96 2.137 . S
Co84 O97 2.244 . S
O85 Co84 2.216 . S
O85 C92 1.247 . S
O86 Co84 2.091 . S
O86 C92 1.261 . S
C87 O96 1.247 . S
C87 O97 1.272 . S
O88 Co84 2.004 . S
O88 C93 1.259 . S
Co89 O90 2.061 . S
Co89 O95 2.052 . S
Co89 O97 2.135 . S
O90 Co89 2.061 . S
O90 C93 1.235 . S
C91 O94 1.238 . S
C91 O95 1.241 . S
C92 O85 1.247 . S
C92 O86 1.261 . S
C93 O88 1.259 . S
C93 O90 1.235 . S
O94 Co84 2.021 . S
O94 C91 1.238 . S
O95 Co89 2.052 . S
O95 C91 1.241 . S
O96 Co84 2.137 . S
O96 C87 1.247 . S
O97 Co84 2.244 . S
O97 C87 1.272 . S
O97 Co89 2.135 . S
Co98 O99 2.216 . S
Co98 O100 2.091 . S
Co98 O102 2.004 . S
Co98 O108 2.021 . S
Co98 O110 2.137 . S
Co98 O111 2.244 . S
O99 Co98 2.216 . S
O99 C106 1.247 . S
O100 Co98 2.091 . S
O100 C106 1.261 . S
C101 O110 1.247 . S
C101 O111 1.272 . S
O102 Co98 2.004 . S
O102 C107 1.259 . S
Co103 O104 2.061 . S
Co103 O109 2.052 . S
Co103 O111 2.135 . S
O104 Co103 2.061 . S
O104 C107 1.235 . S
C105 O108 1.238 . S
C105 O109 1.241 . S
C106 O99 1.247 . S
C106 O100 1.261 . S
C107 O102 1.259 . S
C107 O104 1.235 . S
O108 Co98 2.021 . S
O108 C105 1.238 . S
O109 Co103 2.052 . S
O109 C105 1.241 . S
O110 Co98 2.137 . S
O110 C101 1.247 . S
O111 Co98 2.244 . S
O111 C101 1.272 . S
O111 Co103 2.135 . S
Co112 O113 2.216 . S
Co112 O114 2.091 . S
Co112 O116 2.004 . S
Co112 O122 2.021 1_554 S
Co112 O124 2.137 . S
Co112 O125 2.244 . S
O113 Co112 2.216 . S
O113 C120 1.247 . S
O114 Co112 2.091 . S
O114 C120 1.261 . S
C115 O124 1.247 . S
C115 O125 1.272 . S
O116 Co112 2.004 . S
O116 C121 1.259 . S
Co117 O118 2.061 1_556 S
Co117 O123 2.052 . S
Co117 O125 2.135 1_556 S
O118 Co117 2.061 1_554 S
O118 C121 1.235 . S
C119 O122 1.238 . S
C119 O123 1.241 . S
C120 O113 1.247 . S
C120 O114 1.261 . S
C121 O116 1.259 . S
C121 O118 1.235 . S
O122 Co112 2.021 1_556 S
O122 C119 1.238 . S
O123 Co117 2.052 . S
O123 C119 1.241 . S
O124 Co112 2.137 . S
O124 C115 1.247 . S
O125 Co112 2.244 . S
O125 C115 1.272 . S
O125 Co117 2.135 1_554 S
Co126 O127 2.216 . S
Co126 O128 2.091 . S
Co126 O130 2.004 . S
Co126 O136 2.021 . S
Co126 O138 2.137 . S
Co126 O139 2.244 . S
O127 Co126 2.216 . S
O127 C134 1.247 . S
O128 Co126 2.091 . S
O128 C134 1.261 . S
C129 O138 1.247 . S
C129 O139 1.272 . S
O130 Co126 2.004 . S
O130 C135 1.259 . S
Co131 O132 2.061 . S
Co131 O137 2.052 . S
Co131 O139 2.135 . S
O132 Co131 2.061 . S
O132 C135 1.235 . S
C133 O136 1.238 . S
C133 O137 1.241 . S
C134 O127 1.247 . S
C134 O128 1.261 . S
C135 O130 1.259 . S
C135 O132 1.235 . S
O136 Co126 2.021 . S
O136 C133 1.238 . S
O137 Co131 2.052 . S
O137 C133 1.241 . S
O138 Co126 2.137 . S
O138 C129 1.247 . S
O139 Co126 2.244 . S
O139 C129 1.272 . S
O139 Co131 2.135 . S
Co140 O141 2.216 . S
Co140 O142 2.091 . S
Co140 O144 2.004 . S
Co140 O150 2.021 . S
Co140 O152 2.137 . S
Co140 O153 2.244 . S
O141 Co140 2.216 . S
O141 C148 1.247 . S
O142 Co140 2.091 . S
O142 C148 1.261 . S
C143 O152 1.247 . S
C143 O153 1.272 . S
O144 Co140 2.004 . S
O144 C149 1.259 . S
Co145 O146 2.061 . S
Co145 O151 2.052 . S
Co145 O153 2.135 . S
O146 Co145 2.061 . S
O146 C149 1.235 . S
C147 O150 1.238 . S
C147 O151 1.241 . S
C148 O141 1.247 . S
C148 O142 1.261 . S
C149 O144 1.259 . S
C149 O146 1.235 . S
O150 Co140 2.021 . S
O150 C147 1.238 . S
O151 Co145 2.052 . S
O151 C147 1.241 . S
O152 Co140 2.137 . S
O152 C143 1.247 . S
O153 Co140 2.244 . S
O153 C143 1.272 . S
O153 Co145 2.135 . S
Co154 O155 2.216 . S
Co154 O156 2.091 . S
Co154 O158 2.004 . S
Co154 O164 2.021 1_554 S
Co154 O166 2.137 . S
Co154 O167 2.244 . S
O155 Co154 2.216 . S
O155 C162 1.247 . S
O156 Co154 2.091 . S
O156 C162 1.261 . S
C157 O166 1.247 . S
C157 O167 1.272 . S
O158 Co154 2.004 . S
O158 C163 1.259 . S
Co159 O160 2.061 1_556 S
Co159 O165 2.052 . S
Co159 O167 2.135 1_556 S
O160 Co159 2.061 1_554 S
O160 C163 1.235 . S
C161 O164 1.238 . S
C161 O165 1.241 . S
C162 O155 1.247 . S
C162 O156 1.261 . S
C163 O158 1.259 . S
C163 O160 1.235 . S
O164 Co154 2.021 1_556 S
O164 C161 1.238 . S
O165 Co159 2.052 . S
O165 C161 1.241 . S
O166 Co154 2.137 . S
O166 C157 1.247 . S
O167 Co154 2.244 . S
O167 C157 1.272 . S
O167 Co159 2.135 1_554 S
C168 C169 1.369 . S
C168 C170 1.419 . S
C168 H172 0.930 . S
C169 C168 1.369 . S
C169 C178 1.429 . S
C170 C168 1.419 . S
C170 C171 1.363 . S
C170 H173 0.929 . S
C171 C170 1.363 . S
C171 C177 1.428 . S
H172 C168 0.930 . S
H173 C170 0.929 . S
S174 N175 1.613 . S
S174 N176 1.610 . S
N175 S174 1.613 . S
N175 C178 1.350 . S
N176 S174 1.610 . S
N176 C177 1.351 . S
C177 C171 1.428 . S
C177 N176 1.351 . S
C177 C178 1.434 . S
C178 C169 1.429 . S
C178 N175 1.350 . S
C178 C177 1.434 . S
C179 C180 1.369 . S
C179 C181 1.419 . S
C179 H183 0.930 . S
C180 C179 1.369 . S
C180 C189 1.429 . S
C181 C179 1.419 . S
C181 C182 1.363 . S
C181 H184 0.929 . S
C182 C181 1.363 . S
C182 C188 1.428 . S
H183 C179 0.930 . S
H184 C181 0.929 . S
S185 N186 1.613 . S
S185 N187 1.610 . S
N186 S185 1.613 . S
N186 C189 1.350 . S
N187 S185 1.610 . S
N187 C188 1.351 . S
C188 C182 1.428 . S
C188 N187 1.351 . S
C188 C189 1.434 . S
C189 C180 1.429 . S
C189 N186 1.350 . S
C189 C188 1.434 . S
C190 C191 1.369 . S
C190 C192 1.419 . S
C190 H194 0.930 . S
C191 C190 1.369 . S
C191 C200 1.429 . S
C192 C190 1.419 . S
C192 C193 1.363 . S
C192 H195 0.929 . S
C193 C192 1.363 . S
C193 C199 1.428 . S
H194 C190 0.930 . S
H195 C192 0.929 . S
S196 N197 1.613 . S
S196 N198 1.610 . S
N197 S196 1.613 . S
N197 C200 1.350 . S
N198 S196 1.610 . S
N198 C199 1.351 . S
C199 C193 1.428 . S
C199 N198 1.351 . S
C199 C200 1.434 . S
C200 C191 1.429 . S
C200 N197 1.350 . S
C200 C199 1.434 . S
C201 C202 1.369 . S
C201 C203 1.419 . S
C201 H205 0.930 . S
C202 C201 1.369 . S
C202 C211 1.429 . S
C203 C201 1.419 . S
C203 C204 1.363 . S
C203 H206 0.929 . S
C204 C203 1.363 . S
C204 C210 1.428 . S
H205 C201 0.930 . S
H206 C203 0.929 . S
S207 N208 1.613 . S
S207 N209 1.610 . S
N208 S207 1.613 . S
N208 C211 1.350 . S
N209 S207 1.610 . S
N209 C210 1.351 . S
C210 C204 1.428 . S
C210 N209 1.351 . S
C210 C211 1.434 . S
C211 C202 1.429 . S
C211 N208 1.350 . S
C211 C210 1.434 . S
C212 C213 1.369 . S
C212 C214 1.419 . S
C212 H216 0.930 . S
C213 C212 1.369 . S
C213 C222 1.429 . S
C214 C212 1.419 . S
C214 C215 1.363 . S
C214 H217 0.929 . S
C215 C214 1.363 . S
C215 C221 1.428 . S
H216 C212 0.930 . S
H217 C214 0.929 . S
S218 N219 1.613 . S
S218 N220 1.610 . S
N219 S218 1.613 . S
N219 C222 1.350 . S
N220 S218 1.610 . S
N220 C221 1.351 . S
C221 C215 1.428 . S
C221 N220 1.351 . S
C221 C222 1.434 . S
C222 C213 1.429 . S
C222 N219 1.350 . S
C222 C221 1.434 . S
C223 C224 1.369 . S
C223 C225 1.419 . S
C223 H227 0.930 . S
C224 C223 1.369 . S
C224 C233 1.429 . S
C225 C223 1.419 . S
C225 C226 1.363 . S
C225 H228 0.929 . S
C226 C225 1.363 . S
C226 C232 1.428 . S
H227 C223 0.930 . S
H228 C225 0.929 . S
S229 N230 1.613 . S
S229 N231 1.610 . S
N230 S229 1.613 . S
N230 C233 1.350 . S
N231 S229 1.610 . S
N231 C232 1.351 . S
C232 C226 1.428 . S
C232 N231 1.351 . S
C232 C233 1.434 . S
C233 C224 1.429 . S
C233 N230 1.350 . S
C233 C232 1.434 . S
C234 C235 1.369 . S
C234 C236 1.419 . S
C234 H238 0.930 . S
C235 C234 1.369 . S
C235 C244 1.429 . S
C236 C234 1.419 . S
C236 C237 1.363 . S
C236 H239 0.929 . S
C237 C236 1.363 . S
C237 C243 1.428 . S
H238 C234 0.930 . S
H239 C236 0.929 . S
S240 N241 1.613 . S
S240 N242 1.610 . S
N241 S240 1.613 . S
N241 C244 1.350 . S
N242 S240 1.610 . S
N242 C243 1.351 . S
C243 C237 1.428 . S
C243 N242 1.351 . S
C243 C244 1.434 . S
C244 C235 1.429 . S
C244 N241 1.350 . S
C244 C243 1.434 . S
C245 C246 1.369 . S
C245 C247 1.419 . S
C245 H249 0.930 . S
C246 C245 1.369 . S
C246 C255 1.429 . S
C247 C245 1.419 . S
C247 C248 1.363 . S
C247 H250 0.929 . S
C248 C247 1.363 . S
C248 C254 1.428 . S
H249 C245 0.930 . S
H250 C247 0.929 . S
S251 N252 1.613 . S
S251 N253 1.610 . S
N252 S251 1.613 . S
N252 C255 1.350 . S
N253 S251 1.610 . S
N253 C254 1.351 . S
C254 C248 1.428 . S
C254 N253 1.351 . S
C254 C255 1.434 . S
C255 C246 1.429 . S
C255 N252 1.350 . S
C255 C254 1.434 . S
C256 C257 1.369 . S
C256 C258 1.419 . S
C256 H260 0.930 . S
C257 C256 1.369 . S
C257 C266 1.429 1_554 S
C258 C256 1.419 . S
C258 C259 1.363 1_554 S
C258 H261 0.929 . S
C259 C258 1.363 1_556 S
C259 C265 1.428 . S
H260 C256 0.930 . S
H261 C258 0.929 . S
S262 N263 1.613 . S
S262 N264 1.610 . S
N263 S262 1.613 . S
N263 C266 1.350 . S
N264 S262 1.610 . S
N264 C265 1.351 . S
C265 C259 1.428 . S
C265 N264 1.351 . S
C265 C266 1.434 . S
C266 C257 1.429 1_556 S
C266 N263 1.350 . S
C266 C265 1.434 . S
C267 C268 1.369 . S
C267 C269 1.419 . S
C267 H271 0.930 . S
C268 C267 1.369 . S
C268 C277 1.429 . S
C269 C267 1.419 . S
C269 C270 1.363 . S
C269 H272 0.929 . S
C270 C269 1.363 . S
C270 C276 1.428 . S
H271 C267 0.930 . S
H272 C269 0.929 . S
S273 N274 1.613 . S
S273 N275 1.610 . S
N274 S273 1.613 . S
N274 C277 1.350 . S
N275 S273 1.610 . S
N275 C276 1.351 . S
C276 C270 1.428 . S
C276 N275 1.351 . S
C276 C277 1.434 . S
C277 C268 1.429 . S
C277 N274 1.350 . S
C277 C276 1.434 . S
C278 C279 1.369 . S
C278 C280 1.419 . S
C278 H282 0.930 . S
C279 C278 1.369 . S
C279 C288 1.429 . S
C280 C278 1.419 . S
C280 C281 1.363 . S
C280 H283 0.929 . S
C281 C280 1.363 . S
C281 C287 1.428 . S
H282 C278 0.930 . S
H283 C280 0.929 . S
S284 N285 1.613 . S
S284 N286 1.610 . S
N285 S284 1.613 . S
N285 C288 1.350 . S
N286 S284 1.610 . S
N286 C287 1.351 . S
C287 C281 1.428 . S
C287 N286 1.351 . S
C287 C288 1.434 . S
C288 C279 1.429 . S
C288 N285 1.350 . S
C288 C287 1.434 . S
C289 C290 1.369 1_554 S
C289 C291 1.419 . S
C289 H293 0.930 . S
C290 C289 1.369 1_556 S
C290 C299 1.429 . S
C291 C289 1.419 . S
C291 C292 1.363 . S
C291 H294 0.929 . S
C292 C291 1.363 . S
C292 C298 1.428 1_554 S
H293 C289 0.930 . S
H294 C291 0.929 . S
S295 N296 1.613 . S
S295 N297 1.610 . S
N296 S295 1.613 . S
N296 C299 1.350 . S
N297 S295 1.610 . S
N297 C298 1.351 . S
C298 C292 1.428 1_556 S
C298 N297 1.351 . S
C298 C299 1.434 . S
C299 C290 1.429 . S
C299 N296 1.350 . S
C299 C298 1.434 . S
C300 C301 1.369 . S
C300 C302 1.419 1_545 S
C300 H304 0.930 . S
C301 C300 1.369 . S
C301 C310 1.429 . S
C302 C300 1.419 1_565 S
C302 C303 1.363 . S
C302 H305 0.929 . S
C303 C302 1.363 . S
C303 C309 1.428 . S
H304 C300 0.930 . S
H305 C302 0.929 . S
S306 N307 1.613 . S
S306 N308 1.610 1_545 S
N307 S306 1.613 . S
N307 C310 1.350 . S
N308 S306 1.610 1_565 S
N308 C309 1.351 . S
C309 C303 1.428 . S
C309 N308 1.351 . S
C309 C310 1.434 1_565 S
C310 C301 1.429 . S
C310 N307 1.350 . S
C310 C309 1.434 1_545 S
C311 C312 1.369 . S
C311 C313 1.419 . S
C311 H315 0.930 . S
C312 C311 1.369 . S
C312 C321 1.429 . S
C313 C311 1.419 . S
C313 C314 1.363 . S
C313 H316 0.929 . S
C314 C313 1.363 . S
C314 C320 1.428 . S
H315 C311 0.930 . S
H316 C313 0.929 . S
S317 N318 1.613 . S
S317 N319 1.610 . S
N318 S317 1.613 . S
N318 C321 1.350 . S
N319 S317 1.610 . S
N319 C320 1.351 . S
C320 C314 1.428 . S
C320 N319 1.351 . S
C320 C321 1.434 . S
C321 C312 1.429 . S
C321 N318 1.350 . S
C321 C320 1.434 . S
C322 C323 1.369 1_554 S
C322 C324 1.419 1_655 S
C322 H326 0.930 . S
C323 C322 1.369 1_556 S
C323 C332 1.429 . S
C324 C322 1.419 1_455 S
C324 C325 1.363 1_554 S
C324 H327 0.929 . S
C325 C324 1.363 1_556 S
C325 C331 1.428 . S
H326 C322 0.930 . S
H327 C324 0.929 . S
S328 N329 1.613 1_455 S
S328 N330 1.610 . S
N329 S328 1.613 1_655 S
N329 C332 1.350 . S
N330 S328 1.610 . S
N330 C331 1.351 . S
C331 C325 1.428 . S
C331 N330 1.351 . S
C331 C332 1.434 1_455 S
C332 C323 1.429 . S
C332 N329 1.350 . S
C332 C331 1.434 1_655 S
C333 C334 1.369 . S
C333 C335 1.419 1_455 S
C333 H337 0.930 . S
C334 C333 1.369 . S
C334 C343 1.429 . S
C335 C333 1.419 1_655 S
C335 C336 1.363 . S
C335 H338 0.929 . S
C336 C335 1.363 . S
C336 C342 1.428 . S
H337 C333 0.930 . S
H338 C335 0.929 . S
S339 N340 1.613 . S
S339 N341 1.603 1_455 S
N340 S339 1.613 . S
N340 C343 1.350 . S
N341 S339 1.603 1_655 S
N341 C342 1.347 . S
C342 C336 1.428 . S
C342 N341 1.347 . S
C342 C343 1.434 1_655 S
C343 C334 1.429 . S
C343 N340 1.350 . S
C343 C342 1.434 1_455 S
C344 C345 1.369 . S
C344 C346 1.419 1_545 S
C344 H348 0.930 . S
C345 C344 1.369 . S
C345 C354 1.429 . S
C346 C344 1.419 1_565 S
C346 C347 1.363 . S
C346 H349 0.929 . S
C347 C346 1.363 . S
C347 C353 1.428 . S
H348 C344 0.930 . S
H349 C346 0.929 . S
S350 N351 1.613 . S
S350 N352 1.610 1_545 S
N351 S350 1.613 . S
N351 C354 1.350 . S
N352 S350 1.610 1_565 S
N352 C353 1.351 . S
C353 C347 1.428 . S
C353 N352 1.351 . S
C353 C354 1.434 1_565 S
C354 C345 1.429 . S
C354 N351 1.350 . S
C354 C353 1.434 1_545 S
C355 C356 1.369 . S
C355 C357 1.419 . S
C355 H359 0.930 1_554 S
C356 C355 1.369 . S
C356 C365 1.429 . S
C357 C355 1.419 . S
C357 C358 1.363 . S
C357 H360 0.929 1_554 S
C358 C357 1.363 . S
C358 C364 1.428 . S
H359 C355 0.930 1_556 S
H360 C357 0.929 1_556 S
S361 N362 1.613 . S
S361 N363 1.610 . S
N362 S361 1.613 . S
N362 C365 1.350 . S
N363 S361 1.610 . S
N363 C364 1.351 . S
C364 C358 1.428 . S
C364 N363 1.351 . S
C364 C365 1.434 . S
C365 C356 1.429 . S
C365 N362 1.350 . S
C365 C364 1.434 . S
C366 C367 1.369 . S
C366 C368 1.419 . S
C366 H370 0.930 . S
C367 C366 1.369 . S
C367 C376 1.429 . S
C368 C366 1.419 . S
C368 C369 1.363 . S
C368 H371 0.929 . S
C369 C368 1.363 . S
C369 C375 1.428 . S
H370 C366 0.930 . S
H371 C368 0.929 . S
S372 N373 1.613 . S
S372 N374 1.610 . S
N373 S372 1.613 . S
N373 C376 1.350 . S
N374 S372 1.610 . S
N374 C375 1.351 . S
C375 C369 1.428 . S
C375 N374 1.351 . S
C375 C376 1.434 . S
C376 C367 1.429 . S
C376 N373 1.350 . S
C376 C375 1.434 . S
C377 C378 1.369 . S
C377 C379 1.419 . S
C377 H381 0.930 . S
C378 C377 1.369 . S
C378 C387 1.429 . S
C379 C377 1.419 . S
C379 C380 1.363 . S
C379 H382 0.929 . S
C380 C379 1.363 . S
C380 C386 1.428 . S
H381 C377 0.930 . S
H382 C379 0.929 . S
S383 N384 1.613 . S
S383 N385 1.610 . S
N384 S383 1.613 . S
N384 C387 1.350 . S
N385 S383 1.610 . S
N385 C386 1.351 . S
C386 C380 1.428 . S
C386 N385 1.351 . S
C386 C387 1.434 . S
C387 C378 1.429 . S
C387 N384 1.350 . S
C387 C386 1.434 . S
C388 C389 1.369 . S
C388 C390 1.419 . S
C388 H392 0.930 . S
C389 C388 1.369 . S
C389 C398 1.429 . S
C390 C388 1.419 . S
C390 C391 1.363 . S
C390 H393 0.929 . S
C391 C390 1.363 . S
C391 C397 1.428 . S
H392 C388 0.930 . S
H393 C390 0.929 . S
S394 N395 1.613 . S
S394 N396 1.610 . S
N395 S394 1.613 . S
N395 C398 1.350 . S
N396 S394 1.610 . S
N396 C397 1.351 . S
C397 C391 1.428 . S
C397 N396 1.351 . S
C397 C398 1.434 . S
C398 C389 1.429 . S
C398 N395 1.350 . S
C398 C397 1.434 . S
C399 C400 1.369 . S
C399 C401 1.419 . S
C399 H403 0.930 . S
C400 C399 1.369 . S
C400 C409 1.429 . S
C401 C399 1.419 . S
C401 C402 1.363 . S
C401 H404 0.929 . S
C402 C401 1.363 . S
C402 C408 1.428 . S
H403 C399 0.930 . S
H404 C401 0.929 . S
S405 N406 1.613 . S
S405 N407 1.610 . S
N406 S405 1.613 . S
N406 C409 1.350 . S
N407 S405 1.610 . S
N407 C408 1.351 . S
C408 C402 1.428 . S
C408 N407 1.351 . S
C408 C409 1.434 . S
C409 C400 1.429 . S
C409 N406 1.350 . S
C409 C408 1.434 . S
C410 C411 1.369 . S
C410 C412 1.419 . S
C410 H414 0.930 . S
C411 C410 1.369 . S
C411 C420 1.429 . S
C412 C410 1.419 . S
C412 C413 1.363 . S
C412 H415 0.929 . S
C413 C412 1.363 . S
C413 C419 1.428 . S
H414 C410 0.930 . S
H415 C412 0.929 . S
S416 N417 1.613 . S
S416 N418 1.610 . S
N417 S416 1.613 . S
N417 C420 1.350 . S
N418 S416 1.610 . S
N418 C419 1.351 . S
C419 C413 1.428 . S
C419 N418 1.351 . S
C419 C420 1.434 . S
C420 C411 1.429 . S
C420 N417 1.350 . S
C420 C419 1.434 . S
C421 C422 1.369 . S
C421 C423 1.419 . S
C421 H425 0.930 . S
C422 C421 1.369 . S
C422 C431 1.429 . S
C423 C421 1.419 . S
C423 C424 1.363 . S
C423 H426 0.929 . S
C424 C423 1.363 . S
C424 C430 1.428 . S
H425 C421 0.930 . S
H426 C423 0.929 . S
S427 N428 1.613 . S
S427 N429 1.610 . S
N428 S427 1.613 . S
N428 C431 1.350 . S
N429 S427 1.610 . S
N429 C430 1.351 . S
C430 C424 1.428 . S
C430 N429 1.351 . S
C430 C431 1.434 . S
C431 C422 1.429 . S
C431 N428 1.350 . S
C431 C430 1.434 . S
C169 C7 1.802 . S
C171 C147 1.806 . S
C180 C21 1.808 . S
C182 C161 1.801 . S
C191 C91 1.804 . S
C193 C35 1.805 . S
C202 C49 1.798 . S
C204 C105 1.806 . S
C213 C119 1.808 . S
C215 C63 1.802 . S
C224 C133 1.797 . S
C226 C77 1.805 . S
C235 C93 0.751 . S
C237 C9 0.739 . S
C246 C107 0.737 . S
C248 C23 0.749 . S
C257 C121 0.737 . S
C259 C37 0.749 . S
C268 C51 0.751 . S
C270 C135 0.739 . S
C279 C65 0.752 . S
C281 C149 0.750 . S
C290 C79 0.753 . S
C292 C163 0.740 . S
C301 C8 1.516 . S
C303 C50 1.515 . S
C312 C22 1.513 . S
C314 C64 1.513 . S
C323 C36 1.516 . S
C325 C78 1.514 . S
C334 C134 1.512 . S
C336 C92 1.516 . S
C345 C148 1.511 . S
C347 C106 1.516 . S
C356 C162 1.517 . S
C358 C120 1.514 . S
C367 C3 1.622 . S
C369 C115 1.620 . S
C378 C129 1.622 . S
C380 C17 1.620 . S
C389 C31 1.620 . S
C391 C143 1.619 . S
C400 C157 1.625 . S
C402 C45 1.625 . S
C411 C59 1.618 . S
C413 C87 1.621 . S
C422 C73 1.626 . S
C424 C101 1.626 . S
