# Generated by pormake.
# Topology uoj, (4)-cn, num edge types: 1
# Building blocks:
#     Node 0, Type 0, BuildingBlock: ICAMEG_clean_sbu_1, # of connection points: 4
#     Node 1, Type 0, BuildingBlock: ICAMEG_clean_sbu_1, # of connection points: 4
#     Node 2, Type 0, BuildingBlock: ICAMEG_clean_sbu_1, # of connection points: 4
#     Node 3, Type 0, BuildingBlock: ICAMEG_clean_sbu_1, # of connection points: 4
#     Node 4, Type 0, BuildingBlock: ICAMEG_clean_sbu_1, # of connection points: 4
#     Node 5, Type 0, BuildingBlock: ICAMEG_clean_sbu_1, # of connection points: 4
#     Node 6, Type 0, BuildingBlock: ICAMEG_clean_sbu_1, # of connection points: 4
#     Node 7, Type 0, BuildingBlock: ICAMEG_clean_sbu_1, # of connection points: 4
#     Edge 8, Type (0, 0), BuildingBlock: OJICUG_clean_linker_0, # of connection points: 2
#     Edge 9, Type (0, 0), BuildingBlock: OJICUG_clean_linker_0, # of connection points: 2
#     Edge 10, Type (0, 0), BuildingBlock: OJICUG_clean_linker_0, # of connection points: 2
#     Edge 11, Type (0, 0), BuildingBlock: OJICUG_clean_linker_0, # of connection points: 2
#     Edge 12, Type (0, 0), BuildingBlock: OJICUG_clean_linker_0, # of connection points: 2
#     Edge 13, Type (0, 0), BuildingBlock: OJICUG_clean_linker_0, # of connection points: 2
#     Edge 14, Type (0, 0), BuildingBlock: OJICUG_clean_linker_0, # of connection points: 2
#     Edge 15, Type (0, 0), BuildingBlock: OJICUG_clean_linker_0, # of connection points: 2
#     Edge 16, Type (0, 0), BuildingBlock: OJICUG_clean_linker_0, # of connection points: 2
#     Edge 17, Type (0, 0), BuildingBlock: OJICUG_clean_linker_0, # of connection points: 2
#     Edge 18, Type (0, 0), BuildingBlock: OJICUG_clean_linker_0, # of connection points: 2
#     Edge 19, Type (0, 0), BuildingBlock: OJICUG_clean_linker_0, # of connection points: 2
#     Edge 20, Type (0, 0), BuildingBlock: OJICUG_clean_linker_0, # of connection points: 2
#     Edge 21, Type (0, 0), BuildingBlock: OJICUG_clean_linker_0, # of connection points: 2
#     Edge 22, Type (0, 0), BuildingBlock: OJICUG_clean_linker_0, # of connection points: 2
#     Edge 23, Type (0, 0), BuildingBlock: OJICUG_clean_linker_0, # of connection points: 2
# Relax obj value: 0.082
# Max RMSD: 0.089
# Mean RMSD: 0.088
data_MOF--net-uoj--node1-ICAMEG_clean_sbu_1--edge1-OJICUG_clean_linker_0
_symmetry_space_group_name_H-M    P1
_symmetry_Int_Tables_number       1
_symmetry_cell_setting            triclinic
loop_
_symmetry_equiv_pos_as_xyz
'x, y, z'
_cell_length_a     27.422013
_cell_length_b     27.431912
_cell_length_c     24.7077
_cell_angle_alpha  90.010893
_cell_angle_beta   90.003195
_cell_angle_gamma 89.981526
loop_
_atom_site_label
_atom_site_type_symbol
_atom_site_fract_x
_atom_site_fract_y
_atom_site_fract_z
_atom_type_partial_charge
Co0 Co 0.992 0.3148 0.4076 0.0
Co1 Co 0.10211 0.32173 0.46962 0.0
O2 O 0.04287 0.28513 0.45234 0.0
C3 C 0.9368 0.26963 0.49899 0.0
O4 O 0.96842 0.28756 0.53355 0.0
C5 C 0.1444 0.2252 0.4379 0.0
O6 O 0.12212 0.2274 0.39091 0.0
O7 O 0.11589 0.32814 0.39104 0.0
O8 O 0.0415 0.3517 0.3639 0.0
H9 H 0.22279 0.45801 0.44693 0.0
H10 H 0.99759 0.2074 0.41868 0.0
O11 O 0.94123 0.27792 0.44855 0.0
H12 H 0.00661 0.23937 0.2225 0.0
H13 H 0.83018 0.31951 0.31105 0.0
H14 H 0.97437 0.41469 0.36597 0.0
H15 H 0.99825 0.30723 0.28729 0.0
H16 H 0.89895 0.27967 0.3579 0.0
O17 O 0.13953 0.25936 0.47237 0.0
H18 H 0.14712 0.41257 0.42797 0.0
H19 H 0.18582 0.30579 0.54483 0.0
H20 H 0.90693 0.45572 0.31833 0.0
H21 H 0.00569 0.13836 0.35524 0.0
H22 H 0.83367 0.4083 0.29163 0.0
H23 H 0.01032 0.15419 0.25639 0.0
O24 O 0.98711 0.36964 0.45952 0.0
H25 H 0.05452 0.22969 0.63727 0.0
H26 H 0.09961 0.39049 0.56346 0.0
H27 H 0.08039 0.38261 0.66055 0.0
H28 H 0.0578 0.30172 0.69809 0.0
H29 H 0.07343 0.23931 0.54026 0.0
H30 H 0.26211 0.34988 0.56475 0.0
H31 H 0.2809 0.42669 0.51578 0.0
O32 O 0.06647 0.3858 0.46857 0.0
C33 C 0.08723 0.34659 0.35599 0.0
C34 C 0.21494 0.42467 0.46866 0.0
C35 C 0.23703 0.36395 0.53474 0.0
N36 N 0.16183 0.35681 0.48559 0.0
C37 C 0.17208 0.39884 0.4582 0.0
C38 C 0.19382 0.33909 0.5232 0.0
C39 C 0.24755 0.40705 0.50726 0.0
C40 C 0.9993 0.21451 0.37569 0.0
N41 N 0.99724 0.26122 0.35671 0.0
C42 C 0.004 0.17531 0.33998 0.0
C43 C 0.00665 0.18422 0.28452 0.0
C44 C 0.00458 0.23199 0.26547 0.0
C45 C 0.99991 0.27027 0.30238 0.0
C46 C 0.86171 0.34065 0.323 0.0
C47 C 0.94307 0.39354 0.35361 0.0
C48 C 0.90077 0.31828 0.34951 0.0
N49 N 0.94057 0.34483 0.36498 0.0
C50 C 0.90482 0.41708 0.32695 0.0
C51 C 0.86369 0.39047 0.31209 0.0
C52 C 0.02177 0.39848 0.47169 0.0
C53 C 0.06443 0.26511 0.62142 0.0
C54 C 0.08948 0.35522 0.57938 0.0
C55 C 0.07881 0.35096 0.63445 0.0
C56 C 0.0662 0.30555 0.6555 0.0
N57 N 0.0877 0.31537 0.54621 0.0
C58 C 0.07536 0.27074 0.56656 0.0
Co59 Co 0.31283 0.00911 0.59383 0.0
Co60 Co 0.32092 0.89842 0.53335 0.0
O61 O 0.28382 0.95768 0.54933 0.0
C62 C 0.26753 0.06353 0.50166 0.0
O63 O 0.2851 0.03158 0.46726 0.0
C64 C 0.2243 0.85605 0.5645 0.0
O65 O 0.22591 0.87893 0.61116 0.0
O66 O 0.32671 0.88557 0.61221 0.0
O67 O 0.34974 0.96032 0.63842 0.0
H68 H 0.45774 0.77883 0.55954 0.0
H69 H 0.20554 0.00286 0.58168 0.0
O70 O 0.27599 0.05939 0.5521 0.0
H71 H 0.23588 0.99562 0.77828 0.0
H72 H 0.31556 0.1715 0.68921 0.0
H73 H 0.41243 0.02793 0.63582 0.0
H74 H 0.30427 0.00381 0.71415 0.0
H75 H 0.27657 0.10208 0.64274 0.0
O76 O 0.25878 0.86064 0.53039 0.0
H77 H 0.4117 0.85449 0.5767 0.0
H78 H 0.30618 0.8137 0.45925 0.0
H79 H 0.45265 0.09611 0.68296 0.0
H80 H 0.13599 0.99492 0.64444 0.0
H81 H 0.40439 0.16907 0.70884 0.0
H82 H 0.15099 0.99119 0.7435 0.0
O83 O 0.36807 0.01379 0.54238 0.0
H84 H 0.23017 0.94345 0.36392 0.0
H85 H 0.39056 0.90006 0.4403 0.0
H86 H 0.38348 0.91795 0.34283 0.0
H87 H 0.3028 0.93968 0.30399 0.0
H88 H 0.239 0.92588 0.46134 0.0
H89 H 0.3509 0.7374 0.44112 0.0
H90 H 0.42738 0.71966 0.49129 0.0
O91 O 0.38477 0.93444 0.53459 0.0
C92 C 0.34484 0.9147 0.64698 0.0
C93 C 0.42455 0.78622 0.53728 0.0
C94 C 0.36455 0.76294 0.47087 0.0
N95 N 0.35652 0.83872 0.51869 0.0
C96 C 0.39838 0.82907 0.54673 0.0
C97 C 0.33934 0.80617 0.4814 0.0
C98 C 0.40747 0.75302 0.49902 0.0
C99 C 0.21229 0.00154 0.62476 0.0
N100 N 0.25885 0.004 0.64422 0.0
C101 C 0.1728 0.99693 0.66009 0.0
C102 C 0.18125 0.99479 0.71566 0.0
C103 C 0.22886 0.99726 0.73521 0.0
C104 C 0.26745 0.00183 0.69868 0.0
C105 C 0.33708 0.14012 0.67758 0.0
C106 C 0.39092 0.05912 0.6478 0.0
C107 C 0.31519 0.10069 0.65129 0.0
N108 N 0.3422 0.06106 0.63621 0.0
C109 C 0.414 0.09777 0.6742 0.0
C110 C 0.38692 0.13873 0.68861 0.0
C111 C 0.3972 0.97914 0.53091 0.0
C112 C 0.2655 0.93392 0.38034 0.0
C113 C 0.35538 0.90983 0.42381 0.0
C114 C 0.35157 0.91974 0.36853 0.0
C115 C 0.30628 0.93187 0.34675 0.0
N116 N 0.3152 0.91187 0.45649 0.0
C117 C 0.27069 0.92375 0.43543 0.0
Co118 Co 0.00863 0.68699 0.40855 0.0
Co119 Co 0.89784 0.68058 0.46908 0.0
O120 O 0.95743 0.71696 0.45259 0.0
C121 C 0.06318 0.73239 0.50042 0.0
O122 O 0.03099 0.71516 0.53474 0.0
C123 C 0.85577 0.77715 0.43684 0.0
O124 O 0.87799 0.77478 0.38982 0.0
O125 O 0.88486 0.67423 0.39032 0.0
O126 O 0.95942 0.65022 0.3643 0.0
H127 H 0.77672 0.54494 0.44458 0.0
H128 H 0.00338 0.79443 0.41933 0.0
O129 O 0.05921 0.72371 0.45001 0.0
H130 H 0.99639 0.76211 0.22311 0.0
H131 H 0.17129 0.68134 0.3138 0.0
H132 H 0.0262 0.58692 0.36735 0.0
H133 H 0.00366 0.69435 0.28814 0.0
H134 H 0.10233 0.72158 0.35987 0.0
O135 O 0.86066 0.74311 0.47145 0.0
H136 H 0.85285 0.58996 0.42676 0.0
H137 H 0.81342 0.69687 0.54321 0.0
H138 H 0.09382 0.54552 0.32044 0.0
H139 H 0.99636 0.86338 0.35565 0.0
H140 H 0.16751 0.59255 0.29439 0.0
H141 H 0.99276 0.84738 0.25677 0.0
O142 O 0.01273 0.63227 0.46065 0.0
H143 H 0.94392 0.77238 0.63747 0.0
H144 H 0.89906 0.61177 0.56288 0.0
H145 H 0.91718 0.61955 0.66024 0.0
H146 H 0.93965 0.70034 0.69818 0.0
H147 H 0.9261 0.76285 0.54018 0.0
H148 H 0.73667 0.6532 0.56198 0.0
H149 H 0.718 0.57654 0.51265 0.0
O150 O 0.93323 0.61634 0.46842 0.0
C151 C 0.91382 0.65553 0.35573 0.0
C152 C 0.78451 0.57822 0.46648 0.0
C153 C 0.76201 0.63901 0.53232 0.0
N154 N 0.8378 0.64577 0.48424 0.0
C155 C 0.82763 0.60381 0.45666 0.0
C156 C 0.80549 0.66363 0.52143 0.0
C157 C 0.75157 0.59599 0.50463 0.0
C158 C 0.00211 0.78725 0.37634 0.0
N159 N 0.00414 0.74049 0.35748 0.0
C160 C 0.99802 0.8264 0.34049 0.0
C161 C 0.99595 0.81739 0.28501 0.0
C162 C 0.99797 0.76957 0.26609 0.0
C163 C 0.00203 0.73134 0.30313 0.0
C164 C 0.13956 0.66036 0.32545 0.0
C165 C 0.05771 0.60791 0.3553 0.0
C166 C 0.10039 0.68296 0.35153 0.0
N167 N 0.06033 0.65663 0.36663 0.0
C168 C 0.09605 0.58415 0.32904 0.0
C169 C 0.13742 0.61055 0.31455 0.0
C170 C 0.97784 0.60351 0.4722 0.0
C171 C 0.93406 0.737 0.62145 0.0
C172 C 0.90916 0.64699 0.57897 0.0
C173 C 0.91919 0.6512 0.63419 0.0
C174 C 0.93174 0.69655 0.65547 0.0
N175 N 0.91148 0.68685 0.54586 0.0
C176 C 0.92375 0.73142 0.56643 0.0
Co177 Co 0.68656 0.99304 0.59212 0.0
Co178 Co 0.67894 0.10384 0.53197 0.0
O179 O 0.71581 0.04438 0.54773 0.0
C180 C 0.73195 0.93855 0.49995 0.0
O181 O 0.71461 0.97057 0.46549 0.0
C182 C 0.7757 0.14598 0.56302 0.0
O183 O 0.77381 0.12358 0.60995 0.0
O184 O 0.67346 0.11661 0.61087 0.0
O185 O 0.6499 0.04196 0.63681 0.0
H186 H 0.54292 0.22421 0.55889 0.0
H187 H 0.79389 0.99894 0.58011 0.0
O188 O 0.72323 0.94265 0.55033 0.0
H189 H 0.76341 0.00561 0.7767 0.0
H190 H 0.68281 0.83043 0.68694 0.0
H191 H 0.58689 0.97479 0.63417 0.0
H192 H 0.69504 0.99795 0.71246 0.0
H193 H 0.72224 0.8997 0.64069 0.0
O194 O 0.7413 0.14126 0.52882 0.0
H195 H 0.58854 0.14824 0.57571 0.0
H196 H 0.69398 0.18858 0.45801 0.0
H197 H 0.54626 0.90682 0.6812 0.0
H198 H 0.86342 0.00637 0.64298 0.0
H199 H 0.59405 0.83347 0.7068 0.0
H200 H 0.84835 0.00981 0.74205 0.0
O201 O 0.63135 0.98872 0.5406 0.0
H202 H 0.76889 0.0586 0.36206 0.0
H203 H 0.609 0.10272 0.43919 0.0
H204 H 0.61566 0.08499 0.34164 0.0
H205 H 0.69609 0.0629 0.30242 0.0
H206 H 0.76048 0.07602 0.45956 0.0
H207 H 0.64968 0.26518 0.44022 0.0
H208 H 0.57346 0.28331 0.49069 0.0
O209 O 0.61489 0.06816 0.5334 0.0
C210 C 0.65523 0.0875 0.64559 0.0
C211 C 0.576 0.21665 0.5365 0.0
C212 C 0.63595 0.23967 0.46994 0.0
N213 N 0.64364 0.16376 0.51754 0.0
C214 C 0.60193 0.17362 0.54575 0.0
C215 C 0.66093 0.19627 0.48028 0.0
C216 C 0.59318 0.24981 0.49827 0.0
C217 C 0.78711 1.00014 0.62318 0.0
N218 N 0.74053 0.9978 0.64258 0.0
C219 C 0.82659 0.00446 0.65858 0.0
C220 C 0.8181 0.00644 0.71416 0.0
C221 C 0.77046 0.0041 0.73363 0.0
C222 C 0.73189 0.99983 0.69704 0.0
C223 C 0.6615 0.86199 0.67545 0.0
C224 C 0.6082 0.94343 0.64602 0.0
C225 C 0.68364 0.90133 0.64926 0.0
N226 N 0.65688 0.94118 0.63435 0.0
C227 C 0.58488 0.90489 0.67236 0.0
C228 C 0.6117 0.86372 0.68661 0.0
C229 C 0.60227 0.02351 0.52955 0.0
C230 C 0.73367 0.06828 0.37865 0.0
C231 C 0.64407 0.09278 0.42254 0.0
C232 C 0.64765 0.08296 0.36721 0.0
C233 C 0.69279 0.07063 0.34522 0.0
N234 N 0.68435 0.09045 0.45506 0.0
C235 C 0.72872 0.07837 0.43379 0.0
Co236 Co 0.51087 0.8129 0.90572 0.0
Co237 Co 0.39972 0.82109 0.96534 0.0
O238 O 0.45925 0.78411 0.95016 0.0
C239 C 0.56457 0.76857 0.99892 0.0
O240 O 0.53191 0.78594 0.03264 0.0
C241 C 0.3581 0.72382 0.93515 0.0
O242 O 0.3819 0.72468 0.88903 0.0
O243 O 0.38728 0.8261 0.88636 0.0
O244 O 0.46213 0.84902 0.86024 0.0
H245 H 0.2797 0.95714 0.93688 0.0
H246 H 0.50515 0.70574 0.91922 0.0
O247 O 0.56111 0.77681 0.94838 0.0
H248 H 0.49899 0.73393 0.7222 0.0
H249 H 0.67402 0.81549 0.81188 0.0
H250 H 0.52944 0.91207 0.86254 0.0
H251 H 0.50636 0.80302 0.7855 0.0
H252 H 0.6044 0.77661 0.85811 0.0
O253 O 0.36205 0.75887 0.96866 0.0
H254 H 0.35561 0.91122 0.92065 0.0
H255 H 0.31474 0.80681 0.03919 0.0
H256 H 0.59786 0.95218 0.81573 0.0
H257 H 0.49804 0.6355 0.8573 0.0
H258 H 0.67134 0.9041 0.79129 0.0
H259 H 0.49485 0.64942 0.75802 0.0
O260 O 0.515 0.86874 0.95645 0.0
H261 H 0.44394 0.73191 0.13602 0.0
H262 H 0.40084 0.89154 0.05768 0.0
H263 H 0.4183 0.88533 0.15532 0.0
H264 H 0.43988 0.80504 0.19515 0.0
H265 H 0.42684 0.73987 0.03841 0.0
H266 H 0.2382 0.85141 0.05641 0.0
H267 H 0.22036 0.92728 0.00522 0.0
O268 O 0.43551 0.88509 0.96366 0.0
C269 C 0.41653 0.84391 0.8515 0.0
C270 C 0.28712 0.92422 0.95957 0.0
C271 C 0.2638 0.86484 0.0266 0.0
N272 N 0.33981 0.8566 0.97924 0.0
C273 C 0.33011 0.89811 0.95065 0.0
C274 C 0.30716 0.83968 0.01659 0.0
C275 C 0.25383 0.90742 0.99788 0.0
C276 C 0.50408 0.71202 0.87605 0.0
N277 N 0.50638 0.75836 0.85601 0.0
C278 C 0.49993 0.67214 0.8412 0.0
C279 C 0.49809 0.67998 0.7855 0.0
C280 C 0.50039 0.72738 0.76537 0.0
C281 C 0.50449 0.76636 0.80143 0.0
C282 C 0.64241 0.83694 0.8229 0.0
C283 C 0.56085 0.89062 0.85116 0.0
C284 C 0.60286 0.81512 0.84904 0.0
N285 N 0.56296 0.84206 0.86338 0.0
C286 C 0.59964 0.91365 0.82495 0.0
C287 C 0.64089 0.88665 0.81133 0.0
C288 C 0.48015 0.89782 0.96733 0.0
C289 C 0.43448 0.76708 0.11917 0.0
C290 C 0.41057 0.85653 0.07459 0.0
C291 C 0.42022 0.85321 0.12997 0.0
C292 C 0.43227 0.80814 0.15231 0.0
N293 N 0.41279 0.81607 0.04235 0.0
C294 C 0.42456 0.77177 0.06397 0.0
Co295 Co 0.82234 0.60325 0.03664 0.0
Co296 Co 0.81321 0.49138 0.09421 0.0
O297 O 0.78507 0.54354 0.04999 0.0
C298 C 0.72488 0.64501 0.0658 0.0
O299 O 0.72546 0.62151 0.1121 0.0
C300 C 0.76845 0.43858 0.00011 0.0
O301 O 0.78469 0.4719 0.96654 0.0
O302 O 0.86967 0.48782 0.04421 0.0
O303 O 0.88627 0.56737 0.03905 0.0
H304 H 0.95152 0.4028 0.18432 0.0
H305 H 0.74242 0.57728 0.96123 0.0
O306 O 0.76015 0.64092 0.03261 0.0
H307 H 0.88999 0.58795 0.84779 0.0
H308 H 0.85399 0.76627 0.94968 0.0
H309 H 0.91177 0.64652 0.084 0.0
H310 H 0.89444 0.60358 0.94593 0.0
H311 H 0.80921 0.68944 0.96428 0.0
O312 O 0.77753 0.44153 0.05052 0.0
H313 H 0.91198 0.47197 0.13825 0.0
H314 H 0.77613 0.39768 0.14048 0.0
H315 H 0.95784 0.7227 0.07042 0.0
H316 H 0.73622 0.56201 0.86308 0.0
H317 H 0.929 0.78322 0.00283 0.0
H318 H 0.81041 0.56717 0.80569 0.0
O319 O 0.82602 0.61458 0.11591 0.0
H320 H 0.63522 0.50438 0.14002 0.0
H321 H 0.80184 0.49447 0.21436 0.0
H322 H 0.73194 0.50135 0.27666 0.0
H323 H 0.64788 0.50628 0.23955 0.0
H324 H 0.70624 0.49772 0.07913 0.0
H325 H 0.81441 0.32734 0.18598 0.0
H326 H 0.90295 0.32929 0.20724 0.0
O327 O 0.84889 0.53949 0.14096 0.0
C328 C 0.89897 0.52278 0.0346 0.0
C329 C 0.91302 0.40132 0.17476 0.0
C330 C 0.83608 0.35895 0.17559 0.0
N331 N 0.84182 0.4388 0.13627 0.0
C332 C 0.89032 0.44053 0.14896 0.0
C333 C 0.8146 0.3989 0.14986 0.0
C334 C 0.88575 0.36007 0.18754 0.0
C335 C 0.77479 0.57999 0.93644 0.0
N336 N 0.8187 0.59135 0.95931 0.0
C337 C 0.77109 0.57112 0.88093 0.0
C338 C 0.81274 0.57395 0.84877 0.0
C339 C 0.85741 0.58555 0.87237 0.0
C340 C 0.85973 0.59416 0.92803 0.0
C341 C 0.86699 0.74014 0.97917 0.0
C342 C 0.89912 0.67252 0.05429 0.0
C343 C 0.84173 0.69661 0.98769 0.0
N344 N 0.85808 0.66332 0.02465 0.0
C345 C 0.92531 0.71567 0.04688 0.0
C346 C 0.90907 0.74963 0.00899 0.0
C347 C 0.8435 0.5849 0.15051 0.0
C348 C 0.67165 0.50214 0.15668 0.0
C349 C 0.76538 0.49668 0.19787 0.0
C350 C 0.72594 0.5005 0.23337 0.0
C351 C 0.67879 0.50325 0.21252 0.0
N352 N 0.75806 0.49548 0.14315 0.0
C353 C 0.71197 0.49824 0.12241 0.0
Co354 Co 0.4914 0.18805 0.90655 0.0
Co355 Co 0.60316 0.18052 0.9648 0.0
O356 O 0.54325 0.21721 0.9504 0.0
C357 C 0.43824 0.23248 0.00018 0.0
O358 O 0.47154 0.21597 0.03363 0.0
C359 C 0.6447 0.2779 0.93442 0.0
O360 O 0.62137 0.27684 0.88801 0.0
O361 O 0.61489 0.17581 0.88565 0.0
O362 O 0.53997 0.15224 0.86054 0.0
H363 H 0.72387 0.04543 0.93432 0.0
H364 H 0.49664 0.29525 0.91986 0.0
O365 O 0.44125 0.22382 0.94969 0.0
H366 H 0.50075 0.26686 0.72279 0.0
H367 H 0.32742 0.18411 0.8145 0.0
H368 H 0.4732 0.08871 0.86362 0.0
H369 H 0.49459 0.1978 0.78627 0.0
H370 H 0.39713 0.22357 0.85998 0.0
O371 O 0.64047 0.24299 0.96804 0.0
H372 H 0.64745 0.09083 0.91923 0.0
H373 H 0.68873 0.19516 0.03774 0.0
H374 H 0.40473 0.04805 0.81748 0.0
H375 H 0.50257 0.36546 0.85777 0.0
H376 H 0.33067 0.09554 0.79377 0.0
H377 H 0.5047 0.35144 0.75847 0.0
O378 O 0.48813 0.13229 0.9574 0.0
H379 H 0.5601 0.26891 0.13639 0.0
H380 H 0.60335 0.10978 0.05684 0.0
H381 H 0.58686 0.11559 0.15472 0.0
H382 H 0.56521 0.19563 0.19516 0.0
H383 H 0.57624 0.26135 0.03854 0.0
H384 H 0.76578 0.15109 0.05381 0.0
H385 H 0.78367 0.07553 0.00206 0.0
O386 O 0.56777 0.11627 0.96324 0.0
C387 C 0.58541 0.15778 0.85116 0.0
C388 C 0.71643 0.07822 0.95726 0.0
C389 C 0.73997 0.13755 0.02427 0.0
N390 N 0.66343 0.14537 0.97788 0.0
C391 C 0.67315 0.10402 0.94898 0.0
C392 C 0.69632 0.16241 0.01491 0.0
C393 C 0.74998 0.09515 0.99523 0.0
C394 C 0.49728 0.28893 0.87668 0.0
N395 N 0.49505 0.24255 0.85673 0.0
C396 C 0.50076 0.32879 0.84173 0.0
C397 C 0.502 0.32089 0.78602 0.0
C398 C 0.4998 0.27345 0.76597 0.0
C399 C 0.49638 0.23449 0.80213 0.0
C400 C 0.3593 0.16292 0.82519 0.0
C401 C 0.44153 0.10991 0.85257 0.0
C402 C 0.39889 0.18507 0.85091 0.0
N403 N 0.43913 0.15846 0.86482 0.0
C404 C 0.40271 0.08657 0.82674 0.0
C405 C 0.36114 0.11323 0.81354 0.0
C406 C 0.52323 0.10333 0.96761 0.0
C407 C 0.5696 0.23385 0.11927 0.0
C408 C 0.59358 0.14468 0.07401 0.0
C409 C 0.58448 0.14778 0.12953 0.0
C410 C 0.57239 0.19271 0.1522 0.0
N411 N 0.59078 0.18522 0.04197 0.0
C412 C 0.57897 0.22939 0.06393 0.0
Co413 Co 0.18057 0.39808 0.03755 0.0
Co414 Co 0.1907 0.50993 0.09517 0.0
O415 O 0.21826 0.45754 0.05079 0.0
C416 C 0.27786 0.35607 0.06674 0.0
O417 O 0.27767 0.38034 0.11257 0.0
C418 C 0.23538 0.56247 0.00085 0.0
O419 O 0.21924 0.52902 0.96737 0.0
O420 O 0.13399 0.51395 0.04552 0.0
O421 O 0.11698 0.43449 0.03979 0.0
H422 H 0.05362 0.59982 0.18601 0.0
H423 H 0.2608 0.4232 0.96221 0.0
O424 O 0.24244 0.35986 0.03371 0.0
H425 H 0.11325 0.41375 0.84858 0.0
H426 H 0.14752 0.23525 0.95067 0.0
H427 H 0.09072 0.35566 0.08482 0.0
H428 H 0.10857 0.39826 0.94673 0.0
H429 H 0.19301 0.31167 0.96529 0.0
O430 O 0.22645 0.55956 0.0513 0.0
H431 H 0.09225 0.53033 0.13954 0.0
H432 H 0.22892 0.60312 0.14155 0.0
H433 H 0.04395 0.2799 0.07122 0.0
H434 H 0.26725 0.43831 0.86406 0.0
H435 H 0.07229 0.21906 0.0037 0.0
H436 H 0.19306 0.43377 0.80657 0.0
O437 O 0.17672 0.38683 0.11683 0.0
H438 H 0.36885 0.49561 0.13971 0.0
H439 H 0.20273 0.50641 0.21524 0.0
H440 H 0.27293 0.49879 0.27702 0.0
H441 H 0.35674 0.4934 0.23931 0.0
H442 H 0.29753 0.50299 0.07935 0.0
H443 H 0.19158 0.67371 0.18753 0.0
H444 H 0.10308 0.67272 0.20903 0.0
O445 O 0.15482 0.46216 0.14206 0.0
C446 C 0.10455 0.47917 0.03558 0.0
C447 C 0.09211 0.60088 0.17633 0.0
C448 C 0.16952 0.64237 0.1771 0.0
N449 N 0.16276 0.56273 0.13746 0.0
C450 C 0.11429 0.56149 0.1503 0.0
C451 C 0.19048 0.60228 0.15111 0.0
C452 C 0.11988 0.64179 0.18918 0.0
C453 C 0.22844 0.42075 0.93739 0.0
N454 N 0.1844 0.40982 0.9602 0.0
C455 C 0.23228 0.42953 0.88187 0.0
C456 C 0.19063 0.42705 0.84965 0.0
C457 C 0.14583 0.41588 0.87321 0.0
C458 C 0.14337 0.40735 0.92887 0.0
C459 C 0.13475 0.26152 0.98013 0.0
C460 C 0.10317 0.3295 0.05517 0.0
C461 C 0.16041 0.30482 0.98867 0.0
N462 N 0.14433 0.33829 0.02558 0.0
C463 C 0.07658 0.28661 0.04773 0.0
C464 C 0.09253 0.25247 0.00989 0.0
C465 C 0.15954 0.41666 0.15146 0.0
C466 C 0.33253 0.49806 0.15663 0.0
C467 C 0.23907 0.50401 0.1985 0.0
C468 C 0.27869 0.49977 0.2337 0.0
C469 C 0.3257 0.49676 0.21251 0.0
N470 N 0.24608 0.50536 0.14373 0.0
C471 C 0.29204 0.50237 0.12266 0.0
C472 C 0.10307 0.42228 0.23 0.0
C473 C 0.14153 0.39811 0.20373 0.0
H474 H 0.05561 0.42451 0.29858 0.0
C475 C 0.16297 0.35728 0.22848 0.0
H476 H 0.08583 0.45384 0.21183 0.0
C477 C 0.14637 0.34117 0.279 0.0
C478 C 0.10731 0.36494 0.30464 0.0
H479 H 0.19292 0.33829 0.20916 0.0
H480 H 0.16327 0.30955 0.2974 0.0
C481 C 0.08575 0.4055 0.27961 0.0
C482 C 0.3406 0.85556 0.72411 0.0
C483 C 0.36331 0.8953 0.69862 0.0
H484 H 0.33899 0.80874 0.79376 0.0
C485 C 0.40309 0.91804 0.72396 0.0
H486 H 0.3096 0.83773 0.70549 0.0
C487 C 0.42023 0.90113 0.77359 0.0
C488 C 0.39721 0.86187 0.79958 0.0
H489 H 0.42131 0.94873 0.70516 0.0
H490 H 0.45124 0.9192 0.79194 0.0
C491 C 0.35706 0.83934 0.77465 0.0
C492 C 0.91615 0.59651 0.27944 0.0
C493 C 0.89423 0.63705 0.30418 0.0
H494 H 0.91684 0.54808 0.21174 0.0
C495 C 0.85531 0.66063 0.27809 0.0
H496 H 0.94618 0.57763 0.29876 0.0
C497 C 0.83921 0.64437 0.22742 0.0
C498 C 0.86101 0.60359 0.20295 0.0
H499 H 0.83814 0.69221 0.29626 0.0
H500 H 0.80934 0.66323 0.20777 0.0
C501 C 0.89933 0.5796 0.22967 0.0
C502 C 0.58098 0.10082 0.77304 0.0
C503 C 0.60427 0.13998 0.79895 0.0
H504 H 0.57921 0.05344 0.70444 0.0
C505 C 0.6442 0.16256 0.77366 0.0
H506 H 0.55013 0.0827 0.79165 0.0
C507 C 0.66018 0.14648 0.72287 0.0
C508 C 0.6372 0.10684 0.69747 0.0
H509 H 0.66247 0.19309 0.7927 0.0
H510 H 0.69104 0.16433 0.70399 0.0
C511 C 0.59763 0.08406 0.72315 0.0
C512 C 0.22452 0.1416 0.52039 0.0
C513 C 0.23675 0.10475 0.48331 0.0
H514 H 0.18617 0.20759 0.53536 0.0
C515 C 0.21829 0.10759 0.43024 0.0
H516 H 0.23803 0.14087 0.56155 0.0
C517 C 0.18786 0.14649 0.41497 0.0
C518 C 0.17579 0.1832 0.45245 0.0
H519 H 0.2269 0.07963 0.4008 0.0
H520 H 0.17399 0.14786 0.37395 0.0
C521 C 0.19462 0.18016 0.50523 0.0
C522 C 0.14539 0.81283 0.58702 0.0
C523 C 0.18253 0.82439 0.54987 0.0
H524 H 0.07831 0.77412 0.60085 0.0
C525 C 0.1801 0.80483 0.49737 0.0
H526 H 0.14628 0.82725 0.62782 0.0
C527 C 0.14167 0.7748 0.48213 0.0
C528 C 0.10436 0.76316 0.51887 0.0
H529 H 0.2079 0.81285 0.46751 0.0
H530 H 0.14136 0.76075 0.44118 0.0
C531 C 0.10664 0.78228 0.57168 0.0
C532 C 0.78125 0.89434 0.42864 0.0
C533 C 0.76295 0.89742 0.48176 0.0
H534 H 0.82555 0.85395 0.37245 0.0
C535 C 0.77559 0.86091 0.51907 0.0
H536 H 0.77233 0.92204 0.39901 0.0
C537 C 0.80568 0.82244 0.50408 0.0
C538 C 0.82431 0.81914 0.45123 0.0
H539 H 0.76226 0.86183 0.5603 0.0
H540 H 0.81443 0.79528 0.53439 0.0
C541 C 0.81186 0.85554 0.41352 0.0
C542 C 0.85401 0.19009 0.58587 0.0
C543 C 0.81761 0.17738 0.54828 0.0
H544 H 0.92041 0.22982 0.60009 0.0
C545 C 0.82084 0.19564 0.49527 0.0
H546 H 0.85247 0.17667 0.62706 0.0
C547 C 0.85928 0.22568 0.48002 0.0
C548 C 0.89575 0.23862 0.51727 0.0
H549 H 0.79365 0.18665 0.46506 0.0
H550 H 0.86021 0.23875 0.43869 0.0
C551 C 0.89273 0.22066 0.57052 0.0
C552 C 0.2867 0.60453 0.92974 0.0
C553 C 0.26541 0.6039 0.98156 0.0
H554 H 0.33334 0.64288 0.87415 0.0
C555 C 0.2744 0.64306 0.01681 0.0
H556 H 0.28059 0.57478 0.90173 0.0
C557 C 0.30423 0.68154 0.00126 0.0
C558 C 0.32622 0.68222 0.9499 0.0
H559 H 0.25847 0.64413 0.05689 0.0
H560 H 0.31024 0.7107 0.03006 0.0
C561 C 0.31704 0.64337 0.91407 0.0
C562 C 0.68205 0.69694 0.99824 0.0
C563 C 0.68337 0.67678 0.0505 0.0
H564 H 0.64433 0.74149 0.94161 0.0
C565 C 0.64538 0.68783 0.08679 0.0
H566 H 0.71054 0.68935 0.96905 0.0
C567 C 0.60684 0.71841 0.0708 0.0
C568 C 0.60562 0.73803 0.01819 0.0
H569 H 0.64543 0.67296 0.12739 0.0
H570 H 0.57781 0.72611 0.09927 0.0
C571 C 0.64381 0.72698 0.98235 0.0
C572 C 0.72765 0.35896 0.01673 0.0
C573 C 0.73797 0.39739 0.98097 0.0
H574 H 0.69054 0.29206 0.03037 0.0
C575 C 0.71757 0.39629 0.9287 0.0
H576 H 0.74276 0.35827 0.05721 0.0
C577 C 0.68696 0.35766 0.91302 0.0
C578 C 0.67659 0.31948 0.9493 0.0
H579 H 0.72469 0.42549 0.90028 0.0
H580 H 0.67148 0.35773 0.8727 0.0
C581 C 0.69754 0.32068 0.00119 0.0
C582 C 0.35786 0.27207 0.98448 0.0
C583 C 0.39701 0.26268 0.01962 0.0
H584 H 0.2904 0.30845 0.97157 0.0
C585 C 0.39662 0.2838 0.07153 0.0
H586 H 0.35666 0.2563 0.94432 0.0
C587 C 0.35804 0.31437 0.08741 0.0
C588 C 0.31919 0.32393 0.05172 0.0
H589 H 0.4264 0.27738 0.09944 0.0
H590 H 0.35872 0.33054 0.1274 0.0
C591 C 0.31959 0.30211 0.00026 0.0
C592 C 0.03754 0.53505 0.48414 0.0
C593 C 0.989 0.55135 0.48177 0.0
H594 H 0.08599 0.47408 0.48376 0.0
C595 C 0.95121 0.51666 0.48299 0.0
H596 H 0.06755 0.56072 0.48365 0.0
C597 C 0.96177 0.46684 0.48264 0.0
C598 C 0.01036 0.45056 0.48146 0.0
H599 H 0.91335 0.52783 0.48158 0.0
H600 H 0.93179 0.44118 0.48097 0.0
C601 C 0.0481 0.48523 0.48419 0.0
C602 C 0.53388 0.96363 0.5184 0.0
C603 C 0.55006 0.01219 0.52043 0.0
H604 H 0.47302 0.91508 0.5192 0.0
C605 C 0.51524 0.04989 0.51918 0.0
H606 H 0.55964 0.93368 0.51893 0.0
C607 C 0.46543 0.03924 0.51974 0.0
C608 C 0.44928 0.99064 0.52117 0.0
H609 H 0.52631 0.08777 0.52033 0.0
H610 H 0.43968 0.06917 0.52132 0.0
C611 C 0.48407 0.95298 0.51857 0.0
C612 C 0.46383 0.0345 0.97903 0.0
C613 C 0.5123 0.05102 0.97665 0.0
H614 H 0.41566 0.97333 0.97883 0.0
C615 C 0.55023 0.01644 0.9777 0.0
H616 H 0.4337 0.06005 0.97862 0.0
C617 C 0.53989 0.96656 0.97746 0.0
C618 C 0.49138 0.95006 0.9765 0.0
H619 H 0.58805 0.02776 0.97627 0.0
H620 H 0.56999 0.94102 0.97581 0.0
C621 C 0.4535 0.98463 0.97912 0.0
C622 C 0.03588 0.53906 0.02547 0.0
C623 C 0.05229 0.49054 0.02661 0.0
H624 H 0.97475 0.58733 0.02624 0.0
C625 C 0.01764 0.45274 0.0241 0.0
H626 H 0.06149 0.56909 0.02705 0.0
C627 C 0.96776 0.46317 0.024 0.0
C628 C 0.95133 0.51165 0.02606 0.0
H629 H 0.02887 0.41488 0.02452 0.0
H630 H 0.94216 0.43311 0.02442 0.0
C631 C 0.986 0.5495 0.02503 0.0
loop_
_geom_bond_atom_site_label_1
_geom_bond_atom_site_label_2
_geom_bond_distance
_geom_bond_site_symmetry_2
_ccdc_geom_bond_type
Co0 O2 2.143 . S
Co0 O8 2.074 . S
Co0 O11 2.093 1_455 S
Co0 O24 2.097 . S
Co0 N41 2.151 . S
Co0 N49 2.214 1_455 S
Co1 O2 2.160 . S
Co1 O7 2.058 . S
Co1 O17 2.057 . S
Co1 O32 2.037 . S
Co1 N36 2.145 . S
Co1 N57 2.257 . S
O2 Co0 2.143 . S
O2 Co1 2.160 . S
C3 O4 1.278 . S
C3 O11 1.224 . S
O4 C3 1.278 . S
C5 O6 1.245 . S
C5 O17 1.232 . S
O6 C5 1.245 . S
O7 Co1 2.058 . S
O7 C33 1.269 . S
O8 Co0 2.074 . S
O8 C33 1.257 . S
H9 C34 0.930 . S
H10 C40 0.930 . S
O11 Co0 2.093 1_655 S
O11 C3 1.224 . S
H12 C44 0.929 1_455 S
H13 C46 0.930 . S
H14 C47 0.930 . S
H15 C45 0.929 . S
H16 C48 0.928 . S
O17 Co1 2.057 . S
O17 C5 1.232 . S
H18 C37 0.929 . S
H19 C38 0.929 . S
H20 C50 0.931 . S
H21 C42 0.929 . S
H22 C51 0.930 . S
H23 C43 0.931 . S
O24 Co0 2.097 . S
O24 C52 1.214 . S
H25 C53 0.929 . S
H26 C54 0.929 . S
H27 C55 0.930 . S
H28 C56 0.929 . S
H29 C58 0.930 . S
H30 C35 0.930 . S
H31 C39 0.930 . S
O32 Co1 2.037 . S
O32 C52 1.234 . S
C33 O7 1.269 . S
C33 O8 1.257 . S
C34 H9 0.930 . S
C34 C37 1.388 . S
C34 C39 1.418 . S
C35 H30 0.930 . S
C35 C38 1.404 . S
C35 C39 1.353 . S
N36 Co1 2.145 . S
N36 C37 1.397 . S
N36 C38 1.334 . S
C37 H18 0.929 . S
C37 C34 1.388 . S
C37 N36 1.397 . S
C38 H19 0.929 . S
C38 C35 1.404 . S
C38 N36 1.334 . S
C39 H31 0.930 . S
C39 C34 1.418 . S
C39 C35 1.353 . S
C40 H10 0.930 . S
C40 N41 1.327 1_655 S
C40 C42 1.446 . S
N41 Co0 2.151 . S
N41 C40 1.327 1_455 S
N41 C45 1.418 . S
C42 H21 0.929 . S
C42 C40 1.446 . S
C42 C43 1.332 . S
C43 H23 0.931 . S
C43 C42 1.332 . S
C43 C44 1.267 . S
C44 H12 0.929 1_655 S
C44 C43 1.267 . S
C44 C45 1.251 1_655 S
C45 H15 0.929 . S
C45 N41 1.418 . S
C45 C44 1.251 1_455 S
C46 H13 0.930 . S
C46 C48 1.406 . S
C46 C51 1.261 . S
C47 H14 0.930 . S
C47 N49 1.325 . S
C47 C50 1.357 . S
C48 H16 0.928 . S
C48 C46 1.406 . S
C48 N49 1.261 . S
N49 Co0 2.214 1_655 S
N49 C47 1.325 . S
N49 C48 1.261 . S
C50 H20 0.931 . S
C50 C47 1.357 . S
C50 C51 1.312 . S
C51 H22 0.930 . S
C51 C46 1.261 . S
C51 C50 1.312 . S
C52 O24 1.214 . S
C52 O32 1.234 . S
C53 H25 0.929 . S
C53 C56 1.391 . S
C53 C58 1.391 . S
C54 H26 0.929 . S
C54 C55 1.390 . S
C54 N57 1.391 . S
C55 H27 0.930 . S
C55 C54 1.390 . S
C55 C56 1.392 . S
C56 H28 0.929 . S
C56 C53 1.391 . S
C56 C55 1.392 . S
N57 Co1 2.257 . S
N57 C54 1.391 . S
N57 C58 1.388 . S
C58 H29 0.930 . S
C58 C53 1.391 . S
C58 N57 1.388 . S
Co59 O61 2.143 . S
Co59 O67 2.074 . S
Co59 O70 2.093 1_565 S
Co59 O83 2.097 . S
Co59 N100 2.152 . S
Co59 N108 2.214 1_565 S
Co60 O61 2.160 . S
Co60 O66 2.058 . S
Co60 O76 2.057 . S
Co60 O91 2.037 . S
Co60 N95 2.145 . S
Co60 N116 2.257 . S
O61 Co59 2.143 . S
O61 Co60 2.160 . S
C62 O63 1.278 . S
C62 O70 1.224 . S
O63 C62 1.278 . S
C64 O65 1.245 . S
C64 O76 1.232 . S
O65 C64 1.245 . S
O66 Co60 2.058 . S
O66 C92 1.269 . S
O67 Co59 2.074 . S
O67 C92 1.257 . S
H68 C93 0.930 . S
H69 C99 0.930 . S
O70 Co59 2.093 1_545 S
O70 C62 1.224 . S
H71 C103 0.928 1_565 S
H72 C105 0.930 . S
H73 C106 0.930 . S
H74 C104 0.929 . S
H75 C107 0.928 . S
O76 Co60 2.057 . S
O76 C64 1.232 . S
H77 C96 0.929 . S
H78 C97 0.929 . S
H79 C109 0.931 . S
H80 C101 0.929 . S
H81 C110 0.930 . S
H82 C102 0.931 . S
O83 Co59 2.097 . S
O83 C111 1.214 . S
H84 C112 0.929 . S
H85 C113 0.929 . S
H86 C114 0.930 . S
H87 C115 0.929 . S
H88 C117 0.930 . S
H89 C94 0.930 . S
H90 C98 0.930 . S
O91 Co60 2.037 . S
O91 C111 1.234 . S
C92 O66 1.269 . S
C92 O67 1.257 . S
C93 H68 0.930 . S
C93 C96 1.388 . S
C93 C98 1.418 . S
C94 H89 0.930 . S
C94 C97 1.404 . S
C94 C98 1.353 . S
N95 Co60 2.145 . S
N95 C96 1.397 . S
N95 C97 1.334 . S
C96 H77 0.929 . S
C96 C93 1.388 . S
C96 N95 1.397 . S
C97 H78 0.929 . S
C97 C94 1.404 . S
C97 N95 1.334 . S
C98 H90 0.930 . S
C98 C93 1.418 . S
C98 C94 1.353 . S
C99 H69 0.930 . S
C99 N100 1.325 1_545 S
C99 C101 1.446 . S
N100 Co59 2.152 . S
N100 C99 1.325 1_565 S
N100 C104 1.418 . S
C101 H80 0.929 . S
C101 C99 1.446 . S
C101 C102 1.332 . S
C102 H82 0.931 . S
C102 C101 1.332 . S
C102 C103 1.267 . S
C103 H71 0.928 1_545 S
C103 C102 1.267 . S
C103 C104 1.251 1_545 S
C104 H74 0.929 . S
C104 N100 1.418 . S
C104 C103 1.251 1_565 S
C105 H72 0.930 . S
C105 C107 1.406 . S
C105 C110 1.261 . S
C106 H73 0.930 . S
C106 N108 1.325 . S
C106 C109 1.357 . S
C107 H75 0.928 . S
C107 C105 1.406 . S
C107 N108 1.261 . S
N108 Co59 2.214 1_545 S
N108 C106 1.325 . S
N108 C107 1.261 . S
C109 H79 0.931 . S
C109 C106 1.357 . S
C109 C110 1.312 . S
C110 H81 0.930 . S
C110 C105 1.261 . S
C110 C109 1.312 . S
C111 O83 1.214 . S
C111 O91 1.234 . S
C112 H84 0.929 . S
C112 C115 1.391 . S
C112 C117 1.391 . S
C113 H85 0.929 . S
C113 C114 1.390 . S
C113 N116 1.391 . S
C114 H86 0.930 . S
C114 C113 1.390 . S
C114 C115 1.392 . S
C115 H87 0.929 . S
C115 C112 1.391 . S
C115 C114 1.392 . S
N116 Co60 2.257 . S
N116 C113 1.391 . S
N116 C117 1.388 . S
C117 H88 0.930 . S
C117 C112 1.391 . S
C117 N116 1.388 . S
Co118 O120 2.143 . S
Co118 O126 2.074 . S
Co118 O129 2.093 1_655 S
Co118 O142 2.097 . S
Co118 N159 2.151 . S
Co118 N167 2.214 1_655 S
Co119 O120 2.160 . S
Co119 O125 2.058 . S
Co119 O135 2.057 . S
Co119 O150 2.037 . S
Co119 N154 2.145 . S
Co119 N175 2.257 . S
O120 Co118 2.143 . S
O120 Co119 2.160 . S
C121 O122 1.278 . S
C121 O129 1.224 . S
O122 C121 1.278 . S
C123 O124 1.245 . S
C123 O135 1.232 . S
O124 C123 1.245 . S
O125 Co119 2.058 . S
O125 C151 1.269 . S
O126 Co118 2.074 . S
O126 C151 1.257 . S
H127 C152 0.930 . S
H128 C158 0.930 . S
O129 Co118 2.093 1_455 S
O129 C121 1.224 . S
H130 C162 0.929 1_655 S
H131 C164 0.930 . S
H132 C165 0.930 . S
H133 C163 0.929 . S
H134 C166 0.928 . S
O135 Co119 2.057 . S
O135 C123 1.232 . S
H136 C155 0.929 . S
H137 C156 0.929 . S
H138 C168 0.931 . S
H139 C160 0.929 . S
H140 C169 0.930 . S
H141 C161 0.931 . S
O142 Co118 2.097 . S
O142 C170 1.214 . S
H143 C171 0.929 . S
H144 C172 0.929 . S
H145 C173 0.930 . S
H146 C174 0.929 . S
H147 C176 0.930 . S
H148 C153 0.930 . S
H149 C157 0.930 . S
O150 Co119 2.037 . S
O150 C170 1.234 . S
C151 O125 1.269 . S
C151 O126 1.257 . S
C152 H127 0.930 . S
C152 C155 1.388 . S
C152 C157 1.418 . S
C153 H148 0.930 . S
C153 C156 1.404 . S
C153 C157 1.353 . S
N154 Co119 2.145 . S
N154 C155 1.397 . S
N154 C156 1.334 . S
C155 H136 0.929 . S
C155 C152 1.388 . S
C155 N154 1.397 . S
C156 H137 0.929 . S
C156 C153 1.404 . S
C156 N154 1.334 . S
C157 H149 0.930 . S
C157 C152 1.418 . S
C157 C153 1.353 . S
C158 H128 0.930 . S
C158 N159 1.327 1_455 S
C158 C160 1.446 . S
N159 Co118 2.151 . S
N159 C158 1.327 1_655 S
N159 C163 1.418 . S
C160 H139 0.929 . S
C160 C158 1.446 . S
C160 C161 1.332 . S
C161 H141 0.931 . S
C161 C160 1.332 . S
C161 C162 1.267 . S
C162 H130 0.929 1_455 S
C162 C161 1.267 . S
C162 C163 1.251 1_455 S
C163 H133 0.929 . S
C163 N159 1.418 . S
C163 C162 1.251 1_655 S
C164 H131 0.930 . S
C164 C166 1.406 . S
C164 C169 1.261 . S
C165 H132 0.930 . S
C165 N167 1.325 . S
C165 C168 1.357 . S
C166 H134 0.928 . S
C166 C164 1.406 . S
C166 N167 1.261 . S
N167 Co118 2.214 1_455 S
N167 C165 1.325 . S
N167 C166 1.261 . S
C168 H138 0.931 . S
C168 C165 1.357 . S
C168 C169 1.312 . S
C169 H140 0.930 . S
C169 C164 1.261 . S
C169 C168 1.312 . S
C170 O142 1.214 . S
C170 O150 1.234 . S
C171 H143 0.929 . S
C171 C174 1.391 . S
C171 C176 1.391 . S
C172 H144 0.929 . S
C172 C173 1.390 . S
C172 N175 1.391 . S
C173 H145 0.930 . S
C173 C172 1.390 . S
C173 C174 1.392 . S
C174 H146 0.929 . S
C174 C171 1.391 . S
C174 C173 1.392 . S
N175 Co119 2.257 . S
N175 C172 1.391 . S
N175 C176 1.388 . S
C176 H147 0.930 . S
C176 C171 1.391 . S
C176 N175 1.388 . S
Co177 O179 2.143 . S
Co177 O185 2.074 . S
Co177 O188 2.093 1_545 S
Co177 O201 2.097 . S
Co177 N218 2.152 . S
Co177 N226 2.214 1_545 S
Co178 O179 2.160 . S
Co178 O184 2.058 . S
Co178 O194 2.057 . S
Co178 O209 2.037 . S
Co178 N213 2.145 . S
Co178 N234 2.257 . S
O179 Co177 2.143 . S
O179 Co178 2.160 . S
C180 O181 1.278 . S
C180 O188 1.224 . S
O181 C180 1.278 . S
C182 O183 1.245 . S
C182 O194 1.232 . S
O183 C182 1.245 . S
O184 Co178 2.058 . S
O184 C210 1.269 . S
O185 Co177 2.074 . S
O185 C210 1.257 . S
H186 C211 0.930 . S
H187 C217 0.930 . S
O188 Co177 2.093 1_565 S
O188 C180 1.224 . S
H189 C221 0.928 1_545 S
H190 C223 0.930 . S
H191 C224 0.930 . S
H192 C222 0.929 . S
H193 C225 0.928 . S
O194 Co178 2.057 . S
O194 C182 1.232 . S
H195 C214 0.929 . S
H196 C215 0.929 . S
H197 C227 0.931 . S
H198 C219 0.929 . S
H199 C228 0.930 . S
H200 C220 0.931 . S
O201 Co177 2.097 . S
O201 C229 1.214 . S
H202 C230 0.929 . S
H203 C231 0.929 . S
H204 C232 0.930 . S
H205 C233 0.929 . S
H206 C235 0.930 . S
H207 C212 0.930 . S
H208 C216 0.930 . S
O209 Co178 2.037 . S
O209 C229 1.234 . S
C210 O184 1.269 . S
C210 O185 1.257 . S
C211 H186 0.930 . S
C211 C214 1.388 . S
C211 C216 1.418 . S
C212 H207 0.930 . S
C212 C215 1.404 . S
C212 C216 1.353 . S
N213 Co178 2.145 . S
N213 C214 1.397 . S
N213 C215 1.334 . S
C214 H195 0.929 . S
C214 C211 1.388 . S
C214 N213 1.397 . S
C215 H196 0.929 . S
C215 C212 1.404 . S
C215 N213 1.334 . S
C216 H208 0.930 . S
C216 C211 1.418 . S
C216 C212 1.353 . S
C217 H187 0.930 . S
C217 N218 1.325 1_565 S
C217 C219 1.446 . S
N218 Co177 2.152 . S
N218 C217 1.325 1_545 S
N218 C222 1.418 . S
C219 H198 0.929 . S
C219 C217 1.446 . S
C219 C220 1.332 . S
C220 H200 0.931 . S
C220 C219 1.332 . S
C220 C221 1.267 . S
C221 H189 0.928 1_565 S
C221 C220 1.267 . S
C221 C222 1.251 1_565 S
C222 H192 0.929 . S
C222 N218 1.418 . S
C222 C221 1.251 1_545 S
C223 H190 0.930 . S
C223 C225 1.406 . S
C223 C228 1.261 . S
C224 H191 0.930 . S
C224 N226 1.325 . S
C224 C227 1.357 . S
C225 H193 0.928 . S
C225 C223 1.406 . S
C225 N226 1.261 . S
N226 Co177 2.214 1_565 S
N226 C224 1.325 . S
N226 C225 1.261 . S
C227 H197 0.931 . S
C227 C224 1.357 . S
C227 C228 1.312 . S
C228 H199 0.930 . S
C228 C223 1.261 . S
C228 C227 1.312 . S
C229 O201 1.214 . S
C229 O209 1.234 . S
C230 H202 0.929 . S
C230 C233 1.391 . S
C230 C235 1.391 . S
C231 H203 0.929 . S
C231 C232 1.390 . S
C231 N234 1.391 . S
C232 H204 0.930 . S
C232 C231 1.390 . S
C232 C233 1.392 . S
C233 H205 0.929 . S
C233 C230 1.391 . S
C233 C232 1.392 . S
N234 Co178 2.257 . S
N234 C231 1.391 . S
N234 C235 1.388 . S
C235 H206 0.930 . S
C235 C230 1.391 . S
C235 N234 1.388 . S
Co236 O238 2.143 . S
Co236 O244 2.074 . S
Co236 O247 2.093 . S
Co236 O260 2.097 . S
Co236 N277 2.151 . S
Co236 N285 2.214 . S
Co237 O238 2.160 . S
Co237 O243 2.058 . S
Co237 O253 2.057 1_556 S
Co237 O268 2.037 . S
Co237 N272 2.145 1_556 S
Co237 N293 2.257 1_556 S
O238 Co236 2.143 . S
O238 Co237 2.160 . S
C239 O240 1.278 1_556 S
C239 O247 1.224 . S
O240 C239 1.278 1_554 S
C241 O242 1.245 . S
C241 O253 1.232 1_556 S
O242 C241 1.245 . S
O243 Co237 2.058 . S
O243 C269 1.269 . S
O244 Co236 2.074 . S
O244 C269 1.257 . S
H245 C270 0.927 1_556 S
H246 C276 0.930 . S
O247 Co236 2.093 . S
O247 C239 1.224 . S
H248 C280 0.929 . S
H249 C282 0.930 . S
H250 C283 0.930 . S
H251 C281 0.929 . S
H252 C284 0.928 . S
O253 Co237 2.057 1_554 S
O253 C241 1.232 1_554 S
H254 C273 0.929 . S
H255 C274 0.929 . S
H256 C286 0.931 . S
H257 C278 0.929 . S
H258 C287 0.930 . S
H259 C279 0.931 . S
O260 Co236 2.097 . S
O260 C288 1.214 . S
H261 C289 0.929 . S
H262 C290 0.929 . S
H263 C291 0.930 . S
H264 C292 0.929 . S
H265 C294 0.930 . S
H266 C271 0.930 . S
H267 C275 0.930 . S
O268 Co237 2.037 . S
O268 C288 1.234 . S
C269 O243 1.269 . S
C269 O244 1.257 . S
C270 H245 0.927 1_554 S
C270 C273 1.388 1_554 S
C270 C275 1.418 . S
C271 H266 0.930 . S
C271 C274 1.404 . S
C271 C275 1.353 . S
N272 Co237 2.145 1_554 S
N272 C273 1.397 1_554 S
N272 C274 1.334 . S
C273 H254 0.929 . S
C273 C270 1.388 1_556 S
C273 N272 1.397 1_556 S
C274 H255 0.929 . S
C274 C271 1.404 . S
C274 N272 1.334 . S
C275 H267 0.930 . S
C275 C270 1.418 . S
C275 C271 1.353 . S
C276 H246 0.930 . S
C276 N277 1.330 . S
C276 C278 1.446 . S
N277 Co236 2.151 . S
N277 C276 1.330 . S
N277 C281 1.418 . S
C278 H257 0.929 . S
C278 C276 1.446 . S
C278 C279 1.332 . S
C279 H259 0.931 . S
C279 C278 1.332 . S
C279 C280 1.267 . S
C280 H248 0.929 . S
C280 C279 1.267 . S
C280 C281 1.251 . S
C281 H251 0.929 . S
C281 N277 1.418 . S
C281 C280 1.251 . S
C282 H249 0.930 . S
C282 C284 1.406 . S
C282 C287 1.261 . S
C283 H250 0.930 . S
C283 N285 1.325 . S
C283 C286 1.357 . S
C284 H252 0.928 . S
C284 C282 1.406 . S
C284 N285 1.261 . S
N285 Co236 2.214 . S
N285 C283 1.325 . S
N285 C284 1.261 . S
C286 H256 0.931 . S
C286 C283 1.357 . S
C286 C287 1.312 . S
C287 H258 0.930 . S
C287 C282 1.261 . S
C287 C286 1.312 . S
C288 O260 1.214 . S
C288 O268 1.234 . S
C289 H261 0.929 . S
C289 C292 1.391 . S
C289 C294 1.391 . S
C290 H262 0.929 . S
C290 C291 1.390 . S
C290 N293 1.391 . S
C291 H263 0.930 . S
C291 C290 1.390 . S
C291 C292 1.392 . S
C292 H264 0.929 . S
C292 C289 1.391 . S
C292 C291 1.392 . S
N293 Co237 2.257 1_554 S
N293 C290 1.391 . S
N293 C294 1.388 . S
C294 H265 0.930 . S
C294 C289 1.391 . S
C294 N293 1.388 . S
Co295 O297 2.143 . S
Co295 O303 2.074 . S
Co295 O306 2.093 . S
Co295 O319 2.097 . S
Co295 N336 2.151 1_554 S
Co295 N344 2.214 . S
Co296 O297 2.160 . S
Co296 O302 2.058 . S
Co296 O312 2.057 . S
Co296 O327 2.037 . S
Co296 N331 2.145 . S
Co296 N352 2.257 . S
O297 Co295 2.143 . S
O297 Co296 2.160 . S
C298 O299 1.278 . S
C298 O306 1.224 . S
O299 C298 1.278 . S
C300 O301 1.245 1_554 S
C300 O312 1.232 . S
O301 C300 1.245 1_556 S
O302 Co296 2.058 . S
O302 C328 1.269 . S
O303 Co295 2.074 . S
O303 C328 1.257 . S
H304 C329 0.930 . S
H305 C335 0.930 . S
O306 Co295 2.093 . S
O306 C298 1.224 . S
H307 C339 0.929 . S
H308 C341 0.930 . S
H309 C342 0.930 . S
H310 C340 0.929 . S
H311 C343 0.928 . S
O312 Co296 2.057 . S
O312 C300 1.232 . S
H313 C332 0.929 . S
H314 C333 0.929 . S
H315 C345 0.931 . S
H316 C337 0.929 . S
H317 C346 0.930 . S
H318 C338 0.931 . S
O319 Co295 2.097 . S
O319 C347 1.214 . S
H320 C348 0.929 . S
H321 C349 0.929 . S
H322 C350 0.930 . S
H323 C351 0.929 . S
H324 C353 0.930 . S
H325 C330 0.930 . S
H326 C334 0.930 . S
O327 Co296 2.037 . S
O327 C347 1.234 . S
C328 O302 1.269 . S
C328 O303 1.257 . S
C329 H304 0.930 . S
C329 C332 1.388 . S
C329 C334 1.418 . S
C330 H325 0.930 . S
C330 C333 1.404 . S
C330 C334 1.353 . S
N331 Co296 2.145 . S
N331 C332 1.397 . S
N331 C333 1.334 . S
C332 H313 0.929 . S
C332 C329 1.388 . S
C332 N331 1.397 . S
C333 H314 0.929 . S
C333 C330 1.404 . S
C333 N331 1.334 . S
C334 H326 0.930 . S
C334 C329 1.418 . S
C334 C330 1.353 . S
C335 H305 0.930 . S
C335 N336 1.330 . S
C335 C337 1.446 . S
N336 Co295 2.151 1_556 S
N336 C335 1.330 . S
N336 C340 1.418 . S
C337 H316 0.929 . S
C337 C335 1.446 . S
C337 C338 1.332 . S
C338 H318 0.931 . S
C338 C337 1.332 . S
C338 C339 1.267 . S
C339 H307 0.929 . S
C339 C338 1.267 . S
C339 C340 1.251 . S
C340 H310 0.929 . S
C340 N336 1.418 . S
C340 C339 1.251 . S
C341 H308 0.930 . S
C341 C343 1.406 . S
C341 C346 1.261 1_556 S
C342 H309 0.930 . S
C342 N344 1.325 . S
C342 C345 1.357 . S
C343 H311 0.928 . S
C343 C341 1.406 . S
C343 N344 1.261 1_556 S
N344 Co295 2.214 . S
N344 C342 1.325 . S
N344 C343 1.261 1_554 S
C345 H315 0.931 . S
C345 C342 1.357 . S
C345 C346 1.312 . S
C346 H317 0.930 . S
C346 C341 1.261 1_554 S
C346 C345 1.312 . S
C347 O319 1.214 . S
C347 O327 1.234 . S
C348 H320 0.929 . S
C348 C351 1.391 . S
C348 C353 1.391 . S
C349 H321 0.929 . S
C349 C350 1.390 . S
C349 N352 1.391 . S
C350 H322 0.930 . S
C350 C349 1.390 . S
C350 C351 1.392 . S
C351 H323 0.929 . S
C351 C348 1.391 . S
C351 C350 1.392 . S
N352 Co296 2.257 . S
N352 C349 1.391 . S
N352 C353 1.388 . S
C353 H324 0.930 . S
C353 C348 1.391 . S
C353 N352 1.388 . S
Co354 O356 2.143 . S
Co354 O362 2.074 . S
Co354 O365 2.093 . S
Co354 O378 2.097 . S
Co354 N395 2.151 . S
Co354 N403 2.214 . S
Co355 O356 2.160 . S
Co355 O361 2.058 . S
Co355 O371 2.057 1_556 S
Co355 O386 2.037 . S
Co355 N390 2.145 1_556 S
Co355 N411 2.257 1_556 S
O356 Co354 2.143 . S
O356 Co355 2.160 . S
C357 O358 1.278 1_556 S
C357 O365 1.224 . S
O358 C357 1.278 1_554 S
C359 O360 1.245 . S
C359 O371 1.232 1_556 S
O360 C359 1.245 . S
O361 Co355 2.058 . S
O361 C387 1.269 . S
O362 Co354 2.074 . S
O362 C387 1.257 . S
H363 C388 0.927 1_556 S
H364 C394 0.930 . S
O365 Co354 2.093 . S
O365 C357 1.224 . S
H366 C398 0.929 . S
H367 C400 0.930 . S
H368 C401 0.930 . S
H369 C399 0.929 . S
H370 C402 0.928 . S
O371 Co355 2.057 1_554 S
O371 C359 1.232 1_554 S
H372 C391 0.929 . S
H373 C392 0.929 . S
H374 C404 0.931 . S
H375 C396 0.929 . S
H376 C405 0.930 . S
H377 C397 0.931 . S
O378 Co354 2.097 . S
O378 C406 1.214 . S
H379 C407 0.929 . S
H380 C408 0.929 . S
H381 C409 0.930 . S
H382 C410 0.929 . S
H383 C412 0.930 . S
H384 C389 0.930 . S
H385 C393 0.930 . S
O386 Co355 2.037 . S
O386 C406 1.234 . S
C387 O361 1.269 . S
C387 O362 1.257 . S
C388 H363 0.927 1_554 S
C388 C391 1.388 1_554 S
C388 C393 1.418 . S
C389 H384 0.930 . S
C389 C392 1.404 . S
C389 C393 1.353 . S
N390 Co355 2.145 1_554 S
N390 C391 1.397 1_554 S
N390 C392 1.334 . S
C391 H372 0.929 . S
C391 C388 1.388 1_556 S
C391 N390 1.397 1_556 S
C392 H373 0.929 . S
C392 C389 1.404 . S
C392 N390 1.334 . S
C393 H385 0.930 . S
C393 C388 1.418 . S
C393 C389 1.353 . S
C394 H364 0.930 . S
C394 N395 1.330 . S
C394 C396 1.446 . S
N395 Co354 2.151 . S
N395 C394 1.330 . S
N395 C399 1.418 . S
C396 H375 0.929 . S
C396 C394 1.446 . S
C396 C397 1.332 . S
C397 H377 0.931 . S
C397 C396 1.332 . S
C397 C398 1.267 . S
C398 H366 0.929 . S
C398 C397 1.267 . S
C398 C399 1.251 . S
C399 H369 0.929 . S
C399 N395 1.418 . S
C399 C398 1.251 . S
C400 H367 0.930 . S
C400 C402 1.406 . S
C400 C405 1.261 . S
C401 H368 0.930 . S
C401 N403 1.325 . S
C401 C404 1.357 . S
C402 H370 0.928 . S
C402 C400 1.406 . S
C402 N403 1.261 . S
N403 Co354 2.214 . S
N403 C401 1.325 . S
N403 C402 1.261 . S
C404 H374 0.931 . S
C404 C401 1.357 . S
C404 C405 1.312 . S
C405 H376 0.930 . S
C405 C400 1.261 . S
C405 C404 1.312 . S
C406 O378 1.214 . S
C406 O386 1.234 . S
C407 H379 0.929 . S
C407 C410 1.391 . S
C407 C412 1.391 . S
C408 H380 0.929 . S
C408 C409 1.390 . S
C408 N411 1.391 . S
C409 H381 0.930 . S
C409 C408 1.390 . S
C409 C410 1.392 . S
C410 H382 0.929 . S
C410 C407 1.391 . S
C410 C409 1.392 . S
N411 Co355 2.257 1_554 S
N411 C408 1.391 . S
N411 C412 1.388 . S
C412 H383 0.930 . S
C412 C407 1.391 . S
C412 N411 1.388 . S
Co413 O415 2.143 . S
Co413 O421 2.074 . S
Co413 O424 2.093 . S
Co413 O437 2.097 . S
Co413 N454 2.151 1_554 S
Co413 N462 2.214 . S
Co414 O415 2.160 . S
Co414 O420 2.058 . S
Co414 O430 2.057 . S
Co414 O445 2.037 . S
Co414 N449 2.145 . S
Co414 N470 2.257 . S
O415 Co413 2.143 . S
O415 Co414 2.160 . S
C416 O417 1.278 . S
C416 O424 1.224 . S
O417 C416 1.278 . S
C418 O419 1.245 1_554 S
C418 O430 1.232 . S
O419 C418 1.245 1_556 S
O420 Co414 2.058 . S
O420 C446 1.269 . S
O421 Co413 2.074 . S
O421 C446 1.257 . S
H422 C447 0.930 . S
H423 C453 0.930 . S
O424 Co413 2.093 . S
O424 C416 1.224 . S
H425 C457 0.929 . S
H426 C459 0.930 . S
H427 C460 0.930 . S
H428 C458 0.929 . S
H429 C461 0.928 . S
O430 Co414 2.057 . S
O430 C418 1.232 . S
H431 C450 0.929 . S
H432 C451 0.929 . S
H433 C463 0.931 . S
H434 C455 0.929 . S
H435 C464 0.930 . S
H436 C456 0.931 . S
O437 Co413 2.097 . S
O437 C465 1.214 . S
H438 C466 0.929 . S
H439 C467 0.929 . S
H440 C468 0.930 . S
H441 C469 0.929 . S
H442 C471 0.930 . S
H443 C448 0.930 . S
H444 C452 0.930 . S
O445 Co414 2.037 . S
O445 C465 1.234 . S
C446 O420 1.269 . S
C446 O421 1.257 . S
C447 H422 0.930 . S
C447 C450 1.388 . S
C447 C452 1.418 . S
C448 H443 0.930 . S
C448 C451 1.404 . S
C448 C452 1.353 . S
N449 Co414 2.145 . S
N449 C450 1.397 . S
N449 C451 1.334 . S
C450 H431 0.929 . S
C450 C447 1.388 . S
C450 N449 1.397 . S
C451 H432 0.929 . S
C451 C448 1.404 . S
C451 N449 1.334 . S
C452 H444 0.930 . S
C452 C447 1.418 . S
C452 C448 1.353 . S
C453 H423 0.930 . S
C453 N454 1.330 . S
C453 C455 1.446 . S
N454 Co413 2.151 1_556 S
N454 C453 1.330 . S
N454 C458 1.418 . S
C455 H434 0.929 . S
C455 C453 1.446 . S
C455 C456 1.332 . S
C456 H436 0.931 . S
C456 C455 1.332 . S
C456 C457 1.267 . S
C457 H425 0.929 . S
C457 C456 1.267 . S
C457 C458 1.251 . S
C458 H428 0.929 . S
C458 N454 1.418 . S
C458 C457 1.251 . S
C459 H426 0.930 . S
C459 C461 1.406 . S
C459 C464 1.261 1_556 S
C460 H427 0.930 . S
C460 N462 1.325 . S
C460 C463 1.357 . S
C461 H429 0.928 . S
C461 C459 1.406 . S
C461 N462 1.261 1_556 S
N462 Co413 2.214 . S
N462 C460 1.325 . S
N462 C461 1.261 1_554 S
C463 H433 0.931 . S
C463 C460 1.357 . S
C463 C464 1.312 . S
C464 H435 0.930 . S
C464 C459 1.261 1_554 S
C464 C463 1.312 . S
C465 O437 1.214 . S
C465 O445 1.234 . S
C466 H438 0.929 . S
C466 C469 1.391 . S
C466 C471 1.391 . S
C467 H439 0.929 . S
C467 C468 1.390 . S
C467 N470 1.391 . S
C468 H440 0.930 . S
C468 C467 1.390 . S
C468 C469 1.392 . S
C469 H441 0.929 . S
C469 C466 1.391 . S
C469 C468 1.392 . S
N470 Co414 2.257 . S
N470 C467 1.391 . S
N470 C471 1.388 . S
C471 H442 0.930 . S
C471 C466 1.391 . S
C471 N470 1.388 . S
C472 C473 1.387 . S
C472 H476 0.950 . S
C472 C481 1.390 . S
C473 C472 1.387 . S
C473 C475 1.387 . S
H474 C481 0.950 . S
C475 C473 1.387 . S
C475 C477 1.390 . S
C475 H479 0.950 . S
H476 C472 0.950 . S
C477 C475 1.390 . S
C477 C478 1.387 . S
C477 H480 0.950 . S
C478 C477 1.387 . S
C478 C481 1.387 . S
H479 C475 0.950 . S
H480 C477 0.950 . S
C481 C472 1.390 . S
C481 H474 0.950 . S
C481 C478 1.387 . S
C482 C483 1.387 . S
C482 H486 0.950 . S
C482 C491 1.390 . S
C483 C482 1.387 . S
C483 C485 1.387 . S
H484 C491 0.950 . S
C485 C483 1.387 . S
C485 C487 1.390 . S
C485 H489 0.950 . S
H486 C482 0.950 . S
C487 C485 1.390 . S
C487 C488 1.387 . S
C487 H490 0.950 . S
C488 C487 1.387 . S
C488 C491 1.387 . S
H489 C485 0.950 . S
H490 C487 0.950 . S
C491 C482 1.390 . S
C491 H484 0.950 . S
C491 C488 1.387 . S
C492 C493 1.387 . S
C492 H496 0.950 . S
C492 C501 1.390 . S
C493 C492 1.387 . S
C493 C495 1.387 . S
H494 C501 0.950 . S
C495 C493 1.387 . S
C495 C497 1.390 . S
C495 H499 0.950 . S
H496 C492 0.950 . S
C497 C495 1.390 . S
C497 C498 1.387 . S
C497 H500 0.950 . S
C498 C497 1.387 . S
C498 C501 1.387 . S
H499 C495 0.950 . S
H500 C497 0.950 . S
C501 C492 1.390 . S
C501 H494 0.950 . S
C501 C498 1.387 . S
C502 C503 1.387 . S
C502 H506 0.950 . S
C502 C511 1.390 . S
C503 C502 1.387 . S
C503 C505 1.387 . S
H504 C511 0.950 . S
C505 C503 1.387 . S
C505 C507 1.390 . S
C505 H509 0.950 . S
H506 C502 0.950 . S
C507 C505 1.390 . S
C507 C508 1.387 . S
C507 H510 0.950 . S
C508 C507 1.387 . S
C508 C511 1.387 . S
H509 C505 0.950 . S
H510 C507 0.950 . S
C511 C502 1.390 . S
C511 H504 0.950 . S
C511 C508 1.387 . S
C512 C513 1.387 . S
C512 H516 0.950 . S
C512 C521 1.390 . S
C513 C512 1.387 . S
C513 C515 1.387 . S
H514 C521 0.950 . S
C515 C513 1.387 . S
C515 C517 1.390 . S
C515 H519 0.950 . S
H516 C512 0.950 . S
C517 C515 1.390 . S
C517 C518 1.387 . S
C517 H520 0.950 . S
C518 C517 1.387 . S
C518 C521 1.387 . S
H519 C515 0.950 . S
H520 C517 0.950 . S
C521 C512 1.390 . S
C521 H514 0.950 . S
C521 C518 1.387 . S
C522 C523 1.387 . S
C522 H526 0.950 . S
C522 C531 1.390 . S
C523 C522 1.387 . S
C523 C525 1.387 . S
H524 C531 0.950 . S
C525 C523 1.387 . S
C525 C527 1.390 . S
C525 H529 0.950 . S
H526 C522 0.950 . S
C527 C525 1.390 . S
C527 C528 1.387 . S
C527 H530 0.950 . S
C528 C527 1.387 . S
C528 C531 1.387 . S
H529 C525 0.950 . S
H530 C527 0.950 . S
C531 C522 1.390 . S
C531 H524 0.950 . S
C531 C528 1.387 . S
C532 C533 1.387 . S
C532 H536 0.950 . S
C532 C541 1.390 . S
C533 C532 1.387 . S
C533 C535 1.387 . S
H534 C541 0.950 . S
C535 C533 1.387 . S
C535 C537 1.390 . S
C535 H539 0.950 . S
H536 C532 0.950 . S
C537 C535 1.390 . S
C537 C538 1.387 . S
C537 H540 0.950 . S
C538 C537 1.387 . S
C538 C541 1.387 . S
H539 C535 0.950 . S
H540 C537 0.950 . S
C541 C532 1.390 . S
C541 H534 0.950 . S
C541 C538 1.387 . S
C542 C543 1.387 . S
C542 H546 0.950 . S
C542 C551 1.390 . S
C543 C542 1.387 . S
C543 C545 1.387 . S
H544 C551 0.950 . S
C545 C543 1.387 . S
C545 C547 1.390 . S
C545 H549 0.950 . S
H546 C542 0.950 . S
C547 C545 1.390 . S
C547 C548 1.387 . S
C547 H550 0.950 . S
C548 C547 1.387 . S
C548 C551 1.387 . S
H549 C545 0.950 . S
H550 C547 0.950 . S
C551 C542 1.390 . S
C551 H544 0.950 . S
C551 C548 1.387 . S
C552 C553 1.387 . S
C552 H556 0.950 . S
C552 C561 1.390 . S
C553 C552 1.387 . S
C553 C555 1.387 1_556 S
H554 C561 0.950 . S
C555 C553 1.387 1_554 S
C555 C557 1.390 . S
C555 H559 0.950 . S
H556 C552 0.950 . S
C557 C555 1.390 . S
C557 C558 1.387 1_554 S
C557 H560 0.950 . S
C558 C557 1.387 1_556 S
C558 C561 1.387 . S
H559 C555 0.950 . S
H560 C557 0.950 . S
C561 C552 1.390 . S
C561 H554 0.950 . S
C561 C558 1.387 . S
C562 C563 1.387 1_556 S
C562 H566 0.950 . S
C562 C571 1.390 . S
C563 C562 1.387 1_554 S
C563 C565 1.387 . S
H564 C571 0.950 . S
C565 C563 1.387 . S
C565 C567 1.390 . S
C565 H569 0.950 . S
H566 C562 0.950 . S
C567 C565 1.390 . S
C567 C568 1.387 . S
C567 H570 0.950 . S
C568 C567 1.387 . S
C568 C571 1.387 1_554 S
H569 C565 0.950 . S
H570 C567 0.950 . S
C571 C562 1.390 . S
C571 H564 0.950 . S
C571 C568 1.387 1_556 S
C572 C573 1.387 1_554 S
C572 H576 0.950 . S
C572 C581 1.390 . S
C573 C572 1.387 1_556 S
C573 C575 1.387 . S
H574 C581 0.950 . S
C575 C573 1.387 . S
C575 C577 1.390 . S
C575 H579 0.950 . S
H576 C572 0.950 . S
C577 C575 1.390 . S
C577 C578 1.387 . S
C577 H580 0.950 . S
C578 C577 1.387 . S
C578 C581 1.387 1_556 S
H579 C575 0.950 . S
H580 C577 0.950 . S
C581 C572 1.390 . S
C581 H574 0.950 . S
C581 C578 1.387 1_554 S
C582 C583 1.387 1_556 S
C582 H586 0.950 . S
C582 C591 1.390 . S
C583 C582 1.387 1_554 S
C583 C585 1.387 . S
H584 C591 0.950 . S
C585 C583 1.387 . S
C585 C587 1.390 . S
C585 H589 0.950 . S
H586 C582 0.950 . S
C587 C585 1.390 . S
C587 C588 1.387 . S
C587 H590 0.950 . S
C588 C587 1.387 . S
C588 C591 1.387 1_554 S
H589 C585 0.950 . S
H590 C587 0.950 . S
C591 C582 1.390 . S
C591 H584 0.950 . S
C591 C588 1.387 1_556 S
C592 C593 1.387 . S
C592 H596 0.950 . S
C592 C601 1.390 1_655 S
C593 C592 1.387 . S
C593 C595 1.387 . S
H594 C601 0.950 . S
C595 C593 1.387 . S
C595 C597 1.390 1_655 S
C595 H599 0.950 . S
H596 C592 0.950 . S
C597 C595 1.390 1_455 S
C597 C598 1.387 . S
C597 H600 0.950 . S
C598 C597 1.387 . S
C598 C601 1.387 . S
H599 C595 0.950 . S
H600 C597 0.950 . S
C601 C592 1.390 1_455 S
C601 H594 0.950 . S
C601 C598 1.387 . S
C602 C603 1.387 . S
C602 H606 0.950 . S
C602 C611 1.390 1_545 S
C603 C602 1.387 . S
C603 C605 1.387 . S
H604 C611 0.950 . S
C605 C603 1.387 . S
C605 C607 1.390 1_545 S
C605 H609 0.950 . S
H606 C602 0.950 . S
C607 C605 1.390 1_565 S
C607 C608 1.387 . S
C607 H610 0.950 . S
C608 C607 1.387 . S
C608 C611 1.387 . S
H609 C605 0.950 . S
H610 C607 0.950 . S
C611 C602 1.390 1_565 S
C611 H604 0.950 . S
C611 C608 1.387 . S
C612 C613 1.387 1_554 S
C612 H616 0.950 . S
C612 C621 1.390 1_545 S
C613 C612 1.387 1_556 S
C613 C615 1.387 . S
H614 C621 0.950 . S
C615 C613 1.387 . S
C615 C617 1.390 1_545 S
C615 H619 0.950 . S
H616 C612 0.950 . S
C617 C615 1.390 1_565 S
C617 C618 1.387 . S
C617 H620 0.950 . S
C618 C617 1.387 . S
C618 C621 1.387 1_556 S
H619 C615 0.950 . S
H620 C617 0.950 . S
C621 C612 1.390 1_565 S
C621 H614 0.950 . S
C621 C618 1.387 1_554 S
C622 C623 1.387 . S
C622 H626 0.950 . S
C622 C631 1.390 1_455 S
C623 C622 1.387 . S
C623 C625 1.387 1_554 S
H624 C631 0.950 . S
C625 C623 1.387 1_556 S
C625 C627 1.390 1_455 S
C625 H629 0.950 . S
H626 C622 0.950 . S
C627 C625 1.390 1_655 S
C627 C628 1.387 1_556 S
C627 H630 0.950 . S
C628 C627 1.387 1_554 S
C628 C631 1.387 . S
H629 C625 0.950 . S
H630 C627 0.950 . S
C631 C622 1.390 1_655 S
C631 H624 0.950 . S
C631 C628 1.387 . S
C473 C465 1.610 . S
C478 C33 1.619 . S
C483 C92 1.620 . S
C488 C269 1.619 . S
C493 C151 1.619 . S
C498 C347 1.610 . S
C503 C387 1.621 . S
C508 C210 1.620 . S
C513 C62 1.554 . S
C518 C5 1.542 . S
C523 C64 1.545 . S
C528 C121 1.558 . S
C533 C180 1.553 . S
C538 C123 1.541 . S
C543 C182 1.545 . S
C548 C3 1.558 . S
C553 C418 1.562 1_556 S
C558 C241 1.543 . S
C563 C298 1.540 . S
C568 C239 1.557 1_554 S
C573 C300 1.562 1_556 S
C578 C359 1.541 . S
C583 C357 1.557 1_554 S
C588 C416 1.540 . S
C593 C170 1.352 . S
C598 C52 1.352 . S
C603 C229 1.352 . S
C608 C111 1.352 . S
C613 C406 1.351 . S
C618 C288 1.351 . S
C623 C446 1.348 . S
C628 C328 1.348 . S
