# Generated by pormake.
# Topology snp, (6)-cn, num edge types: 1
# Building blocks:
#     Node 0, Type 0, BuildingBlock: JUFBIX_clean_sbu_0, # of connection points: 6
#     Node 1, Type 0, BuildingBlock: JUFBIX_clean_sbu_0, # of connection points: 6
#     Node 2, Type 0, BuildingBlock: JUFBIX_clean_sbu_0, # of connection points: 6
#     Node 3, Type 0, BuildingBlock: JUFBIX_clean_sbu_0, # of connection points: 6
#     Edge 4, Type (0, 0), BuildingBlock: MIFKUJ_clean_linker_0, # of connection points: 2
#     Edge 5, Type (0, 0), BuildingBlock: MIFKUJ_clean_linker_0, # of connection points: 2
#     Edge 6, Type (0, 0), BuildingBlock: MIFKUJ_clean_linker_0, # of connection points: 2
#     Edge 7, Type (0, 0), BuildingBlock: MIFKUJ_clean_linker_0, # of connection points: 2
#     Edge 8, Type (0, 0), BuildingBlock: MIFKUJ_clean_linker_0, # of connection points: 2
#     Edge 9, Type (0, 0), BuildingBlock: MIFKUJ_clean_linker_0, # of connection points: 2
#     Edge 10, Type (0, 0), BuildingBlock: MIFKUJ_clean_linker_0, # of connection points: 2
#     Edge 11, Type (0, 0), BuildingBlock: MIFKUJ_clean_linker_0, # of connection points: 2
#     Edge 12, Type (0, 0), BuildingBlock: MIFKUJ_clean_linker_0, # of connection points: 2
#     Edge 13, Type (0, 0), BuildingBlock: MIFKUJ_clean_linker_0, # of connection points: 2
#     Edge 14, Type (0, 0), BuildingBlock: MIFKUJ_clean_linker_0, # of connection points: 2
#     Edge 15, Type (0, 0), BuildingBlock: MIFKUJ_clean_linker_0, # of connection points: 2
# Relax obj value: 0.703
# Max RMSD: 0.263
# Mean RMSD: 0.261
data_MOF--net-snp--node1-JUFBIX_clean_sbu_0--edge1-MIFKUJ_clean_linker_0
_symmetry_space_group_name_H-M    P1
_symmetry_Int_Tables_number       1
_symmetry_cell_setting            triclinic
loop_
_symmetry_equiv_pos_as_xyz
'x, y, z'
_cell_length_a     33.889349
_cell_length_b     33.57545
_cell_length_c     34.833412
_cell_angle_alpha  89.332115
_cell_angle_beta   96.562607
_cell_angle_gamma 95.500079
loop_
_atom_site_label
_atom_site_type_symbol
_atom_site_fract_x
_atom_site_fract_y
_atom_site_fract_z
_atom_type_partial_charge
Co0 Co 0.2537 0.07428 0.0665 0.0
C1 C 0.31343 0.02381 0.06414 0.0
Co2 Co 0.23892 0.024 0.02501 0.0
C3 C 0.248 0.12262 0.13324 0.0
C4 C 0.30022 0.14128 0.10619 0.0
N5 N 0.26726 0.11506 0.10267 0.0
N6 N 0.26774 0.15205 0.15602 0.0
C7 C 0.30053 0.16412 0.13887 0.0
H8 H 0.22023 0.10643 0.13889 0.0
H9 H 0.32324 0.14275 0.08698 0.0
C10 C 0.1792 0.07448 0.02661 0.0
N11 N 0.2255 0.98358 0.9881 0.0
C12 C 0.20635 0.98674 0.95202 0.0
C13 C 0.2348 0.94541 0.99067 0.0
N14 N 0.20369 0.95221 0.9319 0.0
C15 C 0.22162 0.92616 0.95618 0.0
C16 C 0.21697 0.00516 0.09784 0.0
O17 O 0.20266 0.09291 0.05312 0.0
O18 O 0.19012 0.04405 0.01098 0.0
O19 O 0.21563 0.99109 0.06382 0.0
O20 O 0.23289 0.04052 0.10489 0.0
O21 O 0.28855 0.00456 0.03944 0.0
H22 H 0.25064 0.93256 0.01581 0.0
H23 H 0.19557 0.01421 0.94032 0.0
O24 O 0.30403 0.05532 0.07927 0.0
O25 O 0.27441 0.10732 0.02781 0.0
O26 O 0.26164 0.05702 0.98725 0.0
C27 C 0.27523 0.09311 0.99432 0.0
H28 H 0.32393 0.18662 0.15 0.0
H29 H 0.22483 0.8953 0.94954 0.0
Co30 Co 0.05403 0.24198 0.64712 0.0
C31 C 0.05769 0.31767 0.61455 0.0
Co32 Co 0.10496 0.25582 0.61289 0.0
C33 C 0.01287 0.21499 0.71261 0.0
C34 C 0.97349 0.23771 0.66693 0.0
N35 N 0.01195 0.23133 0.67687 0.0
N36 N 0.97646 0.21085 0.72547 0.0
C37 C 0.95167 0.22518 0.69658 0.0
H38 H 0.03994 0.20652 0.72886 0.0
H39 H 0.96198 0.25033 0.63968 0.0
C40 C 0.10075 0.17988 0.64522 0.0
N41 N 0.14747 0.26471 0.58316 0.0
C42 C 0.1459 0.2672 0.54423 0.0
C43 C 0.18613 0.26106 0.59539 0.0
N44 N 0.18179 0.26412 0.5315 0.0
C45 C 0.20719 0.26074 0.56394 0.0
C46 C 0.12332 0.27632 0.68942 0.0
O47 O 0.07039 0.19109 0.65871 0.0
O48 O 0.12056 0.20409 0.62473 0.0
O49 O 0.13741 0.2765 0.65717 0.0
O50 O 0.08717 0.26298 0.6912 0.0
O51 O 0.08876 0.30744 0.60133 0.0
H52 H 0.19782 0.25581 0.62505 0.0
H53 H 0.11841 0.26906 0.52557 0.0
O54 O 0.03812 0.29323 0.6351 0.0
O55 O 0.02115 0.22034 0.60216 0.0
O56 O 0.0718 0.23452 0.56901 0.0
C57 C 0.03604 0.21991 0.57025 0.0
H58 H 0.9198 0.22591 0.69633 0.0
H59 H 0.23827 0.2554 0.5651 0.0
Co60 Co 0.79063 -0.00157 0.12202 0.0
C61 C 0.84914 0.94658 0.13334 0.0
Co62 Co 0.78117 0.94673 0.08202 0.0
C63 C 0.81786 0.04137 0.19316 0.0
C64 C 0.78922 0.07868 0.15057 0.0
N65 N 0.79883 0.04095 0.15683 0.0
N66 N 0.82095 0.07792 0.2098 0.0
C67 C 0.80263 0.10137 0.18296 0.0
H68 H 0.83029 0.01548 0.20665 0.0
H69 H 0.77409 0.08923 0.1239 0.0
C70 C 0.72195 -0.00242 0.07145 0.0
N71 N 0.77449 0.90387 0.0479 0.0
C72 C 0.77502 0.90484 0.00919 0.0
C73 C 0.77316 0.86468 0.0572 0.0
N74 N 0.77466 0.86796 0.99408 0.0
C75 C 0.77312 0.84256 0.0242 0.0
C76 C 0.7487 0.93091 0.15009 0.0
O77 O 0.74255 0.01676 0.09929 0.0
O78 O 0.73362 0.96563 0.05935 0.0
O79 O 0.7527 0.91631 0.11748 0.0
O80 O 0.76246 0.9669 0.1578 0.0
O81 O 0.82902 0.92763 0.1052 0.0
H82 H 0.7741 0.85298 0.08632 0.0
H83 H 0.77684 0.93218 0.99248 0.0
O84 O 0.83785 0.97916 0.1441 0.0
O85 O 0.81951 0.02979 0.08575 0.0
O86 O 0.80967 0.97809 0.04688 0.0
C87 C 0.82378 0.01404 0.05361 0.0
H88 H 0.79923 0.13281 0.18616 0.0
H89 H 0.77408 0.81048 0.0228 0.0
Co90 Co 0.92114 0.78463 0.52861 0.0
C91 C 0.93362 0.8539 0.4865 0.0
Co92 Co 0.97303 0.78589 0.49534 0.0
C93 C 0.87762 0.78087 0.59528 0.0
C94 C 0.84065 0.79277 0.5432 0.0
N95 N 0.87788 0.78447 0.55667 0.0
N96 N 0.84191 0.78726 0.60649 0.0
C97 C 0.81851 0.7946 0.57375 0.0
H98 H 0.90377 0.77591 0.61501 0.0
H99 H 0.83072 0.79879 0.51325 0.0
C100 C 0.96091 0.71658 0.53719 0.0
N101 N 0.01621 0.78723 0.4668 0.0
C102 C 0.0183 0.80212 0.43083 0.0
C103 C 0.053 0.77649 0.47828 0.0
N104 N 0.05509 0.80163 0.41937 0.0
C105 C 0.07693 0.78529 0.4493 0.0
C106 C 0.99217 0.81762 0.56941 0.0
O107 O 0.93175 0.73318 0.54785 0.0
O108 O 0.98259 0.73457 0.51372 0.0
O109 O 0.00723 0.80925 0.53897 0.0
O110 O 0.95502 0.80911 0.57073 0.0
O111 O 0.96305 0.83701 0.47727 0.0
H112 H 0.06216 0.76418 0.50637 0.0
H113 H 0.99323 0.81369 0.41375 0.0
O114 O 0.91095 0.83604 0.50916 0.0
O115 O 0.88778 0.76091 0.48637 0.0
O116 O 0.93852 0.76336 0.45233 0.0
C117 C 0.90142 0.75514 0.45466 0.0
H118 H 0.7879 0.8018 0.57209 0.0
H119 H 0.10837 0.78131 0.45097 0.0
H120 H 0.90185 0.98596 0.188 0.0
H121 H 0.97026 -0.00091 0.17662 0.0
H122 H 0.95997 0.89344 0.10547 0.0
H123 H 0.88873 0.8836 0.11209 0.0
H124 H 0.0352 0.99587 0.16005 0.0
H125 H -0.00303 0.90718 0.03701 0.0
H126 H 0.94691 0.86174 0.99769 0.0
H127 H 0.85704 0.94046 0.01111 0.0
H128 H 0.9064 0.98577 0.05181 0.0
H129 H 0.12143 0.03356 0.97803 0.0
H130 H 0.05826 0.01219 0.99952 0.0
H131 H 0.07116 0.11291 0.07743 0.0
H132 H 0.1391 0.12968 0.06138 0.0
H133 H -0.00412 0.01049 0.01962 0.0
H134 H 0.03479 0.0971 0.14493 0.0
H135 H 0.08529 0.14205 0.1843 0.0
H136 H 0.17491 0.06385 0.1676 0.0
H137 H 0.12535 0.01996 0.12612 0.0
C138 C 0.91425 0.96469 0.1707 0.0
C139 C 0.88945 0.93656 0.14742 0.0
C140 C 0.95396 0.972 0.16439 0.0
C141 C 0.96867 0.95008 0.13586 0.0
C142 C 0.94748 0.91353 0.12379 0.0
C143 C 0.90695 0.90739 0.12829 0.0
C144 C -0.00406 0.97253 0.11099 0.0
C145 C 0.02714 -0.00162 0.12917 0.0
C146 C 0.9853 0.97675 0.07059 0.0
C147 C 0.95499 0.94933 0.04782 0.0
C148 C 0.96636 0.91449 0.0319 0.0
C149 C 0.93813 0.88874 0.00958 0.0
C150 C 0.89866 0.89802 1.00238 0.0
C151 C 0.8874 0.9331 0.01741 0.0
C152 C 0.9154 0.95873 0.0402 0.0
C153 C 0.11075 0.05172 0.99947 0.0
C154 C 0.13656 0.08059 0.02097 0.0
C155 C 0.07397 0.03956 0.01171 0.0
C156 C 0.06187 0.0581 0.04384 0.0
C157 C 0.08228 0.09498 0.05628 0.0
C158 C 0.12059 0.10549 0.04606 0.0
C159 C 0.03579 0.03358 0.0686 0.0
C160 C 0.00459 0.00756 0.05037 0.0
C161 C 0.04656 0.02901 0.10893 0.0
C162 C 0.07691 0.05602 0.13182 0.0
C163 C 0.06552 0.09006 0.14914 0.0
C164 C 0.09399 0.11554 0.17139 0.0
C165 C 0.13354 0.1064 0.17755 0.0
C166 C 0.14465 0.07166 0.16167 0.0
C167 C 0.11651 0.04666 0.13851 0.0
H168 H 0.15524 0.12587 0.19534 0.0
H169 H 0.87692 0.8782 0.98486 0.0
H170 H 0.8944 0.90633 0.52342 0.0
H171 H 0.92366 0.97378 0.53818 0.0
H172 H 0.00054 0.96723 0.44833 0.0
H173 H 0.97172 0.89908 0.4338 0.0
H174 H 0.03909 0.95935 0.52007 0.0
H175 H 0.95284 0.04928 0.45804 0.0
H176 H 0.88754 0.07326 0.4361 0.0
H177 H 0.86747 0.09123 0.55385 0.0
H178 H 0.93217 0.06633 0.57656 0.0
H179 H 0.14701 0.14233 0.60041 0.0
H180 H 0.1205 0.08069 0.56687 0.0
H181 H 0.03558 0.05785 0.64955 0.0
H182 H 0.06201 0.11935 0.68346 0.0
H183 H 0.00533 0.08656 0.5728 0.0
H184 H 0.08329 0.98784 0.63488 0.0
H185 H 0.14416 0.95633 0.65904 0.0
H186 H 0.17596 0.95115 0.54356 0.0
H187 H 0.11577 0.98346 0.51874 0.0
C188 C 0.91576 0.92 0.50515 0.0
C189 C 0.93263 0.89694 0.47912 0.0
C190 C 0.93246 0.95885 0.51355 0.0
C191 C 0.9654 0.97469 0.49536 0.0
C192 C 0.97574 0.95495 0.46325 0.0
C193 C 0.95924 0.91598 0.45502 0.0
C194 C -0.00446 0.00261 0.51751 0.0
C195 C 0.03222 0.98786 0.53067 0.0
C196 C 0.98567 0.03875 0.53249 0.0
C197 C 0.94742 0.0556 0.519 0.0
C198 C 0.93441 0.05806 0.47928 0.0
C199 C 0.89742 0.07173 0.4667 0.0
C200 C 0.87326 0.08354 0.49357 0.0
C201 C 0.88616 0.08192 0.53307 0.0
C202 C 0.92306 0.06808 0.5458 0.0
C203 C 0.12438 0.12302 0.61295 0.0
C204 C 0.10458 0.13675 0.64285 0.0
C205 C 0.10915 0.08781 0.59357 0.0
C206 C 0.07501 0.06611 0.6049 0.0
C207 C 0.06136 0.07508 0.63997 0.0
C208 C 0.07669 0.11015 0.65942 0.0
C209 C 0.04803 0.04254 0.57584 0.0
C210 C 0.01229 0.05841 0.56145 0.0
C211 C 0.05848 0.00719 0.56002 0.0
C212 C 0.09524 0.98861 0.57501 0.0
C213 C 0.10352 0.9805 0.61469 0.0
C214 C 0.13781 0.96233 0.62849 0.0
C215 C 0.16388 0.95177 0.60287 0.0
C216 C 0.15576 0.9594 0.56338 0.0
C217 C 0.12157 0.97768 0.54943 0.0
H218 H 0.19036 0.93763 0.61361 0.0
H219 H 0.84469 0.09422 0.48378 0.0
H220 H 0.68559 0.06097 0.09427 0.0
H221 H 0.61414 0.06791 0.08404 0.0
H222 H 0.59722 0.96745 0.0059 0.0
H223 H 0.66854 0.96009 0.0159 0.0
H224 H 0.5484 0.07055 0.02303 0.0
H225 H 0.53144 0.90078 0.04617 0.0
H226 H 0.57278 0.8473 0.07092 0.0
H227 H 0.6449 0.93078 0.14823 0.0
H228 H 0.60349 0.98447 0.1245 0.0
H229 H 0.34505 0.96171 0.03261 0.0
H230 H 0.41605 0.95514 0.03099 0.0
H231 H 0.44572 0.05542 0.10862 0.0
H232 H 0.37504 0.06237 0.11052 0.0
H233 H 0.48677 0.95065 0.08676 0.0
H234 H 0.50791 0.12075 0.06165 0.0
H235 H 0.46657 0.17518 0.03988 0.0
H236 H 0.38575 0.09229 0.96941 0.0
H237 H 0.42707 0.03759 0.99006 0.0
C238 C 0.66689 0.04119 0.07389 0.0
C239 C 0.68228 0.00914 0.05688 0.0
C240 C 0.62617 0.04543 0.06787 0.0
C241 C 0.60072 0.0176 0.04495 0.0
C242 C 0.61667 0.98885 0.02404 0.0
C243 C 0.65734 0.9846 0.02997 0.0
C244 C 0.55799 0.01342 0.04936 0.0
C245 C 0.53485 0.04445 0.03694 0.0
C246 C 0.54067 0.97916 0.06751 0.0
C247 C 0.56466 0.94668 0.08321 0.0
C248 C 0.55596 0.90761 0.06862 0.0
C249 C 0.57941 0.87729 0.08246 0.0
C250 C 0.61153 0.88568 0.11102 0.0
C251 C 0.62009 0.92434 0.12603 0.0
C252 C 0.59663 0.95472 0.1124 0.0
C253 C 0.36668 0.98164 0.05022 0.0
C254 C 0.35465 0.01319 0.07093 0.0
C255 C 0.40711 0.97772 0.04933 0.0
C256 C 0.43565 0.00539 0.06899 0.0
C257 C 0.42379 0.03422 0.09288 0.0
C258 C 0.38345 0.03811 0.09389 0.0
C259 C 0.47719 0.0078 0.06049 0.0
C260 C 0.50015 0.97649 0.07232 0.0
C261 C 0.49433 0.04189 0.04198 0.0
C262 C 0.47043 0.07501 0.02773 0.0
C263 C 0.48153 0.11422 0.04124 0.0
C264 C 0.45807 0.14511 0.02912 0.0
C265 C 0.42349 0.13717 1.00338 0.0
C266 C 0.41248 0.09838 0.98942 0.0
C267 C 0.43593 0.06744 1.00132 0.0
H268 H 0.40526 0.16107 0.99419 0.0
H269 H 0.62973 0.8622 0.12159 0.0
H270 H 0.09977 0.38251 0.58581 0.0
H271 H 0.0798 0.45054 0.57818 0.0
H272 H 0.96726 0.4121 0.61993 0.0
H273 H 0.98692 0.34405 0.62777 0.0
H274 H 0.95986 0.46058 0.55453 0.0
H275 H 0.03411 0.46098 0.67936 0.0
H276 H 0.09113 0.44927 0.72735 0.0
H277 H 0.16777 0.53124 0.66729 0.0
H278 H 0.11131 0.54296 0.61852 0.0
H279 H 0.91251 0.66182 0.57324 0.0
H280 H 0.92607 0.59351 0.59245 0.0
H281 H 0.04218 0.61312 0.55231 0.0
H282 H 0.02895 0.68104 0.53296 0.0
H283 H 0.04294 0.57338 0.6234 0.0
H284 H 0.97 0.56708 0.49535 0.0
H285 H 0.9131 0.57855 0.44707 0.0
H286 H 0.83381 0.50736 0.514 0.0
H287 H 0.89023 0.49597 0.56301 0.0
C288 C 0.07068 0.38849 0.59312 0.0
C289 C 0.04498 0.35808 0.60755 0.0
C290 C 0.05943 0.42733 0.58895 0.0
C291 C 0.0223 0.43621 0.59896 0.0
C292 C -0.0039 0.40571 0.61226 0.0
C293 C 0.00744 0.36696 0.61677 0.0
C294 C 0.01099 0.47751 0.59566 0.0
C295 C 0.97756 0.48519 0.57008 0.0
C296 C 0.03446 0.50944 0.61576 0.0
C297 C 0.06853 0.50256 0.64506 0.0
C298 C 0.06319 0.47624 0.67616 0.0
C299 C 0.0954 0.46964 0.70355 0.0
C300 C 0.13307 0.48942 0.70032 0.0
C301 C 0.13858 0.5159 0.66972 0.0
C302 C 0.10648 0.52256 0.64221 0.0
C303 C 0.94103 0.65162 0.56885 0.0
C304 C 0.96954 0.67651 0.55128 0.0
C305 C 0.94868 0.6127 0.57977 0.0
C306 C 0.98499 0.59843 0.5735 0.0
C307 C 0.01401 0.62374 0.55735 0.0
C308 C 0.00628 0.66239 0.54611 0.0
C309 C 0.99228 0.55647 0.58175 0.0
C310 C 0.02495 0.54867 0.60827 0.0
C311 C 0.96811 0.52442 0.56256 0.0
C312 C 0.93422 0.5311 0.53306 0.0
C313 C 0.94037 0.55418 0.49994 0.0
C314 C 0.90823 0.56061 0.47242 0.0
C315 C 0.86984 0.54381 0.47753 0.0
C316 C 0.86355 0.52044 0.51013 0.0
C317 C 0.89559 0.51397 0.53778 0.0
H318 H 0.84499 0.54881 0.45618 0.0
H319 H 0.15797 0.48429 0.72156 0.0
H320 H 0.25469 0.26649 0.5049 0.0
H321 H 0.2686 0.24994 0.44023 0.0
H322 H 0.1426 0.23352 0.40244 0.0
H323 H 0.12799 0.2485 0.46722 0.0
H324 H 0.24341 0.17695 0.40017 0.0
H325 H 0.13321 0.26773 0.30602 0.0
H326 H 0.10036 0.32989 0.30938 0.0
H327 H 0.19791 0.38 0.38923 0.0
H328 H 0.23157 0.3184 0.38593 0.0
H329 H 0.22771 0.10814 0.20749 0.0
H330 H 0.21045 0.13032 0.26935 0.0
H331 H 0.27089 0.24698 0.25164 0.0
H332 H 0.28586 0.22558 0.18832 0.0
H333 H 0.20414 0.25476 0.28228 0.0
H334 H 0.31496 0.17325 0.31161 0.0
H335 H 0.34809 0.11135 0.30756 0.0
H336 H 0.25238 0.04452 0.35792 0.0
H337 H 0.21863 0.10601 0.36208 0.0
C338 C 0.22971 0.25919 0.48316 0.0
C339 C 0.19009 0.25848 0.49205 0.0
C340 C 0.23785 0.24985 0.44602 0.0
C341 C 0.20667 0.24039 0.41659 0.0
C342 C 0.16714 0.24093 0.42473 0.0
C343 C 0.1589 0.24975 0.46201 0.0
C344 C 0.21555 0.2287 0.37773 0.0
C345 C 0.23486 0.19397 0.37439 0.0
C346 C 0.2044 0.2509 0.34414 0.0
C347 C 0.18467 0.28827 0.34603 0.0
C348 C 0.14769 0.29207 0.3242 0.0
C349 C 0.12893 0.3272 0.3261 0.0
C350 C 0.14697 0.35881 0.34961 0.0
C351 C 0.18388 0.35542 0.37116 0.0
C352 C 0.20278 0.32038 0.36934 0.0
C353 C 0.2366 0.13876 0.21635 0.0
C354 C 0.25776 0.16522 0.19272 0.0
C355 C 0.22723 0.15126 0.25207 0.0
C356 C 0.23987 0.19018 0.26556 0.0
C357 C 0.26082 0.21678 0.24193 0.0
C358 C 0.2697 0.20443 0.2059 0.0
C359 C 0.23204 0.2029 0.3046 0.0
C360 C 0.21275 0.23771 0.30802 0.0
C361 C 0.24329 0.18082 0.33836 0.0
C362 C 0.26422 0.14415 0.33698 0.0
C363 C 0.301 0.14533 0.32179 0.0
C364 C 0.31988 0.11033 0.31948 0.0
C365 C 0.30234 0.07402 0.33245 0.0
C366 C 0.26597 0.07267 0.34794 0.0
C367 C 0.24702 0.1076 0.35038 0.0
H368 H 0.31694 0.04694 0.33052 0.0
H369 H 0.13238 0.38597 0.35105 0.0
H370 H 0.91001 0.22114 0.76006 0.0
H371 H 0.89058 0.19034 0.81945 0.0
H372 H -0.00036 0.13262 0.83475 0.0
H373 H 0.01848 0.16177 0.77419 0.0
H374 H 0.94165 0.08134 0.84925 0.0
H375 H 0.98395 0.21417 0.89154 0.0
H376 H 0.98765 0.28787 0.89035 0.0
H377 H 0.86288 0.28322 0.90365 0.0
H378 H 0.85829 0.20946 0.90438 0.0
H379 H 0.88049 0.07885 0.0619 0.0
H380 H 0.91365 0.1144 0.01042 0.0
H381 H 0.84179 0.03799 0.92533 0.0
H382 H 0.81075 0.00136 0.97632 0.0
H383 H 0.89165 0.15796 0.95161 0.0
H384 H 0.87999 0.02003 0.85377 0.0
H385 H 0.88109 0.94688 0.86156 0.0
H386 H 0.9608 0.96488 0.96606 0.0
H387 H 0.95902 0.0379 0.95971 0.0
C388 C 0.9299 0.20174 0.77573 0.0
C389 C 0.96588 0.19401 0.76187 0.0
C390 C 0.91892 0.1845 0.81018 0.0
C391 C 0.94383 0.15951 0.83208 0.0
C392 C 0.9799 0.1519 0.81854 0.0
C393 C 0.99082 0.16894 0.78391 0.0
C394 C 0.93136 0.14002 0.86811 0.0
C395 C 0.93099 0.09829 0.87164 0.0
C396 C 0.91812 0.16188 0.89803 0.0
C397 C 0.92073 0.20625 0.89772 0.0
C398 C 0.95724 0.22885 0.89394 0.0
C399 C 0.9595 0.27064 0.89339 0.0
C400 C 0.92551 0.29021 0.89685 0.0
C401 C 0.88919 0.26802 0.90095 0.0
C402 C 0.88675 0.22622 0.90148 0.0
C403 C 0.87206 0.06965 0.03216 0.0
C404 C 0.84332 0.03706 0.0232 0.0
C405 C 0.89095 0.08997 1.00274 0.0
C406 C 0.88104 0.07839 0.96383 0.0
C407 C 0.85126 0.04672 0.95502 0.0
C408 C 0.83319 0.02593 0.9843 0.0
C409 C 0.9011 0.09935 0.93213 0.0
C410 C 0.90276 0.14124 0.92936 0.0
C411 C 0.91666 0.07791 0.9034 0.0
C412 C 0.91912 0.03422 0.90643 0.0
C413 C 0.89777 0.00827 0.87838 0.0
C414 C 0.89816 0.96686 0.8828 0.0
C415 C 0.92034 0.95126 0.91479 0.0
C416 C 0.94284 0.97697 0.94193 0.0
C417 C 0.942 0.01831 0.93806 0.0
H418 H 0.92007 0.9193 0.91868 0.0
H419 H 0.92732 0.32257 0.89641 0.0
H420 H 0.82261 0.72713 0.45014 0.0
H421 H 0.77277 0.73234 0.39424 0.0
H422 H 0.86637 0.77361 0.3249 0.0
H423 H 0.91605 0.76678 0.37991 0.0
H424 H 0.75603 0.79798 0.3654 0.0
H425 H 0.84285 0.76867 0.23297 0.0
H426 H 0.8831 0.71724 0.21225 0.0
H427 H 0.82866 0.63137 0.28717 0.0
H428 H 0.78759 0.68209 0.30796 0.0
H429 H 0.76008 0.94465 0.22758 0.0
H430 H 0.75989 0.89397 0.27767 0.0
H431 H 0.70882 0.80464 0.19344 0.0
H432 H 0.71058 0.85536 0.14258 0.0
H433 H 0.77135 0.78028 0.22703 0.0
H434 H 0.66128 0.82493 0.27644 0.0
H435 H 0.61606 0.87193 0.29671 0.0
H436 H 0.70614 0.91727 0.38637 0.0
H437 H 0.75218 0.87105 0.36632 0.0
C438 C 0.83261 0.73576 0.42252 0.0
C439 C 0.87321 0.74694 0.41949 0.0
C440 C 0.80405 0.7389 0.39062 0.0
C441 C 0.81559 0.75352 0.35524 0.0
C442 C 0.85649 0.76145 0.35149 0.0
C443 C 0.88505 0.75772 0.38317 0.0
C444 C 0.78561 0.76718 0.32459 0.0
C445 C 0.75884 0.79353 0.33509 0.0
C446 C 0.78777 0.76013 0.28496 0.0
C447 C 0.81208 0.7293 0.27207 0.0
C448 C 0.83914 0.73874 0.24479 0.0
C449 C 0.86221 0.70972 0.2331 0.0
C450 C 0.85846 0.67107 0.2484 0.0
C451 C 0.83159 0.66135 0.2754 0.0
C452 C 0.80844 0.69025 0.28718 0.0
C453 C 0.74738 0.91457 0.21984 0.0
C454 C 0.73602 0.90386 0.18104 0.0
C455 C 0.74706 0.88545 0.24869 0.0
C456 C 0.73444 0.84522 0.23948 0.0
C457 C 0.71901 0.83535 0.20127 0.0
C458 C 0.71988 0.86442 0.17224 0.0
C459 C 0.74438 0.81346 0.26809 0.0
C460 C 0.76736 0.78365 0.25722 0.0
C461 C 0.73782 0.81651 0.30728 0.0
C462 C 0.71023 0.84438 0.31983 0.0
C463 C 0.67155 0.84503 0.30038 0.0
C464 C 0.64575 0.87156 0.31184 0.0
C465 C 0.65821 0.89755 0.34282 0.0
C466 C 0.69649 0.89705 0.36243 0.0
C467 C 0.72243 0.8706 0.35108 0.0
H468 H 0.6382 0.91808 0.35163 0.0
H469 H 0.87637 0.64866 0.23933 0.0
H470 H 0.07358 0.82129 0.5875 0.0
H471 H 0.11309 0.84993 0.64601 0.0
H472 H 0.00649 0.88753 0.6854 0.0
H473 H 0.9668 0.85838 0.6277 0.0
H474 H 0.07845 0.94648 0.69437 0.0
H475 H 0.03246 0.80908 0.72264 0.0
H476 H 0.0245 0.73652 0.70977 0.0
H477 H 0.15179 0.73495 0.71881 0.0
H478 H 0.16046 0.8077 0.73114 0.0
H479 H 0.13781 0.98189 0.89517 0.0
H480 H 0.10556 0.96503 0.83004 0.0
H481 H 0.1986 0.88955 0.81402 0.0
H482 H 0.22969 0.90516 0.87954 0.0
H483 H 0.13486 0.85088 0.7902 0.0
H484 H 0.18522 0.98441 0.76619 0.0
H485 H 0.19816 0.05776 0.77157 0.0
H486 H 0.07276 0.06969 0.74737 0.0
H487 H 0.05893 0.99637 0.74255 0.0
C488 C 0.05864 0.83591 0.6085 0.0
C489 C 0.017 0.83715 0.60315 0.0
C490 C 0.08122 0.85226 0.64187 0.0
C491 C 0.06265 0.87069 0.6701 0.0
C492 C 0.0214 0.87348 0.66399 0.0
C493 C -0.00125 0.85655 0.63109 0.0
C494 C 0.0856 0.88474 0.70719 0.0
C495 C 0.09078 0.92578 0.71554 0.0
C496 C 0.10228 0.85764 0.73427 0.0
C497 C 0.09709 0.81387 0.72737 0.0
C498 C 0.05874 0.79332 0.72154 0.0
C499 C 0.0541 0.75216 0.71441 0.0
C500 C 0.08762 0.73115 0.71335 0.0
C501 C 0.12585 0.75127 0.71956 0.0
C502 C 0.13064 0.79246 0.72665 0.0
C503 C 0.1515 0.96205 0.8775 0.0
C504 C 0.18612 0.94463 0.89257 0.0
C505 C 0.13319 0.95255 0.8401 0.0
C506 C 0.14965 0.92617 0.81656 0.0
C507 C 0.18494 0.90973 0.83139 0.0
C508 C 0.20276 0.91862 0.86895 0.0
C509 C 0.12886 0.91334 0.77774 0.0
C510 C 0.12345 0.87217 0.7691 0.0
C511 C 0.113 0.94064 0.74995 0.0
C512 C 0.12099 0.98472 0.75458 0.0
C513 C 0.16032 0.00259 0.76261 0.0
C514 C 0.16783 0.04421 0.76541 0.0
C515 C 0.1363 0.06837 0.75992 0.0
C516 C 0.09716 0.05095 0.75171 0.0
C517 C 0.08947 0.00935 0.74898 0.0
H518 H 0.1422 0.10058 0.76191 0.0
H519 H 0.08397 0.69928 0.70782 0.0
H520 H 0.74576 0.79991 0.95584 0.0
H521 H 0.75708 0.78124 0.89055 0.0
H522 H 0.82638 0.89436 0.87842 0.0
H523 H 0.81539 0.9131 0.94374 0.0
H524 H 0.73693 0.81564 0.82156 0.0
H525 H 0.90647 0.87263 0.82232 0.0
H526 H 0.9681 0.88026 0.86758 0.0
H527 H 0.91527 0.79676 0.94561 0.0
H528 H 0.85409 0.78696 0.90001 0.0
H529 H 0.79249 0.83681 0.63255 0.0
H530 H 0.7796 0.84544 0.69929 0.0
H531 H 0.85727 0.7542 0.73591 0.0
H532 H 0.87089 0.74612 0.66902 0.0
H533 H 0.873 0.81406 0.78254 0.0
H534 H 0.75333 0.73743 0.7319 0.0
H535 H 0.6932 0.71964 0.6863 0.0
H536 H 0.64709 0.82998 0.71153 0.0
H537 H 0.70721 0.84869 0.75691 0.0
C538 C 0.76345 0.82074 0.93926 0.0
C539 C 0.77967 0.85792 0.95495 0.0
C540 C 0.76974 0.81014 0.90195 0.0
C541 C 0.79286 0.83627 0.87981 0.0
C542 C 0.80878 0.87361 0.89519 0.0
C543 C 0.80212 0.88443 0.93237 0.0
C544 C 0.7999 0.82459 0.84044 0.0
C545 C 0.7667 0.81536 0.81301 0.0
C546 C 0.8388 0.82326 0.82962 0.0
C547 C 0.87524 0.82958 0.85786 0.0
C548 C 0.908 0.85568 0.84902 0.0
C549 C 0.94304 0.86012 0.87461 0.0
C550 C 0.94556 0.83909 0.9095 0.0
C551 C 0.9132 0.8132 0.91866 0.0
C552 C 0.87834 0.8081 0.89286 0.0
C553 C 0.80634 0.81816 0.65472 0.0
C554 C 0.83256 0.79063 0.64555 0.0
C555 C 0.79894 0.8231 0.6929 0.0
C556 C 0.81703 0.8001 0.72264 0.0
C557 C 0.84298 0.77231 0.71349 0.0
C558 C 0.85075 0.7677 0.67531 0.0
C559 C 0.81009 0.80626 0.76341 0.0
C560 C 0.84327 0.81446 0.79112 0.0
C561 C 0.77124 0.8058 0.77475 0.0
C562 C 0.73494 0.79459 0.74759 0.0
C563 C 0.7305 0.75803 0.72753 0.0
C564 C 0.6964 0.74776 0.70175 0.0
C565 C 0.66639 0.7737 0.69596 0.0
C566 C 0.67038 0.80993 0.71602 0.0
C567 C 0.70444 0.82035 0.74181 0.0
H568 H 0.64001 0.7657 0.67599 0.0
H569 H 0.97258 0.84287 0.92943 0.0
H570 H 0.15844 0.94221 0.09181 0.0
H571 H 0.12776 0.907 0.14475 0.0
H572 H 0.20797 0.97854 0.22762 0.0
H573 H 0.23703 0.01493 0.17519 0.0
H574 H 0.15489 0.86113 0.20008 0.0
H575 H 0.18427 0.99579 0.29183 0.0
H576 H 0.17529 0.06752 0.29768 0.0
H577 H 0.06358 0.05029 0.22536 0.0
H578 H 0.07292 0.97882 0.21806 0.0
H579 H 0.12287 0.78731 0.38853 0.0
H580 H 0.14853 0.81913 0.33201 0.0
H581 H 0.04429 0.8841 0.31214 0.0
H582 H 0.01943 0.85425 0.36959 0.0
H583 H 0.10643 0.93273 0.30654 0.0
H584 H 0.06068 0.80307 0.25412 0.0
H585 H 0.05548 0.72937 0.25118 0.0
H586 H 0.18134 0.73282 0.24358 0.0
H587 H 0.18738 0.80655 0.24698 0.0
C588 C 0.16941 0.95038 0.12137 0.0
C589 C 0.19995 0.98152 0.1293 0.0
C590 C 0.15176 0.9304 0.15164 0.0
C591 C 0.16463 0.94083 0.1904 0.0
C592 C 0.1961 0.97102 0.19819 0.0
C593 C 0.21321 0.9914 0.16806 0.0
C594 C 0.14671 0.91889 0.2227 0.0
C595 C 0.1443 0.87683 0.22335 0.0
C596 C 0.13244 0.93894 0.25311 0.0
C597 C 0.12991 0.98256 0.25324 0.0
C598 C 0.1584 0.00768 0.27632 0.0
C599 C 0.15323 0.04822 0.27998 0.0
C600 C 0.1191 0.0636 0.26157 0.0
C601 C 0.09034 0.03856 0.23907 0.0
C602 C 0.09582 -0.00179 0.2347 0.0
C603 C 0.10535 0.80845 0.37236 0.0
C604 C 0.069 0.81815 0.38415 0.0
C605 C 0.11992 0.8263 0.3396 0.0
C606 C 0.09825 0.85383 0.31747 0.0
C607 C 0.06163 0.86295 0.32866 0.0
C608 C 0.04722 0.84544 0.36155 0.0
C609 C 0.11458 0.87498 0.28402 0.0
C610 C 0.11698 0.91689 0.28331 0.0
C611 C 0.12809 0.85461 0.25334 0.0
C612 C 0.12453 0.81031 0.25117 0.0
C613 C 0.0873 0.78809 0.25211 0.0
C614 C 0.08419 0.74632 0.25031 0.0
C615 C 0.11808 0.72642 0.24729 0.0
C616 C 0.15513 0.74827 0.24597 0.0
C617 C 0.1584 0.79005 0.24779 0.0
H618 H 0.11561 0.69408 0.24591 0.0
H619 H 0.11484 0.09486 0.26488 0.0
H620 H 0.2019 0.30612 0.6966 0.0
H621 H 0.25028 0.29878 0.75328 0.0
H622 H 0.15461 0.25516 0.81912 0.0
H623 H 0.10625 0.26373 0.76336 0.0
H624 H 0.21438 0.28691 0.86646 0.0
H625 H 0.19451 0.19032 0.76199 0.0
H626 H 0.19252 0.17122 0.69354 0.0
H627 H 0.31618 0.21435 0.69496 0.0
H628 H 0.31866 0.23416 0.76338 0.0
H629 H 0.25653 0.0795 0.91747 0.0
H630 H 0.25537 0.12977 0.86696 0.0
H631 H 0.3175 0.21749 0.94761 0.0
H632 H 0.31684 0.16731 0.9992 0.0
H633 H 0.29467 0.18076 0.82849 0.0
H634 H 0.27353 0.30274 0.93592 0.0
H635 H 0.2576 0.30906 1.00293 0.0
H636 H 0.18988 0.19401 0.99428 0.0
H637 H 0.20499 0.18735 0.92713 0.0
C638 C 0.19108 0.2965 0.72361 0.0
C639 C 0.15042 0.28433 0.72528 0.0
C640 C 0.21878 0.29232 0.75597 0.0
C641 C 0.20614 0.27524 0.78999 0.0
C642 C 0.16512 0.26813 0.79308 0.0
C643 C 0.13742 0.27282 0.76099 0.0
C644 C 0.23447 0.25703 0.81898 0.0
C645 C 0.23287 0.26448 0.85825 0.0
C646 C 0.25764 0.22689 0.80822 0.0
C647 C 0.25667 0.21412 0.76752 0.0
C648 C 0.22123 0.19581 0.74762 0.0
C649 C 0.21999 0.1849 0.70886 0.0
C650 C 0.25418 0.19171 0.68987 0.0
C651 C 0.28971 0.20922 0.70969 0.0
C652 C 0.29105 0.2203 0.74844 0.0
C653 C 0.27098 0.10916 0.92432 0.0
C654 C 0.28564 0.11988 0.96248 0.0
C655 C 0.27053 0.13796 0.89526 0.0
C656 C 0.28529 0.17778 0.90374 0.0
C657 C 0.30497 0.18719 0.94069 0.0
C658 C 0.30461 0.15852 0.9701 0.0
C659 C 0.27335 0.20953 0.87605 0.0
C660 C 0.27808 0.20469 0.83693 0.0
C661 C 0.25078 0.24021 0.88683 0.0
C662 C 0.24086 0.24437 0.92683 0.0
C663 C 0.25517 0.2789 0.94835 0.0
C664 C 0.24627 0.28253 0.98632 0.0
C665 C 0.22288 0.25189 1.0029 0.0
C666 C 0.20808 0.21767 0.98146 0.0
C667 C 0.21676 0.21398 0.94346 0.0
H668 H 0.21614 0.2547 0.03232 0.0
H669 H 0.25316 0.18333 0.65984 0.0
H670 H 0.84709 0.1536 0.23453 0.0
H671 H 0.8823 0.1737 0.29712 0.0
H672 H 0.87843 0.05036 0.33338 0.0
H673 H 0.84224 0.02977 0.271 0.0
H674 H 0.86044 0.16452 0.36944 0.0
H675 H 0.96629 0.03951 0.39245 0.0
H676 H 0.00032 0.99477 0.35432 0.0
H677 H -0.00158 0.07975 0.26119 0.0
H678 H 0.96474 0.12521 0.299 0.0
H679 H 0.95865 0.18522 0.56103 0.0
H680 H 0.92103 0.15733 0.50178 0.0
H681 H 0.02345 0.18621 0.44016 0.0
H682 H 0.06119 0.21387 0.49906 0.0
H683 H 0.9909 0.11629 0.4177 0.0
H684 H 0.9407 0.24432 0.43452 0.0
H685 H 0.91059 0.29457 0.47007 0.0
H686 H 0.8066 0.2123 0.47753 0.0
H687 H 0.83632 0.16143 0.44236 0.0
C688 C 0.85312 0.13057 0.25575 0.0
C689 C 0.84153 0.08991 0.24728 0.0
C690 C 0.87352 0.14221 0.29162 0.0
C691 C 0.88325 0.11356 0.31989 0.0
C692 C 0.87169 0.07298 0.31182 0.0
C693 C 0.85102 0.06127 0.27596 0.0
C694 C 0.90533 0.12648 0.35776 0.0
C695 C 0.88888 0.1538 0.38008 0.0
C696 C 0.94261 0.11282 0.37153 0.0
C697 C 0.96262 0.08558 0.34846 0.0
C698 C 0.97319 0.0487 0.3639 0.0
C699 C 0.99241 0.0232 0.34232 0.0
C700 C 0.00142 0.03436 0.3053 0.0
C701 C 0.99126 0.07107 0.2898 0.0
C702 C 0.97202 0.09667 0.31127 0.0
C703 C 0.97316 0.18556 0.53488 0.0
C704 C 0.01282 0.20219 0.53479 0.0
C705 C 0.95163 0.16946 0.50096 0.0
C706 C 0.96924 0.16966 0.46625 0.0
C707 C 0.00911 0.18549 0.46644 0.0
C708 C 0.03061 0.2016 0.50022 0.0
C709 C 0.94613 0.15461 0.4294 0.0
C710 C 0.96231 0.12678 0.40727 0.0
C711 C 0.9089 0.16832 0.41541 0.0
C712 C 0.89085 0.199 0.43615 0.0
C713 C 0.9115 0.23691 0.44393 0.0
C714 C 0.8945 0.2655 0.46398 0.0
C715 C 0.85675 0.2566 0.47613 0.0
C716 C 0.83586 0.21914 0.46815 0.0
C717 C 0.85274 0.19043 0.44813 0.0
H718 H 0.84365 0.27876 0.49166 0.0
H719 H 0.01634 0.0146 0.28865 0.0
loop_
_geom_bond_atom_site_label_1
_geom_bond_atom_site_label_2
_geom_bond_distance
_geom_bond_site_symmetry_2
_ccdc_geom_bond_type
Co0 N5 2.057 . S
Co0 O17 2.021 . S
Co0 O20 2.062 . S
Co0 O24 2.117 . S
Co0 O25 2.020 . S
C1 O21 1.259 . S
C1 O24 1.258 . S
Co2 N11 2.062 1_554 S
Co2 O18 2.114 1_565 S
Co2 O19 2.023 . S
Co2 O21 2.021 1_565 S
Co2 O26 2.056 1_564 S
C3 N5 1.316 . S
C3 N6 1.347 . S
C3 H8 0.931 . S
C4 N5 1.375 . S
C4 C7 1.350 . S
C4 H9 0.930 . S
N5 Co0 2.057 . S
N5 C3 1.316 . S
N5 C4 1.375 . S
N6 C3 1.347 . S
N6 C7 1.373 . S
C7 C4 1.350 . S
C7 N6 1.373 . S
C7 H28 0.931 . S
H8 C3 0.931 . S
H9 C4 0.930 . S
C10 O17 1.259 . S
C10 O18 1.258 . S
N11 Co2 2.062 1_556 S
N11 C12 1.316 . S
N11 C13 1.375 . S
C12 N11 1.316 . S
C12 N14 1.347 . S
C12 H23 0.931 . S
C13 N11 1.375 . S
C13 C15 1.350 . S
C13 H22 0.930 . S
N14 C12 1.347 . S
N14 C15 1.373 . S
C15 C13 1.350 . S
C15 N14 1.373 . S
C15 H29 0.931 . S
C16 O19 1.256 . S
C16 O20 1.255 1_565 S
O17 Co0 2.021 . S
O17 C10 1.259 . S
O18 Co2 2.114 1_545 S
O18 C10 1.258 . S
O19 Co2 2.023 . S
O19 C16 1.256 . S
O20 Co0 2.062 . S
O20 C16 1.255 1_545 S
O21 C1 1.259 . S
O21 Co2 2.021 1_545 S
H22 C13 0.930 . S
H23 C12 0.931 . S
O24 Co0 2.117 . S
O24 C1 1.258 . S
O25 Co0 2.020 . S
O25 C27 1.256 1_554 S
O26 Co2 2.056 1_546 S
O26 C27 1.255 . S
C27 O25 1.256 1_556 S
C27 O26 1.255 . S
H28 C7 0.931 . S
H29 C15 0.931 . S
Co30 N35 2.057 1_455 S
Co30 O47 2.021 . S
Co30 O50 2.062 . S
Co30 O54 2.117 . S
Co30 O55 2.020 1_455 S
C31 O51 1.259 . S
C31 O54 1.258 . S
Co32 N41 2.057 . S
Co32 O48 2.117 . S
Co32 O49 2.020 . S
Co32 O51 2.021 . S
Co32 O56 2.062 . S
C33 N35 1.316 . S
C33 N36 1.347 . S
C33 H38 0.931 . S
C34 N35 1.375 . S
C34 C37 1.350 . S
C34 H39 0.930 . S
N35 Co30 2.057 1_655 S
N35 C33 1.316 . S
N35 C34 1.375 . S
N36 C33 1.347 . S
N36 C37 1.373 . S
C37 C34 1.350 . S
C37 N36 1.373 . S
C37 H58 0.931 . S
H38 C33 0.931 . S
H39 C34 0.930 . S
C40 O47 1.259 . S
C40 O48 1.258 . S
N41 Co32 2.057 . S
N41 C42 1.316 . S
N41 C43 1.375 . S
C42 N41 1.316 . S
C42 N44 1.347 . S
C42 H53 0.931 . S
C43 N41 1.375 . S
C43 C45 1.350 . S
C43 H52 0.930 . S
N44 C42 1.347 . S
N44 C45 1.373 . S
C45 C43 1.350 . S
C45 N44 1.373 . S
C45 H59 0.931 . S
C46 O49 1.256 . S
C46 O50 1.255 . S
O47 Co30 2.021 . S
O47 C40 1.259 . S
O48 Co32 2.117 . S
O48 C40 1.258 . S
O49 Co32 2.020 . S
O49 C46 1.256 . S
O50 Co30 2.062 . S
O50 C46 1.255 . S
O51 C31 1.259 . S
O51 Co32 2.021 . S
H52 C43 0.930 . S
H53 C42 0.931 . S
O54 Co30 2.117 . S
O54 C31 1.258 . S
O55 Co30 2.020 1_655 S
O55 C57 1.256 . S
O56 Co32 2.062 . S
O56 C57 1.255 1_455 S
C57 O55 1.256 . S
C57 O56 1.255 1_655 S
H58 C37 0.931 . S
H59 C45 0.931 . S
Co60 N65 2.057 . S
Co60 O77 2.021 . S
Co60 O80 2.062 1_545 S
Co60 O84 2.117 . S
Co60 O85 2.020 . S
C61 O81 1.259 . S
C61 O84 1.258 1_565 S
Co62 N71 2.057 . S
Co62 O78 2.117 . S
Co62 O79 2.020 . S
Co62 O81 2.021 . S
Co62 O86 2.062 1_565 S
C63 N65 1.316 . S
C63 N66 1.347 . S
C63 H68 0.931 . S
C64 N65 1.375 . S
C64 C67 1.350 . S
C64 H69 0.930 . S
N65 Co60 2.057 . S
N65 C63 1.316 . S
N65 C64 1.375 . S
N66 C63 1.347 . S
N66 C67 1.373 . S
C67 C64 1.350 . S
C67 N66 1.373 . S
C67 H88 0.931 . S
H68 C63 0.931 . S
H69 C64 0.930 . S
C70 O77 1.259 . S
C70 O78 1.258 1_545 S
N71 Co62 2.057 . S
N71 C72 1.316 1_554 S
N71 C73 1.373 1_554 S
C72 N71 1.316 1_556 S
C72 N74 1.347 . S
C72 H83 0.931 . S
C73 N71 1.373 1_556 S
C73 C75 1.356 . S
C73 H82 0.926 1_556 S
N74 C72 1.347 . S
N74 C75 1.373 . S
C75 C73 1.356 . S
C75 N74 1.373 . S
C75 H89 0.931 . S
C76 O79 1.256 . S
C76 O80 1.255 . S
O77 Co60 2.021 . S
O77 C70 1.259 . S
O78 Co62 2.117 . S
O78 C70 1.258 1_565 S
O79 Co62 2.020 . S
O79 C76 1.256 . S
O80 Co60 2.062 1_565 S
O80 C76 1.255 . S
O81 C61 1.259 . S
O81 Co62 2.021 . S
H82 C73 0.926 1_554 S
H83 C72 0.931 . S
O84 Co60 2.117 . S
O84 C61 1.258 1_545 S
O85 Co60 2.020 . S
O85 C87 1.256 . S
O86 Co62 2.062 1_545 S
O86 C87 1.255 . S
C87 O85 1.256 . S
C87 O86 1.255 . S
H88 C67 0.931 . S
H89 C75 0.931 . S
Co90 N95 2.057 . S
Co90 O107 2.021 . S
Co90 O110 2.062 1_655 S
Co90 O114 2.117 . S
Co90 O115 2.020 . S
C91 O111 1.259 . S
C91 O114 1.258 1_455 S
Co92 N101 2.057 . S
Co92 O108 2.117 . S
Co92 O109 2.020 . S
Co92 O111 2.021 . S
Co92 O116 2.062 1_455 S
C93 N95 1.316 . S
C93 N96 1.347 . S
C93 H98 0.931 . S
C94 N95 1.375 . S
C94 C97 1.350 . S
C94 H99 0.930 . S
N95 Co90 2.057 . S
N95 C93 1.316 . S
N95 C94 1.375 . S
N96 C93 1.347 . S
N96 C97 1.373 . S
C97 C94 1.350 . S
C97 N96 1.373 . S
C97 H118 0.931 . S
H98 C93 0.931 . S
H99 C94 0.930 . S
C100 O107 1.259 . S
C100 O108 1.258 1_655 S
N101 Co92 2.057 . S
N101 C102 1.316 . S
N101 C103 1.375 . S
C102 N101 1.316 . S
C102 N104 1.347 . S
C102 H113 0.931 . S
C103 N101 1.375 . S
C103 C105 1.350 . S
C103 H112 0.930 . S
N104 C102 1.347 . S
N104 C105 1.373 . S
C105 C103 1.350 . S
C105 N104 1.373 . S
C105 H119 0.931 . S
C106 O109 1.256 . S
C106 O110 1.255 . S
O107 Co90 2.021 . S
O107 C100 1.259 . S
O108 Co92 2.117 . S
O108 C100 1.258 1_455 S
O109 Co92 2.020 . S
O109 C106 1.256 . S
O110 Co90 2.062 1_455 S
O110 C106 1.255 . S
O111 C91 1.259 . S
O111 Co92 2.021 . S
H112 C103 0.930 . S
H113 C102 0.931 . S
O114 Co90 2.117 . S
O114 C91 1.258 1_655 S
O115 Co90 2.020 . S
O115 C117 1.256 . S
O116 Co92 2.062 1_655 S
O116 C117 1.255 . S
C117 O115 1.256 . S
C117 O116 1.255 . S
H118 C97 0.931 . S
H119 C105 0.931 . S
H120 C138 0.951 . S
H121 C140 0.951 . S
H122 C142 0.950 . S
H123 C143 0.950 . S
H124 C145 0.950 1_655 S
H125 C148 0.950 1_554 S
H126 C149 0.950 . S
H127 C151 0.950 . S
H128 C152 0.950 . S
H129 C153 0.951 1_565 S
H130 C155 0.970 . S
H131 C157 0.950 . S
H132 C158 0.950 . S
H133 C160 0.950 . S
H134 C163 0.950 . S
H135 C164 0.950 . S
H136 C166 0.950 . S
H137 C167 0.950 . S
C138 H120 0.951 . S
C138 C139 1.366 1_545 S
C138 C140 1.388 . S
C139 C138 1.366 1_565 S
C139 C143 1.385 . S
C140 H121 0.951 . S
C140 C138 1.388 . S
C140 C141 1.366 . S
C141 C140 1.366 . S
C141 C142 1.414 1_545 S
C141 C144 1.499 . S
C142 H122 0.950 . S
C142 C141 1.414 1_565 S
C142 C143 1.374 . S
C143 H123 0.950 . S
C143 C139 1.385 . S
C143 C142 1.374 . S
C144 C141 1.499 . S
C144 C145 1.373 1_655 S
C144 C146 1.389 . S
C145 H124 0.950 1_455 S
C145 C144 1.373 1_455 S
C145 C161 1.377 . S
C146 C144 1.389 . S
C146 C147 1.524 1_554 S
C146 C160 1.377 1_655 S
C147 C146 1.524 1_556 S
C147 C148 1.397 1_545 S
C147 C152 1.363 . S
C148 H125 0.950 1_556 S
C148 C147 1.397 1_565 S
C148 C149 1.334 . S
C149 H126 0.950 . S
C149 C148 1.334 . S
C149 C150 1.287 1_565 S
C150 C149 1.287 1_545 S
C150 C151 1.524 . S
C150 H169 0.913 . S
C151 H127 0.950 . S
C151 C150 1.524 . S
C151 C152 1.415 . S
C152 H128 0.950 . S
C152 C147 1.363 . S
C152 C151 1.415 . S
C153 H129 0.951 1_545 S
C153 C154 1.366 . S
C153 C155 1.388 1_545 S
C154 C153 1.366 . S
C154 C158 1.385 . S
C155 H130 0.970 . S
C155 C153 1.388 1_565 S
C155 C156 1.347 1_565 S
C156 C155 1.347 1_545 S
C156 C157 1.414 . S
C156 C159 1.499 . S
C157 H131 0.950 . S
C157 C156 1.414 . S
C157 C158 1.374 . S
C158 H132 0.950 . S
C158 C154 1.385 . S
C158 C157 1.374 . S
C159 C156 1.499 . S
C159 C160 1.373 . S
C159 C161 1.389 . S
C160 H133 0.950 . S
C160 C146 1.377 1_455 S
C160 C159 1.373 . S
C161 C145 1.377 . S
C161 C159 1.389 . S
C161 C162 1.524 . S
C162 C161 1.524 . S
C162 C163 1.397 . S
C162 C167 1.363 1_545 S
C163 H134 0.950 . S
C163 C162 1.397 . S
C163 C164 1.334 . S
C164 H135 0.950 . S
C164 C163 1.334 . S
C164 C165 1.287 . S
C165 C164 1.287 . S
C165 C166 1.524 1_545 S
C165 H168 0.999 . S
C166 H136 0.950 . S
C166 C165 1.524 1_565 S
C166 C167 1.415 . S
C167 H137 0.950 . S
C167 C162 1.363 1_565 S
C167 C166 1.415 . S
H168 C165 0.999 . S
H169 C150 0.913 . S
H170 C188 0.951 . S
H171 C190 0.951 . S
H172 C192 0.950 . S
H173 C193 0.950 . S
H174 C195 0.950 . S
H175 C198 0.950 1_455 S
H176 C199 0.950 . S
H177 C201 0.950 . S
H178 C202 0.950 . S
H179 C203 0.951 . S
H180 C205 0.951 . S
H181 C207 0.950 . S
H182 C208 0.950 1_655 S
H183 C210 0.948 1_655 S
H184 C213 0.950 . S
H185 C214 0.950 . S
H186 C216 0.950 . S
H187 C217 0.950 . S
C188 H170 0.951 . S
C188 C189 1.366 . S
C188 C190 1.388 . S
C189 C188 1.366 . S
C189 C193 1.385 1_655 S
C190 H171 0.951 . S
C190 C188 1.388 . S
C190 C191 1.366 1_655 S
C191 C190 1.366 1_455 S
C191 C192 1.414 . S
C191 C194 1.499 . S
C192 H172 0.950 . S
C192 C191 1.414 . S
C192 C193 1.374 . S
C193 H173 0.950 . S
C193 C189 1.385 1_455 S
C193 C192 1.374 . S
C194 C191 1.499 . S
C194 C195 1.373 . S
C194 C196 1.389 1_465 S
C195 H174 0.950 . S
C195 C194 1.373 . S
C195 C211 1.377 1_565 S
C196 C194 1.389 1_645 S
C196 C197 1.524 1_545 S
C196 C210 1.377 1_655 S
C197 C196 1.524 1_565 S
C197 C198 1.397 . S
C197 C202 1.363 1_565 S
C198 H175 0.950 1_655 S
C198 C197 1.397 . S
C198 C199 1.334 . S
C199 H176 0.950 . S
C199 C198 1.334 . S
C199 C200 1.287 . S
C200 C199 1.287 . S
C200 C201 1.524 1_565 S
C200 H219 0.913 . S
C201 H177 0.950 . S
C201 C200 1.524 1_545 S
C201 C202 1.415 . S
C202 H178 0.950 . S
C202 C197 1.363 1_545 S
C202 C201 1.415 . S
C203 H179 0.951 . S
C203 C204 1.366 . S
C203 C205 1.388 . S
C204 C203 1.366 . S
C204 C208 1.385 . S
C205 H180 0.951 . S
C205 C203 1.388 . S
C205 C206 1.366 . S
C206 C205 1.366 . S
C206 C207 1.414 1_455 S
C206 C209 1.499 . S
C207 H181 0.950 . S
C207 C206 1.414 1_655 S
C207 C208 1.374 1_655 S
C208 H182 0.950 1_455 S
C208 C204 1.385 . S
C208 C207 1.374 1_455 S
C209 C206 1.499 . S
C209 C210 1.375 . S
C209 C211 1.389 . S
C210 H183 0.948 1_455 S
C210 C196 1.377 1_455 S
C210 C209 1.375 . S
C211 C195 1.377 1_545 S
C211 C209 1.389 . S
C211 C212 1.524 . S
C212 C211 1.524 . S
C212 C213 1.397 . S
C212 C217 1.363 . S
C213 H184 0.950 . S
C213 C212 1.397 . S
C213 C214 1.334 . S
C214 H185 0.950 . S
C214 C213 1.334 . S
C214 C215 1.287 . S
C215 C214 1.287 . S
C215 C216 1.524 . S
C215 H218 0.999 . S
C216 H186 0.950 . S
C216 C215 1.524 . S
C216 C217 1.415 . S
C217 H187 0.950 . S
C217 C212 1.363 . S
C217 C216 1.415 . S
H218 C215 0.999 . S
H219 C200 0.913 . S
H220 C238 0.951 . S
H221 C240 0.951 . S
H222 C242 0.950 . S
H223 C243 0.950 . S
H224 C245 0.950 . S
H225 C248 0.950 . S
H226 C249 0.950 . S
H227 C251 0.950 . S
H228 C252 0.950 . S
H229 C253 0.951 . S
H230 C255 0.951 . S
H231 C257 0.950 1_565 S
H232 C258 0.950 1_565 S
H233 C260 0.950 . S
H234 C263 0.950 . S
H235 C264 0.950 . S
H236 C266 0.950 . S
H237 C267 0.950 . S
C238 H220 0.951 . S
C238 C239 1.366 . S
C238 C240 1.388 . S
C239 C238 1.366 . S
C239 C243 1.385 1_565 S
C240 H221 0.951 . S
C240 C238 1.388 . S
C240 C241 1.366 1_565 S
C241 C240 1.366 1_545 S
C241 C242 1.414 . S
C241 C244 1.499 . S
C242 H222 0.950 . S
C242 C241 1.414 . S
C242 C243 1.374 . S
C243 H223 0.950 . S
C243 C239 1.385 1_545 S
C243 C242 1.374 . S
C244 C241 1.499 . S
C244 C245 1.373 . S
C244 C246 1.389 1_545 S
C245 H224 0.950 . S
C245 C244 1.373 . S
C245 C261 1.377 . S
C246 C244 1.389 1_565 S
C246 C247 1.524 . S
C246 C260 1.377 . S
C247 C246 1.524 . S
C247 C248 1.397 . S
C247 C252 1.363 . S
C248 H225 0.950 . S
C248 C247 1.397 . S
C248 C249 1.334 . S
C249 H226 0.950 . S
C249 C248 1.334 . S
C249 C250 1.287 . S
C250 C249 1.287 . S
C250 C251 1.524 . S
C250 H269 0.913 . S
C251 H227 0.950 . S
C251 C250 1.524 . S
C251 C252 1.415 . S
C252 H228 0.950 . S
C252 C247 1.363 . S
C252 C251 1.415 . S
C253 H229 0.951 . S
C253 C254 1.366 . S
C253 C255 1.388 . S
C254 C253 1.366 . S
C254 C258 1.385 . S
C255 H230 0.951 . S
C255 C253 1.388 . S
C255 C256 1.366 . S
C256 C255 1.366 . S
C256 C257 1.414 . S
C256 C259 1.499 . S
C257 H231 0.950 1_545 S
C257 C256 1.414 . S
C257 C258 1.374 . S
C258 H232 0.950 1_545 S
C258 C254 1.385 . S
C258 C257 1.374 . S
C259 C256 1.499 . S
C259 C260 1.373 1_545 S
C259 C261 1.389 . S
C260 H233 0.950 . S
C260 C246 1.377 . S
C260 C259 1.373 1_565 S
C261 C245 1.377 . S
C261 C259 1.389 . S
C261 C262 1.524 . S
C262 C261 1.524 . S
C262 C263 1.397 . S
C262 C267 1.363 . S
C263 H234 0.950 . S
C263 C262 1.397 . S
C263 C264 1.334 . S
C264 H235 0.950 . S
C264 C263 1.334 . S
C264 C265 1.287 . S
C265 C264 1.287 . S
C265 C266 1.524 . S
C265 H268 0.999 . S
C266 H236 0.950 . S
C266 C265 1.524 . S
C266 C267 1.415 . S
C267 H237 0.950 . S
C267 C262 1.363 . S
C267 C266 1.415 . S
H268 C265 0.999 . S
H269 C250 0.913 . S
H270 C288 0.951 . S
H271 C290 0.951 . S
H272 C292 0.950 1_655 S
H273 C293 0.950 1_655 S
H274 C295 0.950 . S
H275 C298 0.950 1_655 S
H276 C299 0.950 1_655 S
H277 C301 0.950 . S
H278 C302 0.950 . S
H279 C303 0.951 . S
H280 C305 0.951 . S
H281 C307 0.950 . S
H282 C308 0.950 . S
H283 C310 0.950 . S
H284 C313 0.950 . S
H285 C314 0.950 . S
H286 C316 0.950 . S
H287 C317 0.950 . S
C288 H270 0.951 . S
C288 C289 1.366 . S
C288 C290 1.388 . S
C289 C288 1.366 . S
C289 C293 1.385 . S
C290 H271 0.951 . S
C290 C288 1.388 . S
C290 C291 1.366 . S
C291 C290 1.366 . S
C291 C292 1.414 . S
C291 C294 1.499 . S
C292 H272 0.950 1_455 S
C292 C291 1.414 . S
C292 C293 1.374 . S
C293 H273 0.950 1_455 S
C293 C289 1.385 . S
C293 C292 1.374 . S
C294 C291 1.499 . S
C294 C295 1.373 . S
C294 C296 1.389 . S
C295 H274 0.950 . S
C295 C294 1.373 . S
C295 C311 1.377 . S
C296 C294 1.389 . S
C296 C297 1.524 . S
C296 C310 1.377 . S
C297 C296 1.524 . S
C297 C298 1.397 . S
C297 C302 1.363 . S
C298 H275 0.950 1_455 S
C298 C297 1.397 . S
C298 C299 1.334 . S
C299 H276 0.950 1_455 S
C299 C298 1.334 . S
C299 C300 1.287 . S
C300 C299 1.287 . S
C300 C301 1.524 . S
C300 H319 0.913 . S
C301 H277 0.950 . S
C301 C300 1.524 . S
C301 C302 1.415 . S
C302 H278 0.950 . S
C302 C297 1.363 . S
C302 C301 1.415 . S
C303 H279 0.951 . S
C303 C304 1.366 . S
C303 C305 1.388 . S
C304 C303 1.366 . S
C304 C308 1.385 1_655 S
C305 H280 0.951 . S
C305 C303 1.388 . S
C305 C306 1.366 1_655 S
C306 C305 1.366 1_455 S
C306 C307 1.414 . S
C306 C309 1.499 . S
C307 H281 0.950 . S
C307 C306 1.414 . S
C307 C308 1.374 . S
C308 H282 0.950 . S
C308 C304 1.385 1_455 S
C308 C307 1.374 . S
C309 C306 1.499 . S
C309 C310 1.373 . S
C309 C311 1.389 . S
C310 H283 0.950 . S
C310 C296 1.377 . S
C310 C309 1.373 . S
C311 C295 1.377 . S
C311 C309 1.389 . S
C311 C312 1.524 . S
C312 C311 1.524 . S
C312 C313 1.397 . S
C312 C317 1.363 1_455 S
C313 H284 0.950 . S
C313 C312 1.397 . S
C313 C314 1.334 . S
C314 H285 0.950 . S
C314 C313 1.334 . S
C314 C315 1.287 . S
C315 C314 1.287 . S
C315 C316 1.524 1_455 S
C315 H318 0.999 1_455 S
C316 H286 0.950 . S
C316 C315 1.524 1_655 S
C316 C317 1.415 . S
C317 H287 0.950 . S
C317 C312 1.363 1_655 S
C317 C316 1.415 . S
H318 C315 0.999 1_655 S
H319 C300 0.913 . S
H320 C338 0.951 . S
H321 C340 0.951 . S
H322 C342 0.950 . S
H323 C343 0.950 . S
H324 C345 0.950 . S
H325 C348 0.950 . S
H326 C349 0.950 . S
H327 C351 0.950 . S
H328 C352 0.950 . S
H329 C353 0.951 . S
H330 C355 0.951 . S
H331 C357 0.950 . S
H332 C358 0.950 . S
H333 C360 0.950 . S
H334 C363 0.950 . S
H335 C364 0.950 . S
H336 C366 0.950 . S
H337 C367 0.950 . S
C338 H320 0.951 . S
C338 C339 1.366 . S
C338 C340 1.388 . S
C339 C338 1.366 . S
C339 C343 1.385 . S
C340 H321 0.951 . S
C340 C338 1.388 . S
C340 C341 1.366 . S
C341 C340 1.366 . S
C341 C342 1.414 . S
C341 C344 1.499 . S
C342 H322 0.950 . S
C342 C341 1.414 . S
C342 C343 1.374 . S
C343 H323 0.950 . S
C343 C339 1.385 . S
C343 C342 1.374 . S
C344 C341 1.499 . S
C344 C345 1.373 . S
C344 C346 1.389 . S
C345 H324 0.950 . S
C345 C344 1.373 . S
C345 C361 1.377 . S
C346 C344 1.389 . S
C346 C347 1.524 . S
C346 C360 1.377 . S
C347 C346 1.524 . S
C347 C348 1.397 . S
C347 C352 1.363 . S
C348 H325 0.950 . S
C348 C347 1.397 . S
C348 C349 1.334 . S
C349 H326 0.950 . S
C349 C348 1.334 . S
C349 C350 1.287 . S
C350 C349 1.287 . S
C350 C351 1.524 . S
C350 H369 0.913 . S
C351 H327 0.950 . S
C351 C350 1.524 . S
C351 C352 1.415 . S
C352 H328 0.950 . S
C352 C347 1.363 . S
C352 C351 1.415 . S
C353 H329 0.951 . S
C353 C354 1.366 . S
C353 C355 1.388 . S
C354 C353 1.366 . S
C354 C358 1.385 . S
C355 H330 0.951 . S
C355 C353 1.388 . S
C355 C356 1.366 . S
C356 C355 1.366 . S
C356 C357 1.414 . S
C356 C359 1.499 . S
C357 H331 0.950 . S
C357 C356 1.414 . S
C357 C358 1.374 . S
C358 H332 0.950 . S
C358 C354 1.385 . S
C358 C357 1.374 . S
C359 C356 1.499 . S
C359 C360 1.373 . S
C359 C361 1.389 . S
C360 H333 0.950 . S
C360 C346 1.377 . S
C360 C359 1.373 . S
C361 C345 1.377 . S
C361 C359 1.389 . S
C361 C362 1.524 . S
C362 C361 1.524 . S
C362 C363 1.397 . S
C362 C367 1.363 . S
C363 H334 0.950 . S
C363 C362 1.397 . S
C363 C364 1.334 . S
C364 H335 0.950 . S
C364 C363 1.334 . S
C364 C365 1.287 . S
C365 C364 1.287 . S
C365 C366 1.524 . S
C365 H368 0.999 . S
C366 H336 0.950 . S
C366 C365 1.524 . S
C366 C367 1.415 . S
C367 H337 0.950 . S
C367 C362 1.363 . S
C367 C366 1.415 . S
H368 C365 0.999 . S
H369 C350 0.913 . S
H370 C388 0.951 . S
H371 C390 0.951 . S
H372 C392 0.950 . S
H373 C393 0.950 . S
H374 C395 0.950 . S
H375 C398 0.950 . S
H376 C399 0.950 . S
H377 C401 0.950 . S
H378 C402 0.950 . S
H379 C403 0.951 1_554 S
H380 C405 0.951 . S
H381 C407 0.950 . S
H382 C408 0.950 . S
H383 C410 0.950 . S
H384 C413 0.950 . S
H385 C414 0.950 1_565 S
H386 C416 0.950 . S
H387 C417 0.950 . S
C388 H370 0.951 . S
C388 C389 1.366 . S
C388 C390 1.388 . S
C389 C388 1.366 . S
C389 C393 1.385 . S
C390 H371 0.951 . S
C390 C388 1.388 . S
C390 C391 1.366 . S
C391 C390 1.366 . S
C391 C392 1.414 . S
C391 C394 1.499 . S
C392 H372 0.950 . S
C392 C391 1.414 . S
C392 C393 1.374 . S
C393 H373 0.950 . S
C393 C389 1.385 . S
C393 C392 1.374 . S
C394 C391 1.499 . S
C394 C395 1.373 . S
C394 C396 1.389 . S
C395 H374 0.950 . S
C395 C394 1.373 . S
C395 C411 1.377 . S
C396 C394 1.389 . S
C396 C397 1.524 . S
C396 C410 1.377 . S
C397 C396 1.524 . S
C397 C398 1.397 . S
C397 C402 1.363 . S
C398 H375 0.950 . S
C398 C397 1.397 . S
C398 C399 1.334 . S
C399 H376 0.950 . S
C399 C398 1.334 . S
C399 C400 1.287 . S
C400 C399 1.287 . S
C400 C401 1.524 . S
C400 H419 0.913 . S
C401 H377 0.950 . S
C401 C400 1.524 . S
C401 C402 1.415 . S
C402 H378 0.950 . S
C402 C397 1.363 . S
C402 C401 1.415 . S
C403 H379 0.951 1_556 S
C403 C404 1.366 . S
C403 C405 1.388 . S
C404 C403 1.366 . S
C404 C408 1.385 . S
C405 H380 0.951 . S
C405 C403 1.388 . S
C405 C406 1.366 . S
C406 C405 1.366 . S
C406 C407 1.414 . S
C406 C409 1.499 . S
C407 H381 0.950 . S
C407 C406 1.414 . S
C407 C408 1.374 . S
C408 H382 0.950 . S
C408 C404 1.385 . S
C408 C407 1.374 . S
C409 C406 1.499 . S
C409 C410 1.373 . S
C409 C411 1.389 . S
C410 H383 0.950 . S
C410 C396 1.377 . S
C410 C409 1.373 . S
C411 C395 1.377 . S
C411 C409 1.389 . S
C411 C412 1.524 . S
C412 C411 1.524 . S
C412 C413 1.397 . S
C412 C417 1.363 . S
C413 H384 0.950 . S
C413 C412 1.397 . S
C413 C414 1.334 . S
C414 H385 0.950 1_545 S
C414 C413 1.334 . S
C414 C415 1.287 1_545 S
C415 C414 1.287 1_565 S
C415 C416 1.524 1_565 S
C415 H418 0.999 . S
C416 H386 0.950 . S
C416 C415 1.524 1_545 S
C416 C417 1.415 . S
C417 H387 0.950 . S
C417 C412 1.363 . S
C417 C416 1.415 . S
H418 C415 0.999 . S
H419 C400 0.913 . S
H420 C438 0.951 . S
H421 C440 0.951 . S
H422 C442 0.950 . S
H423 C443 0.950 . S
H424 C445 0.950 . S
H425 C448 0.950 . S
H426 C449 0.950 . S
H427 C451 0.950 . S
H428 C452 0.950 . S
H429 C453 0.951 . S
H430 C455 0.951 . S
H431 C457 0.950 . S
H432 C458 0.950 . S
H433 C460 0.950 . S
H434 C463 0.950 . S
H435 C464 0.950 . S
H436 C466 0.950 1_545 S
H437 C467 0.950 . S
C438 H420 0.951 . S
C438 C439 1.366 . S
C438 C440 1.388 . S
C439 C438 1.366 . S
C439 C443 1.385 . S
C440 H421 0.951 . S
C440 C438 1.388 . S
C440 C441 1.366 . S
C441 C440 1.366 . S
C441 C442 1.414 . S
C441 C444 1.499 . S
C442 H422 0.950 . S
C442 C441 1.414 . S
C442 C443 1.374 . S
C443 H423 0.950 . S
C443 C439 1.385 . S
C443 C442 1.374 . S
C444 C441 1.499 . S
C444 C445 1.373 . S
C444 C446 1.389 . S
C445 H424 0.950 . S
C445 C444 1.373 . S
C445 C461 1.377 . S
C446 C444 1.389 . S
C446 C447 1.524 . S
C446 C460 1.377 . S
C447 C446 1.524 . S
C447 C448 1.397 . S
C447 C452 1.363 . S
C448 H425 0.950 . S
C448 C447 1.397 . S
C448 C449 1.334 . S
C449 H426 0.950 . S
C449 C448 1.334 . S
C449 C450 1.287 . S
C450 C449 1.287 . S
C450 C451 1.524 . S
C450 H469 0.913 . S
C451 H427 0.950 . S
C451 C450 1.524 . S
C451 C452 1.415 . S
C452 H428 0.950 . S
C452 C447 1.363 . S
C452 C451 1.415 . S
C453 H429 0.951 . S
C453 C454 1.366 . S
C453 C455 1.388 . S
C454 C453 1.366 . S
C454 C458 1.385 . S
C455 H430 0.951 . S
C455 C453 1.388 . S
C455 C456 1.366 . S
C456 C455 1.366 . S
C456 C457 1.414 . S
C456 C459 1.499 . S
C457 H431 0.950 . S
C457 C456 1.414 . S
C457 C458 1.374 . S
C458 H432 0.950 . S
C458 C454 1.385 . S
C458 C457 1.374 . S
C459 C456 1.499 . S
C459 C460 1.373 . S
C459 C461 1.389 . S
C460 H433 0.950 . S
C460 C446 1.377 . S
C460 C459 1.373 . S
C461 C445 1.377 . S
C461 C459 1.389 . S
C461 C462 1.524 . S
C462 C461 1.524 . S
C462 C463 1.397 . S
C462 C467 1.363 . S
C463 H434 0.950 . S
C463 C462 1.397 . S
C463 C464 1.334 . S
C464 H435 0.950 . S
C464 C463 1.334 . S
C464 C465 1.287 . S
C465 C464 1.287 . S
C465 C466 1.524 . S
C465 H468 0.999 1_565 S
C466 H436 0.950 1_565 S
C466 C465 1.524 . S
C466 C467 1.415 . S
C467 H437 0.950 . S
C467 C462 1.363 . S
C467 C466 1.415 . S
H468 C465 0.999 1_545 S
H469 C450 0.913 . S
H470 C488 0.951 . S
H471 C490 0.951 . S
H472 C492 0.950 . S
H473 C493 0.950 . S
H474 C495 0.950 . S
H475 C498 0.950 . S
H476 C499 0.950 . S
H477 C501 0.950 . S
H478 C502 0.950 . S
H479 C503 0.951 . S
H480 C505 0.951 . S
H481 C507 0.950 . S
H482 C508 0.950 . S
H483 C510 0.950 . S
H484 C513 0.950 . S
H485 C514 0.950 1_545 S
H486 C516 0.950 1_545 S
H487 C517 0.950 . S
C488 H470 0.951 . S
C488 C489 1.366 . S
C488 C490 1.388 . S
C489 C488 1.366 . S
C489 C493 1.385 . S
C490 H471 0.951 . S
C490 C488 1.388 . S
C490 C491 1.366 . S
C491 C490 1.366 . S
C491 C492 1.414 . S
C491 C494 1.499 . S
C492 H472 0.950 . S
C492 C491 1.414 . S
C492 C493 1.374 . S
C493 H473 0.950 . S
C493 C489 1.385 . S
C493 C492 1.374 . S
C494 C491 1.499 . S
C494 C495 1.373 . S
C494 C496 1.389 . S
C495 H474 0.950 . S
C495 C494 1.373 . S
C495 C511 1.377 . S
C496 C494 1.389 . S
C496 C497 1.524 . S
C496 C510 1.377 . S
C497 C496 1.524 . S
C497 C498 1.397 . S
C497 C502 1.363 . S
C498 H475 0.950 . S
C498 C497 1.397 . S
C498 C499 1.334 . S
C499 H476 0.950 . S
C499 C498 1.334 . S
C499 C500 1.287 . S
C500 C499 1.287 . S
C500 C501 1.524 . S
C500 H519 0.913 . S
C501 H477 0.950 . S
C501 C500 1.524 . S
C501 C502 1.415 . S
C502 H478 0.950 . S
C502 C497 1.363 . S
C502 C501 1.415 . S
C503 H479 0.951 . S
C503 C504 1.366 . S
C503 C505 1.388 . S
C504 C503 1.366 . S
C504 C508 1.385 . S
C505 H480 0.951 . S
C505 C503 1.388 . S
C505 C506 1.366 . S
C506 C505 1.366 . S
C506 C507 1.414 . S
C506 C509 1.499 . S
C507 H481 0.950 . S
C507 C506 1.414 . S
C507 C508 1.374 . S
C508 H482 0.950 . S
C508 C504 1.385 . S
C508 C507 1.374 . S
C509 C506 1.499 . S
C509 C510 1.373 . S
C509 C511 1.389 . S
C510 H483 0.950 . S
C510 C496 1.377 . S
C510 C509 1.373 . S
C511 C495 1.377 . S
C511 C509 1.389 . S
C511 C512 1.524 . S
C512 C511 1.524 . S
C512 C513 1.397 . S
C512 C517 1.363 . S
C513 H484 0.950 . S
C513 C512 1.397 . S
C513 C514 1.334 . S
C514 H485 0.950 1_565 S
C514 C513 1.334 . S
C514 C515 1.287 1_565 S
C515 C514 1.287 1_545 S
C515 C516 1.524 1_545 S
C515 H518 0.999 . S
C516 H486 0.950 1_565 S
C516 C515 1.524 1_565 S
C516 C517 1.415 . S
C517 H487 0.950 . S
C517 C512 1.363 . S
C517 C516 1.415 . S
H518 C515 0.999 . S
H519 C500 0.913 . S
H520 C538 0.951 . S
H521 C540 0.951 . S
H522 C542 0.950 . S
H523 C543 0.950 . S
H524 C545 0.950 . S
H525 C548 0.950 . S
H526 C549 0.950 . S
H527 C551 0.950 . S
H528 C552 0.950 . S
H529 C553 0.951 . S
H530 C555 0.951 . S
H531 C557 0.950 . S
H532 C558 0.950 . S
H533 C560 0.950 . S
H534 C563 0.950 . S
H535 C564 0.950 . S
H536 C566 0.950 . S
H537 C567 0.950 . S
C538 H520 0.951 . S
C538 C539 1.366 . S
C538 C540 1.388 . S
C539 C538 1.366 . S
C539 C543 1.385 . S
C540 H521 0.951 . S
C540 C538 1.388 . S
C540 C541 1.366 . S
C541 C540 1.366 . S
C541 C542 1.414 . S
C541 C544 1.499 . S
C542 H522 0.950 . S
C542 C541 1.414 . S
C542 C543 1.374 . S
C543 H523 0.950 . S
C543 C539 1.385 . S
C543 C542 1.374 . S
C544 C541 1.499 . S
C544 C545 1.373 . S
C544 C546 1.389 . S
C545 H524 0.950 . S
C545 C544 1.373 . S
C545 C561 1.377 . S
C546 C544 1.389 . S
C546 C547 1.524 . S
C546 C560 1.377 . S
C547 C546 1.524 . S
C547 C548 1.397 . S
C547 C552 1.363 . S
C548 H525 0.950 . S
C548 C547 1.397 . S
C548 C549 1.334 . S
C549 H526 0.950 . S
C549 C548 1.334 . S
C549 C550 1.287 . S
C550 C549 1.287 . S
C550 C551 1.524 . S
C550 H569 0.913 . S
C551 H527 0.950 . S
C551 C550 1.524 . S
C551 C552 1.415 . S
C552 H528 0.950 . S
C552 C547 1.363 . S
C552 C551 1.415 . S
C553 H529 0.951 . S
C553 C554 1.366 . S
C553 C555 1.388 . S
C554 C553 1.366 . S
C554 C558 1.385 . S
C555 H530 0.951 . S
C555 C553 1.388 . S
C555 C556 1.366 . S
C556 C555 1.366 . S
C556 C557 1.414 . S
C556 C559 1.499 . S
C557 H531 0.950 . S
C557 C556 1.414 . S
C557 C558 1.374 . S
C558 H532 0.950 . S
C558 C554 1.385 . S
C558 C557 1.374 . S
C559 C556 1.499 . S
C559 C560 1.373 . S
C559 C561 1.389 . S
C560 H533 0.950 . S
C560 C546 1.377 . S
C560 C559 1.373 . S
C561 C545 1.377 . S
C561 C559 1.389 . S
C561 C562 1.524 . S
C562 C561 1.524 . S
C562 C563 1.397 . S
C562 C567 1.363 . S
C563 H534 0.950 . S
C563 C562 1.397 . S
C563 C564 1.334 . S
C564 H535 0.950 . S
C564 C563 1.334 . S
C564 C565 1.287 . S
C565 C564 1.287 . S
C565 C566 1.524 . S
C565 H568 0.999 . S
C566 H536 0.950 . S
C566 C565 1.524 . S
C566 C567 1.415 . S
C567 H537 0.950 . S
C567 C562 1.363 . S
C567 C566 1.415 . S
H568 C565 0.999 . S
H569 C550 0.913 . S
H570 C588 0.951 . S
H571 C590 0.951 . S
H572 C592 0.950 . S
H573 C593 0.950 . S
H574 C595 0.950 . S
H575 C598 0.950 . S
H576 C599 0.950 . S
H577 C601 0.950 . S
H578 C602 0.950 . S
H579 C603 0.951 . S
H580 C605 0.951 . S
H581 C607 0.950 . S
H582 C608 0.950 . S
H583 C610 0.950 . S
H584 C613 0.950 . S
H585 C614 0.950 . S
H586 C616 0.950 . S
H587 C617 0.950 . S
C588 H570 0.951 . S
C588 C589 1.366 . S
C588 C590 1.388 . S
C589 C588 1.366 . S
C589 C593 1.385 . S
C590 H571 0.951 . S
C590 C588 1.388 . S
C590 C591 1.366 . S
C591 C590 1.366 . S
C591 C592 1.414 . S
C591 C594 1.499 . S
C592 H572 0.950 . S
C592 C591 1.414 . S
C592 C593 1.374 . S
C593 H573 0.950 . S
C593 C589 1.385 . S
C593 C592 1.374 . S
C594 C591 1.499 . S
C594 C595 1.373 . S
C594 C596 1.389 . S
C595 H574 0.950 . S
C595 C594 1.373 . S
C595 C611 1.377 . S
C596 C594 1.389 . S
C596 C597 1.524 . S
C596 C610 1.377 . S
C597 C596 1.524 . S
C597 C598 1.397 . S
C597 C602 1.363 . S
C598 H575 0.950 . S
C598 C597 1.397 . S
C598 C599 1.334 1_565 S
C599 H576 0.950 . S
C599 C598 1.334 1_545 S
C599 C600 1.287 . S
C600 C599 1.287 . S
C600 C601 1.524 . S
C600 H619 0.913 . S
C601 H577 0.950 . S
C601 C600 1.524 . S
C601 C602 1.415 1_545 S
C602 H578 0.950 . S
C602 C597 1.363 . S
C602 C601 1.415 1_565 S
C603 H579 0.951 . S
C603 C604 1.366 . S
C603 C605 1.388 . S
C604 C603 1.366 . S
C604 C608 1.385 . S
C605 H580 0.951 . S
C605 C603 1.388 . S
C605 C606 1.366 . S
C606 C605 1.366 . S
C606 C607 1.414 . S
C606 C609 1.499 . S
C607 H581 0.950 . S
C607 C606 1.414 . S
C607 C608 1.374 . S
C608 H582 0.950 . S
C608 C604 1.385 . S
C608 C607 1.374 . S
C609 C606 1.499 . S
C609 C610 1.373 . S
C609 C611 1.389 . S
C610 H583 0.950 . S
C610 C596 1.377 . S
C610 C609 1.373 . S
C611 C595 1.377 . S
C611 C609 1.389 . S
C611 C612 1.524 . S
C612 C611 1.524 . S
C612 C613 1.397 . S
C612 C617 1.363 . S
C613 H584 0.950 . S
C613 C612 1.397 . S
C613 C614 1.334 . S
C614 H585 0.950 . S
C614 C613 1.334 . S
C614 C615 1.287 . S
C615 C614 1.287 . S
C615 C616 1.524 . S
C615 H618 0.999 . S
C616 H586 0.950 . S
C616 C615 1.524 . S
C616 C617 1.415 . S
C617 H587 0.950 . S
C617 C612 1.363 . S
C617 C616 1.415 . S
H618 C615 0.999 . S
H619 C600 0.913 . S
H620 C638 0.951 . S
H621 C640 0.951 . S
H622 C642 0.950 . S
H623 C643 0.950 . S
H624 C645 0.950 . S
H625 C648 0.950 . S
H626 C649 0.950 . S
H627 C651 0.950 . S
H628 C652 0.950 . S
H629 C653 0.951 . S
H630 C655 0.951 . S
H631 C657 0.950 . S
H632 C658 0.950 . S
H633 C660 0.950 . S
H634 C663 0.950 . S
H635 C664 0.950 . S
H636 C666 0.950 . S
H637 C667 0.950 . S
C638 H620 0.951 . S
C638 C639 1.366 . S
C638 C640 1.388 . S
C639 C638 1.366 . S
C639 C643 1.385 . S
C640 H621 0.951 . S
C640 C638 1.388 . S
C640 C641 1.366 . S
C641 C640 1.366 . S
C641 C642 1.414 . S
C641 C644 1.499 . S
C642 H622 0.950 . S
C642 C641 1.414 . S
C642 C643 1.374 . S
C643 H623 0.950 . S
C643 C639 1.385 . S
C643 C642 1.374 . S
C644 C641 1.499 . S
C644 C645 1.373 . S
C644 C646 1.389 . S
C645 H624 0.950 . S
C645 C644 1.373 . S
C645 C661 1.377 . S
C646 C644 1.389 . S
C646 C647 1.524 . S
C646 C660 1.377 . S
C647 C646 1.524 . S
C647 C648 1.397 . S
C647 C652 1.363 . S
C648 H625 0.950 . S
C648 C647 1.397 . S
C648 C649 1.334 . S
C649 H626 0.950 . S
C649 C648 1.334 . S
C649 C650 1.287 . S
C650 C649 1.287 . S
C650 C651 1.524 . S
C650 H669 0.913 . S
C651 H627 0.950 . S
C651 C650 1.524 . S
C651 C652 1.415 . S
C652 H628 0.950 . S
C652 C647 1.363 . S
C652 C651 1.415 . S
C653 H629 0.951 . S
C653 C654 1.366 . S
C653 C655 1.388 . S
C654 C653 1.366 . S
C654 C658 1.385 . S
C655 H630 0.951 . S
C655 C653 1.388 . S
C655 C656 1.366 . S
C656 C655 1.366 . S
C656 C657 1.414 . S
C656 C659 1.499 . S
C657 H631 0.950 . S
C657 C656 1.414 . S
C657 C658 1.374 . S
C658 H632 0.950 . S
C658 C654 1.385 . S
C658 C657 1.374 . S
C659 C656 1.499 . S
C659 C660 1.373 . S
C659 C661 1.389 . S
C660 H633 0.950 . S
C660 C646 1.377 . S
C660 C659 1.373 . S
C661 C645 1.377 . S
C661 C659 1.389 . S
C661 C662 1.524 . S
C662 C661 1.524 . S
C662 C663 1.397 . S
C662 C667 1.363 . S
C663 H634 0.950 . S
C663 C662 1.397 . S
C663 C664 1.334 . S
C664 H635 0.950 . S
C664 C663 1.334 . S
C664 C665 1.287 . S
C665 C664 1.287 . S
C665 C666 1.524 . S
C665 H668 0.999 . S
C666 H636 0.950 . S
C666 C665 1.524 . S
C666 C667 1.415 . S
C667 H637 0.950 . S
C667 C662 1.363 . S
C667 C666 1.415 . S
H668 C665 0.999 . S
H669 C650 0.913 . S
H670 C688 0.951 . S
H671 C690 0.951 . S
H672 C692 0.950 . S
H673 C693 0.950 . S
H674 C695 0.950 . S
H675 C698 0.950 . S
H676 C699 0.950 . S
H677 C701 0.950 . S
H678 C702 0.950 . S
H679 C703 0.951 . S
H680 C705 0.951 . S
H681 C707 0.950 . S
H682 C708 0.950 1_455 S
H683 C710 0.950 . S
H684 C713 0.950 . S
H685 C714 0.950 . S
H686 C716 0.950 . S
H687 C717 0.950 . S
C688 H670 0.951 . S
C688 C689 1.366 . S
C688 C690 1.388 . S
C689 C688 1.366 . S
C689 C693 1.385 . S
C690 H671 0.951 . S
C690 C688 1.388 . S
C690 C691 1.366 . S
C691 C690 1.366 . S
C691 C692 1.414 . S
C691 C694 1.499 . S
C692 H672 0.950 . S
C692 C691 1.414 . S
C692 C693 1.374 . S
C693 H673 0.950 . S
C693 C689 1.385 . S
C693 C692 1.374 . S
C694 C691 1.499 . S
C694 C695 1.373 . S
C694 C696 1.389 . S
C695 H674 0.950 . S
C695 C694 1.373 . S
C695 C711 1.377 . S
C696 C694 1.389 . S
C696 C697 1.524 . S
C696 C710 1.377 . S
C697 C696 1.524 . S
C697 C698 1.397 . S
C697 C702 1.363 . S
C698 H675 0.950 . S
C698 C697 1.397 . S
C698 C699 1.334 . S
C699 H676 0.950 . S
C699 C698 1.334 . S
C699 C700 1.287 . S
C700 C699 1.287 . S
C700 C701 1.524 . S
C700 H719 0.913 . S
C701 H677 0.950 . S
C701 C700 1.524 . S
C701 C702 1.415 . S
C702 H678 0.950 . S
C702 C697 1.363 . S
C702 C701 1.415 . S
C703 H679 0.951 . S
C703 C704 1.366 . S
C703 C705 1.388 . S
C704 C703 1.366 . S
C704 C708 1.385 . S
C705 H680 0.951 . S
C705 C703 1.388 . S
C705 C706 1.366 . S
C706 C705 1.366 . S
C706 C707 1.414 . S
C706 C709 1.499 . S
C707 H681 0.950 . S
C707 C706 1.414 . S
C707 C708 1.374 . S
C708 H682 0.950 1_655 S
C708 C704 1.385 . S
C708 C707 1.374 . S
C709 C706 1.499 . S
C709 C710 1.373 . S
C709 C711 1.389 . S
C710 H683 0.950 . S
C710 C696 1.377 . S
C710 C709 1.373 . S
C711 C695 1.377 . S
C711 C709 1.389 . S
C711 C712 1.524 . S
C712 C711 1.524 . S
C712 C713 1.397 . S
C712 C717 1.363 . S
C713 H684 0.950 . S
C713 C712 1.397 . S
C713 C714 1.334 . S
C714 H685 0.950 . S
C714 C713 1.334 . S
C714 C715 1.287 . S
C715 C714 1.287 . S
C715 C716 1.524 . S
C715 H718 0.999 . S
C716 H686 0.950 . S
C716 C715 1.524 . S
C716 C717 1.415 . S
C717 H687 0.950 . S
C717 C712 1.363 . S
C717 C716 1.415 . S
H718 C715 0.999 . S
H719 C700 0.913 . S
C139 C61 0.208 . S
C154 C10 0.207 . S
C189 C91 0.268 1_655 S
C204 C40 0.268 . S
C239 C70 0.464 1_565 S
C254 C1 0.465 . S
C289 C31 0.512 . S
C304 C100 0.512 . S
C339 N44 0.975 . S
C354 N6 1.037 . S
C389 N36 1.398 . S
C404 C87 1.366 1_556 S
C439 C117 1.411 . S
C454 C76 1.421 . S
C489 C106 1.174 . S
C504 N14 1.105 . S
C539 N74 1.037 . S
C554 N96 0.975 . S
C589 C16 1.368 . S
C604 N104 1.398 . S
C639 C46 1.410 . S
C654 C27 1.419 . S
C689 N66 1.106 . S
C704 C57 1.173 . S
