# Generated by pormake.
# Topology umx, (4)-cn, num edge types: 1
# Building blocks:
#     Node 0, Type 0, BuildingBlock: NAWXER_clean_sbu_0, # of connection points: 4
#     Node 1, Type 0, BuildingBlock: NAWXER_clean_sbu_0, # of connection points: 4
#     Node 2, Type 0, BuildingBlock: NAWXER_clean_sbu_0, # of connection points: 4
#     Node 3, Type 0, BuildingBlock: NAWXER_clean_sbu_0, # of connection points: 4
#     Node 4, Type 0, BuildingBlock: NAWXER_clean_sbu_0, # of connection points: 4
#     Node 5, Type 0, BuildingBlock: NAWXER_clean_sbu_0, # of connection points: 4
#     Node 6, Type 0, BuildingBlock: NAWXER_clean_sbu_0, # of connection points: 4
#     Node 7, Type 0, BuildingBlock: NAWXER_clean_sbu_0, # of connection points: 4
#     Edge 8, Type (0, 0), BuildingBlock: EZIPEK_clean_linker_0, # of connection points: 2
#     Edge 9, Type (0, 0), BuildingBlock: EZIPEK_clean_linker_0, # of connection points: 2
#     Edge 10, Type (0, 0), BuildingBlock: EZIPEK_clean_linker_0, # of connection points: 2
#     Edge 11, Type (0, 0), BuildingBlock: EZIPEK_clean_linker_0, # of connection points: 2
#     Edge 12, Type (0, 0), BuildingBlock: EZIPEK_clean_linker_0, # of connection points: 2
#     Edge 13, Type (0, 0), BuildingBlock: EZIPEK_clean_linker_0, # of connection points: 2
#     Edge 14, Type (0, 0), BuildingBlock: EZIPEK_clean_linker_0, # of connection points: 2
#     Edge 15, Type (0, 0), BuildingBlock: EZIPEK_clean_linker_0, # of connection points: 2
#     Edge 16, Type (0, 0), BuildingBlock: EZIPEK_clean_linker_0, # of connection points: 2
#     Edge 17, Type (0, 0), BuildingBlock: EZIPEK_clean_linker_0, # of connection points: 2
#     Edge 18, Type (0, 0), BuildingBlock: EZIPEK_clean_linker_0, # of connection points: 2
#     Edge 19, Type (0, 0), BuildingBlock: EZIPEK_clean_linker_0, # of connection points: 2
#     Edge 20, Type (0, 0), BuildingBlock: EZIPEK_clean_linker_0, # of connection points: 2
#     Edge 21, Type (0, 0), BuildingBlock: EZIPEK_clean_linker_0, # of connection points: 2
#     Edge 22, Type (0, 0), BuildingBlock: EZIPEK_clean_linker_0, # of connection points: 2
#     Edge 23, Type (0, 0), BuildingBlock: EZIPEK_clean_linker_0, # of connection points: 2
# Relax obj value: 0.027
# Max RMSD: 0.221
# Mean RMSD: 0.220
data_MOF--net-umx--node1-NAWXER_clean_sbu_0--edge1-EZIPEK_clean_linker_0
_symmetry_space_group_name_H-M    P1
_symmetry_Int_Tables_number       1
_symmetry_cell_setting            triclinic
loop_
_symmetry_equiv_pos_as_xyz
'x, y, z'
_cell_length_a     28.671308
_cell_length_b     28.701967
_cell_length_c     21.144226
_cell_angle_alpha  95.031293
_cell_angle_beta   94.671041
_cell_angle_gamma 90.133137
loop_
_atom_site_label
_atom_site_type_symbol
_atom_site_fract_x
_atom_site_fract_y
_atom_site_fract_z
_atom_type_partial_charge
C0 C 0.23508 0.37555 0.04174 0.0
C1 C 0.08938 0.46013 0.0451 0.0
O2 O 0.19364 0.35973 0.03007 0.0
Zn3 Zn 0.16261 0.41786 0.0447 0.0
O4 O 0.24251 0.41939 0.05653 0.0
Zn5 Zn 0.19994 0.4811 0.06794 0.0
O6 O 0.21421 0.50343 0.15653 0.0
O7 O 0.17794 0.43512 0.14533 0.0
O8 O 0.12474 0.48796 0.05622 0.0
O9 O 0.09573 0.41637 0.03617 0.0
O10 O 0.17928 0.4544 0.96436 0.0
O11 O 0.21998 0.51776 1.0021 0.0
C12 C 0.19683 0.46935 0.1815 0.0
C13 C 0.2015 0.49166 0.95498 0.0
C14 C 0.50501 0.18901 0.41885 0.0
C15 C 0.5079 0.20375 0.64874 0.0
O16 O 0.47463 0.20686 0.45384 0.0
Zn17 Zn 0.50789 0.19684 0.53365 0.0
O18 O 0.54236 0.17127 0.44407 0.0
Zn19 Zn 0.57253 0.16326 0.53991 0.0
O20 O 0.57862 0.09712 0.54003 0.0
O21 O 0.50513 0.1209 0.5357 0.0
O22 O 0.54418 0.18225 0.63016 0.0
O23 O 0.47827 0.21952 0.60839 0.0
O24 O 0.56803 0.24246 0.53314 0.0
O25 O 0.63003 0.19744 0.54437 0.0
C26 C 0.53525 0.08786 0.53807 0.0
C27 C 0.61257 0.23732 0.53736 0.0
C28 C 0.89835 0.52461 0.02255 0.0
C29 C 0.75657 0.61501 0.02535 0.0
O30 O 0.86203 0.49793 1.01352 0.0
Zn31 Zn 0.78702 0.50769 1.00107 0.0
O32 O 0.89347 0.56866 0.02845 0.0
Zn33 Zn 0.82682 0.56945 0.0216 0.0
O34 O 0.80903 0.53473 0.10355 0.0
O35 O 0.76551 0.47281 0.06726 0.0
O36 O 0.79869 0.62915 0.03469 0.0
O37 O 0.74712 0.57135 1.01206 0.0
O38 O 0.77166 0.48406 0.91335 0.0
O39 O 0.81082 0.55073 0.9218 0.0
C40 C 0.78522 0.49861 0.11377 0.0
C41 C 0.79043 0.51665 0.88704 0.0
C42 C 0.46892 0.78712 0.41177 0.0
C43 C 0.48825 0.78991 0.64306 0.0
O44 O 0.43502 0.80753 0.43835 0.0
Zn45 Zn 0.41763 0.8277 0.53323 0.0
O46 O 0.50135 0.76917 0.44603 0.0
Zn47 Zn 0.47912 0.78767 0.5282 0.0
O48 O 0.41521 0.74801 0.53104 0.0
O49 O 0.35774 0.79928 0.53677 0.0
O50 O 0.51473 0.77013 0.60359 0.0
O51 O 0.45217 0.8124 0.62313 0.0
O52 O 0.42078 0.89486 0.53655 0.0
O53 O 0.49034 0.86224 0.53616 0.0
C54 C 0.37174 0.7573 0.53514 0.0
C55 C 0.46494 0.89893 0.53737 0.0
C56 C 0.20143 0.49696 0.45569 0.0
C57 C 0.20018 0.52067 0.68739 0.0
O58 O 0.17866 0.53356 0.47374 0.0
Zn59 Zn 0.16276 0.57051 0.56361 0.0
O60 O 0.22105 0.472 0.49678 0.0
Zn61 Zn 0.20171 0.5093 0.57043 0.0
O62 O 0.12633 0.49907 0.55791 0.0
O63 O 0.09605 0.56965 0.55697 0.0
O64 O 0.21841 0.48797 0.65358 0.0
O65 O 0.17973 0.55409 0.66004 0.0
O66 O 0.19142 0.63009 0.56022 0.0
O67 O 0.24252 0.57274 0.56706 0.0
C68 C 0.09044 0.52566 0.5545 0.0
C69 C 0.23338 0.61614 0.56237 0.0
C70 C 0.37489 0.23304 0.02717 0.0
C71 C 0.45487 0.08488 0.01634 0.0
O72 O 0.41946 0.23925 0.03175 0.0
Zn73 Zn 0.48032 0.1944 0.03124 0.0
O74 O 0.35751 0.19207 0.01938 0.0
Zn75 Zn 0.41519 0.15959 0.01871 0.0
O76 O 0.44434 0.17278 0.11626 0.0
O77 O 0.51135 0.21092 0.11427 0.0
O78 O 0.41142 0.09267 1.00706 0.0
O79 O 0.48392 0.11925 0.02639 0.0
O80 O 0.51144 0.20904 0.95763 0.0
O81 O 0.44147 0.17796 0.93219 0.0
C82 C 0.48112 0.1926 0.14548 0.0
C83 C 0.4791 0.19564 0.91531 0.0
C84 C 0.78962 0.49123 0.61289 0.0
C85 C 0.78816 0.46962 0.38112 0.0
O86 O 0.77111 0.51789 0.5731 0.0
Zn87 Zn 0.78829 0.48078 0.49821 0.0
O88 O 0.81058 0.45388 0.59344 0.0
Zn89 Zn 0.82457 0.41747 0.5029 0.0
O90 O 0.89145 0.41593 0.50844 0.0
O91 O 0.86379 0.48767 0.50972 0.0
O92 O 0.80736 0.43522 0.40758 0.0
O93 O 0.77174 0.50307 0.41561 0.0
O94 O 0.7448 0.41959 0.50196 0.0
O95 O 0.79274 0.35941 0.50594 0.0
C96 C 0.89866 0.45975 0.51189 0.0
C97 C 0.75164 0.37571 0.50543 0.0
C98 C 0.61502 0.75615 0.04295 0.0
C99 C 0.52297 0.89717 0.04188 0.0
O100 O 0.62912 0.79831 0.05198 0.0
Zn101 Zn 0.56884 0.8263 0.04698 0.0
O102 O 0.57115 0.74648 0.03468 0.0
Zn103 Zn 0.50709 0.78564 0.02985 0.0
O104 O 0.48107 0.76556 0.94506 0.0
O105 O 0.54479 0.80972 0.94793 0.0
O106 O 0.49719 0.86032 0.03076 0.0
O107 O 0.56667 0.89324 0.05542 0.0
O108 O 0.53959 0.80841 0.13152 0.0
O109 O 0.47461 0.76851 0.10114 0.0
C110 C 0.5111 0.78635 0.9162 0.0
C111 C 0.50295 0.78718 0.14542 0.0
C112 C 0.15751 0.46322 0.28376 0.0
C113 C 0.19898 0.46901 0.25222 0.0
C114 C 0.2437 0.48769 0.35564 0.0
C115 C 0.20216 0.48289 0.38667 0.0
N116 N 0.12273 0.45494 0.38318 0.0
N117 N 0.28326 0.47268 0.25883 0.0
C118 C 0.16002 0.46727 0.35151 0.0
C119 C 0.24264 0.47712 0.28846 0.0
N120 N 0.11528 0.45572 0.24942 0.0
N121 N 0.28379 0.50387 0.39004 0.0
H122 H 0.28383 0.46313 0.21014 0.0
H123 H 0.31636 0.47363 0.28314 0.0
H124 H 0.28637 0.51025 0.43953 0.0
H125 H 0.31358 0.51382 0.36936 0.0
H126 H 0.08329 0.4587 0.26938 0.0
H127 H 0.11152 0.4486 0.20027 0.0
H128 H 0.09259 0.43851 0.36092 0.0
H129 H 0.1235 0.45719 0.43276 0.0
C130 C 0.51644 0.24008 0.76162 0.0
C131 C 0.49765 0.20449 0.71607 0.0
C132 C 0.46972 0.16176 0.80065 0.0
C133 C 0.48488 0.19922 0.84648 0.0
N134 N 0.51109 0.27981 0.86648 0.0
N135 N 0.44518 0.13854 0.69033 0.0
C136 C 0.50516 0.24009 0.82594 0.0
C137 C 0.47053 0.16773 0.73498 0.0
N138 N 0.545 0.27382 0.74356 0.0
N139 N 0.45736 0.11929 0.81918 0.0
H140 H 0.44537 0.14122 0.64147 0.0
H141 H 0.42091 0.11429 0.70211 0.0
H142 H 0.45858 0.11164 0.86643 0.0
H143 H 0.4509 0.0898 0.78719 0.0
H144 H 0.56389 0.29761 0.77601 0.0
H145 H 0.55225 0.27592 0.69631 0.0
H146 H 0.52184 0.31166 0.85212 0.0
H147 H 0.50013 0.28258 0.91245 0.0
C148 C 0.743 0.47936 0.2761 0.0
C149 C 0.78635 0.47108 0.31069 0.0
C150 C 0.82595 0.47031 0.21174 0.0
C151 C 0.78412 0.48548 0.1798 0.0
N152 N 0.70311 0.50732 0.1812 0.0
N153 N 0.87041 0.46149 0.31186 0.0
C154 C 0.74257 0.49047 0.21171 0.0
C155 C 0.82814 0.46676 0.27853 0.0
N156 N 0.70209 0.47472 0.30406 0.0
N157 N 0.86334 0.45806 0.17773 0.0
H158 H 0.87423 0.45646 0.36004 0.0
H159 H 0.90237 0.46516 0.29261 0.0
H160 H 0.86293 0.45995 0.12866 0.0
H161 H 0.89307 0.44182 0.19675 0.0
H162 H 0.66917 0.47581 0.27956 0.0
H163 H 0.70101 0.46497 0.35032 0.0
H164 H 0.67346 0.51725 0.2042 0.0
H165 H 0.70106 0.51437 0.1335 0.0
C166 C 0.50871 0.74398 0.8068 0.0
C167 C 0.50605 0.78639 0.84608 0.0
C168 C 0.50192 0.83057 0.75202 0.0
C169 C 0.49846 0.78802 0.71244 0.0
N170 N 0.49073 0.70376 0.70208 0.0
N171 N 0.4902 0.8692 0.85555 0.0
C172 C 0.49997 0.74447 0.73968 0.0
C173 C 0.50004 0.82953 0.81859 0.0
N174 N 0.52088 0.70355 0.83334 0.0
N175 N 0.50824 0.87192 0.72616 0.0
H176 H 0.48646 0.86952 0.90419 0.0
H177 H 0.48093 0.90062 0.83691 0.0
H178 H 0.51128 0.87389 0.67763 0.0
H179 H 0.51539 0.90349 0.75353 0.0
H180 H 0.52819 0.67264 0.80647 0.0
H181 H 0.52776 0.70193 0.88231 0.0
H182 H 0.4863 0.67165 0.72037 0.0
H183 H 0.48343 0.70253 0.65285 0.0
C184 C 0.8305 0.51674 0.71889 0.0
C185 C 0.78841 0.50317 0.68214 0.0
C186 C 0.74636 0.50783 0.77882 0.0
C187 C 0.78959 0.51494 0.81641 0.0
N188 N 0.87415 0.52163 0.82192 0.0
N189 N 0.7071 0.48039 0.67638 0.0
C190 C 0.83203 0.51866 0.78642 0.0
C191 C 0.74644 0.49747 0.71181 0.0
N192 N 0.86887 0.52865 0.68912 0.0
N193 N 0.70513 0.51286 0.80684 0.0
H194 H 0.70561 0.47303 0.62705 0.0
H195 H 0.67709 0.47019 0.69641 0.0
H196 H 0.70361 0.52216 0.85543 0.0
H197 H 0.67255 0.51263 0.78112 0.0
H198 H 0.8991 0.54368 0.71319 0.0
H199 H 0.869 0.52754 0.63968 0.0
H200 H 0.90621 0.51798 0.80224 0.0
H201 H 0.87752 0.52422 0.8714 0.0
C202 C 0.49069 0.74365 0.24111 0.0
C203 C 0.49258 0.78672 0.21301 0.0
C204 C 0.47103 0.82931 0.31207 0.0
C205 C 0.4719 0.78661 0.34173 0.0
N206 N 0.47096 0.70241 0.33119 0.0
N207 N 0.49343 0.87131 0.22515 0.0
C208 C 0.47872 0.74351 0.3053 0.0
C209 C 0.48505 0.82967 0.24931 0.0
N210 N 0.50332 0.7033 0.20765 0.0
N211 N 0.45537 0.86964 0.34245 0.0
H212 H 0.50259 0.87408 0.1791 0.0
H213 H 0.49556 0.90333 0.25255 0.0
H214 H 0.44625 0.87307 0.38909 0.0
H215 H 0.44734 0.89958 0.31943 0.0
H216 H 0.50788 0.67143 0.22714 0.0
H217 H 0.513 0.70222 0.16106 0.0
H218 H 0.47074 0.66965 0.3059 0.0
H219 H 0.46024 0.70118 0.377 0.0
C220 C 0.24452 0.49962 0.85735 0.0
C221 C 0.2029 0.50498 0.889 0.0
C222 C 0.15933 0.52306 0.78955 0.0
C223 C 0.20141 0.51928 0.75794 0.0
N224 N 0.28576 0.51627 0.76613 0.0
N225 N 0.12345 0.53182 0.88992 0.0
C226 C 0.24456 0.51116 0.7932 0.0
C227 C 0.16118 0.51987 0.85648 0.0
N228 N 0.28353 0.48181 0.88772 0.0
N229 N 0.1171 0.52714 0.75559 0.0
H230 H 0.12353 0.5298 0.93896 0.0
H231 H 0.09373 0.5478 0.87042 0.0
H232 H 0.11337 0.53083 0.70701 0.0
H233 H 0.0851 0.52338 0.77472 0.0
H234 H 0.31318 0.47183 0.86472 0.0
H235 H 0.28503 0.47371 0.93499 0.0
H236 H 0.31846 0.51521 0.7913 0.0
H237 H 0.28727 0.5265 0.72019 0.0
C238 C 0.49304 0.14772 0.30954 0.0
C239 C 0.4984 0.19022 0.34899 0.0
C240 C 0.49012 0.23479 0.25498 0.0
C241 C 0.48878 0.19217 0.21544 0.0
N242 N 0.49823 0.10837 0.20434 0.0
N243 N 0.50987 0.27399 0.35999 0.0
C244 C 0.4928 0.14865 0.24251 0.0
C245 C 0.49906 0.23377 0.32196 0.0
N246 N 0.48645 0.10667 0.33603 0.0
N247 N 0.48109 0.27608 0.22884 0.0
H248 H 0.51638 0.27484 0.40933 0.0
H249 H 0.51628 0.30591 0.34225 0.0
H250 H 0.47477 0.27838 0.17995 0.0
H251 H 0.4761 0.30754 0.25582 0.0
H252 H 0.47755 0.07521 0.30935 0.0
H253 H 0.48553 0.10486 0.38497 0.0
H254 H 0.50599 0.07625 0.22187 0.0
H255 H 0.4995 0.10778 0.15514 0.0
C256 C 0.97517 0.51913 0.08661 0.0
C257 C 0.94598 0.50472 0.03063 0.0
C258 C 0.01243 0.46647 0.98244 0.0
C259 C 0.04117 0.47877 0.03925 0.0
N260 N 0.05098 0.51643 0.1462 0.0
N261 N 0.93424 0.45579 0.93133 0.0
C262 C 0.02295 0.50538 0.09144 0.0
C263 C 0.96373 0.47557 0.98048 0.0
N264 N 0.95679 0.54558 0.13549 0.0
N265 N 0.03228 0.44859 0.9289 0.0
H266 H 0.89833 0.46115 0.92733 0.0
H267 H 0.94466 0.43022 0.89745 0.0
H268 H 0.06817 0.44313 0.92763 0.0
H269 H 0.01418 0.44398 0.88404 0.0
H270 H 0.97658 0.5628 0.17395 0.0
H271 H 0.92095 0.55096 0.13752 0.0
H272 H 0.03902 0.53005 0.18905 0.0
H273 H 0.08689 0.51108 0.14977 0.0
C274 C 0.51276 0.95861 0.48955 0.0
C275 C 0.48696 0.94604 0.54034 0.0
C276 C 0.50074 0.0246 0.59457 0.0
C277 C 0.51961 0.03888 0.53939 0.0
N278 N 0.53999 0.0212 0.43161 0.0
N279 N 0.45565 0.96714 0.64158 0.0
C280 C 0.52486 0.00631 0.48621 0.0
C281 C 0.48056 0.97916 0.59289 0.0
N282 N 0.52664 0.92517 0.44508 0.0
N283 N 0.50452 0.05356 0.64965 0.0
H284 H 0.44393 0.93315 0.64533 0.0
H285 H 0.44476 0.99135 0.67685 0.0
H286 H 0.52057 0.08644 0.65295 0.0
H287 H 0.49593 0.04347 0.6934 0.0
H288 H 0.54958 0.93189 0.41116 0.0
H289 H 0.51914 0.88975 0.44531 0.0
H290 H 0.53875 0.00039 0.38858 0.0
H291 H 0.55035 0.05562 0.42776 0.0
C292 C 0.0237 0.47713 0.58537 0.0
C293 C 0.0425 0.50564 0.54186 0.0
C294 C 0.96617 0.50672 0.48025 0.0
C295 C 0.94726 0.47823 0.52372 0.0
N296 N 0.95428 0.44602 0.62558 0.0
N297 N 0.03573 0.53668 0.43927 0.0
C298 C 0.97513 0.4657 0.57821 0.0
C299 C 0.01477 0.51766 0.48707 0.0
N300 N 0.05235 0.4598 0.63246 0.0
N301 N 0.93759 0.52482 0.43375 0.0
H302 H 0.07162 0.54336 0.44119 0.0
H303 H 0.01879 0.54116 0.39481 0.0
H304 H 0.90181 0.51822 0.42692 0.0
H305 H 0.94833 0.55013 0.40553 0.0
H306 H 0.04193 0.43455 0.66096 0.0
H307 H 0.08798 0.46722 0.63974 0.0
H308 H 0.9712 0.44104 0.66987 0.0
H309 H 0.91845 0.439 0.62353 0.0
C310 C 0.46597 0.96152 0.06784 0.0
C311 C 0.50303 0.94395 0.0322 0.0
C312 C 0.50671 0.01805 0.98232 0.0
C313 C 0.47159 0.03638 0.02104 0.0
N314 N 0.42628 0.02974 0.11134 0.0
N315 N 0.5515 0.95077 0.94532 0.0
C316 C 0.45321 0.00915 0.0663 0.0
C317 C 0.52179 0.97113 0.98698 0.0
N318 N 0.44185 0.93264 0.10194 0.0
N319 N 0.52629 0.04583 0.94201 0.0
H320 H 0.56199 0.91603 0.94538 0.0
H321 H 0.56284 0.96643 0.90672 0.0
H322 H 0.51433 0.07914 0.9339 0.0
H323 H 0.55607 0.03728 0.91867 0.0
H324 H 0.41108 0.94228 0.12241 0.0
H325 H 0.44933 0.89745 0.10461 0.0
H326 H 0.41699 0.01331 0.15054 0.0
H327 H 0.41736 0.065 0.11401 0.0
C328 C 0.29919 0.33021 0.09471 0.0
C329 C 0.2748 0.34322 0.03792 0.0
C330 C 0.31891 0.28654 0.97367 0.0
C331 C 0.34338 0.27353 0.03038 0.0
N332 N 0.36348 0.28732 0.14344 0.0
N333 N 0.26746 0.34212 0.92353 0.0
C334 C 0.33579 0.29701 0.0905 0.0
C335 C 0.28647 0.32382 0.97734 0.0
N336 N 0.28578 0.34796 0.15258 0.0
N337 N 0.32615 0.26261 0.9165 0.0
H338 H 0.24378 0.36968 0.92475 0.0
H339 H 0.27788 0.3329 0.87814 0.0
H340 H 0.35161 0.23693 0.91149 0.0
H341 H 0.30552 0.2664 0.87447 0.0
H342 H 0.29837 0.33613 0.19581 0.0
H343 H 0.25964 0.37293 0.15749 0.0
H344 H 0.36334 0.30663 0.18744 0.0
H345 H 0.38915 0.26166 0.14255 0.0
C346 C 0.70685 0.33036 0.5763 0.0
C347 C 0.71221 0.34461 0.51462 0.0
C348 C 0.64924 0.29134 0.46858 0.0
C349 C 0.64381 0.27709 0.53025 0.0
N350 N 0.66009 0.2884 0.64403 0.0
N351 N 0.68343 0.34672 0.40467 0.0
C352 C 0.67045 0.2983 0.58458 0.0
C353 C 0.68156 0.3278 0.46158 0.0
N354 N 0.73713 0.34698 0.62663 0.0
N355 N 0.62528 0.26832 0.41642 0.0
H356 H 0.70772 0.37247 0.39747 0.0
H357 H 0.65884 0.33964 0.366 0.0
H358 H 0.60113 0.24163 0.41965 0.0
H359 H 0.63142 0.27333 0.36965 0.0
H360 H 0.73884 0.33403 0.6712 0.0
H361 H 0.76241 0.37263 0.6232 0.0
H362 H 0.67486 0.30591 0.68609 0.0
H363 H 0.63373 0.26482 0.65142 0.0
C364 C 0.70872 0.67739 0.97739 0.0
C365 C 0.71842 0.64919 0.02862 0.0
C366 C 0.6597 0.69085 0.08946 0.0
C367 C 0.64932 0.71823 0.03756 0.0
N368 N 0.6566 0.73274 0.9282 0.0
N369 N 0.70044 0.62405 0.12981 0.0
C370 C 0.67179 0.71017 0.98035 0.0
C371 C 0.69287 0.65426 0.08353 0.0
N372 N 0.73532 0.67321 0.92634 0.0
N373 N 0.639 0.70104 0.14505 0.0
H374 H 0.72621 0.59848 0.12856 0.0
H375 H 0.67966 0.62231 0.16766 0.0
H376 H 0.61383 0.72698 0.15042 0.0
H377 H 0.64844 0.6859 0.18711 0.0
H378 H 0.73397 0.69647 0.89116 0.0
H379 H 0.76093 0.64776 0.9207 0.0
H380 H 0.66789 0.72482 0.88299 0.0
H381 H 0.62971 0.75716 0.92871 0.0
C382 C 0.32156 0.7154 0.60327 0.0
C383 C 0.33845 0.71932 0.5427 0.0
C384 C 0.29153 0.65108 0.49764 0.0
C385 C 0.2714 0.64993 0.55672 0.0
N386 N 0.2639 0.68206 0.66458 0.0
N387 N 0.33865 0.69382 0.43114 0.0
C388 C 0.28552 0.68239 0.60927 0.0
C389 C 0.32358 0.68763 0.48964 0.0
N390 N 0.3413 0.74208 0.65547 0.0
N391 N 0.27968 0.61735 0.44918 0.0
H392 H 0.36264 0.71982 0.42386 0.0
H393 H 0.32556 0.67526 0.38894 0.0
H394 H 0.25413 0.59189 0.45188 0.0
H395 H 0.29675 0.61275 0.40753 0.0
H396 H 0.33427 0.73748 0.70204 0.0
H397 H 0.36786 0.76659 0.65293 0.0
H398 H 0.26832 0.70826 0.70189 0.0
H399 H 0.23924 0.65673 0.672 0.0
loop_
_geom_bond_atom_site_label_1
_geom_bond_atom_site_label_2
_geom_bond_distance
_geom_bond_site_symmetry_2
_ccdc_geom_bond_type
C0 O2 1.247 . S
C0 O4 1.258 . S
C1 O8 1.247 . S
C1 O9 1.258 . S
O2 C0 1.247 . S
O2 Zn3 2.028 . S
Zn3 O2 2.028 . S
Zn3 O7 2.044 . S
Zn3 O9 2.036 . S
Zn3 O10 2.019 1_554 S
O4 C0 1.258 . S
O4 Zn5 2.035 . S
Zn5 O4 2.035 . S
Zn5 O6 2.028 . S
Zn5 O8 2.028 . S
Zn5 O11 2.035 1_554 S
O6 Zn5 2.028 . S
O6 C12 1.247 . S
O7 Zn3 2.044 . S
O7 C12 1.258 . S
O8 C1 1.247 . S
O8 Zn5 2.028 . S
O9 C1 1.258 . S
O9 Zn3 2.036 . S
O10 Zn3 2.019 1_556 S
O10 C13 1.247 . S
O11 Zn5 2.035 1_556 S
O11 C13 1.258 . S
C12 O6 1.247 . S
C12 O7 1.258 . S
C13 O10 1.247 . S
C13 O11 1.258 . S
C14 O16 1.247 . S
C14 O18 1.258 . S
C15 O22 1.247 . S
C15 O23 1.258 . S
O16 C14 1.247 . S
O16 Zn17 2.028 . S
Zn17 O16 2.028 . S
Zn17 O21 2.035 . S
Zn17 O23 2.035 . S
Zn17 O24 2.028 . S
O18 C14 1.258 . S
O18 Zn19 2.035 . S
Zn19 O18 2.035 . S
Zn19 O20 2.028 . S
Zn19 O22 2.028 . S
Zn19 O25 2.035 . S
O20 Zn19 2.028 . S
O20 C26 1.247 . S
O21 Zn17 2.035 . S
O21 C26 1.258 . S
O22 C15 1.247 . S
O22 Zn19 2.028 . S
O23 C15 1.258 . S
O23 Zn17 2.035 . S
O24 Zn17 2.028 . S
O24 C27 1.247 . S
O25 Zn19 2.035 . S
O25 C27 1.258 . S
C26 O20 1.247 . S
C26 O21 1.258 . S
C27 O24 1.247 . S
C27 O25 1.258 . S
C28 O30 1.247 . S
C28 O32 1.258 . S
C29 O36 1.247 . S
C29 O37 1.258 . S
O30 C28 1.247 . S
O30 Zn31 2.028 . S
Zn31 O30 2.028 . S
Zn31 O35 2.035 . S
Zn31 O37 2.035 . S
Zn31 O38 2.028 1_554 S
O32 C28 1.258 . S
O32 Zn33 2.035 . S
Zn33 O32 2.035 . S
Zn33 O34 2.028 . S
Zn33 O36 2.028 . S
Zn33 O39 2.035 1_554 S
O34 Zn33 2.028 . S
O34 C40 1.247 . S
O35 Zn31 2.035 . S
O35 C40 1.258 . S
O36 C29 1.247 . S
O36 Zn33 2.028 . S
O37 C29 1.258 . S
O37 Zn31 2.035 . S
O38 Zn31 2.028 1_556 S
O38 C41 1.247 . S
O39 Zn33 2.035 1_556 S
O39 C41 1.258 . S
C40 O34 1.247 . S
C40 O35 1.258 . S
C41 O38 1.247 . S
C41 O39 1.258 . S
C42 O44 1.247 . S
C42 O46 1.258 . S
C43 O50 1.247 . S
C43 O51 1.258 . S
O44 C42 1.247 . S
O44 Zn45 2.028 . S
Zn45 O44 2.028 . S
Zn45 O49 2.035 . S
Zn45 O51 2.035 . S
Zn45 O52 2.028 . S
O46 C42 1.258 . S
O46 Zn47 2.035 . S
Zn47 O46 2.035 . S
Zn47 O48 2.028 . S
Zn47 O50 2.028 . S
Zn47 O53 2.035 . S
O48 Zn47 2.028 . S
O48 C54 1.247 . S
O49 Zn45 2.035 . S
O49 C54 1.258 . S
O50 C43 1.247 . S
O50 Zn47 2.028 . S
O51 C43 1.258 . S
O51 Zn45 2.035 . S
O52 Zn45 2.028 . S
O52 C55 1.247 . S
O53 Zn47 2.035 . S
O53 C55 1.258 . S
C54 O48 1.247 . S
C54 O49 1.258 . S
C55 O52 1.247 . S
C55 O53 1.258 . S
C56 O58 1.247 . S
C56 O60 1.258 . S
C57 O64 1.247 . S
C57 O65 1.258 . S
O58 C56 1.247 . S
O58 Zn59 2.028 . S
Zn59 O58 2.028 . S
Zn59 O63 2.035 . S
Zn59 O65 2.035 . S
Zn59 O66 2.028 . S
O60 C56 1.258 . S
O60 Zn61 2.035 . S
Zn61 O60 2.035 . S
Zn61 O62 2.028 . S
Zn61 O64 2.028 . S
Zn61 O67 2.035 . S
O62 Zn61 2.028 . S
O62 C68 1.247 . S
O63 Zn59 2.035 . S
O63 C68 1.258 . S
O64 C57 1.247 . S
O64 Zn61 2.028 . S
O65 C57 1.258 . S
O65 Zn59 2.035 . S
O66 Zn59 2.028 . S
O66 C69 1.247 . S
O67 Zn61 2.035 . S
O67 C69 1.258 . S
C68 O62 1.247 . S
C68 O63 1.258 . S
C69 O66 1.247 . S
C69 O67 1.258 . S
C70 O72 1.247 . S
C70 O74 1.258 . S
C71 O78 1.247 . S
C71 O79 1.258 . S
O72 C70 1.247 . S
O72 Zn73 2.028 . S
Zn73 O72 2.028 . S
Zn73 O77 2.035 . S
Zn73 O79 2.035 . S
Zn73 O80 2.028 1_554 S
O74 C70 1.258 . S
O74 Zn75 2.035 . S
Zn75 O74 2.035 . S
Zn75 O76 2.028 . S
Zn75 O78 2.028 . S
Zn75 O81 2.035 1_554 S
O76 Zn75 2.028 . S
O76 C82 1.247 . S
O77 Zn73 2.035 . S
O77 C82 1.258 . S
O78 C71 1.247 . S
O78 Zn75 2.028 . S
O79 C71 1.258 . S
O79 Zn73 2.035 . S
O80 Zn73 2.028 1_556 S
O80 C83 1.247 . S
O81 Zn75 2.035 1_556 S
O81 C83 1.258 . S
C82 O76 1.247 . S
C82 O77 1.258 . S
C83 O80 1.247 . S
C83 O81 1.258 . S
C84 O86 1.247 . S
C84 O88 1.258 . S
C85 O92 1.247 . S
C85 O93 1.258 . S
O86 C84 1.247 . S
O86 Zn87 2.028 . S
Zn87 O86 2.028 . S
Zn87 O91 2.035 . S
Zn87 O93 2.035 . S
Zn87 O94 2.028 . S
O88 C84 1.258 . S
O88 Zn89 2.035 . S
Zn89 O88 2.035 . S
Zn89 O90 2.028 . S
Zn89 O92 2.028 . S
Zn89 O95 2.035 . S
O90 Zn89 2.028 . S
O90 C96 1.247 . S
O91 Zn87 2.035 . S
O91 C96 1.258 . S
O92 C85 1.247 . S
O92 Zn89 2.028 . S
O93 C85 1.258 . S
O93 Zn87 2.035 . S
O94 Zn87 2.028 . S
O94 C97 1.247 . S
O95 Zn89 2.035 . S
O95 C97 1.258 . S
C96 O90 1.247 . S
C96 O91 1.258 . S
C97 O94 1.247 . S
C97 O95 1.258 . S
C98 O100 1.247 . S
C98 O102 1.258 . S
C99 O106 1.247 . S
C99 O107 1.258 . S
O100 C98 1.247 . S
O100 Zn101 2.028 . S
Zn101 O100 2.028 . S
Zn101 O105 2.035 1_554 S
Zn101 O107 2.035 . S
Zn101 O108 2.028 . S
O102 C98 1.258 . S
O102 Zn103 2.035 . S
Zn103 O102 2.035 . S
Zn103 O104 2.028 1_554 S
Zn103 O106 2.028 . S
Zn103 O109 2.035 . S
O104 Zn103 2.028 1_556 S
O104 C110 1.247 . S
O105 Zn101 2.035 1_556 S
O105 C110 1.258 . S
O106 C99 1.247 . S
O106 Zn103 2.028 . S
O107 C99 1.258 . S
O107 Zn101 2.035 . S
O108 Zn101 2.028 . S
O108 C111 1.247 . S
O109 Zn103 2.035 . S
O109 C111 1.258 . S
C110 O104 1.247 . S
C110 O105 1.258 . S
C111 O108 1.247 . S
C111 O109 1.258 . S
C112 C113 1.363 . S
C112 C118 1.379 . S
C112 N120 1.356 . S
C113 C112 1.363 . S
C113 C119 1.363 . S
C114 C115 1.363 . S
C114 C119 1.379 . S
C114 N121 1.356 . S
C115 C114 1.363 . S
C115 C118 1.363 . S
N116 C118 1.356 . S
N116 H128 0.984 . S
N116 H129 0.985 . S
N117 C119 1.356 . S
N117 H122 0.984 . S
N117 H123 0.985 . S
C118 C112 1.379 . S
C118 C115 1.363 . S
C118 N116 1.356 . S
C119 C113 1.363 . S
C119 C114 1.379 . S
C119 N117 1.356 . S
N120 C112 1.356 . S
N120 H126 0.984 . S
N120 H127 0.984 . S
N121 C114 1.356 . S
N121 H124 0.984 . S
N121 H125 0.985 . S
H122 N117 0.984 . S
H123 N117 0.985 . S
H124 N121 0.984 . S
H125 N121 0.985 . S
H126 N120 0.984 . S
H127 N120 0.984 . S
H128 N116 0.984 . S
H129 N116 0.985 . S
C130 C131 1.363 . S
C130 C136 1.379 . S
C130 N138 1.356 . S
C131 C130 1.363 . S
C131 C137 1.363 . S
C132 C133 1.363 . S
C132 C137 1.379 . S
C132 N139 1.356 . S
C133 C132 1.363 . S
C133 C136 1.363 . S
N134 C136 1.356 . S
N134 H146 0.984 . S
N134 H147 0.985 . S
N135 C137 1.356 . S
N135 H140 0.984 . S
N135 H141 0.985 . S
C136 C130 1.379 . S
C136 C133 1.363 . S
C136 N134 1.356 . S
C137 C131 1.363 . S
C137 C132 1.379 . S
C137 N135 1.356 . S
N138 C130 1.356 . S
N138 H144 0.984 . S
N138 H145 0.984 . S
N139 C132 1.356 . S
N139 H142 0.984 . S
N139 H143 0.985 . S
H140 N135 0.984 . S
H141 N135 0.985 . S
H142 N139 0.984 . S
H143 N139 0.985 . S
H144 N138 0.984 . S
H145 N138 0.984 . S
H146 N134 0.984 . S
H147 N134 0.985 . S
C148 C149 1.363 . S
C148 C154 1.379 . S
C148 N156 1.356 . S
C149 C148 1.363 . S
C149 C155 1.363 . S
C150 C151 1.363 . S
C150 C155 1.379 . S
C150 N157 1.356 . S
C151 C150 1.363 . S
C151 C154 1.363 . S
N152 C154 1.356 . S
N152 H164 0.984 . S
N152 H165 0.985 . S
N153 C155 1.356 . S
N153 H158 0.984 . S
N153 H159 0.985 . S
C154 C148 1.379 . S
C154 C151 1.363 . S
C154 N152 1.356 . S
C155 C149 1.363 . S
C155 C150 1.379 . S
C155 N153 1.356 . S
N156 C148 1.356 . S
N156 H162 0.984 . S
N156 H163 0.984 . S
N157 C150 1.356 . S
N157 H160 0.984 . S
N157 H161 0.985 . S
H158 N153 0.984 . S
H159 N153 0.985 . S
H160 N157 0.984 . S
H161 N157 0.985 . S
H162 N156 0.984 . S
H163 N156 0.984 . S
H164 N152 0.984 . S
H165 N152 0.985 . S
C166 C167 1.363 . S
C166 C172 1.379 . S
C166 N174 1.356 . S
C167 C166 1.363 . S
C167 C173 1.363 . S
C168 C169 1.363 . S
C168 C173 1.379 . S
C168 N175 1.356 . S
C169 C168 1.363 . S
C169 C172 1.363 . S
N170 C172 1.356 . S
N170 H182 0.984 . S
N170 H183 0.985 . S
N171 C173 1.356 . S
N171 H176 0.984 . S
N171 H177 0.985 . S
C172 C166 1.379 . S
C172 C169 1.363 . S
C172 N170 1.356 . S
C173 C167 1.363 . S
C173 C168 1.379 . S
C173 N171 1.356 . S
N174 C166 1.356 . S
N174 H180 0.984 . S
N174 H181 0.984 . S
N175 C168 1.356 . S
N175 H178 0.984 . S
N175 H179 0.985 . S
H176 N171 0.984 . S
H177 N171 0.985 . S
H178 N175 0.984 . S
H179 N175 0.985 . S
H180 N174 0.984 . S
H181 N174 0.984 . S
H182 N170 0.984 . S
H183 N170 0.985 . S
C184 C185 1.363 . S
C184 C190 1.379 . S
C184 N192 1.356 . S
C185 C184 1.363 . S
C185 C191 1.363 . S
C186 C187 1.363 . S
C186 C191 1.379 . S
C186 N193 1.356 . S
C187 C186 1.363 . S
C187 C190 1.363 . S
N188 C190 1.356 . S
N188 H200 0.984 . S
N188 H201 0.985 . S
N189 C191 1.356 . S
N189 H194 0.984 . S
N189 H195 0.985 . S
C190 C184 1.379 . S
C190 C187 1.363 . S
C190 N188 1.356 . S
C191 C185 1.363 . S
C191 C186 1.379 . S
C191 N189 1.356 . S
N192 C184 1.356 . S
N192 H198 0.984 . S
N192 H199 0.984 . S
N193 C186 1.356 . S
N193 H196 0.984 . S
N193 H197 0.985 . S
H194 N189 0.984 . S
H195 N189 0.985 . S
H196 N193 0.984 . S
H197 N193 0.985 . S
H198 N192 0.984 . S
H199 N192 0.984 . S
H200 N188 0.984 . S
H201 N188 0.985 . S
C202 C203 1.363 . S
C202 C208 1.379 . S
C202 N210 1.356 . S
C203 C202 1.363 . S
C203 C209 1.363 . S
C204 C205 1.363 . S
C204 C209 1.379 . S
C204 N211 1.356 . S
C205 C204 1.363 . S
C205 C208 1.363 . S
N206 C208 1.356 . S
N206 H218 0.984 . S
N206 H219 0.985 . S
N207 C209 1.356 . S
N207 H212 0.984 . S
N207 H213 0.985 . S
C208 C202 1.379 . S
C208 C205 1.363 . S
C208 N206 1.356 . S
C209 C203 1.363 . S
C209 C204 1.379 . S
C209 N207 1.356 . S
N210 C202 1.356 . S
N210 H216 0.984 . S
N210 H217 0.984 . S
N211 C204 1.356 . S
N211 H214 0.984 . S
N211 H215 0.985 . S
H212 N207 0.984 . S
H213 N207 0.985 . S
H214 N211 0.984 . S
H215 N211 0.985 . S
H216 N210 0.984 . S
H217 N210 0.984 . S
H218 N206 0.984 . S
H219 N206 0.985 . S
C220 C221 1.363 . S
C220 C226 1.379 . S
C220 N228 1.356 . S
C221 C220 1.363 . S
C221 C227 1.363 . S
C222 C223 1.363 . S
C222 C227 1.379 . S
C222 N229 1.356 . S
C223 C222 1.363 . S
C223 C226 1.363 . S
N224 C226 1.356 . S
N224 H236 0.984 . S
N224 H237 0.985 . S
N225 C227 1.356 . S
N225 H230 0.984 . S
N225 H231 0.985 . S
C226 C220 1.379 . S
C226 C223 1.363 . S
C226 N224 1.356 . S
C227 C221 1.363 . S
C227 C222 1.379 . S
C227 N225 1.356 . S
N228 C220 1.356 . S
N228 H234 0.984 . S
N228 H235 0.984 . S
N229 C222 1.356 . S
N229 H232 0.984 . S
N229 H233 0.985 . S
H230 N225 0.984 . S
H231 N225 0.985 . S
H232 N229 0.984 . S
H233 N229 0.985 . S
H234 N228 0.984 . S
H235 N228 0.984 . S
H236 N224 0.984 . S
H237 N224 0.985 . S
C238 C239 1.363 . S
C238 C244 1.379 . S
C238 N246 1.356 . S
C239 C238 1.363 . S
C239 C245 1.363 . S
C240 C241 1.363 . S
C240 C245 1.379 . S
C240 N247 1.356 . S
C241 C240 1.363 . S
C241 C244 1.363 . S
N242 C244 1.356 . S
N242 H254 0.984 . S
N242 H255 0.985 . S
N243 C245 1.356 . S
N243 H248 0.984 . S
N243 H249 0.985 . S
C244 C238 1.379 . S
C244 C241 1.363 . S
C244 N242 1.356 . S
C245 C239 1.363 . S
C245 C240 1.379 . S
C245 N243 1.356 . S
N246 C238 1.356 . S
N246 H252 0.984 . S
N246 H253 0.984 . S
N247 C240 1.356 . S
N247 H250 0.984 . S
N247 H251 0.985 . S
H248 N243 0.984 . S
H249 N243 0.985 . S
H250 N247 0.984 . S
H251 N247 0.985 . S
H252 N246 0.984 . S
H253 N246 0.984 . S
H254 N242 0.984 . S
H255 N242 0.985 . S
C256 C257 1.363 . S
C256 C262 1.379 1_655 S
C256 N264 1.356 . S
C257 C256 1.363 . S
C257 C263 1.363 1_554 S
C258 C259 1.363 1_556 S
C258 C263 1.379 1_455 S
C258 N265 1.356 . S
C259 C258 1.363 1_554 S
C259 C262 1.363 . S
N260 C262 1.356 . S
N260 H272 0.984 . S
N260 H273 0.985 . S
N261 C263 1.356 . S
N261 H266 0.984 . S
N261 H267 0.985 . S
C262 C256 1.379 1_455 S
C262 C259 1.363 . S
C262 N260 1.356 . S
C263 C257 1.363 1_556 S
C263 C258 1.379 1_655 S
C263 N261 1.356 . S
N264 C256 1.356 . S
N264 H270 0.984 . S
N264 H271 0.984 . S
N265 C258 1.356 . S
N265 H268 0.984 . S
N265 H269 0.985 . S
H266 N261 0.984 . S
H267 N261 0.985 . S
H268 N265 0.984 . S
H269 N265 0.985 . S
H270 N264 0.984 . S
H271 N264 0.984 . S
H272 N260 0.984 . S
H273 N260 0.985 . S
C274 C275 1.363 . S
C274 C280 1.379 1_565 S
C274 N282 1.356 . S
C275 C274 1.363 . S
C275 C281 1.363 . S
C276 C277 1.363 . S
C276 C281 1.379 1_545 S
C276 N283 1.356 . S
C277 C276 1.363 . S
C277 C280 1.363 . S
N278 C280 1.356 . S
N278 H290 0.984 . S
N278 H291 0.985 . S
N279 C281 1.356 . S
N279 H284 0.984 . S
N279 H285 0.985 . S
C280 C274 1.379 1_545 S
C280 C277 1.363 . S
C280 N278 1.356 . S
C281 C275 1.363 . S
C281 C276 1.379 1_565 S
C281 N279 1.356 . S
N282 C274 1.356 . S
N282 H288 0.984 . S
N282 H289 0.984 . S
N283 C276 1.356 . S
N283 H286 0.984 . S
N283 H287 0.985 . S
H284 N279 0.984 . S
H285 N279 0.985 . S
H286 N283 0.984 . S
H287 N283 0.985 . S
H288 N282 0.984 . S
H289 N282 0.984 . S
H290 N278 0.984 . S
H291 N278 0.985 . S
C292 C293 1.363 . S
C292 C298 1.379 1_455 S
C292 N300 1.356 . S
C293 C292 1.363 . S
C293 C299 1.363 . S
C294 C295 1.363 . S
C294 C299 1.379 1_655 S
C294 N301 1.356 . S
C295 C294 1.363 . S
C295 C298 1.363 . S
N296 C298 1.356 . S
N296 H308 0.984 . S
N296 H309 0.985 . S
N297 C299 1.356 . S
N297 H302 0.984 . S
N297 H303 0.985 . S
C298 C292 1.379 1_655 S
C298 C295 1.363 . S
C298 N296 1.356 . S
C299 C293 1.363 . S
C299 C294 1.379 1_455 S
C299 N297 1.356 . S
N300 C292 1.356 . S
N300 H306 0.984 . S
N300 H307 0.984 . S
N301 C294 1.356 . S
N301 H304 0.984 . S
N301 H305 0.985 . S
H302 N297 0.984 . S
H303 N297 0.985 . S
H304 N301 0.984 . S
H305 N301 0.985 . S
H306 N300 0.984 . S
H307 N300 0.984 . S
H308 N296 0.984 . S
H309 N296 0.985 . S
C310 C311 1.363 . S
C310 C316 1.379 1_565 S
C310 N318 1.356 . S
C311 C310 1.363 . S
C311 C317 1.363 1_554 S
C312 C313 1.363 1_556 S
C312 C317 1.379 1_545 S
C312 N319 1.356 . S
C313 C312 1.363 1_554 S
C313 C316 1.363 . S
N314 C316 1.356 . S
N314 H326 0.984 . S
N314 H327 0.985 . S
N315 C317 1.356 . S
N315 H320 0.984 . S
N315 H321 0.985 . S
C316 C310 1.379 1_545 S
C316 C313 1.363 . S
C316 N314 1.356 . S
C317 C311 1.363 1_556 S
C317 C312 1.379 1_565 S
C317 N315 1.356 . S
N318 C310 1.356 . S
N318 H324 0.984 . S
N318 H325 0.984 . S
N319 C312 1.356 . S
N319 H322 0.984 . S
N319 H323 0.985 . S
H320 N315 0.984 . S
H321 N315 0.985 . S
H322 N319 0.984 . S
H323 N319 0.985 . S
H324 N318 0.984 . S
H325 N318 0.984 . S
H326 N314 0.984 . S
H327 N314 0.985 . S
C328 C329 1.363 . S
C328 C334 1.379 . S
C328 N336 1.356 . S
C329 C328 1.363 . S
C329 C335 1.363 1_554 S
C330 C331 1.363 1_556 S
C330 C335 1.379 . S
C330 N337 1.356 . S
C331 C330 1.363 1_554 S
C331 C334 1.363 . S
N332 C334 1.356 . S
N332 H344 0.984 . S
N332 H345 0.985 . S
N333 C335 1.356 . S
N333 H338 0.984 . S
N333 H339 0.985 . S
C334 C328 1.379 . S
C334 C331 1.363 . S
C334 N332 1.356 . S
C335 C329 1.363 1_556 S
C335 C330 1.379 . S
C335 N333 1.356 . S
N336 C328 1.356 . S
N336 H342 0.984 . S
N336 H343 0.984 . S
N337 C330 1.356 . S
N337 H340 0.984 . S
N337 H341 0.985 . S
H338 N333 0.984 . S
H339 N333 0.985 . S
H340 N337 0.984 . S
H341 N337 0.985 . S
H342 N336 0.984 . S
H343 N336 0.984 . S
H344 N332 0.984 . S
H345 N332 0.985 . S
C346 C347 1.363 . S
C346 C352 1.379 . S
C346 N354 1.356 . S
C347 C346 1.363 . S
C347 C353 1.363 . S
C348 C349 1.363 . S
C348 C353 1.379 . S
C348 N355 1.356 . S
C349 C348 1.363 . S
C349 C352 1.363 . S
N350 C352 1.356 . S
N350 H362 0.984 . S
N350 H363 0.985 . S
N351 C353 1.356 . S
N351 H356 0.984 . S
N351 H357 0.985 . S
C352 C346 1.379 . S
C352 C349 1.363 . S
C352 N350 1.356 . S
C353 C347 1.363 . S
C353 C348 1.379 . S
C353 N351 1.356 . S
N354 C346 1.356 . S
N354 H360 0.984 . S
N354 H361 0.984 . S
N355 C348 1.356 . S
N355 H358 0.984 . S
N355 H359 0.985 . S
H356 N351 0.984 . S
H357 N351 0.985 . S
H358 N355 0.984 . S
H359 N355 0.985 . S
H360 N354 0.984 . S
H361 N354 0.984 . S
H362 N350 0.984 . S
H363 N350 0.985 . S
C364 C365 1.363 1_556 S
C364 C370 1.379 . S
C364 N372 1.356 . S
C365 C364 1.363 1_554 S
C365 C371 1.363 . S
C366 C367 1.363 . S
C366 C371 1.379 . S
C366 N373 1.356 . S
C367 C366 1.363 . S
C367 C370 1.363 1_554 S
N368 C370 1.356 . S
N368 H380 0.984 . S
N368 H381 0.985 . S
N369 C371 1.356 . S
N369 H374 0.984 . S
N369 H375 0.985 . S
C370 C364 1.379 . S
C370 C367 1.363 1_556 S
C370 N368 1.356 . S
C371 C365 1.363 . S
C371 C366 1.379 . S
C371 N369 1.356 . S
N372 C364 1.356 . S
N372 H378 0.984 . S
N372 H379 0.984 . S
N373 C366 1.356 . S
N373 H376 0.984 . S
N373 H377 0.985 . S
H374 N369 0.984 . S
H375 N369 0.985 . S
H376 N373 0.984 . S
H377 N373 0.985 . S
H378 N372 0.984 . S
H379 N372 0.984 . S
H380 N368 0.984 . S
H381 N368 0.985 . S
C382 C383 1.363 . S
C382 C388 1.379 . S
C382 N390 1.356 . S
C383 C382 1.363 . S
C383 C389 1.363 . S
C384 C385 1.363 . S
C384 C389 1.379 . S
C384 N391 1.356 . S
C385 C384 1.363 . S
C385 C388 1.363 . S
N386 C388 1.356 . S
N386 H398 0.984 . S
N386 H399 0.985 . S
N387 C389 1.356 . S
N387 H392 0.984 . S
N387 H393 0.985 . S
C388 C382 1.379 . S
C388 C385 1.363 . S
C388 N386 1.356 . S
C389 C383 1.363 . S
C389 C384 1.379 . S
C389 N387 1.356 . S
N390 C382 1.356 . S
N390 H396 0.984 . S
N390 H397 0.984 . S
N391 C384 1.356 . S
N391 H394 0.984 . S
N391 H395 0.985 . S
H392 N387 0.984 . S
H393 N387 0.985 . S
H394 N391 0.984 . S
H395 N391 0.985 . S
H396 N390 0.984 . S
H397 N390 0.984 . S
H398 N386 0.984 . S
H399 N386 0.985 . S
C113 C12 1.543 . S
C115 C56 1.537 . S
C131 C15 1.561 . S
C133 C83 1.548 . S
C149 C85 1.561 . S
C151 C40 1.549 . S
C167 C110 1.543 . S
C169 C43 1.536 . S
C185 C84 1.536 . S
C187 C41 1.543 . S
C203 C111 1.549 . S
C205 C42 1.561 . S
C221 C13 1.549 . S
C223 C57 1.560 . S
C239 C14 1.536 . S
C241 C82 1.544 . S
C257 C28 1.955 . S
C259 C1 1.955 . S
C275 C55 1.951 . S
C277 C26 1.951 . S
C293 C68 1.956 . S
C295 C96 1.951 . S
C311 C99 1.955 . S
C313 C71 1.951 . S
C329 C0 1.845 . S
C331 C70 1.847 . S
C347 C97 1.841 . S
C349 C27 1.841 . S
C365 C29 1.845 . S
C367 C98 1.845 . S
C383 C54 1.841 . S
C385 C69 1.839 . S
