# Generated by pormake.
# Topology xfz, (5)-cn, num edge types: 1
# Building blocks:
#     Node 0, Type 0, BuildingBlock: XOMCOT_clean_sbu_1, # of connection points: 5
#     Node 1, Type 0, BuildingBlock: XOMCOT_clean_sbu_1, # of connection points: 5
#     Node 2, Type 0, BuildingBlock: XOMCOT_clean_sbu_1, # of connection points: 5
#     Node 3, Type 0, BuildingBlock: XOMCOT_clean_sbu_1, # of connection points: 5
#     Node 4, Type 0, BuildingBlock: XOMCOT_clean_sbu_1, # of connection points: 5
#     Node 5, Type 0, BuildingBlock: XOMCOT_clean_sbu_1, # of connection points: 5
#     Node 6, Type 0, BuildingBlock: XOMCOT_clean_sbu_1, # of connection points: 5
#     Node 7, Type 0, BuildingBlock: XOMCOT_clean_sbu_1, # of connection points: 5
#     Node 8, Type 0, BuildingBlock: XOMCOT_clean_sbu_1, # of connection points: 5
#     Node 9, Type 0, BuildingBlock: XOMCOT_clean_sbu_1, # of connection points: 5
#     Node 10, Type 0, BuildingBlock: XOMCOT_clean_sbu_1, # of connection points: 5
#     Node 11, Type 0, BuildingBlock: XOMCOT_clean_sbu_1, # of connection points: 5
#     Node 12, Type 0, BuildingBlock: XOMCOT_clean_sbu_1, # of connection points: 5
#     Node 13, Type 0, BuildingBlock: XOMCOT_clean_sbu_1, # of connection points: 5
#     Node 14, Type 0, BuildingBlock: XOMCOT_clean_sbu_1, # of connection points: 5
#     Node 15, Type 0, BuildingBlock: XOMCOT_clean_sbu_1, # of connection points: 5
#     Edge 16, Type (0, 0), BuildingBlock: AJUNOK_clean_linker_0, # of connection points: 2
#     Edge 17, Type (0, 0), BuildingBlock: AJUNOK_clean_linker_0, # of connection points: 2
#     Edge 18, Type (0, 0), BuildingBlock: AJUNOK_clean_linker_0, # of connection points: 2
#     Edge 19, Type (0, 0), BuildingBlock: AJUNOK_clean_linker_0, # of connection points: 2
#     Edge 20, Type (0, 0), BuildingBlock: AJUNOK_clean_linker_0, # of connection points: 2
#     Edge 21, Type (0, 0), BuildingBlock: AJUNOK_clean_linker_0, # of connection points: 2
#     Edge 22, Type (0, 0), BuildingBlock: AJUNOK_clean_linker_0, # of connection points: 2
#     Edge 23, Type (0, 0), BuildingBlock: AJUNOK_clean_linker_0, # of connection points: 2
#     Edge 24, Type (0, 0), BuildingBlock: AJUNOK_clean_linker_0, # of connection points: 2
#     Edge 25, Type (0, 0), BuildingBlock: AJUNOK_clean_linker_0, # of connection points: 2
#     Edge 26, Type (0, 0), BuildingBlock: AJUNOK_clean_linker_0, # of connection points: 2
#     Edge 27, Type (0, 0), BuildingBlock: AJUNOK_clean_linker_0, # of connection points: 2
#     Edge 28, Type (0, 0), BuildingBlock: AJUNOK_clean_linker_0, # of connection points: 2
#     Edge 29, Type (0, 0), BuildingBlock: AJUNOK_clean_linker_0, # of connection points: 2
#     Edge 30, Type (0, 0), BuildingBlock: AJUNOK_clean_linker_0, # of connection points: 2
#     Edge 31, Type (0, 0), BuildingBlock: AJUNOK_clean_linker_0, # of connection points: 2
#     Edge 32, Type (0, 0), BuildingBlock: AJUNOK_clean_linker_0, # of connection points: 2
#     Edge 33, Type (0, 0), BuildingBlock: AJUNOK_clean_linker_0, # of connection points: 2
#     Edge 34, Type (0, 0), BuildingBlock: AJUNOK_clean_linker_0, # of connection points: 2
#     Edge 35, Type (0, 0), BuildingBlock: AJUNOK_clean_linker_0, # of connection points: 2
#     Edge 36, Type (0, 0), BuildingBlock: AJUNOK_clean_linker_0, # of connection points: 2
#     Edge 37, Type (0, 0), BuildingBlock: AJUNOK_clean_linker_0, # of connection points: 2
#     Edge 38, Type (0, 0), BuildingBlock: AJUNOK_clean_linker_0, # of connection points: 2
#     Edge 39, Type (0, 0), BuildingBlock: AJUNOK_clean_linker_0, # of connection points: 2
#     Edge 40, Type (0, 0), BuildingBlock: AJUNOK_clean_linker_0, # of connection points: 2
#     Edge 41, Type (0, 0), BuildingBlock: AJUNOK_clean_linker_0, # of connection points: 2
#     Edge 42, Type (0, 0), BuildingBlock: AJUNOK_clean_linker_0, # of connection points: 2
#     Edge 43, Type (0, 0), BuildingBlock: AJUNOK_clean_linker_0, # of connection points: 2
#     Edge 44, Type (0, 0), BuildingBlock: AJUNOK_clean_linker_0, # of connection points: 2
#     Edge 45, Type (0, 0), BuildingBlock: AJUNOK_clean_linker_0, # of connection points: 2
#     Edge 46, Type (0, 0), BuildingBlock: AJUNOK_clean_linker_0, # of connection points: 2
#     Edge 47, Type (0, 0), BuildingBlock: AJUNOK_clean_linker_0, # of connection points: 2
#     Edge 48, Type (0, 0), BuildingBlock: AJUNOK_clean_linker_0, # of connection points: 2
#     Edge 49, Type (0, 0), BuildingBlock: AJUNOK_clean_linker_0, # of connection points: 2
#     Edge 50, Type (0, 0), BuildingBlock: AJUNOK_clean_linker_0, # of connection points: 2
#     Edge 51, Type (0, 0), BuildingBlock: AJUNOK_clean_linker_0, # of connection points: 2
#     Edge 52, Type (0, 0), BuildingBlock: AJUNOK_clean_linker_0, # of connection points: 2
#     Edge 53, Type (0, 0), BuildingBlock: AJUNOK_clean_linker_0, # of connection points: 2
#     Edge 54, Type (0, 0), BuildingBlock: AJUNOK_clean_linker_0, # of connection points: 2
#     Edge 55, Type (0, 0), BuildingBlock: AJUNOK_clean_linker_0, # of connection points: 2
# Relax obj value: 0.597
# Max RMSD: 0.324
# Mean RMSD: 0.324
data_MOF--net-xfz--node1-XOMCOT_clean_sbu_1--edge1-AJUNOK_clean_linker_0
_symmetry_space_group_name_H-M    P1
_symmetry_Int_Tables_number       1
_symmetry_cell_setting            triclinic
loop_
_symmetry_equiv_pos_as_xyz
'x, y, z'
_cell_length_a     28.021119
_cell_length_b     28.014989
_cell_length_c     48.116528
_cell_angle_alpha  90.017203
_cell_angle_beta   90.055175
_cell_angle_gamma 90.18799
loop_
_atom_site_label
_atom_site_type_symbol
_atom_site_fract_x
_atom_site_fract_y
_atom_site_fract_z
_atom_type_partial_charge
C0 C 0.25103 0.40603 0.30667 0.0
C1 C 0.2404 0.38463 0.28175 0.0
N2 N 0.193 0.38746 0.2779 0.0
N3 N 0.2105 0.42218 0.31849 0.0
C4 C 0.17556 0.41017 0.30044 0.0
H5 H 0.28645 0.41131 0.31501 0.0
Co6 Co 0.21007 0.45955 0.35038 0.0
C7 C 0.11167 0.46076 0.37316 0.0
O8 O 0.12806 0.45199 0.39821 0.0
N9 N 0.21155 0.49808 0.3828 0.0
C10 C 0.19638 0.55515 0.41384 0.0
C11 C 0.19123 0.54135 0.38659 0.0
C12 C 0.22931 0.48697 0.40818 0.0
N13 N 0.22047 0.52081 0.42735 0.0
O14 O 0.21643 0.4018 0.37185 0.0
H15 H 0.17145 0.56085 0.3711 0.0
H16 H 0.24707 0.45406 0.41317 0.0
O17 O 0.13982 0.45768 0.35232 0.0
C18 C 0.26079 0.39298 0.37487 0.0
O19 O 0.29191 0.42587 0.3676 0.0
N20 N 0.20788 0.5137 0.32751 0.0
C21 C 0.20986 0.56886 0.27973 0.0
C22 C 0.16715 0.56199 0.29414 0.0
C23 C 0.16678 0.53421 0.318 0.0
C24 C 0.25059 0.52417 0.3153 0.0
C25 C 0.25245 0.55178 0.29108 0.0
H26 H 0.1328 0.52779 0.3277 0.0
H27 H 0.28277 0.50743 0.32294 0.0
H28 H 0.13851 0.42008 0.30294 0.0
H29 H 0.26559 0.36923 0.26728 0.0
H30 H 0.18113 0.58671 0.42324 0.0
H31 H 0.13379 0.57585 0.28612 0.0
H32 H 0.2861 0.557 0.28044 0.0
C33 C 0.40226 0.79231 0.6572 0.0
C34 C 0.37209 0.80505 0.67834 0.0
N35 N 0.37306 0.8529 0.68068 0.0
N36 N 0.42249 0.83181 0.64636 0.0
C37 C 0.40378 0.86839 0.66095 0.0
H38 H 0.41013 0.7563 0.65058 0.0
Co39 Co 0.46734 0.82595 0.6185 0.0
C40 C 0.50914 0.91994 0.60541 0.0
O41 O 0.54982 0.89687 0.60423 0.0
N42 N 0.51146 0.81694 0.58926 0.0
C43 C 0.56789 0.79297 0.55991 0.0
C44 C 0.55259 0.7921 0.58712 0.0
C45 C 0.50283 0.83237 0.56311 0.0
N46 N 0.53646 0.81848 0.5449 0.0
O47 O 0.41529 0.81593 0.59289 0.0
H48 H 0.56994 0.77306 0.60372 0.0
H49 H 0.47093 0.85159 0.55729 0.0
O50 O 0.47035 0.89675 0.61113 0.0
C51 C 0.41247 0.77168 0.58683 0.0
O52 O 0.44656 0.74319 0.59549 0.0
N53 N 0.51544 0.83119 0.64579 0.0
C54 C 0.57415 0.82998 0.69242 0.0
C55 C 0.55095 0.87177 0.68461 0.0
C56 C 0.52086 0.87139 0.66171 0.0
C57 C 0.53598 0.78943 0.65411 0.0
C58 C 0.56644 0.78815 0.67719 0.0
H59 H 0.50036 0.90313 0.65789 0.0
H60 H 0.5273 0.75659 0.6434 0.0
H61 H 0.41435 0.90522 0.65829 0.0
H62 H 0.35215 0.78096 0.69159 0.0
H63 H 0.59892 0.77495 0.55166 0.0
H64 H 0.55497 0.90421 0.69669 0.0
H65 H 0.58281 0.75487 0.68343 0.0
C66 C 0.78858 0.6355 0.3105 0.0
C67 C 0.79887 0.66372 0.28802 0.0
N68 N 0.84577 0.65976 0.2826 0.0
N69 N 0.82875 0.61416 0.31954 0.0
C70 C 0.86334 0.63014 0.30232 0.0
H71 H 0.75358 0.62981 0.31936 0.0
Co72 Co 0.82422 0.56994 0.34807 0.0
C73 C 0.91826 0.52856 0.36038 0.0
O74 O 0.89511 0.48777 0.36109 0.0
N75 N 0.81623 0.52634 0.37789 0.0
C76 C 0.78858 0.47209 0.40769 0.0
C77 C 0.79014 0.48581 0.38024 0.0
C78 C 0.83064 0.53579 0.4042 0.0
N79 N 0.8137 0.50395 0.42268 0.0
O80 O 0.81474 0.62264 0.37334 0.0
H81 H 0.77105 0.46827 0.36369 0.0
H82 H 0.85043 0.56751 0.41003 0.0
O83 O 0.89563 0.56762 0.35479 0.0
C84 C 0.77076 0.62511 0.38016 0.0
O85 O 0.74229 0.58981 0.37299 0.0
N86 N 0.82819 0.52115 0.3212 0.0
C87 C 0.82567 0.45745 0.27698 0.0
C88 C 0.86768 0.48171 0.28351 0.0
C89 C 0.86785 0.51444 0.30511 0.0
C90 C 0.78597 0.50044 0.31361 0.0
C91 C 0.784 0.46748 0.29177 0.0
H92 H 0.89975 0.53527 0.30808 0.0
H93 H 0.75344 0.51033 0.32421 0.0
H94 H 0.90009 0.61853 0.30324 0.0
H95 H 0.77357 0.68465 0.27621 0.0
H96 H 0.76854 0.44236 0.41614 0.0
H97 H 0.89995 0.47612 0.27154 0.0
H98 H 0.75049 0.45047 0.28635 0.0
C99 C 0.64177 0.25191 0.65838 0.0
C100 C 0.6703 0.23889 0.68025 0.0
N101 N 0.66746 0.19119 0.68318 0.0
N102 N 0.62072 0.21277 0.6476 0.0
C103 C 0.6375 0.17606 0.66291 0.0
H104 H 0.63533 0.28795 0.6513 0.0
Co105 Co 0.57645 0.21959 0.61935 0.0
C106 C 0.53159 0.12715 0.60732 0.0
O107 O 0.49208 0.1521 0.60595 0.0
N108 N 0.53316 0.22951 0.58958 0.0
C109 C 0.4782 0.25373 0.55914 0.0
C110 C 0.49256 0.25508 0.5866 0.0
C111 C 0.54248 0.21332 0.56366 0.0
N112 N 0.51018 0.22789 0.54483 0.0
O113 O 0.62928 0.22827 0.59401 0.0
H114 H 0.4748 0.27467 0.60283 0.0
H115 H 0.57306 0.1915 0.55857 0.0
O116 O 0.57168 0.14868 0.61215 0.0
C117 C 0.63332 0.2722 0.58733 0.0
O118 O 0.60005 0.30202 0.59549 0.0
N119 N 0.52752 0.21558 0.64653 0.0
C120 C 0.46846 0.21765 0.69309 0.0
C121 C 0.49228 0.17597 0.68582 0.0
C122 C 0.5223 0.1759 0.66292 0.0
C123 C 0.50616 0.25728 0.65424 0.0
C124 C 0.47537 0.2589 0.67719 0.0
H125 H 0.54278 0.14406 0.65942 0.0
H126 H 0.51452 0.2899 0.64325 0.0
H127 H 0.62588 0.13947 0.66035 0.0
H128 H 0.69016 0.26282 0.69366 0.0
H129 H 0.44784 0.27194 0.55018 0.0
H130 H 0.4886 0.14386 0.69822 0.0
H131 H 0.45839 0.29213 0.68292 0.0
C132 C 0.24303 0.6467 0.65562 0.0
C133 C 0.22762 0.67281 0.67793 0.0
N134 N 0.18085 0.66393 0.68141 0.0
N135 N 0.20623 0.62141 0.64505 0.0
C136 C 0.16839 0.63321 0.66099 0.0
H137 H 0.27949 0.64416 0.64845 0.0
Co138 Co 0.21823 0.57628 0.61791 0.0
C139 C 0.12806 0.53023 0.60029 0.0
O140 O 0.15312 0.49072 0.6001 0.0
N141 N 0.23358 0.53214 0.58975 0.0
C142 C 0.26708 0.47886 0.56148 0.0
C143 C 0.26215 0.49336 0.58881 0.0
C144 C 0.2216 0.54011 0.56297 0.0
N145 N 0.24203 0.50905 0.5454 0.0
O146 O 0.22954 0.62822 0.59223 0.0
H147 H 0.28011 0.47776 0.60645 0.0
H148 H 0.19911 0.56931 0.55634 0.0
O149 O 0.14875 0.56985 0.6073 0.0
C150 C 0.2743 0.6324 0.58777 0.0
O151 O 0.30307 0.6 0.59814 0.0
N152 N 0.21199 0.52861 0.6454 0.0
C153 C 0.21225 0.48235 0.69675 0.0
C154 C 0.1694 0.49555 0.68414 0.0
C155 C 0.17003 0.51963 0.659 0.0
C156 C 0.25418 0.51475 0.65706 0.0
C157 C 0.25515 0.49087 0.68266 0.0
H158 H 0.13663 0.53422 0.65219 0.0
H159 H 0.28746 0.52521 0.64741 0.0
H160 H 0.13337 0.61718 0.65905 0.0
H161 H 0.24956 0.69453 0.69153 0.0
H162 H 0.28925 0.4501 0.55391 0.0
H163 H 0.13543 0.48917 0.69426 0.0
H164 H 0.28904 0.48131 0.69192 0.0
C165 C 0.62571 0.78932 0.30605 0.0
C166 C 0.65404 0.80268 0.2841 0.0
N167 N 0.66467 0.84945 0.28683 0.0
N168 N 0.61787 0.82753 0.32232 0.0
C169 C 0.64253 0.86342 0.31042 0.0
H170 H 0.60949 0.75464 0.30917 0.0
Co171 Co 0.57665 0.82604 0.35198 0.0
C172 C 0.59039 0.93849 0.36516 0.0
O173 O 0.63349 0.95394 0.37118 0.0
N174 N 0.53541 0.82308 0.38241 0.0
C175 C 0.48073 0.8008 0.41331 0.0
C176 C 0.4938 0.79923 0.38576 0.0
C177 C 0.54658 0.83899 0.40812 0.0
N178 N 0.5139 0.82608 0.42714 0.0
O179 O 0.62989 0.80982 0.37521 0.0
H180 H 0.47556 0.779 0.3699 0.0
H181 H 0.57993 0.85655 0.41322 0.0
O182 O 0.58473 0.89405 0.35992 0.0
C183 C 0.63052 0.7659 0.38202 0.0
O184 O 0.5928 0.73956 0.37649 0.0
N185 N 0.52625 0.83811 0.3274 0.0
C186 C 0.4594 0.84532 0.28486 0.0
C187 C 0.48504 0.88546 0.29363 0.0
C188 C 0.51931 0.88083 0.31435 0.0
C189 C 0.50283 0.79827 0.31831 0.0
C190 C 0.46887 0.80107 0.29708 0.0
H191 H 0.54153 0.91126 0.31866 0.0
H192 H 0.51182 0.76382 0.32696 0.0
H193 H 0.64227 0.89965 0.31811 0.0
H194 H 0.66247 0.78049 0.26639 0.0
H195 H 0.45113 0.782 0.42279 0.0
H196 H 0.48015 0.91974 0.28361 0.0
H197 H 0.45076 0.76906 0.29004 0.0
C198 C 0.79256 0.40078 0.65246 0.0
C199 C 0.80371 0.37309 0.67499 0.0
N200 N 0.85136 0.37374 0.67813 0.0
N201 N 0.83288 0.41935 0.64163 0.0
C202 C 0.86846 0.40171 0.65751 0.0
H203 H 0.75699 0.40923 0.64528 0.0
Co204 Co 0.82732 0.46454 0.61395 0.0
C205 C 0.92052 0.50808 0.60224 0.0
O206 O 0.89655 0.54831 0.6023 0.0
N207 N 0.81824 0.50911 0.5849 0.0
C208 C 0.78753 0.56187 0.55532 0.0
C209 C 0.78966 0.54775 0.58271 0.0
C210 C 0.83357 0.50123 0.55862 0.0
N211 N 0.81515 0.53239 0.54032 0.0
O212 O 0.81773 0.41275 0.58806 0.0
H213 H 0.76878 0.56301 0.59923 0.0
H214 H 0.85474 0.47066 0.55262 0.0
O215 O 0.8982 0.46829 0.60674 0.0
C216 C 0.77363 0.40942 0.5816 0.0
O217 O 0.7448 0.44385 0.58933 0.0
N218 N 0.8319 0.51212 0.64178 0.0
C219 C 0.82856 0.56548 0.6906 0.0
C220 C 0.8708 0.54358 0.68242 0.0
C221 C 0.87156 0.51641 0.65831 0.0
C222 C 0.78981 0.53174 0.65026 0.0
C223 C 0.78757 0.55981 0.67432 0.0
H224 H 0.90365 0.49668 0.65417 0.0
H225 H 0.75723 0.52344 0.63921 0.0
H226 H 0.90554 0.41202 0.65545 0.0
H227 H 0.77867 0.35614 0.68903 0.0
H228 H 0.76493 0.58952 0.5468 0.0
H229 H 0.90275 0.54635 0.69505 0.0
H230 H 0.75394 0.57527 0.68071 0.0
C231 C 0.41442 0.24358 0.30601 0.0
C232 C 0.39223 0.23822 0.28077 0.0
N233 N 0.38417 0.19141 0.27675 0.0
N234 N 0.42062 0.20036 0.31778 0.0
C235 C 0.40119 0.16913 0.29957 0.0
H236 H 0.42795 0.27669 0.31452 0.0
Co237 Co 0.45755 0.19422 0.34958 0.0
C238 C 0.43718 0.08108 0.35413 0.0
O239 O 0.39195 0.0688 0.35312 0.0
N240 N 0.49539 0.18983 0.38238 0.0
C241 C 0.55484 0.17678 0.41231 0.0
C242 C 0.54098 0.17465 0.38493 0.0
C243 C 0.48263 0.20073 0.40882 0.0
N244 N 0.51816 0.19377 0.4273 0.0
O245 O 0.40081 0.20668 0.37083 0.0
H246 H 0.56342 0.16271 0.36812 0.0
H247 H 0.44803 0.21389 0.41479 0.0
O248 O 0.44795 0.12538 0.35244 0.0
C249 C 0.39647 0.25111 0.37594 0.0
O250 O 0.43268 0.27958 0.37063 0.0
N251 N 0.51096 0.18572 0.32661 0.0
C252 C 0.57713 0.1871 0.28359 0.0
C253 C 0.54621 0.14839 0.28684 0.0
C254 C 0.51322 0.14847 0.30831 0.0
C255 C 0.54145 0.22357 0.32404 0.0
C256 C 0.57557 0.2247 0.30276 0.0
H257 H 0.48785 0.11958 0.30898 0.0
H258 H 0.53788 0.25385 0.33784 0.0
H259 H 0.40295 0.13075 0.30181 0.0
H260 H 0.38518 0.26612 0.26576 0.0
H261 H 0.58907 0.16582 0.42048 0.0
H262 H 0.54638 0.11897 0.2722 0.0
H263 H 0.59881 0.25542 0.30052 0.0
C264 C 0.74567 0.90632 0.812 0.0
C265 C 0.73403 0.87674 0.79032 0.0
N266 N 0.68629 0.87706 0.78734 0.0
N267 N 0.70559 0.92546 0.82262 0.0
C268 C 0.66978 0.90674 0.80728 0.0
H269 H 0.78132 0.91433 0.81929 0.0
Co270 Co 0.7101 0.96843 0.8516 0.0
C271 C 0.61567 1.00819 0.86462 0.0
O272 O 0.63867 0.04891 0.86708 0.0
N273 N 0.71782 1.01036 0.88207 0.0
C274 C 0.74295 0.06286 0.91371 0.0
C275 C 0.74367 0.05072 0.88591 0.0
C276 C 0.7018 0.99911 0.90778 0.0
N277 N 0.71636 0.03033 0.92718 0.0
O278 O 0.71997 0.91471 0.87598 0.0
H279 H 0.7641 0.06895 0.87018 0.0
H280 H 0.68185 0.96697 0.91251 0.0
O281 O 0.63906 0.96994 0.85823 0.0
C282 C 0.76405 0.91188 0.88248 0.0
O283 O 0.79246 0.94733 0.87551 0.0
N284 N 0.70506 1.01845 0.82538 0.0
C285 C 0.70723 0.0783 0.77919 0.0
C286 C 0.66546 0.05422 0.78632 0.0
C287 C 0.66537 0.02368 0.80902 0.0
C288 C 0.74671 0.04037 0.81792 0.0
C289 C 0.74844 0.07137 0.79508 0.0
H290 H 0.6338 1.00239 0.81214 0.0
H291 H 0.77932 0.03197 0.82888 0.0
H292 H 0.63276 0.91651 0.80967 0.0
H293 H 0.75881 0.85759 0.77718 0.0
H294 H 0.76293 0.09141 0.92352 0.0
H295 H 0.63351 0.05769 0.77377 0.0
H296 H 0.78175 0.08844 0.78939 0.0
C297 C 0.9041 0.2851 0.15809 0.0
C298 C 0.87628 0.29329 0.18105 0.0
N299 N 0.87314 0.34079 0.18468 0.0
N300 N 0.91823 0.3272 0.14724 0.0
C301 C 0.89849 0.3606 0.16377 0.0
H302 H 0.91432 0.25054 0.15011 0.0
Co303 Co 0.95839 0.3305 0.11688 0.0
C304 C 0.93557 0.44113 0.10765 0.0
O305 O 0.88978 0.44969 0.1048 0.0
N306 N 0.99918 0.33282 0.08545 0.0
C307 C 0.06016 0.34448 0.05624 0.0
C308 C 0.04607 0.34458 0.08369 0.0
C309 C 0.98598 0.32602 0.05867 0.0
N310 N 0.02214 0.33234 0.04081 0.0
O311 O 0.90421 0.31488 0.0942 0.0
H312 H 0.06881 0.3539 0.10101 0.0
H313 H 0.95018 0.31824 0.05173 0.0
O314 O 0.94905 0.39821 0.11148 0.0
C315 C 0.90343 0.2703 0.08896 0.0
O316 O 0.94067 0.24448 0.09587 0.0
N317 N 1.00932 0.34196 0.14106 0.0
C318 C 0.07743 0.34762 0.18279 0.0
C319 C 0.0489 0.38691 0.17664 0.0
C320 C 1.01442 0.38315 0.15602 0.0
C321 C 0.03688 0.30317 0.14687 0.0
C322 C 0.07155 0.30525 0.16777 0.0
H323 H 0.9907 0.41289 0.15323 0.0
H324 H 0.03096 0.27017 0.13568 0.0
H325 H 0.90431 0.39857 0.1614 0.0
H326 H 0.86046 0.26643 0.19436 0.0
H327 H 0.09535 0.35268 0.04825 0.0
H328 H 0.05205 0.41971 0.18847 0.0
H329 H 0.09279 0.27405 0.17251 0.0
C330 C 0.28825 0.14549 0.80923 0.0
C331 C 0.303 0.17579 0.78855 0.0
N332 N 0.35071 0.17207 0.78612 0.0
N333 N 0.3263 0.12254 0.81981 0.0
C334 C 0.36407 0.13977 0.80553 0.0
H335 H 0.25179 0.13951 0.81574 0.0
Co336 Co 0.31764 0.0768 0.84706 0.0
C337 C 0.40917 0.03131 0.85991 0.0
O338 O 0.38412 0.99161 0.86015 0.0
N339 N 0.306 0.03196 0.87576 0.0
C340 C 0.27995 0.9752 0.90446 0.0
C341 C 0.27956 0.9916 0.87744 0.0
C342 C 0.32177 0.03913 0.90202 0.0
N343 N 0.30631 1.00553 0.91988 0.0
O344 O 0.30822 0.12822 0.87313 0.0
H345 H 0.26032 0.97511 0.86057 0.0
H346 H 0.34327 0.06954 0.90813 0.0
O347 O 0.38805 0.07155 0.85535 0.0
C348 C 0.26407 0.13181 0.87926 0.0
O349 O 0.23467 0.09833 0.87058 0.0
N350 N 0.32244 0.02931 0.81917 0.0
C351 C 0.32247 0.96951 0.77298 0.0
C352 C 0.364 0.99319 0.78098 0.0
C353 C 0.36298 0.02384 0.8036 0.0
C354 C 0.28083 1.00868 0.81045 0.0
C355 C 0.28016 0.97763 0.78759 0.0
H356 H 0.39484 0.04414 0.80775 0.0
H357 H 0.24771 1.01745 0.82074 0.0
H358 H 0.40017 0.12711 0.80828 0.0
H359 H 0.28021 0.19775 0.77568 0.0
H360 H 0.26201 0.94357 0.9121 0.0
H361 H 0.39688 0.98882 0.7694 0.0
H362 H 0.24705 0.96093 0.78115 0.0
C363 C 0.11677 0.73451 0.16751 0.0
C364 C 0.14515 0.71934 0.18892 0.0
N365 N 0.15797 0.67379 0.18393 0.0
N366 N 0.11128 0.69873 0.14912 0.0
C367 C 0.13738 0.6624 0.15933 0.0
H368 H 0.0997 0.76896 0.16585 0.0
Co369 Co 0.07286 0.70574 0.11833 0.0
C370 C 0.07998 0.5946 0.10454 0.0
O371 O 0.12455 0.58425 0.09872 0.0
N372 N 0.0338 0.71458 0.08643 0.0
C373 C 0.97278 0.71941 0.05678 0.0
C374 C 0.98568 0.71413 0.08416 0.0
C375 C 0.04895 0.72038 0.05988 0.0
N376 N 1.01274 0.72391 0.04151 0.0
O377 O 0.12969 0.71388 0.0967 0.0
H378 H 0.96088 0.70866 0.101 0.0
H379 H 0.08597 0.72168 0.05379 0.0
O380 O 0.06906 0.63746 0.11081 0.0
C381 C 0.13877 0.75847 0.09629 0.0
O382 O 0.10745 0.78803 0.10698 0.0
N383 N 0.01976 0.70093 0.14196 0.0
C384 C 0.95538 0.70224 0.18583 0.0
C385 C 0.979 0.66024 0.1788 0.0
C386 C 1.01164 0.66045 0.15715 0.0
C387 C 0.99692 0.7424 0.14858 0.0
C388 C 0.96394 0.74376 0.17044 0.0
H389 H 0.03231 0.62855 0.15401 0.0
H390 H 1.00567 0.77484 0.13748 0.0
H391 H 0.14063 0.62831 0.14908 0.0
H392 H 0.15337 0.73946 0.20754 0.0
H393 H 0.93671 0.71805 0.04879 0.0
H394 H 0.97372 0.6279 0.1908 0.0
H395 H 0.94657 0.77698 0.1758 0.0
C396 C 0.74793 0.14029 0.15669 0.0
C397 C 0.7362 0.1656 0.18017 0.0
N398 N 0.69058 0.15536 0.18665 0.0
N399 N 0.70981 0.11457 0.14828 0.0
C400 C 0.67528 0.12464 0.16686 0.0
H401 H 0.78249 0.1397 0.14672 0.0
Co402 Co 0.71246 0.07161 0.11913 0.0
C403 C 0.60063 0.08441 0.10787 0.0
O404 O 0.58881 0.12961 0.10582 0.0
N405 N 0.71599 0.02852 0.08936 0.0
C406 C 0.73082 0.9676 0.06107 0.0
C407 C 0.73216 0.98324 0.08821 0.0
C408 C 0.70463 0.03922 0.0628 0.0
N409 N 0.71428 1.00336 0.04501 0.0
O410 O 0.72397 0.1247 0.09468 0.0
H411 H 0.74486 0.96282 0.10573 0.0
H412 H 0.69148 0.07376 0.05638 0.0
O413 O 0.64412 0.07362 0.11248 0.0
C414 C 0.76697 0.12634 0.08611 0.0
O415 O 0.79489 0.08978 0.09124 0.0
N416 N 0.70553 0.02182 0.1447 0.0
C417 C 0.7057 0.96277 0.19111 0.0
C418 C 0.66274 0.97699 0.1789 0.0
C419 C 0.66333 1.00705 0.15601 0.0
C420 C 0.74784 1.00717 0.15581 0.0
C421 C 0.74882 0.97722 0.17906 0.0
H422 H 0.62964 0.02044 0.14893 0.0
H423 H 0.78096 0.02064 0.14729 0.0
H424 H 0.64031 0.10813 0.16668 0.0
H425 H 0.75958 0.18923 0.19171 0.0
H426 H 0.74161 0.9327 0.0539 0.0
H427 H 0.62873 0.96665 0.18781 0.0
H428 H 0.7827 0.96748 0.18827 0.0
C429 C 0.12265 0.30382 0.80242 0.0
C430 C 0.153 0.32269 0.783 0.0
N431 N 0.1613 0.3689 0.78938 0.0
N432 N 0.11136 0.33788 0.82091 0.0
C433 C 0.13605 0.3769 0.81293 0.0
H434 H 0.10811 0.26801 0.80254 0.0
Co435 Co 0.06857 0.32605 0.84895 0.0
C436 C 0.02235 0.41596 0.86467 0.0
O437 O 0.9827 0.3908 0.86426 0.0
N438 N 0.02653 0.31168 0.87836 0.0
C439 C 0.97385 0.28314 0.90879 0.0
C440 C 0.98752 0.28358 0.88123 0.0
C441 C 0.03573 0.32739 0.90436 0.0
N442 N 1.00426 0.31108 0.92318 0.0
O443 O 0.12198 0.31573 0.87336 0.0
H444 H 0.97053 0.26345 0.86488 0.0
H445 H 0.06646 0.34911 0.90953 0.0
O446 O 0.06257 0.39553 0.85917 0.0
C447 C 0.12717 0.27084 0.87645 0.0
O448 O 0.09525 0.24209 0.86537 0.0
N449 N 0.01907 0.33213 0.82249 0.0
C450 C 0.95906 0.33463 0.77638 0.0
C451 C 0.98309 0.37567 0.78499 0.0
C452 C 1.01415 0.3733 0.8074 0.0
C453 C 0.99759 0.29116 0.81345 0.0
C454 C 0.96679 0.29167 0.7905 0.0
H455 H 0.03593 0.40429 0.81158 0.0
H456 H 1.00636 0.25748 0.82309 0.0
H457 H 0.13467 0.41041 0.82399 0.0
H458 H 0.16551 0.30442 0.76459 0.0
H459 H 0.94444 0.26312 0.91761 0.0
H460 H 0.97952 0.40888 0.77363 0.0
H461 H 0.95009 0.25888 0.7835 0.0
C462 C 0.29187 0.91379 0.16037 0.0
C463 C 0.29919 0.89134 0.18536 0.0
N464 N 0.34641 0.88487 0.18851 0.0
N465 N 0.33425 0.92151 0.14788 0.0
C466 C 0.36693 0.90287 0.16538 0.0
H467 H 0.25793 0.92587 0.15237 0.0
Co468 Co 0.3382 0.95763 0.11575 0.0
C469 C 0.45021 0.93679 0.10886 0.0
O470 O 0.46007 0.89106 0.1074 0.0
N471 N 0.34088 0.99453 0.08262 0.0
C472 C 0.35567 0.05195 0.05151 0.0
C473 C 0.35719 0.03974 0.07921 0.0
C474 C 0.32973 0.98039 0.05645 0.0
N475 N 0.3379 1.01459 0.03741 0.0
O476 O 0.32476 0.90018 0.09523 0.0
H477 H 0.36988 0.06279 0.09563 0.0
H478 H 0.31721 0.94525 0.05085 0.0
O479 O 0.40672 0.94936 0.11165 0.0
C480 C 0.28012 0.896 0.09063 0.0
O481 O 0.25234 0.9326 0.09588 0.0
N482 N 0.34767 1.01174 0.13801 0.0
C483 C 0.35103 0.08287 0.17826 0.0
C484 C 0.38945 0.05196 0.17467 0.0
C485 C 0.3867 1.01607 0.15489 0.0
C486 C 0.30967 0.04157 0.14123 0.0
C487 C 0.31055 0.07765 0.16141 0.0
H488 H 0.41541 0.99067 0.15424 0.0
H489 H 0.27797 0.03619 0.12874 0.0
H490 H 0.40509 0.90537 0.16227 0.0
H491 H 0.27219 0.88236 0.20058 0.0
H492 H 0.36641 0.08568 0.04244 0.0
H493 H 0.42058 0.05413 0.18801 0.0
H494 H 0.27984 0.10053 0.16418 0.0
C495 C 0.88677 0.73893 0.81282 0.0
C496 C 0.85791 0.72336 0.79169 0.0
N497 N 0.86551 0.67635 0.78802 0.0
N498 N 0.91231 0.70206 0.82278 0.0
C499 C 0.89852 0.66417 0.80734 0.0
H500 H 0.88998 0.77536 0.82002 0.0
Co501 Co 0.95723 0.71312 0.85025 0.0
C502 C 0.99876 0.62215 0.86935 0.0
O503 O 0.03925 0.64582 0.87016 0.0
N504 N 1.00136 0.72778 0.87883 0.0
C505 C 0.05899 0.75595 0.90644 0.0
C506 C 0.04345 0.75166 0.87929 0.0
C507 C 0.99225 0.71834 0.90587 0.0
N508 N 0.02626 0.73527 0.92292 0.0
O509 O 0.905 0.72646 0.87533 0.0
H510 H 0.06147 0.7662 0.86138 0.0
H511 H 0.96062 0.69987 0.9131 0.0
O512 O 0.96041 0.64383 0.86137 0.0
C513 C 0.9018 0.77122 0.87988 0.0
O514 O 0.93555 0.79939 0.87027 0.0
N515 N 1.00562 0.70424 0.82342 0.0
C516 C 0.06536 0.69993 0.7773 0.0
C517 C 0.04533 0.65842 0.7882 0.0
C518 C 1.01453 0.66142 0.81071 0.0
C519 C 0.02351 0.74533 0.81223 0.0
C520 C 0.05398 0.74401 0.78919 0.0
H521 H 0.99642 0.62916 0.81669 0.0
H522 H 1.01296 0.77941 0.82078 0.0
H523 H 0.91427 0.62916 0.80915 0.0
H524 H 0.83438 0.74537 0.77931 0.0
H525 H 0.09066 0.77448 0.9136 0.0
H526 H 0.05217 0.62399 0.77874 0.0
H527 H 0.06809 0.7769 0.78063 0.0
C528 C 0.99514 0.50265 0.33981 0.0
C529 C 0.97085 0.52497 0.36188 0.0
C530 C 0.04078 0.48271 0.34346 0.0
C531 C 0.06359 0.48314 0.36957 0.0
H532 H 0.9776 0.4981 0.31991 0.0
H533 H 0.05747 0.46519 0.32593 0.0
S534 S 1.01607 0.54016 0.43363 0.0
N535 N 0.97368 0.54839 0.41026 0.0
N536 N 0.05926 0.5114 0.41743 0.0
C537 C 0.04031 0.50715 0.39154 0.0
C538 C 0.99406 0.52786 0.38763 0.0
C539 C 0.56096 0.04476 0.59573 0.0
C540 C 0.52639 0.07437 0.60763 0.0
C541 C 0.55381 0.99513 0.59418 0.0
C542 C 0.51202 0.97302 0.60467 0.0
H543 H 0.59328 0.06004 0.58712 0.0
H544 H 0.58167 0.97385 0.58477 0.0
S545 S 0.41217 0.03484 0.63976 0.0
N546 N 0.44969 0.07798 0.63138 0.0
N547 N 0.43656 0.98507 0.62828 0.0
C548 C 0.47738 1.00234 0.6168 0.0
C549 C 0.4846 0.05282 0.6184 0.0
C550 C 0.99551 0.55525 0.60937 0.0
C551 C 0.97345 0.512 0.60115 0.0
C552 C 0.04517 0.56172 0.60813 0.0
C553 C 0.07508 0.52529 0.59843 0.0
H554 H 0.97427 0.58445 0.61733 0.0
H555 H 0.0602 0.59511 0.61547 0.0
S556 S 0.03503 0.40627 0.57252 0.0
N557 N 0.98521 0.43297 0.58201 0.0
N558 N 0.07837 0.44479 0.57898 0.0
C559 C 0.05332 0.48213 0.5895 0.0
C560 C 1.00268 0.47549 0.59111 0.0
C561 C 0.56032 0.02201 0.35801 0.0
C562 C 0.55014 0.97355 0.36306 0.0
C563 C 0.52389 0.05608 0.35535 0.0
C564 C 0.47526 0.04371 0.35741 0.0
H565 H 0.59693 0.03391 0.35575 0.0
H566 H 0.53429 0.0924 0.35141 0.0
S567 S 0.42896 0.92185 0.3724 0.0
N568 N 0.48746 0.91541 0.37181 0.0
N569 N 0.41913 0.97882 0.36585 0.0
C570 C 0.46448 0.99531 0.3628 0.0
C571 C 0.50175 0.96057 0.36587 0.0
C572 C 0.54026 0.05086 0.87697 0.0
C573 C 0.56264 1.01086 0.86463 0.0
C574 C 0.49086 0.05852 0.87473 0.0
C575 C 0.46182 0.02628 0.86021 0.0
H576 H 0.5612 0.07689 0.88838 0.0
H577 H 0.47525 0.08928 0.88485 0.0
S578 S 0.50232 0.91794 0.82243 0.0
N579 N 0.55151 0.9399 0.83642 0.0
N580 N 0.45898 0.95407 0.83205 0.0
C581 C 0.48363 0.9864 0.84757 0.0
C582 C 0.53387 0.97861 0.84989 0.0
C583 C 0.02096 0.47106 0.10608 0.0
C584 C 0.9716 0.48094 0.10647 0.0
C585 C 0.0555 0.50769 0.10529 0.0
C586 C 0.04243 0.55619 0.10476 0.0
H587 H 0.03333 0.43465 0.10642 0.0
H588 H 0.09282 0.49776 0.10536 0.0
S589 S 0.91796 0.60195 0.10434 0.0
N590 N 0.91166 0.54345 0.1058 0.0
N591 N 0.97601 0.61175 0.10359 0.0
C592 C 0.99316 0.56658 0.10472 0.0
C593 C 0.95801 0.52927 0.10571 0.0
C594 C 0.47869 0.02275 0.10947 0.0
C595 C 0.48927 0.9737 0.10722 0.0
C596 C 0.51455 0.058 0.10933 0.0
C597 C 0.56302 0.04616 0.10631 0.0
H598 H 0.44235 0.03442 0.11157 0.0
H599 H 0.50402 0.09489 0.11197 0.0
S600 S 0.61027 0.92365 0.09549 0.0
N601 N 0.55236 0.91567 0.09972 0.0
N602 N 0.61914 0.98175 0.09783 0.0
C603 C 0.57408 0.99746 0.10247 0.0
C604 C 0.53755 0.96142 0.10328 0.0
C605 C 0.96942 0.53997 0.85697 0.0
C606 C 1.00203 0.56924 0.8712 0.0
C607 C 0.97685 0.49054 0.8549 0.0
C608 C 1.01733 0.46846 0.86672 0.0
H609 H 0.93887 0.55542 0.84655 0.0
H610 H 0.951 0.46951 0.84339 0.0
S611 S 0.11095 0.52813 0.90845 0.0
N612 N 0.07463 0.57167 0.89923 0.0
N613 N 0.08858 0.47899 0.89457 0.0
C614 C 0.04957 0.49695 0.8815 0.0
C615 C 0.04179 0.54719 0.884 0.0
C616 C 0.27871 0.30907 0.36264 0.0
C617 C 0.27941 0.34575 0.38263 0.0
C618 C 0.3137 0.2731 0.36277 0.0
C619 C 0.35027 0.2731 0.38284 0.0
H620 H 0.2547 0.31133 0.34502 0.0
H621 H 0.31535 0.24873 0.34529 0.0
S622 S 0.36188 0.35576 0.4425 0.0
N623 N 0.31494 0.3755 0.42522 0.0
N624 N 0.38062 0.30822 0.42541 0.0
C625 C 0.34782 0.30626 0.40461 0.0
C626 C 0.3123 0.34258 0.40453 0.0
C627 C 0.29002 0.71951 0.59211 0.0
C628 C 0.29645 0.67667 0.57728 0.0
C629 C 0.32551 0.75527 0.59194 0.0
C630 C 0.36805 0.74903 0.57683 0.0
H631 H 0.2606 0.72284 0.60657 0.0
H632 H 0.32221 0.78486 0.60632 0.0
S633 S 0.39678 0.64818 0.5301 0.0
N634 N 0.34476 0.63369 0.54386 0.0
N635 N 0.41043 0.70116 0.54296 0.0
C636 C 0.37151 0.70947 0.55908 0.0
C637 C 0.3359 0.6731 0.55947 0.0
C638 C 0.67249 0.70119 0.40701 0.0
C639 C 0.67527 0.74112 0.38943 0.0
C640 C 0.70815 0.66629 0.40692 0.0
C641 C 0.74782 0.66994 0.38916 0.0
H642 H 0.64045 0.69466 0.41906 0.0
H643 H 0.7022 0.63387 0.41874 0.0
S644 S 0.7751 0.7708 0.34189 0.0
N645 N 0.72352 0.78521 0.35618 0.0
N646 N 0.79079 0.71952 0.35612 0.0
C647 C 0.75377 0.71229 0.37385 0.0
C648 C 0.71728 0.74798 0.37392 0.0
C649 C 0.75647 0.3236 0.5906 0.0
C650 C 0.75116 0.36383 0.57333 0.0
C651 C 0.72033 0.28859 0.59219 0.0
C652 C 0.67807 0.29307 0.57657 0.0
H653 H 0.78558 0.32216 0.60542 0.0
H654 H 0.72294 0.26139 0.60813 0.0
S655 S 0.65218 0.38607 0.52404 0.0
N656 N 0.70469 0.40142 0.53693 0.0
N657 N 0.63681 0.3363 0.54015 0.0
C658 C 0.67548 0.32973 0.55676 0.0
C659 C 0.71214 0.36497 0.55505 0.0
C660 C 0.86291 0.83446 0.90715 0.0
C661 C 0.85778 0.79413 0.89005 0.0
C662 C 0.82803 0.87004 0.90776 0.0
C663 C 0.78686 0.86679 0.89116 0.0
H664 H 0.8964 0.84117 0.91774 0.0
H665 H 0.83596 0.90275 0.91888 0.0
S666 S 0.753 0.76475 0.84616 0.0
N667 N 0.80539 0.7496 0.85919 0.0
N668 N 0.73986 0.81706 0.86001 0.0
C669 C 0.77851 0.82401 0.87661 0.0
C670 C 0.81411 0.78743 0.87613 0.0
C671 C 0.78315 0.21267 0.09457 0.0
C672 C 0.78995 0.17172 0.07806 0.0
C673 C 0.81787 0.24904 0.09541 0.0
C674 C 0.85997 0.24531 0.07966 0.0
H675 H 0.75384 0.2141 0.10922 0.0
H676 H 0.81423 0.27724 0.11068 0.0
S677 S 0.88847 0.15139 0.02823 0.0
N678 N 0.83717 0.13422 0.04193 0.0
N679 N 0.90216 0.20246 0.04349 0.0
C680 C 0.86388 0.2078 0.06052 0.0
C681 C 0.82879 0.17098 0.05968 0.0
C682 C 0.21373 0.25411 0.87174 0.0
C683 C 0.17133 0.24916 0.88714 0.0
C684 C 0.24902 0.21844 0.87253 0.0
C685 C 0.24253 0.17698 0.88865 0.0
H686 H 0.21702 0.28241 0.85651 0.0
H687 H 0.27828 0.22053 0.85787 0.0
S688 S 0.14268 0.15275 0.93703 0.0
N689 N 0.12877 0.20414 0.92233 0.0
N690 N 0.19481 0.13734 0.92384 0.0
C691 C 0.20337 0.17507 0.90678 0.0
C692 C 0.16769 0.21116 0.90598 0.0
C693 C 0.25926 0.81326 0.10471 0.0
C694 C 0.25723 0.84969 0.08462 0.0
C695 C 0.22335 0.77808 0.1061 0.0
C696 C 0.18486 0.7783 0.08729 0.0
H697 H 0.28537 0.81514 0.12131 0.0
H698 H 0.22287 0.75408 0.12376 0.0
S699 S 0.16854 0.8604 0.02791 0.0
N700 N 0.21773 0.87959 0.04331 0.0
N701 N 0.15066 0.8134 0.04585 0.0
C702 C 0.18567 0.81114 0.06536 0.0
C703 C 0.22186 0.84693 0.06402 0.0
C704 C 0.2253 0.63681 0.24758 0.0
C705 C 0.20785 0.59052 0.25191 0.0
C706 C 0.21216 0.66249 0.2238 0.0
C707 C 0.18079 0.64284 0.20383 0.0
H708 H 0.24635 0.65438 0.2635 0.0
H709 H 0.22431 0.69906 0.22186 0.0
S710 S 0.13228 0.51917 0.20418 0.0
N711 N 0.16387 0.52317 0.23306 0.0
N712 N 0.13771 0.57156 0.18879 0.0
C713 C 0.1669 0.59476 0.2069 0.0
C714 C 0.18072 0.56862 0.23094 0.0
C715 C 0.65232 0.84751 0.71401 0.0
C716 C 0.60522 0.83134 0.71697 0.0
C717 C 0.67943 0.86022 0.73729 0.0
C718 C 0.66003 0.85771 0.76424 0.0
H719 H 0.66734 0.85276 0.69348 0.0
H720 H 0.71485 0.87469 0.73404 0.0
S721 S 0.53991 0.81234 0.78288 0.0
N722 N 0.54128 0.80979 0.74857 0.0
N723 N 0.59251 0.83339 0.79262 0.0
C724 C 0.61376 0.83914 0.76749 0.0
C725 C 0.58625 0.826 0.74374 0.0
C726 C 0.81616 0.43712 0.22709 0.0
C727 C 0.82683 0.42254 0.25429 0.0
C728 C 0.82937 0.40894 0.20431 0.0
C729 C 0.85343 0.36546 0.20815 0.0
H730 H 0.80023 0.47173 0.22339 0.0
H731 H 0.82246 0.42199 0.18351 0.0
S732 S 0.88793 0.31164 0.27566 0.0
N733 N 0.86102 0.36193 0.28411 0.0
N734 N 0.88595 0.30873 0.2414 0.0
C735 C 0.86207 0.34959 0.23542 0.0
C736 C 0.84877 0.37832 0.2585 0.0
C737 C 0.35992 0.19485 0.73689 0.0
C738 C 0.37931 0.19114 0.76385 0.0
C739 C 0.38849 0.20729 0.71414 0.0
C740 C 0.43727 0.21669 0.71764 0.0
H741 H 0.32301 0.18544 0.73303 0.0
H742 H 0.37298 0.20688 0.69351 0.0
S743 S 0.50433 0.21775 0.78398 0.0
N744 N 0.44938 0.20274 0.79294 0.0
N745 N 0.50335 0.22512 0.74991 0.0
C746 C 0.45666 0.21569 0.74452 0.0
C747 C 0.42758 0.20316 0.76772 0.0
C748 C 0.23063 0.41447 0.72845 0.0
C749 C 0.21064 0.45975 0.72451 0.0
C750 C 0.2179 0.38668 0.75149 0.0
C751 C 0.18417 0.40289 0.7711 0.0
H752 H 0.25324 0.39893 0.71262 0.0
H753 H 0.23214 0.3509 0.75291 0.0
S754 S 0.13108 0.52437 0.7731 0.0
N755 N 0.16379 0.52386 0.74461 0.0
N756 N 0.13777 0.47109 0.78718 0.0
C757 C 0.16836 0.45046 0.76892 0.0
C758 C 0.18206 0.47897 0.74572 0.0
C759 C 0.43529 0.82737 0.23606 0.0
C760 C 0.42567 0.84996 0.26153 0.0
C761 C 0.40837 0.83803 0.21228 0.0
C762 C 0.37061 0.87082 0.21347 0.0
H763 H 0.46519 0.80314 0.23423 0.0
H764 H 0.4176 0.82139 0.1927 0.0
S765 S 0.33019 0.93768 0.27563 0.0
N766 N 0.37524 0.90509 0.28689 0.0
N767 N 0.32421 0.92473 0.24231 0.0
C768 C 0.35952 0.89208 0.23911 0.0
C769 C 0.38723 0.88172 0.26315 0.0
C770 C 0.83205 0.64329 0.71491 0.0
C771 C 0.82845 0.59351 0.71641 0.0
C772 C 0.84229 0.67026 0.73866 0.0
C773 C 0.84922 0.64831 0.76474 0.0
H774 H 0.82958 0.66119 0.695 0.0
H775 H 0.84729 0.70833 0.73619 0.0
S776 S 0.83737 0.51896 0.77974 0.0
N777 N 0.82872 0.52319 0.74586 0.0
N778 N 0.84652 0.57404 0.79088 0.0
C779 C 0.84287 0.59862 0.76666 0.0
C780 C 0.83282 0.57116 0.74238 0.0
C781 C 0.5877 0.18787 0.23243 0.0
C782 C 0.60844 0.18818 0.25903 0.0
C783 C 0.61523 0.17912 0.20875 0.0
C784 C 0.66442 0.17024 0.21086 0.0
H785 H 0.54953 0.1925 0.23009 0.0
H786 H 0.59771 0.17791 0.18869 0.0
S787 S 0.73559 0.16828 0.276 0.0
N788 N 0.68077 0.18051 0.28631 0.0
N789 N 0.73291 0.16348 0.24181 0.0
C790 C 0.68593 0.17246 0.23732 0.0
C791 C 0.65778 0.18157 0.26144 0.0
C792 C 0.68252 0.18411 0.73348 0.0
C793 C 0.68439 0.16418 0.70661 0.0
C794 C 0.69333 0.1568 0.757 0.0
C795 C 0.70683 0.10889 0.75439 0.0
H796 H 0.67015 0.2203 0.73648 0.0
H797 H 0.68882 0.1725 0.77742 0.0
S798 S 0.72202 0.04121 0.6889 0.0
N799 N 0.70459 0.09476 0.67878 0.0
N800 N 0.72447 0.04319 0.7232 0.0
C801 C 0.71111 0.08912 0.72772 0.0
C802 C 0.69999 0.11685 0.70375 0.0
C803 C 0.12366 0.34845 0.25622 0.0
C804 C 0.16689 0.37353 0.25356 0.0
C805 C 0.09613 0.33717 0.23279 0.0
C806 C 0.11095 0.35113 0.20613 0.0
H807 H 0.11085 0.33821 0.2766 0.0
H808 H 0.06216 0.31923 0.2356 0.0
S809 S 0.22069 0.41791 0.18806 0.0
N810 N 0.22324 0.41179 0.22219 0.0
N811 N 0.17093 0.39104 0.17817 0.0
C812 C 0.15436 0.37544 0.20311 0.0
C813 C 0.18259 0.38651 0.22687 0.0
C814 C 0.3549 0.86231 0.7304 0.0
C815 C 0.35316 0.88025 0.70309 0.0
C816 C 0.34124 0.89048 0.75303 0.0
C817 C 0.32481 0.93718 0.74901 0.0
H818 H 0.36942 0.82723 0.73444 0.0
H819 H 0.34592 0.87662 0.77387 0.0
S820 S 0.30808 0.99886 0.68172 0.0
N821 N 0.3297 0.94602 0.67321 0.0
N822 N 0.30419 0.99922 0.71598 0.0
C823 C 0.32041 0.9547 0.72184 0.0
C824 C 0.33457 0.92613 0.69878 0.0
C825 C 0.94441 0.70518 0.23695 0.0
C826 C 0.9241 0.70177 0.21031 0.0
C827 C 0.91796 0.69315 0.26067 0.0
C828 C 0.87047 0.67732 0.25844 0.0
H829 H 0.98167 0.71487 0.2393 0.0
H830 H 0.93512 0.69482 0.28082 0.0
S831 S 0.80147 0.66278 0.19299 0.0
N832 N 0.85421 0.68255 0.18282 0.0
N833 N 0.80419 0.6596 0.22723 0.0
C834 C 0.84934 0.67554 0.23185 0.0
C835 C 0.87633 0.6878 0.20779 0.0
C836 C 0.67577 0.95439 0.23926 0.0
C837 C 0.70407 0.93639 0.21762 0.0
C838 C 0.66561 0.9269 0.26267 0.0
C839 C 0.68354 0.88027 0.26546 0.0
H840 H 0.65939 0.98925 0.23744 0.0
H841 H 0.64096 0.94144 0.27771 0.0
S842 S 0.76681 0.82024 0.21673 0.0
N843 N 0.75469 0.87178 0.20165 0.0
N844 N 0.73707 0.82023 0.24637 0.0
C845 C 0.71546 0.8635 0.24505 0.0
C846 C 0.7255 0.89159 0.22098 0.0
C847 C 0.8863 0.36444 0.75294 0.0
C848 C 0.92836 0.33747 0.75165 0.0
C849 C 0.86044 0.37479 0.72883 0.0
C850 C 0.87643 0.35932 0.70266 0.0
H851 H 0.87422 0.37885 0.77261 0.0
H852 H 0.82879 0.39669 0.73046 0.0
S853 S 0.98358 0.28666 0.68836 0.0
N854 N 0.98415 0.29423 0.72243 0.0
N855 N 0.93562 0.31466 0.67685 0.0
C856 C 0.91784 0.33161 0.70115 0.0
C857 C 0.9438 0.32035 0.72577 0.0
C858 C 0.32524 0.11009 0.22513 0.0
C859 C 0.35318 0.1175 0.20125 0.0
C860 C 0.3347 0.13536 0.24973 0.0
C861 C 0.37174 0.16918 0.2509 0.0
H862 H 0.29785 0.0827 0.22525 0.0
H863 H 0.31389 0.1277 0.26816 0.0
S864 S 0.45407 0.20217 0.19377 0.0
N865 N 0.41847 0.16138 0.18004 0.0
N866 N 0.43575 0.20942 0.22611 0.0
C867 C 0.39857 0.17819 0.22683 0.0
C868 C 0.38936 0.15217 0.20199 0.0
C869 C 0.08045 0.707 0.72637 0.0
C870 C 0.09724 0.69607 0.75316 0.0
C871 C 0.10808 0.69661 0.70281 0.0
C872 C 0.15333 0.67571 0.70554 0.0
H873 H 0.04522 0.72211 0.72362 0.0
H874 H 0.09406 0.7046 0.68236 0.0
S875 S 0.21231 0.63949 0.77119 0.0
N876 N 0.16097 0.6627 0.78112 0.0
N877 N 0.21321 0.64379 0.73696 0.0
C878 C 0.17054 0.66525 0.73227 0.0
C879 C 0.14234 0.67529 0.75609 0.0
C880 C 0.23211 0.47052 0.49964 0.0
C881 C 0.24072 0.51161 0.51558 0.0
C882 C 0.22642 0.47355 0.4707 0.0
C883 C 0.22963 0.51777 0.45678 0.0
H884 H 0.22803 0.43623 0.50975 0.0
H885 H 0.21793 0.44131 0.4593 0.0
S886 S 0.25912 0.63449 0.48887 0.0
N887 N 0.25675 0.59687 0.51523 0.0
N888 N 0.24731 0.60239 0.4609 0.0
C889 C 0.24064 0.55862 0.47243 0.0
C890 C 0.24593 0.55557 0.50181 0.0
C891 C 0.54081 0.78551 0.46936 0.0
C892 C 0.5211 0.82582 0.45653 0.0
C893 C 0.54732 0.784 0.4982 0.0
C894 C 0.53404 0.82274 0.51511 0.0
H895 H 0.55071 0.75487 0.45693 0.0
H896 H 0.56136 0.7517 0.5074 0.0
S897 S 0.48403 0.93789 0.49063 0.0
N898 N 0.49056 0.90597 0.462 0.0
N899 N 0.5029 0.9038 0.5164 0.0
C900 C 0.51544 0.86385 0.50222 0.0
C901 C 0.50899 0.86525 0.47283 0.0
C902 C 0.85675 0.51979 0.46652 0.0
C903 C 0.81395 0.50951 0.45237 0.0
C904 C 0.85709 0.52728 0.49541 0.0
C905 C 0.81445 0.52621 0.51074 0.0
H906 H 0.89004 0.52164 0.45515 0.0
H907 H 0.89063 0.5344 0.50584 0.0
S908 S 0.69323 0.50161 0.48353 0.0
N909 N 0.72806 0.49894 0.45591 0.0
N910 N 0.7288 0.51369 0.51001 0.0
C911 C 0.77158 0.51625 0.49683 0.0
C912 C 0.7713 0.50775 0.46766 0.0
C913 C 0.47374 0.19726 0.47176 0.0
C914 C 0.51666 0.20306 0.45682 0.0
C915 C 0.47156 0.20613 0.50046 0.0
C916 C 0.5123 0.22058 0.51527 0.0
H917 H 0.44175 0.18506 0.46129 0.0
H918 H 0.43812 0.20069 0.51129 0.0
S919 S 0.63176 0.24649 0.4858 0.0
N920 N 0.59969 0.22858 0.45892 0.0
N921 N 0.5957 0.24371 0.51286 0.0
C922 C 0.55507 0.22749 0.50061 0.0
C923 C 0.55724 0.21906 0.4714 0.0
C924 C 0.68101 0.0449 0.97313 0.0
C925 C 0.71513 0.02228 0.95653 0.0
C926 C 0.67981 0.03705 0.00193 0.0
C927 C 0.71293 1.00653 0.01504 0.0
H928 H 0.65533 0.0688 0.96375 0.0
H929 H 0.65296 0.05533 0.01404 0.0
S930 S 0.80893 0.93861 0.97951 0.0
N931 N 0.78155 0.96753 0.95425 0.0
N932 N 0.78085 0.95353 0.00838 0.0
C933 C 0.74674 0.98312 -0.00178 0.0
C934 C 0.74751 0.99093 0.96895 0.0
C935 C 0.99552 0.28003 0.97089 0.0
C936 C 1.00701 0.31778 0.9528 0.0
C937 C 1.00114 0.28491 -0.00032 0.0
C938 C 0.01907 0.32737 0.01126 0.0
H939 H 0.983 0.24624 0.96271 0.0
H940 H 0.99187 0.25522 0.01306 0.0
S941 S 0.04929 0.43843 0.97358 0.0
N942 N 0.03297 0.4006 0.94898 0.0
N943 N 0.04507 0.4087 0.00313 0.0
C944 C 0.02992 0.36557 -0.00637 0.0
C945 C 0.02348 0.36104 0.96437 0.0
C946 C 0.36551 0.0249 -0.01082 0.0
C947 C 0.32975 1.01122 0.00799 0.0
C948 C 0.35799 0.02174 0.96041 0.0
C949 C 0.31428 1.00522 0.94948 0.0
H950 H 0.39958 0.03771 -0.00319 0.0
H951 H 0.38658 0.03235 0.94659 0.0
S952 S 0.20788 0.96954 -0.00962 0.0
N953 N 0.24858 0.98281 0.01402 0.0
N954 N 0.23387 0.97786 0.95998 0.0
C955 C 0.27811 0.99191 0.9682 0.0
C956 C 0.28598 0.99473 -0.00254 0.0
C957 C 0.06032 0.71382 0.9684 0.0
C958 C 0.02429 0.73551 0.95269 0.0
C959 C 0.05646 0.71036 -0.00257 0.0
C960 C 1.01667 0.72907 0.0117 0.0
H961 H 0.0908 0.69815 0.95806 0.0
H962 H 0.08431 0.69184 0.00862 0.0
S963 S 0.91576 0.79467 0.97949 0.0
N964 N 0.94952 0.77861 0.95301 0.0
N965 N 0.94284 0.7742 0.00754 0.0
C966 C 0.98138 0.75258 -0.00397 0.0
C967 C 0.98508 0.75532 0.96653 0.0
loop_
_geom_bond_atom_site_label_1
_geom_bond_atom_site_label_2
_geom_bond_distance
_geom_bond_site_symmetry_2
_ccdc_geom_bond_type
C0 C1 1.351 . S
C0 N3 1.368 . S
C0 H5 0.931 . S
C1 C0 1.351 . S
C1 N2 1.373 . S
C1 H29 0.930 . S
N2 C1 1.373 . S
N2 C4 1.340 . S
N3 C0 1.368 . S
N3 C4 1.321 . S
N3 Co6 2.135 . S
C4 N2 1.340 . S
C4 N3 1.321 . S
C4 H28 0.930 . S
H5 C0 0.931 . S
Co6 N3 2.135 . S
Co6 N9 2.121 . S
Co6 O14 2.055 . S
Co6 O17 2.039 . S
Co6 N20 2.140 . S
C7 O8 1.227 . S
C7 O17 1.265 . S
O8 C7 1.227 . S
N9 Co6 2.121 . S
N9 C11 1.375 . S
N9 C12 1.313 . S
C10 C11 1.338 . S
C10 N13 1.377 . S
C10 H30 0.930 . S
C11 N9 1.375 . S
C11 C10 1.338 . S
C11 H15 0.931 . S
C12 N9 1.313 . S
C12 N13 1.344 . S
C12 H16 0.930 . S
N13 C10 1.377 . S
N13 C12 1.344 . S
O14 Co6 2.055 . S
O14 C18 1.253 . S
H15 C11 0.931 . S
H16 C12 0.930 . S
O17 Co6 2.039 . S
O17 C7 1.265 . S
C18 O14 1.253 . S
C18 O19 1.227 . S
O19 C18 1.227 . S
N20 Co6 2.140 . S
N20 C23 1.346 . S
N20 C24 1.345 . S
C21 C22 1.387 . S
C21 C25 1.391 . S
C22 C21 1.387 . S
C22 C23 1.369 . S
C22 H31 0.929 . S
C23 N20 1.346 . S
C23 C22 1.369 . S
C23 H26 0.928 . S
C24 N20 1.345 . S
C24 C25 1.371 . S
C24 H27 0.931 . S
C25 C21 1.391 . S
C25 C24 1.371 . S
C25 H32 0.930 . S
H26 C23 0.928 . S
H27 C24 0.931 . S
H28 C4 0.930 . S
H29 C1 0.930 . S
H30 C10 0.930 . S
H31 C22 0.929 . S
H32 C25 0.930 . S
C33 C34 1.351 . S
C33 N36 1.368 . S
C33 H38 0.931 . S
C34 C33 1.351 . S
C34 N35 1.373 . S
C34 H62 0.930 . S
N35 C34 1.373 . S
N35 C37 1.340 . S
N36 C33 1.368 . S
N36 C37 1.321 . S
N36 Co39 2.135 . S
C37 N35 1.340 . S
C37 N36 1.321 . S
C37 H61 0.930 . S
H38 C33 0.931 . S
Co39 N36 2.135 . S
Co39 N42 2.121 . S
Co39 O47 2.055 . S
Co39 O50 2.039 . S
Co39 N53 2.140 . S
C40 O41 1.227 . S
C40 O50 1.265 . S
O41 C40 1.227 . S
N42 Co39 2.121 . S
N42 C44 1.375 . S
N42 C45 1.313 . S
C43 C44 1.338 . S
C43 N46 1.377 . S
C43 H63 0.930 . S
C44 N42 1.375 . S
C44 C43 1.338 . S
C44 H48 0.931 . S
C45 N42 1.313 . S
C45 N46 1.344 . S
C45 H49 0.930 . S
N46 C43 1.377 . S
N46 C45 1.344 . S
O47 Co39 2.055 . S
O47 C51 1.253 . S
H48 C44 0.931 . S
H49 C45 0.930 . S
O50 Co39 2.039 . S
O50 C40 1.265 . S
C51 O47 1.253 . S
C51 O52 1.227 . S
O52 C51 1.227 . S
N53 Co39 2.140 . S
N53 C56 1.346 . S
N53 C57 1.345 . S
C54 C55 1.387 . S
C54 C58 1.391 . S
C55 C54 1.387 . S
C55 C56 1.369 . S
C55 H64 0.929 . S
C56 N53 1.346 . S
C56 C55 1.369 . S
C56 H59 0.928 . S
C57 N53 1.345 . S
C57 C58 1.371 . S
C57 H60 0.931 . S
C58 C54 1.391 . S
C58 C57 1.371 . S
C58 H65 0.930 . S
H59 C56 0.928 . S
H60 C57 0.931 . S
H61 C37 0.930 . S
H62 C34 0.930 . S
H63 C43 0.930 . S
H64 C55 0.929 . S
H65 C58 0.930 . S
C66 C67 1.351 . S
C66 N69 1.368 . S
C66 H71 0.931 . S
C67 C66 1.351 . S
C67 N68 1.373 . S
C67 H95 0.930 . S
N68 C67 1.373 . S
N68 C70 1.340 . S
N69 C66 1.368 . S
N69 C70 1.321 . S
N69 Co72 2.135 . S
C70 N68 1.340 . S
C70 N69 1.321 . S
C70 H94 0.930 . S
H71 C66 0.931 . S
Co72 N69 2.135 . S
Co72 N75 2.121 . S
Co72 O80 2.055 . S
Co72 O83 2.039 . S
Co72 N86 2.140 . S
C73 O74 1.227 . S
C73 O83 1.265 . S
O74 C73 1.227 . S
N75 Co72 2.121 . S
N75 C77 1.375 . S
N75 C78 1.313 . S
C76 C77 1.338 . S
C76 N79 1.377 . S
C76 H96 0.930 . S
C77 N75 1.375 . S
C77 C76 1.338 . S
C77 H81 0.931 . S
C78 N75 1.313 . S
C78 N79 1.344 . S
C78 H82 0.930 . S
N79 C76 1.377 . S
N79 C78 1.344 . S
O80 Co72 2.055 . S
O80 C84 1.253 . S
H81 C77 0.931 . S
H82 C78 0.930 . S
O83 Co72 2.039 . S
O83 C73 1.265 . S
C84 O80 1.253 . S
C84 O85 1.227 . S
O85 C84 1.227 . S
N86 Co72 2.140 . S
N86 C89 1.346 . S
N86 C90 1.345 . S
C87 C88 1.387 . S
C87 C91 1.391 . S
C88 C87 1.387 . S
C88 C89 1.369 . S
C88 H97 0.929 . S
C89 N86 1.346 . S
C89 C88 1.369 . S
C89 H92 0.928 . S
C90 N86 1.345 . S
C90 C91 1.371 . S
C90 H93 0.931 . S
C91 C87 1.391 . S
C91 C90 1.371 . S
C91 H98 0.930 . S
H92 C89 0.928 . S
H93 C90 0.931 . S
H94 C70 0.930 . S
H95 C67 0.930 . S
H96 C76 0.930 . S
H97 C88 0.929 . S
H98 C91 0.930 . S
C99 C100 1.351 . S
C99 N102 1.368 . S
C99 H104 0.931 . S
C100 C99 1.351 . S
C100 N101 1.373 . S
C100 H128 0.930 . S
N101 C100 1.373 . S
N101 C103 1.340 . S
N102 C99 1.368 . S
N102 C103 1.321 . S
N102 Co105 2.135 . S
C103 N101 1.340 . S
C103 N102 1.321 . S
C103 H127 0.930 . S
H104 C99 0.931 . S
Co105 N102 2.135 . S
Co105 N108 2.121 . S
Co105 O113 2.055 . S
Co105 O116 2.039 . S
Co105 N119 2.140 . S
C106 O107 1.227 . S
C106 O116 1.265 . S
O107 C106 1.227 . S
N108 Co105 2.121 . S
N108 C110 1.375 . S
N108 C111 1.313 . S
C109 C110 1.338 . S
C109 N112 1.377 . S
C109 H129 0.930 . S
C110 N108 1.375 . S
C110 C109 1.338 . S
C110 H114 0.931 . S
C111 N108 1.313 . S
C111 N112 1.344 . S
C111 H115 0.930 . S
N112 C109 1.377 . S
N112 C111 1.344 . S
O113 Co105 2.055 . S
O113 C117 1.253 . S
H114 C110 0.931 . S
H115 C111 0.930 . S
O116 Co105 2.039 . S
O116 C106 1.265 . S
C117 O113 1.253 . S
C117 O118 1.227 . S
O118 C117 1.227 . S
N119 Co105 2.140 . S
N119 C122 1.346 . S
N119 C123 1.345 . S
C120 C121 1.387 . S
C120 C124 1.391 . S
C121 C120 1.387 . S
C121 C122 1.369 . S
C121 H130 0.929 . S
C122 N119 1.346 . S
C122 C121 1.369 . S
C122 H125 0.928 . S
C123 N119 1.345 . S
C123 C124 1.371 . S
C123 H126 0.931 . S
C124 C120 1.391 . S
C124 C123 1.371 . S
C124 H131 0.930 . S
H125 C122 0.928 . S
H126 C123 0.931 . S
H127 C103 0.930 . S
H128 C100 0.930 . S
H129 C109 0.930 . S
H130 C121 0.929 . S
H131 C124 0.930 . S
C132 C133 1.351 . S
C132 N135 1.368 . S
C132 H137 0.931 . S
C133 C132 1.351 . S
C133 N134 1.373 . S
C133 H161 0.930 . S
N134 C133 1.373 . S
N134 C136 1.340 . S
N135 C132 1.368 . S
N135 C136 1.321 . S
N135 Co138 2.135 . S
C136 N134 1.340 . S
C136 N135 1.321 . S
C136 H160 0.930 . S
H137 C132 0.931 . S
Co138 N135 2.135 . S
Co138 N141 2.121 . S
Co138 O146 2.055 . S
Co138 O149 2.039 . S
Co138 N152 2.140 . S
C139 O140 1.227 . S
C139 O149 1.265 . S
O140 C139 1.227 . S
N141 Co138 2.121 . S
N141 C143 1.375 . S
N141 C144 1.313 . S
C142 C143 1.338 . S
C142 N145 1.377 . S
C142 H162 0.930 . S
C143 N141 1.375 . S
C143 C142 1.338 . S
C143 H147 0.931 . S
C144 N141 1.313 . S
C144 N145 1.344 . S
C144 H148 0.930 . S
N145 C142 1.377 . S
N145 C144 1.344 . S
O146 Co138 2.055 . S
O146 C150 1.253 . S
H147 C143 0.931 . S
H148 C144 0.930 . S
O149 Co138 2.039 . S
O149 C139 1.265 . S
C150 O146 1.253 . S
C150 O151 1.227 . S
O151 C150 1.227 . S
N152 Co138 2.140 . S
N152 C155 1.346 . S
N152 C156 1.345 . S
C153 C154 1.387 . S
C153 C157 1.391 . S
C154 C153 1.387 . S
C154 C155 1.369 . S
C154 H163 0.929 . S
C155 N152 1.346 . S
C155 C154 1.369 . S
C155 H158 0.928 . S
C156 N152 1.345 . S
C156 C157 1.371 . S
C156 H159 0.931 . S
C157 C153 1.391 . S
C157 C156 1.371 . S
C157 H164 0.930 . S
H158 C155 0.928 . S
H159 C156 0.931 . S
H160 C136 0.930 . S
H161 C133 0.930 . S
H162 C142 0.930 . S
H163 C154 0.929 . S
H164 C157 0.930 . S
C165 C166 1.351 . S
C165 N168 1.368 . S
C165 H170 0.931 . S
C166 C165 1.351 . S
C166 N167 1.373 . S
C166 H194 0.930 . S
N167 C166 1.373 . S
N167 C169 1.340 . S
N168 C165 1.368 . S
N168 C169 1.321 . S
N168 Co171 2.135 . S
C169 N167 1.340 . S
C169 N168 1.321 . S
C169 H193 0.930 . S
H170 C165 0.931 . S
Co171 N168 2.135 . S
Co171 N174 2.121 . S
Co171 O179 2.055 . S
Co171 O182 2.039 . S
Co171 N185 2.140 . S
C172 O173 1.227 . S
C172 O182 1.265 . S
O173 C172 1.227 . S
N174 Co171 2.121 . S
N174 C176 1.375 . S
N174 C177 1.313 . S
C175 C176 1.338 . S
C175 N178 1.377 . S
C175 H195 0.930 . S
C176 N174 1.375 . S
C176 C175 1.338 . S
C176 H180 0.931 . S
C177 N174 1.313 . S
C177 N178 1.344 . S
C177 H181 0.930 . S
N178 C175 1.377 . S
N178 C177 1.344 . S
O179 Co171 2.055 . S
O179 C183 1.253 . S
H180 C176 0.931 . S
H181 C177 0.930 . S
O182 Co171 2.039 . S
O182 C172 1.265 . S
C183 O179 1.253 . S
C183 O184 1.227 . S
O184 C183 1.227 . S
N185 Co171 2.140 . S
N185 C188 1.346 . S
N185 C189 1.345 . S
C186 C187 1.387 . S
C186 C190 1.391 . S
C187 C186 1.387 . S
C187 C188 1.369 . S
C187 H196 0.929 . S
C188 N185 1.346 . S
C188 C187 1.369 . S
C188 H191 0.928 . S
C189 N185 1.345 . S
C189 C190 1.371 . S
C189 H192 0.931 . S
C190 C186 1.391 . S
C190 C189 1.371 . S
C190 H197 0.930 . S
H191 C188 0.928 . S
H192 C189 0.931 . S
H193 C169 0.930 . S
H194 C166 0.930 . S
H195 C175 0.930 . S
H196 C187 0.929 . S
H197 C190 0.930 . S
C198 C199 1.351 . S
C198 N201 1.368 . S
C198 H203 0.931 . S
C199 C198 1.351 . S
C199 N200 1.373 . S
C199 H227 0.930 . S
N200 C199 1.373 . S
N200 C202 1.340 . S
N201 C198 1.368 . S
N201 C202 1.321 . S
N201 Co204 2.135 . S
C202 N200 1.340 . S
C202 N201 1.321 . S
C202 H226 0.930 . S
H203 C198 0.931 . S
Co204 N201 2.135 . S
Co204 N207 2.121 . S
Co204 O212 2.055 . S
Co204 O215 2.039 . S
Co204 N218 2.140 . S
C205 O206 1.227 . S
C205 O215 1.265 . S
O206 C205 1.227 . S
N207 Co204 2.121 . S
N207 C209 1.375 . S
N207 C210 1.313 . S
C208 C209 1.338 . S
C208 N211 1.377 . S
C208 H228 0.930 . S
C209 N207 1.375 . S
C209 C208 1.338 . S
C209 H213 0.931 . S
C210 N207 1.313 . S
C210 N211 1.344 . S
C210 H214 0.930 . S
N211 C208 1.377 . S
N211 C210 1.344 . S
O212 Co204 2.055 . S
O212 C216 1.253 . S
H213 C209 0.931 . S
H214 C210 0.930 . S
O215 Co204 2.039 . S
O215 C205 1.265 . S
C216 O212 1.253 . S
C216 O217 1.227 . S
O217 C216 1.227 . S
N218 Co204 2.140 . S
N218 C221 1.346 . S
N218 C222 1.345 . S
C219 C220 1.387 . S
C219 C223 1.391 . S
C220 C219 1.387 . S
C220 C221 1.369 . S
C220 H229 0.929 . S
C221 N218 1.346 . S
C221 C220 1.369 . S
C221 H224 0.928 . S
C222 N218 1.345 . S
C222 C223 1.371 . S
C222 H225 0.931 . S
C223 C219 1.391 . S
C223 C222 1.371 . S
C223 H230 0.930 . S
H224 C221 0.928 . S
H225 C222 0.931 . S
H226 C202 0.930 . S
H227 C199 0.930 . S
H228 C208 0.930 . S
H229 C220 0.929 . S
H230 C223 0.930 . S
C231 C232 1.351 . S
C231 N234 1.368 . S
C231 H236 0.931 . S
C232 C231 1.351 . S
C232 N233 1.373 . S
C232 H260 0.930 . S
N233 C232 1.373 . S
N233 C235 1.340 . S
N234 C231 1.368 . S
N234 C235 1.321 . S
N234 Co237 2.135 . S
C235 N233 1.340 . S
C235 N234 1.321 . S
C235 H259 0.930 . S
H236 C231 0.931 . S
Co237 N234 2.135 . S
Co237 N240 2.121 . S
Co237 O245 2.055 . S
Co237 O248 2.039 . S
Co237 N251 2.140 . S
C238 O239 1.227 . S
C238 O248 1.265 . S
O239 C238 1.227 . S
N240 Co237 2.121 . S
N240 C242 1.375 . S
N240 C243 1.313 . S
C241 C242 1.338 . S
C241 N244 1.377 . S
C241 H261 0.930 . S
C242 N240 1.375 . S
C242 C241 1.338 . S
C242 H246 0.931 . S
C243 N240 1.313 . S
C243 N244 1.344 . S
C243 H247 0.930 . S
N244 C241 1.377 . S
N244 C243 1.344 . S
O245 Co237 2.055 . S
O245 C249 1.253 . S
H246 C242 0.931 . S
H247 C243 0.930 . S
O248 Co237 2.039 . S
O248 C238 1.265 . S
C249 O245 1.253 . S
C249 O250 1.227 . S
O250 C249 1.227 . S
N251 Co237 2.140 . S
N251 C254 1.346 . S
N251 C255 1.345 . S
C252 C253 1.387 . S
C252 C256 1.391 . S
C253 C252 1.387 . S
C253 C254 1.369 . S
C253 H262 0.929 . S
C254 N251 1.346 . S
C254 C253 1.369 . S
C254 H257 0.928 . S
C255 N251 1.345 . S
C255 C256 1.371 . S
C255 H258 0.931 . S
C256 C252 1.391 . S
C256 C255 1.371 . S
C256 H263 0.930 . S
H257 C254 0.928 . S
H258 C255 0.931 . S
H259 C235 0.930 . S
H260 C232 0.930 . S
H261 C241 0.930 . S
H262 C253 0.929 . S
H263 C256 0.930 . S
C264 C265 1.351 . S
C264 N267 1.368 . S
C264 H269 0.931 . S
C265 C264 1.351 . S
C265 N266 1.373 . S
C265 H293 0.930 . S
N266 C265 1.373 . S
N266 C268 1.340 . S
N267 C264 1.368 . S
N267 C268 1.321 . S
N267 Co270 2.135 . S
C268 N266 1.340 . S
C268 N267 1.321 . S
C268 H292 0.930 . S
H269 C264 0.931 . S
Co270 N267 2.135 . S
Co270 N273 2.121 . S
Co270 O278 2.055 . S
Co270 O281 2.039 . S
Co270 N284 2.140 . S
C271 O272 1.227 . S
C271 O281 1.265 . S
O272 C271 1.227 . S
N273 Co270 2.121 . S
N273 C275 1.375 1_565 S
N273 C276 1.313 . S
C274 C275 1.338 . S
C274 N277 1.377 . S
C274 H294 0.930 . S
C275 N273 1.375 1_545 S
C275 C274 1.338 . S
C275 H279 0.931 . S
C276 N273 1.313 . S
C276 N277 1.344 1_565 S
C276 H280 0.930 . S
N277 C274 1.377 . S
N277 C276 1.344 1_545 S
O278 Co270 2.055 . S
O278 C282 1.253 . S
H279 C275 0.931 . S
H280 C276 0.930 . S
O281 Co270 2.039 . S
O281 C271 1.265 . S
C282 O278 1.253 . S
C282 O283 1.227 . S
O283 C282 1.227 . S
N284 Co270 2.140 . S
N284 C287 1.346 1_565 S
N284 C288 1.345 1_565 S
C285 C286 1.387 . S
C285 C289 1.391 . S
C286 C285 1.387 . S
C286 C287 1.369 . S
C286 H295 0.929 . S
C287 N284 1.346 1_545 S
C287 C286 1.369 . S
C287 H290 0.928 1_545 S
C288 N284 1.345 1_545 S
C288 C289 1.371 . S
C288 H291 0.931 . S
C289 C285 1.391 . S
C289 C288 1.371 . S
C289 H296 0.930 . S
H290 C287 0.928 1_565 S
H291 C288 0.931 . S
H292 C268 0.930 . S
H293 C265 0.930 . S
H294 C274 0.930 . S
H295 C286 0.929 . S
H296 C289 0.930 . S
C297 C298 1.351 . S
C297 N300 1.368 . S
C297 H302 0.931 . S
C298 C297 1.351 . S
C298 N299 1.373 . S
C298 H326 0.930 . S
N299 C298 1.373 . S
N299 C301 1.340 . S
N300 C297 1.368 . S
N300 C301 1.321 . S
N300 Co303 2.135 . S
C301 N299 1.340 . S
C301 N300 1.321 . S
C301 H325 0.930 . S
H302 C297 0.931 . S
Co303 N300 2.135 . S
Co303 N306 2.121 . S
Co303 O311 2.055 . S
Co303 O314 2.039 . S
Co303 N317 2.140 . S
C304 O305 1.227 . S
C304 O314 1.265 . S
O305 C304 1.227 . S
N306 Co303 2.121 . S
N306 C308 1.375 1_655 S
N306 C309 1.313 . S
C307 C308 1.338 . S
C307 N310 1.377 . S
C307 H327 0.930 . S
C308 N306 1.375 1_455 S
C308 C307 1.338 . S
C308 H312 0.931 . S
C309 N306 1.313 . S
C309 N310 1.344 1_655 S
C309 H313 0.930 . S
N310 C307 1.377 . S
N310 C309 1.344 1_455 S
O311 Co303 2.055 . S
O311 C315 1.253 . S
H312 C308 0.931 . S
H313 C309 0.930 . S
O314 Co303 2.039 . S
O314 C304 1.265 . S
C315 O311 1.253 . S
C315 O316 1.227 . S
O316 C315 1.227 . S
N317 Co303 2.140 . S
N317 C320 1.346 1_655 S
N317 C321 1.345 1_655 S
C318 C319 1.387 . S
C318 C322 1.391 . S
C319 C318 1.387 . S
C319 C320 1.369 . S
C319 H328 0.929 . S
C320 N317 1.346 1_455 S
C320 C319 1.369 . S
C320 H323 0.928 1_455 S
C321 N317 1.345 1_455 S
C321 C322 1.371 . S
C321 H324 0.931 . S
C322 C318 1.391 . S
C322 C321 1.371 . S
C322 H329 0.930 . S
H323 C320 0.928 1_655 S
H324 C321 0.931 . S
H325 C301 0.930 . S
H326 C298 0.930 . S
H327 C307 0.930 . S
H328 C319 0.929 . S
H329 C322 0.930 . S
C330 C331 1.351 . S
C330 N333 1.368 . S
C330 H335 0.931 . S
C331 C330 1.351 . S
C331 N332 1.373 . S
C331 H359 0.930 . S
N332 C331 1.373 . S
N332 C334 1.340 . S
N333 C330 1.368 . S
N333 C334 1.321 . S
N333 Co336 2.135 . S
C334 N332 1.340 . S
C334 N333 1.321 . S
C334 H358 0.930 . S
H335 C330 0.931 . S
Co336 N333 2.135 . S
Co336 N339 2.121 . S
Co336 O344 2.055 . S
Co336 O347 2.039 . S
Co336 N350 2.140 . S
C337 O338 1.227 . S
C337 O347 1.265 . S
O338 C337 1.227 . S
N339 Co336 2.121 . S
N339 C341 1.375 1_545 S
N339 C342 1.313 . S
C340 C341 1.338 . S
C340 N343 1.377 . S
C340 H360 0.930 . S
C341 N339 1.375 1_565 S
C341 C340 1.338 . S
C341 H345 0.931 . S
C342 N339 1.313 . S
C342 N343 1.344 1_545 S
C342 H346 0.930 . S
N343 C340 1.377 . S
N343 C342 1.344 1_565 S
O344 Co336 2.055 . S
O344 C348 1.253 . S
H345 C341 0.931 . S
H346 C342 0.930 . S
O347 Co336 2.039 . S
O347 C337 1.265 . S
C348 O344 1.253 . S
C348 O349 1.227 . S
O349 C348 1.227 . S
N350 Co336 2.140 . S
N350 C353 1.346 1_545 S
N350 C354 1.345 1_545 S
C351 C352 1.387 . S
C351 C355 1.391 . S
C352 C351 1.387 . S
C352 C353 1.369 . S
C352 H361 0.929 . S
C353 N350 1.346 1_565 S
C353 C352 1.369 . S
C353 H356 0.928 1_565 S
C354 N350 1.345 1_565 S
C354 C355 1.371 . S
C354 H357 0.931 . S
C355 C351 1.391 . S
C355 C354 1.371 . S
C355 H362 0.930 . S
H356 C353 0.928 1_545 S
H357 C354 0.931 . S
H358 C334 0.930 . S
H359 C331 0.930 . S
H360 C340 0.930 . S
H361 C352 0.929 . S
H362 C355 0.930 . S
C363 C364 1.351 . S
C363 N366 1.368 . S
C363 H368 0.931 . S
C364 C363 1.351 . S
C364 N365 1.373 . S
C364 H392 0.930 . S
N365 C364 1.373 . S
N365 C367 1.340 . S
N366 C363 1.368 . S
N366 C367 1.321 . S
N366 Co369 2.135 . S
C367 N365 1.340 . S
C367 N366 1.321 . S
C367 H391 0.930 . S
H368 C363 0.931 . S
Co369 N366 2.135 . S
Co369 N372 2.121 . S
Co369 O377 2.055 . S
Co369 O380 2.039 . S
Co369 N383 2.140 . S
C370 O371 1.227 . S
C370 O380 1.265 . S
O371 C370 1.227 . S
N372 Co369 2.121 . S
N372 C374 1.375 1_455 S
N372 C375 1.313 . S
C373 C374 1.338 . S
C373 N376 1.377 . S
C373 H393 0.930 . S
C374 N372 1.375 1_655 S
C374 C373 1.338 . S
C374 H378 0.931 . S
C375 N372 1.313 . S
C375 N376 1.344 1_455 S
C375 H379 0.930 . S
N376 C373 1.377 . S
N376 C375 1.344 1_655 S
O377 Co369 2.055 . S
O377 C381 1.253 . S
H378 C374 0.931 . S
H379 C375 0.930 . S
O380 Co369 2.039 . S
O380 C370 1.265 . S
C381 O377 1.253 . S
C381 O382 1.227 . S
O382 C381 1.227 . S
N383 Co369 2.140 . S
N383 C386 1.346 1_455 S
N383 C387 1.345 1_455 S
C384 C385 1.387 . S
C384 C388 1.391 . S
C385 C384 1.387 . S
C385 C386 1.369 . S
C385 H394 0.929 . S
C386 N383 1.346 1_655 S
C386 C385 1.369 . S
C386 H389 0.928 1_655 S
C387 N383 1.345 1_655 S
C387 C388 1.371 . S
C387 H390 0.931 . S
C388 C384 1.391 . S
C388 C387 1.371 . S
C388 H395 0.930 . S
H389 C386 0.928 1_455 S
H390 C387 0.931 . S
H391 C367 0.930 . S
H392 C364 0.930 . S
H393 C373 0.930 . S
H394 C385 0.929 . S
H395 C388 0.930 . S
C396 C397 1.351 . S
C396 N399 1.368 . S
C396 H401 0.931 . S
C397 C396 1.351 . S
C397 N398 1.373 . S
C397 H425 0.930 . S
N398 C397 1.373 . S
N398 C400 1.340 . S
N399 C396 1.368 . S
N399 C400 1.321 . S
N399 Co402 2.135 . S
C400 N398 1.340 . S
C400 N399 1.321 . S
C400 H424 0.930 . S
H401 C396 0.931 . S
Co402 N399 2.135 . S
Co402 N405 2.121 . S
Co402 O410 2.055 . S
Co402 O413 2.039 . S
Co402 N416 2.140 . S
C403 O404 1.227 . S
C403 O413 1.265 . S
O404 C403 1.227 . S
N405 Co402 2.121 . S
N405 C407 1.375 1_545 S
N405 C408 1.313 . S
C406 C407 1.338 . S
C406 N409 1.377 . S
C406 H426 0.930 . S
C407 N405 1.375 1_565 S
C407 C406 1.338 . S
C407 H411 0.931 . S
C408 N405 1.313 . S
C408 N409 1.344 1_545 S
C408 H412 0.930 . S
N409 C406 1.377 . S
N409 C408 1.344 1_565 S
O410 Co402 2.055 . S
O410 C414 1.253 . S
H411 C407 0.931 . S
H412 C408 0.930 . S
O413 Co402 2.039 . S
O413 C403 1.265 . S
C414 O410 1.253 . S
C414 O415 1.227 . S
O415 C414 1.227 . S
N416 Co402 2.140 . S
N416 C419 1.346 1_545 S
N416 C420 1.345 1_545 S
C417 C418 1.387 . S
C417 C421 1.391 . S
C418 C417 1.387 . S
C418 C419 1.369 . S
C418 H427 0.929 . S
C419 N416 1.346 1_565 S
C419 C418 1.369 . S
C419 H422 0.928 1_565 S
C420 N416 1.345 1_565 S
C420 C421 1.371 . S
C420 H423 0.931 . S
C421 C417 1.391 . S
C421 C420 1.371 . S
C421 H428 0.930 . S
H422 C419 0.928 1_545 S
H423 C420 0.931 . S
H424 C400 0.930 . S
H425 C397 0.930 . S
H426 C406 0.930 . S
H427 C418 0.929 . S
H428 C421 0.930 . S
C429 C430 1.351 . S
C429 N432 1.368 . S
C429 H434 0.931 . S
C430 C429 1.351 . S
C430 N431 1.373 . S
C430 H458 0.930 . S
N431 C430 1.373 . S
N431 C433 1.340 . S
N432 C429 1.368 . S
N432 C433 1.321 . S
N432 Co435 2.135 . S
C433 N431 1.340 . S
C433 N432 1.321 . S
C433 H457 0.930 . S
H434 C429 0.931 . S
Co435 N432 2.135 . S
Co435 N438 2.121 . S
Co435 O443 2.055 . S
Co435 O446 2.039 . S
Co435 N449 2.140 . S
C436 O437 1.227 . S
C436 O446 1.265 . S
O437 C436 1.227 . S
N438 Co435 2.121 . S
N438 C440 1.375 1_455 S
N438 C441 1.313 . S
C439 C440 1.338 . S
C439 N442 1.377 . S
C439 H459 0.930 . S
C440 N438 1.375 1_655 S
C440 C439 1.338 . S
C440 H444 0.931 . S
C441 N438 1.313 . S
C441 N442 1.344 1_455 S
C441 H445 0.930 . S
N442 C439 1.377 . S
N442 C441 1.344 1_655 S
O443 Co435 2.055 . S
O443 C447 1.253 . S
H444 C440 0.931 . S
H445 C441 0.930 . S
O446 Co435 2.039 . S
O446 C436 1.265 . S
C447 O443 1.253 . S
C447 O448 1.227 . S
O448 C447 1.227 . S
N449 Co435 2.140 . S
N449 C452 1.346 1_455 S
N449 C453 1.345 1_455 S
C450 C451 1.387 . S
C450 C454 1.391 . S
C451 C450 1.387 . S
C451 C452 1.369 . S
C451 H460 0.929 . S
C452 N449 1.346 1_655 S
C452 C451 1.369 . S
C452 H455 0.928 1_655 S
C453 N449 1.345 1_655 S
C453 C454 1.371 . S
C453 H456 0.931 . S
C454 C450 1.391 . S
C454 C453 1.371 . S
C454 H461 0.930 . S
H455 C452 0.928 1_455 S
H456 C453 0.931 . S
H457 C433 0.930 . S
H458 C430 0.930 . S
H459 C439 0.930 . S
H460 C451 0.929 . S
H461 C454 0.930 . S
C462 C463 1.351 . S
C462 N465 1.368 . S
C462 H467 0.931 . S
C463 C462 1.351 . S
C463 N464 1.373 . S
C463 H491 0.930 . S
N464 C463 1.373 . S
N464 C466 1.340 . S
N465 C462 1.368 . S
N465 C466 1.321 . S
N465 Co468 2.135 . S
C466 N464 1.340 . S
C466 N465 1.321 . S
C466 H490 0.930 . S
H467 C462 0.931 . S
Co468 N465 2.135 . S
Co468 N471 2.121 . S
Co468 O476 2.055 . S
Co468 O479 2.039 . S
Co468 N482 2.140 . S
C469 O470 1.227 . S
C469 O479 1.265 . S
O470 C469 1.227 . S
N471 Co468 2.121 . S
N471 C473 1.375 1_565 S
N471 C474 1.313 . S
C472 C473 1.338 . S
C472 N475 1.377 . S
C472 H492 0.930 . S
C473 N471 1.375 1_545 S
C473 C472 1.338 . S
C473 H477 0.931 . S
C474 N471 1.313 . S
C474 N475 1.344 1_565 S
C474 H478 0.930 . S
N475 C472 1.377 . S
N475 C474 1.344 1_545 S
O476 Co468 2.055 . S
O476 C480 1.253 . S
H477 C473 0.931 . S
H478 C474 0.930 . S
O479 Co468 2.039 . S
O479 C469 1.265 . S
C480 O476 1.253 . S
C480 O481 1.227 . S
O481 C480 1.227 . S
N482 Co468 2.140 . S
N482 C485 1.346 1_565 S
N482 C486 1.345 1_565 S
C483 C484 1.387 . S
C483 C487 1.391 . S
C484 C483 1.387 . S
C484 C485 1.369 . S
C484 H493 0.929 . S
C485 N482 1.346 1_545 S
C485 C484 1.369 . S
C485 H488 0.928 1_545 S
C486 N482 1.345 1_545 S
C486 C487 1.371 . S
C486 H489 0.931 . S
C487 C483 1.391 . S
C487 C486 1.371 . S
C487 H494 0.930 . S
H488 C485 0.928 1_565 S
H489 C486 0.931 . S
H490 C466 0.930 . S
H491 C463 0.930 . S
H492 C472 0.930 . S
H493 C484 0.929 . S
H494 C487 0.930 . S
C495 C496 1.351 . S
C495 N498 1.368 . S
C495 H500 0.931 . S
C496 C495 1.351 . S
C496 N497 1.373 . S
C496 H524 0.930 . S
N497 C496 1.373 . S
N497 C499 1.340 . S
N498 C495 1.368 . S
N498 C499 1.321 . S
N498 Co501 2.135 . S
C499 N497 1.340 . S
C499 N498 1.321 . S
C499 H523 0.930 . S
H500 C495 0.931 . S
Co501 N498 2.135 . S
Co501 N504 2.121 . S
Co501 O509 2.055 . S
Co501 O512 2.039 . S
Co501 N515 2.140 . S
C502 O503 1.227 . S
C502 O512 1.265 . S
O503 C502 1.227 . S
N504 Co501 2.121 . S
N504 C506 1.375 1_655 S
N504 C507 1.313 . S
C505 C506 1.338 . S
C505 N508 1.377 . S
C505 H525 0.930 . S
C506 N504 1.375 1_455 S
C506 C505 1.338 . S
C506 H510 0.931 . S
C507 N504 1.313 . S
C507 N508 1.344 1_655 S
C507 H511 0.930 . S
N508 C505 1.377 . S
N508 C507 1.344 1_455 S
O509 Co501 2.055 . S
O509 C513 1.253 . S
H510 C506 0.931 . S
H511 C507 0.930 . S
O512 Co501 2.039 . S
O512 C502 1.265 . S
C513 O509 1.253 . S
C513 O514 1.227 . S
O514 C513 1.227 . S
N515 Co501 2.140 . S
N515 C518 1.346 1_655 S
N515 C519 1.345 1_655 S
C516 C517 1.387 . S
C516 C520 1.391 . S
C517 C516 1.387 . S
C517 C518 1.369 . S
C517 H526 0.929 . S
C518 N515 1.346 1_455 S
C518 C517 1.369 . S
C518 H521 0.928 1_455 S
C519 N515 1.345 1_455 S
C519 C520 1.371 . S
C519 H522 0.931 . S
C520 C516 1.391 . S
C520 C519 1.371 . S
C520 H527 0.930 . S
H521 C518 0.928 1_655 S
H522 C519 0.931 . S
H523 C499 0.930 . S
H524 C496 0.930 . S
H525 C505 0.930 . S
H526 C517 0.929 . S
H527 C520 0.930 . S
C528 C529 1.369 . S
C528 C530 1.419 1_655 S
C528 H532 0.930 . S
C529 C528 1.369 . S
C529 C538 1.429 . S
C530 C528 1.419 1_455 S
C530 C531 1.363 . S
C530 H533 0.929 . S
C531 C530 1.363 . S
C531 C537 1.428 . S
H532 C528 0.930 . S
H533 C530 0.929 . S
S534 N535 1.613 1_455 S
S534 N536 1.610 . S
N535 S534 1.613 1_655 S
N535 C538 1.350 . S
N536 S534 1.610 . S
N536 C537 1.351 . S
C537 C531 1.428 . S
C537 N536 1.351 . S
C537 C538 1.434 1_455 S
C538 C529 1.429 . S
C538 N535 1.350 . S
C538 C537 1.434 1_655 S
C539 C540 1.369 . S
C539 C541 1.419 1_545 S
C539 H543 0.930 . S
C540 C539 1.369 . S
C540 C549 1.429 . S
C541 C539 1.419 1_565 S
C541 C542 1.363 . S
C541 H544 0.929 . S
C542 C541 1.363 . S
C542 C548 1.428 . S
H543 C539 0.930 . S
H544 C541 0.929 . S
S545 N546 1.613 . S
S545 N547 1.610 1_545 S
N546 S545 1.613 . S
N546 C549 1.350 . S
N547 S545 1.610 1_565 S
N547 C548 1.351 . S
C548 C542 1.428 . S
C548 N547 1.351 . S
C548 C549 1.434 1_565 S
C549 C540 1.429 . S
C549 N546 1.350 . S
C549 C548 1.434 1_545 S
C550 C551 1.369 . S
C550 C552 1.419 1_655 S
C550 H554 0.930 . S
C551 C550 1.369 . S
C551 C560 1.429 . S
C552 C550 1.419 1_455 S
C552 C553 1.363 . S
C552 H555 0.929 . S
C553 C552 1.363 . S
C553 C559 1.428 . S
H554 C550 0.930 . S
H555 C552 0.929 . S
S556 N557 1.613 1_455 S
S556 N558 1.610 . S
N557 S556 1.613 1_655 S
N557 C560 1.350 . S
N558 S556 1.610 . S
N558 C559 1.351 . S
C559 C553 1.428 . S
C559 N558 1.351 . S
C559 C560 1.434 1_455 S
C560 C551 1.429 . S
C560 N557 1.350 . S
C560 C559 1.434 1_655 S
C561 C562 1.369 1_545 S
C561 C563 1.419 . S
C561 H565 0.930 . S
C562 C561 1.369 1_565 S
C562 C571 1.429 . S
C563 C561 1.419 . S
C563 C564 1.363 . S
C563 H566 0.929 . S
C564 C563 1.363 . S
C564 C570 1.428 1_545 S
H565 C561 0.930 . S
H566 C563 0.929 . S
S567 N568 1.613 . S
S567 N569 1.610 . S
N568 S567 1.613 . S
N568 C571 1.350 . S
N569 S567 1.610 . S
N569 C570 1.351 . S
C570 C564 1.428 1_565 S
C570 N569 1.351 . S
C570 C571 1.434 . S
C571 C562 1.429 . S
C571 N568 1.350 . S
C571 C570 1.434 . S
C572 C573 1.369 . S
C572 C574 1.419 1_565 S
C572 H576 0.930 . S
C573 C572 1.369 . S
C573 C582 1.429 . S
C574 C572 1.419 1_545 S
C574 C575 1.363 . S
C574 H577 0.929 . S
C575 C574 1.363 . S
C575 C581 1.428 . S
H576 C572 0.930 . S
H577 C574 0.929 . S
S578 N579 1.613 . S
S578 N580 1.610 1_565 S
N579 S578 1.613 . S
N579 C582 1.350 . S
N580 S578 1.610 1_545 S
N580 C581 1.351 . S
C581 C575 1.428 . S
C581 N580 1.351 . S
C581 C582 1.434 1_545 S
C582 C573 1.429 . S
C582 N579 1.350 . S
C582 C581 1.434 1_565 S
C583 C584 1.369 1_455 S
C583 C585 1.419 . S
C583 H587 0.930 . S
C584 C583 1.369 1_655 S
C584 C593 1.429 . S
C585 C583 1.419 . S
C585 C586 1.363 . S
C585 H588 0.929 . S
C586 C585 1.363 . S
C586 C592 1.428 1_455 S
H587 C583 0.930 . S
H588 C585 0.929 . S
S589 N590 1.613 . S
S589 N591 1.610 . S
N590 S589 1.613 . S
N590 C593 1.350 . S
N591 S589 1.610 . S
N591 C592 1.351 . S
C592 C586 1.428 1_655 S
C592 N591 1.351 . S
C592 C593 1.434 . S
C593 C584 1.429 . S
C593 N590 1.350 . S
C593 C592 1.434 . S
C594 C595 1.369 1_545 S
C594 C596 1.419 . S
C594 H598 0.930 . S
C595 C594 1.369 1_565 S
C595 C604 1.429 . S
C596 C594 1.419 . S
C596 C597 1.363 . S
C596 H599 0.929 . S
C597 C596 1.363 . S
C597 C603 1.428 1_545 S
H598 C594 0.930 . S
H599 C596 0.929 . S
S600 N601 1.613 . S
S600 N602 1.610 . S
N601 S600 1.613 . S
N601 C604 1.350 . S
N602 S600 1.610 . S
N602 C603 1.351 . S
C603 C597 1.428 1_565 S
C603 N602 1.351 . S
C603 C604 1.434 . S
C604 C595 1.429 . S
C604 N601 1.350 . S
C604 C603 1.434 . S
C605 C606 1.369 . S
C605 C607 1.419 1_655 S
C605 H609 0.930 . S
C606 C605 1.369 . S
C606 C615 1.429 . S
C607 C605 1.419 1_455 S
C607 C608 1.363 . S
C607 H610 0.929 . S
C608 C607 1.363 . S
C608 C614 1.428 . S
H609 C605 0.930 . S
H610 C607 0.929 . S
S611 N612 1.613 . S
S611 N613 1.610 1_655 S
N612 S611 1.613 . S
N612 C615 1.350 . S
N613 S611 1.610 1_455 S
N613 C614 1.351 . S
C614 C608 1.428 . S
C614 N613 1.351 . S
C614 C615 1.434 1_455 S
C615 C606 1.429 . S
C615 N612 1.350 . S
C615 C614 1.434 1_655 S
C616 C617 1.369 . S
C616 C618 1.419 . S
C616 H620 0.930 . S
C617 C616 1.369 . S
C617 C626 1.429 . S
C618 C616 1.419 . S
C618 C619 1.363 . S
C618 H621 0.929 . S
C619 C618 1.363 . S
C619 C625 1.428 . S
H620 C616 0.930 . S
H621 C618 0.929 . S
S622 N623 1.613 . S
S622 N624 1.610 . S
N623 S622 1.613 . S
N623 C626 1.350 . S
N624 S622 1.610 . S
N624 C625 1.351 . S
C625 C619 1.428 . S
C625 N624 1.351 . S
C625 C626 1.434 . S
C626 C617 1.429 . S
C626 N623 1.350 . S
C626 C625 1.434 . S
C627 C628 1.369 . S
C627 C629 1.419 . S
C627 H631 0.930 . S
C628 C627 1.369 . S
C628 C637 1.429 . S
C629 C627 1.419 . S
C629 C630 1.363 . S
C629 H632 0.929 . S
C630 C629 1.363 . S
C630 C636 1.428 . S
H631 C627 0.930 . S
H632 C629 0.929 . S
S633 N634 1.613 . S
S633 N635 1.610 . S
N634 S633 1.613 . S
N634 C637 1.350 . S
N635 S633 1.610 . S
N635 C636 1.351 . S
C636 C630 1.428 . S
C636 N635 1.351 . S
C636 C637 1.434 . S
C637 C628 1.429 . S
C637 N634 1.350 . S
C637 C636 1.434 . S
C638 C639 1.369 . S
C638 C640 1.419 . S
C638 H642 0.930 . S
C639 C638 1.369 . S
C639 C648 1.429 . S
C640 C638 1.419 . S
C640 C641 1.363 . S
C640 H643 0.929 . S
C641 C640 1.363 . S
C641 C647 1.428 . S
H642 C638 0.930 . S
H643 C640 0.929 . S
S644 N645 1.613 . S
S644 N646 1.610 . S
N645 S644 1.613 . S
N645 C648 1.350 . S
N646 S644 1.610 . S
N646 C647 1.351 . S
C647 C641 1.428 . S
C647 N646 1.351 . S
C647 C648 1.434 . S
C648 C639 1.429 . S
C648 N645 1.350 . S
C648 C647 1.434 . S
C649 C650 1.369 . S
C649 C651 1.419 . S
C649 H653 0.930 . S
C650 C649 1.369 . S
C650 C659 1.429 . S
C651 C649 1.419 . S
C651 C652 1.363 . S
C651 H654 0.929 . S
C652 C651 1.363 . S
C652 C658 1.428 . S
H653 C649 0.930 . S
H654 C651 0.929 . S
S655 N656 1.613 . S
S655 N657 1.610 . S
N656 S655 1.613 . S
N656 C659 1.350 . S
N657 S655 1.610 . S
N657 C658 1.351 . S
C658 C652 1.428 . S
C658 N657 1.351 . S
C658 C659 1.434 . S
C659 C650 1.429 . S
C659 N656 1.350 . S
C659 C658 1.434 . S
C660 C661 1.369 . S
C660 C662 1.419 . S
C660 H664 0.930 . S
C661 C660 1.369 . S
C661 C670 1.429 . S
C662 C660 1.419 . S
C662 C663 1.363 . S
C662 H665 0.929 . S
C663 C662 1.363 . S
C663 C669 1.428 . S
H664 C660 0.930 . S
H665 C662 0.929 . S
S666 N667 1.613 . S
S666 N668 1.610 . S
N667 S666 1.613 . S
N667 C670 1.350 . S
N668 S666 1.610 . S
N668 C669 1.351 . S
C669 C663 1.428 . S
C669 N668 1.351 . S
C669 C670 1.434 . S
C670 C661 1.429 . S
C670 N667 1.350 . S
C670 C669 1.434 . S
C671 C672 1.369 . S
C671 C673 1.419 . S
C671 H675 0.930 . S
C672 C671 1.369 . S
C672 C681 1.429 . S
C673 C671 1.419 . S
C673 C674 1.363 . S
C673 H676 0.929 . S
C674 C673 1.363 . S
C674 C680 1.428 . S
H675 C671 0.930 . S
H676 C673 0.929 . S
S677 N678 1.613 . S
S677 N679 1.610 . S
N678 S677 1.613 . S
N678 C681 1.350 . S
N679 S677 1.610 . S
N679 C680 1.351 . S
C680 C674 1.428 . S
C680 N679 1.351 . S
C680 C681 1.434 . S
C681 C672 1.429 . S
C681 N678 1.350 . S
C681 C680 1.434 . S
C682 C683 1.369 . S
C682 C684 1.419 . S
C682 H686 0.930 . S
C683 C682 1.369 . S
C683 C692 1.429 . S
C684 C682 1.419 . S
C684 C685 1.363 . S
C684 H687 0.929 . S
C685 C684 1.363 . S
C685 C691 1.428 . S
H686 C682 0.930 . S
H687 C684 0.929 . S
S688 N689 1.613 . S
S688 N690 1.610 . S
N689 S688 1.613 . S
N689 C692 1.350 . S
N690 S688 1.610 . S
N690 C691 1.351 . S
C691 C685 1.428 . S
C691 N690 1.351 . S
C691 C692 1.434 . S
C692 C683 1.429 . S
C692 N689 1.350 . S
C692 C691 1.434 . S
C693 C694 1.369 . S
C693 C695 1.419 . S
C693 H697 0.930 . S
C694 C693 1.369 . S
C694 C703 1.429 . S
C695 C693 1.419 . S
C695 C696 1.363 . S
C695 H698 0.929 . S
C696 C695 1.363 . S
C696 C702 1.428 . S
H697 C693 0.930 . S
H698 C695 0.929 . S
S699 N700 1.613 . S
S699 N701 1.610 . S
N700 S699 1.613 . S
N700 C703 1.350 . S
N701 S699 1.610 . S
N701 C702 1.351 . S
C702 C696 1.428 . S
C702 N701 1.351 . S
C702 C703 1.434 . S
C703 C694 1.429 . S
C703 N700 1.350 . S
C703 C702 1.434 . S
C704 C705 1.369 . S
C704 C706 1.419 . S
C704 H708 0.930 . S
C705 C704 1.369 . S
C705 C714 1.429 . S
C706 C704 1.419 . S
C706 C707 1.363 . S
C706 H709 0.929 . S
C707 C706 1.363 . S
C707 C713 1.428 . S
H708 C704 0.930 . S
H709 C706 0.929 . S
S710 N711 1.613 . S
S710 N712 1.610 . S
N711 S710 1.613 . S
N711 C714 1.350 . S
N712 S710 1.610 . S
N712 C713 1.351 . S
C713 C707 1.428 . S
C713 N712 1.351 . S
C713 C714 1.434 . S
C714 C705 1.429 . S
C714 N711 1.350 . S
C714 C713 1.434 . S
C715 C716 1.369 . S
C715 C717 1.419 . S
C715 H719 0.930 . S
C716 C715 1.369 . S
C716 C725 1.429 . S
C717 C715 1.419 . S
C717 C718 1.363 . S
C717 H720 0.929 . S
C718 C717 1.363 . S
C718 C724 1.428 . S
H719 C715 0.930 . S
H720 C717 0.929 . S
S721 N722 1.613 . S
S721 N723 1.610 . S
N722 S721 1.613 . S
N722 C725 1.350 . S
N723 S721 1.610 . S
N723 C724 1.351 . S
C724 C718 1.428 . S
C724 N723 1.351 . S
C724 C725 1.434 . S
C725 C716 1.429 . S
C725 N722 1.350 . S
C725 C724 1.434 . S
C726 C727 1.369 . S
C726 C728 1.419 . S
C726 H730 0.930 . S
C727 C726 1.369 . S
C727 C736 1.429 . S
C728 C726 1.419 . S
C728 C729 1.363 . S
C728 H731 0.929 . S
C729 C728 1.363 . S
C729 C735 1.428 . S
H730 C726 0.930 . S
H731 C728 0.929 . S
S732 N733 1.613 . S
S732 N734 1.610 . S
N733 S732 1.613 . S
N733 C736 1.350 . S
N734 S732 1.610 . S
N734 C735 1.351 . S
C735 C729 1.428 . S
C735 N734 1.351 . S
C735 C736 1.434 . S
C736 C727 1.429 . S
C736 N733 1.350 . S
C736 C735 1.434 . S
C737 C738 1.369 . S
C737 C739 1.419 . S
C737 H741 0.930 . S
C738 C737 1.369 . S
C738 C747 1.429 . S
C739 C737 1.419 . S
C739 C740 1.363 . S
C739 H742 0.929 . S
C740 C739 1.363 . S
C740 C746 1.428 . S
H741 C737 0.930 . S
H742 C739 0.929 . S
S743 N744 1.613 . S
S743 N745 1.610 . S
N744 S743 1.613 . S
N744 C747 1.350 . S
N745 S743 1.610 . S
N745 C746 1.351 . S
C746 C740 1.428 . S
C746 N745 1.351 . S
C746 C747 1.434 . S
C747 C738 1.429 . S
C747 N744 1.350 . S
C747 C746 1.434 . S
C748 C749 1.369 . S
C748 C750 1.419 . S
C748 H752 0.930 . S
C749 C748 1.369 . S
C749 C758 1.429 . S
C750 C748 1.419 . S
C750 C751 1.363 . S
C750 H753 0.929 . S
C751 C750 1.363 . S
C751 C757 1.428 . S
H752 C748 0.930 . S
H753 C750 0.929 . S
S754 N755 1.613 . S
S754 N756 1.610 . S
N755 S754 1.613 . S
N755 C758 1.350 . S
N756 S754 1.610 . S
N756 C757 1.351 . S
C757 C751 1.428 . S
C757 N756 1.351 . S
C757 C758 1.434 . S
C758 C749 1.429 . S
C758 N755 1.350 . S
C758 C757 1.434 . S
C759 C760 1.369 . S
C759 C761 1.419 . S
C759 H763 0.930 . S
C760 C759 1.369 . S
C760 C769 1.429 . S
C761 C759 1.419 . S
C761 C762 1.363 . S
C761 H764 0.929 . S
C762 C761 1.363 . S
C762 C768 1.428 . S
H763 C759 0.930 . S
H764 C761 0.929 . S
S765 N766 1.613 . S
S765 N767 1.610 . S
N766 S765 1.613 . S
N766 C769 1.350 . S
N767 S765 1.610 . S
N767 C768 1.351 . S
C768 C762 1.428 . S
C768 N767 1.351 . S
C768 C769 1.434 . S
C769 C760 1.429 . S
C769 N766 1.350 . S
C769 C768 1.434 . S
C770 C771 1.369 . S
C770 C772 1.419 . S
C770 H774 0.930 . S
C771 C770 1.369 . S
C771 C780 1.429 . S
C772 C770 1.419 . S
C772 C773 1.363 . S
C772 H775 0.929 . S
C773 C772 1.363 . S
C773 C779 1.428 . S
H774 C770 0.930 . S
H775 C772 0.929 . S
S776 N777 1.613 . S
S776 N778 1.610 . S
N777 S776 1.613 . S
N777 C780 1.350 . S
N778 S776 1.610 . S
N778 C779 1.351 . S
C779 C773 1.428 . S
C779 N778 1.351 . S
C779 C780 1.434 . S
C780 C771 1.429 . S
C780 N777 1.350 . S
C780 C779 1.434 . S
C781 C782 1.369 . S
C781 C783 1.419 . S
C781 H785 0.930 . S
C782 C781 1.369 . S
C782 C791 1.429 . S
C783 C781 1.419 . S
C783 C784 1.363 . S
C783 H786 0.929 . S
C784 C783 1.363 . S
C784 C790 1.428 . S
H785 C781 0.930 . S
H786 C783 0.929 . S
S787 N788 1.613 . S
S787 N789 1.610 . S
N788 S787 1.613 . S
N788 C791 1.350 . S
N789 S787 1.610 . S
N789 C790 1.351 . S
C790 C784 1.428 . S
C790 N789 1.351 . S
C790 C791 1.434 . S
C791 C782 1.429 . S
C791 N788 1.350 . S
C791 C790 1.434 . S
C792 C793 1.369 . S
C792 C794 1.419 . S
C792 H796 0.930 . S
C793 C792 1.369 . S
C793 C802 1.429 . S
C794 C792 1.419 . S
C794 C795 1.363 . S
C794 H797 0.929 . S
C795 C794 1.363 . S
C795 C801 1.428 . S
H796 C792 0.930 . S
H797 C794 0.929 . S
S798 N799 1.613 . S
S798 N800 1.610 . S
N799 S798 1.613 . S
N799 C802 1.350 . S
N800 S798 1.610 . S
N800 C801 1.351 . S
C801 C795 1.428 . S
C801 N800 1.351 . S
C801 C802 1.434 . S
C802 C793 1.429 . S
C802 N799 1.350 . S
C802 C801 1.434 . S
C803 C804 1.369 . S
C803 C805 1.419 . S
C803 H807 0.930 . S
C804 C803 1.369 . S
C804 C813 1.429 . S
C805 C803 1.419 . S
C805 C806 1.363 . S
C805 H808 0.929 . S
C806 C805 1.363 . S
C806 C812 1.428 . S
H807 C803 0.930 . S
H808 C805 0.929 . S
S809 N810 1.613 . S
S809 N811 1.610 . S
N810 S809 1.613 . S
N810 C813 1.350 . S
N811 S809 1.610 . S
N811 C812 1.351 . S
C812 C806 1.428 . S
C812 N811 1.351 . S
C812 C813 1.434 . S
C813 C804 1.429 . S
C813 N810 1.350 . S
C813 C812 1.434 . S
C814 C815 1.369 . S
C814 C816 1.419 . S
C814 H818 0.930 . S
C815 C814 1.369 . S
C815 C824 1.429 . S
C816 C814 1.419 . S
C816 C817 1.363 . S
C816 H819 0.929 . S
C817 C816 1.363 . S
C817 C823 1.428 . S
H818 C814 0.930 . S
H819 C816 0.929 . S
S820 N821 1.613 . S
S820 N822 1.610 . S
N821 S820 1.613 . S
N821 C824 1.350 . S
N822 S820 1.610 . S
N822 C823 1.351 . S
C823 C817 1.428 . S
C823 N822 1.351 . S
C823 C824 1.434 . S
C824 C815 1.429 . S
C824 N821 1.350 . S
C824 C823 1.434 . S
C825 C826 1.369 . S
C825 C827 1.419 . S
C825 H829 0.930 . S
C826 C825 1.369 . S
C826 C835 1.429 . S
C827 C825 1.419 . S
C827 C828 1.363 . S
C827 H830 0.929 . S
C828 C827 1.363 . S
C828 C834 1.428 . S
H829 C825 0.930 . S
H830 C827 0.929 . S
S831 N832 1.613 . S
S831 N833 1.610 . S
N832 S831 1.613 . S
N832 C835 1.350 . S
N833 S831 1.610 . S
N833 C834 1.351 . S
C834 C828 1.428 . S
C834 N833 1.351 . S
C834 C835 1.434 . S
C835 C826 1.429 . S
C835 N832 1.350 . S
C835 C834 1.434 . S
C836 C837 1.369 . S
C836 C838 1.419 . S
C836 H840 0.930 . S
C837 C836 1.369 . S
C837 C846 1.429 . S
C838 C836 1.419 . S
C838 C839 1.363 . S
C838 H841 0.929 . S
C839 C838 1.363 . S
C839 C845 1.428 . S
H840 C836 0.930 . S
H841 C838 0.929 . S
S842 N843 1.613 . S
S842 N844 1.610 . S
N843 S842 1.613 . S
N843 C846 1.350 . S
N844 S842 1.610 . S
N844 C845 1.351 . S
C845 C839 1.428 . S
C845 N844 1.351 . S
C845 C846 1.434 . S
C846 C837 1.429 . S
C846 N843 1.350 . S
C846 C845 1.434 . S
C847 C848 1.369 . S
C847 C849 1.419 . S
C847 H851 0.930 . S
C848 C847 1.369 . S
C848 C857 1.429 . S
C849 C847 1.419 . S
C849 C850 1.363 . S
C849 H852 0.929 . S
C850 C849 1.363 . S
C850 C856 1.428 . S
H851 C847 0.930 . S
H852 C849 0.929 . S
S853 N854 1.613 . S
S853 N855 1.610 . S
N854 S853 1.613 . S
N854 C857 1.350 . S
N855 S853 1.610 . S
N855 C856 1.351 . S
C856 C850 1.428 . S
C856 N855 1.351 . S
C856 C857 1.434 . S
C857 C848 1.429 . S
C857 N854 1.350 . S
C857 C856 1.434 . S
C858 C859 1.369 . S
C858 C860 1.419 . S
C858 H862 0.930 . S
C859 C858 1.369 . S
C859 C868 1.429 . S
C860 C858 1.419 . S
C860 C861 1.363 . S
C860 H863 0.929 . S
C861 C860 1.363 . S
C861 C867 1.428 . S
H862 C858 0.930 . S
H863 C860 0.929 . S
S864 N865 1.613 . S
S864 N866 1.610 . S
N865 S864 1.613 . S
N865 C868 1.350 . S
N866 S864 1.610 . S
N866 C867 1.351 . S
C867 C861 1.428 . S
C867 N866 1.351 . S
C867 C868 1.434 . S
C868 C859 1.429 . S
C868 N865 1.350 . S
C868 C867 1.434 . S
C869 C870 1.369 . S
C869 C871 1.419 . S
C869 H873 0.930 . S
C870 C869 1.369 . S
C870 C879 1.429 . S
C871 C869 1.419 . S
C871 C872 1.363 . S
C871 H874 0.929 . S
C872 C871 1.363 . S
C872 C878 1.428 . S
H873 C869 0.930 . S
H874 C871 0.929 . S
S875 N876 1.613 . S
S875 N877 1.610 . S
N876 S875 1.613 . S
N876 C879 1.350 . S
N877 S875 1.610 . S
N877 C878 1.351 . S
C878 C872 1.428 . S
C878 N877 1.351 . S
C878 C879 1.434 . S
C879 C870 1.429 . S
C879 N876 1.350 . S
C879 C878 1.434 . S
C880 C881 1.369 . S
C880 C882 1.419 . S
C880 H884 0.930 . S
C881 C880 1.369 . S
C881 C890 1.429 . S
C882 C880 1.419 . S
C882 C883 1.363 . S
C882 H885 0.929 . S
C883 C882 1.363 . S
C883 C889 1.428 . S
H884 C880 0.930 . S
H885 C882 0.929 . S
S886 N887 1.613 . S
S886 N888 1.610 . S
N887 S886 1.613 . S
N887 C890 1.350 . S
N888 S886 1.610 . S
N888 C889 1.351 . S
C889 C883 1.428 . S
C889 N888 1.351 . S
C889 C890 1.434 . S
C890 C881 1.429 . S
C890 N887 1.350 . S
C890 C889 1.434 . S
C891 C892 1.369 . S
C891 C893 1.419 . S
C891 H895 0.930 . S
C892 C891 1.369 . S
C892 C901 1.429 . S
C893 C891 1.419 . S
C893 C894 1.363 . S
C893 H896 0.929 . S
C894 C893 1.363 . S
C894 C900 1.428 . S
H895 C891 0.930 . S
H896 C893 0.929 . S
S897 N898 1.613 . S
S897 N899 1.610 . S
N898 S897 1.613 . S
N898 C901 1.350 . S
N899 S897 1.610 . S
N899 C900 1.351 . S
C900 C894 1.428 . S
C900 N899 1.351 . S
C900 C901 1.434 . S
C901 C892 1.429 . S
C901 N898 1.350 . S
C901 C900 1.434 . S
C902 C903 1.369 . S
C902 C904 1.419 . S
C902 H906 0.930 . S
C903 C902 1.369 . S
C903 C912 1.429 . S
C904 C902 1.419 . S
C904 C905 1.363 . S
C904 H907 0.929 . S
C905 C904 1.363 . S
C905 C911 1.428 . S
H906 C902 0.930 . S
H907 C904 0.929 . S
S908 N909 1.613 . S
S908 N910 1.610 . S
N909 S908 1.613 . S
N909 C912 1.350 . S
N910 S908 1.610 . S
N910 C911 1.351 . S
C911 C905 1.428 . S
C911 N910 1.351 . S
C911 C912 1.434 . S
C912 C903 1.429 . S
C912 N909 1.350 . S
C912 C911 1.434 . S
C913 C914 1.369 . S
C913 C915 1.419 . S
C913 H917 0.930 . S
C914 C913 1.369 . S
C914 C923 1.429 . S
C915 C913 1.419 . S
C915 C916 1.363 . S
C915 H918 0.929 . S
C916 C915 1.363 . S
C916 C922 1.428 . S
H917 C913 0.930 . S
H918 C915 0.929 . S
S919 N920 1.613 . S
S919 N921 1.610 . S
N920 S919 1.613 . S
N920 C923 1.350 . S
N921 S919 1.610 . S
N921 C922 1.351 . S
C922 C916 1.428 . S
C922 N921 1.351 . S
C922 C923 1.434 . S
C923 C914 1.429 . S
C923 N920 1.350 . S
C923 C922 1.434 . S
C924 C925 1.369 . S
C924 C926 1.419 1_556 S
C924 H928 0.930 . S
C925 C924 1.369 . S
C925 C934 1.429 1_545 S
C926 C924 1.419 1_554 S
C926 C927 1.363 1_545 S
C926 H929 0.929 . S
C927 C926 1.363 1_565 S
C927 C933 1.428 . S
H928 C924 0.930 . S
H929 C926 0.929 . S
S930 N931 1.613 . S
S930 N932 1.610 1_556 S
N931 S930 1.613 . S
N931 C934 1.350 . S
N932 S930 1.610 1_554 S
N932 C933 1.351 . S
C933 C927 1.428 . S
C933 N932 1.351 . S
C933 C934 1.434 1_554 S
C934 C925 1.429 1_565 S
C934 N931 1.350 . S
C934 C933 1.434 1_556 S
C935 C936 1.369 1_455 S
C935 C937 1.419 1_556 S
C935 H939 0.930 . S
C936 C935 1.369 1_655 S
C936 C945 1.429 . S
C937 C935 1.419 1_554 S
C937 C938 1.363 . S
C937 H940 0.929 . S
C938 C937 1.363 . S
C938 C944 1.428 1_455 S
H939 C935 0.930 . S
H940 C937 0.929 . S
S941 N942 1.613 1_554 S
S941 N943 1.610 . S
N942 S941 1.613 1_556 S
N942 C945 1.350 . S
N943 S941 1.610 . S
N943 C944 1.351 . S
C944 C938 1.428 1_655 S
C944 N943 1.351 . S
C944 C945 1.434 1_554 S
C945 C936 1.429 . S
C945 N942 1.350 . S
C945 C944 1.434 1_556 S
C946 C947 1.369 . S
C946 C948 1.419 1_554 S
C946 H950 0.930 . S
C947 C946 1.369 . S
C947 C956 1.429 1_545 S
C948 C946 1.419 1_556 S
C948 C949 1.363 1_545 S
C948 H951 0.929 . S
C949 C948 1.363 1_565 S
C949 C955 1.428 . S
H950 C946 0.930 . S
H951 C948 0.929 . S
S952 N953 1.613 . S
S952 N954 1.610 1_554 S
N953 S952 1.613 . S
N953 C956 1.350 . S
N954 S952 1.610 1_556 S
N954 C955 1.351 . S
C955 C949 1.428 . S
C955 N954 1.351 . S
C955 C956 1.434 1_556 S
C956 C947 1.429 1_565 S
C956 N953 1.350 . S
C956 C955 1.434 1_554 S
C957 C958 1.369 . S
C957 C959 1.419 1_556 S
C957 H961 0.930 . S
C958 C957 1.369 . S
C958 C967 1.429 1_455 S
C959 C957 1.419 1_554 S
C959 C960 1.363 1_455 S
C959 H962 0.929 . S
C960 C959 1.363 1_655 S
C960 C966 1.428 . S
H961 C957 0.930 . S
H962 C959 0.929 . S
S963 N964 1.613 . S
S963 N965 1.610 1_556 S
N964 S963 1.613 . S
N964 C967 1.350 . S
N965 S963 1.610 1_554 S
N965 C966 1.351 . S
C966 C960 1.428 . S
C966 N965 1.351 . S
C966 C967 1.434 1_554 S
C967 C958 1.429 1_655 S
C967 N964 1.350 . S
C967 C966 1.434 1_556 S
C529 C73 1.439 . S
C531 C7 1.431 . S
C540 C106 1.427 . S
C542 C40 1.430 . S
C551 C205 1.439 . S
C553 C139 1.431 . S
C562 C172 1.426 . S
C564 C238 1.436 . S
C573 C271 1.427 . S
C575 C337 1.429 . S
C584 C304 1.439 . S
C586 C370 1.430 . S
C595 C469 1.437 . S
C597 C403 1.428 . S
C606 C502 1.435 . S
C608 C436 1.436 . S
C617 C18 1.306 . S
C619 C249 1.306 . S
C628 C150 1.304 . S
C630 C51 1.304 . S
C639 C183 1.302 . S
C641 C84 1.303 . S
C650 C216 1.305 . S
C652 C117 1.305 . S
C661 C513 1.304 . S
C663 C282 1.304 . S
C672 C414 1.304 . S
C674 C315 1.304 . S
C683 C447 1.305 . S
C685 C348 1.305 . S
C694 C480 1.306 . S
C696 C381 1.306 . S
C705 C21 1.017 . S
C707 N365 1.157 . S
C716 C54 1.016 . S
C718 N266 1.157 . S
C727 C87 1.017 . S
C729 N299 1.157 . S
C738 N332 1.147 . S
C740 C120 1.033 . S
C749 C153 1.020 . S
C751 N431 1.156 . S
C760 C186 1.018 . S
C762 N464 1.157 . S
C771 C219 1.036 . S
C773 N497 1.148 . S
C782 C252 1.038 . S
C784 N398 1.146 . S
C793 N101 1.150 . S
C795 C285 1.031 . S
C804 N2 1.153 . S
C806 C318 1.026 . S
C815 N35 1.156 . S
C817 C351 1.024 . S
C826 C384 1.037 . S
C828 N68 1.147 . S
C837 C417 1.038 . S
C839 N167 1.146 . S
C848 C450 1.038 . S
C850 N200 1.146 . S
C859 C483 1.016 . S
C861 N233 1.158 . S
C870 C516 1.039 . S
C872 N134 1.146 . S
C881 N145 1.723 . S
C883 N13 1.727 . S
C892 N178 1.721 . S
C894 N46 1.721 . S
C903 N79 1.730 . S
C905 N211 1.729 . S
C914 N244 1.724 . S
C916 N112 1.722 . S
C925 N277 1.725 . S
C927 N409 1.728 . S
C936 N442 1.720 . S
C938 N310 1.721 . S
C947 N475 1.726 . S
C949 N343 1.729 . S
C958 N508 1.723 . S
C960 N376 1.726 . S
