# Generated by pormake.
# Topology uog, (4)-cn, num edge types: 1
# Building blocks:
#     Node 0, Type 0, BuildingBlock: ICAMEG_clean_sbu_1, # of connection points: 4
#     Node 1, Type 0, BuildingBlock: ICAMEG_clean_sbu_1, # of connection points: 4
#     Node 2, Type 0, BuildingBlock: ICAMEG_clean_sbu_1, # of connection points: 4
#     Node 3, Type 0, BuildingBlock: ICAMEG_clean_sbu_1, # of connection points: 4
#     Node 4, Type 0, BuildingBlock: ICAMEG_clean_sbu_1, # of connection points: 4
#     Node 5, Type 0, BuildingBlock: ICAMEG_clean_sbu_1, # of connection points: 4
#     Edge 6, Type (0, 0), BuildingBlock: TEMPAE_clean_linker_10, # of connection points: 2
#     Edge 7, Type (0, 0), BuildingBlock: TEMPAE_clean_linker_10, # of connection points: 2
#     Edge 8, Type (0, 0), BuildingBlock: TEMPAE_clean_linker_10, # of connection points: 2
#     Edge 9, Type (0, 0), BuildingBlock: TEMPAE_clean_linker_10, # of connection points: 2
#     Edge 10, Type (0, 0), BuildingBlock: TEMPAE_clean_linker_10, # of connection points: 2
#     Edge 11, Type (0, 0), BuildingBlock: TEMPAE_clean_linker_10, # of connection points: 2
#     Edge 12, Type (0, 0), BuildingBlock: TEMPAE_clean_linker_10, # of connection points: 2
#     Edge 13, Type (0, 0), BuildingBlock: TEMPAE_clean_linker_10, # of connection points: 2
#     Edge 14, Type (0, 0), BuildingBlock: TEMPAE_clean_linker_10, # of connection points: 2
#     Edge 15, Type (0, 0), BuildingBlock: TEMPAE_clean_linker_10, # of connection points: 2
#     Edge 16, Type (0, 0), BuildingBlock: TEMPAE_clean_linker_10, # of connection points: 2
#     Edge 17, Type (0, 0), BuildingBlock: TEMPAE_clean_linker_10, # of connection points: 2
# Relax obj value: 0.054
# Max RMSD: 0.119
# Mean RMSD: 0.119
data_MOF--net-uog--node1-ICAMEG_clean_sbu_1--edge1-TEMPAE_clean_linker_10
_symmetry_space_group_name_H-M    P1
_symmetry_Int_Tables_number       1
_symmetry_cell_setting            triclinic
loop_
_symmetry_equiv_pos_as_xyz
'x, y, z'
_cell_length_a     30.533972
_cell_length_b     30.548335
_cell_length_c     46.062404
_cell_angle_alpha  89.965558
_cell_angle_beta   90.028883
_cell_angle_gamma 119.96082
loop_
_atom_site_label
_atom_site_type_symbol
_atom_site_fract_x
_atom_site_fract_y
_atom_site_fract_z
_atom_type_partial_charge
Co0 Co 0.63783 0.35214 0.15887 0.0
Co1 Co 0.52228 0.25863 0.18315 0.0
O2 O 0.58173 0.28262 0.15851 0.0
C3 C 0.60661 0.3302 0.09774 0.0
O4 O 0.56022 0.31281 0.10706 0.0
C5 C 0.5555 0.18445 0.19519 0.0
O6 O 0.59999 0.2221 0.2026 0.0
O7 O 0.56602 0.28471 0.21811 0.0
O8 O 0.63345 0.35648 0.20222 0.0
H9 H 0.41812 0.27188 0.26337 0.0
H10 H 0.64991 0.27169 0.13051 0.0
O11 O 0.64338 0.34887 0.11562 0.0
H12 H 0.78105 0.34219 0.20654 0.0
H13 H 0.80721 0.49376 0.12654 0.0
H14 H 0.65864 0.4466 0.18867 0.0
H15 H 0.72404 0.37654 0.19881 0.0
H16 H 0.73637 0.40587 0.12767 0.0
O17 O 0.52029 0.19256 0.18717 0.0
H18 H 0.49252 0.30254 0.23137 0.0
H19 H 0.4259 0.16053 0.18855 0.0
H20 H 0.72878 0.53484 0.18839 0.0
H21 H 0.70641 0.23649 0.13735 0.0
H22 H 0.80375 0.55889 0.15716 0.0
H23 H 0.77248 0.27171 0.17565 0.0
O24 O 0.59066 0.37855 0.15368 0.0
H25 H 0.46684 0.166 0.08812 0.0
H26 H 0.43499 0.26642 0.16004 0.0
H27 H 0.38251 0.23644 0.11587 0.0
H28 H 0.39826 0.18579 0.07955 0.0
H29 H 0.51884 0.19724 0.13241 0.0
H30 H 0.35096 0.12817 0.22025 0.0
H31 H 0.34666 0.1841 0.2579 0.0
O32 O 0.52245 0.32397 0.17923 0.0
C33 C 0.60703 0.32613 0.22247 0.0
C34 C 0.41947 0.24721 0.24698 0.0
C35 C 0.3818 0.16653 0.2228 0.0
N36 N 0.46331 0.23352 0.20795 0.0
C37 C 0.46142 0.2644 0.22875 0.0
C38 C 0.42436 0.18503 0.20496 0.0
C39 C 0.37941 0.19794 0.24391 0.0
C40 C 0.67887 0.28752 0.14704 0.0
N41 N 0.68387 0.32632 0.16411 0.0
C42 C 0.71062 0.26731 0.15089 0.0
C43 C 0.74764 0.28704 0.17241 0.0
C44 C 0.75246 0.32657 0.18976 0.0
C45 C 0.72001 0.34581 0.1853 0.0
C46 C 0.77481 0.48372 0.14029 0.0
C47 C 0.6913 0.45673 0.17518 0.0
C48 C 0.73456 0.43405 0.14098 0.0
N49 N 0.69367 0.42109 0.15841 0.0
C50 C 0.73082 0.50677 0.17504 0.0
C51 C 0.77284 0.52025 0.15748 0.0
C52 C 0.54792 0.36525 0.16527 0.0
C53 C 0.45948 0.18787 0.10384 0.0
C54 C 0.44222 0.24455 0.1443 0.0
C55 C 0.41227 0.22755 0.11936 0.0
C56 C 0.42108 0.19908 0.09901 0.0
N57 N 0.47986 0.23345 0.14887 0.0
C58 C 0.48864 0.20546 0.12903 0.0
Co59 Co 0.28883 0.63389 0.49275 0.0
Co60 Co 0.25709 0.5151 0.51863 0.0
O61 O 0.29572 0.57356 0.49335 0.0
C62 C 0.27201 0.59718 0.43206 0.0
O63 O 0.24462 0.55112 0.4422 0.0
C64 C 0.36405 0.54916 0.53079 0.0
O65 O 0.37249 0.59566 0.52989 0.0
O66 O 0.27121 0.55919 0.55312 0.0
O67 O 0.28692 0.63485 0.53627 0.0
H68 H 0.12973 0.41472 0.59576 0.0
H69 H 0.37273 0.63254 0.46115 0.0
O70 O 0.29156 0.63476 0.4493 0.0
H71 H 0.45501 0.77415 0.53027 0.0
H72 H 0.32698 0.80472 0.45609 0.0
H73 H 0.22623 0.6667 0.52489 0.0
H74 H 0.36204 0.72358 0.52722 0.0
H75 H 0.33625 0.72904 0.45794 0.0
O76 O 0.31975 0.51189 0.52693 0.0
H77 H 0.17804 0.48788 0.5635 0.0
H78 H 0.25594 0.41787 0.52772 0.0
H79 H 0.21608 0.74192 0.52396 0.0
H80 H 0.4658 0.68247 0.46318 0.0
H81 H 0.26669 0.81159 0.48936 0.0
H82 H 0.50755 0.7537 0.49804 0.0
O83 O 0.21366 0.59188 0.49098 0.0
H84 H 0.30336 0.45632 0.42788 0.0
H85 H 0.16407 0.42858 0.49339 0.0
H86 H 0.14568 0.37515 0.44988 0.0
H87 H 0.21563 0.38889 0.41677 0.0
H88 H 0.32002 0.50911 0.47152 0.0
H89 H 0.20877 0.3441 0.55976 0.0
H90 H 0.145 0.34214 0.59401 0.0
O91 O 0.19391 0.51711 0.511 0.0
C92 C 0.28101 0.60453 0.55697 0.0
C93 C 0.15728 0.41504 0.58086 0.0
C94 C 0.2017 0.37544 0.56068 0.0
N95 N 0.21941 0.45692 0.54358 0.0
C96 C 0.18464 0.45628 0.56248 0.0
C97 C 0.22835 0.41734 0.54263 0.0
C98 C 0.16591 0.37436 0.57989 0.0
C99 C 0.3906 0.66375 0.4762 0.0
N100 N 0.36197 0.67499 0.49417 0.0
C101 C 0.44333 0.69178 0.47732 0.0
C102 C 0.46672 0.73168 0.49692 0.0
C103 C 0.43727 0.74313 0.51504 0.0
C104 C 0.38465 0.7142 0.51335 0.0
C105 C 0.30479 0.77466 0.4713 0.0
C106 C 0.24863 0.69704 0.50993 0.0
C107 C 0.3098 0.73168 0.4724 0.0
N108 N 0.2821 0.69371 0.49168 0.0
C109 C 0.24261 0.73945 0.50943 0.0
C110 C 0.27097 0.7785 0.48999 0.0
C111 C 0.1816 0.54755 0.49971 0.0
C112 C 0.2726 0.44984 0.4422 0.0
C113 C 0.19471 0.43481 0.47908 0.0
C114 C 0.18408 0.40438 0.4545 0.0
C115 C 0.22335 0.41208 0.43595 0.0
N116 N 0.24312 0.47176 0.48506 0.0
C117 C 0.28183 0.47946 0.46701 0.0
Co118 Co 0.65263 0.29454 0.82526 0.0
Co119 Co 0.73482 0.25512 0.84881 0.0
O120 O 0.71756 0.2966 0.82448 0.0
C121 C 0.66684 0.27472 0.76428 0.0
O122 O 0.68055 0.24309 0.77421 0.0
C123 C 0.81573 0.35869 0.86223 0.0
O124 O 0.78049 0.36976 0.86866 0.0
O125 O 0.71083 0.27403 0.88424 0.0
O126 O 0.65136 0.29172 0.86878 0.0
H127 H 0.70566 0.12864 0.92701 0.0
H128 H 0.74025 0.37545 0.79357 0.0
O129 O 0.65326 0.29801 0.78178 0.0
H130 H 0.69165 0.46387 0.86492 0.0
H131 H 0.52721 0.34526 0.79186 0.0
H132 H 0.55759 0.23687 0.85859 0.0
H133 H 0.64354 0.37095 0.86111 0.0
H134 H 0.60931 0.34793 0.79206 0.0
O135 O 0.80395 0.31431 0.8542 0.0
H136 H 0.68328 0.1801 0.89573 0.0
H137 H 0.82642 0.24458 0.85426 0.0
H138 H 0.47507 0.23334 0.85933 0.0
H139 H 0.78914 0.46847 0.7964 0.0
H140 H 0.45949 0.28781 0.82577 0.0
H141 H 0.76503 0.51329 0.83235 0.0
O142 O 0.61484 0.21924 0.82316 0.0
H143 H 0.82918 0.28871 0.75455 0.0
H144 H 0.71671 0.15732 0.82386 0.0
H145 H 0.74341 0.13252 0.77924 0.0
H146 H 0.80007 0.19848 0.74423 0.0
H147 H 0.8012 0.31182 0.79928 0.0
H148 H 0.85053 0.1941 0.88525 0.0
H149 H 0.78984 0.13547 0.92186 0.0
O150 O 0.66643 0.1954 0.84368 0.0
C151 C 0.67639 0.28525 0.88893 0.0
C152 C 0.73236 0.1539 0.91106 0.0
C153 C 0.81369 0.19069 0.88764 0.0
N154 N 0.75329 0.21489 0.873 0.0
C155 C 0.71984 0.18301 0.89323 0.0
C156 C 0.79986 0.21923 0.87019 0.0
C157 C 0.77961 0.15779 0.90818 0.0
C158 C 0.72934 0.3947 0.80916 0.0
N159 N 0.68916 0.36778 0.82724 0.0
C160 C 0.75725 0.44737 0.81071 0.0
C161 C 0.74373 0.47249 0.8309 0.0
C162 C 0.7026 0.44479 0.8492 0.0
C163 C 0.67563 0.39216 0.84706 0.0
C164 C 0.53357 0.32141 0.80662 0.0
C165 C 0.55117 0.26093 0.84408 0.0
C166 C 0.57993 0.32267 0.80678 0.0
N167 N 0.58831 0.29286 0.82548 0.0
C168 C 0.50434 0.25865 0.84452 0.0
C169 C 0.4956 0.28919 0.82567 0.0
C170 C 0.62417 0.18552 0.83271 0.0
C171 C 0.80466 0.25965 0.7697 0.0
C172 C 0.74132 0.18624 0.80872 0.0
C173 C 0.75639 0.17198 0.78352 0.0
C174 C 0.78822 0.209 0.76389 0.0
N175 N 0.75759 0.236 0.81426 0.0
C176 C 0.78888 0.27252 0.79514 0.0
Co177 Co 0.36074 0.65925 0.16014 0.0
Co178 Co 0.4815 0.73491 0.18602 0.0
O179 O 0.42526 0.72192 0.16077 0.0
C180 C 0.3918 0.66778 0.09819 0.0
O181 O 0.43122 0.66439 0.10629 0.0
C182 C 0.46373 0.81909 0.19943 0.0
O183 O 0.41684 0.78509 0.20556 0.0
O184 O 0.43665 0.71178 0.22071 0.0
O185 O 0.36053 0.65342 0.20351 0.0
H186 H 0.56965 0.69599 0.26552 0.0
H187 H 0.3736 0.7522 0.13176 0.0
O188 O 0.35978 0.66536 0.11678 0.0
H189 H 0.23527 0.70311 0.20224 0.0
H190 H 0.18395 0.54443 0.12371 0.0
H191 H 0.31769 0.5606 0.19037 0.0
H192 H 0.27614 0.65152 0.19634 0.0
H193 H 0.26578 0.62385 0.12616 0.0
O194 O 0.4952 0.80556 0.19163 0.0
H195 H 0.49852 0.67872 0.23307 0.0
H196 H 0.5856 0.82247 0.19335 0.0
H197 H 0.23626 0.48065 0.1888 0.0
H198 H 0.33347 0.80462 0.1367 0.0
H199 H 0.16871 0.47222 0.15528 0.0
H200 H 0.26388 0.78027 0.17223 0.0
O201 O 0.39523 0.6184 0.15693 0.0
H202 H 0.55008 0.82935 0.09242 0.0
H203 H 0.55893 0.71203 0.16261 0.0
H204 H 0.61257 0.73706 0.11884 0.0
H205 H 0.60839 0.7962 0.0834 0.0
H206 H 0.49685 0.80306 0.13637 0.0
H207 H 0.6576 0.8415 0.22552 0.0
H208 H 0.64992 0.7779 0.26185 0.0
O209 O 0.46876 0.66496 0.18057 0.0
C210 C 0.39079 0.67704 0.2244 0.0
C211 C 0.57354 0.72393 0.24971 0.0
C212 C 0.62286 0.80563 0.22728 0.0
N213 N 0.5381 0.74934 0.21116 0.0
C214 C 0.53345 0.71429 0.23121 0.0
C215 C 0.58196 0.79468 0.20916 0.0
C216 C 0.61854 0.76992 0.24766 0.0
C217 C 0.34307 0.7411 0.1471 0.0
N218 N 0.3272 0.69877 0.16374 0.0
C219 C 0.32061 0.77105 0.14987 0.0
C220 C 0.28162 0.7574 0.16983 0.0
C221 C 0.26558 0.71414 0.1867 0.0
C222 C 0.28898 0.68516 0.18335 0.0
C223 C 0.21305 0.54768 0.13843 0.0
C224 C 0.28835 0.55731 0.17586 0.0
C225 C 0.2595 0.5925 0.13986 0.0
N226 N 0.29629 0.59694 0.15855 0.0
C227 C 0.24238 0.5119 0.17501 0.0
C228 C 0.20452 0.50718 0.15617 0.0
C229 C 0.43629 0.62444 0.168 0.0
C230 C 0.55237 0.8037 0.10775 0.0
C231 C 0.55687 0.73775 0.14728 0.0
C232 C 0.58738 0.75184 0.12256 0.0
C233 C 0.58503 0.78504 0.10269 0.0
N234 N 0.52506 0.75637 0.15215 0.0
C235 C 0.52246 0.78883 0.13273 0.0
Co236 Co 0.70271 0.36634 0.49166 0.0
Co237 Co 0.74349 0.48553 0.51957 0.0
O238 O 0.70217 0.42984 0.49329 0.0
C239 C 0.72687 0.39987 0.42987 0.0
O240 O 0.76954 0.4392 0.43813 0.0
C241 C 0.63885 0.46017 0.53088 0.0
O242 O 0.62725 0.41264 0.53065 0.0
O243 O 0.72384 0.43903 0.55334 0.0
O244 O 0.7063 0.36363 0.53512 0.0
H245 H 0.87033 0.57346 0.59911 0.0
H246 H 0.62178 0.37695 0.46248 0.0
O247 O 0.69727 0.36745 0.44828 0.0
H248 H 0.53323 0.23381 0.53008 0.0
H249 H 0.64866 0.19302 0.4521 0.0
H250 H 0.75989 0.32471 0.52159 0.0
H251 H 0.62614 0.27841 0.52597 0.0
H252 H 0.64741 0.27294 0.45584 0.0
O253 O 0.68432 0.49523 0.5271 0.0
H254 H 0.81865 0.50347 0.56555 0.0
H255 H 0.75446 0.58688 0.52976 0.0
H256 H 0.76204 0.24515 0.51875 0.0
H257 H 0.52877 0.33287 0.46547 0.0
H258 H 0.70613 0.17865 0.4838 0.0
H259 H 0.48388 0.26094 0.4996 0.0
O260 O 0.77819 0.40319 0.48944 0.0
H261 H 0.71151 0.55614 0.42863 0.0
H262 H 0.84173 0.56765 0.49659 0.0
H263 H 0.86732 0.62393 0.45392 0.0
H264 H 0.80194 0.61842 0.41962 0.0
H265 H 0.68763 0.50037 0.47148 0.0
H266 H 0.80514 0.65768 0.5631 0.0
H267 H 0.86373 0.65128 0.59801 0.0
O268 O 0.80295 0.47669 0.51266 0.0
C269 C 0.71269 0.39311 0.55639 0.0
C270 C 0.84508 0.57679 0.58393 0.0
C271 C 0.80843 0.62402 0.56374 0.0
N272 N 0.78394 0.54128 0.54556 0.0
C273 C 0.81585 0.53734 0.56482 0.0
C274 C 0.77977 0.58379 0.54496 0.0
C275 C 0.84131 0.62041 0.58332 0.0
C276 C 0.60251 0.34529 0.47713 0.0
N277 N 0.62942 0.33031 0.49407 0.0
C278 C 0.54984 0.32063 0.47882 0.0
C279 C 0.52468 0.28035 0.49802 0.0
C280 C 0.55235 0.26517 0.51516 0.0
C281 C 0.60499 0.29074 0.51288 0.0
C282 C 0.67313 0.22167 0.46745 0.0
C283 C 0.73521 0.29579 0.50647 0.0
C284 C 0.67268 0.26705 0.46961 0.0
N285 N 0.70326 0.30326 0.48909 0.0
C286 C 0.7367 0.2509 0.50489 0.0
C287 C 0.70536 0.21362 0.48525 0.0
C288 C 0.81234 0.4451 0.50009 0.0
C289 C 0.74032 0.55902 0.44348 0.0
C290 C 0.81307 0.56501 0.48175 0.0
C291 C 0.82778 0.59702 0.45765 0.0
C292 C 0.79108 0.59391 0.43841 0.0
N293 N 0.76319 0.53102 0.48662 0.0
C294 C 0.72701 0.52768 0.46783 0.0
Co295 Co 0.34903 0.71025 0.82653 0.0
Co296 Co 0.25821 0.73667 0.85044 0.0
O297 O 0.28047 0.69962 0.82592 0.0
C298 C 0.32875 0.72153 0.76536 0.0
O299 O 0.31318 0.75199 0.77474 0.0
C300 C 0.18149 0.63043 0.86219 0.0
O301 O 0.21818 0.62201 0.86955 0.0
O302 O 0.28269 0.71754 0.88551 0.0
O303 O 0.35309 0.71848 0.86995 0.0
H304 H 0.27511 0.85548 0.93066 0.0
H305 H 0.26672 0.6197 0.79767 0.0
O306 O 0.34592 0.70188 0.78322 0.0
H307 H 0.33204 0.55385 0.87382 0.0
H308 H 0.48669 0.67601 0.79454 0.0
H309 H 0.44423 0.78079 0.85685 0.0
H310 H 0.36968 0.64565 0.86641 0.0
H311 H 0.4 0.66254 0.79534 0.0
O312 O 0.191 0.67421 0.85427 0.0
H313 H 0.30366 0.80968 0.89886 0.0
H314 H 0.16207 0.7391 0.85538 0.0
H315 H 0.5313 0.79529 0.85691 0.0
H316 H 0.22823 0.52759 0.80418 0.0
H317 H 0.55297 0.74266 0.82559 0.0
H318 H 0.26083 0.49413 0.84253 0.0
O319 O 0.37814 0.78423 0.82159 0.0
H320 H 0.16701 0.70291 0.75504 0.0
H321 H 0.27006 0.83335 0.82725 0.0
H322 H 0.24217 0.85768 0.7829 0.0
H323 H 0.19021 0.79221 0.74643 0.0
H324 H 0.19619 0.68031 0.79952 0.0
H325 H 0.13179 0.78378 0.88688 0.0
H326 H 0.18858 0.84264 0.92476 0.0
O327 O 0.32479 0.80022 0.84677 0.0
C328 C 0.32307 0.71595 0.89006 0.0
C329 C 0.25007 0.83008 0.91417 0.0
C330 C 0.16961 0.78979 0.88962 0.0
N331 N 0.23476 0.77218 0.87511 0.0
C332 C 0.26609 0.80416 0.89605 0.0
C333 C 0.18693 0.76453 0.87188 0.0
C334 C 0.2015 0.82282 0.91086 0.0
C335 C 0.28141 0.60542 0.81423 0.0
N336 N 0.3206 0.63801 0.83151 0.0
C337 C 0.25934 0.55323 0.81789 0.0
C338 C 0.27761 0.53448 0.83944 0.0
C339 C 0.31755 0.56796 0.85701 0.0
C340 C 0.33865 0.61991 0.85274 0.0
C341 C 0.47768 0.6991 0.80833 0.0
C342 C 0.45332 0.75753 0.84332 0.0
C343 C 0.4287 0.69171 0.80883 0.0
N344 N 0.41703 0.72057 0.82632 0.0
C345 C 0.50271 0.76601 0.84337 0.0
C346 C 0.51485 0.7365 0.82576 0.0
C347 C 0.36608 0.81466 0.83311 0.0
C348 C 0.18946 0.73175 0.77082 0.0
C349 C 0.24759 0.80465 0.81146 0.0
C350 C 0.23179 0.81864 0.78641 0.0
C351 C 0.20259 0.78188 0.76598 0.0
N352 N 0.23462 0.7554 0.81604 0.0
C353 C 0.20589 0.71914 0.79612 0.0
C354 C 0.50827 0.09562 0.17775 0.0
C355 C 0.54544 0.13197 0.19595 0.0
C356 C 0.49681 0.04516 0.17855 0.0
C357 C 0.52225 0.03046 0.19857 0.0
C358 C 0.55986 0.067 0.21702 0.0
C359 C 0.57152 0.11761 0.21522 0.0
C360 C 0.45741 0.00759 0.15799 0.0
C361 C 0.587 0.05245 0.23903 0.0
C362 C 0.45358 0.89075 0.2172 0.0
C363 C 0.47982 0.87335 0.20024 0.0
C364 C 0.46816 0.9422 0.21767 0.0
C365 C 0.50907 0.97667 0.20015 0.0
C366 C 0.53574 0.95925 0.18302 0.0
C367 C 0.52116 0.90786 0.18355 0.0
C368 C 0.43947 0.95959 0.23664 0.0
C369 C 0.5787 0.9946 0.16349 0.0
H370 H 0.48834 0.10675 0.16265 0.0
H371 H 0.60001 0.14566 0.22944 0.0
H372 H 0.47364 0.98853 0.145 0.0
H373 H 0.42518 0.9779 0.17048 0.0
H374 H 0.44274 0.02565 0.1429 0.0
H375 H 0.61505 0.08535 0.25188 0.0
H376 H 0.55918 0.02375 0.25416 0.0
H377 H 0.60681 0.03505 0.22797 0.0
H378 H 0.42182 0.86419 0.23028 0.0
H379 H 0.54133 0.89445 0.17023 0.0
H380 H 0.41972 0.97419 0.22292 0.0
H381 H 0.46609 0.99105 0.25083 0.0
H382 H 0.41101 0.92869 0.25051 0.0
H383 H 0.56465 0.01127 0.14708 0.0
H384 H 0.5962 0.9752 0.15199 0.0
H385 H 0.60834 0.02628 0.17631 0.0
C386 C 0.40204 0.50091 0.55184 0.0
C387 C 0.40644 0.53965 0.5337 0.0
C388 C 0.44099 0.48931 0.55351 0.0
C389 C 0.48411 0.51559 0.53557 0.0
C390 C 0.48861 0.55488 0.51721 0.0
C391 C 0.45004 0.56715 0.51696 0.0
C392 C 0.43572 0.44857 0.57418 0.0
C393 C 0.53306 0.58247 0.49696 0.0
C394 C 0.60508 0.51307 0.55078 0.0
C395 C 0.59868 0.47307 0.53309 0.0
C396 C 0.56733 0.52641 0.55251 0.0
C397 C 0.52346 0.50055 0.53508 0.0
C398 C 0.51731 0.46049 0.51687 0.0
C399 C 0.55463 0.44653 0.51658 0.0
C400 C 0.57426 0.5679 0.57304 0.0
C401 C 0.47198 0.43321 0.49716 0.0
H402 H 0.36817 0.47985 0.56482 0.0
H403 H 0.45288 0.59669 0.50267 0.0
H404 H 0.43189 0.41575 0.56177 0.0
H405 H 0.47012 0.46278 0.58784 0.0
H406 H 0.4023 0.43532 0.58861 0.0
H407 H 0.53085 0.61213 0.48413 0.0
H408 H 0.56892 0.60041 0.50942 0.0
H409 H 0.53465 0.55517 0.48171 0.0
H410 H 0.63928 0.53336 0.56359 0.0
H411 H 0.55023 0.416 0.50264 0.0
H412 H 0.54121 0.55388 0.58779 0.0
H413 H 0.57638 0.60002 0.56064 0.0
H414 H 0.60908 0.58206 0.58636 0.0
H415 H 0.4368 0.41446 0.51022 0.0
H416 H 0.47392 0.40419 0.48357 0.0
H417 H 0.4692 0.46075 0.48265 0.0
C418 C 0.88586 0.44062 0.88094 0.0
C419 C 0.86954 0.39788 0.86335 0.0
C420 C 0.93719 0.47772 0.88217 0.0
C421 C 0.97251 0.47236 0.86483 0.0
C422 C 0.9561 0.42934 0.84693 0.0
C423 C 0.90486 0.39232 0.84667 0.0
C424 C 0.95359 0.52271 0.90191 0.0
C425 C 0.99244 0.42295 0.82757 0.0
C426 C 0.09303 0.5918 0.84451 0.0
C427 C 0.12852 0.58925 0.86269 0.0
C428 C 0.04222 0.55373 0.84485 0.0
C429 C 0.02633 0.51278 0.86435 0.0
C430 C 0.06193 0.51013 0.88293 0.0
C431 C 0.11291 0.5482 0.8816 0.0
C432 C 0.00562 0.55718 0.82417 0.0
C433 C 0.04604 0.46744 0.90437 0.0
H434 H 0.85862 0.44475 0.89401 0.0
H435 H 0.89226 0.35943 0.83287 0.0
H436 H 0.98406 0.52647 0.91663 0.0
H437 H 0.96929 0.55783 0.88882 0.0
H438 H 0.9219 0.51973 0.91524 0.0
H439 H 0.97355 0.38704 0.8151 0.0
H440 H 0.0103 0.45489 0.812 0.0
H441 H 0.0232 0.42365 0.84073 0.0
H442 H 0.10516 0.62338 0.8297 0.0
H443 H 0.14032 0.54646 0.89581 0.0
H444 H 0.97531 0.5588 0.83653 0.0
H445 H 0.98721 0.52293 0.81031 0.0
H446 H 0.02441 0.59096 0.8099 0.0
H447 H 0.01633 0.46574 0.91897 0.0
H448 H 0.07815 0.47168 0.91782 0.0
H449 H 0.02947 0.43083 0.89272 0.0
C450 C 0.09143 0.48827 0.513 0.0
C451 C 0.12695 0.53031 0.49708 0.0
C452 C 0.03977 0.47255 0.51189 0.0
C453 C 0.02295 0.49894 0.49405 0.0
C454 C 0.0583 0.54036 0.47717 0.0
C455 C 0.10996 0.55586 0.47908 0.0
C456 C 0.00343 0.42878 0.53064 0.0
C457 C 0.04165 0.56895 0.45755 0.0
C458 C 0.88183 0.43443 0.47814 0.0
C459 C 0.86607 0.45849 0.49806 0.0
C460 C 0.93301 0.44785 0.47612 0.0
C461 C 0.96894 0.4855 0.49481 0.0
C462 C 0.95315 0.50967 0.51502 0.0
C463 C 0.90212 0.49619 0.51622 0.0
C464 C 0.94866 0.42184 0.45401 0.0
C465 C 0.99007 0.54937 0.5357 0.0
H466 H 0.10407 0.46823 0.52699 0.0
H467 H 0.13704 0.58806 0.46649 0.0
H468 H 0.98582 0.4421 0.54685 0.0
H469 H 0.97249 0.3996 0.51718 0.0
H470 H 0.02229 0.41093 0.54237 0.0
H471 H 0.07316 0.59747 0.44405 0.0
H472 H 0.01083 0.54235 0.44301 0.0
H473 H 0.02639 0.5886 0.47081 0.0
H474 H 0.8543 0.40554 0.46389 0.0
H475 H 0.8904 0.5149 0.53178 0.0
H476 H 0.96506 0.40112 0.46514 0.0
H477 H 0.97845 0.45032 0.43965 0.0
H478 H 0.91646 0.39472 0.44037 0.0
H479 H 0.00841 0.53316 0.54937 0.0
H480 H 0.97159 0.56442 0.55017 0.0
H481 H 0.0204 0.5813 0.52335 0.0
C482 C 0.44258 0.88856 0.81147 0.0
C483 C 0.40168 0.86964 0.83083 0.0
C484 C 0.477 0.94059 0.80967 0.0
C485 C 0.47073 0.9743 0.82794 0.0
C486 C 0.42908 0.95556 0.84714 0.0
C487 C 0.3949 0.90352 0.84822 0.0
C488 C 0.52073 0.95936 0.7887 0.0
C489 C 0.42157 0.99027 0.86729 0.0
C490 C 0.58848 0.09608 0.84851 0.0
C491 C 0.58429 0.13174 0.83129 0.0
C492 C 0.55168 0.04487 0.84763 0.0
C493 C 0.5099 0.02862 0.82873 0.0
C494 C 0.50541 0.0642 0.81112 0.0
C495 C 0.54253 0.11554 0.81278 0.0
C496 C 0.55742 0.00822 0.86712 0.0
C497 C 0.4616 0.04795 0.79045 0.0
H498 H 0.44783 0.86273 0.79775 0.0
H499 H 0.36342 0.88933 0.86324 0.0
H500 H 0.5225 0.99009 0.775 0.0
H501 H 0.55679 0.97537 0.80094 0.0
H502 H 0.51788 0.92884 0.77434 0.0
H503 H 0.38576 0.97001 0.8798 0.0
H504 H 0.45352 0.00803 0.88286 0.0
H505 H 0.42131 0.02118 0.85479 0.0
H506 H 0.62041 0.10819 0.86302 0.0
H507 H 0.53921 0.14284 0.7993 0.0
H508 H 0.55924 0.97889 0.85384 0.0
H509 H 0.52402 0.98859 0.88155 0.0
H510 H 0.59194 0.02719 0.88082 0.0
H511 H 0.46038 0.0195 0.775 0.0
H512 H 0.46409 0.08018 0.77789 0.0
H513 H 0.42545 0.02969 0.80265 0.0
C514 C 0.42345 0.5432 0.14642 0.0
C515 C 0.448 0.58293 0.16633 0.0
C516 C 0.43651 0.50518 0.14426 0.0
C517 C 0.47441 0.50673 0.16271 0.0
C518 C 0.49855 0.54622 0.18317 0.0
C519 C 0.48528 0.58386 0.1846 0.0
C520 C 0.41037 0.46383 0.122 0.0
C521 C 0.53868 0.54894 0.20352 0.0
C522 C 0.48428 0.39038 0.17925 0.0
C523 C 0.52691 0.39962 0.16293 0.0
C524 C 0.46549 0.42392 0.17849 0.0
C525 C 0.48958 0.46754 0.16079 0.0
C526 C 0.53135 0.47611 0.1434 0.0
C527 C 0.54971 0.44221 0.1448 0.0
C528 C 0.42123 0.41378 0.19762 0.0
C529 C 0.55777 0.52202 0.12407 0.0
H530 H 0.39478 0.54233 0.13215 0.0
H531 H 0.50424 0.61411 0.20023 0.0
H532 H 0.43861 0.46463 0.10654 0.0
H533 H 0.39206 0.42635 0.13278 0.0
H534 H 0.38125 0.46762 0.10956 0.0
H535 H 0.55285 0.5815 0.21868 0.0
H536 H 0.52334 0.51369 0.21648 0.0
H537 H 0.57113 0.55233 0.19086 0.0
H538 H 0.46621 0.35755 0.19327 0.0
H539 H 0.58233 0.44947 0.13188 0.0
H540 H 0.39156 0.41574 0.18473 0.0
H541 H 0.43386 0.44326 0.21468 0.0
H542 H 0.40426 0.37622 0.20834 0.0
H543 H 0.52988 0.52545 0.11023 0.0
H544 H 0.58645 0.52066 0.10985 0.0
H545 H 0.57695 0.5566 0.13761 0.0
C546 C 0.67698 0.26867 0.94213 0.0
C547 C 0.66536 0.29183 0.91944 0.0
C548 C 0.6666 0.27445 0.97113 0.0
C549 C 0.64529 0.30518 0.97765 0.0
C550 C 0.63393 0.32903 0.95488 0.0
C551 C 0.64344 0.32149 0.92604 0.0
C552 C 0.67815 0.2474 0.99475 0.0
C553 C 0.61224 0.363 0.96099 0.0
C554 C 0.57776 0.28749 0.04969 0.0
C555 C 0.616 0.3251 0.0668 0.0
C556 C 0.58687 0.28034 0.0207 0.0
C557 C 0.63499 0.31244 0.00833 0.0
C558 C 0.67339 0.35123 0.02535 0.0
C559 C 0.66363 0.35666 0.05452 0.0
C560 C 0.5453 0.23785 0.00347 0.0
C561 C 0.72479 0.38698 0.01276 0.0
H562 H 0.69355 0.24536 0.93722 0.0
H563 H 0.63448 0.33963 0.90871 0.0
H564 H 0.70641 0.27528 0.01001 0.0
H565 H 0.64344 0.22307 0.00746 0.0
H566 H 0.69305 0.22354 0.98596 0.0
H567 H 0.60675 0.37979 0.94088 0.0
H568 H 0.57529 0.34137 0.97216 0.0
H569 H 0.63778 0.39405 0.97575 0.0
H570 H 0.54102 0.26269 0.0592 0.0
H571 H 0.69321 0.38594 0.06767 0.0
H572 H 0.55826 0.21183 0.99566 0.0
H573 H 0.53608 0.25315 0.98403 0.0
H574 H 0.51027 0.2158 0.01643 0.0
H575 H 0.74352 0.3656 0.0058 0.0
H576 H 0.74979 0.41642 0.02854 0.0
H577 H 0.72068 0.40587 0.9932 0.0
C578 C 0.40518 0.67557 0.27788 0.0
C579 C 0.37151 0.6634 0.25453 0.0
C580 C 0.38743 0.66254 0.30647 0.0
C581 C 0.33479 0.63786 0.31197 0.0
C582 C 0.30062 0.62566 0.28855 0.0
C583 C 0.31935 0.63793 0.2601 0.0
C584 C 0.42506 0.67522 0.3308 0.0
C585 C 0.2443 0.60039 0.29357 0.0
C586 C 0.28593 0.56872 0.3838 0.0
C587 C 0.28417 0.60584 0.40081 0.0
C588 C 0.30215 0.57849 0.35477 0.0
C589 C 0.31566 0.62603 0.34234 0.0
C590 C 0.31218 0.66294 0.35918 0.0
C591 C 0.29712 0.65263 0.38832 0.0
C592 C 0.30639 0.53859 0.33772 0.0
C593 C 0.32502 0.7136 0.34653 0.0
H594 H 0.44551 0.69478 0.2738 0.0
H595 H 0.293 0.62824 0.24227 0.0
H596 H 0.42304 0.70237 0.34596 0.0
H597 H 0.41566 0.64067 0.34342 0.0
H598 H 0.46449 0.69201 0.32272 0.0
H599 H 0.22281 0.59368 0.27302 0.0
H600 H 0.2307 0.56365 0.30472 0.0
H601 H 0.23571 0.62424 0.30797 0.0
H602 H 0.27644 0.53269 0.3935 0.0
H603 H 0.29555 0.68132 0.4014 0.0
H604 H 0.34626 0.5533 0.33104 0.0
H605 H 0.28348 0.52925 0.3176 0.0
H606 H 0.29369 0.50333 0.35041 0.0
H607 H 0.3656 0.73487 0.34051 0.0
H608 H 0.3173 0.73687 0.36197 0.0
H609 H 0.30288 0.70826 0.32642 0.0
C610 C 0.70641 0.28256 0.71569 0.0
C611 C 0.67089 0.28669 0.73298 0.0
C612 C 0.71367 0.29802 0.68651 0.0
C613 C 0.68371 0.31674 0.67419 0.0
C614 C 0.64649 0.31918 0.69133 0.0
C615 C 0.64103 0.30481 0.72064 0.0
C616 C 0.75457 0.29598 0.66917 0.0
C617 C 0.61293 0.33772 0.67883 0.0
C618 C 0.73144 0.40585 0.60955 0.0
C619 C 0.70651 0.37303 0.58632 0.0
C620 C 0.72543 0.38775 0.63813 0.0
C621 C 0.69258 0.33575 0.64376 0.0
C622 C 0.6673 0.30239 0.62042 0.0
C623 C 0.67516 0.32132 0.59194 0.0
C624 C 0.75408 0.42439 0.66231 0.0
C625 C 0.63102 0.24693 0.6256 0.0
H626 H 0.72988 0.269 0.72526 0.0
H627 H 0.61333 0.30776 0.73394 0.0
H628 H 0.7384 0.2733 0.64919 0.0
H629 H 0.78323 0.33469 0.66226 0.0
H630 H 0.77384 0.27943 0.68177 0.0
H631 H 0.58342 0.33379 0.69441 0.0
H632 H 0.63609 0.3781 0.67269 0.0
H633 H 0.59415 0.31635 0.65881 0.0
H634 H 0.7561 0.44578 0.60539 0.0
H635 H 0.65567 0.29574 0.57417 0.0
H636 H 0.77604 0.41087 0.67488 0.0
H637 H 0.72715 0.42662 0.67754 0.0
H638 H 0.78047 0.463 0.65408 0.0
H639 H 0.65057 0.22945 0.63689 0.0
H640 H 0.6145 0.22597 0.60509 0.0
H641 H 0.59981 0.24238 0.63993 0.0
C642 C 0.38453 0.73709 0.93071 0.0
C643 C 0.335 0.70925 0.92017 0.0
C644 C 0.39592 0.73156 0.95957 0.0
C645 C 0.35719 0.69585 0.97786 0.0
C646 C 0.30738 0.6666 0.96693 0.0
C647 C 0.2967 0.6744 0.93838 0.0
C648 C 0.44906 0.76472 0.97069 0.0
C649 C 0.26538 0.62693 0.98535 0.0
C650 C 0.39525 0.65086 0.04541 0.0
C651 C 0.38484 0.67601 0.06738 0.0
C652 C 0.38617 0.65669 0.01611 0.0
C653 C 0.36824 0.69002 0.00868 0.0
C654 C 0.35937 0.71678 0.03083 0.0
C655 C 0.36681 0.70866 0.05996 0.0
C656 C 0.39435 0.62612 0.99324 0.0
C657 C 0.34193 0.75395 0.0238 0.0
H658 H 0.41405 0.76418 0.91658 0.0
H659 H 0.2585 0.65242 0.93005 0.0
H660 H 0.44856 0.78722 0.98947 0.0
H661 H 0.46489 0.74113 0.97849 0.0
H662 H 0.47463 0.79102 0.95379 0.0
H663 H 0.2297 0.60495 0.97293 0.0
H664 H 0.27685 0.60038 0.99426 0.0
H665 H 0.25786 0.64506 0.00406 0.0
H666 H 0.40885 0.62533 0.05123 0.0
H667 H 0.35921 0.72847 0.07697 0.0
H668 H 0.42219 0.65154 0.97695 0.0
H669 H 0.35839 0.60191 0.98154 0.0
H670 H 0.40807 0.60164 0.00262 0.0
H671 H 0.3677 0.78198 0.00766 0.0
H672 H 0.34048 0.77446 0.04336 0.0
H673 H 0.3037 0.73386 0.01394 0.0
C674 C 0.74712 0.40432 0.37696 0.0
C675 C 0.71161 0.3932 0.39907 0.0
C676 C 0.73193 0.39477 0.34772 0.0
C677 C 0.68036 0.37549 0.34049 0.0
C678 C 0.64478 0.36606 0.36277 0.0
C679 C 0.66069 0.3741 0.39181 0.0
C680 C 0.77069 0.4037 0.32469 0.0
C681 C 0.58979 0.34714 0.35597 0.0
C682 C 0.64662 0.38868 0.26264 0.0
C683 C 0.62597 0.33904 0.25248 0.0
C684 C 0.66427 0.40114 0.29131 0.0
C685 C 0.66304 0.36343 0.30979 0.0
C686 C 0.6435 0.31353 0.29925 0.0
C687 C 0.62428 0.30173 0.27088 0.0
C688 C 0.68309 0.45429 0.30204 0.0
C689 C 0.64302 0.27261 0.31789 0.0
H690 H 0.78645 0.41873 0.38264 0.0
H691 H 0.63327 0.3659 0.40891 0.0
H692 H 0.76002 0.36768 0.31337 0.0
H693 H 0.77164 0.43052 0.30813 0.0
H694 H 0.80925 0.41898 0.33387 0.0
H695 H 0.56786 0.34557 0.37558 0.0
H696 H 0.58642 0.37202 0.33964 0.0
H697 H 0.5724 0.30871 0.34646 0.0
H698 H 0.64775 0.41746 0.24835 0.0
H699 H 0.60891 0.26346 0.26284 0.0
H700 H 0.72272 0.4712 0.30964 0.0
H701 H 0.66005 0.45355 0.32086 0.0
H702 H 0.6813 0.47908 0.28498 0.0
H703 H 0.68146 0.28534 0.32656 0.0
H704 H 0.63009 0.23683 0.30572 0.0
H705 H 0.6176 0.26477 0.33676 0.0
C706 C 0.35256 0.68844 0.72214 0.0
C707 C 0.32323 0.70727 0.73435 0.0
C708 C 0.3465 0.6733 0.69294 0.0
C709 C 0.30932 0.67585 0.67578 0.0
C710 C 0.27956 0.69479 0.68804 0.0
C711 C 0.28731 0.71086 0.71708 0.0
C712 C 0.37976 0.65439 0.68049 0.0
C713 C 0.23879 0.69708 0.67067 0.0
C714 C 0.31884 0.67448 0.59352 0.0
C715 C 0.28694 0.62316 0.5872 0.0
C716 C 0.32673 0.69214 0.62225 0.0
C717 C 0.30101 0.65787 0.64516 0.0
C718 C 0.26777 0.60621 0.63885 0.0
C719 C 0.26166 0.58937 0.60999 0.0
C720 C 0.36338 0.74728 0.62814 0.0
C721 C 0.23869 0.56868 0.66258 0.0
H722 H 0.38054 0.68583 0.73539 0.0
H723 H 0.26423 0.72498 0.72651 0.0
H724 H 0.35627 0.61438 0.67372 0.0
H725 H 0.39948 0.67649 0.66084 0.0
H726 H 0.4085 0.65709 0.69629 0.0
H727 H 0.21875 0.71253 0.68347 0.0
H728 H 0.25539 0.72096 0.65113 0.0
H729 H 0.21072 0.65865 0.66303 0.0
H730 H 0.33878 0.70072 0.57608 0.0
H731 H 0.23665 0.54971 0.60524 0.0
H732 H 0.394 0.75092 0.6427 0.0
H733 H 0.34382 0.76471 0.63946 0.0
H734 H 0.3807 0.76891 0.60792 0.0
H735 H 0.26533 0.56605 0.67789 0.0
H736 H 0.21261 0.53034 0.6539 0.0
H737 H 0.21633 0.58165 0.67519 0.0
loop_
_geom_bond_atom_site_label_1
_geom_bond_atom_site_label_2
_geom_bond_distance
_geom_bond_site_symmetry_2
_ccdc_geom_bond_type
Co0 O2 2.143 . S
Co0 O8 2.074 . S
Co0 O11 2.093 . S
Co0 O24 2.097 . S
Co0 N41 2.151 . S
Co0 N49 2.214 . S
Co1 O2 2.160 . S
Co1 O7 2.058 . S
Co1 O17 2.057 . S
Co1 O32 2.037 . S
Co1 N36 2.145 . S
Co1 N57 2.257 . S
O2 Co0 2.143 . S
O2 Co1 2.160 . S
C3 O4 1.278 . S
C3 O11 1.224 . S
O4 C3 1.278 . S
C5 O6 1.245 . S
C5 O17 1.232 . S
O6 C5 1.245 . S
O7 Co1 2.058 . S
O7 C33 1.269 . S
O8 Co0 2.074 . S
O8 C33 1.257 . S
H9 C34 0.930 . S
H10 C40 0.930 . S
O11 Co0 2.093 . S
O11 C3 1.224 . S
H12 C44 0.929 . S
H13 C46 0.930 . S
H14 C47 0.930 . S
H15 C45 0.929 . S
H16 C48 0.928 . S
O17 Co1 2.057 . S
O17 C5 1.232 . S
H18 C37 0.929 . S
H19 C38 0.929 . S
H20 C50 0.931 . S
H21 C42 0.929 . S
H22 C51 0.930 . S
H23 C43 0.931 . S
O24 Co0 2.097 . S
O24 C52 1.214 . S
H25 C53 0.929 . S
H26 C54 0.929 . S
H27 C55 0.930 . S
H28 C56 0.929 . S
H29 C58 0.930 . S
H30 C35 0.930 . S
H31 C39 0.930 . S
O32 Co1 2.037 . S
O32 C52 1.234 . S
C33 O7 1.269 . S
C33 O8 1.257 . S
C34 H9 0.930 . S
C34 C37 1.388 . S
C34 C39 1.418 . S
C35 H30 0.930 . S
C35 C38 1.404 . S
C35 C39 1.353 . S
N36 Co1 2.145 . S
N36 C37 1.397 . S
N36 C38 1.334 . S
C37 H18 0.929 . S
C37 C34 1.388 . S
C37 N36 1.397 . S
C38 H19 0.929 . S
C38 C35 1.404 . S
C38 N36 1.334 . S
C39 H31 0.930 . S
C39 C34 1.418 . S
C39 C35 1.353 . S
C40 H10 0.930 . S
C40 N41 1.330 . S
C40 C42 1.446 . S
N41 Co0 2.151 . S
N41 C40 1.330 . S
N41 C45 1.418 . S
C42 H21 0.929 . S
C42 C40 1.446 . S
C42 C43 1.332 . S
C43 H23 0.931 . S
C43 C42 1.332 . S
C43 C44 1.267 . S
C44 H12 0.929 . S
C44 C43 1.267 . S
C44 C45 1.251 . S
C45 H15 0.929 . S
C45 N41 1.418 . S
C45 C44 1.251 . S
C46 H13 0.930 . S
C46 C48 1.406 . S
C46 C51 1.261 . S
C47 H14 0.930 . S
C47 N49 1.325 . S
C47 C50 1.357 . S
C48 H16 0.928 . S
C48 C46 1.406 . S
C48 N49 1.261 . S
N49 Co0 2.214 . S
N49 C47 1.325 . S
N49 C48 1.261 . S
C50 H20 0.931 . S
C50 C47 1.357 . S
C50 C51 1.312 . S
C51 H22 0.930 . S
C51 C46 1.261 . S
C51 C50 1.312 . S
C52 O24 1.214 . S
C52 O32 1.234 . S
C53 H25 0.929 . S
C53 C56 1.391 . S
C53 C58 1.391 . S
C54 H26 0.929 . S
C54 C55 1.390 . S
C54 N57 1.391 . S
C55 H27 0.930 . S
C55 C54 1.390 . S
C55 C56 1.392 . S
C56 H28 0.929 . S
C56 C53 1.391 . S
C56 C55 1.392 . S
N57 Co1 2.257 . S
N57 C54 1.391 . S
N57 C58 1.388 . S
C58 H29 0.930 . S
C58 C53 1.391 . S
C58 N57 1.388 . S
Co59 O61 2.143 . S
Co59 O67 2.074 . S
Co59 O70 2.093 . S
Co59 O83 2.097 . S
Co59 N100 2.151 . S
Co59 N108 2.214 . S
Co60 O61 2.160 . S
Co60 O66 2.058 . S
Co60 O76 2.057 . S
Co60 O91 2.037 . S
Co60 N95 2.145 . S
Co60 N116 2.257 . S
O61 Co59 2.143 . S
O61 Co60 2.160 . S
C62 O63 1.278 . S
C62 O70 1.224 . S
O63 C62 1.278 . S
C64 O65 1.245 . S
C64 O76 1.232 . S
O65 C64 1.245 . S
O66 Co60 2.058 . S
O66 C92 1.269 . S
O67 Co59 2.074 . S
O67 C92 1.257 . S
H68 C93 0.930 . S
H69 C99 0.930 . S
O70 Co59 2.093 . S
O70 C62 1.224 . S
H71 C103 0.929 . S
H72 C105 0.930 . S
H73 C106 0.930 . S
H74 C104 0.929 . S
H75 C107 0.928 . S
O76 Co60 2.057 . S
O76 C64 1.232 . S
H77 C96 0.929 . S
H78 C97 0.929 . S
H79 C109 0.931 . S
H80 C101 0.929 . S
H81 C110 0.930 . S
H82 C102 0.931 . S
O83 Co59 2.097 . S
O83 C111 1.214 . S
H84 C112 0.929 . S
H85 C113 0.929 . S
H86 C114 0.930 . S
H87 C115 0.929 . S
H88 C117 0.930 . S
H89 C94 0.930 . S
H90 C98 0.930 . S
O91 Co60 2.037 . S
O91 C111 1.234 . S
C92 O66 1.269 . S
C92 O67 1.257 . S
C93 H68 0.930 . S
C93 C96 1.388 . S
C93 C98 1.418 . S
C94 H89 0.930 . S
C94 C97 1.404 . S
C94 C98 1.353 . S
N95 Co60 2.145 . S
N95 C96 1.397 . S
N95 C97 1.334 . S
C96 H77 0.929 . S
C96 C93 1.388 . S
C96 N95 1.397 . S
C97 H78 0.929 . S
C97 C94 1.404 . S
C97 N95 1.334 . S
C98 H90 0.930 . S
C98 C93 1.418 . S
C98 C94 1.353 . S
C99 H69 0.930 . S
C99 N100 1.330 . S
C99 C101 1.446 . S
N100 Co59 2.151 . S
N100 C99 1.330 . S
N100 C104 1.418 . S
C101 H80 0.929 . S
C101 C99 1.446 . S
C101 C102 1.332 . S
C102 H82 0.931 . S
C102 C101 1.332 . S
C102 C103 1.267 . S
C103 H71 0.929 . S
C103 C102 1.267 . S
C103 C104 1.251 . S
C104 H74 0.929 . S
C104 N100 1.418 . S
C104 C103 1.251 . S
C105 H72 0.930 . S
C105 C107 1.406 . S
C105 C110 1.261 . S
C106 H73 0.930 . S
C106 N108 1.325 . S
C106 C109 1.357 . S
C107 H75 0.928 . S
C107 C105 1.406 . S
C107 N108 1.261 . S
N108 Co59 2.214 . S
N108 C106 1.325 . S
N108 C107 1.261 . S
C109 H79 0.931 . S
C109 C106 1.357 . S
C109 C110 1.312 . S
C110 H81 0.930 . S
C110 C105 1.261 . S
C110 C109 1.312 . S
C111 O83 1.214 . S
C111 O91 1.234 . S
C112 H84 0.929 . S
C112 C115 1.391 . S
C112 C117 1.391 . S
C113 H85 0.929 . S
C113 C114 1.390 . S
C113 N116 1.391 . S
C114 H86 0.930 . S
C114 C113 1.390 . S
C114 C115 1.392 . S
C115 H87 0.929 . S
C115 C112 1.391 . S
C115 C114 1.392 . S
N116 Co60 2.257 . S
N116 C113 1.391 . S
N116 C117 1.388 . S
C117 H88 0.930 . S
C117 C112 1.391 . S
C117 N116 1.388 . S
Co118 O120 2.143 . S
Co118 O126 2.074 . S
Co118 O129 2.093 . S
Co118 O142 2.097 . S
Co118 N159 2.151 . S
Co118 N167 2.214 . S
Co119 O120 2.160 . S
Co119 O125 2.058 . S
Co119 O135 2.057 . S
Co119 O150 2.037 . S
Co119 N154 2.145 . S
Co119 N175 2.257 . S
O120 Co118 2.143 . S
O120 Co119 2.160 . S
C121 O122 1.278 . S
C121 O129 1.224 . S
O122 C121 1.278 . S
C123 O124 1.245 . S
C123 O135 1.232 . S
O124 C123 1.245 . S
O125 Co119 2.058 . S
O125 C151 1.269 . S
O126 Co118 2.074 . S
O126 C151 1.257 . S
H127 C152 0.930 . S
H128 C158 0.930 . S
O129 Co118 2.093 . S
O129 C121 1.224 . S
H130 C162 0.929 . S
H131 C164 0.930 . S
H132 C165 0.930 . S
H133 C163 0.929 . S
H134 C166 0.928 . S
O135 Co119 2.057 . S
O135 C123 1.232 . S
H136 C155 0.929 . S
H137 C156 0.929 . S
H138 C168 0.931 . S
H139 C160 0.929 . S
H140 C169 0.930 . S
H141 C161 0.931 . S
O142 Co118 2.097 . S
O142 C170 1.214 . S
H143 C171 0.929 . S
H144 C172 0.929 . S
H145 C173 0.930 . S
H146 C174 0.929 . S
H147 C176 0.930 . S
H148 C153 0.930 . S
H149 C157 0.930 . S
O150 Co119 2.037 . S
O150 C170 1.234 . S
C151 O125 1.269 . S
C151 O126 1.257 . S
C152 H127 0.930 . S
C152 C155 1.388 . S
C152 C157 1.418 . S
C153 H148 0.930 . S
C153 C156 1.404 . S
C153 C157 1.353 . S
N154 Co119 2.145 . S
N154 C155 1.397 . S
N154 C156 1.334 . S
C155 H136 0.929 . S
C155 C152 1.388 . S
C155 N154 1.397 . S
C156 H137 0.929 . S
C156 C153 1.404 . S
C156 N154 1.334 . S
C157 H149 0.930 . S
C157 C152 1.418 . S
C157 C153 1.353 . S
C158 H128 0.930 . S
C158 N159 1.330 . S
C158 C160 1.446 . S
N159 Co118 2.151 . S
N159 C158 1.330 . S
N159 C163 1.418 . S
C160 H139 0.929 . S
C160 C158 1.446 . S
C160 C161 1.332 . S
C161 H141 0.931 . S
C161 C160 1.332 . S
C161 C162 1.267 . S
C162 H130 0.929 . S
C162 C161 1.267 . S
C162 C163 1.251 . S
C163 H133 0.929 . S
C163 N159 1.418 . S
C163 C162 1.251 . S
C164 H131 0.930 . S
C164 C166 1.406 . S
C164 C169 1.261 . S
C165 H132 0.930 . S
C165 N167 1.325 . S
C165 C168 1.357 . S
C166 H134 0.928 . S
C166 C164 1.406 . S
C166 N167 1.261 . S
N167 Co118 2.214 . S
N167 C165 1.325 . S
N167 C166 1.261 . S
C168 H138 0.931 . S
C168 C165 1.357 . S
C168 C169 1.312 . S
C169 H140 0.930 . S
C169 C164 1.261 . S
C169 C168 1.312 . S
C170 O142 1.214 . S
C170 O150 1.234 . S
C171 H143 0.929 . S
C171 C174 1.391 . S
C171 C176 1.391 . S
C172 H144 0.929 . S
C172 C173 1.390 . S
C172 N175 1.391 . S
C173 H145 0.930 . S
C173 C172 1.390 . S
C173 C174 1.392 . S
C174 H146 0.929 . S
C174 C171 1.391 . S
C174 C173 1.392 . S
N175 Co119 2.257 . S
N175 C172 1.391 . S
N175 C176 1.388 . S
C176 H147 0.930 . S
C176 C171 1.391 . S
C176 N175 1.388 . S
Co177 O179 2.143 . S
Co177 O185 2.074 . S
Co177 O188 2.093 . S
Co177 O201 2.097 . S
Co177 N218 2.151 . S
Co177 N226 2.214 . S
Co178 O179 2.160 . S
Co178 O184 2.058 . S
Co178 O194 2.057 . S
Co178 O209 2.037 . S
Co178 N213 2.145 . S
Co178 N234 2.257 . S
O179 Co177 2.143 . S
O179 Co178 2.160 . S
C180 O181 1.278 . S
C180 O188 1.224 . S
O181 C180 1.278 . S
C182 O183 1.245 . S
C182 O194 1.232 . S
O183 C182 1.245 . S
O184 Co178 2.058 . S
O184 C210 1.269 . S
O185 Co177 2.074 . S
O185 C210 1.257 . S
H186 C211 0.930 . S
H187 C217 0.930 . S
O188 Co177 2.093 . S
O188 C180 1.224 . S
H189 C221 0.929 . S
H190 C223 0.930 . S
H191 C224 0.930 . S
H192 C222 0.929 . S
H193 C225 0.928 . S
O194 Co178 2.057 . S
O194 C182 1.232 . S
H195 C214 0.929 . S
H196 C215 0.929 . S
H197 C227 0.931 . S
H198 C219 0.929 . S
H199 C228 0.930 . S
H200 C220 0.931 . S
O201 Co177 2.097 . S
O201 C229 1.214 . S
H202 C230 0.929 . S
H203 C231 0.929 . S
H204 C232 0.930 . S
H205 C233 0.929 . S
H206 C235 0.930 . S
H207 C212 0.930 . S
H208 C216 0.930 . S
O209 Co178 2.037 . S
O209 C229 1.234 . S
C210 O184 1.269 . S
C210 O185 1.257 . S
C211 H186 0.930 . S
C211 C214 1.388 . S
C211 C216 1.418 . S
C212 H207 0.930 . S
C212 C215 1.404 . S
C212 C216 1.353 . S
N213 Co178 2.145 . S
N213 C214 1.397 . S
N213 C215 1.334 . S
C214 H195 0.929 . S
C214 C211 1.388 . S
C214 N213 1.397 . S
C215 H196 0.929 . S
C215 C212 1.404 . S
C215 N213 1.334 . S
C216 H208 0.930 . S
C216 C211 1.418 . S
C216 C212 1.353 . S
C217 H187 0.930 . S
C217 N218 1.330 . S
C217 C219 1.446 . S
N218 Co177 2.151 . S
N218 C217 1.330 . S
N218 C222 1.418 . S
C219 H198 0.929 . S
C219 C217 1.446 . S
C219 C220 1.332 . S
C220 H200 0.931 . S
C220 C219 1.332 . S
C220 C221 1.267 . S
C221 H189 0.929 . S
C221 C220 1.267 . S
C221 C222 1.251 . S
C222 H192 0.929 . S
C222 N218 1.418 . S
C222 C221 1.251 . S
C223 H190 0.930 . S
C223 C225 1.406 . S
C223 C228 1.261 . S
C224 H191 0.930 . S
C224 N226 1.325 . S
C224 C227 1.357 . S
C225 H193 0.928 . S
C225 C223 1.406 . S
C225 N226 1.261 . S
N226 Co177 2.214 . S
N226 C224 1.325 . S
N226 C225 1.261 . S
C227 H197 0.931 . S
C227 C224 1.357 . S
C227 C228 1.312 . S
C228 H199 0.930 . S
C228 C223 1.261 . S
C228 C227 1.312 . S
C229 O201 1.214 . S
C229 O209 1.234 . S
C230 H202 0.929 . S
C230 C233 1.391 . S
C230 C235 1.391 . S
C231 H203 0.929 . S
C231 C232 1.390 . S
C231 N234 1.391 . S
C232 H204 0.930 . S
C232 C231 1.390 . S
C232 C233 1.392 . S
C233 H205 0.929 . S
C233 C230 1.391 . S
C233 C232 1.392 . S
N234 Co178 2.257 . S
N234 C231 1.391 . S
N234 C235 1.388 . S
C235 H206 0.930 . S
C235 C230 1.391 . S
C235 N234 1.388 . S
Co236 O238 2.143 . S
Co236 O244 2.074 . S
Co236 O247 2.093 . S
Co236 O260 2.097 . S
Co236 N277 2.151 . S
Co236 N285 2.214 . S
Co237 O238 2.160 . S
Co237 O243 2.058 . S
Co237 O253 2.057 . S
Co237 O268 2.037 . S
Co237 N272 2.145 . S
Co237 N293 2.257 . S
O238 Co236 2.143 . S
O238 Co237 2.160 . S
C239 O240 1.278 . S
C239 O247 1.224 . S
O240 C239 1.278 . S
C241 O242 1.245 . S
C241 O253 1.232 . S
O242 C241 1.245 . S
O243 Co237 2.058 . S
O243 C269 1.269 . S
O244 Co236 2.074 . S
O244 C269 1.257 . S
H245 C270 0.930 . S
H246 C276 0.930 . S
O247 Co236 2.093 . S
O247 C239 1.224 . S
H248 C280 0.929 . S
H249 C282 0.930 . S
H250 C283 0.930 . S
H251 C281 0.929 . S
H252 C284 0.928 . S
O253 Co237 2.057 . S
O253 C241 1.232 . S
H254 C273 0.929 . S
H255 C274 0.929 . S
H256 C286 0.931 . S
H257 C278 0.929 . S
H258 C287 0.930 . S
H259 C279 0.931 . S
O260 Co236 2.097 . S
O260 C288 1.214 . S
H261 C289 0.929 . S
H262 C290 0.929 . S
H263 C291 0.930 . S
H264 C292 0.929 . S
H265 C294 0.930 . S
H266 C271 0.930 . S
H267 C275 0.930 . S
O268 Co237 2.037 . S
O268 C288 1.234 . S
C269 O243 1.269 . S
C269 O244 1.257 . S
C270 H245 0.930 . S
C270 C273 1.388 . S
C270 C275 1.418 . S
C271 H266 0.930 . S
C271 C274 1.404 . S
C271 C275 1.353 . S
N272 Co237 2.145 . S
N272 C273 1.397 . S
N272 C274 1.334 . S
C273 H254 0.929 . S
C273 C270 1.388 . S
C273 N272 1.397 . S
C274 H255 0.929 . S
C274 C271 1.404 . S
C274 N272 1.334 . S
C275 H267 0.930 . S
C275 C270 1.418 . S
C275 C271 1.353 . S
C276 H246 0.930 . S
C276 N277 1.330 . S
C276 C278 1.446 . S
N277 Co236 2.151 . S
N277 C276 1.330 . S
N277 C281 1.418 . S
C278 H257 0.929 . S
C278 C276 1.446 . S
C278 C279 1.332 . S
C279 H259 0.931 . S
C279 C278 1.332 . S
C279 C280 1.267 . S
C280 H248 0.929 . S
C280 C279 1.267 . S
C280 C281 1.251 . S
C281 H251 0.929 . S
C281 N277 1.418 . S
C281 C280 1.251 . S
C282 H249 0.930 . S
C282 C284 1.406 . S
C282 C287 1.261 . S
C283 H250 0.930 . S
C283 N285 1.325 . S
C283 C286 1.357 . S
C284 H252 0.928 . S
C284 C282 1.406 . S
C284 N285 1.261 . S
N285 Co236 2.214 . S
N285 C283 1.325 . S
N285 C284 1.261 . S
C286 H256 0.931 . S
C286 C283 1.357 . S
C286 C287 1.312 . S
C287 H258 0.930 . S
C287 C282 1.261 . S
C287 C286 1.312 . S
C288 O260 1.214 . S
C288 O268 1.234 . S
C289 H261 0.929 . S
C289 C292 1.391 . S
C289 C294 1.391 . S
C290 H262 0.929 . S
C290 C291 1.390 . S
C290 N293 1.391 . S
C291 H263 0.930 . S
C291 C290 1.390 . S
C291 C292 1.392 . S
C292 H264 0.929 . S
C292 C289 1.391 . S
C292 C291 1.392 . S
N293 Co237 2.257 . S
N293 C290 1.391 . S
N293 C294 1.388 . S
C294 H265 0.930 . S
C294 C289 1.391 . S
C294 N293 1.388 . S
Co295 O297 2.143 . S
Co295 O303 2.074 . S
Co295 O306 2.093 . S
Co295 O319 2.097 . S
Co295 N336 2.151 . S
Co295 N344 2.214 . S
Co296 O297 2.160 . S
Co296 O302 2.058 . S
Co296 O312 2.057 . S
Co296 O327 2.037 . S
Co296 N331 2.145 . S
Co296 N352 2.257 . S
O297 Co295 2.143 . S
O297 Co296 2.160 . S
C298 O299 1.278 . S
C298 O306 1.224 . S
O299 C298 1.278 . S
C300 O301 1.245 . S
C300 O312 1.232 . S
O301 C300 1.245 . S
O302 Co296 2.058 . S
O302 C328 1.269 . S
O303 Co295 2.074 . S
O303 C328 1.257 . S
H304 C329 0.930 . S
H305 C335 0.930 . S
O306 Co295 2.093 . S
O306 C298 1.224 . S
H307 C339 0.929 . S
H308 C341 0.930 . S
H309 C342 0.930 . S
H310 C340 0.929 . S
H311 C343 0.928 . S
O312 Co296 2.057 . S
O312 C300 1.232 . S
H313 C332 0.929 . S
H314 C333 0.929 . S
H315 C345 0.931 . S
H316 C337 0.929 . S
H317 C346 0.930 . S
H318 C338 0.931 . S
O319 Co295 2.097 . S
O319 C347 1.214 . S
H320 C348 0.929 . S
H321 C349 0.929 . S
H322 C350 0.930 . S
H323 C351 0.929 . S
H324 C353 0.930 . S
H325 C330 0.930 . S
H326 C334 0.930 . S
O327 Co296 2.037 . S
O327 C347 1.234 . S
C328 O302 1.269 . S
C328 O303 1.257 . S
C329 H304 0.930 . S
C329 C332 1.388 . S
C329 C334 1.418 . S
C330 H325 0.930 . S
C330 C333 1.404 . S
C330 C334 1.353 . S
N331 Co296 2.145 . S
N331 C332 1.397 . S
N331 C333 1.334 . S
C332 H313 0.929 . S
C332 C329 1.388 . S
C332 N331 1.397 . S
C333 H314 0.929 . S
C333 C330 1.404 . S
C333 N331 1.334 . S
C334 H326 0.930 . S
C334 C329 1.418 . S
C334 C330 1.353 . S
C335 H305 0.930 . S
C335 N336 1.330 . S
C335 C337 1.446 . S
N336 Co295 2.151 . S
N336 C335 1.330 . S
N336 C340 1.418 . S
C337 H316 0.929 . S
C337 C335 1.446 . S
C337 C338 1.332 . S
C338 H318 0.931 . S
C338 C337 1.332 . S
C338 C339 1.267 . S
C339 H307 0.929 . S
C339 C338 1.267 . S
C339 C340 1.251 . S
C340 H310 0.929 . S
C340 N336 1.418 . S
C340 C339 1.251 . S
C341 H308 0.930 . S
C341 C343 1.406 . S
C341 C346 1.261 . S
C342 H309 0.930 . S
C342 N344 1.325 . S
C342 C345 1.357 . S
C343 H311 0.928 . S
C343 C341 1.406 . S
C343 N344 1.261 . S
N344 Co295 2.214 . S
N344 C342 1.325 . S
N344 C343 1.261 . S
C345 H315 0.931 . S
C345 C342 1.357 . S
C345 C346 1.312 . S
C346 H317 0.930 . S
C346 C341 1.261 . S
C346 C345 1.312 . S
C347 O319 1.214 . S
C347 O327 1.234 . S
C348 H320 0.929 . S
C348 C351 1.391 . S
C348 C353 1.391 . S
C349 H321 0.929 . S
C349 C350 1.390 . S
C349 N352 1.391 . S
C350 H322 0.930 . S
C350 C349 1.390 . S
C350 C351 1.392 . S
C351 H323 0.929 . S
C351 C348 1.391 . S
C351 C350 1.392 . S
N352 Co296 2.257 . S
N352 C349 1.391 . S
N352 C353 1.388 . S
C353 H324 0.930 . S
C353 C348 1.391 . S
C353 N352 1.388 . S
C354 C355 1.391 . S
C354 C356 1.394 . S
C354 H370 0.931 . S
C355 C354 1.391 . S
C355 C359 1.376 . S
C356 C354 1.394 . S
C356 C357 1.369 . S
C356 C360 1.531 . S
C357 C356 1.369 . S
C357 C358 1.410 . S
C357 C365 1.503 1_545 S
C358 C357 1.410 . S
C358 C359 1.392 . S
C358 C361 1.511 . S
C359 C355 1.376 . S
C359 C358 1.392 . S
C359 H371 0.929 . S
C360 C356 1.531 . S
C360 H372 0.960 1_545 S
C360 H373 0.961 . S
C360 H374 0.960 . S
C361 C358 1.511 . S
C361 H375 0.961 . S
C361 H376 0.961 . S
C361 H377 0.961 . S
C362 C363 1.370 . S
C362 C364 1.363 . S
C362 H378 0.931 . S
C363 C362 1.370 . S
C363 C367 1.408 . S
C364 C362 1.363 . S
C364 C365 1.370 . S
C364 C368 1.524 . S
C365 C357 1.503 1_565 S
C365 C364 1.370 . S
C365 C366 1.403 . S
C366 C365 1.403 . S
C366 C367 1.404 . S
C366 C369 1.539 . S
C367 C363 1.408 . S
C367 C366 1.404 . S
C367 H379 0.930 . S
C368 C364 1.524 . S
C368 H380 0.956 . S
C368 H381 0.961 . S
C368 H382 0.961 . S
C369 C366 1.539 . S
C369 H383 0.958 . S
C369 H384 0.961 . S
C369 H385 0.960 1_565 S
H370 C354 0.931 . S
H371 C359 0.929 . S
H372 C360 0.960 1_565 S
H373 C360 0.961 . S
H374 C360 0.960 . S
H375 C361 0.961 . S
H376 C361 0.961 . S
H377 C361 0.961 . S
H378 C362 0.931 . S
H379 C367 0.930 . S
H380 C368 0.956 . S
H381 C368 0.961 . S
H382 C368 0.961 . S
H383 C369 0.958 . S
H384 C369 0.961 . S
H385 C369 0.960 1_545 S
C386 C387 1.391 . S
C386 C388 1.394 . S
C386 H402 0.931 . S
C387 C386 1.391 . S
C387 C391 1.376 . S
C388 C386 1.394 . S
C388 C389 1.369 . S
C388 C392 1.531 . S
C389 C388 1.369 . S
C389 C390 1.410 . S
C389 C397 1.503 . S
C390 C389 1.410 . S
C390 C391 1.392 . S
C390 C393 1.511 . S
C391 C387 1.376 . S
C391 C390 1.392 . S
C391 H403 0.929 . S
C392 C388 1.531 . S
C392 H404 0.960 . S
C392 H405 0.962 . S
C392 H406 0.960 . S
C393 C390 1.511 . S
C393 H407 0.961 . S
C393 H408 0.961 . S
C393 H409 0.961 . S
C394 C395 1.370 . S
C394 C396 1.363 . S
C394 H410 0.931 . S
C395 C394 1.370 . S
C395 C399 1.408 . S
C396 C394 1.363 . S
C396 C397 1.370 . S
C396 C400 1.524 . S
C397 C389 1.503 . S
C397 C396 1.370 . S
C397 C398 1.403 . S
C398 C397 1.403 . S
C398 C399 1.404 . S
C398 C401 1.539 . S
C399 C395 1.408 . S
C399 C398 1.404 . S
C399 H411 0.930 . S
C400 C396 1.524 . S
C400 H412 0.956 . S
C400 H413 0.961 . S
C400 H414 0.961 . S
C401 C398 1.539 . S
C401 H415 0.958 . S
C401 H416 0.961 . S
C401 H417 0.960 . S
H402 C386 0.931 . S
H403 C391 0.929 . S
H404 C392 0.960 . S
H405 C392 0.962 . S
H406 C392 0.960 . S
H407 C393 0.961 . S
H408 C393 0.961 . S
H409 C393 0.961 . S
H410 C394 0.931 . S
H411 C399 0.930 . S
H412 C400 0.956 . S
H413 C400 0.961 . S
H414 C400 0.961 . S
H415 C401 0.958 . S
H416 C401 0.961 . S
H417 C401 0.960 . S
C418 C419 1.391 . S
C418 C420 1.394 . S
C418 H434 0.931 . S
C419 C418 1.391 . S
C419 C423 1.376 . S
C420 C418 1.394 . S
C420 C421 1.369 . S
C420 C424 1.531 . S
C421 C420 1.369 . S
C421 C422 1.410 . S
C421 C429 1.503 1_655 S
C422 C421 1.410 . S
C422 C423 1.392 . S
C422 C425 1.511 . S
C423 C419 1.376 . S
C423 C422 1.392 . S
C423 H435 0.929 . S
C424 C420 1.531 . S
C424 H436 0.960 . S
C424 H437 0.962 . S
C424 H438 0.960 . S
C425 C422 1.511 . S
C425 H439 0.961 . S
C425 H440 0.961 1_655 S
C425 H441 0.963 . S
C426 C427 1.370 . S
C426 C428 1.363 . S
C426 H442 0.931 . S
C427 C426 1.370 . S
C427 C431 1.408 . S
C428 C426 1.363 . S
C428 C429 1.370 . S
C428 C432 1.524 . S
C429 C421 1.503 1_455 S
C429 C428 1.370 . S
C429 C430 1.403 . S
C430 C429 1.403 . S
C430 C431 1.404 . S
C430 C433 1.539 . S
C431 C427 1.408 . S
C431 C430 1.404 . S
C431 H443 0.930 . S
C432 C428 1.524 . S
C432 H444 0.956 1_455 S
C432 H445 0.961 1_455 S
C432 H446 0.961 . S
C433 C430 1.539 . S
C433 H447 0.958 . S
C433 H448 0.961 . S
C433 H449 0.960 . S
H434 C418 0.931 . S
H435 C423 0.929 . S
H436 C424 0.960 . S
H437 C424 0.962 . S
H438 C424 0.960 . S
H439 C425 0.961 . S
H440 C425 0.961 1_455 S
H441 C425 0.963 . S
H442 C426 0.931 . S
H443 C431 0.930 . S
H444 C432 0.956 1_655 S
H445 C432 0.961 1_655 S
H446 C432 0.961 . S
H447 C433 0.958 . S
H448 C433 0.961 . S
H449 C433 0.960 . S
C450 C451 1.391 . S
C450 C452 1.394 . S
C450 H466 0.931 . S
C451 C450 1.391 . S
C451 C455 1.376 . S
C452 C450 1.394 . S
C452 C453 1.369 . S
C452 C456 1.531 . S
C453 C452 1.369 . S
C453 C454 1.410 . S
C453 C461 1.503 1_455 S
C454 C453 1.410 . S
C454 C455 1.392 . S
C454 C457 1.511 . S
C455 C451 1.376 . S
C455 C454 1.392 . S
C455 H467 0.929 . S
C456 C452 1.531 . S
C456 H468 0.960 1_455 S
C456 H469 0.962 . S
C456 H470 0.960 . S
C457 C454 1.511 . S
C457 H471 0.961 . S
C457 H472 0.967 . S
C457 H473 0.961 . S
C458 C459 1.370 . S
C458 C460 1.363 . S
C458 H474 0.931 . S
C459 C458 1.370 . S
C459 C463 1.408 . S
C460 C458 1.363 . S
C460 C461 1.370 . S
C460 C464 1.524 . S
C461 C453 1.503 1_655 S
C461 C460 1.370 . S
C461 C462 1.403 . S
C462 C461 1.403 . S
C462 C463 1.404 . S
C462 C465 1.539 . S
C463 C459 1.408 . S
C463 C462 1.404 . S
C463 H475 0.930 . S
C464 C460 1.524 . S
C464 H476 0.956 . S
C464 H477 0.961 . S
C464 H478 0.961 . S
C465 C462 1.539 . S
C465 H479 0.958 . S
C465 H480 0.961 . S
C465 H481 0.960 1_655 S
H466 C450 0.931 . S
H467 C455 0.929 . S
H468 C456 0.960 1_655 S
H469 C456 0.962 . S
H470 C456 0.960 . S
H471 C457 0.961 . S
H472 C457 0.967 . S
H473 C457 0.961 . S
H474 C458 0.931 . S
H475 C463 0.930 . S
H476 C464 0.956 . S
H477 C464 0.961 . S
H478 C464 0.961 . S
H479 C465 0.958 . S
H480 C465 0.961 . S
H481 C465 0.960 1_455 S
C482 C483 1.391 . S
C482 C484 1.394 . S
C482 H498 0.931 . S
C483 C482 1.391 . S
C483 C487 1.376 . S
C484 C482 1.394 . S
C484 C485 1.369 . S
C484 C488 1.531 . S
C485 C484 1.369 . S
C485 C486 1.410 . S
C485 C493 1.503 1_565 S
C486 C485 1.410 . S
C486 C487 1.392 . S
C486 C489 1.511 . S
C487 C483 1.376 . S
C487 C486 1.392 . S
C487 H499 0.929 . S
C488 C484 1.531 . S
C488 H500 0.960 . S
C488 H501 0.962 . S
C488 H502 0.960 . S
C489 C486 1.511 . S
C489 H503 0.961 . S
C489 H504 0.961 1_565 S
C489 H505 0.961 . S
C490 C491 1.370 . S
C490 C492 1.363 . S
C490 H506 0.931 . S
C491 C490 1.370 . S
C491 C495 1.408 . S
C492 C490 1.363 . S
C492 C493 1.370 . S
C492 C496 1.524 . S
C493 C485 1.503 1_545 S
C493 C492 1.370 . S
C493 C494 1.403 . S
C494 C493 1.403 . S
C494 C495 1.404 . S
C494 C497 1.539 . S
C495 C491 1.408 . S
C495 C494 1.404 . S
C495 H507 0.930 . S
C496 C492 1.524 . S
C496 H508 0.956 1_545 S
C496 H509 0.961 1_545 S
C496 H510 0.961 . S
C497 C494 1.539 . S
C497 H511 0.958 . S
C497 H512 0.961 . S
C497 H513 0.960 . S
H498 C482 0.931 . S
H499 C487 0.929 . S
H500 C488 0.960 . S
H501 C488 0.962 . S
H502 C488 0.960 . S
H503 C489 0.961 . S
H504 C489 0.961 1_545 S
H505 C489 0.961 . S
H506 C490 0.931 . S
H507 C495 0.930 . S
H508 C496 0.956 1_565 S
H509 C496 0.961 1_565 S
H510 C496 0.961 . S
H511 C497 0.958 . S
H512 C497 0.961 . S
H513 C497 0.960 . S
C514 C515 1.391 . S
C514 C516 1.394 . S
C514 H530 0.931 . S
C515 C514 1.391 . S
C515 C519 1.376 . S
C516 C514 1.394 . S
C516 C517 1.369 . S
C516 C520 1.531 . S
C517 C516 1.369 . S
C517 C518 1.410 . S
C517 C525 1.503 . S
C518 C517 1.410 . S
C518 C519 1.392 . S
C518 C521 1.511 . S
C519 C515 1.376 . S
C519 C518 1.392 . S
C519 H531 0.929 . S
C520 C516 1.531 . S
C520 H532 0.960 . S
C520 H533 0.962 . S
C520 H534 0.960 . S
C521 C518 1.511 . S
C521 H535 0.961 . S
C521 H536 0.961 . S
C521 H537 0.961 . S
C522 C523 1.370 . S
C522 C524 1.363 . S
C522 H538 0.931 . S
C523 C522 1.370 . S
C523 C527 1.408 . S
C524 C522 1.363 . S
C524 C525 1.370 . S
C524 C528 1.524 . S
C525 C517 1.503 . S
C525 C524 1.370 . S
C525 C526 1.403 . S
C526 C525 1.403 . S
C526 C527 1.404 . S
C526 C529 1.539 . S
C527 C523 1.408 . S
C527 C526 1.404 . S
C527 H539 0.930 . S
C528 C524 1.524 . S
C528 H540 0.956 . S
C528 H541 0.961 . S
C528 H542 0.961 . S
C529 C526 1.539 . S
C529 H543 0.958 . S
C529 H544 0.961 . S
C529 H545 0.960 . S
H530 C514 0.931 . S
H531 C519 0.929 . S
H532 C520 0.960 . S
H533 C520 0.962 . S
H534 C520 0.960 . S
H535 C521 0.961 . S
H536 C521 0.961 . S
H537 C521 0.961 . S
H538 C522 0.931 . S
H539 C527 0.930 . S
H540 C528 0.956 . S
H541 C528 0.961 . S
H542 C528 0.961 . S
H543 C529 0.958 . S
H544 C529 0.961 . S
H545 C529 0.960 . S
C546 C547 1.391 . S
C546 C548 1.394 . S
C546 H562 0.931 . S
C547 C546 1.391 . S
C547 C551 1.376 . S
C548 C546 1.394 . S
C548 C549 1.369 . S
C548 C552 1.531 . S
C549 C548 1.369 . S
C549 C550 1.410 . S
C549 C557 1.503 1_556 S
C550 C549 1.410 . S
C550 C551 1.392 . S
C550 C553 1.511 . S
C551 C547 1.376 . S
C551 C550 1.392 . S
C551 H563 0.929 . S
C552 C548 1.531 . S
C552 H564 0.929 1_556 S
C552 H565 0.962 . S
C552 H566 0.960 . S
C553 C550 1.511 . S
C553 H567 0.961 . S
C553 H568 0.961 . S
C553 H569 0.961 . S
C554 C555 1.370 . S
C554 C556 1.363 . S
C554 H570 0.931 . S
C555 C554 1.370 . S
C555 C559 1.408 . S
C556 C554 1.363 . S
C556 C557 1.370 . S
C556 C560 1.524 . S
C557 C549 1.503 1_554 S
C557 C556 1.370 . S
C557 C558 1.403 . S
C558 C557 1.403 . S
C558 C559 1.404 . S
C558 C561 1.539 . S
C559 C555 1.408 . S
C559 C558 1.404 . S
C559 H571 0.930 . S
C560 C556 1.524 . S
C560 H572 0.956 1_554 S
C560 H573 0.961 1_554 S
C560 H574 0.961 . S
C561 C558 1.539 . S
C561 H575 0.958 . S
C561 H576 0.961 . S
C561 H577 0.960 1_554 S
H562 C546 0.931 . S
H563 C551 0.929 . S
H564 C552 0.929 1_554 S
H565 C552 0.962 . S
H566 C552 0.960 . S
H567 C553 0.961 . S
H568 C553 0.961 . S
H569 C553 0.961 . S
H570 C554 0.931 . S
H571 C559 0.930 . S
H572 C560 0.956 1_556 S
H573 C560 0.961 1_556 S
H574 C560 0.961 . S
H575 C561 0.958 . S
H576 C561 0.961 . S
H577 C561 0.960 1_556 S
C578 C579 1.391 . S
C578 C580 1.394 . S
C578 H594 0.931 . S
C579 C578 1.391 . S
C579 C583 1.376 . S
C580 C578 1.394 . S
C580 C581 1.369 . S
C580 C584 1.531 . S
C581 C580 1.369 . S
C581 C582 1.410 . S
C581 C589 1.503 . S
C582 C581 1.410 . S
C582 C583 1.392 . S
C582 C585 1.511 . S
C583 C579 1.376 . S
C583 C582 1.392 . S
C583 H595 0.929 . S
C584 C580 1.531 . S
C584 H596 0.960 . S
C584 H597 0.962 . S
C584 H598 0.960 . S
C585 C582 1.511 . S
C585 H599 0.961 . S
C585 H600 0.961 . S
C585 H601 0.961 . S
C586 C587 1.370 . S
C586 C588 1.363 . S
C586 H602 0.931 . S
C587 C586 1.370 . S
C587 C591 1.408 . S
C588 C586 1.363 . S
C588 C589 1.370 . S
C588 C592 1.524 . S
C589 C581 1.503 . S
C589 C588 1.370 . S
C589 C590 1.403 . S
C590 C589 1.403 . S
C590 C591 1.404 . S
C590 C593 1.539 . S
C591 C587 1.408 . S
C591 C590 1.404 . S
C591 H603 0.930 . S
C592 C588 1.524 . S
C592 H604 0.956 . S
C592 H605 0.961 . S
C592 H606 0.961 . S
C593 C590 1.539 . S
C593 H607 0.958 . S
C593 H608 0.961 . S
C593 H609 0.960 . S
H594 C578 0.931 . S
H595 C583 0.929 . S
H596 C584 0.960 . S
H597 C584 0.962 . S
H598 C584 0.960 . S
H599 C585 0.961 . S
H600 C585 0.961 . S
H601 C585 0.961 . S
H602 C586 0.931 . S
H603 C591 0.930 . S
H604 C592 0.956 . S
H605 C592 0.961 . S
H606 C592 0.961 . S
H607 C593 0.958 . S
H608 C593 0.961 . S
H609 C593 0.960 . S
C610 C611 1.391 . S
C610 C612 1.394 . S
C610 H626 0.931 . S
C611 C610 1.391 . S
C611 C615 1.376 . S
C612 C610 1.394 . S
C612 C613 1.369 . S
C612 C616 1.531 . S
C613 C612 1.369 . S
C613 C614 1.410 . S
C613 C621 1.503 . S
C614 C613 1.410 . S
C614 C615 1.392 . S
C614 C617 1.511 . S
C615 C611 1.376 . S
C615 C614 1.392 . S
C615 H627 0.929 . S
C616 C612 1.531 . S
C616 H628 0.960 . S
C616 H629 0.962 . S
C616 H630 0.960 . S
C617 C614 1.511 . S
C617 H631 0.961 . S
C617 H632 0.961 . S
C617 H633 0.961 . S
C618 C619 1.370 . S
C618 C620 1.363 . S
C618 H634 0.931 . S
C619 C618 1.370 . S
C619 C623 1.408 . S
C620 C618 1.363 . S
C620 C621 1.370 . S
C620 C624 1.524 . S
C621 C613 1.503 . S
C621 C620 1.370 . S
C621 C622 1.403 . S
C622 C621 1.403 . S
C622 C623 1.404 . S
C622 C625 1.539 . S
C623 C619 1.408 . S
C623 C622 1.404 . S
C623 H635 0.930 . S
C624 C620 1.524 . S
C624 H636 0.956 . S
C624 H637 0.961 . S
C624 H638 0.961 . S
C625 C622 1.539 . S
C625 H639 0.958 . S
C625 H640 0.961 . S
C625 H641 0.960 . S
H626 C610 0.931 . S
H627 C615 0.929 . S
H628 C616 0.960 . S
H629 C616 0.962 . S
H630 C616 0.960 . S
H631 C617 0.961 . S
H632 C617 0.961 . S
H633 C617 0.961 . S
H634 C618 0.931 . S
H635 C623 0.930 . S
H636 C624 0.956 . S
H637 C624 0.961 . S
H638 C624 0.961 . S
H639 C625 0.958 . S
H640 C625 0.961 . S
H641 C625 0.960 . S
C642 C643 1.391 . S
C642 C644 1.394 . S
C642 H658 0.931 . S
C643 C642 1.391 . S
C643 C647 1.376 . S
C644 C642 1.394 . S
C644 C645 1.369 . S
C644 C648 1.531 . S
C645 C644 1.369 . S
C645 C646 1.410 . S
C645 C653 1.503 1_556 S
C646 C645 1.410 . S
C646 C647 1.392 . S
C646 C649 1.511 . S
C647 C643 1.376 . S
C647 C646 1.392 . S
C647 H659 0.929 . S
C648 C644 1.531 . S
C648 H660 0.960 . S
C648 H661 0.962 . S
C648 H662 0.960 . S
C649 C646 1.511 . S
C649 H663 0.961 . S
C649 H664 0.961 . S
C649 H665 0.961 . S
C650 C651 1.370 . S
C650 C652 1.363 . S
C650 H666 0.931 . S
C651 C650 1.370 . S
C651 C655 1.408 . S
C652 C650 1.363 . S
C652 C653 1.370 . S
C652 C656 1.531 . S
C653 C645 1.503 1_554 S
C653 C652 1.370 . S
C653 C654 1.403 . S
C654 C653 1.403 . S
C654 C655 1.404 . S
C654 C657 1.539 . S
C655 C651 1.408 . S
C655 C654 1.404 . S
C655 H667 0.930 . S
C656 C652 1.531 . S
C656 H668 0.950 1_554 S
C656 H669 0.953 1_554 S
C656 H670 0.967 . S
C657 C654 1.539 . S
C657 H671 0.958 . S
C657 H672 0.961 . S
C657 H673 0.933 1_554 S
H658 C642 0.931 . S
H659 C647 0.929 . S
H660 C648 0.960 . S
H661 C648 0.962 . S
H662 C648 0.960 . S
H663 C649 0.961 . S
H664 C649 0.961 . S
H665 C649 0.961 . S
H666 C650 0.931 . S
H667 C655 0.930 . S
H668 C656 0.950 1_556 S
H669 C656 0.953 1_556 S
H670 C656 0.967 . S
H671 C657 0.958 . S
H672 C657 0.961 . S
H673 C657 0.933 1_556 S
C674 C675 1.391 . S
C674 C676 1.394 . S
C674 H690 0.931 . S
C675 C674 1.391 . S
C675 C679 1.376 . S
C676 C674 1.394 . S
C676 C677 1.369 . S
C676 C680 1.531 . S
C677 C676 1.369 . S
C677 C678 1.410 . S
C677 C685 1.503 . S
C678 C677 1.410 . S
C678 C679 1.392 . S
C678 C681 1.511 . S
C679 C675 1.376 . S
C679 C678 1.392 . S
C679 H691 0.929 . S
C680 C676 1.531 . S
C680 H692 0.960 . S
C680 H693 0.962 . S
C680 H694 0.960 . S
C681 C678 1.511 . S
C681 H695 0.961 . S
C681 H696 0.961 . S
C681 H697 0.961 . S
C682 C683 1.370 . S
C682 C684 1.363 . S
C682 H698 0.931 . S
C683 C682 1.370 . S
C683 C687 1.408 . S
C684 C682 1.363 . S
C684 C685 1.370 . S
C684 C688 1.524 . S
C685 C677 1.503 . S
C685 C684 1.370 . S
C685 C686 1.403 . S
C686 C685 1.403 . S
C686 C687 1.404 . S
C686 C689 1.539 . S
C687 C683 1.408 . S
C687 C686 1.404 . S
C687 H699 0.930 . S
C688 C684 1.524 . S
C688 H700 0.956 . S
C688 H701 0.961 . S
C688 H702 0.961 . S
C689 C686 1.539 . S
C689 H703 0.958 . S
C689 H704 0.961 . S
C689 H705 0.960 . S
H690 C674 0.931 . S
H691 C679 0.929 . S
H692 C680 0.960 . S
H693 C680 0.962 . S
H694 C680 0.960 . S
H695 C681 0.961 . S
H696 C681 0.961 . S
H697 C681 0.961 . S
H698 C682 0.931 . S
H699 C687 0.930 . S
H700 C688 0.956 . S
H701 C688 0.961 . S
H702 C688 0.961 . S
H703 C689 0.958 . S
H704 C689 0.961 . S
H705 C689 0.960 . S
C706 C707 1.391 . S
C706 C708 1.394 . S
C706 H722 0.931 . S
C707 C706 1.391 . S
C707 C711 1.376 . S
C708 C706 1.394 . S
C708 C709 1.369 . S
C708 C712 1.531 . S
C709 C708 1.369 . S
C709 C710 1.410 . S
C709 C717 1.503 . S
C710 C709 1.410 . S
C710 C711 1.392 . S
C710 C713 1.511 . S
C711 C707 1.376 . S
C711 C710 1.392 . S
C711 H723 0.929 . S
C712 C708 1.531 . S
C712 H724 0.960 . S
C712 H725 0.962 . S
C712 H726 0.960 . S
C713 C710 1.511 . S
C713 H727 0.961 . S
C713 H728 0.961 . S
C713 H729 0.961 . S
C714 C715 1.370 . S
C714 C716 1.363 . S
C714 H730 0.931 . S
C715 C714 1.370 . S
C715 C719 1.408 . S
C716 C714 1.363 . S
C716 C717 1.370 . S
C716 C720 1.524 . S
C717 C709 1.503 . S
C717 C716 1.370 . S
C717 C718 1.403 . S
C718 C717 1.403 . S
C718 C719 1.404 . S
C718 C721 1.539 . S
C719 C715 1.408 . S
C719 C718 1.404 . S
C719 H731 0.930 . S
C720 C716 1.524 . S
C720 H732 0.956 . S
C720 H733 0.961 . S
C720 H734 0.961 . S
C721 C718 1.539 . S
C721 H735 0.958 . S
C721 H736 0.961 . S
C721 H737 0.960 . S
H722 C706 0.931 . S
H723 C711 0.929 . S
H724 C712 0.960 . S
H725 C712 0.962 . S
H726 C712 0.960 . S
H727 C713 0.961 . S
H728 C713 0.961 . S
H729 C713 0.961 . S
H730 C714 0.931 . S
H731 C719 0.930 . S
H732 C720 0.956 . S
H733 C720 0.961 . S
H734 C720 0.961 . S
H735 C721 0.958 . S
H736 C721 0.961 . S
H737 C721 0.960 . S
C355 C5 1.184 . S
C363 C182 1.192 . S
C387 C64 1.188 . S
C395 C241 1.190 . S
C419 C123 1.191 . S
C427 C300 1.190 . S
C451 C111 1.855 . S
C459 C288 1.855 . S
C483 C347 1.845 . S
C491 C170 1.854 . S
C515 C229 1.845 . S
C523 C52 1.855 . S
C547 C151 1.333 . S
C555 C3 1.355 . S
C579 C210 1.341 . S
C587 C62 1.352 . S
C611 C121 1.339 . S
C619 C269 1.356 . S
C643 C328 1.337 . S
C651 C180 1.352 . S
C675 C239 1.362 . S
C683 C33 1.348 . S
C707 C298 1.335 . S
C715 C92 1.356 . S
