# Generated by pormake.
# Topology wme, (6)-cn, num edge types: 1
# Building blocks:
#     Node 0, Type 0, BuildingBlock: UKALOJ_clean_sbu_0, # of connection points: 6
#     Node 1, Type 0, BuildingBlock: UKALOJ_clean_sbu_0, # of connection points: 6
#     Node 2, Type 0, BuildingBlock: UKALOJ_clean_sbu_0, # of connection points: 6
#     Node 3, Type 0, BuildingBlock: UKALOJ_clean_sbu_0, # of connection points: 6
#     Node 4, Type 0, BuildingBlock: UKALOJ_clean_sbu_0, # of connection points: 6
#     Node 5, Type 0, BuildingBlock: UKALOJ_clean_sbu_0, # of connection points: 6
#     Node 6, Type 0, BuildingBlock: UKALOJ_clean_sbu_0, # of connection points: 6
#     Node 7, Type 0, BuildingBlock: UKALOJ_clean_sbu_0, # of connection points: 6
#     Node 8, Type 0, BuildingBlock: UKALOJ_clean_sbu_0, # of connection points: 6
#     Node 9, Type 0, BuildingBlock: UKALOJ_clean_sbu_0, # of connection points: 6
#     Node 10, Type 0, BuildingBlock: UKALOJ_clean_sbu_0, # of connection points: 6
#     Node 11, Type 0, BuildingBlock: UKALOJ_clean_sbu_0, # of connection points: 6
#     Edge 12, Type (0, 0), BuildingBlock: XUDNAN_clean_linker_2, # of connection points: 2
#     Edge 13, Type (0, 0), BuildingBlock: XUDNAN_clean_linker_2, # of connection points: 2
#     Edge 14, Type (0, 0), BuildingBlock: XUDNAN_clean_linker_2, # of connection points: 2
#     Edge 15, Type (0, 0), BuildingBlock: XUDNAN_clean_linker_2, # of connection points: 2
#     Edge 16, Type (0, 0), BuildingBlock: XUDNAN_clean_linker_2, # of connection points: 2
#     Edge 17, Type (0, 0), BuildingBlock: XUDNAN_clean_linker_2, # of connection points: 2
#     Edge 18, Type (0, 0), BuildingBlock: XUDNAN_clean_linker_2, # of connection points: 2
#     Edge 19, Type (0, 0), BuildingBlock: XUDNAN_clean_linker_2, # of connection points: 2
#     Edge 20, Type (0, 0), BuildingBlock: XUDNAN_clean_linker_2, # of connection points: 2
#     Edge 21, Type (0, 0), BuildingBlock: XUDNAN_clean_linker_2, # of connection points: 2
#     Edge 22, Type (0, 0), BuildingBlock: XUDNAN_clean_linker_2, # of connection points: 2
#     Edge 23, Type (0, 0), BuildingBlock: XUDNAN_clean_linker_2, # of connection points: 2
#     Edge 24, Type (0, 0), BuildingBlock: XUDNAN_clean_linker_2, # of connection points: 2
#     Edge 25, Type (0, 0), BuildingBlock: XUDNAN_clean_linker_2, # of connection points: 2
#     Edge 26, Type (0, 0), BuildingBlock: XUDNAN_clean_linker_2, # of connection points: 2
#     Edge 27, Type (0, 0), BuildingBlock: XUDNAN_clean_linker_2, # of connection points: 2
#     Edge 28, Type (0, 0), BuildingBlock: XUDNAN_clean_linker_2, # of connection points: 2
#     Edge 29, Type (0, 0), BuildingBlock: XUDNAN_clean_linker_2, # of connection points: 2
#     Edge 30, Type (0, 0), BuildingBlock: XUDNAN_clean_linker_2, # of connection points: 2
#     Edge 31, Type (0, 0), BuildingBlock: XUDNAN_clean_linker_2, # of connection points: 2
#     Edge 32, Type (0, 0), BuildingBlock: XUDNAN_clean_linker_2, # of connection points: 2
#     Edge 33, Type (0, 0), BuildingBlock: XUDNAN_clean_linker_2, # of connection points: 2
#     Edge 34, Type (0, 0), BuildingBlock: XUDNAN_clean_linker_2, # of connection points: 2
#     Edge 35, Type (0, 0), BuildingBlock: XUDNAN_clean_linker_2, # of connection points: 2
#     Edge 36, Type (0, 0), BuildingBlock: XUDNAN_clean_linker_2, # of connection points: 2
#     Edge 37, Type (0, 0), BuildingBlock: XUDNAN_clean_linker_2, # of connection points: 2
#     Edge 38, Type (0, 0), BuildingBlock: XUDNAN_clean_linker_2, # of connection points: 2
#     Edge 39, Type (0, 0), BuildingBlock: XUDNAN_clean_linker_2, # of connection points: 2
#     Edge 40, Type (0, 0), BuildingBlock: XUDNAN_clean_linker_2, # of connection points: 2
#     Edge 41, Type (0, 0), BuildingBlock: XUDNAN_clean_linker_2, # of connection points: 2
#     Edge 42, Type (0, 0), BuildingBlock: XUDNAN_clean_linker_2, # of connection points: 2
#     Edge 43, Type (0, 0), BuildingBlock: XUDNAN_clean_linker_2, # of connection points: 2
#     Edge 44, Type (0, 0), BuildingBlock: XUDNAN_clean_linker_2, # of connection points: 2
#     Edge 45, Type (0, 0), BuildingBlock: XUDNAN_clean_linker_2, # of connection points: 2
#     Edge 46, Type (0, 0), BuildingBlock: XUDNAN_clean_linker_2, # of connection points: 2
#     Edge 47, Type (0, 0), BuildingBlock: XUDNAN_clean_linker_2, # of connection points: 2
# Relax obj value: 0.118
# Max RMSD: 0.177
# Mean RMSD: 0.177
data_MOF--net-wme--node1-UKALOJ_clean_sbu_0--edge1-XUDNAN_clean_linker_2
_symmetry_space_group_name_H-M    P1
_symmetry_Int_Tables_number       1
_symmetry_cell_setting            triclinic
loop_
_symmetry_equiv_pos_as_xyz
'x, y, z'
_cell_length_a     28.711699
_cell_length_b     28.596783
_cell_length_c     78.744696
_cell_angle_alpha  89.756791
_cell_angle_beta   90.047224
_cell_angle_gamma 120.08952
loop_
_atom_site_label
_atom_site_type_symbol
_atom_site_fract_x
_atom_site_fract_y
_atom_site_fract_z
_atom_type_partial_charge
Zn0 Zn 0.21198 0.30885 0.15954 0.0
O1 O 0.18804 0.36748 0.16251 0.0
C2 C 0.31532 0.38864 0.14597 0.0
Zn3 Zn 0.20599 0.31175 0.13127 0.0
C4 C 0.17704 0.38486 0.14906 0.0
O5 O 0.18448 0.37032 0.13456 0.0
C6 C 0.23515 0.23137 0.14094 0.0
O7 O 0.1226 0.25424 0.13123 0.0
O8 O 0.13087 0.25082 0.15885 0.0
N9 N 0.20902 0.32137 0.10524 0.0
C10 C 0.19611 0.28524 0.09256 0.0
C11 C 0.24218 0.36369 0.08166 0.0
N12 N 0.23728 0.37006 0.09838 0.0
N13 N 0.21739 0.3108 0.0776 0.0
C14 C 0.21509 0.32237 0.19947 0.0
C15 C 0.19774 0.24335 0.20675 0.0
N16 N 0.21013 0.29466 0.18509 0.0
N17 N 0.19932 0.24568 0.18972 0.0
N18 N 0.20733 0.29082 0.21328 0.0
H19 H 0.25591 0.40242 0.18875 0.0
H20 H 0.19292 0.38332 0.19904 0.0
H21 H 0.25154 0.40008 0.21174 0.0
C22 C 0.23007 0.38059 0.19982 0.0
C23 C 0.16066 0.22532 0.09483 0.0
H24 H 0.13135 0.21591 0.10518 0.0
H25 H 0.13808 0.20649 0.08301 0.0
H26 H 0.18558 0.20706 0.09818 0.0
O27 O 0.22583 0.25235 0.12818 0.0
O28 O 0.2333 0.24804 0.15572 0.0
C29 C 0.10141 0.23652 0.14573 0.0
O30 O 0.29309 0.36921 0.16021 0.0
O31 O 0.28845 0.37073 0.13234 0.0
Zn32 Zn 0.88617 0.22925 0.6306 0.0
O33 O 0.86878 0.15066 0.62654 0.0
C34 C -0.00961 0.25376 0.64572 0.0
Zn35 Zn 0.8808 0.2182 0.65879 0.0
C36 C 0.85554 0.11908 0.63921 0.0
O37 O 0.85833 0.1373 0.65408 0.0
C38 C 0.90564 0.32725 0.64952 0.0
O39 O 0.79832 0.19472 0.65764 0.0
O40 O 0.80327 0.20037 0.62977 0.0
N41 N 0.8743 0.20177 0.68444 0.0
C42 C 0.85435 0.216 0.69773 0.0
C43 C 0.87555 0.15892 0.70691 0.0
N44 N 0.88758 0.16649 0.69025 0.0
N45 N 0.8547 0.18955 0.71197 0.0
C46 C 0.91453 0.22955 0.59226 0.0
C47 C 0.88248 0.27545 0.58113 0.0
N48 N 0.89166 0.24309 0.60487 0.0
N49 N 0.87161 0.27139 0.59788 0.0
N50 N 0.90919 0.24933 0.57717 0.0
H51 H 0.95569 0.19961 0.60826 0.0
H52 H 0.91689 0.15605 0.59143 0.0
H53 H 0.98038 0.2159 0.5868 0.0
C54 C 0.94387 0.19897 0.59491 0.0
C55 C 0.83189 0.2532 0.69653 0.0
H56 H 0.81858 0.25467 0.68345 0.0
H57 H 0.79763 0.24029 0.70545 0.0
H58 H 0.86375 0.29457 0.70007 0.0
O59 O 0.90183 0.29947 0.66267 0.0
O60 O 0.90099 0.30705 0.63487 0.0
C61 C 0.77546 0.18798 0.64331 0.0
O62 O 0.9686 0.25666 0.63203 0.0
O63 O 0.96285 0.239 0.65934 0.0
Zn64 Zn 0.64424 0.87502 0.15943 0.0
O65 O 0.59052 0.79053 0.15841 0.0
C66 C 0.56628 0.89521 0.14326 0.0
Zn67 Zn 0.65723 0.87893 0.13124 0.0
C68 C 0.58221 0.76754 0.14404 0.0
O69 O 0.60395 0.7957 0.13082 0.0
C70 C 0.72271 0.98566 0.14626 0.0
O71 O 0.72075 0.86233 0.13278 0.0
O72 O 0.70728 0.85941 0.16032 0.0
N73 N 0.65898 0.87996 0.10508 0.0
C74 C 0.69798 0.90579 0.09327 0.0
C75 C 0.62298 0.86609 0.08022 0.0
N76 N 0.6126 0.85499 0.09685 0.0
N77 N 0.67627 0.89796 0.07752 0.0
C78 C 0.61322 0.84149 0.19802 0.0
C79 C 0.68425 0.90274 0.20991 0.0
N80 N 0.6451 0.87535 0.18565 0.0
N81 N 0.68898 0.91339 0.19316 0.0
N82 N 0.63725 0.85756 0.21343 0.0
H83 H 0.53929 0.80375 0.18388 0.0
H84 H 0.56032 0.75841 0.19206 0.0
H85 H 0.53189 0.78694 0.20627 0.0
C86 C 0.55778 0.79501 0.19493 0.0
C87 C 0.75664 0.94045 0.0973 0.0
H88 H 0.76384 0.94596 0.11111 0.0
H89 H 0.7787 0.92058 0.09253 0.0
H90 H 0.77318 0.98031 0.09089 0.0
O91 O 0.71098 0.96167 0.13207 0.0
O92 O 0.69959 0.95921 0.15965 0.0
C93 C 0.73186 0.85419 0.14775 0.0
O94 O 0.57994 0.88922 0.15812 0.0
O95 O 0.5923 0.89351 0.13044 0.0
Zn96 Zn 0.74938 0.65683 0.62869 0.0
O97 O 0.82885 0.71594 0.62479 0.0
C98 C 0.7221 0.7393 0.64155 0.0
Zn99 Zn 0.7592 0.67186 0.65681 0.0
C100 C 0.85923 0.74123 0.63717 0.0
O101 O 0.84007 0.73226 0.65216 0.0
C102 C 0.65073 0.58425 0.64803 0.0
O103 O 0.78438 0.61615 0.65754 0.0
O104 O 0.77625 0.59929 0.63013 0.0
N105 N 0.77274 0.68412 0.68254 0.0
C106 C 0.76664 0.65052 0.69556 0.0
C107 C 0.80412 0.73037 0.70551 0.0
N108 N 0.79587 0.73364 0.68881 0.0
N109 N 0.78655 0.6787 0.71012 0.0
C110 C 0.74215 0.68388 0.59071 0.0
C111 C 0.70066 0.60661 0.57901 0.0
N112 N 0.73626 0.64716 0.60265 0.0
N113 N 0.71082 0.59916 0.59526 0.0
N114 N 0.71976 0.65951 0.57586 0.0
H115 H 0.79894 0.75678 0.60409 0.0
H116 H 0.79339 0.7649 0.58157 0.0
H117 H 0.7412 0.75697 0.59565 0.0
C118 C 0.77088 0.74395 0.59326 0.0
C119 C 0.73866 0.59013 0.69416 0.0
H120 H 0.76879 0.5775 0.69189 0.0
H121 H 0.71683 0.57082 0.7061 0.0
H122 H 0.70999 0.57536 0.68346 0.0
O123 O 0.67904 0.61098 0.66065 0.0
O124 O 0.67051 0.59602 0.63315 0.0
C125 C 0.79005 0.59217 0.6449 0.0
O126 O 0.72402 0.71488 0.62835 0.0
O127 O 0.73506 0.72857 0.65581 0.0
Zn128 Zn 0.0726 0.7365 0.13059 0.0
O129 O 0.09416 0.81669 0.12542 0.0
C130 C 0.97478 0.71542 0.14877 0.0
Zn131 Zn 0.08755 0.75182 0.15847 0.0
C132 C 0.10762 0.84883 0.13788 0.0
O133 O 0.10603 0.83126 0.15281 0.0
C134 C 0.0563 0.64071 0.1512 0.0
O135 O 0.16859 0.77629 0.15513 0.0
O136 O 0.15418 0.75961 0.12778 0.0
N137 N 0.09894 0.77284 0.18357 0.0
C138 C 0.12044 0.76141 0.19711 0.0
C139 C 0.0957 0.81655 0.20535 0.0
N140 N 0.08355 0.80696 0.18879 0.0
N141 N 0.11887 0.7885 0.21096 0.0
C142 C 0.03757 0.73428 0.09278 0.0
C143 C 0.06083 0.68177 0.08131 0.0
N144 N 0.05976 0.7185 0.10506 0.0
N145 N 0.07424 0.68598 0.09786 0.0
N146 N 0.03796 0.7119 0.07767 0.0
H147 H 0.04355 0.81188 0.09224 0.0
H148 H 0.97681 0.75613 0.08811 0.0
H149 H 0.00366 0.77 0.10933 0.0
C150 C 0.0137 0.76971 0.09583 0.0
C151 C 0.14507 0.72605 0.19645 0.0
H152 H 0.15969 0.72548 0.18348 0.0
H153 H 0.17883 0.74012 0.20561 0.0
H154 H 0.11404 0.68413 0.19989 0.0
O155 O 0.07047 0.67314 0.16364 0.0
O156 O 0.05299 0.65664 0.13636 0.0
C157 C 0.18624 0.77618 0.14035 0.0
O158 O -0.0081 0.71481 0.13398 0.0
O159 O 0.00644 0.7281 0.16135 0.0
Zn160 Zn 0.31561 0.09072 0.65777 0.0
O161 O 0.37352 0.17071 0.66133 0.0
C162 C 0.39773 0.06502 0.64636 0.0
Zn163 Zn 0.32835 0.10139 0.62965 0.0
C164 C 0.39754 0.20179 0.64891 0.0
O165 O 0.38827 0.18293 0.63391 0.0
C166 C 0.24229 -0.00855 0.63895 0.0
O167 O 0.27271 0.12733 0.62734 0.0
O168 O 0.25776 0.11633 0.65484 0.0
N169 N 0.34476 0.11195 0.60404 0.0
C170 C 0.31474 0.08922 0.59003 0.0
C171 C 0.39468 0.14391 0.58169 0.0
N172 N 0.39436 0.14597 0.59877 0.0
N173 N 0.34527 0.10834 0.57587 0.0
C174 C 0.33369 0.10551 0.6969 0.0
C175 C 0.25356 0.06071 0.70643 0.0
N176 N 0.30093 0.08226 0.68346 0.0
N177 N 0.2512 0.05423 0.68945 0.0
N178 N 0.30484 0.09308 0.71145 0.0
H179 H 0.40695 0.18136 0.69478 0.0
H180 H 0.41217 0.13205 0.70756 0.0
H181 H 0.40924 0.12664 0.6847 0.0
C182 C 0.39394 0.13793 0.6959 0.0
C183 C 0.25526 0.05092 0.59016 0.0
H184 H 0.23633 0.05756 0.60145 0.0
H185 H 0.23651 0.0559 0.57847 0.0
H186 H 0.24774 0.00895 0.59048 0.0
O187 O 0.2675 0.02068 0.62621 0.0
O188 O 0.25554 0.01057 0.65383 0.0
C189 C 0.2491 0.13104 0.64046 0.0
O190 O 0.37487 0.06706 0.65994 0.0
O191 O 0.38465 0.07658 0.63224 0.0
Zn192 Zn 0.65095 0.77166 0.41243 0.0
O193 O 0.70977 0.85461 0.41266 0.0
C194 C 0.73461 0.74417 0.40351 0.0
Zn195 Zn 0.65742 0.76346 0.38433 0.0
C196 C 0.7266 0.876 0.39811 0.0
O197 O 0.7119 0.84656 0.38493 0.0
C198 C 0.57729 0.66074 0.39833 0.0
O199 O 0.59663 0.78181 0.38053 0.0
O200 O 0.59224 0.79422 0.40785 0.0
N201 N 0.66919 0.76501 0.35844 0.0
C202 C 0.63545 0.74995 0.34499 0.0
C203 C 0.71542 0.7941 0.33527 0.0
N204 N 0.71881 0.79202 0.3523 0.0
N205 N 0.66356 0.76786 0.33034 0.0
C206 C 0.66846 0.7757 0.452 0.0
C207 C 0.58979 0.75225 0.46102 0.0
N208 N 0.63789 0.77022 0.43827 0.0
N209 N 0.58911 0.75586 0.44397 0.0
N210 N 0.63902 0.76404 0.46641 0.0
H211 H 0.74616 0.8207 0.43997 0.0
H212 H 0.7476 0.8191 0.46296 0.0
H213 H 0.73354 0.76007 0.4511 0.0
C214 C 0.72752 0.79537 0.45141 0.0
C215 C 0.57536 0.72218 0.34622 0.0
H216 H 0.56207 0.75157 0.34313 0.0
H217 H 0.55685 0.68916 0.33678 0.0
H218 H 0.56096 0.70521 0.35906 0.0
O219 O 0.60122 0.68067 0.38433 0.0
O220 O 0.59098 0.68992 0.41156 0.0
C221 C 0.57732 0.79555 0.39273 0.0
O222 O 0.71049 0.75018 0.4161 0.0
O223 O 0.72003 0.74739 0.38852 0.0
Zn224 Zn 0.88261 0.65647 0.88152 0.0
O225 O 0.79942 0.59796 0.87973 0.0
C226 C 0.90347 0.57506 0.89526 0.0
Zn227 Zn 0.8761 0.65584 0.90987 0.0
C228 C 0.77145 0.58398 0.89327 0.0
O229 O 0.79421 0.60107 0.90753 0.0
C230 C -0.01396 0.73296 0.89881 0.0
O231 O 0.85628 0.71785 0.91013 0.0
O232 O 0.86043 0.71508 0.88233 0.0
N233 N 0.86998 0.64777 0.93593 0.0
C234 C 0.89281 0.68311 0.94885 0.0
C235 C 0.85212 0.60403 0.95962 0.0
N236 N 0.84434 0.5988 0.94272 0.0
N237 N 0.88259 0.6565 0.96394 0.0
C238 C 0.86322 0.63518 0.84223 0.0
C239 C 0.91544 0.71458 0.83264 0.0
N240 N 0.88974 0.66676 0.85562 0.0
N241 N 0.92235 0.71589 0.84956 0.0
N242 N 0.8786 0.66443 0.82768 0.0
H243 H 0.82696 0.5574 0.8545 0.0
H244 H 0.78044 0.57635 0.84597 0.0
H245 H 0.81507 0.55491 0.83186 0.0
C246 C 0.81912 0.57747 0.84368 0.0
C247 C 0.92636 0.74318 0.94651 0.0
H248 H 0.93432 0.75493 0.93301 0.0
H249 H 0.90414 0.7625 0.95158 0.0
H250 H 0.96495 0.75909 0.95349 0.0
O251 O 0.95736 0.71096 0.91183 0.0
O252 O 0.96549 0.7177 0.88413 0.0
C253 C 0.84977 0.73309 0.89556 0.0
O254 O 0.90262 0.59543 0.88097 0.0
O255 O 0.89404 0.59299 0.90881 0.0
Zn256 Zn 0.21301 0.898 0.38318 0.0
O257 O 0.18936 0.81599 0.38543 0.0
C258 C 0.32338 0.92368 0.39058 0.0
Zn259 Zn 0.22939 0.90701 0.41112 0.0
C260 C 0.18639 0.79466 0.39986 0.0
O261 O 0.20148 0.82385 0.41311 0.0
C262 C 0.25208 0.00959 0.39442 0.0
O263 O 0.15054 0.88932 0.41602 0.0
O264 O 0.13352 0.87768 0.38868 0.0
N265 N 0.2472 0.91718 0.43673 0.0
C266 C 0.24535 0.95143 0.44811 0.0
C267 C 0.27756 0.90818 0.46091 0.0
N268 N 0.26697 0.89015 0.44477 0.0
N269 N 0.2646 0.94689 0.46332 0.0
C270 C 0.19983 0.85969 0.3453 0.0
C271 C 0.16707 0.90496 0.33416 0.0
N272 N 0.19506 0.88937 0.35776 0.0
N273 N 0.17462 0.91732 0.35078 0.0
N274 N 0.18234 0.86871 0.33035 0.0
H275 H 0.19116 0.78222 0.35018 0.0
H276 H 0.24575 0.82421 0.33605 0.0
H277 H 0.25183 0.83749 0.3586 0.0
C278 C 0.22392 0.82419 0.34767 0.0
C279 C 0.22226 0.98733 0.44461 0.0
H280 H 0.19164 0.97067 0.43445 0.0
H281 H 0.20382 -0.00732 0.45629 0.0
H282 H 0.25496 0.02758 0.44049 0.0
O283 O 0.25573 0.98969 0.40847 0.0
O284 O 0.23519 0.97971 0.38139 0.0
C285 C 0.11748 0.87625 0.40381 0.0
O286 O 0.29222 0.91736 0.37825 0.0
O287 O 0.30726 0.92191 0.40573 0.0
Zn288 Zn 0.31639 0.22932 0.91056 0.0
O289 O 0.26041 0.1481 0.91634 0.0
C290 C 0.23733 0.2464 0.89213 0.0
Zn291 Zn 0.31642 0.21362 0.88284 0.0
C292 C 0.24122 0.11619 0.90382 0.0
O293 O 0.25605 0.13433 0.88888 0.0
C294 C 0.39433 0.3254 0.88937 0.0
O295 O 0.37357 0.19013 0.88678 0.0
O296 O 0.37744 0.2105 0.91387 0.0
N297 N 0.30686 0.19058 0.85795 0.0
C298 C 0.34002 0.20069 0.84458 0.0
C299 C 0.26025 0.14537 0.8363 0.0
N300 N 0.25743 0.15631 0.85272 0.0
N301 N 0.31159 0.17264 0.83081 0.0
C302 C 0.28672 0.23297 0.94858 0.0
C303 C 0.35811 0.30162 0.9577 0.0
N304 N 0.32219 0.25185 0.93558 0.0
N305 N 0.36645 0.29454 0.9413 0.0
N306 N 0.30837 0.26349 0.96254 0.0
H307 H 0.23018 0.14828 0.94901 0.0
H308 H 0.20432 0.18926 0.95741 0.0
H309 H 0.21282 0.18652 0.93475 0.0
C310 C 0.23008 0.18679 0.94736 0.0
C311 C 0.40001 0.23573 0.84537 0.0
H312 H 0.41481 0.23733 0.85847 0.0
H313 H 0.41975 0.22063 0.83662 0.0
H314 H 0.4113 0.27745 0.8415 0.0
O315 O 0.37772 0.29231 0.87709 0.0
O316 O 0.37393 0.30972 0.90407 0.0
C317 C 0.39256 0.19272 0.90155 0.0
O318 O 0.25437 0.24624 0.90699 0.0
O319 O 0.25823 0.23626 0.8795 0.0
Zn320 Zn 0.089 0.33265 0.38196 0.0
O321 O 0.17124 0.38778 0.38241 0.0
C322 C 0.06444 0.41439 0.39487 0.0
Zn323 Zn 0.0883 0.3341 0.41042 0.0
C324 C 0.19694 0.40568 0.39621 0.0
O325 O 0.1717 0.39295 0.41026 0.0
C326 C 0.98148 0.25678 0.39604 0.0
O327 O 0.11051 0.27591 0.41169 0.0
O328 O 0.1081 0.26987 0.38381 0.0
N329 N 0.0874 0.33873 0.43642 0.0
C330 C 0.06444 0.30145 0.44891 0.0
C331 C 0.09893 0.37904 0.4604 0.0
N332 N 0.10917 0.38681 0.44365 0.0
N333 N 0.07081 0.32583 0.46416 0.0
C334 C 0.12418 0.33017 0.34438 0.0
C335 C 0.05421 0.31411 0.33038 0.0
N336 N 0.08787 0.32817 0.35567 0.0
N337 N 0.04449 0.31833 0.3469 0.0
N338 N 0.10393 0.32114 0.32845 0.0
H339 H 0.18128 0.32169 0.35966 0.0
H340 H 0.20436 0.34395 0.33818 0.0
H341 H 0.20178 0.38962 0.35275 0.0
C342 C 0.181 0.34663 0.34889 0.0
C343 C 0.0346 0.2416 0.44597 0.0
H344 H 0.02788 0.23161 0.43235 0.0
H345 H 0.05902 0.22429 0.45082 0.0
H346 H -0.00452 0.22228 0.45279 0.0
O347 O 0.00586 0.27445 0.41005 0.0
O348 O 0.00673 0.27586 0.3822 0.0
C349 C 0.11789 0.2563 0.39822 0.0
O350 O 0.07219 0.39706 0.3809 0.0
O351 O 0.06767 0.3937 0.40878 0.0
Zn352 Zn 0.74652 0.08848 0.88364 0.0
O353 O 0.77718 0.17286 0.88443 0.0
C354 C 0.64956 0.06901 0.90034 0.0
Zn355 Zn 0.75716 0.08543 0.91177 0.0
C356 C 0.7928 0.19639 0.89869 0.0
O357 O 0.78736 0.16875 0.91197 0.0
C358 C 0.71492 0.97832 0.89697 0.0
O359 O 0.83695 0.10146 0.90973 0.0
O360 O 0.82494 0.10387 0.88225 0.0
N361 N 0.75963 0.08533 0.93792 0.0
C362 C 0.77308 0.05951 0.94967 0.0
C363 C 0.73936 0.10044 0.96288 0.0
N364 N 0.73923 0.11108 0.94624 0.0
N365 N 0.76034 0.0681 0.96549 0.0
C366 C 0.74425 0.12014 0.84517 0.0
C367 C 0.75588 0.06036 0.83304 0.0
N368 N 0.74517 0.08749 0.85746 0.0
N369 N 0.75217 0.05035 0.84982 0.0
N370 N 0.75143 0.1042 0.82964 0.0
H371 H 0.77203 0.203 0.85079 0.0
H372 H 0.71315 0.17163 0.83741 0.0
H373 H 0.70763 0.1563 0.8599 0.0
C374 C 0.73336 0.16529 0.84847 0.0
C375 C 0.79624 0.02416 0.94554 0.0
H376 H 0.79754 0.01864 0.93171 0.0
H377 H 0.83822 0.04345 0.95023 0.0
H378 H 0.77262 0.98435 0.95195 0.0
O379 O 0.72781 0.00257 0.91111 0.0
O380 O 0.71774 0.00453 0.88357 0.0
C381 C 0.85531 0.10905 0.89465 0.0
O382 O 0.6684 0.0743 0.88541 0.0
O383 O 0.67793 0.07127 0.91306 0.0
H384 H 0.12614 0.92537 0.16161 0.0
H385 H 0.14313 0.90398 0.10784 0.0
H386 H 0.19179 0.00305 0.10383 0.0
H387 H 0.09977 0.03305 0.15657 0.0
H388 H 0.13541 0.06742 0.17556 0.0
H389 H 0.10541 -0.00472 0.17406 0.0
H390 H 0.1982 0.0046 0.18078 0.0
H391 H 0.22872 0.07706 0.18184 0.0
H392 H 0.25537 0.04716 0.16754 0.0
H393 H 0.23596 0.10331 0.10553 0.0
H394 H 0.25916 0.19692 0.11178 0.0
H395 H 0.21253 0.15243 0.16439 0.0
C396 C 0.14014 0.94151 0.14898 0.0
C397 C 0.13117 0.90719 0.13504 0.0
C398 C 0.14948 0.92969 0.11868 0.0
C399 C 0.17772 0.98582 0.11632 0.0
C400 C 0.18709 0.01856 0.13044 0.0
C401 C 0.16804 -0.00276 0.14639 0.0
C402 C 0.17957 0.04097 0.15919 0.0
C403 C 0.12692 0.03375 0.16678 0.0
C404 C 0.21774 0.04252 0.17316 0.0
C405 C 0.20702 0.09029 0.14785 0.0
C406 C 0.21199 0.07656 0.1314 0.0
C407 C 0.23265 0.11467 0.11837 0.0
C408 C 0.2458 0.16769 0.12205 0.0
C409 C 0.23746 0.18166 0.13855 0.0
C410 C 0.22026 0.14308 0.15175 0.0
H411 H 0.17872 0.13188 0.66399 0.0
H412 H 0.24684 0.19123 0.61394 0.0
H413 H 0.19791 0.24125 0.6121 0.0
H414 H 0.0486 0.10903 0.65397 0.0
H415 H 0.03697 0.12866 0.67455 0.0
H416 H 0.08131 0.10161 0.6725 0.0
H417 H 0.15722 0.18726 0.68705 0.0
H418 H 0.11323 0.21501 0.68881 0.0
H419 H 0.17729 0.25297 0.67822 0.0
H420 H 0.13919 0.28102 0.61483 0.0
H421 H 0.06445 0.2979 0.62028 0.0
H422 H 0.03287 0.21251 0.6684 0.0
C423 C 0.1835 0.15565 0.6527 0.0
C424 C 0.2167 0.1578 0.63914 0.0
C425 C 0.22146 0.18879 0.62447 0.0
C426 C 0.19432 0.21787 0.62337 0.0
C427 C 0.16245 0.21546 0.63702 0.0
C428 C 0.15621 0.18457 0.6513 0.0
C429 C 0.11571 0.18518 0.66348 0.0
C430 C 0.06781 0.12773 0.66628 0.0
C431 C 0.14248 0.2117 0.68039 0.0
C432 C 0.09929 0.2202 0.65359 0.0
C433 C 0.12764 0.2381 0.63853 0.0
C434 C 0.11709 0.26782 0.62667 0.0
C435 C 0.07469 0.27739 0.6299 0.0
C436 C 0.04315 0.25688 0.64481 0.0
C437 C 0.05705 0.22978 0.65708 0.0
H438 H 0.79595 0.04219 0.12141 0.0
H439 H 0.75899 0.04946 0.17445 0.0
H440 H 0.85139 0.12439 0.17884 0.0
H441 H 0.91349 0.05087 0.12785 0.0
H442 H 0.9497 0.09234 0.10985 0.0
H443 H 0.87767 0.05098 0.10904 0.0
H444 H 0.86809 0.1344 0.10233 0.0
H445 H 0.94041 0.17619 0.1025 0.0
H446 H 0.89996 0.19278 0.11592 0.0
H447 H 0.94959 0.17988 0.17934 0.0
H448 H 0.04723 0.22436 0.1751 0.0
H449 H 0.0229 0.18204 0.12162 0.0
C450 C 0.80647 0.06121 0.13375 0.0
C451 C 0.77041 0.03995 0.14761 0.0
C452 C 0.78596 0.06524 0.16365 0.0
C453 C 0.8384 0.1078 0.16627 0.0
C454 C 0.8743 0.12482 0.15267 0.0
C455 C 0.85882 0.10335 0.13659 0.0
C456 C 0.90683 0.12365 0.12476 0.0
C457 C 0.9122 0.07665 0.11746 0.0
C458 C 0.90363 0.15887 0.11054 0.0
C459 C 0.95198 0.15718 0.13699 0.0
C460 C 0.9321 0.15773 0.15294 0.0
C461 C 0.96568 0.18113 0.16682 0.0
C462 C 0.02113 0.2056 0.1643 0.0
C463 C 0.04261 0.20661 0.148 0.0
C464 C 0.00753 0.18226 0.13416 0.0
H465 H 0.74432 0.81559 0.66546 0.0
H466 H 0.68755 0.77157 0.61373 0.0
H467 H 0.70977 0.86542 0.60797 0.0
H468 H 0.70325 0.92345 0.67039 0.0
H469 H 0.76251 0.96388 0.68299 0.0
H470 H 0.72941 0.89117 0.684 0.0
H471 H 0.81999 0.89698 0.67649 0.0
H472 H 0.85296 0.96924 0.67467 0.0
H473 H 0.85388 0.92978 0.65702 0.0
H474 H 0.75857 0.96587 0.60604 0.0
H475 H 0.81363 0.06468 0.60959 0.0
H476 H 0.83617 0.0418 0.66289 0.0
C477 C 0.73411 0.82494 0.65316 0.0
C478 C 0.71596 0.78707 0.63984 0.0
C479 C 0.70323 0.80075 0.62391 0.0
C480 C 0.7153 0.85376 0.62058 0.0
C481 C 0.73837 0.89162 0.63352 0.0
C482 C 0.74579 0.87745 0.6497 0.0
C483 C 0.77649 0.92645 0.66085 0.0
C484 C 0.74077 0.92623 0.67542 0.0
C485 C 0.8289 0.93082 0.66764 0.0
C486 C 0.78805 0.97051 0.64814 0.0
C487 C 0.76544 0.94971 0.63249 0.0
C488 C 0.77509 0.98272 0.61835 0.0
C489 C 0.80711 0.03864 0.62043 0.0
C490 C 0.82888 0.06061 0.63654 0.0
C491 C 0.81957 0.02602 0.65048 0.0
H492 H 0.91546 0.72931 0.1244 0.0
H493 H 0.92012 0.70073 0.17839 0.0
H494 H 0.8518 0.72704 0.18347 0.0
H495 H 0.91658 0.8455 0.12809 0.0
H496 H 0.8715 0.8373 0.11095 0.0
H497 H 0.90916 0.80261 0.11036 0.0
H498 H 0.82162 0.71019 0.10738 0.0
H499 H 0.78347 0.74462 0.10725 0.0
H500 H 0.76761 0.69122 0.1224 0.0
H501 H 0.80118 0.775 0.18358 0.0
H502 H 0.75594 0.8271 0.17833 0.0
H503 H 0.78406 0.82616 0.12411 0.0
C504 C 0.90017 0.726 0.13717 0.0
C505 C 0.92298 0.71313 0.15102 0.0
C506 C 0.90294 0.71041 0.16762 0.0
C507 C 0.8643 0.72542 0.17062 0.0
C508 C 0.84599 0.74239 0.15686 0.0
C509 C 0.86203 0.74142 0.14039 0.0
C510 C 0.84104 0.76761 0.12817 0.0
C511 C 0.88735 0.81611 0.11886 0.0
C512 C 0.80103 0.72591 0.11556 0.0
C513 C 0.81299 0.78573 0.14049 0.0
C514 C 0.81613 0.7704 0.15693 0.0
C515 C 0.79703 0.78594 0.17073 0.0
C516 C 0.77199 0.81614 0.16759 0.0
C517 C 0.76614 0.83037 0.15077 0.0
C518 C 0.7877 0.81564 0.13708 0.0
H519 H 0.93728 0.79881 0.66074 0.0
H520 H 0.91274 0.7599 0.60701 0.0
H521 H 0.01087 0.80908 0.60252 0.0
H522 H 0.04593 0.93257 0.65533 0.0
H523 H 0.08105 0.93059 0.67406 0.0
H524 H 0.009 0.88939 0.67296 0.0
H525 H 0.01695 0.80453 0.67936 0.0
H526 H 0.08928 0.84554 0.68003 0.0
H527 H 0.05775 0.78883 0.66578 0.0
H528 H 0.11081 0.86468 0.60359 0.0
H529 H 0.20501 0.93384 0.60948 0.0
H530 H 0.16397 0.93583 0.66242 0.0
C531 C 0.95251 0.80068 0.64802 0.0
C532 C 0.91745 0.77541 0.63425 0.0
C533 C 0.93892 0.77901 0.61778 0.0
C534 C -0.00542 0.80634 0.61511 0.0
C535 C 0.02806 0.82968 0.62904 0.0
C536 C 0.0079 0.82781 0.64512 0.0
C537 C 0.05246 0.85953 0.65768 0.0
C538 C 0.04678 0.90576 0.66545 0.0
C539 C 0.05419 0.82237 0.67153 0.0
C540 C 0.10075 0.88063 0.64604 0.0
C541 C 0.08591 0.86214 0.62964 0.0
C542 C 0.12308 0.87922 0.6164 0.0
C543 C 0.17644 0.91847 0.61986 0.0
C544 C 0.19163 0.94041 0.63636 0.0
C545 C 0.15378 0.91932 0.64972 0.0
H546 H 0.03826 0.85427 0.38075 0.0
H547 H 0.06628 0.84527 0.43456 0.0
H548 H 0.96822 0.79761 0.43974 0.0
H549 H 0.93142 0.88149 0.38584 0.0
H550 H 0.895 0.84262 0.36754 0.0
H551 H 0.96703 0.87323 0.36832 0.0
H552 H 0.95749 0.77927 0.36305 0.0
H553 H 0.88521 0.74822 0.3627 0.0
H554 H 0.91692 0.724 0.37727 0.0
H555 H 0.86752 0.75244 0.43905 0.0
H556 H 0.77297 0.72589 0.43321 0.0
H557 H 0.81216 0.7657 0.37996 0.0
C558 C 0.02383 0.84233 0.39364 0.0
C559 C 0.05973 0.85327 0.40725 0.0
C560 C 0.03936 0.83744 0.42395 0.0
C561 C 0.98379 0.80981 0.42699 0.0
C562 C 0.94943 0.79848 0.41319 0.0
C563 C 0.96871 0.81498 0.39689 0.0
C564 C 0.92366 0.80121 0.38445 0.0
C565 C 0.92963 0.85269 0.37606 0.0
C566 C 0.92066 0.76076 0.37108 0.0
C567 C 0.87598 0.77535 0.39636 0.0
C568 C 0.89153 0.77321 0.41282 0.0
C569 C 0.85482 0.75384 0.4262 0.0
C570 C 0.80129 0.73899 0.42278 0.0
C571 C 0.78549 0.7445 0.40621 0.0
C572 C 0.82284 0.76049 0.39274 0.0
H573 H 0.04046 0.81412 0.87574 0.0
H574 H 0.04641 0.76578 0.92764 0.0
H575 H 0.11686 0.8589 0.93428 0.0
H576 H 0.18813 0.92014 0.87215 0.0
H577 H 0.17225 0.96333 0.85969 0.0
H578 H 0.13052 0.89093 0.85825 0.0
H579 H 0.04728 0.89953 0.86572 0.0
H580 H 0.08877 0.97159 0.86775 0.0
H581 H 0.04677 0.93207 0.88523 0.0
H582 H 0.17359 0.95926 0.93667 0.0
H583 H 0.22405 0.05869 0.93336 0.0
H584 H 0.18105 0.04122 0.87994 0.0
C585 C 0.05844 0.82254 0.88826 0.0
C586 C 0.03824 0.78276 0.90114 0.0
C587 C 0.0616 0.79568 0.91755 0.0
C588 C 0.10147 0.8485 0.92147 0.0
C589 C 0.11791 0.88768 0.90879 0.0
C590 C 0.09818 0.87516 0.8924 0.0
C591 C 0.11906 0.92552 0.88154 0.0
C592 C 0.15463 0.92494 0.86705 0.0
C593 C 0.0727 0.93255 0.87467 0.0
C594 C 0.15197 0.96825 0.89454 0.0
C595 C 0.15094 0.94569 0.91017 0.0
C596 C 0.17567 0.97742 0.9244 0.0
C597 C 0.20364 0.03379 0.92246 0.0
C598 C 0.20656 0.05754 0.9064 0.0
C599 C 0.17988 0.02419 0.89236 0.0
H600 H 0.12118 0.18711 0.37474 0.0
H601 H 0.18117 0.25904 0.42419 0.0
H602 H 0.2374 0.21676 0.42545 0.0
H603 H 0.10733 0.06109 0.38543 0.0
H604 H 0.1261 0.04927 0.36474 0.0
H605 H 0.09619 0.09111 0.36682 0.0
H606 H 0.17828 0.16862 0.35112 0.0
H607 H 0.20899 0.12715 0.34942 0.0
H608 H 0.2451 0.19258 0.35931 0.0
H609 H 0.28317 0.16414 0.4224 0.0
H610 H 0.3017 0.08984 0.41782 0.0
H611 H 0.20964 0.04824 0.37105 0.0
C612 C 0.14638 0.19404 0.38577 0.0
C613 C 0.14691 0.22628 0.39934 0.0
C614 C 0.17982 0.23406 0.41368 0.0
C615 C 0.21261 0.21098 0.41441 0.0
C616 C 0.2118 0.17998 0.40076 0.0
C617 C 0.17876 0.17044 0.38686 0.0
C618 C 0.18056 0.13002 0.37495 0.0
C619 C 0.12422 0.07991 0.37288 0.0
C620 C 0.20468 0.15618 0.35768 0.0
C621 C 0.21821 0.11698 0.38468 0.0
C622 C 0.23709 0.14762 0.39924 0.0
C623 C 0.26902 0.14006 0.41099 0.0
C624 C 0.27922 0.09773 0.40831 0.0
C625 C 0.25654 0.06306 0.39422 0.0
C626 C 0.22814 0.07464 0.38181 0.0
H627 H 0.16448 0.23241 0.91658 0.0
H628 H 0.19515 0.25751 0.86237 0.0
H629 H 0.10019 0.23046 0.85757 0.0
H630 H 0.04846 0.11584 0.91375 0.0
H631 H 0.01298 0.12588 0.93094 0.0
H632 H 0.08529 0.15984 0.93113 0.0
H633 H 0.09136 0.25302 0.93355 0.0
H634 H 0.01888 0.21935 0.93404 0.0
H635 H 0.05592 0.27149 0.91849 0.0
H636 H 0.00151 0.18344 0.85795 0.0
H637 H 0.90448 0.13322 0.86377 0.0
H638 H 0.93666 0.13756 0.91788 0.0
C639 C 0.15185 0.23473 0.90379 0.0
C640 C 0.18695 0.247 0.88982 0.0
C641 C 0.16876 0.24833 0.87322 0.0
C642 C 0.11493 0.23291 0.87038 0.0
C643 C 0.08037 0.21694 0.88429 0.0
C644 C 0.09818 0.21903 0.90073 0.0
C645 C 0.05175 0.19421 0.9132 0.0
C646 C 0.04953 0.14611 0.92281 0.0
C647 C 0.05465 0.23709 0.92555 0.0
C648 C 0.005 0.17571 0.90109 0.0
C649 C 0.02256 0.18954 0.88451 0.0
C650 C -0.01285 0.1736 0.8709 0.0
C651 C 0.9321 0.14452 0.87437 0.0
C652 C 0.91304 0.13181 0.89132 0.0
C653 C 0.95006 0.1469 0.90482 0.0
H654 H 0.93276 0.18156 0.42117 0.0
H655 H 0.91156 0.22057 0.36946 0.0
H656 H 0.83539 0.12815 0.36586 0.0
H657 H 0.91876 0.06116 0.4127 0.0
H658 H 0.88222 0.0254 0.43149 0.0
H659 H 0.92537 0.09754 0.43204 0.0
H660 H 0.84628 0.10975 0.44203 0.0
H661 H 0.80289 0.03735 0.44202 0.0
H662 H 0.7845 0.07952 0.43005 0.0
H663 H 0.77784 0.02984 0.36551 0.0
H664 H 0.73182 0.93148 0.36954 0.0
H665 H 0.78843 0.95372 0.42167 0.0
C666 C 0.91044 0.1714 0.40938 0.0
C667 C 0.92781 0.20813 0.3956 0.0
C668 C 0.89865 0.19301 0.38019 0.0
C669 C 0.85536 0.14063 0.37803 0.0
C670 C 0.8416 0.1042 0.39146 0.0
C671 C 0.86735 0.11904 0.40699 0.0
C672 C 0.84908 0.0704 0.41858 0.0
C673 C 0.8967 0.06324 0.42401 0.0
C674 C 0.81887 0.0745 0.43409 0.0
C675 C 0.81135 0.02568 0.40679 0.0
C676 C 0.80735 0.04633 0.39129 0.0
C677 C 0.77939 0.01316 0.37772 0.0
C678 C 0.75402 0.95732 0.38009 0.0
C679 C 0.75661 0.93509 0.39594 0.0
C680 C 0.78538 0.96975 0.4095 0.0
H681 H 0.82743 0.78805 0.91996 0.0
H682 H 0.80703 0.74616 0.86641 0.0
H683 H 0.75199 0.78886 0.86281 0.0
H684 H 0.69333 0.77387 0.92686 0.0
H685 H 0.71957 0.83218 0.94046 0.0
H686 H 0.75193 0.79207 0.93971 0.0
H687 H 0.84289 0.87712 0.93184 0.0
H688 H 0.81096 0.91731 0.93306 0.0
H689 H 0.84571 0.91795 0.91393 0.0
H690 H 0.70592 0.84108 0.864 0.0
H691 H 0.68576 0.91402 0.8689 0.0
H692 H 0.73454 0.92297 0.92155 0.0
C693 C 0.81109 0.7877 0.90753 0.0
C694 C 0.82142 0.76366 0.89352 0.0
C695 C 0.79992 0.76451 0.87737 0.0
C696 C 0.76783 0.78794 0.87521 0.0
C697 C 0.75761 0.81049 0.88928 0.0
C698 C 0.7793 0.81154 0.90507 0.0
C699 C 0.76736 0.84429 0.91753 0.0
C700 C 0.73086 0.80844 0.93199 0.0
C701 C 0.81983 0.89199 0.92448 0.0
C702 C 0.7377 0.86325 0.90603 0.0
C703 C 0.73113 0.84187 0.88993 0.0
C704 C 0.71001 0.85761 0.87661 0.0
C705 C 0.69851 0.89896 0.87952 0.0
C706 C 0.70888 0.92429 0.89557 0.0
C707 C 0.72562 0.90394 0.90921 0.0
H708 H 0.10996 0.61247 0.1737 0.0
H709 H -0.00528 0.5512 0.13242 0.0
H710 H 0.00362 0.47005 0.13095 0.0
H711 H 0.19754 0.58334 0.15644 0.0
H712 H 0.21853 0.56302 0.1753 0.0
H713 H 0.19269 0.6085 0.17694 0.0
H714 H 0.1195 0.54409 0.19815 0.0
H715 H 0.1459 0.49872 0.19697 0.0
H716 H 0.0758 0.47425 0.19256 0.0
H717 H 0.0395 0.40955 0.12909 0.0
H718 H 0.09461 0.36605 0.12866 0.0
H719 H 0.18778 0.46392 0.17133 0.0
C720 C 0.08459 0.58053 0.16499 0.0
C721 C 0.05117 0.58739 0.15329 0.0
C722 C 0.02014 0.54616 0.14155 0.0
C723 C 0.02485 0.49996 0.14067 0.0
C724 C 0.06064 0.49578 0.15166 0.0
C725 C 0.08941 0.53438 0.16382 0.0
C726 C 0.13095 0.52403 0.17228 0.0
C727 C 0.18828 0.5726 0.17009 0.0
C728 C 0.11719 0.50938 0.19111 0.0
C729 C 0.1233 0.47574 0.16218 0.0
C730 C 0.0819 0.45981 0.15057 0.0
C731 C 0.07096 0.42054 0.13842 0.0
C732 C 0.10301 0.3967 0.13813 0.0
C733 C 0.14538 0.41204 0.14993 0.0
C734 C 0.15513 0.45129 0.16233 0.0
H735 H 0.7034 0.18364 0.66707 0.0
H736 H 0.71467 0.12636 0.61713 0.0
H737 H 0.61583 0.07257 0.61557 0.0
H738 H 0.58078 0.05958 0.68164 0.0
H739 H 0.55362 0.09694 0.69192 0.0
H740 H 0.6255 0.12534 0.69041 0.0
H741 H 0.6349 0.2108 0.67555 0.0
H742 H 0.56341 0.1831 0.67739 0.0
H743 H 0.59538 0.20315 0.65687 0.0
H744 H 0.51805 0.03153 0.61804 0.0
H745 H 0.42697 0.01751 0.6223 0.0
H746 H 0.47665 0.10177 0.67038 0.0
C747 C 0.68485 0.1593 0.65591 0.0
C748 C 0.71642 0.15898 0.64223 0.0
C749 C 0.69107 0.12746 0.62769 0.0
C750 C 0.63503 0.09613 0.62679 0.0
C751 C 0.60493 0.09696 0.64051 0.0
C752 C 0.62874 0.12839 0.65467 0.0
C753 C 0.58685 0.12721 0.66663 0.0
C754 C 0.58669 0.10067 0.68366 0.0
C755 C 0.59565 0.18444 0.66925 0.0
C756 C 0.536 0.09186 0.65663 0.0
C757 C 0.54743 0.07362 0.64184 0.0
C758 C 0.50829 0.0447 0.62969 0.0
C759 C 0.45668 0.03678 0.63223 0.0
C760 C 0.44494 0.05801 0.64675 0.0
C761 C 0.4843 0.08368 0.65946 0.0
H762 H 0.51396 0.69378 0.16763 0.0
H763 H 0.58019 0.70748 0.11708 0.0
H764 H 0.52942 0.60861 0.11429 0.0
H765 H 0.50879 0.56569 0.17979 0.0
H766 H 0.44546 0.54033 0.19072 0.0
H767 H 0.49217 0.61206 0.18979 0.0
H768 H 0.41834 0.62782 0.17662 0.0
H769 H 0.37142 0.55643 0.17773 0.0
H770 H 0.38399 0.59157 0.15771 0.0
H771 H 0.46555 0.5109 0.11546 0.0
H772 H 0.38653 0.42023 0.11978 0.0
H773 H 0.36205 0.46789 0.1697 0.0
C774 C 0.51836 0.67584 0.1561 0.0
C775 C 0.55108 0.70825 0.14261 0.0
C776 C 0.55515 0.68344 0.12758 0.0
C777 C 0.52695 0.62726 0.12593 0.0
C778 C 0.49499 0.59641 0.13943 0.0
C779 C 0.4902 0.61966 0.1542 0.0
C780 C 0.44892 0.57745 0.16606 0.0
C781 C 0.47544 0.57367 0.18257 0.0
C782 C 0.40296 0.589 0.16973 0.0
C783 C 0.42994 0.52723 0.15534 0.0
C784 C 0.45784 0.53905 0.14017 0.0
C785 C 0.44407 0.50072 0.12742 0.0
C786 C 0.39923 0.44941 0.12998 0.0
C787 C 0.36893 0.43711 0.14515 0.0
C788 C 0.38563 0.47585 0.15821 0.0
H789 H 0.80339 0.52595 0.62238 0.0
H790 H 0.83884 0.58775 0.67393 0.0
H791 H 0.88247 0.53461 0.67968 0.0
H792 H 0.77164 0.3936 0.63223 0.0
H793 H 0.80265 0.3846 0.61358 0.0
H794 H 0.7776 0.43097 0.61306 0.0
H795 H 0.8718 0.50778 0.60356 0.0
H796 H 0.89724 0.46157 0.60426 0.0
H797 H 0.92994 0.5233 0.61631 0.0
H798 H 0.91322 0.46804 0.68112 0.0
H799 H 0.92884 0.39106 0.67773 0.0
H800 H 0.88011 0.37722 0.62491 0.0
C801 C 0.82073 0.52856 0.63481 0.0
C802 C 0.81666 0.56017 0.64776 0.0
C803 C 0.84007 0.56273 0.66388 0.0
C804 C 0.86573 0.53328 0.66725 0.0
C805 C 0.86861 0.50209 0.65431 0.0
C806 C 0.84709 0.49967 0.63838 0.0
C807 C 0.85328 0.46057 0.62707 0.0
C808 C 0.79801 0.41472 0.62115 0.0
C809 C 0.89028 0.49009 0.6119 0.0
C810 C 0.87978 0.44022 0.63937 0.0
C811 C 0.88873 0.46503 0.65497 0.0
C812 C 0.90768 0.44904 0.66886 0.0
C813 C 0.91644 0.4054 0.66684 0.0
C814 C 0.90644 0.37882 0.65104 0.0
C815 C 0.88946 0.39763 0.63705 0.0
H816 H 0.48747 0.87323 0.16656 0.0
H817 H 0.53044 0.91552 0.11357 0.0
H818 H 0.43815 0.89564 0.1075 0.0
H819 H 0.36572 0.7626 0.15952 0.0
H820 H 0.33034 0.77138 0.17699 0.0
H821 H 0.40193 0.79882 0.17821 0.0
H822 H 0.41651 0.8945 0.1838 0.0
H823 H 0.3447 0.86715 0.18305 0.0
H824 H 0.38828 0.92278 0.16936 0.0
H825 H 0.33917 0.85637 0.10614 0.0
H826 H 0.24083 0.81095 0.11036 0.0
H827 H 0.2625 0.79505 0.16425 0.0
C828 C 0.47807 0.88036 0.15382 0.0
C829 C 0.51598 0.89591 0.14054 0.0
C830 C 0.50191 0.90367 0.12395 0.0
C831 C 0.44962 0.89248 0.12036 0.0
C832 C 0.41232 0.8742 0.13355 0.0
C833 C 0.42606 0.86927 0.15003 0.0
C834 C 0.37732 0.84433 0.16155 0.0
C835 C 0.36833 0.79114 0.16952 0.0
C836 C 0.38199 0.88461 0.17525 0.0
C837 C 0.33386 0.83418 0.14883 0.0
C838 C 0.35489 0.8519 0.13278 0.0
C839 C 0.32222 0.84335 0.11871 0.0
C840 C 0.26648 0.817 0.1212 0.0
C841 C 0.24431 0.79975 0.13763 0.0
C842 C 0.27849 0.80836 0.15158 0.0
H843 H 0.59197 0.50828 0.62442 0.0
H844 H 0.59603 0.54555 0.678 0.0
H845 H 0.52411 0.4518 0.68354 0.0
H846 H 0.444 0.40426 0.62175 0.0
H847 H 0.45799 0.36378 0.60743 0.0
H848 H 0.49981 0.43635 0.60715 0.0
H849 H 0.58368 0.42619 0.61175 0.0
H850 H 0.54226 0.35387 0.61261 0.0
H851 H 0.58649 0.38956 0.63005 0.0
H852 H 0.46455 0.35233 0.684 0.0
H853 H 0.41456 0.25437 0.67912 0.0
H854 H 0.45346 0.28142 0.62537 0.0
C855 C 0.57623 0.49746 0.63722 0.0
C856 C 0.59936 0.5341 0.65078 0.0
C857 C 0.57854 0.5181 0.66741 0.0
C858 C 0.53779 0.46497 0.67067 0.0
C859 C 0.5184 0.42888 0.65715 0.0
C860 C 0.53626 0.4446 0.6407 0.0
C861 C 0.51396 0.39683 0.6288 0.0
C862 C 0.47671 0.40053 0.6155 0.0
C863 C 0.55931 0.39132 0.62032 0.0
C864 C 0.48262 0.35151 0.64127 0.0
C865 C 0.48508 0.37092 0.65749 0.0
C866 C 0.46166 0.33665 0.67132 0.0
C867 C 0.43404 0.28099 0.66844 0.0
C868 C 0.43068 0.26021 0.65188 0.0
C869 C 0.45546 0.29608 0.63817 0.0
H870 H 0.38804 0.91511 0.41423 0.0
H871 H 0.36924 0.92627 0.35989 0.0
H872 H 0.43832 0.90094 0.35463 0.0
H873 H 0.53599 0.96025 0.41367 0.0
H874 H 0.52691 0.91254 0.43018 0.0
H875 H 0.48471 0.94255 0.42961 0.0
H876 H 0.40045 0.84672 0.42965 0.0
H877 H 0.44214 0.81633 0.4297 0.0
H878 H 0.39279 0.79972 0.4132 0.0
H879 H 0.49666 0.8598 0.3552 0.0
H880 H 0.54896 0.81508 0.36152 0.0
H881 H 0.52808 0.82885 0.41556 0.0
C882 C 0.39997 0.91441 0.40124 0.0
C883 C 0.37344 0.9228 0.38747 0.0
C884 C 0.38933 0.92032 0.37063 0.0
C885 C 0.42842 0.90584 0.36752 0.0
C886 C 0.45134 0.89451 0.38138 0.0
C887 C 0.43852 0.89965 0.39792 0.0
C888 C 0.46478 0.87992 0.4105 0.0
C889 C 0.50554 0.92661 0.42164 0.0
C890 C 0.4225 0.83289 0.42139 0.0
C891 C 0.49267 0.86099 0.39842 0.0
C892 C 0.48479 0.87019 0.3817 0.0
C893 C 0.50399 0.85328 0.36824 0.0
C894 C 0.53312 0.82736 0.37198 0.0
C895 C 0.54251 0.81843 0.38904 0.0
C896 C 0.5217 0.83527 0.40239 0.0
H897 H 0.70403 0.50452 0.87102 0.0
H898 H 0.70637 0.60056 0.91388 0.0
H899 H 0.60762 0.55559 0.91327 0.0
H900 H 0.58235 0.49308 0.84943 0.0
H901 H 0.55743 0.42357 0.84368 0.0
H902 H 0.62892 0.46955 0.84531 0.0
H903 H 0.6371 0.4053 0.86691 0.0
H904 H 0.56602 0.35904 0.86511 0.0
H905 H 0.59538 0.38432 0.88566 0.0
H906 H 0.51091 0.49508 0.91063 0.0
H907 H 0.42084 0.41445 0.90825 0.0
H908 H 0.47797 0.35476 0.8674 0.0
C909 C 0.68349 0.51645 0.88004 0.0
C910 C 0.71245 0.55578 0.8925 0.0
C911 C 0.68466 0.57003 0.90434 0.0
C912 C 0.62867 0.54533 0.90394 0.0
C913 C 0.60099 0.50627 0.89166 0.0
C914 C 0.62719 0.49131 0.88003 0.0
C915 C 0.58723 0.44305 0.86975 0.0
C916 C 0.5891 0.45824 0.85092 0.0
C917 C 0.59701 0.39511 0.87201 0.0
C918 C 0.53488 0.43198 0.87798 0.0
C919 C 0.54385 0.47001 0.89025 0.0
C920 C 0.50299 0.46557 0.90084 0.0
C921 C 0.45201 0.41971 0.89941 0.0
C922 C 0.44256 0.37896 0.88753 0.0
C923 C 0.48386 0.38621 0.87623 0.0
H924 H 0.18186 0.72342 0.37603 0.0
H925 H 0.13022 0.73336 0.427 0.0
H926 H 0.0786 0.63378 0.42878 0.0
H927 H 0.05855 0.60102 0.36257 0.0
H928 H 0.09495 0.5746 0.3513 0.0
H929 H 0.12299 0.64663 0.35314 0.0
H930 H 0.20983 0.65607 0.36655 0.0
H931 H 0.18249 0.58444 0.3644 0.0
H932 H 0.20447 0.61574 0.3849 0.0
H933 H 0.03708 0.53521 0.42578 0.0
H934 H 0.02107 0.44364 0.42039 0.0
H935 H 0.10143 0.49663 0.37161 0.0
C936 C 0.15928 0.70447 0.38749 0.0
C937 C 0.15963 0.73568 0.40136 0.0
C938 C 0.13061 0.70989 0.41629 0.0
C939 C 0.10058 0.6535 0.41732 0.0
C940 C 0.10038 0.62377 0.40333 0.0
C941 C 0.12974 0.64823 0.38882 0.0
C942 C 0.12763 0.60696 0.37641 0.0
C943 C 0.09933 0.60734 0.35987 0.0
C944 C 0.18446 0.61635 0.37287 0.0
C945 C 0.09381 0.55552 0.38646 0.0
C946 C 0.07731 0.5662 0.40174 0.0
C947 C 0.0492 0.52613 0.41381 0.0
C948 C 0.04024 0.47427 0.41061 0.0
C949 C 0.05995 0.46328 0.39557 0.0
C950 C 0.08491 0.50375 0.38302 0.0
H951 H 0.59051 0.08695 0.87681 0.0
H952 H 0.59669 0.05425 0.93044 0.0
H953 H 0.52582 0.07656 0.93628 0.0
H954 H 0.58265 0.19984 0.88192 0.0
H955 H 0.53681 0.18887 0.86474 0.0
H956 H 0.57963 0.15981 0.86388 0.0
H957 H 0.49683 0.06402 0.86014 0.0
H958 H 0.45364 0.09291 0.86048 0.0
H959 H 0.44204 0.03953 0.87514 0.0
H960 H 0.46779 0.11783 0.93705 0.0
H961 H 0.41566 0.16379 0.93211 0.0
H962 H 0.4472 0.16916 0.87799 0.0
C963 C 0.57547 0.08237 0.88968 0.0
C964 C 0.59901 0.06896 0.90317 0.0
C965 C 0.57906 0.06443 0.9199 0.0
C966 C 0.53889 0.07705 0.92336 0.0
C967 C 0.51888 0.09341 0.90991 0.0
C968 C 0.53556 0.09495 0.89334 0.0
C969 C 0.51133 0.1186 0.88144 0.0
C970 C 0.55523 0.1698 0.87248 0.0
C971 C 0.47371 0.07622 0.86854 0.0
C972 C 0.48015 0.132 0.89402 0.0
C973 C 0.48484 0.11697 0.91035 0.0
C974 C 0.46276 0.12875 0.92428 0.0
C975 C 0.43386 0.15542 0.92137 0.0
C976 C 0.42741 0.16977 0.90467 0.0
C977 C 0.45113 0.15816 0.89087 0.0
H978 H 0.2684 0.48326 0.41816 0.0
H979 H 0.25882 0.389 0.37397 0.0
H980 H 0.35718 0.43541 0.37228 0.0
H981 H 0.37657 0.60523 0.40414 0.0
H982 H 0.40857 0.62639 0.42458 0.0
H983 H 0.33707 0.5815 0.42333 0.0
H984 H 0.34607 0.51259 0.44258 0.0
H985 H 0.41791 0.5572 0.44367 0.0
H986 H 0.39097 0.4887 0.43643 0.0
H987 H 0.45476 0.49886 0.37293 0.0
H988 H 0.54622 0.57777 0.37582 0.0
H989 H 0.49484 0.62738 0.42072 0.0
C990 C 0.28722 0.47221 0.40827 0.0
C991 C 0.25607 0.43385 0.39584 0.0
C992 C 0.28185 0.42003 0.38312 0.0
C993 C 0.33782 0.44533 0.38228 0.0
C994 C 0.36757 0.4838 0.39446 0.0
C995 C 0.34339 0.49716 0.40727 0.0
C996 C 0.38503 0.54298 0.41792 0.0
C997 C 0.37629 0.5919 0.41745 0.0
C998 C 0.38498 0.52422 0.43624 0.0
C999 C 0.43589 0.55455 0.4086 0.0
C1000 C 0.42495 0.51939 0.39525 0.0
C1001 C 0.46434 0.52591 0.3836 0.0
C1002 C 0.51607 0.57072 0.38531 0.0
C1003 C 0.52763 0.60794 0.39862 0.0
C1004 C 0.48752 0.59858 0.41072 0.0
H1005 H 0.86946 0.4946 0.87191 0.0
H1006 H 0.94387 0.54453 0.92147 0.0
H1007 H 0.93274 0.45416 0.92611 0.0
H1008 H 0.76904 0.37229 0.88449 0.0
H1009 H 0.76602 0.33478 0.86578 0.0
H1010 H 0.79084 0.40619 0.86425 0.0
H1011 H 0.88018 0.42156 0.85114 0.0
H1012 H 0.8552 0.34985 0.85227 0.0
H1013 H 0.91851 0.39644 0.86204 0.0
H1014 H 0.89965 0.35674 0.92766 0.0
H1015 H 0.8519 0.25773 0.92532 0.0
H1016 H 0.79662 0.26891 0.8749 0.0
C1017 C 0.88564 0.48712 0.88337 0.0
C1018 C 0.9082 0.5264 0.89626 0.0
C1019 C 0.92697 0.51486 0.91142 0.0
C1020 C 0.92087 0.46377 0.91414 0.0
C1021 C 0.89593 0.4249 0.90157 0.0
C1022 C 0.87916 0.43598 0.88638 0.0
C1023 C 0.84741 0.38516 0.87595 0.0
C1024 C 0.78994 0.37398 0.87243 0.0
C1025 C 0.87712 0.38846 0.85937 0.0
C1026 C 0.84709 0.34362 0.88799 0.0
C1027 C 0.8759 0.36762 0.90258 0.0
C1028 C 0.87794 0.33748 0.91616 0.0
C1029 C 0.85019 0.28124 0.91476 0.0
C1030 C 0.82068 0.25569 0.89989 0.0
C1031 C 0.81942 0.2874 0.88631 0.0
H1032 H 0.10115 0.36138 0.29739 0.0
H1033 H 0.153 0.26245 0.32395 0.0
H1034 H 0.19471 0.25399 0.29762 0.0
H1035 H 0.06266 0.28092 0.25954 0.0
H1036 H 0.08253 0.33729 0.24528 0.0
H1037 H 0.06162 0.34028 0.2666 0.0
H1038 H 0.15178 0.42905 0.27153 0.0
H1039 H 0.17324 0.42585 0.25027 0.0
H1040 H 0.21441 0.43013 0.26816 0.0
H1041 H 0.23 0.2555 0.26885 0.0
H1042 H 0.24525 0.2547 0.23808 0.0
H1043 H 0.16344 0.34516 0.22899 0.0
C1044 C 0.12192 0.33856 0.29761 0.0
C1045 C 0.1267 0.31512 0.31289 0.0
C1046 C 0.15187 0.28341 0.31261 0.0
C1047 C 0.17527 0.27807 0.2977 0.0
C1048 C 0.17169 0.30333 0.28301 0.0
C1049 C 0.14464 0.33192 0.28269 0.0
C1050 C 0.14242 0.35058 0.26477 0.0
C1051 C 0.08383 0.32577 0.25869 0.0
C1052 C 0.17225 0.4126 0.26362 0.0
C1053 C 0.17221 0.32771 0.2551 0.0
C1054 C 0.18948 0.30149 0.266 0.0
C1055 C 0.21678 0.27596 0.26019 0.0
C1056 C 0.22533 0.2758 0.24272 0.0
C1057 C 0.20631 0.3005 0.23117 0.0
C1058 C 0.18002 0.32749 0.2375 0.0
H1059 H 0.79071 0.10162 0.73075 0.0
H1060 H 0.87605 0.27642 0.73138 0.0
H1061 H 0.84988 0.27448 0.76154 0.0
H1062 H 0.67894 0.08097 0.75933 0.0
H1063 H 0.67603 0.02258 0.76921 0.0
H1064 H 0.69662 0.03854 0.74734 0.0
H1065 H 0.78528 0.0392 0.75416 0.0
H1066 H 0.76506 0.02335 0.776 0.0
H1067 H 0.82844 0.08246 0.77077 0.0
H1068 H 0.82471 0.25205 0.79285 0.0
H1069 H 0.80036 0.21211 0.82155 0.0
H1070 H 0.72598 0.05173 0.79976 0.0
C1071 C 0.80281 0.13939 0.73719 0.0
C1072 C 0.83471 0.18916 0.72877 0.0
C1073 C 0.85059 0.23794 0.73755 0.0
C1074 C 0.83609 0.23711 0.75468 0.0
C1075 C 0.80509 0.18713 0.76271 0.0
C1076 C 0.78809 0.13916 0.75413 0.0
C1077 C 0.75773 0.0908 0.76574 0.0
C1078 C 0.69883 0.05619 0.76007 0.0
C1079 C 0.78583 0.057 0.76673 0.0
C1080 C 0.76178 0.11888 0.78237 0.0
C1081 C 0.78897 0.17441 0.78043 0.0
C1082 C 0.80184 0.20859 0.79441 0.0
C1083 C 0.78715 0.18543 0.81073 0.0
C1084 C 0.75928 0.12852 0.81298 0.0
C1085 C 0.74601 0.09527 0.79847 0.0
H1086 H 0.6654 0.90852 0.24359 0.0
H1087 H 0.58234 0.74912 0.22103 0.0
H1088 H 0.57034 0.70796 0.24943 0.0
H1089 H 0.74168 0.8797 0.27117 0.0
H1090 H 0.74153 0.92114 0.28833 0.0
H1091 H 0.73455 0.93773 0.26678 0.0
H1092 H 0.64536 0.93463 0.27456 0.0
H1093 H 0.65226 0.9184 0.29622 0.0
H1094 H 0.59185 0.87492 0.28451 0.0
H1095 H 0.57557 0.68437 0.28044 0.0
H1096 H 0.6008 0.68169 0.3105 0.0
H1097 H 0.68603 0.85632 0.31205 0.0
C1098 C 0.6433 0.86489 0.24466 0.0
C1099 C 0.62299 0.83226 0.23003 0.0
C1100 C 0.59589 0.77526 0.23198 0.0
C1101 C 0.5895 0.75142 0.24812 0.0
C1102 C 0.61096 0.78501 0.26221 0.0
C1103 C 0.63742 0.84062 0.26059 0.0
C1104 C 0.66198 0.86813 0.27727 0.0
C1105 C 0.72357 0.90375 0.27579 0.0
C1106 C 0.63631 0.90095 0.28351 0.0
C1107 C 0.64631 0.81942 0.28852 0.0
C1108 C 0.61608 0.77171 0.27973 0.0
C1109 C 0.59864 0.72152 0.28745 0.0
C1110 C 0.61288 0.72024 0.30449 0.0
C1111 C 0.64467 0.76877 0.31349 0.0
C1112 C 0.66126 0.81877 0.3054 0.0
H1113 H 0.77995 0.72024 0.74016 0.0
H1114 H 0.81283 0.60148 0.71788 0.0
H1115 H 0.82957 0.57699 0.74633 0.0
H1116 H 0.88575 0.76859 0.76938 0.0
H1117 H 0.85046 0.78091 0.78611 0.0
H1118 H 0.83316 0.78327 0.76429 0.0
H1119 H 0.73386 0.71145 0.77064 0.0
H1120 H 0.7509 0.70889 0.79253 0.0
H1121 H 0.71857 0.64783 0.78014 0.0
H1122 H 0.85037 0.5708 0.77729 0.0
H1123 H 0.87735 0.58713 0.80763 0.0
H1124 H 0.8352 0.71255 0.80941 0.0
C1125 C 0.78951 0.68824 0.74133 0.0
C1126 C 0.79266 0.66117 0.72679 0.0
C1127 C 0.80708 0.62075 0.72879 0.0
C1128 C 0.81739 0.60701 0.74496 0.0
C1129 C 0.8138 0.63449 0.75902 0.0
C1130 C 0.80042 0.67447 0.75733 0.0
C1131 C 0.80401 0.70138 0.77419 0.0
C1132 C 0.84584 0.76212 0.77344 0.0
C1133 C 0.74853 0.69179 0.7797 0.0
C1134 C 0.82259 0.67111 0.78556 0.0
C1135 C 0.82729 0.63211 0.77667 0.0
C1136 C 0.84603 0.60065 0.78442 0.0
C1137 C 0.8609 0.60982 0.80163 0.0
C1138 C 0.85713 0.65018 0.8108 0.0
C1139 C 0.83749 0.68085 0.80266 0.0
H1140 H 0.1695 0.87656 0.23053 0.0
H1141 H 0.10496 0.7035 0.23051 0.0
H1142 H 0.12389 0.70613 0.26133 0.0
H1143 H 0.27527 0.91104 0.26324 0.0
H1144 H 0.26437 0.96272 0.27218 0.0
H1145 H 0.25341 0.94762 0.24984 0.0
H1146 H 0.1562 0.93058 0.25284 0.0
H1147 H 0.16663 0.94512 0.27515 0.0
H1148 H 0.11126 0.88155 0.26811 0.0
H1149 H 0.13887 0.72709 0.29301 0.0
H1150 H 0.15028 0.76429 0.32202 0.0
H1151 H 0.20532 0.92359 0.30086 0.0
C1152 C 0.16077 0.83948 0.23696 0.0
C1153 C 0.13691 0.79004 0.22812 0.0
C1154 C 0.12485 0.74203 0.23694 0.0
C1155 C 0.13509 0.74317 0.25447 0.0
C1156 C 0.15761 0.79268 0.26289 0.0
C1157 C 0.17074 0.84003 0.25433 0.0
C1158 C 0.19029 0.88733 0.26634 0.0
C1159 C 0.24935 0.92967 0.26268 0.0
C1160 C 0.15391 0.91259 0.26556 0.0
C1161 C 0.1846 0.85909 0.28311 0.0
C1162 C 0.16626 0.80463 0.28093 0.0
C1163 C 0.15454 0.76992 0.29481 0.0
C1164 C 0.16155 0.79144 0.31126 0.0
C1165 C 0.18014 0.84713 0.31368 0.0
C1166 C 0.19196 0.88108 0.29936 0.0
H1167 H 0.27223 0.08414 0.81121 0.0
H1168 H 0.38519 0.25633 0.81144 0.0
H1169 H 0.40371 0.25278 0.78094 0.0
H1170 H 0.34339 0.04592 0.77964 0.0
H1171 H 0.2811 -0.00409 0.77011 0.0
H1172 H 0.28331 0.01096 0.7924 0.0
H1173 H 0.20603 0.03183 0.78815 0.0
H1174 H 0.20382 0.01729 0.76587 0.0
H1175 H 0.21367 0.08177 0.77264 0.0
H1176 H 0.40013 0.23219 0.74969 0.0
H1177 H 0.37697 0.19633 0.7206 0.0
H1178 H 0.26681 0.03707 0.74071 0.0
C1179 C 0.30192 0.12079 0.80491 0.0
C1180 C 0.32837 0.17025 0.81377 0.0
C1181 C 0.36602 0.21771 0.80507 0.0
C1182 C 0.37637 0.21608 0.7877 0.0
C1183 C 0.34877 0.16667 0.77928 0.0
C1184 C 0.31258 0.11979 0.78765 0.0
C1185 C 0.28482 0.07274 0.77551 0.0
C1186 C 0.29902 0.02879 0.77967 0.0
C1187 C 0.22347 0.04958 0.77555 0.0
C1188 C 0.30982 0.10071 0.75888 0.0
C1189 C 0.347 0.15475 0.76132 0.0
C1190 C 0.37236 0.18961 0.74768 0.0
C1191 C 0.3594 0.16872 0.73117 0.0
C1192 C 0.32172 0.11337 0.7284 0.0
C1193 C 0.29673 0.07919 0.7425 0.0
H1194 H 0.29138 0.33538 0.9795 0.0
H1195 H 0.27677 0.17762 0.98319 0.0
H1196 H 0.24626 0.16953 1.0131 0.0
H1197 H 0.34054 0.38102 0.02057 0.0
H1198 H 0.30285 0.41503 0.02402 0.0
H1199 H 0.32069 0.40695 1.00277 0.0
H1200 H 0.22029 0.3594 0.99397 0.0
H1201 H 0.20212 0.36753 1.0152 0.0
H1202 H 0.17143 0.30129 1.00581 0.0
H1203 H 0.23074 0.18541 0.04343 0.0
H1204 H 0.22009 0.21771 0.07106 0.0
H1205 H 0.23179 0.35999 0.047 0.0
C1206 C 0.28089 0.29895 0.98663 0.0
C1207 C 0.28605 0.25693 0.97925 0.0
C1208 C 0.2724 0.20977 0.98876 0.0
C1209 C 0.25527 0.20503 1.00568 0.0
C1210 C 0.25104 0.24746 1.01272 0.0
C1211 C 0.26243 0.29307 1.0034 0.0
C1212 C 0.25492 0.33292 1.01401 0.0
C1213 C 0.30791 0.38717 1.01542 0.0
C1214 C 0.20947 0.34072 1.00682 0.0
C1215 C 0.23905 0.30331 0.0309 0.0
C1216 C 0.23743 0.25431 0.02989 0.0
C1217 C 0.22937 0.22247 0.04422 0.0
C1218 C 0.22222 0.24086 0.05995 0.0
C1219 C 0.22123 0.28986 0.06126 0.0
C1220 C 0.23017 0.3214 0.04641 0.0
H1221 H 0.03824 0.37265 0.48738 0.0
H1222 H 0.05303 0.23081 0.47902 0.0
H1223 H 0.00869 0.19329 0.50646 0.0
H1224 H 0.0717 0.38347 0.53178 0.0
H1225 H 0.02676 0.40769 0.53754 0.0
H1226 H 0.05642 0.4214 0.51666 0.0
H1227 H 0.96135 0.37728 0.5032 0.0
H1228 H 0.93137 0.36319 0.52404 0.0
H1229 H 0.91177 0.30908 0.50903 0.0
H1230 H 0.9585 0.16971 0.53465 0.0
H1231 H 0.91704 0.16692 0.56232 0.0
H1232 H 0.94637 0.32937 0.55377 0.0
C1233 C 0.03215 0.33361 0.49127 0.0
C1234 C 0.04707 0.30372 0.48055 0.0
C1235 C 0.03927 0.25329 0.48636 0.0
C1236 C 0.01475 0.23192 0.50213 0.0
C1237 C -0.00053 0.26206 0.51215 0.0
C1238 C 0.00877 0.31228 0.50705 0.0
C1239 C -0.00878 0.33796 0.52049 0.0
C1240 C 0.0394 0.39075 0.527 0.0
C1241 C 0.94625 0.34741 0.51378 0.0
C1242 C 0.97033 0.29421 0.53396 0.0
C1243 C 0.97483 0.25048 0.52886 0.0
C1244 C 0.95614 0.20436 0.53896 0.0
C1245 C 0.93331 0.20344 0.55481 0.0
C1246 C 0.9307 0.24892 0.56064 0.0
C1247 C 0.94865 0.29435 0.54983 0.0
H1248 H 0.63359 0.93562 0.05453 0.0
H1249 H 0.77153 0.91579 0.06367 0.0
H1250 H 0.81011 0.95908 0.03597 0.0
H1251 H 0.62132 0.90362 1.01029 0.0
H1252 H 0.60064 0.95162 1.0046 0.0
H1253 H 0.58579 0.92141 0.02544 0.0
H1254 H 0.6343 0.01658 0.03907 0.0
H1255 H 0.6492 0.0471 1.01827 0.0
H1256 H 0.70292 0.06391 0.03319 0.0
H1257 H 0.83323 0.00579 1.0067 0.0
H1258 H 0.83747 0.04911 0.97903 0.0
H1259 H 0.68111 0.03186 0.9888 0.0
C1260 C 0.67203 0.94051 0.05073 0.0
C1261 C 0.7002 0.92363 0.06152 0.0
C1262 C 0.75017 0.93033 0.05601 0.0
C1263 C 0.77206 0.95428 0.04016 0.0
C1264 C 0.74319 0.97078 0.0299 0.0
C1265 C 0.69409 0.9639 0.03501 0.0
C1266 C 0.67019 0.9838 0.02164 0.0
C1267 C 0.61631 0.93734 1.01511 0.0
C1268 C 0.66381 0.03063 0.02845 0.0
C1269 C 0.71344 0.00305 1.00816 0.0
C1270 C 0.75537 -0.00458 1.01308 0.0
C1271 C 0.80019 0.01118 1.00266 0.0
C1272 C 0.80198 0.03515 0.98682 0.0
C1273 C 0.75894 0.04255 0.98149 0.0
C1274 C 0.71447 0.02643 0.99245 0.0
H1275 H 0.73721 0.64866 0.54249 0.0
H1276 H 0.67006 0.71824 0.5765 0.0
H1277 H 0.64787 0.7578 0.55209 0.0
H1278 H 0.79436 0.75932 0.51162 0.0
H1279 H 0.77698 0.71548 0.49347 0.0
H1280 H 0.79018 0.69449 0.51365 0.0
H1281 H 0.69687 0.60718 0.51272 0.0
H1282 H 0.68359 0.62774 0.49249 0.0
H1283 H 0.63727 0.61231 0.50989 0.0
H1284 H 0.62925 0.78652 0.52417 0.0
H1285 H 0.614 0.80133 0.49416 0.0
H1286 H 0.69196 0.71304 0.47774 0.0
C1287 C 0.71826 0.67265 0.54469 0.0
C1288 C 0.707 0.68208 0.56139 0.0
C1289 C 0.68112 0.71261 0.56387 0.0
C1290 C 0.6679 0.73477 0.55007 0.0
C1291 C 0.68041 0.72572 0.53378 0.0
C1292 C 0.7048 0.69525 0.53096 0.0
C1293 C 0.712 0.69029 0.51207 0.0
C1294 C 0.77195 0.71646 0.50743 0.0
C1295 C 0.68055 0.63085 0.50646 0.0
C1296 C 0.68749 0.72235 0.50477 0.0
C1297 C 0.66964 0.74248 0.51755 0.0
C1298 C 0.64359 0.77148 0.51404 0.0
C1299 C 0.63511 0.77975 0.49702 0.0
C1300 C 0.65298 0.75958 0.48369 0.0
C1301 C 0.67967 0.73064 0.48766 0.0
H1302 H 0.90692 0.60213 0.98716 0.0
H1303 H 0.90636 0.75217 0.97953 0.0
H1304 H 0.94965 0.7844 1.00734 0.0
H1305 H 0.87097 0.58968 0.03158 0.0
H1306 H 0.91123 0.55986 0.03729 0.0
H1307 H 0.88297 0.55011 1.01629 0.0
H1308 H 0.97815 0.5886 1.00323 0.0
H1309 H 0.00675 0.59871 0.02418 0.0
H1310 H 0.03113 0.65464 1.00949 0.0
H1311 H -0.00169 0.80203 0.03567 0.0
H1312 H 0.03766 0.79935 0.06319 0.0
H1313 H -0.00532 0.63306 0.054 0.0
C1314 C 0.91581 0.64182 0.9913 0.0
C1315 C 0.90529 0.67547 0.98064 0.0
C1316 C 0.91674 0.72669 0.98679 0.0
C1317 C 0.94067 0.7451 1.00278 0.0
C1318 C 0.95165 0.71129 1.01271 0.0
C1319 C 0.93864 0.6603 1.00731 0.0
C1320 C 0.95228 0.63077 0.02066 0.0
C1321 C 0.90132 0.57959 0.02682 0.0
C1322 C -0.0054 0.61742 1.01399 0.0
C1323 C 0.97536 0.67327 0.03442 0.0
C1324 C 0.97522 0.71965 0.02953 0.0
C1325 C -0.00291 0.76531 0.03982 0.0
C1326 C 0.01866 0.7631 0.05563 0.0
C1327 C 0.01687 0.71504 0.06127 0.0
C1328 C -0.00436 0.67001 0.05027 0.0
H1329 H 0.2448 0.91196 0.49601 0.0
H1330 H 0.31288 0.05594 0.46455 0.0
H1331 H 0.33497 0.11259 0.49015 0.0
H1332 H 0.18782 0.95956 0.5288 0.0
H1333 H 0.20452 0.92864 0.54595 0.0
H1334 H 0.19071 0.89889 0.5251 0.0
H1335 H 0.28317 0.90352 0.52496 0.0
H1336 H 0.29714 0.93307 0.54581 0.0
H1337 H 0.34351 0.96738 0.52862 0.0
H1338 H 0.35538 0.15399 0.51906 0.0
H1339 H 0.37183 0.17727 0.54957 0.0
H1340 H 0.29048 0.00715 0.56261 0.0
C1341 C 0.26373 0.95538 0.49459 0.0
C1342 C 0.27563 0.97955 0.4783 0.0
C1343 C 0.30143 0.03653 0.47686 0.0
C1344 C 0.31459 0.06904 0.49135 0.0
C1345 C 0.30185 0.04399 0.50723 0.0
C1346 C 0.27693 0.98847 0.50897 0.0
C1347 C 0.26961 0.97207 0.52756 0.0
C1348 C 0.20959 0.93776 0.53212 0.0
C1349 C 0.30019 0.94226 0.53199 0.0
C1350 C 0.29499 0.02707 0.53596 0.0
C1351 C 0.31324 0.06797 0.52398 0.0
C1352 C 0.34059 0.12231 0.52857 0.0
C1353 C 0.34981 0.1352 0.54586 0.0
C1354 C 0.33132 0.09405 0.55836 0.0
C1355 C 0.30338 0.0393 0.55332 0.0
loop_
_geom_bond_atom_site_label_1
_geom_bond_atom_site_label_2
_geom_bond_distance
_geom_bond_site_symmetry_2
_ccdc_geom_bond_type
Zn0 O1 2.055 . S
Zn0 O8 2.046 . S
Zn0 N16 2.036 . S
Zn0 O28 2.053 . S
Zn0 O30 2.066 . S
O1 Zn0 2.055 . S
O1 C4 1.259 . S
C2 O30 1.256 . S
C2 O31 1.244 . S
Zn3 O5 2.046 . S
Zn3 O7 2.055 . S
Zn3 N9 2.036 . S
Zn3 O27 2.066 . S
Zn3 O31 2.053 . S
C4 O1 1.259 . S
C4 O5 1.254 . S
O5 Zn3 2.046 . S
O5 C4 1.254 . S
C6 O27 1.256 . S
C6 O28 1.244 . S
O7 Zn3 2.055 . S
O7 C29 1.259 . S
O8 Zn0 2.046 . S
O8 C29 1.254 . S
N9 Zn3 2.036 . S
N9 C10 1.298 . S
N9 N12 1.398 . S
C10 N9 1.298 . S
C10 N13 1.367 . S
C10 C23 1.481 . S
C11 N12 1.299 . S
C11 N13 1.379 . S
N12 N9 1.398 . S
N12 C11 1.299 . S
N13 C10 1.367 . S
N13 C11 1.379 . S
C14 N16 1.298 . S
C14 N18 1.367 . S
C14 C22 1.481 . S
C15 N17 1.299 . S
C15 N18 1.379 . S
N16 Zn0 2.036 . S
N16 C14 1.298 . S
N16 N17 1.398 . S
N17 C15 1.299 . S
N17 N16 1.398 . S
N18 C14 1.367 . S
N18 C15 1.379 . S
H19 C22 0.980 . S
H20 C22 0.981 . S
H21 C22 0.981 . S
C22 C14 1.481 . S
C22 H19 0.980 . S
C22 H20 0.981 . S
C22 H21 0.981 . S
C23 C10 1.481 . S
C23 H24 0.980 . S
C23 H25 0.981 . S
C23 H26 0.981 . S
H24 C23 0.980 . S
H25 C23 0.981 . S
H26 C23 0.981 . S
O27 Zn3 2.066 . S
O27 C6 1.256 . S
O28 Zn0 2.053 . S
O28 C6 1.244 . S
C29 O7 1.259 . S
C29 O8 1.254 . S
O30 Zn0 2.066 . S
O30 C2 1.256 . S
O31 C2 1.244 . S
O31 Zn3 2.053 . S
Zn32 O33 2.055 . S
Zn32 O40 2.046 . S
Zn32 N48 2.036 . S
Zn32 O60 2.053 . S
Zn32 O62 2.066 . S
O33 Zn32 2.055 . S
O33 C36 1.259 . S
C34 O62 1.256 . S
C34 O63 1.244 . S
Zn35 O37 2.046 . S
Zn35 O39 2.055 . S
Zn35 N41 2.036 . S
Zn35 O59 2.066 . S
Zn35 O63 2.053 . S
C36 O33 1.259 . S
C36 O37 1.254 . S
O37 Zn35 2.046 . S
O37 C36 1.254 . S
C38 O59 1.256 . S
C38 O60 1.244 . S
O39 Zn35 2.055 . S
O39 C61 1.259 . S
O40 Zn32 2.046 . S
O40 C61 1.254 . S
N41 Zn35 2.036 . S
N41 C42 1.298 . S
N41 N44 1.398 . S
C42 N41 1.298 . S
C42 N45 1.367 . S
C42 C55 1.481 . S
C43 N44 1.299 . S
C43 N45 1.379 . S
N44 N41 1.398 . S
N44 C43 1.299 . S
N45 C42 1.367 . S
N45 C43 1.379 . S
C46 N48 1.298 . S
C46 N50 1.367 . S
C46 C54 1.481 . S
C47 N49 1.299 . S
C47 N50 1.379 . S
N48 Zn32 2.036 . S
N48 C46 1.298 . S
N48 N49 1.398 . S
N49 C47 1.299 . S
N49 N48 1.398 . S
N50 C46 1.367 . S
N50 C47 1.379 . S
H51 C54 0.980 . S
H52 C54 0.981 . S
H53 C54 0.981 . S
C54 C46 1.481 . S
C54 H51 0.980 . S
C54 H52 0.981 . S
C54 H53 0.981 . S
C55 C42 1.481 . S
C55 H56 0.980 . S
C55 H57 0.981 . S
C55 H58 0.981 . S
H56 C55 0.980 . S
H57 C55 0.981 . S
H58 C55 0.981 . S
O59 Zn35 2.066 . S
O59 C38 1.256 . S
O60 Zn32 2.053 . S
O60 C38 1.244 . S
C61 O39 1.259 . S
C61 O40 1.254 . S
O62 Zn32 2.066 . S
O62 C34 1.256 . S
O63 C34 1.244 . S
O63 Zn35 2.053 . S
Zn64 O65 2.055 . S
Zn64 O72 2.046 . S
Zn64 N80 2.036 . S
Zn64 O92 2.053 . S
Zn64 O94 2.066 . S
O65 Zn64 2.055 . S
O65 C68 1.259 . S
C66 O94 1.256 . S
C66 O95 1.244 . S
Zn67 O69 2.046 . S
Zn67 O71 2.055 . S
Zn67 N73 2.036 . S
Zn67 O91 2.066 . S
Zn67 O95 2.053 . S
C68 O65 1.259 . S
C68 O69 1.254 . S
O69 Zn67 2.046 . S
O69 C68 1.254 . S
C70 O91 1.256 . S
C70 O92 1.244 . S
O71 Zn67 2.055 . S
O71 C93 1.259 . S
O72 Zn64 2.046 . S
O72 C93 1.254 . S
N73 Zn67 2.036 . S
N73 C74 1.298 . S
N73 N76 1.398 . S
C74 N73 1.298 . S
C74 N77 1.367 . S
C74 C87 1.481 . S
C75 N76 1.299 . S
C75 N77 1.379 . S
N76 N73 1.398 . S
N76 C75 1.299 . S
N77 C74 1.367 . S
N77 C75 1.379 . S
C78 N80 1.298 . S
C78 N82 1.367 . S
C78 C86 1.481 . S
C79 N81 1.299 . S
C79 N82 1.379 . S
N80 Zn64 2.036 . S
N80 C78 1.298 . S
N80 N81 1.398 . S
N81 C79 1.299 . S
N81 N80 1.398 . S
N82 C78 1.367 . S
N82 C79 1.379 . S
H83 C86 0.980 . S
H84 C86 0.981 . S
H85 C86 0.981 . S
C86 C78 1.481 . S
C86 H83 0.980 . S
C86 H84 0.981 . S
C86 H85 0.981 . S
C87 C74 1.481 . S
C87 H88 0.980 . S
C87 H89 0.981 . S
C87 H90 0.981 . S
H88 C87 0.980 . S
H89 C87 0.981 . S
H90 C87 0.981 . S
O91 Zn67 2.066 . S
O91 C70 1.256 . S
O92 Zn64 2.053 . S
O92 C70 1.244 . S
C93 O71 1.259 . S
C93 O72 1.254 . S
O94 Zn64 2.066 . S
O94 C66 1.256 . S
O95 C66 1.244 . S
O95 Zn67 2.053 . S
Zn96 O97 2.055 . S
Zn96 O104 2.046 . S
Zn96 N112 2.036 . S
Zn96 O124 2.053 . S
Zn96 O126 2.066 . S
O97 Zn96 2.055 . S
O97 C100 1.259 . S
C98 O126 1.256 . S
C98 O127 1.244 . S
Zn99 O101 2.046 . S
Zn99 O103 2.055 . S
Zn99 N105 2.036 . S
Zn99 O123 2.066 . S
Zn99 O127 2.053 . S
C100 O97 1.259 . S
C100 O101 1.254 . S
O101 Zn99 2.046 . S
O101 C100 1.254 . S
C102 O123 1.256 . S
C102 O124 1.244 . S
O103 Zn99 2.055 . S
O103 C125 1.259 . S
O104 Zn96 2.046 . S
O104 C125 1.254 . S
N105 Zn99 2.036 . S
N105 C106 1.298 . S
N105 N108 1.398 . S
C106 N105 1.298 . S
C106 N109 1.367 . S
C106 C119 1.481 . S
C107 N108 1.299 . S
C107 N109 1.379 . S
N108 N105 1.398 . S
N108 C107 1.299 . S
N109 C106 1.367 . S
N109 C107 1.379 . S
C110 N112 1.298 . S
C110 N114 1.367 . S
C110 C118 1.481 . S
C111 N113 1.299 . S
C111 N114 1.379 . S
N112 Zn96 2.036 . S
N112 C110 1.298 . S
N112 N113 1.398 . S
N113 C111 1.299 . S
N113 N112 1.398 . S
N114 C110 1.367 . S
N114 C111 1.379 . S
H115 C118 0.980 . S
H116 C118 0.981 . S
H117 C118 0.981 . S
C118 C110 1.481 . S
C118 H115 0.980 . S
C118 H116 0.981 . S
C118 H117 0.981 . S
C119 C106 1.481 . S
C119 H120 0.980 . S
C119 H121 0.981 . S
C119 H122 0.981 . S
H120 C119 0.980 . S
H121 C119 0.981 . S
H122 C119 0.981 . S
O123 Zn99 2.066 . S
O123 C102 1.256 . S
O124 Zn96 2.053 . S
O124 C102 1.244 . S
C125 O103 1.259 . S
C125 O104 1.254 . S
O126 Zn96 2.066 . S
O126 C98 1.256 . S
O127 C98 1.244 . S
O127 Zn99 2.053 . S
Zn128 O129 2.055 . S
Zn128 O136 2.046 . S
Zn128 N144 2.036 . S
Zn128 O156 2.053 . S
Zn128 O158 2.066 . S
O129 Zn128 2.055 . S
O129 C132 1.259 . S
C130 O158 1.256 . S
C130 O159 1.244 . S
Zn131 O133 2.046 . S
Zn131 O135 2.055 . S
Zn131 N137 2.036 . S
Zn131 O155 2.066 . S
Zn131 O159 2.053 . S
C132 O129 1.259 . S
C132 O133 1.254 . S
O133 Zn131 2.046 . S
O133 C132 1.254 . S
C134 O155 1.256 . S
C134 O156 1.244 . S
O135 Zn131 2.055 . S
O135 C157 1.259 . S
O136 Zn128 2.046 . S
O136 C157 1.254 . S
N137 Zn131 2.036 . S
N137 C138 1.298 . S
N137 N140 1.398 . S
C138 N137 1.298 . S
C138 N141 1.367 . S
C138 C151 1.481 . S
C139 N140 1.299 . S
C139 N141 1.379 . S
N140 N137 1.398 . S
N140 C139 1.299 . S
N141 C138 1.367 . S
N141 C139 1.379 . S
C142 N144 1.298 . S
C142 N146 1.367 . S
C142 C150 1.481 . S
C143 N145 1.299 . S
C143 N146 1.379 . S
N144 Zn128 2.036 . S
N144 C142 1.298 . S
N144 N145 1.398 . S
N145 C143 1.299 . S
N145 N144 1.398 . S
N146 C142 1.367 . S
N146 C143 1.379 . S
H147 C150 0.980 . S
H148 C150 0.981 . S
H149 C150 0.981 . S
C150 C142 1.481 . S
C150 H147 0.980 . S
C150 H148 0.981 . S
C150 H149 0.981 . S
C151 C138 1.481 . S
C151 H152 0.980 . S
C151 H153 0.981 . S
C151 H154 0.981 . S
H152 C151 0.980 . S
H153 C151 0.981 . S
H154 C151 0.981 . S
O155 Zn131 2.066 . S
O155 C134 1.256 . S
O156 Zn128 2.053 . S
O156 C134 1.244 . S
C157 O135 1.259 . S
C157 O136 1.254 . S
O158 Zn128 2.066 . S
O158 C130 1.256 . S
O159 C130 1.244 . S
O159 Zn131 2.053 . S
Zn160 O161 2.055 . S
Zn160 O168 2.046 . S
Zn160 N176 2.036 . S
Zn160 O188 2.053 . S
Zn160 O190 2.066 . S
O161 Zn160 2.055 . S
O161 C164 1.259 . S
C162 O190 1.256 . S
C162 O191 1.244 . S
Zn163 O165 2.046 . S
Zn163 O167 2.055 . S
Zn163 N169 2.036 . S
Zn163 O187 2.066 . S
Zn163 O191 2.053 . S
C164 O161 1.259 . S
C164 O165 1.254 . S
O165 Zn163 2.046 . S
O165 C164 1.254 . S
C166 O187 1.256 . S
C166 O188 1.244 . S
O167 Zn163 2.055 . S
O167 C189 1.259 . S
O168 Zn160 2.046 . S
O168 C189 1.254 . S
N169 Zn163 2.036 . S
N169 C170 1.298 . S
N169 N172 1.398 . S
C170 N169 1.298 . S
C170 N173 1.367 . S
C170 C183 1.481 . S
C171 N172 1.299 . S
C171 N173 1.379 . S
N172 N169 1.398 . S
N172 C171 1.299 . S
N173 C170 1.367 . S
N173 C171 1.379 . S
C174 N176 1.298 . S
C174 N178 1.367 . S
C174 C182 1.481 . S
C175 N177 1.299 . S
C175 N178 1.379 . S
N176 Zn160 2.036 . S
N176 C174 1.298 . S
N176 N177 1.398 . S
N177 C175 1.299 . S
N177 N176 1.398 . S
N178 C174 1.367 . S
N178 C175 1.379 . S
H179 C182 0.980 . S
H180 C182 0.981 . S
H181 C182 0.981 . S
C182 C174 1.481 . S
C182 H179 0.980 . S
C182 H180 0.981 . S
C182 H181 0.981 . S
C183 C170 1.481 . S
C183 H184 0.980 . S
C183 H185 0.981 . S
C183 H186 0.981 . S
H184 C183 0.980 . S
H185 C183 0.981 . S
H186 C183 0.981 . S
O187 Zn163 2.066 . S
O187 C166 1.256 . S
O188 Zn160 2.053 . S
O188 C166 1.244 . S
C189 O167 1.259 . S
C189 O168 1.254 . S
O190 Zn160 2.066 . S
O190 C162 1.256 . S
O191 C162 1.244 . S
O191 Zn163 2.053 . S
Zn192 O193 2.055 . S
Zn192 O200 2.046 . S
Zn192 N208 2.036 . S
Zn192 O220 2.053 . S
Zn192 O222 2.066 . S
O193 Zn192 2.055 . S
O193 C196 1.259 . S
C194 O222 1.256 . S
C194 O223 1.244 . S
Zn195 O197 2.046 . S
Zn195 O199 2.055 . S
Zn195 N201 2.036 . S
Zn195 O219 2.066 . S
Zn195 O223 2.053 . S
C196 O193 1.259 . S
C196 O197 1.254 . S
O197 Zn195 2.046 . S
O197 C196 1.254 . S
C198 O219 1.256 . S
C198 O220 1.244 . S
O199 Zn195 2.055 . S
O199 C221 1.259 . S
O200 Zn192 2.046 . S
O200 C221 1.254 . S
N201 Zn195 2.036 . S
N201 C202 1.298 . S
N201 N204 1.398 . S
C202 N201 1.298 . S
C202 N205 1.367 . S
C202 C215 1.481 . S
C203 N204 1.299 . S
C203 N205 1.379 . S
N204 N201 1.398 . S
N204 C203 1.299 . S
N205 C202 1.367 . S
N205 C203 1.379 . S
C206 N208 1.298 . S
C206 N210 1.367 . S
C206 C214 1.481 . S
C207 N209 1.299 . S
C207 N210 1.379 . S
N208 Zn192 2.036 . S
N208 C206 1.298 . S
N208 N209 1.398 . S
N209 C207 1.299 . S
N209 N208 1.398 . S
N210 C206 1.367 . S
N210 C207 1.379 . S
H211 C214 0.980 . S
H212 C214 0.981 . S
H213 C214 0.981 . S
C214 C206 1.481 . S
C214 H211 0.980 . S
C214 H212 0.981 . S
C214 H213 0.981 . S
C215 C202 1.481 . S
C215 H216 0.980 . S
C215 H217 0.981 . S
C215 H218 0.981 . S
H216 C215 0.980 . S
H217 C215 0.981 . S
H218 C215 0.981 . S
O219 Zn195 2.066 . S
O219 C198 1.256 . S
O220 Zn192 2.053 . S
O220 C198 1.244 . S
C221 O199 1.259 . S
C221 O200 1.254 . S
O222 Zn192 2.066 . S
O222 C194 1.256 . S
O223 C194 1.244 . S
O223 Zn195 2.053 . S
Zn224 O225 2.055 . S
Zn224 O232 2.046 . S
Zn224 N240 2.036 . S
Zn224 O252 2.053 . S
Zn224 O254 2.066 . S
O225 Zn224 2.055 . S
O225 C228 1.259 . S
C226 O254 1.256 . S
C226 O255 1.244 . S
Zn227 O229 2.046 . S
Zn227 O231 2.055 . S
Zn227 N233 2.036 . S
Zn227 O251 2.066 . S
Zn227 O255 2.053 . S
C228 O225 1.259 . S
C228 O229 1.254 . S
O229 Zn227 2.046 . S
O229 C228 1.254 . S
C230 O251 1.256 . S
C230 O252 1.244 . S
O231 Zn227 2.055 . S
O231 C253 1.259 . S
O232 Zn224 2.046 . S
O232 C253 1.254 . S
N233 Zn227 2.036 . S
N233 C234 1.298 . S
N233 N236 1.398 . S
C234 N233 1.298 . S
C234 N237 1.367 . S
C234 C247 1.481 . S
C235 N236 1.299 . S
C235 N237 1.379 . S
N236 N233 1.398 . S
N236 C235 1.299 . S
N237 C234 1.367 . S
N237 C235 1.379 . S
C238 N240 1.298 . S
C238 N242 1.367 . S
C238 C246 1.481 . S
C239 N241 1.299 . S
C239 N242 1.379 . S
N240 Zn224 2.036 . S
N240 C238 1.298 . S
N240 N241 1.398 . S
N241 C239 1.299 . S
N241 N240 1.398 . S
N242 C238 1.367 . S
N242 C239 1.379 . S
H243 C246 0.980 . S
H244 C246 0.981 . S
H245 C246 0.981 . S
C246 C238 1.481 . S
C246 H243 0.980 . S
C246 H244 0.981 . S
C246 H245 0.981 . S
C247 C234 1.481 . S
C247 H248 0.980 . S
C247 H249 0.981 . S
C247 H250 0.981 . S
H248 C247 0.980 . S
H249 C247 0.981 . S
H250 C247 0.981 . S
O251 Zn227 2.066 . S
O251 C230 1.256 . S
O252 Zn224 2.053 . S
O252 C230 1.244 . S
C253 O231 1.259 . S
C253 O232 1.254 . S
O254 Zn224 2.066 . S
O254 C226 1.256 . S
O255 C226 1.244 . S
O255 Zn227 2.053 . S
Zn256 O257 2.055 . S
Zn256 O264 2.046 . S
Zn256 N272 2.036 . S
Zn256 O284 2.053 . S
Zn256 O286 2.066 . S
O257 Zn256 2.055 . S
O257 C260 1.259 . S
C258 O286 1.256 . S
C258 O287 1.244 . S
Zn259 O261 2.046 . S
Zn259 O263 2.055 . S
Zn259 N265 2.036 . S
Zn259 O283 2.066 . S
Zn259 O287 2.053 . S
C260 O257 1.259 . S
C260 O261 1.254 . S
O261 Zn259 2.046 . S
O261 C260 1.254 . S
C262 O283 1.256 . S
C262 O284 1.244 . S
O263 Zn259 2.055 . S
O263 C285 1.259 . S
O264 Zn256 2.046 . S
O264 C285 1.254 . S
N265 Zn259 2.036 . S
N265 C266 1.298 . S
N265 N268 1.398 . S
C266 N265 1.298 . S
C266 N269 1.367 . S
C266 C279 1.481 . S
C267 N268 1.299 . S
C267 N269 1.379 . S
N268 N265 1.398 . S
N268 C267 1.299 . S
N269 C266 1.367 . S
N269 C267 1.379 . S
C270 N272 1.298 . S
C270 N274 1.367 . S
C270 C278 1.481 . S
C271 N273 1.299 . S
C271 N274 1.379 . S
N272 Zn256 2.036 . S
N272 C270 1.298 . S
N272 N273 1.398 . S
N273 C271 1.299 . S
N273 N272 1.398 . S
N274 C270 1.367 . S
N274 C271 1.379 . S
H275 C278 0.980 . S
H276 C278 0.981 . S
H277 C278 0.981 . S
C278 C270 1.481 . S
C278 H275 0.980 . S
C278 H276 0.981 . S
C278 H277 0.981 . S
C279 C266 1.481 . S
C279 H280 0.980 . S
C279 H281 0.981 . S
C279 H282 0.981 . S
H280 C279 0.980 . S
H281 C279 0.981 . S
H282 C279 0.981 . S
O283 Zn259 2.066 . S
O283 C262 1.256 . S
O284 Zn256 2.053 . S
O284 C262 1.244 . S
C285 O263 1.259 . S
C285 O264 1.254 . S
O286 Zn256 2.066 . S
O286 C258 1.256 . S
O287 C258 1.244 . S
O287 Zn259 2.053 . S
Zn288 O289 2.055 . S
Zn288 O296 2.046 . S
Zn288 N304 2.036 . S
Zn288 O316 2.053 . S
Zn288 O318 2.066 . S
O289 Zn288 2.055 . S
O289 C292 1.259 . S
C290 O318 1.256 . S
C290 O319 1.244 . S
Zn291 O293 2.046 . S
Zn291 O295 2.055 . S
Zn291 N297 2.036 . S
Zn291 O315 2.066 . S
Zn291 O319 2.053 . S
C292 O289 1.259 . S
C292 O293 1.254 . S
O293 Zn291 2.046 . S
O293 C292 1.254 . S
C294 O315 1.256 . S
C294 O316 1.244 . S
O295 Zn291 2.055 . S
O295 C317 1.259 . S
O296 Zn288 2.046 . S
O296 C317 1.254 . S
N297 Zn291 2.036 . S
N297 C298 1.298 . S
N297 N300 1.398 . S
C298 N297 1.298 . S
C298 N301 1.367 . S
C298 C311 1.481 . S
C299 N300 1.299 . S
C299 N301 1.379 . S
N300 N297 1.398 . S
N300 C299 1.299 . S
N301 C298 1.367 . S
N301 C299 1.379 . S
C302 N304 1.298 . S
C302 N306 1.367 . S
C302 C310 1.481 . S
C303 N305 1.299 . S
C303 N306 1.379 . S
N304 Zn288 2.036 . S
N304 C302 1.298 . S
N304 N305 1.398 . S
N305 C303 1.299 . S
N305 N304 1.398 . S
N306 C302 1.367 . S
N306 C303 1.379 . S
H307 C310 0.980 . S
H308 C310 0.981 . S
H309 C310 0.981 . S
C310 C302 1.481 . S
C310 H307 0.980 . S
C310 H308 0.981 . S
C310 H309 0.981 . S
C311 C298 1.481 . S
C311 H312 0.980 . S
C311 H313 0.981 . S
C311 H314 0.981 . S
H312 C311 0.980 . S
H313 C311 0.981 . S
H314 C311 0.981 . S
O315 Zn291 2.066 . S
O315 C294 1.256 . S
O316 Zn288 2.053 . S
O316 C294 1.244 . S
C317 O295 1.259 . S
C317 O296 1.254 . S
O318 Zn288 2.066 . S
O318 C290 1.256 . S
O319 C290 1.244 . S
O319 Zn291 2.053 . S
Zn320 O321 2.055 . S
Zn320 O328 2.046 . S
Zn320 N336 2.036 . S
Zn320 O348 2.053 . S
Zn320 O350 2.066 . S
O321 Zn320 2.055 . S
O321 C324 1.259 . S
C322 O350 1.256 . S
C322 O351 1.244 . S
Zn323 O325 2.046 . S
Zn323 O327 2.055 . S
Zn323 N329 2.036 . S
Zn323 O347 2.066 . S
Zn323 O351 2.053 . S
C324 O321 1.259 . S
C324 O325 1.254 . S
O325 Zn323 2.046 . S
O325 C324 1.254 . S
C326 O347 1.256 . S
C326 O348 1.244 . S
O327 Zn323 2.055 . S
O327 C349 1.259 . S
O328 Zn320 2.046 . S
O328 C349 1.254 . S
N329 Zn323 2.036 . S
N329 C330 1.298 . S
N329 N332 1.398 . S
C330 N329 1.298 . S
C330 N333 1.367 . S
C330 C343 1.481 . S
C331 N332 1.299 . S
C331 N333 1.379 . S
N332 N329 1.398 . S
N332 C331 1.299 . S
N333 C330 1.367 . S
N333 C331 1.379 . S
C334 N336 1.298 . S
C334 N338 1.367 . S
C334 C342 1.481 . S
C335 N337 1.299 . S
C335 N338 1.379 . S
N336 Zn320 2.036 . S
N336 C334 1.298 . S
N336 N337 1.398 . S
N337 C335 1.299 . S
N337 N336 1.398 . S
N338 C334 1.367 . S
N338 C335 1.379 . S
H339 C342 0.980 . S
H340 C342 0.981 . S
H341 C342 0.981 . S
C342 C334 1.481 . S
C342 H339 0.980 . S
C342 H340 0.981 . S
C342 H341 0.981 . S
C343 C330 1.481 . S
C343 H344 0.980 . S
C343 H345 0.981 . S
C343 H346 0.981 . S
H344 C343 0.980 . S
H345 C343 0.981 . S
H346 C343 0.981 . S
O347 Zn323 2.066 . S
O347 C326 1.256 . S
O348 Zn320 2.053 . S
O348 C326 1.244 . S
C349 O327 1.259 . S
C349 O328 1.254 . S
O350 Zn320 2.066 . S
O350 C322 1.256 . S
O351 C322 1.244 . S
O351 Zn323 2.053 . S
Zn352 O353 2.055 . S
Zn352 O360 2.046 . S
Zn352 N368 2.036 . S
Zn352 O380 2.053 . S
Zn352 O382 2.066 . S
O353 Zn352 2.055 . S
O353 C356 1.259 . S
C354 O382 1.256 . S
C354 O383 1.244 . S
Zn355 O357 2.046 . S
Zn355 O359 2.055 . S
Zn355 N361 2.036 . S
Zn355 O379 2.066 . S
Zn355 O383 2.053 . S
C356 O353 1.259 . S
C356 O357 1.254 . S
O357 Zn355 2.046 . S
O357 C356 1.254 . S
C358 O379 1.256 . S
C358 O380 1.244 . S
O359 Zn355 2.055 . S
O359 C381 1.259 . S
O360 Zn352 2.046 . S
O360 C381 1.254 . S
N361 Zn355 2.036 . S
N361 C362 1.298 . S
N361 N364 1.398 . S
C362 N361 1.298 . S
C362 N365 1.367 . S
C362 C375 1.481 . S
C363 N364 1.299 . S
C363 N365 1.379 . S
N364 N361 1.398 . S
N364 C363 1.299 . S
N365 C362 1.367 . S
N365 C363 1.379 . S
C366 N368 1.298 . S
C366 N370 1.367 . S
C366 C374 1.481 . S
C367 N369 1.299 . S
C367 N370 1.379 . S
N368 Zn352 2.036 . S
N368 C366 1.298 . S
N368 N369 1.398 . S
N369 C367 1.299 . S
N369 N368 1.398 . S
N370 C366 1.367 . S
N370 C367 1.379 . S
H371 C374 0.980 . S
H372 C374 0.981 . S
H373 C374 0.981 . S
C374 C366 1.481 . S
C374 H371 0.980 . S
C374 H372 0.981 . S
C374 H373 0.981 . S
C375 C362 1.481 . S
C375 H376 0.980 . S
C375 H377 0.981 . S
C375 H378 0.981 . S
H376 C375 0.980 . S
H377 C375 0.981 . S
H378 C375 0.981 . S
O379 Zn355 2.066 . S
O379 C358 1.256 . S
O380 Zn352 2.053 . S
O380 C358 1.244 . S
C381 O359 1.259 . S
C381 O360 1.254 . S
O382 Zn352 2.066 . S
O382 C354 1.256 . S
O383 C354 1.244 . S
O383 Zn355 2.053 . S
H384 C396 0.930 . S
H385 C398 0.930 . S
H386 C399 0.930 . S
H387 C403 0.959 . S
H388 C403 0.959 . S
H389 C403 0.961 . S
H390 C404 0.960 . S
H391 C404 0.961 . S
H392 C404 0.959 . S
H393 C407 0.929 . S
H394 C408 0.931 . S
H395 C410 0.930 . S
C396 H384 0.930 . S
C396 C397 1.399 . S
C396 C401 1.399 1_565 S
C397 C396 1.399 . S
C397 C398 1.376 . S
C398 H385 0.930 . S
C398 C397 1.376 . S
C398 C399 1.388 1_565 S
C399 H386 0.930 . S
C399 C398 1.388 1_545 S
C399 C400 1.390 . S
C400 C399 1.390 . S
C400 C401 1.394 . S
C400 C406 1.465 . S
C401 C396 1.399 1_545 S
C401 C400 1.394 . S
C401 C402 1.516 . S
C402 C401 1.516 . S
C402 C403 1.502 . S
C402 C404 1.561 . S
C402 C405 1.526 . S
C403 H387 0.959 . S
C403 H388 0.959 . S
C403 H389 0.961 . S
C403 C402 1.502 . S
C404 H390 0.960 . S
C404 H391 0.961 . S
C404 H392 0.959 . S
C404 C402 1.561 . S
C405 C402 1.526 . S
C405 C406 1.396 . S
C405 C410 1.390 . S
C406 C400 1.465 . S
C406 C405 1.396 . S
C406 C407 1.399 . S
C407 H393 0.929 . S
C407 C406 1.399 . S
C407 C408 1.385 . S
C408 H394 0.931 . S
C408 C407 1.385 . S
C408 C409 1.389 . S
C409 C408 1.389 . S
C409 C410 1.387 . S
C410 H395 0.930 . S
C410 C405 1.390 . S
C410 C409 1.387 . S
H411 C423 0.930 . S
H412 C425 0.930 . S
H413 C426 0.930 . S
H414 C430 0.959 . S
H415 C430 0.959 . S
H416 C430 0.961 . S
H417 C431 0.960 . S
H418 C431 0.961 . S
H419 C431 0.959 . S
H420 C434 0.929 . S
H421 C435 0.931 . S
H422 C437 0.930 1_655 S
C423 H411 0.930 . S
C423 C424 1.399 . S
C423 C428 1.399 . S
C424 C423 1.399 . S
C424 C425 1.376 . S
C425 H412 0.930 . S
C425 C424 1.376 . S
C425 C426 1.388 . S
C426 H413 0.930 . S
C426 C425 1.388 . S
C426 C427 1.390 . S
C427 C426 1.390 . S
C427 C428 1.394 . S
C427 C433 1.465 . S
C428 C423 1.399 . S
C428 C427 1.394 . S
C428 C429 1.516 . S
C429 C428 1.516 . S
C429 C430 1.502 . S
C429 C431 1.561 . S
C429 C432 1.526 . S
C430 H414 0.959 . S
C430 H415 0.959 . S
C430 H416 0.961 . S
C430 C429 1.502 . S
C431 H417 0.960 . S
C431 H418 0.961 . S
C431 H419 0.959 . S
C431 C429 1.561 . S
C432 C429 1.526 . S
C432 C433 1.396 . S
C432 C437 1.390 . S
C433 C427 1.465 . S
C433 C432 1.396 . S
C433 C434 1.399 . S
C434 H420 0.929 . S
C434 C433 1.399 . S
C434 C435 1.385 . S
C435 H421 0.931 . S
C435 C434 1.385 . S
C435 C436 1.389 1_455 S
C436 C435 1.389 1_655 S
C436 C437 1.387 1_655 S
C437 H422 0.930 1_455 S
C437 C432 1.390 . S
C437 C436 1.387 1_455 S
H438 C450 0.930 1_565 S
H439 C452 0.930 . S
H440 C453 0.930 . S
H441 C457 0.959 . S
H442 C457 0.959 . S
H443 C457 0.961 . S
H444 C458 0.960 . S
H445 C458 0.961 . S
H446 C458 0.959 . S
H447 C461 0.929 . S
H448 C462 0.931 . S
H449 C464 0.930 . S
C450 H438 0.930 1_545 S
C450 C451 1.399 1_545 S
C450 C455 1.399 . S
C451 C450 1.399 1_565 S
C451 C452 1.376 1_565 S
C452 H439 0.930 . S
C452 C451 1.376 1_545 S
C452 C453 1.388 . S
C453 H440 0.930 . S
C453 C452 1.388 . S
C453 C454 1.390 . S
C454 C453 1.390 . S
C454 C455 1.394 . S
C454 C460 1.465 . S
C455 C450 1.399 . S
C455 C454 1.394 . S
C455 C456 1.516 . S
C456 C455 1.516 . S
C456 C457 1.502 . S
C456 C458 1.561 . S
C456 C459 1.526 . S
C457 H441 0.959 . S
C457 H442 0.959 . S
C457 H443 0.961 . S
C457 C456 1.502 . S
C458 H444 0.960 . S
C458 H445 0.961 . S
C458 H446 0.959 . S
C458 C456 1.561 . S
C459 C456 1.526 . S
C459 C460 1.396 . S
C459 C464 1.390 1_655 S
C460 C454 1.465 . S
C460 C459 1.396 . S
C460 C461 1.399 . S
C461 H447 0.929 . S
C461 C460 1.399 . S
C461 C462 1.385 1_655 S
C462 H448 0.931 . S
C462 C461 1.385 1_455 S
C462 C463 1.389 . S
C463 C462 1.389 . S
C463 C464 1.387 . S
C464 H449 0.930 . S
C464 C459 1.390 1_455 S
C464 C463 1.387 . S
H465 C477 0.930 . S
H466 C479 0.930 . S
H467 C480 0.930 . S
H468 C484 0.959 . S
H469 C484 0.959 . S
H470 C484 0.961 . S
H471 C485 0.960 . S
H472 C485 0.961 . S
H473 C485 0.959 . S
H474 C488 0.929 . S
H475 C489 0.931 . S
H476 C491 0.930 . S
C477 H465 0.930 . S
C477 C478 1.399 . S
C477 C482 1.399 . S
C478 C477 1.399 . S
C478 C479 1.376 . S
C479 H466 0.930 . S
C479 C478 1.376 . S
C479 C480 1.388 . S
C480 H467 0.930 . S
C480 C479 1.388 . S
C480 C481 1.390 . S
C481 C480 1.390 . S
C481 C482 1.394 . S
C481 C487 1.465 . S
C482 C477 1.399 . S
C482 C481 1.394 . S
C482 C483 1.516 . S
C483 C482 1.516 . S
C483 C484 1.502 . S
C483 C485 1.561 . S
C483 C486 1.526 . S
C484 H468 0.959 . S
C484 H469 0.959 . S
C484 H470 0.961 . S
C484 C483 1.502 . S
C485 H471 0.960 . S
C485 H472 0.961 . S
C485 H473 0.959 . S
C485 C483 1.561 . S
C486 C483 1.526 . S
C486 C487 1.396 . S
C486 C491 1.390 1_565 S
C487 C481 1.465 . S
C487 C486 1.396 . S
C487 C488 1.399 . S
C488 H474 0.929 . S
C488 C487 1.399 . S
C488 C489 1.385 1_565 S
C489 H475 0.931 . S
C489 C488 1.385 1_545 S
C489 C490 1.389 . S
C490 C489 1.389 . S
C490 C491 1.387 . S
C491 H476 0.930 . S
C491 C486 1.390 1_545 S
C491 C490 1.387 . S
H492 C504 0.930 1_455 S
H493 C506 0.930 1_455 S
H494 C507 0.930 . S
H495 C511 0.959 . S
H496 C511 0.959 . S
H497 C511 0.961 . S
H498 C512 0.960 . S
H499 C512 0.961 . S
H500 C512 0.959 . S
H501 C515 0.929 . S
H502 C516 0.931 . S
H503 C518 0.930 . S
C504 H492 0.930 1_655 S
C504 C505 1.399 1_655 S
C504 C509 1.399 . S
C505 C504 1.399 1_455 S
C505 C506 1.376 1_455 S
C506 H493 0.930 1_655 S
C506 C505 1.376 1_655 S
C506 C507 1.388 . S
C507 H494 0.930 . S
C507 C506 1.388 . S
C507 C508 1.390 . S
C508 C507 1.390 . S
C508 C509 1.394 . S
C508 C514 1.465 . S
C509 C504 1.399 . S
C509 C508 1.394 . S
C509 C510 1.516 . S
C510 C509 1.516 . S
C510 C511 1.502 . S
C510 C512 1.561 . S
C510 C513 1.526 . S
C511 H495 0.959 . S
C511 H496 0.959 . S
C511 H497 0.961 . S
C511 C510 1.502 . S
C512 H498 0.960 . S
C512 H499 0.961 . S
C512 H500 0.959 . S
C512 C510 1.561 . S
C513 C510 1.526 . S
C513 C514 1.396 . S
C513 C518 1.390 . S
C514 C508 1.465 . S
C514 C513 1.396 . S
C514 C515 1.399 . S
C515 H501 0.929 . S
C515 C514 1.399 . S
C515 C516 1.385 . S
C516 H502 0.931 . S
C516 C515 1.385 . S
C516 C517 1.389 . S
C517 C516 1.389 . S
C517 C518 1.387 . S
C518 H503 0.930 . S
C518 C513 1.390 . S
C518 C517 1.387 . S
H519 C531 0.930 . S
H520 C533 0.930 . S
H521 C534 0.930 . S
H522 C538 0.959 . S
H523 C538 0.959 . S
H524 C538 0.961 . S
H525 C539 0.960 . S
H526 C539 0.961 . S
H527 C539 0.959 . S
H528 C542 0.929 . S
H529 C543 0.931 . S
H530 C545 0.930 . S
C531 H519 0.930 . S
C531 C532 1.399 . S
C531 C536 1.399 1_655 S
C532 C531 1.399 . S
C532 C533 1.376 . S
C533 H520 0.930 . S
C533 C532 1.376 . S
C533 C534 1.388 1_655 S
C534 H521 0.930 . S
C534 C533 1.388 1_455 S
C534 C535 1.390 . S
C535 C534 1.390 . S
C535 C536 1.394 . S
C535 C541 1.465 . S
C536 C531 1.399 1_455 S
C536 C535 1.394 . S
C536 C537 1.516 . S
C537 C536 1.516 . S
C537 C538 1.502 . S
C537 C539 1.561 . S
C537 C540 1.526 . S
C538 H522 0.959 . S
C538 H523 0.959 . S
C538 H524 0.961 . S
C538 C537 1.502 . S
C539 H525 0.960 . S
C539 H526 0.961 . S
C539 H527 0.959 . S
C539 C537 1.561 . S
C540 C537 1.526 . S
C540 C541 1.396 . S
C540 C545 1.390 . S
C541 C535 1.465 . S
C541 C540 1.396 . S
C541 C542 1.399 . S
C542 H528 0.929 . S
C542 C541 1.399 . S
C542 C543 1.385 1_565 S
C543 H529 0.931 . S
C543 C542 1.385 1_545 S
C543 C544 1.389 . S
C544 C543 1.389 . S
C544 C545 1.387 1_545 S
C545 H530 0.930 . S
C545 C540 1.390 . S
C545 C544 1.387 1_565 S
H546 C558 0.930 . S
H547 C560 0.930 . S
H548 C561 0.925 . S
H549 C565 0.959 . S
H550 C565 0.959 . S
H551 C565 0.961 . S
H552 C566 0.960 . S
H553 C566 0.961 . S
H554 C566 0.959 . S
H555 C569 0.929 . S
H556 C570 0.931 . S
H557 C572 0.930 . S
C558 H546 0.930 . S
C558 C559 1.399 1_655 S
C558 C563 1.399 . S
C559 C558 1.399 1_455 S
C559 C560 1.376 . S
C560 H547 0.930 . S
C560 C559 1.376 . S
C560 C561 1.401 . S
C561 H548 0.925 . S
C561 C560 1.401 . S
C561 C562 1.383 1_455 S
C562 C561 1.383 1_655 S
C562 C563 1.394 . S
C562 C568 1.465 . S
C563 C558 1.399 . S
C563 C562 1.394 . S
C563 C564 1.516 . S
C564 C563 1.516 . S
C564 C565 1.502 . S
C564 C566 1.561 . S
C564 C567 1.526 . S
C565 H549 0.959 . S
C565 H550 0.959 . S
C565 H551 0.961 . S
C565 C564 1.502 . S
C566 H552 0.960 . S
C566 H553 0.961 . S
C566 H554 0.959 . S
C566 C564 1.561 . S
C567 C564 1.526 . S
C567 C568 1.396 . S
C567 C572 1.390 . S
C568 C562 1.465 . S
C568 C567 1.396 . S
C568 C569 1.399 . S
C569 H555 0.929 . S
C569 C568 1.399 . S
C569 C570 1.385 . S
C570 H556 0.931 . S
C570 C569 1.385 . S
C570 C571 1.389 . S
C571 C570 1.389 . S
C571 C572 1.387 . S
C572 H557 0.930 . S
C572 C567 1.390 . S
C572 C571 1.387 . S
H573 C585 0.930 . S
H574 C587 0.930 . S
H575 C588 0.930 . S
H576 C592 0.959 . S
H577 C592 0.959 . S
H578 C592 0.961 . S
H579 C593 0.960 . S
H580 C593 0.961 . S
H581 C593 0.959 . S
H582 C596 0.929 . S
H583 C597 0.931 . S
H584 C599 0.930 . S
C585 H573 0.930 . S
C585 C586 1.399 1_455 S
C585 C590 1.399 . S
C586 C585 1.399 1_655 S
C586 C587 1.376 . S
C587 H574 0.930 . S
C587 C586 1.376 . S
C587 C588 1.388 1_655 S
C588 H575 0.930 . S
C588 C587 1.388 1_455 S
C588 C589 1.390 . S
C589 C588 1.390 . S
C589 C590 1.394 . S
C589 C595 1.465 . S
C590 C585 1.399 . S
C590 C589 1.394 . S
C590 C591 1.516 . S
C591 C590 1.516 . S
C591 C592 1.502 . S
C591 C593 1.561 . S
C591 C594 1.526 . S
C592 H576 0.959 . S
C592 H577 0.959 . S
C592 H578 0.961 . S
C592 C591 1.502 . S
C593 H579 0.960 . S
C593 H580 0.961 . S
C593 H581 0.959 . S
C593 C591 1.561 . S
C594 C591 1.526 . S
C594 C595 1.396 . S
C594 C599 1.390 1_565 S
C595 C589 1.465 . S
C595 C594 1.396 . S
C595 C596 1.399 . S
C596 H582 0.929 . S
C596 C595 1.399 . S
C596 C597 1.385 1_565 S
C597 H583 0.931 . S
C597 C596 1.385 1_545 S
C597 C598 1.389 . S
C598 C597 1.389 . S
C598 C599 1.386 . S
C599 H584 0.930 . S
C599 C594 1.390 1_545 S
C599 C598 1.386 . S
H600 C612 0.930 . S
H601 C614 0.930 . S
H602 C615 0.930 . S
H603 C619 0.959 . S
H604 C619 0.959 . S
H605 C619 0.961 . S
H606 C620 0.960 . S
H607 C620 0.961 . S
H608 C620 0.959 . S
H609 C623 0.929 . S
H610 C624 0.931 1_565 S
H611 C626 0.930 1_565 S
C612 H600 0.930 . S
C612 C613 1.399 . S
C612 C617 1.399 . S
C613 C612 1.399 . S
C613 C614 1.376 . S
C614 H601 0.930 . S
C614 C613 1.376 . S
C614 C615 1.388 . S
C615 H602 0.930 . S
C615 C614 1.388 . S
C615 C616 1.390 . S
C616 C615 1.390 . S
C616 C617 1.394 . S
C616 C622 1.465 . S
C617 C612 1.399 . S
C617 C616 1.394 . S
C617 C618 1.516 . S
C618 C617 1.516 . S
C618 C619 1.502 . S
C618 C620 1.561 . S
C618 C621 1.526 . S
C619 H603 0.959 . S
C619 H604 0.959 . S
C619 H605 0.961 . S
C619 C618 1.502 . S
C620 H606 0.960 . S
C620 H607 0.961 . S
C620 H608 0.959 . S
C620 C618 1.561 . S
C621 C618 1.526 . S
C621 C622 1.396 . S
C621 C626 1.390 . S
C622 C616 1.465 . S
C622 C621 1.396 . S
C622 C623 1.399 . S
C623 H609 0.929 . S
C623 C622 1.399 . S
C623 C624 1.385 . S
C624 H610 0.931 1_545 S
C624 C623 1.385 . S
C624 C625 1.389 1_545 S
C625 C624 1.389 1_565 S
C625 C626 1.387 1_565 S
C626 H611 0.930 1_545 S
C626 C621 1.390 . S
C626 C625 1.387 1_545 S
H627 C639 0.930 . S
H628 C641 0.930 . S
H629 C642 0.930 . S
H630 C646 0.959 . S
H631 C646 0.959 . S
H632 C646 0.961 . S
H633 C647 0.960 . S
H634 C647 0.961 . S
H635 C647 0.959 . S
H636 C650 0.929 . S
H637 C651 0.931 . S
H638 C653 0.930 . S
C639 H627 0.930 . S
C639 C640 1.399 . S
C639 C644 1.399 . S
C640 C639 1.399 . S
C640 C641 1.376 . S
C641 H628 0.930 . S
C641 C640 1.376 . S
C641 C642 1.388 . S
C642 H629 0.930 . S
C642 C641 1.388 . S
C642 C643 1.390 . S
C643 C642 1.390 . S
C643 C644 1.394 . S
C643 C649 1.465 . S
C644 C639 1.399 . S
C644 C643 1.394 . S
C644 C645 1.516 . S
C645 C644 1.516 . S
C645 C646 1.502 . S
C645 C647 1.561 . S
C645 C648 1.526 . S
C646 H630 0.959 . S
C646 H631 0.959 . S
C646 H632 0.961 . S
C646 C645 1.502 . S
C647 H633 0.960 . S
C647 H634 0.961 . S
C647 H635 0.959 . S
C647 C645 1.561 . S
C648 C645 1.526 . S
C648 C649 1.396 . S
C648 C653 1.390 1_455 S
C649 C643 1.465 . S
C649 C648 1.396 . S
C649 C650 1.399 . S
C650 H636 0.929 . S
C650 C649 1.399 . S
C650 C651 1.385 1_455 S
C651 H637 0.931 . S
C651 C650 1.385 1_655 S
C651 C652 1.389 . S
C652 C651 1.389 . S
C652 C653 1.387 . S
C653 H638 0.930 . S
C653 C648 1.390 1_655 S
C653 C652 1.387 . S
H654 C666 0.933 . S
H655 C668 0.930 1_455 S
H656 C669 0.930 . S
H657 C673 0.959 . S
H658 C673 0.959 . S
H659 C673 0.961 . S
H660 C674 0.960 . S
H661 C674 0.961 . S
H662 C674 0.959 . S
H663 C677 0.929 . S
H664 C678 0.931 . S
H665 C680 0.930 . S
C666 H654 0.933 . S
C666 C667 1.399 1_655 S
C666 C671 1.399 . S
C667 C666 1.399 1_455 S
C667 C668 1.376 1_455 S
C668 H655 0.930 1_655 S
C668 C667 1.376 1_655 S
C668 C669 1.388 . S
C669 H656 0.930 . S
C669 C668 1.388 . S
C669 C670 1.390 . S
C670 C669 1.390 . S
C670 C671 1.394 . S
C670 C676 1.465 . S
C671 C666 1.399 . S
C671 C670 1.394 . S
C671 C672 1.516 . S
C672 C671 1.516 . S
C672 C673 1.502 . S
C672 C674 1.561 . S
C672 C675 1.526 . S
C673 H657 0.959 . S
C673 H658 0.959 . S
C673 H659 0.961 . S
C673 C672 1.502 . S
C674 H660 0.960 . S
C674 H661 0.961 . S
C674 H662 0.959 . S
C674 C672 1.561 . S
C675 C672 1.526 . S
C675 C676 1.396 . S
C675 C680 1.390 1_545 S
C676 C670 1.465 . S
C676 C675 1.396 . S
C676 C677 1.399 . S
C677 H663 0.929 . S
C677 C676 1.399 . S
C677 C678 1.385 1_545 S
C678 H664 0.931 . S
C678 C677 1.385 1_565 S
C678 C679 1.389 . S
C679 C678 1.389 . S
C679 C680 1.387 . S
C680 H665 0.930 . S
C680 C675 1.390 1_565 S
C680 C679 1.387 . S
H681 C693 0.930 . S
H682 C695 0.930 . S
H683 C696 0.930 . S
H684 C700 0.959 . S
H685 C700 0.959 . S
H686 C700 0.961 . S
H687 C701 0.960 . S
H688 C701 0.961 . S
H689 C701 0.959 . S
H690 C704 0.929 . S
H691 C705 0.931 . S
H692 C707 0.930 . S
C693 H681 0.930 . S
C693 C694 1.399 . S
C693 C698 1.399 . S
C694 C693 1.399 . S
C694 C695 1.376 . S
C695 H682 0.930 . S
C695 C694 1.376 . S
C695 C696 1.388 . S
C696 H683 0.930 . S
C696 C695 1.388 . S
C696 C697 1.390 . S
C697 C696 1.390 . S
C697 C698 1.394 . S
C697 C703 1.465 . S
C698 C693 1.399 . S
C698 C697 1.394 . S
C698 C699 1.516 . S
C699 C698 1.516 . S
C699 C700 1.502 . S
C699 C701 1.561 . S
C699 C702 1.526 . S
C700 H684 0.959 . S
C700 H685 0.959 . S
C700 H686 0.961 . S
C700 C699 1.502 . S
C701 H687 0.960 . S
C701 H688 0.961 . S
C701 H689 0.959 . S
C701 C699 1.561 . S
C702 C699 1.526 . S
C702 C703 1.396 . S
C702 C707 1.390 . S
C703 C697 1.465 . S
C703 C702 1.396 . S
C703 C704 1.399 . S
C704 H690 0.929 . S
C704 C703 1.399 . S
C704 C705 1.385 1_565 S
C705 H691 0.931 . S
C705 C704 1.385 1_545 S
C705 C706 1.389 . S
C706 C705 1.389 . S
C706 C707 1.387 1_545 S
C707 H692 0.930 . S
C707 C702 1.390 . S
C707 C706 1.387 1_565 S
H708 C720 0.930 . S
H709 C722 0.930 . S
H710 C723 0.930 . S
H711 C727 0.959 . S
H712 C727 0.959 . S
H713 C727 0.961 . S
H714 C728 0.960 . S
H715 C728 0.961 . S
H716 C728 0.959 . S
H717 C731 0.929 . S
H718 C732 0.931 . S
H719 C734 0.930 . S
C720 H708 0.930 . S
C720 C721 1.399 . S
C720 C725 1.399 . S
C721 C720 1.399 . S
C721 C722 1.376 . S
C722 H709 0.930 . S
C722 C721 1.376 . S
C722 C723 1.388 . S
C723 H710 0.930 . S
C723 C722 1.388 . S
C723 C724 1.390 . S
C724 C723 1.390 . S
C724 C725 1.394 . S
C724 C730 1.465 . S
C725 C720 1.399 . S
C725 C724 1.394 . S
C725 C726 1.516 . S
C726 C725 1.516 . S
C726 C727 1.502 . S
C726 C728 1.561 . S
C726 C729 1.526 . S
C727 H711 0.959 . S
C727 H712 0.959 . S
C727 H713 0.961 . S
C727 C726 1.502 . S
C728 H714 0.960 . S
C728 H715 0.961 . S
C728 H716 0.959 . S
C728 C726 1.561 . S
C729 C726 1.526 . S
C729 C730 1.396 . S
C729 C734 1.390 . S
C730 C724 1.465 . S
C730 C729 1.396 . S
C730 C731 1.399 . S
C731 H717 0.929 . S
C731 C730 1.399 . S
C731 C732 1.385 . S
C732 H718 0.931 . S
C732 C731 1.385 . S
C732 C733 1.389 . S
C733 C732 1.389 . S
C733 C734 1.387 . S
C734 H719 0.930 . S
C734 C729 1.390 . S
C734 C733 1.387 . S
H735 C747 0.930 . S
H736 C749 0.930 . S
H737 C750 0.930 . S
H738 C754 0.959 . S
H739 C754 0.959 . S
H740 C754 0.961 . S
H741 C755 0.960 . S
H742 C755 0.961 . S
H743 C755 0.959 . S
H744 C758 0.929 . S
H745 C759 0.931 . S
H746 C761 0.930 . S
C747 H735 0.930 . S
C747 C748 1.399 . S
C747 C752 1.399 . S
C748 C747 1.399 . S
C748 C749 1.376 . S
C749 H736 0.930 . S
C749 C748 1.376 . S
C749 C750 1.388 . S
C750 H737 0.930 . S
C750 C749 1.388 . S
C750 C751 1.390 . S
C751 C750 1.390 . S
C751 C752 1.394 . S
C751 C757 1.465 . S
C752 C747 1.399 . S
C752 C751 1.394 . S
C752 C753 1.516 . S
C753 C752 1.516 . S
C753 C754 1.502 . S
C753 C755 1.561 . S
C753 C756 1.526 . S
C754 H738 0.959 . S
C754 H739 0.959 . S
C754 H740 0.961 . S
C754 C753 1.502 . S
C755 H741 0.960 . S
C755 H742 0.961 . S
C755 H743 0.959 . S
C755 C753 1.561 . S
C756 C753 1.526 . S
C756 C757 1.396 . S
C756 C761 1.390 . S
C757 C751 1.465 . S
C757 C756 1.396 . S
C757 C758 1.399 . S
C758 H744 0.929 . S
C758 C757 1.399 . S
C758 C759 1.385 . S
C759 H745 0.931 . S
C759 C758 1.385 . S
C759 C760 1.389 . S
C760 C759 1.389 . S
C760 C761 1.387 . S
C761 H746 0.930 . S
C761 C756 1.390 . S
C761 C760 1.387 . S
H762 C774 0.930 . S
H763 C776 0.930 . S
H764 C777 0.930 . S
H765 C781 0.959 . S
H766 C781 0.959 . S
H767 C781 0.961 . S
H768 C782 0.960 . S
H769 C782 0.961 . S
H770 C782 0.959 . S
H771 C785 0.929 . S
H772 C786 0.931 . S
H773 C788 0.930 . S
C774 H762 0.930 . S
C774 C775 1.399 . S
C774 C779 1.399 . S
C775 C774 1.399 . S
C775 C776 1.376 . S
C776 H763 0.930 . S
C776 C775 1.376 . S
C776 C777 1.388 . S
C777 H764 0.930 . S
C777 C776 1.388 . S
C777 C778 1.390 . S
C778 C777 1.390 . S
C778 C779 1.394 . S
C778 C784 1.465 . S
C779 C774 1.399 . S
C779 C778 1.394 . S
C779 C780 1.516 . S
C780 C779 1.516 . S
C780 C781 1.502 . S
C780 C782 1.561 . S
C780 C783 1.526 . S
C781 H765 0.959 . S
C781 H766 0.959 . S
C781 H767 0.961 . S
C781 C780 1.502 . S
C782 H768 0.960 . S
C782 H769 0.961 . S
C782 H770 0.959 . S
C782 C780 1.561 . S
C783 C780 1.526 . S
C783 C784 1.396 . S
C783 C788 1.390 . S
C784 C778 1.465 . S
C784 C783 1.396 . S
C784 C785 1.399 . S
C785 H771 0.929 . S
C785 C784 1.399 . S
C785 C786 1.385 . S
C786 H772 0.931 . S
C786 C785 1.385 . S
C786 C787 1.389 . S
C787 C786 1.389 . S
C787 C788 1.387 . S
C788 H773 0.930 . S
C788 C783 1.390 . S
C788 C787 1.387 . S
H789 C801 0.930 . S
H790 C803 0.930 . S
H791 C804 0.930 . S
H792 C808 0.959 . S
H793 C808 0.959 . S
H794 C808 0.961 . S
H795 C809 0.960 . S
H796 C809 0.961 . S
H797 C809 0.959 . S
H798 C812 0.929 . S
H799 C813 0.931 . S
H800 C815 0.930 . S
C801 H789 0.930 . S
C801 C802 1.399 . S
C801 C806 1.399 . S
C802 C801 1.399 . S
C802 C803 1.376 . S
C803 H790 0.930 . S
C803 C802 1.376 . S
C803 C804 1.388 . S
C804 H791 0.930 . S
C804 C803 1.388 . S
C804 C805 1.390 . S
C805 C804 1.390 . S
C805 C806 1.394 . S
C805 C811 1.465 . S
C806 C801 1.399 . S
C806 C805 1.394 . S
C806 C807 1.516 . S
C807 C806 1.516 . S
C807 C808 1.502 . S
C807 C809 1.561 . S
C807 C810 1.526 . S
C808 H792 0.959 . S
C808 H793 0.959 . S
C808 H794 0.961 . S
C808 C807 1.502 . S
C809 H795 0.960 . S
C809 H796 0.961 . S
C809 H797 0.959 . S
C809 C807 1.561 . S
C810 C807 1.526 . S
C810 C811 1.396 . S
C810 C815 1.390 . S
C811 C805 1.465 . S
C811 C810 1.396 . S
C811 C812 1.399 . S
C812 H798 0.929 . S
C812 C811 1.399 . S
C812 C813 1.385 . S
C813 H799 0.931 . S
C813 C812 1.385 . S
C813 C814 1.389 . S
C814 C813 1.389 . S
C814 C815 1.387 . S
C815 H800 0.930 . S
C815 C810 1.390 . S
C815 C814 1.387 . S
H816 C828 0.930 . S
H817 C830 0.930 . S
H818 C831 0.930 . S
H819 C835 0.959 . S
H820 C835 0.959 . S
H821 C835 0.961 . S
H822 C836 0.960 . S
H823 C836 0.961 . S
H824 C836 0.959 . S
H825 C839 0.929 . S
H826 C840 0.931 . S
H827 C842 0.930 . S
C828 H816 0.930 . S
C828 C829 1.399 . S
C828 C833 1.399 . S
C829 C828 1.399 . S
C829 C830 1.376 . S
C830 H817 0.930 . S
C830 C829 1.376 . S
C830 C831 1.388 . S
C831 H818 0.930 . S
C831 C830 1.388 . S
C831 C832 1.390 . S
C832 C831 1.390 . S
C832 C833 1.394 . S
C832 C838 1.465 . S
C833 C828 1.399 . S
C833 C832 1.394 . S
C833 C834 1.516 . S
C834 C833 1.516 . S
C834 C835 1.502 . S
C834 C836 1.561 . S
C834 C837 1.526 . S
C835 H819 0.959 . S
C835 H820 0.959 . S
C835 H821 0.961 . S
C835 C834 1.502 . S
C836 H822 0.960 . S
C836 H823 0.961 . S
C836 H824 0.959 . S
C836 C834 1.561 . S
C837 C834 1.526 . S
C837 C838 1.396 . S
C837 C842 1.390 . S
C838 C832 1.465 . S
C838 C837 1.396 . S
C838 C839 1.399 . S
C839 H825 0.929 . S
C839 C838 1.399 . S
C839 C840 1.385 . S
C840 H826 0.931 . S
C840 C839 1.385 . S
C840 C841 1.389 . S
C841 C840 1.389 . S
C841 C842 1.387 . S
C842 H827 0.930 . S
C842 C837 1.390 . S
C842 C841 1.387 . S
H843 C855 0.930 . S
H844 C857 0.930 . S
H845 C858 0.930 . S
H846 C862 0.959 . S
H847 C862 0.959 . S
H848 C862 0.961 . S
H849 C863 0.960 . S
H850 C863 0.961 . S
H851 C863 0.959 . S
H852 C866 0.929 . S
H853 C867 0.931 . S
H854 C869 0.930 . S
C855 H843 0.930 . S
C855 C856 1.399 . S
C855 C860 1.399 . S
C856 C855 1.399 . S
C856 C857 1.376 . S
C857 H844 0.930 . S
C857 C856 1.376 . S
C857 C858 1.388 . S
C858 H845 0.930 . S
C858 C857 1.388 . S
C858 C859 1.390 . S
C859 C858 1.390 . S
C859 C860 1.394 . S
C859 C865 1.465 . S
C860 C855 1.399 . S
C860 C859 1.394 . S
C860 C861 1.516 . S
C861 C860 1.516 . S
C861 C862 1.502 . S
C861 C863 1.561 . S
C861 C864 1.526 . S
C862 H846 0.959 . S
C862 H847 0.959 . S
C862 H848 0.961 . S
C862 C861 1.502 . S
C863 H849 0.960 . S
C863 H850 0.961 . S
C863 H851 0.959 . S
C863 C861 1.561 . S
C864 C861 1.526 . S
C864 C865 1.396 . S
C864 C869 1.390 . S
C865 C859 1.465 . S
C865 C864 1.396 . S
C865 C866 1.399 . S
C866 H852 0.929 . S
C866 C865 1.399 . S
C866 C867 1.385 . S
C867 H853 0.931 . S
C867 C866 1.385 . S
C867 C868 1.389 . S
C868 C867 1.389 . S
C868 C869 1.387 . S
C869 H854 0.930 . S
C869 C864 1.390 . S
C869 C868 1.387 . S
H870 C882 0.930 . S
H871 C884 0.930 . S
H872 C885 0.930 . S
H873 C889 0.959 . S
H874 C889 0.959 . S
H875 C889 0.961 . S
H876 C890 0.960 . S
H877 C890 0.961 . S
H878 C890 0.959 . S
H879 C893 0.929 . S
H880 C894 0.931 . S
H881 C896 0.930 . S
C882 H870 0.930 . S
C882 C883 1.399 . S
C882 C887 1.399 . S
C883 C882 1.399 . S
C883 C884 1.376 . S
C884 H871 0.930 . S
C884 C883 1.376 . S
C884 C885 1.388 . S
C885 H872 0.930 . S
C885 C884 1.388 . S
C885 C886 1.390 . S
C886 C885 1.390 . S
C886 C887 1.394 . S
C886 C892 1.465 . S
C887 C882 1.399 . S
C887 C886 1.394 . S
C887 C888 1.516 . S
C888 C887 1.516 . S
C888 C889 1.502 . S
C888 C890 1.561 . S
C888 C891 1.526 . S
C889 H873 0.959 . S
C889 H874 0.959 . S
C889 H875 0.961 . S
C889 C888 1.502 . S
C890 H876 0.960 . S
C890 H877 0.961 . S
C890 H878 0.959 . S
C890 C888 1.561 . S
C891 C888 1.526 . S
C891 C892 1.396 . S
C891 C896 1.390 . S
C892 C886 1.465 . S
C892 C891 1.396 . S
C892 C893 1.399 . S
C893 H879 0.929 . S
C893 C892 1.399 . S
C893 C894 1.385 . S
C894 H880 0.931 . S
C894 C893 1.385 . S
C894 C895 1.389 . S
C895 C894 1.389 . S
C895 C896 1.387 . S
C896 H881 0.930 . S
C896 C891 1.390 . S
C896 C895 1.387 . S
H897 C909 0.930 . S
H898 C911 0.930 . S
H899 C912 0.930 . S
H900 C916 0.959 . S
H901 C916 0.959 . S
H902 C916 0.961 . S
H903 C917 0.960 . S
H904 C917 0.961 . S
H905 C917 0.959 . S
H906 C920 0.929 . S
H907 C921 0.931 . S
H908 C923 0.930 . S
C909 H897 0.930 . S
C909 C910 1.399 . S
C909 C914 1.399 . S
C910 C909 1.399 . S
C910 C911 1.376 . S
C911 H898 0.930 . S
C911 C910 1.376 . S
C911 C912 1.388 . S
C912 H899 0.930 . S
C912 C911 1.388 . S
C912 C913 1.390 . S
C913 C912 1.390 . S
C913 C914 1.394 . S
C913 C919 1.465 . S
C914 C909 1.399 . S
C914 C913 1.394 . S
C914 C915 1.516 . S
C915 C914 1.516 . S
C915 C916 1.502 . S
C915 C917 1.561 . S
C915 C918 1.526 . S
C916 H900 0.959 . S
C916 H901 0.959 . S
C916 H902 0.961 . S
C916 C915 1.502 . S
C917 H903 0.960 . S
C917 H904 0.961 . S
C917 H905 0.959 . S
C917 C915 1.561 . S
C918 C915 1.526 . S
C918 C919 1.396 . S
C918 C923 1.390 . S
C919 C913 1.465 . S
C919 C918 1.396 . S
C919 C920 1.399 . S
C920 H906 0.929 . S
C920 C919 1.399 . S
C920 C921 1.385 . S
C921 H907 0.931 . S
C921 C920 1.385 . S
C921 C922 1.389 . S
C922 C921 1.389 . S
C922 C923 1.387 . S
C923 H908 0.930 . S
C923 C918 1.390 . S
C923 C922 1.387 . S
H924 C936 0.930 . S
H925 C938 0.930 . S
H926 C939 0.930 . S
H927 C943 0.959 . S
H928 C943 0.959 . S
H929 C943 0.961 . S
H930 C944 0.960 . S
H931 C944 0.961 . S
H932 C944 0.959 . S
H933 C947 0.929 . S
H934 C948 0.931 . S
H935 C950 0.930 . S
C936 H924 0.930 . S
C936 C937 1.399 . S
C936 C941 1.399 . S
C937 C936 1.399 . S
C937 C938 1.376 . S
C938 H925 0.930 . S
C938 C937 1.376 . S
C938 C939 1.388 . S
C939 H926 0.930 . S
C939 C938 1.388 . S
C939 C940 1.390 . S
C940 C939 1.390 . S
C940 C941 1.394 . S
C940 C946 1.465 . S
C941 C936 1.399 . S
C941 C940 1.394 . S
C941 C942 1.516 . S
C942 C941 1.516 . S
C942 C943 1.502 . S
C942 C944 1.561 . S
C942 C945 1.526 . S
C943 H927 0.959 . S
C943 H928 0.959 . S
C943 H929 0.961 . S
C943 C942 1.502 . S
C944 H930 0.960 . S
C944 H931 0.961 . S
C944 H932 0.959 . S
C944 C942 1.561 . S
C945 C942 1.526 . S
C945 C946 1.396 . S
C945 C950 1.390 . S
C946 C940 1.465 . S
C946 C945 1.396 . S
C946 C947 1.399 . S
C947 H933 0.929 . S
C947 C946 1.399 . S
C947 C948 1.385 . S
C948 H934 0.931 . S
C948 C947 1.385 . S
C948 C949 1.389 . S
C949 C948 1.389 . S
C949 C950 1.387 . S
C950 H935 0.930 . S
C950 C945 1.390 . S
C950 C949 1.387 . S
H951 C963 0.930 . S
H952 C965 0.930 . S
H953 C966 0.930 . S
H954 C970 0.959 . S
H955 C970 0.959 . S
H956 C970 0.961 . S
H957 C971 0.960 . S
H958 C971 0.961 . S
H959 C971 0.959 . S
H960 C974 0.929 . S
H961 C975 0.931 . S
H962 C977 0.930 . S
C963 H951 0.930 . S
C963 C964 1.399 . S
C963 C968 1.399 . S
C964 C963 1.399 . S
C964 C965 1.376 . S
C965 H952 0.930 . S
C965 C964 1.376 . S
C965 C966 1.388 . S
C966 H953 0.930 . S
C966 C965 1.388 . S
C966 C967 1.390 . S
C967 C966 1.390 . S
C967 C968 1.394 . S
C967 C973 1.465 . S
C968 C963 1.399 . S
C968 C967 1.394 . S
C968 C969 1.516 . S
C969 C968 1.516 . S
C969 C970 1.502 . S
C969 C971 1.561 . S
C969 C972 1.526 . S
C970 H954 0.959 . S
C970 H955 0.959 . S
C970 H956 0.961 . S
C970 C969 1.502 . S
C971 H957 0.960 . S
C971 H958 0.961 . S
C971 H959 0.959 . S
C971 C969 1.561 . S
C972 C969 1.526 . S
C972 C973 1.396 . S
C972 C977 1.390 . S
C973 C967 1.465 . S
C973 C972 1.396 . S
C973 C974 1.399 . S
C974 H960 0.929 . S
C974 C973 1.399 . S
C974 C975 1.385 . S
C975 H961 0.931 . S
C975 C974 1.385 . S
C975 C976 1.389 . S
C976 C975 1.389 . S
C976 C977 1.387 . S
C977 H962 0.930 . S
C977 C972 1.390 . S
C977 C976 1.387 . S
H978 C990 0.930 . S
H979 C992 0.930 . S
H980 C993 0.930 . S
H981 C997 0.959 . S
H982 C997 0.959 . S
H983 C997 0.961 . S
H984 C998 0.960 . S
H985 C998 0.961 . S
H986 C998 0.959 . S
H987 C1001 0.929 . S
H988 C1002 0.931 . S
H989 C1004 0.930 . S
C990 H978 0.930 . S
C990 C991 1.399 . S
C990 C995 1.399 . S
C991 C990 1.399 . S
C991 C992 1.376 . S
C992 H979 0.930 . S
C992 C991 1.376 . S
C992 C993 1.388 . S
C993 H980 0.930 . S
C993 C992 1.388 . S
C993 C994 1.390 . S
C994 C993 1.390 . S
C994 C995 1.394 . S
C994 C1000 1.465 . S
C995 C990 1.399 . S
C995 C994 1.394 . S
C995 C996 1.516 . S
C996 C995 1.516 . S
C996 C997 1.502 . S
C996 C998 1.561 . S
C996 C999 1.526 . S
C997 H981 0.959 . S
C997 H982 0.959 . S
C997 H983 0.961 . S
C997 C996 1.502 . S
C998 H984 0.960 . S
C998 H985 0.961 . S
C998 H986 0.959 . S
C998 C996 1.561 . S
C999 C996 1.526 . S
C999 C1000 1.396 . S
C999 C1004 1.390 . S
C1000 C994 1.465 . S
C1000 C999 1.396 . S
C1000 C1001 1.399 . S
C1001 H987 0.929 . S
C1001 C1000 1.399 . S
C1001 C1002 1.385 . S
C1002 H988 0.931 . S
C1002 C1001 1.385 . S
C1002 C1003 1.389 . S
C1003 C1002 1.389 . S
C1003 C1004 1.387 . S
C1004 H989 0.930 . S
C1004 C999 1.390 . S
C1004 C1003 1.387 . S
H1005 C1017 0.930 . S
H1006 C1019 0.930 . S
H1007 C1020 0.930 . S
H1008 C1024 0.959 . S
H1009 C1024 0.959 . S
H1010 C1024 0.961 . S
H1011 C1025 0.960 . S
H1012 C1025 0.961 . S
H1013 C1025 0.959 . S
H1014 C1028 0.929 . S
H1015 C1029 0.931 . S
H1016 C1031 0.930 . S
C1017 H1005 0.930 . S
C1017 C1018 1.399 . S
C1017 C1022 1.399 . S
C1018 C1017 1.399 . S
C1018 C1019 1.376 . S
C1019 H1006 0.930 . S
C1019 C1018 1.376 . S
C1019 C1020 1.388 . S
C1020 H1007 0.930 . S
C1020 C1019 1.388 . S
C1020 C1021 1.390 . S
C1021 C1020 1.390 . S
C1021 C1022 1.394 . S
C1021 C1027 1.465 . S
C1022 C1017 1.399 . S
C1022 C1021 1.394 . S
C1022 C1023 1.516 . S
C1023 C1022 1.516 . S
C1023 C1024 1.502 . S
C1023 C1025 1.561 . S
C1023 C1026 1.526 . S
C1024 H1008 0.959 . S
C1024 H1009 0.959 . S
C1024 H1010 0.961 . S
C1024 C1023 1.502 . S
C1025 H1011 0.960 . S
C1025 H1012 0.961 . S
C1025 H1013 0.959 . S
C1025 C1023 1.561 . S
C1026 C1023 1.526 . S
C1026 C1027 1.396 . S
C1026 C1031 1.390 . S
C1027 C1021 1.465 . S
C1027 C1026 1.396 . S
C1027 C1028 1.399 . S
C1028 H1014 0.929 . S
C1028 C1027 1.399 . S
C1028 C1029 1.385 . S
C1029 H1015 0.931 . S
C1029 C1028 1.385 . S
C1029 C1030 1.389 . S
C1030 C1029 1.389 . S
C1030 C1031 1.387 . S
C1031 H1016 0.930 . S
C1031 C1026 1.390 . S
C1031 C1030 1.387 . S
H1032 C1044 0.930 . S
H1033 C1046 0.930 . S
H1034 C1047 0.930 . S
H1035 C1051 0.959 . S
H1036 C1051 0.959 . S
H1037 C1051 0.961 . S
H1038 C1052 0.960 . S
H1039 C1052 0.961 . S
H1040 C1052 0.959 . S
H1041 C1055 0.929 . S
H1042 C1056 0.931 . S
H1043 C1058 0.930 . S
C1044 H1032 0.930 . S
C1044 C1045 1.399 . S
C1044 C1049 1.399 . S
C1045 C1044 1.399 . S
C1045 C1046 1.376 . S
C1046 H1033 0.930 . S
C1046 C1045 1.376 . S
C1046 C1047 1.388 . S
C1047 H1034 0.930 . S
C1047 C1046 1.388 . S
C1047 C1048 1.390 . S
C1048 C1047 1.390 . S
C1048 C1049 1.394 . S
C1048 C1054 1.465 . S
C1049 C1044 1.399 . S
C1049 C1048 1.394 . S
C1049 C1050 1.516 . S
C1050 C1049 1.516 . S
C1050 C1051 1.502 . S
C1050 C1052 1.561 . S
C1050 C1053 1.526 . S
C1051 H1035 0.959 . S
C1051 H1036 0.959 . S
C1051 H1037 0.961 . S
C1051 C1050 1.502 . S
C1052 H1038 0.960 . S
C1052 H1039 0.961 . S
C1052 H1040 0.959 . S
C1052 C1050 1.561 . S
C1053 C1050 1.526 . S
C1053 C1054 1.396 . S
C1053 C1058 1.390 . S
C1054 C1048 1.465 . S
C1054 C1053 1.396 . S
C1054 C1055 1.399 . S
C1055 H1041 0.929 . S
C1055 C1054 1.399 . S
C1055 C1056 1.385 . S
C1056 H1042 0.931 . S
C1056 C1055 1.385 . S
C1056 C1057 1.389 . S
C1057 C1056 1.389 . S
C1057 C1058 1.387 . S
C1058 H1043 0.930 . S
C1058 C1053 1.390 . S
C1058 C1057 1.387 . S
H1059 C1071 0.930 . S
H1060 C1073 0.930 . S
H1061 C1074 0.930 . S
H1062 C1078 0.959 . S
H1063 C1078 0.959 . S
H1064 C1078 0.961 . S
H1065 C1079 0.960 . S
H1066 C1079 0.961 . S
H1067 C1079 0.959 . S
H1068 C1082 0.929 . S
H1069 C1083 0.931 . S
H1070 C1085 0.930 . S
C1071 H1059 0.930 . S
C1071 C1072 1.399 . S
C1071 C1076 1.399 . S
C1072 C1071 1.399 . S
C1072 C1073 1.376 . S
C1073 H1060 0.930 . S
C1073 C1072 1.376 . S
C1073 C1074 1.388 . S
C1074 H1061 0.930 . S
C1074 C1073 1.388 . S
C1074 C1075 1.390 . S
C1075 C1074 1.390 . S
C1075 C1076 1.394 . S
C1075 C1081 1.465 . S
C1076 C1071 1.399 . S
C1076 C1075 1.394 . S
C1076 C1077 1.516 . S
C1077 C1076 1.516 . S
C1077 C1078 1.502 . S
C1077 C1079 1.561 . S
C1077 C1080 1.526 . S
C1078 H1062 0.959 . S
C1078 H1063 0.959 . S
C1078 H1064 0.961 . S
C1078 C1077 1.502 . S
C1079 H1065 0.960 . S
C1079 H1066 0.961 . S
C1079 H1067 0.959 . S
C1079 C1077 1.561 . S
C1080 C1077 1.526 . S
C1080 C1081 1.396 . S
C1080 C1085 1.390 . S
C1081 C1075 1.465 . S
C1081 C1080 1.396 . S
C1081 C1082 1.399 . S
C1082 H1068 0.929 . S
C1082 C1081 1.399 . S
C1082 C1083 1.385 . S
C1083 H1069 0.931 . S
C1083 C1082 1.385 . S
C1083 C1084 1.389 . S
C1084 C1083 1.389 . S
C1084 C1085 1.387 . S
C1085 H1070 0.930 . S
C1085 C1080 1.390 . S
C1085 C1084 1.387 . S
H1086 C1098 0.930 . S
H1087 C1100 0.930 . S
H1088 C1101 0.930 . S
H1089 C1105 0.959 . S
H1090 C1105 0.959 . S
H1091 C1105 0.961 . S
H1092 C1106 0.960 . S
H1093 C1106 0.961 . S
H1094 C1106 0.959 . S
H1095 C1109 0.929 . S
H1096 C1110 0.931 . S
H1097 C1112 0.930 . S
C1098 H1086 0.930 . S
C1098 C1099 1.399 . S
C1098 C1103 1.399 . S
C1099 C1098 1.399 . S
C1099 C1100 1.376 . S
C1100 H1087 0.930 . S
C1100 C1099 1.376 . S
C1100 C1101 1.388 . S
C1101 H1088 0.930 . S
C1101 C1100 1.388 . S
C1101 C1102 1.390 . S
C1102 C1101 1.390 . S
C1102 C1103 1.394 . S
C1102 C1108 1.465 . S
C1103 C1098 1.399 . S
C1103 C1102 1.394 . S
C1103 C1104 1.516 . S
C1104 C1103 1.516 . S
C1104 C1105 1.502 . S
C1104 C1106 1.561 . S
C1104 C1107 1.526 . S
C1105 H1089 0.959 . S
C1105 H1090 0.959 . S
C1105 H1091 0.961 . S
C1105 C1104 1.502 . S
C1106 H1092 0.960 . S
C1106 H1093 0.961 . S
C1106 H1094 0.959 . S
C1106 C1104 1.561 . S
C1107 C1104 1.526 . S
C1107 C1108 1.396 . S
C1107 C1112 1.390 . S
C1108 C1102 1.465 . S
C1108 C1107 1.396 . S
C1108 C1109 1.399 . S
C1109 H1095 0.929 . S
C1109 C1108 1.399 . S
C1109 C1110 1.385 . S
C1110 H1096 0.931 . S
C1110 C1109 1.385 . S
C1110 C1111 1.389 . S
C1111 C1110 1.389 . S
C1111 C1112 1.387 . S
C1112 H1097 0.930 . S
C1112 C1107 1.390 . S
C1112 C1111 1.387 . S
H1113 C1125 0.930 . S
H1114 C1127 0.930 . S
H1115 C1128 0.930 . S
H1116 C1132 0.959 . S
H1117 C1132 0.959 . S
H1118 C1132 0.961 . S
H1119 C1133 0.960 . S
H1120 C1133 0.961 . S
H1121 C1133 0.959 . S
H1122 C1136 0.929 . S
H1123 C1137 0.931 . S
H1124 C1139 0.930 . S
C1125 H1113 0.930 . S
C1125 C1126 1.399 . S
C1125 C1130 1.399 . S
C1126 C1125 1.399 . S
C1126 C1127 1.376 . S
C1127 H1114 0.930 . S
C1127 C1126 1.376 . S
C1127 C1128 1.388 . S
C1128 H1115 0.930 . S
C1128 C1127 1.388 . S
C1128 C1129 1.390 . S
C1129 C1128 1.390 . S
C1129 C1130 1.394 . S
C1129 C1135 1.465 . S
C1130 C1125 1.399 . S
C1130 C1129 1.394 . S
C1130 C1131 1.516 . S
C1131 C1130 1.516 . S
C1131 C1132 1.502 . S
C1131 C1133 1.561 . S
C1131 C1134 1.526 . S
C1132 H1116 0.959 . S
C1132 H1117 0.959 . S
C1132 H1118 0.961 . S
C1132 C1131 1.502 . S
C1133 H1119 0.960 . S
C1133 H1120 0.961 . S
C1133 H1121 0.959 . S
C1133 C1131 1.561 . S
C1134 C1131 1.526 . S
C1134 C1135 1.396 . S
C1134 C1139 1.390 . S
C1135 C1129 1.465 . S
C1135 C1134 1.396 . S
C1135 C1136 1.399 . S
C1136 H1122 0.929 . S
C1136 C1135 1.399 . S
C1136 C1137 1.385 . S
C1137 H1123 0.931 . S
C1137 C1136 1.385 . S
C1137 C1138 1.389 . S
C1138 C1137 1.389 . S
C1138 C1139 1.387 . S
C1139 H1124 0.930 . S
C1139 C1134 1.390 . S
C1139 C1138 1.387 . S
H1140 C1152 0.930 . S
H1141 C1154 0.930 . S
H1142 C1155 0.930 . S
H1143 C1159 0.959 . S
H1144 C1159 0.959 . S
H1145 C1159 0.961 . S
H1146 C1160 0.960 . S
H1147 C1160 0.961 . S
H1148 C1160 0.959 . S
H1149 C1163 0.929 . S
H1150 C1164 0.931 . S
H1151 C1166 0.930 . S
C1152 H1140 0.930 . S
C1152 C1153 1.399 . S
C1152 C1157 1.399 . S
C1153 C1152 1.399 . S
C1153 C1154 1.376 . S
C1154 H1141 0.930 . S
C1154 C1153 1.376 . S
C1154 C1155 1.388 . S
C1155 H1142 0.930 . S
C1155 C1154 1.388 . S
C1155 C1156 1.390 . S
C1156 C1155 1.390 . S
C1156 C1157 1.394 . S
C1156 C1162 1.465 . S
C1157 C1152 1.399 . S
C1157 C1156 1.394 . S
C1157 C1158 1.516 . S
C1158 C1157 1.516 . S
C1158 C1159 1.502 . S
C1158 C1160 1.561 . S
C1158 C1161 1.526 . S
C1159 H1143 0.959 . S
C1159 H1144 0.959 . S
C1159 H1145 0.961 . S
C1159 C1158 1.502 . S
C1160 H1146 0.960 . S
C1160 H1147 0.961 . S
C1160 H1148 0.959 . S
C1160 C1158 1.561 . S
C1161 C1158 1.526 . S
C1161 C1162 1.396 . S
C1161 C1166 1.390 . S
C1162 C1156 1.465 . S
C1162 C1161 1.396 . S
C1162 C1163 1.399 . S
C1163 H1149 0.929 . S
C1163 C1162 1.399 . S
C1163 C1164 1.385 . S
C1164 H1150 0.931 . S
C1164 C1163 1.385 . S
C1164 C1165 1.389 . S
C1165 C1164 1.389 . S
C1165 C1166 1.387 . S
C1166 H1151 0.930 . S
C1166 C1161 1.390 . S
C1166 C1165 1.387 . S
H1167 C1179 0.930 . S
H1168 C1181 0.930 . S
H1169 C1182 0.930 . S
H1170 C1186 0.959 . S
H1171 C1186 0.959 . S
H1172 C1186 0.961 . S
H1173 C1187 0.960 . S
H1174 C1187 0.961 . S
H1175 C1187 0.959 . S
H1176 C1190 0.929 . S
H1177 C1191 0.931 . S
H1178 C1193 0.930 . S
C1179 H1167 0.930 . S
C1179 C1180 1.399 . S
C1179 C1184 1.399 . S
C1180 C1179 1.399 . S
C1180 C1181 1.376 . S
C1181 H1168 0.930 . S
C1181 C1180 1.376 . S
C1181 C1182 1.388 . S
C1182 H1169 0.930 . S
C1182 C1181 1.388 . S
C1182 C1183 1.390 . S
C1183 C1182 1.390 . S
C1183 C1184 1.394 . S
C1183 C1189 1.465 . S
C1184 C1179 1.399 . S
C1184 C1183 1.394 . S
C1184 C1185 1.516 . S
C1185 C1184 1.516 . S
C1185 C1186 1.502 . S
C1185 C1187 1.561 . S
C1185 C1188 1.526 . S
C1186 H1170 0.959 . S
C1186 H1171 0.959 . S
C1186 H1172 0.961 . S
C1186 C1185 1.502 . S
C1187 H1173 0.960 . S
C1187 H1174 0.961 . S
C1187 H1175 0.959 . S
C1187 C1185 1.561 . S
C1188 C1185 1.526 . S
C1188 C1189 1.396 . S
C1188 C1193 1.390 . S
C1189 C1183 1.465 . S
C1189 C1188 1.396 . S
C1189 C1190 1.399 . S
C1190 H1176 0.929 . S
C1190 C1189 1.399 . S
C1190 C1191 1.385 . S
C1191 H1177 0.931 . S
C1191 C1190 1.385 . S
C1191 C1192 1.389 . S
C1192 C1191 1.389 . S
C1192 C1193 1.387 . S
C1193 H1178 0.930 . S
C1193 C1188 1.390 . S
C1193 C1192 1.387 . S
H1194 C1206 0.930 . S
H1195 C1208 0.930 . S
H1196 C1209 0.930 . S
H1197 C1213 0.934 1_554 S
H1198 C1213 0.990 . S
H1199 C1213 0.961 . S
H1200 C1214 0.960 . S
H1201 C1214 0.961 . S
H1202 C1214 0.959 . S
H1203 C1217 0.929 . S
H1204 C1218 0.931 . S
H1205 C1220 0.930 . S
C1206 H1194 0.930 . S
C1206 C1207 1.399 . S
C1206 C1211 1.399 . S
C1207 C1206 1.399 . S
C1207 C1208 1.376 . S
C1208 H1195 0.930 . S
C1208 C1207 1.376 . S
C1208 C1209 1.388 . S
C1209 H1196 0.930 . S
C1209 C1208 1.388 . S
C1209 C1210 1.390 . S
C1210 C1209 1.390 . S
C1210 C1211 1.394 . S
C1210 C1216 1.465 1_556 S
C1211 C1206 1.399 . S
C1211 C1210 1.394 . S
C1211 C1212 1.516 . S
C1212 C1211 1.516 . S
C1212 C1213 1.502 . S
C1212 C1214 1.561 . S
C1212 C1215 1.526 1_556 S
C1213 H1197 0.934 1_556 S
C1213 H1198 0.990 . S
C1213 H1199 0.961 . S
C1213 C1212 1.502 . S
C1214 H1200 0.960 . S
C1214 H1201 0.961 . S
C1214 H1202 0.959 . S
C1214 C1212 1.561 . S
C1215 C1212 1.526 1_554 S
C1215 C1216 1.396 . S
C1215 C1220 1.390 . S
C1216 C1210 1.465 1_554 S
C1216 C1215 1.396 . S
C1216 C1217 1.399 . S
C1217 H1203 0.929 . S
C1217 C1216 1.399 . S
C1217 C1218 1.385 . S
C1218 H1204 0.931 . S
C1218 C1217 1.385 . S
C1218 C1219 1.389 . S
C1219 C1218 1.389 . S
C1219 C1220 1.387 . S
C1220 H1205 0.930 . S
C1220 C1215 1.390 . S
C1220 C1219 1.387 . S
H1221 C1233 0.930 . S
H1222 C1235 0.930 . S
H1223 C1236 0.930 . S
H1224 C1240 0.959 1_455 S
H1225 C1240 0.959 . S
H1226 C1240 0.961 . S
H1227 C1241 0.960 . S
H1228 C1241 0.961 . S
H1229 C1241 0.959 . S
H1230 C1244 0.929 1_455 S
H1231 C1245 0.931 . S
H1232 C1247 0.930 . S
C1233 H1221 0.930 . S
C1233 C1234 1.399 . S
C1233 C1238 1.399 . S
C1234 C1233 1.399 . S
C1234 C1235 1.376 . S
C1235 H1222 0.930 . S
C1235 C1234 1.376 . S
C1235 C1236 1.388 . S
C1236 H1223 0.930 . S
C1236 C1235 1.388 . S
C1236 C1237 1.390 . S
C1237 C1236 1.390 . S
C1237 C1238 1.394 . S
C1237 C1243 1.465 1_455 S
C1238 C1233 1.399 . S
C1238 C1237 1.394 . S
C1238 C1239 1.516 1_455 S
C1239 C1238 1.516 1_655 S
C1239 C1240 1.502 . S
C1239 C1241 1.561 . S
C1239 C1242 1.526 . S
C1240 H1224 0.959 1_655 S
C1240 H1225 0.959 . S
C1240 H1226 0.961 . S
C1240 C1239 1.502 . S
C1241 H1227 0.960 . S
C1241 H1228 0.961 . S
C1241 H1229 0.959 . S
C1241 C1239 1.561 . S
C1242 C1239 1.526 . S
C1242 C1243 1.396 . S
C1242 C1247 1.390 . S
C1243 C1237 1.465 1_655 S
C1243 C1242 1.396 . S
C1243 C1244 1.399 . S
C1244 H1230 0.929 1_655 S
C1244 C1243 1.399 . S
C1244 C1245 1.385 . S
C1245 H1231 0.931 . S
C1245 C1244 1.385 . S
C1245 C1246 1.389 . S
C1246 C1245 1.389 . S
C1246 C1247 1.387 . S
C1247 H1232 0.930 . S
C1247 C1242 1.390 . S
C1247 C1246 1.387 . S
H1248 C1260 0.930 . S
H1249 C1262 0.930 . S
H1250 C1263 0.930 . S
H1251 C1267 0.948 1_556 S
H1252 C1267 0.959 . S
H1253 C1267 0.961 . S
H1254 C1268 0.960 . S
H1255 C1268 0.961 . S
H1256 C1268 0.959 . S
H1257 C1271 0.929 . S
H1258 C1272 0.931 . S
H1259 C1274 0.930 . S
C1260 H1248 0.930 . S
C1260 C1261 1.399 . S
C1260 C1265 1.399 . S
C1261 C1260 1.399 . S
C1261 C1262 1.376 . S
C1262 H1249 0.930 . S
C1262 C1261 1.376 . S
C1262 C1263 1.388 . S
C1263 H1250 0.930 . S
C1263 C1262 1.388 . S
C1263 C1264 1.390 . S
C1264 C1263 1.390 . S
C1264 C1265 1.394 . S
C1264 C1270 1.465 1_564 S
C1265 C1260 1.399 . S
C1265 C1264 1.394 . S
C1265 C1266 1.516 1_565 S
C1266 C1265 1.516 1_545 S
C1266 C1267 1.502 . S
C1266 C1268 1.561 . S
C1266 C1269 1.526 1_554 S
C1267 H1251 0.948 1_554 S
C1267 H1252 0.959 . S
C1267 H1253 0.961 . S
C1267 C1266 1.502 . S
C1268 H1254 0.960 . S
C1268 H1255 0.961 . S
C1268 H1256 0.959 . S
C1268 C1266 1.561 . S
C1269 C1266 1.526 1_556 S
C1269 C1270 1.396 . S
C1269 C1274 1.390 . S
C1270 C1264 1.465 1_546 S
C1270 C1269 1.396 . S
C1270 C1271 1.399 1_545 S
C1271 H1257 0.929 . S
C1271 C1270 1.399 1_565 S
C1271 C1272 1.385 1_565 S
C1272 H1258 0.931 . S
C1272 C1271 1.385 1_545 S
C1272 C1273 1.389 . S
C1273 C1272 1.389 . S
C1273 C1274 1.387 . S
C1274 H1259 0.930 . S
C1274 C1269 1.390 . S
C1274 C1273 1.387 . S
H1275 C1287 0.930 . S
H1276 C1289 0.930 . S
H1277 C1290 0.930 . S
H1278 C1294 0.959 . S
H1279 C1294 0.959 . S
H1280 C1294 0.961 . S
H1281 C1295 0.960 . S
H1282 C1295 0.961 . S
H1283 C1295 0.959 . S
H1284 C1298 0.929 . S
H1285 C1299 0.931 . S
H1286 C1301 0.930 . S
C1287 H1275 0.930 . S
C1287 C1288 1.399 . S
C1287 C1292 1.399 . S
C1288 C1287 1.399 . S
C1288 C1289 1.376 . S
C1289 H1276 0.930 . S
C1289 C1288 1.376 . S
C1289 C1290 1.388 . S
C1290 H1277 0.930 . S
C1290 C1289 1.388 . S
C1290 C1291 1.390 . S
C1291 C1290 1.390 . S
C1291 C1292 1.394 . S
C1291 C1297 1.465 . S
C1292 C1287 1.399 . S
C1292 C1291 1.394 . S
C1292 C1293 1.516 . S
C1293 C1292 1.516 . S
C1293 C1294 1.502 . S
C1293 C1295 1.561 . S
C1293 C1296 1.526 . S
C1294 H1278 0.959 . S
C1294 H1279 0.959 . S
C1294 H1280 0.961 . S
C1294 C1293 1.502 . S
C1295 H1281 0.960 . S
C1295 H1282 0.961 . S
C1295 H1283 0.959 . S
C1295 C1293 1.561 . S
C1296 C1293 1.526 . S
C1296 C1297 1.396 . S
C1296 C1301 1.390 . S
C1297 C1291 1.465 . S
C1297 C1296 1.396 . S
C1297 C1298 1.399 . S
C1298 H1284 0.929 . S
C1298 C1297 1.399 . S
C1298 C1299 1.385 . S
C1299 H1285 0.931 . S
C1299 C1298 1.385 . S
C1299 C1300 1.389 . S
C1300 C1299 1.389 . S
C1300 C1301 1.387 . S
C1301 H1286 0.930 . S
C1301 C1296 1.390 . S
C1301 C1300 1.387 . S
H1302 C1314 0.930 . S
H1303 C1316 0.930 . S
H1304 C1317 0.930 . S
H1305 C1321 0.959 . S
H1306 C1321 0.959 . S
H1307 C1321 0.961 . S
H1308 C1322 0.960 1_556 S
H1309 C1322 0.961 . S
H1310 C1322 0.954 1_456 S
H1311 C1325 0.929 . S
H1312 C1326 0.931 . S
H1313 C1328 0.930 . S
C1314 H1302 0.930 . S
C1314 C1315 1.399 . S
C1314 C1319 1.399 . S
C1315 C1314 1.399 . S
C1315 C1316 1.376 . S
C1316 H1303 0.930 . S
C1316 C1315 1.376 . S
C1316 C1317 1.388 1_655 S
C1317 H1304 0.930 . S
C1317 C1316 1.388 1_455 S
C1317 C1318 1.390 . S
C1318 C1317 1.390 . S
C1318 C1319 1.394 1_455 S
C1318 C1324 1.465 1_556 S
C1319 C1314 1.399 . S
C1319 C1318 1.394 1_655 S
C1319 C1320 1.516 1_556 S
C1320 C1319 1.516 1_554 S
C1320 C1321 1.502 . S
C1320 C1322 1.561 . S
C1320 C1323 1.526 1_655 S
C1321 H1305 0.959 . S
C1321 H1306 0.959 . S
C1321 H1307 0.961 . S
C1321 C1320 1.502 . S
C1322 H1308 0.960 1_554 S
C1322 H1309 0.961 . S
C1322 H1310 0.954 1_654 S
C1322 C1320 1.561 . S
C1323 C1320 1.526 1_455 S
C1323 C1324 1.396 . S
C1323 C1328 1.390 . S
C1324 C1318 1.465 1_554 S
C1324 C1323 1.396 . S
C1324 C1325 1.399 . S
C1325 H1311 0.929 . S
C1325 C1324 1.399 . S
C1325 C1326 1.385 . S
C1326 H1312 0.931 . S
C1326 C1325 1.385 . S
C1326 C1327 1.389 . S
C1327 C1326 1.389 . S
C1327 C1328 1.387 . S
C1328 H1313 0.930 . S
C1328 C1323 1.390 . S
C1328 C1327 1.387 . S
H1329 C1341 0.930 . S
H1330 C1343 0.930 . S
H1331 C1344 0.930 . S
H1332 C1348 0.959 . S
H1333 C1348 0.959 . S
H1334 C1348 0.961 . S
H1335 C1349 0.960 . S
H1336 C1349 0.961 . S
H1337 C1349 0.959 . S
H1338 C1352 0.929 . S
H1339 C1353 0.931 . S
H1340 C1355 0.930 . S
C1341 H1329 0.930 . S
C1341 C1342 1.399 . S
C1341 C1346 1.399 . S
C1342 C1341 1.399 . S
C1342 C1343 1.376 . S
C1343 H1330 0.930 . S
C1343 C1342 1.376 . S
C1343 C1344 1.388 1_565 S
C1344 H1331 0.930 . S
C1344 C1343 1.388 1_545 S
C1344 C1345 1.390 1_545 S
C1345 C1344 1.390 1_565 S
C1345 C1346 1.394 . S
C1345 C1351 1.465 1_565 S
C1346 C1341 1.399 . S
C1346 C1345 1.394 . S
C1346 C1347 1.516 . S
C1347 C1346 1.516 . S
C1347 C1348 1.502 . S
C1347 C1349 1.561 . S
C1347 C1350 1.526 1_565 S
C1348 H1332 0.959 . S
C1348 H1333 0.959 . S
C1348 H1334 0.961 . S
C1348 C1347 1.502 . S
C1349 H1335 0.960 . S
C1349 H1336 0.961 . S
C1349 H1337 0.959 . S
C1349 C1347 1.561 . S
C1350 C1347 1.526 1_545 S
C1350 C1351 1.396 . S
C1350 C1355 1.390 . S
C1351 C1345 1.465 1_545 S
C1351 C1350 1.396 . S
C1351 C1352 1.399 . S
C1352 H1338 0.929 . S
C1352 C1351 1.399 . S
C1352 C1353 1.385 . S
C1353 H1339 0.931 . S
C1353 C1352 1.385 . S
C1353 C1354 1.389 . S
C1354 C1353 1.389 . S
C1354 C1355 1.387 . S
C1355 H1340 0.930 . S
C1355 C1350 1.390 . S
C1355 C1354 1.387 . S
C397 C132 1.055 . S
C409 C6 1.045 . S
C424 C189 1.052 . S
C436 C34 1.052 . S
C451 C70 1.071 . S
C463 C29 1.038 . S
C478 C98 1.025 . S
C490 C36 1.064 . S
C505 C130 1.069 . S
C517 C93 1.038 . S
C532 C100 1.059 . S
C544 C166 1.037 . S
C559 C285 1.062 . S
C571 C194 1.023 . S
C586 C230 1.021 . S
C598 C292 1.063 . S
C613 C349 1.056 . S
C625 C262 1.044 . S
C640 C290 1.070 . S
C652 C381 1.038 . S
C667 C326 1.066 . S
C679 C196 1.039 . S
C694 C253 1.048 . S
C706 C358 1.045 . S
C721 C134 1.160 . S
C733 C4 1.174 . S
C748 C61 1.178 . S
C760 C162 1.142 . S
C775 C68 1.177 . S
C787 C2 1.139 . S
C802 C125 1.153 . S
C814 C38 1.179 . S
C829 C66 1.168 . S
C841 C157 1.171 . S
C856 C102 1.149 . S
C868 C164 1.159 . S
C883 C258 1.157 . S
C895 C221 1.156 . S
C910 C228 1.177 . S
C922 C294 1.140 . S
C937 C260 1.177 . S
C949 C322 1.139 . S
C964 C354 1.149 . S
C976 C317 1.177 . S
C991 C324 1.154 . S
C1003 C198 1.180 . S
C1018 C226 1.161 . S
C1030 C356 1.174 . S
C1045 N338 1.516 . S
C1057 N18 1.515 . S
C1072 N45 1.535 . S
C1084 N370 1.539 . S
C1099 N82 1.576 . S
C1111 N205 1.574 . S
C1126 N109 1.520 . S
C1138 N242 1.518 . S
C1153 N141 1.536 . S
C1165 N274 1.539 . S
C1180 N301 1.531 . S
C1192 N178 1.534 . S
C1207 N306 1.684 . S
C1219 N13 1.679 . S
C1234 N333 1.684 . S
C1246 N50 1.682 . S
C1261 N77 1.684 . S
C1273 N365 1.679 . S
C1288 N114 1.671 . S
C1300 N210 1.680 . S
C1315 N237 1.664 . S
C1327 N146 1.675 . S
C1342 N269 1.635 . S
C1354 N173 1.642 . S
