# Generated by pormake.
# Topology sow, (4)-cn, num edge types: 1
# Building blocks:
#     Node 0, Type 0, BuildingBlock: KOZSID_clean_sbu_0, # of connection points: 4
#     Node 1, Type 0, BuildingBlock: KOZSID_clean_sbu_0, # of connection points: 4
#     Node 2, Type 0, BuildingBlock: KOZSID_clean_sbu_0, # of connection points: 4
#     Node 3, Type 0, BuildingBlock: KOZSID_clean_sbu_0, # of connection points: 4
#     Node 4, Type 0, BuildingBlock: KOZSID_clean_sbu_0, # of connection points: 4
#     Node 5, Type 0, BuildingBlock: KOZSID_clean_sbu_0, # of connection points: 4
#     Node 6, Type 0, BuildingBlock: KOZSID_clean_sbu_0, # of connection points: 4
#     Node 7, Type 0, BuildingBlock: KOZSID_clean_sbu_0, # of connection points: 4
#     Edge 8, Type (0, 0), BuildingBlock: AJUNOK_clean_linker_0, # of connection points: 2
#     Edge 9, Type (0, 0), BuildingBlock: AJUNOK_clean_linker_0, # of connection points: 2
#     Edge 10, Type (0, 0), BuildingBlock: AJUNOK_clean_linker_0, # of connection points: 2
#     Edge 11, Type (0, 0), BuildingBlock: AJUNOK_clean_linker_0, # of connection points: 2
#     Edge 12, Type (0, 0), BuildingBlock: AJUNOK_clean_linker_0, # of connection points: 2
#     Edge 13, Type (0, 0), BuildingBlock: AJUNOK_clean_linker_0, # of connection points: 2
#     Edge 14, Type (0, 0), BuildingBlock: AJUNOK_clean_linker_0, # of connection points: 2
#     Edge 15, Type (0, 0), BuildingBlock: AJUNOK_clean_linker_0, # of connection points: 2
#     Edge 16, Type (0, 0), BuildingBlock: AJUNOK_clean_linker_0, # of connection points: 2
#     Edge 17, Type (0, 0), BuildingBlock: AJUNOK_clean_linker_0, # of connection points: 2
#     Edge 18, Type (0, 0), BuildingBlock: AJUNOK_clean_linker_0, # of connection points: 2
#     Edge 19, Type (0, 0), BuildingBlock: AJUNOK_clean_linker_0, # of connection points: 2
#     Edge 20, Type (0, 0), BuildingBlock: AJUNOK_clean_linker_0, # of connection points: 2
#     Edge 21, Type (0, 0), BuildingBlock: AJUNOK_clean_linker_0, # of connection points: 2
#     Edge 22, Type (0, 0), BuildingBlock: AJUNOK_clean_linker_0, # of connection points: 2
#     Edge 23, Type (0, 0), BuildingBlock: AJUNOK_clean_linker_0, # of connection points: 2
# Relax obj value: 0.060
# Max RMSD: 0.293
# Mean RMSD: 0.223
data_MOF--net-sow--node1-KOZSID_clean_sbu_0--edge1-AJUNOK_clean_linker_0
_symmetry_space_group_name_H-M    P1
_symmetry_Int_Tables_number       1
_symmetry_cell_setting            triclinic
loop_
_symmetry_equiv_pos_as_xyz
'x, y, z'
_cell_length_a     43.372323
_cell_length_b     12.626093
_cell_length_c     19.443402
_cell_angle_alpha  92.058579
_cell_angle_beta   90.594688
_cell_angle_gamma 89.429172
loop_
_atom_site_label
_atom_site_type_symbol
_atom_site_fract_x
_atom_site_fract_y
_atom_site_fract_z
_atom_type_partial_charge
C0 C 0.1213 0.22176 0.27221 0.0
C1 C 0.12709 0.13813 0.31506 0.0
C2 C 0.15679 0.10444 0.3023 0.0
C3 C 0.16807 0.17379 0.25605 0.0
N4 N 0.14762 0.24939 0.24003 0.0
Co5 Co 0.15598 0.37236 0.18205 0.0
N6 N 0.19233 0.30119 0.13721 0.0
C7 C 0.20635 0.21333 0.16064 0.0
C8 C 0.23334 0.18828 0.12768 0.0
C9 C 0.23713 0.26639 0.08176 0.0
C10 C 0.212 0.33459 0.0881 0.0
N11 N 0.16455 0.49818 0.1256 0.0
C12 C 0.18674 0.51555 0.07764 0.0
C13 C 0.1863 0.62046 0.05894 0.0
C14 C 0.16431 0.67157 0.09849 0.0
C15 C 0.15226 0.5953 0.13881 0.0
N16 N 0.11935 0.43876 0.2268 0.0
C17 C 0.1139 0.54323 0.23259 0.0
C18 C 0.08822 0.56697 0.27115 0.0
C19 C 0.07663 0.47068 0.28928 0.0
C20 C 0.09494 0.39241 0.25772 0.0
N21 N 0.18421 0.43613 0.25509 0.0
C22 C 0.22707 0.51376 0.35848 0.0
C23 C 0.23451 0.5071 0.28836 0.0
C24 C 0.21309 0.47033 0.2386 0.0
C25 C 0.19623 0.48899 0.37404 0.0
C26 C 0.17544 0.44995 0.32239 0.0
N27 N 0.1272 0.31162 0.11109 0.0
C28 C 0.07722 0.33499 0.05669 0.0
C29 C 0.07193 0.22535 0.05454 0.0
C30 C 0.09659 0.15942 0.07408 0.0
C31 C 0.12408 0.204 0.10158 0.0
C32 C 0.10486 0.37615 0.08439 0.0
H33 H 0.14171 0.15114 0.12035 0.0
H34 H 0.10681 0.46102 0.08982 0.0
H35 H 0.22101 0.46697 0.18699 0.0
H36 H 0.15269 0.42681 0.33774 0.0
C37 C 0.19482 0.16077 0.21715 0.0
C38 C 0.09102 0.2749 0.26255 0.0
C39 C 0.21144 0.43963 0.05634 0.0
C40 C 0.13002 0.61183 0.19068 0.0
H41 H 0.11115 0.10259 0.34975 0.0
H42 H 0.16834 0.03572 0.32259 0.0
H43 H 0.24941 0.12501 0.13908 0.0
H44 H 0.25742 0.27735 0.05123 0.0
H45 H 0.20156 0.65748 0.02348 0.0
H46 H 0.15859 0.75525 0.09946 0.0
H47 H 0.07854 0.64467 0.28324 0.0
H48 H 0.05746 0.46064 0.32342 0.0
H49 H 0.25742 0.52345 0.27091 0.0
H50 H 0.18837 0.49489 0.42636 0.0
H51 H 0.05946 0.38946 0.03993 0.0
H52 H 0.09399 0.07415 0.07222 0.0
C53 C 0.45293 0.45678 0.74936 0.0
C54 C 0.47242 0.54089 0.76546 0.0
C55 C 0.45486 0.63178 0.7666 0.0
C56 C 0.42576 0.60135 0.74688 0.0
N57 N 0.42375 0.49605 0.7344 0.0
Co58 Co 0.3907 0.42845 0.67533 0.0
N59 N 0.37083 0.56543 0.64814 0.0
C60 C 0.37758 0.66036 0.67719 0.0
C61 C 0.35938 0.74082 0.65273 0.0
C62 C 0.33965 0.6932 0.60544 0.0
C63 C 0.34707 0.58612 0.60305 0.0
N64 N 0.36005 0.3564 0.61335 0.0
C65 C 0.34075 0.39405 0.56394 0.0
C66 C 0.32686 0.31115 0.52668 0.0
C67 C 0.33634 0.22025 0.55648 0.0
C68 C 0.35572 0.25124 0.60873 0.0
N69 N 0.40885 0.29116 0.7057 0.0
C70 C 0.39449 0.19741 0.70055 0.0
C71 C 0.41021 0.11722 0.73154 0.0
C72 C 0.43654 0.16281 0.75708 0.0
C73 C 0.43568 0.2682 0.73952 0.0
N74 N 0.36061 0.4294 0.75425 0.0
C75 C 0.31666 0.46344 0.86326 0.0
C76 C 0.30961 0.48331 0.79473 0.0
C77 C 0.33065 0.46006 0.74182 0.0
C78 C 0.34698 0.42686 0.87616 0.0
C79 C 0.3688 0.41318 0.82165 0.0
N80 N 0.42025 0.43682 0.59674 0.0
C81 C 0.47534 0.43962 0.57934 0.0
C82 C 0.47288 0.54243 0.55448 0.0
C83 C 0.44352 0.57844 0.5361 0.0
C84 C 0.41763 0.52112 0.55438 0.0
C85 C 0.44833 0.38604 0.59732 0.0
H86 H 0.39568 0.55093 0.538 0.0
H87 H 0.45065 0.30741 0.61608 0.0
H88 H 0.32224 0.46975 0.69057 0.0
H89 H 0.39211 0.38873 0.83404 0.0
C90 C 0.40319 0.67061 0.72133 0.0
C91 C 0.46225 0.34018 0.7477 0.0
C92 C 0.33141 0.50591 0.5572 0.0
C93 C 0.37064 0.18323 0.65324 0.0
H94 H 0.49716 0.54073 0.76925 0.0
H95 H 0.46329 0.712 0.77271 0.0
H96 H 0.36072 0.82451 0.66643 0.0
H97 H 0.32208 0.73279 0.57562 0.0
H98 H 0.31059 0.31554 0.48432 0.0
H99 H 0.32947 0.14057 0.54378 0.0
H100 H 0.4045 0.0339 0.73076 0.0
H101 H 0.4552 0.12122 0.7812 0.0
H102 H 0.28744 0.51675 0.78175 0.0
H103 H 0.3535 0.40677 0.92755 0.0
H104 H 0.49771 0.40379 0.58878 0.0
H105 H 0.44049 0.6525 0.51025 0.0
C106 C 0.61712 0.19153 0.7408 0.0
C107 C 0.61588 0.27929 0.70008 0.0
C108 C 0.64526 0.31787 0.69833 0.0
C109 C 0.66279 0.25117 0.73752 0.0
N110 N 0.64661 0.17108 0.76223 0.0
Co111 Co 0.66279 0.06264 0.82631 0.0
N112 N 0.69821 0.15293 0.85688 0.0
C113 C 0.70763 0.23864 0.82353 0.0
C114 C 0.73211 0.28857 0.85443 0.0
C115 C 0.73895 0.23086 0.91051 0.0
C116 C 0.71844 0.14652 0.91094 0.0
N117 N 0.67879 0.95569 0.89028 0.0
C118 C 0.70131 0.96157 0.94053 0.0
C119 C 0.70438 0.86375 0.97025 0.0
C120 C 0.68449 0.79508 0.93604 0.0
C121 C 0.66979 0.85385 0.88728 0.0
N122 N 0.62604 0.98007 0.79526 0.0
C123 C 0.62281 0.8758 0.80334 0.0
C124 C 0.59333 0.84315 0.78662 0.0
C125 C 0.57716 0.93295 0.76804 0.0
C126 C 0.59748 0.01675 0.77422 0.0
N127 N 0.68987 0.989 0.75242 0.0
C128 C 0.7313 0.88486 0.65184 0.0
C129 C 0.73897 0.90007 0.72235 0.0
C130 C 0.71926 0.95603 0.76944 0.0
C131 C 0.70016 0.90986 0.63707 0.0
C132 C 0.67961 0.95615 0.68807 0.0
N133 N 0.63622 0.12354 0.90109 0.0
C134 C 0.59218 0.08403 0.97064 0.0
C135 C 0.58214 0.18933 0.97047 0.0
C136 C 0.60364 0.26422 0.94898 0.0
C137 C 0.63001 0.2295 0.91132 0.0
C138 C 0.61937 0.05355 0.93745 0.0
H139 H 0.64394 0.28731 0.88663 0.0
H140 H 0.6244 0.97036 0.93501 0.0
H141 H 0.72848 0.97258 0.82013 0.0
H142 H 0.65583 0.97081 0.67391 0.0
C143 C 0.69098 0.27756 0.76789 0.0
C144 C 0.58977 0.1305 0.75888 0.0
C145 C 0.72167 0.0553 0.95708 0.0
C146 C 0.64442 0.82177 0.84493 0.0
H147 H 0.59561 0.31432 0.6768 0.0
H148 H 0.65234 0.39128 0.6764 0.0
H149 H 0.74339 0.35978 0.83876 0.0
H150 H 0.75781 0.24947 0.94496 0.0
H151 H 0.71937 0.84316 0.01207 0.0
H152 H 0.68065 0.71284 0.94697 0.0
H153 H 0.58383 0.76517 0.79284 0.0
H154 H 0.55301 0.93655 0.75402 0.0
H155 H 0.76062 0.87275 0.74231 0.0
H156 H 0.69195 0.89584 0.58542 0.0
H157 H 0.57765 0.02339 0.99088 0.0
H158 H 0.59856 0.34803 0.95419 0.0
C159 C 0.9521 0.97526 0.27329 0.0
C160 C 0.95925 0.9333 0.2084 0.0
C161 C 0.93648 0.86177 0.19028 0.0
C162 C 0.91637 0.86385 0.24456 0.0
N163 N 0.92507 0.93229 0.29547 0.0
Co164 Co 0.90044 0.96244 0.38034 0.0
N165 N 0.87328 0.83474 0.36793 0.0
C166 C 0.87005 0.78068 0.30736 0.0
C167 C 0.84653 0.70834 0.3079 0.0
C168 C 0.83379 0.71854 0.37246 0.0
C169 C 0.85018 0.79656 0.40837 0.0
N170 N 0.87764 0.9903 0.46868 0.0
C171 C 0.8616 0.92177 0.50729 0.0
C172 C 0.86101 0.95467 0.57584 0.0
C173 C 0.87598 0.04876 0.58073 0.0
C174 C 0.88404 0.06934 0.51468 0.0
N175 N 0.92622 0.09339 0.39395 0.0
C176 C 0.92153 0.17058 0.44286 0.0
C177 C 0.94508 0.24139 0.4493 0.0
C178 C 0.96639 0.20672 0.40297 0.0
C179 C 0.9541 0.11883 0.36751 0.0
N180 N 0.86966 0.0403 0.32227 0.0
C181 C 0.83133 0.05297 0.20189 0.0
C182 C 0.81963 0.02104 0.26514 0.0
C183 C 0.83889 0.01675 0.3245 0.0
C184 C 0.86173 0.09076 0.20338 0.0
C185 C 0.87994 0.08712 0.26415 0.0
N186 N 0.9315 0.87831 0.43021 0.0
C187 C 0.9767 0.86537 0.50351 0.0
C188 C 0.98412 0.7663 0.47295 0.0
C189 C 0.9639 0.72172 0.42438 0.0
C190 C 0.93787 0.7783 0.40409 0.0
C191 C 0.95013 0.92013 0.48153 0.0
H192 H 0.92409 0.74245 0.36377 0.0
H193 H 0.94562 0.99759 0.50414 0.0
H194 H 0.82949 0.98643 0.37071 0.0
H195 H 0.90351 0.11305 0.26157 0.0
C196 C 0.89035 0.79896 0.25262 0.0
C197 C 0.96972 0.06307 0.30913 0.0
C198 C 0.84249 0.83472 0.48 0.0
C199 C 0.90209 0.15332 0.49708 0.0
H200 H 0.97849 0.95406 0.17672 0.0
H201 H 0.93493 0.81371 0.14316 0.0
H202 H 0.83931 0.65491 0.26616 0.0
H203 H 0.81434 0.67493 0.39083 0.0
H204 H 0.85074 0.91461 0.61768 0.0
H205 H 0.88059 0.09658 0.6269 0.0
H206 H 0.94829 0.3024 0.48926 0.0
H207 H 0.98916 0.2398 0.39968 0.0
H208 H 0.79586 0.99633 0.26837 0.0
H209 H 0.87211 0.12007 0.15762 0.0
H210 H 0.99171 0.90136 0.54241 0.0
H211 H 0.96873 0.64459 0.40038 0.0
C212 C 0.93632 0.21545 0.92852 0.0
C213 C 0.9508 0.31296 0.93871 0.0
C214 C 0.93291 0.38637 0.90769 0.0
C215 C 0.9093 0.33011 0.87787 0.0
N216 N 0.91064 0.22525 0.88852 0.0
Co217 Co 0.88309 0.11503 0.84452 0.0
N218 N 0.86478 0.21945 0.778 0.0
C219 C 0.87004 0.32466 0.78013 0.0
C220 C 0.85319 0.38085 0.73387 0.0
C221 C 0.83519 0.30796 0.70047 0.0
C222 C 0.84226 0.21071 0.72819 0.0
N223 N 0.8542 0.00959 0.80099 0.0
C224 C 0.83353 0.01791 0.74733 0.0
C225 C 0.81899 0.92354 0.73544 0.0
C226 C 0.82901 0.85457 0.784 0.0
C227 C 0.84999 0.91104 0.82337 0.0
N228 N 0.90173 0.01391 0.90983 0.0
C229 C 0.89164 0.91544 0.91967 0.0
C230 C 0.91025 0.86048 0.96397 0.0
C231 C 0.93379 0.92831 0.98246 0.0
C232 C 0.92832 0.02107 0.9482 0.0
N233 N 0.84979 0.14983 0.91388 0.0
C234 C 0.80121 0.0992 0.02213 0.0
C235 C 0.83171 0.15422 0.03263 0.0
C236 C 0.85533 0.16563 0.98248 0.0
C237 C 0.79872 0.09545 0.94492 0.0
C238 C 0.81994 0.13157 0.89701 0.0
N239 N 0.91725 0.06454 0.77895 0.0
C240 C 0.94054 0.89827 0.73474 0.0
C241 C 0.97051 0.93201 0.75054 0.0
C242 C 0.97337 0.03981 0.77098 0.0
C243 C 0.9467 0.1046 0.78356 0.0
C244 C 0.91481 0.96565 0.74675 0.0
H245 H 0.95042 0.18576 0.80004 0.0
H246 H 0.89298 0.93246 0.73229 0.0
H247 H 0.87817 0.18797 1.00002 0.0
H248 H 0.81252 0.13251 0.84438 0.0
C249 C 0.89006 0.36977 0.82799 0.0
C250 C 0.94855 0.11492 0.95404 0.0
C251 C 0.82451 0.11539 0.71031 0.0
C252 C 0.86769 0.87328 0.87838 0.0
H253 H 0.97282 0.33039 0.96264 0.0
H254 H 0.93799 0.46939 0.90233 0.0
H255 H 0.85315 0.46561 0.72712 0.0
H256 H 0.81774 0.32608 0.66248 0.0
H257 H 0.80301 0.90934 0.69455 0.0
H258 H 0.8221 0.77317 0.78928 0.0
H259 H 0.90786 0.77907 0.97856 0.0
H260 H 0.95306 0.91107 0.01621 0.0
H261 H 0.83958 0.18678 0.08158 0.0
H262 H 0.78004 0.06064 0.91515 0.0
H263 H 0.93678 0.8184 0.71434 0.0
H264 H 0.99601 0.07293 0.78045 0.0
C265 C 0.60855 0.79358 0.53816 0.0
C266 C 0.61631 0.72506 0.58975 0.0
C267 C 0.64703 0.70129 0.58173 0.0
C268 C 0.65606 0.75677 0.52589 0.0
N269 N 0.63333 0.81647 0.49976 0.0
Co270 Co 0.63479 0.90028 0.4153 0.0
N271 N 0.67349 0.82791 0.38326 0.0
C272 C 0.69148 0.76505 0.42202 0.0
C273 C 0.71754 0.72951 0.38937 0.0
C274 C 0.71662 0.77488 0.32673 0.0
C275 C 0.68961 0.83537 0.32383 0.0
N276 N 0.63548 0.98312 0.33021 0.0
C277 C 0.65361 0.97331 0.27351 0.0
C278 C 0.6456 0.04896 0.22622 0.0
C279 C 0.62323 0.11173 0.25601 0.0
C280 C 0.61813 0.07001 0.31894 0.0
N281 N 0.59637 0.97129 0.44862 0.0
C282 C 0.58446 0.0628 0.42643 0.0
C283 C 0.55554 0.08363 0.45204 0.0
C284 C 0.54871 0.99922 0.49162 0.0
C285 C 0.57413 0.93171 0.48898 0.0
N286 N 0.66044 0.01256 0.46441 0.0
C287 C 0.70695 0.12969 0.53972 0.0
C288 C 0.67824 0.10555 0.56914 0.0
C289 C 0.65583 0.04399 0.53173 0.0
C290 C 0.706 0.1239 0.4673 0.0
C291 C 0.68362 0.06231 0.43128 0.0
N292 N 0.60914 0.78962 0.3671 0.0
C293 C 0.5599 0.74162 0.31524 0.0
C294 C 0.56561 0.63318 0.32381 0.0
C295 C 0.59484 0.60475 0.34967 0.0
C296 C 0.61599 0.68374 0.37167 0.0
C297 C 0.58199 0.81762 0.33561 0.0
H298 H 0.63721 0.65866 0.39561 0.0
H299 H 0.57625 0.89979 0.32895 0.0
H300 H 0.63576 0.01714 0.55834 0.0
H301 H 0.68638 0.05173 0.37676 0.0
C302 C 0.68271 0.73723 0.48789 0.0
C303 C 0.57711 0.8299 0.52365 0.0
C304 C 0.68212 0.90856 0.26796 0.0
C305 C 0.59596 0.10568 0.36657 0.0
H306 H 0.601 0.69202 0.62683 0.0
H307 H 0.66042 0.64385 0.60965 0.0
H308 H 0.73571 0.67981 0.40967 0.0
H309 H 0.73532 0.76988 0.29064 0.0
H310 H 0.65612 0.06149 0.17697 0.0
H311 H 0.6124 0.18037 0.23448 0.0
H312 H 0.53989 0.14668 0.43781 0.0
H313 H 0.52688 0.98762 0.51607 0.0
H314 H 0.67368 0.12752 0.6219 0.0
H315 H 0.72297 0.1612 0.43676 0.0
H316 H 0.53808 0.7681 0.29398 0.0
H317 H 0.60056 0.52239 0.35758 0.0
C318 C 0.43724 0.11869 0.04893 0.0
C319 C 0.45324 0.02303 0.04084 0.0
C320 C 0.4334 0.94459 0.05687 0.0
C321 C 0.40684 0.99597 0.07681 0.0
N322 N 0.40866 0.1021 0.07431 0.0
Co323 Co 0.37801 0.20527 0.11375 0.0
N324 N 0.35961 0.09659 0.17357 0.0
C325 C 0.36199 0.99125 0.16028 0.0
C326 C 0.34168 0.9325 0.19587 0.0
C327 C 0.32498 0.00481 0.23393 0.0
C328 C 0.33685 0.10444 0.2217 0.0
N329 N 0.34653 0.30653 0.15218 0.0
C330 C 0.32913 0.30166 0.21018 0.0
C331 C 0.31603 0.39991 0.22599 0.0
C332 C 0.32322 0.46482 0.1738 0.0
C333 C 0.34092 0.40435 0.1289 0.0
N334 N 0.39765 0.31172 0.05564 0.0
C335 C 0.38598 0.40792 0.04274 0.0
C336 C 0.40602 0.46835 0.00661 0.0
C337 C 0.43206 0.4066 0.99711 0.0
C338 C 0.42667 0.31192 0.02861 0.0
N339 N 0.3473 0.1665 0.03793 0.0
C340 C 0.29924 0.14505 0.93414 0.0
C341 C 0.3299 0.17255 0.91797 0.0
C342 C 0.35339 0.1807 0.96966 0.0
C343 C 0.29475 0.11958 1.00315 0.0
C344 C 0.31802 0.13527 0.05354 0.0
N345 N 0.4085 0.25209 0.18715 0.0
C346 C 0.43405 0.40682 0.23816 0.0
C347 C 0.46102 0.34989 0.25227 0.0
C348 C 0.45999 0.23917 0.23827 0.0
C349 C 0.43348 0.1919 0.20654 0.0
C350 C 0.40857 0.35749 0.20719 0.0
H351 H 0.43399 0.10772 0.19467 0.0
H352 H 0.39007 0.40968 0.19512 0.0
H353 H 0.37623 0.20272 0.95425 0.0
H354 H 0.3113 0.12509 0.10564 0.0
C355 C 0.38381 0.94997 0.11452 0.0
C356 C 0.44941 0.22329 0.03132 0.0
C357 C 0.32254 0.20433 0.24839 0.0
C358 C 0.35943 0.44491 0.07715 0.0
H359 H 0.47711 0.00995 0.02744 0.0
H360 H 0.43874 0.86093 0.05986 0.0
H361 H 0.33853 0.84751 0.19245 0.0
H362 H 0.30496 0.98571 0.26352 0.0
H363 H 0.30338 0.42347 0.27169 0.0
H364 H 0.3187 0.54889 0.17325 0.0
H365 H 0.40281 0.54979 0.99225 0.0
H366 H 0.4529 0.4295 0.9716 0.0
H367 H 0.33583 0.19081 0.8658 0.0
H368 H 0.27294 0.09041 0.02013 0.0
H369 H 0.4329 0.49191 0.24703 0.0
H370 H 0.47955 0.18924 0.25048 0.0
C371 C 0.12645 0.55558 0.52693 0.0
C372 C 0.13548 0.6517 0.50115 0.0
C373 C 0.166 0.66375 0.51773 0.0
C374 C 0.17393 0.576 0.55365 0.0
N375 N 0.15052 0.5083 0.55985 0.0
Co376 Co 0.15025 0.38343 0.62004 0.0
N377 N 0.1884 0.42838 0.67161 0.0
C378 C 0.20732 0.50551 0.65148 0.0
C379 C 0.23496 0.50802 0.68547 0.0
C380 C 0.23401 0.42539 0.72835 0.0
C381 C 0.20554 0.3782 0.72052 0.0
N382 N 0.14963 0.2564 0.67959 0.0
C383 C 0.16922 0.22387 0.73061 0.0
C384 C 0.16149 0.12369 0.75167 0.0
C385 C 0.1372 0.09045 0.71155 0.0
C386 C 0.13129 0.17154 0.6682 0.0
N387 N 0.11256 0.33819 0.56825 0.0
C388 C 0.10045 0.24075 0.56566 0.0
C389 C 0.07454 0.23328 0.52448 0.0
C390 C 0.06976 0.33321 0.50069 0.0
C391 C 0.09289 0.39598 0.52964 0.0
N392 N 0.17688 0.30189 0.55219 0.0
C393 C 0.21999 0.22253 0.45151 0.0
C394 C 0.19021 0.25883 0.43355 0.0
C395 C 0.16966 0.30064 0.48351 0.0
C396 C 0.22606 0.21776 0.52247 0.0
C397 C 0.20403 0.2534 0.571 0.0
N398 N 0.12328 0.4703 0.68471 0.0
C399 C 0.07134 0.50645 0.72699 0.0
C400 C 0.07549 0.61766 0.72705 0.0
C401 C 0.10575 0.65046 0.71409 0.0
C402 C 0.12917 0.57639 0.69538 0.0
C403 C 0.09504 0.43501 0.70454 0.0
H404 H 0.15148 0.60723 0.68387 0.0
H405 H 0.08964 0.35191 0.69836 0.0
H406 H 0.14845 0.33624 0.46579 0.0
H407 H 0.21005 0.24419 0.62356 0.0
C408 C 0.19965 0.56859 0.5964 0.0
C409 C 0.09511 0.51066 0.52155 0.0
C410 C 0.19833 0.27578 0.75198 0.0
C411 C 0.11008 0.16735 0.61344 0.0
H412 H 0.12174 0.71085 0.47622 0.0
H413 H 0.17992 0.73294 0.50997 0.0
H414 H 0.25452 0.55776 0.67572 0.0
H415 H 0.25355 0.39499 0.75491 0.0
H416 H 0.17347 0.07593 0.78869 0.0
H417 H 0.12621 0.01383 0.71154 0.0
H418 H 0.05971 0.16542 0.5164 0.0
H419 H 0.05083 0.35823 0.46816 0.0
H420 H 0.18307 0.261 0.3807 0.0
H421 H 0.24825 0.19197 0.54166 0.0
H422 H 0.04908 0.47373 0.73795 0.0
H423 H 0.11135 0.73388 0.71654 0.0
C424 C 0.26399 0.40753 0.90103 0.0
C425 C 0.29061 0.4667 0.91591 0.0
C426 C 0.23782 0.40974 0.94334 0.0
C427 C 0.23707 0.46579 1.00632 0.0
H428 H 0.26372 0.35696 0.85614 0.0
H429 H 0.21774 0.36534 0.92803 0.0
S430 S 0.2966 0.66051 0.06343 0.0
N431 N 0.31142 0.60446 0.99286 0.0
N432 N 0.26356 0.60036 0.07673 0.0
C433 C 0.26274 0.53164 0.02154 0.0
C434 C 0.2892 0.53312 0.97596 0.0
C435 C 0.25012 0.4814 0.47755 0.0
C436 C 0.25197 0.53226 0.41415 0.0
C437 C 0.27482 0.48078 0.5255 0.0
C438 C 0.30315 0.53034 0.513 0.0
H439 H 0.22991 0.43683 0.48942 0.0
H440 H 0.27241 0.4349 0.57111 0.0
S441 S 0.3191 0.69323 0.36275 0.0
N442 N 0.28368 0.65039 0.34836 0.0
N443 N 0.33037 0.64262 0.43613 0.0
C444 C 0.30481 0.58814 0.45267 0.0
C445 C 0.27936 0.59051 0.40403 0.0
C446 C 0.78691 0.17196 0.1271 0.0
C447 C 0.81069 0.05655 0.13818 0.0
C448 C 0.75587 0.17061 0.0636 0.0
C449 C 0.74842 0.05424 0.01034 0.0
H450 H 0.79011 0.24108 0.1609 0.0
H451 H 0.74095 0.23941 0.06018 0.0
S452 S 0.81055 0.80175 0.99915 0.0
N453 N 0.82553 0.86405 0.07006 0.0
N454 N 0.77799 0.86131 0.97084 0.0
C455 C 0.77478 0.94292 0.01688 0.0
C456 C 0.80552 0.94513 0.08009 0.0
C457 C 0.77977 0.77847 0.61393 0.0
C458 C 0.75573 0.85051 0.59586 0.0
C459 C 0.80761 0.76754 0.57719 0.0
C460 C 0.81122 0.81878 0.51573 0.0
H461 H 0.77843 0.73855 0.66215 0.0
H462 H 0.82657 0.72235 0.59839 0.0
S463 S 0.75091 0.97063 0.39838 0.0
N464 N 0.76986 0.90619 0.46432 0.0
N465 N 0.78151 0.9088 0.42908 0.0
C466 C 0.78243 0.87579 0.4905 0.0
C467 C 0.75486 0.89836 0.5289 0.0
C468 C 0.74063 0.07655 0.17636 0.0
C469 C 0.75937 0.0143 0.1228 0.0
C470 C 0.71793 0.04257 0.22108 0.0
C471 C 0.70699 0.9408 0.2187 0.0
H472 H 0.74135 0.16152 0.18579 0.0
H473 H 0.70786 0.1 0.25742 0.0
S474 S 0.74151 0.71071 0.12839 0.0
N475 N 0.76344 0.81039 0.10983 0.0
N476 N 0.71334 0.76659 0.17177 0.0
C477 C 0.72183 0.87032 0.17415 0.0
C478 C 0.7489 0.89997 0.13495 0.0
C479 C 0.73781 0.13562 0.6555 0.0
C480 C 0.73732 0.1457 0.58296 0.0
C481 C 0.76543 0.12468 0.69525 0.0
C482 C 0.79487 0.12484 0.66559 0.0
H483 H 0.71654 0.13251 0.6826 0.0
H484 H 0.76365 0.1159 0.75025 0.0
S485 S 0.80918 0.19281 0.48412 0.0
N486 N 0.7714 0.18374 0.48784 0.0
N487 N 0.8218 0.16762 0.56204 0.0
C488 C 0.79519 0.14887 0.59512 0.0
C489 C 0.76711 0.15857 0.55428 0.0
C490 C 0.24119 0.15566 0.90444 0.0
C491 C 0.27233 0.15004 0.88148 0.0
C492 C 0.21682 0.1904 0.86279 0.0
C493 C 0.22246 0.21869 0.79598 0.0
H494 H 0.23553 0.14363 0.95735 0.0
H495 H 0.19417 0.20271 0.88479 0.0
S496 S 0.2943 0.13111 0.67805 0.0
N497 N 0.26836 0.16392 0.74217 0.0
N498 N 0.25975 0.17481 0.70435 0.0
C499 C 0.25412 0.18452 0.769 0.0
C500 C 0.28005 0.15664 0.81024 0.0
C501 C 0.26812 0.25362 0.28763 0.0
C502 C 0.2964 0.20219 0.30092 0.0
C503 C 0.24373 0.25557 0.33477 0.0
C504 C 0.24519 0.20364 0.39769 0.0
H505 H 0.2645 0.2933 0.23983 0.0
H506 H 0.22342 0.29888 0.32082 0.0
S507 S 0.30821 0.01516 0.44224 0.0
N508 N 0.32177 0.07744 0.37599 0.0
N509 N 0.27396 0.0683 0.45801 0.0
C510 C 0.27177 0.13971 0.40757 0.0
C511 C 0.2976 0.1422 0.36115 0.0
C512 C 0.03109 0.27068 0.26537 0.0
C513 C 0.05958 0.21517 0.263 0.0
C514 C 1.0025 0.21989 0.27386 0.0
C515 C 0.99996 0.10984 0.28272 0.0
H516 H 0.02996 0.35468 0.25883 0.0
H517 H 0.98196 0.26923 0.27663 0.0
S518 S 0.06394 0.91845 0.25032 0.0
N519 N 0.08019 0.03521 0.2433 0.0
N520 N 0.0277 0.9432 0.27094 0.0
C521 C 0.02729 0.05079 0.27196 0.0
C522 C 0.05649 0.1022 0.25939 0.0
C523 C 0.5037 0.19964 0.70784 0.0
C524 C 0.49554 0.2905 0.75008 0.0
C525 C 0.53302 0.14652 0.7119 0.0
C526 C 0.55714 0.18383 0.75562 0.0
H527 H 0.48702 0.16772 0.67107 0.0
H528 H 0.53707 0.07755 0.67851 0.0
S529 S 0.55059 0.42535 0.87033 0.0
N530 N 0.51522 0.40812 0.84102 0.0
N531 N 0.5716 0.33111 0.83218 0.0
C532 C 0.55011 0.27934 0.79332 0.0
C533 C 0.51936 0.32634 0.7949 0.0
C534 C 0.04807 0.79379 0.69887 0.0
C535 C 0.04881 0.69879 0.73608 0.0
C536 C 0.02347 0.86925 0.70448 0.0
C537 C 0.99775 0.85386 0.74683 0.0
H538 H 0.06647 0.80962 0.66361 0.0
H539 H 0.0243 0.93924 0.67398 0.0
S540 S 0.98819 0.62502 0.85942 0.0
N541 N 0.02134 0.59982 0.82087 0.0
N542 N 0.97532 0.73772 0.82894 0.0
C543 C 0.99817 0.76027 0.78464 0.0
C544 C 0.0234 0.68422 0.77987 0.0
C545 C 0.48592 0.50255 0.32097 0.0
C546 C 0.4894 0.41029 0.27799 0.0
C547 C 0.51051 0.57233 0.33562 0.0
C548 C 0.54038 0.55282 0.30999 0.0
H549 H 0.46366 0.52302 0.34263 0.0
H550 H 0.50597 0.64292 0.36736 0.0
S551 S 0.56352 0.31861 0.20137 0.0
N552 N 0.52634 0.30121 0.21354 0.0
N553 N 0.57258 0.42995 0.24348 0.0
C554 C 0.54485 0.45799 0.27063 0.0
C555 C 0.51954 0.38747 0.2544 0.0
C556 C 0.03598 0.10271 0.98404 0.0
C557 C 0.04033 0.18225 0.03621 0.0
C558 C 1.00601 0.07235 0.96125 0.0
C559 C 0.97925 0.11653 0.99199 0.0
H560 H 0.05579 0.06887 0.95754 0.0
H561 H 1.0038 0.01887 0.91671 0.0
S562 S 0.97743 0.32187 0.13225 0.0
N563 N 1.01453 0.30355 0.11706 0.0
N564 N 0.95929 0.23444 0.08203 0.0
C565 C 0.98348 0.18658 0.04912 0.0
C566 C 1.01362 0.22346 0.06865 0.0
C567 C 0.55075 0.65418 0.50417 0.0
C568 C 0.55049 0.75713 0.53491 0.0
C569 C 0.52602 0.58403 0.51127 0.0
C570 C 0.49995 0.61409 0.54978 0.0
H571 H 0.57035 0.62742 0.47446 0.0
H572 H 0.52707 0.50669 0.48537 0.0
S573 S 0.49125 0.86256 0.65612 0.0
N574 N 0.52471 0.87531 0.61765 0.0
N575 N 0.47739 0.74755 0.62765 0.0
C576 C 0.50022 0.71406 0.58452 0.0
C577 C 0.5257 0.78442 0.57822 0.0
C578 C 0.50432 0.29661 0.04236 0.0
C579 C 0.48248 0.23243 1.00645 0.0
C580 C 0.53643 0.28854 0.02821 0.0
C581 C 0.54807 0.21264 0.97987 0.0
H582 H 0.49667 0.35042 0.08348 0.0
H583 H 0.55233 0.33867 0.05715 0.0
S584 S 0.50054 0.03756 0.86473 0.0
N585 N 0.47497 0.10542 0.91116 0.0
N586 N 0.53451 0.08054 0.8913 0.0
C587 C 0.5262 0.15364 0.94085 0.0
C588 C 0.49374 0.16637 0.95221 0.0
C589 C 0.06446 0.64718 0.45496 0.0
C590 C 0.06642 0.5765 0.5094 0.0
C591 C 0.03843 0.71276 0.44577 0.0
C592 C 1.01291 0.70809 0.48949 0.0
H593 H 0.08257 0.6493 0.41735 0.0
H594 H 0.03783 0.76504 0.40276 0.0
S595 S 1.00194 0.51681 0.62628 0.0
N596 N 0.03728 0.49261 0.59857 0.0
N597 N 0.98876 0.61611 0.58124 0.0
C598 C 1.01344 0.63321 0.54073 0.0
C599 C 0.03991 0.56671 0.55026 0.0
loop_
_geom_bond_atom_site_label_1
_geom_bond_atom_site_label_2
_geom_bond_distance
_geom_bond_site_symmetry_2
_ccdc_geom_bond_type
C0 C1 1.443 . S
C0 N4 1.376 . S
C0 C38 1.389 . S
C1 C0 1.443 . S
C1 C2 1.340 . S
C1 H41 0.951 . S
C2 C1 1.340 . S
C2 C3 1.439 . S
C2 H42 0.950 1_545 S
C3 C2 1.439 . S
C3 N4 1.374 . S
C3 C37 1.395 . S
N4 C0 1.376 . S
N4 C3 1.374 . S
N4 Co5 2.008 . S
Co5 N4 2.008 . S
Co5 N6 1.995 . S
Co5 N11 2.008 . S
Co5 N16 1.995 . S
Co5 N21 2.282 . S
Co5 N27 2.282 . S
N6 Co5 1.995 . S
N6 C7 1.376 . S
N6 C10 1.383 . S
C7 N6 1.376 . S
C7 C8 1.446 . S
C7 C37 1.391 . S
C8 C7 1.446 . S
C8 C9 1.339 . S
C8 H43 0.949 . S
C9 C8 1.339 . S
C9 C10 1.439 . S
C9 H44 0.950 . S
C10 N6 1.383 . S
C10 C9 1.439 . S
C10 C39 1.392 . S
N11 Co5 2.008 . S
N11 C12 1.376 . S
N11 C15 1.374 . S
C12 N11 1.376 . S
C12 C13 1.443 . S
C12 C39 1.389 . S
C13 C12 1.443 . S
C13 C14 1.340 . S
C13 H45 0.951 . S
C14 C13 1.340 . S
C14 C15 1.439 . S
C14 H46 0.950 . S
C15 N11 1.374 . S
C15 C14 1.439 . S
C15 C40 1.395 . S
N16 Co5 1.995 . S
N16 C17 1.376 . S
N16 C20 1.383 . S
C17 N16 1.376 . S
C17 C18 1.446 . S
C17 C40 1.391 . S
C18 C17 1.446 . S
C18 C19 1.339 . S
C18 H47 0.949 . S
C19 C18 1.339 . S
C19 C20 1.439 . S
C19 H48 0.950 . S
C20 N16 1.383 . S
C20 C19 1.439 . S
C20 C38 1.392 . S
N21 Co5 2.282 . S
N21 C24 1.332 . S
N21 C26 1.332 . S
C22 C23 1.386 . S
C22 C25 1.388 . S
C23 C22 1.386 . S
C23 C24 1.382 . S
C23 H49 0.950 . S
C24 N21 1.332 . S
C24 C23 1.382 . S
C24 H35 0.952 . S
C25 C22 1.388 . S
C25 C26 1.382 . S
C25 H50 0.950 . S
C26 N21 1.332 . S
C26 C25 1.382 . S
C26 H36 0.948 . S
N27 Co5 2.282 . S
N27 C31 1.332 . S
N27 C32 1.332 . S
C28 C29 1.388 . S
C28 C32 1.382 . S
C28 H51 0.950 . S
C29 C28 1.388 . S
C29 C30 1.386 . S
C30 C29 1.386 . S
C30 C31 1.382 . S
C30 H52 0.950 1_554 S
C31 N27 1.332 . S
C31 C30 1.382 . S
C31 H33 0.952 . S
C32 N27 1.332 . S
C32 C28 1.382 . S
C32 H34 0.948 . S
H33 C31 0.952 . S
H34 C32 0.948 . S
H35 C24 0.952 . S
H36 C26 0.948 . S
C37 C3 1.395 . S
C37 C7 1.391 . S
C38 C0 1.389 . S
C38 C20 1.392 . S
C39 C10 1.392 . S
C39 C12 1.389 . S
C40 C15 1.395 . S
C40 C17 1.391 . S
H41 C1 0.951 . S
H42 C2 0.950 1_565 S
H43 C8 0.949 . S
H44 C9 0.950 . S
H45 C13 0.951 . S
H46 C14 0.950 . S
H47 C18 0.949 . S
H48 C19 0.950 . S
H49 C23 0.950 . S
H50 C25 0.950 . S
H51 C28 0.950 . S
H52 C30 0.950 1_556 S
C53 C54 1.443 . S
C53 N57 1.376 . S
C53 C91 1.389 . S
C54 C53 1.443 . S
C54 C55 1.340 . S
C54 H94 0.951 . S
C55 C54 1.340 . S
C55 C56 1.439 . S
C55 H95 0.950 . S
C56 C55 1.439 . S
C56 N57 1.374 . S
C56 C90 1.395 . S
N57 C53 1.376 . S
N57 C56 1.374 . S
N57 Co58 2.008 . S
Co58 N57 2.008 . S
Co58 N59 1.995 . S
Co58 N64 2.008 . S
Co58 N69 1.995 . S
Co58 N74 2.282 . S
Co58 N80 2.282 . S
N59 Co58 1.995 . S
N59 C60 1.376 . S
N59 C63 1.383 . S
C60 N59 1.376 . S
C60 C61 1.446 . S
C60 C90 1.391 . S
C61 C60 1.446 . S
C61 C62 1.339 . S
C61 H96 0.949 . S
C62 C61 1.339 . S
C62 C63 1.439 . S
C62 H97 0.950 . S
C63 N59 1.383 . S
C63 C62 1.439 . S
C63 C92 1.392 . S
N64 Co58 2.008 . S
N64 C65 1.376 . S
N64 C68 1.374 . S
C65 N64 1.376 . S
C65 C66 1.443 . S
C65 C92 1.389 . S
C66 C65 1.443 . S
C66 C67 1.340 . S
C66 H98 0.951 . S
C67 C66 1.340 . S
C67 C68 1.439 . S
C67 H99 0.950 . S
C68 N64 1.374 . S
C68 C67 1.439 . S
C68 C93 1.395 . S
N69 Co58 1.995 . S
N69 C70 1.376 . S
N69 C73 1.383 . S
C70 N69 1.376 . S
C70 C71 1.446 . S
C70 C93 1.391 . S
C71 C70 1.446 . S
C71 C72 1.339 . S
C71 H100 0.949 . S
C72 C71 1.339 . S
C72 C73 1.439 . S
C72 H101 0.950 . S
C73 N69 1.383 . S
C73 C72 1.439 . S
C73 C91 1.392 . S
N74 Co58 2.282 . S
N74 C77 1.332 . S
N74 C79 1.332 . S
C75 C76 1.386 . S
C75 C78 1.388 . S
C76 C75 1.386 . S
C76 C77 1.382 . S
C76 H102 0.950 . S
C77 N74 1.332 . S
C77 C76 1.382 . S
C77 H88 0.952 . S
C78 C75 1.388 . S
C78 C79 1.382 . S
C78 H103 0.950 . S
C79 N74 1.332 . S
C79 C78 1.382 . S
C79 H89 0.948 . S
N80 Co58 2.282 . S
N80 C84 1.332 . S
N80 C85 1.332 . S
C81 C82 1.388 . S
C81 C85 1.382 . S
C81 H104 0.950 . S
C82 C81 1.388 . S
C82 C83 1.386 . S
C83 C82 1.386 . S
C83 C84 1.382 . S
C83 H105 0.950 . S
C84 N80 1.332 . S
C84 C83 1.382 . S
C84 H86 0.952 . S
C85 N80 1.332 . S
C85 C81 1.382 . S
C85 H87 0.948 . S
H86 C84 0.952 . S
H87 C85 0.948 . S
H88 C77 0.952 . S
H89 C79 0.948 . S
C90 C56 1.395 . S
C90 C60 1.391 . S
C91 C53 1.389 . S
C91 C73 1.392 . S
C92 C63 1.392 . S
C92 C65 1.389 . S
C93 C68 1.395 . S
C93 C70 1.391 . S
H94 C54 0.951 . S
H95 C55 0.950 . S
H96 C61 0.949 . S
H97 C62 0.950 . S
H98 C66 0.951 . S
H99 C67 0.950 . S
H100 C71 0.949 . S
H101 C72 0.950 . S
H102 C76 0.950 . S
H103 C78 0.950 . S
H104 C81 0.950 . S
H105 C83 0.950 . S
C106 C107 1.443 . S
C106 N110 1.376 . S
C106 C144 1.389 . S
C107 C106 1.443 . S
C107 C108 1.340 . S
C107 H147 0.951 . S
C108 C107 1.340 . S
C108 C109 1.439 . S
C108 H148 0.950 . S
C109 C108 1.439 . S
C109 N110 1.374 . S
C109 C143 1.395 . S
N110 C106 1.376 . S
N110 C109 1.374 . S
N110 Co111 2.008 . S
Co111 N110 2.008 . S
Co111 N112 1.995 . S
Co111 N117 2.008 1_545 S
Co111 N122 1.995 1_545 S
Co111 N127 2.282 . S
Co111 N133 2.282 . S
N112 Co111 1.995 . S
N112 C113 1.376 . S
N112 C116 1.383 . S
C113 N112 1.376 . S
C113 C114 1.446 . S
C113 C143 1.391 . S
C114 C113 1.446 . S
C114 C115 1.339 . S
C114 H149 0.949 . S
C115 C114 1.339 . S
C115 C116 1.439 . S
C115 H150 0.950 . S
C116 N112 1.383 . S
C116 C115 1.439 . S
C116 C145 1.392 1_545 S
N117 Co111 2.008 1_565 S
N117 C118 1.376 . S
N117 C121 1.374 . S
C118 N117 1.376 . S
C118 C119 1.443 . S
C118 C145 1.389 . S
C119 C118 1.443 . S
C119 C120 1.340 . S
C119 H151 0.951 . S
C120 C119 1.340 . S
C120 C121 1.439 . S
C120 H152 0.950 . S
C121 N117 1.374 . S
C121 C120 1.439 . S
C121 C146 1.395 . S
N122 Co111 1.995 1_565 S
N122 C123 1.376 . S
N122 C126 1.383 . S
C123 N122 1.376 . S
C123 C124 1.446 . S
C123 C146 1.391 . S
C124 C123 1.446 . S
C124 C125 1.339 . S
C124 H153 0.949 . S
C125 C124 1.339 . S
C125 C126 1.439 . S
C125 H154 0.950 . S
C126 N122 1.383 . S
C126 C125 1.439 . S
C126 C144 1.392 1_565 S
N127 Co111 2.282 . S
N127 C130 1.332 1_545 S
N127 C132 1.332 . S
C128 C129 1.386 . S
C128 C131 1.388 1_565 S
C129 C128 1.386 . S
C129 C130 1.382 . S
C129 H155 0.950 . S
C130 N127 1.332 1_565 S
C130 C129 1.382 . S
C130 H141 0.952 . S
C131 C128 1.388 1_545 S
C131 C132 1.382 . S
C131 H156 0.950 . S
C132 N127 1.332 . S
C132 C131 1.382 . S
C132 H142 0.948 . S
N133 Co111 2.282 . S
N133 C137 1.332 . S
N133 C138 1.332 1_545 S
C134 C135 1.388 1_565 S
C134 C138 1.382 . S
C134 H157 0.950 . S
C135 C134 1.388 1_545 S
C135 C136 1.386 . S
C136 C135 1.386 . S
C136 C137 1.382 . S
C136 H158 0.950 1_556 S
C137 N133 1.332 . S
C137 C136 1.382 . S
C137 H139 0.952 . S
C138 N133 1.332 1_565 S
C138 C134 1.382 . S
C138 H140 0.948 . S
H139 C137 0.952 . S
H140 C138 0.948 . S
H141 C130 0.952 . S
H142 C132 0.948 . S
C143 C109 1.395 . S
C143 C113 1.391 . S
C144 C106 1.389 . S
C144 C126 1.392 1_545 S
C145 C116 1.392 1_565 S
C145 C118 1.389 . S
C146 C121 1.395 . S
C146 C123 1.391 . S
H147 C107 0.951 . S
H148 C108 0.950 . S
H149 C114 0.949 . S
H150 C115 0.950 . S
H151 C119 0.951 . S
H152 C120 0.950 . S
H153 C124 0.949 . S
H154 C125 0.950 . S
H155 C129 0.950 . S
H156 C131 0.950 . S
H157 C134 0.950 . S
H158 C136 0.950 1_554 S
C159 C160 1.443 . S
C159 N163 1.376 . S
C159 C197 1.389 1_565 S
C160 C159 1.443 . S
C160 C161 1.340 . S
C160 H200 0.951 . S
C161 C160 1.340 . S
C161 C162 1.439 . S
C161 H201 0.950 . S
C162 C161 1.439 . S
C162 N163 1.374 . S
C162 C196 1.395 . S
N163 C159 1.376 . S
N163 C162 1.374 . S
N163 Co164 2.008 1_565 S
Co164 N163 2.008 1_545 S
Co164 N165 1.995 1_545 S
Co164 N170 2.008 . S
Co164 N175 1.995 . S
Co164 N180 2.282 . S
Co164 N186 2.282 1_545 S
N165 Co164 1.995 1_565 S
N165 C166 1.376 . S
N165 C169 1.383 . S
C166 N165 1.376 . S
C166 C167 1.446 . S
C166 C196 1.391 . S
C167 C166 1.446 . S
C167 C168 1.339 . S
C167 H202 0.949 . S
C168 C167 1.339 . S
C168 C169 1.439 . S
C168 H203 0.950 . S
C169 N165 1.383 . S
C169 C168 1.439 . S
C169 C198 1.392 . S
N170 Co164 2.008 . S
N170 C171 1.376 . S
N170 C174 1.374 . S
C171 N170 1.376 . S
C171 C172 1.443 . S
C171 C198 1.389 1_545 S
C172 C171 1.443 . S
C172 C173 1.340 . S
C172 H204 0.951 . S
C173 C172 1.340 . S
C173 C174 1.439 . S
C173 H205 0.950 . S
C174 N170 1.374 . S
C174 C173 1.439 . S
C174 C199 1.395 . S
N175 Co164 1.995 . S
N175 C176 1.376 . S
N175 C179 1.383 . S
C176 N175 1.376 . S
C176 C177 1.446 . S
C176 C199 1.391 . S
C177 C176 1.446 . S
C177 C178 1.339 . S
C177 H206 0.949 . S
C178 C177 1.339 . S
C178 C179 1.439 . S
C178 H207 0.950 . S
C179 N175 1.383 . S
C179 C178 1.439 . S
C179 C197 1.392 . S
N180 Co164 2.282 . S
N180 C183 1.332 . S
N180 C185 1.332 1_545 S
C181 C182 1.386 . S
C181 C184 1.388 . S
C182 C181 1.386 . S
C182 C183 1.382 . S
C182 H208 0.950 . S
C183 N180 1.332 . S
C183 C182 1.382 . S
C183 H194 0.952 . S
C184 C181 1.388 . S
C184 C185 1.382 1_545 S
C184 H209 0.950 1_545 S
C185 N180 1.332 1_565 S
C185 C184 1.382 1_565 S
C185 H195 0.948 . S
N186 Co164 2.282 1_565 S
N186 C190 1.332 . S
N186 C191 1.332 1_565 S
C187 C188 1.388 . S
C187 C191 1.382 1_565 S
C187 H210 0.950 1_565 S
C188 C187 1.388 . S
C188 C189 1.386 . S
C189 C188 1.386 . S
C189 C190 1.382 . S
C189 H211 0.950 . S
C190 N186 1.332 . S
C190 C189 1.382 . S
C190 H192 0.952 . S
C191 N186 1.332 1_545 S
C191 C187 1.382 1_545 S
C191 H193 0.948 . S
H192 C190 0.952 . S
H193 C191 0.948 . S
H194 C183 0.952 . S
H195 C185 0.948 . S
C196 C162 1.395 . S
C196 C166 1.391 . S
C197 C159 1.389 1_545 S
C197 C179 1.392 . S
C198 C169 1.392 . S
C198 C171 1.389 1_565 S
C199 C174 1.395 . S
C199 C176 1.391 . S
H200 C160 0.951 . S
H201 C161 0.950 . S
H202 C167 0.949 . S
H203 C168 0.950 . S
H204 C172 0.951 . S
H205 C173 0.950 . S
H206 C177 0.949 . S
H207 C178 0.950 . S
H208 C182 0.950 . S
H209 C184 0.950 1_565 S
H210 C187 0.950 1_545 S
H211 C189 0.950 . S
C212 C213 1.443 . S
C212 N216 1.376 . S
C212 C250 1.389 1_556 S
C213 C212 1.443 . S
C213 C214 1.340 . S
C213 H253 0.951 . S
C214 C213 1.340 . S
C214 C215 1.439 . S
C214 H254 0.950 . S
C215 C214 1.439 . S
C215 N216 1.374 . S
C215 C249 1.395 . S
N216 C212 1.376 . S
N216 C215 1.374 . S
N216 Co217 2.008 1_545 S
Co217 N216 2.008 1_565 S
Co217 N218 1.995 1_565 S
Co217 N223 2.008 . S
Co217 N228 1.995 . S
Co217 N233 2.282 1_565 S
Co217 N239 2.282 . S
N218 Co217 1.995 1_545 S
N218 C219 1.376 . S
N218 C222 1.383 . S
C219 N218 1.376 . S
C219 C220 1.446 . S
C219 C249 1.391 . S
C220 C219 1.446 . S
C220 C221 1.339 . S
C220 H255 0.949 . S
C221 C220 1.339 . S
C221 C222 1.439 . S
C221 H256 0.950 . S
C222 N218 1.383 . S
C222 C221 1.439 . S
C222 C251 1.392 1_545 S
N223 Co217 2.008 . S
N223 C224 1.376 . S
N223 C227 1.374 . S
C224 N223 1.376 . S
C224 C225 1.443 . S
C224 C251 1.389 . S
C225 C224 1.443 . S
C225 C226 1.340 . S
C225 H257 0.951 . S
C226 C225 1.340 . S
C226 C227 1.439 . S
C226 H258 0.950 . S
C227 N223 1.374 . S
C227 C226 1.439 . S
C227 C252 1.395 . S
N228 Co217 1.995 . S
N228 C229 1.376 1_556 S
N228 C232 1.383 1_556 S
C229 N228 1.376 1_554 S
C229 C230 1.446 . S
C229 C252 1.391 1_554 S
C230 C229 1.446 . S
C230 C231 1.339 . S
C230 H259 0.949 . S
C231 C230 1.339 . S
C231 C232 1.439 . S
C231 H260 0.950 . S
C232 N228 1.383 1_554 S
C232 C231 1.439 . S
C232 C250 1.392 1_565 S
N233 Co217 2.282 1_545 S
N233 C236 1.332 1_546 S
N233 C238 1.332 . S
C234 C235 1.386 . S
C234 C237 1.388 . S
C235 C234 1.386 . S
C235 C236 1.382 1_545 S
C235 H261 0.950 1_545 S
C236 N233 1.332 1_564 S
C236 C235 1.382 1_565 S
C236 H247 0.952 . S
C237 C234 1.388 . S
C237 C238 1.382 1_554 S
C237 H262 0.950 . S
C238 N233 1.332 . S
C238 C237 1.382 1_556 S
C238 H248 0.948 . S
N239 Co217 2.282 . S
N239 C243 1.326 1_565 S
N239 C244 1.332 . S
C240 C241 1.388 . S
C240 C244 1.382 . S
C240 H263 0.950 . S
C241 C240 1.388 . S
C241 C242 1.386 . S
C242 C241 1.386 . S
C242 C243 1.380 1_565 S
C242 H264 0.950 1_565 S
C243 N239 1.326 1_545 S
C243 C242 1.380 1_545 S
C243 H245 0.960 . S
C244 N239 1.332 . S
C244 C240 1.382 . S
C244 H246 0.948 . S
H245 C243 0.960 . S
H246 C244 0.948 . S
H247 C236 0.952 . S
H248 C238 0.948 . S
C249 C215 1.395 . S
C249 C219 1.391 . S
C250 C212 1.389 1_554 S
C250 C232 1.392 1_545 S
C251 C222 1.392 1_565 S
C251 C224 1.389 . S
C252 C227 1.395 . S
C252 C229 1.391 1_556 S
H253 C213 0.951 . S
H254 C214 0.950 . S
H255 C220 0.949 . S
H256 C221 0.950 . S
H257 C225 0.951 . S
H258 C226 0.950 . S
H259 C230 0.949 . S
H260 C231 0.950 . S
H261 C235 0.950 1_565 S
H262 C237 0.950 . S
H263 C240 0.950 . S
H264 C242 0.950 1_545 S
C265 C266 1.443 . S
C265 N269 1.376 . S
C265 C303 1.389 . S
C266 C265 1.443 . S
C266 C267 1.340 . S
C266 H306 0.951 . S
C267 C266 1.340 . S
C267 C268 1.439 . S
C267 H307 0.950 . S
C268 C267 1.439 . S
C268 N269 1.374 . S
C268 C302 1.395 . S
N269 C265 1.376 . S
N269 C268 1.374 . S
N269 Co270 2.008 . S
Co270 N269 2.008 . S
Co270 N271 1.995 . S
Co270 N276 2.008 1_565 S
Co270 N281 1.995 1_565 S
Co270 N286 2.281 1_565 S
Co270 N292 2.282 . S
N271 Co270 1.995 . S
N271 C272 1.376 . S
N271 C275 1.383 . S
C272 N271 1.376 . S
C272 C273 1.446 . S
C272 C302 1.391 . S
C273 C272 1.446 . S
C273 C274 1.339 . S
C273 H308 0.949 . S
C274 C273 1.339 . S
C274 C275 1.439 . S
C274 H309 0.950 . S
C275 N271 1.383 . S
C275 C274 1.439 . S
C275 C304 1.392 1_565 S
N276 Co270 2.008 1_545 S
N276 C277 1.376 . S
N276 C280 1.374 . S
C277 N276 1.376 . S
C277 C278 1.443 . S
C277 C304 1.389 . S
C278 C277 1.443 . S
C278 C279 1.340 . S
C278 H310 0.951 . S
C279 C278 1.340 . S
C279 C280 1.439 . S
C279 H311 0.950 . S
C280 N276 1.374 . S
C280 C279 1.439 . S
C280 C305 1.395 . S
N281 Co270 1.995 1_545 S
N281 C282 1.376 . S
N281 C285 1.383 1_545 S
C282 N281 1.376 . S
C282 C283 1.446 . S
C282 C305 1.391 . S
C283 C282 1.446 . S
C283 C284 1.339 . S
C283 H312 0.949 . S
C284 C283 1.339 . S
C284 C285 1.439 1_545 S
C284 H313 0.950 . S
C285 N281 1.383 1_565 S
C285 C284 1.439 1_565 S
C285 C303 1.392 . S
N286 Co270 2.281 1_545 S
N286 C289 1.336 . S
N286 C291 1.330 1_545 S
C287 C288 1.386 . S
C287 C290 1.388 1_545 S
C288 C287 1.386 . S
C288 C289 1.382 . S
C288 H314 0.950 . S
C289 N286 1.336 . S
C289 C288 1.382 . S
C289 H300 0.952 . S
C290 C287 1.388 1_565 S
C290 C291 1.382 . S
C290 H315 0.950 . S
C291 N286 1.330 1_565 S
C291 C290 1.382 . S
C291 H301 0.948 . S
N292 Co270 2.282 . S
N292 C296 1.332 . S
N292 C297 1.332 . S
C293 C294 1.388 . S
C293 C297 1.382 . S
C293 H316 0.950 . S
C294 C293 1.388 . S
C294 C295 1.386 . S
C295 C294 1.386 . S
C295 C296 1.382 . S
C295 H317 0.950 . S
C296 N292 1.332 . S
C296 C295 1.382 . S
C296 H298 0.952 . S
C297 N292 1.332 . S
C297 C293 1.382 . S
C297 H299 0.948 1_565 S
H298 C296 0.952 . S
H299 C297 0.948 1_545 S
H300 C289 0.952 . S
H301 C291 0.948 . S
C302 C268 1.395 . S
C302 C272 1.391 . S
C303 C265 1.389 . S
C303 C285 1.392 . S
C304 C275 1.392 1_545 S
C304 C277 1.389 . S
C305 C280 1.395 . S
C305 C282 1.391 . S
H306 C266 0.951 . S
H307 C267 0.950 . S
H308 C273 0.949 . S
H309 C274 0.950 . S
H310 C278 0.951 . S
H311 C279 0.950 . S
H312 C283 0.949 . S
H313 C284 0.950 . S
H314 C288 0.950 . S
H315 C290 0.950 . S
H316 C293 0.950 . S
H317 C295 0.950 . S
C318 C319 1.443 . S
C318 N322 1.376 . S
C318 C356 1.389 1_554 S
C319 C318 1.443 . S
C319 C320 1.340 . S
C319 H359 0.951 . S
C320 C319 1.340 . S
C320 C321 1.439 . S
C320 H360 0.950 1_545 S
C321 C320 1.439 . S
C321 N322 1.374 . S
C321 C355 1.395 . S
N322 C318 1.376 . S
N322 C321 1.374 . S
N322 Co323 2.008 . S
Co323 N322 2.008 . S
Co323 N324 1.995 . S
Co323 N329 2.008 . S
Co323 N334 1.995 . S
Co323 N339 2.282 . S
Co323 N345 2.282 . S
N324 Co323 1.995 . S
N324 C325 1.376 . S
N324 C328 1.383 . S
C325 N324 1.376 . S
C325 C326 1.446 . S
C325 C355 1.391 . S
C326 C325 1.446 . S
C326 C327 1.339 . S
C326 H361 0.949 . S
C327 C326 1.339 . S
C327 C328 1.439 . S
C327 H362 0.950 . S
C328 N324 1.383 . S
C328 C327 1.439 . S
C328 C357 1.392 . S
N329 Co323 2.008 . S
N329 C330 1.376 . S
N329 C333 1.374 . S
C330 N329 1.376 . S
C330 C331 1.443 . S
C330 C357 1.389 . S
C331 C330 1.443 . S
C331 C332 1.340 . S
C331 H363 0.951 . S
C332 C331 1.340 . S
C332 C333 1.439 . S
C332 H364 0.950 . S
C333 N329 1.374 . S
C333 C332 1.439 . S
C333 C358 1.395 . S
N334 Co323 1.995 . S
N334 C335 1.376 1_554 S
N334 C338 1.383 1_554 S
C335 N334 1.376 1_556 S
C335 C336 1.446 . S
C335 C358 1.391 1_556 S
C336 C335 1.446 . S
C336 C337 1.339 . S
C336 H365 0.949 . S
C337 C336 1.339 . S
C337 C338 1.439 . S
C337 H366 0.950 . S
C338 N334 1.383 1_556 S
C338 C337 1.439 . S
C338 C356 1.392 . S
N339 Co323 2.282 . S
N339 C342 1.332 1_554 S
N339 C344 1.332 . S
C340 C341 1.386 . S
C340 C343 1.388 . S
C341 C340 1.386 . S
C341 C342 1.382 . S
C341 H367 0.950 . S
C342 N339 1.332 1_556 S
C342 C341 1.382 . S
C342 H353 0.952 . S
C343 C340 1.388 . S
C343 C344 1.382 1_556 S
C343 H368 0.950 . S
C344 N339 1.332 . S
C344 C343 1.382 1_554 S
C344 H354 0.948 . S
N345 Co323 2.282 . S
N345 C349 1.332 . S
N345 C350 1.332 . S
C346 C347 1.388 . S
C346 C350 1.382 . S
C346 H369 0.950 . S
C347 C346 1.388 . S
C347 C348 1.386 . S
C348 C347 1.386 . S
C348 C349 1.382 . S
C348 H370 0.950 . S
C349 N345 1.332 . S
C349 C348 1.382 . S
C349 H351 0.952 . S
C350 N345 1.332 . S
C350 C346 1.382 . S
C350 H352 0.948 . S
H351 C349 0.952 . S
H352 C350 0.948 . S
H353 C342 0.952 . S
H354 C344 0.948 . S
C355 C321 1.395 . S
C355 C325 1.391 . S
C356 C318 1.389 1_556 S
C356 C338 1.392 . S
C357 C328 1.392 . S
C357 C330 1.389 . S
C358 C333 1.395 . S
C358 C335 1.391 1_554 S
H359 C319 0.951 . S
H360 C320 0.950 1_565 S
H361 C326 0.949 . S
H362 C327 0.950 . S
H363 C331 0.951 . S
H364 C332 0.950 . S
H365 C336 0.949 . S
H366 C337 0.950 . S
H367 C341 0.950 . S
H368 C343 0.950 . S
H369 C346 0.950 . S
H370 C348 0.950 . S
C371 C372 1.443 . S
C371 N375 1.376 . S
C371 C409 1.389 . S
C372 C371 1.443 . S
C372 C373 1.340 . S
C372 H412 0.951 . S
C373 C372 1.340 . S
C373 C374 1.439 . S
C373 H413 0.950 . S
C374 C373 1.439 . S
C374 N375 1.374 . S
C374 C408 1.395 . S
N375 C371 1.376 . S
N375 C374 1.374 . S
N375 Co376 2.008 . S
Co376 N375 2.008 . S
Co376 N377 1.995 . S
Co376 N382 2.008 . S
Co376 N387 1.995 . S
Co376 N392 2.282 . S
Co376 N398 2.282 . S
N377 Co376 1.995 . S
N377 C378 1.376 . S
N377 C381 1.383 . S
C378 N377 1.376 . S
C378 C379 1.446 . S
C378 C408 1.391 . S
C379 C378 1.446 . S
C379 C380 1.339 . S
C379 H414 0.949 . S
C380 C379 1.339 . S
C380 C381 1.439 . S
C380 H415 0.950 . S
C381 N377 1.383 . S
C381 C380 1.439 . S
C381 C410 1.392 . S
N382 Co376 2.008 . S
N382 C383 1.376 . S
N382 C386 1.374 . S
C383 N382 1.376 . S
C383 C384 1.443 . S
C383 C410 1.389 . S
C384 C383 1.443 . S
C384 C385 1.340 . S
C384 H416 0.951 . S
C385 C384 1.340 . S
C385 C386 1.439 . S
C385 H417 0.950 1_545 S
C386 N382 1.374 . S
C386 C385 1.439 . S
C386 C411 1.395 . S
N387 Co376 1.995 . S
N387 C388 1.376 . S
N387 C391 1.383 . S
C388 N387 1.376 . S
C388 C389 1.446 . S
C388 C411 1.391 . S
C389 C388 1.446 . S
C389 C390 1.339 . S
C389 H418 0.949 . S
C390 C389 1.339 . S
C390 C391 1.439 . S
C390 H419 0.950 . S
C391 N387 1.383 . S
C391 C390 1.439 . S
C391 C409 1.392 . S
N392 Co376 2.282 . S
N392 C395 1.332 . S
N392 C397 1.332 . S
C393 C394 1.386 . S
C393 C396 1.388 . S
C394 C393 1.386 . S
C394 C395 1.382 . S
C394 H420 0.950 . S
C395 N392 1.332 . S
C395 C394 1.382 . S
C395 H406 0.952 . S
C396 C393 1.388 . S
C396 C397 1.382 . S
C396 H421 0.950 . S
C397 N392 1.332 . S
C397 C396 1.382 . S
C397 H407 0.948 . S
N398 Co376 2.282 . S
N398 C402 1.332 . S
N398 C403 1.332 . S
C399 C400 1.388 . S
C399 C403 1.382 . S
C399 H422 0.950 . S
C400 C399 1.388 . S
C400 C401 1.386 . S
C401 C400 1.386 . S
C401 C402 1.382 . S
C401 H423 0.950 . S
C402 N398 1.332 . S
C402 C401 1.382 . S
C402 H404 0.952 . S
C403 N398 1.332 . S
C403 C399 1.382 . S
C403 H405 0.948 . S
H404 C402 0.952 . S
H405 C403 0.948 . S
H406 C395 0.952 . S
H407 C397 0.948 . S
C408 C374 1.395 . S
C408 C378 1.391 . S
C409 C371 1.389 . S
C409 C391 1.392 . S
C410 C381 1.392 . S
C410 C383 1.389 . S
C411 C386 1.395 . S
C411 C388 1.391 . S
H412 C372 0.951 . S
H413 C373 0.950 . S
H414 C379 0.949 . S
H415 C380 0.950 . S
H416 C384 0.951 . S
H417 C385 0.950 1_565 S
H418 C389 0.949 . S
H419 C390 0.950 . S
H420 C394 0.950 . S
H421 C396 0.950 . S
H422 C399 0.950 . S
H423 C401 0.950 . S
C424 C425 1.369 . S
C424 C426 1.419 . S
C424 H428 0.930 . S
C425 C424 1.369 . S
C425 C434 1.429 . S
C426 C424 1.419 . S
C426 C427 1.363 . S
C426 H429 0.929 . S
C427 C426 1.363 . S
C427 C433 1.428 . S
H428 C424 0.930 . S
H429 C426 0.929 . S
S430 N431 1.613 1_554 S
S430 N432 1.610 . S
N431 S430 1.613 1_556 S
N431 C434 1.350 . S
N432 S430 1.610 . S
N432 C433 1.351 1_554 S
C433 C427 1.428 . S
C433 N432 1.351 1_556 S
C433 C434 1.434 . S
C434 C425 1.429 . S
C434 N431 1.350 . S
C434 C433 1.434 . S
C435 C436 1.369 . S
C435 C437 1.419 . S
C435 H439 0.930 . S
C436 C435 1.369 . S
C436 C445 1.429 . S
C437 C435 1.419 . S
C437 C438 1.363 . S
C437 H440 0.929 . S
C438 C437 1.363 . S
C438 C444 1.428 . S
H439 C435 0.930 . S
H440 C437 0.929 . S
S441 N442 1.613 . S
S441 N443 1.610 . S
N442 S441 1.613 . S
N442 C445 1.350 . S
N443 S441 1.610 . S
N443 C444 1.351 . S
C444 C438 1.428 . S
C444 N443 1.351 . S
C444 C445 1.434 . S
C445 C436 1.429 . S
C445 N442 1.350 . S
C445 C444 1.434 . S
C446 C447 1.369 . S
C446 C448 1.419 . S
C446 H450 0.930 . S
C447 C446 1.369 . S
C447 C456 1.429 1_545 S
C448 C446 1.419 . S
C448 C449 1.363 . S
C448 H451 0.929 1_554 S
C449 C448 1.363 . S
C449 C455 1.428 1_545 S
H450 C446 0.930 . S
H451 C448 0.929 1_556 S
S452 N453 1.613 . S
S452 N454 1.610 . S
N453 S452 1.613 . S
N453 C456 1.350 . S
N454 S452 1.610 . S
N454 C455 1.351 . S
C455 C449 1.428 1_565 S
C455 N454 1.351 . S
C455 C456 1.434 . S
C456 C447 1.429 1_565 S
C456 N453 1.350 . S
C456 C455 1.434 . S
C457 C458 1.369 . S
C457 C459 1.419 . S
C457 H461 0.930 . S
C458 C457 1.369 . S
C458 C467 1.429 1_565 S
C459 C457 1.419 . S
C459 C460 1.363 . S
C459 H462 0.929 . S
C460 C459 1.363 . S
C460 C466 1.428 1_565 S
H461 C457 0.930 . S
H462 C459 0.929 . S
S463 N464 1.613 . S
S463 N465 1.610 . S
N464 S463 1.613 . S
N464 C467 1.350 . S
N465 S463 1.610 . S
N465 C466 1.351 . S
C466 C460 1.428 1_545 S
C466 N465 1.351 . S
C466 C467 1.434 . S
C467 C458 1.429 1_545 S
C467 N464 1.350 . S
C467 C466 1.434 . S
C468 C469 1.369 . S
C468 C470 1.419 . S
C468 H472 0.930 . S
C469 C468 1.369 . S
C469 C478 1.429 . S
C470 C468 1.419 . S
C470 C471 1.363 . S
C470 H473 0.929 . S
C471 C470 1.363 . S
C471 C477 1.428 1_545 S
H472 C468 0.930 . S
H473 C470 0.929 . S
S474 N475 1.613 . S
S474 N476 1.610 . S
N475 S474 1.613 . S
N475 C478 1.350 1_565 S
N476 S474 1.610 . S
N476 C477 1.351 . S
C477 C471 1.428 1_565 S
C477 N476 1.351 . S
C477 C478 1.434 1_565 S
C478 C469 1.429 . S
C478 N475 1.350 1_545 S
C478 C477 1.434 1_545 S
C479 C480 1.369 . S
C479 C481 1.419 . S
C479 H483 0.930 . S
C480 C479 1.369 . S
C480 C489 1.429 1_545 S
C481 C479 1.419 . S
C481 C482 1.363 1_545 S
C481 H484 0.929 . S
C482 C481 1.363 1_565 S
C482 C488 1.428 . S
H483 C479 0.930 . S
H484 C481 0.929 . S
S485 N486 1.613 . S
S485 N487 1.610 . S
N486 S485 1.613 . S
N486 C489 1.350 . S
N487 S485 1.610 . S
N487 C488 1.351 . S
C488 C482 1.428 . S
C488 N487 1.351 . S
C488 C489 1.434 . S
C489 C480 1.429 1_565 S
C489 N486 1.350 . S
C489 C488 1.434 . S
C490 C491 1.369 . S
C490 C492 1.419 . S
C490 H494 0.930 . S
C491 C490 1.369 . S
C491 C500 1.429 . S
C492 C490 1.419 . S
C492 C493 1.363 . S
C492 H495 0.929 . S
C493 C492 1.363 . S
C493 C499 1.428 . S
H494 C490 0.930 . S
H495 C492 0.929 . S
S496 N497 1.613 . S
S496 N498 1.610 . S
N497 S496 1.613 . S
N497 C500 1.350 . S
N498 S496 1.610 . S
N498 C499 1.351 . S
C499 C493 1.428 . S
C499 N498 1.351 . S
C499 C500 1.434 . S
C500 C491 1.429 . S
C500 N497 1.350 . S
C500 C499 1.434 . S
C501 C502 1.369 . S
C501 C503 1.419 . S
C501 H505 0.930 . S
C502 C501 1.369 . S
C502 C511 1.429 . S
C503 C501 1.419 . S
C503 C504 1.363 . S
C503 H506 0.929 . S
C504 C503 1.363 . S
C504 C510 1.428 . S
H505 C501 0.930 . S
H506 C503 0.929 . S
S507 N508 1.613 . S
S507 N509 1.610 . S
N508 S507 1.613 . S
N508 C511 1.350 . S
N509 S507 1.610 . S
N509 C510 1.351 . S
C510 C504 1.428 . S
C510 N509 1.351 . S
C510 C511 1.434 . S
C511 C502 1.429 . S
C511 N508 1.350 . S
C511 C510 1.434 . S
C512 C513 1.369 . S
C512 C514 1.419 1_455 S
C512 H516 0.930 . S
C513 C512 1.369 . S
C513 C522 1.429 . S
C514 C512 1.419 1_655 S
C514 C515 1.363 . S
C514 H517 0.929 . S
C515 C514 1.363 . S
C515 C521 1.428 1_655 S
H516 C512 0.930 . S
H517 C514 0.929 . S
S518 N519 1.613 1_565 S
S518 N520 1.610 . S
N519 S518 1.613 1_545 S
N519 C522 1.350 . S
N520 S518 1.610 . S
N520 C521 1.351 1_565 S
C521 C515 1.428 1_455 S
C521 N520 1.351 1_545 S
C521 C522 1.434 . S
C522 C513 1.429 . S
C522 N519 1.350 . S
C522 C521 1.434 . S
C523 C524 1.369 . S
C523 C525 1.419 . S
C523 H527 0.930 . S
C524 C523 1.369 . S
C524 C533 1.429 . S
C525 C523 1.419 . S
C525 C526 1.363 . S
C525 H528 0.929 . S
C526 C525 1.363 . S
C526 C532 1.428 . S
H527 C523 0.930 . S
H528 C525 0.929 . S
S529 N530 1.613 . S
S529 N531 1.610 . S
N530 S529 1.613 . S
N530 C533 1.350 . S
N531 S529 1.610 . S
N531 C532 1.351 . S
C532 C526 1.428 . S
C532 N531 1.351 . S
C532 C533 1.434 . S
C533 C524 1.429 . S
C533 N530 1.350 . S
C533 C532 1.434 . S
C534 C535 1.369 . S
C534 C536 1.419 . S
C534 H538 0.930 . S
C535 C534 1.369 . S
C535 C544 1.429 1_455 S
C536 C534 1.419 . S
C536 C537 1.363 1_455 S
C536 H539 0.929 . S
C537 C536 1.363 1_655 S
C537 C543 1.428 . S
H538 C534 0.930 . S
H539 C536 0.929 . S
S540 N541 1.613 . S
S540 N542 1.610 . S
N541 S540 1.613 . S
N541 C544 1.350 . S
N542 S540 1.610 . S
N542 C543 1.351 . S
C543 C537 1.428 . S
C543 N542 1.351 . S
C543 C544 1.434 . S
C544 C535 1.429 1_655 S
C544 N541 1.350 . S
C544 C543 1.434 . S
C545 C546 1.369 . S
C545 C547 1.419 . S
C545 H549 0.930 . S
C546 C545 1.369 . S
C546 C555 1.429 . S
C547 C545 1.419 . S
C547 C548 1.363 . S
C547 H550 0.929 . S
C548 C547 1.363 . S
C548 C554 1.428 . S
H549 C545 0.930 . S
H550 C547 0.929 . S
S551 N552 1.613 . S
S551 N553 1.610 . S
N552 S551 1.613 . S
N552 C555 1.350 . S
N553 S551 1.610 . S
N553 C554 1.351 . S
C554 C548 1.428 . S
C554 N553 1.351 . S
C554 C555 1.434 . S
C555 C546 1.429 . S
C555 N552 1.350 . S
C555 C554 1.434 . S
C556 C557 1.369 . S
C556 C558 1.419 1_455 S
C556 H560 0.930 . S
C557 C556 1.369 . S
C557 C566 1.429 1_456 S
C558 C556 1.419 1_655 S
C558 C559 1.363 1_556 S
C558 H561 0.929 . S
C559 C558 1.363 1_554 S
C559 C565 1.428 . S
H560 C556 0.930 . S
H561 C558 0.929 . S
S562 N563 1.613 . S
S562 N564 1.610 . S
N563 S562 1.613 . S
N563 C566 1.350 . S
N564 S562 1.610 . S
N564 C565 1.351 . S
C565 C559 1.428 . S
C565 N564 1.351 . S
C565 C566 1.434 . S
C566 C557 1.429 1_654 S
C566 N563 1.350 . S
C566 C565 1.434 . S
C567 C568 1.369 . S
C567 C569 1.419 . S
C567 H571 0.930 . S
C568 C567 1.369 . S
C568 C577 1.429 . S
C569 C567 1.419 . S
C569 C570 1.363 . S
C569 H572 0.929 . S
C570 C569 1.363 . S
C570 C576 1.428 . S
H571 C567 0.930 . S
H572 C569 0.929 . S
S573 N574 1.613 . S
S573 N575 1.610 . S
N574 S573 1.613 . S
N574 C577 1.350 . S
N575 S573 1.610 . S
N575 C576 1.351 . S
C576 C570 1.428 . S
C576 N575 1.351 . S
C576 C577 1.434 . S
C577 C568 1.429 . S
C577 N574 1.350 . S
C577 C576 1.434 . S
C578 C579 1.369 . S
C578 C580 1.419 . S
C578 H582 0.930 . S
C579 C578 1.369 . S
C579 C588 1.429 1_556 S
C580 C578 1.419 . S
C580 C581 1.363 1_556 S
C580 H583 0.929 . S
C581 C580 1.363 1_554 S
C581 C587 1.428 . S
H582 C578 0.930 . S
H583 C580 0.929 . S
S584 N585 1.613 1_565 S
S584 N586 1.610 . S
N585 S584 1.613 1_545 S
N585 C588 1.350 . S
N586 S584 1.610 . S
N586 C587 1.351 1_565 S
C587 C581 1.428 . S
C587 N586 1.351 1_545 S
C587 C588 1.434 . S
C588 C579 1.429 1_554 S
C588 N585 1.350 . S
C588 C587 1.434 . S
C589 C590 1.369 . S
C589 C591 1.419 . S
C589 H593 0.930 . S
C590 C589 1.369 . S
C590 C599 1.429 . S
C591 C589 1.419 . S
C591 C592 1.361 . S
C591 H594 0.929 . S
C592 C591 1.361 . S
C592 C598 1.429 1_455 S
H593 C589 0.930 . S
H594 C591 0.929 . S
S595 N596 1.613 . S
S595 N597 1.610 . S
N596 S595 1.613 . S
N596 C599 1.350 1_655 S
N597 S595 1.610 . S
N597 C598 1.351 . S
C598 C592 1.429 1_655 S
C598 N597 1.351 . S
C598 C599 1.434 1_655 S
C599 C590 1.429 . S
C599 N596 1.350 1_455 S
C599 C598 1.434 1_455 S
C425 C75 2.119 . S
C427 C39 2.164 1_556 S
C436 C22 1.963 . S
C438 C92 1.928 . S
C447 C181 2.177 . S
C449 C145 2.235 1_544 S
C458 C128 1.956 . S
C460 C198 1.922 . S
C469 C234 2.038 . S
C471 C304 2.077 . S
C480 C287 1.994 . S
C482 C251 2.033 . S
C491 C340 2.069 . S
C493 C410 2.118 . S
C502 C357 1.960 . S
C504 C393 1.933 . S
C513 C38 1.729 . S
C515 C197 1.759 . S
C524 C91 1.840 . S
C526 C144 1.812 . S
C535 C400 1.767 . S
C537 C241 1.736 . S
C546 C347 1.857 . S
C548 C294 1.876 . S
C557 C29 1.540 1_556 S
C559 C250 1.567 . S
C568 C303 1.734 . S
C570 C82 1.747 . S
C579 C356 1.450 . S
C581 C135 1.439 1_554 S
C590 C409 1.876 . S
C592 C188 1.888 1_455 S
