# Generated by pormake.
# Topology ato, (4)-cn, num edge types: 1
# Building blocks:
#     Node 0, Type 0, BuildingBlock: QUQFOY_clean_sbu_1, # of connection points: 4
#     Node 1, Type 0, BuildingBlock: QUQFOY_clean_sbu_1, # of connection points: 4
#     Node 2, Type 0, BuildingBlock: QUQFOY_clean_sbu_1, # of connection points: 4
#     Node 3, Type 0, BuildingBlock: QUQFOY_clean_sbu_1, # of connection points: 4
#     Node 4, Type 0, BuildingBlock: QUQFOY_clean_sbu_1, # of connection points: 4
#     Node 5, Type 0, BuildingBlock: QUQFOY_clean_sbu_1, # of connection points: 4
#     Node 6, Type 0, BuildingBlock: QUQFOY_clean_sbu_1, # of connection points: 4
#     Node 7, Type 0, BuildingBlock: QUQFOY_clean_sbu_1, # of connection points: 4
#     Node 8, Type 0, BuildingBlock: QUQFOY_clean_sbu_1, # of connection points: 4
#     Node 9, Type 0, BuildingBlock: QUQFOY_clean_sbu_1, # of connection points: 4
#     Node 10, Type 0, BuildingBlock: QUQFOY_clean_sbu_1, # of connection points: 4
#     Node 11, Type 0, BuildingBlock: QUQFOY_clean_sbu_1, # of connection points: 4
#     Node 12, Type 0, BuildingBlock: QUQFOY_clean_sbu_1, # of connection points: 4
#     Node 13, Type 0, BuildingBlock: QUQFOY_clean_sbu_1, # of connection points: 4
#     Node 14, Type 0, BuildingBlock: QUQFOY_clean_sbu_1, # of connection points: 4
#     Node 15, Type 0, BuildingBlock: QUQFOY_clean_sbu_1, # of connection points: 4
#     Node 16, Type 0, BuildingBlock: QUQFOY_clean_sbu_1, # of connection points: 4
#     Node 17, Type 0, BuildingBlock: QUQFOY_clean_sbu_1, # of connection points: 4
#     Node 18, Type 0, BuildingBlock: QUQFOY_clean_sbu_1, # of connection points: 4
#     Node 19, Type 0, BuildingBlock: QUQFOY_clean_sbu_1, # of connection points: 4
#     Node 20, Type 0, BuildingBlock: QUQFOY_clean_sbu_1, # of connection points: 4
#     Node 21, Type 0, BuildingBlock: QUQFOY_clean_sbu_1, # of connection points: 4
#     Node 22, Type 0, BuildingBlock: QUQFOY_clean_sbu_1, # of connection points: 4
#     Node 23, Type 0, BuildingBlock: QUQFOY_clean_sbu_1, # of connection points: 4
#     Node 24, Type 0, BuildingBlock: QUQFOY_clean_sbu_1, # of connection points: 4
#     Node 25, Type 0, BuildingBlock: QUQFOY_clean_sbu_1, # of connection points: 4
#     Node 26, Type 0, BuildingBlock: QUQFOY_clean_sbu_1, # of connection points: 4
#     Node 27, Type 0, BuildingBlock: QUQFOY_clean_sbu_1, # of connection points: 4
#     Node 28, Type 0, BuildingBlock: QUQFOY_clean_sbu_1, # of connection points: 4
#     Node 29, Type 0, BuildingBlock: QUQFOY_clean_sbu_1, # of connection points: 4
#     Node 30, Type 0, BuildingBlock: QUQFOY_clean_sbu_1, # of connection points: 4
#     Node 31, Type 0, BuildingBlock: QUQFOY_clean_sbu_1, # of connection points: 4
#     Node 32, Type 0, BuildingBlock: QUQFOY_clean_sbu_1, # of connection points: 4
#     Node 33, Type 0, BuildingBlock: QUQFOY_clean_sbu_1, # of connection points: 4
#     Node 34, Type 0, BuildingBlock: QUQFOY_clean_sbu_1, # of connection points: 4
#     Node 35, Type 0, BuildingBlock: QUQFOY_clean_sbu_1, # of connection points: 4
#     Edge 36, Type (0, 0), BuildingBlock: CIFDUS_clean_linker_0, # of connection points: 2
#     Edge 37, Type (0, 0), BuildingBlock: CIFDUS_clean_linker_0, # of connection points: 2
#     Edge 38, Type (0, 0), BuildingBlock: CIFDUS_clean_linker_0, # of connection points: 2
#     Edge 39, Type (0, 0), BuildingBlock: CIFDUS_clean_linker_0, # of connection points: 2
#     Edge 40, Type (0, 0), BuildingBlock: CIFDUS_clean_linker_0, # of connection points: 2
#     Edge 41, Type (0, 0), BuildingBlock: CIFDUS_clean_linker_0, # of connection points: 2
#     Edge 42, Type (0, 0), BuildingBlock: CIFDUS_clean_linker_0, # of connection points: 2
#     Edge 43, Type (0, 0), BuildingBlock: CIFDUS_clean_linker_0, # of connection points: 2
#     Edge 44, Type (0, 0), BuildingBlock: CIFDUS_clean_linker_0, # of connection points: 2
#     Edge 45, Type (0, 0), BuildingBlock: CIFDUS_clean_linker_0, # of connection points: 2
#     Edge 46, Type (0, 0), BuildingBlock: CIFDUS_clean_linker_0, # of connection points: 2
#     Edge 47, Type (0, 0), BuildingBlock: CIFDUS_clean_linker_0, # of connection points: 2
#     Edge 48, Type (0, 0), BuildingBlock: CIFDUS_clean_linker_0, # of connection points: 2
#     Edge 49, Type (0, 0), BuildingBlock: CIFDUS_clean_linker_0, # of connection points: 2
#     Edge 50, Type (0, 0), BuildingBlock: CIFDUS_clean_linker_0, # of connection points: 2
#     Edge 51, Type (0, 0), BuildingBlock: CIFDUS_clean_linker_0, # of connection points: 2
#     Edge 52, Type (0, 0), BuildingBlock: CIFDUS_clean_linker_0, # of connection points: 2
#     Edge 53, Type (0, 0), BuildingBlock: CIFDUS_clean_linker_0, # of connection points: 2
#     Edge 54, Type (0, 0), BuildingBlock: CIFDUS_clean_linker_0, # of connection points: 2
#     Edge 55, Type (0, 0), BuildingBlock: CIFDUS_clean_linker_0, # of connection points: 2
#     Edge 56, Type (0, 0), BuildingBlock: CIFDUS_clean_linker_0, # of connection points: 2
#     Edge 57, Type (0, 0), BuildingBlock: CIFDUS_clean_linker_0, # of connection points: 2
#     Edge 58, Type (0, 0), BuildingBlock: CIFDUS_clean_linker_0, # of connection points: 2
#     Edge 59, Type (0, 0), BuildingBlock: CIFDUS_clean_linker_0, # of connection points: 2
#     Edge 60, Type (0, 0), BuildingBlock: CIFDUS_clean_linker_0, # of connection points: 2
#     Edge 61, Type (0, 0), BuildingBlock: CIFDUS_clean_linker_0, # of connection points: 2
#     Edge 62, Type (0, 0), BuildingBlock: CIFDUS_clean_linker_0, # of connection points: 2
#     Edge 63, Type (0, 0), BuildingBlock: CIFDUS_clean_linker_0, # of connection points: 2
#     Edge 64, Type (0, 0), BuildingBlock: CIFDUS_clean_linker_0, # of connection points: 2
#     Edge 65, Type (0, 0), BuildingBlock: CIFDUS_clean_linker_0, # of connection points: 2
#     Edge 66, Type (0, 0), BuildingBlock: CIFDUS_clean_linker_0, # of connection points: 2
#     Edge 67, Type (0, 0), BuildingBlock: CIFDUS_clean_linker_0, # of connection points: 2
#     Edge 68, Type (0, 0), BuildingBlock: CIFDUS_clean_linker_0, # of connection points: 2
#     Edge 69, Type (0, 0), BuildingBlock: CIFDUS_clean_linker_0, # of connection points: 2
#     Edge 70, Type (0, 0), BuildingBlock: CIFDUS_clean_linker_0, # of connection points: 2
#     Edge 71, Type (0, 0), BuildingBlock: CIFDUS_clean_linker_0, # of connection points: 2
#     Edge 72, Type (0, 0), BuildingBlock: CIFDUS_clean_linker_0, # of connection points: 2
#     Edge 73, Type (0, 0), BuildingBlock: CIFDUS_clean_linker_0, # of connection points: 2
#     Edge 74, Type (0, 0), BuildingBlock: CIFDUS_clean_linker_0, # of connection points: 2
#     Edge 75, Type (0, 0), BuildingBlock: CIFDUS_clean_linker_0, # of connection points: 2
#     Edge 76, Type (0, 0), BuildingBlock: CIFDUS_clean_linker_0, # of connection points: 2
#     Edge 77, Type (0, 0), BuildingBlock: CIFDUS_clean_linker_0, # of connection points: 2
#     Edge 78, Type (0, 0), BuildingBlock: CIFDUS_clean_linker_0, # of connection points: 2
#     Edge 79, Type (0, 0), BuildingBlock: CIFDUS_clean_linker_0, # of connection points: 2
#     Edge 80, Type (0, 0), BuildingBlock: CIFDUS_clean_linker_0, # of connection points: 2
#     Edge 81, Type (0, 0), BuildingBlock: CIFDUS_clean_linker_0, # of connection points: 2
#     Edge 82, Type (0, 0), BuildingBlock: CIFDUS_clean_linker_0, # of connection points: 2
#     Edge 83, Type (0, 0), BuildingBlock: CIFDUS_clean_linker_0, # of connection points: 2
#     Edge 84, Type (0, 0), BuildingBlock: CIFDUS_clean_linker_0, # of connection points: 2
#     Edge 85, Type (0, 0), BuildingBlock: CIFDUS_clean_linker_0, # of connection points: 2
#     Edge 86, Type (0, 0), BuildingBlock: CIFDUS_clean_linker_0, # of connection points: 2
#     Edge 87, Type (0, 0), BuildingBlock: CIFDUS_clean_linker_0, # of connection points: 2
#     Edge 88, Type (0, 0), BuildingBlock: CIFDUS_clean_linker_0, # of connection points: 2
#     Edge 89, Type (0, 0), BuildingBlock: CIFDUS_clean_linker_0, # of connection points: 2
#     Edge 90, Type (0, 0), BuildingBlock: CIFDUS_clean_linker_0, # of connection points: 2
#     Edge 91, Type (0, 0), BuildingBlock: CIFDUS_clean_linker_0, # of connection points: 2
#     Edge 92, Type (0, 0), BuildingBlock: CIFDUS_clean_linker_0, # of connection points: 2
#     Edge 93, Type (0, 0), BuildingBlock: CIFDUS_clean_linker_0, # of connection points: 2
#     Edge 94, Type (0, 0), BuildingBlock: CIFDUS_clean_linker_0, # of connection points: 2
#     Edge 95, Type (0, 0), BuildingBlock: CIFDUS_clean_linker_0, # of connection points: 2
#     Edge 96, Type (0, 0), BuildingBlock: CIFDUS_clean_linker_0, # of connection points: 2
#     Edge 97, Type (0, 0), BuildingBlock: CIFDUS_clean_linker_0, # of connection points: 2
#     Edge 98, Type (0, 0), BuildingBlock: CIFDUS_clean_linker_0, # of connection points: 2
#     Edge 99, Type (0, 0), BuildingBlock: CIFDUS_clean_linker_0, # of connection points: 2
#     Edge 100, Type (0, 0), BuildingBlock: CIFDUS_clean_linker_0, # of connection points: 2
#     Edge 101, Type (0, 0), BuildingBlock: CIFDUS_clean_linker_0, # of connection points: 2
#     Edge 102, Type (0, 0), BuildingBlock: CIFDUS_clean_linker_0, # of connection points: 2
#     Edge 103, Type (0, 0), BuildingBlock: CIFDUS_clean_linker_0, # of connection points: 2
#     Edge 104, Type (0, 0), BuildingBlock: CIFDUS_clean_linker_0, # of connection points: 2
#     Edge 105, Type (0, 0), BuildingBlock: CIFDUS_clean_linker_0, # of connection points: 2
#     Edge 106, Type (0, 0), BuildingBlock: CIFDUS_clean_linker_0, # of connection points: 2
#     Edge 107, Type (0, 0), BuildingBlock: CIFDUS_clean_linker_0, # of connection points: 2
# Relax obj value: 0.081
# Max RMSD: 0.154
# Mean RMSD: 0.154
data_MOF--net-ato--node1-QUQFOY_clean_sbu_1--edge1-CIFDUS_clean_linker_0
_symmetry_space_group_name_H-M    P1
_symmetry_Int_Tables_number       1
_symmetry_cell_setting            triclinic
loop_
_symmetry_equiv_pos_as_xyz
'x, y, z'
_cell_length_a     97.822673
_cell_length_b     97.888217
_cell_length_c     21.506741
_cell_angle_alpha  89.995663
_cell_angle_beta   89.982375
_cell_angle_gamma 119.98132
loop_
_atom_site_label
_atom_site_type_symbol
_atom_site_fract_x
_atom_site_fract_y
_atom_site_fract_z
_atom_type_partial_charge
O0 O 0.2399 0.02278 0.17078 0.0
Cd1 Cd 0.25658 0.03597 0.23608 0.0
Cd2 Cd 0.25605 0.06108 0.16066 0.0
O3 O 0.24052 0.04133 0.11042 0.0
O4 O 0.25472 0.01882 0.29129 0.0
O5 O 0.25001 0.03756 0.32346 0.0
C6 C 0.25038 0.0248 0.33501 0.0
C7 C 0.25084 0.08202 0.15707 0.0
C8 C 0.23519 0.02686 0.12309 0.0
C9 C 0.28725 0.06148 0.18175 0.0
O10 O 0.2798 0.06811 0.16139 0.0
O11 O 0.28011 0.04842 0.2107 0.0
O12 O 0.25602 0.07799 0.10962 0.0
O13 O 0.24845 0.07404 0.20769 0.0
O14 O 0.97483 0.22319 0.17858 0.0
Cd15 Cd 0.96064 0.22304 0.24898 0.0
Cd16 Cd 0.93808 0.1954 0.17995 0.0
O17 O 0.95794 0.202 0.12588 0.0
O18 O 0.97568 0.24048 0.30369 0.0
O19 O 0.96359 0.21543 0.33245 0.0
C20 C 0.97355 0.23002 0.34465 0.0
C21 C 0.92052 0.16845 0.19482 0.0
C22 C 0.97173 0.21371 0.13356 0.0
C23 C 0.9312 0.2221 0.19929 0.0
O24 O 0.92704 0.20863 0.17625 0.0
O25 O 0.94396 0.22959 0.22989 0.0
O26 O 0.92215 0.17514 0.14165 0.0
O27 O 0.92932 0.17701 0.24004 0.0
O28 O 0.78595 0.75884 0.19739 0.0
Cd29 Cd 0.78599 0.74447 0.26652 0.0
Cd30 Cd 0.81322 0.74931 0.19679 0.0
O31 O 0.8071 0.7632 0.14419 0.0
O32 O 0.76962 0.74329 0.32482 0.0
O33 O 0.79493 0.75477 0.34929 0.0
C34 C 0.78073 0.75123 0.36417 0.0
C35 C 0.83997 0.75736 0.21045 0.0
C36 C 0.79545 0.76536 0.15251 0.0
C37 C 0.78573 0.71589 0.21277 0.0
O38 O 0.79932 0.72515 0.19049 0.0
O39 O 0.77844 0.72114 0.24492 0.0
O40 O 0.83315 0.75297 0.15718 0.0
O41 O 0.83174 0.75788 0.25639 0.0
O42 O 0.02962 0.24523 0.80275 0.0
Cd43 Cd 0.04457 0.25692 0.72921 0.0
Cd44 Cd 0.06531 0.25426 0.81501 0.0
O45 O 0.04494 0.24052 0.86388 0.0
O46 O 0.02959 0.25873 0.67189 0.0
O47 O 0.04064 0.24443 0.6496 0.0
C48 C 0.03097 0.24924 0.6345 0.0
C49 C 0.0839 0.24611 0.80299 0.0
C50 C 0.03159 0.23905 0.85138 0.0
C51 C 0.07222 0.28672 0.78097 0.0
O52 O 0.07447 0.27825 0.81963 0.0
O53 O 0.06195 0.28045 0.73818 0.0
O54 O 0.08151 0.25074 0.85589 0.0
O55 O 0.07532 0.24564 0.75646 0.0
O56 O 0.75659 0.78228 0.82457 0.0
Cd57 Cd 0.74157 0.78113 0.75568 0.0
Cd58 Cd 0.74588 0.80952 0.83137 0.0
O59 O 0.76037 0.80318 0.87846 0.0
O60 O 0.73904 0.76314 0.70372 0.0
O61 O 0.75101 0.78777 0.66982 0.0
C62 C 0.74658 0.77312 0.6602 0.0
C63 C 0.75247 0.83614 0.83801 0.0
C64 C 0.76305 0.7919 0.86916 0.0
C65 C 0.71281 0.78099 0.8098 0.0
O66 O 0.72178 0.79455 0.83289 0.0
O67 O 0.71836 0.77395 0.77791 0.0
O68 O 0.74762 0.82687 0.88532 0.0
O69 O 0.75414 0.83048 0.7862 0.0
O70 O 0.2122 0.97215 0.79497 0.0
Cd71 Cd 0.21462 0.95801 0.73109 0.0
Cd72 Cd 0.18725 0.93485 0.79785 0.0
O73 O 0.19209 0.9545 0.8503 0.0
O74 O 0.23092 0.97429 0.67588 0.0
O75 O 0.20696 0.95684 0.64324 0.0
C76 C 0.22064 0.96892 0.63185 0.0
C77 C 0.16067 0.91576 0.78348 0.0
C78 C 0.20269 0.9687 0.84011 0.0
C79 C 0.21622 0.93091 0.78906 0.0
O80 O 0.20197 0.92551 0.80579 0.0
O81 O 0.22365 0.94393 0.75998 0.0
O82 O 0.16746 0.91822 0.83683 0.0
O83 O 0.16891 0.92448 0.7375 0.0
O84 O 0.76201 0.97533 0.82628 0.0
Cd85 Cd 0.74727 0.96229 0.75516 0.0
Cd86 Cd 0.74653 0.93768 0.83132 0.0
O87 O 0.76151 0.9567 0.88596 0.0
O88 O 0.74873 0.97924 0.69959 0.0
O89 O 0.75738 0.96317 0.67195 0.0
C90 C 0.75567 0.97512 0.65911 0.0
C91 C 0.75226 0.91729 0.81765 0.0
C92 C 0.76632 0.97115 0.87485 0.0
C93 C 0.71576 0.93717 0.80709 0.0
O94 O 0.72292 0.9309 0.83341 0.0
O95 O 0.72326 0.94936 0.77322 0.0
O96 O 0.74734 0.91961 0.86999 0.0
O97 O 0.75421 0.92678 0.77243 0.0
O98 O 0.02672 0.77702 0.82568 0.0
Cd99 Cd 0.04009 0.77842 0.75029 0.0
Cd100 Cd 0.06194 0.80781 0.81498 0.0
O101 O 0.0412 0.80111 0.86366 0.0
O102 O 0.02526 0.76007 0.69858 0.0
O103 O 0.03522 0.78474 0.66719 0.0
C104 C 0.02613 0.76987 0.65675 0.0
C105 C 0.0803 0.83499 0.81418 0.0
C106 C 0.02871 0.78768 0.86418 0.0
C107 C 0.06991 0.78131 0.80076 0.0
O108 O 0.073 0.7945 0.824 0.0
O109 O 0.0578 0.77348 0.76699 0.0
O110 O 0.07669 0.8267 0.86414 0.0
O111 O 0.07314 0.82795 0.76363 0.0
O112 O 0.21838 0.24359 0.80561 0.0
Cd113 Cd 0.2154 0.25573 0.73309 0.0
Cd114 Cd 0.19078 0.25215 0.82411 0.0
O115 O 0.19816 0.23823 0.86699 0.0
O116 O 0.23366 0.2599 0.67927 0.0
O117 O 0.20895 0.2442 0.65053 0.0
C118 C 0.22382 0.25054 0.63862 0.0
C119 C 0.16398 0.24455 0.82889 0.0
C120 C 0.21011 0.23695 0.85356 0.0
C121 C 0.21595 0.28479 0.78765 0.0
O122 O 0.20557 0.27617 0.82718 0.0
O123 O 0.22007 0.27874 0.74441 0.0
O124 O 0.17289 0.24923 0.87732 0.0
O125 O 0.17017 0.24364 0.77709 0.0
O126 O 0.96928 0.74432 0.18824 0.0
Cd127 Cd 0.95597 0.73592 0.26695 0.0
Cd128 Cd 0.93508 0.74166 0.19309 0.0
O129 O 0.95541 0.75322 0.13943 0.0
O130 O 0.97096 0.73525 0.3277 0.0
O131 O 0.96045 0.75047 0.34034 0.0
C132 C 0.96989 0.74575 0.35995 0.0
C133 C 0.91768 0.75166 0.18838 0.0
C134 C 0.96749 0.75161 0.1431 0.0
C135 C 0.92624 0.70775 0.2261 0.0
O136 O 0.92338 0.71716 0.19549 0.0
O137 O 0.93825 0.71289 0.26111 0.0
O138 O 0.92029 0.74521 0.14126 0.0
O139 O 0.92527 0.75286 0.23902 0.0
O140 O 0.24562 0.21481 0.1807 0.0
Cd141 Cd 0.25898 0.21436 0.25312 0.0
Cd142 Cd 0.25654 0.18868 0.17814 0.0
O143 O 0.24347 0.19521 0.1225 0.0
O144 O 0.25877 0.2301 0.31096 0.0
O145 O 0.24748 0.20473 0.33349 0.0
C146 C 0.25045 0.21871 0.3487 0.0
C147 C 0.24874 0.16192 0.18627 0.0
C148 C 0.24046 0.20623 0.13256 0.0
C149 C 0.28908 0.21625 0.2077 0.0
O150 O 0.28067 0.20303 0.18126 0.0
O151 O 0.28281 0.22275 0.23865 0.0
O152 O 0.25437 0.1697 0.13548 0.0
O153 O 0.24688 0.1692 0.23269 0.0
O154 O 0.78744 0.03018 0.20008 0.0
Cd155 Cd 0.78995 0.0456 0.27068 0.0
Cd156 Cd 0.81493 0.06634 0.1813 0.0
O157 O 0.8082 0.04489 0.14097 0.0
O158 O 0.77194 0.03163 0.32584 0.0
O159 O 0.79681 0.04145 0.35417 0.0
C160 C 0.782 0.03271 0.3667 0.0
C161 C 0.84163 0.08584 0.176 0.0
C162 C 0.79616 0.03168 0.15381 0.0
C163 C 0.78895 0.0733 0.21107 0.0
O164 O 0.79977 0.0751 0.17369 0.0
O165 O 0.78469 0.06341 0.25542 0.0
O166 O 0.83278 0.08107 0.12744 0.0
O167 O 0.83545 0.07917 0.22841 0.0
O168 O 0.90612 0.36053 0.51123 0.0
Cd169 Cd 0.92317 0.37353 0.57544 0.0
Cd170 Cd 0.92366 0.39873 0.4968 0.0
O171 O 0.90695 0.37894 0.44936 0.0
O172 O 0.92077 0.3562 0.63088 0.0
O173 O 0.91714 0.3756 0.66323 0.0
C174 C 0.91695 0.36257 0.67482 0.0
C175 C 0.92039 0.42094 0.49403 0.0
C176 C 0.9013 0.36449 0.46353 0.0
C177 C 0.95402 0.39735 0.51664 0.0
O178 O 0.94702 0.4043 0.49481 0.0
O179 O 0.94659 0.3848 0.54857 0.0
O180 O 0.92445 0.41607 0.44571 0.0
O181 O 0.91785 0.41299 0.54483 0.0
O182 O 0.64265 0.55615 0.51408 0.0
Cd183 Cd 0.6277 0.55593 0.58118 0.0
Cd184 Cd 0.60572 0.52733 0.50926 0.0
O185 O 0.62669 0.53433 0.46259 0.0
O186 O 0.64193 0.57377 0.63616 0.0
O187 O 0.6301 0.54883 0.66651 0.0
C188 C 0.63963 0.56354 0.6784 0.0
C189 C 0.5873 0.50024 0.51011 0.0
C190 C 0.64025 0.54635 0.47099 0.0
C191 C 0.59862 0.55421 0.52384 0.0
O192 O 0.59497 0.54078 0.50179 0.0
O193 O 0.61091 0.56191 0.55688 0.0
O194 O 0.59096 0.50847 0.45996 0.0
O195 O 0.59451 0.50727 0.56062 0.0
O196 O 0.45283 0.0915 0.53486 0.0
Cd197 Cd 0.45559 0.0791 0.60689 0.0
Cd198 Cd 0.48012 0.08249 0.51452 0.0
O199 O 0.47284 0.09661 0.47254 0.0
O200 O 0.43724 0.07493 0.66016 0.0
O201 O 0.46189 0.0903 0.69025 0.0
C202 C 0.44699 0.08405 0.70152 0.0
C203 C 0.50689 0.08983 0.50715 0.0
C204 C 0.46101 0.09807 0.48662 0.0
C205 C 0.45436 0.04992 0.55033 0.0
O206 O 0.4649 0.05852 0.5112 0.0
O207 O 0.45044 0.05598 0.59418 0.0
O208 O 0.49767 0.08512 0.45962 0.0
O209 O 0.50102 0.09081 0.55965 0.0
O210 O 0.69472 0.57905 0.1394 0.0
Cd211 Cd 0.70833 0.59415 0.07034 0.0
Cd212 Cd 0.73244 0.59312 0.14275 0.0
O213 O 0.71313 0.57847 0.1969 0.0
O214 O 0.69197 0.59379 0.01437 0.0
O215 O 0.70757 0.58457 0.98629 0.0
C216 C 0.69597 0.58686 0.97339 0.0
C217 C 0.75196 0.58613 0.13075 0.0
C218 C 0.69874 0.57417 0.18672 0.0
C219 C 0.73452 0.62475 0.12378 0.0
O220 O 0.74056 0.61702 0.1468 0.0
O221 O 0.72192 0.61787 0.09175 0.0
O222 O 0.7497 0.59119 0.1828 0.0
O223 O 0.74294 0.58483 0.08463 0.0
O224 O 0.42398 0.11872 0.15985 0.0
Cd225 Cd 0.41054 0.11892 0.08719 0.0
Cd226 Cd 0.4124 0.14437 0.16307 0.0
O227 O 0.42571 0.13808 0.21846 0.0
O228 O 0.41114 0.10338 0.02935 0.0
O229 O 0.42208 0.12873 0.00703 0.0
C230 C 0.41937 0.11483 0.99177 0.0
C231 C 0.42003 0.17113 0.15518 0.0
C232 C 0.429 0.12726 0.20816 0.0
C233 C 0.38009 0.1164 0.13207 0.0
O234 O 0.3883 0.12961 0.15898 0.0
O235 O 0.38662 0.11015 0.10104 0.0
O236 O 0.41429 0.16327 0.20573 0.0
O237 O 0.42199 0.16391 0.10878 0.0
O238 O 0.87823 0.30939 0.13687 0.0
Cd239 Cd 0.8822 0.29625 0.073 0.0
Cd240 Cd 0.85744 0.27166 0.14593 0.0
O241 O 0.86053 0.29085 0.19784 0.0
O242 O 0.89764 0.31354 0.01866 0.0
O243 O 0.87464 0.29447 0.98447 0.0
C244 C 0.8877 0.30737 0.97382 0.0
C245 C 0.83163 0.25097 0.12937 0.0
C246 C 0.86947 0.30534 0.18466 0.0
C247 C 0.88848 0.27193 0.13222 0.0
O248 O 0.87435 0.26496 0.15213 0.0
O249 O 0.89393 0.28465 0.10121 0.0
O250 O 0.8383 0.25356 0.18305 0.0
O251 O 0.83954 0.26039 0.08446 0.0
O252 O 0.42738 0.31043 0.17198 0.0
Cd253 Cd 0.41251 0.29741 0.10134 0.0
Cd254 Cd 0.41317 0.27209 0.18106 0.0
O255 O 0.42747 0.29214 0.23232 0.0
O256 O 0.41115 0.31401 0.05279 0.0
O257 O 0.42205 0.30071 0.01513 0.0
C258 C 0.41831 0.31152 0.00799 0.0
C259 C 0.41918 0.25167 0.18569 0.0
C260 C 0.43193 0.30649 0.22056 0.0
C261 C 0.38174 0.2701 0.15214 0.0
O262 O 0.38931 0.2642 0.17781 0.0
O263 O 0.38883 0.28278 0.1208 0.0
O264 O 0.41366 0.25547 0.23273 0.0
O265 O 0.42166 0.25971 0.13521 0.0
O266 O 0.70058 0.11025 0.12688 0.0
Cd267 Cd 0.71506 0.11655 0.04952 0.0
Cd268 Cd 0.73321 0.14128 0.13564 0.0
O269 O 0.71125 0.13326 0.17469 0.0
O270 O 0.70201 0.09909 0.99057 0.0
O271 O 0.70842 0.12376 0.9724 0.0
C272 C 0.70112 0.10919 0.95509 0.0
C273 C 0.75194 0.16826 0.14292 0.0
C274 C 0.70014 0.11909 0.1692 0.0
C275 C 0.74366 0.11801 0.10325 0.0
O276 O 0.74311 0.12699 0.14458 0.0
O277 O 0.73501 0.11445 0.05517 0.0
O278 O 0.74712 0.15923 0.19096 0.0
O279 O 0.74568 0.16212 0.08994 0.0
O280 O 0.87854 0.5694 0.14703 0.0
Cd281 Cd 0.88205 0.58647 0.08352 0.0
Cd282 Cd 0.85598 0.58503 0.15963 0.0
O283 O 0.86024 0.56922 0.20784 0.0
O284 O 0.89822 0.58562 0.02988 0.0
O285 O 0.87506 0.58086 0.99422 0.0
C286 C 0.88847 0.58169 0.98428 0.0
C287 C 0.83 0.58042 0.16203 0.0
C288 C 0.86969 0.56429 0.19452 0.0
C289 C 0.88674 0.61636 0.1447 0.0
O290 O 0.87261 0.60867 0.16429 0.0
O291 O 0.89275 0.60965 0.11336 0.0
O292 O 0.83879 0.58452 0.21073 0.0
O293 O 0.8358 0.57848 0.11107 0.0
O294 O 0.64187 0.0876 0.48771 0.0
Cd295 Cd 0.62982 0.07722 0.56789 0.0
Cd296 Cd 0.60702 0.08242 0.50749 0.0
O297 O 0.62635 0.0961 0.45079 0.0
O298 O 0.64607 0.07724 0.62382 0.0
O299 O 0.63378 0.09046 0.64514 0.0
C300 C 0.64418 0.0866 0.66036 0.0
C301 C 0.58837 0.09057 0.52242 0.0
C302 C 0.63894 0.09535 0.44786 0.0
C303 C 0.60033 0.04865 0.52772 0.0
O304 O 0.59655 0.05804 0.50244 0.0
O305 O 0.61285 0.05388 0.55984 0.0
O306 O 0.59035 0.08573 0.46937 0.0
O307 O 0.59749 0.0914 0.56745 0.0
O308 O 0.90921 0.54959 0.52098 0.0
Cd309 Cd 0.92649 0.55393 0.58498 0.0
Cd310 Cd 0.9262 0.5287 0.51278 0.0
O311 O 0.9094 0.53106 0.46311 0.0
O312 O 0.92412 0.56879 0.64113 0.0
O313 O 0.92053 0.54571 0.67263 0.0
C314 C 0.9203 0.55851 0.68474 0.0
C315 C 0.92188 0.50299 0.52464 0.0
C316 C 0.90402 0.5402 0.47513 0.0
C317 C 0.95694 0.56023 0.52437 0.0
O318 O 0.94958 0.54611 0.50446 0.0
O319 O 0.94988 0.5657 0.55684 0.0
O320 O 0.92583 0.51025 0.47209 0.0
O321 O 0.92018 0.51031 0.57136 0.0
O322 O 0.45362 0.36519 0.54669 0.0
Cd323 Cd 0.45672 0.38073 0.6175 0.0
Cd324 Cd 0.47995 0.4008 0.53299 0.0
O325 O 0.47434 0.38015 0.48822 0.0
O326 O 0.44083 0.36619 0.67852 0.0
O327 O 0.46646 0.37828 0.69669 0.0
C328 C 0.45226 0.36839 0.71444 0.0
C329 C 0.50645 0.42001 0.54533 0.0
C330 C 0.46235 0.36686 0.50024 0.0
C331 C 0.45354 0.40705 0.55955 0.0
O332 O 0.46451 0.40917 0.52234 0.0
O333 O 0.44974 0.39738 0.60452 0.0
O334 O 0.49964 0.4169 0.49181 0.0
O335 O 0.49825 0.41187 0.59255 0.0
O336 O 0.57289 0.69188 0.83933 0.0
Cd337 Cd 0.58819 0.70275 0.91197 0.0
Cd338 Cd 0.58991 0.72972 0.85732 0.0
O339 O 0.57566 0.71315 0.79241 0.0
O340 O 0.58371 0.68494 0.96886 0.0
O341 O 0.58056 0.70502 0.99617 0.0
C342 C 0.57961 0.69174 0.0102 0.0
C343 C 0.58488 0.75051 0.87321 0.0
C344 C 0.56979 0.69829 0.79437 0.0
C345 C 0.62018 0.72846 0.87248 0.0
O346 O 0.61349 0.73633 0.8586 0.0
O347 O 0.61216 0.71444 0.89306 0.0
O348 O 0.59081 0.7489 0.82226 0.0
O349 O 0.58161 0.74014 0.91628 0.0
O350 O 0.30944 0.8872 0.84403 0.0
Cd351 Cd 0.29618 0.88817 0.91587 0.0
Cd352 Cd 0.27202 0.86359 0.84161 0.0
O353 O 0.29108 0.86855 0.78515 0.0
O354 O 0.31286 0.9038 0.97171 0.0
O355 O 0.29747 0.87886 0.99814 0.0
C356 C 0.30912 0.89266 0.01145 0.0
C357 C 0.25219 0.83725 0.85435 0.0
C358 C 0.30544 0.87868 0.79555 0.0
C359 C 0.26975 0.89284 0.86769 0.0
O360 O 0.26394 0.87939 0.84201 0.0
O361 O 0.28237 0.89836 0.89948 0.0
O362 O 0.25424 0.84463 0.80258 0.0
O363 O 0.26181 0.84472 0.89933 0.0
O364 O 0.11699 0.41967 0.85645 0.0
Cd365 Cd 0.11935 0.40703 0.92866 0.0
Cd366 Cd 0.14374 0.41041 0.84215 0.0
O367 O 0.13748 0.42494 0.79695 0.0
O368 O 0.10109 0.40316 0.98183 0.0
O369 O 0.12581 0.41824 0.01186 0.0
C370 C 0.11093 0.41221 0.02313 0.0
C371 C 0.17038 0.41803 0.85424 0.0
C372 C 0.12559 0.42641 0.80931 0.0
C373 C 0.11804 0.37783 0.87238 0.0
O374 O 0.1287 0.38651 0.83383 0.0
O375 O 0.11405 0.38385 0.91617 0.0
O376 O 0.16351 0.4141 0.80086 0.0
O377 O 0.16221 0.41815 0.90123 0.0
O378 O 0.36466 0.91737 0.46985 0.0
Cd379 Cd 0.38001 0.92993 0.39842 0.0
Cd380 Cd 0.40082 0.92639 0.48876 0.0
O381 O 0.37947 0.91162 0.52971 0.0
O382 O 0.36594 0.93377 0.34319 0.0
O383 O 0.37566 0.91857 0.31572 0.0
C384 C 0.36692 0.92463 0.30285 0.0
C385 C 0.42063 0.91961 0.49385 0.0
C386 C 0.36621 0.91033 0.51664 0.0
C387 C 0.40765 0.95901 0.45585 0.0
O388 O 0.40934 0.95027 0.49501 0.0
O389 O 0.3979 0.95308 0.41121 0.0
O390 O 0.41589 0.92376 0.54235 0.0
O391 O 0.41372 0.91877 0.44168 0.0
O392 O 0.08965 0.44774 0.48211 0.0
Cd393 Cd 0.0763 0.44834 0.40993 0.0
Cd394 Cd 0.07992 0.47469 0.48138 0.0
O395 O 0.09295 0.4682 0.53752 0.0
O396 O 0.07621 0.43258 0.35147 0.0
O397 O 0.08785 0.45804 0.32983 0.0
C398 C 0.08467 0.44402 0.31409 0.0
C399 C 0.08839 0.50151 0.4685 0.0
C400 C 0.09538 0.45674 0.52889 0.0
C401 C 0.04681 0.44754 0.45563 0.0
O402 O 0.0557 0.46085 0.48076 0.0
O403 O 0.05259 0.44053 0.42493 0.0
O404 O 0.08296 0.49438 0.52067 0.0
O405 O 0.08969 0.49353 0.42338 0.0
O406 O 0.54335 0.63911 0.48743 0.0
Cd407 Cd 0.54744 0.62792 0.41509 0.0
Cd408 Cd 0.52266 0.60038 0.47772 0.0
O409 O 0.52619 0.61802 0.53945 0.0
O410 O 0.56136 0.64588 0.35964 0.0
O411 O 0.53829 0.62611 0.32945 0.0
C412 C 0.55087 0.63931 0.3168 0.0
C413 C 0.49678 0.57877 0.4786 0.0
C414 C 0.53473 0.6329 0.5349 0.0
C415 C 0.55448 0.60263 0.45567 0.0
O416 O 0.54006 0.59439 0.47136 0.0
O417 O 0.55994 0.61653 0.43456 0.0
O418 O 0.50623 0.58202 0.52483 0.0
O419 O 0.50199 0.58778 0.43037 0.0
O420 O 0.09409 0.6406 0.48636 0.0
Cd421 Cd 0.07975 0.62887 0.41199 0.0
Cd422 Cd 0.08054 0.60206 0.47385 0.0
O423 O 0.09317 0.62033 0.53547 0.0
O424 O 0.08269 0.64629 0.35517 0.0
O425 O 0.08867 0.62805 0.32842 0.0
C426 C 0.08813 0.6406 0.31431 0.0
C427 C 0.08649 0.58159 0.48164 0.0
C428 C 0.0977 0.63495 0.53252 0.0
C429 C 0.04887 0.60044 0.44667 0.0
O430 O 0.05674 0.59387 0.46235 0.0
O431 O 0.05573 0.61469 0.42818 0.0
O432 O 0.07946 0.58465 0.52524 0.0
O433 O 0.09033 0.59023 0.4323 0.0
O434 O 0.36238 0.44211 0.47573 0.0
Cd435 Cd 0.37515 0.44518 0.39495 0.0
Cd436 Cd 0.39551 0.47198 0.46288 0.0
O437 O 0.37477 0.46691 0.50664 0.0
O438 O 0.36024 0.42702 0.34251 0.0
O439 O 0.36843 0.45174 0.31648 0.0
C440 C 0.35989 0.4369 0.30402 0.0
C441 C 0.41501 0.49846 0.45003 0.0
C442 C 0.36326 0.45293 0.51103 0.0
C443 C 0.40417 0.44694 0.44435 0.0
O444 O 0.40486 0.45748 0.48073 0.0
O445 O 0.39447 0.442 0.39939 0.0
O446 O 0.41132 0.49184 0.50385 0.0
O447 O 0.40713 0.49016 0.40265 0.0
O448 O 0.54948 0.90911 0.50118 0.0
Cd449 Cd 0.55446 0.92413 0.42717 0.0
Cd450 Cd 0.52803 0.92566 0.48393 0.0
O451 O 0.53101 0.91184 0.54893 0.0
O452 O 0.57077 0.921 0.38416 0.0
O453 O 0.5484 0.91597 0.33926 0.0
C454 C 0.56161 0.91602 0.33653 0.0
C455 C 0.50197 0.92011 0.46959 0.0
C456 C 0.54011 0.90609 0.54658 0.0
C457 C 0.55935 0.95601 0.46619 0.0
O458 O 0.54484 0.94927 0.48093 0.0
O459 O 0.56547 0.94809 0.44554 0.0
O460 O 0.50962 0.92623 0.52013 0.0
O461 O 0.5091 0.91701 0.42608 0.0
O462 O 0.30221 0.41089 0.83733 0.0
Cd463 Cd 0.28848 0.40459 0.91681 0.0
Cd464 Cd 0.2697 0.40921 0.83132 0.0
O465 O 0.29094 0.42211 0.78576 0.0
O466 O 0.3027 0.40303 0.97922 0.0
O467 O 0.29474 0.42043 0.98712 0.0
C468 C 0.30304 0.4146 0.0089 0.0
C469 C 0.25108 0.41763 0.82699 0.0
C470 C 0.30208 0.41911 0.79182 0.0
C471 C 0.25979 0.3762 0.87282 0.0
O472 O 0.25967 0.38492 0.82932 0.0
O473 O 0.26902 0.38221 0.91889 0.0
O474 O 0.25489 0.41254 0.77861 0.0
O475 O 0.2583 0.41852 0.87842 0.0
O476 O 0.57885 0.88419 0.84546 0.0
Cd477 Cd 0.59355 0.88818 0.91967 0.0
Cd478 Cd 0.59154 0.85858 0.86301 0.0
O479 O 0.57808 0.86333 0.8022 0.0
O480 O 0.59183 0.90507 0.96464 0.0
O481 O 0.58455 0.88172 0.00606 0.0
C482 C 0.58574 0.89544 0.01056 0.0
C483 C 0.58635 0.83242 0.85647 0.0
C484 C 0.57412 0.87386 0.80285 0.0
C485 C 0.62369 0.88882 0.88559 0.0
O486 O 0.61537 0.8743 0.87174 0.0
O487 O 0.61736 0.89679 0.90315 0.0
O488 O 0.59282 0.84235 0.81196 0.0
O489 O 0.58254 0.8372 0.90594 0.0
O490 O 0.12328 0.69535 0.8391 0.0
Cd491 Cd 0.11969 0.70649 0.91324 0.0
Cd492 Cd 0.14478 0.73432 0.84703 0.0
O493 O 0.14039 0.7163 0.7859 0.0
O494 O 0.10554 0.68837 0.9681 0.0
O495 O 0.1288 0.70769 0.99871 0.0
C496 C 0.11608 0.69457 0.01095 0.0
C497 C 0.17046 0.75626 0.83958 0.0
C498 C 0.13164 0.70144 0.79083 0.0
C499 C 0.11323 0.73241 0.87429 0.0
O500 O 0.12753 0.74039 0.85687 0.0
O501 O 0.10766 0.7185 0.89567 0.0
O502 O 0.16025 0.75242 0.79582 0.0
O503 O 0.1662 0.74757 0.88883 0.0
H504 H 0.23707 1.00021 0.61145 0.0
H505 H 0.21239 0.95546 0.51702 0.0
H506 H 0.21978 0.96895 0.41613 0.0
H507 H 0.23373 0.99351 0.35539 0.0
H508 H 0.25605 0.03834 0.4498 0.0
H509 H 0.24907 0.02484 0.55068 0.0
C510 C 0.23333 0.99345 0.56864 0.0
C511 C 0.22441 0.97691 0.57115 0.0
C512 C 0.23719 0.00131 0.51124 0.0
C513 C 0.21931 0.96822 0.51581 0.0
C514 C 0.22356 0.97592 0.45835 0.0
C515 C 0.23704 1.00028 0.39819 0.0
C516 C 0.24554 0.01684 0.39567 0.0
C517 C 0.23257 0.99245 0.45558 0.0
C518 C 0.24952 0.02557 0.451 0.0
C519 C 0.24557 0.01786 0.50847 0.0
H520 H 0.01585 0.26261 0.57869 0.0
H521 H 0.02373 0.22313 0.56419 0.0
H522 H 0.00555 0.2129 0.47573 0.0
H523 H 0.98732 0.2153 0.4024 0.0
H524 H 0.98124 0.25592 0.41366 0.0
H525 H 0.99859 0.26548 0.50433 0.0
C526 C 0.01363 0.25178 0.5561 0.0
C527 C 0.02109 0.24362 0.57798 0.0
C528 C 0.00333 0.2461 0.50522 0.0
C529 C 0.0182 0.22968 0.54791 0.0
C530 C 0.00773 0.22378 0.49765 0.0
C531 C 0.98967 0.22612 0.42543 0.0
C532 C 0.98289 0.23481 0.40232 0.0
C533 C 1.00015 0.23185 0.47612 0.0
C534 C 0.98628 0.24901 0.43119 0.0
C535 C 0.99623 0.25451 0.48275 0.0
H536 H 0.75252 0.7391 0.42221 0.0
H537 H 0.80107 0.77621 0.4361 0.0
H538 H 0.79456 0.78706 0.5266 0.0
H539 H 0.77483 0.7861 0.60132 0.0
H540 H 0.72688 0.74763 0.59183 0.0
H541 H 0.73326 0.73731 0.49942 0.0
C542 C 0.76169 0.74952 0.44526 0.0
C543 C 0.77723 0.75687 0.42248 0.0
C544 C 0.7579 0.75555 0.4975 0.0
C545 C 0.78903 0.77028 0.45308 0.0
C546 C 0.78529 0.77655 0.5045 0.0
C547 C 0.7658 0.77557 0.57835 0.0
C548 C 0.75036 0.76774 0.60222 0.0
C549 C 0.76973 0.76936 0.52681 0.0
C550 C 0.7388 0.75388 0.57355 0.0
C551 C 0.74246 0.74796 0.52103 0.0
H552 H 0.747 0.9947 0.60677 0.0
H553 H 0.77885 0.97664 0.58304 0.0
H554 H 0.79082 0.99392 0.4929 0.0
H555 H 0.79218 0.01432 0.42073 0.0
H556 H 0.75875 0.03052 0.44082 0.0
H557 H 0.7476 0.01404 0.53321 0.0
C558 C 0.75653 0.9945 0.58176 0.0
C559 C 0.76206 0.98445 0.60157 0.0
C560 C 0.76319 0.0043 0.52985 0.0
C561 C 0.77432 0.98421 0.5684 0.0
C562 C 0.78124 0.99417 0.51717 0.0
C563 C 0.7826 0.01434 0.44606 0.0
C564 C 0.77642 0.02376 0.42508 0.0
C565 C 0.77583 0.00434 0.49768 0.0
C566 C 0.76374 0.02344 0.45682 0.0
C567 C 0.75733 0.01398 0.50934 0.0
H568 H 0.01248 0.78354 0.58984 0.0
H569 H 0.01821 0.74265 0.59685 0.0
H570 H 1.00132 0.73163 0.50571 0.0
H571 H 0.98465 0.73334 0.42527 0.0
H572 H 0.97721 0.77321 0.4207 0.0
H573 H 0.99485 0.78482 0.51011 0.0
C574 C 0.01012 0.7723 0.57086 0.0
C575 C 0.01667 0.76396 0.59946 0.0
C576 C 0.99996 0.76578 0.51947 0.0
C577 C 0.01331 0.74928 0.57541 0.0
C578 C 0.00364 0.74296 0.52343 0.0
C579 C 0.98685 0.74457 0.44385 0.0
C580 C 0.97967 0.75242 0.41632 0.0
C581 C 0.99682 0.75105 0.49539 0.0
C582 C 0.98254 0.76689 0.44129 0.0
C583 C 0.99269 0.77357 0.49217 0.0
H584 H 0.2603 0.24681 0.40464 0.0
H585 H 0.22568 0.19738 0.41972 0.0
H586 H 0.21351 0.20298 0.50839 0.0
H587 H 0.21272 0.22215 0.58154 0.0
H588 H 0.24864 0.27116 0.56955 0.0
H589 H 0.26016 0.26559 0.47904 0.0
C590 C 0.25013 0.23723 0.42745 0.0
C591 C 0.24388 0.22172 0.40562 0.0
C592 C 0.24331 0.24052 0.47845 0.0
C593 C 0.23077 0.20943 0.43595 0.0
C594 C 0.22374 0.21264 0.48634 0.0
C595 C 0.22294 0.23158 0.55842 0.0
C596 C 0.22973 0.24707 0.58128 0.0
C597 C 0.22985 0.22817 0.50775 0.0
C598 C 0.2432 0.25917 0.55225 0.0
C599 C 0.24981 0.25599 0.50076 0.0
H600 H 0.90054 0.3313 0.69648 0.0
H601 H 0.92231 0.37638 0.7891 0.0
H602 H 0.91528 0.36312 0.89045 0.0
H603 H 0.90349 0.33867 0.95217 0.0
H604 H 0.87961 0.29363 0.85938 0.0
H605 H 0.88683 0.30688 0.75806 0.0
C606 C 0.90372 0.33819 0.73897 0.0
C607 C 0.91209 0.35475 0.73578 0.0
C608 C 0.89926 0.33049 0.79664 0.0
C609 C 0.91589 0.36361 0.79076 0.0
C610 C 0.91191 0.35604 0.84852 0.0
C611 C 0.89987 0.33179 0.90965 0.0
C612 C 0.89122 0.31523 0.91281 0.0
C613 C 0.9037 0.33949 0.85194 0.0
C614 C 0.8863 0.30639 0.85776 0.0
C615 C 0.89046 0.31396 0.80002 0.0
H616 H 0.6567 0.55207 0.73329 0.0
H617 H 0.64271 0.58719 0.75243 0.0
H618 H 0.65904 0.5976 0.84572 0.0
H619 H 0.67764 0.597 0.92029 0.0
H620 H 0.69359 0.56344 0.89689 0.0
H621 H 0.67641 0.55227 0.80602 0.0
C622 C 0.65712 0.56186 0.75863 0.0
C623 C 0.64836 0.56872 0.73725 0.0
C624 C 0.66706 0.56819 0.81059 0.0
C625 C 0.64926 0.58167 0.76888 0.0
C626 C 0.65864 0.58765 0.82185 0.0
C627 C 0.6774 0.58728 0.89515 0.0
C628 C 0.68682 0.58102 0.91525 0.0
C629 C 0.66768 0.58108 0.84278 0.0
C630 C 0.68651 0.56853 0.88197 0.0
C631 C 0.67661 0.56207 0.83035 0.0
H632 H 0.45774 0.11231 0.75931 0.0
H633 H 0.42227 0.06312 0.77012 0.0
H634 H 0.41051 0.06834 0.86073 0.0
H635 H 0.40998 0.08687 0.93542 0.0
H636 H 0.4441 0.13647 0.92139 0.0
H637 H 0.45657 0.13121 0.83281 0.0
C638 C 0.44757 0.10276 0.78221 0.0
C639 C 0.44098 0.08732 0.75901 0.0
C640 C 0.4405 0.10597 0.83291 0.0
C641 C 0.42756 0.07506 0.78773 0.0
C642 C 0.42081 0.07805 0.83926 0.0
C643 C 0.42012 0.09656 0.91287 0.0
C644 C 0.42613 0.11203 0.93495 0.0
C645 C 0.42709 0.09347 0.86189 0.0
C646 C 0.43919 0.12446 0.90495 0.0
C647 C 0.44639 0.12145 0.85462 0.0
H648 H 0.42477 0.35379 0.77756 0.0
H649 H 0.47227 0.36169 0.77944 0.0
H650 H 0.46567 0.34377 0.86827 0.0
H651 H 0.44608 0.32548 0.94475 0.0
H652 H 0.39931 0.31945 0.94627 0.0
H653 H 0.40581 0.3368 0.85601 0.0
C654 C 0.43371 0.35167 0.79761 0.0
C655 C 0.44896 0.359 0.77197 0.0
C656 C 0.42987 0.34151 0.84871 0.0
C657 C 0.46047 0.35625 0.79872 0.0
C658 C 0.45666 0.34592 0.84914 0.0
C659 C 0.43732 0.32788 0.92464 0.0
C660 C 0.42218 0.32107 0.95108 0.0
C661 C 0.44135 0.33836 0.87418 0.0
C662 C 0.41099 0.32451 0.92605 0.0
C663 C 0.41472 0.33445 0.87474 0.0
H664 H 0.68501 0.1218 0.89788 0.0
H665 H 0.69596 0.08434 0.88367 0.0
H666 H 0.67942 0.07417 0.79129 0.0
H667 H 0.66152 0.07554 0.71573 0.0
H668 H 0.64897 0.11182 0.73189 0.0
H669 H 0.66629 0.12274 0.82258 0.0
C670 C 0.68386 0.11151 0.87406 0.0
C671 C 0.69178 0.1039 0.89716 0.0
C672 C 0.67393 0.10543 0.82176 0.0
C673 C 0.68999 0.09041 0.86667 0.0
C674 C 0.68052 0.08457 0.81391 0.0
C675 C 0.66256 0.08584 0.73904 0.0
C676 C 0.65401 0.09288 0.71698 0.0
C677 C 0.67235 0.09191 0.79133 0.0
C678 C 0.65538 0.10614 0.7481 0.0
C679 C 0.66534 0.11243 0.79978 0.0
H680 H 0.90322 0.57269 0.70672 0.0
H681 H 0.92586 0.55016 0.79889 0.0
H682 H 0.9182 0.55568 0.90033 0.0
H683 H 0.90543 0.56735 0.96236 0.0
H684 H 0.88057 0.58753 0.86977 0.0
H685 H 0.88865 0.58245 0.76844 0.0
C686 C 0.90647 0.56902 0.74914 0.0
C687 C 0.91525 0.56124 0.74578 0.0
C688 C 0.90161 0.5718 0.80685 0.0
C689 C 0.91914 0.55621 0.80066 0.0
C690 C 0.91479 0.55939 0.85848 0.0
C691 C 0.90179 0.57061 0.91988 0.0
C692 C 0.8926 0.57796 0.92316 0.0
C693 C 0.90609 0.56724 0.86208 0.0
C694 C 0.88767 0.58188 0.8681 0.0
C695 C 0.89232 0.57902 0.81034 0.0
H696 H 0.56598 0.67048 0.29065 0.0
H697 H 0.5417 0.62459 0.20459 0.0
H698 H 0.54838 0.63685 0.10141 0.0
H699 H 0.56231 0.66063 0.03615 0.0
H700 H 0.58466 0.70657 0.12197 0.0
H701 H 0.57749 0.69432 0.22511 0.0
C702 C 0.56208 0.6632 0.24919 0.0
C703 C 0.55352 0.64668 0.25488 0.0
C704 C 0.56566 0.67034 0.19028 0.0
C705 C 0.54829 0.63733 0.20111 0.0
C706 C 0.55217 0.64433 0.14225 0.0
C707 C 0.56552 0.66793 0.07754 0.0
C708 C 0.57415 0.68444 0.07187 0.0
C709 C 0.56103 0.66081 0.13634 0.0
C710 C 0.57803 0.69382 0.12547 0.0
C711 C 0.57398 0.68683 0.18431 0.0
H712 H 0.34895 0.896 0.24864 0.0
H713 H 0.3642 0.94541 0.2292 0.0
H714 H 0.34756 0.93983 0.13722 0.0
H715 H 0.32833 0.92095 0.06399 0.0
H716 H 0.31126 0.87121 0.08669 0.0
H717 H 0.3287 0.87678 0.17646 0.0
C718 C 0.34873 0.9055 0.22354 0.0
C719 C 0.35791 0.92111 0.24464 0.0
C720 C 0.33864 0.90212 0.17211 0.0
C721 C 0.35729 0.93334 0.21314 0.0
C722 C 0.34775 0.93015 0.16086 0.0
C723 C 0.32838 0.91131 0.08867 0.0
C724 C 0.31856 0.8957 0.06872 0.0
C725 C 0.33828 0.91458 0.1403 0.0
C726 C 0.31865 0.88333 0.10146 0.0
C727 C 0.3287 0.88651 0.15247 0.0
H728 H 0.07447 0.416 0.25699 0.0
H729 H 0.10968 0.46528 0.24394 0.0
H730 H 0.12178 0.45965 0.15512 0.0
H731 H 0.12235 0.44049 0.0813 0.0
H732 H 0.08586 0.39166 0.09123 0.0
H733 H 0.0744 0.39725 0.18188 0.0
C734 C 0.08476 0.42554 0.23458 0.0
C735 C 0.09119 0.44102 0.25703 0.0
C736 C 0.09153 0.42223 0.1835 0.0
C737 C 0.10445 0.45327 0.22722 0.0
C738 C 0.11143 0.45004 0.17675 0.0
C739 C 0.11202 0.4311 0.104 0.0
C740 C 0.10505 0.41566 0.08054 0.0
C741 C 0.10514 0.43453 0.15474 0.0
C742 C 0.09144 0.40361 0.10902 0.0
C743 C 0.08486 0.40681 0.16058 0.0
H744 H 0.10424 0.67191 0.29038 0.0
H745 H 0.08389 0.62645 0.20148 0.0
H746 H 0.09082 0.63918 0.09914 0.0
H747 H 0.1017 0.66329 0.03505 0.0
H748 H 0.12435 0.7088 0.12427 0.0
H749 H 0.11763 0.69608 0.22661 0.0
C750 C 0.10141 0.66483 0.24849 0.0
C751 C 0.09342 0.64829 0.25308 0.0
C752 C 0.10584 0.67225 0.19012 0.0
C753 C 0.09004 0.6392 0.19883 0.0
C754 C 0.09395 0.64647 0.14043 0.0
C755 C 0.10523 0.67039 0.07703 0.0
C756 C 0.11334 0.68693 0.07244 0.0
C757 C 0.1017 0.66298 0.13551 0.0
C758 C 0.1181 0.69604 0.12688 0.0
C759 C 0.11421 0.68877 0.18528 0.0
H760 H 0.347 0.45152 0.23744 0.0
H761 H 0.35 0.40904 0.24561 0.0
H762 H 0.33267 0.39848 0.15569 0.0
H763 H 0.31654 0.40107 0.07534 0.0
H764 H 0.31214 0.44274 0.06807 0.0
H765 H 0.32997 0.45378 0.15733 0.0
C766 C 0.34392 0.44001 0.21913 0.0
C767 C 0.34985 0.43111 0.2479 0.0
C768 C 0.33359 0.4338 0.16797 0.0
C769 C 0.34559 0.41612 0.22434 0.0
C770 C 0.33566 0.41005 0.17293 0.0
C771 C 0.31944 0.41257 0.09325 0.0
C772 C 0.31306 0.42108 0.06496 0.0
C773 C 0.32955 0.41874 0.14458 0.0
C774 C 0.31685 0.43591 0.08915 0.0
C775 C 0.3271 0.44226 0.14 0.0
H776 H 0.55777 0.92091 0.21512 0.0
H777 H 0.5759 0.89845 0.33538 0.0
H778 H 0.58415 0.88915 0.24508 0.0
H779 H 0.58686 0.88801 0.13147 0.0
H780 H 0.5715 0.91308 0.01191 0.0
H781 H 0.56155 0.92077 0.10176 0.0
C782 C 0.56344 0.91389 0.22125 0.0
C783 C 0.56613 0.91023 0.28144 0.0
C784 C 0.56871 0.90912 0.16918 0.0
C785 C 0.57373 0.90139 0.28923 0.0
C786 C 0.57843 0.89607 0.23769 0.0
C787 C 0.58127 0.8951 0.12532 0.0
C788 C 0.57982 0.89992 0.06542 0.0
C789 C 0.57608 0.89995 0.17741 0.0
C790 C 0.57278 0.90929 0.05781 0.0
C791 C 0.56705 0.91366 0.10909 0.0
H792 H 0.19683 0.96562 0.96395 0.0
H793 H 0.21526 0.99997 0.81611 0.0
H794 H 0.22491 0.02137 0.89194 0.0
H795 H 0.23152 0.03019 -1e-05 0.0
H796 H 0.21524 0.99575 0.14768 0.0
H797 H 0.20119 0.97456 0.07249 0.0
C798 C 0.20259 0.97779 0.94839 0.0
C799 C 0.20543 0.98125 0.88473 0.0
C800 C 0.20869 0.99003 0.99233 0.0
C801 C 0.21305 0.99705 0.86505 0.0
C802 C 0.21862 0.00929 0.90835 0.0
C803 C 0.22461 0.01808 0.01582 0.0
C804 C 0.22455 0.01452 0.07913 0.0
C805 C 0.21704 0.00591 0.97214 0.0
C806 C 0.21561 0.99877 0.099 0.0
C807 C 0.20759 0.98664 0.05605 0.0
H808 H 0.96893 0.20901 0.00892 0.0
H809 H 0.00282 0.22576 0.15842 0.0
H810 H 0.02433 0.23341 0.08398 0.0
H811 H 0.03365 0.23739 0.97617 0.0
H812 H 1.00009 0.22328 0.82598 0.0
H813 H 0.97828 0.21244 0.90059 0.0
C814 C 0.98102 0.21412 0.02503 0.0
C815 C 0.98435 0.21682 0.0888 0.0
C816 C 0.99336 0.21905 0.98181 0.0
C817 C 1.00004 0.22365 0.10936 0.0
C818 C 0.01232 0.22802 0.06689 0.0
C819 C 0.02155 0.23171 0.95983 0.0
C820 C 0.01844 0.23108 0.89586 0.0
C821 C 0.00915 0.22608 0.00296 0.0
C822 C 0.00273 0.22393 0.87517 0.0
C823 C 0.99028 0.21774 0.91775 0.0
H824 H 0.76679 0.79849 0.99235 0.0
H825 H 0.78109 0.77857 0.84448 0.0
H826 H 0.79461 0.77061 0.9193 0.0
H827 H 0.7997 0.76664 0.02784 0.0
H828 H 0.78282 0.78399 0.17613 0.0
H829 H 0.77317 0.79582 0.10042 0.0
C830 C 0.77313 0.79268 0.9765 0.0
C831 C 0.77294 0.78908 0.91319 0.0
C832 C 0.78032 0.78759 0.02001 0.0
C833 C 0.78101 0.78137 0.89318 0.0
C834 C 0.78873 0.77681 0.93589 0.0
C835 C 0.79422 0.77331 0.04339 0.0
C836 C 0.79197 0.77449 0.1072 0.0
C837 C 0.78808 0.77947 -0.0004 0.0
C838 C 0.78462 0.78292 0.12705 0.0
C839 C 0.77907 0.78965 0.08385 0.0
H840 H 0.76425 0.96848 0.00023 0.0
H841 H 0.78942 0.00119 0.852 0.0
H842 H 0.80248 0.02264 0.92716 0.0
H843 H 0.80446 0.03256 0.03312 0.0
H844 H 0.77729 1.0004 0.18025 0.0
H845 H 0.76735 0.97825 0.10769 0.0
C846 C 0.77286 0.98025 0.98473 0.0
C847 C 0.77594 0.98331 0.92094 0.0
C848 C 0.77979 0.99264 0.02792 0.0
C849 C 0.78689 0.99862 0.90104 0.0
C850 C 0.79431 0.01087 0.9439 0.0
C851 C 0.79657 0.02067 0.04954 0.0
C852 C 0.79156 0.01812 0.11183 0.0
C853 C 0.7905 0.0081 0.00721 0.0
C854 C 0.78121 0.00267 0.13233 0.0
C855 C 0.77553 0.99001 0.0909 0.0
H856 H 0.01367 0.76025 0.92486 0.0
H857 H 0.01816 0.80629 0.91642 0.0
H858 H 0.99881 0.79902 0.00099 0.0
H859 H 0.98079 0.77932 0.07836 0.0
H860 H 0.97911 0.73454 0.09181 0.0
H861 H 0.99719 0.74149 0.00414 0.0
C862 C 0.01031 0.76864 0.94128 0.0
C863 C 0.01706 0.78366 0.91422 0.0
C864 C 0.99975 0.76459 0.9909 0.0
C865 C 0.01298 0.79461 0.93667 0.0
C866 C 0.00195 0.79046 0.98486 0.0
C867 C 0.98443 0.77116 0.06179 0.0
C868 C 0.97867 0.75645 0.09101 0.0
C869 C 0.99528 0.77546 0.01249 0.0
C870 C 0.98352 0.74597 0.07002 0.0
C871 C 0.99379 0.7499 0.01987 0.0
H872 H 0.24174 0.20512 0.0068 0.0
H873 H 0.21938 0.21577 0.15708 0.0
H874 H 0.2066 0.2247 0.08288 0.0
H875 H 0.20364 0.23161 0.97639 0.0
H876 H 0.228 0.22346 0.82648 0.0
H877 H 0.2381 0.21137 0.89912 0.0
C878 C 0.23384 0.20915 0.02297 0.0
C879 C 0.23143 0.20977 0.08703 0.0
C880 C 0.22704 0.21485 0.98018 0.0
C881 C 0.22141 0.21524 0.10782 0.0
C882 C 0.21413 0.22036 0.0655 0.0
C883 C 0.21098 0.22699 0.95948 0.0
C884 C 0.21508 0.22842 0.89627 0.0
C885 C 0.21714 0.22055 0.00171 0.0
C886 C 0.22475 0.22256 0.87509 0.0
C887 C 0.23052 0.21564 0.91656 0.0
H888 H 0.89637 0.36723 0.34086 0.0
H889 H 0.88182 0.33343 0.49053 0.0
H890 H 0.868 0.31183 0.41692 0.0
H891 H 0.86379 0.30247 0.30898 0.0
H892 H 0.88013 0.33628 0.15903 0.0
H893 H 0.8892 0.35787 0.23358 0.0
C894 C 0.88985 0.35516 0.35753 0.0
C895 C 0.89032 0.35193 0.4209 0.0
C896 C 0.88237 0.34275 0.31469 0.0
C897 C 0.88182 0.33622 0.44179 0.0
C898 C 0.87393 0.32385 0.39972 0.0
C899 C 0.86894 0.31453 0.29263 0.0
C900 C 0.87146 0.31779 0.22871 0.0
C901 C 0.87468 0.32694 0.33583 0.0
C902 C 0.87822 0.33349 0.20814 0.0
C903 C 0.88347 0.34585 0.25073 0.0
H904 H 0.70221 0.57468 0.31153 0.0
H905 H 0.66795 0.55274 0.16498 0.0
H906 H 0.6468 0.54016 0.24182 0.0
H907 H 0.63776 0.53814 0.34959 0.0
H908 H 0.67176 0.56248 0.49502 0.0
H909 H 0.69332 0.57127 0.42006 0.0
C910 C 0.69015 0.56685 0.29664 0.0
C911 C 0.68658 0.56461 0.23296 0.0
C912 C 0.678 0.56026 0.3409 0.0
C913 C 0.67091 0.55465 0.21394 0.0
C914 C 0.65884 0.54751 0.25778 0.0
C915 C 0.64991 0.54511 0.36497 0.0
C916 C 0.6532 0.54973 0.42749 0.0
C917 C 0.66218 0.55063 0.32126 0.0
C918 C 0.66897 0.5589 0.44688 0.0
C919 C 0.68128 0.56393 0.4041 0.0
H920 H 0.42842 0.12901 0.33405 0.0
H921 H 0.45004 0.1177 0.18293 0.0
H922 H 0.46336 0.1093 0.25673 0.0
H923 H 0.46696 0.10297 0.36332 0.0
H924 H 0.44338 0.11181 0.51436 0.0
H925 H 0.4328 0.12345 0.44181 0.0
C926 C 0.43626 0.12495 0.31756 0.0
C927 C 0.43829 0.12397 0.25338 0.0
C928 C 0.44341 0.11957 0.36021 0.0
C929 C 0.44828 0.11848 0.23226 0.0
C930 C 0.45588 0.11367 0.27437 0.0
C931 C 0.45971 0.10767 0.38048 0.0
C932 C 0.45595 0.10653 0.44401 0.0
C933 C 0.45325 0.11383 0.33834 0.0
C934 C 0.44637 0.11248 0.46552 0.0
C935 C 0.44032 0.11913 0.4241 0.0
H936 H 0.43079 0.30384 0.34595 0.0
H937 H 0.45404 0.3369 0.19664 0.0
H938 H 0.46716 0.3584 0.27158 0.0
H939 H 0.46977 0.36816 0.37828 0.0
H940 H 0.44442 0.33553 0.52667 0.0
H941 H 0.43445 0.31348 0.45363 0.0
C942 C 0.43899 0.31571 0.33009 0.0
C943 C 0.4415 0.31884 0.26612 0.0
C944 C 0.44596 0.32809 0.37323 0.0
C945 C 0.45193 0.33427 0.24581 0.0
C946 C 0.45939 0.34655 0.28856 0.0
C947 C 0.46227 0.35619 0.39477 0.0
C948 C 0.45779 0.35346 0.45761 0.0
C949 C 0.45615 0.34366 0.35222 0.0
C950 C 0.44794 0.33792 0.47831 0.0
C951 C 0.44224 0.32532 0.43662 0.0
H952 H 0.68772 0.13407 0.23573 0.0
H953 H 0.68431 0.08878 0.20842 0.0
H954 H 0.66515 0.07758 0.29261 0.0
H955 H 0.6502 0.08083 0.37676 0.0
H956 H 0.6514 0.12512 0.3999 0.0
H957 H 0.67058 0.13662 0.31447 0.0
C958 C 0.68267 0.12173 0.24808 0.0
C959 C 0.68748 0.11228 0.21628 0.0
C960 C 0.67136 0.11525 0.29584 0.0
C961 C 0.68074 0.09627 0.23206 0.0
C962 C 0.66985 0.08987 0.28039 0.0
C963 C 0.65467 0.093 0.36286 0.0
C964 C 0.64969 0.10225 0.39467 0.0
C965 C 0.66523 0.09928 0.313 0.0
C966 C 0.6552 0.11787 0.37587 0.0
C967 C 0.66615 0.12441 0.32726 0.0
H968 H 0.89914 0.53201 0.35305 0.0
H969 H 0.88394 0.55111 0.50108 0.0
H970 H 0.86924 0.55768 0.42688 0.0
H971 H 0.86429 0.5618 0.31874 0.0
H972 H 0.88152 0.54488 0.16996 0.0
H973 H 0.89153 0.53339 0.24546 0.0
C974 C 0.8923 0.53727 0.36921 0.0
C975 C 0.89278 0.54125 0.43226 0.0
C976 C 0.88434 0.54154 0.32598 0.0
C977 C 0.88391 0.54811 0.45257 0.0
C978 C 0.87551 0.55189 0.41018 0.0
C979 C 0.86984 0.55522 0.30284 0.0
C980 C 0.87229 0.55431 0.23897 0.0
C981 C 0.87616 0.54923 0.34651 0.0
C982 C 0.87962 0.54585 0.21901 0.0
C983 C 0.88541 0.53933 0.26214 0.0
H984 H 0.54719 0.66474 0.53633 0.0
H985 H 0.52603 0.62366 0.65498 0.0
H986 H 0.53354 0.6405 0.74674 0.0
H987 H 0.54928 0.66677 0.79323 0.0
H988 H 0.57025 0.70788 0.67491 0.0
H989 H 0.55947 0.69115 0.58318 0.0
C990 C 0.54398 0.65947 0.58223 0.0
C991 C 0.53632 0.64298 0.5888 0.0
C992 C 0.54843 0.66922 0.63491 0.0
C993 C 0.532 0.63632 0.64853 0.0
C994 C 0.53638 0.64595 0.70114 0.0
C995 C 0.55127 0.67207 0.74742 0.0
C996 C 0.56078 0.6885 0.74076 0.0
C997 C 0.5451 0.66239 0.69489 0.0
C998 C 0.56303 0.69525 0.68127 0.0
C999 C 0.55694 0.68568 0.62874 0.0
H1000 H 0.30285 0.87847 0.6701 0.0
H1001 H 0.3356 0.88606 0.8182 0.0
H1002 H 0.35714 0.89485 0.74316 0.0
H1003 H 0.36709 0.90296 0.63738 0.0
H1004 H 0.33489 0.89788 0.49027 0.0
H1005 H 0.3127 0.88547 0.5627 0.0
C1006 C 0.31465 0.88174 0.68555 0.0
C1007 C 0.3177 0.88161 0.74929 0.0
C1008 C 0.32709 0.88742 0.64244 0.0
C1009 C 0.33305 0.88612 0.7692 0.0
C1010 C 0.34535 0.89117 0.72641 0.0
C1011 C 0.35519 0.89893 0.62094 0.0
C1012 C 0.35264 0.90139 0.55867 0.0
C1013 C 0.34259 0.89228 0.66317 0.0
C1014 C 0.33717 0.89622 0.53817 0.0
C1015 C 0.32448 0.88912 0.57952 0.0
H1016 H 0.1318 0.43108 0.68613 0.0
H1017 H 0.1087 0.44097 0.83589 0.0
H1018 H 0.09883 0.45314 0.7626 0.0
H1019 H 0.09486 0.45883 0.65452 0.0
H1020 H 0.11577 0.44633 0.50453 0.0
H1021 H 0.12857 0.43749 0.5791 0.0
C1022 C 0.12481 0.43612 0.70282 0.0
C1023 C 0.12098 0.43514 0.7662 0.0
C1024 C 0.11873 0.44256 0.66022 0.0
C1025 C 0.11173 0.44152 0.78715 0.0
C1026 C 0.10609 0.44848 0.74531 0.0
C1027 C 0.10245 0.45442 0.63846 0.0
C1028 C 0.10445 0.45324 0.57442 0.0
C1029 C 0.10924 0.44876 0.68154 0.0
C1030 C 0.11407 0.44728 0.55379 0.0
C1031 C 0.12136 0.44222 0.59633 0.0
H1032 H 0.11949 0.66963 0.78987 0.0
H1033 H 0.13895 0.71041 0.66972 0.0
H1034 H 0.13124 0.69337 0.57845 0.0
H1035 H 0.11634 0.66686 0.53288 0.0
H1036 H 0.09748 0.62608 0.65282 0.0
H1037 H 0.10772 0.64316 0.74386 0.0
C1038 C 0.12226 0.6748 0.74372 0.0
C1039 C 0.12958 0.69126 0.73668 0.0
C1040 C 0.11778 0.66493 0.69132 0.0
C1041 C 0.13329 0.69778 0.67657 0.0
C1042 C 0.12879 0.68804 0.62424 0.0
C1043 C 0.11465 0.66172 0.5789 0.0
C1044 C 0.10597 0.64525 0.58614 0.0
C1045 C 0.12062 0.6716 0.63108 0.0
C1046 C 0.10409 0.63874 0.64595 0.0
C1047 C 0.10987 0.64849 0.69811 0.0
H1048 H 0.31371 0.44496 0.71673 0.0
H1049 H 0.31736 0.4037 0.75672 0.0
H1050 H 0.33599 0.41014 0.67123 0.0
H1051 H 0.35105 0.42729 0.58438 0.0
H1052 H 0.3497 0.46995 0.54982 0.0
H1053 H 0.33032 0.46321 0.63363 0.0
C1054 C 0.31866 0.43745 0.70672 0.0
C1055 C 0.31415 0.42386 0.74271 0.0
C1056 C 0.32968 0.44143 0.65831 0.0
C1057 C 0.32074 0.41428 0.72985 0.0
C1058 C 0.33132 0.4179 0.68079 0.0
C1059 C 0.34641 0.43504 0.59509 0.0
C1060 C 0.35152 0.44894 0.56073 0.0
C1061 C 0.3358 0.43138 0.64454 0.0
C1062 C 0.3458 0.45913 0.5757 0.0
C1063 C 0.33476 0.45528 0.62352 0.0
H1064 H 0.5553 0.88687 0.80373 0.0
H1065 H 0.57298 0.86385 0.68378 0.0
H1066 H 0.56216 0.87021 0.59314 0.0
H1067 H 0.55083 0.88534 0.54731 0.0
H1068 H 0.53269 0.90793 0.66733 0.0
H1069 H 0.54027 0.89844 0.75874 0.0
C1070 C 0.55656 0.88304 0.75781 0.0
C1071 C 0.56516 0.87516 0.75023 0.0
C1072 C 0.5503 0.88672 0.70597 0.0
C1073 C 0.56647 0.87 0.69074 0.0
C1074 C 0.56036 0.8737 0.63886 0.0
C1075 C 0.54827 0.88793 0.59351 0.0
C1076 C 0.54147 0.89754 0.60062 0.0
C1077 C 0.55273 0.88251 0.64579 0.0
C1078 C 0.53797 0.9006 0.66064 0.0
C1079 C 0.5424 0.89528 0.71294 0.0
H1080 H 0.35968 0.08482 0.13978 0.0
H1081 H 0.36173 0.12987 0.13877 0.0
H1082 H 0.33312 0.11679 0.15186 0.0
H1083 H 0.30762 0.09266 0.16576 0.0
H1084 H 0.30558 0.04767 0.17565 0.0
H1085 H 0.33406 0.06057 0.1573 0.0
C1086 C 0.3538 0.09172 0.14196 0.0
C1087 C 0.36274 0.10825 0.13784 0.0
C1088 C 0.33739 0.08414 0.1515 0.0
C1089 C 0.35507 0.11712 0.14184 0.0
C1090 C 0.33873 0.10966 0.14932 0.0
C1091 C 0.3134 0.08567 0.16368 0.0
C1092 C 0.3045 0.06923 0.17169 0.0
C1093 C 0.32979 0.09319 0.15457 0.0
C1094 C 0.31219 0.06035 0.16978 0.0
C1095 C 0.32846 0.06772 0.1591 0.0
H1096 H 0.87928 0.24116 0.15187 0.0
H1097 H 0.92059 0.28745 0.14169 0.0
H1098 H 0.93745 0.27623 0.16493 0.0
H1099 H 0.94045 0.25314 0.18697 0.0
H1100 H 0.89925 0.20669 0.18843 0.0
H1101 H 0.88233 0.21806 0.17006 0.0
C1102 C 0.89197 0.24879 0.15495 0.0
C1103 C 0.89868 0.26511 0.14544 0.0
C1104 C 0.9016 0.24222 0.16682 0.0
C1105 C 0.91515 0.27483 0.14867 0.0
C1106 C 0.92479 0.26843 0.16213 0.0
C1107 C 0.92775 0.24555 0.18364 0.0
C1108 C 0.92107 0.22913 0.18949 0.0
C1109 C 0.91814 0.25214 0.1712 0.0
C1110 C 0.90465 0.21938 0.18404 0.0
C1111 C 0.89498 0.22586 0.17358 0.0
H1112 H 0.76512 0.64512 0.15297 0.0
H1113 H 0.72024 0.64261 0.12527 0.0
H1114 H 0.73189 0.67039 0.15394 0.0
H1115 H 0.75491 0.69546 0.18748 0.0
H1116 H 0.80017 0.69841 0.20666 0.0
H1117 H 0.78832 0.67039 0.18135 0.0
C1118 C 0.75791 0.65067 0.1531 0.0
C1119 C 0.74184 0.64181 0.13725 0.0
C1120 C 0.76474 0.6667 0.16856 0.0
C1121 C 0.73267 0.6492 0.13696 0.0
C1122 C 0.7393 0.66506 0.15369 0.0
C1123 C 0.7621 0.68989 0.18653 0.0
C1124 C 0.77832 0.69887 0.19957 0.0
C1125 C 0.75531 0.67392 0.16985 0.0
C1126 C 0.78764 0.69167 0.19696 0.0
C1127 C 0.78088 0.67568 0.18243 0.0
H1128 H 0.08214 0.30355 0.88746 0.0
H1129 H 0.08239 0.30864 0.68827 0.0
H1130 H 0.09746 0.3374 0.69882 0.0
H1131 H 0.11017 0.36109 0.76514 0.0
H1132 H 0.1075 0.35589 0.96457 0.0
H1133 H 0.09379 0.32717 0.95374 0.0
C1134 C 0.08558 0.31098 0.84641 0.0
C1135 C 0.08132 0.30405 0.78717 0.0
C1136 C 0.09377 0.32745 0.853 0.0
C1137 C 0.08557 0.31376 0.73434 0.0
C1138 C 0.09419 0.33017 0.74036 0.0
C1139 C 0.10665 0.35363 0.80611 0.0
C1140 C 0.10993 0.36053 0.86555 0.0
C1141 C 0.09831 0.33715 0.79948 0.0
C1142 C 0.10508 0.3508 0.91838 0.0
C1143 C 0.09727 0.3344 0.9122 0.0
H1144 H 0.69157 0.74955 0.81719 0.0
H1145 H 0.69562 0.79544 0.82887 0.0
H1146 H 0.66737 0.78321 0.84941 0.0
H1147 H 0.64157 0.75959 0.864 0.0
H1148 H 0.63744 0.71361 0.85867 0.0
H1149 H 0.66569 0.72575 0.83635 0.0
C1150 C 0.68622 0.75683 0.82391 0.0
C1151 C 0.69563 0.77336 0.82103 0.0
C1152 C 0.67 0.74972 0.83726 0.0
C1153 C 0.68862 0.78269 0.83086 0.0
C1154 C 0.67247 0.77571 0.8426 0.0
C1155 C 0.64684 0.75221 0.85802 0.0
C1156 C 0.6374 0.73572 0.86266 0.0
C1157 C 0.66307 0.75926 0.84599 0.0
C1158 C 0.64446 0.72634 0.85554 0.0
C1159 C 0.66059 0.73327 0.84248 0.0
H1160 H 0.24721 0.94208 0.8159 0.0
H1161 H 0.20261 0.89908 0.79488 0.0
H1162 H 0.21521 0.8835 0.81772 0.0
H1163 H 0.23892 0.88206 0.84241 0.0
H1164 H 0.28325 0.92492 0.87093 0.0
H1165 H 0.27076 0.94061 0.84714 0.0
C1166 C 0.24031 0.9293 0.81618 0.0
C1167 C 0.22406 0.92172 0.80318 0.0
C1168 C 0.24756 0.92041 0.83104 0.0
C1169 C 0.21515 0.90517 0.80473 0.0
C1170 C 0.22234 0.89626 0.81774 0.0
C1171 C 0.24583 0.89484 0.8436 0.0
C1172 C 0.26199 0.90232 0.858 0.0
C1173 C 0.23853 0.90375 0.83084 0.0
C1174 C 0.27077 0.91888 0.86017 0.0
C1175 C 0.26365 0.92786 0.84625 0.0
H1176 H 0.69519 0.90843 0.85506 0.0
H1177 H 0.69783 0.95096 0.78453 0.0
H1178 H 0.66979 0.94028 0.80693 0.0
H1179 H 0.6443 0.91857 0.84542 0.0
H1180 H 0.64168 0.87557 0.90945 0.0
H1181 H 0.66994 0.8868 0.89164 0.0
C1182 C 0.68966 0.91539 0.84457 0.0
C1183 C 0.69862 0.93048 0.81819 0.0
C1184 C 0.67352 0.90912 0.8569 0.0
C1185 C 0.6912 0.93927 0.80452 0.0
C1186 C 0.67517 0.93321 0.8176 0.0
C1187 C 0.65001 0.91178 0.85611 0.0
C1188 C 0.64099 0.89634 0.87917 0.0
C1189 C 0.66621 0.91814 0.84384 0.0
C1190 C 0.64841 0.88751 0.89175 0.0
C1191 C 0.66455 0.89389 0.88144 0.0
H1192 H 0.0611 0.75048 0.814 0.0
H1193 H 0.10159 0.79733 0.82228 0.0
H1194 H 0.11857 0.78633 0.8472 0.0
H1195 H 0.12191 0.76336 0.8648 0.0
H1196 H 0.08112 0.71658 0.86309 0.0
H1197 H 0.06419 0.7276 0.83829 0.0
C1198 C 0.07366 0.75826 0.82098 0.0
C1199 C 0.08016 0.77467 0.8155 0.0
C1200 C 0.08324 0.75187 0.83694 0.0
C1201 C 0.09637 0.78465 0.826 0.0
C1202 C 0.10606 0.77837 0.84027 0.0
C1203 C 0.1093 0.75558 0.85932 0.0
C1204 C 0.10279 0.73917 0.86541 0.0
C1205 C 0.09962 0.762 0.84571 0.0
C1206 C 0.08641 0.72926 0.85889 0.0
C1207 C 0.07674 0.73554 0.84432 0.0
H1208 H 0.22103 0.30199 0.8927 0.0
H1209 H 0.22823 0.30641 0.69417 0.0
H1210 H 0.24136 0.33514 0.70275 0.0
H1211 H 0.2516 0.359 0.76709 0.0
H1212 H 0.24667 0.35468 0.96648 0.0
H1213 H 0.23175 0.3259 0.95734 0.0
C1214 C 0.22538 0.30926 0.85132 0.0
C1215 C 0.22361 0.30212 0.79285 0.0
C1216 C 0.23332 0.32576 0.85685 0.0
C1217 C 0.22951 0.31166 0.73968 0.0
C1218 C 0.23698 0.32807 0.74456 0.0
C1219 C 0.2471 0.35173 0.80845 0.0
C1220 C 0.25007 0.3589 0.86734 0.0
C1221 C 0.23905 0.33524 0.80293 0.0
C1222 C 0.24448 0.34939 0.92068 0.0
C1223 C 0.23597 0.33296 0.91545 0.0
H1224 H 0.93625 0.68674 0.21465 0.0
H1225 H 0.89431 0.69071 0.21149 0.0
H1226 H 0.87824 0.66252 0.18775 0.0
H1227 H 0.87631 0.63695 0.16537 0.0
H1228 H 0.91867 0.63369 0.15859 0.0
H1229 H 0.93446 0.66146 0.18818 0.0
C1230 C 0.92356 0.68135 0.20948 0.0
C1231 C 0.91638 0.69064 0.21573 0.0
C1232 C 0.91454 0.66535 0.19339 0.0
C1233 C 0.90002 0.6837 0.20732 0.0
C1234 C 0.89087 0.66763 0.1936 0.0
C1235 C 0.889 0.64234 0.17046 0.0
C1236 C 0.89633 0.6333 0.16009 0.0
C1237 C 0.89803 0.65838 0.18606 0.0
C1238 C 0.91279 0.64044 0.16603 0.0
C1239 C 0.9218 0.65628 0.18324 0.0
H1240 H 0.36138 0.2391 0.174 0.0
H1241 H 0.3634 0.28382 0.1499 0.0
H1242 H 0.335 0.27128 0.16884 0.0
H1243 H 0.3095 0.2475 0.19196 0.0
H1244 H 0.30723 0.20249 0.20687 0.0
H1245 H 0.33581 0.21521 0.19237 0.0
C1246 C 0.35559 0.24608 0.17292 0.0
C1247 C 0.36447 0.26235 0.16084 0.0
C1248 C 0.33923 0.23875 0.18253 0.0
C1249 C 0.35679 0.27124 0.15881 0.0
C1250 C 0.34058 0.26411 0.16992 0.0
C1251 C 0.31533 0.24055 0.19248 0.0
C1252 C 0.30638 0.22415 0.2011 0.0
C1253 C 0.33168 0.24787 0.18195 0.0
C1254 C 0.31395 0.21516 0.20045 0.0
C1255 C 0.33026 0.22242 0.19212 0.0
H1256 H 0.75124 0.11008 0.21321 0.0
H1257 H 0.75799 0.1094 0.01531 0.0
H1258 H 0.77348 0.09633 0.03164 0.0
H1259 H 0.78427 0.08425 0.10207 0.0
H1260 H 0.77535 0.08273 0.29909 0.0
H1261 H 0.76154 0.09751 0.28339 0.0
C1262 C 0.75625 0.1072 0.17376 0.0
C1263 C 0.75362 0.1108 0.11319 0.0
C1264 C 0.76466 0.09922 0.18339 0.0
C1265 C 0.75989 0.10675 0.06235 0.0
C1266 C 0.76873 0.09928 0.07168 0.0
C1267 C 0.77939 0.08727 0.14157 0.0
C1268 C 0.78089 0.08251 0.20169 0.0
C1269 C 0.77107 0.09534 0.13195 0.0
C1270 C 0.77431 0.08625 0.25237 0.0
C1271 C 0.76644 0.09471 0.24343 0.0
H1272 H 0.02523 0.41641 0.46943 0.0
H1273 H 0.02989 0.46255 0.45957 0.0
H1274 H 1.00149 0.45101 0.47528 0.0
H1275 H 0.97547 0.42794 0.49415 0.0
H1276 H 0.97088 0.38197 0.51309 0.0
H1277 H 0.9991 0.39326 0.4919 0.0
C1278 C 0.01996 0.42387 0.47026 0.0
C1279 C 0.02956 0.44027 0.46289 0.0
C1280 C 0.00368 0.4172 0.48137 0.0
C1281 C 0.02269 0.44989 0.46515 0.0
C1282 C 0.00648 0.44331 0.47413 0.0
C1283 C 0.98064 0.42038 0.49341 0.0
C1284 C 0.9711 0.40414 0.50481 0.0
C1285 C 0.99688 0.427 0.48268 0.0
C1286 C 0.978 0.39452 0.50461 0.0
C1287 C 0.99411 0.40096 0.49231 0.0
H1288 H 0.60726 0.58518 0.51343 0.0
H1289 H 0.56701 0.53819 0.50268 0.0
H1290 H 0.54983 0.54903 0.47993 0.0
H1291 H 0.54619 0.57181 0.46429 0.0
H1292 H 0.58657 0.61881 0.46861 0.0
H1293 H 0.60379 0.60802 0.49197 0.0
C1294 C 0.59471 0.57735 0.50633 0.0
C1295 C 0.58837 0.56093 0.5103 0.0
C1296 C 0.58496 0.58365 0.49174 0.0
C1297 C 0.57215 0.55088 0.49991 0.0
C1298 C 0.56233 0.55706 0.48693 0.0
C1299 C 0.55877 0.57969 0.47016 0.0
C1300 C 0.56507 0.59608 0.46509 0.0
C1301 C 0.5686 0.57341 0.48282 0.0
C1302 C 0.58142 0.60614 0.47207 0.0
C1303 C 0.59127 0.59999 0.48575 0.0
H1304 H 0.44678 0.03335 0.44291 0.0
H1305 H 0.44315 0.02779 0.64216 0.0
H1306 H 0.42904 0.99907 0.63048 0.0
H1307 H 0.41728 0.97556 0.56336 0.0
H1308 H 0.41865 0.98117 0.36417 0.0
H1309 H 0.43409 0.00986 0.37584 0.0
C1310 C 0.44298 0.02582 0.4837 0.0
C1311 C 0.4461 0.03261 0.5433 0.0
C1312 C 0.43443 0.00936 0.47654 0.0
C1313 C 0.44087 0.02278 0.59584 0.0
C1314 C 0.43282 0.00639 0.58916 0.0
C1315 C 0.42104 0.98309 0.52257 0.0
C1316 C 0.41697 0.97631 0.46299 0.0
C1317 C 0.42948 0.99955 0.52974 0.0
C1318 C 0.42165 0.98616 0.41049 0.0
C1319 C 0.4305 0.00254 0.41715 0.0
H1320 H 0.60985 0.02698 0.52351 0.0
H1321 H 0.56867 0.03203 0.50609 0.0
H1322 H 0.55233 0.00377 0.48543 0.0
H1323 H 0.54979 0.97767 0.47222 0.0
H1324 H 0.59128 0.97292 0.48268 0.0
H1325 H 0.6075 0.00106 0.50559 0.0
C1326 C 0.59728 0.02185 0.51564 0.0
C1327 C 0.59042 0.03151 0.51702 0.0
C1328 C 0.58805 0.0057 0.50206 0.0
C1329 C 0.57419 0.0248 0.50547 0.0
C1330 C 0.56485 0.00866 0.4936 0.0
C1331 C 0.56239 0.9828 0.4794 0.0
C1332 C 0.56931 0.97321 0.476 0.0
C1333 C 0.57167 0.99901 0.49167 0.0
C1334 C 0.58568 0.98006 0.48473 0.0
C1335 C 0.59495 0.99613 0.49815 0.0
H1336 H 0.97683 0.55071 0.48056 0.0
H1337 H 0.97533 0.59237 0.53511 0.0
H1338 H 0.00344 0.60874 0.51102 0.0
H1339 H 0.02875 0.61109 0.47766 0.0
H1340 H 0.03012 0.56898 0.42994 0.0
H1341 H 0.00175 0.55298 0.44738 0.0
C1342 C 0.9826 0.56338 0.48694 0.0
C1343 C 0.97395 0.57028 0.5096 0.0
C1344 C 0.99877 0.57267 0.47398 0.0
C1345 C 0.9817 0.58672 0.51801 0.0
C1346 C 0.99778 0.59611 0.50407 0.0
C1347 C 0.02276 0.59844 0.47035 0.0
C1348 C 0.03149 0.59123 0.45226 0.0
C1349 C 0.00646 0.5892 0.48234 0.0
C1350 C 0.02365 0.57479 0.44393 0.0
C1351 C 0.00744 0.56563 0.45399 0.0
H1352 H 0.41352 0.44149 0.55563 0.0
H1353 H 0.41726 0.43661 0.35805 0.0
H1354 H 0.43374 0.42469 0.37638 0.0
H1355 H 0.44651 0.41506 0.44873 0.0
H1356 H 0.44052 0.41744 0.64631 0.0
H1357 H 0.42549 0.43095 0.62811 0.0
C1358 C 0.41805 0.4379 0.51668 0.0
C1359 C 0.41434 0.44002 0.45559 0.0
C1360 C 0.42705 0.43058 0.52766 0.0
C1361 C 0.42 0.43508 0.40546 0.0
C1362 C 0.42942 0.42829 0.41593 0.0
C1363 C 0.44199 0.41865 0.48775 0.0
C1364 C 0.44471 0.41542 0.54877 0.0
C1365 C 0.43295 0.42591 0.47682 0.0
C1366 C 0.43856 0.41983 0.59895 0.0
C1367 C 0.43 0.42755 0.58855 0.0
H1368 H 0.24468 0.09706 0.25144 0.0
H1369 H 0.2514 0.09779 0.05269 0.0
H1370 H 0.2498 0.1217 0.04408 0.0
H1371 H 0.24862 0.14347 0.09289 0.0
H1372 H 0.24257 0.14379 0.29146 0.0
H1373 H 0.24152 0.11831 0.30006 0.0
C1374 C 0.24562 0.10237 0.20625 0.0
C1375 C 0.24833 0.09571 0.15291 0.0
C1376 C 0.24485 0.11634 0.20152 0.0
C1377 C 0.24948 0.10272 0.09464 0.0
C1378 C 0.24855 0.11641 0.08955 0.0
C1379 C 0.2469 0.13792 0.13809 0.0
C1380 C 0.24582 0.14559 0.19149 0.0
C1381 C 0.24657 0.12349 0.14273 0.0
C1382 C 0.24345 0.13814 0.24958 0.0
C1383 C 0.24294 0.12361 0.25454 0.0
H1384 H 0.86149 0.10343 0.2703 0.0
H1385 H 0.85836 0.09864 0.07041 0.0
H1386 H 0.88343 0.12301 0.05937 0.0
H1387 H 0.90472 0.14699 0.10515 0.0
H1388 H 0.90811 0.15266 0.3044 0.0
H1389 H 0.88464 0.12657 0.31704 0.0
C1390 C 0.86645 0.1076 0.22444 0.0
C1391 C 0.85795 0.09931 0.17126 0.0
C1392 C 0.88086 0.12184 0.21822 0.0
C1393 C 0.86454 0.10486 0.11214 0.0
C1394 C 0.87889 0.11882 0.10568 0.0
C1395 C 0.90046 0.14246 0.15145 0.0
C1396 C 0.90802 0.15183 0.20371 0.0
C1397 C 0.88691 0.12762 0.15823 0.0
C1398 C 0.90247 0.14569 0.26337 0.0
C1399 C 0.889 0.1308 0.27059 0.0
H1400 H 0.90209 0.75678 0.28341 0.0
H1401 H 0.90591 0.7571 0.08336 0.0
H1402 H 0.88324 0.76087 0.07319 0.0
H1403 H 0.86065 0.761 0.11993 0.0
H1404 H 0.85566 0.75971 0.31944 0.0
H1405 H 0.88057 0.75968 0.33105 0.0
C1406 C 0.89812 0.75798 0.23773 0.0
C1407 C 0.90557 0.75648 0.18422 0.0
C1408 C 0.88479 0.75985 0.23205 0.0
C1409 C 0.90028 0.75803 0.12529 0.0
C1410 C 0.8873 0.76018 0.11936 0.0
C1411 C 0.8651 0.76094 0.16608 0.0
C1412 C 0.85621 0.76016 0.21869 0.0
C1413 C 0.87919 0.76061 0.17228 0.0
C1414 C 0.86225 0.76027 0.27812 0.0
C1415 C 0.87645 0.76016 0.28476 0.0
H1416 H 0.10024 0.2419 0.89493 0.0
H1417 H 0.09686 0.24261 0.69512 0.0
H1418 H 0.12071 0.24055 0.68489 0.0
H1419 H 0.14403 0.2413 0.73349 0.0
H1420 H 0.14718 0.24122 0.93375 0.0
H1421 H 0.12187 0.24014 0.94288 0.0
C1422 C 0.1046 0.24143 0.84905 0.0
C1423 C 0.09689 0.2426 0.7959 0.0
C1424 C 0.11836 0.24045 0.84361 0.0
C1425 C 0.1026 0.24178 0.73683 0.0
C1426 C 0.11628 0.24067 0.73097 0.0
C1427 C 0.13903 0.24078 0.77905 0.0
C1428 C 0.14759 0.24151 0.83284 0.0
C1429 C 0.12449 0.2404 0.78411 0.0
C1430 C 0.14095 0.24083 0.89156 0.0
C1431 C 0.12646 0.24023 0.89691 0.0
H1432 H 0.75665 0.85697 0.74447 0.0
H1433 H 0.75362 0.85161 0.94417 0.0
H1434 H 0.75434 0.87667 0.95517 0.0
H1435 H 0.75376 0.89907 0.90866 0.0
H1436 H 0.7565 0.90493 0.70945 0.0
H1437 H 0.75811 0.88085 0.69777 0.0
C1438 C 0.75638 0.86142 0.79036 0.0
C1439 C 0.75495 0.85232 0.84335 0.0
C1440 C 0.75662 0.87588 0.79651 0.0
C1441 C 0.75459 0.85826 0.90251 0.0
C1442 C 0.75498 0.87261 0.90895 0.0
C1443 C 0.75483 0.89517 0.86261 0.0
C1444 C 0.75485 0.9037 0.80999 0.0
C1445 C 0.75564 0.88134 0.8563 0.0
C1446 C 0.75642 0.89856 0.75076 0.0
C1447 C 0.75729 0.88476 0.74405 0.0
H1448 H 0.13936 0.9006 0.87419 0.0
H1449 H 0.14534 0.90125 0.67536 0.0
H1450 H 0.1198 0.87689 0.66589 0.0
H1451 H 0.09721 0.85382 0.71623 0.0
H1452 H 0.09223 0.85355 0.91581 0.0
H1453 H 0.11583 0.87938 0.92269 0.0
C1454 C 0.13501 0.89553 0.82862 0.0
C1455 C 0.14431 0.90259 0.77567 0.0
C1456 C 0.12051 0.88151 0.82372 0.0
C1457 C 0.1384 0.896 0.7169 0.0
C1458 C 0.12384 0.88203 0.71152 0.0
C1459 C 0.10115 0.85957 0.761 0.0
C1460 C 0.09307 0.85167 0.81549 0.0
C1461 C 0.11498 0.87443 0.76487 0.0
C1462 C 0.09831 0.85927 0.8732 0.0
C1463 C 0.11183 0.87406 0.87727 0.0
H1464 H 0.91646 0.4373 0.58952 0.0
H1465 H 0.92201 0.4374 0.39023 0.0
H1466 H 0.92227 0.46229 0.38248 0.0
H1467 H 0.9222 0.48461 0.43168 0.0
H1468 H 0.91697 0.48538 0.63061 0.0
H1469 H 0.91522 0.45957 0.63901 0.0
C1470 C 0.91759 0.44272 0.54443 0.0
C1471 C 0.9193 0.43549 0.49061 0.0
C1472 C 0.91787 0.45723 0.54016 0.0
C1473 C 0.92077 0.44269 0.4325 0.0
C1474 C 0.92093 0.45697 0.42792 0.0
C1475 C 0.92061 0.47915 0.47698 0.0
C1476 C 0.91982 0.48698 0.53046 0.0
C1477 C 0.9197 0.46443 0.48142 0.0
C1478 C 0.91764 0.47962 0.58866 0.0
C1479 C 0.91667 0.46487 0.59349 0.0
H1480 H 0.52744 0.43493 0.45314 0.0
H1481 H 0.5222 0.43483 0.65229 0.0
H1482 H 0.5479 0.45901 0.66023 0.0
H1483 H 0.57052 0.48172 0.60871 0.0
H1484 H 0.57482 0.48156 0.40893 0.0
H1485 H 0.55095 0.4559 0.40329 0.0
C1486 C 0.53198 0.44009 0.49844 0.0
C1487 C 0.52284 0.43322 0.55193 0.0
C1488 C 0.54659 0.45402 0.50249 0.0
C1489 C 0.52899 0.43992 0.61033 0.0
C1490 C 0.54366 0.45379 0.61485 0.0
C1491 C 0.56637 0.47591 0.56415 0.0
C1492 C 0.57435 0.48363 0.50927 0.0
C1493 C 0.55238 0.46118 0.56101 0.0
C1494 C 0.56883 0.47597 0.45183 0.0
C1495 C 0.55515 0.46128 0.44847 0.0
H1496 H 0.57087 0.09383 0.43288 0.0
H1497 H 0.5761 0.09418 0.63209 0.0
H1498 H 0.55187 0.09545 0.64553 0.0
H1499 H 0.52778 0.09378 0.60005 0.0
H1500 H 0.52286 0.0928 0.40029 0.0
H1501 H 0.5484 0.09455 0.38788 0.0
C1502 C 0.56684 0.09437 0.47933 0.0
C1503 C 0.5752 0.09375 0.53139 0.0
C1504 C 0.55285 0.09486 0.48663 0.0
C1505 C 0.56988 0.09463 0.59119 0.0
C1506 C 0.55597 0.09527 0.59889 0.0
C1507 C 0.53242 0.09419 0.55387 0.0
C1508 C 0.52331 0.09299 0.50121 0.0
C1509 C 0.54714 0.09499 0.54689 0.0
C1510 C 0.52952 0.09355 0.44167 0.0
C1511 C 0.54414 0.09454 0.43443 0.0
H1512 H 0.76851 0.58281 0.22391 0.0
H1513 H 0.76463 0.58156 0.02399 0.0
H1514 H 0.78789 0.57838 0.0155 0.0
H1515 H 0.81059 0.57805 0.06553 0.0
H1516 H 0.81399 0.5797 0.26591 0.0
H1517 H 0.78962 0.58051 0.27342 0.0
C1518 C 0.77266 0.58174 0.17838 0.0
C1519 C 0.76496 0.58259 0.12466 0.0
C1520 C 0.78602 0.58004 0.17394 0.0
C1521 C 0.77038 0.58098 0.0661 0.0
C1522 C 0.78371 0.57922 0.06125 0.0
C1523 C 0.80586 0.57837 0.11077 0.0
C1524 C 0.8142 0.57896 0.16503 0.0
C1525 C 0.79182 0.57903 0.1149 0.0
C1526 C 0.80792 0.57938 0.22334 0.0
C1527 C 0.79396 0.57986 0.22778 0.0
H1528 H 0.42046 0.18967 0.24895 0.0
H1529 H 0.42631 0.18936 0.05026 0.0
H1530 H 0.42788 0.21508 0.04214 0.0
H1531 H 0.4252 0.23657 0.09117 0.0
H1532 H 0.41875 0.23593 0.29005 0.0
H1533 H 0.41988 0.21175 0.29825 0.0
C1534 C 0.42223 0.19527 0.20383 0.0
C1535 C 0.42311 0.18753 0.15024 0.0
C1536 C 0.42291 0.20988 0.19948 0.0
C1537 C 0.42558 0.19505 0.09228 0.0
C1538 C 0.4264 0.20973 0.08759 0.0
C1539 C 0.42425 0.23123 0.13631 0.0
C1540 C 0.42173 0.238 0.1898 0.0
C1541 C 0.42472 0.21711 0.14079 0.0
C1542 C 0.42054 0.23093 0.248 0.0
C1543 C 0.42118 0.21708 0.25284 0.0
H1544 H 0.76914 0.18905 0.05017 0.0
H1545 H 0.76431 0.18449 0.24985 0.0
H1546 H 0.78787 0.21016 0.26268 0.0
H1547 H 0.81099 0.23284 0.21828 0.0
H1548 H 0.81656 0.23787 0.0192 0.0
H1549 H 0.79152 0.21321 0.0051 0.0
C1550 C 0.77312 0.1938 0.0964 0.0
C1551 C 0.76502 0.18476 0.14894 0.0
C1552 C 0.78689 0.2086 0.10365 0.0
C1553 C 0.77036 0.1911 0.20856 0.0
C1554 C 0.78386 0.20579 0.21605 0.0
C1555 C 0.80669 0.22863 0.17171 0.0
C1556 C 0.81572 0.2371 0.1199 0.0
C1557 C 0.79241 0.21446 0.16405 0.0
C1558 C 0.80986 0.23156 0.05991 0.0
C1559 C 0.79556 0.21743 0.05184 0.0
H1560 H 0.58584 0.77014 0.78366 0.0
H1561 H 0.57853 0.76156 0.98085 0.0
H1562 H 0.57712 0.78576 0.99323 0.0
H1563 H 0.57994 0.81044 0.94803 0.0
H1564 H 0.58774 0.81839 0.75038 0.0
H1565 H 0.58689 0.79331 0.7383 0.0
C1566 C 0.58385 0.77348 0.82943 0.0
C1567 C 0.58247 0.76417 0.88134 0.0
C1568 C 0.58319 0.78735 0.83613 0.0
C1569 C 0.57968 0.76857 0.94013 0.0
C1570 C 0.57892 0.78242 0.94722 0.0
C1571 C 0.58125 0.80655 0.90233 0.0
C1572 C 0.58405 0.81636 0.85031 0.0
C1573 C 0.58094 0.79207 0.8956 0.0
C1574 C 0.58574 0.81118 0.79133 0.0
C1575 C 0.58525 0.79682 0.78426 0.0
H1576 H 0.193 0.77178 0.92931 0.0
H1577 H 0.18342 0.7726 0.73371 0.0
H1578 H 0.20831 0.797 0.72079 0.0
H1579 H 0.23191 0.81893 0.76515 0.0
H1580 H 0.24189 0.81923 0.96066 0.0
H1581 H 0.21787 0.79354 0.9733 0.0
C1582 C 0.19647 0.77724 0.88384 0.0
C1583 C 0.18628 0.77041 0.8327 0.0
C1584 C 0.21084 0.79151 0.87666 0.0
C1585 C 0.19093 0.77764 0.77404 0.0
C1586 C 0.2052 0.79162 0.76648 0.0
C1587 C 0.22895 0.81336 0.81056 0.0
C1588 C 0.23864 0.82105 0.86193 0.0
C1589 C 0.21509 0.79878 0.81755 0.0
C1590 C 0.23462 0.81358 0.9203 0.0
C1591 C 0.22086 0.79891 0.92758 0.0
H1592 H 0.19092 0.42213 0.76217 0.0
H1593 H 0.18659 0.42071 0.96199 0.0
H1594 H 0.21223 0.42214 0.97189 0.0
H1595 H 0.23459 0.42105 0.92287 0.0
H1596 H 0.23801 0.42175 0.72261 0.0
H1597 H 0.21412 0.42349 0.71395 0.0
C1598 C 0.19564 0.42231 0.808 0.0
C1599 C 0.18677 0.42114 0.86122 0.0
C1600 C 0.21022 0.42292 0.81325 0.0
C1601 C 0.19316 0.42156 0.92021 0.0
C1602 C 0.20779 0.42231 0.92589 0.0
C1603 C 0.23024 0.42186 0.87744 0.0
C1604 C 0.238 0.42111 0.82347 0.0
C1605 C 0.21625 0.4226 0.87263 0.0
C1606 C 0.2322 0.42215 0.76491 0.0
C1607 C 0.21851 0.42313 0.75984 0.0
H1608 H 0.43709 0.91556 0.3992 0.0
H1609 H 0.43496 0.91801 0.59925 0.0
H1610 H 0.45933 0.91728 0.6089 0.0
H1611 H 0.48232 0.91817 0.56119 0.0
H1612 H 0.48519 0.91579 0.36178 0.0
H1613 H 0.45941 0.9141 0.35123 0.0
C1614 C 0.44186 0.91571 0.44486 0.0
C1615 C 0.43427 0.91702 0.49836 0.0
C1616 C 0.45607 0.91542 0.45024 0.0
C1617 C 0.44059 0.91716 0.55722 0.0
C1618 C 0.45457 0.91676 0.56289 0.0
C1619 C 0.47727 0.91718 0.51535 0.0
C1620 C 0.48572 0.91731 0.46232 0.0
C1621 C 0.46258 0.91627 0.50977 0.0
C1622 C 0.47892 0.91576 0.40334 0.0
C1623 C 0.46421 0.91485 0.39732 0.0
H1624 H 0.09303 0.56596 0.39087 0.0
H1625 H 0.08648 0.5672 0.58893 0.0
H1626 H 0.08823 0.54348 0.60255 0.0
H1627 H 0.08915 0.52114 0.55819 0.0
H1628 H 0.09466 0.51861 0.36026 0.0
H1629 H 0.09605 0.54415 0.34674 0.0
C1630 C 0.09222 0.56113 0.43699 0.0
C1631 C 0.08946 0.56826 0.4887 0.0
C1632 C 0.09297 0.54721 0.44456 0.0
C1633 C 0.08841 0.56187 0.54823 0.0
C1634 C 0.08943 0.54829 0.55616 0.0
C1635 C 0.09084 0.52622 0.51205 0.0
C1636 C 0.09165 0.5179 0.46028 0.0
C1637 C 0.09131 0.54066 0.5046 0.0
C1638 C 0.09398 0.52476 0.40095 0.0
C1639 C 0.09469 0.53933 0.39317 0.0
H1640 H 0.47641 0.56287 0.38283 0.0
H1641 H 0.48097 0.56369 0.5827 0.0
H1642 H 0.45545 0.53978 0.59119 0.0
H1643 H 0.43283 0.51771 0.54257 0.0
H1644 H 0.42806 0.51546 0.34287 0.0
H1645 H 0.45251 0.54092 0.33365 0.0
C1646 C 0.4717 0.55788 0.42815 0.0
C1647 C 0.48065 0.56499 0.482 0.0
C1648 C 0.45701 0.54385 0.43279 0.0
C1649 C 0.47442 0.55838 0.54045 0.0
C1650 C 0.4598 0.5447 0.54545 0.0
C1651 C 0.43701 0.52281 0.49691 0.0
C1652 C 0.42866 0.51463 0.4435 0.0
C1653 C 0.45115 0.53719 0.49198 0.0
C1654 C 0.43426 0.5215 0.3848 0.0
C1655 C 0.44828 0.53603 0.3795 0.0
loop_
_geom_bond_atom_site_label_1
_geom_bond_atom_site_label_2
_geom_bond_distance
_geom_bond_site_symmetry_2
_ccdc_geom_bond_type
O0 Cd1 2.223 . S
O0 C8 1.315 . S
Cd1 O0 2.223 . S
Cd1 O4 2.297 . S
Cd1 O5 2.439 . S
Cd1 O11 2.240 . S
Cd2 O3 2.240 . S
Cd2 O10 2.223 . S
Cd2 O12 2.297 . S
Cd2 O13 2.439 . S
O3 Cd2 2.240 . S
O3 C8 1.279 . S
O4 Cd1 2.297 . S
O4 C6 1.247 . S
O5 Cd1 2.439 . S
O5 C6 1.208 . S
C6 O4 1.247 . S
C6 O5 1.208 . S
C7 O12 1.247 . S
C7 O13 1.208 . S
C8 O0 1.315 . S
C8 O3 1.279 . S
C9 O10 1.315 . S
C9 O11 1.279 . S
O10 Cd2 2.223 . S
O10 C9 1.315 . S
O11 Cd1 2.240 . S
O11 C9 1.279 . S
O12 Cd2 2.297 . S
O12 C7 1.247 . S
O13 Cd2 2.439 . S
O13 C7 1.208 . S
O14 Cd15 2.223 . S
O14 C22 1.315 . S
Cd15 O14 2.223 . S
Cd15 O18 2.297 . S
Cd15 O19 2.439 . S
Cd15 O25 2.240 . S
Cd16 O17 2.240 . S
Cd16 O24 2.223 . S
Cd16 O26 2.297 . S
Cd16 O27 2.439 . S
O17 Cd16 2.240 . S
O17 C22 1.279 . S
O18 Cd15 2.297 . S
O18 C20 1.247 . S
O19 Cd15 2.439 . S
O19 C20 1.208 . S
C20 O18 1.247 . S
C20 O19 1.208 . S
C21 O26 1.247 . S
C21 O27 1.208 . S
C22 O14 1.315 . S
C22 O17 1.279 . S
C23 O24 1.315 . S
C23 O25 1.279 . S
O24 Cd16 2.223 . S
O24 C23 1.315 . S
O25 Cd15 2.240 . S
O25 C23 1.279 . S
O26 Cd16 2.297 . S
O26 C21 1.247 . S
O27 Cd16 2.439 . S
O27 C21 1.208 . S
O28 Cd29 2.223 . S
O28 C36 1.315 . S
Cd29 O28 2.223 . S
Cd29 O32 2.297 . S
Cd29 O33 2.439 . S
Cd29 O39 2.240 . S
Cd30 O31 2.240 . S
Cd30 O38 2.223 . S
Cd30 O40 2.297 . S
Cd30 O41 2.439 . S
O31 Cd30 2.240 . S
O31 C36 1.279 . S
O32 Cd29 2.297 . S
O32 C34 1.247 . S
O33 Cd29 2.439 . S
O33 C34 1.208 . S
C34 O32 1.247 . S
C34 O33 1.208 . S
C35 O40 1.247 . S
C35 O41 1.208 . S
C36 O28 1.315 . S
C36 O31 1.279 . S
C37 O38 1.315 . S
C37 O39 1.279 . S
O38 Cd30 2.223 . S
O38 C37 1.315 . S
O39 Cd29 2.240 . S
O39 C37 1.279 . S
O40 Cd30 2.297 . S
O40 C35 1.247 . S
O41 Cd30 2.439 . S
O41 C35 1.208 . S
O42 Cd43 2.223 . S
O42 C50 1.315 . S
Cd43 O42 2.223 . S
Cd43 O46 2.297 . S
Cd43 O47 2.439 . S
Cd43 O53 2.240 . S
Cd44 O45 2.240 . S
Cd44 O52 2.223 . S
Cd44 O54 2.297 . S
Cd44 O55 2.439 . S
O45 Cd44 2.240 . S
O45 C50 1.279 . S
O46 Cd43 2.297 . S
O46 C48 1.247 . S
O47 Cd43 2.439 . S
O47 C48 1.208 . S
C48 O46 1.247 . S
C48 O47 1.208 . S
C49 O54 1.247 . S
C49 O55 1.208 . S
C50 O42 1.315 . S
C50 O45 1.279 . S
C51 O52 1.315 . S
C51 O53 1.279 . S
O52 Cd44 2.223 . S
O52 C51 1.315 . S
O53 Cd43 2.240 . S
O53 C51 1.279 . S
O54 Cd44 2.297 . S
O54 C49 1.247 . S
O55 Cd44 2.439 . S
O55 C49 1.208 . S
O56 Cd57 2.223 . S
O56 C64 1.315 . S
Cd57 O56 2.223 . S
Cd57 O60 2.297 . S
Cd57 O61 2.439 . S
Cd57 O67 2.240 . S
Cd58 O59 2.240 . S
Cd58 O66 2.223 . S
Cd58 O68 2.297 . S
Cd58 O69 2.439 . S
O59 Cd58 2.240 . S
O59 C64 1.279 . S
O60 Cd57 2.297 . S
O60 C62 1.247 . S
O61 Cd57 2.439 . S
O61 C62 1.208 . S
C62 O60 1.247 . S
C62 O61 1.208 . S
C63 O68 1.247 . S
C63 O69 1.208 . S
C64 O56 1.315 . S
C64 O59 1.279 . S
C65 O66 1.315 . S
C65 O67 1.279 . S
O66 Cd58 2.223 . S
O66 C65 1.315 . S
O67 Cd57 2.240 . S
O67 C65 1.279 . S
O68 Cd58 2.297 . S
O68 C63 1.247 . S
O69 Cd58 2.439 . S
O69 C63 1.208 . S
O70 Cd71 2.223 . S
O70 C78 1.315 . S
Cd71 O70 2.223 . S
Cd71 O74 2.297 . S
Cd71 O75 2.439 . S
Cd71 O81 2.240 . S
Cd72 O73 2.240 . S
Cd72 O80 2.223 . S
Cd72 O82 2.297 . S
Cd72 O83 2.439 . S
O73 Cd72 2.240 . S
O73 C78 1.279 . S
O74 Cd71 2.297 . S
O74 C76 1.247 . S
O75 Cd71 2.439 . S
O75 C76 1.208 . S
C76 O74 1.247 . S
C76 O75 1.208 . S
C77 O82 1.247 . S
C77 O83 1.208 . S
C78 O70 1.315 . S
C78 O73 1.279 . S
C79 O80 1.315 . S
C79 O81 1.279 . S
O80 Cd72 2.223 . S
O80 C79 1.315 . S
O81 Cd71 2.240 . S
O81 C79 1.279 . S
O82 Cd72 2.297 . S
O82 C77 1.247 . S
O83 Cd72 2.439 . S
O83 C77 1.208 . S
O84 Cd85 2.223 . S
O84 C92 1.315 . S
Cd85 O84 2.223 . S
Cd85 O88 2.297 . S
Cd85 O89 2.439 . S
Cd85 O95 2.240 . S
Cd86 O87 2.240 . S
Cd86 O94 2.223 . S
Cd86 O96 2.297 . S
Cd86 O97 2.439 . S
O87 Cd86 2.240 . S
O87 C92 1.279 . S
O88 Cd85 2.297 . S
O88 C90 1.247 . S
O89 Cd85 2.439 . S
O89 C90 1.208 . S
C90 O88 1.247 . S
C90 O89 1.208 . S
C91 O96 1.247 . S
C91 O97 1.208 . S
C92 O84 1.315 . S
C92 O87 1.279 . S
C93 O94 1.315 . S
C93 O95 1.279 . S
O94 Cd86 2.223 . S
O94 C93 1.315 . S
O95 Cd85 2.240 . S
O95 C93 1.279 . S
O96 Cd86 2.297 . S
O96 C91 1.247 . S
O97 Cd86 2.439 . S
O97 C91 1.208 . S
O98 Cd99 2.223 . S
O98 C106 1.315 . S
Cd99 O98 2.223 . S
Cd99 O102 2.297 . S
Cd99 O103 2.439 . S
Cd99 O109 2.240 . S
Cd100 O101 2.240 . S
Cd100 O108 2.223 . S
Cd100 O110 2.297 . S
Cd100 O111 2.439 . S
O101 Cd100 2.240 . S
O101 C106 1.279 . S
O102 Cd99 2.297 . S
O102 C104 1.247 . S
O103 Cd99 2.439 . S
O103 C104 1.208 . S
C104 O102 1.247 . S
C104 O103 1.208 . S
C105 O110 1.247 . S
C105 O111 1.208 . S
C106 O98 1.315 . S
C106 O101 1.279 . S
C107 O108 1.315 . S
C107 O109 1.279 . S
O108 Cd100 2.223 . S
O108 C107 1.315 . S
O109 Cd99 2.240 . S
O109 C107 1.279 . S
O110 Cd100 2.297 . S
O110 C105 1.247 . S
O111 Cd100 2.439 . S
O111 C105 1.208 . S
O112 Cd113 2.223 . S
O112 C120 1.315 . S
Cd113 O112 2.223 . S
Cd113 O116 2.297 . S
Cd113 O117 2.439 . S
Cd113 O123 2.240 . S
Cd114 O115 2.240 . S
Cd114 O122 2.223 . S
Cd114 O124 2.297 . S
Cd114 O125 2.439 . S
O115 Cd114 2.240 . S
O115 C120 1.279 . S
O116 Cd113 2.297 . S
O116 C118 1.247 . S
O117 Cd113 2.439 . S
O117 C118 1.208 . S
C118 O116 1.247 . S
C118 O117 1.208 . S
C119 O124 1.247 . S
C119 O125 1.208 . S
C120 O112 1.315 . S
C120 O115 1.279 . S
C121 O122 1.315 . S
C121 O123 1.279 . S
O122 Cd114 2.223 . S
O122 C121 1.315 . S
O123 Cd113 2.240 . S
O123 C121 1.279 . S
O124 Cd114 2.297 . S
O124 C119 1.247 . S
O125 Cd114 2.439 . S
O125 C119 1.208 . S
O126 Cd127 2.223 . S
O126 C134 1.315 . S
Cd127 O126 2.223 . S
Cd127 O130 2.297 . S
Cd127 O131 2.439 . S
Cd127 O137 2.240 . S
Cd128 O129 2.240 . S
Cd128 O136 2.223 . S
Cd128 O138 2.297 . S
Cd128 O139 2.439 . S
O129 Cd128 2.240 . S
O129 C134 1.279 . S
O130 Cd127 2.297 . S
O130 C132 1.247 . S
O131 Cd127 2.439 . S
O131 C132 1.208 . S
C132 O130 1.247 . S
C132 O131 1.208 . S
C133 O138 1.247 . S
C133 O139 1.208 . S
C134 O126 1.315 . S
C134 O129 1.279 . S
C135 O136 1.315 . S
C135 O137 1.279 . S
O136 Cd128 2.223 . S
O136 C135 1.315 . S
O137 Cd127 2.240 . S
O137 C135 1.279 . S
O138 Cd128 2.297 . S
O138 C133 1.247 . S
O139 Cd128 2.439 . S
O139 C133 1.208 . S
O140 Cd141 2.223 . S
O140 C148 1.315 . S
Cd141 O140 2.223 . S
Cd141 O144 2.297 . S
Cd141 O145 2.439 . S
Cd141 O151 2.240 . S
Cd142 O143 2.240 . S
Cd142 O150 2.223 . S
Cd142 O152 2.297 . S
Cd142 O153 2.439 . S
O143 Cd142 2.240 . S
O143 C148 1.279 . S
O144 Cd141 2.297 . S
O144 C146 1.247 . S
O145 Cd141 2.439 . S
O145 C146 1.208 . S
C146 O144 1.247 . S
C146 O145 1.208 . S
C147 O152 1.247 . S
C147 O153 1.208 . S
C148 O140 1.315 . S
C148 O143 1.279 . S
C149 O150 1.315 . S
C149 O151 1.279 . S
O150 Cd142 2.223 . S
O150 C149 1.315 . S
O151 Cd141 2.240 . S
O151 C149 1.279 . S
O152 Cd142 2.297 . S
O152 C147 1.247 . S
O153 Cd142 2.439 . S
O153 C147 1.208 . S
O154 Cd155 2.223 . S
O154 C162 1.315 . S
Cd155 O154 2.223 . S
Cd155 O158 2.297 . S
Cd155 O159 2.439 . S
Cd155 O165 2.240 . S
Cd156 O157 2.240 . S
Cd156 O164 2.223 . S
Cd156 O166 2.297 . S
Cd156 O167 2.439 . S
O157 Cd156 2.240 . S
O157 C162 1.279 . S
O158 Cd155 2.297 . S
O158 C160 1.247 . S
O159 Cd155 2.439 . S
O159 C160 1.208 . S
C160 O158 1.247 . S
C160 O159 1.208 . S
C161 O166 1.247 . S
C161 O167 1.208 . S
C162 O154 1.315 . S
C162 O157 1.279 . S
C163 O164 1.315 . S
C163 O165 1.279 . S
O164 Cd156 2.223 . S
O164 C163 1.315 . S
O165 Cd155 2.240 . S
O165 C163 1.279 . S
O166 Cd156 2.297 . S
O166 C161 1.247 . S
O167 Cd156 2.439 . S
O167 C161 1.208 . S
O168 Cd169 2.223 . S
O168 C176 1.315 . S
Cd169 O168 2.223 . S
Cd169 O172 2.297 . S
Cd169 O173 2.439 . S
Cd169 O179 2.240 . S
Cd170 O171 2.240 . S
Cd170 O178 2.223 . S
Cd170 O180 2.297 . S
Cd170 O181 2.439 . S
O171 Cd170 2.240 . S
O171 C176 1.279 . S
O172 Cd169 2.297 . S
O172 C174 1.247 . S
O173 Cd169 2.439 . S
O173 C174 1.208 . S
C174 O172 1.247 . S
C174 O173 1.208 . S
C175 O180 1.247 . S
C175 O181 1.208 . S
C176 O168 1.315 . S
C176 O171 1.279 . S
C177 O178 1.315 . S
C177 O179 1.279 . S
O178 Cd170 2.223 . S
O178 C177 1.315 . S
O179 Cd169 2.240 . S
O179 C177 1.279 . S
O180 Cd170 2.297 . S
O180 C175 1.247 . S
O181 Cd170 2.439 . S
O181 C175 1.208 . S
O182 Cd183 2.223 . S
O182 C190 1.315 . S
Cd183 O182 2.223 . S
Cd183 O186 2.297 . S
Cd183 O187 2.439 . S
Cd183 O193 2.240 . S
Cd184 O185 2.240 . S
Cd184 O192 2.223 . S
Cd184 O194 2.297 . S
Cd184 O195 2.439 . S
O185 Cd184 2.240 . S
O185 C190 1.279 . S
O186 Cd183 2.297 . S
O186 C188 1.247 . S
O187 Cd183 2.439 . S
O187 C188 1.208 . S
C188 O186 1.247 . S
C188 O187 1.208 . S
C189 O194 1.247 . S
C189 O195 1.208 . S
C190 O182 1.315 . S
C190 O185 1.279 . S
C191 O192 1.315 . S
C191 O193 1.279 . S
O192 Cd184 2.223 . S
O192 C191 1.315 . S
O193 Cd183 2.240 . S
O193 C191 1.279 . S
O194 Cd184 2.297 . S
O194 C189 1.247 . S
O195 Cd184 2.439 . S
O195 C189 1.208 . S
O196 Cd197 2.223 . S
O196 C204 1.315 . S
Cd197 O196 2.223 . S
Cd197 O200 2.297 . S
Cd197 O201 2.439 . S
Cd197 O207 2.240 . S
Cd198 O199 2.240 . S
Cd198 O206 2.223 . S
Cd198 O208 2.297 . S
Cd198 O209 2.439 . S
O199 Cd198 2.240 . S
O199 C204 1.279 . S
O200 Cd197 2.297 . S
O200 C202 1.247 . S
O201 Cd197 2.439 . S
O201 C202 1.208 . S
C202 O200 1.247 . S
C202 O201 1.208 . S
C203 O208 1.247 . S
C203 O209 1.208 . S
C204 O196 1.315 . S
C204 O199 1.279 . S
C205 O206 1.315 . S
C205 O207 1.279 . S
O206 Cd198 2.223 . S
O206 C205 1.315 . S
O207 Cd197 2.240 . S
O207 C205 1.279 . S
O208 Cd198 2.297 . S
O208 C203 1.247 . S
O209 Cd198 2.439 . S
O209 C203 1.208 . S
O210 Cd211 2.223 . S
O210 C218 1.315 . S
Cd211 O210 2.223 . S
Cd211 O214 2.297 1_554 S
Cd211 O215 2.439 1_554 S
Cd211 O221 2.240 . S
Cd212 O213 2.240 . S
Cd212 O220 2.223 . S
Cd212 O222 2.297 . S
Cd212 O223 2.439 . S
O213 Cd212 2.240 . S
O213 C218 1.279 . S
O214 Cd211 2.297 1_556 S
O214 C216 1.247 . S
O215 Cd211 2.439 1_556 S
O215 C216 1.208 . S
C216 O214 1.247 . S
C216 O215 1.208 . S
C217 O222 1.247 . S
C217 O223 1.208 . S
C218 O210 1.315 . S
C218 O213 1.279 . S
C219 O220 1.315 . S
C219 O221 1.279 . S
O220 Cd212 2.223 . S
O220 C219 1.315 . S
O221 Cd211 2.240 . S
O221 C219 1.279 . S
O222 Cd212 2.297 . S
O222 C217 1.247 . S
O223 Cd212 2.439 . S
O223 C217 1.208 . S
O224 Cd225 2.223 . S
O224 C232 1.315 . S
Cd225 O224 2.223 . S
Cd225 O228 2.297 1_554 S
Cd225 O229 2.439 1_554 S
Cd225 O235 2.240 . S
Cd226 O227 2.240 . S
Cd226 O234 2.223 . S
Cd226 O236 2.297 . S
Cd226 O237 2.439 . S
O227 Cd226 2.240 . S
O227 C232 1.279 . S
O228 Cd225 2.297 1_556 S
O228 C230 1.247 . S
O229 Cd225 2.439 1_556 S
O229 C230 1.208 . S
C230 O228 1.247 . S
C230 O229 1.208 . S
C231 O236 1.247 . S
C231 O237 1.208 . S
C232 O224 1.315 . S
C232 O227 1.279 . S
C233 O234 1.315 . S
C233 O235 1.279 . S
O234 Cd226 2.223 . S
O234 C233 1.315 . S
O235 Cd225 2.240 . S
O235 C233 1.279 . S
O236 Cd226 2.297 . S
O236 C231 1.247 . S
O237 Cd226 2.439 . S
O237 C231 1.208 . S
O238 Cd239 2.223 . S
O238 C246 1.315 . S
Cd239 O238 2.223 . S
Cd239 O242 2.297 1_554 S
Cd239 O243 2.439 1_554 S
Cd239 O249 2.240 . S
Cd240 O241 2.240 . S
Cd240 O248 2.223 . S
Cd240 O250 2.297 . S
Cd240 O251 2.439 . S
O241 Cd240 2.240 . S
O241 C246 1.279 . S
O242 Cd239 2.297 1_556 S
O242 C244 1.247 . S
O243 Cd239 2.439 1_556 S
O243 C244 1.208 . S
C244 O242 1.247 . S
C244 O243 1.208 . S
C245 O250 1.247 . S
C245 O251 1.208 . S
C246 O238 1.315 . S
C246 O241 1.279 . S
C247 O248 1.315 . S
C247 O249 1.279 . S
O248 Cd240 2.223 . S
O248 C247 1.315 . S
O249 Cd239 2.240 . S
O249 C247 1.279 . S
O250 Cd240 2.297 . S
O250 C245 1.247 . S
O251 Cd240 2.439 . S
O251 C245 1.208 . S
O252 Cd253 2.223 . S
O252 C260 1.315 . S
Cd253 O252 2.223 . S
Cd253 O256 2.297 1_554 S
Cd253 O257 2.439 1_554 S
Cd253 O263 2.240 . S
Cd254 O255 2.240 . S
Cd254 O262 2.223 . S
Cd254 O264 2.297 . S
Cd254 O265 2.439 . S
O255 Cd254 2.240 . S
O255 C260 1.279 . S
O256 Cd253 2.297 1_556 S
O256 C258 1.247 . S
O257 Cd253 2.439 1_556 S
O257 C258 1.208 . S
C258 O256 1.247 . S
C258 O257 1.208 . S
C259 O264 1.247 . S
C259 O265 1.208 . S
C260 O252 1.315 . S
C260 O255 1.279 . S
C261 O262 1.315 . S
C261 O263 1.279 . S
O262 Cd254 2.223 . S
O262 C261 1.315 . S
O263 Cd253 2.240 . S
O263 C261 1.279 . S
O264 Cd254 2.297 . S
O264 C259 1.247 . S
O265 Cd254 2.439 . S
O265 C259 1.208 . S
O266 Cd267 2.223 . S
O266 C274 1.315 . S
Cd267 O266 2.223 . S
Cd267 O270 2.297 1_554 S
Cd267 O271 2.439 1_554 S
Cd267 O277 2.240 . S
Cd268 O269 2.240 . S
Cd268 O276 2.223 . S
Cd268 O278 2.297 . S
Cd268 O279 2.439 . S
O269 Cd268 2.240 . S
O269 C274 1.279 . S
O270 Cd267 2.297 1_556 S
O270 C272 1.247 . S
O271 Cd267 2.439 1_556 S
O271 C272 1.208 . S
C272 O270 1.247 . S
C272 O271 1.208 . S
C273 O278 1.247 . S
C273 O279 1.208 . S
C274 O266 1.315 . S
C274 O269 1.279 . S
C275 O276 1.315 . S
C275 O277 1.279 . S
O276 Cd268 2.223 . S
O276 C275 1.315 . S
O277 Cd267 2.240 . S
O277 C275 1.279 . S
O278 Cd268 2.297 . S
O278 C273 1.247 . S
O279 Cd268 2.439 . S
O279 C273 1.208 . S
O280 Cd281 2.223 . S
O280 C288 1.315 . S
Cd281 O280 2.223 . S
Cd281 O284 2.297 1_554 S
Cd281 O285 2.439 1_554 S
Cd281 O291 2.240 . S
Cd282 O283 2.240 . S
Cd282 O290 2.223 . S
Cd282 O292 2.297 . S
Cd282 O293 2.439 . S
O283 Cd282 2.240 . S
O283 C288 1.279 . S
O284 Cd281 2.297 1_556 S
O284 C286 1.247 . S
O285 Cd281 2.439 1_556 S
O285 C286 1.208 . S
C286 O284 1.247 . S
C286 O285 1.208 . S
C287 O292 1.247 . S
C287 O293 1.208 . S
C288 O280 1.315 . S
C288 O283 1.279 . S
C289 O290 1.315 . S
C289 O291 1.279 . S
O290 Cd282 2.223 . S
O290 C289 1.315 . S
O291 Cd281 2.240 . S
O291 C289 1.279 . S
O292 Cd282 2.297 . S
O292 C287 1.247 . S
O293 Cd282 2.439 . S
O293 C287 1.208 . S
O294 Cd295 2.223 . S
O294 C302 1.315 . S
Cd295 O294 2.223 . S
Cd295 O298 2.297 . S
Cd295 O299 2.439 . S
Cd295 O305 2.240 . S
Cd296 O297 2.240 . S
Cd296 O304 2.223 . S
Cd296 O306 2.297 . S
Cd296 O307 2.439 . S
O297 Cd296 2.240 . S
O297 C302 1.279 . S
O298 Cd295 2.297 . S
O298 C300 1.247 . S
O299 Cd295 2.439 . S
O299 C300 1.208 . S
C300 O298 1.247 . S
C300 O299 1.208 . S
C301 O306 1.247 . S
C301 O307 1.208 . S
C302 O294 1.315 . S
C302 O297 1.279 . S
C303 O304 1.315 . S
C303 O305 1.279 . S
O304 Cd296 2.223 . S
O304 C303 1.315 . S
O305 Cd295 2.240 . S
O305 C303 1.279 . S
O306 Cd296 2.297 . S
O306 C301 1.247 . S
O307 Cd296 2.439 . S
O307 C301 1.208 . S
O308 Cd309 2.223 . S
O308 C316 1.315 . S
Cd309 O308 2.223 . S
Cd309 O312 2.297 . S
Cd309 O313 2.439 . S
Cd309 O319 2.240 . S
Cd310 O311 2.240 . S
Cd310 O318 2.223 . S
Cd310 O320 2.297 . S
Cd310 O321 2.439 . S
O311 Cd310 2.240 . S
O311 C316 1.279 . S
O312 Cd309 2.297 . S
O312 C314 1.247 . S
O313 Cd309 2.439 . S
O313 C314 1.208 . S
C314 O312 1.247 . S
C314 O313 1.208 . S
C315 O320 1.247 . S
C315 O321 1.208 . S
C316 O308 1.315 . S
C316 O311 1.279 . S
C317 O318 1.315 . S
C317 O319 1.279 . S
O318 Cd310 2.223 . S
O318 C317 1.315 . S
O319 Cd309 2.240 . S
O319 C317 1.279 . S
O320 Cd310 2.297 . S
O320 C315 1.247 . S
O321 Cd310 2.439 . S
O321 C315 1.208 . S
O322 Cd323 2.223 . S
O322 C330 1.315 . S
Cd323 O322 2.223 . S
Cd323 O326 2.297 . S
Cd323 O327 2.439 . S
Cd323 O333 2.240 . S
Cd324 O325 2.240 . S
Cd324 O332 2.223 . S
Cd324 O334 2.297 . S
Cd324 O335 2.439 . S
O325 Cd324 2.240 . S
O325 C330 1.279 . S
O326 Cd323 2.297 . S
O326 C328 1.247 . S
O327 Cd323 2.439 . S
O327 C328 1.208 . S
C328 O326 1.247 . S
C328 O327 1.208 . S
C329 O334 1.247 . S
C329 O335 1.208 . S
C330 O322 1.315 . S
C330 O325 1.279 . S
C331 O332 1.315 . S
C331 O333 1.279 . S
O332 Cd324 2.223 . S
O332 C331 1.315 . S
O333 Cd323 2.240 . S
O333 C331 1.279 . S
O334 Cd324 2.297 . S
O334 C329 1.247 . S
O335 Cd324 2.439 . S
O335 C329 1.208 . S
O336 Cd337 2.223 . S
O336 C344 1.315 . S
Cd337 O336 2.223 . S
Cd337 O340 2.297 1_556 S
Cd337 O341 2.439 1_556 S
Cd337 O347 2.240 . S
Cd338 O339 2.240 . S
Cd338 O346 2.223 . S
Cd338 O348 2.297 . S
Cd338 O349 2.439 . S
O339 Cd338 2.240 . S
O339 C344 1.279 . S
O340 Cd337 2.297 1_554 S
O340 C342 1.247 . S
O341 Cd337 2.439 1_554 S
O341 C342 1.208 . S
C342 O340 1.247 . S
C342 O341 1.208 . S
C343 O348 1.247 . S
C343 O349 1.208 . S
C344 O336 1.315 . S
C344 O339 1.279 . S
C345 O346 1.315 . S
C345 O347 1.279 . S
O346 Cd338 2.223 . S
O346 C345 1.315 . S
O347 Cd337 2.240 . S
O347 C345 1.279 . S
O348 Cd338 2.297 . S
O348 C343 1.247 . S
O349 Cd338 2.439 . S
O349 C343 1.208 . S
O350 Cd351 2.223 . S
O350 C358 1.315 . S
Cd351 O350 2.223 . S
Cd351 O354 2.297 1_556 S
Cd351 O355 2.439 1_556 S
Cd351 O361 2.240 . S
Cd352 O353 2.240 . S
Cd352 O360 2.223 . S
Cd352 O362 2.297 . S
Cd352 O363 2.439 . S
O353 Cd352 2.240 . S
O353 C358 1.279 . S
O354 Cd351 2.297 1_554 S
O354 C356 1.247 . S
O355 Cd351 2.439 1_554 S
O355 C356 1.208 . S
C356 O354 1.247 . S
C356 O355 1.208 . S
C357 O362 1.247 . S
C357 O363 1.208 . S
C358 O350 1.315 . S
C358 O353 1.279 . S
C359 O360 1.315 . S
C359 O361 1.279 . S
O360 Cd352 2.223 . S
O360 C359 1.315 . S
O361 Cd351 2.240 . S
O361 C359 1.279 . S
O362 Cd352 2.297 . S
O362 C357 1.247 . S
O363 Cd352 2.439 . S
O363 C357 1.208 . S
O364 Cd365 2.223 . S
O364 C372 1.315 . S
Cd365 O364 2.223 . S
Cd365 O368 2.297 1_556 S
Cd365 O369 2.439 1_556 S
Cd365 O375 2.240 . S
Cd366 O367 2.240 . S
Cd366 O374 2.223 . S
Cd366 O376 2.297 . S
Cd366 O377 2.439 . S
O367 Cd366 2.240 . S
O367 C372 1.279 . S
O368 Cd365 2.297 1_554 S
O368 C370 1.247 . S
O369 Cd365 2.439 1_554 S
O369 C370 1.208 . S
C370 O368 1.247 . S
C370 O369 1.208 . S
C371 O376 1.247 . S
C371 O377 1.208 . S
C372 O364 1.315 . S
C372 O367 1.279 . S
C373 O374 1.315 . S
C373 O375 1.279 . S
O374 Cd366 2.223 . S
O374 C373 1.315 . S
O375 Cd365 2.240 . S
O375 C373 1.279 . S
O376 Cd366 2.297 . S
O376 C371 1.247 . S
O377 Cd366 2.439 . S
O377 C371 1.208 . S
O378 Cd379 2.223 . S
O378 C386 1.315 . S
Cd379 O378 2.223 . S
Cd379 O382 2.297 . S
Cd379 O383 2.439 . S
Cd379 O389 2.240 . S
Cd380 O381 2.240 . S
Cd380 O388 2.223 . S
Cd380 O390 2.297 . S
Cd380 O391 2.439 . S
O381 Cd380 2.240 . S
O381 C386 1.279 . S
O382 Cd379 2.297 . S
O382 C384 1.247 . S
O383 Cd379 2.439 . S
O383 C384 1.208 . S
C384 O382 1.247 . S
C384 O383 1.208 . S
C385 O390 1.247 . S
C385 O391 1.208 . S
C386 O378 1.315 . S
C386 O381 1.279 . S
C387 O388 1.315 . S
C387 O389 1.279 . S
O388 Cd380 2.223 . S
O388 C387 1.315 . S
O389 Cd379 2.240 . S
O389 C387 1.279 . S
O390 Cd380 2.297 . S
O390 C385 1.247 . S
O391 Cd380 2.439 . S
O391 C385 1.208 . S
O392 Cd393 2.223 . S
O392 C400 1.315 . S
Cd393 O392 2.223 . S
Cd393 O396 2.297 . S
Cd393 O397 2.439 . S
Cd393 O403 2.240 . S
Cd394 O395 2.240 . S
Cd394 O402 2.223 . S
Cd394 O404 2.297 . S
Cd394 O405 2.439 . S
O395 Cd394 2.240 . S
O395 C400 1.279 . S
O396 Cd393 2.297 . S
O396 C398 1.247 . S
O397 Cd393 2.439 . S
O397 C398 1.208 . S
C398 O396 1.247 . S
C398 O397 1.208 . S
C399 O404 1.247 . S
C399 O405 1.208 . S
C400 O392 1.315 . S
C400 O395 1.279 . S
C401 O402 1.315 . S
C401 O403 1.279 . S
O402 Cd394 2.223 . S
O402 C401 1.315 . S
O403 Cd393 2.240 . S
O403 C401 1.279 . S
O404 Cd394 2.297 . S
O404 C399 1.247 . S
O405 Cd394 2.439 . S
O405 C399 1.208 . S
O406 Cd407 2.223 . S
O406 C414 1.315 . S
Cd407 O406 2.223 . S
Cd407 O410 2.297 . S
Cd407 O411 2.439 . S
Cd407 O417 2.240 . S
Cd408 O409 2.240 . S
Cd408 O416 2.223 . S
Cd408 O418 2.297 . S
Cd408 O419 2.439 . S
O409 Cd408 2.240 . S
O409 C414 1.279 . S
O410 Cd407 2.297 . S
O410 C412 1.247 . S
O411 Cd407 2.439 . S
O411 C412 1.208 . S
C412 O410 1.247 . S
C412 O411 1.208 . S
C413 O418 1.247 . S
C413 O419 1.208 . S
C414 O406 1.315 . S
C414 O409 1.279 . S
C415 O416 1.315 . S
C415 O417 1.279 . S
O416 Cd408 2.223 . S
O416 C415 1.315 . S
O417 Cd407 2.240 . S
O417 C415 1.279 . S
O418 Cd408 2.297 . S
O418 C413 1.247 . S
O419 Cd408 2.439 . S
O419 C413 1.208 . S
O420 Cd421 2.223 . S
O420 C428 1.315 . S
Cd421 O420 2.223 . S
Cd421 O424 2.297 . S
Cd421 O425 2.439 . S
Cd421 O431 2.240 . S
Cd422 O423 2.240 . S
Cd422 O430 2.223 . S
Cd422 O432 2.297 . S
Cd422 O433 2.439 . S
O423 Cd422 2.240 . S
O423 C428 1.279 . S
O424 Cd421 2.297 . S
O424 C426 1.247 . S
O425 Cd421 2.439 . S
O425 C426 1.208 . S
C426 O424 1.247 . S
C426 O425 1.208 . S
C427 O432 1.247 . S
C427 O433 1.208 . S
C428 O420 1.315 . S
C428 O423 1.279 . S
C429 O430 1.315 . S
C429 O431 1.279 . S
O430 Cd422 2.223 . S
O430 C429 1.315 . S
O431 Cd421 2.240 . S
O431 C429 1.279 . S
O432 Cd422 2.297 . S
O432 C427 1.247 . S
O433 Cd422 2.439 . S
O433 C427 1.208 . S
O434 Cd435 2.223 . S
O434 C442 1.315 . S
Cd435 O434 2.223 . S
Cd435 O438 2.297 . S
Cd435 O439 2.439 . S
Cd435 O445 2.240 . S
Cd436 O437 2.240 . S
Cd436 O444 2.223 . S
Cd436 O446 2.297 . S
Cd436 O447 2.439 . S
O437 Cd436 2.240 . S
O437 C442 1.279 . S
O438 Cd435 2.297 . S
O438 C440 1.247 . S
O439 Cd435 2.439 . S
O439 C440 1.208 . S
C440 O438 1.247 . S
C440 O439 1.208 . S
C441 O446 1.247 . S
C441 O447 1.208 . S
C442 O434 1.315 . S
C442 O437 1.279 . S
C443 O444 1.315 . S
C443 O445 1.279 . S
O444 Cd436 2.223 . S
O444 C443 1.315 . S
O445 Cd435 2.240 . S
O445 C443 1.279 . S
O446 Cd436 2.297 . S
O446 C441 1.247 . S
O447 Cd436 2.439 . S
O447 C441 1.208 . S
O448 Cd449 2.223 . S
O448 C456 1.315 . S
Cd449 O448 2.223 . S
Cd449 O452 2.297 . S
Cd449 O453 2.439 . S
Cd449 O459 2.240 . S
Cd450 O451 2.240 . S
Cd450 O458 2.223 . S
Cd450 O460 2.297 . S
Cd450 O461 2.439 . S
O451 Cd450 2.240 . S
O451 C456 1.279 . S
O452 Cd449 2.297 . S
O452 C454 1.247 . S
O453 Cd449 2.439 . S
O453 C454 1.208 . S
C454 O452 1.247 . S
C454 O453 1.208 . S
C455 O460 1.247 . S
C455 O461 1.208 . S
C456 O448 1.315 . S
C456 O451 1.279 . S
C457 O458 1.315 . S
C457 O459 1.279 . S
O458 Cd450 2.223 . S
O458 C457 1.315 . S
O459 Cd449 2.240 . S
O459 C457 1.279 . S
O460 Cd450 2.297 . S
O460 C455 1.247 . S
O461 Cd450 2.439 . S
O461 C455 1.208 . S
O462 Cd463 2.223 . S
O462 C470 1.315 . S
Cd463 O462 2.223 . S
Cd463 O466 2.297 1_556 S
Cd463 O467 2.439 1_556 S
Cd463 O473 2.240 . S
Cd464 O465 2.240 . S
Cd464 O472 2.223 . S
Cd464 O474 2.297 . S
Cd464 O475 2.439 . S
O465 Cd464 2.240 . S
O465 C470 1.279 . S
O466 Cd463 2.297 1_554 S
O466 C468 1.247 . S
O467 Cd463 2.439 1_554 S
O467 C468 1.208 . S
C468 O466 1.247 . S
C468 O467 1.208 . S
C469 O474 1.247 . S
C469 O475 1.208 . S
C470 O462 1.315 . S
C470 O465 1.279 . S
C471 O472 1.315 . S
C471 O473 1.279 . S
O472 Cd464 2.223 . S
O472 C471 1.315 . S
O473 Cd463 2.240 . S
O473 C471 1.279 . S
O474 Cd464 2.297 . S
O474 C469 1.247 . S
O475 Cd464 2.439 . S
O475 C469 1.208 . S
O476 Cd477 2.223 . S
O476 C484 1.315 . S
Cd477 O476 2.223 . S
Cd477 O480 2.297 1_556 S
Cd477 O481 2.439 1_556 S
Cd477 O487 2.240 . S
Cd478 O479 2.240 . S
Cd478 O486 2.223 . S
Cd478 O488 2.297 . S
Cd478 O489 2.439 . S
O479 Cd478 2.240 . S
O479 C484 1.279 . S
O480 Cd477 2.297 1_554 S
O480 C482 1.247 . S
O481 Cd477 2.439 1_554 S
O481 C482 1.208 . S
C482 O480 1.247 . S
C482 O481 1.208 . S
C483 O488 1.247 . S
C483 O489 1.208 . S
C484 O476 1.315 . S
C484 O479 1.279 . S
C485 O486 1.315 . S
C485 O487 1.279 . S
O486 Cd478 2.223 . S
O486 C485 1.315 . S
O487 Cd477 2.240 . S
O487 C485 1.279 . S
O488 Cd478 2.297 . S
O488 C483 1.247 . S
O489 Cd478 2.439 . S
O489 C483 1.208 . S
O490 Cd491 2.223 . S
O490 C498 1.315 . S
Cd491 O490 2.223 . S
Cd491 O494 2.297 1_556 S
Cd491 O495 2.439 1_556 S
Cd491 O501 2.240 . S
Cd492 O493 2.240 . S
Cd492 O500 2.223 . S
Cd492 O502 2.297 . S
Cd492 O503 2.439 . S
O493 Cd492 2.240 . S
O493 C498 1.279 . S
O494 Cd491 2.297 1_554 S
O494 C496 1.247 . S
O495 Cd491 2.439 1_554 S
O495 C496 1.208 . S
C496 O494 1.247 . S
C496 O495 1.208 . S
C497 O502 1.247 . S
C497 O503 1.208 . S
C498 O490 1.315 . S
C498 O493 1.279 . S
C499 O500 1.315 . S
C499 O501 1.279 . S
O500 Cd492 2.223 . S
O500 C499 1.315 . S
O501 Cd491 2.240 . S
O501 C499 1.279 . S
O502 Cd492 2.297 . S
O502 C497 1.247 . S
O503 Cd492 2.439 . S
O503 C497 1.208 . S
H504 C510 0.920 1_545 S
H505 C513 0.930 . S
H506 C514 0.930 . S
H507 C515 0.920 1_565 S
H508 C518 0.930 . S
H509 C519 0.930 . S
C510 H504 0.920 1_565 S
C510 C511 1.355 . S
C510 C512 1.415 1_565 S
C511 C510 1.355 . S
C511 C513 1.419 . S
C512 C510 1.415 1_545 S
C512 C517 1.425 1_545 S
C512 C519 1.409 . S
C513 H505 0.930 . S
C513 C511 1.419 . S
C513 C514 1.362 . S
C514 H506 0.930 . S
C514 C513 1.362 . S
C514 C517 1.409 . S
C515 H507 0.920 1_545 S
C515 C516 1.355 . S
C515 C517 1.415 1_545 S
C516 C515 1.355 . S
C516 C518 1.419 . S
C517 C512 1.425 1_565 S
C517 C514 1.409 . S
C517 C515 1.415 1_565 S
C518 H508 0.930 . S
C518 C516 1.419 . S
C518 C519 1.362 . S
C519 H509 0.930 . S
C519 C512 1.409 . S
C519 C518 1.362 . S
H520 C526 0.930 . S
H521 C529 0.930 . S
H522 C530 0.930 . S
H523 C531 0.930 . S
H524 C534 0.930 . S
H525 C535 0.930 . S
C526 H520 0.930 . S
C526 C527 1.355 . S
C526 C528 1.415 . S
C527 C526 1.355 . S
C527 C529 1.419 . S
C528 C526 1.415 . S
C528 C533 1.425 1_455 S
C528 C535 1.409 . S
C529 H521 0.930 . S
C529 C527 1.419 . S
C529 C530 1.362 1_455 S
C530 H522 0.930 . S
C530 C529 1.362 1_655 S
C530 C533 1.409 . S
C531 H523 0.930 . S
C531 C532 1.355 . S
C531 C533 1.415 . S
C532 C531 1.355 . S
C532 C534 1.419 . S
C533 C528 1.425 1_655 S
C533 C530 1.409 . S
C533 C531 1.415 . S
C534 H524 0.930 . S
C534 C532 1.419 . S
C534 C535 1.362 1_655 S
C535 H525 0.930 . S
C535 C528 1.409 . S
C535 C534 1.362 1_455 S
H536 C542 0.930 . S
H537 C545 0.930 . S
H538 C546 0.930 . S
H539 C547 0.930 . S
H540 C550 0.930 . S
H541 C551 0.930 . S
C542 H536 0.930 . S
C542 C543 1.355 . S
C542 C544 1.415 . S
C543 C542 1.355 . S
C543 C545 1.419 . S
C544 C542 1.415 . S
C544 C549 1.425 . S
C544 C551 1.409 . S
C545 H537 0.930 . S
C545 C543 1.419 . S
C545 C546 1.362 . S
C546 H538 0.930 . S
C546 C545 1.362 . S
C546 C549 1.409 . S
C547 H539 0.930 . S
C547 C548 1.355 . S
C547 C549 1.415 . S
C548 C547 1.355 . S
C548 C550 1.419 . S
C549 C544 1.425 . S
C549 C546 1.409 . S
C549 C547 1.415 . S
C550 H540 0.930 . S
C550 C548 1.419 . S
C550 C551 1.362 . S
C551 H541 0.930 . S
C551 C544 1.409 . S
C551 C550 1.362 . S
H552 C558 0.930 . S
H553 C561 0.930 . S
H554 C562 0.930 . S
H555 C563 0.930 . S
H556 C566 0.930 . S
H557 C567 0.930 . S
C558 H552 0.930 . S
C558 C559 1.355 . S
C558 C560 1.383 1_565 S
C559 C558 1.355 . S
C559 C561 1.419 . S
C560 C558 1.383 1_545 S
C560 C565 1.343 1_545 S
C560 C567 1.487 . S
C561 H553 0.930 . S
C561 C559 1.419 . S
C561 C562 1.362 . S
C562 H554 0.930 . S
C562 C561 1.362 . S
C562 C565 1.487 . S
C563 H555 0.930 . S
C563 C564 1.355 . S
C563 C565 1.383 1_545 S
C564 C563 1.355 . S
C564 C566 1.419 . S
C565 C560 1.343 1_565 S
C565 C562 1.487 . S
C565 C563 1.383 1_565 S
C566 H556 0.930 . S
C566 C564 1.419 . S
C566 C567 1.362 . S
C567 H557 0.930 . S
C567 C560 1.487 . S
C567 C566 1.362 . S
H568 C574 0.930 . S
H569 C577 0.930 . S
H570 C578 0.930 . S
H571 C579 0.930 . S
H572 C582 0.930 . S
H573 C583 0.930 . S
C574 H568 0.930 . S
C574 C575 1.355 . S
C574 C576 1.415 . S
C575 C574 1.355 . S
C575 C577 1.419 . S
C576 C574 1.415 . S
C576 C581 1.425 1_455 S
C576 C583 1.409 . S
C577 H569 0.930 . S
C577 C575 1.419 . S
C577 C578 1.362 1_455 S
C578 H570 0.930 . S
C578 C577 1.362 1_655 S
C578 C581 1.409 . S
C579 H571 0.930 . S
C579 C580 1.355 . S
C579 C581 1.415 . S
C580 C579 1.355 . S
C580 C582 1.419 . S
C581 C576 1.425 1_655 S
C581 C578 1.409 . S
C581 C579 1.415 . S
C582 H572 0.930 . S
C582 C580 1.419 . S
C582 C583 1.362 1_655 S
C583 H573 0.930 . S
C583 C576 1.409 . S
C583 C582 1.362 1_455 S
H584 C590 0.930 . S
H585 C593 0.930 . S
H586 C594 0.930 . S
H587 C595 0.930 . S
H588 C598 0.930 . S
H589 C599 0.930 . S
C590 H584 0.930 . S
C590 C591 1.355 . S
C590 C592 1.415 . S
C591 C590 1.355 . S
C591 C593 1.419 . S
C592 C590 1.415 . S
C592 C597 1.425 . S
C592 C599 1.409 . S
C593 H585 0.930 . S
C593 C591 1.419 . S
C593 C594 1.362 . S
C594 H586 0.930 . S
C594 C593 1.362 . S
C594 C597 1.409 . S
C595 H587 0.930 . S
C595 C596 1.355 . S
C595 C597 1.415 . S
C596 C595 1.355 . S
C596 C598 1.419 . S
C597 C592 1.425 . S
C597 C594 1.409 . S
C597 C595 1.415 . S
C598 H588 0.930 . S
C598 C596 1.419 . S
C598 C599 1.362 . S
C599 H589 0.930 . S
C599 C592 1.409 . S
C599 C598 1.362 . S
H600 C606 0.930 . S
H601 C609 0.930 . S
H602 C610 0.930 . S
H603 C611 0.930 . S
H604 C614 0.930 . S
H605 C615 0.930 . S
C606 H600 0.930 . S
C606 C607 1.355 . S
C606 C608 1.415 . S
C607 C606 1.355 . S
C607 C609 1.419 . S
C608 C606 1.415 . S
C608 C613 1.425 . S
C608 C615 1.409 . S
C609 H601 0.930 . S
C609 C607 1.419 . S
C609 C610 1.362 . S
C610 H602 0.930 . S
C610 C609 1.362 . S
C610 C613 1.409 . S
C611 H603 0.930 . S
C611 C612 1.355 . S
C611 C613 1.415 . S
C612 C611 1.355 . S
C612 C614 1.419 . S
C613 C608 1.425 . S
C613 C610 1.409 . S
C613 C611 1.415 . S
C614 H604 0.930 . S
C614 C612 1.419 . S
C614 C615 1.362 . S
C615 H605 0.930 . S
C615 C608 1.409 . S
C615 C614 1.362 . S
H616 C622 0.930 . S
H617 C625 0.930 . S
H618 C626 0.930 . S
H619 C627 0.930 . S
H620 C630 0.930 . S
H621 C631 0.930 . S
C622 H616 0.930 . S
C622 C623 1.355 . S
C622 C624 1.415 . S
C623 C622 1.355 . S
C623 C625 1.419 . S
C624 C622 1.415 . S
C624 C629 1.425 . S
C624 C631 1.409 . S
C625 H617 0.930 . S
C625 C623 1.419 . S
C625 C626 1.362 . S
C626 H618 0.930 . S
C626 C625 1.362 . S
C626 C629 1.409 . S
C627 H619 0.930 . S
C627 C628 1.355 . S
C627 C629 1.415 . S
C628 C627 1.355 . S
C628 C630 1.419 . S
C629 C624 1.425 . S
C629 C626 1.409 . S
C629 C627 1.415 . S
C630 H620 0.930 . S
C630 C628 1.419 . S
C630 C631 1.362 . S
C631 H621 0.930 . S
C631 C624 1.409 . S
C631 C630 1.362 . S
H632 C638 0.930 . S
H633 C641 0.930 . S
H634 C642 0.930 . S
H635 C643 0.930 . S
H636 C646 0.930 . S
H637 C647 0.930 . S
C638 H632 0.930 . S
C638 C639 1.355 . S
C638 C640 1.415 . S
C639 C638 1.355 . S
C639 C641 1.419 . S
C640 C638 1.415 . S
C640 C645 1.425 . S
C640 C647 1.409 . S
C641 H633 0.930 . S
C641 C639 1.419 . S
C641 C642 1.362 . S
C642 H634 0.930 . S
C642 C641 1.362 . S
C642 C645 1.409 . S
C643 H635 0.930 . S
C643 C644 1.355 . S
C643 C645 1.415 . S
C644 C643 1.355 . S
C644 C646 1.419 . S
C645 C640 1.425 . S
C645 C642 1.409 . S
C645 C643 1.415 . S
C646 H636 0.930 . S
C646 C644 1.419 . S
C646 C647 1.362 . S
C647 H637 0.930 . S
C647 C640 1.409 . S
C647 C646 1.362 . S
H648 C654 0.930 . S
H649 C657 0.930 . S
H650 C658 0.930 . S
H651 C659 0.930 . S
H652 C662 0.930 . S
H653 C663 0.930 . S
C654 H648 0.930 . S
C654 C655 1.355 . S
C654 C656 1.415 . S
C655 C654 1.355 . S
C655 C657 1.419 . S
C656 C654 1.415 . S
C656 C661 1.425 . S
C656 C663 1.409 . S
C657 H649 0.930 . S
C657 C655 1.419 . S
C657 C658 1.362 . S
C658 H650 0.930 . S
C658 C657 1.362 . S
C658 C661 1.409 . S
C659 H651 0.930 . S
C659 C660 1.355 . S
C659 C661 1.415 . S
C660 C659 1.355 . S
C660 C662 1.419 . S
C661 C656 1.425 . S
C661 C658 1.409 . S
C661 C659 1.415 . S
C662 H652 0.930 . S
C662 C660 1.419 . S
C662 C663 1.362 . S
C663 H653 0.930 . S
C663 C656 1.409 . S
C663 C662 1.362 . S
H664 C670 0.930 . S
H665 C673 0.930 . S
H666 C674 0.930 . S
H667 C675 0.930 . S
H668 C678 0.930 . S
H669 C679 0.930 . S
C670 H664 0.930 . S
C670 C671 1.355 . S
C670 C672 1.415 . S
C671 C670 1.355 . S
C671 C673 1.419 . S
C672 C670 1.415 . S
C672 C677 1.425 . S
C672 C679 1.409 . S
C673 H665 0.930 . S
C673 C671 1.419 . S
C673 C674 1.362 . S
C674 H666 0.930 . S
C674 C673 1.362 . S
C674 C677 1.409 . S
C675 H667 0.930 . S
C675 C676 1.355 . S
C675 C677 1.415 . S
C676 C675 1.355 . S
C676 C678 1.419 . S
C677 C672 1.425 . S
C677 C674 1.409 . S
C677 C675 1.415 . S
C678 H668 0.930 . S
C678 C676 1.419 . S
C678 C679 1.362 . S
C679 H669 0.930 . S
C679 C672 1.409 . S
C679 C678 1.362 . S
H680 C686 0.930 . S
H681 C689 0.930 . S
H682 C690 0.930 . S
H683 C691 0.930 . S
H684 C694 0.930 . S
H685 C695 0.930 . S
C686 H680 0.930 . S
C686 C687 1.355 . S
C686 C688 1.415 . S
C687 C686 1.355 . S
C687 C689 1.419 . S
C688 C686 1.415 . S
C688 C693 1.425 . S
C688 C695 1.409 . S
C689 H681 0.930 . S
C689 C687 1.419 . S
C689 C690 1.362 . S
C690 H682 0.930 . S
C690 C689 1.362 . S
C690 C693 1.409 . S
C691 H683 0.930 . S
C691 C692 1.355 . S
C691 C693 1.415 . S
C692 C691 1.355 . S
C692 C694 1.419 . S
C693 C688 1.425 . S
C693 C690 1.409 . S
C693 C691 1.415 . S
C694 H684 0.930 . S
C694 C692 1.419 . S
C694 C695 1.362 . S
C695 H685 0.930 . S
C695 C688 1.409 . S
C695 C694 1.362 . S
H696 C702 0.930 . S
H697 C705 0.930 . S
H698 C706 0.930 . S
H699 C707 0.930 . S
H700 C710 0.930 . S
H701 C711 0.930 . S
C702 H696 0.930 . S
C702 C703 1.355 . S
C702 C704 1.415 . S
C703 C702 1.355 . S
C703 C705 1.419 . S
C704 C702 1.415 . S
C704 C709 1.425 . S
C704 C711 1.409 . S
C705 H697 0.930 . S
C705 C703 1.419 . S
C705 C706 1.362 . S
C706 H698 0.930 . S
C706 C705 1.362 . S
C706 C709 1.409 . S
C707 H699 0.930 . S
C707 C708 1.355 . S
C707 C709 1.415 . S
C708 C707 1.355 . S
C708 C710 1.419 . S
C709 C704 1.425 . S
C709 C706 1.409 . S
C709 C707 1.415 . S
C710 H700 0.930 . S
C710 C708 1.419 . S
C710 C711 1.362 . S
C711 H701 0.930 . S
C711 C704 1.409 . S
C711 C710 1.362 . S
H712 C718 0.930 . S
H713 C721 0.930 . S
H714 C722 0.930 . S
H715 C723 0.930 . S
H716 C726 0.930 . S
H717 C727 0.930 . S
C718 H712 0.930 . S
C718 C719 1.355 . S
C718 C720 1.415 . S
C719 C718 1.355 . S
C719 C721 1.419 . S
C720 C718 1.415 . S
C720 C725 1.425 . S
C720 C727 1.409 . S
C721 H713 0.930 . S
C721 C719 1.419 . S
C721 C722 1.362 . S
C722 H714 0.930 . S
C722 C721 1.362 . S
C722 C725 1.409 . S
C723 H715 0.930 . S
C723 C724 1.355 . S
C723 C725 1.415 . S
C724 C723 1.355 . S
C724 C726 1.419 . S
C725 C720 1.425 . S
C725 C722 1.409 . S
C725 C723 1.415 . S
C726 H716 0.930 . S
C726 C724 1.419 . S
C726 C727 1.362 . S
C727 H717 0.930 . S
C727 C720 1.409 . S
C727 C726 1.362 . S
H728 C734 0.930 . S
H729 C737 0.930 . S
H730 C738 0.930 . S
H731 C739 0.930 . S
H732 C742 0.930 . S
H733 C743 0.930 . S
C734 H728 0.930 . S
C734 C735 1.355 . S
C734 C736 1.415 . S
C735 C734 1.355 . S
C735 C737 1.419 . S
C736 C734 1.415 . S
C736 C741 1.425 . S
C736 C743 1.409 . S
C737 H729 0.930 . S
C737 C735 1.419 . S
C737 C738 1.362 . S
C738 H730 0.930 . S
C738 C737 1.362 . S
C738 C741 1.409 . S
C739 H731 0.930 . S
C739 C740 1.355 . S
C739 C741 1.415 . S
C740 C739 1.355 . S
C740 C742 1.419 . S
C741 C736 1.425 . S
C741 C738 1.409 . S
C741 C739 1.415 . S
C742 H732 0.930 . S
C742 C740 1.419 . S
C742 C743 1.362 . S
C743 H733 0.930 . S
C743 C736 1.409 . S
C743 C742 1.362 . S
H744 C750 0.930 . S
H745 C753 0.930 . S
H746 C754 0.930 . S
H747 C755 0.930 . S
H748 C758 0.930 . S
H749 C759 0.930 . S
C750 H744 0.930 . S
C750 C751 1.355 . S
C750 C752 1.415 . S
C751 C750 1.355 . S
C751 C753 1.419 . S
C752 C750 1.415 . S
C752 C757 1.425 . S
C752 C759 1.409 . S
C753 H745 0.930 . S
C753 C751 1.419 . S
C753 C754 1.362 . S
C754 H746 0.930 . S
C754 C753 1.362 . S
C754 C757 1.409 . S
C755 H747 0.930 . S
C755 C756 1.355 . S
C755 C757 1.415 . S
C756 C755 1.355 . S
C756 C758 1.419 . S
C757 C752 1.425 . S
C757 C754 1.409 . S
C757 C755 1.415 . S
C758 H748 0.930 . S
C758 C756 1.419 . S
C758 C759 1.362 . S
C759 H749 0.930 . S
C759 C752 1.409 . S
C759 C758 1.362 . S
H760 C766 0.930 . S
H761 C769 0.930 . S
H762 C770 0.930 . S
H763 C771 0.930 . S
H764 C774 0.930 . S
H765 C775 0.930 . S
C766 H760 0.930 . S
C766 C767 1.355 . S
C766 C768 1.415 . S
C767 C766 1.355 . S
C767 C769 1.419 . S
C768 C766 1.415 . S
C768 C773 1.425 . S
C768 C775 1.409 . S
C769 H761 0.930 . S
C769 C767 1.419 . S
C769 C770 1.362 . S
C770 H762 0.930 . S
C770 C769 1.362 . S
C770 C773 1.409 . S
C771 H763 0.930 . S
C771 C772 1.355 . S
C771 C773 1.415 . S
C772 C771 1.355 . S
C772 C774 1.419 . S
C773 C768 1.425 . S
C773 C770 1.409 . S
C773 C771 1.415 . S
C774 H764 0.930 . S
C774 C772 1.419 . S
C774 C775 1.362 . S
C775 H765 0.930 . S
C775 C768 1.409 . S
C775 C774 1.362 . S
H776 C782 0.930 . S
H777 C785 0.930 . S
H778 C786 0.930 . S
H779 C787 0.930 . S
H780 C790 0.930 . S
H781 C791 0.930 . S
C782 H776 0.930 . S
C782 C783 1.355 . S
C782 C784 1.415 . S
C783 C782 1.355 . S
C783 C785 1.419 . S
C784 C782 1.415 . S
C784 C789 1.425 . S
C784 C791 1.409 . S
C785 H777 0.930 . S
C785 C783 1.419 . S
C785 C786 1.362 . S
C786 H778 0.930 . S
C786 C785 1.362 . S
C786 C789 1.409 . S
C787 H779 0.930 . S
C787 C788 1.355 . S
C787 C789 1.415 . S
C788 C787 1.355 . S
C788 C790 1.419 . S
C789 C784 1.425 . S
C789 C786 1.409 . S
C789 C787 1.415 . S
C790 H780 0.930 . S
C790 C788 1.419 . S
C790 C791 1.362 . S
C791 H781 0.930 . S
C791 C784 1.409 . S
C791 C790 1.362 . S
H792 C798 0.930 . S
H793 C801 0.930 . S
H794 C802 0.930 . S
H795 C803 0.930 . S
H796 C806 0.930 . S
H797 C807 0.930 . S
C798 H792 0.930 . S
C798 C799 1.355 . S
C798 C800 1.415 1_556 S
C799 C798 1.355 . S
C799 C801 1.419 . S
C800 C798 1.415 1_554 S
C800 C805 1.425 1_564 S
C800 C807 1.409 . S
C801 H793 0.930 . S
C801 C799 1.419 . S
C801 C802 1.362 1_565 S
C802 H794 0.930 . S
C802 C801 1.362 1_545 S
C802 C805 1.409 . S
C803 H795 0.930 . S
C803 C804 1.355 . S
C803 C805 1.415 1_554 S
C804 C803 1.355 . S
C804 C806 1.419 . S
C805 C800 1.425 1_546 S
C805 C802 1.409 . S
C805 C803 1.415 1_556 S
C806 H796 0.930 . S
C806 C804 1.419 . S
C806 C807 1.362 1_545 S
C807 H797 0.930 . S
C807 C800 1.409 . S
C807 C806 1.362 1_565 S
H808 C814 0.930 . S
H809 C817 0.930 . S
H810 C818 0.930 . S
H811 C819 0.930 . S
H812 C822 0.930 . S
H813 C823 0.930 . S
C814 H808 0.930 . S
C814 C815 1.355 . S
C814 C816 1.415 1_554 S
C815 C814 1.355 . S
C815 C817 1.419 . S
C816 C814 1.415 1_556 S
C816 C821 1.425 1_656 S
C816 C823 1.409 . S
C817 H809 0.930 . S
C817 C815 1.419 . S
C817 C818 1.362 1_655 S
C818 H810 0.930 . S
C818 C817 1.362 1_455 S
C818 C821 1.409 . S
C819 H811 0.930 . S
C819 C820 1.355 . S
C819 C821 1.415 1_556 S
C820 C819 1.355 . S
C820 C822 1.419 . S
C821 C816 1.425 1_454 S
C821 C818 1.409 . S
C821 C819 1.415 1_554 S
C822 H812 0.930 . S
C822 C820 1.419 . S
C822 C823 1.362 1_455 S
C823 H813 0.930 . S
C823 C816 1.409 . S
C823 C822 1.362 1_655 S
H824 C830 0.930 . S
H825 C833 0.930 . S
H826 C834 0.930 . S
H827 C835 0.930 . S
H828 C838 0.930 . S
H829 C839 0.930 . S
C830 H824 0.930 . S
C830 C831 1.355 . S
C830 C832 1.415 1_556 S
C831 C830 1.355 . S
C831 C833 1.419 . S
C832 C830 1.415 1_554 S
C832 C837 1.425 1_554 S
C832 C839 1.409 . S
C833 H825 0.930 . S
C833 C831 1.419 . S
C833 C834 1.362 . S
C834 H826 0.930 . S
C834 C833 1.362 . S
C834 C837 1.409 . S
C835 H827 0.930 . S
C835 C836 1.355 . S
C835 C837 1.415 1_554 S
C836 C835 1.355 . S
C836 C838 1.419 . S
C837 C832 1.425 1_556 S
C837 C834 1.409 . S
C837 C835 1.415 1_556 S
C838 H828 0.930 . S
C838 C836 1.419 . S
C838 C839 1.362 . S
C839 H829 0.930 . S
C839 C832 1.409 . S
C839 C838 1.362 . S
H840 C846 0.930 . S
H841 C849 0.932 . S
H842 C850 0.930 . S
H843 C851 0.930 . S
H844 C854 0.932 . S
H845 C855 0.930 . S
C846 H840 0.930 . S
C846 C847 1.355 . S
C846 C848 1.415 1_556 S
C847 C846 1.355 . S
C847 C849 1.419 . S
C848 C846 1.415 1_554 S
C848 C853 1.425 1_564 S
C848 C855 1.409 . S
C849 H841 0.932 . S
C849 C847 1.419 . S
C849 C850 1.362 1_565 S
C850 H842 0.930 . S
C850 C849 1.362 1_545 S
C850 C853 1.409 . S
C851 H843 0.930 . S
C851 C852 1.355 . S
C851 C853 1.415 1_554 S
C852 C851 1.355 . S
C852 C854 1.419 . S
C853 C848 1.425 1_546 S
C853 C850 1.409 . S
C853 C851 1.415 1_556 S
C854 H844 0.932 . S
C854 C852 1.419 . S
C854 C855 1.362 1_545 S
C855 H845 0.930 . S
C855 C848 1.409 . S
C855 C854 1.362 1_565 S
H856 C862 0.930 . S
H857 C865 0.930 . S
H858 C866 0.939 . S
H859 C867 0.930 . S
H860 C870 0.930 . S
H861 C871 0.939 . S
C862 H856 0.930 . S
C862 C863 1.355 . S
C862 C864 1.415 . S
C863 C862 1.355 . S
C863 C865 1.419 . S
C864 C862 1.415 . S
C864 C869 1.425 1_456 S
C864 C871 1.407 1_556 S
C865 H857 0.930 . S
C865 C863 1.419 . S
C865 C866 1.355 1_455 S
C866 H858 0.939 . S
C866 C865 1.355 1_655 S
C866 C869 1.407 1_556 S
C867 H859 0.930 . S
C867 C868 1.355 . S
C867 C869 1.415 . S
C868 C867 1.355 . S
C868 C870 1.419 . S
C869 C864 1.425 1_654 S
C869 C866 1.407 1_554 S
C869 C867 1.415 . S
C870 H860 0.930 . S
C870 C868 1.419 . S
C870 C871 1.355 1_655 S
C871 H861 0.939 . S
C871 C864 1.407 1_554 S
C871 C870 1.355 1_455 S
H872 C878 0.930 . S
H873 C881 0.930 . S
H874 C882 0.930 . S
H875 C883 0.930 . S
H876 C886 0.930 . S
H877 C887 0.930 . S
C878 H872 0.930 . S
C878 C879 1.355 . S
C878 C880 1.415 1_554 S
C879 C878 1.355 . S
C879 C881 1.419 . S
C880 C878 1.415 1_556 S
C880 C885 1.425 1_556 S
C880 C887 1.409 . S
C881 H873 0.930 . S
C881 C879 1.419 . S
C881 C882 1.362 . S
C882 H874 0.930 . S
C882 C881 1.362 . S
C882 C885 1.409 . S
C883 H875 0.930 . S
C883 C884 1.355 . S
C883 C885 1.415 1_556 S
C884 C883 1.355 . S
C884 C886 1.419 . S
C885 C880 1.425 1_554 S
C885 C882 1.409 . S
C885 C883 1.415 1_554 S
C886 H876 0.930 . S
C886 C884 1.419 . S
C886 C887 1.362 . S
C887 H877 0.930 . S
C887 C880 1.409 . S
C887 C886 1.362 . S
H888 C894 0.930 . S
H889 C897 0.930 . S
H890 C898 0.930 . S
H891 C899 0.930 . S
H892 C902 0.930 . S
H893 C903 0.930 . S
C894 H888 0.930 . S
C894 C895 1.355 . S
C894 C896 1.415 . S
C895 C894 1.355 . S
C895 C897 1.419 . S
C896 C894 1.415 . S
C896 C901 1.425 . S
C896 C903 1.409 . S
C897 H889 0.930 . S
C897 C895 1.419 . S
C897 C898 1.362 . S
C898 H890 0.930 . S
C898 C897 1.362 . S
C898 C901 1.409 . S
C899 H891 0.930 . S
C899 C900 1.355 . S
C899 C901 1.415 . S
C900 C899 1.355 . S
C900 C902 1.419 . S
C901 C896 1.425 . S
C901 C898 1.409 . S
C901 C899 1.415 . S
C902 H892 0.930 . S
C902 C900 1.419 . S
C902 C903 1.362 . S
C903 H893 0.930 . S
C903 C896 1.409 . S
C903 C902 1.362 . S
H904 C910 0.930 . S
H905 C913 0.930 . S
H906 C914 0.930 . S
H907 C915 0.930 . S
H908 C918 0.930 . S
H909 C919 0.930 . S
C910 H904 0.930 . S
C910 C911 1.355 . S
C910 C912 1.415 . S
C911 C910 1.355 . S
C911 C913 1.419 . S
C912 C910 1.415 . S
C912 C917 1.425 . S
C912 C919 1.409 . S
C913 H905 0.930 . S
C913 C911 1.419 . S
C913 C914 1.362 . S
C914 H906 0.930 . S
C914 C913 1.362 . S
C914 C917 1.409 . S
C915 H907 0.930 . S
C915 C916 1.355 . S
C915 C917 1.415 . S
C916 C915 1.355 . S
C916 C918 1.419 . S
C917 C912 1.425 . S
C917 C914 1.409 . S
C917 C915 1.415 . S
C918 H908 0.930 . S
C918 C916 1.419 . S
C918 C919 1.362 . S
C919 H909 0.930 . S
C919 C912 1.409 . S
C919 C918 1.362 . S
H920 C926 0.930 . S
H921 C929 0.930 . S
H922 C930 0.930 . S
H923 C931 0.930 . S
H924 C934 0.930 . S
H925 C935 0.930 . S
C926 H920 0.930 . S
C926 C927 1.355 . S
C926 C928 1.415 . S
C927 C926 1.355 . S
C927 C929 1.419 . S
C928 C926 1.415 . S
C928 C933 1.425 . S
C928 C935 1.409 . S
C929 H921 0.930 . S
C929 C927 1.419 . S
C929 C930 1.362 . S
C930 H922 0.930 . S
C930 C929 1.362 . S
C930 C933 1.409 . S
C931 H923 0.930 . S
C931 C932 1.355 . S
C931 C933 1.415 . S
C932 C931 1.355 . S
C932 C934 1.419 . S
C933 C928 1.425 . S
C933 C930 1.409 . S
C933 C931 1.415 . S
C934 H924 0.930 . S
C934 C932 1.419 . S
C934 C935 1.362 . S
C935 H925 0.930 . S
C935 C928 1.409 . S
C935 C934 1.362 . S
H936 C942 0.930 . S
H937 C945 0.930 . S
H938 C946 0.930 . S
H939 C947 0.930 . S
H940 C950 0.930 . S
H941 C951 0.930 . S
C942 H936 0.930 . S
C942 C943 1.355 . S
C942 C944 1.415 . S
C943 C942 1.355 . S
C943 C945 1.419 . S
C944 C942 1.415 . S
C944 C949 1.425 . S
C944 C951 1.409 . S
C945 H937 0.930 . S
C945 C943 1.419 . S
C945 C946 1.362 . S
C946 H938 0.930 . S
C946 C945 1.362 . S
C946 C949 1.409 . S
C947 H939 0.930 . S
C947 C948 1.355 . S
C947 C949 1.415 . S
C948 C947 1.355 . S
C948 C950 1.419 . S
C949 C944 1.425 . S
C949 C946 1.409 . S
C949 C947 1.415 . S
C950 H940 0.930 . S
C950 C948 1.419 . S
C950 C951 1.362 . S
C951 H941 0.930 . S
C951 C944 1.409 . S
C951 C950 1.362 . S
H952 C958 0.930 . S
H953 C961 0.930 . S
H954 C962 0.930 . S
H955 C963 0.930 . S
H956 C966 0.930 . S
H957 C967 0.930 . S
C958 H952 0.930 . S
C958 C959 1.355 . S
C958 C960 1.415 . S
C959 C958 1.355 . S
C959 C961 1.419 . S
C960 C958 1.415 . S
C960 C965 1.425 . S
C960 C967 1.409 . S
C961 H953 0.930 . S
C961 C959 1.419 . S
C961 C962 1.362 . S
C962 H954 0.930 . S
C962 C961 1.362 . S
C962 C965 1.409 . S
C963 H955 0.930 . S
C963 C964 1.355 . S
C963 C965 1.415 . S
C964 C963 1.355 . S
C964 C966 1.419 . S
C965 C960 1.425 . S
C965 C962 1.409 . S
C965 C963 1.415 . S
C966 H956 0.930 . S
C966 C964 1.419 . S
C966 C967 1.362 . S
C967 H957 0.930 . S
C967 C960 1.409 . S
C967 C966 1.362 . S
H968 C974 0.930 . S
H969 C977 0.930 . S
H970 C978 0.930 . S
H971 C979 0.930 . S
H972 C982 0.930 . S
H973 C983 0.930 . S
C974 H968 0.930 . S
C974 C975 1.355 . S
C974 C976 1.415 . S
C975 C974 1.355 . S
C975 C977 1.419 . S
C976 C974 1.415 . S
C976 C981 1.425 . S
C976 C983 1.409 . S
C977 H969 0.930 . S
C977 C975 1.419 . S
C977 C978 1.362 . S
C978 H970 0.930 . S
C978 C977 1.362 . S
C978 C981 1.409 . S
C979 H971 0.930 . S
C979 C980 1.355 . S
C979 C981 1.415 . S
C980 C979 1.355 . S
C980 C982 1.419 . S
C981 C976 1.425 . S
C981 C978 1.409 . S
C981 C979 1.415 . S
C982 H972 0.930 . S
C982 C980 1.419 . S
C982 C983 1.362 . S
C983 H973 0.930 . S
C983 C976 1.409 . S
C983 C982 1.362 . S
H984 C990 0.930 . S
H985 C993 0.930 . S
H986 C994 0.930 . S
H987 C995 0.930 . S
H988 C998 0.930 . S
H989 C999 0.930 . S
C990 H984 0.930 . S
C990 C991 1.355 . S
C990 C992 1.415 . S
C991 C990 1.355 . S
C991 C993 1.419 . S
C992 C990 1.415 . S
C992 C997 1.425 . S
C992 C999 1.409 . S
C993 H985 0.930 . S
C993 C991 1.419 . S
C993 C994 1.362 . S
C994 H986 0.930 . S
C994 C993 1.362 . S
C994 C997 1.409 . S
C995 H987 0.930 . S
C995 C996 1.355 . S
C995 C997 1.415 . S
C996 C995 1.355 . S
C996 C998 1.419 . S
C997 C992 1.425 . S
C997 C994 1.409 . S
C997 C995 1.415 . S
C998 H988 0.930 . S
C998 C996 1.419 . S
C998 C999 1.362 . S
C999 H989 0.930 . S
C999 C992 1.409 . S
C999 C998 1.362 . S
H1000 C1006 0.930 . S
H1001 C1009 0.930 . S
H1002 C1010 0.930 . S
H1003 C1011 0.930 . S
H1004 C1014 0.930 . S
H1005 C1015 0.930 . S
C1006 H1000 0.930 . S
C1006 C1007 1.355 . S
C1006 C1008 1.415 . S
C1007 C1006 1.355 . S
C1007 C1009 1.419 . S
C1008 C1006 1.415 . S
C1008 C1013 1.425 . S
C1008 C1015 1.409 . S
C1009 H1001 0.930 . S
C1009 C1007 1.419 . S
C1009 C1010 1.362 . S
C1010 H1002 0.930 . S
C1010 C1009 1.362 . S
C1010 C1013 1.409 . S
C1011 H1003 0.930 . S
C1011 C1012 1.355 . S
C1011 C1013 1.415 . S
C1012 C1011 1.355 . S
C1012 C1014 1.419 . S
C1013 C1008 1.425 . S
C1013 C1010 1.409 . S
C1013 C1011 1.415 . S
C1014 H1004 0.930 . S
C1014 C1012 1.419 . S
C1014 C1015 1.362 . S
C1015 H1005 0.930 . S
C1015 C1008 1.409 . S
C1015 C1014 1.362 . S
H1016 C1022 0.930 . S
H1017 C1025 0.930 . S
H1018 C1026 0.930 . S
H1019 C1027 0.930 . S
H1020 C1030 0.930 . S
H1021 C1031 0.930 . S
C1022 H1016 0.930 . S
C1022 C1023 1.355 . S
C1022 C1024 1.415 . S
C1023 C1022 1.355 . S
C1023 C1025 1.419 . S
C1024 C1022 1.415 . S
C1024 C1029 1.425 . S
C1024 C1031 1.409 . S
C1025 H1017 0.930 . S
C1025 C1023 1.419 . S
C1025 C1026 1.362 . S
C1026 H1018 0.930 . S
C1026 C1025 1.362 . S
C1026 C1029 1.409 . S
C1027 H1019 0.930 . S
C1027 C1028 1.355 . S
C1027 C1029 1.415 . S
C1028 C1027 1.355 . S
C1028 C1030 1.419 . S
C1029 C1024 1.425 . S
C1029 C1026 1.409 . S
C1029 C1027 1.415 . S
C1030 H1020 0.930 . S
C1030 C1028 1.419 . S
C1030 C1031 1.362 . S
C1031 H1021 0.930 . S
C1031 C1024 1.409 . S
C1031 C1030 1.362 . S
H1032 C1038 0.930 . S
H1033 C1041 0.930 . S
H1034 C1042 0.930 . S
H1035 C1043 0.930 . S
H1036 C1046 0.930 . S
H1037 C1047 0.930 . S
C1038 H1032 0.930 . S
C1038 C1039 1.355 . S
C1038 C1040 1.415 . S
C1039 C1038 1.355 . S
C1039 C1041 1.419 . S
C1040 C1038 1.415 . S
C1040 C1045 1.425 . S
C1040 C1047 1.409 . S
C1041 H1033 0.930 . S
C1041 C1039 1.419 . S
C1041 C1042 1.362 . S
C1042 H1034 0.930 . S
C1042 C1041 1.362 . S
C1042 C1045 1.409 . S
C1043 H1035 0.930 . S
C1043 C1044 1.355 . S
C1043 C1045 1.415 . S
C1044 C1043 1.355 . S
C1044 C1046 1.419 . S
C1045 C1040 1.425 . S
C1045 C1042 1.409 . S
C1045 C1043 1.415 . S
C1046 H1036 0.930 . S
C1046 C1044 1.419 . S
C1046 C1047 1.362 . S
C1047 H1037 0.930 . S
C1047 C1040 1.409 . S
C1047 C1046 1.362 . S
H1048 C1054 0.930 . S
H1049 C1057 0.930 . S
H1050 C1058 0.930 . S
H1051 C1059 0.930 . S
H1052 C1062 0.930 . S
H1053 C1063 0.930 . S
C1054 H1048 0.930 . S
C1054 C1055 1.355 . S
C1054 C1056 1.415 . S
C1055 C1054 1.355 . S
C1055 C1057 1.419 . S
C1056 C1054 1.415 . S
C1056 C1061 1.425 . S
C1056 C1063 1.409 . S
C1057 H1049 0.930 . S
C1057 C1055 1.419 . S
C1057 C1058 1.362 . S
C1058 H1050 0.930 . S
C1058 C1057 1.362 . S
C1058 C1061 1.409 . S
C1059 H1051 0.930 . S
C1059 C1060 1.355 . S
C1059 C1061 1.415 . S
C1060 C1059 1.355 . S
C1060 C1062 1.419 . S
C1061 C1056 1.425 . S
C1061 C1058 1.409 . S
C1061 C1059 1.415 . S
C1062 H1052 0.930 . S
C1062 C1060 1.419 . S
C1062 C1063 1.362 . S
C1063 H1053 0.930 . S
C1063 C1056 1.409 . S
C1063 C1062 1.362 . S
H1064 C1070 0.930 . S
H1065 C1073 0.930 . S
H1066 C1074 0.930 . S
H1067 C1075 0.930 . S
H1068 C1078 0.930 . S
H1069 C1079 0.930 . S
C1070 H1064 0.930 . S
C1070 C1071 1.355 . S
C1070 C1072 1.415 . S
C1071 C1070 1.355 . S
C1071 C1073 1.419 . S
C1072 C1070 1.415 . S
C1072 C1077 1.425 . S
C1072 C1079 1.409 . S
C1073 H1065 0.930 . S
C1073 C1071 1.419 . S
C1073 C1074 1.362 . S
C1074 H1066 0.930 . S
C1074 C1073 1.362 . S
C1074 C1077 1.409 . S
C1075 H1067 0.930 . S
C1075 C1076 1.355 . S
C1075 C1077 1.415 . S
C1076 C1075 1.355 . S
C1076 C1078 1.419 . S
C1077 C1072 1.425 . S
C1077 C1074 1.409 . S
C1077 C1075 1.415 . S
C1078 H1068 0.930 . S
C1078 C1076 1.419 . S
C1078 C1079 1.362 . S
C1079 H1069 0.930 . S
C1079 C1072 1.409 . S
C1079 C1078 1.362 . S
H1080 C1086 0.930 . S
H1081 C1089 0.930 . S
H1082 C1090 0.930 . S
H1083 C1091 0.930 . S
H1084 C1094 0.930 . S
H1085 C1095 0.930 . S
C1086 H1080 0.930 . S
C1086 C1087 1.355 . S
C1086 C1088 1.415 . S
C1087 C1086 1.355 . S
C1087 C1089 1.419 . S
C1088 C1086 1.415 . S
C1088 C1093 1.425 . S
C1088 C1095 1.409 . S
C1089 H1081 0.930 . S
C1089 C1087 1.419 . S
C1089 C1090 1.362 . S
C1090 H1082 0.930 . S
C1090 C1089 1.362 . S
C1090 C1093 1.409 . S
C1091 H1083 0.930 . S
C1091 C1092 1.355 . S
C1091 C1093 1.415 . S
C1092 C1091 1.355 . S
C1092 C1094 1.419 . S
C1093 C1088 1.425 . S
C1093 C1090 1.409 . S
C1093 C1091 1.415 . S
C1094 H1084 0.930 . S
C1094 C1092 1.419 . S
C1094 C1095 1.362 . S
C1095 H1085 0.930 . S
C1095 C1088 1.409 . S
C1095 C1094 1.362 . S
H1096 C1102 0.930 . S
H1097 C1105 0.930 . S
H1098 C1106 0.930 . S
H1099 C1107 0.930 . S
H1100 C1110 0.930 . S
H1101 C1111 0.930 . S
C1102 H1096 0.930 . S
C1102 C1103 1.355 . S
C1102 C1104 1.415 . S
C1103 C1102 1.355 . S
C1103 C1105 1.419 . S
C1104 C1102 1.415 . S
C1104 C1109 1.425 . S
C1104 C1111 1.409 . S
C1105 H1097 0.930 . S
C1105 C1103 1.419 . S
C1105 C1106 1.362 . S
C1106 H1098 0.930 . S
C1106 C1105 1.362 . S
C1106 C1109 1.409 . S
C1107 H1099 0.930 . S
C1107 C1108 1.355 . S
C1107 C1109 1.415 . S
C1108 C1107 1.355 . S
C1108 C1110 1.419 . S
C1109 C1104 1.425 . S
C1109 C1106 1.409 . S
C1109 C1107 1.415 . S
C1110 H1100 0.930 . S
C1110 C1108 1.419 . S
C1110 C1111 1.362 . S
C1111 H1101 0.930 . S
C1111 C1104 1.409 . S
C1111 C1110 1.362 . S
H1112 C1118 0.930 . S
H1113 C1121 0.930 . S
H1114 C1122 0.930 . S
H1115 C1123 0.930 . S
H1116 C1126 0.930 . S
H1117 C1127 0.930 . S
C1118 H1112 0.930 . S
C1118 C1119 1.355 . S
C1118 C1120 1.415 . S
C1119 C1118 1.355 . S
C1119 C1121 1.419 . S
C1120 C1118 1.415 . S
C1120 C1125 1.425 . S
C1120 C1127 1.409 . S
C1121 H1113 0.930 . S
C1121 C1119 1.419 . S
C1121 C1122 1.362 . S
C1122 H1114 0.930 . S
C1122 C1121 1.362 . S
C1122 C1125 1.409 . S
C1123 H1115 0.930 . S
C1123 C1124 1.355 . S
C1123 C1125 1.415 . S
C1124 C1123 1.355 . S
C1124 C1126 1.419 . S
C1125 C1120 1.425 . S
C1125 C1122 1.409 . S
C1125 C1123 1.415 . S
C1126 H1116 0.930 . S
C1126 C1124 1.419 . S
C1126 C1127 1.362 . S
C1127 H1117 0.930 . S
C1127 C1120 1.409 . S
C1127 C1126 1.362 . S
H1128 C1134 0.930 . S
H1129 C1137 0.930 . S
H1130 C1138 0.930 . S
H1131 C1139 0.930 . S
H1132 C1142 0.930 . S
H1133 C1143 0.930 . S
C1134 H1128 0.930 . S
C1134 C1135 1.355 . S
C1134 C1136 1.415 . S
C1135 C1134 1.355 . S
C1135 C1137 1.419 . S
C1136 C1134 1.415 . S
C1136 C1141 1.425 . S
C1136 C1143 1.409 . S
C1137 H1129 0.930 . S
C1137 C1135 1.419 . S
C1137 C1138 1.362 . S
C1138 H1130 0.930 . S
C1138 C1137 1.362 . S
C1138 C1141 1.409 . S
C1139 H1131 0.930 . S
C1139 C1140 1.355 . S
C1139 C1141 1.415 . S
C1140 C1139 1.355 . S
C1140 C1142 1.419 . S
C1141 C1136 1.425 . S
C1141 C1138 1.409 . S
C1141 C1139 1.415 . S
C1142 H1132 0.930 . S
C1142 C1140 1.419 . S
C1142 C1143 1.362 . S
C1143 H1133 0.930 . S
C1143 C1136 1.409 . S
C1143 C1142 1.362 . S
H1144 C1150 0.930 . S
H1145 C1153 0.930 . S
H1146 C1154 0.930 . S
H1147 C1155 0.930 . S
H1148 C1158 0.930 . S
H1149 C1159 0.930 . S
C1150 H1144 0.930 . S
C1150 C1151 1.355 . S
C1150 C1152 1.415 . S
C1151 C1150 1.355 . S
C1151 C1153 1.419 . S
C1152 C1150 1.415 . S
C1152 C1157 1.425 . S
C1152 C1159 1.409 . S
C1153 H1145 0.930 . S
C1153 C1151 1.419 . S
C1153 C1154 1.362 . S
C1154 H1146 0.930 . S
C1154 C1153 1.362 . S
C1154 C1157 1.409 . S
C1155 H1147 0.930 . S
C1155 C1156 1.355 . S
C1155 C1157 1.415 . S
C1156 C1155 1.355 . S
C1156 C1158 1.419 . S
C1157 C1152 1.425 . S
C1157 C1154 1.409 . S
C1157 C1155 1.415 . S
C1158 H1148 0.930 . S
C1158 C1156 1.419 . S
C1158 C1159 1.362 . S
C1159 H1149 0.930 . S
C1159 C1152 1.409 . S
C1159 C1158 1.362 . S
H1160 C1166 0.930 . S
H1161 C1169 0.930 . S
H1162 C1170 0.930 . S
H1163 C1171 0.930 . S
H1164 C1174 0.930 . S
H1165 C1175 0.930 . S
C1166 H1160 0.930 . S
C1166 C1167 1.355 . S
C1166 C1168 1.415 . S
C1167 C1166 1.355 . S
C1167 C1169 1.419 . S
C1168 C1166 1.415 . S
C1168 C1173 1.425 . S
C1168 C1175 1.409 . S
C1169 H1161 0.930 . S
C1169 C1167 1.419 . S
C1169 C1170 1.362 . S
C1170 H1162 0.930 . S
C1170 C1169 1.362 . S
C1170 C1173 1.409 . S
C1171 H1163 0.930 . S
C1171 C1172 1.355 . S
C1171 C1173 1.415 . S
C1172 C1171 1.355 . S
C1172 C1174 1.419 . S
C1173 C1168 1.425 . S
C1173 C1170 1.409 . S
C1173 C1171 1.415 . S
C1174 H1164 0.930 . S
C1174 C1172 1.419 . S
C1174 C1175 1.362 . S
C1175 H1165 0.930 . S
C1175 C1168 1.409 . S
C1175 C1174 1.362 . S
H1176 C1182 0.930 . S
H1177 C1185 0.930 . S
H1178 C1186 0.930 . S
H1179 C1187 0.930 . S
H1180 C1190 0.930 . S
H1181 C1191 0.930 . S
C1182 H1176 0.930 . S
C1182 C1183 1.355 . S
C1182 C1184 1.415 . S
C1183 C1182 1.355 . S
C1183 C1185 1.419 . S
C1184 C1182 1.415 . S
C1184 C1189 1.425 . S
C1184 C1191 1.409 . S
C1185 H1177 0.930 . S
C1185 C1183 1.419 . S
C1185 C1186 1.362 . S
C1186 H1178 0.930 . S
C1186 C1185 1.362 . S
C1186 C1189 1.409 . S
C1187 H1179 0.930 . S
C1187 C1188 1.355 . S
C1187 C1189 1.415 . S
C1188 C1187 1.355 . S
C1188 C1190 1.419 . S
C1189 C1184 1.425 . S
C1189 C1186 1.409 . S
C1189 C1187 1.415 . S
C1190 H1180 0.930 . S
C1190 C1188 1.419 . S
C1190 C1191 1.362 . S
C1191 H1181 0.930 . S
C1191 C1184 1.409 . S
C1191 C1190 1.362 . S
H1192 C1198 0.930 . S
H1193 C1201 0.930 . S
H1194 C1202 0.930 . S
H1195 C1203 0.930 . S
H1196 C1206 0.930 . S
H1197 C1207 0.930 . S
C1198 H1192 0.930 . S
C1198 C1199 1.355 . S
C1198 C1200 1.415 . S
C1199 C1198 1.355 . S
C1199 C1201 1.419 . S
C1200 C1198 1.415 . S
C1200 C1205 1.425 . S
C1200 C1207 1.409 . S
C1201 H1193 0.930 . S
C1201 C1199 1.419 . S
C1201 C1202 1.362 . S
C1202 H1194 0.930 . S
C1202 C1201 1.362 . S
C1202 C1205 1.409 . S
C1203 H1195 0.930 . S
C1203 C1204 1.355 . S
C1203 C1205 1.415 . S
C1204 C1203 1.355 . S
C1204 C1206 1.419 . S
C1205 C1200 1.425 . S
C1205 C1202 1.409 . S
C1205 C1203 1.415 . S
C1206 H1196 0.930 . S
C1206 C1204 1.419 . S
C1206 C1207 1.362 . S
C1207 H1197 0.930 . S
C1207 C1200 1.409 . S
C1207 C1206 1.362 . S
H1208 C1214 0.930 . S
H1209 C1217 0.930 . S
H1210 C1218 0.930 . S
H1211 C1219 0.930 . S
H1212 C1222 0.930 . S
H1213 C1223 0.930 . S
C1214 H1208 0.930 . S
C1214 C1215 1.355 . S
C1214 C1216 1.415 . S
C1215 C1214 1.355 . S
C1215 C1217 1.419 . S
C1216 C1214 1.415 . S
C1216 C1221 1.425 . S
C1216 C1223 1.409 . S
C1217 H1209 0.930 . S
C1217 C1215 1.419 . S
C1217 C1218 1.362 . S
C1218 H1210 0.930 . S
C1218 C1217 1.362 . S
C1218 C1221 1.409 . S
C1219 H1211 0.930 . S
C1219 C1220 1.355 . S
C1219 C1221 1.415 . S
C1220 C1219 1.355 . S
C1220 C1222 1.419 . S
C1221 C1216 1.425 . S
C1221 C1218 1.409 . S
C1221 C1219 1.415 . S
C1222 H1212 0.930 . S
C1222 C1220 1.419 . S
C1222 C1223 1.362 . S
C1223 H1213 0.930 . S
C1223 C1216 1.409 . S
C1223 C1222 1.362 . S
H1224 C1230 0.930 . S
H1225 C1233 0.930 . S
H1226 C1234 0.930 . S
H1227 C1235 0.930 . S
H1228 C1238 0.930 . S
H1229 C1239 0.930 . S
C1230 H1224 0.930 . S
C1230 C1231 1.355 . S
C1230 C1232 1.415 . S
C1231 C1230 1.355 . S
C1231 C1233 1.419 . S
C1232 C1230 1.415 . S
C1232 C1237 1.425 . S
C1232 C1239 1.409 . S
C1233 H1225 0.930 . S
C1233 C1231 1.419 . S
C1233 C1234 1.362 . S
C1234 H1226 0.930 . S
C1234 C1233 1.362 . S
C1234 C1237 1.409 . S
C1235 H1227 0.930 . S
C1235 C1236 1.355 . S
C1235 C1237 1.415 . S
C1236 C1235 1.355 . S
C1236 C1238 1.419 . S
C1237 C1232 1.425 . S
C1237 C1234 1.409 . S
C1237 C1235 1.415 . S
C1238 H1228 0.930 . S
C1238 C1236 1.419 . S
C1238 C1239 1.362 . S
C1239 H1229 0.930 . S
C1239 C1232 1.409 . S
C1239 C1238 1.362 . S
H1240 C1246 0.930 . S
H1241 C1249 0.930 . S
H1242 C1250 0.930 . S
H1243 C1251 0.930 . S
H1244 C1254 0.930 . S
H1245 C1255 0.930 . S
C1246 H1240 0.930 . S
C1246 C1247 1.355 . S
C1246 C1248 1.415 . S
C1247 C1246 1.355 . S
C1247 C1249 1.419 . S
C1248 C1246 1.415 . S
C1248 C1253 1.425 . S
C1248 C1255 1.409 . S
C1249 H1241 0.930 . S
C1249 C1247 1.419 . S
C1249 C1250 1.362 . S
C1250 H1242 0.930 . S
C1250 C1249 1.362 . S
C1250 C1253 1.409 . S
C1251 H1243 0.930 . S
C1251 C1252 1.355 . S
C1251 C1253 1.415 . S
C1252 C1251 1.355 . S
C1252 C1254 1.419 . S
C1253 C1248 1.425 . S
C1253 C1250 1.409 . S
C1253 C1251 1.415 . S
C1254 H1244 0.930 . S
C1254 C1252 1.419 . S
C1254 C1255 1.362 . S
C1255 H1245 0.930 . S
C1255 C1248 1.409 . S
C1255 C1254 1.362 . S
H1256 C1262 0.930 . S
H1257 C1265 0.930 . S
H1258 C1266 0.930 . S
H1259 C1267 0.930 . S
H1260 C1270 0.930 . S
H1261 C1271 0.930 . S
C1262 H1256 0.930 . S
C1262 C1263 1.355 . S
C1262 C1264 1.415 . S
C1263 C1262 1.355 . S
C1263 C1265 1.419 . S
C1264 C1262 1.415 . S
C1264 C1269 1.425 . S
C1264 C1271 1.409 . S
C1265 H1257 0.930 . S
C1265 C1263 1.419 . S
C1265 C1266 1.362 . S
C1266 H1258 0.930 . S
C1266 C1265 1.362 . S
C1266 C1269 1.409 . S
C1267 H1259 0.930 . S
C1267 C1268 1.355 . S
C1267 C1269 1.415 . S
C1268 C1267 1.355 . S
C1268 C1270 1.419 . S
C1269 C1264 1.425 . S
C1269 C1266 1.409 . S
C1269 C1267 1.415 . S
C1270 H1260 0.930 . S
C1270 C1268 1.419 . S
C1270 C1271 1.362 . S
C1271 H1261 0.930 . S
C1271 C1264 1.409 . S
C1271 C1270 1.362 . S
H1272 C1278 0.930 . S
H1273 C1281 0.930 . S
H1274 C1282 0.930 . S
H1275 C1283 0.930 . S
H1276 C1286 0.930 . S
H1277 C1287 0.930 . S
C1278 H1272 0.930 . S
C1278 C1279 1.355 . S
C1278 C1280 1.415 . S
C1279 C1278 1.355 . S
C1279 C1281 1.419 . S
C1280 C1278 1.415 . S
C1280 C1285 1.425 1_455 S
C1280 C1287 1.409 1_455 S
C1281 H1273 0.930 . S
C1281 C1279 1.419 . S
C1281 C1282 1.362 . S
C1282 H1274 0.930 . S
C1282 C1281 1.362 . S
C1282 C1285 1.409 1_455 S
C1283 H1275 0.930 . S
C1283 C1284 1.355 . S
C1283 C1285 1.415 . S
C1284 C1283 1.355 . S
C1284 C1286 1.419 . S
C1285 C1280 1.425 1_655 S
C1285 C1282 1.409 1_655 S
C1285 C1283 1.415 . S
C1286 H1276 0.930 . S
C1286 C1284 1.419 . S
C1286 C1287 1.362 . S
C1287 H1277 0.930 . S
C1287 C1280 1.409 1_655 S
C1287 C1286 1.362 . S
H1288 C1294 0.930 . S
H1289 C1297 0.930 . S
H1290 C1298 0.930 . S
H1291 C1299 0.930 . S
H1292 C1302 0.930 . S
H1293 C1303 0.930 . S
C1294 H1288 0.930 . S
C1294 C1295 1.355 . S
C1294 C1296 1.415 . S
C1295 C1294 1.355 . S
C1295 C1297 1.419 . S
C1296 C1294 1.415 . S
C1296 C1301 1.425 . S
C1296 C1303 1.409 . S
C1297 H1289 0.930 . S
C1297 C1295 1.419 . S
C1297 C1298 1.362 . S
C1298 H1290 0.930 . S
C1298 C1297 1.362 . S
C1298 C1301 1.409 . S
C1299 H1291 0.930 . S
C1299 C1300 1.355 . S
C1299 C1301 1.415 . S
C1300 C1299 1.355 . S
C1300 C1302 1.419 . S
C1301 C1296 1.425 . S
C1301 C1298 1.409 . S
C1301 C1299 1.415 . S
C1302 H1292 0.930 . S
C1302 C1300 1.419 . S
C1302 C1303 1.362 . S
C1303 H1293 0.930 . S
C1303 C1296 1.409 . S
C1303 C1302 1.362 . S
H1304 C1310 0.930 . S
H1305 C1313 0.930 . S
H1306 C1314 0.930 . S
H1307 C1315 0.930 . S
H1308 C1318 0.930 . S
H1309 C1319 0.930 . S
C1310 H1304 0.930 . S
C1310 C1311 1.355 . S
C1310 C1312 1.415 . S
C1311 C1310 1.355 . S
C1311 C1313 1.419 . S
C1312 C1310 1.415 . S
C1312 C1317 1.425 1_545 S
C1312 C1319 1.409 1_545 S
C1313 H1305 0.930 . S
C1313 C1311 1.419 . S
C1313 C1314 1.362 . S
C1314 H1306 0.930 . S
C1314 C1313 1.362 . S
C1314 C1317 1.409 1_545 S
C1315 H1307 0.930 . S
C1315 C1316 1.355 . S
C1315 C1317 1.415 . S
C1316 C1315 1.355 . S
C1316 C1318 1.419 . S
C1317 C1312 1.425 1_565 S
C1317 C1314 1.409 1_565 S
C1317 C1315 1.415 . S
C1318 H1308 0.930 . S
C1318 C1316 1.419 . S
C1318 C1319 1.362 . S
C1319 H1309 0.930 . S
C1319 C1312 1.409 1_565 S
C1319 C1318 1.362 . S
H1320 C1326 0.930 . S
H1321 C1329 0.930 . S
H1322 C1330 0.930 . S
H1323 C1331 0.930 . S
H1324 C1334 0.930 . S
H1325 C1335 0.930 . S
C1326 H1320 0.930 . S
C1326 C1327 1.355 . S
C1326 C1328 1.415 . S
C1327 C1326 1.355 . S
C1327 C1329 1.419 . S
C1328 C1326 1.415 . S
C1328 C1333 1.425 1_545 S
C1328 C1335 1.409 1_545 S
C1329 H1321 0.930 . S
C1329 C1327 1.419 . S
C1329 C1330 1.362 . S
C1330 H1322 0.930 . S
C1330 C1329 1.362 . S
C1330 C1333 1.409 1_545 S
C1331 H1323 0.930 . S
C1331 C1332 1.355 . S
C1331 C1333 1.415 . S
C1332 C1331 1.355 . S
C1332 C1334 1.419 . S
C1333 C1328 1.425 1_565 S
C1333 C1330 1.409 1_565 S
C1333 C1331 1.415 . S
C1334 H1324 0.930 . S
C1334 C1332 1.419 . S
C1334 C1335 1.362 . S
C1335 H1325 0.930 . S
C1335 C1328 1.409 1_565 S
C1335 C1334 1.362 . S
H1336 C1342 0.930 . S
H1337 C1345 0.930 . S
H1338 C1346 0.930 . S
H1339 C1347 0.930 . S
H1340 C1350 0.930 . S
H1341 C1351 0.930 . S
C1342 H1336 0.930 . S
C1342 C1343 1.355 . S
C1342 C1344 1.415 . S
C1343 C1342 1.355 . S
C1343 C1345 1.419 . S
C1344 C1342 1.415 . S
C1344 C1349 1.425 1_655 S
C1344 C1351 1.409 1_655 S
C1345 H1337 0.930 . S
C1345 C1343 1.419 . S
C1345 C1346 1.362 . S
C1346 H1338 0.930 . S
C1346 C1345 1.362 . S
C1346 C1349 1.409 1_655 S
C1347 H1339 0.930 . S
C1347 C1348 1.355 . S
C1347 C1349 1.415 . S
C1348 C1347 1.355 . S
C1348 C1350 1.419 . S
C1349 C1344 1.425 1_455 S
C1349 C1346 1.409 1_455 S
C1349 C1347 1.415 . S
C1350 H1340 0.930 . S
C1350 C1348 1.419 . S
C1350 C1351 1.362 . S
C1351 H1341 0.930 . S
C1351 C1344 1.409 1_455 S
C1351 C1350 1.362 . S
H1352 C1358 0.930 . S
H1353 C1361 0.930 . S
H1354 C1362 0.930 . S
H1355 C1363 0.930 . S
H1356 C1366 0.930 . S
H1357 C1367 0.930 . S
C1358 H1352 0.930 . S
C1358 C1359 1.355 . S
C1358 C1360 1.415 . S
C1359 C1358 1.355 . S
C1359 C1361 1.419 . S
C1360 C1358 1.415 . S
C1360 C1365 1.425 . S
C1360 C1367 1.409 . S
C1361 H1353 0.930 . S
C1361 C1359 1.419 . S
C1361 C1362 1.362 . S
C1362 H1354 0.930 . S
C1362 C1361 1.362 . S
C1362 C1365 1.409 . S
C1363 H1355 0.930 . S
C1363 C1364 1.355 . S
C1363 C1365 1.415 . S
C1364 C1363 1.355 . S
C1364 C1366 1.419 . S
C1365 C1360 1.425 . S
C1365 C1362 1.409 . S
C1365 C1363 1.415 . S
C1366 H1356 0.930 . S
C1366 C1364 1.419 . S
C1366 C1367 1.362 . S
C1367 H1357 0.930 . S
C1367 C1360 1.409 . S
C1367 C1366 1.362 . S
H1368 C1374 0.930 . S
H1369 C1377 0.930 . S
H1370 C1378 0.930 . S
H1371 C1379 0.930 . S
H1372 C1382 0.930 . S
H1373 C1383 0.930 . S
C1374 H1368 0.930 . S
C1374 C1375 1.355 . S
C1374 C1376 1.415 . S
C1375 C1374 1.355 . S
C1375 C1377 1.419 . S
C1376 C1374 1.415 . S
C1376 C1381 1.425 . S
C1376 C1383 1.409 . S
C1377 H1369 0.930 . S
C1377 C1375 1.419 . S
C1377 C1378 1.362 . S
C1378 H1370 0.930 . S
C1378 C1377 1.362 . S
C1378 C1381 1.409 . S
C1379 H1371 0.930 . S
C1379 C1380 1.355 . S
C1379 C1381 1.415 . S
C1380 C1379 1.355 . S
C1380 C1382 1.419 . S
C1381 C1376 1.425 . S
C1381 C1378 1.409 . S
C1381 C1379 1.415 . S
C1382 H1372 0.930 . S
C1382 C1380 1.419 . S
C1382 C1383 1.362 . S
C1383 H1373 0.930 . S
C1383 C1376 1.409 . S
C1383 C1382 1.362 . S
H1384 C1390 0.930 . S
H1385 C1393 0.930 . S
H1386 C1394 0.930 . S
H1387 C1395 0.930 . S
H1388 C1398 0.930 . S
H1389 C1399 0.930 . S
C1390 H1384 0.930 . S
C1390 C1391 1.355 . S
C1390 C1392 1.415 . S
C1391 C1390 1.355 . S
C1391 C1393 1.419 . S
C1392 C1390 1.415 . S
C1392 C1397 1.425 . S
C1392 C1399 1.409 . S
C1393 H1385 0.930 . S
C1393 C1391 1.419 . S
C1393 C1394 1.362 . S
C1394 H1386 0.930 . S
C1394 C1393 1.362 . S
C1394 C1397 1.409 . S
C1395 H1387 0.930 . S
C1395 C1396 1.355 . S
C1395 C1397 1.415 . S
C1396 C1395 1.355 . S
C1396 C1398 1.419 . S
C1397 C1392 1.425 . S
C1397 C1394 1.409 . S
C1397 C1395 1.415 . S
C1398 H1388 0.930 . S
C1398 C1396 1.419 . S
C1398 C1399 1.362 . S
C1399 H1389 0.930 . S
C1399 C1392 1.409 . S
C1399 C1398 1.362 . S
H1400 C1406 0.930 . S
H1401 C1409 0.930 . S
H1402 C1410 0.930 . S
H1403 C1411 0.930 . S
H1404 C1414 0.930 . S
H1405 C1415 0.930 . S
C1406 H1400 0.930 . S
C1406 C1407 1.355 . S
C1406 C1408 1.415 . S
C1407 C1406 1.355 . S
C1407 C1409 1.419 . S
C1408 C1406 1.415 . S
C1408 C1413 1.425 . S
C1408 C1415 1.409 . S
C1409 H1401 0.930 . S
C1409 C1407 1.419 . S
C1409 C1410 1.362 . S
C1410 H1402 0.930 . S
C1410 C1409 1.362 . S
C1410 C1413 1.409 . S
C1411 H1403 0.930 . S
C1411 C1412 1.355 . S
C1411 C1413 1.415 . S
C1412 C1411 1.355 . S
C1412 C1414 1.419 . S
C1413 C1408 1.425 . S
C1413 C1410 1.409 . S
C1413 C1411 1.415 . S
C1414 H1404 0.930 . S
C1414 C1412 1.419 . S
C1414 C1415 1.362 . S
C1415 H1405 0.930 . S
C1415 C1408 1.409 . S
C1415 C1414 1.362 . S
H1416 C1422 0.930 . S
H1417 C1425 0.930 . S
H1418 C1426 0.930 . S
H1419 C1427 0.930 . S
H1420 C1430 0.930 . S
H1421 C1431 0.930 . S
C1422 H1416 0.930 . S
C1422 C1423 1.355 . S
C1422 C1424 1.415 . S
C1423 C1422 1.355 . S
C1423 C1425 1.419 . S
C1424 C1422 1.415 . S
C1424 C1429 1.425 . S
C1424 C1431 1.409 . S
C1425 H1417 0.930 . S
C1425 C1423 1.419 . S
C1425 C1426 1.362 . S
C1426 H1418 0.930 . S
C1426 C1425 1.362 . S
C1426 C1429 1.409 . S
C1427 H1419 0.930 . S
C1427 C1428 1.355 . S
C1427 C1429 1.415 . S
C1428 C1427 1.355 . S
C1428 C1430 1.419 . S
C1429 C1424 1.425 . S
C1429 C1426 1.409 . S
C1429 C1427 1.415 . S
C1430 H1420 0.930 . S
C1430 C1428 1.419 . S
C1430 C1431 1.362 . S
C1431 H1421 0.930 . S
C1431 C1424 1.409 . S
C1431 C1430 1.362 . S
H1432 C1438 0.930 . S
H1433 C1441 0.930 . S
H1434 C1442 0.930 . S
H1435 C1443 0.930 . S
H1436 C1446 0.930 . S
H1437 C1447 0.930 . S
C1438 H1432 0.930 . S
C1438 C1439 1.355 . S
C1438 C1440 1.415 . S
C1439 C1438 1.355 . S
C1439 C1441 1.419 . S
C1440 C1438 1.415 . S
C1440 C1445 1.425 . S
C1440 C1447 1.409 . S
C1441 H1433 0.930 . S
C1441 C1439 1.419 . S
C1441 C1442 1.362 . S
C1442 H1434 0.930 . S
C1442 C1441 1.362 . S
C1442 C1445 1.409 . S
C1443 H1435 0.930 . S
C1443 C1444 1.355 . S
C1443 C1445 1.415 . S
C1444 C1443 1.355 . S
C1444 C1446 1.419 . S
C1445 C1440 1.425 . S
C1445 C1442 1.409 . S
C1445 C1443 1.415 . S
C1446 H1436 0.930 . S
C1446 C1444 1.419 . S
C1446 C1447 1.362 . S
C1447 H1437 0.930 . S
C1447 C1440 1.409 . S
C1447 C1446 1.362 . S
H1448 C1454 0.930 . S
H1449 C1457 0.930 . S
H1450 C1458 0.930 . S
H1451 C1459 0.930 . S
H1452 C1462 0.930 . S
H1453 C1463 0.930 . S
C1454 H1448 0.930 . S
C1454 C1455 1.355 . S
C1454 C1456 1.415 . S
C1455 C1454 1.355 . S
C1455 C1457 1.419 . S
C1456 C1454 1.415 . S
C1456 C1461 1.425 . S
C1456 C1463 1.409 . S
C1457 H1449 0.930 . S
C1457 C1455 1.419 . S
C1457 C1458 1.362 . S
C1458 H1450 0.930 . S
C1458 C1457 1.362 . S
C1458 C1461 1.409 . S
C1459 H1451 0.930 . S
C1459 C1460 1.355 . S
C1459 C1461 1.415 . S
C1460 C1459 1.355 . S
C1460 C1462 1.419 . S
C1461 C1456 1.425 . S
C1461 C1458 1.409 . S
C1461 C1459 1.415 . S
C1462 H1452 0.930 . S
C1462 C1460 1.419 . S
C1462 C1463 1.362 . S
C1463 H1453 0.930 . S
C1463 C1456 1.409 . S
C1463 C1462 1.362 . S
H1464 C1470 0.930 . S
H1465 C1473 0.930 . S
H1466 C1474 0.930 . S
H1467 C1475 0.930 . S
H1468 C1478 0.930 . S
H1469 C1479 0.930 . S
C1470 H1464 0.930 . S
C1470 C1471 1.355 . S
C1470 C1472 1.415 . S
C1471 C1470 1.355 . S
C1471 C1473 1.419 . S
C1472 C1470 1.415 . S
C1472 C1477 1.425 . S
C1472 C1479 1.409 . S
C1473 H1465 0.930 . S
C1473 C1471 1.419 . S
C1473 C1474 1.362 . S
C1474 H1466 0.930 . S
C1474 C1473 1.362 . S
C1474 C1477 1.409 . S
C1475 H1467 0.930 . S
C1475 C1476 1.355 . S
C1475 C1477 1.415 . S
C1476 C1475 1.355 . S
C1476 C1478 1.419 . S
C1477 C1472 1.425 . S
C1477 C1474 1.409 . S
C1477 C1475 1.415 . S
C1478 H1468 0.930 . S
C1478 C1476 1.419 . S
C1478 C1479 1.362 . S
C1479 H1469 0.930 . S
C1479 C1472 1.409 . S
C1479 C1478 1.362 . S
H1480 C1486 0.930 . S
H1481 C1489 0.930 . S
H1482 C1490 0.930 . S
H1483 C1491 0.930 . S
H1484 C1494 0.930 . S
H1485 C1495 0.930 . S
C1486 H1480 0.930 . S
C1486 C1487 1.355 . S
C1486 C1488 1.415 . S
C1487 C1486 1.355 . S
C1487 C1489 1.419 . S
C1488 C1486 1.415 . S
C1488 C1493 1.425 . S
C1488 C1495 1.409 . S
C1489 H1481 0.930 . S
C1489 C1487 1.419 . S
C1489 C1490 1.362 . S
C1490 H1482 0.930 . S
C1490 C1489 1.362 . S
C1490 C1493 1.409 . S
C1491 H1483 0.930 . S
C1491 C1492 1.355 . S
C1491 C1493 1.415 . S
C1492 C1491 1.355 . S
C1492 C1494 1.419 . S
C1493 C1488 1.425 . S
C1493 C1490 1.409 . S
C1493 C1491 1.415 . S
C1494 H1484 0.930 . S
C1494 C1492 1.419 . S
C1494 C1495 1.362 . S
C1495 H1485 0.930 . S
C1495 C1488 1.409 . S
C1495 C1494 1.362 . S
H1496 C1502 0.930 . S
H1497 C1505 0.930 . S
H1498 C1506 0.930 . S
H1499 C1507 0.930 . S
H1500 C1510 0.930 . S
H1501 C1511 0.930 . S
C1502 H1496 0.930 . S
C1502 C1503 1.355 . S
C1502 C1504 1.415 . S
C1503 C1502 1.355 . S
C1503 C1505 1.419 . S
C1504 C1502 1.415 . S
C1504 C1509 1.425 . S
C1504 C1511 1.409 . S
C1505 H1497 0.930 . S
C1505 C1503 1.419 . S
C1505 C1506 1.362 . S
C1506 H1498 0.930 . S
C1506 C1505 1.362 . S
C1506 C1509 1.409 . S
C1507 H1499 0.930 . S
C1507 C1508 1.355 . S
C1507 C1509 1.415 . S
C1508 C1507 1.355 . S
C1508 C1510 1.419 . S
C1509 C1504 1.425 . S
C1509 C1506 1.409 . S
C1509 C1507 1.415 . S
C1510 H1500 0.930 . S
C1510 C1508 1.419 . S
C1510 C1511 1.362 . S
C1511 H1501 0.930 . S
C1511 C1504 1.409 . S
C1511 C1510 1.362 . S
H1512 C1518 0.930 . S
H1513 C1521 0.916 1_556 S
H1514 C1522 0.930 . S
H1515 C1523 0.930 1_556 S
H1516 C1526 0.930 . S
H1517 C1527 0.930 . S
C1518 H1512 0.930 . S
C1518 C1519 1.355 . S
C1518 C1520 1.415 . S
C1519 C1518 1.355 . S
C1519 C1521 1.436 . S
C1520 C1518 1.415 . S
C1520 C1525 1.425 . S
C1520 C1527 1.409 . S
C1521 H1513 0.916 1_554 S
C1521 C1519 1.436 . S
C1521 C1522 1.359 1_554 S
C1522 H1514 0.930 . S
C1522 C1521 1.359 1_556 S
C1522 C1525 1.409 1_556 S
C1523 H1515 0.930 1_554 S
C1523 C1524 1.355 . S
C1523 C1525 1.415 . S
C1524 C1523 1.355 . S
C1524 C1526 1.419 . S
C1525 C1520 1.425 . S
C1525 C1522 1.409 1_554 S
C1525 C1523 1.415 . S
C1526 H1516 0.930 . S
C1526 C1524 1.419 . S
C1526 C1527 1.362 . S
C1527 H1517 0.930 . S
C1527 C1520 1.409 . S
C1527 C1526 1.362 . S
H1528 C1534 0.930 . S
H1529 C1537 0.930 . S
H1530 C1538 0.933 . S
H1531 C1539 0.930 . S
H1532 C1542 0.930 . S
H1533 C1543 0.930 . S
C1534 H1528 0.930 . S
C1534 C1535 1.355 . S
C1534 C1536 1.415 . S
C1535 C1534 1.355 . S
C1535 C1537 1.419 . S
C1536 C1534 1.415 . S
C1536 C1541 1.425 . S
C1536 C1543 1.409 . S
C1537 H1529 0.930 . S
C1537 C1535 1.419 . S
C1537 C1538 1.362 . S
C1538 H1530 0.933 . S
C1538 C1537 1.362 . S
C1538 C1541 1.409 . S
C1539 H1531 0.930 . S
C1539 C1540 1.355 . S
C1539 C1541 1.415 . S
C1540 C1539 1.355 . S
C1540 C1542 1.419 . S
C1541 C1536 1.425 . S
C1541 C1538 1.409 . S
C1541 C1539 1.415 . S
C1542 H1532 0.930 . S
C1542 C1540 1.419 . S
C1542 C1543 1.362 . S
C1543 H1533 0.930 . S
C1543 C1536 1.409 . S
C1543 C1542 1.362 . S
H1544 C1550 0.930 . S
H1545 C1553 0.930 . S
H1546 C1554 0.930 . S
H1547 C1555 0.930 . S
H1548 C1558 0.930 . S
H1549 C1559 0.930 . S
C1550 H1544 0.930 . S
C1550 C1551 1.355 . S
C1550 C1552 1.415 . S
C1551 C1550 1.355 . S
C1551 C1553 1.419 . S
C1552 C1550 1.415 . S
C1552 C1557 1.425 . S
C1552 C1559 1.409 . S
C1553 H1545 0.930 . S
C1553 C1551 1.419 . S
C1553 C1554 1.362 . S
C1554 H1546 0.930 . S
C1554 C1553 1.362 . S
C1554 C1557 1.409 . S
C1555 H1547 0.930 . S
C1555 C1556 1.355 . S
C1555 C1557 1.415 . S
C1556 C1555 1.355 . S
C1556 C1558 1.419 . S
C1557 C1552 1.425 . S
C1557 C1554 1.409 . S
C1557 C1555 1.415 . S
C1558 H1548 0.930 . S
C1558 C1556 1.419 . S
C1558 C1559 1.362 . S
C1559 H1549 0.930 . S
C1559 C1552 1.409 . S
C1559 C1558 1.362 . S
H1560 C1566 0.930 . S
H1561 C1569 0.930 . S
H1562 C1570 0.930 . S
H1563 C1571 0.930 . S
H1564 C1574 0.930 . S
H1565 C1575 0.930 . S
C1566 H1560 0.930 . S
C1566 C1567 1.355 . S
C1566 C1568 1.415 . S
C1567 C1566 1.355 . S
C1567 C1569 1.419 . S
C1568 C1566 1.415 . S
C1568 C1573 1.425 . S
C1568 C1575 1.409 . S
C1569 H1561 0.930 . S
C1569 C1567 1.419 . S
C1569 C1570 1.362 . S
C1570 H1562 0.930 . S
C1570 C1569 1.362 . S
C1570 C1573 1.409 . S
C1571 H1563 0.930 . S
C1571 C1572 1.355 . S
C1571 C1573 1.415 . S
C1572 C1571 1.355 . S
C1572 C1574 1.419 . S
C1573 C1568 1.425 . S
C1573 C1570 1.409 . S
C1573 C1571 1.415 . S
C1574 H1564 0.930 . S
C1574 C1572 1.419 . S
C1574 C1575 1.362 . S
C1575 H1565 0.930 . S
C1575 C1568 1.409 . S
C1575 C1574 1.362 . S
H1576 C1582 0.930 . S
H1577 C1585 0.930 . S
H1578 C1586 0.930 . S
H1579 C1587 0.930 . S
H1580 C1590 0.930 . S
H1581 C1591 0.930 . S
C1582 H1576 0.930 . S
C1582 C1583 1.355 . S
C1582 C1584 1.415 . S
C1583 C1582 1.355 . S
C1583 C1585 1.419 . S
C1584 C1582 1.415 . S
C1584 C1589 1.425 . S
C1584 C1591 1.409 . S
C1585 H1577 0.930 . S
C1585 C1583 1.419 . S
C1585 C1586 1.362 . S
C1586 H1578 0.930 . S
C1586 C1585 1.362 . S
C1586 C1589 1.409 . S
C1587 H1579 0.930 . S
C1587 C1588 1.355 . S
C1587 C1589 1.415 . S
C1588 C1587 1.355 . S
C1588 C1590 1.419 . S
C1589 C1584 1.425 . S
C1589 C1586 1.409 . S
C1589 C1587 1.415 . S
C1590 H1580 0.930 . S
C1590 C1588 1.419 . S
C1590 C1591 1.362 . S
C1591 H1581 0.930 . S
C1591 C1584 1.409 . S
C1591 C1590 1.362 . S
H1592 C1598 0.930 . S
H1593 C1601 0.930 1_554 S
H1594 C1602 0.930 . S
H1595 C1603 0.930 1_554 S
H1596 C1606 0.930 . S
H1597 C1607 0.930 . S
C1598 H1592 0.930 . S
C1598 C1599 1.355 . S
C1598 C1600 1.415 . S
C1599 C1598 1.355 . S
C1599 C1601 1.419 . S
C1600 C1598 1.415 . S
C1600 C1605 1.425 . S
C1600 C1607 1.409 . S
C1601 H1593 0.930 1_556 S
C1601 C1599 1.419 . S
C1601 C1602 1.362 1_556 S
C1602 H1594 0.930 . S
C1602 C1601 1.362 1_554 S
C1602 C1605 1.409 1_554 S
C1603 H1595 0.930 1_556 S
C1603 C1604 1.355 . S
C1603 C1605 1.415 . S
C1604 C1603 1.355 . S
C1604 C1606 1.419 . S
C1605 C1600 1.425 . S
C1605 C1602 1.409 1_556 S
C1605 C1603 1.415 . S
C1606 H1596 0.930 . S
C1606 C1604 1.419 . S
C1606 C1607 1.362 . S
C1607 H1597 0.930 . S
C1607 C1600 1.409 . S
C1607 C1606 1.362 . S
H1608 C1614 0.930 . S
H1609 C1617 0.930 . S
H1610 C1618 0.930 . S
H1611 C1619 0.930 . S
H1612 C1622 0.930 . S
H1613 C1623 0.930 . S
C1614 H1608 0.930 . S
C1614 C1615 1.355 . S
C1614 C1616 1.415 . S
C1615 C1614 1.355 . S
C1615 C1617 1.419 . S
C1616 C1614 1.415 . S
C1616 C1621 1.425 . S
C1616 C1623 1.409 . S
C1617 H1609 0.930 . S
C1617 C1615 1.419 . S
C1617 C1618 1.362 . S
C1618 H1610 0.930 . S
C1618 C1617 1.362 . S
C1618 C1621 1.409 . S
C1619 H1611 0.930 . S
C1619 C1620 1.355 . S
C1619 C1621 1.415 . S
C1620 C1619 1.355 . S
C1620 C1622 1.419 . S
C1621 C1616 1.425 . S
C1621 C1618 1.409 . S
C1621 C1619 1.415 . S
C1622 H1612 0.930 . S
C1622 C1620 1.419 . S
C1622 C1623 1.362 . S
C1623 H1613 0.930 . S
C1623 C1616 1.409 . S
C1623 C1622 1.362 . S
H1624 C1630 0.930 . S
H1625 C1633 0.930 . S
H1626 C1634 0.930 . S
H1627 C1635 0.930 . S
H1628 C1638 0.930 . S
H1629 C1639 0.930 . S
C1630 H1624 0.930 . S
C1630 C1631 1.355 . S
C1630 C1632 1.415 . S
C1631 C1630 1.355 . S
C1631 C1633 1.419 . S
C1632 C1630 1.415 . S
C1632 C1637 1.425 . S
C1632 C1639 1.409 . S
C1633 H1625 0.930 . S
C1633 C1631 1.419 . S
C1633 C1634 1.362 . S
C1634 H1626 0.930 . S
C1634 C1633 1.362 . S
C1634 C1637 1.409 . S
C1635 H1627 0.930 . S
C1635 C1636 1.355 . S
C1635 C1637 1.415 . S
C1636 C1635 1.355 . S
C1636 C1638 1.419 . S
C1637 C1632 1.425 . S
C1637 C1634 1.409 . S
C1637 C1635 1.415 . S
C1638 H1628 0.930 . S
C1638 C1636 1.419 . S
C1638 C1639 1.362 . S
C1639 H1629 0.930 . S
C1639 C1632 1.409 . S
C1639 C1638 1.362 . S
H1640 C1646 0.930 . S
H1641 C1649 0.930 . S
H1642 C1650 0.930 . S
H1643 C1651 0.930 . S
H1644 C1654 0.930 . S
H1645 C1655 0.930 . S
C1646 H1640 0.930 . S
C1646 C1647 1.355 . S
C1646 C1648 1.415 . S
C1647 C1646 1.355 . S
C1647 C1649 1.419 . S
C1648 C1646 1.415 . S
C1648 C1653 1.425 . S
C1648 C1655 1.409 . S
C1649 H1641 0.930 . S
C1649 C1647 1.419 . S
C1649 C1650 1.362 . S
C1650 H1642 0.930 . S
C1650 C1649 1.362 . S
C1650 C1653 1.409 . S
C1651 H1643 0.930 . S
C1651 C1652 1.355 . S
C1651 C1653 1.415 . S
C1652 C1651 1.355 . S
C1652 C1654 1.419 . S
C1653 C1648 1.425 . S
C1653 C1650 1.409 . S
C1653 C1651 1.415 . S
C1654 H1644 0.930 . S
C1654 C1652 1.419 . S
C1654 C1655 1.362 . S
C1655 H1645 0.930 . S
C1655 C1648 1.409 . S
C1655 C1654 1.362 . S
C511 C76 1.319 . S
C516 C6 1.255 . S
C527 C48 1.297 . S
C532 C20 1.277 . S
C543 C34 1.291 . S
C548 C62 1.283 . S
C559 C90 1.316 . S
C564 C160 1.257 . S
C575 C104 1.273 . S
C580 C132 1.300 . S
C591 C146 1.327 . S
C596 C118 1.246 . S
C607 C174 1.274 . S
C612 C244 1.300 . S
C623 C188 1.258 . S
C628 C216 1.315 . S
C639 C202 1.255 . S
C644 C230 1.319 . S
C655 C328 1.304 . S
C660 C258 1.269 . S
C671 C272 1.283 . S
C676 C300 1.291 . S
C687 C314 1.252 . S
C692 C286 1.322 . S
C703 C412 1.294 . S
C708 C342 1.280 . S
C719 C384 1.246 . S
C724 C356 1.327 . S
C735 C398 1.327 . S
C740 C370 1.247 . S
C751 C426 1.254 . S
C756 C496 1.319 . S
C767 C440 1.261 . S
C772 C468 1.313 . S
C783 C454 1.309 . S
C788 C482 1.266 . S
C799 C78 1.977 . S
C804 C8 1.968 . S
C815 C22 1.975 . S
C820 C50 1.968 . S
C831 C64 1.979 . S
C836 C36 1.969 . S
C847 C92 1.969 . S
C852 C162 1.969 . S
C863 C106 1.977 . S
C868 C134 1.969 . S
C879 C148 1.968 . S
C884 C120 1.973 . S
C895 C176 1.980 . S
C900 C246 1.970 . S
C911 C218 1.974 . S
C916 C190 1.968 . S
C927 C232 1.980 . S
C932 C204 1.970 . S
C943 C260 1.977 . S
C948 C330 1.968 . S
C959 C274 1.977 . S
C964 C302 1.988 . S
C975 C316 1.976 . S
C980 C288 1.968 . S
C991 C414 1.987 . S
C996 C344 1.991 . S
C1007 C358 1.968 . S
C1012 C386 1.970 . S
C1023 C372 1.968 . S
C1028 C400 1.974 . S
C1039 C498 1.991 . S
C1044 C428 1.986 . S
C1055 C470 1.976 . S
C1060 C442 1.987 . S
C1071 C484 1.990 . S
C1076 C456 1.989 . S
C1087 C233 1.594 . S
C1092 C9 1.628 . S
C1103 C247 1.622 . S
C1108 C23 1.607 . S
C1119 C219 1.626 . S
C1124 C37 1.591 . S
C1135 C51 1.620 . S
C1140 C373 1.592 . S
C1151 C65 1.613 . S
C1156 C345 1.618 . S
C1167 C79 1.592 . S
C1172 C359 1.627 . S
C1183 C93 1.623 . S
C1188 C485 1.591 . S
C1199 C107 1.592 . S
C1204 C499 1.628 . S
C1215 C121 1.592 . S
C1220 C471 1.620 . S
C1231 C135 1.597 . S
C1236 C289 1.628 . S
C1247 C261 1.626 . S
C1252 C149 1.591 . S
C1263 C275 1.598 . S
C1268 C163 1.610 . S
C1279 C401 1.591 . S
C1284 C177 1.622 . S
C1295 C191 1.591 . S
C1300 C415 1.626 . S
C1311 C205 1.598 . S
C1316 C387 1.610 . S
C1327 C303 1.626 . S
C1332 C457 1.601 . S
C1343 C317 1.628 . S
C1348 C429 1.592 . S
C1359 C443 1.600 . S
C1364 C331 1.608 . S
C1375 C7 1.414 . S
C1380 C147 1.449 . S
C1391 C161 1.431 . S
C1396 C21 1.432 . S
C1407 C133 1.446 . S
C1412 C35 1.417 . S
C1423 C49 1.463 . S
C1428 C119 1.400 . S
C1439 C63 1.400 . S
C1444 C91 1.463 . S
C1455 C77 1.455 . S
C1460 C105 1.407 . S
C1471 C175 1.424 . S
C1476 C315 1.439 . S
C1487 C329 1.465 . S
C1492 C189 1.397 . S
C1503 C301 1.465 . S
C1508 C203 1.398 . S
C1519 C217 1.463 . S
C1524 C287 1.400 . S
C1535 C231 1.458 . S
C1540 C259 1.405 . S
C1551 C273 1.434 . S
C1556 C245 1.429 . S
C1567 C343 1.437 . S
C1572 C483 1.426 . S
C1583 C497 1.430 . S
C1588 C357 1.433 . S
C1599 C371 1.463 . S
C1604 C469 1.400 . S
C1615 C385 1.398 . S
C1620 C455 1.464 . S
C1631 C427 1.399 . S
C1636 C399 1.464 . S
C1647 C413 1.413 . S
C1652 C441 1.450 . S
