# Generated by pormake.
# Topology uoz, (4)-cn, num edge types: 1
# Building blocks:
#     Node 0, Type 0, BuildingBlock: QUQFOY_clean_sbu_1, # of connection points: 4
#     Node 1, Type 0, BuildingBlock: QUQFOY_clean_sbu_1, # of connection points: 4
#     Node 2, Type 0, BuildingBlock: QUQFOY_clean_sbu_1, # of connection points: 4
#     Node 3, Type 0, BuildingBlock: QUQFOY_clean_sbu_1, # of connection points: 4
#     Node 4, Type 0, BuildingBlock: QUQFOY_clean_sbu_1, # of connection points: 4
#     Node 5, Type 0, BuildingBlock: QUQFOY_clean_sbu_1, # of connection points: 4
#     Node 6, Type 0, BuildingBlock: QUQFOY_clean_sbu_1, # of connection points: 4
#     Node 7, Type 0, BuildingBlock: QUQFOY_clean_sbu_1, # of connection points: 4
#     Node 8, Type 0, BuildingBlock: QUQFOY_clean_sbu_1, # of connection points: 4
#     Node 9, Type 0, BuildingBlock: QUQFOY_clean_sbu_1, # of connection points: 4
#     Node 10, Type 0, BuildingBlock: QUQFOY_clean_sbu_1, # of connection points: 4
#     Node 11, Type 0, BuildingBlock: QUQFOY_clean_sbu_1, # of connection points: 4
#     Node 12, Type 0, BuildingBlock: QUQFOY_clean_sbu_1, # of connection points: 4
#     Node 13, Type 0, BuildingBlock: QUQFOY_clean_sbu_1, # of connection points: 4
#     Node 14, Type 0, BuildingBlock: QUQFOY_clean_sbu_1, # of connection points: 4
#     Node 15, Type 0, BuildingBlock: QUQFOY_clean_sbu_1, # of connection points: 4
#     Edge 16, Type (0, 0), BuildingBlock: XIVTED_clean_linker_0, # of connection points: 2
#     Edge 17, Type (0, 0), BuildingBlock: XIVTED_clean_linker_0, # of connection points: 2
#     Edge 18, Type (0, 0), BuildingBlock: XIVTED_clean_linker_0, # of connection points: 2
#     Edge 19, Type (0, 0), BuildingBlock: XIVTED_clean_linker_0, # of connection points: 2
#     Edge 20, Type (0, 0), BuildingBlock: XIVTED_clean_linker_0, # of connection points: 2
#     Edge 21, Type (0, 0), BuildingBlock: XIVTED_clean_linker_0, # of connection points: 2
#     Edge 22, Type (0, 0), BuildingBlock: XIVTED_clean_linker_0, # of connection points: 2
#     Edge 23, Type (0, 0), BuildingBlock: XIVTED_clean_linker_0, # of connection points: 2
#     Edge 24, Type (0, 0), BuildingBlock: XIVTED_clean_linker_0, # of connection points: 2
#     Edge 25, Type (0, 0), BuildingBlock: XIVTED_clean_linker_0, # of connection points: 2
#     Edge 26, Type (0, 0), BuildingBlock: XIVTED_clean_linker_0, # of connection points: 2
#     Edge 27, Type (0, 0), BuildingBlock: XIVTED_clean_linker_0, # of connection points: 2
#     Edge 28, Type (0, 0), BuildingBlock: XIVTED_clean_linker_0, # of connection points: 2
#     Edge 29, Type (0, 0), BuildingBlock: XIVTED_clean_linker_0, # of connection points: 2
#     Edge 30, Type (0, 0), BuildingBlock: XIVTED_clean_linker_0, # of connection points: 2
#     Edge 31, Type (0, 0), BuildingBlock: XIVTED_clean_linker_0, # of connection points: 2
#     Edge 32, Type (0, 0), BuildingBlock: XIVTED_clean_linker_0, # of connection points: 2
#     Edge 33, Type (0, 0), BuildingBlock: XIVTED_clean_linker_0, # of connection points: 2
#     Edge 34, Type (0, 0), BuildingBlock: XIVTED_clean_linker_0, # of connection points: 2
#     Edge 35, Type (0, 0), BuildingBlock: XIVTED_clean_linker_0, # of connection points: 2
#     Edge 36, Type (0, 0), BuildingBlock: XIVTED_clean_linker_0, # of connection points: 2
#     Edge 37, Type (0, 0), BuildingBlock: XIVTED_clean_linker_0, # of connection points: 2
#     Edge 38, Type (0, 0), BuildingBlock: XIVTED_clean_linker_0, # of connection points: 2
#     Edge 39, Type (0, 0), BuildingBlock: XIVTED_clean_linker_0, # of connection points: 2
#     Edge 40, Type (0, 0), BuildingBlock: XIVTED_clean_linker_0, # of connection points: 2
#     Edge 41, Type (0, 0), BuildingBlock: XIVTED_clean_linker_0, # of connection points: 2
#     Edge 42, Type (0, 0), BuildingBlock: XIVTED_clean_linker_0, # of connection points: 2
#     Edge 43, Type (0, 0), BuildingBlock: XIVTED_clean_linker_0, # of connection points: 2
#     Edge 44, Type (0, 0), BuildingBlock: XIVTED_clean_linker_0, # of connection points: 2
#     Edge 45, Type (0, 0), BuildingBlock: XIVTED_clean_linker_0, # of connection points: 2
#     Edge 46, Type (0, 0), BuildingBlock: XIVTED_clean_linker_0, # of connection points: 2
#     Edge 47, Type (0, 0), BuildingBlock: XIVTED_clean_linker_0, # of connection points: 2
# Relax obj value: 0.169
# Max RMSD: 0.208
# Mean RMSD: 0.208
data_MOF--net-uoz--node1-QUQFOY_clean_sbu_1--edge1-XIVTED_clean_linker_0
_symmetry_space_group_name_H-M    P1
_symmetry_Int_Tables_number       1
_symmetry_cell_setting            triclinic
loop_
_symmetry_equiv_pos_as_xyz
'x, y, z'
_cell_length_a     64.565058
_cell_length_b     64.642305
_cell_length_c     22.529151
_cell_angle_alpha  90.007588
_cell_angle_beta   89.961952
_cell_angle_gamma 89.988247
loop_
_atom_site_label
_atom_site_type_symbol
_atom_site_fract_x
_atom_site_fract_y
_atom_site_fract_z
_atom_type_partial_charge
O0 O 0.09075 0.5559 0.26146 0.0
Cd1 Cd 0.08924 0.57412 0.33595 0.0
Cd2 Cd 0.05509 0.58903 0.2734 0.0
O3 O 0.05731 0.55891 0.24611 0.0
O4 O 0.10563 0.55882 0.39611 0.0
O5 O 0.07168 0.56341 0.40274 0.0
C6 C 0.0884 0.55495 0.423 0.0
C7 C 0.02272 0.60368 0.25164 0.0
C8 C 0.07435 0.54984 0.236 0.0
C9 C 0.09514 0.61419 0.28261 0.0
O10 O 0.07889 0.60932 0.25407 0.0
O11 O 0.10086 0.60353 0.32703 0.0
O12 O 0.03551 0.59835 0.21085 0.0
O13 O 0.02809 0.60049 0.30602 0.0
O14 O 0.75463 0.77275 0.49857 0.0
Cd15 Cd 0.73608 0.77195 0.57253 0.0
Cd16 Cd 0.72171 0.7376 0.51152 0.0
O17 O 0.75221 0.73913 0.48704 0.0
O18 O 0.75112 0.78887 0.63201 0.0
O19 O 0.74662 0.75501 0.64079 0.0
C20 C 0.75499 0.77191 0.6601 0.0
C21 C 0.70662 0.7053 0.49197 0.0
C22 C 0.76112 0.75611 0.47536 0.0
C23 C 0.69672 0.77772 0.51564 0.0
O24 O 0.70204 0.76145 0.4879 0.0
O25 O 0.70667 0.78345 0.5614 0.0
O26 O 0.71275 0.71736 0.45032 0.0
O27 O 0.70934 0.71133 0.54599 0.0
O28 O 0.53548 0.43876 0.73532 0.0
Cd29 Cd 0.53625 0.42146 0.81165 0.0
Cd30 Cd 0.57078 0.40521 0.75415 0.0
O31 O 0.56873 0.43427 0.71876 0.0
O32 O 0.51936 0.43754 0.86907 0.0
O33 O 0.55319 0.43288 0.87885 0.0
C34 C 0.53631 0.4416 0.89707 0.0
C35 C 0.60381 0.39068 0.74202 0.0
C36 C 0.55192 0.44368 0.70798 0.0
C37 C 0.53068 0.38027 0.76352 0.0
O38 O 0.54742 0.38427 0.73615 0.0
O39 O 0.5244 0.39203 0.80498 0.0
O40 O 0.59192 0.39453 0.69781 0.0
O41 O 0.59707 0.39515 0.79439 0.0
O42 O 0.87023 0.21828 0.00742 0.0
Cd43 Cd 0.88957 0.22276 0.07847 0.0
Cd44 Cd 0.90595 0.25353 -0.00186 0.0
O45 O 0.87971 0.2453 0.95377 0.0
O46 O 0.87511 0.20691 0.14181 0.0
O47 O 0.87847 0.24093 0.14416 0.0
C48 C 0.87064 0.22429 0.16674 0.0
C49 C 0.91839 0.28663 0.97448 0.0
C50 C 0.86813 0.22973 0.96215 0.0
C51 C 0.932 0.21566 0.03122 0.0
O52 O 0.92884 0.23165 -0.00018 0.0
O53 O 0.91895 0.21011 0.07049 0.0
O54 O 0.9177 0.272 0.93608 0.0
O55 O 0.9117 0.2827 0.02725 0.0
O56 O 0.09049 0.44004 0.88345 0.0
Cd57 Cd 0.08921 0.42139 0.80975 0.0
Cd58 Cd 0.05515 0.40708 0.87029 0.0
O59 O 0.05694 0.43728 0.897 0.0
O60 O 0.10597 0.43613 0.74927 0.0
O61 O 0.07198 0.43195 0.74213 0.0
C62 C 0.08887 0.44008 0.72184 0.0
C63 C 0.02216 0.39262 0.88293 0.0
C64 C 0.07392 0.44638 0.90754 0.0
C65 C 0.09468 0.38158 0.86534 0.0
O66 O 0.07856 0.38684 0.89399 0.0
O67 O 0.10036 0.39183 0.82007 0.0
O68 O 0.0335 0.39788 0.9272 0.0
O69 O 0.02942 0.39575 0.83031 0.0
O70 O 0.86995 0.77382 0.11981 0.0
Cd71 Cd 0.88875 0.77245 0.0464 0.0
Cd72 Cd 0.90301 0.73864 0.10976 0.0
O73 O 0.87244 0.74029 0.13324 0.0
O74 O 0.87387 0.78883 0.98538 0.0
O75 O 0.87849 0.75492 0.97905 0.0
C76 C 0.87013 0.77162 0.95838 0.0
C77 C 0.91801 0.70641 0.13069 0.0
C78 C 0.86341 0.75731 0.14367 0.0
C79 C 0.92803 0.77863 0.10362 0.0
O80 O 0.92264 0.76263 0.13249 0.0
O81 O 0.91816 0.78397 0.05733 0.0
O82 O 0.91186 0.71868 0.17185 0.0
O83 O 0.91539 0.71222 0.07642 0.0
O84 O 0.53378 0.55463 0.35793 0.0
Cd85 Cd 0.53554 0.5741 0.28609 0.0
Cd86 Cd 0.56925 0.58786 0.35156 0.0
O87 O 0.56724 0.5572 0.37355 0.0
O88 O 0.51929 0.55988 0.2235 0.0
O89 O 0.5533 0.56429 0.21855 0.0
C90 C 0.5366 0.55625 0.19676 0.0
C91 C 0.6016 0.60247 0.37332 0.0
C92 C 0.55019 0.54794 0.382 0.0
C93 C 0.52942 0.61321 0.34483 0.0
O94 O 0.54534 0.60769 0.37389 0.0
O95 O 0.52409 0.60344 0.29837 0.0
O96 O 0.58917 0.59638 0.4142 0.0
O97 O 0.59588 0.59998 0.31891 0.0
O98 O 0.75466 0.21526 0.62091 0.0
Cd99 Cd 0.73533 0.21977 0.54981 0.0
Cd100 Cd 0.71891 0.25089 0.6292 0.0
O101 O 0.74483 0.24221 0.67437 0.0
O102 O 0.74975 0.20425 0.48571 0.0
O103 O 0.74637 0.23829 0.48498 0.0
C104 C 0.75417 0.22178 0.46155 0.0
C105 C 0.707 0.28419 0.6528 0.0
C106 C 0.75651 0.22671 0.6663 0.0
C107 C 0.6925 0.21338 0.59548 0.0
O108 O 0.69563 0.22949 0.62638 0.0
O109 O 0.70581 0.2074 0.55745 0.0
O110 O 0.70724 0.2695 0.69105 0.0
O111 O 0.71382 0.2802 0.60021 0.0
O112 O 0.36986 0.27402 0.61463 0.0
Cd113 Cd 0.38937 0.27266 0.54268 0.0
Cd114 Cd 0.4036 0.23903 0.6074 0.0
O115 O 0.37303 0.24068 0.63094 0.0
O116 O 0.37507 0.28913 0.48065 0.0
O117 O 0.37957 0.25521 0.4745 0.0
C118 C 0.37149 0.27196 0.45328 0.0
C119 C 0.41861 0.20665 0.62607 0.0
C120 C 0.36349 0.25757 0.63921 0.0
C121 C 0.42859 0.27897 0.60145 0.0
O122 O 0.42325 0.26296 0.63034 0.0
O123 O 0.4187 0.28429 0.55517 0.0
O124 O 0.41267 0.21866 0.66814 0.0
O125 O 0.41576 0.21282 0.57223 0.0
O126 O 0.25499 0.71699 0.12225 0.0
Cd127 Cd 0.23629 0.71834 0.04867 0.0
Cd128 Cd 0.22213 0.75256 0.11045 0.0
O129 O 0.25249 0.75053 0.13573 0.0
O130 O 0.25106 0.70177 0.98782 0.0
O131 O 0.24676 0.73572 0.98125 0.0
C132 C 0.25494 0.71891 0.96065 0.0
C133 C 0.20742 0.78507 0.12928 0.0
C134 C 0.26147 0.73349 0.14626 0.0
C135 C 0.19659 0.71289 0.10465 0.0
O136 O 0.20194 0.72902 0.13295 0.0
O137 O 0.20675 0.70712 0.05929 0.0
O138 O 0.21317 0.77296 0.17125 0.0
O139 O 0.21033 0.77896 0.07539 0.0
O140 O 0.25372 0.2716 0.99186 0.0
Cd141 Cd 0.23644 0.27083 0.06833 0.0
Cd142 Cd 0.2192 0.23679 0.00671 0.0
O143 O 0.24862 0.23861 0.97331 0.0
O144 O 0.25292 0.2874 0.1256 0.0
O145 O 0.24775 0.2537 0.13537 0.0
C146 C 0.25677 0.2704 0.15351 0.0
C147 C 0.20367 0.20476 0.98597 0.0
C148 C 0.2584 0.25527 0.96375 0.0
C149 C 0.19527 0.27756 0.02078 0.0
O150 O 0.19891 0.26099 0.99231 0.0
O151 O 0.20721 0.2833 0.06245 0.0
O152 O 0.20818 0.21778 0.94503 0.0
O153 O 0.20808 0.20974 0.03994 0.0
O154 O 0.37097 0.71876 0.49974 0.0
Cd155 Cd 0.38915 0.71989 0.57435 0.0
Cd156 Cd 0.40446 0.75404 0.51187 0.0
O157 O 0.37424 0.75217 0.48495 0.0
O158 O 0.3737 0.70332 0.6338 0.0
O159 O 0.37843 0.73716 0.64175 0.0
C160 C 0.36987 0.7204 0.66135 0.0
C161 C 0.41947 0.78619 0.48985 0.0
C162 C 0.36501 0.73526 0.47464 0.0
C163 C 0.42932 0.71379 0.52119 0.0
O164 O 0.4246 0.73008 0.4927 0.0
O165 O 0.41853 0.7081 0.56543 0.0
O166 O 0.41397 0.77346 0.44914 0.0
O167 O 0.41622 0.78089 0.54427 0.0
O168 O 0.58826 0.05132 0.7435 0.0
Cd169 Cd 0.58672 0.07113 0.81465 0.0
Cd170 Cd 0.55327 0.0838 0.74943 0.0
O171 O 0.55464 0.05292 0.73025 0.0
O172 O 0.60398 0.05758 0.8763 0.0
O173 O 0.56994 0.06115 0.88402 0.0
C174 C 0.58705 0.05359 0.90456 0.0
C175 C 0.52097 0.09923 0.73259 0.0
C176 C 0.57183 0.04403 0.72092 0.0
C177 C 0.59269 0.10914 0.7511 0.0
O178 O 0.57723 0.10267 0.7217 0.0
O179 O 0.59753 0.10064 0.79999 0.0
O180 O 0.53216 0.09224 0.68996 0.0
O181 O 0.52783 0.09702 0.78601 0.0
O182 O 0.0343 0.93658 0.24926 0.0
Cd183 Cd 0.03518 0.91956 0.32607 0.0
Cd184 Cd 0.06968 0.90289 0.26575 0.0
O185 O 0.06756 0.93227 0.2326 0.0
O186 O 0.0186 0.93604 0.38337 0.0
O187 O 0.05239 0.93102 0.39265 0.0
C188 C 0.03566 0.94002 0.41092 0.0
C189 C 0.10192 0.88779 0.24433 0.0
C190 C 0.05069 0.94155 0.22181 0.0
C191 C 0.02905 0.87851 0.27829 0.0
O192 O 0.04572 0.88241 0.25048 0.0
O193 O 0.02301 0.89026 0.32009 0.0
O194 O 0.08878 0.89222 0.20366 0.0
O195 O 0.09695 0.89204 0.29843 0.0
O196 O 0.59212 0.93639 0.36457 0.0
Cd197 Cd 0.59128 0.91884 0.28877 0.0
Cd198 Cd 0.5565 0.90363 0.34753 0.0
O199 O 0.55847 0.93365 0.37579 0.0
O200 O 0.60729 0.93488 0.22934 0.0
O201 O 0.57343 0.92962 0.22285 0.0
C202 C 0.58994 0.93859 0.20292 0.0
C203 C 0.52408 0.88892 0.36855 0.0
C204 C 0.57544 0.94241 0.38864 0.0
C205 C 0.59678 0.87857 0.34039 0.0
O206 O 0.5802 0.88329 0.36756 0.0
O207 O 0.60299 0.88942 0.29687 0.0
O208 O 0.53677 0.89421 0.4096 0.0
O209 O 0.5296 0.89216 0.31431 0.0
O210 O 0.03166 0.05189 0.87109 0.0
Cd211 Cd 0.03363 0.07195 0.80058 0.0
Cd212 Cd 0.06723 0.08403 0.86551 0.0
O213 O 0.06535 0.05304 0.883 0.0
O214 O 0.01717 0.05867 0.73674 0.0
O215 O 0.05129 0.06229 0.73274 0.0
C216 C 0.03447 0.0548 0.71017 0.0
C217 C 0.09981 0.09869 0.88308 0.0
C218 C 0.04812 0.04428 0.89257 0.0
C219 C 0.02824 0.11005 0.8643 0.0
O220 O 0.04364 0.10332 0.89356 0.0
O221 O 0.02318 0.10157 0.81553 0.0
O222 O 0.08848 0.09169 0.92541 0.0
O223 O 0.0929 0.09694 0.82958 0.0
H224 H 0.17366 0.6832 0.04731 0.0
H225 H 0.12596 0.6356 0.3401 0.0
H226 H 0.18159 0.71281 0.21758 0.0
H227 H 0.09491 0.63034 0.17106 0.0
H228 H 0.14951 0.66121 0.29614 0.0
H229 H 0.1474 0.66049 0.09173 0.0
C230 C 0.1698 0.68499 0.09383 0.0
C231 C 0.17977 0.69991 0.12877 0.0
C232 C 0.13739 0.65452 0.26902 0.0
C233 C 0.15022 0.67387 0.1798 0.0
C234 C 0.12401 0.63993 0.29399 0.0
C235 C 0.10846 0.63087 0.25923 0.0
C236 C 0.13546 0.65964 0.20867 0.0
C237 C 0.10661 0.63701 0.19961 0.0
C238 C 0.15482 0.6721 0.11905 0.0
C239 C 0.1742 0.70159 0.18891 0.0
N240 N 0.12012 0.65083 0.176 0.0
N241 N 0.15997 0.68856 0.21272 0.0
H242 H 0.59509 0.86193 0.45124 0.0
H243 H 0.68286 0.778 0.40157 0.0
H244 H 0.62837 0.8573 0.28542 0.0
H245 H 0.67351 0.80766 0.57123 0.0
H246 H 0.65748 0.80145 0.35746 0.0
H247 H 0.6184 0.8363 0.49446 0.0
C248 C 0.60714 0.85535 0.42362 0.0
C249 C 0.60983 0.86179 0.36454 0.0
C250 C 0.66095 0.80272 0.40435 0.0
C251 C 0.63639 0.8324 0.41394 0.0
C252 C 0.6753 0.78929 0.42975 0.0
C253 C 0.68031 0.79092 0.49026 0.0
C254 C 0.65122 0.81759 0.43991 0.0
C255 C 0.67014 0.80595 0.52442 0.0
C256 C 0.62049 0.84084 0.44856 0.0
C257 C 0.62581 0.85281 0.33113 0.0
N258 N 0.65596 0.81868 0.49879 0.0
N259 N 0.63849 0.83847 0.35628 0.0
H260 H 0.5325 0.36123 0.65578 0.0
H261 H 0.44202 0.281 0.71581 0.0
H262 H 0.4986 0.36074 0.8211 0.0
H263 H 0.45267 0.30731 0.54233 0.0
H264 H 0.46805 0.30441 0.75708 0.0
H265 H 0.50862 0.3354 0.61609 0.0
C266 C 0.5202 0.3555 0.68408 0.0
C267 C 0.51749 0.3632 0.74189 0.0
C268 C 0.46472 0.30495 0.70998 0.0
C269 C 0.49027 0.3336 0.69657 0.0
C270 C 0.44999 0.29155 0.68625 0.0
C271 C 0.44518 0.29225 0.62548 0.0
C272 C 0.47502 0.31883 0.6725 0.0
C273 C 0.45587 0.30634 0.58942 0.0
C274 C 0.50653 0.34089 0.66113 0.0
C275 C 0.50119 0.35528 0.77627 0.0
N276 N 0.47042 0.31904 0.61346 0.0
N277 N 0.48819 0.34082 0.75311 0.0
H278 H 0.94666 0.18101 0.0893 0.0
H279 H 0.00347 0.13779 0.80588 0.0
H280 H 0.9566 0.21868 0.93342 0.0
H281 H 0.02403 0.12016 0.981 0.0
H282 H 0.98206 0.165 0.85077 0.0
H283 H 0.97189 0.15594 0.0503 0.0
C284 C 0.95432 0.18417 0.04749 0.0
C285 C 0.94941 0.20193 0.01454 0.0
C286 C 0.99138 0.1552 0.87918 0.0
C287 C 0.97763 0.17321 0.96929 0.0
C288 C 0.00348 0.13967 0.85366 0.0
C289 C 0.01555 0.12681 0.88978 0.0
C290 C 0.991 0.15749 0.9412 0.0
C291 C 0.01504 0.12988 0.95155 0.0
C292 C 0.96864 0.16988 0.02528 0.0
C293 C 0.9598 0.20521 0.96045 0.0
N294 N 0.00277 0.14478 0.97546 0.0
N295 N 0.97314 0.19083 0.93909 0.0
H296 H 0.09634 0.3672 0.97888 0.0
H297 H 0.17609 0.27681 0.91326 0.0
H298 H 0.1229 0.35777 0.80506 0.0
H299 H 0.17617 0.30945 0.08053 0.0
H300 H 0.15037 0.30113 0.87542 0.0
H301 H 0.11963 0.34076 0.01876 0.0
C302 C 0.10691 0.3594 0.94896 0.0
C303 C 0.10773 0.36468 0.88851 0.0
C304 C 0.15595 0.30286 0.92048 0.0
C305 C 0.13415 0.33439 0.93388 0.0
C306 C 0.17051 0.28893 0.94237 0.0
C307 C 0.17834 0.29115 0.00021 0.0
C308 C 0.14884 0.31889 0.95697 0.0
C309 C 0.17061 0.30725 0.03565 0.0
C310 C 0.12024 0.34445 0.97189 0.0
C311 C 0.12183 0.35421 0.85191 0.0
N312 N 0.15619 0.32051 0.01349 0.0
N313 N 0.13445 0.33944 0.87515 0.0
H314 H -0.0033 0.85923 0.33548 0.0
H315 H 0.95198 0.80722 0.04516 0.0
H316 H 0.03053 0.85991 0.17005 0.0
H317 H 0.94119 0.78059 0.21817 0.0
H318 H 0.97795 0.8303 0.08943 0.0
H319 H 0.97299 0.83346 0.29286 0.0
C320 C -0.00077 0.85386 0.29051 0.0
C321 C 0.01561 0.86168 0.25633 0.0
C322 C 0.96994 0.81927 0.11743 0.0
C323 C 0.98844 0.83277 0.20721 0.0
C324 C 0.95514 0.80618 0.09228 0.0
C325 C 0.94451 0.79196 0.12801 0.0
C326 C 0.9737 0.81842 0.17881 0.0
C327 C 0.94916 0.79124 0.18892 0.0
C328 C 0.98575 0.83919 0.2663 0.0
C329 C 0.01817 0.85422 0.19816 0.0
N330 N 0.96324 0.80446 0.21257 0.0
N331 N 0.00458 0.84039 0.17518 0.0
H332 H 0.4503 0.6827 0.57877 0.0
H333 H 0.50022 0.63653 0.2867 0.0
H334 H 0.44613 0.71432 0.41037 0.0
H335 H 0.52823 0.62731 0.45867 0.0
H336 H 0.4771 0.66247 0.33085 0.0
H337 H 0.47618 0.65929 0.53544 0.0
C338 C 0.45492 0.68479 0.53293 0.0
C339 C 0.44608 0.70047 0.49817 0.0
C340 C 0.48845 0.65483 0.35864 0.0
C341 C 0.47519 0.67364 0.4483 0.0
C342 C 0.50157 0.64003 0.33356 0.0
C343 C 0.51617 0.62981 0.36903 0.0
C344 C 0.48965 0.65901 0.41975 0.0
C345 C 0.51727 0.63492 0.42959 0.0
C346 C 0.46967 0.67149 0.50832 0.0
C347 C 0.45261 0.70251 0.43892 0.0
N348 N 0.50402 0.649 0.45321 0.0
N349 N 0.46658 0.68909 0.41564 0.0
H350 H 0.66653 0.21787 0.68993 0.0
H351 H 0.59792 0.11835 0.63415 0.0
H352 H 0.67801 0.1784 0.53859 0.0
H353 H 0.61727 0.13708 0.80944 0.0
H354 H 0.62052 0.14493 0.59132 0.0
H355 H 0.64095 0.19322 0.72586 0.0
C356 C 0.66346 0.2042 0.66356 0.0
C357 C 0.67463 0.20012 0.61124 0.0
C358 C 0.6197 0.14321 0.63909 0.0
C359 C 0.64522 0.17193 0.65255 0.0
C360 C 0.60679 0.12818 0.66363 0.0
C361 C 0.60577 0.12556 0.72548 0.0
C362 C 0.63123 0.15601 0.67675 0.0
C363 C 0.61769 0.13857 0.76159 0.0
C364 C 0.64895 0.19009 0.68453 0.0
C365 C 0.66986 0.1821 0.57924 0.0
N366 N 0.62984 0.15338 0.73666 0.0
N367 N 0.65548 0.16859 0.60049 0.0
H368 H 0.00125 0.38918 0.98748 0.0
H369 H 0.92769 0.30071 0.86377 0.0
H370 H -0.00224 0.37197 0.80264 0.0
H371 H 0.93121 0.31781 0.04867 0.0
H372 H 0.94863 0.33078 0.83836 0.0
H373 H 0.97128 0.36744 0.00804 0.0
C374 C 0.99401 0.381 0.951 0.0
C375 C 0.00222 0.38209 0.89337 0.0
C376 C 0.94462 0.32815 0.88443 0.0
C377 C 0.96795 0.35702 0.9168 0.0
C378 C 0.93266 0.31097 0.89903 0.0
C379 C 0.92801 0.30658 0.95859 0.0
C380 C 0.95219 0.34096 0.92975 0.0
C381 C 0.9346 0.32054 0.00227 0.0
C382 C 0.97686 0.3686 0.96283 0.0
C383 C 0.99204 0.37141 0.84779 0.0
N384 N 0.94664 0.33696 0.98705 0.0
N385 N 0.97559 0.35906 0.86065 0.0
H386 H 0.49522 0.11958 0.8102 0.0
H387 H 0.43652 0.17888 0.54925 0.0
H388 H 0.50323 0.10542 0.62431 0.0
H389 H 0.42551 0.19012 0.73552 0.0
H390 H 0.45795 0.14905 0.57591 0.0
H391 H 0.46651 0.14256 0.78424 0.0
C392 C 0.49076 0.12108 0.76406 0.0
C393 C 0.50181 0.11081 0.71932 0.0
C394 C 0.45064 0.15792 0.61091 0.0
C395 C 0.46917 0.13718 0.68917 0.0
C396 C 0.43841 0.17493 0.59566 0.0
C397 C 0.42947 0.18716 0.64021 0.0
C398 C 0.45402 0.15322 0.67112 0.0
C399 C 0.43232 0.18128 0.69967 0.0
C400 C 0.4744 0.13423 0.7492 0.0
C401 C 0.4953 0.11324 0.66024 0.0
N402 N 0.44452 0.16488 0.71339 0.0
N403 N 0.47958 0.12636 0.64684 0.0
H404 H 0.63009 0.62071 0.29938 0.0
H405 H 0.68668 0.67838 0.56716 0.0
H406 H 0.61719 0.60871 0.48426 0.0
H407 H 0.70129 0.68839 0.38236 0.0
H408 H 0.66451 0.64934 0.53833 0.0
H409 H 0.65956 0.64212 0.32915 0.0
C410 C 0.63361 0.62236 0.34615 0.0
C411 C 0.621 0.61318 0.38938 0.0
C412 C 0.67277 0.65775 0.50416 0.0
C413 C 0.65451 0.63773 0.42386 0.0
C414 C 0.68545 0.67429 0.52067 0.0
C415 C 0.69557 0.686 0.47706 0.0
C416 C 0.67017 0.653 0.44367 0.0
C417 C 0.69353 0.67997 0.41745 0.0
C418 C 0.65041 0.6346 0.36318 0.0
C419 C 0.62633 0.61573 0.44938 0.0
N420 N 0.68089 0.66406 0.40248 0.0
N421 N 0.64253 0.62796 0.46485 0.0
H422 H 0.18785 0.81191 0.05319 0.0
H423 H 0.1312 0.87109 0.31881 0.0
H424 H 0.20195 0.80233 0.23845 0.0
H425 H 0.11691 0.88024 0.13349 0.0
H426 H 0.16094 0.84983 0.28976 0.0
H427 H 0.16564 0.84104 0.08098 0.0
C428 C 0.18652 0.81612 0.09957 0.0
C429 C 0.19648 0.80449 0.14361 0.0
C430 C 0.15142 0.8567 0.25547 0.0
C431 C 0.17102 0.8376 0.17584 0.0
C432 C 0.13447 0.86884 0.27209 0.0
C433 C 0.1214 0.87715 0.22856 0.0
C434 C 0.15521 0.85283 0.19496 0.0
C435 C 0.12641 0.87387 0.16861 0.0
C436 C 0.1738 0.83271 0.11549 0.0
C437 C 0.1943 0.81069 0.20305 0.0
N438 N 0.14277 0.8618 0.15361 0.0
N439 N 0.18162 0.82665 0.21747 0.0
H440 H 0.99411 0.62186 0.32549 0.0
H441 H 0.93752 0.67888 0.05642 0.0
H442 H 0.00714 0.60975 0.14074 0.0
H443 H 0.92355 0.69014 0.24105 0.0
H444 H 0.95948 0.64981 0.0861 0.0
H445 H 0.96462 0.64325 0.29544 0.0
C446 C 0.99061 0.62348 0.27871 0.0
C447 C 0.00327 0.6143 0.23557 0.0
C448 C 0.95141 0.6585 0.12007 0.0
C449 C 0.96975 0.6388 0.2008 0.0
C450 C 0.93885 0.67507 0.10308 0.0
C451 C 0.92897 0.68713 0.14635 0.0
C452 C 0.95415 0.65408 0.18071 0.0
C453 C 0.93113 0.68143 0.2062 0.0
C454 C 0.9738 0.6357 0.26151 0.0
C455 C -0.00204 0.6168 0.17554 0.0
N456 N 0.94367 0.66548 0.22164 0.0
N457 N 0.98176 0.62899 0.15993 0.0
H458 H 0.1184 0.10284 0.99108 0.0
H459 H 0.1967 0.18918 0.87555 0.0
H460 H 0.12528 0.11995 0.80689 0.0
H461 H 0.18581 0.17632 0.06099 0.0
H462 H 0.17515 0.1597 0.84912 0.0
H463 H 0.14745 0.12526 0.01621 0.0
C464 C 0.12619 0.11113 0.95573 0.0
C465 C 0.11922 0.10976 0.89683 0.0
C466 C 0.1776 0.16317 0.89561 0.0
C467 C 0.15244 0.13557 0.92553 0.0
C468 C 0.18991 0.18003 0.91083 0.0
C469 C 0.19279 0.1854 0.97064 0.0
C470 C 0.16797 0.15161 0.94048 0.0
C471 C 0.18385 0.17281 0.01434 0.0
C472 C 0.14278 0.12395 0.97021 0.0
C473 C 0.13003 0.12068 0.85291 0.0
N474 N 0.17162 0.15662 -0.00164 0.0
N475 N 0.14598 0.13332 0.86827 0.0
H476 H 0.69759 0.29839 0.76334 0.0
H477 H 0.62447 0.38659 0.63742 0.0
H478 H 0.69491 0.31558 0.57842 0.0
H479 H 0.62862 0.37093 0.82324 0.0
H480 H 0.65449 0.36485 0.61752 0.0
H481 H 0.67696 0.32874 0.78829 0.0
C482 C 0.69288 0.30873 0.72799 0.0
C483 C 0.69765 0.30428 0.66854 0.0
C484 C 0.64905 0.36635 0.6628 0.0
C485 C 0.67383 0.33897 0.69683 0.0
C486 C 0.63187 0.37875 0.67423 0.0
C487 C 0.62383 0.38026 0.73197 0.0
C488 C 0.65814 0.35515 0.70931 0.0
C489 C 0.63422 0.37003 0.77801 0.0
C490 C 0.68111 0.32608 0.74233 0.0
C491 C 0.69141 0.31835 0.62474 0.0
N492 N 0.65067 0.35763 0.76553 0.0
N493 N 0.67952 0.33491 0.63968 0.0
H494 H 0.43802 0.81453 0.56355 0.0
H495 H 0.49593 0.87031 0.29428 0.0
H496 H 0.4258 0.80162 0.37885 0.0
H497 H 0.50796 0.8833 0.47904 0.0
H498 H 0.4664 0.84891 0.32403 0.0
H499 H 0.4599 0.84362 0.53339 0.0
C500 C 0.43972 0.81798 0.51676 0.0
C501 C 0.43036 0.80546 0.47366 0.0
C502 C 0.47537 0.85666 0.35801 0.0
C503 C 0.45543 0.83852 0.43876 0.0
C504 C 0.49219 0.86889 0.34098 0.0
C505 C 0.50459 0.87831 0.38426 0.0
C506 C 0.47103 0.85381 0.41868 0.0
C507 C 0.499 0.87606 0.44417 0.0
C508 C 0.45223 0.83455 0.49949 0.0
C509 C 0.43297 0.81069 0.41361 0.0
N510 N 0.48278 0.86386 0.45962 0.0
N511 N 0.44545 0.82666 0.39793 0.0
H512 H 0.10858 0.53086 0.18834 0.0
H513 H 0.04092 0.46604 0.957 0.0
H514 H 0.04175 0.53199 0.17929 0.0
H515 H 0.1078 0.46437 0.95981 0.0
H516 H 0.0414 0.49086 0.03782 0.0
H517 H 0.10906 0.50624 0.10574 0.0
C518 C 0.09403 0.52579 0.16939 0.0
C519 C 0.07509 0.53352 0.19054 0.0
C520 C 0.05601 0.48517 0.02074 0.0
C521 C 0.07556 0.50568 0.09607 0.0
C522 C 0.05574 0.47102 0.9744 0.0
C523 C 0.07435 0.46305 0.95191 0.0
C524 C 0.07502 0.49137 0.04508 0.0
C525 C 0.0931 0.47015 0.97593 0.0
C526 C 0.09432 0.51186 0.12208 0.0
C527 C 0.05671 0.52651 0.16429 0.0
N528 N 0.09296 0.48386 0.02164 0.0
N529 N 0.05742 0.51305 0.11834 0.0
H530 H 0.84488 0.79138 0.19328 0.0
H531 H 0.7799 0.72311 0.42296 0.0
H532 H 0.84452 0.72455 0.1968 0.0
H533 H 0.77927 0.78995 0.42358 0.0
H534 H 0.80405 0.72375 0.34032 0.0
H535 H 0.8203 0.79157 0.27602 0.0
C536 C 0.83947 0.77677 0.21098 0.0
C537 C 0.84683 0.75792 0.18841 0.0
C538 C 0.79872 0.7383 0.35857 0.0
C539 C 0.81904 0.75805 0.28309 0.0
C540 C 0.78498 0.73795 0.40599 0.0
C541 C 0.7775 0.75651 0.43 0.0
C542 C 0.80502 0.75735 0.33477 0.0
C543 C 0.78467 0.77527 0.40634 0.0
C544 C 0.82556 0.7769 0.25839 0.0
C545 C 0.83936 0.73945 0.21304 0.0
N546 N 0.79799 0.77522 0.35967 0.0
N547 N 0.82595 0.74 0.25921 0.0
H548 H 0.51602 0.52974 0.43213 0.0
H549 H 0.58465 0.4585 0.6448 0.0
H550 H 0.58285 0.52696 0.42864 0.0
H551 H 0.51822 0.46399 0.66194 0.0
H552 H 0.58372 0.48235 0.56168 0.0
H553 H 0.51589 0.50373 0.51117 0.0
C554 C 0.53063 0.52348 0.44747 0.0
C555 C 0.54948 0.53061 0.42422 0.0
C556 C 0.56932 0.47841 0.58361 0.0
C557 C 0.54945 0.50115 0.51448 0.0
C558 C 0.56985 0.46482 0.63128 0.0
C559 C 0.55148 0.45927 0.66041 0.0
C560 C 0.55029 0.48655 0.56472 0.0
C561 C 0.53276 0.46793 0.64082 0.0
C562 C 0.53055 0.50876 0.49276 0.0
C563 C 0.56796 0.52204 0.44568 0.0
N564 N 0.53263 0.48116 0.59397 0.0
N565 N 0.56747 0.50784 0.48978 0.0
H566 H 0.87059 0.23558 0.84323 0.0
H567 H 0.7533 0.23134 0.78539 0.0
H568 H 0.83001 0.21271 0.98066 0.0
H569 H 0.79551 0.21183 0.64776 0.0
H570 H 0.78091 0.22696 0.8587 0.0
H571 H 0.84326 0.22951 0.77005 0.0
C572 C 0.85593 0.22919 0.8578 0.0
C573 C 0.85232 0.22482 0.91783 0.0
C574 C 0.78399 0.22332 0.81259 0.0
C575 C 0.82123 0.2181 0.83507 0.0
C576 C 0.76837 0.22597 0.77086 0.0
C577 C 0.77235 0.22212 0.71074 0.0
C578 C 0.80378 0.21742 0.79355 0.0
C579 C 0.79197 0.21499 0.69388 0.0
C580 C 0.84049 0.22555 0.81611 0.0
C581 C 0.83325 0.21632 0.93464 0.0
N582 N 0.8072 0.21328 0.73509 0.0
N583 N 0.81815 0.21361 0.89347 0.0
H584 H 0.27346 0.22262 0.90076 0.0
H585 H 0.34467 0.29153 0.68852 0.0
H586 H 0.27896 0.28894 0.91862 0.0
H587 H 0.34315 0.22473 0.6871 0.0
H588 H 0.31857 0.29146 0.76743 0.0
H589 H 0.29765 0.22362 0.81827 0.0
C590 C 0.27985 0.23741 0.88753 0.0
C591 C 0.2742 0.25573 0.91666 0.0
C592 C 0.32391 0.27685 0.74953 0.0
C593 C 0.30185 0.257 0.82172 0.0
C594 C 0.33868 0.27688 0.70431 0.0
C595 C 0.34617 0.2581 0.68162 0.0
C596 C 0.3166 0.25791 0.77175 0.0
C597 C 0.33794 0.23957 0.70367 0.0
C598 C 0.29364 0.23798 0.84024 0.0
C599 C 0.28297 0.27444 0.8975 0.0
N600 N 0.32367 0.23995 0.74767 0.0
N601 N 0.29637 0.27461 0.85098 0.0
H602 H 0.34683 0.76814 0.42016 0.0
H603 H 0.27989 0.69944 0.19639 0.0
H604 H 0.3462 0.70133 0.42517 0.0
H605 H 0.28063 0.76627 0.19833 0.0
H606 H 0.30485 0.69936 0.27816 0.0
H607 H 0.32236 0.76732 0.33848 0.0
C608 C 0.34142 0.75326 0.40432 0.0
C609 C 0.34862 0.73476 0.42935 0.0
C610 C 0.29958 0.71401 0.26041 0.0
C611 C 0.32068 0.7337 0.33521 0.0
C612 C 0.28546 0.71407 0.21357 0.0
C613 C 0.27811 0.73289 0.19079 0.0
C614 C 0.30636 0.7329 0.28428 0.0
C615 C 0.28577 0.75139 0.21473 0.0
C616 C 0.32748 0.7528 0.35746 0.0
C617 C 0.34102 0.71596 0.40712 0.0
N618 N 0.2994 0.75091 0.2603 0.0
N619 N 0.32749 0.7159 0.36096 0.0
H620 H 0.60915 0.96111 0.43982 0.0
H621 H 0.53948 0.02257 0.6741 0.0
H622 H 0.5423 0.95904 0.44607 0.0
H623 H 0.60624 0.02677 0.66965 0.0
H624 H 0.54075 -0.0024 0.59358 0.0
H625 H 0.60888 0.9846 0.52504 0.0
C626 C 0.59444 0.96573 0.45873 0.0
C627 C 0.57572 0.9581 0.43591 0.0
C628 C 0.55516 0.00387 0.61032 0.0
C629 C 0.57533 0.98463 0.53343 0.0
C630 C 0.55444 0.01808 0.6565 0.0
C631 C 0.57277 0.02688 0.67817 0.0
C632 C 0.57434 -0.00151 0.58535 0.0
C633 C 0.59173 0.02038 0.65405 0.0
C634 C 0.5943 0.97901 0.50754 0.0
C635 C 0.55711 0.9645 0.46223 0.0
N636 N 0.59202 0.00666 0.60842 0.0
N637 N 0.5574 0.97734 0.50966 0.0
H638 H 0.01397 0.0273 0.94618 0.0
H639 H 0.08316 0.95578 0.15641 0.0
H640 H 0.08051 0.0217 0.93427 0.0
H641 H 0.01686 0.96181 0.17637 0.0
H642 H 0.08187 0.97893 0.07177 0.0
H643 H 0.01399 0.00148 0.02571 0.0
C644 C 0.02853 0.02043 0.95971 0.0
C645 C 0.0473 0.02677 0.93411 0.0
C646 C 0.06757 0.97526 0.09462 0.0
C647 C 0.04744 -0.00243 0.02501 0.0
C648 C 0.06831 0.96209 0.14322 0.0
C649 C 0.05008 0.95688 0.17357 0.0
C650 C 0.04848 0.98334 0.07609 0.0
C651 C 0.03129 0.9655 0.15431 0.0
C652 C 0.02854 0.00583 0.00529 0.0
C653 C 0.06571 0.01743 0.95323 0.0
N654 N 0.03097 0.97833 0.10659 0.0
N655 N 0.06532 0.0034 0.99779 0.0
H656 H 0.12201 0.45745 0.66559 0.0
H657 H 0.05429 0.5382 0.4781 0.0
H658 H 0.05516 0.45794 0.66783 0.0
H659 H 0.12111 0.53593 0.4768 0.0
H660 H 0.05393 0.50936 0.54874 0.0
H661 H 0.12161 0.48592 0.59484 0.0
C662 C 0.10721 0.46339 0.65067 0.0
C663 C 0.08858 0.45529 0.67276 0.0
C664 C 0.06866 0.51527 0.5332 0.0
C665 C 0.08801 0.48825 0.59216 0.0
C666 C 0.06888 0.53184 0.49325 0.0
C667 C 0.08777 0.5395 0.47147 0.0
C668 C 0.08745 0.50632 0.55143 0.0
C669 C 0.10618 0.53054 0.49228 0.0
C670 C 0.107 0.47977 0.61043 0.0
C671 C 0.06989 0.46366 0.6518 0.0
N672 N 0.10555 0.51442 0.53083 0.0
N673 N 0.07008 0.47979 0.61291 0.0
H674 H 0.85331 0.73753 0.90369 0.0
H675 H 0.77302 0.80511 0.71413 0.0
H676 H 0.85155 0.80428 0.90312 0.0
H677 H 0.77263 0.73833 0.71532 0.0
H678 H 0.80171 0.80477 0.78422 0.0
H679 H 0.82452 0.73716 0.83281 0.0
C680 C 0.84709 0.7521 0.88805 0.0
C681 C 0.85486 0.77097 0.90944 0.0
C682 C 0.79531 0.79016 0.76952 0.0
C683 C 0.82173 0.77065 0.8292 0.0
C684 C 0.77881 0.79034 0.72967 0.0
C685 C 0.77038 0.77171 0.70876 0.0
C686 C 0.8036 0.7712 0.78861 0.0
C687 C 0.77859 0.75307 0.73046 0.0
C688 C 0.83054 0.75187 0.84797 0.0
C689 C 0.84607 0.78936 0.88797 0.0
N690 N 0.79484 0.75328 0.76896 0.0
N691 N 0.82996 0.78873 0.84933 0.0
H692 H 0.57083 0.53923 0.14297 0.0
H693 H 0.50308 0.46076 0.94785 0.0
H694 H 0.504 0.53876 0.13838 0.0
H695 H 0.56988 0.45893 0.95336 0.0
H696 H 0.50347 0.48957 0.01743 0.0
H697 H 0.5712 0.51085 0.07077 0.0
C698 C 0.55625 0.53339 0.12614 0.0
C699 C 0.53735 0.54137 0.14686 0.0
C700 C 0.51807 0.48285 0.00374 0.0
C701 C 0.53766 0.50872 0.06509 0.0
C702 C 0.51785 0.46628 0.96417 0.0
C703 C 0.53648 0.45737 0.94473 0.0
C704 C 0.53706 0.49071 0.0241 0.0
C705 C 0.55514 0.46526 0.96736 0.0
C706 C 0.55647 0.51708 0.0853 0.0
C707 C 0.51894 0.53308 0.12384 0.0
N708 N 0.55497 0.48155 0.00567 0.0
N709 N 0.51957 0.51718 0.08451 0.0
H710 H 0.85263 0.25844 0.21878 0.0
H711 H 0.7713 0.18953 0.40096 0.0
H712 H 0.85263 0.19169 0.2235 0.0
H713 H 0.77283 0.25616 0.41285 0.0
H714 H 0.80017 0.19067 0.33162 0.0
H715 H 0.8234 0.25855 0.28858 0.0
C716 C 0.84671 0.24383 0.2351 0.0
C717 C 0.85511 0.22502 0.21517 0.0
C718 C 0.79418 0.20509 0.34904 0.0
C719 C 0.82147 0.22504 0.29399 0.0
C720 C 0.77755 0.20446 0.38845 0.0
C721 C 0.76961 0.22278 0.41293 0.0
C722 C 0.80309 0.22419 0.33378 0.0
C723 C 0.77842 0.24165 0.39494 0.0
C724 C 0.82992 0.24391 0.27458 0.0
C725 C 0.84668 0.20657 0.23746 0.0
N726 N 0.79477 0.24187 0.35666 0.0
N727 N 0.83032 0.20706 0.27527 0.0
H728 H 0.35496 0.30475 0.39362 0.0
H729 H 0.27319 0.23663 0.21097 0.0
H730 H 0.3536 0.23804 0.4005 0.0
H731 H 0.277 0.30323 0.20281 0.0
H732 H 0.30224 0.23648 0.28102 0.0
H733 H 0.32683 0.30411 0.32168 0.0
C734 C 0.34891 0.28993 0.37945 0.0
C735 C 0.35665 0.27142 0.40325 0.0
C736 C 0.29664 0.25111 0.26404 0.0
C737 C 0.32406 0.27057 0.32131 0.0
C738 C 0.27995 0.25122 0.22441 0.0
C739 C 0.27262 0.26998 0.20101 0.0
C740 C 0.30603 0.26989 0.28034 0.0
C741 C 0.2821 0.2884 0.21964 0.0
C742 C 0.33274 0.28957 0.33852 0.0
C743 C 0.34816 0.25268 0.38316 0.0
N744 N 0.29831 0.28787 0.25798 0.0
N745 N 0.3322 0.25273 0.34365 0.0
H746 H 0.35315 0.75427 0.7176 0.0
H747 H 0.27238 0.686 0.90362 0.0
H748 H 0.35078 0.68754 0.71409 0.0
H749 H 0.27274 0.75276 0.90725 0.0
H750 H 0.30086 0.68663 0.83275 0.0
H751 H 0.32429 0.75438 0.78836 0.0
C752 C 0.34676 0.73964 0.73228 0.0
C753 C 0.35441 0.72086 0.70985 0.0
C754 C 0.29467 0.70117 0.84867 0.0
C755 C 0.3212 0.7209 0.78995 0.0
C756 C 0.27829 0.70083 0.88898 0.0
C757 C 0.27015 0.71936 0.91149 0.0
C758 C 0.30312 0.7202 0.83075 0.0
C759 C 0.27849 0.7381 0.89088 0.0
C760 C 0.33018 0.73973 0.7723 0.0
C761 C 0.34541 0.7024 0.73008 0.0
N762 N 0.29462 0.73804 0.85192 0.0
N763 N 0.32928 0.7029 0.76872 0.0
H764 H 0.55541 0.95455 0.1482 0.0
H765 H 0.62066 0.03776 0.96223 0.0
H766 H 0.6221 0.95914 0.15077 0.0
H767 H 0.55387 0.035 0.95934 0.0
H768 H 0.62111 0.0095 0.03371 0.0
H769 H 0.5542 0.98368 0.07863 0.0
C770 C 0.5698 0.96149 0.13359 0.0
C771 C 0.58889 0.95436 0.15533 0.0
C772 C 0.60632 0.01513 0.01786 0.0
C773 C 0.58759 0.98788 0.07657 0.0
C774 C 0.60605 0.03138 0.97722 0.0
C775 C 0.58719 0.03876 0.95463 0.0
C776 C 0.58761 0.00601 0.036 0.0
C777 C 0.56876 0.02985 0.97572 0.0
C778 C 0.56909 0.97823 0.09425 0.0
C779 C 0.60703 0.96408 0.13524 0.0
N780 N 0.56943 0.01383 0.01491 0.0
N781 N 0.60592 0.98034 0.09723 0.0
H782 H 0.00168 0.03907 0.64854 0.0
H783 H 0.06951 0.95631 0.46837 0.0
H784 H 0.06839 0.03648 0.65843 0.0
H785 H 0.00287 0.9606 0.45953 0.0
H786 H 0.06978 0.98549 0.53791 0.0
H787 H 0.00224 0.01099 0.57642 0.0
C788 C 0.01649 0.03278 0.63496 0.0
C789 C 0.03501 0.04014 0.65971 0.0
C790 C 0.05511 0.97997 0.52089 0.0
C791 C 0.03576 0.0076 0.57762 0.0
C792 C 0.05493 0.96321 0.48155 0.0
C793 C 0.03613 0.95596 0.45812 0.0
C794 C 0.03636 0.98953 0.53686 0.0
C795 C 0.01773 0.96562 0.47641 0.0
C796 C 0.0168 0.01663 0.59395 0.0
C797 C 0.05374 0.03134 0.64036 0.0
N798 N 0.01832 0.9819 0.51446 0.0
N799 N 0.05363 0.01542 0.60078 0.0
loop_
_geom_bond_atom_site_label_1
_geom_bond_atom_site_label_2
_geom_bond_distance
_geom_bond_site_symmetry_2
_ccdc_geom_bond_type
O0 Cd1 2.223 . S
O0 C8 1.315 . S
Cd1 O0 2.223 . S
Cd1 O4 2.297 . S
Cd1 O5 2.439 . S
Cd1 O11 2.240 . S
Cd2 O3 2.240 . S
Cd2 O10 2.223 . S
Cd2 O12 2.297 . S
Cd2 O13 2.439 . S
O3 Cd2 2.240 . S
O3 C8 1.279 . S
O4 Cd1 2.297 . S
O4 C6 1.247 . S
O5 Cd1 2.439 . S
O5 C6 1.208 . S
C6 O4 1.247 . S
C6 O5 1.208 . S
C7 O12 1.247 . S
C7 O13 1.208 . S
C8 O0 1.315 . S
C8 O3 1.279 . S
C9 O10 1.315 . S
C9 O11 1.279 . S
O10 Cd2 2.223 . S
O10 C9 1.315 . S
O11 Cd1 2.240 . S
O11 C9 1.279 . S
O12 Cd2 2.297 . S
O12 C7 1.247 . S
O13 Cd2 2.439 . S
O13 C7 1.208 . S
O14 Cd15 2.223 . S
O14 C22 1.315 . S
Cd15 O14 2.223 . S
Cd15 O18 2.297 . S
Cd15 O19 2.439 . S
Cd15 O25 2.240 . S
Cd16 O17 2.240 . S
Cd16 O24 2.223 . S
Cd16 O26 2.297 . S
Cd16 O27 2.439 . S
O17 Cd16 2.240 . S
O17 C22 1.279 . S
O18 Cd15 2.297 . S
O18 C20 1.247 . S
O19 Cd15 2.439 . S
O19 C20 1.208 . S
C20 O18 1.247 . S
C20 O19 1.208 . S
C21 O26 1.247 . S
C21 O27 1.208 . S
C22 O14 1.315 . S
C22 O17 1.279 . S
C23 O24 1.315 . S
C23 O25 1.279 . S
O24 Cd16 2.223 . S
O24 C23 1.315 . S
O25 Cd15 2.240 . S
O25 C23 1.279 . S
O26 Cd16 2.297 . S
O26 C21 1.247 . S
O27 Cd16 2.439 . S
O27 C21 1.208 . S
O28 Cd29 2.223 . S
O28 C36 1.315 . S
Cd29 O28 2.223 . S
Cd29 O32 2.297 . S
Cd29 O33 2.439 . S
Cd29 O39 2.240 . S
Cd30 O31 2.240 . S
Cd30 O38 2.223 . S
Cd30 O40 2.297 . S
Cd30 O41 2.439 . S
O31 Cd30 2.240 . S
O31 C36 1.279 . S
O32 Cd29 2.297 . S
O32 C34 1.247 . S
O33 Cd29 2.439 . S
O33 C34 1.208 . S
C34 O32 1.247 . S
C34 O33 1.208 . S
C35 O40 1.247 . S
C35 O41 1.208 . S
C36 O28 1.315 . S
C36 O31 1.279 . S
C37 O38 1.315 . S
C37 O39 1.279 . S
O38 Cd30 2.223 . S
O38 C37 1.315 . S
O39 Cd29 2.240 . S
O39 C37 1.279 . S
O40 Cd30 2.297 . S
O40 C35 1.247 . S
O41 Cd30 2.439 . S
O41 C35 1.208 . S
O42 Cd43 2.223 1_556 S
O42 C50 1.315 . S
Cd43 O42 2.223 1_554 S
Cd43 O46 2.297 . S
Cd43 O47 2.439 . S
Cd43 O53 2.240 . S
Cd44 O45 2.240 . S
Cd44 O52 2.223 . S
Cd44 O54 2.297 . S
Cd44 O55 2.439 1_556 S
O45 Cd44 2.240 . S
O45 C50 1.279 . S
O46 Cd43 2.297 . S
O46 C48 1.247 . S
O47 Cd43 2.439 . S
O47 C48 1.208 . S
C48 O46 1.247 . S
C48 O47 1.208 . S
C49 O54 1.247 1_554 S
C49 O55 1.208 . S
C50 O42 1.315 . S
C50 O45 1.279 . S
C51 O52 1.315 . S
C51 O53 1.279 1_556 S
O52 Cd44 2.223 . S
O52 C51 1.315 . S
O53 Cd43 2.240 . S
O53 C51 1.279 1_554 S
O54 Cd44 2.297 . S
O54 C49 1.247 1_556 S
O55 Cd44 2.439 1_554 S
O55 C49 1.208 . S
O56 Cd57 2.223 . S
O56 C64 1.315 . S
Cd57 O56 2.223 . S
Cd57 O60 2.297 . S
Cd57 O61 2.439 . S
Cd57 O67 2.240 . S
Cd58 O59 2.240 . S
Cd58 O66 2.223 . S
Cd58 O68 2.297 . S
Cd58 O69 2.439 . S
O59 Cd58 2.240 . S
O59 C64 1.279 . S
O60 Cd57 2.297 . S
O60 C62 1.247 . S
O61 Cd57 2.439 . S
O61 C62 1.208 . S
C62 O60 1.247 . S
C62 O61 1.208 . S
C63 O68 1.247 . S
C63 O69 1.208 . S
C64 O56 1.315 . S
C64 O59 1.279 . S
C65 O66 1.315 . S
C65 O67 1.279 . S
O66 Cd58 2.223 . S
O66 C65 1.315 . S
O67 Cd57 2.240 . S
O67 C65 1.279 . S
O68 Cd58 2.297 . S
O68 C63 1.247 . S
O69 Cd58 2.439 . S
O69 C63 1.208 . S
O70 Cd71 2.223 . S
O70 C78 1.315 . S
Cd71 O70 2.223 . S
Cd71 O74 2.297 1_554 S
Cd71 O75 2.439 . S
Cd71 O81 2.240 . S
Cd72 O73 2.240 . S
Cd72 O80 2.223 . S
Cd72 O82 2.297 . S
Cd72 O83 2.439 . S
O73 Cd72 2.240 . S
O73 C78 1.279 . S
O74 Cd71 2.297 1_556 S
O74 C76 1.247 . S
O75 Cd71 2.439 . S
O75 C76 1.208 1_554 S
C76 O74 1.247 . S
C76 O75 1.208 1_556 S
C77 O82 1.247 . S
C77 O83 1.208 . S
C78 O70 1.315 . S
C78 O73 1.279 . S
C79 O80 1.315 . S
C79 O81 1.279 . S
O80 Cd72 2.223 . S
O80 C79 1.315 . S
O81 Cd71 2.240 . S
O81 C79 1.279 . S
O82 Cd72 2.297 . S
O82 C77 1.247 . S
O83 Cd72 2.439 . S
O83 C77 1.208 . S
O84 Cd85 2.223 . S
O84 C92 1.315 . S
Cd85 O84 2.223 . S
Cd85 O88 2.297 . S
Cd85 O89 2.439 . S
Cd85 O95 2.240 . S
Cd86 O87 2.240 . S
Cd86 O94 2.223 . S
Cd86 O96 2.297 . S
Cd86 O97 2.439 . S
O87 Cd86 2.240 . S
O87 C92 1.279 . S
O88 Cd85 2.297 . S
O88 C90 1.247 . S
O89 Cd85 2.439 . S
O89 C90 1.208 . S
C90 O88 1.247 . S
C90 O89 1.208 . S
C91 O96 1.247 . S
C91 O97 1.208 . S
C92 O84 1.315 . S
C92 O87 1.279 . S
C93 O94 1.315 . S
C93 O95 1.279 . S
O94 Cd86 2.223 . S
O94 C93 1.315 . S
O95 Cd85 2.240 . S
O95 C93 1.279 . S
O96 Cd86 2.297 . S
O96 C91 1.247 . S
O97 Cd86 2.439 . S
O97 C91 1.208 . S
O98 Cd99 2.223 . S
O98 C106 1.315 . S
Cd99 O98 2.223 . S
Cd99 O102 2.297 . S
Cd99 O103 2.439 . S
Cd99 O109 2.240 . S
Cd100 O101 2.240 . S
Cd100 O108 2.223 . S
Cd100 O110 2.297 . S
Cd100 O111 2.439 . S
O101 Cd100 2.240 . S
O101 C106 1.279 . S
O102 Cd99 2.297 . S
O102 C104 1.247 . S
O103 Cd99 2.439 . S
O103 C104 1.208 . S
C104 O102 1.247 . S
C104 O103 1.208 . S
C105 O110 1.247 . S
C105 O111 1.208 . S
C106 O98 1.315 . S
C106 O101 1.279 . S
C107 O108 1.315 . S
C107 O109 1.279 . S
O108 Cd100 2.223 . S
O108 C107 1.315 . S
O109 Cd99 2.240 . S
O109 C107 1.279 . S
O110 Cd100 2.297 . S
O110 C105 1.247 . S
O111 Cd100 2.439 . S
O111 C105 1.208 . S
O112 Cd113 2.223 . S
O112 C120 1.315 . S
Cd113 O112 2.223 . S
Cd113 O116 2.297 . S
Cd113 O117 2.439 . S
Cd113 O123 2.240 . S
Cd114 O115 2.240 . S
Cd114 O122 2.223 . S
Cd114 O124 2.297 . S
Cd114 O125 2.439 . S
O115 Cd114 2.240 . S
O115 C120 1.279 . S
O116 Cd113 2.297 . S
O116 C118 1.247 . S
O117 Cd113 2.439 . S
O117 C118 1.208 . S
C118 O116 1.247 . S
C118 O117 1.208 . S
C119 O124 1.247 . S
C119 O125 1.208 . S
C120 O112 1.315 . S
C120 O115 1.279 . S
C121 O122 1.315 . S
C121 O123 1.279 . S
O122 Cd114 2.223 . S
O122 C121 1.315 . S
O123 Cd113 2.240 . S
O123 C121 1.279 . S
O124 Cd114 2.297 . S
O124 C119 1.247 . S
O125 Cd114 2.439 . S
O125 C119 1.208 . S
O126 Cd127 2.223 . S
O126 C134 1.315 . S
Cd127 O126 2.223 . S
Cd127 O130 2.297 1_554 S
Cd127 O131 2.439 . S
Cd127 O137 2.240 . S
Cd128 O129 2.240 . S
Cd128 O136 2.223 . S
Cd128 O138 2.297 . S
Cd128 O139 2.439 . S
O129 Cd128 2.240 . S
O129 C134 1.279 . S
O130 Cd127 2.297 1_556 S
O130 C132 1.247 . S
O131 Cd127 2.439 . S
O131 C132 1.208 1_554 S
C132 O130 1.247 . S
C132 O131 1.208 1_556 S
C133 O138 1.247 . S
C133 O139 1.208 . S
C134 O126 1.315 . S
C134 O129 1.279 . S
C135 O136 1.315 . S
C135 O137 1.279 . S
O136 Cd128 2.223 . S
O136 C135 1.315 . S
O137 Cd127 2.240 . S
O137 C135 1.279 . S
O138 Cd128 2.297 . S
O138 C133 1.247 . S
O139 Cd128 2.439 . S
O139 C133 1.208 . S
O140 Cd141 2.223 1_556 S
O140 C148 1.315 . S
Cd141 O140 2.223 1_554 S
Cd141 O144 2.297 . S
Cd141 O145 2.439 . S
Cd141 O151 2.240 . S
Cd142 O143 2.240 . S
Cd142 O150 2.223 . S
Cd142 O152 2.297 . S
Cd142 O153 2.439 1_556 S
O143 Cd142 2.240 . S
O143 C148 1.279 . S
O144 Cd141 2.297 . S
O144 C146 1.247 . S
O145 Cd141 2.439 . S
O145 C146 1.208 . S
C146 O144 1.247 . S
C146 O145 1.208 . S
C147 O152 1.247 1_554 S
C147 O153 1.208 . S
C148 O140 1.315 . S
C148 O143 1.279 . S
C149 O150 1.315 . S
C149 O151 1.279 1_556 S
O150 Cd142 2.223 . S
O150 C149 1.315 . S
O151 Cd141 2.240 . S
O151 C149 1.279 1_554 S
O152 Cd142 2.297 . S
O152 C147 1.247 1_556 S
O153 Cd142 2.439 1_554 S
O153 C147 1.208 . S
O154 Cd155 2.223 . S
O154 C162 1.315 . S
Cd155 O154 2.223 . S
Cd155 O158 2.297 . S
Cd155 O159 2.439 . S
Cd155 O165 2.240 . S
Cd156 O157 2.240 . S
Cd156 O164 2.223 . S
Cd156 O166 2.297 . S
Cd156 O167 2.439 . S
O157 Cd156 2.240 . S
O157 C162 1.279 . S
O158 Cd155 2.297 . S
O158 C160 1.247 . S
O159 Cd155 2.439 . S
O159 C160 1.208 . S
C160 O158 1.247 . S
C160 O159 1.208 . S
C161 O166 1.247 . S
C161 O167 1.208 . S
C162 O154 1.315 . S
C162 O157 1.279 . S
C163 O164 1.315 . S
C163 O165 1.279 . S
O164 Cd156 2.223 . S
O164 C163 1.315 . S
O165 Cd155 2.240 . S
O165 C163 1.279 . S
O166 Cd156 2.297 . S
O166 C161 1.247 . S
O167 Cd156 2.439 . S
O167 C161 1.208 . S
O168 Cd169 2.223 . S
O168 C176 1.315 . S
Cd169 O168 2.223 . S
Cd169 O172 2.297 . S
Cd169 O173 2.439 . S
Cd169 O179 2.240 . S
Cd170 O171 2.240 . S
Cd170 O178 2.223 . S
Cd170 O180 2.297 . S
Cd170 O181 2.439 . S
O171 Cd170 2.240 . S
O171 C176 1.279 . S
O172 Cd169 2.297 . S
O172 C174 1.247 . S
O173 Cd169 2.439 . S
O173 C174 1.208 . S
C174 O172 1.247 . S
C174 O173 1.208 . S
C175 O180 1.247 . S
C175 O181 1.208 . S
C176 O168 1.315 . S
C176 O171 1.279 . S
C177 O178 1.315 . S
C177 O179 1.279 . S
O178 Cd170 2.223 . S
O178 C177 1.315 . S
O179 Cd169 2.240 . S
O179 C177 1.279 . S
O180 Cd170 2.297 . S
O180 C175 1.247 . S
O181 Cd170 2.439 . S
O181 C175 1.208 . S
O182 Cd183 2.223 . S
O182 C190 1.315 . S
Cd183 O182 2.223 . S
Cd183 O186 2.297 . S
Cd183 O187 2.439 . S
Cd183 O193 2.240 . S
Cd184 O185 2.240 . S
Cd184 O192 2.223 . S
Cd184 O194 2.297 . S
Cd184 O195 2.439 . S
O185 Cd184 2.240 . S
O185 C190 1.279 . S
O186 Cd183 2.297 . S
O186 C188 1.247 . S
O187 Cd183 2.439 . S
O187 C188 1.208 . S
C188 O186 1.247 . S
C188 O187 1.208 . S
C189 O194 1.247 . S
C189 O195 1.208 . S
C190 O182 1.315 . S
C190 O185 1.279 . S
C191 O192 1.315 . S
C191 O193 1.279 . S
O192 Cd184 2.223 . S
O192 C191 1.315 . S
O193 Cd183 2.240 . S
O193 C191 1.279 . S
O194 Cd184 2.297 . S
O194 C189 1.247 . S
O195 Cd184 2.439 . S
O195 C189 1.208 . S
O196 Cd197 2.223 . S
O196 C204 1.315 . S
Cd197 O196 2.223 . S
Cd197 O200 2.297 . S
Cd197 O201 2.439 . S
Cd197 O207 2.240 . S
Cd198 O199 2.240 . S
Cd198 O206 2.223 . S
Cd198 O208 2.297 . S
Cd198 O209 2.439 . S
O199 Cd198 2.240 . S
O199 C204 1.279 . S
O200 Cd197 2.297 . S
O200 C202 1.247 . S
O201 Cd197 2.439 . S
O201 C202 1.208 . S
C202 O200 1.247 . S
C202 O201 1.208 . S
C203 O208 1.247 . S
C203 O209 1.208 . S
C204 O196 1.315 . S
C204 O199 1.279 . S
C205 O206 1.315 . S
C205 O207 1.279 . S
O206 Cd198 2.223 . S
O206 C205 1.315 . S
O207 Cd197 2.240 . S
O207 C205 1.279 . S
O208 Cd198 2.297 . S
O208 C203 1.247 . S
O209 Cd198 2.439 . S
O209 C203 1.208 . S
O210 Cd211 2.223 . S
O210 C218 1.315 . S
Cd211 O210 2.223 . S
Cd211 O214 2.297 . S
Cd211 O215 2.439 . S
Cd211 O221 2.240 . S
Cd212 O213 2.240 . S
Cd212 O220 2.223 . S
Cd212 O222 2.297 . S
Cd212 O223 2.439 . S
O213 Cd212 2.240 . S
O213 C218 1.279 . S
O214 Cd211 2.297 . S
O214 C216 1.247 . S
O215 Cd211 2.439 . S
O215 C216 1.208 . S
C216 O214 1.247 . S
C216 O215 1.208 . S
C217 O222 1.247 . S
C217 O223 1.208 . S
C218 O210 1.315 . S
C218 O213 1.279 . S
C219 O220 1.315 . S
C219 O221 1.279 . S
O220 Cd212 2.223 . S
O220 C219 1.315 . S
O221 Cd211 2.240 . S
O221 C219 1.279 . S
O222 Cd212 2.297 . S
O222 C217 1.247 . S
O223 Cd212 2.439 . S
O223 C217 1.208 . S
H224 C230 0.930 . S
H225 C234 0.930 . S
H226 C239 0.929 . S
H227 C237 0.929 . S
H228 C232 0.929 . S
H229 C238 0.929 . S
C230 H224 0.930 . S
C230 C231 1.367 . S
C230 C238 1.378 . S
C231 C230 1.367 . S
C231 C239 1.433 . S
C232 H228 0.929 . S
C232 C234 1.378 . S
C232 C236 1.350 . S
C233 C236 1.463 . S
C233 C238 1.350 . S
C233 N241 1.427 . S
C234 H225 0.930 . S
C234 C232 1.378 . S
C234 C235 1.367 . S
C235 C234 1.367 . S
C235 C237 1.433 . S
C236 C232 1.350 . S
C236 C233 1.463 . S
C236 N240 1.427 . S
C237 H227 0.929 . S
C237 C235 1.433 . S
C237 N240 1.384 . S
C238 H229 0.929 . S
C238 C230 1.378 . S
C238 C233 1.350 . S
C239 H226 0.929 . S
C239 C231 1.433 . S
C239 N241 1.384 . S
N240 C236 1.427 . S
N240 C237 1.384 . S
N241 C233 1.427 . S
N241 C239 1.384 . S
H242 C248 0.930 . S
H243 C252 0.930 . S
H244 C257 0.929 . S
H245 C255 0.929 . S
H246 C250 0.929 . S
H247 C256 0.929 . S
C248 H242 0.930 . S
C248 C249 1.367 . S
C248 C256 1.378 . S
C249 C248 1.367 . S
C249 C257 1.433 . S
C250 H246 0.929 . S
C250 C252 1.378 . S
C250 C254 1.350 . S
C251 C254 1.463 . S
C251 C256 1.350 . S
C251 N259 1.427 . S
C252 H243 0.930 . S
C252 C250 1.378 . S
C252 C253 1.367 . S
C253 C252 1.367 . S
C253 C255 1.433 . S
C254 C250 1.350 . S
C254 C251 1.463 . S
C254 N258 1.427 . S
C255 H245 0.929 . S
C255 C253 1.433 . S
C255 N258 1.384 . S
C256 H247 0.929 . S
C256 C248 1.378 . S
C256 C251 1.350 . S
C257 H244 0.929 . S
C257 C249 1.433 . S
C257 N259 1.384 . S
N258 C254 1.427 . S
N258 C255 1.384 . S
N259 C251 1.427 . S
N259 C257 1.384 . S
H260 C266 0.930 . S
H261 C270 0.930 . S
H262 C275 0.929 . S
H263 C273 0.929 . S
H264 C268 0.929 . S
H265 C274 0.929 . S
C266 H260 0.930 . S
C266 C267 1.367 . S
C266 C274 1.378 . S
C267 C266 1.367 . S
C267 C275 1.433 . S
C268 H264 0.929 . S
C268 C270 1.378 . S
C268 C272 1.350 . S
C269 C272 1.463 . S
C269 C274 1.350 . S
C269 N277 1.427 . S
C270 H261 0.930 . S
C270 C268 1.378 . S
C270 C271 1.367 . S
C271 C270 1.367 . S
C271 C273 1.433 . S
C272 C268 1.350 . S
C272 C269 1.463 . S
C272 N276 1.427 . S
C273 H263 0.929 . S
C273 C271 1.433 . S
C273 N276 1.384 . S
C274 H265 0.929 . S
C274 C266 1.378 . S
C274 C269 1.350 . S
C275 H262 0.929 . S
C275 C267 1.433 . S
C275 N277 1.384 . S
N276 C272 1.427 . S
N276 C273 1.384 . S
N277 C269 1.427 . S
N277 C275 1.384 . S
H278 C284 0.930 1_554 S
H279 C288 0.930 . S
H280 C293 0.929 . S
H281 C291 0.929 . S
H282 C286 0.929 . S
H283 C292 0.929 1_554 S
C284 H278 0.930 1_556 S
C284 C285 1.367 . S
C284 C292 1.378 . S
C285 C284 1.367 . S
C285 C293 1.433 . S
C286 H282 0.929 . S
C286 C288 1.378 1_655 S
C286 C290 1.350 . S
C287 C290 1.463 . S
C287 C292 1.350 . S
C287 N295 1.427 . S
C288 H279 0.930 . S
C288 C286 1.378 1_455 S
C288 C289 1.367 . S
C289 C288 1.367 . S
C289 C291 1.433 1_455 S
C290 C286 1.350 . S
C290 C287 1.463 . S
C290 N294 1.427 . S
C291 H281 0.929 . S
C291 C289 1.433 1_655 S
C291 N294 1.384 . S
C292 H283 0.929 1_556 S
C292 C284 1.378 . S
C292 C287 1.350 . S
C293 H280 0.929 . S
C293 C285 1.433 . S
C293 N295 1.384 . S
N294 C290 1.427 . S
N294 C291 1.384 . S
N295 C287 1.427 . S
N295 C293 1.384 . S
H296 C302 0.930 1_554 S
H297 C306 0.930 . S
H298 C311 0.929 . S
H299 C309 0.929 . S
H300 C304 0.929 . S
H301 C310 0.929 1_554 S
C302 H296 0.930 1_556 S
C302 C303 1.367 . S
C302 C310 1.378 . S
C303 C302 1.367 . S
C303 C311 1.433 . S
C304 H300 0.929 . S
C304 C306 1.378 . S
C304 C308 1.350 . S
C305 C308 1.463 . S
C305 C310 1.350 . S
C305 N313 1.427 . S
C306 H297 0.930 . S
C306 C304 1.378 . S
C306 C307 1.367 . S
C307 C306 1.367 . S
C307 C309 1.433 1_556 S
C308 C304 1.350 . S
C308 C305 1.463 . S
C308 N312 1.427 . S
C309 H299 0.929 . S
C309 C307 1.433 1_554 S
C309 N312 1.384 1_554 S
C310 H301 0.929 1_556 S
C310 C302 1.378 . S
C310 C305 1.350 . S
C311 H298 0.929 . S
C311 C303 1.433 . S
C311 N313 1.384 . S
N312 C308 1.427 . S
N312 C309 1.384 1_556 S
N313 C305 1.427 . S
N313 C311 1.384 . S
H314 C320 0.930 . S
H315 C324 0.930 . S
H316 C329 0.929 . S
H317 C327 0.929 . S
H318 C322 0.929 . S
H319 C328 0.929 . S
C320 H314 0.930 . S
C320 C321 1.367 1_655 S
C320 C328 1.378 . S
C321 C320 1.367 1_455 S
C321 C329 1.433 . S
C322 H318 0.929 . S
C322 C324 1.378 . S
C322 C326 1.350 . S
C323 C326 1.463 . S
C323 C328 1.350 . S
C323 N331 1.427 . S
C324 H315 0.930 . S
C324 C322 1.378 . S
C324 C325 1.367 . S
C325 C324 1.367 . S
C325 C327 1.433 . S
C326 C322 1.350 . S
C326 C323 1.463 . S
C326 N330 1.427 . S
C327 H317 0.929 . S
C327 C325 1.433 . S
C327 N330 1.384 . S
C328 H319 0.929 . S
C328 C320 1.378 . S
C328 C323 1.350 . S
C329 H316 0.929 . S
C329 C321 1.433 . S
C329 N331 1.384 1_455 S
N330 C326 1.427 . S
N330 C327 1.384 . S
N331 C323 1.427 . S
N331 C329 1.384 1_655 S
H332 C338 0.930 . S
H333 C342 0.930 . S
H334 C347 0.929 . S
H335 C345 0.929 . S
H336 C340 0.929 . S
H337 C346 0.929 . S
C338 H332 0.930 . S
C338 C339 1.367 . S
C338 C346 1.378 . S
C339 C338 1.367 . S
C339 C347 1.433 . S
C340 H336 0.929 . S
C340 C342 1.378 . S
C340 C344 1.350 . S
C341 C344 1.463 . S
C341 C346 1.350 . S
C341 N349 1.427 . S
C342 H333 0.930 . S
C342 C340 1.378 . S
C342 C343 1.367 . S
C343 C342 1.367 . S
C343 C345 1.433 . S
C344 C340 1.350 . S
C344 C341 1.463 . S
C344 N348 1.427 . S
C345 H335 0.929 . S
C345 C343 1.433 . S
C345 N348 1.384 . S
C346 H337 0.929 . S
C346 C338 1.378 . S
C346 C341 1.350 . S
C347 H334 0.929 . S
C347 C339 1.433 . S
C347 N349 1.384 . S
N348 C344 1.427 . S
N348 C345 1.384 . S
N349 C341 1.427 . S
N349 C347 1.384 . S
H350 C356 0.930 . S
H351 C360 0.930 . S
H352 C365 0.929 . S
H353 C363 0.929 . S
H354 C358 0.929 . S
H355 C364 0.929 . S
C356 H350 0.930 . S
C356 C357 1.367 . S
C356 C364 1.378 . S
C357 C356 1.367 . S
C357 C365 1.433 . S
C358 H354 0.929 . S
C358 C360 1.378 . S
C358 C362 1.350 . S
C359 C362 1.463 . S
C359 C364 1.350 . S
C359 N367 1.427 . S
C360 H351 0.930 . S
C360 C358 1.378 . S
C360 C361 1.367 . S
C361 C360 1.367 . S
C361 C363 1.433 . S
C362 C358 1.350 . S
C362 C359 1.463 . S
C362 N366 1.427 . S
C363 H353 0.929 . S
C363 C361 1.433 . S
C363 N366 1.384 . S
C364 H355 0.929 . S
C364 C356 1.378 . S
C364 C359 1.350 . S
C365 H352 0.929 . S
C365 C357 1.433 . S
C365 N367 1.384 . S
N366 C362 1.427 . S
N366 C363 1.384 . S
N367 C359 1.427 . S
N367 C365 1.384 . S
H368 C374 0.930 . S
H369 C378 0.930 . S
H370 C383 0.929 . S
H371 C381 0.929 . S
H372 C376 0.929 . S
H373 C382 0.929 . S
C374 H368 0.930 . S
C374 C375 1.367 . S
C374 C382 1.378 . S
C375 C374 1.367 . S
C375 C383 1.433 . S
C376 H372 0.929 . S
C376 C378 1.378 . S
C376 C380 1.350 . S
C377 C380 1.477 . S
C377 C382 1.333 1_655 S
C377 N385 1.432 . S
C378 H369 0.930 . S
C378 C376 1.378 . S
C378 C379 1.367 . S
C379 C378 1.367 . S
C379 C381 1.433 1_556 S
C380 C376 1.350 . S
C380 C377 1.477 . S
C380 N384 1.427 1_556 S
C381 H371 0.929 . S
C381 C379 1.433 1_554 S
C381 N384 1.384 . S
C382 H373 0.929 . S
C382 C374 1.378 . S
C382 C377 1.333 1_455 S
C383 H370 0.929 . S
C383 C375 1.433 . S
C383 N385 1.384 1_455 S
N384 C380 1.427 1_554 S
N384 C381 1.384 . S
N385 C377 1.432 . S
N385 C383 1.384 1_655 S
H386 C392 0.930 . S
H387 C396 0.930 . S
H388 C401 0.929 . S
H389 C399 0.929 . S
H390 C394 0.929 . S
H391 C400 0.929 . S
C392 H386 0.930 . S
C392 C393 1.367 . S
C392 C400 1.378 . S
C393 C392 1.367 . S
C393 C401 1.433 . S
C394 H390 0.929 . S
C394 C396 1.378 . S
C394 C398 1.350 . S
C395 C398 1.463 . S
C395 C400 1.350 . S
C395 N403 1.427 . S
C396 H387 0.930 . S
C396 C394 1.378 . S
C396 C397 1.367 . S
C397 C396 1.367 . S
C397 C399 1.433 . S
C398 C394 1.350 . S
C398 C395 1.463 . S
C398 N402 1.427 . S
C399 H389 0.929 . S
C399 C397 1.433 . S
C399 N402 1.384 . S
C400 H391 0.929 . S
C400 C392 1.378 . S
C400 C395 1.350 . S
C401 H388 0.929 . S
C401 C393 1.433 . S
C401 N403 1.384 . S
N402 C398 1.427 . S
N402 C399 1.384 . S
N403 C395 1.427 . S
N403 C401 1.384 . S
H404 C410 0.930 . S
H405 C414 0.930 . S
H406 C419 0.929 . S
H407 C417 0.929 . S
H408 C412 0.929 . S
H409 C418 0.929 . S
C410 H404 0.930 . S
C410 C411 1.367 . S
C410 C418 1.378 . S
C411 C410 1.367 . S
C411 C419 1.433 . S
C412 H408 0.929 . S
C412 C414 1.378 . S
C412 C416 1.350 . S
C413 C416 1.463 . S
C413 C418 1.350 . S
C413 N421 1.427 . S
C414 H405 0.930 . S
C414 C412 1.378 . S
C414 C415 1.367 . S
C415 C414 1.367 . S
C415 C417 1.433 . S
C416 C412 1.350 . S
C416 C413 1.463 . S
C416 N420 1.427 . S
C417 H407 0.929 . S
C417 C415 1.433 . S
C417 N420 1.384 . S
C418 H409 0.929 . S
C418 C410 1.378 . S
C418 C413 1.350 . S
C419 H406 0.929 . S
C419 C411 1.433 . S
C419 N421 1.384 . S
N420 C416 1.427 . S
N420 C417 1.384 . S
N421 C413 1.427 . S
N421 C419 1.384 . S
H422 C428 0.930 . S
H423 C432 0.930 . S
H424 C437 0.929 . S
H425 C435 0.929 . S
H426 C430 0.929 . S
H427 C436 0.929 . S
C428 H422 0.930 . S
C428 C429 1.367 . S
C428 C436 1.378 . S
C429 C428 1.367 . S
C429 C437 1.433 . S
C430 H426 0.929 . S
C430 C432 1.378 . S
C430 C434 1.350 . S
C431 C434 1.463 . S
C431 C436 1.350 . S
C431 N439 1.427 . S
C432 H423 0.930 . S
C432 C430 1.378 . S
C432 C433 1.367 . S
C433 C432 1.367 . S
C433 C435 1.433 . S
C434 C430 1.350 . S
C434 C431 1.463 . S
C434 N438 1.427 . S
C435 H425 0.929 . S
C435 C433 1.433 . S
C435 N438 1.384 . S
C436 H427 0.929 . S
C436 C428 1.378 . S
C436 C431 1.350 . S
C437 H424 0.929 . S
C437 C429 1.433 . S
C437 N439 1.384 . S
N438 C434 1.427 . S
N438 C435 1.384 . S
N439 C431 1.427 . S
N439 C437 1.384 . S
H440 C446 0.930 . S
H441 C450 0.930 . S
H442 C455 0.929 . S
H443 C453 0.929 . S
H444 C448 0.929 . S
H445 C454 0.929 . S
C446 H440 0.930 . S
C446 C447 1.367 . S
C446 C454 1.378 . S
C447 C446 1.367 . S
C447 C455 1.433 . S
C448 H444 0.929 . S
C448 C450 1.378 . S
C448 C452 1.350 . S
C449 C452 1.490 . S
C449 C454 1.334 1_655 S
C449 N457 1.419 1_655 S
C450 H441 0.930 . S
C450 C448 1.378 . S
C450 C451 1.367 . S
C451 C450 1.367 . S
C451 C453 1.433 . S
C452 C448 1.350 . S
C452 C449 1.490 . S
C452 N456 1.427 . S
C453 H443 0.929 . S
C453 C451 1.433 . S
C453 N456 1.384 . S
C454 H445 0.929 . S
C454 C446 1.378 . S
C454 C449 1.334 1_455 S
C455 H442 0.929 . S
C455 C447 1.433 . S
C455 N457 1.384 . S
N456 C452 1.427 . S
N456 C453 1.384 . S
N457 C449 1.419 1_455 S
N457 C455 1.384 . S
H458 C464 0.930 . S
H459 C468 0.930 . S
H460 C473 0.929 . S
H461 C471 0.929 . S
H462 C466 0.929 . S
H463 C472 0.929 . S
C464 H458 0.930 . S
C464 C465 1.367 . S
C464 C472 1.378 . S
C465 C464 1.367 . S
C465 C473 1.433 . S
C466 H462 0.929 . S
C466 C468 1.378 . S
C466 C470 1.350 . S
C467 C470 1.463 . S
C467 C472 1.350 . S
C467 N475 1.427 . S
C468 H459 0.930 . S
C468 C466 1.378 . S
C468 C469 1.367 . S
C469 C468 1.367 . S
C469 C471 1.433 1_556 S
C470 C466 1.350 . S
C470 C467 1.463 . S
C470 N474 1.427 1_556 S
C471 H461 0.929 . S
C471 C469 1.433 1_554 S
C471 N474 1.384 . S
C472 H463 0.929 . S
C472 C464 1.378 . S
C472 C467 1.350 . S
C473 H460 0.929 . S
C473 C465 1.433 . S
C473 N475 1.384 . S
N474 C470 1.427 1_554 S
N474 C471 1.384 . S
N475 C467 1.427 . S
N475 C473 1.384 . S
H476 C482 0.930 . S
H477 C486 0.930 . S
H478 C491 0.929 . S
H479 C489 0.929 . S
H480 C484 0.929 . S
H481 C490 0.929 . S
C482 H476 0.930 . S
C482 C483 1.367 . S
C482 C490 1.378 . S
C483 C482 1.367 . S
C483 C491 1.433 . S
C484 H480 0.929 . S
C484 C486 1.378 . S
C484 C488 1.350 . S
C485 C488 1.463 . S
C485 C490 1.350 . S
C485 N493 1.427 . S
C486 H477 0.930 . S
C486 C484 1.378 . S
C486 C487 1.367 . S
C487 C486 1.367 . S
C487 C489 1.433 . S
C488 C484 1.350 . S
C488 C485 1.463 . S
C488 N492 1.427 . S
C489 H479 0.929 . S
C489 C487 1.433 . S
C489 N492 1.384 . S
C490 H481 0.929 . S
C490 C482 1.378 . S
C490 C485 1.350 . S
C491 H478 0.929 . S
C491 C483 1.433 . S
C491 N493 1.384 . S
N492 C488 1.427 . S
N492 C489 1.384 . S
N493 C485 1.427 . S
N493 C491 1.384 . S
H494 C500 0.930 . S
H495 C504 0.930 . S
H496 C509 0.929 . S
H497 C507 0.929 . S
H498 C502 0.929 . S
H499 C508 0.929 . S
C500 H494 0.930 . S
C500 C501 1.367 . S
C500 C508 1.378 . S
C501 C500 1.367 . S
C501 C509 1.433 . S
C502 H498 0.929 . S
C502 C504 1.378 . S
C502 C506 1.350 . S
C503 C506 1.463 . S
C503 C508 1.350 . S
C503 N511 1.427 . S
C504 H495 0.930 . S
C504 C502 1.378 . S
C504 C505 1.367 . S
C505 C504 1.367 . S
C505 C507 1.433 . S
C506 C502 1.350 . S
C506 C503 1.463 . S
C506 N510 1.427 . S
C507 H497 0.929 . S
C507 C505 1.433 . S
C507 N510 1.384 . S
C508 H499 0.929 . S
C508 C500 1.378 . S
C508 C503 1.350 . S
C509 H496 0.929 . S
C509 C501 1.433 . S
C509 N511 1.384 . S
N510 C506 1.427 . S
N510 C507 1.384 . S
N511 C503 1.427 . S
N511 C509 1.384 . S
H512 C518 0.930 . S
H513 C522 0.930 . S
H514 C527 0.929 . S
H515 C525 0.929 . S
H516 C520 0.929 . S
H517 C526 0.929 . S
C518 H512 0.930 . S
C518 C519 1.367 . S
C518 C526 1.378 . S
C519 C518 1.367 . S
C519 C527 1.433 . S
C520 H516 0.929 . S
C520 C522 1.378 . S
C520 C524 1.350 . S
C521 C524 1.463 . S
C521 C526 1.350 . S
C521 N529 1.427 . S
C522 H513 0.930 . S
C522 C520 1.378 . S
C522 C523 1.367 1_554 S
C523 C522 1.367 1_556 S
C523 C525 1.433 . S
C524 C520 1.350 . S
C524 C521 1.463 . S
C524 N528 1.427 1_554 S
C525 H515 0.929 . S
C525 C523 1.433 . S
C525 N528 1.384 . S
C526 H517 0.929 . S
C526 C518 1.378 . S
C526 C521 1.350 . S
C527 H514 0.929 . S
C527 C519 1.433 . S
C527 N529 1.384 . S
N528 C524 1.427 1_556 S
N528 C525 1.384 . S
N529 C521 1.427 . S
N529 C527 1.384 . S
H530 C536 0.930 . S
H531 C540 0.930 . S
H532 C545 0.929 . S
H533 C543 0.929 . S
H534 C538 0.929 . S
H535 C544 0.929 . S
C536 H530 0.930 . S
C536 C537 1.367 . S
C536 C544 1.378 . S
C537 C536 1.367 . S
C537 C545 1.433 . S
C538 H534 0.929 . S
C538 C540 1.378 . S
C538 C542 1.350 . S
C539 C542 1.463 . S
C539 C544 1.350 . S
C539 N547 1.427 . S
C540 H531 0.930 . S
C540 C538 1.378 . S
C540 C541 1.367 . S
C541 C540 1.367 . S
C541 C543 1.433 . S
C542 C538 1.350 . S
C542 C539 1.463 . S
C542 N546 1.427 . S
C543 H533 0.929 . S
C543 C541 1.433 . S
C543 N546 1.384 . S
C544 H535 0.929 . S
C544 C536 1.378 . S
C544 C539 1.350 . S
C545 H532 0.929 . S
C545 C537 1.433 . S
C545 N547 1.384 . S
N546 C542 1.427 . S
N546 C543 1.384 . S
N547 C539 1.427 . S
N547 C545 1.384 . S
H548 C554 0.930 . S
H549 C558 0.930 . S
H550 C563 0.929 . S
H551 C561 0.929 . S
H552 C556 0.929 . S
H553 C562 0.929 . S
C554 H548 0.930 . S
C554 C555 1.367 . S
C554 C562 1.378 . S
C555 C554 1.367 . S
C555 C563 1.433 . S
C556 H552 0.929 . S
C556 C558 1.378 . S
C556 C560 1.350 . S
C557 C560 1.463 . S
C557 C562 1.350 . S
C557 N565 1.427 . S
C558 H549 0.930 . S
C558 C556 1.378 . S
C558 C559 1.367 . S
C559 C558 1.367 . S
C559 C561 1.433 . S
C560 C556 1.350 . S
C560 C557 1.463 . S
C560 N564 1.427 . S
C561 H551 0.929 . S
C561 C559 1.433 . S
C561 N564 1.384 . S
C562 H553 0.929 . S
C562 C554 1.378 . S
C562 C557 1.350 . S
C563 H550 0.929 . S
C563 C555 1.433 . S
C563 N565 1.384 . S
N564 C560 1.427 . S
N564 C561 1.384 . S
N565 C557 1.427 . S
N565 C563 1.384 . S
H566 C572 0.930 . S
H567 C576 0.930 . S
H568 C581 0.929 . S
H569 C579 0.929 . S
H570 C574 0.929 . S
H571 C580 0.929 . S
C572 H566 0.930 . S
C572 C573 1.367 . S
C572 C580 1.378 . S
C573 C572 1.367 . S
C573 C581 1.433 . S
C574 H570 0.929 . S
C574 C576 1.378 . S
C574 C578 1.350 . S
C575 C578 1.463 . S
C575 C580 1.350 . S
C575 N583 1.427 . S
C576 H567 0.930 . S
C576 C574 1.378 . S
C576 C577 1.367 . S
C577 C576 1.367 . S
C577 C579 1.433 . S
C578 C574 1.350 . S
C578 C575 1.463 . S
C578 N582 1.427 . S
C579 H569 0.929 . S
C579 C577 1.433 . S
C579 N582 1.384 . S
C580 H571 0.929 . S
C580 C572 1.378 . S
C580 C575 1.350 . S
C581 H568 0.929 . S
C581 C573 1.433 . S
C581 N583 1.384 . S
N582 C578 1.427 . S
N582 C579 1.384 . S
N583 C575 1.427 . S
N583 C581 1.384 . S
H584 C590 0.930 . S
H585 C594 0.930 . S
H586 C599 0.929 . S
H587 C597 0.929 . S
H588 C592 0.929 . S
H589 C598 0.929 . S
C590 H584 0.930 . S
C590 C591 1.367 . S
C590 C598 1.378 . S
C591 C590 1.367 . S
C591 C599 1.433 . S
C592 H588 0.929 . S
C592 C594 1.378 . S
C592 C596 1.350 . S
C593 C596 1.463 . S
C593 C598 1.350 . S
C593 N601 1.427 . S
C594 H585 0.930 . S
C594 C592 1.378 . S
C594 C595 1.367 . S
C595 C594 1.367 . S
C595 C597 1.433 . S
C596 C592 1.350 . S
C596 C593 1.463 . S
C596 N600 1.427 . S
C597 H587 0.929 . S
C597 C595 1.433 . S
C597 N600 1.384 . S
C598 H589 0.929 . S
C598 C590 1.378 . S
C598 C593 1.350 . S
C599 H586 0.929 . S
C599 C591 1.433 . S
C599 N601 1.384 . S
N600 C596 1.427 . S
N600 C597 1.384 . S
N601 C593 1.427 . S
N601 C599 1.384 . S
H602 C608 0.930 . S
H603 C612 0.930 . S
H604 C617 0.929 . S
H605 C615 0.929 . S
H606 C610 0.929 . S
H607 C616 0.929 . S
C608 H602 0.930 . S
C608 C609 1.367 . S
C608 C616 1.378 . S
C609 C608 1.367 . S
C609 C617 1.433 . S
C610 H606 0.929 . S
C610 C612 1.378 . S
C610 C614 1.350 . S
C611 C614 1.463 . S
C611 C616 1.350 . S
C611 N619 1.427 . S
C612 H603 0.930 . S
C612 C610 1.378 . S
C612 C613 1.367 . S
C613 C612 1.367 . S
C613 C615 1.433 . S
C614 C610 1.350 . S
C614 C611 1.463 . S
C614 N618 1.427 . S
C615 H605 0.929 . S
C615 C613 1.433 . S
C615 N618 1.384 . S
C616 H607 0.929 . S
C616 C608 1.378 . S
C616 C611 1.350 . S
C617 H604 0.929 . S
C617 C609 1.433 . S
C617 N619 1.384 . S
N618 C614 1.427 . S
N618 C615 1.384 . S
N619 C611 1.427 . S
N619 C617 1.384 . S
H620 C626 0.930 . S
H621 C630 0.930 . S
H622 C635 0.929 . S
H623 C633 0.929 . S
H624 C628 0.929 . S
H625 C634 0.929 . S
C626 H620 0.930 . S
C626 C627 1.367 . S
C626 C634 1.378 . S
C627 C626 1.367 . S
C627 C635 1.433 . S
C628 H624 0.929 . S
C628 C630 1.378 . S
C628 C632 1.350 . S
C629 C632 1.463 1_565 S
C629 C634 1.350 . S
C629 N637 1.427 . S
C630 H621 0.930 . S
C630 C628 1.378 . S
C630 C631 1.367 . S
C631 C630 1.367 . S
C631 C633 1.433 . S
C632 C628 1.350 . S
C632 C629 1.463 1_545 S
C632 N636 1.427 . S
C633 H623 0.929 . S
C633 C631 1.433 . S
C633 N636 1.384 . S
C634 H625 0.929 . S
C634 C626 1.378 . S
C634 C629 1.350 . S
C635 H622 0.929 . S
C635 C627 1.433 . S
C635 N637 1.384 . S
N636 C632 1.427 . S
N636 C633 1.384 . S
N637 C629 1.427 . S
N637 C635 1.384 . S
H638 C644 0.930 . S
H639 C648 0.930 . S
H640 C653 0.929 . S
H641 C651 0.929 . S
H642 C646 0.929 . S
H643 C652 0.929 . S
C644 H638 0.930 . S
C644 C645 1.367 1_554 S
C644 C652 1.378 . S
C645 C644 1.367 1_556 S
C645 C653 1.433 . S
C646 H642 0.929 . S
C646 C648 1.378 . S
C646 C650 1.350 . S
C647 C650 1.463 1_545 S
C647 C652 1.350 . S
C647 N655 1.427 1_554 S
C648 H639 0.930 . S
C648 C646 1.378 . S
C648 C649 1.367 . S
C649 C648 1.367 . S
C649 C651 1.433 . S
C650 C646 1.350 . S
C650 C647 1.463 1_565 S
C650 N654 1.427 . S
C651 H641 0.929 . S
C651 C649 1.433 . S
C651 N654 1.384 . S
C652 H643 0.929 . S
C652 C644 1.378 . S
C652 C647 1.350 . S
C653 H640 0.929 . S
C653 C645 1.433 . S
C653 N655 1.384 . S
N654 C650 1.427 . S
N654 C651 1.384 . S
N655 C647 1.427 1_556 S
N655 C653 1.384 . S
H656 C662 0.930 . S
H657 C666 0.930 . S
H658 C671 0.929 . S
H659 C669 0.929 . S
H660 C664 0.929 . S
H661 C670 0.929 . S
C662 H656 0.930 . S
C662 C663 1.367 . S
C662 C670 1.378 . S
C663 C662 1.367 . S
C663 C671 1.433 . S
C664 H660 0.929 . S
C664 C666 1.378 . S
C664 C668 1.350 . S
C665 C668 1.463 . S
C665 C670 1.350 . S
C665 N673 1.427 . S
C666 H657 0.930 . S
C666 C664 1.378 . S
C666 C667 1.367 . S
C667 C666 1.367 . S
C667 C669 1.433 . S
C668 C664 1.350 . S
C668 C665 1.463 . S
C668 N672 1.427 . S
C669 H659 0.929 . S
C669 C667 1.433 . S
C669 N672 1.384 . S
C670 H661 0.929 . S
C670 C662 1.378 . S
C670 C665 1.350 . S
C671 H658 0.929 . S
C671 C663 1.433 . S
C671 N673 1.384 . S
N672 C668 1.427 . S
N672 C669 1.384 . S
N673 C665 1.427 . S
N673 C671 1.384 . S
H674 C680 0.930 . S
H675 C684 0.930 . S
H676 C689 0.929 . S
H677 C687 0.929 . S
H678 C682 0.929 . S
H679 C688 0.929 . S
C680 H674 0.930 . S
C680 C681 1.367 . S
C680 C688 1.378 . S
C681 C680 1.367 . S
C681 C689 1.433 . S
C682 H678 0.929 . S
C682 C684 1.378 . S
C682 C686 1.350 . S
C683 C686 1.463 . S
C683 C688 1.350 . S
C683 N691 1.427 . S
C684 H675 0.930 . S
C684 C682 1.378 . S
C684 C685 1.367 . S
C685 C684 1.367 . S
C685 C687 1.433 . S
C686 C682 1.350 . S
C686 C683 1.463 . S
C686 N690 1.427 . S
C687 H677 0.929 . S
C687 C685 1.433 . S
C687 N690 1.384 . S
C688 H679 0.929 . S
C688 C680 1.378 . S
C688 C683 1.350 . S
C689 H676 0.929 . S
C689 C681 1.433 . S
C689 N691 1.384 . S
N690 C686 1.427 . S
N690 C687 1.384 . S
N691 C683 1.427 . S
N691 C689 1.384 . S
H692 C698 0.930 . S
H693 C702 0.930 . S
H694 C707 0.929 . S
H695 C705 0.929 1_554 S
H696 C700 0.929 . S
H697 C706 0.929 . S
C698 H692 0.930 . S
C698 C699 1.367 . S
C698 C706 1.378 . S
C699 C698 1.367 . S
C699 C707 1.433 . S
C700 H696 0.929 . S
C700 C702 1.378 . S
C700 C704 1.350 1_556 S
C701 C704 1.463 . S
C701 C706 1.350 . S
C701 N709 1.427 . S
C702 H693 0.930 . S
C702 C700 1.378 . S
C702 C703 1.367 . S
C703 C702 1.367 . S
C703 C705 1.433 . S
C704 C700 1.350 1_554 S
C704 C701 1.463 . S
C704 N708 1.427 . S
C705 H695 0.929 1_556 S
C705 C703 1.433 . S
C705 N708 1.384 1_556 S
C706 H697 0.929 . S
C706 C698 1.378 . S
C706 C701 1.350 . S
C707 H694 0.929 . S
C707 C699 1.433 . S
C707 N709 1.384 . S
N708 C704 1.427 . S
N708 C705 1.384 1_554 S
N709 C701 1.427 . S
N709 C707 1.384 . S
H710 C716 0.930 . S
H711 C720 0.930 . S
H712 C725 0.929 . S
H713 C723 0.929 . S
H714 C718 0.929 . S
H715 C724 0.929 . S
C716 H710 0.930 . S
C716 C717 1.367 . S
C716 C724 1.378 . S
C717 C716 1.367 . S
C717 C725 1.433 . S
C718 H714 0.929 . S
C718 C720 1.378 . S
C718 C722 1.350 . S
C719 C722 1.463 . S
C719 C724 1.350 . S
C719 N727 1.427 . S
C720 H711 0.930 . S
C720 C718 1.378 . S
C720 C721 1.367 . S
C721 C720 1.367 . S
C721 C723 1.433 . S
C722 C718 1.350 . S
C722 C719 1.463 . S
C722 N726 1.427 . S
C723 H713 0.929 . S
C723 C721 1.433 . S
C723 N726 1.384 . S
C724 H715 0.929 . S
C724 C716 1.378 . S
C724 C719 1.350 . S
C725 H712 0.929 . S
C725 C717 1.433 . S
C725 N727 1.384 . S
N726 C722 1.427 . S
N726 C723 1.384 . S
N727 C719 1.427 . S
N727 C725 1.384 . S
H728 C734 0.930 . S
H729 C738 0.930 . S
H730 C743 0.929 . S
H731 C741 0.929 . S
H732 C736 0.929 . S
H733 C742 0.929 . S
C734 H728 0.930 . S
C734 C735 1.367 . S
C734 C742 1.378 . S
C735 C734 1.367 . S
C735 C743 1.433 . S
C736 H732 0.929 . S
C736 C738 1.378 . S
C736 C740 1.350 . S
C737 C740 1.463 . S
C737 C742 1.350 . S
C737 N745 1.427 . S
C738 H729 0.930 . S
C738 C736 1.378 . S
C738 C739 1.367 . S
C739 C738 1.367 . S
C739 C741 1.433 . S
C740 C736 1.350 . S
C740 C737 1.463 . S
C740 N744 1.427 . S
C741 H731 0.929 . S
C741 C739 1.433 . S
C741 N744 1.384 . S
C742 H733 0.929 . S
C742 C734 1.378 . S
C742 C737 1.350 . S
C743 H730 0.929 . S
C743 C735 1.433 . S
C743 N745 1.384 . S
N744 C740 1.427 . S
N744 C741 1.384 . S
N745 C737 1.427 . S
N745 C743 1.384 . S
H746 C752 0.930 . S
H747 C756 0.930 . S
H748 C761 0.929 . S
H749 C759 0.929 . S
H750 C754 0.929 . S
H751 C760 0.929 . S
C752 H746 0.930 . S
C752 C753 1.367 . S
C752 C760 1.378 . S
C753 C752 1.367 . S
C753 C761 1.433 . S
C754 H750 0.929 . S
C754 C756 1.378 . S
C754 C758 1.350 . S
C755 C758 1.463 . S
C755 C760 1.350 . S
C755 N763 1.427 . S
C756 H747 0.930 . S
C756 C754 1.378 . S
C756 C757 1.367 . S
C757 C756 1.367 . S
C757 C759 1.433 . S
C758 C754 1.350 . S
C758 C755 1.463 . S
C758 N762 1.427 . S
C759 H749 0.929 . S
C759 C757 1.433 . S
C759 N762 1.384 . S
C760 H751 0.929 . S
C760 C752 1.378 . S
C760 C755 1.350 . S
C761 H748 0.929 . S
C761 C753 1.433 . S
C761 N763 1.384 . S
N762 C758 1.427 . S
N762 C759 1.384 . S
N763 C755 1.427 . S
N763 C761 1.384 . S
H764 C770 0.930 . S
H765 C774 0.930 . S
H766 C779 0.929 . S
H767 C777 0.929 . S
H768 C772 0.929 . S
H769 C778 0.929 . S
C770 H764 0.930 . S
C770 C771 1.367 . S
C770 C778 1.378 . S
C771 C770 1.367 . S
C771 C779 1.433 . S
C772 H768 0.929 . S
C772 C774 1.378 1_554 S
C772 C776 1.350 . S
C773 C776 1.463 1_565 S
C773 C778 1.350 . S
C773 N781 1.427 . S
C774 H765 0.930 . S
C774 C772 1.378 1_556 S
C774 C775 1.367 . S
C775 C774 1.367 . S
C775 C777 1.433 . S
C776 C772 1.350 . S
C776 C773 1.463 1_545 S
C776 N780 1.427 1_554 S
C777 H767 0.929 . S
C777 C775 1.433 . S
C777 N780 1.384 . S
C778 H769 0.929 . S
C778 C770 1.378 . S
C778 C773 1.350 . S
C779 H766 0.929 . S
C779 C771 1.433 . S
C779 N781 1.384 . S
N780 C776 1.427 1_556 S
N780 C777 1.384 . S
N781 C773 1.427 . S
N781 C779 1.384 . S
H782 C788 0.930 . S
H783 C792 0.930 . S
H784 C797 0.929 . S
H785 C795 0.929 . S
H786 C790 0.929 1_545 S
H787 C796 0.929 1_565 S
C788 H782 0.930 . S
C788 C789 1.367 . S
C788 C796 1.378 . S
C789 C788 1.367 . S
C789 C797 1.433 . S
C790 H786 0.929 1_565 S
C790 C792 1.378 . S
C790 C794 1.350 . S
C791 C794 1.463 1_545 S
C791 C796 1.350 . S
C791 N799 1.427 . S
C792 H783 0.930 . S
C792 C790 1.378 . S
C792 C793 1.367 . S
C793 C792 1.367 . S
C793 C795 1.433 . S
C794 C790 1.350 . S
C794 C791 1.463 1_565 S
C794 N798 1.427 . S
C795 H785 0.929 . S
C795 C793 1.433 . S
C795 N798 1.384 . S
C796 H787 0.929 1_545 S
C796 C788 1.378 . S
C796 C791 1.350 . S
C797 H784 0.929 . S
C797 C789 1.433 . S
C797 N799 1.384 . S
N798 C794 1.427 . S
N798 C795 1.384 . S
N799 C791 1.427 . S
N799 C797 1.384 . S
C231 C135 1.339 . S
C235 C9 1.332 . S
C249 C205 1.336 . S
C253 C23 1.337 . S
C267 C37 1.333 . S
C271 C121 1.340 . S
C285 C51 1.338 . S
C289 C219 1.333 . S
C303 C65 1.336 . S
C307 C149 1.337 . S
C321 C191 1.340 . S
C325 C79 1.331 . S
C339 C163 1.334 . S
C343 C93 1.337 . S
C357 C107 1.338 . S
C361 C177 1.334 . S
C375 C63 1.632 . S
C379 C49 1.631 1_556 S
C393 C175 1.645 . S
C397 C119 1.643 . S
C411 C91 1.640 . S
C415 C21 1.642 . S
C429 C133 1.640 . S
C433 C189 1.638 . S
C447 C7 1.648 . S
C451 C77 1.647 . S
C465 C217 1.631 . S
C469 C147 1.632 1_556 S
C483 C105 1.633 . S
C487 C35 1.632 . S
C501 C161 1.644 . S
C505 C203 1.642 . S
C519 C8 1.232 . S
C523 C64 1.231 . S
C537 C78 1.229 . S
C541 C22 1.227 . S
C555 C92 1.231 . S
C559 C36 1.230 . S
C573 C50 1.232 . S
C577 C106 1.232 . S
C591 C148 1.228 . S
C595 C120 1.230 . S
C609 C162 1.228 . S
C613 C134 1.230 . S
C627 C204 1.232 . S
C631 C176 1.231 . S
C645 C218 1.232 . S
C649 C190 1.232 . S
C663 C62 1.544 . S
C667 C6 1.556 . S
C681 C76 1.556 . S
C685 C20 1.544 . S
C699 C90 1.552 . S
C703 C34 1.547 . S
C717 C48 1.555 . S
C721 C104 1.545 . S
C735 C118 1.545 . S
C739 C146 1.556 . S
C753 C160 1.556 . S
C757 C132 1.544 . S
C771 C202 1.555 . S
C775 C174 1.546 . S
C789 C216 1.545 . S
C793 C188 1.554 . S
