# Generated by pormake.
# Topology uou, (4)-cn, num edge types: 1
# Building blocks:
#     Node 0, Type 0, BuildingBlock: TATPOV_clean_sbu_0, # of connection points: 4
#     Node 1, Type 0, BuildingBlock: TATPOV_clean_sbu_0, # of connection points: 4
#     Node 2, Type 0, BuildingBlock: TATPOV_clean_sbu_0, # of connection points: 4
#     Node 3, Type 0, BuildingBlock: TATPOV_clean_sbu_0, # of connection points: 4
#     Node 4, Type 0, BuildingBlock: TATPOV_clean_sbu_0, # of connection points: 4
#     Node 5, Type 0, BuildingBlock: TATPOV_clean_sbu_0, # of connection points: 4
#     Node 6, Type 0, BuildingBlock: TATPOV_clean_sbu_0, # of connection points: 4
#     Node 7, Type 0, BuildingBlock: TATPOV_clean_sbu_0, # of connection points: 4
#     Node 8, Type 0, BuildingBlock: TATPOV_clean_sbu_0, # of connection points: 4
#     Node 9, Type 0, BuildingBlock: TATPOV_clean_sbu_0, # of connection points: 4
#     Node 10, Type 0, BuildingBlock: TATPOV_clean_sbu_0, # of connection points: 4
#     Node 11, Type 0, BuildingBlock: TATPOV_clean_sbu_0, # of connection points: 4
#     Node 12, Type 0, BuildingBlock: TATPOV_clean_sbu_0, # of connection points: 4
#     Node 13, Type 0, BuildingBlock: TATPOV_clean_sbu_0, # of connection points: 4
#     Node 14, Type 0, BuildingBlock: TATPOV_clean_sbu_0, # of connection points: 4
#     Node 15, Type 0, BuildingBlock: TATPOV_clean_sbu_0, # of connection points: 4
#     Edge 16, Type (0, 0), BuildingBlock: MIFKUJ_clean_linker_0, # of connection points: 2
#     Edge 17, Type (0, 0), BuildingBlock: MIFKUJ_clean_linker_0, # of connection points: 2
#     Edge 18, Type (0, 0), BuildingBlock: MIFKUJ_clean_linker_0, # of connection points: 2
#     Edge 19, Type (0, 0), BuildingBlock: MIFKUJ_clean_linker_0, # of connection points: 2
#     Edge 20, Type (0, 0), BuildingBlock: MIFKUJ_clean_linker_0, # of connection points: 2
#     Edge 21, Type (0, 0), BuildingBlock: MIFKUJ_clean_linker_0, # of connection points: 2
#     Edge 22, Type (0, 0), BuildingBlock: MIFKUJ_clean_linker_0, # of connection points: 2
#     Edge 23, Type (0, 0), BuildingBlock: MIFKUJ_clean_linker_0, # of connection points: 2
#     Edge 24, Type (0, 0), BuildingBlock: MIFKUJ_clean_linker_0, # of connection points: 2
#     Edge 25, Type (0, 0), BuildingBlock: MIFKUJ_clean_linker_0, # of connection points: 2
#     Edge 26, Type (0, 0), BuildingBlock: MIFKUJ_clean_linker_0, # of connection points: 2
#     Edge 27, Type (0, 0), BuildingBlock: MIFKUJ_clean_linker_0, # of connection points: 2
#     Edge 28, Type (0, 0), BuildingBlock: MIFKUJ_clean_linker_0, # of connection points: 2
#     Edge 29, Type (0, 0), BuildingBlock: MIFKUJ_clean_linker_0, # of connection points: 2
#     Edge 30, Type (0, 0), BuildingBlock: MIFKUJ_clean_linker_0, # of connection points: 2
#     Edge 31, Type (0, 0), BuildingBlock: MIFKUJ_clean_linker_0, # of connection points: 2
#     Edge 32, Type (0, 0), BuildingBlock: MIFKUJ_clean_linker_0, # of connection points: 2
#     Edge 33, Type (0, 0), BuildingBlock: MIFKUJ_clean_linker_0, # of connection points: 2
#     Edge 34, Type (0, 0), BuildingBlock: MIFKUJ_clean_linker_0, # of connection points: 2
#     Edge 35, Type (0, 0), BuildingBlock: MIFKUJ_clean_linker_0, # of connection points: 2
#     Edge 36, Type (0, 0), BuildingBlock: MIFKUJ_clean_linker_0, # of connection points: 2
#     Edge 37, Type (0, 0), BuildingBlock: MIFKUJ_clean_linker_0, # of connection points: 2
#     Edge 38, Type (0, 0), BuildingBlock: MIFKUJ_clean_linker_0, # of connection points: 2
#     Edge 39, Type (0, 0), BuildingBlock: MIFKUJ_clean_linker_0, # of connection points: 2
#     Edge 40, Type (0, 0), BuildingBlock: MIFKUJ_clean_linker_0, # of connection points: 2
#     Edge 41, Type (0, 0), BuildingBlock: MIFKUJ_clean_linker_0, # of connection points: 2
#     Edge 42, Type (0, 0), BuildingBlock: MIFKUJ_clean_linker_0, # of connection points: 2
#     Edge 43, Type (0, 0), BuildingBlock: MIFKUJ_clean_linker_0, # of connection points: 2
#     Edge 44, Type (0, 0), BuildingBlock: MIFKUJ_clean_linker_0, # of connection points: 2
#     Edge 45, Type (0, 0), BuildingBlock: MIFKUJ_clean_linker_0, # of connection points: 2
#     Edge 46, Type (0, 0), BuildingBlock: MIFKUJ_clean_linker_0, # of connection points: 2
#     Edge 47, Type (0, 0), BuildingBlock: MIFKUJ_clean_linker_0, # of connection points: 2
# Relax obj value: 0.085
# Max RMSD: 0.140
# Mean RMSD: 0.140
data_MOF--net-uou--node1-TATPOV_clean_sbu_0--edge1-MIFKUJ_clean_linker_0
_symmetry_space_group_name_H-M    P1
_symmetry_Int_Tables_number       1
_symmetry_cell_setting            triclinic
loop_
_symmetry_equiv_pos_as_xyz
'x, y, z'
_cell_length_a     51.452107
_cell_length_b     46.410676
_cell_length_c     69.461916
_cell_angle_alpha  89.867056
_cell_angle_beta   89.968538
_cell_angle_gamma 89.958334
loop_
_atom_site_label
_atom_site_type_symbol
_atom_site_fract_x
_atom_site_fract_y
_atom_site_fract_z
_atom_type_partial_charge
Zn0 Zn 0.02561 0.99488 0.11894 0.0
Zn1 Zn 0.0744 0.00848 0.12262 0.0
O2 O 0.06487 0.97917 0.1444 0.0
O3 O 0.02488 0.96472 0.13899 0.0
O4 O 0.11404 0.01121 0.12562 0.0
O5 O 0.02822 0.98356 0.09173 0.0
O6 O 0.0688 0.99805 0.09367 0.0
C7 C 0.04542 0.96342 0.14888 0.0
C8 C 0.03423 0.05537 0.12844 0.0
O9 O 0.05833 0.04861 0.12811 0.0
O10 O 0.01711 0.03631 0.12534 0.0
C11 C 0.12984 0.01496 0.11169 0.0
O12 O 0.12052 0.0195 0.09434 0.0
C13 C 0.04979 0.98854 0.08372 0.0
Zn14 Zn 0.51081 0.97793 0.1303 0.0
Zn15 Zn 0.4612 0.96926 0.12485 0.0
O16 O 0.46478 0.99337 0.15006 0.0
O17 O 0.50593 0.00594 0.15141 0.0
O18 O 0.42172 0.96792 0.12088 0.0
O19 O 0.51669 0.99273 0.10399 0.0
O20 O 0.47462 0.98775 0.09934 0.0
C21 C 0.48317 0.00728 0.15815 0.0
C22 C 0.4968 0.91791 0.13295 0.0
O23 O 0.47436 0.92701 0.12785 0.0
O24 O 0.51508 0.93563 0.13587 0.0
C25 C 0.40588 0.96534 0.13489 0.0
O26 O 0.41521 0.96149 0.15232 0.0
C27 C 0.49705 0.99528 0.09323 0.0
Zn28 Zn 0.52308 0.87915 0.36134 0.0
Zn29 Zn 0.57276 0.89368 0.36423 0.0
O30 O 0.55821 0.91657 0.34072 0.0
O31 O 0.5174 0.90297 0.33809 0.0
O32 O 0.61098 0.90641 0.36512 0.0
O33 O 0.51597 0.89627 0.38703 0.0
O34 O 0.55721 0.90821 0.38997 0.0
C35 C 0.53623 0.91812 0.33226 0.0
C36 C 0.55514 0.8299 0.35997 0.0
O37 O 0.57335 0.84842 0.36198 0.0
O38 O 0.53168 0.83777 0.35909 0.0
C39 C 0.61657 0.93269 0.36168 0.0
O40 O 0.59756 0.95082 0.35804 0.0
C41 C 0.53408 0.90773 0.39664 0.0
Zn42 Zn 0.98508 0.05038 0.35479 0.0
Zn43 Zn 0.9355 0.04529 0.35865 0.0
O44 O 0.94535 0.01836 0.3357 0.0
O45 O 0.9881 0.01909 0.3357 0.0
O46 O 0.89684 0.03605 0.36209 0.0
O47 O 0.99305 0.04155 0.3819 0.0
O48 O 0.9512 0.03341 0.38533 0.0
C49 C 0.96703 0.00932 0.32909 0.0
C50 C 0.95937 0.10378 0.34762 0.0
O51 O 0.93916 0.08956 0.35268 0.0
O52 O 0.98112 0.09116 0.34654 0.0
C53 C 0.8783 0.04604 0.35192 0.0
O54 O 0.88348 0.06528 0.33856 0.0
C55 C 0.9742 0.03369 0.3923 0.0
Zn56 Zn 1.00676 0.02705 0.85284 0.0
Zn57 Zn 0.95636 0.01809 0.85482 0.0
O58 O 0.96351 0.04491 0.83121 0.0
O59 O 1.00505 0.05582 0.83192 0.0
O60 O 0.91641 0.01693 0.85451 0.0
O61 O 0.00873 0.04055 0.87976 0.0
O62 O 0.96672 0.03233 0.88222 0.0
C63 C 0.98292 0.05859 0.82429 0.0
C64 C 0.99279 0.96718 0.84745 0.0
O65 O 0.9697 0.97624 0.85066 0.0
O66 O 0.01157 0.98481 0.84695 0.0
C67 C 0.90173 0.02181 0.86894 0.0
O68 O 0.91234 0.02604 0.88589 0.0
C69 C 0.9882 0.04028 0.88974 0.0
Zn70 Zn 0.52203 0.07938 0.86038 0.0
Zn71 Zn 0.57246 0.08433 0.85959 0.0
O72 O 0.56342 0.05691 0.83664 0.0
O73 O 0.52109 0.05107 0.83929 0.0
O74 O 0.61233 0.08386 0.86046 0.0
O75 O 0.52058 0.06463 0.88686 0.0
O76 O 0.5632 0.06853 0.887 0.0
C77 C 0.5423 0.04517 0.83104 0.0
C78 C 0.53777 0.13785 0.85426 0.0
O79 O 0.5607 0.12725 0.85539 0.0
O80 O 0.51819 0.12148 0.85558 0.0
C81 C 0.62684 0.07931 0.8459 0.0
O82 O 0.61606 0.0766 0.82886 0.0
C83 C 0.54201 0.06177 0.89548 0.0
Zn84 Zn 0.48718 0.04321 0.61879 0.0
Zn85 Zn 0.43787 0.04418 0.61563 0.0
O86 O 0.44594 0.01999 0.64035 0.0
O87 O 0.48813 0.01298 0.63886 0.0
O88 O 0.39859 0.03865 0.61245 0.0
O89 O 0.49445 0.0325 0.59197 0.0
O90 O 0.45204 0.02844 0.58941 0.0
C91 C 0.46658 0.00832 0.64698 0.0
C92 C 0.46694 0.09993 0.62453 0.0
O93 O 0.44547 0.08818 0.61957 0.0
O94 O 0.48721 0.08468 0.6262 0.0
C95 C 0.38206 0.04153 0.62598 0.0
O96 O 0.39005 0.05057 0.64288 0.0
C97 C 0.47473 0.02603 0.5821 0.0
Zn98 Zn 0.01222 0.92996 0.62343 0.0
Zn99 Zn 0.06235 0.93426 0.62195 0.0
O100 O 0.0495 0.96473 0.64195 0.0
O101 O 0.00685 0.96237 0.64132 0.0
O102 O 0.10162 0.94169 0.62285 0.0
O103 O 0.00896 0.93703 0.59544 0.0
O104 O 0.05127 0.94352 0.59372 0.0
C105 C 0.02737 0.97385 0.64765 0.0
C106 C 0.03569 0.8771 0.63388 0.0
O107 O 0.05653 0.89067 0.62946 0.0
O108 O 0.01404 0.88996 0.63328 0.0
C109 C 0.11795 0.93725 0.60938 0.0
O110 O 0.10993 0.92539 0.59329 0.0
C111 C 0.02895 0.94314 0.58567 0.0
Zn112 Zn 0.54616 0.56982 0.11805 0.0
Zn113 Zn 0.59227 0.56223 0.12406 0.0
O114 O 0.57396 0.54413 0.14834 0.0
O115 O 0.53479 0.56213 0.14453 0.0
O116 O 0.63097 0.55262 0.12727 0.0
O117 O 0.54132 0.53929 0.09874 0.0
O118 O 0.58388 0.54194 0.09787 0.0
C119 C 0.55089 0.54822 0.15462 0.0
C120 C 0.5708 0.62266 0.11552 0.0
O121 O 0.58902 0.60759 0.12306 0.0
O122 O 0.55039 0.61035 0.10969 0.0
C123 C 0.63713 0.52645 0.13055 0.0
O124 O 0.61841 0.50744 0.13259 0.0
C125 C 0.56255 0.53271 0.0908 0.0
Zn126 Zn 1.00615 0.40896 0.11994 0.0
Zn127 Zn 0.95559 0.41499 0.11591 0.0
O128 O 0.96617 0.44285 0.13788 0.0
O129 O 0.00866 0.43901 0.14017 0.0
O130 O 0.91682 0.42443 0.11377 0.0
O131 O 0.01266 0.41944 0.09261 0.0
O132 O 0.97065 0.42703 0.08924 0.0
C133 C 0.9876 0.45044 0.14558 0.0
C134 C 0.97947 0.35603 0.12691 0.0
O135 O 0.95932 0.3707 0.12228 0.0
O136 O 1.00151 0.36803 0.12739 0.0
C137 C 0.89878 0.41257 0.12353 0.0
O138 O 0.90459 0.39102 0.13506 0.0
C139 C 0.99366 0.42722 0.0823 0.0
Zn140 Zn 0.98821 0.46856 0.35895 0.0
Zn141 Zn 0.03909 0.45943 0.35723 0.0
O142 O 0.02961 0.48753 0.33487 0.0
O143 O 0.98783 0.49678 0.33745 0.0
O144 O 0.07887 0.45849 0.35527 0.0
O145 O 0.98996 0.48261 0.38581 0.0
O146 O 0.03184 0.47282 0.38534 0.0
C147 C 0.00927 0.50062 0.32897 0.0
C148 C 1.00207 0.40868 0.35187 0.0
O149 O 0.02549 0.41782 0.35256 0.0
O150 O 0.98333 0.42613 0.35401 0.0
C151 C 0.09416 0.455 0.36951 0.0
O152 O 0.08424 0.44978 0.3866 0.0
C153 C 0.01163 0.48143 0.39433 0.0
Zn154 Zn 0.47243 0.47838 0.35928 0.0
Zn155 Zn 0.42569 0.49581 0.36209 0.0
O156 O 0.43004 0.47422 0.33579 0.0
O157 O 0.46871 0.45427 0.33619 0.0
O158 O 0.3862 0.49983 0.36481 0.0
O159 O 0.4755 0.45968 0.38452 0.0
O160 O 0.43636 0.4776 0.38856 0.0
C161 C 0.44736 0.45859 0.32774 0.0
C162 C 0.46654 0.54125 0.35778 0.0
O163 O 0.44232 0.53624 0.3601 0.0
O164 O 0.48246 0.52044 0.35674 0.0
C165 C 0.37091 0.50346 0.35058 0.0
O166 O 0.38086 0.50703 0.33332 0.0
C167 C 0.45616 0.46429 0.39525 0.0
Zn168 Zn 0.49706 0.49526 0.85811 0.0
Zn169 Zn 0.44787 0.4925 0.86415 0.0
O170 O 0.4537 0.52238 0.84188 0.0
O171 O 0.496 0.5286 0.84063 0.0
O172 O 0.40861 0.49612 0.86885 0.0
O173 O 0.50607 0.50214 0.88516 0.0
O174 O 0.46404 0.50178 0.8911 0.0
C175 C 0.47351 0.53531 0.83493 0.0
C176 C 0.477 0.43923 0.84964 0.0
O177 O 0.45587 0.44998 0.8562 0.0
O178 O 0.497 0.45492 0.84802 0.0
C179 C 0.39257 0.49874 0.85497 0.0
O180 O 0.40131 0.49684 0.83724 0.0
C181 C 0.48748 0.50444 0.89692 0.0
Zn182 Zn 0.02334 0.61341 0.87716 0.0
Zn183 Zn 0.07315 0.60684 0.8735 0.0
O184 O 0.05731 0.58331 0.85084 0.0
O185 O 0.01526 0.59085 0.8537 0.0
O186 O 0.11226 0.59916 0.8702 0.0
O187 O 0.02203 0.59432 0.90252 0.0
O188 O 0.06434 0.58838 0.90028 0.0
C189 C 0.03409 0.5793 0.84493 0.0
C190 C 0.04734 0.66757 0.87277 0.0
O191 O 0.06785 0.65208 0.87113 0.0
O192 O 0.02564 0.65568 0.87582 0.0
C193 C 0.12809 0.59675 0.88423 0.0
O194 O 0.11949 0.60094 0.90181 0.0
C195 C 0.04307 0.58503 0.90953 0.0
Zn196 Zn 0.99513 0.51406 0.63162 0.0
Zn197 Zn 0.94502 0.52332 0.6309 0.0
O198 O 0.95263 0.50193 0.65674 0.0
O199 O 0.99424 0.49117 0.65571 0.0
O200 O 0.90533 0.52181 0.62914 0.0
O201 O 0.99726 0.49411 0.60662 0.0
O202 O 0.9557 0.50478 0.60467 0.0
C203 C 0.97265 0.49025 0.66434 0.0
C204 C 0.98059 0.57507 0.63274 0.0
O205 O 0.95715 0.56594 0.63236 0.0
O206 O 0.99932 0.5573 0.63251 0.0
C207 C 0.88904 0.53501 0.63974 0.0
O208 O 0.89763 0.55287 0.65294 0.0
C209 C 0.9763 0.49422 0.5972 0.0
Zn210 Zn 0.51261 0.46102 0.61986 0.0
Zn211 Zn 0.56177 0.45607 0.62362 0.0
O212 O 0.54879 0.48236 0.64638 0.0
O213 O 0.50627 0.48301 0.64339 0.0
O214 O 0.60159 0.45708 0.62627 0.0
O215 O 0.51444 0.4822 0.59531 0.0
O216 O 0.55613 0.47179 0.59571 0.0
C217 C 0.52646 0.49061 0.65232 0.0
C218 C 0.52747 0.40199 0.62312 0.0
O219 O 0.55007 0.41278 0.62583 0.0
O220 O 0.50837 0.41842 0.61975 0.0
C221 C 0.6123 0.48081 0.631 0.0
O222 O 0.59742 0.50328 0.63432 0.0
C223 C 0.53633 0.48227 0.58711 0.0
H224 H 0.36726 0.96038 0.16181 0.0
H225 H 0.32074 0.96862 0.15763 0.0
H226 H 0.33296 0.98646 0.09735 0.0
H227 H 0.37973 0.97853 0.10147 0.0
H228 H 0.30121 0.02599 0.11315 0.0
H229 H 0.3055 0.92291 0.11238 0.0
H230 H 0.31737 0.87462 0.12438 0.0
H231 H 0.2732 0.88927 0.1759 0.0
H232 H 0.26134 0.93783 0.16433 0.0
H233 H 0.16843 0.02081 0.08481 0.0
H234 H 0.21498 0.01269 0.08889 0.0
H235 H 0.2029 0.99376 0.14904 0.0
H236 H 0.1561 1.00147 0.145 0.0
H237 H 0.23462 0.95476 0.13323 0.0
H238 H 0.23038 0.05782 0.1341 0.0
H239 H 0.21849 0.10614 0.12218 0.0
H240 H 0.26255 0.09162 0.07059 0.0
H241 H 0.27443 0.04303 0.08209 0.0
C242 C 0.36011 0.96585 0.1476 0.0
C243 C 0.37734 0.9687 0.13196 0.0
C244 C 0.3334 0.97048 0.14523 0.0
C245 C 0.32318 0.97794 0.12713 0.0
C246 C 0.34031 0.98071 0.11146 0.0
C247 C 0.36707 0.97603 0.11382 0.0
C248 C 0.29476 0.98352 0.12472 0.0
C249 C 0.28667 0.01023 0.11727 0.0
C250 C 0.27566 0.96332 0.13057 0.0
C251 C 0.28274 0.93412 0.13756 0.0
C252 C 0.29849 0.91593 0.12634 0.0
C253 C 0.30518 0.88849 0.13305 0.0
C254 C 0.2961 0.87891 0.15091 0.0
C255 C 0.28025 0.89673 0.16208 0.0
C256 C 0.27351 0.92421 0.15544 0.0
C257 C 0.17562 0.01514 0.09897 0.0
C258 C 0.15841 0.01188 0.11459 0.0
C259 C 0.20235 0.01058 0.10129 0.0
C260 C 0.21262 0.00284 0.11932 0.0
C261 C 0.19551 0.99973 0.13498 0.0
C262 C 0.16874 0.00429 0.13267 0.0
C263 C 0.24106 0.99725 0.12167 0.0
C264 C 0.24915 0.97053 0.12911 0.0
C265 C 0.26016 0.01745 0.11583 0.0
C266 C 0.25309 0.04668 0.10888 0.0
C267 C 0.23737 0.06484 0.12015 0.0
C268 C 0.23066 0.0923 0.11348 0.0
C269 C 0.2397 0.10192 0.09561 0.0
C270 C 0.25553 0.08412 0.08441 0.0
C271 C 0.26228 0.05664 0.09101 0.0
H272 H 0.23449 0.12318 0.09048 0.0
H273 H 0.3013 0.85766 0.15608 0.0
H274 H 0.63444 0.98437 0.34837 0.0
H275 H 0.67913 1.00186 0.34737 0.0
H276 H 0.70574 0.92258 0.37313 0.0
H277 H 0.6608 0.90467 0.37407 0.0
H278 H 0.7278 0.97321 0.38978 0.0
H279 H 0.71541 0.93175 0.32702 0.0
H280 H 0.69232 0.92466 0.2963 0.0
H281 H 0.70147 0.01439 0.28274 0.0
H282 H 0.72431 0.02211 0.31352 0.0
H283 H 0.86232 0.99889 0.3727 0.0
H284 H 0.81859 0.97869 0.3749 0.0
H285 H 0.78942 0.04731 0.33888 0.0
H286 H 0.83331 0.06703 0.33608 0.0
H287 H 0.76873 0.99999 0.32759 0.0
H288 H 0.77873 0.04344 0.38947 0.0
H289 H 0.79963 0.0535 0.42068 0.0
H290 H 0.79297 0.96431 0.43648 0.0
H291 H 0.77233 0.95364 0.40525 0.0
C292 C 0.64972 0.97056 0.35386 0.0
C293 C 0.64396 0.94303 0.36127 0.0
C294 C 0.67533 0.98061 0.35321 0.0
C295 C 0.69586 0.96349 0.36005 0.0
C296 C 0.69022 0.93616 0.36775 0.0
C297 C 0.66454 0.92591 0.36821 0.0
C298 C 0.72312 0.97429 0.35902 0.0
C299 C 0.73696 0.97863 0.37618 0.0
C300 C 0.73476 0.98223 0.34132 0.0
C301 C 0.72138 0.97755 0.32266 0.0
C302 C 0.71235 0.95001 0.31755 0.0
C303 C 0.69933 0.94587 0.30011 0.0
C304 C 0.69537 0.96908 0.28759 0.0
C305 C 0.70453 0.99644 0.29246 0.0
C306 C 0.71754 1.00071 0.30989 0.0
C307 C 0.84658 0.00983 0.36534 0.0
C308 C 0.8514 0.03468 0.35424 0.0
C309 C 0.82147 0.99828 0.36668 0.0
C310 C 0.80042 0.01158 0.35726 0.0
C311 C 0.8052 0.03653 0.34629 0.0
C312 C 0.83036 0.04789 0.34476 0.0
C313 C 0.7736 0.99917 0.35841 0.0
C314 C 0.75975 0.99452 0.34125 0.0
C315 C 0.76181 0.99136 0.37615 0.0
C316 C 0.77424 0.99769 0.39493 0.0
C317 C 0.78192 0.02593 0.39954 0.0
C318 C 0.79368 0.03175 0.41724 0.0
C319 C 0.79769 0.00955 0.43053 0.0
C320 C 0.78989 0.98148 0.42616 0.0
C321 C 0.77814 0.97553 0.40847 0.0
H322 H 0.8068 0.0141 0.44423 0.0
H323 H 0.68524 0.96584 0.27412 0.0
H324 H 0.87348 0.02112 0.83534 0.0
H325 H 0.82691 0.03019 0.83132 0.0
H326 H 0.81859 0.03984 0.89274 0.0
H327 H 0.86502 0.03056 0.8969 0.0
H328 H 0.77876 0.00916 0.87815 0.0
H329 H 0.82126 0.0986 0.86321 0.0
H330 H 0.85245 0.1301 0.84633 0.0
H331 H 0.81687 0.10946 0.7922 0.0
H332 H 0.78567 0.0775 0.80874 0.0
H333 H 0.65529 0.07817 0.87939 0.0
H334 H 0.70172 0.068 0.88311 0.0
H335 H 0.70941 0.05962 0.82156 0.0
H336 H 0.66313 0.07005 0.8177 0.0
H337 H 0.74954 0.08927 0.83597 0.0
H338 H 0.70685 1.0002 0.85075 0.0
H339 H 0.67572 0.96844 0.86746 0.0
H340 H 0.71162 0.98802 0.92166 0.0
H341 H 0.74277 0.02023 0.90529 0.0
C342 C 0.86174 0.02495 0.84802 0.0
C343 C 0.87312 0.02522 0.86645 0.0
C344 C 0.83509 0.0303 0.84569 0.0
C345 C 0.81921 0.03612 0.86171 0.0
C346 C 0.83038 0.0355 0.88015 0.0
C347 C 0.85701 0.03024 0.88249 0.0
C348 C 0.7911 0.04338 0.85927 0.0
C349 C 0.77241 0.02691 0.86911 0.0
C350 C 0.78264 0.06614 0.84716 0.0
C351 C 0.8013 0.08543 0.83719 0.0
C352 C 0.82021 0.1006 0.84769 0.0
C353 C 0.83787 0.11857 0.83819 0.0
C354 C 0.83669 0.12171 0.8182 0.0
C355 C 0.81779 0.10696 0.80768 0.0
C356 C 0.8001 0.08893 0.81711 0.0
C357 C 0.66687 0.07434 0.86662 0.0
C358 C 0.65536 0.07485 0.84824 0.0
C359 C 0.69343 0.06835 0.86878 0.0
C360 C 0.7091 0.06262 0.85264 0.0
C361 C 0.69779 0.06387 0.83425 0.0
C362 C 0.67125 0.06981 0.83208 0.0
C363 C 0.73718 0.05508 0.85488 0.0
C364 C 0.75587 0.07151 0.845 0.0
C365 C 0.74564 0.03224 0.86693 0.0
C366 C 0.72697 0.01286 0.87682 0.0
C367 C 0.70798 0.99792 0.86625 0.0
C368 C 0.69035 0.9798 0.87566 0.0
C369 C 0.69164 0.97628 0.89562 0.0
C370 C 0.71062 0.99081 0.90621 0.0
C371 C 0.72827 0.00898 0.89687 0.0
H372 H 0.67798 0.96224 0.90287 0.0
H373 H 0.85037 0.13564 0.81087 0.0
H374 H 0.15872 0.92756 0.58476 0.0
H375 H 0.20336 0.94523 0.58741 0.0
H376 H 0.1842 0.98691 0.64098 0.0
H377 H 0.13948 0.96937 0.63843 0.0
H378 H 0.21172 0.02258 0.61756 0.0
H379 H 0.21998 0.92589 0.64081 0.0
H380 H 0.21538 0.87304 0.63997 0.0
H381 H 0.26244 0.86949 0.58896 0.0
H382 H 0.26702 0.9224 0.58934 0.0
H383 H 0.3408 0.05069 0.65016 0.0
H384 H 0.2961 0.03357 0.6466 0.0
H385 H 0.31608 0.99444 0.59234 0.0
H386 H 0.36087 0.01161 0.59575 0.0
H387 H 0.28825 0.95756 0.61566 0.0
H388 H 0.28035 0.05441 0.59274 0.0
H389 H 0.28505 0.10724 0.59384 0.0
H390 H 0.23738 0.11043 0.64455 0.0
H391 H 0.2327 0.05753 0.64391 0.0
C392 C 0.16399 0.94035 0.59717 0.0
C393 C 0.14543 0.94695 0.6114 0.0
C394 C 0.1896 0.95039 0.5987 0.0
C395 C 0.19729 0.9673 0.61446 0.0
C396 C 0.1788 0.97393 0.62868 0.0
C397 C 0.15323 0.96374 0.62723 0.0
C398 C 0.22445 0.97844 0.61596 0.0
C399 C 0.22843 0.00831 0.61741 0.0
C400 C 0.24637 0.95996 0.6153 0.0
C401 C 0.2436 0.92815 0.61499 0.0
C402 C 0.22915 0.91387 0.62931 0.0
C403 C 0.22658 0.8839 0.62894 0.0
C404 C 0.23854 0.86792 0.61439 0.0
C405 C 0.25315 0.88189 0.6002 0.0
C406 C 0.25575 0.91188 0.6005 0.0
C407 C 0.33568 0.03864 0.63738 0.0
C408 C 0.35449 0.03261 0.62322 0.0
C409 C 0.31006 0.0289 0.63535 0.0
C410 C 0.30262 0.01279 0.61916 0.0
C411 C 0.32131 0.00681 0.60496 0.0
C412 C 0.34691 0.01679 0.60689 0.0
C413 C 0.2755 1.00168 0.61729 0.0
C414 C 0.27154 0.97183 0.61578 0.0
C415 C 0.2536 0.02016 0.61793 0.0
C416 C 0.25641 0.05197 0.61839 0.0
C417 C 0.27107 0.06634 0.60423 0.0
C418 C 0.27369 0.09631 0.60475 0.0
C419 C 0.26158 0.11217 0.61929 0.0
C420 C 0.24678 0.0981 0.63332 0.0
C421 C 0.24412 0.06813 0.63287 0.0
H422 H 0.26362 0.13538 0.61966 0.0
H423 H 0.23655 0.84471 0.61413 0.0
H424 H 0.88249 0.46493 0.10962 0.0
H425 H 0.83863 0.48547 0.11086 0.0
H426 H 0.81028 0.40777 0.1377 0.0
H427 H 0.85414 0.38722 0.13678 0.0
H428 H 0.7781 0.42839 0.1076 0.0
H429 H 0.81946 0.46321 0.16491 0.0
H430 H 0.85416 0.48717 0.18336 0.0
H431 H 0.84018 0.56601 0.15257 0.0
H432 H 0.80565 0.54235 0.1337 0.0
H433 H 0.65569 0.47345 0.14065 0.0
H434 H 0.70032 0.45596 0.13938 0.0
H435 H 0.72612 0.53934 0.11964 0.0
H436 H 0.68125 0.55728 0.12126 0.0
H437 H 0.76031 0.51721 0.14504 0.0
H438 H 0.71838 0.48289 0.08809 0.0
H439 H 0.68419 0.45879 0.0692 0.0
H440 H 0.69971 0.37915 0.09862 0.0
H441 H 0.73377 0.40288 0.11788 0.0
C442 C 0.86691 0.45211 0.11568 0.0
C443 C 0.87188 0.42439 0.12312 0.0
C444 C 0.84185 0.46396 0.11646 0.0
C445 C 0.82117 0.44825 0.12449 0.0
C446 C 0.82593 0.42031 0.13146 0.0
C447 C 0.85104 0.40861 0.13095 0.0
C448 C 0.79463 0.46102 0.1258 0.0
C449 C 0.77415 0.44762 0.11596 0.0
C450 C 0.78957 0.48655 0.1363 0.0
C451 C 0.81016 0.50091 0.14773 0.0
C452 C 0.82394 0.48558 0.16195 0.0
C453 C 0.84355 0.49912 0.17251 0.0
C454 C 0.84942 0.52807 0.1691 0.0
C455 C 0.83564 0.54356 0.15517 0.0
C456 C 0.81603 0.53011 0.14454 0.0
C457 C 0.6708 0.48821 0.13612 0.0
C458 C 0.66475 0.51676 0.13091 0.0
C459 C 0.69639 0.47809 0.13531 0.0
C460 C 0.71665 0.49609 0.12903 0.0
C461 C 0.71086 0.52493 0.12443 0.0
C462 C 0.68518 0.53517 0.12534 0.0
C463 C 0.74362 0.48446 0.12692 0.0
C464 C 0.76422 0.49806 0.1366 0.0
C465 C 0.74885 0.45913 0.11619 0.0
C466 C 0.72848 0.44474 0.10455 0.0
C467 C 0.71438 0.46029 0.09063 0.0
C468 C 0.69504 0.44669 0.07984 0.0
C469 C 0.68974 0.41748 0.08274 0.0
C470 C 0.70382 0.40178 0.0964 0.0
C471 C 0.72316 0.41529 0.10725 0.0
H472 H 0.67475 0.40698 0.07437 0.0
H473 H 0.86461 0.53851 0.1773 0.0
H474 H 0.34365 0.48998 0.38343 0.0
H475 H 0.29676 0.48253 0.38673 0.0
H476 H 0.28626 0.50338 0.32671 0.0
H477 H 0.33304 0.51112 0.32333 0.0
H478 H 0.24865 0.52784 0.34835 0.0
H479 H 0.28617 0.43365 0.34191 0.0
H480 H 0.31593 0.39376 0.35 0.0
H481 H 0.28353 0.38913 0.40691 0.0
H482 H 0.25381 0.42929 0.39924 0.0
H483 H 0.12124 0.47064 0.337 0.0
H484 H 0.16798 0.47938 0.33393 0.0
H485 H 0.17859 0.45741 0.39376 0.0
H486 H 0.13199 0.44834 0.39691 0.0
H487 H 0.21615 0.43372 0.37227 0.0
H488 H 0.17844 0.52773 0.37869 0.0
H489 H 0.14871 0.56766 0.37064 0.0
H490 H 0.1814 0.57272 0.31385 0.0
H491 H 0.21111 0.53252 0.32148 0.0
C492 C 0.33137 0.49322 0.37096 0.0
C493 C 0.34222 0.50103 0.35308 0.0
C494 C 0.30453 0.48879 0.37284 0.0
C495 C 0.28793 0.49198 0.3569 0.0
C496 C 0.29861 0.50069 0.33921 0.0
C497 C 0.32544 0.50505 0.3373 0.0
C498 C 0.25954 0.48568 0.35853 0.0
C499 C 0.24156 0.50713 0.35336 0.0
C500 C 0.25016 0.45887 0.36542 0.0
C501 C 0.26796 0.43467 0.37006 0.0
C502 C 0.28554 0.42428 0.3562 0.0
C503 C 0.30237 0.40159 0.3607 0.0
C504 C 0.30167 0.38897 0.37898 0.0
C505 C 0.28408 0.39896 0.39277 0.0
C506 C 0.26722 0.42167 0.38835 0.0
C507 C 0.13351 0.4675 0.34949 0.0
C508 C 0.12275 0.45885 0.36722 0.0
C509 C 0.16026 0.47268 0.34774 0.0
C510 C 0.17686 0.46945 0.36368 0.0
C511 C 0.16625 0.46014 0.38126 0.0
C512 C 0.13952 0.455 0.38303 0.0
C513 C 0.20523 0.47589 0.36211 0.0
C514 C 0.22322 0.45445 0.36728 0.0
C515 C 0.21461 0.50271 0.35522 0.0
C516 C 0.19681 0.52691 0.3506 0.0
C517 C 0.17915 0.5372 0.36444 0.0
C518 C 0.16232 0.55991 0.35996 0.0
C519 C 0.16312 0.57267 0.34173 0.0
C520 C 0.18079 0.56278 0.32795 0.0
C521 C 0.19763 0.54005 0.33235 0.0
H522 H 0.15008 0.59025 0.33829 0.0
H523 H 0.31472 0.3714 0.38243 0.0
H524 H 0.15203 0.58258 0.85009 0.0
H525 H 0.19661 0.56546 0.84535 0.0
H526 H 0.21079 0.57243 0.90634 0.0
H527 H 0.16646 0.58988 0.91116 0.0
H528 H 0.25148 0.59237 0.88673 0.0
H529 H 0.19931 0.50682 0.88484 0.0
H530 H 0.16369 0.47558 0.87359 0.0
H531 H 0.19528 0.47687 0.81636 0.0
H532 H 0.23091 0.50846 0.82722 0.0
H533 H 0.36853 0.51048 0.8895 0.0
H534 H 0.32363 0.52625 0.8947 0.0
H535 H 0.30896 0.52062 0.83371 0.0
H536 H 0.35362 0.50459 0.82842 0.0
H537 H 0.26848 0.49967 0.85359 0.0
H538 H 0.3204 0.58559 0.85547 0.0
H539 H 0.35601 0.61682 0.86674 0.0
H540 H 0.32484 0.61472 0.92409 0.0
H541 H 0.28922 0.58314 0.9132 0.0
C542 C 0.16466 0.58061 0.86249 0.0
C543 C 0.15553 0.58757 0.88102 0.0
C544 C 0.19015 0.57064 0.85977 0.0
C545 C 0.20708 0.56724 0.87552 0.0
C546 C 0.19818 0.57478 0.89395 0.0
C547 C 0.17273 0.58472 0.89668 0.0
C548 C 0.234 0.55574 0.87286 0.0
C549 C 0.25514 0.5719 0.87971 0.0
C550 C 0.23898 0.52929 0.86336 0.0
C551 C 0.21762 0.51025 0.8568 0.0
C552 C 0.19855 0.50063 0.86982 0.0
C553 C 0.17838 0.48283 0.86352 0.0
C554 C 0.17718 0.47431 0.84426 0.0
C555 C 0.19621 0.48352 0.83127 0.0
C556 C 0.2164 0.50136 0.83749 0.0
C557 C 0.35571 0.51237 0.8772 0.0
C558 C 0.36482 0.50635 0.85852 0.0
C559 C 0.33003 0.52157 0.88019 0.0
C560 C 0.3129 0.52506 0.86457 0.0
C561 C 0.32174 0.5182 0.846 0.0
C562 C 0.34738 0.50907 0.843 0.0
C563 C 0.28594 0.53631 0.86746 0.0
C564 C 0.26481 0.52011 0.86064 0.0
C565 C 0.28096 0.56271 0.87699 0.0
C566 C 0.30231 0.58176 0.88356 0.0
C567 C 0.32126 0.5916 0.87052 0.0
C568 C 0.34142 0.6094 0.87683 0.0
C569 C 0.34273 0.61768 0.89613 0.0
C570 C 0.32383 0.60824 0.90915 0.0
C571 C 0.30364 0.59041 0.90291 0.0
H572 H 0.35835 0.63146 0.90099 0.0
H573 H 0.16155 0.46053 0.83942 0.0
H574 H 0.63944 0.52429 0.6479 0.0
H575 H 0.6863 0.53153 0.64872 0.0
H576 H 0.69757 0.45246 0.61727 0.0
H577 H 0.65036 0.44457 0.61697 0.0
H578 H 0.73381 0.45682 0.64365 0.0
H579 H 0.70197 0.52054 0.59519 0.0
H580 H 0.67402 0.55828 0.58111 0.0
H581 H 0.70203 0.61916 0.62265 0.0
H582 H 0.7299 0.58168 0.63715 0.0
H583 H 0.86517 0.49273 0.61859 0.0
H584 H 0.81866 0.48202 0.61655 0.0
H585 H 0.80206 0.55297 0.65457 0.0
H586 H 0.84855 0.56377 0.65678 0.0
H587 H 0.76911 0.55141 0.62292 0.0
H588 H 0.80047 0.4856 0.67151 0.0
H589 H 0.82891 0.44728 0.68429 0.0
H590 H 0.80237 0.38956 0.64026 0.0
H591 H 0.77403 0.4277 0.62705 0.0
C592 C 0.65183 0.50833 0.64118 0.0
C593 C 0.64106 0.48395 0.63222 0.0
C594 C 0.67872 0.51261 0.64156 0.0
C595 C 0.69563 0.49296 0.63264 0.0
C596 C 0.68501 0.46809 0.62415 0.0
C597 C 0.658 0.46359 0.62398 0.0
C598 C 0.72426 0.49866 0.63214 0.0
C599 C 0.7415 0.47735 0.63881 0.0
C600 C 0.73452 0.52557 0.62608 0.0
C601 C 0.71786 0.54822 0.61735 0.0
C602 C 0.70203 0.54193 0.6014 0.0
C603 C 0.68623 0.56328 0.59334 0.0
C604 C 0.68621 0.59108 0.60101 0.0
C605 C 0.70205 0.59761 0.61674 0.0
C606 C 0.71788 0.57633 0.62487 0.0
C607 C 0.85165 0.50615 0.62648 0.0
C608 C 0.86068 0.52911 0.63789 0.0
C609 C 0.82504 0.49989 0.62536 0.0
C610 C 0.80682 0.51652 0.63553 0.0
C611 C 0.81572 0.53979 0.64662 0.0
C612 C 0.84234 0.5459 0.6479 0.0
C613 C 0.7785 0.50974 0.63463 0.0
C614 C 0.76136 0.53085 0.62767 0.0
C615 C 0.76841 0.48256 0.64019 0.0
C616 C 0.78534 0.4596 0.64817 0.0
C617 C 0.80086 0.46481 0.66445 0.0
C618 C 0.81693 0.44311 0.67179 0.0
C619 C 0.8175 0.41603 0.66306 0.0
C620 C 0.80194 0.41057 0.64699 0.0
C621 C 0.78586 0.43221 0.63958 0.0
H622 H 0.82995 0.39926 0.66876 0.0
H623 H 0.67395 0.60758 0.59475 0.0
H624 H 0.932 0.00234 0.29975 0.0
H625 H 0.94028 0.97759 0.26914 0.0
H626 H 0.01387 0.9472 0.29102 0.0
H627 H 1.00568 0.97156 0.32138 0.0
H628 H 0.97979 0.99523 0.24738 0.0
H629 H 0.03471 0.88876 0.26711 0.0
H630 H 0.03041 0.8486 0.29017 0.0
H631 H 0.94864 0.86536 0.29536 0.0
H632 H 0.95233 0.90534 0.27211 0.0
H633 H 0.07353 0.97529 0.18117 0.0
H634 H 0.05843 0.96605 0.21392 0.0
H635 H 0.99845 0.9102 0.19211 0.0
H636 H 0.01335 0.91934 0.15928 0.0
H637 H 0.01747 0.89901 0.23322 0.0
H638 H 0.97979 0.97116 0.1904 0.0
H639 H 0.9844 0.01014 0.16643 0.0
H640 H 0.02734 0.06059 0.20723 0.0
H641 H 0.02345 0.02158 0.2313 0.0
C642 C 0.94946 0.9895 0.29821 0.0
C643 C 0.96838 0.98916 0.31276 0.0
C644 C 0.95421 0.97545 0.28074 0.0
C645 C 0.9777 0.96056 0.2778 0.0
C646 C 0.99548 0.95819 0.293 0.0
C647 C 0.99087 0.97237 0.3103 0.0
C648 C 0.98603 0.95214 0.25819 0.0
C649 C 0.98755 0.974 0.24426 0.0
C650 C 0.99628 0.92448 0.25406 0.0
C651 C 0.99385 0.9002 0.26791 0.0
C652 C 0.01577 0.88378 0.27306 0.0
C653 C 0.01345 0.86106 0.2862 0.0
C654 C 0.98928 0.85447 0.29426 0.0
C655 C 0.96736 0.87055 0.28916 0.0
C656 C 0.96958 0.89328 0.27602 0.0
C657 C 0.05804 0.95982 0.18337 0.0
C658 C 0.04412 0.94867 0.16768 0.0
C659 C 0.04942 0.95456 0.20211 0.0
C660 C 0.027 0.93798 0.20528 0.0
C661 C 0.01571 0.92315 0.18989 0.0
C662 C 0.02419 0.92854 0.17113 0.0
C663 C 0.01184 0.94237 0.22306 0.0
C664 C 0.00916 0.91994 0.23644 0.0
C665 C 1.00013 0.96938 0.22671 0.0
C666 C 1.00151 0.99338 0.21258 0.0
C667 C 0.99032 0.99051 0.19422 0.0
C668 C 0.99281 0.0126 0.18061 0.0
C669 C 1.0062 0.03781 0.18529 0.0
C670 C 0.017 0.04103 0.20362 0.0
C671 C 0.01466 0.01895 0.21725 0.0
H672 H 0.00816 0.05486 0.17472 0.0
H673 H 0.98753 0.83688 0.30443 0.0
H674 H 0.44878 0.99158 0.18607 0.0
H675 H 0.45555 0.99882 0.22038 0.0
H676 H 0.51725 0.05913 0.20811 0.0
H677 H 0.51099 0.05122 0.1737 0.0
H678 H 0.5359 0.0153 0.226 0.0
H679 H 0.46634 0.07747 0.23927 0.0
H680 H 0.42208 0.09769 0.23782 0.0
H681 H 0.39147 0.02076 0.26367 0.0
H682 H 0.43546 0.99983 0.26502 0.0
H683 H 0.56618 0.96445 0.32131 0.0
H684 H 0.55615 0.99983 0.29601 0.0
H685 H 0.48606 0.95316 0.28227 0.0
H686 H 0.49555 0.91847 0.3075 0.0
H687 H 0.47684 0.01001 0.28227 0.0
H688 H 0.54422 0.94449 0.2565 0.0
H689 H 0.58817 0.92314 0.25693 0.0
H690 H 0.622 0.00761 0.25399 0.0
H691 H 0.57819 0.02943 0.2537 0.0
C692 C 0.46289 0.00746 0.19065 0.0
C693 C 0.47979 0.02029 0.17731 0.0
C694 C 0.46675 0.01171 0.21035 0.0
C695 C 0.48721 0.02925 0.21687 0.0
C696 C 0.50154 0.04528 0.20342 0.0
C697 C 0.49792 0.04076 0.18376 0.0
C698 C 0.49742 0.02502 0.23665 0.0
C699 C 0.52316 0.01518 0.23846 0.0
C700 C 0.48092 0.02463 0.25293 0.0
C701 C 0.4543 0.03706 0.25224 0.0
C702 C 0.45017 0.06477 0.24455 0.0
C703 C 0.42511 0.07637 0.24376 0.0
C704 C 0.40398 0.06052 0.25065 0.0
C705 C 0.40787 0.03303 0.25837 0.0
C706 C 0.43289 0.02132 0.2592 0.0
C707 C 0.54871 0.96176 0.31281 0.0
C708 C 0.53172 0.93861 0.31632 0.0
C709 C 0.54292 0.98205 0.29847 0.0
C710 C 0.52028 0.97919 0.28732 0.0
C711 C 0.50344 0.95606 0.29086 0.0
C712 C 0.50905 0.93605 0.30519 0.0
C713 C 0.51448 0.9987 0.27098 0.0
C714 C 0.48972 0.01143 0.26994 0.0
C715 C 0.53179 1.00171 0.25532 0.0
C716 C 0.55802 0.98857 0.25533 0.0
C717 C 0.56106 0.95848 0.25605 0.0
C718 C 0.58592 0.94631 0.25625 0.0
C719 C 0.60787 0.96401 0.25556 0.0
C720 C 0.60499 0.99393 0.25457 0.0
C721 C 0.58016 0.00621 0.25439 0.0
H722 H 0.6271 0.95455 0.25574 0.0
H723 H 0.3846 0.06954 0.25001 0.0
H724 H 0.98293 0.99855 0.66086 0.0
H725 H 0.97806 0.03207 0.68727 0.0
H726 H 0.06141 0.03617 0.69366 0.0
H727 H 0.06649 1.00158 0.66727 0.0
H728 H 0.04011 0.02378 0.72627 0.0
H729 H 0.02462 0.09717 0.68075 0.0
H730 H 1.00658 0.12066 0.65184 0.0
H731 H 0.92951 0.11279 0.67498 0.0
H732 H 0.94701 0.08885 0.70392 0.0
H733 H 0.01727 0.09693 0.80906 0.0
H734 H 0.02484 0.10375 0.77475 0.0
H735 H 0.95344 0.05921 0.76208 0.0
H736 H 0.94573 0.05202 0.79647 0.0
H737 H 0.97613 0.10358 0.73156 0.0
H738 H 0.99395 0.01385 0.7692 0.0
H739 H 0.01114 0.99113 0.79875 0.0
H740 H 0.08482 0.03239 0.78956 0.0
H741 H 0.06783 0.0557 0.76011 0.0
C742 C 1.00034 0.00683 0.66763 0.0
C743 C 0.02513 0.99705 0.66212 0.0
C744 C 0.9975 0.02641 0.68262 0.0
C745 C 0.01936 0.03702 0.69233 0.0
C746 C 0.04426 0.02838 0.68628 0.0
C747 C 0.04714 0.00857 0.67125 0.0
C748 C 0.01567 0.05333 0.71046 0.0
C749 C 0.02679 0.04186 0.72724 0.0
C750 C 0.9979 0.07664 0.7119 0.0
C751 C 0.98717 0.0911 0.69452 0.0
C752 C 1.0038 0.10026 0.67964 0.0
C753 C 0.99367 0.11369 0.66324 0.0
C754 C 0.96692 0.1182 0.66157 0.0
C755 C 0.95024 0.10931 0.67631 0.0
C756 C 0.96027 0.09586 0.69274 0.0
C757 C 1.00251 0.08978 0.79904 0.0
C758 C 0.98138 0.07302 0.80537 0.0
C759 C 1.00679 0.09395 0.77942 0.0
C760 C 0.98996 0.08146 0.76599 0.0
C761 C 0.96663 0.06898 0.77232 0.0
C762 C 0.96232 0.06474 0.792 0.0
C763 C 1.00019 0.07346 0.7469 0.0
C764 C 0.99016 0.08626 0.73023 0.0
C765 C 0.01906 0.05144 0.74539 0.0
C766 C 0.0296 0.03664 0.76261 0.0
C767 C 0.01379 0.0181 0.77354 0.0
C768 C 0.02347 0.00516 0.79026 0.0
C769 C 0.04904 0.01036 0.79604 0.0
C770 C 0.06501 0.02842 0.78507 0.0
C771 C 0.05537 0.0415 0.76838 0.0
H772 H 0.0565 1.00035 0.80901 0.0
H773 H 0.95911 0.12859 0.64886 0.0
H774 H 0.50277 0.97079 0.66053 0.0
H775 H 0.51256 0.96221 0.69432 0.0
H776 H 0.44175 0.00573 0.71053 0.0
H777 H 0.43203 0.01484 0.67658 0.0
H778 H 0.48323 0.03307 0.72356 0.0
H779 H 0.4537 0.93612 0.72486 0.0
H780 H 0.44908 0.88591 0.7139 0.0
H781 H 0.53105 0.87243 0.7212 0.0
H782 H 0.53626 0.9227 0.73194 0.0
H783 H 0.51072 0.99944 0.82559 0.0
H784 H 0.49866 0.97863 0.79464 0.0
H785 H 0.55832 0.02886 0.76671 0.0
H786 H 0.57056 0.04981 0.79783 0.0
H787 H 0.51907 0.95141 0.76141 0.0
H788 H 0.52645 0.06644 0.73169 0.0
H789 H 0.52889 0.11647 0.74357 0.0
H790 H 0.48569 0.09258 0.79405 0.0
H791 H 0.48261 0.04259 0.7823 0.0
C792 C 0.48874 0.97753 0.67125 0.0
C793 C 0.46695 0.99409 0.66599 0.0
C794 C 0.4943 0.97245 0.6906 0.0
C795 C 0.47807 0.98367 0.70496 0.0
C796 C 0.45461 0.99705 0.69963 0.0
C797 C 0.449 0.00212 0.68022 0.0
C798 C 0.48828 0.98694 0.72476 0.0
C799 C 0.4908 0.01508 0.73185 0.0
C800 C 0.49841 0.96357 0.73555 0.0
C801 C 0.49539 0.9333 0.72908 0.0
C802 C 0.47079 0.92254 0.72398 0.0
C803 C 0.46805 0.89404 0.71784 0.0
C804 C 0.48976 0.87601 0.71682 0.0
C805 C 0.51425 0.88643 0.72199 0.0
C806 C 0.5171 0.91492 0.72813 0.0
C807 C 0.52192 0.00522 0.81294 0.0
C808 C 0.54124 0.02657 0.81394 0.0
C809 C 0.51511 0.99317 0.7953 0.0
C810 C 0.52729 0.00262 0.77841 0.0
C811 C 0.54862 0.02148 0.77965 0.0
C812 C 0.55564 0.03337 0.7974 0.0
C813 C 0.51435 0.99744 0.75975 0.0
C814 C 0.51137 0.96916 0.75298 0.0
C815 C 0.50343 0.02059 0.74925 0.0
C816 C 0.50458 0.05075 0.75622 0.0
C817 C 0.51738 0.07193 0.74528 0.0
C818 C 0.51888 0.10026 0.75199 0.0
C819 C 0.50754 0.10767 0.76959 0.0
C820 C 0.49454 0.0868 0.78046 0.0
C821 C 0.49292 0.05847 0.77378 0.0
H822 H 0.50877 0.1296 0.77477 0.0
H823 H 0.4876 0.85395 0.71207 0.0
H824 H 0.5702 0.50164 0.17482 0.0
H825 H 0.54992 0.47836 0.20299 0.0
H826 H 0.48982 0.54328 0.203 0.0
H827 H 0.50994 0.56659 0.17551 0.0
H828 H 0.50656 0.53349 0.23821 0.0
H829 H 0.47997 0.47636 0.18347 0.0
H830 H 0.48739 0.44567 0.15506 0.0
H831 H 0.52689 0.38344 0.19033 0.0
H832 H 0.51999 0.41397 0.21893 0.0
H833 H 0.41643 0.48388 0.3005 0.0
H834 H 0.42947 0.48998 0.26696 0.0
H835 H 0.48971 0.42635 0.27449 0.0
H836 H 0.47646 0.41962 0.30786 0.0
H837 H 0.47451 0.43269 0.23559 0.0
H838 H 0.50307 0.49131 0.28965 0.0
H839 H 0.49584 0.52212 0.31803 0.0
H840 H 0.45262 0.58202 0.28336 0.0
H841 H 0.45942 0.55137 0.25479 0.0
C842 C 0.55294 0.51111 0.18111 0.0
C843 C 0.54159 0.53583 0.17294 0.0
C844 C 0.54122 0.49766 0.19701 0.0
C845 C 0.51814 0.50888 0.20487 0.0
C846 C 0.50753 0.53417 0.19713 0.0
C847 C 0.51908 0.54746 0.18138 0.0
C848 C 0.50459 0.49481 0.22118 0.0
C849 C 0.49938 0.51153 0.23751 0.0
C850 C 0.49564 0.46598 0.22044 0.0
C851 C 0.49974 0.4476 0.20329 0.0
C852 C 0.49043 0.45625 0.18514 0.0
C853 C 0.4945 0.43886 0.16901 0.0
C854 C 0.50768 0.41266 0.17088 0.0
C855 C 0.51674 0.40376 0.1889 0.0
C856 C 0.51274 0.42109 0.20507 0.0
C857 C 0.43144 0.46995 0.29476 0.0
C858 C 0.44609 0.45207 0.30697 0.0
C859 C 0.43898 0.47358 0.27557 0.0
C860 C 0.4612 0.45942 0.26857 0.0
C861 C 0.47278 0.4378 0.27973 0.0
C862 C 0.46519 0.43405 0.29886 0.0
C863 C 0.47587 0.47177 0.2522 0.0
C864 C 0.4816 0.45468 0.23611 0.0
C865 C 0.48536 0.50036 0.25304 0.0
C866 C 0.48152 0.51894 0.27015 0.0
C867 C 0.4919 0.51097 0.28812 0.0
C868 C 0.48788 0.52841 0.30423 0.0
C869 C 0.47368 0.55397 0.30252 0.0
C870 C 0.46356 0.56219 0.28467 0.0
C871 C 0.46751 0.54482 0.26851 0.0
H872 H 0.47057 0.56747 0.31497 0.0
H873 H 0.51081 0.39923 0.15837 0.0
H874 H 0.04597 0.49935 0.30052 0.0
H875 H 0.03985 0.51491 0.26733 0.0
H876 H 0.96668 0.55422 0.28266 0.0
H877 H 0.97245 0.53814 0.31585 0.0
H878 H 0.95918 0.51553 0.2567 0.0
H879 H 0.0153 0.59477 0.26061 0.0
H880 H 0.05397 0.62299 0.2696 0.0
H881 H 0.10218 0.56733 0.23555 0.0
H882 H 0.0639 0.53847 0.22657 0.0
H883 H 0.94916 0.48803 0.15686 0.0
H884 H 0.94992 0.52025 0.18481 0.0
H885 H 0.02778 0.49168 0.19812 0.0
H886 H 0.02759 0.4609 0.16999 0.0
H887 H 0.02344 0.54592 0.2075 0.0
H888 H 0.96856 0.45809 0.21765 0.0
H889 H 0.93037 0.42853 0.20914 0.0
H890 H 0.88044 0.50173 0.21718 0.0
H891 H 0.9184 0.53169 0.22567 0.0
C892 C 0.02904 0.51221 0.29699 0.0
C893 C 0.00943 0.51695 0.31068 0.0
C894 C 0.02561 0.52131 0.27798 0.0
C895 C 1.0027 0.53566 0.27244 0.0
C896 C 0.98442 0.54307 0.28657 0.0
C897 C 0.98774 0.53378 0.30554 0.0
C898 C 0.99569 0.53724 0.25175 0.0
C899 C 0.97287 0.52312 0.24594 0.0
C900 C 0.01341 0.54712 0.23765 0.0
C901 C 0.03663 0.56441 0.24291 0.0
C902 C 0.03416 0.58842 0.25511 0.0
C903 C 0.05603 0.60455 0.2602 0.0
C904 C 0.08051 0.59696 0.25314 0.0
C905 C 0.08318 0.57322 0.24097 0.0
C906 C 0.06138 0.557 0.23584 0.0
C907 C 0.96652 0.48901 0.16564 0.0
C908 C 0.98816 0.4716 0.16142 0.0
C909 C 0.96696 0.50744 0.18157 0.0
C910 C 0.98876 0.50805 0.19378 0.0
C911 C 0.01076 0.49175 0.18893 0.0
C912 C 0.01053 0.47388 0.17289 0.0
C913 C 0.98811 0.52236 0.21285 0.0
C914 C 0.00933 0.53956 0.21831 0.0
C915 C 0.96901 0.51527 0.22672 0.0
C916 C 0.94624 0.49711 0.22212 0.0
C917 C 0.94941 0.46781 0.2176 0.0
C918 C 0.92784 0.45102 0.21277 0.0
C919 C 0.903 0.46326 0.21258 0.0
C920 C 0.89969 0.49229 0.21732 0.0
C921 C 0.9212 0.50917 0.22216 0.0
H922 H 0.88633 0.45026 0.20878 0.0
H923 H 0.09742 0.60947 0.25711 0.0
H924 H 0.48122 0.51012 0.66755 0.0
H925 H 0.47471 0.53626 0.69718 0.0
H926 H 0.55763 0.53928 0.70632 0.0
H927 H 0.56442 0.51194 0.67646 0.0
H928 H 0.53451 0.52064 0.73704 0.0
H929 H 0.52106 0.60229 0.6978 0.0
H930 H 0.5045 0.63089 0.67049 0.0
H931 H 0.4262 0.61785 0.69003 0.0
H932 H 0.44222 0.5888 0.7173 0.0
H933 H 0.50662 0.57789 0.82431 0.0
H934 H 0.51526 0.59147 0.79103 0.0
H935 H 0.44573 0.54737 0.77307 0.0
H936 H 0.43698 0.53348 0.80642 0.0
H937 H 0.46944 0.59836 0.74699 0.0
H938 H 0.48615 0.5016 0.77679 0.0
H939 H 0.50177 0.47351 0.80472 0.0
H940 H 0.57486 0.51806 0.80249 0.0
H941 H 0.55943 0.54666 0.77469 0.0
C942 C 0.49823 0.51655 0.67565 0.0
C943 C 0.52339 0.50868 0.66969 0.0
C944 C 0.49443 0.53194 0.69254 0.0
C945 C 0.51567 0.54032 0.70383 0.0
C946 C 0.54096 0.53326 0.69771 0.0
C947 C 0.54481 0.51758 0.68072 0.0
C948 C 0.51078 0.55288 0.7231 0.0
C949 C 0.52094 0.53827 0.73911 0.0
C950 C 0.49271 0.57563 0.72594 0.0
C951 C 0.48288 0.59327 0.70961 0.0
C952 C 0.5003 0.60537 0.69623 0.0
C953 C 0.491 0.62168 0.68075 0.0
C954 C 0.46432 0.62617 0.67852 0.0
C955 C 0.44687 0.61438 0.69178 0.0
C956 C 0.45606 0.59804 0.70729 0.0
C957 C 0.4924 0.57241 0.81342 0.0
C958 C 0.47157 0.55389 0.81778 0.0
C959 C 0.4973 0.58037 0.79442 0.0
C960 C 0.48141 0.56989 0.77966 0.0
C961 C 0.45819 0.55563 0.78435 0.0
C962 C 0.45323 0.54764 0.80343 0.0
C963 C 0.49277 0.5656 0.7604 0.0
C964 C 0.4837 0.58151 0.74465 0.0
C965 C 0.51196 0.54419 0.75765 0.0
C966 C 0.52162 0.52632 0.77382 0.0
C967 C 0.50553 0.50539 0.78231 0.0
C968 C 0.51432 0.48942 0.79811 0.0
C969 C 0.53928 0.49403 0.8054 0.0
C970 C 0.55552 0.51454 0.79684 0.0
C971 C 0.54678 0.53062 0.78106 0.0
H972 H 0.54604 0.4817 0.81766 0.0
H973 H 0.45717 0.6388 0.66652 0.0
H974 H 0.066 0.53966 0.82741 0.0
H975 H 0.05535 0.5089 0.79982 0.0
H976 H 0.97909 0.54751 0.79681 0.0
H977 H 0.98921 0.57731 0.82449 0.0
H978 H 0.97495 0.49219 0.79056 0.0
H979 H 0.03132 0.56927 0.76745 0.0
H980 H 0.07192 0.59751 0.76659 0.0
H981 H 0.11526 0.52096 0.75334 0.0
H982 H 0.07491 0.49223 0.75434 0.0
H983 H 0.93913 0.5062 0.69293 0.0
H984 H 0.94862 0.50421 0.72733 0.0
H985 H 0.01587 0.45129 0.71603 0.0
H986 H 1.00668 0.45352 0.68161 0.0
H987 H 0.02912 0.50107 0.73182 0.0
H988 H 0.96845 0.42748 0.74659 0.0
H989 H 0.92651 0.40187 0.74603 0.0
H990 H 0.88948 0.47375 0.77357 0.0
H991 H 0.93111 0.5 0.77405 0.0
C992 C 0.047 0.54151 0.82083 0.0
C993 C 0.02852 0.56102 0.82804 0.0
C994 C 0.0409 0.5239 0.80512 0.0
C995 C 0.01644 0.526 0.79617 0.0
C996 C 0.99799 0.54528 0.80354 0.0
C997 C 1.00391 0.5625 0.81931 0.0
C998 C 0.01018 0.50964 0.77845 0.0
C999 C 0.98677 0.49406 0.77768 0.0
C1000 C 0.02598 0.51132 0.76183 0.0
C1001 C 0.0502 0.52857 0.76123 0.0
C1002 C 0.04955 0.55845 0.7645 0.0
C1003 C 0.0725 0.57454 0.76396 0.0
C1004 C 0.09617 0.56102 0.75999 0.0
C1005 C 0.09692 0.53139 0.75647 0.0
C1006 C 0.07403 0.51519 0.75702 0.0
C1007 C 0.95524 0.49306 0.69783 0.0
C1008 C 0.97248 0.48054 0.68459 0.0
C1009 C 0.96066 0.49189 0.71754 0.0
C1010 C 0.98317 0.47788 0.72422 0.0
C1011 C 0.99854 0.46241 0.71116 0.0
C1012 C 0.99323 0.4637 0.6915 0.0
C1013 C 0.99336 0.48446 0.74367 0.0
C1014 C 0.01757 0.49831 0.74478 0.0
C1015 C 0.97808 0.4815 0.76046 0.0
C1016 C 0.95294 0.46578 0.76028 0.0
C1017 C 0.95134 0.43793 0.75241 0.0
C1018 C 0.92761 0.42328 0.75212 0.0
C1019 C 0.90534 0.43619 0.75974 0.0
C1020 C 0.90676 0.46377 0.76769 0.0
C1021 C 0.93043 0.47852 0.768 0.0
H1022 H 0.88699 0.42481 0.7595 0.0
H1023 H 0.11392 0.57351 0.75957 0.0
H1024 H 0.98515 0.07673 0.12464 0.0
H1025 H 0.9708 0.12658 0.12725 0.0
H1026 H 0.04882 0.15275 0.14143 0.0
H1027 H 0.06362 0.10257 0.13867 0.0
H1028 H 0.00792 0.17812 0.16493 0.0
H1029 H 0.02965 0.16242 0.09769 0.0
H1030 H 0.02631 0.13651 0.06682 0.0
H1031 H 0.94434 0.15368 0.06494 0.0
H1032 H 0.94713 0.17933 0.09596 0.0
H1033 H 0.01642 0.3242 0.14475 0.0
H1034 H 0.01894 0.2724 0.14798 0.0
H1035 H 0.9431 0.26392 0.12212 0.0
H1036 H 0.94073 0.31667 0.11826 0.0
H1037 H 0.97598 0.22744 0.10603 0.0
H1038 H 0.95352 0.24755 0.17047 0.0
H1039 H 0.95443 0.27203 0.20192 0.0
H1040 H 0.03351 0.24524 0.21034 0.0
H1041 H 0.03324 0.22096 0.17881 0.0
C1042 C 0.99935 0.09295 0.12845 0.0
C1043 C 0.02564 0.0856 0.13135 0.0
C1044 C 0.99104 0.12149 0.1299 0.0
C1045 C 0.00876 0.14335 0.13438 0.0
C1046 C 0.03485 0.13612 0.13793 0.0
C1047 C 0.04329 0.10749 0.13629 0.0
C1048 C 1.00014 0.17386 0.13467 0.0
C1049 C 1.00118 0.18907 0.15205 0.0
C1050 C 0.99015 0.1876 0.11803 0.0
C1051 C 0.98856 0.17254 0.09924 0.0
C1052 C 0.01088 0.16049 0.09077 0.0
C1053 C 0.00909 0.14589 0.07323 0.0
C1054 C 0.98512 0.14342 0.06395 0.0
C1055 C 0.96289 0.15559 0.07216 0.0
C1056 C 0.96457 0.17018 0.08971 0.0
C1057 C 1.00002 0.31151 0.1399 0.0
C1058 C 0.97839 0.32467 0.13112 0.0
C1059 C 1.00143 0.28173 0.14195 0.0
C1060 C 0.9811 0.26411 0.13554 0.0
C1061 C 0.95901 0.2771 0.12726 0.0
C1062 C 0.95758 0.30721 0.12516 0.0
C1063 C 0.98439 0.23223 0.13626 0.0
C1064 C 0.98235 0.21657 0.11904 0.0
C1065 C 0.99306 0.21795 0.15316 0.0
C1066 C 0.99339 0.23254 0.17218 0.0
C1067 C 0.97118 0.24705 0.17895 0.0
C1068 C 0.97157 0.26087 0.19682 0.0
C1069 C 0.99402 0.26022 0.20811 0.0
C1070 C 0.01612 0.24572 0.20158 0.0
C1071 C 0.01585 0.23188 0.18372 0.0
H1072 H 0.99429 0.27093 0.22194 0.0
H1073 H 0.98377 0.13212 0.05037 0.0
H1074 H 0.53532 0.89257 0.1537 0.0
H1075 H 0.54992 0.84265 0.15225 0.0
H1076 H 0.48766 0.82287 0.11286 0.0
H1077 H 0.47241 0.87292 0.11473 0.0
H1078 H 0.4949 0.77935 0.1368 0.0
H1079 H 0.55077 0.83711 0.09711 0.0
H1080 H 0.5804 0.87738 0.0897 0.0
H1081 H 0.63412 0.84682 0.13242 0.0
H1082 H 0.60462 0.80656 0.14026 0.0
H1083 H 0.54391 0.65775 0.0916 0.0
H1084 H 0.5346 0.70872 0.09614 0.0
H1085 H 0.58774 0.71125 0.14406 0.0
H1086 H 0.5971 0.6596 0.13969 0.0
H1087 H 0.58683 0.76289 0.1179 0.0
H1088 H 0.53022 0.70311 0.15606 0.0
H1089 H 0.50046 0.66225 0.1614 0.0
H1090 H 0.44776 0.69667 0.1193 0.0
H1091 H 0.47745 0.7375 0.11346 0.0
C1092 C 0.52449 0.87752 0.14491 0.0
C1093 C 0.50283 0.88674 0.13417 0.0
C1094 C 0.53299 0.84899 0.144 0.0
C1095 C 0.52038 0.82914 0.13202 0.0
C1096 C 0.49786 0.83787 0.12209 0.0
C1097 C 0.4891 0.86644 0.1232 0.0
C1098 C 0.5312 0.79965 0.1294 0.0
C1099 C 0.51493 0.77585 0.13251 0.0
C1100 C 0.55754 0.7949 0.12416 0.0
C1101 C 0.57537 0.819 0.11941 0.0
C1102 C 0.56881 0.8391 0.10502 0.0
C1103 C 0.58559 0.8619 0.10073 0.0
C1104 C 0.60909 0.86471 0.11062 0.0
C1105 C 0.61589 0.84465 0.12479 0.0
C1106 C 0.59916 0.82182 0.12915 0.0
C1107 C 0.55413 0.66922 0.10285 0.0
C1108 C 0.57103 0.65456 0.11545 0.0
C1109 C 0.54872 0.69836 0.10544 0.0
C1110 C 0.56007 0.71355 0.12065 0.0
C1111 C 0.57868 0.69976 0.13228 0.0
C1112 C 0.58412 0.67034 0.12972 0.0
C1113 C 0.55046 0.74288 0.12521 0.0
C1114 C 0.5669 0.76655 0.1224 0.0
C1115 C 0.52423 0.74757 0.13054 0.0
C1116 C 0.50617 0.72324 0.1342 0.0
C1117 C 0.51239 0.70185 0.14783 0.0
C1118 C 0.49552 0.67871 0.15096 0.0
C1119 C 0.47226 0.67683 0.14067 0.0
C1120 C 0.4658 0.69814 0.12725 0.0
C1121 C 0.48263 0.7213 0.12403 0.0
H1122 H 0.45923 0.6589 0.14312 0.0
H1123 H 0.62206 0.88238 0.10728 0.0
H1124 H 0.51571 0.55758 0.34832 0.0
H1125 H 0.53429 0.60572 0.34867 0.0
H1126 H 0.46018 0.64094 0.36566 0.0
H1127 H 0.44112 0.59243 0.36508 0.0
H1128 H 0.48307 0.67472 0.33935 0.0
H1129 H 0.50795 0.6319 0.39886 0.0
H1130 H 0.52596 0.59437 0.42021 0.0
H1131 H 0.60046 0.60294 0.39292 0.0
H1132 H 0.58281 0.64037 0.37127 0.0
H1133 H 0.55614 0.7947 0.39081 0.0
H1134 H 0.54571 0.74328 0.39021 0.0
H1135 H 0.5519 0.74369 0.32825 0.0
H1136 H 0.56153 0.79542 0.32891 0.0
H1137 H 0.5622 0.6923 0.37848 0.0
H1138 H 0.50065 0.70769 0.30954 0.0
H1139 H 0.47911 0.74696 0.29159 0.0
H1140 H 0.47169 0.79591 0.3437 0.0
H1141 H 0.49281 0.75676 0.36199 0.0
C1142 C 0.50323 0.57549 0.35212 0.0
C1143 C 0.47692 0.57106 0.35689 0.0
C1144 C 0.51397 0.60306 0.35236 0.0
C1145 C 0.49881 0.6269 0.35757 0.0
C1146 C 0.4723 0.6228 0.36171 0.0
C1147 C 0.46143 0.59509 0.36139 0.0
C1148 C 0.51089 0.65593 0.35883 0.0
C1149 C 0.50039 0.67852 0.34788 0.0
C1150 C 0.53322 0.66111 0.37025 0.0
C1151 C 0.54399 0.63876 0.38333 0.0
C1152 C 0.52813 0.62564 0.39732 0.0
C1153 C 0.53827 0.6044 0.40949 0.0
C1154 C 0.56431 0.59619 0.40788 0.0
C1155 C 0.58028 0.60929 0.39414 0.0
C1156 C 0.57023 0.63056 0.38193 0.0
C1157 C 0.55653 0.78343 0.37717 0.0
C1158 C 0.56004 0.79876 0.35993 0.0
C1159 C 0.55035 0.7541 0.3768 0.0
C1160 C 0.54741 0.73974 0.35915 0.0
C1161 C 0.55361 0.75443 0.34202 0.0
C1162 C 0.55954 0.78385 0.34239 0.0
C1163 C 0.53476 0.71091 0.35863 0.0
C1164 C 0.54505 0.6884 0.3698 0.0
C1165 C 0.51176 0.70602 0.34786 0.0
C1166 C 0.49856 0.72944 0.33707 0.0
C1167 C 0.49431 0.72679 0.31717 0.0
C1168 C 0.48219 0.74903 0.30694 0.0
C1169 C 0.47412 0.77395 0.31649 0.0
C1170 C 0.47803 0.77663 0.33631 0.0
C1171 C 0.49007 0.75443 0.34661 0.0
H1172 H 0.46479 0.79117 0.30853 0.0
H1173 H 0.57213 0.57975 0.41732 0.0
H1174 H 0.03548 0.36412 0.3429 0.0
H1175 H 0.02447 0.3129 0.33931 0.0
H1176 H 0.9441 0.33207 0.35143 0.0
H1177 H 0.95475 0.38284 0.35496 0.0
H1178 H 0.96199 0.28621 0.3725 0.0
H1179 H 0.96164 0.31762 0.30658 0.0
H1180 H 0.97961 0.34001 0.27723 0.0
H1181 H 0.04197 0.27848 0.2769 0.0
H1182 H 0.02458 0.25597 0.30643 0.0
H1183 H 0.91937 0.14259 0.35405 0.0
H1184 H 0.92188 0.1954 0.35166 0.0
H1185 H 1.00118 0.18871 0.33188 0.0
H1186 H 0.99853 0.13673 0.33348 0.0
H1187 H 0.97936 0.22981 0.31331 0.0
H1188 H 0.98378 0.20207 0.38055 0.0
H1189 H 0.96761 0.17955 0.41045 0.0
H1190 H 0.90007 0.23393 0.40899 0.0
H1191 H 0.91573 0.25654 0.37895 0.0
C1192 C 0.01547 0.35741 0.34472 0.0
C1193 C 0.99604 0.37765 0.3492 0.0
C1194 C 0.00918 0.32818 0.3426 0.0
C1195 C 0.98341 0.31872 0.34502 0.0
C1196 C 0.96408 0.33887 0.3495 0.0
C1197 C 0.97027 0.36796 0.35145 0.0
C1198 C 0.97653 0.28774 0.34343 0.0
C1199 C 0.96546 0.27394 0.35946 0.0
C1200 C 0.98136 0.27168 0.32653 0.0
C1201 C 0.99193 0.28528 0.30883 0.0
C1202 C 0.97932 0.30903 0.30036 0.0
C1203 C 0.98938 0.3217 0.28367 0.0
C1204 C 0.01195 0.31071 0.27523 0.0
C1205 C 0.0245 0.28699 0.28347 0.0
C1206 C 0.01454 0.27425 0.30017 0.0
C1207 C 0.93713 0.15244 0.34888 0.0
C1208 C 0.9588 0.13537 0.34418 0.0
C1209 C 0.93864 0.18262 0.34765 0.0
C1210 C 0.96192 0.19615 0.34193 0.0
C1211 C 0.98302 0.17897 0.33637 0.0
C1212 C 0.98147 0.14907 0.33742 0.0
C1213 C 0.9653 0.22801 0.34254 0.0
C1214 C 0.97568 0.24208 0.32631 0.0
C1215 C 0.96015 0.24427 0.35935 0.0
C1216 C 0.95075 0.23073 0.3774 0.0
C1217 C 0.96539 0.20907 0.38654 0.0
C1218 C 0.95634 0.19631 0.40352 0.0
C1219 C 0.93279 0.20524 0.41158 0.0
C1220 C 0.91828 0.22699 0.40271 0.0
C1221 C 0.92723 0.23979 0.38571 0.0
H1222 H 0.92581 0.19534 0.42472 0.0
H1223 H 0.01969 0.32054 0.2623 0.0
H1224 H 0.08331 0.70254 0.85426 0.0
H1225 H 0.07811 0.75429 0.84687 0.0
H1226 H 1.00597 0.75537 0.87849 0.0
H1227 H 0.011 0.70462 0.88595 0.0
H1228 H 1.00101 0.77731 0.84154 0.0
H1229 H 0.05827 0.786 0.897 0.0
H1230 H 0.0991 0.77764 0.91473 0.0
H1231 H 0.1422 0.819 0.86951 0.0
H1232 H 0.10161 0.82727 0.85138 0.0
H1233 H 0.96254 0.92131 0.85854 0.0
H1234 H 0.9752 0.87049 0.85955 0.0
H1235 H 0.04893 0.8917 0.8335 0.0
H1236 H 0.03666 0.94249 0.83291 0.0
H1237 H 0.05724 0.85797 0.86263 0.0
H1238 H 1.00067 0.85433 0.80859 0.0
H1239 H 0.96063 0.86251 0.78988 0.0
H1240 H 0.91734 0.8112 0.83018 0.0
H1241 H 0.95707 0.80303 0.84929 0.0
C1242 C 0.06666 0.71404 0.85991 0.0
C1243 C 0.04745 0.69937 0.8705 0.0
C1244 C 0.06363 0.74351 0.85561 0.0
C1245 C 0.04142 0.75854 0.86192 0.0
C1246 C 0.02303 0.74415 0.87324 0.0
C1247 C 0.02603 0.71506 0.87753 0.0
C1248 C 0.03623 0.78892 0.85634 0.0
C1249 C 0.01325 0.795 0.84619 0.0
C1250 C 0.05262 0.81188 0.86183 0.0
C1251 C 0.07697 0.80691 0.87273 0.0
C1252 C 0.07648 0.79306 0.89075 0.0
C1253 C 0.09957 0.7884 0.90089 0.0
C1254 C 0.12325 0.79769 0.89322 0.0
C1255 C 0.12386 0.81175 0.87541 0.0
C1256 C 0.10082 0.81644 0.86521 0.0
C1257 C 0.98125 0.91507 0.85273 0.0
C1258 C 0.99859 0.93597 0.8457 0.0
C1259 C 0.9885 0.88598 0.85328 0.0
C1260 C 0.01304 0.87713 0.84651 0.0
C1261 C 0.02998 0.89791 0.83891 0.0
C1262 C 0.02286 0.92697 0.83851 0.0
C1263 C 0.02152 0.84652 0.84828 0.0
C1264 C 0.04513 0.84036 0.85767 0.0
C1265 C 1.00581 0.82341 0.84191 0.0
C1266 C 0.98184 0.82825 0.83046 0.0
C1267 C 0.98258 0.84497 0.81355 0.0
C1268 C 0.95994 0.84957 0.80285 0.0
C1269 C 0.93645 0.83743 0.80885 0.0
C1270 C 0.93556 0.8206 0.82555 0.0
C1271 C 0.95814 0.81595 0.83631 0.0
H1272 H 0.91894 0.84102 0.80055 0.0
H1273 H 0.1411 0.79407 0.9011 0.0
H1274 H 0.51646 0.41283 0.83049 0.0
H1275 H 0.52588 0.3616 0.82893 0.0
H1276 H 0.45384 0.34301 0.85823 0.0
H1277 H 0.44453 0.3948 0.86034 0.0
H1278 H 0.49266 0.31563 0.87499 0.0
H1279 H 0.4641 0.32547 0.80998 0.0
H1280 H 0.46203 0.3465 0.77739 0.0
H1281 H 0.54271 0.3268 0.76855 0.0
H1282 H 0.54537 0.30601 0.80121 0.0
H1283 H 0.49238 0.16599 0.86056 0.0
H1284 H 0.48328 0.21714 0.85777 0.0
H1285 H 0.56254 0.23289 0.84062 0.0
H1286 H 0.57213 0.18097 0.84358 0.0
H1287 H 0.52151 0.26141 0.8173 0.0
H1288 H 0.54907 0.25119 0.88293 0.0
H1289 H 0.54964 0.22908 0.91523 0.0
H1290 H 0.46864 0.24872 0.92235 0.0
H1291 H 0.46749 0.27057 0.88995 0.0
C1292 C 0.50233 0.3979 0.83636 0.0
C1293 C 0.47978 0.40798 0.84568 0.0
C1294 C 0.50772 0.36849 0.83533 0.0
C1295 C 0.49056 0.34832 0.84337 0.0
C1296 C 0.4674 0.35818 0.85193 0.0
C1297 C 0.46199 0.38776 0.853 0.0
C1298 C 0.49799 0.31732 0.84423 0.0
C1299 C 0.49854 0.3037 0.8623 0.0
C1300 C 0.50651 0.30192 0.82778 0.0
C1301 C 0.50499 0.31442 0.80813 0.0
C1302 C 0.48146 0.32584 0.80116 0.0
C1303 C 0.48017 0.33767 0.78266 0.0
C1304 C 0.50224 0.33805 0.77093 0.0
C1305 C 0.52563 0.32652 0.77766 0.0
C1306 C 0.52704 0.31468 0.79616 0.0
C1307 C 0.50802 0.18014 0.85614 0.0
C1308 C 0.53306 0.16929 0.85229 0.0
C1309 C 0.50272 0.20947 0.85461 0.0
C1310 C 0.52222 0.22879 0.84909 0.0
C1311 C 0.54723 0.21822 0.84492 0.0
C1312 C 0.5527 0.18865 0.84669 0.0
C1313 C 0.51603 0.25996 0.84798 0.0
C1314 C 0.51568 0.27352 0.82993 0.0
C1315 C 0.50751 0.27531 0.86439 0.0
C1316 C 0.50815 0.26229 0.88393 0.0
C1317 C 0.53132 0.25057 0.89131 0.0
C1318 C 0.53176 0.23813 0.90965 0.0
C1319 C 0.50917 0.23744 0.92082 0.0
C1320 C 0.48612 0.24925 0.91368 0.0
C1321 C 0.48557 0.26169 0.89533 0.0
H1322 H 0.50955 0.2278 0.93502 0.0
H1323 H 0.5012 0.34722 0.75661 0.0
H1324 H 0.50622 0.1276 0.64277 0.0
H1325 H 0.51477 0.17895 0.64396 0.0
H1326 H 0.44275 0.19574 0.61419 0.0
H1327 H 0.43419 0.14363 0.61257 0.0
H1328 H 0.48257 0.22431 0.59789 0.0
H1329 H 0.45067 0.21333 0.66205 0.0
H1330 H 0.44735 0.19156 0.69436 0.0
H1331 H 0.5273 0.21213 0.7054 0.0
H1332 H 0.53123 0.23368 0.67304 0.0
H1333 H 0.48415 0.3743 0.61086 0.0
H1334 H 0.47422 0.32328 0.61234 0.0
H1335 H 0.54912 0.30639 0.63781 0.0
H1336 H 0.55937 0.35824 0.63649 0.0
H1337 H 0.50786 0.27814 0.65661 0.0
H1338 H 0.53965 0.28864 0.59224 0.0
H1339 H 0.5427 0.31066 0.55998 0.0
H1340 H 0.4624 0.29107 0.54951 0.0
H1341 H 0.45876 0.26929 0.58183 0.0
C1342 C 0.49193 0.14212 0.63665 0.0
C1343 C 0.46953 0.13145 0.62747 0.0
C1344 C 0.49683 0.1716 0.63747 0.0
C1345 C 0.47935 0.19131 0.62931 0.0
C1346 C 0.4565 0.18089 0.62063 0.0
C1347 C 0.45153 0.15117 0.61981 0.0
C1348 C 0.48613 0.22246 0.62876 0.0
C1349 C 0.48762 0.23622 0.61078 0.0
C1350 C 0.49362 0.23775 0.64551 0.0
C1351 C 0.49129 0.22492 0.66503 0.0
C1352 C 0.46761 0.21303 0.6713 0.0
C1353 C 0.4656 0.20075 0.68964 0.0
C1354 C 0.48711 0.2004 0.70191 0.0
C1355 C 0.51066 0.21239 0.69588 0.0
C1356 C 0.51277 0.22468 0.67754 0.0
C1357 C 0.49868 0.3599 0.61678 0.0
C1358 C 0.52262 0.37046 0.6236 0.0
C1359 C 0.49294 0.33061 0.61752 0.0
C1360 C 0.51097 0.31098 0.62501 0.0
C1361 C 0.53494 0.32125 0.63191 0.0
C1362 C 0.54083 0.35079 0.63108 0.0
C1363 C 0.50422 0.27988 0.62577 0.0
C1364 C 0.50277 0.26618 0.64376 0.0
C1365 C 0.49672 0.26462 0.60904 0.0
C1366 C 0.49888 0.27754 0.58954 0.0
C1367 C 0.52258 0.28922 0.58312 0.0
C1368 C 0.52443 0.30163 0.56481 0.0
C1369 C 0.50275 0.30232 0.55272 0.0
C1370 C 0.47918 0.29054 0.5589 0.0
C1371 C 0.47722 0.27813 0.57721 0.0
H1372 H 0.50421 0.31195 0.53856 0.0
H1373 H 0.48553 0.19088 0.7161 0.0
H1374 H 0.99719 0.84725 0.6515 0.0
H1375 H 0.99193 0.79549 0.65357 0.0
H1376 H 0.06787 0.78343 0.62843 0.0
H1377 H 0.07297 0.836 0.62571 0.0
H1378 H 0.03359 0.75131 0.61049 0.0
H1379 H 0.05423 0.76495 0.67642 0.0
H1380 H 0.05224 0.78703 0.70863 0.0
H1381 H 0.97192 0.76315 0.71367 0.0
H1382 H 0.9733 0.74127 0.68137 0.0
H1383 H 0.02732 0.60016 0.62555 0.0
H1384 H 0.03889 0.65087 0.62755 0.0
H1385 H 0.96017 0.6719 0.64356 0.0
H1386 H 0.94822 0.62065 0.64154 0.0
H1387 H 0.99912 0.69811 0.66704 0.0
H1388 H 0.97912 0.68688 0.59971 0.0
H1389 H 0.98251 0.66413 0.56777 0.0
H1390 H 0.06422 0.68278 0.56616 0.0
H1391 H 0.06138 0.70529 0.59824 0.0
C1392 C 0.01306 0.83371 0.64667 0.0
C1393 C 0.03547 0.84582 0.63831 0.0
C1394 C 0.01007 0.80397 0.64802 0.0
C1395 C 0.02956 0.7854 0.64133 0.0
C1396 C 0.05256 0.79734 0.63374 0.0
C1397 C 0.05556 0.82735 0.63232 0.0
C1398 C 0.02454 0.75381 0.64074 0.0
C1399 C 0.02661 0.73958 0.62299 0.0
C1400 C 0.01477 0.73853 0.6569 0.0
C1401 C 0.01384 0.75162 0.67639 0.0
C1402 C 0.03608 0.76458 0.68433 0.0
C1403 C 0.03507 0.77704 0.70262 0.0
C1404 C 0.01195 0.77654 0.71317 0.0
C1405 C 0.98981 0.76353 0.70548 0.0
C1406 C 0.99071 0.75105 0.68718 0.0
C1407 C 0.01233 0.61547 0.62947 0.0
C1408 C 0.98678 0.60629 0.63339 0.0
C1409 C 0.01903 0.64452 0.63054 0.0
C1410 C 1.0004 0.66516 0.6356 0.0
C1411 C 0.97484 0.65623 0.63961 0.0
C1412 C 0.96801 0.62702 0.63836 0.0
C1413 C 0.00792 0.69598 0.6368 0.0
C1414 C 1.00631 0.70994 0.65464 0.0
C1415 C 0.01837 0.71093 0.62079 0.0
C1416 C 0.02008 0.69751 0.60146 0.0
C1417 C 0.99785 0.68591 0.59262 0.0
C1418 C 0.99967 0.6731 0.57448 0.0
C1419 C 0.02358 0.67194 0.56496 0.0
C1420 C 0.04571 0.68366 0.57356 0.0
C1421 C 0.04401 0.69647 0.59171 0.0
H1422 H 0.02494 0.66201 0.55091 0.0
H1423 H 0.01121 0.7862 0.72733 0.0
H1424 H 0.02636 0.06959 0.90819 0.0
H1425 H 0.03814 0.06486 0.94204 0.0
H1426 H 0.96849 0.01563 0.95254 0.0
H1427 H 0.95646 0.02028 0.91851 0.0
H1428 H 0.98413 0.05193 0.98402 0.0
H1429 H 0.01951 0.97985 0.94117 0.0
H1430 H 0.04318 0.96353 0.91229 0.0
H1431 H 0.11184 0.00727 0.93167 0.0
H1432 H 0.08842 0.02425 0.96052 0.0
H1433 H 0.01634 0.9616 0.05955 0.0
H1434 H 0.00881 0.97378 0.0259 0.0
H1435 H 0.07681 0.02796 0.0259 0.0
H1436 H 0.08434 0.01631 0.05994 0.0
H1437 H 0.06445 0.9929 0.98959 0.0
H1438 H 0.02991 0.06275 0.03351 0.0
H1439 H 1.00634 0.07842 0.06256 0.0
H1440 H 0.93642 0.03937 0.04131 0.0
H1441 H 0.95977 0.02279 0.01233 0.0
C1442 C 0.01312 0.05849 0.9178 0.0
C1443 C 0.99072 0.04483 0.91066 0.0
C1444 C 0.01992 0.05579 0.93712 0.0
C1445 C 1.0045 0.03932 0.94959 0.0
C1446 C 0.9807 0.02827 0.94302 0.0
C1447 C 0.97382 0.03102 0.92362 0.0
C1448 C 0.01484 0.03057 0.96856 0.0
C1449 C 1.00158 0.03892 0.98525 0.0
C1450 C 0.03794 0.01405 0.9701 0.0
C1451 C 0.05213 0.00359 0.95288 0.0
C1452 C 0.03959 0.98618 0.93919 0.0
C1453 C 0.05297 0.97679 0.92284 0.0
C1454 C 0.07898 0.98443 0.92012 0.0
C1455 C 0.09168 1.00141 0.93378 0.0
C1456 C 0.07837 0.01092 0.95013 0.0
C1457 C 0.03018 0.97546 0.0523 0.0
C1458 C 0.05066 0.98844 0.06249 0.0
C1459 C 0.02579 0.98241 0.03309 0.0
C1460 C 0.04194 0.00221 0.02369 0.0
C1461 C 0.06408 0.01277 0.03308 0.0
C1462 C 0.06842 0.00597 0.05247 0.0
C1463 C 0.03366 0.01414 0.00498 0.0
C1464 C 0.04721 0.00626 0.98835 0.0
C1465 C 0.01089 0.03116 0.0035 0.0
C1466 C 0.99668 0.04124 0.02084 0.0
C1467 C 0.00958 0.05721 0.03513 0.0
C1468 C 0.99626 0.0663 0.05157 0.0
C1469 C 0.9699 0.05988 0.05379 0.0
C1470 C 0.95684 0.04431 0.03958 0.0
C1471 C 0.97012 0.03504 0.02314 0.0
H1472 H 0.9596 0.06702 0.06651 0.0
H1473 H 0.08931 0.97713 0.90746 0.0
H1474 H 0.58005 0.0667 0.92314 0.0
H1475 H 0.57619 0.05356 0.95736 0.0
H1476 H 0.49894 0.02096 0.94702 0.0
H1477 H 0.50269 0.03354 0.91321 0.0
H1478 H 0.5403 0.07501 0.98269 0.0
H1479 H 0.48549 0.96575 0.97632 0.0
H1480 H 0.4853 0.92292 0.95537 0.0
H1481 H 0.56441 0.9396 0.93913 0.0
H1482 H 0.56522 0.98227 0.96019 0.0
H1483 H 0.46353 0.99117 0.06262 0.0
H1484 H 0.473 0.00303 0.02888 0.0
H1485 H 0.5492 0.03303 0.04518 0.0
H1486 H 0.5399 0.02165 0.07868 0.0
H1487 H 0.51205 0.97939 0.00698 0.0
H1488 H 0.56778 0.0869 0.01464 0.0
H1489 H 0.56805 0.1299 0.03547 0.0
H1490 H 0.48746 0.11665 0.04887 0.0
H1491 H 0.4866 0.07384 0.02794 0.0
C1492 C 0.56248 0.05625 0.92816 0.0
C1493 C 0.54163 0.0513 0.91555 0.0
C1494 C 0.56026 0.04889 0.94767 0.0
C1495 C 0.53735 0.03611 0.95465 0.0
C1496 C 0.51693 0.03039 0.9419 0.0
C1497 C 0.51907 0.0378 0.92257 0.0
C1498 C 0.53357 0.03054 0.97542 0.0
C1499 C 0.53468 0.05396 0.98811 0.0
C1500 C 0.52552 0.00324 0.9823 0.0
C1501 C 0.52532 0.97737 0.96974 0.0
C1502 C 0.50289 0.96021 0.96836 0.0
C1503 C 0.50267 0.93597 0.95645 0.0
C1504 C 0.52481 0.92859 0.94589 0.0
C1505 C 0.54724 0.9454 0.94727 0.0
C1506 C 0.54758 0.96964 0.95917 0.0
C1507 C 0.48209 1.00077 0.05902 0.0
C1508 C 0.50099 0.00537 0.07327 0.0
C1509 C 0.48753 0.00736 0.03977 0.0
C1510 C 0.51177 0.01895 0.03459 0.0
C1511 C 0.53029 0.02439 0.04889 0.0
C1512 C 0.52494 0.01774 0.06804 0.0
C1513 C 0.51842 0.02394 0.01416 0.0
C1514 C 0.51786 1.00037 0.00157 0.0
C1515 C 0.52703 0.05107 0.00739 0.0
C1516 C 0.52723 0.07697 0.01988 0.0
C1517 C 0.5501 0.09322 0.02199 0.0
C1518 C 0.55035 0.11756 0.03382 0.0
C1519 C 0.52781 0.12594 0.04354 0.0
C1520 C 0.50494 0.11007 0.0414 0.0
C1521 C 0.50457 0.08573 0.02958 0.0
H1522 H 0.52805 0.14478 0.0527 0.0
H1523 H 0.52459 0.90983 0.93667 0.0
H1524 H 0.43792 0.00854 0.55581 0.0
H1525 H 0.4458 0.99034 0.52315 0.0
H1526 H 0.52833 1.00139 0.53123 0.0
H1527 H 0.52076 0.01982 0.5634 0.0
H1528 H 0.51383 0.02032 0.49657 0.0
H1529 H 0.49975 0.93543 0.53596 0.0
H1530 H 0.47484 0.90433 0.55811 0.0
H1531 H 0.41293 0.89881 0.51685 0.0
H1532 H 0.43736 0.9302 0.49455 0.0
H1533 H 0.56735 0.93105 0.42338 0.0
H1534 H 0.55563 0.95288 0.45431 0.0
H1535 H 0.47455 0.93673 0.44271 0.0
H1536 H 0.48599 0.91449 0.41224 0.0
H1537 H 0.48576 0.92191 0.47826 0.0
H1538 H 0.5008 0.00443 0.438 0.0
H1539 H 0.52565 0.03541 0.41575 0.0
H1540 H 0.58538 0.04568 0.45833 0.0
H1541 H 0.56104 0.01444 0.48075 0.0
C1542 C 0.45769 0.00717 0.55056 0.0
C1543 C 0.47868 0.01551 0.56224 0.0
C1544 C 0.46218 0.99673 0.53196 0.0
C1545 C 0.48769 0.99437 0.52486 0.0
C1546 C 0.50852 0.00312 0.5364 0.0
C1547 C 0.50409 0.01354 0.55486 0.0
C1548 C 0.49315 0.98225 0.50561 0.0
C1549 C 0.50785 0.99873 0.49259 0.0
C1550 C 0.48488 0.95433 0.50032 0.0
C1551 C 0.47024 0.93542 0.51369 0.0
C1552 C 0.48073 0.92777 0.53168 0.0
C1553 C 0.46672 0.91005 0.54425 0.0
C1554 C 0.44228 0.89967 0.53892 0.0
C1555 C 0.43184 0.90692 0.52098 0.0
C1556 C 0.44576 0.92465 0.50837 0.0
C1557 C 0.54707 0.93216 0.42745 0.0
C1558 C 0.52765 0.921 0.41536 0.0
C1559 C 0.54037 0.94474 0.44506 0.0
C1560 C 0.51417 0.94664 0.4507 0.0
C1561 C 0.49486 0.93544 0.43866 0.0
C1562 C 0.50151 0.92276 0.42121 0.0
C1563 C 0.50669 0.95986 0.46926 0.0
C1564 C 0.4916 0.94359 0.48215 0.0
C1565 C 0.51457 0.98799 0.47441 0.0
C1566 C 0.5292 0.00687 0.46098 0.0
C1567 C 0.51932 0.01312 0.44256 0.0
C1568 C 0.5333 0.03076 0.42993 0.0
C1569 C 0.55711 0.04245 0.4356 0.0
C1570 C 0.56695 0.03658 0.45394 0.0
C1571 C 0.55306 0.01893 0.46663 0.0
H1572 H 0.56791 0.0561 0.4258 0.0
H1573 H 0.43147 0.88596 0.54867 0.0
H1574 H 0.98354 0.94474 0.56582 0.0
H1575 H 0.97651 0.95867 0.53262 0.0
H1576 H 0.05885 0.97221 0.52518 0.0
H1577 H 0.06619 0.95867 0.559 0.0
H1578 H 0.03036 0.01626 0.51047 0.0
H1579 H 0.02928 0.91366 0.50528 0.0
H1580 H 0.0164 0.86411 0.51387 0.0
H1581 H 0.93682 0.88404 0.50083 0.0
H1582 H 0.94916 0.93385 0.49242 0.0
H1583 H 0.0214 0.03027 0.40971 0.0
H1584 H 0.03128 0.01418 0.44215 0.0
H1585 H 0.94973 0.99998 0.45298 0.0
H1586 H 0.93951 0.01574 0.42006 0.0
H1587 H 0.97966 0.95529 0.46547 0.0
H1588 H 0.98055 0.05825 0.4718 0.0
H1589 H 0.99332 0.10789 0.46336 0.0
H1590 H 0.07331 0.0872 0.47431 0.0
H1591 H 0.06106 0.03729 0.48257 0.0
C1592 C 1.00032 0.95048 0.5572 0.0
C1593 C 0.02551 0.95052 0.5651 0.0
C1594 C 0.9962 0.9583 0.53812 0.0
C1595 C 0.01717 0.96601 0.52634 0.0
C1596 C 0.04242 0.96613 0.53406 0.0
C1597 C 0.0466 0.95835 0.55332 0.0
C1598 C 0.01217 0.97499 0.50622 0.0
C1599 C 0.01973 0.00273 0.50048 0.0
C1600 C 0.99762 0.9576 0.49343 0.0
C1601 C 0.99014 0.92757 0.49834 0.0
C1602 C 0.00901 0.90754 0.50437 0.0
C1603 C 1.00181 0.87939 0.50919 0.0
C1604 C 0.9758 0.87095 0.50793 0.0
C1605 C 0.95696 0.89062 0.5018 0.0
C1606 C 0.96405 0.9188 0.49698 0.0
C1607 C 1.00542 0.02386 0.41893 0.0
C1608 C 0.97958 0.02441 0.41229 0.0
C1609 C 0.01118 0.01477 0.43754 0.0
C1610 C 0.99124 0.0063 0.45005 0.0
C1611 C 0.96539 0.00658 0.44352 0.0
C1612 C 0.95956 0.01564 0.42477 0.0
C1613 C 0.99769 0.99662 0.46979 0.0
C1614 C 0.99041 0.96875 0.47543 0.0
C1615 C 0.0125 0.01389 0.48249 0.0
C1616 C 0.0199 0.04395 0.47764 0.0
C1617 C 1.00088 0.06422 0.47227 0.0
C1618 C 0.00803 0.09242 0.46754 0.0
C1619 C 0.03412 0.10067 0.46825 0.0
C1620 C 0.05311 0.08076 0.47374 0.0
C1621 C 0.04608 0.05253 0.47847 0.0
H1622 H 0.03961 0.12252 0.46458 0.0
H1623 H 0.97027 0.84915 0.51167 0.0
H1624 H 0.5245 0.49766 0.07759 0.0
H1625 H 0.51545 0.48667 0.04405 0.0
H1626 H 0.5884 0.52524 0.0274 0.0
H1627 H 0.59743 0.53674 0.06117 0.0
H1628 H 0.54799 0.55108 0.01043 0.0
H1629 H 0.5758 0.45386 0.01853 0.0
H1630 H 0.57849 0.4061 0.034 0.0
H1631 H 0.49674 0.39342 0.02501 0.0
H1632 H 0.49346 0.44131 0.00973 0.0
H1633 H 0.53227 0.52586 0.91135 0.0
H1634 H 0.54621 0.52674 0.94475 0.0
H1635 H 0.47186 0.49294 0.96252 0.0
H1636 H 0.45767 0.49167 0.9287 0.0
H1637 H 0.51391 0.4634 0.97851 0.0
H1638 H 0.48588 0.56129 0.97187 0.0
H1639 H 0.48303 0.6092 0.9566 0.0
H1640 H 0.56536 0.62047 0.96326 0.0
H1641 H 0.56877 0.57243 0.97834 0.0
C1642 C 0.53904 0.50294 0.06686 0.0
C1643 C 0.56148 0.51844 0.0719 0.0
C1644 C 0.53389 0.4965 0.04767 0.0
C1645 C 0.55117 0.5053 0.03321 0.0
C1646 C 0.57479 0.51835 0.03839 0.0
C1647 C 0.58002 0.52474 0.05767 0.0
C1648 C 0.54249 0.50517 0.0129 0.0
C1649 C 0.54109 0.53176 0.0033 0.0
C1650 C 0.53247 0.48018 0.00394 0.0
C1651 C 0.53436 0.45132 0.01311 0.0
C1652 C 0.55835 0.44101 0.01999 0.0
C1653 C 0.55998 0.41388 0.0287 0.0
C1654 C 0.53779 0.39676 0.03052 0.0
C1655 C 0.51392 0.40671 0.0236 0.0
C1656 C 0.51217 0.43384 0.01489 0.0
C1657 C 0.51869 0.5189 0.92234 0.0
C1658 C 0.49387 0.50862 0.91742 0.0
C1659 C 0.5267 0.5195 0.94144 0.0
C1660 C 0.51005 0.50997 0.95608 0.0
C1661 C 0.48496 0.50036 0.95136 0.0
C1662 C 0.47681 0.49989 0.93212 0.0
C1663 C 0.51956 0.50924 0.97615 0.0
C1664 C 0.52099 0.4826 0.98568 0.0
C1665 C 0.5296 0.53418 0.98511 0.0
C1666 C 0.52761 0.56314 0.97608 0.0
C1667 C 0.50341 0.57388 0.96994 0.0
C1668 C 0.50169 0.60108 0.96135 0.0
C1669 C 0.52401 0.61784 0.95892 0.0
C1670 C 0.54809 0.60745 0.96513 0.0
C1671 C 0.54993 0.58025 0.97372 0.0
H1672 H 0.52264 0.63889 0.95227 0.0
H1673 H 0.5391 0.37576 0.03726 0.0
H1674 H 0.03933 0.42431 0.06259 0.0
H1675 H 0.05025 0.44762 0.03222 0.0
H1676 H 0.97166 0.47914 0.02726 0.0
H1677 H 0.96037 0.45557 0.05778 0.0
H1678 H 0.99152 0.46021 -0.00739 0.0
H1679 H 0.0181 0.52231 0.04451 0.0
H1680 H 0.04109 0.53438 0.07457 0.0
H1681 H 0.11417 0.51415 0.04793 0.0
H1682 H 0.09156 0.50156 0.01777 0.0
H1683 H 1.00156 0.58004 0.93338 0.0
H1684 H 0.99705 0.54942 0.96153 0.0
H1685 H 0.07686 0.5223 0.95585 0.0
H1686 H 0.08169 0.55321 0.92721 0.0
H1687 H 0.06055 0.53489 -0.00551 0.0
H1688 H 0.03377 0.47732 0.94137 0.0
H1689 H 0.01032 0.46643 0.91132 0.0
H1690 H 0.93735 0.47877 0.94018 0.0
H1691 H 0.96037 0.49019 0.97034 0.0
C1692 C 0.02421 0.43595 0.055 0.0
C1693 C 0.999 0.43837 0.06273 0.0
C1694 C 0.03056 0.44931 0.03765 0.0
C1695 C 0.01191 0.46554 0.02772 0.0
C1696 C 0.98636 0.46681 0.03482 0.0
C1697 C 0.97994 0.45335 0.05223 0.0
C1698 C 0.01941 0.48216 0.01038 0.0
C1699 C 1.00646 0.47668 -0.00696 0.0
C1700 C 0.03949 0.50304 0.01087 0.0
C1701 C 0.05311 0.51068 0.02896 0.0
C1702 C 0.03905 0.5202 0.04511 0.0
C1703 C 0.05202 0.52718 0.06216 0.0
C1704 C 0.07906 0.52495 0.06318 0.0
C1705 C 0.09321 0.51581 0.04713 0.0
C1706 C 0.08034 0.50877 0.03006 0.0
C1707 C 0.01832 0.56776 0.93808 0.0
C1708 C 0.04195 0.56883 0.92788 0.0
C1709 C 0.01563 0.55019 0.95418 0.0
C1710 C 0.03644 0.53321 0.96049 0.0
C1711 C 0.06052 0.53513 0.95102 0.0
C1712 C 0.06325 0.55279 0.93473 0.0
C1713 C 0.03236 0.51324 0.97682 0.0
C1714 C 0.0459 0.51811 -0.00601 0.0
C1715 C 0.0128 0.49182 0.97619 0.0
C1716 C 0.99883 0.48482 0.9581 0.0
C1717 C 0.01273 0.47794 0.94128 0.0
C1718 C 0.99951 0.47163 0.92423 0.0
C1719 C 0.97236 0.47195 0.92383 0.0
C1720 C 0.95838 0.47853 0.9405 0.0
C1721 C 0.97151 0.48489 0.95759 0.0
H1722 H 0.96216 0.46706 0.91062 0.0
H1723 H 0.08907 0.53036 0.07638 0.0
H1724 H 0.94154 0.50782 0.56876 0.0
H1725 H 0.94827 0.50251 0.53409 0.0
H1726 H 0.01982 0.45661 0.54474 0.0
H1727 H 0.01345 0.46224 0.57932 0.0
H1728 H 0.02772 0.5 0.5206 0.0
H1729 H 0.96687 0.42255 0.52557 0.0
H1730 H 0.9259 0.39869 0.53481 0.0
H1731 H 0.88282 0.45853 0.5 0.0
H1732 H 0.92351 0.48301 0.49076 0.0
H1733 H 0.04778 0.46328 0.42074 0.0
H1734 H 0.04309 0.46421 0.45587 0.0
H1735 H 0.97172 0.51231 0.4501 0.0
H1736 H 0.9761 0.51125 0.4152 0.0
H1737 H 0.96505 0.46487 0.47183 0.0
H1738 H 0.02592 0.54349 0.46812 0.0
H1739 H 0.06695 0.56725 0.45893 0.0
H1740 H 0.11013 0.5046 0.49139 0.0
H1741 H 0.06934 0.48023 0.50057 0.0
C1742 C 0.95833 0.49593 0.56372 0.0
C1743 C 0.97707 0.48567 0.57674 0.0
C1744 C 0.96218 0.49293 0.5439 0.0
C1745 C 0.98463 0.47927 0.53685 0.0
C1746 C 1.00249 0.46743 0.54988 0.0
C1747 C 0.99875 0.47056 0.56964 0.0
C1748 C 0.99063 0.47951 0.51599 0.0
C1749 C 0.01421 0.49185 0.50994 0.0
C1750 C 0.97276 0.46948 0.5021 0.0
C1751 C 0.94824 0.45477 0.50761 0.0
C1752 C 0.94864 0.43077 0.52001 0.0
C1753 C 0.92547 0.4171 0.52522 0.0
C1754 C 0.90177 0.42713 0.51803 0.0
C1755 C 0.90119 0.4508 0.50557 0.0
C1756 C 0.92431 0.46456 0.50033 0.0
C1757 C 0.03147 0.47467 0.427 0.0
C1758 C 0.01218 0.48694 0.41524 0.0
C1759 C 0.02877 0.47511 0.44705 0.0
C1760 C 0.00691 0.4881 0.45554 0.0
C1761 C 0.98856 0.5019 0.44382 0.0
C1762 C 0.99117 0.50136 0.42388 0.0
C1763 C 1.00198 0.48565 0.47647 0.0
C1764 C 0.97862 0.47285 0.48252 0.0
C1765 C 0.02005 0.49521 0.49035 0.0
C1766 C 0.04459 0.50985 0.48485 0.0
C1767 C 0.04417 0.53463 0.47316 0.0
C1768 C 0.06739 0.54824 0.46798 0.0
C1769 C 0.09114 0.53739 0.47453 0.0
C1770 C 0.09172 0.51295 0.48631 0.0
C1771 C 0.06856 0.49924 0.49151 0.0
H1772 H 0.10909 0.54796 0.47051 0.0
H1773 H 0.88385 0.41652 0.52208 0.0
H1774 H 0.50602 0.52146 0.569 0.0
H1775 H 0.49508 0.52095 0.53486 0.0
H1776 H 0.5558 0.45882 0.5245 0.0
H1777 H 0.5669 0.45916 0.55885 0.0
H1778 H 0.54353 0.5011 0.49236 0.0
H1779 H 0.50442 0.43018 0.53485 0.0
H1780 H 0.48197 0.41559 0.5647 0.0
H1781 H 0.41744 0.47023 0.55026 0.0
H1782 H 0.43976 0.48556 0.52048 0.0
H1783 H 0.49217 0.43045 0.41285 0.0
H1784 H 0.50678 0.43479 0.44607 0.0
H1785 H 0.44303 0.49227 0.45826 0.0
H1786 H 0.42831 0.48836 0.4248 0.0
H1787 H 0.4572 0.45325 0.48932 0.0
H1788 H 0.49465 0.52267 0.44633 0.0
H1789 H 0.5169 0.53881 0.41679 0.0
H1790 H 0.58414 0.48895 0.4321 0.0
H1791 H 0.56204 0.47196 0.46155 0.0
C1792 C 0.51778 0.5086 0.55933 0.0
C1793 C 0.53699 0.48995 0.56655 0.0
C1794 C 0.51148 0.50832 0.53985 0.0
C1795 C 0.52427 0.48937 0.52737 0.0
C1796 C 0.54569 0.47349 0.53403 0.0
C1797 C 0.55208 0.47379 0.55362 0.0
C1798 C 0.51222 0.48243 0.50869 0.0
C1799 C 0.52485 0.49033 0.49163 0.0
C1800 C 0.48758 0.46889 0.50789 0.0
C1801 C 0.47387 0.45923 0.52556 0.0
C1802 C 0.48553 0.43925 0.53812 0.0
C1803 C 0.47283 0.43083 0.55502 0.0
C1804 C 0.44832 0.44203 0.5594 0.0
C1805 C 0.43644 0.4616 0.54686 0.0
C1806 C 0.4491 0.47016 0.52997 0.0
C1807 C 0.48075 0.44336 0.4227 0.0
C1808 C 0.45936 0.45951 0.41613 0.0
C1809 C 0.48922 0.44589 0.44165 0.0
C1810 C 0.47634 0.46442 0.45436 0.0
C1811 C 0.45331 0.47807 0.44851 0.0
C1812 C 0.44485 0.47568 0.42944 0.0
C1813 C 0.48854 0.47176 0.47293 0.0
C1814 C 0.47591 0.46396 0.49 0.0
C1815 C 0.51314 0.48547 0.4737 0.0
C1816 C 0.52656 0.49576 0.45604 0.0
C1817 C 0.51408 0.51489 0.44331 0.0
C1818 C 0.52668 0.52425 0.42659 0.0
C1819 C 0.5519 0.51488 0.42255 0.0
C1820 C 0.56458 0.49616 0.43524 0.0
C1821 C 0.55202 0.48664 0.45194 0.0
H1822 H 0.56164 0.52218 0.40962 0.0
H1823 H 0.43851 0.4355 0.57248 0.0
loop_
_geom_bond_atom_site_label_1
_geom_bond_atom_site_label_2
_geom_bond_distance
_geom_bond_site_symmetry_2
_ccdc_geom_bond_type
Zn0 O3 2.031 . S
Zn0 O5 2.049 . S
Zn0 O10 2.067 . S
Zn1 O2 1.962 . S
Zn1 O4 1.986 . S
Zn1 O6 1.996 . S
Zn1 O9 1.943 . S
O2 Zn1 1.962 . S
O2 C7 1.254 . S
O3 Zn0 2.031 . S
O3 C7 1.269 . S
O4 Zn1 1.986 . S
O4 C11 1.262 . S
O5 Zn0 2.049 . S
O5 C13 1.260 . S
O6 Zn1 1.996 . S
O6 C13 1.257 . S
C7 O2 1.254 . S
C7 O3 1.269 . S
C8 O9 1.249 . S
C8 O10 1.270 . S
O9 Zn1 1.943 . S
O9 C8 1.249 . S
O10 Zn0 2.067 . S
O10 C8 1.270 . S
C11 O4 1.262 . S
C11 O12 1.232 . S
O12 C11 1.232 . S
C13 O5 1.260 . S
C13 O6 1.257 . S
Zn14 O17 2.031 . S
Zn14 O19 2.049 . S
Zn14 O24 2.067 . S
Zn15 O16 1.962 . S
Zn15 O18 1.986 . S
Zn15 O20 1.996 . S
Zn15 O23 1.943 . S
O16 Zn15 1.962 . S
O16 C21 1.254 . S
O17 Zn14 2.031 . S
O17 C21 1.269 . S
O18 Zn15 1.986 . S
O18 C25 1.262 . S
O19 Zn14 2.049 . S
O19 C27 1.260 . S
O20 Zn15 1.996 . S
O20 C27 1.257 . S
C21 O16 1.254 . S
C21 O17 1.269 . S
C22 O23 1.249 . S
C22 O24 1.270 . S
O23 Zn15 1.943 . S
O23 C22 1.249 . S
O24 Zn14 2.067 . S
O24 C22 1.270 . S
C25 O18 1.262 . S
C25 O26 1.232 . S
O26 C25 1.232 . S
C27 O19 1.260 . S
C27 O20 1.257 . S
Zn28 O31 2.031 . S
Zn28 O33 2.049 . S
Zn28 O38 2.067 . S
Zn29 O30 1.962 . S
Zn29 O32 1.986 . S
Zn29 O34 1.996 . S
Zn29 O37 1.943 . S
O30 Zn29 1.962 . S
O30 C35 1.254 . S
O31 Zn28 2.031 . S
O31 C35 1.269 . S
O32 Zn29 1.986 . S
O32 C39 1.262 . S
O33 Zn28 2.049 . S
O33 C41 1.260 . S
O34 Zn29 1.996 . S
O34 C41 1.257 . S
C35 O30 1.254 . S
C35 O31 1.269 . S
C36 O37 1.249 . S
C36 O38 1.270 . S
O37 Zn29 1.943 . S
O37 C36 1.249 . S
O38 Zn28 2.067 . S
O38 C36 1.270 . S
C39 O32 1.262 . S
C39 O40 1.232 . S
O40 C39 1.232 . S
C41 O33 1.260 . S
C41 O34 1.257 . S
Zn42 O45 2.031 . S
Zn42 O47 2.049 . S
Zn42 O52 2.067 . S
Zn43 O44 1.962 . S
Zn43 O46 1.986 . S
Zn43 O48 1.996 . S
Zn43 O51 1.943 . S
O44 Zn43 1.962 . S
O44 C49 1.254 . S
O45 Zn42 2.031 . S
O45 C49 1.269 . S
O46 Zn43 1.986 . S
O46 C53 1.262 . S
O47 Zn42 2.049 . S
O47 C55 1.260 . S
O48 Zn43 1.996 . S
O48 C55 1.257 . S
C49 O44 1.254 . S
C49 O45 1.269 . S
C50 O51 1.249 . S
C50 O52 1.270 . S
O51 Zn43 1.943 . S
O51 C50 1.249 . S
O52 Zn42 2.067 . S
O52 C50 1.270 . S
C53 O46 1.262 . S
C53 O54 1.232 . S
O54 C53 1.232 . S
C55 O47 1.260 . S
C55 O48 1.257 . S
Zn56 O59 2.031 . S
Zn56 O61 2.049 . S
Zn56 O66 2.067 . S
Zn57 O58 1.962 . S
Zn57 O60 1.986 . S
Zn57 O62 1.996 . S
Zn57 O65 1.943 . S
O58 Zn57 1.962 . S
O58 C63 1.254 . S
O59 Zn56 2.031 . S
O59 C63 1.269 . S
O60 Zn57 1.986 . S
O60 C67 1.262 . S
O61 Zn56 2.049 . S
O61 C69 1.260 . S
O62 Zn57 1.996 . S
O62 C69 1.257 . S
C63 O58 1.254 . S
C63 O59 1.269 . S
C64 O65 1.249 . S
C64 O66 1.270 . S
O65 Zn57 1.943 . S
O65 C64 1.249 . S
O66 Zn56 2.067 . S
O66 C64 1.270 . S
C67 O60 1.262 . S
C67 O68 1.232 . S
O68 C67 1.232 . S
C69 O61 1.260 . S
C69 O62 1.257 . S
Zn70 O73 2.031 . S
Zn70 O75 2.049 . S
Zn70 O80 2.067 . S
Zn71 O72 1.962 . S
Zn71 O74 1.986 . S
Zn71 O76 1.996 . S
Zn71 O79 1.943 . S
O72 Zn71 1.962 . S
O72 C77 1.254 . S
O73 Zn70 2.031 . S
O73 C77 1.269 . S
O74 Zn71 1.986 . S
O74 C81 1.262 . S
O75 Zn70 2.049 . S
O75 C83 1.260 . S
O76 Zn71 1.996 . S
O76 C83 1.257 . S
C77 O72 1.254 . S
C77 O73 1.269 . S
C78 O79 1.249 . S
C78 O80 1.270 . S
O79 Zn71 1.943 . S
O79 C78 1.249 . S
O80 Zn70 2.067 . S
O80 C78 1.270 . S
C81 O74 1.262 . S
C81 O82 1.232 . S
O82 C81 1.232 . S
C83 O75 1.260 . S
C83 O76 1.257 . S
Zn84 O87 2.031 . S
Zn84 O89 2.049 . S
Zn84 O94 2.067 . S
Zn85 O86 1.962 . S
Zn85 O88 1.986 . S
Zn85 O90 1.996 . S
Zn85 O93 1.943 . S
O86 Zn85 1.962 . S
O86 C91 1.254 . S
O87 Zn84 2.031 . S
O87 C91 1.269 . S
O88 Zn85 1.986 . S
O88 C95 1.262 . S
O89 Zn84 2.049 . S
O89 C97 1.260 . S
O90 Zn85 1.996 . S
O90 C97 1.257 . S
C91 O86 1.254 . S
C91 O87 1.269 . S
C92 O93 1.249 . S
C92 O94 1.270 . S
O93 Zn85 1.943 . S
O93 C92 1.249 . S
O94 Zn84 2.067 . S
O94 C92 1.270 . S
C95 O88 1.262 . S
C95 O96 1.232 . S
O96 C95 1.232 . S
C97 O89 1.260 . S
C97 O90 1.257 . S
Zn98 O101 2.031 . S
Zn98 O103 2.049 . S
Zn98 O108 2.067 . S
Zn99 O100 1.962 . S
Zn99 O102 1.986 . S
Zn99 O104 1.996 . S
Zn99 O107 1.943 . S
O100 Zn99 1.962 . S
O100 C105 1.254 . S
O101 Zn98 2.031 . S
O101 C105 1.269 . S
O102 Zn99 1.986 . S
O102 C109 1.262 . S
O103 Zn98 2.049 . S
O103 C111 1.260 . S
O104 Zn99 1.996 . S
O104 C111 1.257 . S
C105 O100 1.254 . S
C105 O101 1.269 . S
C106 O107 1.249 . S
C106 O108 1.270 . S
O107 Zn99 1.943 . S
O107 C106 1.249 . S
O108 Zn98 2.067 . S
O108 C106 1.270 . S
C109 O102 1.262 . S
C109 O110 1.232 . S
O110 C109 1.232 . S
C111 O103 1.260 . S
C111 O104 1.257 . S
Zn112 O115 2.031 . S
Zn112 O117 2.049 . S
Zn112 O122 2.067 . S
Zn113 O114 1.962 . S
Zn113 O116 1.986 . S
Zn113 O118 1.996 . S
Zn113 O121 1.943 . S
O114 Zn113 1.962 . S
O114 C119 1.254 . S
O115 Zn112 2.031 . S
O115 C119 1.269 . S
O116 Zn113 1.986 . S
O116 C123 1.262 . S
O117 Zn112 2.049 . S
O117 C125 1.260 . S
O118 Zn113 1.996 . S
O118 C125 1.257 . S
C119 O114 1.254 . S
C119 O115 1.269 . S
C120 O121 1.249 . S
C120 O122 1.270 . S
O121 Zn113 1.943 . S
O121 C120 1.249 . S
O122 Zn112 2.067 . S
O122 C120 1.270 . S
C123 O116 1.262 . S
C123 O124 1.232 . S
O124 C123 1.232 . S
C125 O117 1.260 . S
C125 O118 1.257 . S
Zn126 O129 2.031 . S
Zn126 O131 2.049 . S
Zn126 O136 2.067 . S
Zn127 O128 1.962 . S
Zn127 O130 1.986 . S
Zn127 O132 1.996 . S
Zn127 O135 1.943 . S
O128 Zn127 1.962 . S
O128 C133 1.254 . S
O129 Zn126 2.031 . S
O129 C133 1.269 . S
O130 Zn127 1.986 . S
O130 C137 1.262 . S
O131 Zn126 2.049 . S
O131 C139 1.260 . S
O132 Zn127 1.996 . S
O132 C139 1.257 . S
C133 O128 1.254 . S
C133 O129 1.269 . S
C134 O135 1.249 . S
C134 O136 1.270 . S
O135 Zn127 1.943 . S
O135 C134 1.249 . S
O136 Zn126 2.067 . S
O136 C134 1.270 . S
C137 O130 1.262 . S
C137 O138 1.232 . S
O138 C137 1.232 . S
C139 O131 1.260 . S
C139 O132 1.257 . S
Zn140 O143 2.031 . S
Zn140 O145 2.049 . S
Zn140 O150 2.067 . S
Zn141 O142 1.962 . S
Zn141 O144 1.986 . S
Zn141 O146 1.996 . S
Zn141 O149 1.943 . S
O142 Zn141 1.962 . S
O142 C147 1.254 . S
O143 Zn140 2.031 . S
O143 C147 1.269 . S
O144 Zn141 1.986 . S
O144 C151 1.262 . S
O145 Zn140 2.049 . S
O145 C153 1.260 . S
O146 Zn141 1.996 . S
O146 C153 1.257 . S
C147 O142 1.254 . S
C147 O143 1.269 . S
C148 O149 1.249 . S
C148 O150 1.270 . S
O149 Zn141 1.943 . S
O149 C148 1.249 . S
O150 Zn140 2.067 . S
O150 C148 1.270 . S
C151 O144 1.262 . S
C151 O152 1.232 . S
O152 C151 1.232 . S
C153 O145 1.260 . S
C153 O146 1.257 . S
Zn154 O157 2.031 . S
Zn154 O159 2.049 . S
Zn154 O164 2.067 . S
Zn155 O156 1.962 . S
Zn155 O158 1.986 . S
Zn155 O160 1.996 . S
Zn155 O163 1.943 . S
O156 Zn155 1.962 . S
O156 C161 1.254 . S
O157 Zn154 2.031 . S
O157 C161 1.269 . S
O158 Zn155 1.986 . S
O158 C165 1.262 . S
O159 Zn154 2.049 . S
O159 C167 1.260 . S
O160 Zn155 1.996 . S
O160 C167 1.257 . S
C161 O156 1.254 . S
C161 O157 1.269 . S
C162 O163 1.249 . S
C162 O164 1.270 . S
O163 Zn155 1.943 . S
O163 C162 1.249 . S
O164 Zn154 2.067 . S
O164 C162 1.270 . S
C165 O158 1.262 . S
C165 O166 1.232 . S
O166 C165 1.232 . S
C167 O159 1.260 . S
C167 O160 1.257 . S
Zn168 O171 2.031 . S
Zn168 O173 2.049 . S
Zn168 O178 2.067 . S
Zn169 O170 1.962 . S
Zn169 O172 1.986 . S
Zn169 O174 1.996 . S
Zn169 O177 1.943 . S
O170 Zn169 1.962 . S
O170 C175 1.254 . S
O171 Zn168 2.031 . S
O171 C175 1.269 . S
O172 Zn169 1.986 . S
O172 C179 1.262 . S
O173 Zn168 2.049 . S
O173 C181 1.260 . S
O174 Zn169 1.996 . S
O174 C181 1.257 . S
C175 O170 1.254 . S
C175 O171 1.269 . S
C176 O177 1.249 . S
C176 O178 1.270 . S
O177 Zn169 1.943 . S
O177 C176 1.249 . S
O178 Zn168 2.067 . S
O178 C176 1.270 . S
C179 O172 1.262 . S
C179 O180 1.232 . S
O180 C179 1.232 . S
C181 O173 1.260 . S
C181 O174 1.257 . S
Zn182 O185 2.031 . S
Zn182 O187 2.049 . S
Zn182 O192 2.067 . S
Zn183 O184 1.962 . S
Zn183 O186 1.986 . S
Zn183 O188 1.996 . S
Zn183 O191 1.943 . S
O184 Zn183 1.962 . S
O184 C189 1.254 . S
O185 Zn182 2.031 . S
O185 C189 1.269 . S
O186 Zn183 1.986 . S
O186 C193 1.262 . S
O187 Zn182 2.049 . S
O187 C195 1.260 . S
O188 Zn183 1.996 . S
O188 C195 1.257 . S
C189 O184 1.254 . S
C189 O185 1.269 . S
C190 O191 1.249 . S
C190 O192 1.270 . S
O191 Zn183 1.943 . S
O191 C190 1.249 . S
O192 Zn182 2.067 . S
O192 C190 1.270 . S
C193 O186 1.262 . S
C193 O194 1.232 . S
O194 C193 1.232 . S
C195 O187 1.260 . S
C195 O188 1.257 . S
Zn196 O199 2.031 . S
Zn196 O201 2.049 . S
Zn196 O206 2.067 . S
Zn197 O198 1.962 . S
Zn197 O200 1.986 . S
Zn197 O202 1.996 . S
Zn197 O205 1.943 . S
O198 Zn197 1.962 . S
O198 C203 1.254 . S
O199 Zn196 2.031 . S
O199 C203 1.269 . S
O200 Zn197 1.986 . S
O200 C207 1.262 . S
O201 Zn196 2.049 . S
O201 C209 1.260 . S
O202 Zn197 1.996 . S
O202 C209 1.257 . S
C203 O198 1.254 . S
C203 O199 1.269 . S
C204 O205 1.249 . S
C204 O206 1.270 . S
O205 Zn197 1.943 . S
O205 C204 1.249 . S
O206 Zn196 2.067 . S
O206 C204 1.270 . S
C207 O200 1.262 . S
C207 O208 1.232 . S
O208 C207 1.232 . S
C209 O201 1.260 . S
C209 O202 1.257 . S
Zn210 O213 2.031 . S
Zn210 O215 2.049 . S
Zn210 O220 2.067 . S
Zn211 O212 1.962 . S
Zn211 O214 1.986 . S
Zn211 O216 1.996 . S
Zn211 O219 1.943 . S
O212 Zn211 1.962 . S
O212 C217 1.254 . S
O213 Zn210 2.031 . S
O213 C217 1.269 . S
O214 Zn211 1.986 . S
O214 C221 1.262 . S
O215 Zn210 2.049 . S
O215 C223 1.260 . S
O216 Zn211 1.996 . S
O216 C223 1.257 . S
C217 O212 1.254 . S
C217 O213 1.269 . S
C218 O219 1.249 . S
C218 O220 1.270 . S
O219 Zn211 1.943 . S
O219 C218 1.249 . S
O220 Zn210 2.067 . S
O220 C218 1.270 . S
C221 O214 1.262 . S
C221 O222 1.232 . S
O222 C221 1.232 . S
C223 O215 1.260 . S
C223 O216 1.257 . S
H224 C242 0.951 . S
H225 C244 0.951 . S
H226 C246 0.952 . S
H227 C247 0.950 1_545 S
H228 C249 0.950 . S
H229 C252 0.950 . S
H230 C253 0.950 . S
H231 C255 0.950 . S
H232 C256 0.950 . S
H233 C257 0.951 . S
H234 C259 0.951 . S
H235 C261 0.952 . S
H236 C262 0.950 1_565 S
H237 C264 0.950 . S
H238 C267 0.950 . S
H239 C268 0.950 . S
H240 C270 0.950 . S
H241 C271 0.950 . S
C242 H224 0.951 . S
C242 C243 1.366 . S
C242 C244 1.388 . S
C243 C242 1.366 . S
C243 C247 1.385 . S
C244 H225 0.951 . S
C244 C242 1.388 . S
C244 C245 1.366 . S
C245 C244 1.366 . S
C245 C246 1.413 1_565 S
C245 C248 1.499 . S
C246 H226 0.952 . S
C246 C245 1.413 1_545 S
C246 C247 1.373 1_545 S
C247 H227 0.950 1_565 S
C247 C243 1.385 . S
C247 C246 1.373 1_565 S
C248 C245 1.499 . S
C248 C249 1.373 1_565 S
C248 C250 1.389 . S
C249 H228 0.950 . S
C249 C248 1.373 1_545 S
C249 C265 1.377 . S
C250 C248 1.389 . S
C250 C251 1.524 . S
C250 C264 1.377 . S
C251 C250 1.524 . S
C251 C252 1.397 . S
C251 C256 1.363 . S
C252 H229 0.950 . S
C252 C251 1.397 . S
C252 C253 1.334 . S
C253 H230 0.950 . S
C253 C252 1.334 . S
C253 C254 1.287 . S
C254 C253 1.287 . S
C254 C255 1.524 . S
C254 H273 0.913 . S
C255 H231 0.950 . S
C255 C254 1.524 . S
C255 C256 1.415 . S
C256 H232 0.950 . S
C256 C251 1.363 . S
C256 C255 1.415 . S
C257 H233 0.951 . S
C257 C258 1.366 . S
C257 C259 1.388 . S
C258 C257 1.366 . S
C258 C262 1.385 . S
C259 H234 0.951 . S
C259 C257 1.388 . S
C259 C260 1.366 . S
C260 C259 1.366 . S
C260 C261 1.413 1_545 S
C260 C263 1.499 . S
C261 H235 0.952 . S
C261 C260 1.413 1_565 S
C261 C262 1.373 1_565 S
C262 H236 0.950 1_545 S
C262 C258 1.385 . S
C262 C261 1.373 1_545 S
C263 C260 1.499 . S
C263 C264 1.373 1_545 S
C263 C265 1.389 . S
C264 H237 0.950 . S
C264 C250 1.377 . S
C264 C263 1.373 1_565 S
C265 C249 1.377 . S
C265 C263 1.389 . S
C265 C266 1.524 . S
C266 C265 1.524 . S
C266 C267 1.397 . S
C266 C271 1.363 . S
C267 H238 0.950 . S
C267 C266 1.397 . S
C267 C268 1.334 . S
C268 H239 0.950 . S
C268 C267 1.334 . S
C268 C269 1.287 . S
C269 C268 1.287 . S
C269 C270 1.524 . S
C269 H272 0.999 . S
C270 H240 0.950 . S
C270 C269 1.524 . S
C270 C271 1.415 . S
C271 H241 0.950 . S
C271 C266 1.363 . S
C271 C270 1.415 . S
H272 C269 0.999 . S
H273 C254 0.913 . S
H274 C292 0.959 . S
H275 C294 0.951 1_545 S
H276 C296 0.950 . S
H277 C297 0.950 . S
H278 C299 0.950 . S
H279 C302 0.950 . S
H280 C303 0.950 . S
H281 C305 0.950 . S
H282 C306 0.950 . S
H283 C307 0.959 . S
H284 C309 0.951 1_565 S
H285 C311 0.950 . S
H286 C312 0.950 . S
H287 C314 0.950 . S
H288 C317 0.950 . S
H289 C318 0.950 . S
H290 C320 0.950 . S
H291 C321 0.950 . S
C292 H274 0.959 . S
C292 C293 1.366 . S
C292 C294 1.388 . S
C293 C292 1.366 . S
C293 C297 1.385 . S
C294 H275 0.951 1_565 S
C294 C292 1.388 . S
C294 C295 1.366 . S
C295 C294 1.366 . S
C295 C296 1.414 . S
C295 C298 1.499 . S
C296 H276 0.950 . S
C296 C295 1.414 . S
C296 C297 1.374 . S
C297 H277 0.950 . S
C297 C293 1.385 . S
C297 C296 1.374 . S
C298 C295 1.499 . S
C298 C299 1.373 . S
C298 C300 1.401 . S
C299 H278 0.950 . S
C299 C298 1.373 . S
C299 C315 1.365 1_565 S
C300 C298 1.401 . S
C300 C301 1.527 . S
C300 C314 1.365 1_565 S
C301 C300 1.527 . S
C301 C302 1.397 . S
C301 C306 1.363 1_565 S
C302 H279 0.950 . S
C302 C301 1.397 . S
C302 C303 1.334 . S
C303 H280 0.950 . S
C303 C302 1.334 . S
C303 C304 1.287 . S
C304 C303 1.287 . S
C304 C305 1.524 1_565 S
C304 H323 0.913 . S
C305 H281 0.950 . S
C305 C304 1.524 1_545 S
C305 C306 1.415 . S
C306 H282 0.950 . S
C306 C301 1.363 1_545 S
C306 C305 1.415 . S
C307 H283 0.959 . S
C307 C308 1.366 . S
C307 C309 1.388 . S
C308 C307 1.366 . S
C308 C312 1.385 . S
C309 H284 0.951 1_545 S
C309 C307 1.388 . S
C309 C310 1.366 . S
C310 C309 1.366 . S
C310 C311 1.414 . S
C310 C313 1.499 . S
C311 H285 0.950 . S
C311 C310 1.414 . S
C311 C312 1.374 . S
C312 H286 0.950 . S
C312 C308 1.385 . S
C312 C311 1.374 . S
C313 C310 1.499 . S
C313 C314 1.373 . S
C313 C315 1.401 . S
C314 H287 0.950 . S
C314 C300 1.365 1_545 S
C314 C313 1.373 . S
C315 C299 1.365 1_545 S
C315 C313 1.401 . S
C315 C316 1.527 . S
C316 C315 1.527 . S
C316 C317 1.397 . S
C316 C321 1.363 1_545 S
C317 H288 0.950 . S
C317 C316 1.397 . S
C317 C318 1.334 . S
C318 H289 0.950 . S
C318 C317 1.334 . S
C318 C319 1.287 . S
C319 C318 1.287 . S
C319 C320 1.524 1_545 S
C319 H322 0.999 . S
C320 H290 0.950 . S
C320 C319 1.524 1_565 S
C320 C321 1.415 . S
C321 H291 0.950 . S
C321 C316 1.363 1_565 S
C321 C320 1.415 . S
H322 C319 0.999 . S
H323 C304 0.913 . S
H324 C342 0.951 1_545 S
H325 C344 0.957 . S
H326 C346 0.950 . S
H327 C347 0.950 . S
H328 C349 0.950 . S
H329 C352 0.950 1_565 S
H330 C353 0.950 . S
H331 C355 0.950 . S
H332 C356 0.950 . S
H333 C357 0.951 1_565 S
H334 C359 0.957 . S
H335 C361 0.950 . S
H336 C362 0.950 . S
H337 C364 0.950 . S
H338 C367 0.950 1_545 S
H339 C368 0.950 . S
H340 C370 0.950 . S
H341 C371 0.950 . S
C342 H324 0.951 1_565 S
C342 C343 1.366 . S
C342 C344 1.386 1_565 S
C343 C342 1.366 . S
C343 C347 1.385 . S
C344 H325 0.957 . S
C344 C342 1.386 1_545 S
C344 C345 1.362 1_545 S
C345 C344 1.362 1_565 S
C345 C346 1.414 . S
C345 C348 1.499 . S
C346 H326 0.950 . S
C346 C345 1.414 . S
C346 C347 1.374 . S
C347 H327 0.950 . S
C347 C343 1.385 . S
C347 C346 1.374 . S
C348 C345 1.499 . S
C348 C349 1.373 . S
C348 C350 1.389 1_565 S
C349 H328 0.950 . S
C349 C348 1.373 . S
C349 C365 1.377 . S
C350 C348 1.389 1_545 S
C350 C351 1.524 . S
C350 C364 1.377 . S
C351 C350 1.524 . S
C351 C352 1.397 . S
C351 C356 1.363 . S
C352 H329 0.950 1_545 S
C352 C351 1.397 . S
C352 C353 1.334 . S
C353 H330 0.950 . S
C353 C352 1.334 . S
C353 C354 1.287 . S
C354 C353 1.287 . S
C354 C355 1.524 . S
C354 H373 0.913 . S
C355 H331 0.950 . S
C355 C354 1.524 . S
C355 C356 1.415 . S
C356 H332 0.950 . S
C356 C351 1.363 . S
C356 C355 1.415 . S
C357 H333 0.951 1_545 S
C357 C358 1.366 . S
C357 C359 1.386 1_545 S
C358 C357 1.366 . S
C358 C362 1.385 . S
C359 H334 0.957 . S
C359 C357 1.386 1_565 S
C359 C360 1.362 1_565 S
C360 C359 1.362 1_545 S
C360 C361 1.414 . S
C360 C363 1.499 . S
C361 H335 0.950 . S
C361 C360 1.414 . S
C361 C362 1.374 . S
C362 H336 0.950 . S
C362 C358 1.385 . S
C362 C361 1.374 . S
C363 C360 1.499 . S
C363 C364 1.373 . S
C363 C365 1.389 1_545 S
C364 H337 0.950 . S
C364 C350 1.377 . S
C364 C363 1.373 . S
C365 C349 1.377 . S
C365 C363 1.389 1_565 S
C365 C366 1.524 . S
C366 C365 1.524 . S
C366 C367 1.397 . S
C366 C371 1.363 . S
C367 H338 0.950 1_565 S
C367 C366 1.397 . S
C367 C368 1.334 . S
C368 H339 0.950 . S
C368 C367 1.334 . S
C368 C369 1.287 . S
C369 C368 1.287 . S
C369 C370 1.524 . S
C369 H372 0.999 . S
C370 H340 0.950 . S
C370 C369 1.524 . S
C370 C371 1.415 . S
C371 H341 0.950 . S
C371 C366 1.363 . S
C371 C370 1.415 . S
H372 C369 0.999 . S
H373 C354 0.913 . S
H374 C392 0.951 . S
H375 C394 0.951 . S
H376 C396 0.969 . S
H377 C397 0.950 1_545 S
H378 C399 0.950 . S
H379 C402 0.950 1_545 S
H380 C403 0.950 . S
H381 C405 0.950 . S
H382 C406 0.950 . S
H383 C407 0.951 . S
H384 C409 0.951 . S
H385 C411 0.969 . S
H386 C412 0.950 1_565 S
H387 C414 0.950 . S
H388 C417 0.950 1_565 S
H389 C418 0.950 . S
H390 C420 0.950 . S
H391 C421 0.950 . S
C392 H374 0.951 . S
C392 C393 1.366 . S
C392 C394 1.388 . S
C393 C392 1.366 . S
C393 C397 1.385 . S
C394 H375 0.951 . S
C394 C392 1.388 . S
C394 C395 1.366 . S
C395 C394 1.366 . S
C395 C396 1.402 1_565 S
C395 C398 1.499 . S
C396 H376 0.969 . S
C396 C395 1.402 1_545 S
C396 C397 1.368 1_545 S
C397 H377 0.950 1_565 S
C397 C393 1.385 . S
C397 C396 1.368 1_565 S
C398 C395 1.499 . S
C398 C399 1.373 1_565 S
C398 C400 1.389 . S
C399 H378 0.950 . S
C399 C398 1.373 1_545 S
C399 C415 1.377 . S
C400 C398 1.389 . S
C400 C401 1.524 . S
C400 C414 1.377 . S
C401 C400 1.524 . S
C401 C402 1.397 . S
C401 C406 1.363 . S
C402 H379 0.950 1_565 S
C402 C401 1.397 . S
C402 C403 1.334 . S
C403 H380 0.950 . S
C403 C402 1.334 . S
C403 C404 1.287 . S
C404 C403 1.287 . S
C404 C405 1.524 . S
C404 H423 0.913 . S
C405 H381 0.950 . S
C405 C404 1.524 . S
C405 C406 1.415 . S
C406 H382 0.950 . S
C406 C401 1.363 . S
C406 C405 1.415 . S
C407 H383 0.951 . S
C407 C408 1.366 . S
C407 C409 1.388 . S
C408 C407 1.366 . S
C408 C412 1.385 . S
C409 H384 0.951 . S
C409 C407 1.388 . S
C409 C410 1.366 . S
C410 C409 1.366 . S
C410 C411 1.402 1_545 S
C410 C413 1.499 . S
C411 H385 0.969 . S
C411 C410 1.402 1_565 S
C411 C412 1.368 1_565 S
C412 H386 0.950 1_545 S
C412 C408 1.385 . S
C412 C411 1.368 1_545 S
C413 C410 1.499 . S
C413 C414 1.373 1_545 S
C413 C415 1.389 . S
C414 H387 0.950 . S
C414 C400 1.377 . S
C414 C413 1.373 1_565 S
C415 C399 1.377 . S
C415 C413 1.389 . S
C415 C416 1.524 . S
C416 C415 1.524 . S
C416 C417 1.397 . S
C416 C421 1.363 . S
C417 H388 0.950 1_545 S
C417 C416 1.397 . S
C417 C418 1.334 . S
C418 H389 0.950 . S
C418 C417 1.334 . S
C418 C419 1.287 . S
C419 C418 1.287 . S
C419 C420 1.524 . S
C419 H422 0.999 . S
C420 H390 0.950 . S
C420 C419 1.524 . S
C420 C421 1.415 . S
C421 H391 0.950 . S
C421 C416 1.363 . S
C421 C420 1.415 . S
H422 C419 0.999 . S
H423 C404 0.913 . S
H424 C442 0.951 . S
H425 C444 0.951 . S
H426 C446 0.950 . S
H427 C447 0.950 . S
H428 C449 0.950 . S
H429 C452 0.950 . S
H430 C453 0.950 . S
H431 C455 0.950 . S
H432 C456 0.950 . S
H433 C457 0.951 . S
H434 C459 0.951 . S
H435 C461 0.950 . S
H436 C462 0.950 . S
H437 C464 0.950 . S
H438 C467 0.950 . S
H439 C468 0.950 . S
H440 C470 0.950 . S
H441 C471 0.950 . S
C442 H424 0.951 . S
C442 C443 1.366 . S
C442 C444 1.388 . S
C443 C442 1.366 . S
C443 C447 1.385 . S
C444 H425 0.951 . S
C444 C442 1.388 . S
C444 C445 1.366 . S
C445 C444 1.366 . S
C445 C446 1.414 . S
C445 C448 1.499 . S
C446 H426 0.950 . S
C446 C445 1.414 . S
C446 C447 1.374 . S
C447 H427 0.950 . S
C447 C443 1.385 . S
C447 C446 1.374 . S
C448 C445 1.499 . S
C448 C449 1.373 . S
C448 C450 1.389 . S
C449 H428 0.950 . S
C449 C448 1.373 . S
C449 C465 1.377 . S
C450 C448 1.389 . S
C450 C451 1.524 . S
C450 C464 1.377 . S
C451 C450 1.524 . S
C451 C452 1.397 . S
C451 C456 1.363 . S
C452 H429 0.950 . S
C452 C451 1.397 . S
C452 C453 1.334 . S
C453 H430 0.950 . S
C453 C452 1.334 . S
C453 C454 1.287 . S
C454 C453 1.287 . S
C454 C455 1.524 . S
C454 H473 0.913 . S
C455 H431 0.950 . S
C455 C454 1.524 . S
C455 C456 1.415 . S
C456 H432 0.950 . S
C456 C451 1.363 . S
C456 C455 1.415 . S
C457 H433 0.951 . S
C457 C458 1.366 . S
C457 C459 1.388 . S
C458 C457 1.366 . S
C458 C462 1.385 . S
C459 H434 0.951 . S
C459 C457 1.388 . S
C459 C460 1.366 . S
C460 C459 1.366 . S
C460 C461 1.414 . S
C460 C463 1.499 . S
C461 H435 0.950 . S
C461 C460 1.414 . S
C461 C462 1.374 . S
C462 H436 0.950 . S
C462 C458 1.385 . S
C462 C461 1.374 . S
C463 C460 1.499 . S
C463 C464 1.373 . S
C463 C465 1.389 . S
C464 H437 0.950 . S
C464 C450 1.377 . S
C464 C463 1.373 . S
C465 C449 1.377 . S
C465 C463 1.389 . S
C465 C466 1.524 . S
C466 C465 1.524 . S
C466 C467 1.397 . S
C466 C471 1.363 . S
C467 H438 0.950 . S
C467 C466 1.397 . S
C467 C468 1.334 . S
C468 H439 0.950 . S
C468 C467 1.334 . S
C468 C469 1.287 . S
C469 C468 1.287 . S
C469 C470 1.524 . S
C469 H472 0.999 . S
C470 H440 0.950 . S
C470 C469 1.524 . S
C470 C471 1.415 . S
C471 H441 0.950 . S
C471 C466 1.363 . S
C471 C470 1.415 . S
H472 C469 0.999 . S
H473 C454 0.913 . S
H474 C492 0.951 . S
H475 C494 0.951 . S
H476 C496 0.950 . S
H477 C497 0.950 . S
H478 C499 0.950 . S
H479 C502 0.950 . S
H480 C503 0.950 . S
H481 C505 0.950 . S
H482 C506 0.950 . S
H483 C507 0.951 . S
H484 C509 0.951 . S
H485 C511 0.950 . S
H486 C512 0.950 . S
H487 C514 0.950 . S
H488 C517 0.950 . S
H489 C518 0.950 . S
H490 C520 0.950 . S
H491 C521 0.950 . S
C492 H474 0.951 . S
C492 C493 1.366 . S
C492 C494 1.388 . S
C493 C492 1.366 . S
C493 C497 1.385 . S
C494 H475 0.951 . S
C494 C492 1.388 . S
C494 C495 1.366 . S
C495 C494 1.366 . S
C495 C496 1.414 . S
C495 C498 1.499 . S
C496 H476 0.950 . S
C496 C495 1.414 . S
C496 C497 1.374 . S
C497 H477 0.950 . S
C497 C493 1.385 . S
C497 C496 1.374 . S
C498 C495 1.499 . S
C498 C499 1.373 . S
C498 C500 1.389 . S
C499 H478 0.950 . S
C499 C498 1.373 . S
C499 C515 1.377 . S
C500 C498 1.389 . S
C500 C501 1.524 . S
C500 C514 1.377 . S
C501 C500 1.524 . S
C501 C502 1.397 . S
C501 C506 1.363 . S
C502 H479 0.950 . S
C502 C501 1.397 . S
C502 C503 1.334 . S
C503 H480 0.950 . S
C503 C502 1.334 . S
C503 C504 1.287 . S
C504 C503 1.287 . S
C504 C505 1.524 . S
C504 H523 0.913 . S
C505 H481 0.950 . S
C505 C504 1.524 . S
C505 C506 1.415 . S
C506 H482 0.950 . S
C506 C501 1.363 . S
C506 C505 1.415 . S
C507 H483 0.951 . S
C507 C508 1.366 . S
C507 C509 1.388 . S
C508 C507 1.366 . S
C508 C512 1.385 . S
C509 H484 0.951 . S
C509 C507 1.388 . S
C509 C510 1.366 . S
C510 C509 1.366 . S
C510 C511 1.414 . S
C510 C513 1.499 . S
C511 H485 0.950 . S
C511 C510 1.414 . S
C511 C512 1.374 . S
C512 H486 0.950 . S
C512 C508 1.385 . S
C512 C511 1.374 . S
C513 C510 1.499 . S
C513 C514 1.373 . S
C513 C515 1.389 . S
C514 H487 0.950 . S
C514 C500 1.377 . S
C514 C513 1.373 . S
C515 C499 1.377 . S
C515 C513 1.389 . S
C515 C516 1.524 . S
C516 C515 1.524 . S
C516 C517 1.397 . S
C516 C521 1.363 . S
C517 H488 0.950 . S
C517 C516 1.397 . S
C517 C518 1.334 . S
C518 H489 0.950 . S
C518 C517 1.334 . S
C518 C519 1.287 . S
C519 C518 1.287 . S
C519 C520 1.524 . S
C519 H522 0.999 . S
C520 H490 0.950 . S
C520 C519 1.524 . S
C520 C521 1.415 . S
C521 H491 0.950 . S
C521 C516 1.363 . S
C521 C520 1.415 . S
H522 C519 0.999 . S
H523 C504 0.913 . S
H524 C542 0.951 . S
H525 C544 0.951 . S
H526 C546 0.950 . S
H527 C547 0.950 . S
H528 C549 0.950 . S
H529 C552 0.950 . S
H530 C553 0.950 . S
H531 C555 0.950 . S
H532 C556 0.950 . S
H533 C557 0.951 . S
H534 C559 0.951 . S
H535 C561 0.950 . S
H536 C562 0.950 . S
H537 C564 0.950 . S
H538 C567 0.950 . S
H539 C568 0.950 . S
H540 C570 0.950 . S
H541 C571 0.950 . S
C542 H524 0.951 . S
C542 C543 1.366 . S
C542 C544 1.388 . S
C543 C542 1.366 . S
C543 C547 1.385 . S
C544 H525 0.951 . S
C544 C542 1.388 . S
C544 C545 1.366 . S
C545 C544 1.366 . S
C545 C546 1.414 . S
C545 C548 1.499 . S
C546 H526 0.950 . S
C546 C545 1.414 . S
C546 C547 1.374 . S
C547 H527 0.950 . S
C547 C543 1.385 . S
C547 C546 1.374 . S
C548 C545 1.499 . S
C548 C549 1.373 . S
C548 C550 1.389 . S
C549 H528 0.950 . S
C549 C548 1.373 . S
C549 C565 1.377 . S
C550 C548 1.389 . S
C550 C551 1.524 . S
C550 C564 1.377 . S
C551 C550 1.524 . S
C551 C552 1.397 . S
C551 C556 1.363 . S
C552 H529 0.950 . S
C552 C551 1.397 . S
C552 C553 1.334 . S
C553 H530 0.950 . S
C553 C552 1.334 . S
C553 C554 1.287 . S
C554 C553 1.287 . S
C554 C555 1.524 . S
C554 H573 0.913 . S
C555 H531 0.950 . S
C555 C554 1.524 . S
C555 C556 1.415 . S
C556 H532 0.950 . S
C556 C551 1.363 . S
C556 C555 1.415 . S
C557 H533 0.951 . S
C557 C558 1.366 . S
C557 C559 1.388 . S
C558 C557 1.366 . S
C558 C562 1.385 . S
C559 H534 0.951 . S
C559 C557 1.388 . S
C559 C560 1.366 . S
C560 C559 1.366 . S
C560 C561 1.414 . S
C560 C563 1.499 . S
C561 H535 0.950 . S
C561 C560 1.414 . S
C561 C562 1.374 . S
C562 H536 0.950 . S
C562 C558 1.385 . S
C562 C561 1.374 . S
C563 C560 1.499 . S
C563 C564 1.373 . S
C563 C565 1.389 . S
C564 H537 0.950 . S
C564 C550 1.377 . S
C564 C563 1.373 . S
C565 C549 1.377 . S
C565 C563 1.389 . S
C565 C566 1.524 . S
C566 C565 1.524 . S
C566 C567 1.397 . S
C566 C571 1.363 . S
C567 H538 0.950 . S
C567 C566 1.397 . S
C567 C568 1.334 . S
C568 H539 0.950 . S
C568 C567 1.334 . S
C568 C569 1.287 . S
C569 C568 1.287 . S
C569 C570 1.524 . S
C569 H572 0.999 . S
C570 H540 0.950 . S
C570 C569 1.524 . S
C570 C571 1.415 . S
C571 H541 0.950 . S
C571 C566 1.363 . S
C571 C570 1.415 . S
H572 C569 0.999 . S
H573 C554 0.913 . S
H574 C592 0.951 . S
H575 C594 0.951 . S
H576 C596 0.950 . S
H577 C597 0.950 . S
H578 C599 0.950 . S
H579 C602 0.950 . S
H580 C603 0.950 . S
H581 C605 0.950 . S
H582 C606 0.950 . S
H583 C607 0.951 . S
H584 C609 0.951 . S
H585 C611 0.950 . S
H586 C612 0.950 . S
H587 C614 0.950 . S
H588 C617 0.950 . S
H589 C618 0.950 . S
H590 C620 0.950 . S
H591 C621 0.950 . S
C592 H574 0.951 . S
C592 C593 1.366 . S
C592 C594 1.388 . S
C593 C592 1.366 . S
C593 C597 1.385 . S
C594 H575 0.951 . S
C594 C592 1.388 . S
C594 C595 1.366 . S
C595 C594 1.366 . S
C595 C596 1.414 . S
C595 C598 1.499 . S
C596 H576 0.950 . S
C596 C595 1.414 . S
C596 C597 1.374 . S
C597 H577 0.950 . S
C597 C593 1.385 . S
C597 C596 1.374 . S
C598 C595 1.499 . S
C598 C599 1.373 . S
C598 C600 1.389 . S
C599 H578 0.950 . S
C599 C598 1.373 . S
C599 C615 1.377 . S
C600 C598 1.389 . S
C600 C601 1.524 . S
C600 C614 1.377 . S
C601 C600 1.524 . S
C601 C602 1.397 . S
C601 C606 1.363 . S
C602 H579 0.950 . S
C602 C601 1.397 . S
C602 C603 1.334 . S
C603 H580 0.950 . S
C603 C602 1.334 . S
C603 C604 1.287 . S
C604 C603 1.287 . S
C604 C605 1.524 . S
C604 H623 0.913 . S
C605 H581 0.950 . S
C605 C604 1.524 . S
C605 C606 1.415 . S
C606 H582 0.950 . S
C606 C601 1.363 . S
C606 C605 1.415 . S
C607 H583 0.951 . S
C607 C608 1.366 . S
C607 C609 1.388 . S
C608 C607 1.366 . S
C608 C612 1.385 . S
C609 H584 0.951 . S
C609 C607 1.388 . S
C609 C610 1.366 . S
C610 C609 1.366 . S
C610 C611 1.414 . S
C610 C613 1.499 . S
C611 H585 0.950 . S
C611 C610 1.414 . S
C611 C612 1.374 . S
C612 H586 0.950 . S
C612 C608 1.385 . S
C612 C611 1.374 . S
C613 C610 1.499 . S
C613 C614 1.373 . S
C613 C615 1.389 . S
C614 H587 0.950 . S
C614 C600 1.377 . S
C614 C613 1.373 . S
C615 C599 1.377 . S
C615 C613 1.389 . S
C615 C616 1.524 . S
C616 C615 1.524 . S
C616 C617 1.397 . S
C616 C621 1.363 . S
C617 H588 0.950 . S
C617 C616 1.397 . S
C617 C618 1.334 . S
C618 H589 0.950 . S
C618 C617 1.334 . S
C618 C619 1.287 . S
C619 C618 1.287 . S
C619 C620 1.524 . S
C619 H622 0.999 . S
C620 H590 0.950 . S
C620 C619 1.524 . S
C620 C621 1.415 . S
C621 H591 0.950 . S
C621 C616 1.363 . S
C621 C620 1.415 . S
H622 C619 0.999 . S
H623 C604 0.913 . S
H624 C642 0.951 . S
H625 C644 0.951 . S
H626 C646 0.965 . S
H627 C647 0.950 1_455 S
H628 C649 0.950 . S
H629 C652 0.950 1_455 S
H630 C653 0.950 . S
H631 C655 0.950 . S
H632 C656 0.950 . S
H633 C657 0.951 . S
H634 C659 0.951 . S
H635 C661 0.965 . S
H636 C662 0.950 1_655 S
H637 C664 0.950 . S
H638 C667 0.950 1_655 S
H639 C668 0.950 . S
H640 C670 0.950 . S
H641 C671 0.950 . S
C642 H624 0.951 . S
C642 C643 1.366 . S
C642 C644 1.388 . S
C643 C642 1.366 . S
C643 C647 1.385 . S
C644 H625 0.951 . S
C644 C642 1.388 . S
C644 C645 1.366 . S
C645 C644 1.366 . S
C645 C646 1.404 1_655 S
C645 C648 1.499 . S
C646 H626 0.965 . S
C646 C645 1.404 1_455 S
C646 C647 1.369 1_455 S
C647 H627 0.950 1_655 S
C647 C643 1.385 . S
C647 C646 1.369 1_655 S
C648 C645 1.499 . S
C648 C649 1.373 1_655 S
C648 C650 1.389 . S
C649 H628 0.950 . S
C649 C648 1.373 1_455 S
C649 C665 1.377 . S
C650 C648 1.389 . S
C650 C651 1.524 1_545 S
C650 C664 1.377 . S
C651 C650 1.524 1_565 S
C651 C652 1.397 . S
C651 C656 1.363 . S
C652 H629 0.950 1_655 S
C652 C651 1.397 . S
C652 C653 1.334 . S
C653 H630 0.950 . S
C653 C652 1.334 . S
C653 C654 1.287 . S
C654 C653 1.287 . S
C654 C655 1.524 . S
C654 H673 0.913 . S
C655 H631 0.950 . S
C655 C654 1.524 . S
C655 C656 1.415 . S
C656 H632 0.950 . S
C656 C651 1.363 . S
C656 C655 1.415 . S
C657 H633 0.951 . S
C657 C658 1.366 . S
C657 C659 1.388 . S
C658 C657 1.366 . S
C658 C662 1.385 . S
C659 H634 0.951 . S
C659 C657 1.388 . S
C659 C660 1.366 . S
C660 C659 1.366 . S
C660 C661 1.404 1_455 S
C660 C663 1.499 . S
C661 H635 0.965 . S
C661 C660 1.404 1_655 S
C661 C662 1.369 1_655 S
C662 H636 0.950 1_455 S
C662 C658 1.385 . S
C662 C661 1.369 1_455 S
C663 C660 1.499 . S
C663 C664 1.373 1_455 S
C663 C665 1.389 . S
C664 H637 0.950 . S
C664 C650 1.377 . S
C664 C663 1.373 1_655 S
C665 C649 1.377 . S
C665 C663 1.389 . S
C665 C666 1.524 . S
C666 C665 1.524 . S
C666 C667 1.397 . S
C666 C671 1.363 . S
C667 H638 0.950 1_455 S
C667 C666 1.397 . S
C667 C668 1.334 . S
C668 H639 0.950 . S
C668 C667 1.334 . S
C668 C669 1.287 . S
C669 C668 1.287 . S
C669 C670 1.524 . S
C669 H672 0.999 . S
C670 H640 0.950 . S
C670 C669 1.524 . S
C670 C671 1.415 . S
C671 H641 0.950 . S
C671 C666 1.363 . S
C671 C670 1.415 . S
H672 C669 0.999 . S
H673 C654 0.913 . S
H674 C692 0.951 . S
H675 C694 0.951 . S
H676 C696 0.950 . S
H677 C697 0.950 . S
H678 C699 0.950 . S
H679 C702 0.950 . S
H680 C703 0.950 . S
H681 C705 0.950 . S
H682 C706 0.950 . S
H683 C707 0.951 . S
H684 C709 0.951 . S
H685 C711 0.950 . S
H686 C712 0.950 . S
H687 C714 0.950 . S
H688 C717 0.950 . S
H689 C718 0.950 . S
H690 C720 0.950 1_545 S
H691 C721 0.950 . S
C692 H674 0.951 . S
C692 C693 1.366 . S
C692 C694 1.388 . S
C693 C692 1.366 . S
C693 C697 1.385 . S
C694 H675 0.951 . S
C694 C692 1.388 . S
C694 C695 1.366 . S
C695 C694 1.366 . S
C695 C696 1.414 . S
C695 C698 1.499 . S
C696 H676 0.950 . S
C696 C695 1.414 . S
C696 C697 1.374 . S
C697 H677 0.950 . S
C697 C693 1.385 . S
C697 C696 1.374 . S
C698 C695 1.499 . S
C698 C699 1.373 . S
C698 C700 1.389 . S
C699 H678 0.950 . S
C699 C698 1.373 . S
C699 C715 1.377 . S
C700 C698 1.389 . S
C700 C701 1.524 . S
C700 C714 1.377 . S
C701 C700 1.524 . S
C701 C702 1.397 . S
C701 C706 1.363 . S
C702 H679 0.950 . S
C702 C701 1.397 . S
C702 C703 1.334 . S
C703 H680 0.950 . S
C703 C702 1.334 . S
C703 C704 1.287 . S
C704 C703 1.287 . S
C704 C705 1.524 . S
C704 H723 0.913 . S
C705 H681 0.950 . S
C705 C704 1.524 . S
C705 C706 1.415 . S
C706 H682 0.950 . S
C706 C701 1.363 . S
C706 C705 1.415 . S
C707 H683 0.951 . S
C707 C708 1.366 . S
C707 C709 1.388 . S
C708 C707 1.366 . S
C708 C712 1.385 . S
C709 H684 0.951 . S
C709 C707 1.388 . S
C709 C710 1.366 . S
C710 C709 1.366 . S
C710 C711 1.414 . S
C710 C713 1.499 . S
C711 H685 0.950 . S
C711 C710 1.414 . S
C711 C712 1.374 . S
C712 H686 0.950 . S
C712 C708 1.385 . S
C712 C711 1.374 . S
C713 C710 1.499 . S
C713 C714 1.373 . S
C713 C715 1.389 . S
C714 H687 0.950 . S
C714 C700 1.377 . S
C714 C713 1.373 . S
C715 C699 1.377 . S
C715 C713 1.389 . S
C715 C716 1.524 . S
C716 C715 1.524 . S
C716 C717 1.397 . S
C716 C721 1.363 . S
C717 H688 0.950 . S
C717 C716 1.397 . S
C717 C718 1.334 . S
C718 H689 0.950 . S
C718 C717 1.334 . S
C718 C719 1.287 . S
C719 C718 1.287 . S
C719 C720 1.524 . S
C719 H722 0.999 . S
C720 H690 0.950 1_565 S
C720 C719 1.524 . S
C720 C721 1.415 . S
C721 H691 0.950 . S
C721 C716 1.363 . S
C721 C720 1.415 . S
H722 C719 0.999 . S
H723 C704 0.913 . S
H724 C742 0.951 1_655 S
H725 C744 0.957 . S
H726 C746 0.950 . S
H727 C747 0.950 . S
H728 C749 0.950 . S
H729 C752 0.950 1_455 S
H730 C753 0.950 . S
H731 C755 0.950 . S
H732 C756 0.949 . S
H733 C757 0.951 1_455 S
H734 C759 0.957 . S
H735 C761 0.950 . S
H736 C762 0.950 . S
H737 C764 0.950 . S
H738 C767 0.950 1_655 S
H739 C768 0.950 . S
H740 C770 0.950 . S
H741 C771 0.950 . S
C742 H724 0.951 1_455 S
C742 C743 1.366 . S
C742 C744 1.386 1_455 S
C743 C742 1.366 . S
C743 C747 1.385 . S
C744 H725 0.957 . S
C744 C742 1.386 1_655 S
C744 C745 1.362 1_655 S
C745 C744 1.362 1_455 S
C745 C746 1.414 . S
C745 C748 1.499 . S
C746 H726 0.950 . S
C746 C745 1.414 . S
C746 C747 1.374 . S
C747 H727 0.950 . S
C747 C743 1.385 . S
C747 C746 1.374 . S
C748 C745 1.499 . S
C748 C749 1.373 . S
C748 C750 1.389 1_455 S
C749 H728 0.950 . S
C749 C748 1.373 . S
C749 C765 1.377 . S
C750 C748 1.389 1_655 S
C750 C751 1.524 . S
C750 C764 1.377 . S
C751 C750 1.524 . S
C751 C752 1.397 1_565 S
C751 C756 1.362 . S
C752 H729 0.950 1_655 S
C752 C751 1.397 1_545 S
C752 C753 1.334 . S
C753 H730 0.950 . S
C753 C752 1.334 . S
C753 C754 1.287 . S
C754 C753 1.287 . S
C754 C755 1.524 . S
C754 H773 0.913 . S
C755 H731 0.950 . S
C755 C754 1.524 . S
C755 C756 1.417 1_545 S
C756 H732 0.949 . S
C756 C751 1.362 . S
C756 C755 1.417 1_565 S
C757 H733 0.951 1_655 S
C757 C758 1.366 . S
C757 C759 1.386 1_655 S
C758 C757 1.366 . S
C758 C762 1.385 . S
C759 H734 0.957 . S
C759 C757 1.386 1_455 S
C759 C760 1.362 1_455 S
C760 C759 1.362 1_655 S
C760 C761 1.414 . S
C760 C763 1.499 . S
C761 H735 0.950 . S
C761 C760 1.414 . S
C761 C762 1.374 . S
C762 H736 0.950 . S
C762 C758 1.385 . S
C762 C761 1.374 . S
C763 C760 1.499 . S
C763 C764 1.373 . S
C763 C765 1.389 1_655 S
C764 H737 0.950 . S
C764 C750 1.377 . S
C764 C763 1.373 . S
C765 C749 1.377 . S
C765 C763 1.389 1_455 S
C765 C766 1.524 . S
C766 C765 1.524 . S
C766 C767 1.397 . S
C766 C771 1.363 . S
C767 H738 0.950 1_455 S
C767 C766 1.397 . S
C767 C768 1.334 . S
C768 H739 0.950 . S
C768 C767 1.334 . S
C768 C769 1.287 . S
C769 C768 1.287 . S
C769 C770 1.524 . S
C769 H772 0.999 . S
C770 H740 0.950 . S
C770 C769 1.524 . S
C770 C771 1.415 . S
C771 H741 0.950 . S
C771 C766 1.363 . S
C771 C770 1.415 . S
H772 C769 0.999 . S
H773 C754 0.913 . S
H774 C792 0.951 . S
H775 C794 0.951 . S
H776 C796 0.950 . S
H777 C797 0.950 . S
H778 C799 0.950 . S
H779 C802 0.950 . S
H780 C803 0.950 . S
H781 C805 0.950 . S
H782 C806 0.950 . S
H783 C807 0.951 . S
H784 C809 0.951 . S
H785 C811 0.984 . S
H786 C812 0.950 . S
H787 C814 0.950 . S
H788 C817 0.950 . S
H789 C818 0.950 . S
H790 C820 0.950 . S
H791 C821 0.950 . S
C792 H774 0.951 . S
C792 C793 1.366 . S
C792 C794 1.388 . S
C793 C792 1.366 . S
C793 C797 1.385 . S
C794 H775 0.951 . S
C794 C792 1.388 . S
C794 C795 1.366 . S
C795 C794 1.366 . S
C795 C796 1.414 . S
C795 C798 1.499 . S
C796 H776 0.950 . S
C796 C795 1.414 . S
C796 C797 1.374 . S
C797 H777 0.950 . S
C797 C793 1.385 . S
C797 C796 1.374 . S
C798 C795 1.499 . S
C798 C799 1.373 . S
C798 C800 1.389 . S
C799 H778 0.950 . S
C799 C798 1.373 . S
C799 C815 1.377 . S
C800 C798 1.389 . S
C800 C801 1.524 . S
C800 C814 1.377 . S
C801 C800 1.524 . S
C801 C802 1.397 . S
C801 C806 1.363 1_545 S
C802 H779 0.950 . S
C802 C801 1.397 . S
C802 C803 1.334 . S
C803 H780 0.950 . S
C803 C802 1.334 . S
C803 C804 1.287 1_545 S
C804 C803 1.287 1_565 S
C804 C805 1.524 . S
C804 H823 0.913 . S
C805 H781 0.950 . S
C805 C804 1.524 . S
C805 C806 1.415 . S
C806 H782 0.950 . S
C806 C801 1.363 1_565 S
C806 C805 1.415 . S
C807 H783 0.951 . S
C807 C808 1.366 . S
C807 C809 1.388 . S
C808 C807 1.366 . S
C808 C812 1.385 . S
C809 H784 0.951 . S
C809 C807 1.388 . S
C809 C810 1.366 . S
C810 C809 1.366 . S
C810 C811 1.414 . S
C810 C813 1.499 . S
C811 H785 0.984 . S
C811 C810 1.414 . S
C811 C812 1.374 . S
C812 H786 0.950 . S
C812 C808 1.385 . S
C812 C811 1.374 . S
C813 C810 1.499 . S
C813 C814 1.373 . S
C813 C815 1.389 . S
C814 H787 0.950 . S
C814 C800 1.377 . S
C814 C813 1.373 . S
C815 C799 1.377 . S
C815 C813 1.389 . S
C815 C816 1.524 . S
C816 C815 1.524 . S
C816 C817 1.397 . S
C816 C821 1.363 . S
C817 H788 0.950 . S
C817 C816 1.397 . S
C817 C818 1.334 . S
C818 H789 0.950 . S
C818 C817 1.334 . S
C818 C819 1.287 . S
C819 C818 1.287 . S
C819 C820 1.524 . S
C819 H822 0.999 . S
C820 H790 0.950 . S
C820 C819 1.524 . S
C820 C821 1.415 . S
C821 H791 0.950 . S
C821 C816 1.363 . S
C821 C820 1.415 . S
H822 C819 0.999 . S
H823 C804 0.913 . S
H824 C842 0.951 . S
H825 C844 0.951 . S
H826 C846 0.950 . S
H827 C847 0.950 . S
H828 C849 0.950 . S
H829 C852 0.950 . S
H830 C853 0.950 . S
H831 C855 0.950 . S
H832 C856 0.950 . S
H833 C857 0.951 . S
H834 C859 0.951 . S
H835 C861 0.950 . S
H836 C862 0.950 . S
H837 C864 0.950 . S
H838 C867 0.950 . S
H839 C868 0.950 . S
H840 C870 0.950 . S
H841 C871 0.950 . S
C842 H824 0.951 . S
C842 C843 1.366 . S
C842 C844 1.388 . S
C843 C842 1.366 . S
C843 C847 1.385 . S
C844 H825 0.951 . S
C844 C842 1.388 . S
C844 C845 1.366 . S
C845 C844 1.366 . S
C845 C846 1.414 . S
C845 C848 1.499 . S
C846 H826 0.950 . S
C846 C845 1.414 . S
C846 C847 1.374 . S
C847 H827 0.950 . S
C847 C843 1.385 . S
C847 C846 1.374 . S
C848 C845 1.499 . S
C848 C849 1.373 . S
C848 C850 1.389 . S
C849 H828 0.950 . S
C849 C848 1.373 . S
C849 C865 1.377 . S
C850 C848 1.389 . S
C850 C851 1.524 . S
C850 C864 1.377 . S
C851 C850 1.524 . S
C851 C852 1.397 . S
C851 C856 1.363 . S
C852 H829 0.950 . S
C852 C851 1.397 . S
C852 C853 1.334 . S
C853 H830 0.950 . S
C853 C852 1.334 . S
C853 C854 1.287 . S
C854 C853 1.287 . S
C854 C855 1.524 . S
C854 H873 0.913 . S
C855 H831 0.950 . S
C855 C854 1.524 . S
C855 C856 1.415 . S
C856 H832 0.950 . S
C856 C851 1.363 . S
C856 C855 1.415 . S
C857 H833 0.951 . S
C857 C858 1.366 . S
C857 C859 1.388 . S
C858 C857 1.366 . S
C858 C862 1.385 . S
C859 H834 0.951 . S
C859 C857 1.388 . S
C859 C860 1.366 . S
C860 C859 1.366 . S
C860 C861 1.414 . S
C860 C863 1.499 . S
C861 H835 0.950 . S
C861 C860 1.414 . S
C861 C862 1.374 . S
C862 H836 0.950 . S
C862 C858 1.385 . S
C862 C861 1.374 . S
C863 C860 1.499 . S
C863 C864 1.373 . S
C863 C865 1.389 . S
C864 H837 0.950 . S
C864 C850 1.377 . S
C864 C863 1.373 . S
C865 C849 1.377 . S
C865 C863 1.389 . S
C865 C866 1.524 . S
C866 C865 1.524 . S
C866 C867 1.397 . S
C866 C871 1.363 . S
C867 H838 0.950 . S
C867 C866 1.397 . S
C867 C868 1.334 . S
C868 H839 0.950 . S
C868 C867 1.334 . S
C868 C869 1.287 . S
C869 C868 1.287 . S
C869 C870 1.524 . S
C869 H872 0.999 . S
C870 H840 0.950 . S
C870 C869 1.524 . S
C870 C871 1.415 . S
C871 H841 0.950 . S
C871 C866 1.363 . S
C871 C870 1.415 . S
H872 C869 0.999 . S
H873 C854 0.913 . S
H874 C892 0.951 . S
H875 C894 0.951 . S
H876 C896 0.955 1_655 S
H877 C897 0.950 1_655 S
H878 C899 0.950 . S
H879 C902 0.950 . S
H880 C903 0.950 . S
H881 C905 0.950 . S
H882 C906 0.950 . S
H883 C907 0.951 . S
H884 C909 0.951 . S
H885 C911 0.955 1_455 S
H886 C912 0.950 1_455 S
H887 C914 0.950 . S
H888 C917 0.950 . S
H889 C918 0.950 . S
H890 C920 0.950 . S
H891 C921 0.950 . S
C892 H874 0.951 . S
C892 C893 1.366 . S
C892 C894 1.388 . S
C893 C892 1.366 . S
C893 C897 1.385 . S
C894 H875 0.951 . S
C894 C892 1.388 . S
C894 C895 1.366 . S
C895 C894 1.366 . S
C895 C896 1.411 . S
C895 C898 1.499 . S
C896 H876 0.955 1_455 S
C896 C895 1.411 . S
C896 C897 1.372 . S
C897 H877 0.950 1_455 S
C897 C893 1.385 . S
C897 C896 1.372 . S
C898 C895 1.499 . S
C898 C899 1.373 1_455 S
C898 C900 1.389 . S
C899 H878 0.950 . S
C899 C898 1.373 1_655 S
C899 C915 1.377 . S
C900 C898 1.389 . S
C900 C901 1.524 . S
C900 C914 1.377 . S
C901 C900 1.524 . S
C901 C902 1.397 . S
C901 C906 1.363 . S
C902 H879 0.950 . S
C902 C901 1.397 . S
C902 C903 1.334 . S
C903 H880 0.950 . S
C903 C902 1.334 . S
C903 C904 1.287 . S
C904 C903 1.287 . S
C904 C905 1.524 . S
C904 H923 0.913 . S
C905 H881 0.950 . S
C905 C904 1.524 . S
C905 C906 1.415 . S
C906 H882 0.950 . S
C906 C901 1.363 . S
C906 C905 1.415 . S
C907 H883 0.951 . S
C907 C908 1.366 . S
C907 C909 1.388 . S
C908 C907 1.366 . S
C908 C912 1.385 . S
C909 H884 0.951 . S
C909 C907 1.388 . S
C909 C910 1.366 . S
C910 C909 1.366 . S
C910 C911 1.411 . S
C910 C913 1.499 . S
C911 H885 0.955 1_655 S
C911 C910 1.411 . S
C911 C912 1.372 . S
C912 H886 0.950 1_655 S
C912 C908 1.385 . S
C912 C911 1.372 . S
C913 C910 1.499 . S
C913 C914 1.373 1_655 S
C913 C915 1.389 . S
C914 H887 0.950 . S
C914 C900 1.377 . S
C914 C913 1.373 1_455 S
C915 C899 1.377 . S
C915 C913 1.389 . S
C915 C916 1.524 . S
C916 C915 1.524 . S
C916 C917 1.397 . S
C916 C921 1.363 . S
C917 H888 0.950 . S
C917 C916 1.397 . S
C917 C918 1.334 . S
C918 H889 0.950 . S
C918 C917 1.334 . S
C918 C919 1.287 . S
C919 C918 1.287 . S
C919 C920 1.524 . S
C919 H922 0.999 . S
C920 H890 0.950 . S
C920 C919 1.524 . S
C920 C921 1.415 . S
C921 H891 0.950 . S
C921 C916 1.363 . S
C921 C920 1.415 . S
H922 C919 0.999 . S
H923 C904 0.913 . S
H924 C942 0.951 . S
H925 C944 0.951 . S
H926 C946 0.950 . S
H927 C947 0.950 . S
H928 C949 0.950 . S
H929 C952 0.950 . S
H930 C953 0.950 . S
H931 C955 0.950 . S
H932 C956 0.950 . S
H933 C957 0.951 . S
H934 C959 0.951 . S
H935 C961 0.950 . S
H936 C962 0.950 . S
H937 C964 0.950 . S
H938 C967 0.950 . S
H939 C968 0.950 . S
H940 C970 0.950 . S
H941 C971 0.950 . S
C942 H924 0.951 . S
C942 C943 1.366 . S
C942 C944 1.388 . S
C943 C942 1.366 . S
C943 C947 1.385 . S
C944 H925 0.951 . S
C944 C942 1.388 . S
C944 C945 1.366 . S
C945 C944 1.366 . S
C945 C946 1.414 . S
C945 C948 1.499 . S
C946 H926 0.950 . S
C946 C945 1.414 . S
C946 C947 1.374 . S
C947 H927 0.950 . S
C947 C943 1.385 . S
C947 C946 1.374 . S
C948 C945 1.499 . S
C948 C949 1.373 . S
C948 C950 1.389 . S
C949 H928 0.950 . S
C949 C948 1.373 . S
C949 C965 1.377 . S
C950 C948 1.389 . S
C950 C951 1.524 . S
C950 C964 1.377 . S
C951 C950 1.524 . S
C951 C952 1.397 . S
C951 C956 1.363 . S
C952 H929 0.950 . S
C952 C951 1.397 . S
C952 C953 1.334 . S
C953 H930 0.950 . S
C953 C952 1.334 . S
C953 C954 1.287 . S
C954 C953 1.287 . S
C954 C955 1.524 . S
C954 H973 0.913 . S
C955 H931 0.950 . S
C955 C954 1.524 . S
C955 C956 1.415 . S
C956 H932 0.950 . S
C956 C951 1.363 . S
C956 C955 1.415 . S
C957 H933 0.951 . S
C957 C958 1.366 . S
C957 C959 1.388 . S
C958 C957 1.366 . S
C958 C962 1.385 . S
C959 H934 0.951 . S
C959 C957 1.388 . S
C959 C960 1.366 . S
C960 C959 1.366 . S
C960 C961 1.414 . S
C960 C963 1.499 . S
C961 H935 0.950 . S
C961 C960 1.414 . S
C961 C962 1.374 . S
C962 H936 0.950 . S
C962 C958 1.385 . S
C962 C961 1.374 . S
C963 C960 1.499 . S
C963 C964 1.373 . S
C963 C965 1.389 . S
C964 H937 0.950 . S
C964 C950 1.377 . S
C964 C963 1.373 . S
C965 C949 1.377 . S
C965 C963 1.389 . S
C965 C966 1.524 . S
C966 C965 1.524 . S
C966 C967 1.397 . S
C966 C971 1.363 . S
C967 H938 0.950 . S
C967 C966 1.397 . S
C967 C968 1.334 . S
C968 H939 0.950 . S
C968 C967 1.334 . S
C968 C969 1.287 . S
C969 C968 1.287 . S
C969 C970 1.524 . S
C969 H972 0.999 . S
C970 H940 0.950 . S
C970 C969 1.524 . S
C970 C971 1.415 . S
C971 H941 0.950 . S
C971 C966 1.363 . S
C971 C970 1.415 . S
H972 C969 0.999 . S
H973 C954 0.913 . S
H974 C992 0.951 . S
H975 C994 0.951 . S
H976 C996 0.950 . S
H977 C997 0.950 . S
H978 C999 0.950 . S
H979 C1002 0.950 . S
H980 C1003 0.950 . S
H981 C1005 0.950 . S
H982 C1006 0.950 . S
H983 C1007 0.951 . S
H984 C1009 0.951 . S
H985 C1011 0.950 . S
H986 C1012 0.950 . S
H987 C1014 0.950 . S
H988 C1017 0.950 . S
H989 C1018 0.950 . S
H990 C1020 0.950 . S
H991 C1021 0.950 . S
C992 H974 0.951 . S
C992 C993 1.366 . S
C992 C994 1.388 . S
C993 C992 1.366 . S
C993 C997 1.385 . S
C994 H975 0.951 . S
C994 C992 1.388 . S
C994 C995 1.366 . S
C995 C994 1.366 . S
C995 C996 1.414 . S
C995 C998 1.499 . S
C996 H976 0.950 . S
C996 C995 1.414 . S
C996 C997 1.374 . S
C997 H977 0.950 . S
C997 C993 1.385 . S
C997 C996 1.374 . S
C998 C995 1.499 . S
C998 C999 1.373 1_455 S
C998 C1000 1.389 . S
C999 H978 0.950 . S
C999 C998 1.373 1_655 S
C999 C1015 1.377 . S
C1000 C998 1.389 . S
C1000 C1001 1.524 . S
C1000 C1014 1.377 . S
C1001 C1000 1.524 . S
C1001 C1002 1.397 . S
C1001 C1006 1.363 . S
C1002 H979 0.950 . S
C1002 C1001 1.397 . S
C1002 C1003 1.334 . S
C1003 H980 0.950 . S
C1003 C1002 1.334 . S
C1003 C1004 1.287 . S
C1004 C1003 1.287 . S
C1004 C1005 1.524 . S
C1004 H1023 0.913 . S
C1005 H981 0.950 . S
C1005 C1004 1.524 . S
C1005 C1006 1.415 . S
C1006 H982 0.950 . S
C1006 C1001 1.363 . S
C1006 C1005 1.415 . S
C1007 H983 0.951 . S
C1007 C1008 1.366 . S
C1007 C1009 1.388 . S
C1008 C1007 1.366 . S
C1008 C1012 1.385 . S
C1009 H984 0.951 . S
C1009 C1007 1.388 . S
C1009 C1010 1.366 . S
C1010 C1009 1.366 . S
C1010 C1011 1.414 . S
C1010 C1013 1.499 . S
C1011 H985 0.950 . S
C1011 C1010 1.414 . S
C1011 C1012 1.374 . S
C1012 H986 0.950 . S
C1012 C1008 1.385 . S
C1012 C1011 1.374 . S
C1013 C1010 1.499 . S
C1013 C1014 1.373 1_655 S
C1013 C1015 1.389 . S
C1014 H987 0.950 . S
C1014 C1000 1.377 . S
C1014 C1013 1.373 1_455 S
C1015 C999 1.377 . S
C1015 C1013 1.389 . S
C1015 C1016 1.524 . S
C1016 C1015 1.524 . S
C1016 C1017 1.397 . S
C1016 C1021 1.363 . S
C1017 H988 0.950 . S
C1017 C1016 1.397 . S
C1017 C1018 1.334 . S
C1018 H989 0.950 . S
C1018 C1017 1.334 . S
C1018 C1019 1.287 . S
C1019 C1018 1.287 . S
C1019 C1020 1.524 . S
C1019 H1022 0.999 . S
C1020 H990 0.950 . S
C1020 C1019 1.524 . S
C1020 C1021 1.415 . S
C1021 H991 0.950 . S
C1021 C1016 1.363 . S
C1021 C1020 1.415 . S
H1022 C1019 0.999 . S
H1023 C1004 0.913 . S
H1024 C1042 0.951 . S
H1025 C1044 0.951 . S
H1026 C1046 0.950 . S
H1027 C1047 0.950 . S
H1028 C1049 0.950 . S
H1029 C1052 0.950 . S
H1030 C1053 0.950 . S
H1031 C1055 0.950 . S
H1032 C1056 0.950 . S
H1033 C1057 0.951 . S
H1034 C1059 0.951 . S
H1035 C1061 0.950 . S
H1036 C1062 0.950 . S
H1037 C1064 0.950 . S
H1038 C1067 0.950 . S
H1039 C1068 0.950 . S
H1040 C1070 0.950 . S
H1041 C1071 0.950 . S
C1042 H1024 0.951 . S
C1042 C1043 1.366 . S
C1042 C1044 1.388 . S
C1043 C1042 1.366 . S
C1043 C1047 1.385 . S
C1044 H1025 0.951 . S
C1044 C1042 1.388 . S
C1044 C1045 1.366 . S
C1045 C1044 1.366 . S
C1045 C1046 1.414 . S
C1045 C1048 1.499 . S
C1046 H1026 0.950 . S
C1046 C1045 1.414 . S
C1046 C1047 1.374 . S
C1047 H1027 0.950 . S
C1047 C1043 1.385 . S
C1047 C1046 1.374 . S
C1048 C1045 1.499 . S
C1048 C1049 1.373 1_455 S
C1048 C1050 1.389 . S
C1049 H1028 0.950 . S
C1049 C1048 1.373 1_655 S
C1049 C1065 1.377 . S
C1050 C1048 1.389 . S
C1050 C1051 1.524 . S
C1050 C1064 1.377 . S
C1051 C1050 1.524 . S
C1051 C1052 1.397 . S
C1051 C1056 1.363 . S
C1052 H1029 0.950 . S
C1052 C1051 1.397 . S
C1052 C1053 1.334 . S
C1053 H1030 0.950 . S
C1053 C1052 1.334 . S
C1053 C1054 1.287 . S
C1054 C1053 1.287 . S
C1054 C1055 1.524 . S
C1054 H1073 0.913 . S
C1055 H1031 0.950 . S
C1055 C1054 1.524 . S
C1055 C1056 1.415 . S
C1056 H1032 0.950 . S
C1056 C1051 1.363 . S
C1056 C1055 1.415 . S
C1057 H1033 0.951 . S
C1057 C1058 1.366 . S
C1057 C1059 1.388 . S
C1058 C1057 1.366 . S
C1058 C1062 1.385 . S
C1059 H1034 0.951 . S
C1059 C1057 1.388 . S
C1059 C1060 1.366 . S
C1060 C1059 1.366 . S
C1060 C1061 1.414 . S
C1060 C1063 1.499 . S
C1061 H1035 0.950 . S
C1061 C1060 1.414 . S
C1061 C1062 1.374 . S
C1062 H1036 0.950 . S
C1062 C1058 1.385 . S
C1062 C1061 1.374 . S
C1063 C1060 1.499 . S
C1063 C1064 1.373 1_655 S
C1063 C1065 1.389 . S
C1064 H1037 0.950 . S
C1064 C1050 1.377 . S
C1064 C1063 1.373 1_455 S
C1065 C1049 1.377 . S
C1065 C1063 1.389 . S
C1065 C1066 1.524 . S
C1066 C1065 1.524 . S
C1066 C1067 1.397 . S
C1066 C1071 1.363 . S
C1067 H1038 0.950 . S
C1067 C1066 1.397 . S
C1067 C1068 1.334 . S
C1068 H1039 0.950 . S
C1068 C1067 1.334 . S
C1068 C1069 1.287 . S
C1069 C1068 1.287 . S
C1069 C1070 1.524 . S
C1069 H1072 0.999 . S
C1070 H1040 0.950 . S
C1070 C1069 1.524 . S
C1070 C1071 1.415 . S
C1071 H1041 0.950 . S
C1071 C1066 1.363 . S
C1071 C1070 1.415 . S
H1072 C1069 0.999 . S
H1073 C1054 0.913 . S
H1074 C1092 0.951 . S
H1075 C1094 0.951 . S
H1076 C1096 0.950 . S
H1077 C1097 0.950 . S
H1078 C1099 0.950 . S
H1079 C1102 0.950 . S
H1080 C1103 0.950 . S
H1081 C1105 0.950 . S
H1082 C1106 0.950 . S
H1083 C1107 0.951 . S
H1084 C1109 0.951 . S
H1085 C1111 0.950 . S
H1086 C1112 0.950 . S
H1087 C1114 0.950 . S
H1088 C1117 0.950 . S
H1089 C1118 0.950 . S
H1090 C1120 0.950 . S
H1091 C1121 0.950 . S
C1092 H1074 0.951 . S
C1092 C1093 1.366 . S
C1092 C1094 1.388 . S
C1093 C1092 1.366 . S
C1093 C1097 1.385 . S
C1094 H1075 0.951 . S
C1094 C1092 1.388 . S
C1094 C1095 1.366 . S
C1095 C1094 1.366 . S
C1095 C1096 1.414 . S
C1095 C1098 1.499 . S
C1096 H1076 0.950 . S
C1096 C1095 1.414 . S
C1096 C1097 1.374 . S
C1097 H1077 0.950 . S
C1097 C1093 1.385 . S
C1097 C1096 1.374 . S
C1098 C1095 1.499 . S
C1098 C1099 1.373 . S
C1098 C1100 1.389 . S
C1099 H1078 0.950 . S
C1099 C1098 1.373 . S
C1099 C1115 1.377 . S
C1100 C1098 1.389 . S
C1100 C1101 1.524 . S
C1100 C1114 1.377 . S
C1101 C1100 1.524 . S
C1101 C1102 1.397 . S
C1101 C1106 1.363 . S
C1102 H1079 0.950 . S
C1102 C1101 1.397 . S
C1102 C1103 1.334 . S
C1103 H1080 0.950 . S
C1103 C1102 1.334 . S
C1103 C1104 1.287 . S
C1104 C1103 1.287 . S
C1104 C1105 1.524 . S
C1104 H1123 0.913 . S
C1105 H1081 0.950 . S
C1105 C1104 1.524 . S
C1105 C1106 1.415 . S
C1106 H1082 0.950 . S
C1106 C1101 1.363 . S
C1106 C1105 1.415 . S
C1107 H1083 0.951 . S
C1107 C1108 1.366 . S
C1107 C1109 1.388 . S
C1108 C1107 1.366 . S
C1108 C1112 1.385 . S
C1109 H1084 0.951 . S
C1109 C1107 1.388 . S
C1109 C1110 1.366 . S
C1110 C1109 1.366 . S
C1110 C1111 1.414 . S
C1110 C1113 1.499 . S
C1111 H1085 0.950 . S
C1111 C1110 1.414 . S
C1111 C1112 1.374 . S
C1112 H1086 0.950 . S
C1112 C1108 1.385 . S
C1112 C1111 1.374 . S
C1113 C1110 1.499 . S
C1113 C1114 1.373 . S
C1113 C1115 1.389 . S
C1114 H1087 0.950 . S
C1114 C1100 1.377 . S
C1114 C1113 1.373 . S
C1115 C1099 1.377 . S
C1115 C1113 1.389 . S
C1115 C1116 1.524 . S
C1116 C1115 1.524 . S
C1116 C1117 1.397 . S
C1116 C1121 1.363 . S
C1117 H1088 0.950 . S
C1117 C1116 1.397 . S
C1117 C1118 1.334 . S
C1118 H1089 0.950 . S
C1118 C1117 1.334 . S
C1118 C1119 1.287 . S
C1119 C1118 1.287 . S
C1119 C1120 1.524 . S
C1119 H1122 0.999 . S
C1120 H1090 0.950 . S
C1120 C1119 1.524 . S
C1120 C1121 1.415 . S
C1121 H1091 0.950 . S
C1121 C1116 1.363 . S
C1121 C1120 1.415 . S
H1122 C1119 0.999 . S
H1123 C1104 0.913 . S
H1124 C1142 0.951 . S
H1125 C1144 0.951 . S
H1126 C1146 0.950 . S
H1127 C1147 0.950 . S
H1128 C1149 0.950 . S
H1129 C1152 0.950 . S
H1130 C1153 0.950 . S
H1131 C1155 0.950 . S
H1132 C1156 0.950 . S
H1133 C1157 0.951 . S
H1134 C1159 0.951 . S
H1135 C1161 0.950 . S
H1136 C1162 0.950 . S
H1137 C1164 0.950 . S
H1138 C1167 0.950 . S
H1139 C1168 0.950 . S
H1140 C1170 0.950 . S
H1141 C1171 0.950 . S
C1142 H1124 0.951 . S
C1142 C1143 1.366 . S
C1142 C1144 1.388 . S
C1143 C1142 1.366 . S
C1143 C1147 1.385 . S
C1144 H1125 0.951 . S
C1144 C1142 1.388 . S
C1144 C1145 1.366 . S
C1145 C1144 1.366 . S
C1145 C1146 1.414 . S
C1145 C1148 1.499 . S
C1146 H1126 0.950 . S
C1146 C1145 1.414 . S
C1146 C1147 1.374 . S
C1147 H1127 0.950 . S
C1147 C1143 1.385 . S
C1147 C1146 1.374 . S
C1148 C1145 1.499 . S
C1148 C1149 1.373 . S
C1148 C1150 1.389 . S
C1149 H1128 0.950 . S
C1149 C1148 1.373 . S
C1149 C1165 1.377 . S
C1150 C1148 1.389 . S
C1150 C1151 1.524 . S
C1150 C1164 1.377 . S
C1151 C1150 1.524 . S
C1151 C1152 1.397 . S
C1151 C1156 1.363 . S
C1152 H1129 0.950 . S
C1152 C1151 1.397 . S
C1152 C1153 1.334 . S
C1153 H1130 0.950 . S
C1153 C1152 1.334 . S
C1153 C1154 1.287 . S
C1154 C1153 1.287 . S
C1154 C1155 1.524 . S
C1154 H1173 0.913 . S
C1155 H1131 0.950 . S
C1155 C1154 1.524 . S
C1155 C1156 1.415 . S
C1156 H1132 0.950 . S
C1156 C1151 1.363 . S
C1156 C1155 1.415 . S
C1157 H1133 0.951 . S
C1157 C1158 1.366 . S
C1157 C1159 1.388 . S
C1158 C1157 1.366 . S
C1158 C1162 1.385 . S
C1159 H1134 0.951 . S
C1159 C1157 1.388 . S
C1159 C1160 1.366 . S
C1160 C1159 1.366 . S
C1160 C1161 1.414 . S
C1160 C1163 1.499 . S
C1161 H1135 0.950 . S
C1161 C1160 1.414 . S
C1161 C1162 1.374 . S
C1162 H1136 0.950 . S
C1162 C1158 1.385 . S
C1162 C1161 1.374 . S
C1163 C1160 1.499 . S
C1163 C1164 1.373 . S
C1163 C1165 1.389 . S
C1164 H1137 0.950 . S
C1164 C1150 1.377 . S
C1164 C1163 1.373 . S
C1165 C1149 1.377 . S
C1165 C1163 1.389 . S
C1165 C1166 1.524 . S
C1166 C1165 1.524 . S
C1166 C1167 1.397 . S
C1166 C1171 1.363 . S
C1167 H1138 0.950 . S
C1167 C1166 1.397 . S
C1167 C1168 1.334 . S
C1168 H1139 0.950 . S
C1168 C1167 1.334 . S
C1168 C1169 1.287 . S
C1169 C1168 1.287 . S
C1169 C1170 1.524 . S
C1169 H1172 0.999 . S
C1170 H1140 0.950 . S
C1170 C1169 1.524 . S
C1170 C1171 1.415 . S
C1171 H1141 0.950 . S
C1171 C1166 1.363 . S
C1171 C1170 1.415 . S
H1172 C1169 0.999 . S
H1173 C1154 0.913 . S
H1174 C1192 0.951 . S
H1175 C1194 0.951 . S
H1176 C1196 0.950 1_655 S
H1177 C1197 0.950 . S
H1178 C1199 0.950 . S
H1179 C1202 0.950 . S
H1180 C1203 0.950 . S
H1181 C1205 0.950 . S
H1182 C1206 0.950 . S
H1183 C1207 0.951 . S
H1184 C1209 0.951 . S
H1185 C1211 0.950 1_455 S
H1186 C1212 0.950 . S
H1187 C1214 0.950 . S
H1188 C1217 0.950 . S
H1189 C1218 0.950 . S
H1190 C1220 0.950 . S
H1191 C1221 0.950 . S
C1192 H1174 0.951 . S
C1192 C1193 1.366 . S
C1192 C1194 1.388 . S
C1193 C1192 1.366 . S
C1193 C1197 1.385 . S
C1194 H1175 0.951 . S
C1194 C1192 1.388 . S
C1194 C1195 1.366 . S
C1195 C1194 1.366 . S
C1195 C1196 1.414 . S
C1195 C1198 1.499 . S
C1196 H1176 0.950 1_455 S
C1196 C1195 1.414 . S
C1196 C1197 1.374 . S
C1197 H1177 0.950 . S
C1197 C1193 1.385 . S
C1197 C1196 1.374 . S
C1198 C1195 1.499 . S
C1198 C1199 1.373 1_455 S
C1198 C1200 1.389 . S
C1199 H1178 0.950 . S
C1199 C1198 1.373 1_655 S
C1199 C1215 1.377 . S
C1200 C1198 1.389 . S
C1200 C1201 1.524 . S
C1200 C1214 1.377 . S
C1201 C1200 1.524 . S
C1201 C1202 1.397 . S
C1201 C1206 1.363 . S
C1202 H1179 0.950 . S
C1202 C1201 1.397 . S
C1202 C1203 1.334 . S
C1203 H1180 0.950 . S
C1203 C1202 1.334 . S
C1203 C1204 1.287 . S
C1204 C1203 1.287 . S
C1204 C1205 1.524 . S
C1204 H1223 0.913 . S
C1205 H1181 0.950 . S
C1205 C1204 1.524 . S
C1205 C1206 1.415 . S
C1206 H1182 0.950 . S
C1206 C1201 1.363 . S
C1206 C1205 1.415 . S
C1207 H1183 0.951 . S
C1207 C1208 1.366 . S
C1207 C1209 1.388 . S
C1208 C1207 1.366 . S
C1208 C1212 1.385 . S
C1209 H1184 0.951 . S
C1209 C1207 1.388 . S
C1209 C1210 1.366 . S
C1210 C1209 1.366 . S
C1210 C1211 1.414 . S
C1210 C1213 1.499 . S
C1211 H1185 0.950 1_655 S
C1211 C1210 1.414 . S
C1211 C1212 1.374 . S
C1212 H1186 0.950 . S
C1212 C1208 1.385 . S
C1212 C1211 1.374 . S
C1213 C1210 1.499 . S
C1213 C1214 1.373 1_655 S
C1213 C1215 1.389 . S
C1214 H1187 0.950 . S
C1214 C1200 1.377 . S
C1214 C1213 1.373 1_455 S
C1215 C1199 1.377 . S
C1215 C1213 1.389 . S
C1215 C1216 1.524 . S
C1216 C1215 1.524 . S
C1216 C1217 1.397 . S
C1216 C1221 1.363 . S
C1217 H1188 0.950 . S
C1217 C1216 1.397 . S
C1217 C1218 1.334 . S
C1218 H1189 0.950 . S
C1218 C1217 1.334 . S
C1218 C1219 1.287 . S
C1219 C1218 1.287 . S
C1219 C1220 1.524 . S
C1219 H1222 0.999 . S
C1220 H1190 0.950 . S
C1220 C1219 1.524 . S
C1220 C1221 1.415 . S
C1221 H1191 0.950 . S
C1221 C1216 1.363 . S
C1221 C1220 1.415 . S
H1222 C1219 0.999 . S
H1223 C1204 0.913 . S
H1224 C1242 0.951 . S
H1225 C1244 0.951 . S
H1226 C1246 0.928 1_655 S
H1227 C1247 0.950 . S
H1228 C1249 0.950 . S
H1229 C1252 0.950 . S
H1230 C1253 0.950 . S
H1231 C1255 0.950 . S
H1232 C1256 0.950 . S
H1233 C1257 0.951 . S
H1234 C1259 0.951 . S
H1235 C1261 0.928 1_455 S
H1236 C1262 0.950 . S
H1237 C1264 0.950 . S
H1238 C1267 0.950 . S
H1239 C1268 0.950 . S
H1240 C1270 0.950 . S
H1241 C1271 0.950 . S
C1242 H1224 0.951 . S
C1242 C1243 1.366 . S
C1242 C1244 1.388 . S
C1243 C1242 1.366 . S
C1243 C1247 1.385 . S
C1244 H1225 0.951 . S
C1244 C1242 1.388 . S
C1244 C1245 1.366 . S
C1245 C1244 1.366 . S
C1245 C1246 1.414 . S
C1245 C1248 1.499 . S
C1246 H1226 0.928 1_455 S
C1246 C1245 1.414 . S
C1246 C1247 1.374 . S
C1247 H1227 0.950 . S
C1247 C1243 1.385 . S
C1247 C1246 1.374 . S
C1248 C1245 1.499 . S
C1248 C1249 1.373 1_455 S
C1248 C1250 1.389 . S
C1249 H1228 0.950 . S
C1249 C1248 1.373 1_655 S
C1249 C1265 1.377 . S
C1250 C1248 1.389 . S
C1250 C1251 1.524 . S
C1250 C1264 1.377 . S
C1251 C1250 1.524 . S
C1251 C1252 1.397 . S
C1251 C1256 1.363 . S
C1252 H1229 0.950 . S
C1252 C1251 1.397 . S
C1252 C1253 1.334 . S
C1253 H1230 0.950 . S
C1253 C1252 1.334 . S
C1253 C1254 1.287 . S
C1254 C1253 1.287 . S
C1254 C1255 1.524 . S
C1254 H1273 0.913 . S
C1255 H1231 0.950 . S
C1255 C1254 1.524 . S
C1255 C1256 1.415 . S
C1256 H1232 0.950 . S
C1256 C1251 1.363 . S
C1256 C1255 1.415 . S
C1257 H1233 0.951 . S
C1257 C1258 1.366 . S
C1257 C1259 1.388 . S
C1258 C1257 1.366 . S
C1258 C1262 1.385 . S
C1259 H1234 0.951 . S
C1259 C1257 1.388 . S
C1259 C1260 1.366 . S
C1260 C1259 1.366 . S
C1260 C1261 1.414 . S
C1260 C1263 1.499 . S
C1261 H1235 0.928 1_655 S
C1261 C1260 1.414 . S
C1261 C1262 1.374 . S
C1262 H1236 0.950 . S
C1262 C1258 1.385 . S
C1262 C1261 1.374 . S
C1263 C1260 1.499 . S
C1263 C1264 1.373 1_655 S
C1263 C1265 1.389 . S
C1264 H1237 0.950 . S
C1264 C1250 1.377 . S
C1264 C1263 1.373 1_455 S
C1265 C1249 1.377 . S
C1265 C1263 1.389 . S
C1265 C1266 1.524 . S
C1266 C1265 1.524 . S
C1266 C1267 1.397 . S
C1266 C1271 1.363 . S
C1267 H1238 0.950 . S
C1267 C1266 1.397 . S
C1267 C1268 1.334 . S
C1268 H1239 0.950 . S
C1268 C1267 1.334 . S
C1268 C1269 1.287 . S
C1269 C1268 1.287 . S
C1269 C1270 1.524 . S
C1269 H1272 0.999 . S
C1270 H1240 0.950 . S
C1270 C1269 1.524 . S
C1270 C1271 1.415 . S
C1271 H1241 0.950 . S
C1271 C1266 1.363 . S
C1271 C1270 1.415 . S
H1272 C1269 0.999 . S
H1273 C1254 0.913 . S
H1274 C1292 0.951 . S
H1275 C1294 0.951 . S
H1276 C1296 0.950 . S
H1277 C1297 0.950 . S
H1278 C1299 0.950 . S
H1279 C1302 0.950 . S
H1280 C1303 0.950 . S
H1281 C1305 0.950 . S
H1282 C1306 0.950 . S
H1283 C1307 0.951 . S
H1284 C1309 0.951 . S
H1285 C1311 0.950 . S
H1286 C1312 0.950 . S
H1287 C1314 0.950 . S
H1288 C1317 0.950 . S
H1289 C1318 0.950 . S
H1290 C1320 0.950 . S
H1291 C1321 0.950 . S
C1292 H1274 0.951 . S
C1292 C1293 1.366 . S
C1292 C1294 1.388 . S
C1293 C1292 1.366 . S
C1293 C1297 1.385 . S
C1294 H1275 0.951 . S
C1294 C1292 1.388 . S
C1294 C1295 1.366 . S
C1295 C1294 1.366 . S
C1295 C1296 1.414 . S
C1295 C1298 1.499 . S
C1296 H1276 0.950 . S
C1296 C1295 1.414 . S
C1296 C1297 1.374 . S
C1297 H1277 0.950 . S
C1297 C1293 1.385 . S
C1297 C1296 1.374 . S
C1298 C1295 1.499 . S
C1298 C1299 1.373 . S
C1298 C1300 1.389 . S
C1299 H1278 0.950 . S
C1299 C1298 1.373 . S
C1299 C1315 1.377 . S
C1300 C1298 1.389 . S
C1300 C1301 1.524 . S
C1300 C1314 1.377 . S
C1301 C1300 1.524 . S
C1301 C1302 1.397 . S
C1301 C1306 1.363 . S
C1302 H1279 0.950 . S
C1302 C1301 1.397 . S
C1302 C1303 1.334 . S
C1303 H1280 0.950 . S
C1303 C1302 1.334 . S
C1303 C1304 1.287 . S
C1304 C1303 1.287 . S
C1304 C1305 1.524 . S
C1304 H1323 0.913 . S
C1305 H1281 0.950 . S
C1305 C1304 1.524 . S
C1305 C1306 1.415 . S
C1306 H1282 0.950 . S
C1306 C1301 1.363 . S
C1306 C1305 1.415 . S
C1307 H1283 0.951 . S
C1307 C1308 1.366 . S
C1307 C1309 1.388 . S
C1308 C1307 1.366 . S
C1308 C1312 1.385 . S
C1309 H1284 0.951 . S
C1309 C1307 1.388 . S
C1309 C1310 1.366 . S
C1310 C1309 1.366 . S
C1310 C1311 1.414 . S
C1310 C1313 1.499 . S
C1311 H1285 0.950 . S
C1311 C1310 1.414 . S
C1311 C1312 1.374 . S
C1312 H1286 0.950 . S
C1312 C1308 1.385 . S
C1312 C1311 1.374 . S
C1313 C1310 1.499 . S
C1313 C1314 1.373 . S
C1313 C1315 1.389 . S
C1314 H1287 0.950 . S
C1314 C1300 1.377 . S
C1314 C1313 1.373 . S
C1315 C1299 1.377 . S
C1315 C1313 1.389 . S
C1315 C1316 1.524 . S
C1316 C1315 1.524 . S
C1316 C1317 1.397 . S
C1316 C1321 1.363 . S
C1317 H1288 0.950 . S
C1317 C1316 1.397 . S
C1317 C1318 1.334 . S
C1318 H1289 0.950 . S
C1318 C1317 1.334 . S
C1318 C1319 1.287 . S
C1319 C1318 1.287 . S
C1319 C1320 1.524 . S
C1319 H1322 0.999 . S
C1320 H1290 0.950 . S
C1320 C1319 1.524 . S
C1320 C1321 1.415 . S
C1321 H1291 0.950 . S
C1321 C1316 1.363 . S
C1321 C1320 1.415 . S
H1322 C1319 0.999 . S
H1323 C1304 0.913 . S
H1324 C1342 0.951 . S
H1325 C1344 0.951 . S
H1326 C1346 0.950 . S
H1327 C1347 0.950 . S
H1328 C1349 0.950 . S
H1329 C1352 0.950 . S
H1330 C1353 0.950 . S
H1331 C1355 0.950 . S
H1332 C1356 0.950 . S
H1333 C1357 0.951 . S
H1334 C1359 0.951 . S
H1335 C1361 0.950 . S
H1336 C1362 0.950 . S
H1337 C1364 0.950 . S
H1338 C1367 0.950 . S
H1339 C1368 0.950 . S
H1340 C1370 0.950 . S
H1341 C1371 0.950 . S
C1342 H1324 0.951 . S
C1342 C1343 1.366 . S
C1342 C1344 1.388 . S
C1343 C1342 1.366 . S
C1343 C1347 1.385 . S
C1344 H1325 0.951 . S
C1344 C1342 1.388 . S
C1344 C1345 1.366 . S
C1345 C1344 1.366 . S
C1345 C1346 1.414 . S
C1345 C1348 1.499 . S
C1346 H1326 0.950 . S
C1346 C1345 1.414 . S
C1346 C1347 1.374 . S
C1347 H1327 0.950 . S
C1347 C1343 1.385 . S
C1347 C1346 1.374 . S
C1348 C1345 1.499 . S
C1348 C1349 1.373 . S
C1348 C1350 1.389 . S
C1349 H1328 0.950 . S
C1349 C1348 1.373 . S
C1349 C1365 1.377 . S
C1350 C1348 1.389 . S
C1350 C1351 1.524 . S
C1350 C1364 1.377 . S
C1351 C1350 1.524 . S
C1351 C1352 1.397 . S
C1351 C1356 1.363 . S
C1352 H1329 0.950 . S
C1352 C1351 1.397 . S
C1352 C1353 1.334 . S
C1353 H1330 0.950 . S
C1353 C1352 1.334 . S
C1353 C1354 1.287 . S
C1354 C1353 1.287 . S
C1354 C1355 1.524 . S
C1354 H1373 0.913 . S
C1355 H1331 0.950 . S
C1355 C1354 1.524 . S
C1355 C1356 1.415 . S
C1356 H1332 0.950 . S
C1356 C1351 1.363 . S
C1356 C1355 1.415 . S
C1357 H1333 0.951 . S
C1357 C1358 1.366 . S
C1357 C1359 1.388 . S
C1358 C1357 1.366 . S
C1358 C1362 1.385 . S
C1359 H1334 0.951 . S
C1359 C1357 1.388 . S
C1359 C1360 1.366 . S
C1360 C1359 1.366 . S
C1360 C1361 1.414 . S
C1360 C1363 1.499 . S
C1361 H1335 0.950 . S
C1361 C1360 1.414 . S
C1361 C1362 1.374 . S
C1362 H1336 0.950 . S
C1362 C1358 1.385 . S
C1362 C1361 1.374 . S
C1363 C1360 1.499 . S
C1363 C1364 1.373 . S
C1363 C1365 1.389 . S
C1364 H1337 0.950 . S
C1364 C1350 1.377 . S
C1364 C1363 1.373 . S
C1365 C1349 1.377 . S
C1365 C1363 1.389 . S
C1365 C1366 1.524 . S
C1366 C1365 1.524 . S
C1366 C1367 1.397 . S
C1366 C1371 1.363 . S
C1367 H1338 0.950 . S
C1367 C1366 1.397 . S
C1367 C1368 1.334 . S
C1368 H1339 0.950 . S
C1368 C1367 1.334 . S
C1368 C1369 1.287 . S
C1369 C1368 1.287 . S
C1369 C1370 1.524 . S
C1369 H1372 0.999 . S
C1370 H1340 0.950 . S
C1370 C1369 1.524 . S
C1370 C1371 1.415 . S
C1371 H1341 0.950 . S
C1371 C1366 1.363 . S
C1371 C1370 1.415 . S
H1372 C1369 0.999 . S
H1373 C1354 0.913 . S
H1374 C1392 0.951 . S
H1375 C1394 0.951 1_655 S
H1376 C1396 0.950 . S
H1377 C1397 0.950 . S
H1378 C1399 0.950 . S
H1379 C1402 0.950 . S
H1380 C1403 0.950 . S
H1381 C1405 0.950 . S
H1382 C1406 0.950 . S
H1383 C1407 0.951 . S
H1384 C1409 0.951 1_455 S
H1385 C1411 0.950 . S
H1386 C1412 0.950 . S
H1387 C1414 0.950 . S
H1388 C1417 0.950 . S
H1389 C1418 0.950 . S
H1390 C1420 0.950 . S
H1391 C1421 0.950 . S
C1392 H1374 0.951 . S
C1392 C1393 1.366 . S
C1392 C1394 1.388 . S
C1393 C1392 1.366 . S
C1393 C1397 1.385 . S
C1394 H1375 0.951 1_455 S
C1394 C1392 1.388 . S
C1394 C1395 1.366 . S
C1395 C1394 1.366 . S
C1395 C1396 1.414 . S
C1395 C1398 1.499 . S
C1396 H1376 0.950 . S
C1396 C1395 1.414 . S
C1396 C1397 1.374 . S
C1397 H1377 0.950 . S
C1397 C1393 1.385 . S
C1397 C1396 1.374 . S
C1398 C1395 1.499 . S
C1398 C1399 1.373 . S
C1398 C1400 1.389 1_455 S
C1399 H1378 0.950 . S
C1399 C1398 1.373 . S
C1399 C1415 1.377 . S
C1400 C1398 1.389 1_655 S
C1400 C1401 1.524 . S
C1400 C1414 1.377 . S
C1401 C1400 1.524 . S
C1401 C1402 1.397 1_655 S
C1401 C1406 1.363 . S
C1402 H1379 0.950 . S
C1402 C1401 1.397 1_455 S
C1402 C1403 1.334 . S
C1403 H1380 0.950 . S
C1403 C1402 1.334 . S
C1403 C1404 1.287 1_455 S
C1404 C1403 1.287 1_655 S
C1404 C1405 1.524 . S
C1404 H1423 0.913 . S
C1405 H1381 0.950 . S
C1405 C1404 1.524 . S
C1405 C1406 1.415 . S
C1406 H1382 0.950 . S
C1406 C1401 1.363 . S
C1406 C1405 1.415 . S
C1407 H1383 0.951 . S
C1407 C1408 1.366 . S
C1407 C1409 1.388 . S
C1408 C1407 1.366 . S
C1408 C1412 1.385 . S
C1409 H1384 0.951 1_655 S
C1409 C1407 1.388 . S
C1409 C1410 1.366 . S
C1410 C1409 1.366 . S
C1410 C1411 1.414 . S
C1410 C1413 1.499 . S
C1411 H1385 0.950 . S
C1411 C1410 1.414 . S
C1411 C1412 1.374 . S
C1412 H1386 0.950 . S
C1412 C1408 1.385 . S
C1412 C1411 1.374 . S
C1413 C1410 1.499 . S
C1413 C1414 1.373 . S
C1413 C1415 1.389 1_655 S
C1414 H1387 0.950 . S
C1414 C1400 1.377 . S
C1414 C1413 1.373 . S
C1415 C1399 1.377 . S
C1415 C1413 1.389 1_455 S
C1415 C1416 1.524 . S
C1416 C1415 1.524 . S
C1416 C1417 1.397 1_455 S
C1416 C1421 1.363 . S
C1417 H1388 0.950 . S
C1417 C1416 1.397 1_655 S
C1417 C1418 1.334 . S
C1418 H1389 0.950 . S
C1418 C1417 1.334 . S
C1418 C1419 1.287 1_655 S
C1419 C1418 1.287 1_455 S
C1419 C1420 1.524 . S
C1419 H1422 0.999 . S
C1420 H1390 0.950 . S
C1420 C1419 1.524 . S
C1420 C1421 1.415 . S
C1421 H1391 0.950 . S
C1421 C1416 1.363 . S
C1421 C1420 1.415 . S
H1422 C1419 0.999 . S
H1423 C1404 0.913 . S
H1424 C1442 0.951 . S
H1425 C1444 0.951 . S
H1426 C1446 0.950 . S
H1427 C1447 0.950 . S
H1428 C1449 0.950 . S
H1429 C1452 0.950 1_565 S
H1430 C1453 0.950 . S
H1431 C1455 0.950 . S
H1432 C1456 0.950 . S
H1433 C1457 0.951 . S
H1434 C1459 0.951 . S
H1435 C1461 0.950 . S
H1436 C1462 0.950 . S
H1437 C1464 0.950 . S
H1438 C1467 0.950 1_545 S
H1439 C1468 0.950 . S
H1440 C1470 0.950 . S
H1441 C1471 0.950 . S
C1442 H1424 0.951 . S
C1442 C1443 1.366 1_545 S
C1442 C1444 1.388 . S
C1443 C1442 1.366 1_565 S
C1443 C1447 1.385 . S
C1444 H1425 0.951 . S
C1444 C1442 1.388 . S
C1444 C1445 1.366 1_545 S
C1445 C1444 1.366 1_565 S
C1445 C1446 1.414 . S
C1445 C1448 1.499 . S
C1446 H1426 0.950 . S
C1446 C1445 1.414 . S
C1446 C1447 1.374 . S
C1447 H1427 0.950 . S
C1447 C1443 1.385 . S
C1447 C1446 1.374 . S
C1448 C1445 1.499 . S
C1448 C1449 1.373 . S
C1448 C1450 1.389 1_665 S
C1449 H1428 0.950 . S
C1449 C1448 1.373 . S
C1449 C1465 1.377 1_556 S
C1450 C1448 1.389 1_445 S
C1450 C1451 1.524 . S
C1450 C1464 1.377 1_556 S
C1451 C1450 1.524 . S
C1451 C1452 1.397 . S
C1451 C1456 1.363 . S
C1452 H1429 0.950 1_545 S
C1452 C1451 1.397 . S
C1452 C1453 1.334 . S
C1453 H1430 0.950 . S
C1453 C1452 1.334 . S
C1453 C1454 1.287 . S
C1454 C1453 1.287 . S
C1454 C1455 1.524 . S
C1454 H1473 0.913 . S
C1455 H1431 0.950 . S
C1455 C1454 1.524 . S
C1455 C1456 1.415 . S
C1456 H1432 0.950 . S
C1456 C1451 1.363 . S
C1456 C1455 1.415 . S
C1457 H1433 0.951 . S
C1457 C1458 1.366 1_565 S
C1457 C1459 1.388 . S
C1458 C1457 1.366 1_545 S
C1458 C1462 1.385 . S
C1459 H1434 0.951 . S
C1459 C1457 1.388 . S
C1459 C1460 1.366 1_565 S
C1460 C1459 1.366 1_545 S
C1460 C1461 1.414 . S
C1460 C1463 1.499 . S
C1461 H1435 0.950 . S
C1461 C1460 1.414 . S
C1461 C1462 1.374 . S
C1462 H1436 0.950 . S
C1462 C1458 1.385 . S
C1462 C1461 1.374 . S
C1463 C1460 1.499 . S
C1463 C1464 1.373 . S
C1463 C1465 1.389 1_445 S
C1464 H1437 0.950 . S
C1464 C1450 1.377 1_554 S
C1464 C1463 1.373 . S
C1465 C1449 1.377 1_554 S
C1465 C1463 1.389 1_665 S
C1465 C1466 1.524 . S
C1466 C1465 1.524 . S
C1466 C1467 1.397 . S
C1466 C1471 1.363 . S
C1467 H1438 0.950 1_565 S
C1467 C1466 1.397 . S
C1467 C1468 1.334 . S
C1468 H1439 0.950 . S
C1468 C1467 1.334 . S
C1468 C1469 1.287 . S
C1469 C1468 1.287 . S
C1469 C1470 1.524 . S
C1469 H1472 0.999 . S
C1470 H1440 0.950 . S
C1470 C1469 1.524 . S
C1470 C1471 1.415 . S
C1471 H1441 0.950 . S
C1471 C1466 1.363 . S
C1471 C1470 1.415 . S
H1472 C1469 0.999 . S
H1473 C1454 0.913 . S
H1474 C1492 0.951 . S
H1475 C1494 0.951 . S
H1476 C1496 0.950 . S
H1477 C1497 0.950 . S
H1478 C1499 0.950 . S
H1479 C1502 0.950 1_545 S
H1480 C1503 0.950 . S
H1481 C1505 0.950 . S
H1482 C1506 0.950 . S
H1483 C1507 0.951 . S
H1484 C1509 0.951 . S
H1485 C1511 0.950 . S
H1486 C1512 0.950 . S
H1487 C1514 0.950 . S
H1488 C1517 0.950 1_565 S
H1489 C1518 0.950 . S
H1490 C1520 0.950 . S
H1491 C1521 0.950 . S
C1492 H1474 0.951 . S
C1492 C1493 1.366 1_565 S
C1492 C1494 1.388 . S
C1493 C1492 1.366 1_545 S
C1493 C1497 1.385 . S
C1494 H1475 0.951 . S
C1494 C1492 1.388 . S
C1494 C1495 1.366 1_565 S
C1495 C1494 1.366 1_545 S
C1495 C1496 1.414 . S
C1495 C1498 1.499 . S
C1496 H1476 0.950 . S
C1496 C1495 1.414 . S
C1496 C1497 1.374 . S
C1497 H1477 0.950 . S
C1497 C1493 1.385 . S
C1497 C1496 1.374 . S
C1498 C1495 1.499 . S
C1498 C1499 1.373 . S
C1498 C1500 1.389 1_545 S
C1499 H1478 0.950 . S
C1499 C1498 1.373 . S
C1499 C1515 1.377 1_556 S
C1500 C1498 1.389 1_565 S
C1500 C1501 1.524 . S
C1500 C1514 1.377 1_556 S
C1501 C1500 1.524 . S
C1501 C1502 1.397 . S
C1501 C1506 1.363 . S
C1502 H1479 0.950 1_565 S
C1502 C1501 1.397 . S
C1502 C1503 1.334 . S
C1503 H1480 0.950 . S
C1503 C1502 1.334 . S
C1503 C1504 1.287 . S
C1504 C1503 1.287 . S
C1504 C1505 1.524 . S
C1504 H1523 0.913 . S
C1505 H1481 0.950 . S
C1505 C1504 1.524 . S
C1505 C1506 1.415 . S
C1506 H1482 0.950 . S
C1506 C1501 1.363 . S
C1506 C1505 1.415 . S
C1507 H1483 0.951 . S
C1507 C1508 1.366 1_545 S
C1507 C1509 1.388 . S
C1508 C1507 1.366 1_565 S
C1508 C1512 1.385 . S
C1509 H1484 0.951 . S
C1509 C1507 1.388 . S
C1509 C1510 1.366 1_545 S
C1510 C1509 1.366 1_565 S
C1510 C1511 1.414 . S
C1510 C1513 1.499 . S
C1511 H1485 0.950 . S
C1511 C1510 1.414 . S
C1511 C1512 1.374 . S
C1512 H1486 0.950 . S
C1512 C1508 1.385 . S
C1512 C1511 1.374 . S
C1513 C1510 1.499 . S
C1513 C1514 1.373 . S
C1513 C1515 1.389 1_565 S
C1514 H1487 0.950 . S
C1514 C1500 1.377 1_554 S
C1514 C1513 1.373 . S
C1515 C1499 1.377 1_554 S
C1515 C1513 1.389 1_545 S
C1515 C1516 1.524 . S
C1516 C1515 1.524 . S
C1516 C1517 1.397 . S
C1516 C1521 1.363 . S
C1517 H1488 0.950 1_545 S
C1517 C1516 1.397 . S
C1517 C1518 1.334 . S
C1518 H1489 0.950 . S
C1518 C1517 1.334 . S
C1518 C1519 1.287 . S
C1519 C1518 1.287 . S
C1519 C1520 1.524 . S
C1519 H1522 0.999 . S
C1520 H1490 0.950 . S
C1520 C1519 1.524 . S
C1520 C1521 1.415 . S
C1521 H1491 0.950 . S
C1521 C1516 1.363 . S
C1521 C1520 1.415 . S
H1522 C1519 0.999 . S
H1523 C1504 0.913 . S
H1524 C1542 0.951 . S
H1525 C1544 0.951 . S
H1526 C1546 0.950 . S
H1527 C1547 0.950 . S
H1528 C1549 0.950 . S
H1529 C1552 0.950 . S
H1530 C1553 0.950 . S
H1531 C1555 0.950 . S
H1532 C1556 0.950 . S
H1533 C1557 0.951 . S
H1534 C1559 0.951 . S
H1535 C1561 0.950 . S
H1536 C1562 0.950 . S
H1537 C1564 0.950 . S
H1538 C1567 0.950 . S
H1539 C1568 0.950 . S
H1540 C1570 0.950 . S
H1541 C1571 0.950 . S
C1542 H1524 0.951 . S
C1542 C1543 1.366 . S
C1542 C1544 1.388 . S
C1543 C1542 1.366 . S
C1543 C1547 1.385 . S
C1544 H1525 0.951 . S
C1544 C1542 1.388 . S
C1544 C1545 1.366 . S
C1545 C1544 1.366 . S
C1545 C1546 1.414 . S
C1545 C1548 1.499 . S
C1546 H1526 0.950 . S
C1546 C1545 1.414 . S
C1546 C1547 1.374 . S
C1547 H1527 0.950 . S
C1547 C1543 1.385 . S
C1547 C1546 1.374 . S
C1548 C1545 1.499 . S
C1548 C1549 1.373 . S
C1548 C1550 1.389 1_545 S
C1549 H1528 0.950 . S
C1549 C1548 1.373 . S
C1549 C1565 1.377 . S
C1550 C1548 1.389 1_565 S
C1550 C1551 1.524 . S
C1550 C1564 1.377 . S
C1551 C1550 1.524 . S
C1551 C1552 1.397 . S
C1551 C1556 1.363 . S
C1552 H1529 0.950 . S
C1552 C1551 1.397 . S
C1552 C1553 1.334 . S
C1553 H1530 0.950 . S
C1553 C1552 1.334 . S
C1553 C1554 1.287 . S
C1554 C1553 1.287 . S
C1554 C1555 1.524 . S
C1554 H1573 0.913 . S
C1555 H1531 0.950 . S
C1555 C1554 1.524 . S
C1555 C1556 1.415 . S
C1556 H1532 0.950 . S
C1556 C1551 1.363 . S
C1556 C1555 1.415 . S
C1557 H1533 0.951 . S
C1557 C1558 1.366 . S
C1557 C1559 1.388 . S
C1558 C1557 1.366 . S
C1558 C1562 1.385 . S
C1559 H1534 0.951 . S
C1559 C1557 1.388 . S
C1559 C1560 1.366 . S
C1560 C1559 1.366 . S
C1560 C1561 1.414 . S
C1560 C1563 1.499 . S
C1561 H1535 0.950 . S
C1561 C1560 1.414 . S
C1561 C1562 1.374 . S
C1562 H1536 0.950 . S
C1562 C1558 1.385 . S
C1562 C1561 1.374 . S
C1563 C1560 1.499 . S
C1563 C1564 1.373 . S
C1563 C1565 1.389 1_565 S
C1564 H1537 0.950 . S
C1564 C1550 1.377 . S
C1564 C1563 1.373 . S
C1565 C1549 1.377 . S
C1565 C1563 1.389 1_545 S
C1565 C1566 1.524 . S
C1566 C1565 1.524 . S
C1566 C1567 1.397 . S
C1566 C1571 1.363 . S
C1567 H1538 0.950 . S
C1567 C1566 1.397 . S
C1567 C1568 1.334 . S
C1568 H1539 0.950 . S
C1568 C1567 1.334 . S
C1568 C1569 1.287 . S
C1569 C1568 1.287 . S
C1569 C1570 1.524 . S
C1569 H1572 0.999 . S
C1570 H1540 0.950 . S
C1570 C1569 1.524 . S
C1570 C1571 1.415 . S
C1571 H1541 0.950 . S
C1571 C1566 1.363 . S
C1571 C1570 1.415 . S
H1572 C1569 0.999 . S
H1573 C1554 0.913 . S
H1574 C1592 0.951 1_545 S
H1575 C1594 0.951 . S
H1576 C1596 0.950 . S
H1577 C1597 0.950 . S
H1578 C1599 0.950 . S
H1579 C1602 0.950 . S
H1580 C1603 0.950 . S
H1581 C1605 0.950 . S
H1582 C1606 0.950 . S
H1583 C1607 0.951 1_565 S
H1584 C1609 0.951 . S
H1585 C1611 0.950 . S
H1586 C1612 0.950 . S
H1587 C1614 0.950 . S
H1588 C1617 0.950 . S
H1589 C1618 0.950 . S
H1590 C1620 0.950 . S
H1591 C1621 0.950 . S
C1592 H1574 0.951 1_565 S
C1592 C1593 1.366 . S
C1592 C1594 1.388 1_565 S
C1593 C1592 1.366 . S
C1593 C1597 1.385 . S
C1594 H1575 0.951 . S
C1594 C1592 1.388 1_545 S
C1594 C1595 1.366 1_545 S
C1595 C1594 1.366 1_565 S
C1595 C1596 1.414 . S
C1595 C1598 1.499 . S
C1596 H1576 0.950 . S
C1596 C1595 1.414 . S
C1596 C1597 1.374 . S
C1597 H1577 0.950 . S
C1597 C1593 1.385 . S
C1597 C1596 1.374 . S
C1598 C1595 1.499 . S
C1598 C1599 1.373 . S
C1598 C1600 1.389 1_465 S
C1599 H1578 0.950 . S
C1599 C1598 1.373 . S
C1599 C1615 1.377 . S
C1600 C1598 1.389 1_645 S
C1600 C1601 1.524 . S
C1600 C1614 1.377 . S
C1601 C1600 1.524 . S
C1601 C1602 1.397 1_545 S
C1601 C1606 1.363 . S
C1602 H1579 0.950 . S
C1602 C1601 1.397 1_565 S
C1602 C1603 1.334 . S
C1603 H1580 0.950 . S
C1603 C1602 1.334 . S
C1603 C1604 1.287 . S
C1604 C1603 1.287 . S
C1604 C1605 1.524 1_565 S
C1604 H1623 0.913 . S
C1605 H1581 0.950 . S
C1605 C1604 1.524 1_545 S
C1605 C1606 1.415 . S
C1606 H1582 0.950 . S
C1606 C1601 1.363 . S
C1606 C1605 1.415 . S
C1607 H1583 0.951 1_545 S
C1607 C1608 1.366 . S
C1607 C1609 1.388 1_545 S
C1608 C1607 1.366 . S
C1608 C1612 1.385 . S
C1609 H1584 0.951 . S
C1609 C1607 1.388 1_565 S
C1609 C1610 1.366 1_565 S
C1610 C1609 1.366 1_545 S
C1610 C1611 1.414 . S
C1610 C1613 1.499 . S
C1611 H1585 0.950 . S
C1611 C1610 1.414 . S
C1611 C1612 1.374 . S
C1612 H1586 0.950 . S
C1612 C1608 1.385 . S
C1612 C1611 1.374 . S
C1613 C1610 1.499 . S
C1613 C1614 1.373 . S
C1613 C1615 1.389 1_645 S
C1614 H1587 0.950 . S
C1614 C1600 1.377 . S
C1614 C1613 1.373 . S
C1615 C1599 1.377 . S
C1615 C1613 1.389 1_465 S
C1615 C1616 1.524 . S
C1616 C1615 1.524 . S
C1616 C1617 1.397 1_565 S
C1616 C1621 1.363 . S
C1617 H1588 0.950 . S
C1617 C1616 1.397 1_545 S
C1617 C1618 1.334 . S
C1618 H1589 0.950 . S
C1618 C1617 1.334 . S
C1618 C1619 1.287 . S
C1619 C1618 1.287 . S
C1619 C1620 1.524 1_545 S
C1619 H1622 0.999 . S
C1620 H1590 0.950 . S
C1620 C1619 1.524 1_565 S
C1620 C1621 1.415 . S
C1621 H1591 0.950 . S
C1621 C1616 1.363 . S
C1621 C1620 1.415 . S
H1622 C1619 0.999 . S
H1623 C1604 0.913 . S
H1624 C1642 0.951 . S
H1625 C1644 0.951 . S
H1626 C1646 0.950 . S
H1627 C1647 0.950 . S
H1628 C1649 0.950 . S
H1629 C1652 0.950 . S
H1630 C1653 0.950 . S
H1631 C1655 0.950 . S
H1632 C1656 0.950 . S
H1633 C1657 0.951 . S
H1634 C1659 0.951 . S
H1635 C1661 0.950 . S
H1636 C1662 0.950 . S
H1637 C1664 0.950 . S
H1638 C1667 0.950 . S
H1639 C1668 0.950 . S
H1640 C1670 0.950 . S
H1641 C1671 0.950 . S
C1642 H1624 0.951 . S
C1642 C1643 1.366 . S
C1642 C1644 1.388 . S
C1643 C1642 1.366 . S
C1643 C1647 1.385 . S
C1644 H1625 0.951 . S
C1644 C1642 1.388 . S
C1644 C1645 1.366 . S
C1645 C1644 1.366 . S
C1645 C1646 1.414 . S
C1645 C1648 1.499 . S
C1646 H1626 0.950 . S
C1646 C1645 1.414 . S
C1646 C1647 1.374 . S
C1647 H1627 0.950 . S
C1647 C1643 1.385 . S
C1647 C1646 1.374 . S
C1648 C1645 1.499 . S
C1648 C1649 1.373 . S
C1648 C1650 1.389 . S
C1649 H1628 0.950 . S
C1649 C1648 1.373 . S
C1649 C1665 1.377 1_554 S
C1650 C1648 1.389 . S
C1650 C1651 1.524 . S
C1650 C1664 1.377 1_554 S
C1651 C1650 1.524 . S
C1651 C1652 1.397 . S
C1651 C1656 1.363 . S
C1652 H1629 0.950 . S
C1652 C1651 1.397 . S
C1652 C1653 1.334 . S
C1653 H1630 0.950 . S
C1653 C1652 1.334 . S
C1653 C1654 1.287 . S
C1654 C1653 1.287 . S
C1654 C1655 1.524 . S
C1654 H1673 0.913 . S
C1655 H1631 0.950 . S
C1655 C1654 1.524 . S
C1655 C1656 1.415 . S
C1656 H1632 0.950 . S
C1656 C1651 1.363 . S
C1656 C1655 1.415 . S
C1657 H1633 0.951 . S
C1657 C1658 1.366 . S
C1657 C1659 1.388 . S
C1658 C1657 1.366 . S
C1658 C1662 1.385 . S
C1659 H1634 0.951 . S
C1659 C1657 1.388 . S
C1659 C1660 1.366 . S
C1660 C1659 1.366 . S
C1660 C1661 1.414 . S
C1660 C1663 1.499 . S
C1661 H1635 0.950 . S
C1661 C1660 1.414 . S
C1661 C1662 1.374 . S
C1662 H1636 0.950 . S
C1662 C1658 1.385 . S
C1662 C1661 1.374 . S
C1663 C1660 1.499 . S
C1663 C1664 1.373 . S
C1663 C1665 1.389 . S
C1664 H1637 0.950 . S
C1664 C1650 1.377 1_556 S
C1664 C1663 1.373 . S
C1665 C1649 1.377 1_556 S
C1665 C1663 1.389 . S
C1665 C1666 1.524 . S
C1666 C1665 1.524 . S
C1666 C1667 1.397 . S
C1666 C1671 1.363 . S
C1667 H1638 0.950 . S
C1667 C1666 1.397 . S
C1667 C1668 1.334 . S
C1668 H1639 0.950 . S
C1668 C1667 1.334 . S
C1668 C1669 1.287 . S
C1669 C1668 1.287 . S
C1669 C1670 1.524 . S
C1669 H1672 0.999 . S
C1670 H1640 0.950 . S
C1670 C1669 1.524 . S
C1670 C1671 1.415 . S
C1671 H1641 0.950 . S
C1671 C1666 1.363 . S
C1671 C1670 1.415 . S
H1672 C1669 0.999 . S
H1673 C1654 0.913 . S
H1674 C1692 0.951 1_455 S
H1675 C1694 0.954 1_455 S
H1676 C1696 0.950 . S
H1677 C1697 0.950 . S
H1678 C1699 0.950 . S
H1679 C1702 0.950 1_655 S
H1680 C1703 0.950 . S
H1681 C1705 0.950 . S
H1682 C1706 0.950 . S
H1683 C1707 0.951 1_655 S
H1684 C1709 0.954 1_655 S
H1685 C1711 0.950 . S
H1686 C1712 0.950 . S
H1687 C1714 0.950 . S
H1688 C1717 0.950 1_455 S
H1689 C1718 0.950 . S
H1690 C1720 0.950 . S
H1691 C1721 0.950 . S
C1692 H1674 0.951 1_655 S
C1692 C1693 1.366 . S
C1692 C1694 1.387 . S
C1693 C1692 1.366 . S
C1693 C1697 1.385 . S
C1694 H1675 0.954 1_655 S
C1694 C1692 1.387 . S
C1694 C1695 1.364 . S
C1695 C1694 1.364 . S
C1695 C1696 1.414 . S
C1695 C1698 1.499 . S
C1696 H1676 0.950 . S
C1696 C1695 1.414 . S
C1696 C1697 1.374 . S
C1697 H1677 0.950 . S
C1697 C1693 1.385 . S
C1697 C1696 1.374 . S
C1698 C1695 1.499 . S
C1698 C1699 1.373 . S
C1698 C1700 1.389 1_655 S
C1699 H1678 0.950 . S
C1699 C1698 1.373 . S
C1699 C1715 1.377 1_554 S
C1700 C1698 1.389 1_455 S
C1700 C1701 1.524 . S
C1700 C1714 1.377 1_554 S
C1701 C1700 1.524 . S
C1701 C1702 1.397 . S
C1701 C1706 1.363 . S
C1702 H1679 0.950 1_455 S
C1702 C1701 1.397 . S
C1702 C1703 1.334 . S
C1703 H1680 0.950 . S
C1703 C1702 1.334 . S
C1703 C1704 1.287 . S
C1704 C1703 1.287 . S
C1704 C1705 1.524 . S
C1704 H1723 0.913 . S
C1705 H1681 0.950 . S
C1705 C1704 1.524 . S
C1705 C1706 1.415 . S
C1706 H1682 0.950 . S
C1706 C1701 1.363 . S
C1706 C1705 1.415 . S
C1707 H1683 0.951 1_455 S
C1707 C1708 1.366 . S
C1707 C1709 1.387 . S
C1708 C1707 1.366 . S
C1708 C1712 1.385 . S
C1709 H1684 0.954 1_455 S
C1709 C1707 1.387 . S
C1709 C1710 1.364 . S
C1710 C1709 1.364 . S
C1710 C1711 1.414 . S
C1710 C1713 1.499 . S
C1711 H1685 0.950 . S
C1711 C1710 1.414 . S
C1711 C1712 1.374 . S
C1712 H1686 0.950 . S
C1712 C1708 1.385 . S
C1712 C1711 1.374 . S
C1713 C1710 1.499 . S
C1713 C1714 1.373 . S
C1713 C1715 1.389 1_455 S
C1714 H1687 0.950 . S
C1714 C1700 1.377 1_556 S
C1714 C1713 1.373 . S
C1715 C1699 1.377 1_556 S
C1715 C1713 1.389 1_655 S
C1715 C1716 1.524 . S
C1716 C1715 1.524 . S
C1716 C1717 1.397 . S
C1716 C1721 1.363 . S
C1717 H1688 0.950 1_655 S
C1717 C1716 1.397 . S
C1717 C1718 1.334 . S
C1718 H1689 0.950 . S
C1718 C1717 1.334 . S
C1718 C1719 1.287 . S
C1719 C1718 1.287 . S
C1719 C1720 1.524 . S
C1719 H1722 0.999 . S
C1720 H1690 0.950 . S
C1720 C1719 1.524 . S
C1720 C1721 1.415 . S
C1721 H1691 0.950 . S
C1721 C1716 1.363 . S
C1721 C1720 1.415 . S
H1722 C1719 0.999 . S
H1723 C1704 0.913 . S
H1724 C1742 0.951 . S
H1725 C1744 0.951 . S
H1726 C1746 0.930 1_455 S
H1727 C1747 0.950 1_455 S
H1728 C1749 0.950 . S
H1729 C1752 0.950 1_455 S
H1730 C1753 0.944 1_455 S
H1731 C1755 0.950 . S
H1732 C1756 0.950 . S
H1733 C1757 0.951 . S
H1734 C1759 0.951 . S
H1735 C1761 0.930 1_655 S
H1736 C1762 0.950 1_655 S
H1737 C1764 0.950 . S
H1738 C1767 0.950 1_655 S
H1739 C1768 0.944 1_655 S
H1740 C1770 0.950 . S
H1741 C1771 0.950 . S
C1742 H1724 0.951 . S
C1742 C1743 1.366 . S
C1742 C1744 1.388 . S
C1743 C1742 1.366 . S
C1743 C1747 1.385 . S
C1744 H1725 0.951 . S
C1744 C1742 1.388 . S
C1744 C1745 1.366 . S
C1745 C1744 1.366 . S
C1745 C1746 1.427 . S
C1745 C1748 1.499 . S
C1746 H1726 0.930 1_655 S
C1746 C1745 1.427 . S
C1746 C1747 1.381 . S
C1747 H1727 0.950 1_655 S
C1747 C1743 1.385 . S
C1747 C1746 1.381 . S
C1748 C1745 1.499 . S
C1748 C1749 1.373 1_655 S
C1748 C1750 1.389 . S
C1749 H1728 0.950 . S
C1749 C1748 1.373 1_455 S
C1749 C1765 1.377 . S
C1750 C1748 1.389 . S
C1750 C1751 1.524 . S
C1750 C1764 1.377 . S
C1751 C1750 1.524 . S
C1751 C1752 1.397 . S
C1751 C1756 1.363 . S
C1752 H1729 0.950 1_655 S
C1752 C1751 1.397 . S
C1752 C1753 1.334 . S
C1753 H1730 0.944 1_655 S
C1753 C1752 1.334 . S
C1753 C1754 1.287 . S
C1754 C1753 1.287 . S
C1754 C1755 1.524 . S
C1754 H1773 0.913 . S
C1755 H1731 0.950 . S
C1755 C1754 1.524 . S
C1755 C1756 1.415 . S
C1756 H1732 0.950 . S
C1756 C1751 1.363 . S
C1756 C1755 1.415 . S
C1757 H1733 0.951 . S
C1757 C1758 1.366 . S
C1757 C1759 1.388 . S
C1758 C1757 1.366 . S
C1758 C1762 1.385 . S
C1759 H1734 0.951 . S
C1759 C1757 1.388 . S
C1759 C1760 1.366 . S
C1760 C1759 1.366 . S
C1760 C1761 1.427 . S
C1760 C1763 1.499 . S
C1761 H1735 0.930 1_455 S
C1761 C1760 1.427 . S
C1761 C1762 1.381 . S
C1762 H1736 0.950 1_455 S
C1762 C1758 1.385 . S
C1762 C1761 1.381 . S
C1763 C1760 1.499 . S
C1763 C1764 1.373 1_455 S
C1763 C1765 1.389 . S
C1764 H1737 0.950 . S
C1764 C1750 1.377 . S
C1764 C1763 1.373 1_655 S
C1765 C1749 1.377 . S
C1765 C1763 1.389 . S
C1765 C1766 1.524 . S
C1766 C1765 1.524 . S
C1766 C1767 1.397 . S
C1766 C1771 1.363 . S
C1767 H1738 0.950 1_455 S
C1767 C1766 1.397 . S
C1767 C1768 1.334 . S
C1768 H1739 0.944 1_455 S
C1768 C1767 1.334 . S
C1768 C1769 1.287 . S
C1769 C1768 1.287 . S
C1769 C1770 1.524 . S
C1769 H1772 0.999 . S
C1770 H1740 0.950 . S
C1770 C1769 1.524 . S
C1770 C1771 1.415 . S
C1771 H1741 0.950 . S
C1771 C1766 1.363 . S
C1771 C1770 1.415 . S
H1772 C1769 0.999 . S
H1773 C1754 0.913 . S
H1774 C1792 0.951 . S
H1775 C1794 0.951 . S
H1776 C1796 0.950 . S
H1777 C1797 0.950 . S
H1778 C1799 0.950 . S
H1779 C1802 0.950 . S
H1780 C1803 0.950 . S
H1781 C1805 0.950 . S
H1782 C1806 0.950 . S
H1783 C1807 0.951 . S
H1784 C1809 0.951 . S
H1785 C1811 0.950 . S
H1786 C1812 0.950 . S
H1787 C1814 0.950 . S
H1788 C1817 0.950 . S
H1789 C1818 0.950 . S
H1790 C1820 0.950 . S
H1791 C1821 0.950 . S
C1792 H1774 0.951 . S
C1792 C1793 1.366 . S
C1792 C1794 1.388 . S
C1793 C1792 1.366 . S
C1793 C1797 1.385 . S
C1794 H1775 0.951 . S
C1794 C1792 1.388 . S
C1794 C1795 1.366 . S
C1795 C1794 1.366 . S
C1795 C1796 1.414 . S
C1795 C1798 1.499 . S
C1796 H1776 0.950 . S
C1796 C1795 1.414 . S
C1796 C1797 1.374 . S
C1797 H1777 0.950 . S
C1797 C1793 1.385 . S
C1797 C1796 1.374 . S
C1798 C1795 1.499 . S
C1798 C1799 1.373 . S
C1798 C1800 1.389 . S
C1799 H1778 0.950 . S
C1799 C1798 1.373 . S
C1799 C1815 1.377 . S
C1800 C1798 1.389 . S
C1800 C1801 1.524 . S
C1800 C1814 1.377 . S
C1801 C1800 1.524 . S
C1801 C1802 1.397 . S
C1801 C1806 1.363 . S
C1802 H1779 0.950 . S
C1802 C1801 1.397 . S
C1802 C1803 1.334 . S
C1803 H1780 0.950 . S
C1803 C1802 1.334 . S
C1803 C1804 1.287 . S
C1804 C1803 1.287 . S
C1804 C1805 1.524 . S
C1804 H1823 0.913 . S
C1805 H1781 0.950 . S
C1805 C1804 1.524 . S
C1805 C1806 1.415 . S
C1806 H1782 0.950 . S
C1806 C1801 1.363 . S
C1806 C1805 1.415 . S
C1807 H1783 0.951 . S
C1807 C1808 1.366 . S
C1807 C1809 1.388 . S
C1808 C1807 1.366 . S
C1808 C1812 1.385 . S
C1809 H1784 0.951 . S
C1809 C1807 1.388 . S
C1809 C1810 1.366 . S
C1810 C1809 1.366 . S
C1810 C1811 1.414 . S
C1810 C1813 1.499 . S
C1811 H1785 0.950 . S
C1811 C1810 1.414 . S
C1811 C1812 1.374 . S
C1812 H1786 0.950 . S
C1812 C1808 1.385 . S
C1812 C1811 1.374 . S
C1813 C1810 1.499 . S
C1813 C1814 1.373 . S
C1813 C1815 1.389 . S
C1814 H1787 0.950 . S
C1814 C1800 1.377 . S
C1814 C1813 1.373 . S
C1815 C1799 1.377 . S
C1815 C1813 1.389 . S
C1815 C1816 1.524 . S
C1816 C1815 1.524 . S
C1816 C1817 1.397 . S
C1816 C1821 1.363 . S
C1817 H1788 0.950 . S
C1817 C1816 1.397 . S
C1817 C1818 1.334 . S
C1818 H1789 0.950 . S
C1818 C1817 1.334 . S
C1818 C1819 1.287 . S
C1819 C1818 1.287 . S
C1819 C1820 1.524 . S
C1819 H1822 0.999 . S
C1820 H1790 0.950 . S
C1820 C1819 1.524 . S
C1820 C1821 1.415 . S
C1821 H1791 0.950 . S
C1821 C1816 1.363 . S
C1821 C1820 1.415 . S
H1822 C1819 0.999 . S
H1823 C1804 0.913 . S
C243 C25 1.485 . S
C258 C11 1.485 . S
C293 C39 1.485 . S
C308 C53 1.485 . S
C343 C67 1.485 . S
C358 C81 1.486 . S
C393 C109 1.486 . S
C408 C95 1.485 . S
C443 C137 1.486 . S
C458 C123 1.485 . S
C493 C165 1.486 . S
C508 C151 1.485 . S
C543 C193 1.485 . S
C558 C179 1.486 . S
C593 C221 1.485 . S
C608 C207 1.486 . S
C643 C49 1.100 . S
C658 C7 1.101 . S
C693 C21 1.101 . S
C708 C35 1.101 . S
C743 C105 1.100 . S
C758 C63 1.101 . S
C793 C91 1.100 . S
C808 C77 1.101 . S
C843 C119 1.101 . S
C858 C161 1.101 . S
C893 C147 1.100 . S
C908 C133 1.101 . S
C943 C217 1.101 . S
C958 C175 1.101 . S
C993 C189 1.101 . S
C1008 C203 1.101 . S
C1043 C8 1.457 . S
C1058 C134 1.457 . S
C1093 C22 1.458 . S
C1108 C120 1.458 . S
C1143 C162 1.457 . S
C1158 C36 1.457 . S
C1193 C148 1.457 . S
C1208 C50 1.457 . S
C1243 C190 1.457 . S
C1258 C64 1.457 . S
C1293 C176 1.457 . S
C1308 C78 1.457 . S
C1343 C92 1.457 . S
C1358 C218 1.457 . S
C1393 C106 1.457 . S
C1408 C204 1.457 . S
C1443 C69 1.018 . S
C1458 C13 1.018 . S
C1493 C83 1.018 . S
C1508 C27 1.018 . S
C1543 C97 1.016 . S
C1558 C41 1.016 . S
C1593 C111 1.018 . S
C1608 C55 1.018 . S
C1643 C125 1.017 . S
C1658 C181 1.017 . S
C1693 C139 1.017 . S
C1708 C195 1.017 . S
C1743 C209 1.017 . S
C1758 C153 1.017 . S
C1793 C223 1.018 . S
C1808 C167 1.018 . S
