# Generated by pormake.
# Topology qtz-x, (6)-cn, num edge types: 1
# Building blocks:
#     Node 0, Type 0, BuildingBlock: KUMBUR_clean_sbu_0, # of connection points: 6
#     Node 1, Type 0, BuildingBlock: KUMBUR_clean_sbu_0, # of connection points: 6
#     Node 2, Type 0, BuildingBlock: KUMBUR_clean_sbu_0, # of connection points: 6
#     Edge 3, Type (0, 0), BuildingBlock: CIFDUS_clean_linker_0, # of connection points: 2
#     Edge 4, Type (0, 0), BuildingBlock: CIFDUS_clean_linker_0, # of connection points: 2
#     Edge 5, Type (0, 0), BuildingBlock: CIFDUS_clean_linker_0, # of connection points: 2
#     Edge 6, Type (0, 0), BuildingBlock: CIFDUS_clean_linker_0, # of connection points: 2
#     Edge 7, Type (0, 0), BuildingBlock: CIFDUS_clean_linker_0, # of connection points: 2
#     Edge 8, Type (0, 0), BuildingBlock: CIFDUS_clean_linker_0, # of connection points: 2
#     Edge 9, Type (0, 0), BuildingBlock: CIFDUS_clean_linker_0, # of connection points: 2
#     Edge 10, Type (0, 0), BuildingBlock: CIFDUS_clean_linker_0, # of connection points: 2
#     Edge 11, Type (0, 0), BuildingBlock: CIFDUS_clean_linker_0, # of connection points: 2
# Relax obj value: 0.163
# Max RMSD: 0.282
# Mean RMSD: 0.282
data_MOF--net-qtz-x--node1-KUMBUR_clean_sbu_0--edge1-CIFDUS_clean_linker_0
_symmetry_space_group_name_H-M    P1
_symmetry_Int_Tables_number       1
_symmetry_cell_setting            triclinic
loop_
_symmetry_equiv_pos_as_xyz
'x, y, z'
_cell_length_a     13.263602
_cell_length_b     13.26736
_cell_length_c     45.756497
_cell_angle_alpha  89.544412
_cell_angle_beta   90.465273
_cell_angle_gamma 120.71559
loop_
_atom_site_label
_atom_site_type_symbol
_atom_site_fract_x
_atom_site_fract_y
_atom_site_fract_z
_atom_type_partial_charge
Tb0 Tb 0.28221 0.51174 0.20786 0.0
C1 C 0.76868 0.35586 0.16186 0.0
C2 C 0.64546 0.17826 0.18906 0.0
C3 C 0.55798 0.27704 0.16391 0.0
C4 C 0.75724 0.2653 0.17897 0.0
C5 C 0.66905 0.36183 0.15353 0.0
C6 C 0.54639 0.18585 0.18187 0.0
C7 C 0.7957 0.53219 0.12444 0.0
N8 N 0.87688 0.4345 0.15192 0.0
C9 C 0.89127 0.52165 0.13312 0.0
C10 C 0.68378 0.4515 0.13457 0.0
Tb11 Tb 0.02581 0.39824 0.16143 0.0
N12 N 0.85442 0.25829 0.18405 0.0
C13 C 0.84279 0.16092 0.19798 0.0
C14 C 0.6357 0.08345 0.20495 0.0
C15 C 0.73479 0.07437 0.20921 0.0
H16 H 0.97649 0.58216 0.12419 0.0
H17 H 0.72776 0.99933 0.22067 0.0
H18 H 0.46017 0.12004 0.18942 0.0
H19 H 0.80829 0.60175 0.10966 0.0
H20 H 0.91603 0.14819 0.20104 0.0
H21 H 0.59134 0.9101 0.15108 0.0
H22 H 0.55161 0.01485 0.21308 0.0
H23 H 0.32769 0.33068 0.24698 0.0
H24 H 0.40405 0.77129 0.17382 0.0
H25 H 0.48722 0.29032 0.25631 0.0
H26 H 0.4806 0.28078 0.15805 0.0
H27 H 0.75327 0.86913 0.15084 0.0
H28 H 0.83267 0.74474 0.16896 0.0
H29 H 0.60963 0.45927 0.12769 0.0
H30 H 0.8061 0.57825 0.19881 0.0
N31 N 0.45145 0.64311 0.18367 0.0
C32 C 0.47107 0.74842 0.17299 0.0
C33 C 0.66909 0.80498 0.15993 0.0
C34 C 0.65266 0.70251 0.17324 0.0
C35 C 0.57823 0.8287 0.16017 0.0
C36 C 0.54102 0.62146 0.18465 0.0
H37 H 0.67734 0.40744 0.23117 0.0
N38 N 0.42056 0.45879 0.21406 0.0
C39 C 0.49895 0.35628 0.24042 0.0
C40 C 0.52522 0.52592 0.20064 0.0
C41 C 0.40825 0.37847 0.23481 0.0
C42 C 0.60593 0.42231 0.22615 0.0
C43 C 0.62129 0.51061 0.2066 0.0
O44 O 0.27807 0.50556 0.25395 0.0
O45 O 0.0932 0.43193 0.2056 0.0
O46 O 0.03971 0.55507 0.18146 0.0
O47 O 0.23149 0.64418 0.20035 0.0
O48 O 0.15964 0.36155 0.23413 0.0
O49 O 0.37745 0.66941 0.23155 0.0
O50 O 0.00768 0.4015 0.11531 0.0
O51 O 0.21544 0.48603 0.16357 0.0
O52 O 0.26706 0.35414 0.18827 0.0
O53 O 0.07372 0.26505 0.1708 0.0
O54 O 0.14263 0.553 0.13599 0.0
O55 O 0.98722 0.24932 0.13748 0.0
C56 C 0.06433 0.35643 0.22567 0.0
C57 C 0.44908 0.64785 0.27757 0.0
C58 C 0.52174 0.67706 0.32812 0.0
C59 C 0.43343 0.658 0.30757 0.0
C60 C 0.62333 0.68 0.31789 0.0
C61 C 0.55551 0.66173 0.26802 0.0
C62 C 0.64072 0.67467 0.28808 0.0
C63 C 0.1354 0.646 0.1929 0.0
C64 C 0.35163 0.61686 0.25684 0.0
C65 C 0.73144 0.58875 0.19454 0.0
C66 C 0.74662 0.68358 0.17753 0.0
C67 C 0.24032 0.5642 0.14437 0.0
C68 C 0.87845 0.21547 0.09359 0.0
C69 C 0.87459 0.24857 0.06443 0.0
C70 C 0.78759 0.16966 0.04469 0.0
C71 C 0.70454 0.05687 0.05507 0.0
C72 C 0.792 0.1037 0.10333 0.0
C73 C 0.70616 0.02526 0.08415 0.0
C74 C 0.17006 0.26296 0.17764 0.0
C75 C 0.97945 0.29281 0.11261 0.0
H76 H 0.35338 0.65339 0.31456 0.0
H77 H 0.69089 0.68826 0.33278 0.0
H78 H 0.57289 0.66213 0.24513 0.0
H79 H 0.72093 0.68113 0.28047 0.0
H80 H 0.94007 0.33581 0.05731 0.0
H81 H 0.6387 0.99158 0.04073 0.0
H82 H 0.79225 0.07538 0.12559 0.0
H83 H 0.64192 0.93851 0.09179 0.0
Tb84 Tb 0.63322 0.96215 0.54717 0.0
C85 C 0.92407 0.44909 0.51638 0.0
C86 C 0.84254 0.54196 0.54532 0.0
C87 C 0.05152 0.64437 0.53635 0.0
C88 C 0.82805 0.44502 0.52906 0.0
C89 C 0.03547 0.55253 0.51824 0.0
C90 C 0.95525 0.6384 0.55022 0.0
C91 C 0.10178 0.47795 0.4798 0.0
N92 N 0.90506 0.36018 0.49841 0.0
C93 C 0.9904 0.37754 0.47878 0.0
C94 C 0.12502 0.56517 0.49995 0.0
Tb95 Tb 0.71651 0.20022 0.49689 0.0
N96 N 0.71969 0.35356 0.52227 0.0
C97 C 0.62314 0.36245 0.52848 0.0
C98 C 0.74321 0.54377 0.55423 0.0
C99 C 0.63327 0.45524 0.54505 0.0
H100 H 0.97286 0.31437 0.46187 0.0
H101 H 0.55604 0.45951 0.55017 0.0
H102 H 0.96776 0.71236 0.56301 0.0
H103 H 0.16884 0.48907 0.46458 0.0
H104 H 0.5369 0.30152 0.52033 0.0
H105 H 0.75014 0.712 0.47709 0.0
H106 H 0.75107 0.61681 0.56655 0.0
H107 H 0.41232 0.87448 0.59235 0.0
H108 H 0.78273 0.88517 0.50414 0.0
H109 H 0.22748 0.69197 0.60428 0.0
H110 H 0.13685 0.723 0.53846 0.0
H111 H 0.55745 0.5286 0.47922 0.0
H112 H 0.35773 0.41605 0.50189 0.0
H113 H 0.21044 0.6446 0.50011 0.0
H114 H 0.21676 0.40901 0.53768 0.0
N115 N 0.6076 0.80605 0.51972 0.0
C116 C 0.69728 0.80756 0.50479 0.0
C117 C 0.57028 0.60579 0.49053 0.0
C118 C 0.48157 0.60159 0.50773 0.0
C119 C 0.67929 0.70887 0.48943 0.0
C120 C 0.50297 0.70476 0.522 0.0
H121 H 0.16817 0.51116 0.5763 0.0
N122 N 0.4521 0.80081 0.55626 0.0
C123 C 0.28112 0.6935 0.58639 0.0
C124 C 0.42287 0.70141 0.54145 0.0
C125 C 0.38524 0.79691 0.57938 0.0
C126 C 0.24793 0.59168 0.57055 0.0
C127 C 0.32024 0.5941 0.54814 0.0
O128 O 0.63907 0.95367 0.59331 0.0
O129 O 0.72458 0.15146 0.5417 0.0
O130 O 0.85987 0.1612 0.49817 0.0
O131 O 0.82113 0.04511 0.53974 0.0
O132 O 0.60509 0.07897 0.57456 0.0
O133 O 0.73156 0.8959 0.56671 0.0
O134 O 0.76098 0.20726 0.45241 0.0
O135 O 0.66551 0.01716 0.50187 0.0
O136 O 0.46889 0.95655 0.53596 0.0
O137 O 0.5378 0.13613 0.51167 0.0
O138 O 0.57266 0.05538 0.47322 0.0
O139 O 0.66648 0.28908 0.46744 0.0
C140 C 0.68408 0.17715 0.56348 0.0
C141 C 0.64791 0.78993 0.61026 0.0
C142 C 0.60506 0.68947 0.65758 0.0
C143 C 0.65174 0.79388 0.64102 0.0
C144 C 0.55449 0.58151 0.64278 0.0
C145 C 0.59718 0.68085 0.5962 0.0
C146 C 0.55024 0.57755 0.61239 0.0
C147 C 0.89057 0.10885 0.5182 0.0
C148 C 0.69721 0.89938 0.59299 0.0
C149 C 0.29582 0.49197 0.53313 0.0
C150 C 0.37582 0.49604 0.51268 0.0
C151 C 0.58787 0.97206 0.4821 0.0
C152 C 0.78732 0.37308 0.42587 0.0
C153 C 0.78778 0.35548 0.39557 0.0
C154 C 0.85351 0.45086 0.37642 0.0
C155 C 0.91875 0.56421 0.38841 0.0
C156 C 0.85191 0.48711 0.4371 0.0
C157 C 0.91741 0.58186 0.41843 0.0
C158 C 0.45392 0.04017 0.52445 0.0
C159 C 0.71656 0.2717 0.44521 0.0
H160 H 0.69095 0.87786 0.65195 0.0
H161 H 0.5208 0.49966 0.65464 0.0
H162 H 0.59519 0.67508 0.57267 0.0
H163 H 0.51193 0.49401 0.60135 0.0
H164 H 0.73586 0.26743 0.38698 0.0
H165 H 0.97301 0.63952 0.37471 0.0
H166 H 0.85172 0.50306 0.46026 0.0
H167 H 0.96799 0.66947 0.42729 0.0
Tb168 Tb 0.6785 0.54295 0.87473 0.0
C169 C 0.83152 0.19483 0.82912 0.0
C170 C 0.00742 0.24204 0.85615 0.0
C171 C 0.89399 0.05206 0.8329 0.0
C172 C 0.92597 0.27256 0.84572 0.0
C173 C 0.81529 0.08428 0.822 0.0
C174 C 0.98977 0.13061 0.85007 0.0
C175 C 0.64468 0.04563 0.79392 0.0
N176 N 0.7575 0.22924 0.81911 0.0
C177 C 0.66491 0.15645 0.80144 0.0
C178 C 0.7206 0.00948 0.80411 0.0
Tb179 Tb 0.80609 0.41823 0.82894 0.0
N180 N 0.94092 0.38007 0.85048 0.0
C181 C 0.04039 0.46358 0.86436 0.0
C182 C 0.10573 0.32545 0.87165 0.0
C183 C 0.12275 0.43712 0.87551 0.0
H184 H 0.6058 0.18306 0.79307 0.0
H185 H 0.20007 0.50358 0.88679 0.0
H186 H 0.04995 0.10479 0.85842 0.0
H187 H 0.57081 0.98839 0.78014 0.0
H188 H 0.05783 0.55133 0.86733 0.0
H189 H 0.28519 0.46537 0.81833 0.0
H190 H 0.17047 0.30566 0.87998 0.0
H191 H 0.88302 0.7754 0.91044 0.0
H192 H 0.42283 0.4122 0.83898 0.0
H193 H 0.92551 0.97392 0.92242 0.0
H194 H 0.88005 0.96599 0.8285 0.0
H195 H 0.3253 0.66819 0.82284 0.0
H196 H 0.45178 0.86981 0.84342 0.0
H197 H 0.70499 0.92365 0.79822 0.0
H198 H 0.62345 0.00647 0.87305 0.0
N199 N 0.54856 0.58582 0.85253 0.0
C200 C 0.44501 0.50224 0.84024 0.0
C201 C 0.3884 0.64617 0.83119 0.0
C202 C 0.48969 0.7293 0.84581 0.0
C203 C 0.36539 0.5317 0.82868 0.0
C204 C 0.56923 0.69616 0.8562 0.0
H205 H 0.79786 0.04491 0.90321 0.0
N206 N 0.7356 0.735 0.88335 0.0
C207 C 0.85188 0.91826 0.90839 0.0
C208 C 0.66509 0.77285 0.87266 0.0
C209 C 0.82762 0.80555 0.90141 0.0
C210 C 0.77968 0.95799 0.89754 0.0
C211 C 0.68465 0.88491 0.87952 0.0
O212 O 0.67381 0.55236 0.92068 0.0
O213 O 0.7677 0.44513 0.87283 0.0
O214 O 0.65804 0.27066 0.85144 0.0
O215 O 0.54963 0.35971 0.86266 0.0
O216 O 0.82307 0.57035 0.90356 0.0
O217 O 0.51684 0.44187 0.8959 0.0
O218 O 0.80977 0.41021 0.78281 0.0
O219 O 0.71271 0.51233 0.83084 0.0
O220 O 0.82584 0.68904 0.85183 0.0
O221 O 0.93413 0.59887 0.84262 0.0
O222 O 0.65753 0.38244 0.80092 0.0
O223 O 0.96277 0.53276 0.80727 0.0
C224 C 0.83817 0.48839 0.89401 0.0
C225 C 0.49694 0.52866 0.93883 0.0
C226 C 0.44318 0.56935 0.98642 0.0
C227 C 0.50278 0.52783 0.96956 0.0
C228 C 0.37766 0.61155 0.97203 0.0
C229 C 0.42997 0.57017 0.92507 0.0
C230 C 0.37131 0.61187 0.94161 0.0
C231 C 0.55854 0.26564 0.85842 0.0
C232 C 0.56026 0.48525 0.92153 0.0
C233 C 0.60789 0.91969 0.86859 0.0
C234 C 0.51089 0.84228 0.85159 0.0
C235 C 0.63937 0.46215 0.81053 0.0
C236 C 0.99603 0.47538 0.76071 0.0
C237 C 0.9585 0.44261 0.73157 0.0
C238 C 0.03569 0.44451 0.71007 0.0
C239 C 0.15149 0.4798 0.71865 0.0
C240 C 0.11103 0.50696 0.76856 0.0
C241 C 0.18789 0.50926 0.74763 0.0
C242 C 0.92563 0.69342 0.84584 0.0
C243 C 0.92004 0.49112 0.7815 0.0
H244 H 0.55379 0.49524 0.98028 0.0
H245 H 0.32875 0.64179 0.98433 0.0
H246 H 0.42166 0.56938 0.90158 0.0
H247 H 0.3196 0.64335 0.93083 0.0
H248 H 0.86915 0.4166 0.7258 0.0
H249 H 0.21539 0.48672 0.70298 0.0
H250 H 0.14294 0.5333 0.79067 0.0
H251 H 0.27714 0.5367 0.75382 0.0
H252 H 0.03476 0.73827 0.15794 0.0
H253 H 0.2591 0.81431 0.23327 0.0
H254 H 0.29618 0.01441 0.2343 0.0
H255 H 0.2667 0.1682 0.21331 0.0
H256 H 0.04692 0.09367 0.13716 0.0
H257 H 0.00765 0.89334 0.13658 0.0
C258 C 0.09005 0.79775 0.17482 0.0
C259 C 0.14302 0.76078 0.19559 0.0
C260 C 0.11366 0.91385 0.17481 0.0
C261 C 0.21663 0.84033 0.21706 0.0
C262 C 0.23847 0.95502 0.21759 0.0
C263 C 0.21239 0.10941 0.19628 0.0
C264 C 0.16087 0.14712 0.17528 0.0
C265 C 0.1888 0.99332 0.19631 0.0
C266 C 0.08775 0.06754 0.15373 0.0
C267 C 0.06475 0.95244 0.15341 0.0
H268 H 0.36586 0.13389 0.48681 0.0
H269 H 0.28394 0.92927 0.56609 0.0
H270 H 0.10435 0.93578 0.57139 0.0
H271 H 0.97571 0.00619 0.55456 0.0
H272 H 0.05466 0.20568 0.47431 0.0
H273 H 0.233 0.19822 0.46897 0.0
C274 C 0.30833 0.08999 0.50519 0.0
C275 C 0.33813 0.03064 0.52601 0.0
C276 C 0.20625 0.09556 0.50827 0.0
C277 C 0.26239 0.97375 0.54953 0.0
C278 C 0.16026 0.97866 0.55273 0.0
C279 C 0.03163 0.04863 0.53586 0.0
C280 C 0.00217 0.10912 0.5152 0.0
C281 C 0.13223 0.04057 0.53241 0.0
C282 C 0.07592 0.16182 0.49105 0.0
C283 C 0.17749 0.15608 0.48775 0.0
H284 H 0.12046 0.75939 0.878 0.0
H285 H 0.97768 0.87852 0.81048 0.0
H286 H 0.16176 0.06844 0.80867 0.0
H287 H 0.36372 0.19965 0.82647 0.0
H288 H 0.50881 0.07829 0.8929 0.0
H289 H 0.32428 0.88886 0.89493 0.0
C290 C 0.1301 0.82738 0.86297 0.0
C291 C 0.0353 0.80765 0.84501 0.0
C292 C 0.23667 0.93482 0.86179 0.0
C293 C 0.04832 0.89481 0.82534 0.0
C294 C 0.15394 1.00219 0.82402 0.0
C295 C 0.35448 0.13126 0.8413 0.0
C296 C 0.44941 0.15097 0.85919 0.0
C297 C 0.2484 0.02338 0.84228 0.0
C298 C 0.43739 0.06289 0.87842 0.0
C299 C 0.33168 0.95553 0.87979 0.0
H300 H 0.47076 0.73817 0.02411 0.0
H301 H 0.4147 0.3884 0.02171 0.0
H302 H 0.37514 0.36624 0.07427 0.0
H303 H 0.31792 0.43237 0.11835 0.0
H304 H 0.35193 0.77316 0.11778 0.0
H305 H 0.43917 0.81333 0.06935 0.0
C306 C 0.45134 0.6576 0.03518 0.0
C307 C 0.44321 0.56427 1.01893 0.0
C308 C 0.42442 0.64395 0.06504 0.0
C309 C 0.42105 0.46154 0.03369 0.0
C310 C 0.3976 0.44851 0.06373 0.0
C311 C 0.34996 0.51737 0.10811 0.0
C312 C 0.33084 0.60077 0.12174 0.0
C313 C 0.39401 0.53726 0.07939 0.0
C314 C 0.36836 0.70896 0.10789 0.0
C315 C 0.41681 0.73133 0.08003 0.0
H316 H 0.85393 0.26777 0.34935 0.0
H317 H 0.86566 0.59314 0.33071 0.0
H318 H 0.90972 0.58118 0.27962 0.0
H319 H 0.9762 0.49414 0.24229 0.0
H320 H 0.96485 0.17016 0.26169 0.0
H321 H 0.88328 0.1626 0.30982 0.0
C322 C 0.86264 0.33463 0.33409 0.0
C323 C 0.85961 0.43291 0.34433 0.0
C324 C 0.88763 0.32716 0.30463 0.0
C325 C 0.87171 0.51846 0.32387 0.0
C326 C 0.89599 0.5113 0.29449 0.0
C327 C 0.9513 0.41962 0.25661 0.0
C328 C 0.97676 0.33288 0.24855 0.0
C329 C 0.90873 0.41834 0.28484 0.0
C330 C 0.94555 0.23762 0.26747 0.0
C331 C 0.9004 0.2341 0.29514 0.0
H332 H 0.76297 0.68014 0.78659 0.0
H333 H 0.42713 0.36001 0.78548 0.0
H334 H 0.37598 0.41826 0.73972 0.0
H335 H 0.44095 0.53972 0.69599 0.0
H336 H 0.79058 0.84163 0.69239 0.0
H337 H 0.82067 0.81473 0.74402 0.0
C338 C 0.67677 0.62626 0.77688 0.0
C339 C 0.59744 0.51745 0.78964 0.0
C340 C 0.65145 0.65642 0.74931 0.0
C341 C 0.48799 0.44545 0.77634 0.0
C342 C 0.45939 0.47809 0.75 0.0
C343 C 0.52352 0.60039 0.70653 0.0
C344 C 0.61432 0.6906 0.69008 0.0
C345 C 0.54273 0.58019 0.73559 0.0
C346 C 0.71917 0.77089 0.70441 0.0
C347 C 0.7369 0.75487 0.73392 0.0
H348 H 0.67378 0.28489 0.91806 0.0
H349 H 0.0408 0.54671 0.92245 0.0
H350 H 0.06125 0.46031 0.96786 0.0
H351 H 0.96935 0.32581 1.00925 0.0
H352 H 0.5929 0.09249 1.00916 0.0
H353 H 0.58202 0.1504 0.95942 0.0
C354 C 0.759 0.31982 0.92842 0.0
C355 C 0.85697 0.41826 0.91617 0.0
C356 C 0.76766 0.27621 0.95588 0.0
C357 C 0.9655 0.46741 0.9307 0.0
C358 C 0.97657 0.41941 0.95701 0.0
C359 C 0.88438 0.28803 0.99869 0.0
C360 C 0.78238 0.20413 1.01355 0.0
C361 C 0.87723 0.3265 0.97037 0.0
C362 C 0.67401 0.15506 0.9986 0.0
C363 C 0.66713 0.18899 0.97001 0.0
H364 H 0.69987 0.8154 0.36568 0.0
H365 H 0.32226 0.59506 0.36225 0.0
H366 H 0.30921 0.65695 0.41148 0.0
H367 H 0.40553 0.79014 0.45374 0.0
H368 H 0.78299 1.00012 0.45643 0.0
H369 H 0.79536 0.92026 0.4099 0.0
C370 C 0.61431 0.77684 0.37573 0.0
C371 C 0.5123 0.70138 0.35963 0.0
C372 C 0.60736 0.81036 0.40426 0.0
C373 C 0.40269 0.65603 0.37344 0.0
C374 C 0.39498 0.69048 0.40183 0.0
C375 C 0.4902 0.81516 0.44444 0.0
C376 C 0.59317 0.89952 0.45865 0.0
C377 C 0.49673 0.77003 0.41719 0.0
C378 C 0.7026 0.93366 0.44621 0.0
C379 C 0.70972 0.88896 0.4194 0.0
H380 H 0.86886 0.4658 0.67846 0.0
H381 H 0.11259 0.34205 0.67075 0.0
H382 H 0.04457 0.2772 0.62133 0.0
H383 H 0.89774 0.22911 0.58273 0.0
H384 H 0.62912 0.31569 0.59438 0.0
H385 H 0.7249 0.42211 0.63923 0.0
C386 C 0.90684 0.42373 0.66627 0.0
C387 C 0.99618 0.40926 0.67898 0.0
C388 C 0.86291 0.38034 0.63812 0.0
C389 C 0.04552 0.3572 0.66193 0.0
C390 C 0.00585 0.3187 0.63351 0.0
C391 C 0.86291 0.27513 0.59457 0.0
C392 C 0.75898 0.26849 0.58475 0.0
C393 C 0.91275 0.32713 0.62164 0.0
C394 C 0.71149 0.32364 0.60095 0.0
C395 C 0.76508 0.38245 0.62691 0.0
loop_
_geom_bond_atom_site_label_1
_geom_bond_atom_site_label_2
_geom_bond_distance
_geom_bond_site_symmetry_2
_ccdc_geom_bond_type
Tb0 N31 2.660 . S
Tb0 N38 2.600 . S
Tb0 O44 2.546 . S
Tb0 O45 2.610 1_455 S
Tb0 O47 2.320 . S
Tb0 O48 2.552 . S
Tb0 O49 2.413 . S
Tb0 O51 2.362 . S
Tb0 O52 2.421 . S
Tb0 C64 2.833 . S
C1 C4 1.432 . S
C1 C5 1.414 . S
C1 N8 1.359 . S
C2 C4 1.417 . S
C2 C6 1.432 . S
C2 C14 1.410 . S
C3 C5 1.444 . S
C3 C6 1.317 . S
C3 H26 0.929 . S
C4 C1 1.432 . S
C4 C2 1.417 . S
C4 N12 1.360 . S
C5 C1 1.414 . S
C5 C3 1.444 . S
C5 C10 1.385 . S
C6 C2 1.432 . S
C6 C3 1.317 . S
C6 H18 0.930 . S
C7 C9 1.392 . S
C7 C10 1.370 . S
C7 H19 0.931 . S
N8 C1 1.359 . S
N8 C9 1.327 . S
N8 Tb11 2.600 . S
C9 C7 1.392 . S
C9 N8 1.327 . S
C9 H16 0.930 . S
C10 C5 1.385 . S
C10 C7 1.370 . S
C10 H29 0.930 . S
Tb11 N8 2.600 . S
Tb11 N12 2.660 . S
Tb11 O45 2.362 . S
Tb11 O46 2.421 . S
Tb11 O50 2.546 . S
Tb11 O51 2.610 1_655 S
Tb11 O53 2.320 . S
Tb11 O54 2.552 . S
Tb11 O55 2.413 . S
Tb11 C75 2.833 . S
N12 C4 1.360 . S
N12 Tb11 2.660 . S
N12 C13 1.305 . S
C13 N12 1.305 . S
C13 C15 1.407 . S
C13 H20 0.930 . S
C14 C2 1.410 . S
C14 C15 1.345 . S
C14 H22 0.930 1_545 S
C15 C13 1.407 . S
C15 C14 1.345 . S
C15 H17 0.930 1_545 S
H16 C9 0.930 . S
H17 C15 0.930 1_565 S
H18 C6 0.930 . S
H19 C7 0.931 . S
H20 C13 0.930 . S
H21 C35 0.930 . S
H22 C14 0.930 1_565 S
H23 C41 0.930 . S
H24 C32 0.930 . S
H25 C39 0.931 . S
H26 C3 0.929 . S
H27 C33 0.930 . S
H28 C66 0.930 . S
H29 C10 0.930 . S
H30 C65 0.929 . S
N31 Tb0 2.660 . S
N31 C32 1.305 . S
N31 C36 1.360 . S
C32 H24 0.930 . S
C32 N31 1.305 . S
C32 C35 1.407 . S
C33 H27 0.930 . S
C33 C34 1.410 . S
C33 C35 1.345 . S
C34 C33 1.410 . S
C34 C36 1.417 . S
C34 C66 1.432 . S
C35 H21 0.930 . S
C35 C32 1.407 . S
C35 C33 1.345 . S
C36 N31 1.360 . S
C36 C34 1.417 . S
C36 C40 1.432 . S
H37 C42 0.930 . S
N38 Tb0 2.600 . S
N38 C40 1.359 . S
N38 C41 1.327 . S
C39 H25 0.931 . S
C39 C41 1.392 . S
C39 C42 1.370 . S
C40 C36 1.432 . S
C40 N38 1.359 . S
C40 C43 1.414 . S
C41 H23 0.930 . S
C41 N38 1.327 . S
C41 C39 1.392 . S
C42 H37 0.930 . S
C42 C39 1.370 . S
C42 C43 1.385 . S
C43 C40 1.414 . S
C43 C42 1.385 . S
C43 C65 1.444 . S
O44 Tb0 2.546 . S
O44 C64 1.251 . S
O45 Tb0 2.610 1_655 S
O45 Tb11 2.362 . S
O45 C56 1.283 . S
O46 Tb11 2.421 . S
O46 C63 1.262 1_655 S
O47 Tb0 2.320 . S
O47 C63 1.260 . S
O48 Tb0 2.552 . S
O48 C56 1.243 1_455 S
O49 Tb0 2.413 . S
O49 C64 1.256 . S
O50 Tb11 2.546 . S
O50 C75 1.251 . S
O51 Tb0 2.362 . S
O51 Tb11 2.610 1_455 S
O51 C67 1.283 . S
O52 Tb0 2.421 . S
O52 C74 1.262 1_455 S
O53 Tb11 2.320 . S
O53 C74 1.260 . S
O54 Tb11 2.552 . S
O54 C67 1.243 1_655 S
O55 Tb11 2.413 . S
O55 C75 1.256 . S
C56 O45 1.283 . S
C56 O48 1.243 1_655 S
C57 C59 1.382 . S
C57 C61 1.393 . S
C57 C64 1.500 . S
C58 C59 1.400 . S
C58 C60 1.384 . S
C59 C57 1.382 . S
C59 C58 1.400 . S
C59 H76 0.930 . S
C60 C58 1.384 . S
C60 C62 1.392 . S
C60 H77 0.931 . S
C61 C57 1.393 . S
C61 C62 1.401 . S
C61 H78 0.930 . S
C62 C60 1.392 . S
C62 C61 1.401 . S
C62 H79 0.930 . S
C63 O46 1.262 1_455 S
C63 O47 1.260 . S
C64 Tb0 2.833 . S
C64 O44 1.251 . S
C64 O49 1.256 . S
C64 C57 1.500 . S
C65 H30 0.929 . S
C65 C43 1.444 . S
C65 C66 1.317 . S
C66 H28 0.930 . S
C66 C34 1.432 . S
C66 C65 1.317 . S
C67 O51 1.283 . S
C67 O54 1.243 1_455 S
C68 C69 1.382 . S
C68 C72 1.393 . S
C68 C75 1.500 . S
C69 C68 1.382 . S
C69 C70 1.400 . S
C69 H80 0.930 . S
C70 C69 1.400 . S
C70 C71 1.384 . S
C71 C70 1.384 . S
C71 C73 1.392 . S
C71 H81 0.931 1_554 S
C72 C68 1.393 . S
C72 C73 1.401 . S
C72 H82 0.930 . S
C73 C71 1.392 . S
C73 C72 1.401 . S
C73 H83 0.930 . S
C74 O52 1.262 1_655 S
C74 O53 1.260 . S
C75 Tb11 2.833 . S
C75 O50 1.251 . S
C75 O55 1.256 . S
C75 C68 1.500 . S
H76 C59 0.930 . S
H77 C60 0.931 . S
H78 C61 0.930 . S
H79 C62 0.930 . S
H80 C69 0.930 . S
H81 C71 0.931 1_556 S
H82 C72 0.930 . S
H83 C73 0.930 . S
Tb84 N115 2.660 1_545 S
Tb84 N122 2.600 1_545 S
Tb84 O128 2.546 1_545 S
Tb84 O129 2.610 . S
Tb84 O131 2.320 . S
Tb84 O132 2.552 . S
Tb84 O133 2.413 1_545 S
Tb84 O135 2.362 . S
Tb84 O136 2.421 . S
Tb84 C148 2.833 1_545 S
C85 C88 1.432 . S
C85 C89 1.414 . S
C85 N92 1.359 . S
C86 C88 1.417 . S
C86 C90 1.432 . S
C86 C98 1.410 1_455 S
C87 C89 1.444 . S
C87 C90 1.317 . S
C87 H110 0.929 . S
C88 C85 1.432 . S
C88 C86 1.417 . S
C88 N96 1.360 1_455 S
C89 C85 1.414 . S
C89 C87 1.444 . S
C89 C94 1.385 . S
C90 C86 1.432 . S
C90 C87 1.317 . S
C90 H102 0.930 . S
C91 C93 1.392 . S
C91 C94 1.370 . S
C91 H103 0.931 . S
N92 C85 1.359 . S
N92 C93 1.327 . S
N92 Tb95 2.600 1_455 S
C93 C91 1.392 . S
C93 N92 1.327 . S
C93 H100 0.930 . S
C94 C89 1.385 . S
C94 C91 1.370 . S
C94 H113 0.930 . S
Tb95 N92 2.600 1_655 S
Tb95 N96 2.660 . S
Tb95 O129 2.362 . S
Tb95 O130 2.424 . S
Tb95 O134 2.546 1_655 S
Tb95 O135 2.610 . S
Tb95 O137 2.320 . S
Tb95 O138 2.552 . S
Tb95 O139 2.413 . S
Tb95 C159 2.833 . S
N96 C88 1.360 1_655 S
N96 Tb95 2.660 . S
N96 C97 1.305 . S
C97 N96 1.305 . S
C97 C99 1.407 . S
C97 H104 0.930 . S
C98 C86 1.410 1_655 S
C98 C99 1.345 . S
C98 H106 0.930 . S
C99 C97 1.407 . S
C99 C98 1.345 . S
C99 H101 0.930 . S
H100 C93 0.930 . S
H101 C99 0.930 . S
H102 C90 0.930 . S
H103 C91 0.931 . S
H104 C97 0.930 . S
H105 C119 0.930 . S
H106 C98 0.930 . S
H107 C125 0.930 . S
H108 C116 0.930 . S
H109 C123 0.931 . S
H110 C87 0.929 . S
H111 C117 0.930 . S
H112 C150 0.930 . S
H113 C94 0.930 . S
H114 C149 0.929 . S
N115 Tb84 2.660 1_565 S
N115 C116 1.305 . S
N115 C120 1.360 . S
C116 H108 0.930 . S
C116 N115 1.305 . S
C116 C119 1.407 . S
C117 H111 0.930 . S
C117 C118 1.410 . S
C117 C119 1.345 . S
C118 C117 1.410 . S
C118 C120 1.417 . S
C118 C150 1.432 . S
C119 H105 0.930 . S
C119 C116 1.407 . S
C119 C117 1.345 . S
C120 N115 1.360 . S
C120 C118 1.417 . S
C120 C124 1.432 . S
H121 C126 0.930 . S
N122 Tb84 2.600 1_565 S
N122 C124 1.359 . S
N122 C125 1.327 . S
C123 H109 0.931 . S
C123 C125 1.392 . S
C123 C126 1.370 . S
C124 C120 1.432 . S
C124 N122 1.359 . S
C124 C127 1.414 . S
C125 H107 0.930 . S
C125 N122 1.327 . S
C125 C123 1.392 . S
C126 H121 0.930 . S
C126 C123 1.370 . S
C126 C127 1.385 . S
C127 C124 1.414 . S
C127 C126 1.385 . S
C127 C149 1.444 . S
O128 Tb84 2.546 1_565 S
O128 C148 1.251 . S
O129 Tb84 2.610 . S
O129 Tb95 2.362 . S
O129 C140 1.283 . S
O130 Tb95 2.424 . S
O130 C147 1.261 . S
O131 Tb84 2.320 . S
O131 C147 1.260 . S
O132 Tb84 2.552 . S
O132 C140 1.243 . S
O133 Tb84 2.413 1_565 S
O133 C148 1.256 . S
O134 Tb95 2.546 1_455 S
O134 C159 1.251 1_455 S
O135 Tb84 2.362 . S
O135 Tb95 2.610 . S
O135 C151 1.283 . S
O136 Tb84 2.421 . S
O136 C158 1.262 . S
O137 Tb95 2.320 . S
O137 C158 1.260 . S
O138 Tb95 2.552 . S
O138 C151 1.243 . S
O139 Tb95 2.413 . S
O139 C159 1.256 . S
C140 O129 1.283 . S
C140 O132 1.243 . S
C141 C143 1.382 . S
C141 C145 1.393 . S
C141 C148 1.500 . S
C142 C143 1.400 . S
C142 C144 1.384 . S
C143 C141 1.382 . S
C143 C142 1.400 . S
C143 H160 0.930 . S
C144 C142 1.384 . S
C144 C146 1.392 . S
C144 H161 0.931 . S
C145 C141 1.393 . S
C145 C146 1.401 . S
C145 H162 0.930 . S
C146 C144 1.392 . S
C146 C145 1.401 . S
C146 H163 0.930 . S
C147 O130 1.261 . S
C147 O131 1.260 . S
C148 Tb84 2.833 1_565 S
C148 O128 1.251 . S
C148 O133 1.256 . S
C148 C141 1.500 . S
C149 H114 0.929 . S
C149 C127 1.444 . S
C149 C150 1.317 . S
C150 H112 0.930 . S
C150 C118 1.432 . S
C150 C149 1.317 . S
C151 O135 1.283 . S
C151 O138 1.243 . S
C152 C153 1.382 . S
C152 C156 1.393 1_655 S
C152 C159 1.500 . S
C153 C152 1.382 . S
C153 C154 1.400 . S
C153 H164 0.930 . S
C154 C153 1.400 . S
C154 C155 1.384 . S
C155 C154 1.384 . S
C155 C157 1.392 1_655 S
C155 H165 0.931 . S
C156 C152 1.393 1_455 S
C156 C157 1.401 . S
C156 H166 0.930 . S
C157 C155 1.392 1_455 S
C157 C156 1.401 . S
C157 H167 0.930 . S
C158 O136 1.262 . S
C158 O137 1.260 . S
C159 Tb95 2.833 . S
C159 O134 1.251 1_655 S
C159 O139 1.256 . S
C159 C152 1.500 . S
H160 C143 0.930 . S
H161 C144 0.931 . S
H162 C145 0.930 . S
H163 C146 0.930 . S
H164 C153 0.930 . S
H165 C155 0.931 . S
H166 C156 0.930 . S
H167 C157 0.930 . S
Tb168 N199 2.660 . S
Tb168 N206 2.600 . S
Tb168 O212 2.546 . S
Tb168 O213 2.610 . S
Tb168 O215 2.320 . S
Tb168 O216 2.552 . S
Tb168 O217 2.413 . S
Tb168 O219 2.362 . S
Tb168 O220 2.421 . S
Tb168 C232 2.833 . S
C169 C172 1.432 . S
C169 C173 1.414 1_545 S
C169 N176 1.359 . S
C170 C172 1.417 1_455 S
C170 C174 1.432 . S
C170 C182 1.410 . S
C171 C173 1.444 . S
C171 C174 1.317 1_665 S
C171 H194 0.929 . S
C172 C169 1.432 . S
C172 C170 1.417 1_655 S
C172 N180 1.359 . S
C173 C169 1.414 1_565 S
C173 C171 1.444 . S
C173 C178 1.385 . S
C174 C170 1.432 . S
C174 C171 1.317 1_445 S
C174 H186 0.930 . S
C175 C177 1.392 1_565 S
C175 C178 1.370 . S
C175 H187 0.931 . S
N176 C169 1.359 . S
N176 C177 1.327 . S
N176 Tb179 2.600 . S
C177 C175 1.392 1_545 S
C177 N176 1.327 . S
C177 H184 0.930 . S
C178 C173 1.385 . S
C178 C175 1.370 . S
C178 H197 0.930 . S
Tb179 N176 2.600 . S
Tb179 N180 2.662 . S
Tb179 O213 2.362 . S
Tb179 O214 2.421 . S
Tb179 O218 2.546 . S
Tb179 O219 2.610 . S
Tb179 O221 2.320 . S
Tb179 O222 2.552 . S
Tb179 O223 2.413 . S
Tb179 C243 2.833 . S
N180 C172 1.359 . S
N180 Tb179 2.662 . S
N180 C181 1.303 1_655 S
C181 N180 1.303 1_455 S
C181 C183 1.407 . S
C181 H188 0.930 . S
C182 C170 1.410 . S
C182 C183 1.345 . S
C182 H190 0.930 . S
C183 C181 1.407 . S
C183 C182 1.345 . S
C183 H185 0.930 . S
H184 C177 0.930 . S
H185 C183 0.930 . S
H186 C174 0.930 . S
H187 C175 0.931 . S
H188 C181 0.930 . S
H189 C203 0.930 . S
H190 C182 0.930 . S
H191 C209 0.930 . S
H192 C200 0.930 . S
H193 C207 0.931 . S
H194 C171 0.929 . S
H195 C201 0.930 . S
H196 C234 0.930 . S
H197 C178 0.930 . S
H198 C233 0.929 . S
N199 Tb168 2.660 . S
N199 C200 1.305 . S
N199 C204 1.360 . S
C200 H192 0.930 . S
C200 N199 1.305 . S
C200 C203 1.407 . S
C201 H195 0.930 . S
C201 C202 1.410 . S
C201 C203 1.345 . S
C202 C201 1.410 . S
C202 C204 1.417 . S
C202 C234 1.432 . S
C203 H189 0.930 . S
C203 C200 1.407 . S
C203 C201 1.345 . S
C204 N199 1.360 . S
C204 C202 1.417 . S
C204 C208 1.432 . S
H205 C210 0.930 1_545 S
N206 Tb168 2.600 . S
N206 C208 1.359 . S
N206 C209 1.327 . S
C207 H193 0.931 . S
C207 C209 1.392 . S
C207 C210 1.370 . S
C208 C204 1.432 . S
C208 N206 1.359 . S
C208 C211 1.414 . S
C209 H191 0.930 . S
C209 N206 1.327 . S
C209 C207 1.392 . S
C210 H205 0.930 1_565 S
C210 C207 1.370 . S
C210 C211 1.385 . S
C211 C208 1.414 . S
C211 C210 1.385 . S
C211 C233 1.444 . S
O212 Tb168 2.546 . S
O212 C232 1.251 . S
O213 Tb168 2.610 . S
O213 Tb179 2.362 . S
O213 C224 1.283 . S
O214 Tb179 2.421 . S
O214 C231 1.262 . S
O215 Tb168 2.320 . S
O215 C231 1.260 . S
O216 Tb168 2.552 . S
O216 C224 1.243 . S
O217 Tb168 2.413 . S
O217 C232 1.256 . S
O218 Tb179 2.546 . S
O218 C243 1.251 . S
O219 Tb168 2.362 . S
O219 Tb179 2.610 . S
O219 C235 1.283 . S
O220 Tb168 2.421 . S
O220 C242 1.262 1_655 S
O221 Tb179 2.320 . S
O221 C242 1.260 1_655 S
O222 Tb179 2.552 . S
O222 C235 1.243 . S
O223 Tb179 2.413 . S
O223 C243 1.256 . S
C224 O213 1.283 . S
C224 O216 1.243 . S
C225 C227 1.382 . S
C225 C229 1.393 . S
C225 C232 1.500 . S
C226 C227 1.400 . S
C226 C228 1.384 . S
C227 C225 1.382 . S
C227 C226 1.400 . S
C227 H244 0.930 . S
C228 C226 1.384 . S
C228 C230 1.392 . S
C228 H245 0.931 1_556 S
C229 C225 1.393 . S
C229 C230 1.401 . S
C229 H246 0.930 . S
C230 C228 1.392 . S
C230 C229 1.401 . S
C230 H247 0.930 . S
C231 O214 1.262 . S
C231 O215 1.260 . S
C232 Tb168 2.833 . S
C232 O212 1.251 . S
C232 O217 1.256 . S
C232 C225 1.500 . S
C233 H198 0.929 . S
C233 C211 1.444 . S
C233 C234 1.317 . S
C234 H196 0.930 . S
C234 C202 1.432 . S
C234 C233 1.317 . S
C235 O219 1.283 . S
C235 O222 1.243 . S
C236 C237 1.382 1_655 S
C236 C240 1.393 . S
C236 C243 1.500 . S
C237 C236 1.382 1_455 S
C237 C238 1.400 . S
C237 H248 0.930 . S
C238 C237 1.400 . S
C238 C239 1.384 . S
C239 C238 1.384 . S
C239 C241 1.392 1_455 S
C239 H249 0.931 . S
C240 C236 1.393 . S
C240 C241 1.401 . S
C240 H250 0.930 . S
C241 C239 1.392 1_655 S
C241 C240 1.401 . S
C241 H251 0.930 . S
C242 O220 1.262 1_455 S
C242 O221 1.260 1_455 S
C243 Tb179 2.833 . S
C243 O218 1.251 . S
C243 O223 1.256 . S
C243 C236 1.500 . S
H244 C227 0.930 . S
H245 C228 0.931 1_554 S
H246 C229 0.930 . S
H247 C230 0.930 . S
H248 C237 0.930 . S
H249 C239 0.931 . S
H250 C240 0.930 . S
H251 C241 0.930 . S
H252 C258 0.930 . S
H253 C261 0.930 . S
H254 C262 0.930 . S
H255 C263 0.930 . S
H256 C266 0.930 . S
H257 C267 0.930 . S
C258 H252 0.930 . S
C258 C259 1.355 1_655 S
C258 C260 1.415 . S
C259 C258 1.355 1_455 S
C259 C261 1.419 . S
C260 C258 1.415 . S
C260 C265 1.425 1_655 S
C260 C267 1.409 . S
C261 H253 0.930 . S
C261 C259 1.419 . S
C261 C262 1.362 . S
C262 H254 0.930 . S
C262 C261 1.362 . S
C262 C265 1.409 . S
C263 H255 0.930 . S
C263 C264 1.355 1_455 S
C263 C265 1.415 1_545 S
C264 C263 1.355 1_655 S
C264 C266 1.419 . S
C265 C260 1.425 1_455 S
C265 C262 1.409 . S
C265 C263 1.415 1_565 S
C266 H256 0.930 . S
C266 C264 1.419 . S
C266 C267 1.362 1_545 S
C267 H257 0.930 . S
C267 C260 1.409 . S
C267 C266 1.362 1_565 S
H268 C274 0.930 . S
H269 C277 0.930 . S
H270 C278 0.930 . S
H271 C279 0.930 . S
H272 C282 0.930 . S
H273 C283 0.930 . S
C274 H268 0.930 . S
C274 C275 1.355 . S
C274 C276 1.415 . S
C275 C274 1.355 . S
C275 C277 1.419 . S
C276 C274 1.415 . S
C276 C281 1.425 . S
C276 C283 1.409 . S
C277 H269 0.930 . S
C277 C275 1.419 . S
C277 C278 1.362 . S
C278 H270 0.930 . S
C278 C277 1.362 . S
C278 C281 1.409 . S
C279 H271 0.930 . S
C279 C280 1.355 . S
C279 C281 1.415 . S
C280 C279 1.355 . S
C280 C282 1.419 . S
C281 C276 1.425 . S
C281 C278 1.409 . S
C281 C279 1.415 . S
C282 H272 0.930 . S
C282 C280 1.419 . S
C282 C283 1.362 . S
C283 H273 0.930 . S
C283 C276 1.409 . S
C283 C282 1.362 . S
H284 C290 0.930 . S
H285 C293 0.930 1_655 S
H286 C294 0.930 . S
H287 C295 0.930 . S
H288 C298 0.932 1_545 S
H289 C299 0.930 . S
C290 H284 0.930 . S
C290 C291 1.355 . S
C290 C292 1.415 . S
C291 C290 1.355 . S
C291 C293 1.419 . S
C292 C290 1.415 . S
C292 C297 1.425 . S
C292 C299 1.409 . S
C293 H285 0.930 1_455 S
C293 C291 1.419 . S
C293 C294 1.362 . S
C294 H286 0.930 . S
C294 C293 1.362 . S
C294 C297 1.409 . S
C295 H287 0.930 . S
C295 C296 1.355 . S
C295 C297 1.415 1_545 S
C296 C295 1.355 . S
C296 C298 1.412 1_545 S
C297 C292 1.425 . S
C297 C294 1.409 . S
C297 C295 1.415 1_565 S
C298 H288 0.932 1_565 S
C298 C296 1.412 1_565 S
C298 C299 1.367 . S
C299 H289 0.930 . S
C299 C292 1.409 . S
C299 C298 1.367 . S
H300 C306 0.930 . S
H301 C309 0.930 1_556 S
H302 C310 0.930 . S
H303 C311 0.930 . S
H304 C314 0.930 . S
H305 C315 0.930 . S
C306 H300 0.930 . S
C306 C307 1.355 . S
C306 C308 1.415 . S
C307 C306 1.355 . S
C307 C309 1.419 . S
C308 C306 1.415 . S
C308 C313 1.425 . S
C308 C315 1.409 . S
C309 H301 0.930 1_554 S
C309 C307 1.419 . S
C309 C310 1.362 . S
C310 H302 0.930 . S
C310 C309 1.362 . S
C310 C313 1.409 . S
C311 H303 0.930 . S
C311 C312 1.355 . S
C311 C313 1.415 . S
C312 C311 1.355 . S
C312 C314 1.419 . S
C313 C308 1.425 . S
C313 C310 1.409 . S
C313 C311 1.415 . S
C314 H304 0.930 . S
C314 C312 1.419 . S
C314 C315 1.362 . S
C315 H305 0.930 . S
C315 C308 1.409 . S
C315 C314 1.362 . S
H316 C322 0.930 . S
H317 C325 0.930 . S
H318 C326 0.930 . S
H319 C327 0.930 . S
H320 C330 0.930 1_455 S
H321 C331 0.930 1_455 S
C322 H316 0.930 . S
C322 C323 1.355 . S
C322 C324 1.415 . S
C323 C322 1.355 . S
C323 C325 1.419 . S
C324 C322 1.415 . S
C324 C329 1.425 . S
C324 C331 1.409 . S
C325 H317 0.930 . S
C325 C323 1.419 . S
C325 C326 1.362 . S
C326 H318 0.930 . S
C326 C325 1.362 . S
C326 C329 1.409 . S
C327 H319 0.930 . S
C327 C328 1.355 . S
C327 C329 1.415 . S
C328 C327 1.355 . S
C328 C330 1.419 . S
C329 C324 1.425 . S
C329 C326 1.409 . S
C329 C327 1.415 . S
C330 H320 0.930 1_655 S
C330 C328 1.419 . S
C330 C331 1.362 . S
C331 H321 0.930 1_655 S
C331 C324 1.409 . S
C331 C330 1.362 . S
H332 C338 0.930 . S
H333 C341 0.930 . S
H334 C342 0.930 . S
H335 C343 0.930 . S
H336 C346 0.930 . S
H337 C347 0.930 . S
C338 H332 0.930 . S
C338 C339 1.355 . S
C338 C340 1.415 . S
C339 C338 1.355 . S
C339 C341 1.419 . S
C340 C338 1.415 . S
C340 C345 1.425 . S
C340 C347 1.409 . S
C341 H333 0.930 . S
C341 C339 1.419 . S
C341 C342 1.362 . S
C342 H334 0.930 . S
C342 C341 1.362 . S
C342 C345 1.409 . S
C343 H335 0.930 . S
C343 C344 1.355 . S
C343 C345 1.415 . S
C344 C343 1.355 . S
C344 C346 1.419 . S
C345 C340 1.425 . S
C345 C342 1.409 . S
C345 C343 1.415 . S
C346 H336 0.930 . S
C346 C344 1.419 . S
C346 C347 1.362 . S
C347 H337 0.930 . S
C347 C340 1.409 . S
C347 C346 1.362 . S
H348 C354 0.930 . S
H349 C357 0.930 . S
H350 C358 0.930 . S
H351 C359 0.930 . S
H352 C362 0.930 1_554 S
H353 C363 0.930 . S
C354 H348 0.930 . S
C354 C355 1.355 . S
C354 C356 1.415 . S
C355 C354 1.355 . S
C355 C357 1.419 . S
C356 C354 1.415 . S
C356 C361 1.425 . S
C356 C363 1.409 . S
C357 H349 0.930 . S
C357 C355 1.419 . S
C357 C358 1.362 . S
C358 H350 0.930 . S
C358 C357 1.362 . S
C358 C361 1.409 . S
C359 H351 0.930 . S
C359 C360 1.355 1_556 S
C359 C361 1.415 . S
C360 C359 1.355 1_554 S
C360 C362 1.419 1_554 S
C361 C356 1.425 . S
C361 C358 1.409 . S
C361 C359 1.415 . S
C362 H352 0.930 1_556 S
C362 C360 1.419 1_556 S
C362 C363 1.362 . S
C363 H353 0.930 . S
C363 C356 1.409 . S
C363 C362 1.362 . S
H364 C370 0.930 . S
H365 C373 0.930 . S
H366 C374 0.930 . S
H367 C375 0.930 . S
H368 C378 0.930 . S
H369 C379 0.930 1_545 S
C370 H364 0.930 . S
C370 C371 1.355 . S
C370 C372 1.415 . S
C371 C370 1.355 . S
C371 C373 1.419 . S
C372 C370 1.415 . S
C372 C377 1.425 . S
C372 C379 1.409 . S
C373 H365 0.930 . S
C373 C371 1.419 . S
C373 C374 1.362 . S
C374 H366 0.930 . S
C374 C373 1.362 . S
C374 C377 1.409 . S
C375 H367 0.930 . S
C375 C376 1.355 1_565 S
C375 C377 1.415 . S
C376 C375 1.355 1_545 S
C376 C378 1.419 . S
C377 C372 1.425 . S
C377 C374 1.409 . S
C377 C375 1.415 . S
C378 H368 0.930 . S
C378 C376 1.419 . S
C378 C379 1.362 1_545 S
C379 H369 0.930 1_565 S
C379 C372 1.409 . S
C379 C378 1.362 1_565 S
H380 C386 0.930 . S
H381 C389 0.930 . S
H382 C390 0.930 . S
H383 C391 0.930 . S
H384 C394 0.930 . S
H385 C395 0.930 . S
C386 H380 0.930 . S
C386 C387 1.355 . S
C386 C388 1.415 . S
C387 C386 1.355 . S
C387 C389 1.419 . S
C388 C386 1.415 . S
C388 C393 1.425 1_455 S
C388 C395 1.409 . S
C389 H381 0.930 . S
C389 C387 1.419 . S
C389 C390 1.362 1_455 S
C390 H382 0.930 . S
C390 C389 1.362 1_655 S
C390 C393 1.409 . S
C391 H383 0.930 . S
C391 C392 1.355 . S
C391 C393 1.415 . S
C392 C391 1.355 . S
C392 C394 1.419 . S
C393 C388 1.425 1_655 S
C393 C390 1.409 . S
C393 C391 1.415 . S
C394 H384 0.930 . S
C394 C392 1.419 . S
C394 C395 1.362 1_655 S
C395 H385 0.930 . S
C395 C388 1.409 . S
C395 C394 1.362 1_455 S
C259 C63 1.535 . S
C264 C74 1.535 . S
C275 C158 1.455 . S
C280 C147 1.455 1_455 S
C291 C242 1.486 . S
C296 C231 1.486 . S
C307 C226 1.723 1_554 S
C312 C67 1.830 . S
C323 C154 1.339 . S
C328 C56 1.373 . S
C339 C235 1.798 . S
C344 C142 1.702 . S
C355 C224 1.472 . S
C360 C70 1.211 . S
C371 C58 1.686 . S
C376 C151 1.791 . S
C387 C238 1.190 . S
C392 C140 1.476 . S
