# Generated by pormake.
# Topology sxc, (6)-cn, num edge types: 1
# Building blocks:
#     Node 0, Type 0, BuildingBlock: LEVNOQ01_clean_sbu_1, # of connection points: 6
#     Node 1, Type 0, BuildingBlock: LEVNOQ01_clean_sbu_1, # of connection points: 6
#     Node 2, Type 0, BuildingBlock: LEVNOQ01_clean_sbu_1, # of connection points: 6
#     Edge 3, Type (0, 0), BuildingBlock: ZUJKAS_clean_linker_0, # of connection points: 2
#     Edge 4, Type (0, 0), BuildingBlock: ZUJKAS_clean_linker_0, # of connection points: 2
#     Edge 5, Type (0, 0), BuildingBlock: ZUJKAS_clean_linker_0, # of connection points: 2
#     Edge 6, Type (0, 0), BuildingBlock: ZUJKAS_clean_linker_0, # of connection points: 2
#     Edge 7, Type (0, 0), BuildingBlock: ZUJKAS_clean_linker_0, # of connection points: 2
#     Edge 8, Type (0, 0), BuildingBlock: ZUJKAS_clean_linker_0, # of connection points: 2
#     Edge 9, Type (0, 0), BuildingBlock: ZUJKAS_clean_linker_0, # of connection points: 2
#     Edge 10, Type (0, 0), BuildingBlock: ZUJKAS_clean_linker_0, # of connection points: 2
#     Edge 11, Type (0, 0), BuildingBlock: ZUJKAS_clean_linker_0, # of connection points: 2
# Relax obj value: 0.100
# Max RMSD: 0.150
# Mean RMSD: 0.143
data_MOF--net-sxc--node1-LEVNOQ01_clean_sbu_1--edge1-ZUJKAS_clean_linker_0
_symmetry_space_group_name_H-M    P1
_symmetry_Int_Tables_number       1
_symmetry_cell_setting            triclinic
loop_
_symmetry_equiv_pos_as_xyz
'x, y, z'
_cell_length_a     20.03829
_cell_length_b     19.945044
_cell_length_c     59.302342
_cell_angle_alpha  101.58117
_cell_angle_beta   89.209477
_cell_angle_gamma 119.99044
loop_
_atom_site_label
_atom_site_type_symbol
_atom_site_fract_x
_atom_site_fract_y
_atom_site_fract_z
_atom_type_partial_charge
O0 O 0.11264 0.95897 0.00771 0.0
Mg1 Mg 0.01198 0.9501 0.99296 0.0
O2 O 0.03079 0.95405 0.03229 0.0
Mg3 Mg 0.01156 0.05104 0.01942 0.0
O4 O 0.01979 0.03494 0.97782 0.0
O5 O 0.00859 0.91986 0.95854 0.0
O6 O -0.00372 0.14885 0.00599 0.0
O7 O 0.14238 0.13475 0.02373 0.0
Mg8 Mg 0.01103 0.15243 0.04531 0.0
O9 O -0.0016 0.06702 0.06113 0.0
O10 O 0.9138 0.14815 0.02966 0.0
O11 O 0.12684 0.23457 0.0398 0.0
O12 O 0.00387 0.18045 0.07907 0.0
C13 C 0.85387 0.89352 0.00743 0.0
C14 C 0.08309 0.93811 0.02574 0.0
C15 C 0.01358 0.98673 0.95847 0.0
C16 C 0.94667 0.16907 0.01207 0.0
C17 C 0.17028 0.20867 0.03145 0.0
C18 C -0.00384 0.11294 0.07986 0.0
O19 O 0.89817 0.86788 0.99981 0.0
O20 O 0.88085 0.96743 0.01475 0.0
O21 O 0.34202 0.07786 0.31827 0.0
Mg22 Mg 0.22878 -0.00643 0.30317 0.0
O23 O 0.30023 0.07257 0.35288 0.0
Mg24 Mg 0.16731 0.02905 0.35053 0.0
O25 O 0.15353 0.0321 0.31238 0.0
O26 O 0.18461 0.01441 0.27626 0.0
O27 O 0.03456 0.98806 0.34787 0.0
O28 O 0.19994 0.16089 0.35761 0.0
Mg29 Mg 0.12097 0.07987 0.39482 0.0
O30 O 0.18141 0.0214 0.3894 0.0
O31 O 0.0035 0.01209 0.38314 0.0
O32 O 0.17978 0.20026 0.39307 0.0
O33 O 0.14574 0.05714 0.42389 0.0
C34 C 0.14604 0.85159 0.32537 0.0
C35 C 0.3557 0.09244 0.34002 0.0
C36 C 0.14561 0.03388 0.29089 0.0
C37 C -0.01596 0.98454 0.36168 0.0
C38 C 0.203 0.21536 0.37378 0.0
C39 C 0.17991 0.0245 0.4116 0.0
O40 O 0.18068 0.87605 0.30806 0.0
O41 O 0.13624 0.89767 0.34162 0.0
O42 O 0.09523 0.89174 0.66634 0.0
Mg43 Mg 0.09812 0.97829 0.65041 0.0
O44 O 0.08607 0.97948 0.69232 0.0
Mg45 Mg 0.18204 0.10203 0.68382 0.0
O46 O 0.20229 0.06637 0.64443 0.0
O47 O 0.11886 0.95881 0.61729 0.0
O48 O 0.27842 0.22375 0.67502 0.0
O49 O 0.27763 0.07823 0.69324 0.0
Mg50 Mg 0.26657 0.22591 0.71658 0.0
O51 O 0.1627 0.13911 0.72335 0.0
O52 O 0.27013 0.31274 0.70061 0.0
O53 O 0.35751 0.19882 0.71363 0.0
O54 O 0.24663 0.24906 0.74953 0.0
C55 C 0.01969 0.07319 0.66349 0.0
C56 C 0.06924 0.90771 0.68482 0.0
C57 C 0.18429 0.02407 0.62328 0.0
C58 C 0.29629 0.29588 0.68231 0.0
C59 C 0.34411 0.13003 0.70376 0.0
C60 C 0.1812 0.18336 0.7443 0.0
O61 O 0.00712 0.00478 0.65357 0.0
O62 O 0.08576 0.12533 0.67427 0.0
H63 H 0.05842 0.27496 0.98998 0.0
H64 H 0.08742 0.41083 0.99213 0.0
H65 H 0.8739 0.35736 0.02204 0.0
H66 H 0.8446 0.22165 0.02015 0.0
H67 H 0.00465 0.48823 0.97881 0.0
H68 H 0.05479 0.52583 0.07362 0.0
H69 H 0.04909 0.44319 0.05273 0.0
H70 H 0.96228 0.44416 0.06006 0.0
C71 C 0.01612 0.29109 0.99619 0.0
C72 C 0.94992 0.23808 1.00536 0.0
C73 C 0.03313 0.36899 0.99755 0.0
C74 C -0.01608 0.39446 0.00792 0.0
C75 C 0.91339 0.33905 0.01447 0.0
H76 H 0.98086 0.8281 0.04865 0.0
H77 H 0.96785 0.69883 0.04758 0.0
C78 C 0.89646 0.26139 0.01321 0.0
C79 C 0.0099 0.48012 0.01427 0.0
H80 H 0.06119 0.63434 0.061 0.0
C81 C 0.01752 0.52042 0.99673 0.0
C82 C 0.02732 0.52186 0.03771 0.0
C83 C 0.02372 0.48197 0.05717 0.0
C84 C 0.0394 0.60103 1.00206 0.0
C85 C 0.05542 0.64247 0.02553 0.0
C86 C 0.04908 0.60243 0.04306 0.0
C87 C 0.07409 0.72611 0.03193 0.0
C88 C 0.04276 0.64064 0.98254 0.0
C89 C 0.14113 0.78604 0.02519 0.0
C90 C 0.14872 0.8599 0.02575 0.0
C91 C 0.08942 0.87483 0.03315 0.0
C92 C 0.02731 0.81828 0.04272 0.0
C93 C 0.01957 0.74416 0.04202 0.0
H94 H 0.01448 0.59686 0.96588 0.0
H95 H 0.01431 0.67663 0.98656 0.0
H96 H 0.1042 0.68115 0.98027 0.0
H97 H 0.18472 0.77371 0.01785 0.0
H98 H 0.19781 0.9028 0.01858 0.0
H99 H 0.49095 0.16864 0.32093 0.0
H100 H 0.60611 0.16029 0.32777 0.0
H101 H 0.51338 0.05892 0.38654 0.0
H102 H 0.39736 0.06642 0.37972 0.0
H103 H 0.72149 0.19572 0.36526 0.0
H104 H 0.50133 0.87513 0.33445 0.0
H105 H 0.48167 0.95296 0.33268 0.0
H106 H 0.48294 0.92712 0.35993 0.0
C107 C 0.49627 0.14727 0.33583 0.0
C108 C 0.43415 0.11583 0.34935 0.0
C109 C 0.56224 0.14271 0.33974 0.0
C110 C 0.5668 0.10662 0.35717 0.0
C111 C 0.50996 0.0856 0.37271 0.0
H112 H 0.84935 0.91229 0.38088 0.0
H113 H 0.74134 0.93481 0.37692 0.0
C114 C 0.4439 0.09038 0.36887 0.0
C115 C 0.62215 0.07779 0.35614 0.0
H116 H 0.63048 0.90764 0.34154 0.0
C117 C 0.70182 0.13284 0.36016 0.0
C118 C 0.59596 -0.00438 0.34914 0.0
C119 C 0.51091 0.93406 0.3436 0.0
C120 C 0.75619 0.10765 0.35777 0.0
C121 C 0.72989 0.02544 0.35066 0.0
C122 C 0.65025 0.97053 0.34672 0.0
C123 C 0.78437 -0.00464 0.34894 0.0
C124 C 0.84126 0.16901 0.36335 0.0
C125 C 0.84061 0.01601 0.33319 0.0
C126 C 0.90179 0.00187 0.33516 0.0
C127 C 0.90748 0.96774 0.35307 0.0
C128 C 0.84622 0.93882 0.36697 0.0
C129 C 0.7849 0.95226 0.36485 0.0
H130 H 0.8508 0.2273 0.37313 0.0
H131 H 0.87089 0.1489 0.37365 0.0
H132 H 0.86877 0.1778 0.347 0.0
H133 H 0.84008 0.04785 0.32046 0.0
H134 H 0.94851 0.02522 0.32432 0.0
H135 H 0.01582 0.74852 0.67133 0.0
H136 H 0.883 0.64234 0.67193 0.0
H137 H 0.83271 0.81052 0.71465 0.0
H138 H 0.96504 0.91757 0.71377 0.0
H139 H 0.77683 0.57842 0.70445 0.0
H140 H 0.69449 0.73619 0.65351 0.0
H141 H 0.79366 0.76222 0.65939 0.0
H142 H 0.74643 0.79393 0.68138 0.0
C143 C 0.97725 0.7627 0.68143 0.0
C144 C 0.00053 0.84197 0.69199 0.0
C145 C 0.90121 0.70184 0.6817 0.0
C146 C 0.84738 0.71919 0.69261 0.0
C147 C 0.87295 0.79641 0.70557 0.0
H148 H 0.35392 0.45579 0.69598 0.0
H149 H 0.488 0.55934 0.69552 0.0
C150 C 0.94899 0.85744 0.70527 0.0
C151 C 0.76357 0.6589 0.68824 0.0
H152 H 0.59223 0.62004 0.66269 0.0
C153 C 0.73643 0.58736 0.69531 0.0
C154 C 0.71118 0.67047 0.67604 0.0
C155 C 0.73775 0.74447 0.66693 0.0
C156 C 0.65782 0.52784 0.69106 0.0
C157 C 0.60537 0.53963 0.67898 0.0
C158 C 0.63262 0.61102 0.67181 0.0
C159 C 0.52127 0.48026 0.67493 0.0
C160 C 0.63119 0.4537 0.7001 0.0
C161 C 0.49409 0.40266 0.66201 0.0
C162 C 0.4172 0.34314 0.66217 0.0
C163 C 0.3665 0.3605 0.67531 0.0
C164 C 0.39173 0.44017 0.68595 0.0
C165 C 0.46852 0.4995 0.68578 0.0
H166 H 0.67479 0.46149 0.7133 0.0
H167 H 0.57572 0.43644 0.70787 0.0
H168 H 0.62158 0.40409 0.68556 0.0
H169 H 0.53346 0.38715 0.65294 0.0
H170 H 0.39954 0.28262 0.65357 0.0
H171 H 0.88228 0.98899 0.63619 0.0
H172 H 0.76747 0.00125 0.64168 0.0
H173 H 0.89379 0.20117 0.69914 0.0
H174 H 0.00944 0.19051 0.69343 0.0
H175 H 0.69392 0.98212 0.68078 0.0
H176 H 0.78186 0.2786 0.6649 0.0
H177 H 0.83555 0.22888 0.65602 0.0
H178 H 0.84807 0.28112 0.68557 0.0
C179 C 0.88612 0.03666 0.64969 0.0
C180 C 0.95481 0.08866 0.66444 0.0
C181 C 0.82044 0.04348 0.65281 0.0
C182 C 0.82217 0.10229 0.67074 0.0
C183 C 0.89157 0.15634 0.6849 0.0
H184 H 0.48357 0.21318 0.73009 0.0
H185 H 0.5971 0.19929 0.7233 0.0
C186 C 0.9576 0.15002 0.68166 0.0
C187 C 0.74964 0.10209 0.67601 0.0
H188 H 0.66673 0.2173 0.6834 0.0
C189 C 0.68767 0.03333 0.6812 0.0
C190 C 0.74188 0.16904 0.67662 0.0
C191 C 0.8051 0.24332 0.67026 0.0
C192 C 0.61865 0.03028 0.6875 0.0
C193 C 0.61117 0.09752 0.68833 0.0
C194 C 0.67291 0.16604 0.68296 0.0
C195 C 0.53955 0.0983 0.69432 0.0
C196 C 0.55526 0.95583 0.69374 0.0
C197 C 0.46902 0.04477 0.68065 0.0
C198 C 0.40376 0.05193 0.68468 0.0
C199 C 0.40842 0.11369 0.70218 0.0
C200 C 0.47829 0.16521 0.71642 0.0
C201 C 0.54322 0.15747 0.71254 0.0
H202 H 0.57806 0.91956 0.69865 0.0
H203 H 0.52567 0.97019 0.70827 0.0
H204 H 0.51163 0.91901 0.67853 0.0
H205 H 0.46526 -0.0003 0.66621 0.0
H206 H 0.35097 0.0118 0.67326 0.0
H207 H 0.75166 0.79 0.97098 0.0
H208 H 0.62443 0.67482 0.97242 0.0
H209 H 0.65014 0.7502 0.04689 0.0
H210 H 0.77577 0.86727 0.04526 0.0
H211 H 0.61752 0.56498 0.99329 0.0
H212 H 0.4231 0.66814 0.03228 0.0
H213 H 0.51048 0.73197 0.02057 0.0
H214 H 0.51483 0.7166 0.04929 0.0
C215 C 0.72839 0.78309 0.98751 0.0
C216 C 0.77229 0.83658 0.00802 0.0
C217 C 0.65615 0.71756 0.98834 0.0
C218 C 0.62787 0.70412 0.00974 0.0
C219 C 0.67002 0.7604 0.03016 0.0
H220 H 0.28047 0.32534 0.06448 0.0
H221 H 0.40028 0.44033 0.058 0.0
C222 C 0.74173 0.82693 0.02927 0.0
C223 C 0.56159 0.6259 0.011 0.0
H224 H 0.39003 0.53601 0.03397 0.0
C225 C 0.5672 0.55835 1.00194 0.0
C226 C 0.49641 0.61772 0.02233 0.0
C227 C 0.48542 0.68746 0.03145 0.0
C228 C 0.51078 0.48301 1.00476 0.0
C229 C 0.44674 0.47523 0.01672 0.0
C230 C 0.44 0.54245 0.02514 0.0
C231 C 0.3852 0.39834 0.02076 0.0
C232 C 0.52172 0.41326 0.99557 0.0
C233 C 0.33952 0.33498 1.00208 0.0
C234 C 0.27246 0.26834 0.00589 0.0
C235 C 0.24973 0.26563 0.02831 0.0
C236 C 0.29762 0.32659 0.04709 0.0
C237 C 0.36551 0.39215 0.04337 0.0
H238 H 0.58322 0.43269 0.99293 0.0
H239 H 0.50223 0.37196 0.00746 0.0
H240 H 0.48685 0.38022 0.97857 0.0
H241 H 0.35269 0.33923 0.98448 0.0
H242 H 0.23513 0.22226 0.99117 0.0
H243 H 0.22193 0.34758 0.40421 0.0
H244 H 0.21022 0.4549 0.39452 0.0
H245 H 0.20444 0.36077 0.32198 0.0
H246 H 0.21564 0.25283 0.33143 0.0
H247 H 0.29121 0.57178 0.36841 0.0
H248 H -0.00841 0.34723 0.32872 0.0
H249 H 0.04713 0.32531 0.34659 0.0
H250 H 0.06586 0.32919 0.31703 0.0
C251 C 0.22 0.35068 0.38623 0.0
C252 C 0.21804 0.29078 0.36857 0.0
C253 C 0.21313 0.41192 0.38073 0.0
C254 C 0.204 0.41398 0.35753 0.0
C255 C 0.20951 0.3588 0.33997 0.0
H256 H 0.1504 0.73458 0.29341 0.0
H257 H 0.15093 0.61899 0.30104 0.0
C258 C 0.21668 0.29765 0.34544 0.0
C259 C 0.18323 0.47035 0.35178 0.0
H260 H 0.03798 0.48031 0.32593 0.0
C261 C 0.2359 0.55191 0.35916 0.0
C262 C 0.11042 0.4438 0.33996 0.0
C263 C 0.05006 0.35666 0.33277 0.0
C264 C 0.21834 0.60792 0.3546 0.0
C265 C 0.1461 0.58142 0.34254 0.0
C266 C 0.09315 0.49995 0.33522 0.0
C267 C 0.12719 0.63872 0.33666 0.0
C268 C 0.2774 0.69525 0.3624 0.0
C269 C 0.10961 0.68517 0.35391 0.0
C270 C 0.10921 0.75137 0.34965 0.0
C271 C 0.12704 0.77209 0.32813 0.0
C272 C 0.1375 0.7209 0.31028 0.0
C273 C 0.13757 0.65465 0.31454 0.0
H274 H 0.33392 0.70574 0.36926 0.0
H275 H 0.28683 0.72523 0.34779 0.0
H276 H 0.25536 0.72328 0.37622 0.0
H277 H 0.10103 0.67311 0.37106 0.0
H278 H 0.10028 0.78914 0.36372 0.0
H279 H 0.17236 0.17541 0.28471 0.0
H280 H 0.1103 0.18634 0.25154 0.0
H281 H 0.93633 0.93825 0.24075 0.0
H282 H -0.00251 0.92797 0.2742 0.0
H283 H 0.12035 0.08351 0.21278 0.0
H284 H 0.82193 0.03523 0.21368 0.0
H285 H 0.88832 0.07642 0.23964 0.0
H286 H 0.84075 0.97198 0.22698 0.0
C287 C 0.11766 0.12489 0.2763 0.0
C288 C 0.08949 0.05088 0.28185 0.0
C289 C 0.08255 0.1309 0.25721 0.0
C290 C 0.01935 0.0628 0.2435 0.0
C291 C -0.01552 0.99169 0.25118 0.0
H292 H -0.00213 0.98681 0.09179 0.0
H293 H -0.00829 0.96039 0.1308 0.0
C294 C 0.01933 0.98591 0.27039 0.0
C295 C 0.0053 0.06048 0.21885 0.0
H296 H 0.87117 0.02966 0.17712 0.0
C297 C 0.06591 0.07204 0.205 0.0
C298 C 0.93384 0.04398 0.20873 0.0
C299 C 0.86739 0.03161 0.22297 0.0
C300 C 0.05784 0.06946 0.18139 0.0
C301 C -0.01343 0.05339 0.17121 0.0
C302 C 0.92535 0.04073 0.18496 0.0
C303 C 0.97862 0.05999 0.1471 0.0
C304 C 0.12666 0.08676 0.16775 0.0
C305 C 0.97065 0.12273 0.14334 0.0
C306 C 0.97415 0.1378 0.12132 0.0
C307 C -0.01439 0.09033 0.10248 0.0
C308 C -0.01031 0.02478 0.10599 0.0
C309 C -0.01378 0.00972 0.12822 0.0
H310 H 0.181 0.11133 0.17912 0.0
H311 H 0.1162 0.03098 0.15592 0.0
H312 H 0.13513 0.1297 0.15706 0.0
H313 H 0.96492 0.16226 0.15766 0.0
H314 H 0.96978 0.18826 0.11927 0.0
H315 H 0.33421 0.08109 0.41935 0.0
H316 H 0.39307 0.07734 0.4547 0.0
H317 H 0.16742 0.903 0.46906 0.0
H318 H 0.10985 0.90577 0.4338 0.0
H319 H 0.35309 0.13565 0.49216 0.0
H320 H 0.29503 0.84341 0.50139 0.0
H321 H 0.29121 0.86422 0.47328 0.0
H322 H 0.20745 0.83168 0.48937 0.0
C323 C 0.29837 0.03797 0.42925 0.0
C324 C 0.21771 -0.00635 0.42396 0.0
C325 C 0.33184 0.0364 0.4496 0.0
C326 C 0.28483 0.99032 0.46475 0.0
C327 C 0.20557 0.93799 0.45764 0.0
H328 H 0.16335 0.08988 0.59094 0.0
H329 H 0.21931 0.0985 0.55413 0.0
C330 C 0.17239 0.93956 0.43738 0.0
C331 C 0.31196 0.01133 0.48975 0.0
H332 H 0.28122 0.92687 0.53633 0.0
C333 C 0.34012 0.09031 0.50176 0.0
C334 C 0.29615 0.95307 0.50251 0.0
C335 C 0.27157 0.86859 0.49084 0.0
C336 C 0.34441 0.11056 0.52596 0.0
C337 C 0.31914 0.05021 0.53848 0.0
C338 C 0.29951 0.97315 0.52674 0.0
C339 C 0.29929 0.06184 0.56261 0.0
C340 C 0.37153 0.19564 0.53773 0.0
C341 C 0.32633 0.03961 0.57989 0.0
C342 C 0.29417 0.03488 0.60106 0.0
C343 C 0.23451 0.05195 0.60505 0.0
C344 C 0.21073 0.07845 0.58837 0.0
C345 C 0.24286 0.08347 0.56734 0.0
H346 H 0.41564 0.23716 0.52813 0.0
H347 H 0.32167 0.20548 0.53788 0.0
H348 H 0.39652 0.21022 0.55584 0.0
H349 H 0.36913 0.02179 0.5765 0.0
H350 H 0.31186 0.0125 0.61357 0.0
H351 H 0.05823 0.03495 0.74479 0.0
H352 H -0.00814 0.99075 0.77863 0.0
H353 H 0.1276 0.22968 0.81977 0.0
H354 H 0.19184 0.27409 0.78632 0.0
H355 H 0.07159 -0.00107 0.81616 0.0
H356 H 0.92218 0.16567 0.8444 0.0
H357 H 0.95287 0.15648 0.81572 0.0
H358 H 0.02008 0.23141 0.83965 0.0
C359 C 0.07195 0.07829 0.76088 0.0
C360 C 0.13079 0.15773 0.76295 0.0
C361 C 0.03411 0.05305 0.78019 0.0
C362 C 0.05409 0.10714 0.80169 0.0
C363 C 0.1096 0.1872 0.80331 0.0
H364 H 0.08318 0.13203 0.94687 0.0
H365 H 0.08077 0.15609 0.90783 0.0
C366 C 0.14715 0.2123 0.78415 0.0
C367 C 0.02778 0.07918 0.82324 0.0
H368 H 0.96413 0.1243 0.87466 0.0
C369 C 0.04631 0.02484 0.82874 0.0
C370 C -0.0044 0.11373 0.83974 0.0
C371 C 0.97087 0.16946 0.83445 0.0
C372 C 0.03823 0.00786 0.85076 0.0
C373 C 0.00902 0.04493 0.8676 0.0
C374 C -0.01282 0.09659 0.8618 0.0
C375 C 0.00331 0.03229 0.89148 0.0
C376 C 0.06518 0.95374 0.85613 0.0
C377 C 0.95863 0.95545 0.89526 0.0
C378 C 0.96151 0.94162 0.91721 0.0
C379 C 0.00741 0.00467 0.93597 0.0
C380 C 0.04791 0.0825 0.93261 0.0
C381 C 0.0463 0.09617 0.9104 0.0
H382 H 0.10387 0.94683 0.84345 0.0
H383 H 0.09657 0.97658 0.87372 0.0
H384 H 0.01413 0.89395 0.85538 0.0
H385 H 0.92327 0.90572 0.88106 0.0
H386 H 0.9282 0.8812 0.91948 0.0
loop_
_geom_bond_atom_site_label_1
_geom_bond_atom_site_label_2
_geom_bond_distance
_geom_bond_site_symmetry_2
_ccdc_geom_bond_type
O0 Mg1 1.990 1_455 S
O0 C14 1.253 1_556 S
Mg1 O0 1.990 1_655 S
Mg1 O4 2.180 1_665 S
Mg1 O5 2.117 1_655 S
Mg1 O19 2.030 . S
O2 Mg3 2.072 1_565 S
O2 C14 1.260 . S
Mg3 O2 2.072 1_545 S
Mg3 O4 2.099 1_554 S
Mg3 O6 2.079 . S
Mg3 O7 2.072 . S
Mg3 O9 2.099 . S
Mg3 O20 2.079 1_445 S
O4 Mg1 2.180 1_445 S
O4 Mg3 2.099 1_556 S
O4 C15 1.279 . S
O5 Mg1 2.117 1_455 S
O5 C15 1.250 1_565 S
O6 Mg3 2.079 . S
O6 C16 1.264 . S
O7 Mg3 2.072 . S
O7 C17 1.260 . S
Mg8 O9 2.180 . S
Mg8 O10 2.030 . S
Mg8 O11 1.990 . S
Mg8 O12 2.117 . S
O9 Mg3 2.099 . S
O9 Mg8 2.180 . S
O9 C18 1.279 . S
O10 Mg8 2.030 . S
O10 C16 1.248 . S
O11 Mg8 1.990 . S
O11 C17 1.253 . S
O12 Mg8 2.117 . S
O12 C18 1.250 . S
C13 O19 1.248 1_554 S
C13 O20 1.264 . S
C14 O0 1.253 1_554 S
C14 O2 1.260 . S
C15 O4 1.279 . S
C15 O5 1.250 1_545 S
C16 O6 1.264 . S
C16 O10 1.248 . S
C17 O7 1.260 . S
C17 O11 1.253 . S
C18 O9 1.279 . S
C18 O12 1.250 . S
O19 Mg1 2.030 . S
O19 C13 1.248 1_556 S
O20 Mg3 2.079 1_665 S
O20 C13 1.264 . S
O21 Mg22 1.990 1_545 S
O21 C35 1.253 . S
Mg22 O21 1.990 1_565 S
Mg22 O25 2.180 1_565 S
Mg22 O26 2.117 1_565 S
Mg22 O40 2.030 . S
O23 Mg24 2.072 . S
O23 C35 1.260 . S
Mg24 O23 2.072 . S
Mg24 O25 2.099 . S
Mg24 O27 2.079 1_545 S
Mg24 O28 2.072 . S
Mg24 O30 2.099 . S
Mg24 O41 2.079 1_545 S
O25 Mg22 2.180 1_545 S
O25 Mg24 2.099 . S
O25 C36 1.279 . S
O26 Mg22 2.117 1_545 S
O26 C36 1.250 . S
O27 Mg24 2.079 1_565 S
O27 C37 1.264 1_465 S
O28 Mg24 2.072 . S
O28 C38 1.260 . S
Mg29 O30 2.180 . S
Mg29 O31 2.030 . S
Mg29 O32 1.990 . S
Mg29 O33 2.117 . S
O30 Mg24 2.099 . S
O30 Mg29 2.180 . S
O30 C39 1.279 . S
O31 Mg29 2.030 . S
O31 C37 1.248 1_455 S
O32 Mg29 1.990 . S
O32 C38 1.253 . S
O33 Mg29 2.117 . S
O33 C39 1.250 . S
C34 O40 1.248 . S
C34 O41 1.264 . S
C35 O21 1.253 . S
C35 O23 1.260 . S
C36 O25 1.279 . S
C36 O26 1.250 . S
C37 O27 1.264 1_645 S
C37 O31 1.248 1_655 S
C38 O28 1.260 . S
C38 O32 1.253 . S
C39 O30 1.279 . S
C39 O33 1.250 . S
O40 Mg22 2.030 . S
O40 C34 1.248 . S
O41 Mg24 2.079 1_565 S
O41 C34 1.264 . S
O42 Mg43 1.990 1_565 S
O42 C56 1.253 . S
Mg43 O42 1.990 1_545 S
Mg43 O46 2.180 . S
Mg43 O47 2.117 1_545 S
Mg43 O61 2.030 1_455 S
O44 Mg45 2.072 1_565 S
O44 C56 1.260 . S
Mg45 O44 2.072 1_545 S
Mg45 O46 2.099 . S
Mg45 O48 2.079 . S
Mg45 O49 2.072 . S
Mg45 O51 2.099 . S
Mg45 O62 2.079 . S
O46 Mg43 2.180 . S
O46 Mg45 2.099 . S
O46 C57 1.279 . S
O47 Mg43 2.117 1_565 S
O47 C57 1.250 1_565 S
O48 Mg45 2.079 . S
O48 C58 1.264 . S
O49 Mg45 2.072 . S
O49 C59 1.260 . S
Mg50 O51 2.180 . S
Mg50 O52 2.030 . S
Mg50 O53 1.990 . S
Mg50 O54 2.117 . S
O51 Mg45 2.099 . S
O51 Mg50 2.180 . S
O51 C60 1.279 . S
O52 Mg50 2.030 . S
O52 C58 1.248 . S
O53 Mg50 1.990 . S
O53 C59 1.253 . S
O54 Mg50 2.117 . S
O54 C60 1.250 . S
C55 O61 1.248 1_455 S
C55 O62 1.264 . S
C56 O42 1.253 . S
C56 O44 1.260 . S
C57 O46 1.279 . S
C57 O47 1.250 1_545 S
C58 O48 1.264 . S
C58 O52 1.248 . S
C59 O49 1.260 . S
C59 O53 1.253 . S
C60 O51 1.279 . S
C60 O54 1.250 . S
O61 Mg43 2.030 1_655 S
O61 C55 1.248 1_655 S
O62 Mg45 2.079 . S
O62 C55 1.264 . S
H63 C71 0.929 . S
H64 C73 0.930 . S
H65 C75 0.930 . S
H66 C78 0.929 . S
H67 C81 0.930 . S
H68 C83 0.960 1_655 S
H69 C83 0.960 . S
H70 C83 0.960 1_655 S
C71 H63 0.929 . S
C71 C72 1.377 . S
C71 C73 1.384 . S
C72 C71 1.377 . S
C72 C78 1.390 1_455 S
C73 H64 0.930 . S
C73 C71 1.384 . S
C73 C74 1.372 . S
C74 C73 1.372 . S
C74 C75 1.400 1_455 S
C74 C79 1.490 . S
C75 H65 0.930 . S
C75 C74 1.400 1_655 S
C75 C78 1.386 . S
H76 C92 0.930 1_655 S
H77 C93 0.931 1_655 S
C78 H66 0.929 . S
C78 C72 1.390 1_655 S
C78 C75 1.386 . S
C79 C74 1.490 . S
C79 C81 1.395 1_554 S
C79 C82 1.403 . S
H80 C86 0.930 . S
C81 H67 0.930 . S
C81 C79 1.395 1_556 S
C81 C84 1.403 . S
C82 C79 1.403 . S
C82 C83 1.524 . S
C82 C86 1.400 . S
C83 H68 0.960 1_455 S
C83 H69 0.960 . S
C83 H70 0.960 1_455 S
C83 C82 1.524 . S
C84 C81 1.403 . S
C84 C85 1.392 1_556 S
C84 C88 1.495 . S
C85 C84 1.392 1_554 S
C85 C86 1.385 . S
C85 C87 1.478 . S
C86 H80 0.930 . S
C86 C82 1.400 . S
C86 C85 1.385 . S
C87 C85 1.478 . S
C87 C89 1.381 . S
C87 C93 1.383 . S
C88 C84 1.495 . S
C88 H94 0.959 . S
C88 H95 0.961 . S
C88 H96 0.960 . S
C89 C87 1.381 . S
C89 C90 1.394 . S
C89 H97 0.930 . S
C90 C89 1.394 . S
C90 C91 1.383 . S
C90 H98 0.929 . S
C91 C90 1.383 . S
C91 C92 1.377 . S
C92 H76 0.930 1_455 S
C92 C91 1.377 . S
C92 C93 1.379 . S
C93 H77 0.931 1_455 S
C93 C87 1.383 . S
C93 C92 1.379 . S
H94 C88 0.959 . S
H95 C88 0.961 . S
H96 C88 0.960 . S
H97 C89 0.930 . S
H98 C90 0.929 . S
H99 C107 0.929 . S
H100 C109 0.930 . S
H101 C111 0.930 1_565 S
H102 C114 0.929 1_565 S
H103 C117 0.930 . S
H104 C119 0.960 . S
H105 C119 0.960 . S
H106 C119 0.960 . S
C107 H99 0.929 . S
C107 C108 1.377 . S
C107 C109 1.384 . S
C108 C107 1.377 . S
C108 C114 1.390 . S
C109 H100 0.930 . S
C109 C107 1.384 . S
C109 C110 1.372 . S
C110 C109 1.372 . S
C110 C111 1.400 . S
C110 C115 1.490 . S
C111 H101 0.930 1_545 S
C111 C110 1.400 . S
C111 C114 1.386 . S
H112 C128 0.930 . S
H113 C129 0.931 . S
C114 H102 0.929 1_545 S
C114 C108 1.390 . S
C114 C111 1.386 . S
C115 C110 1.490 . S
C115 C117 1.395 . S
C115 C118 1.403 1_545 S
H116 C122 0.930 . S
C117 H103 0.930 . S
C117 C115 1.395 . S
C117 C120 1.403 . S
C118 C115 1.403 1_565 S
C118 C119 1.524 . S
C118 C122 1.400 . S
C119 H104 0.960 . S
C119 H105 0.960 . S
C119 H106 0.960 . S
C119 C118 1.524 . S
C120 C117 1.403 . S
C120 C121 1.392 . S
C120 C124 1.495 . S
C121 C120 1.392 . S
C121 C122 1.385 1_545 S
C121 C123 1.478 . S
C122 H116 0.930 . S
C122 C118 1.400 . S
C122 C121 1.385 1_565 S
C123 C121 1.478 . S
C123 C125 1.381 . S
C123 C129 1.383 1_545 S
C124 C120 1.495 . S
C124 H130 0.959 . S
C124 H131 0.961 . S
C124 H132 0.960 . S
C125 C123 1.381 . S
C125 C126 1.394 . S
C125 H133 0.930 . S
C126 C125 1.394 . S
C126 C127 1.383 . S
C126 H134 0.929 . S
C127 C126 1.383 . S
C127 C128 1.377 1_545 S
C128 H112 0.930 . S
C128 C127 1.377 1_565 S
C128 C129 1.379 . S
C129 H113 0.931 . S
C129 C123 1.383 1_565 S
C129 C128 1.379 . S
H130 C124 0.959 . S
H131 C124 0.961 . S
H132 C124 0.960 . S
H133 C125 0.930 . S
H134 C126 0.929 . S
H135 C143 0.929 1_455 S
H136 C145 0.930 . S
H137 C147 0.930 . S
H138 C150 0.929 . S
H139 C153 0.930 . S
H140 C155 0.960 . S
H141 C155 0.960 . S
H142 C155 0.960 . S
C143 H135 0.929 1_655 S
C143 C144 1.377 . S
C143 C145 1.384 . S
C144 C143 1.377 . S
C144 C150 1.390 . S
C145 H136 0.930 . S
C145 C143 1.384 . S
C145 C146 1.372 . S
C146 C145 1.372 . S
C146 C147 1.400 . S
C146 C151 1.490 . S
C147 H137 0.930 . S
C147 C146 1.400 . S
C147 C150 1.386 . S
H148 C164 0.930 . S
H149 C165 0.931 . S
C150 H138 0.929 . S
C150 C144 1.390 . S
C150 C147 1.386 . S
C151 C146 1.490 . S
C151 C153 1.395 . S
C151 C154 1.403 . S
H152 C158 0.930 . S
C153 H139 0.930 . S
C153 C151 1.395 . S
C153 C156 1.403 . S
C154 C151 1.403 . S
C154 C155 1.524 . S
C154 C158 1.400 . S
C155 H140 0.960 . S
C155 H141 0.960 . S
C155 H142 0.960 . S
C155 C154 1.524 . S
C156 C153 1.403 . S
C156 C157 1.392 . S
C156 C160 1.495 . S
C157 C156 1.392 . S
C157 C158 1.385 . S
C157 C159 1.478 . S
C158 H152 0.930 . S
C158 C154 1.400 . S
C158 C157 1.385 . S
C159 C157 1.478 . S
C159 C161 1.381 . S
C159 C165 1.383 . S
C160 C156 1.495 . S
C160 H166 0.959 . S
C160 H167 0.961 . S
C160 H168 0.960 . S
C161 C159 1.381 . S
C161 C162 1.394 . S
C161 H169 0.930 . S
C162 C161 1.394 . S
C162 C163 1.383 . S
C162 H170 0.929 . S
C163 C162 1.383 . S
C163 C164 1.377 . S
C164 H148 0.930 . S
C164 C163 1.377 . S
C164 C165 1.379 . S
C165 H149 0.931 . S
C165 C159 1.383 . S
C165 C164 1.379 . S
H166 C160 0.959 . S
H167 C160 0.961 . S
H168 C160 0.960 . S
H169 C161 0.930 . S
H170 C162 0.929 . S
H171 C179 0.929 . S
H172 C181 0.930 . S
H173 C183 0.930 . S
H174 C186 0.929 . S
H175 C189 0.930 1_565 S
H176 C191 0.960 . S
H177 C191 0.960 . S
H178 C191 0.960 . S
C179 H171 0.929 . S
C179 C180 1.377 . S
C179 C181 1.384 . S
C180 C179 1.377 . S
C180 C186 1.390 . S
C181 H172 0.930 . S
C181 C179 1.384 . S
C181 C182 1.372 . S
C182 C181 1.372 . S
C182 C183 1.400 . S
C182 C187 1.490 . S
C183 H173 0.930 . S
C183 C182 1.400 . S
C183 C186 1.386 . S
H184 C200 0.930 . S
H185 C201 0.931 . S
C186 H174 0.929 . S
C186 C180 1.390 . S
C186 C183 1.386 . S
C187 C182 1.490 . S
C187 C189 1.395 . S
C187 C190 1.403 . S
H188 C194 0.930 . S
C189 H175 0.930 1_545 S
C189 C187 1.395 . S
C189 C192 1.403 . S
C190 C187 1.403 . S
C190 C191 1.524 . S
C190 C194 1.400 . S
C191 H176 0.960 . S
C191 H177 0.960 . S
C191 H178 0.960 . S
C191 C190 1.524 . S
C192 C189 1.403 . S
C192 C193 1.392 . S
C192 C196 1.495 1_545 S
C193 C192 1.392 . S
C193 C194 1.385 . S
C193 C195 1.478 . S
C194 H188 0.930 . S
C194 C190 1.400 . S
C194 C193 1.385 . S
C195 C193 1.478 . S
C195 C197 1.381 . S
C195 C201 1.383 . S
C196 C192 1.495 1_565 S
C196 H202 0.959 . S
C196 H203 0.961 . S
C196 H204 0.960 . S
C197 C195 1.381 . S
C197 C198 1.394 . S
C197 H205 0.930 . S
C198 C197 1.394 . S
C198 C199 1.383 . S
C198 H206 0.929 . S
C199 C198 1.383 . S
C199 C200 1.377 . S
C200 H184 0.930 . S
C200 C199 1.377 . S
C200 C201 1.379 . S
C201 H185 0.931 . S
C201 C195 1.383 . S
C201 C200 1.379 . S
H202 C196 0.959 . S
H203 C196 0.961 . S
H204 C196 0.960 . S
H205 C197 0.930 . S
H206 C198 0.929 . S
H207 C215 0.929 . S
H208 C217 0.930 . S
H209 C219 0.930 . S
H210 C222 0.929 . S
H211 C225 0.930 . S
H212 C227 0.960 . S
H213 C227 0.960 . S
H214 C227 0.960 . S
C215 H207 0.929 . S
C215 C216 1.377 1_556 S
C215 C217 1.384 . S
C216 C215 1.377 1_554 S
C216 C222 1.390 . S
C217 H208 0.930 . S
C217 C215 1.384 . S
C217 C218 1.372 1_556 S
C218 C217 1.372 1_554 S
C218 C219 1.400 . S
C218 C223 1.490 . S
C219 H209 0.930 . S
C219 C218 1.400 . S
C219 C222 1.386 . S
H220 C236 0.930 . S
H221 C237 0.931 . S
C222 H210 0.929 . S
C222 C216 1.390 . S
C222 C219 1.386 . S
C223 C218 1.490 . S
C223 C225 1.395 1_554 S
C223 C226 1.403 . S
H224 C230 0.930 . S
C225 H211 0.930 . S
C225 C223 1.395 1_556 S
C225 C228 1.403 . S
C226 C223 1.403 . S
C226 C227 1.524 . S
C226 C230 1.400 . S
C227 H212 0.960 . S
C227 H213 0.960 . S
C227 H214 0.960 . S
C227 C226 1.524 . S
C228 C225 1.403 . S
C228 C229 1.392 1_556 S
C228 C232 1.495 . S
C229 C228 1.392 1_554 S
C229 C230 1.385 . S
C229 C231 1.478 . S
C230 H224 0.930 . S
C230 C226 1.400 . S
C230 C229 1.385 . S
C231 C229 1.478 . S
C231 C233 1.381 1_554 S
C231 C237 1.383 . S
C232 C228 1.495 . S
C232 H238 0.959 . S
C232 H239 0.961 . S
C232 H240 0.960 . S
C233 C231 1.381 1_556 S
C233 C234 1.394 . S
C233 H241 0.930 . S
C234 C233 1.394 . S
C234 C235 1.383 1_556 S
C234 H242 0.929 . S
C235 C234 1.383 1_554 S
C235 C236 1.377 . S
C236 H220 0.930 . S
C236 C235 1.377 . S
C236 C237 1.379 . S
C237 H221 0.931 . S
C237 C231 1.383 . S
C237 C236 1.379 . S
H238 C232 0.959 . S
H239 C232 0.961 . S
H240 C232 0.960 . S
H241 C233 0.930 . S
H242 C234 0.929 . S
H243 C251 0.929 . S
H244 C253 0.930 . S
H245 C255 0.930 . S
H246 C258 0.929 . S
H247 C261 0.930 . S
H248 C263 0.960 . S
H249 C263 0.960 . S
H250 C263 0.960 . S
C251 H243 0.929 . S
C251 C252 1.377 . S
C251 C253 1.384 . S
C252 C251 1.377 . S
C252 C258 1.390 . S
C253 H244 0.930 . S
C253 C251 1.384 . S
C253 C254 1.372 . S
C254 C253 1.372 . S
C254 C255 1.400 . S
C254 C259 1.490 . S
C255 H245 0.930 . S
C255 C254 1.400 . S
C255 C258 1.386 . S
H256 C272 0.930 . S
H257 C273 0.931 . S
C258 H246 0.929 . S
C258 C252 1.390 . S
C258 C255 1.386 . S
C259 C254 1.490 . S
C259 C261 1.395 . S
C259 C262 1.403 . S
H260 C266 0.930 . S
C261 H247 0.930 . S
C261 C259 1.395 . S
C261 C264 1.403 . S
C262 C259 1.403 . S
C262 C263 1.524 . S
C262 C266 1.400 . S
C263 H248 0.960 . S
C263 H249 0.960 . S
C263 H250 0.960 . S
C263 C262 1.524 . S
C264 C261 1.403 . S
C264 C265 1.392 . S
C264 C268 1.495 . S
C265 C264 1.392 . S
C265 C266 1.385 . S
C265 C267 1.478 . S
C266 H260 0.930 . S
C266 C262 1.400 . S
C266 C265 1.385 . S
C267 C265 1.478 . S
C267 C269 1.381 . S
C267 C273 1.383 . S
C268 C264 1.495 . S
C268 H274 0.959 . S
C268 H275 0.961 . S
C268 H276 0.960 . S
C269 C267 1.381 . S
C269 C270 1.394 . S
C269 H277 0.930 . S
C270 C269 1.394 . S
C270 C271 1.383 . S
C270 H278 0.929 . S
C271 C270 1.383 . S
C271 C272 1.377 . S
C272 H256 0.930 . S
C272 C271 1.377 . S
C272 C273 1.379 . S
C273 H257 0.931 . S
C273 C267 1.383 . S
C273 C272 1.379 . S
H274 C268 0.959 . S
H275 C268 0.961 . S
H276 C268 0.960 . S
H277 C269 0.930 . S
H278 C270 0.929 . S
H279 C287 0.929 . S
H280 C289 0.930 . S
H281 C291 0.930 . S
H282 C294 0.929 . S
H283 C297 0.930 . S
H284 C299 0.960 . S
H285 C299 0.960 1_545 S
H286 C299 0.960 . S
C287 H279 0.929 . S
C287 C288 1.377 . S
C287 C289 1.384 . S
C288 C287 1.377 . S
C288 C294 1.390 1_545 S
C289 H280 0.930 . S
C289 C287 1.384 . S
C289 C290 1.372 . S
C290 C289 1.372 . S
C290 C291 1.400 1_545 S
C290 C295 1.490 . S
C291 H281 0.930 . S
C291 C290 1.400 1_565 S
C291 C294 1.386 . S
H292 C308 0.930 . S
H293 C309 0.931 . S
C294 H282 0.929 . S
C294 C288 1.390 1_565 S
C294 C291 1.386 . S
C295 C290 1.490 . S
C295 C297 1.395 . S
C295 C298 1.403 . S
H296 C302 0.940 . S
C297 H283 0.930 . S
C297 C295 1.395 . S
C297 C300 1.403 . S
C298 C295 1.403 . S
C298 C299 1.524 1_445 S
C298 C302 1.400 . S
C299 H284 0.960 . S
C299 H285 0.960 1_565 S
C299 H286 0.960 . S
C299 C298 1.524 1_665 S
C300 C297 1.403 . S
C300 C301 1.392 . S
C300 C304 1.495 . S
C301 C300 1.392 . S
C301 C302 1.385 . S
C301 C303 1.478 . S
C302 H296 0.940 . S
C302 C298 1.400 . S
C302 C301 1.385 . S
C303 C301 1.478 . S
C303 C305 1.381 . S
C303 C309 1.383 1_545 S
C304 C300 1.495 . S
C304 H310 0.959 . S
C304 H311 0.961 . S
C304 H312 0.960 . S
C305 C303 1.381 . S
C305 C306 1.394 . S
C305 H313 0.930 . S
C306 C305 1.394 . S
C306 C307 1.383 . S
C306 H314 0.929 . S
C307 C306 1.383 . S
C307 C308 1.377 1_545 S
C308 H292 0.930 . S
C308 C307 1.377 1_565 S
C308 C309 1.379 . S
C309 H293 0.931 . S
C309 C303 1.383 1_565 S
C309 C308 1.379 . S
H310 C304 0.959 . S
H311 C304 0.961 . S
H312 C304 0.960 . S
H313 C305 0.930 . S
H314 C306 0.929 . S
H315 C323 0.929 . S
H316 C325 0.930 . S
H317 C327 0.930 1_565 S
H318 C330 0.929 1_565 S
H319 C333 0.930 . S
H320 C335 0.960 . S
H321 C335 0.960 . S
H322 C335 0.960 . S
C323 H315 0.929 . S
C323 C324 1.377 . S
C323 C325 1.384 . S
C324 C323 1.377 . S
C324 C330 1.390 . S
C325 H316 0.930 . S
C325 C323 1.384 . S
C325 C326 1.372 . S
C326 C325 1.372 . S
C326 C327 1.400 . S
C326 C331 1.490 . S
C327 H317 0.930 1_545 S
C327 C326 1.400 . S
C327 C330 1.386 . S
H328 C344 0.930 1_565 S
H329 C345 0.931 1_565 S
C330 H318 0.929 1_545 S
C330 C324 1.390 . S
C330 C327 1.386 . S
C331 C326 1.490 . S
C331 C333 1.395 . S
C331 C334 1.403 . S
H332 C338 0.930 1_565 S
C333 H319 0.930 . S
C333 C331 1.395 . S
C333 C336 1.403 . S
C334 C331 1.403 . S
C334 C335 1.524 1_545 S
C334 C338 1.400 . S
C335 H320 0.960 . S
C335 H321 0.960 . S
C335 H322 0.960 . S
C335 C334 1.524 1_565 S
C336 C333 1.403 . S
C336 C337 1.392 . S
C336 C340 1.495 . S
C337 C336 1.392 . S
C337 C338 1.385 . S
C337 C339 1.478 . S
C338 H332 0.930 1_545 S
C338 C334 1.400 . S
C338 C337 1.385 . S
C339 C337 1.478 . S
C339 C341 1.381 . S
C339 C345 1.383 . S
C340 C336 1.495 . S
C340 H346 0.959 . S
C340 H347 0.961 . S
C340 H348 0.960 . S
C341 C339 1.381 . S
C341 C342 1.394 . S
C341 H349 0.930 . S
C342 C341 1.394 . S
C342 C343 1.383 . S
C342 H350 0.929 . S
C343 C342 1.383 . S
C343 C344 1.377 . S
C344 H328 0.930 1_545 S
C344 C343 1.377 . S
C344 C345 1.379 . S
C345 H329 0.931 1_545 S
C345 C339 1.383 . S
C345 C344 1.379 . S
H346 C340 0.959 . S
H347 C340 0.961 . S
H348 C340 0.960 . S
H349 C341 0.930 . S
H350 C342 0.929 . S
H351 C359 0.929 1_565 S
H352 C361 0.930 1_565 S
H353 C363 0.930 . S
H354 C366 0.929 . S
H355 C369 0.930 1_565 S
H356 C371 0.960 . S
H357 C371 0.960 . S
H358 C371 0.960 . S
C359 H351 0.929 1_545 S
C359 C360 1.377 . S
C359 C361 1.384 . S
C360 C359 1.377 . S
C360 C366 1.390 . S
C361 H352 0.930 1_545 S
C361 C359 1.384 . S
C361 C362 1.372 . S
C362 C361 1.372 . S
C362 C363 1.400 . S
C362 C367 1.490 . S
C363 H353 0.930 . S
C363 C362 1.400 . S
C363 C366 1.386 . S
H364 C380 0.930 . S
H365 C381 0.931 . S
C366 H354 0.929 . S
C366 C360 1.390 . S
C366 C363 1.386 . S
C367 C362 1.490 . S
C367 C369 1.395 . S
C367 C370 1.403 . S
H368 C374 0.930 . S
C369 H355 0.930 1_545 S
C369 C367 1.395 . S
C369 C372 1.401 1_545 S
C370 C367 1.403 . S
C370 C371 1.524 . S
C370 C374 1.400 . S
C371 H356 0.960 . S
C371 H357 0.960 . S
C371 H358 0.960 . S
C371 C370 1.524 . S
C372 C369 1.401 1_565 S
C372 C373 1.380 1_565 S
C372 C376 1.510 . S
C373 C372 1.380 1_545 S
C373 C374 1.385 . S
C373 C375 1.478 . S
C374 H368 0.930 . S
C374 C370 1.400 . S
C374 C373 1.385 . S
C375 C373 1.478 . S
C375 C377 1.381 . S
C375 C381 1.383 . S
C376 C372 1.510 . S
C376 H382 0.959 . S
C376 H383 0.961 . S
C376 H384 0.960 . S
C377 C375 1.381 . S
C377 C378 1.394 . S
C377 H385 0.930 1_445 S
C378 C377 1.394 . S
C378 C379 1.383 . S
C378 H386 0.929 1_445 S
C379 C378 1.383 . S
C379 C380 1.377 . S
C380 H364 0.930 . S
C380 C379 1.377 . S
C380 C381 1.379 . S
C381 H365 0.931 . S
C381 C375 1.383 . S
C381 C380 1.379 . S
H382 C376 0.959 . S
H383 C376 0.961 . S
H384 C376 0.960 . S
H385 C377 0.930 1_665 S
H386 C378 0.929 1_665 S
C72 C16 1.071 . S
C91 C14 1.062 . S
C108 C35 1.076 . S
C127 C37 1.029 . S
C144 C56 1.087 1_655 S
C163 C58 1.039 . S
C180 C55 1.077 1_655 S
C199 C59 1.110 . S
C216 C13 1.083 . S
C235 C17 1.123 . S
C252 C38 1.087 . S
C271 C34 1.074 . S
C288 C36 1.336 . S
C307 C18 1.281 . S
C324 C39 1.313 . S
C343 C57 1.301 . S
C360 C60 1.335 . S
C379 C15 1.260 . S
