# Generated by pormake.
# Topology vbj, (5)-cn, num edge types: 1
# Building blocks:
#     Node 0, Type 0, BuildingBlock: XOMCOT_clean_sbu_0, # of connection points: 5
#     Node 1, Type 0, BuildingBlock: XOMCOT_clean_sbu_0, # of connection points: 5
#     Node 2, Type 0, BuildingBlock: XOMCOT_clean_sbu_0, # of connection points: 5
#     Node 3, Type 0, BuildingBlock: XOMCOT_clean_sbu_0, # of connection points: 5
#     Node 4, Type 0, BuildingBlock: XOMCOT_clean_sbu_0, # of connection points: 5
#     Node 5, Type 0, BuildingBlock: XOMCOT_clean_sbu_0, # of connection points: 5
#     Node 6, Type 0, BuildingBlock: XOMCOT_clean_sbu_0, # of connection points: 5
#     Node 7, Type 0, BuildingBlock: XOMCOT_clean_sbu_0, # of connection points: 5
#     Node 8, Type 0, BuildingBlock: XOMCOT_clean_sbu_0, # of connection points: 5
#     Node 9, Type 0, BuildingBlock: XOMCOT_clean_sbu_0, # of connection points: 5
#     Node 10, Type 0, BuildingBlock: XOMCOT_clean_sbu_0, # of connection points: 5
#     Node 11, Type 0, BuildingBlock: XOMCOT_clean_sbu_0, # of connection points: 5
#     Node 12, Type 0, BuildingBlock: XOMCOT_clean_sbu_0, # of connection points: 5
#     Node 13, Type 0, BuildingBlock: XOMCOT_clean_sbu_0, # of connection points: 5
#     Node 14, Type 0, BuildingBlock: XOMCOT_clean_sbu_0, # of connection points: 5
#     Node 15, Type 0, BuildingBlock: XOMCOT_clean_sbu_0, # of connection points: 5
#     Edge 16, Type (0, 0), BuildingBlock: ZUJKAS_clean_linker_0, # of connection points: 2
#     Edge 17, Type (0, 0), BuildingBlock: ZUJKAS_clean_linker_0, # of connection points: 2
#     Edge 18, Type (0, 0), BuildingBlock: ZUJKAS_clean_linker_0, # of connection points: 2
#     Edge 19, Type (0, 0), BuildingBlock: ZUJKAS_clean_linker_0, # of connection points: 2
#     Edge 20, Type (0, 0), BuildingBlock: ZUJKAS_clean_linker_0, # of connection points: 2
#     Edge 21, Type (0, 0), BuildingBlock: ZUJKAS_clean_linker_0, # of connection points: 2
#     Edge 22, Type (0, 0), BuildingBlock: ZUJKAS_clean_linker_0, # of connection points: 2
#     Edge 23, Type (0, 0), BuildingBlock: ZUJKAS_clean_linker_0, # of connection points: 2
#     Edge 24, Type (0, 0), BuildingBlock: ZUJKAS_clean_linker_0, # of connection points: 2
#     Edge 25, Type (0, 0), BuildingBlock: ZUJKAS_clean_linker_0, # of connection points: 2
#     Edge 26, Type (0, 0), BuildingBlock: ZUJKAS_clean_linker_0, # of connection points: 2
#     Edge 27, Type (0, 0), BuildingBlock: ZUJKAS_clean_linker_0, # of connection points: 2
#     Edge 28, Type (0, 0), BuildingBlock: ZUJKAS_clean_linker_0, # of connection points: 2
#     Edge 29, Type (0, 0), BuildingBlock: ZUJKAS_clean_linker_0, # of connection points: 2
#     Edge 30, Type (0, 0), BuildingBlock: ZUJKAS_clean_linker_0, # of connection points: 2
#     Edge 31, Type (0, 0), BuildingBlock: ZUJKAS_clean_linker_0, # of connection points: 2
#     Edge 32, Type (0, 0), BuildingBlock: ZUJKAS_clean_linker_0, # of connection points: 2
#     Edge 33, Type (0, 0), BuildingBlock: ZUJKAS_clean_linker_0, # of connection points: 2
#     Edge 34, Type (0, 0), BuildingBlock: ZUJKAS_clean_linker_0, # of connection points: 2
#     Edge 35, Type (0, 0), BuildingBlock: ZUJKAS_clean_linker_0, # of connection points: 2
#     Edge 36, Type (0, 0), BuildingBlock: ZUJKAS_clean_linker_0, # of connection points: 2
#     Edge 37, Type (0, 0), BuildingBlock: ZUJKAS_clean_linker_0, # of connection points: 2
#     Edge 38, Type (0, 0), BuildingBlock: ZUJKAS_clean_linker_0, # of connection points: 2
#     Edge 39, Type (0, 0), BuildingBlock: ZUJKAS_clean_linker_0, # of connection points: 2
#     Edge 40, Type (0, 0), BuildingBlock: ZUJKAS_clean_linker_0, # of connection points: 2
#     Edge 41, Type (0, 0), BuildingBlock: ZUJKAS_clean_linker_0, # of connection points: 2
#     Edge 42, Type (0, 0), BuildingBlock: ZUJKAS_clean_linker_0, # of connection points: 2
#     Edge 43, Type (0, 0), BuildingBlock: ZUJKAS_clean_linker_0, # of connection points: 2
#     Edge 44, Type (0, 0), BuildingBlock: ZUJKAS_clean_linker_0, # of connection points: 2
#     Edge 45, Type (0, 0), BuildingBlock: ZUJKAS_clean_linker_0, # of connection points: 2
#     Edge 46, Type (0, 0), BuildingBlock: ZUJKAS_clean_linker_0, # of connection points: 2
#     Edge 47, Type (0, 0), BuildingBlock: ZUJKAS_clean_linker_0, # of connection points: 2
#     Edge 48, Type (0, 0), BuildingBlock: ZUJKAS_clean_linker_0, # of connection points: 2
#     Edge 49, Type (0, 0), BuildingBlock: ZUJKAS_clean_linker_0, # of connection points: 2
#     Edge 50, Type (0, 0), BuildingBlock: ZUJKAS_clean_linker_0, # of connection points: 2
#     Edge 51, Type (0, 0), BuildingBlock: ZUJKAS_clean_linker_0, # of connection points: 2
#     Edge 52, Type (0, 0), BuildingBlock: ZUJKAS_clean_linker_0, # of connection points: 2
#     Edge 53, Type (0, 0), BuildingBlock: ZUJKAS_clean_linker_0, # of connection points: 2
#     Edge 54, Type (0, 0), BuildingBlock: ZUJKAS_clean_linker_0, # of connection points: 2
#     Edge 55, Type (0, 0), BuildingBlock: ZUJKAS_clean_linker_0, # of connection points: 2
# Relax obj value: 0.093
# Max RMSD: 0.166
# Mean RMSD: 0.161
data_MOF--net-vbj--node1-XOMCOT_clean_sbu_0--edge1-ZUJKAS_clean_linker_0
_symmetry_space_group_name_H-M    P1
_symmetry_Int_Tables_number       1
_symmetry_cell_setting            triclinic
loop_
_symmetry_equiv_pos_as_xyz
'x, y, z'
_cell_length_a     31.924655
_cell_length_b     82.020151
_cell_length_c     64.690568
_cell_angle_alpha  89.258069
_cell_angle_beta   90.279556
_cell_angle_gamma 90.000666
loop_
_atom_site_label
_atom_site_type_symbol
_atom_site_fract_x
_atom_site_fract_y
_atom_site_fract_z
_atom_type_partial_charge
Co0 Co 0.10355 0.12986 0.0774 0.0
C1 C 0.13214 0.09518 0.07581 0.0
C2 C 0.09395 0.10183 0.04978 0.0
C3 C 0.10857 0.08624 0.04697 0.0
N4 N 0.10765 0.10735 0.06819 0.0
N5 N 0.13276 0.08208 0.06333 0.0
H6 H 0.15121 0.09611 0.0895 0.0
H7 H 0.07653 0.10898 0.03852 0.0
C8 C 0.01621 0.12213 0.06356 0.0
O9 O 0.01811 0.10869 0.07483 0.0
N10 N 0.1006 0.15224 0.08612 0.0
C11 C 0.11772 0.15816 0.10353 0.0
C12 C 0.10765 0.1744 0.10489 0.0
C13 C 0.08067 0.16494 0.07696 0.0
N14 N 0.0843 0.17865 0.08823 0.0
C15 C 0.10414 0.11544 0.1181 0.0
C16 C 0.02754 0.12756 0.13027 0.0
C17 C 0.05239 0.1192 0.14485 0.0
C18 C 0.09097 0.11296 0.13844 0.0
C19 C 0.04191 0.12977 0.11005 0.0
N20 N 0.07945 0.12343 0.10396 0.0
H21 H 0.1356 0.11198 0.1143 0.0
H22 H 0.02374 0.13741 0.09968 0.0
H23 H 0.13581 0.15108 0.11461 0.0
H24 H 0.06307 0.16408 0.06267 0.0
O25 O 0.16224 0.12937 0.08487 0.0
O26 O 0.13687 0.13644 0.05404 0.0
O27 O 0.04688 0.13214 0.06361 0.0
C28 C 0.16936 0.13417 0.06596 0.0
H29 H 0.10392 0.07896 0.03332 0.0
H30 H 0.11691 0.18247 0.11721 0.0
H31 H 0.99775 0.13282 0.13456 0.0
H32 H 0.11208 0.10705 0.14934 0.0
Co33 Co 0.41592 0.88993 0.07938 0.0
C34 C 0.3885 0.92483 0.0793 0.0
C35 C 0.42815 0.91943 0.05373 0.0
C36 C 0.41395 0.93516 0.05142 0.0
N37 N 0.41344 0.91301 0.0716 0.0
N38 N 0.38884 0.93855 0.06747 0.0
H39 H 0.36823 0.92316 0.09244 0.0
H40 H 0.44563 0.91282 0.04229 0.0
C41 C 0.50322 0.89736 0.06617 0.0
O42 O 0.50232 0.90969 0.07893 0.0
N43 N 0.41688 0.86701 0.08669 0.0
C44 C 0.39859 0.86051 0.10359 0.0
C45 C 0.40702 0.84412 0.10438 0.0
C46 C 0.43607 0.85445 0.07727 0.0
N47 N 0.43072 0.84029 0.08792 0.0
C48 C 0.42211 0.90276 0.1207 0.0
C49 C 0.49556 0.88667 0.13102 0.0
C50 C 0.47483 0.89544 0.14632 0.0
C51 C 0.43787 0.90373 0.14088 0.0
C52 C 0.47878 0.88602 0.11111 0.0
N53 N 0.44285 0.89424 0.10593 0.0
H54 H 0.39189 0.90797 0.11746 0.0
H55 H 0.49383 0.87819 0.1001 0.0
H56 H 0.38082 0.86732 0.11476 0.0
H57 H 0.45432 0.85572 0.06328 0.0
O58 O 0.35775 0.89079 0.08761 0.0
O59 O 0.38045 0.88534 0.05607 0.0
O60 O 0.47168 0.8878 0.06491 0.0
C61 C 0.34896 0.88726 0.0685 0.0
H62 H 0.41928 0.94307 0.03817 0.0
H63 H 0.39632 0.83565 0.11619 0.0
H64 H 0.52402 0.87997 0.1345 0.0
H65 H 0.41999 0.91018 0.15237 0.0
Co66 Co 0.58322 0.89586 0.43532 0.0
C67 C 0.55824 0.86078 0.43243 0.0
C68 C 0.60945 0.86488 0.45341 0.0
C69 C 0.5993 0.84863 0.45417 0.0
N70 N 0.58389 0.8725 0.4398 0.0
N71 N 0.56703 0.84602 0.44108 0.0
H72 H 0.53296 0.86309 0.42157 0.0
H73 H 0.63317 0.87083 0.4626 0.0
C74 C 0.67441 0.9015 0.42461 0.0
O75 O 0.66389 0.91033 0.40829 0.0
N76 N 0.58337 0.91966 0.43188 0.0
C77 C 0.55112 0.92943 0.42625 0.0
C78 C 0.56383 0.94545 0.42692 0.0
C79 C 0.61438 0.93014 0.43714 0.0
N80 N 0.60385 0.94592 0.43361 0.0
C81 C 0.54865 0.89901 0.39475 0.0
C82 C 0.60993 0.88229 0.37376 0.0
C83 C 0.57817 0.89027 0.36245 0.0
C84 C 0.54661 0.89823 0.37333 0.0
C85 C 0.61085 0.88346 0.39541 0.0
N86 N 0.58183 0.89267 0.40549 0.0
H87 H 0.52302 0.90458 0.40268 0.0
H88 H 0.63517 0.87716 0.40399 0.0
H89 H 0.51967 0.92546 0.42281 0.0
H90 H 0.64389 0.92638 0.44382 0.0
O91 O 0.52378 0.89599 0.44017 0.0
O92 O 0.5723 0.89876 0.46453 0.0
O93 O 0.64631 0.89544 0.43642 0.0
C94 C 0.53273 0.89789 0.4596 0.0
H95 H 0.61446 0.83943 0.46373 0.0
H96 H 0.54446 0.95595 0.42337 0.0
H97 H 0.63421 0.87553 0.36598 0.0
H98 H 0.52019 0.90375 0.36532 0.0
Co99 Co 0.8985 0.13505 0.42729 0.0
C100 C 0.86762 0.10074 0.4321 0.0
C101 C 0.90551 0.10804 0.4577 0.0
C102 C 0.88959 0.09277 0.46194 0.0
N103 N 0.89286 0.11294 0.43866 0.0
N104 N 0.86557 0.08819 0.44585 0.0
H105 H 0.84896 0.10132 0.41823 0.0
H106 H 0.92305 0.11545 0.4684 0.0
C107 C 0.98473 0.12736 0.443 0.0
O108 O 0.98282 0.1136 0.43285 0.0
N109 N 0.90273 0.15707 0.41637 0.0
C110 C 0.88615 0.16224 0.39828 0.0
C111 C 0.89533 0.17848 0.39555 0.0
C112 C 0.92168 0.17027 0.42453 0.0
N113 N 0.91779 0.18358 0.412 0.0
C114 C 0.8995 0.11888 0.3883 0.0
C115 C 0.97634 0.13055 0.37539 0.0
C116 C 0.9515 0.12182 0.36143 0.0
C117 C 0.913 0.11569 0.3683 0.0
C118 C 0.96165 0.13342 0.39536 0.0
N119 N 0.92382 0.12741 0.40178 0.0
H120 H 0.86801 0.11552 0.39221 0.0
H121 H 0.97961 0.1414 0.40515 0.0
H122 H 0.8685 0.15468 0.38778 0.0
H123 H 0.93826 0.17006 0.43915 0.0
O124 O 0.84032 0.13453 0.41897 0.0
O125 O 0.86384 0.14271 0.44945 0.0
O126 O 0.95453 0.13757 0.44166 0.0
C127 C 0.83205 0.14001 0.43728 0.0
H128 H 0.89332 0.08604 0.47633 0.0
H129 H 0.8855 0.18599 0.38254 0.0
H130 H 0.0057 0.13597 0.37056 0.0
H131 H 0.89252 0.10904 0.35801 0.0
Co132 Co 0.89936 0.89578 0.88924 0.0
C133 C 0.92363 0.86091 0.89098 0.0
C134 C 0.85685 0.86416 0.89022 0.0
C135 C 0.86537 0.84773 0.891 0.0
N136 N 0.89332 0.87239 0.89036 0.0
N137 N 0.90731 0.84569 0.89145 0.0
H138 H 0.95678 0.86366 0.89119 0.0
H139 H 0.82616 0.86971 0.88935 0.0
C140 C 0.83777 0.90773 0.91994 0.0
O141 O 0.86695 0.91801 0.92582 0.0
N142 N 0.90387 0.91948 0.88738 0.0
C143 C 0.93794 0.92923 0.88756 0.0
C144 C 0.92536 0.94516 0.88466 0.0
C145 C 0.87139 0.92966 0.88345 0.0
N146 N 0.8834 0.94543 0.88221 0.0
C147 C 0.97357 0.89826 0.91404 0.0
C148 C 0.94002 0.8866 0.95062 0.0
C149 C 0.98182 0.89183 0.9504 0.0
C150 C 0.99871 0.89736 0.93165 0.0
C151 C 0.91591 0.88771 0.93252 0.0
N152 N 0.93199 0.89451 0.91482 0.0
H153 H 0.98822 0.90146 0.89961 0.0
H154 H 0.88451 0.88283 0.93275 0.0
H155 H 0.96999 0.92535 0.88908 0.0
H156 H 0.83949 0.9255 0.88142 0.0
O157 O 0.94476 0.89366 0.87016 0.0
O158 O 0.87814 0.89596 0.86093 0.0
O159 O 0.845 0.89798 0.90508 0.0
C160 C 0.91721 0.89445 0.8554 0.0
H161 H 0.84243 0.83801 0.89071 0.0
H162 H 0.9457 0.95571 0.88455 0.0
H163 H 0.92603 0.88168 0.96458 0.0
H164 H 0.03155 0.90053 0.93038 0.0
Co165 Co 0.61471 0.13888 0.88742 0.0
C166 C 0.5917 0.17379 0.89116 0.0
C167 C 0.65804 0.17033 0.88793 0.0
C168 C 0.65016 0.18676 0.88943 0.0
N169 N 0.62147 0.16223 0.88916 0.0
N170 N 0.60847 0.18894 0.89146 0.0
H171 H 0.55862 0.17112 0.89251 0.0
H172 H 0.68832 0.16469 0.88582 0.0
C173 C 0.67654 0.12624 0.91798 0.0
O174 O 0.64634 0.11646 0.92418 0.0
N175 N 0.60941 0.11522 0.88455 0.0
C176 C 0.57508 0.10633 0.87982 0.0
C177 C 0.58663 0.09036 0.87686 0.0
C178 C 0.6416 0.10458 0.8828 0.0
N179 N 0.62854 0.08927 0.87884 0.0
C180 C 0.54575 0.13255 0.91469 0.0
C181 C 0.57908 0.14761 0.94906 0.0
C182 C 0.54023 0.13983 0.95053 0.0
C183 C 0.52335 0.13241 0.93307 0.0
C184 C 0.60097 0.14714 0.93038 0.0
N185 N 0.58499 0.13905 0.91369 0.0
H186 H 0.53068 0.12793 0.90115 0.0
H187 H 0.63076 0.15335 0.92931 0.0
H188 H 0.54399 0.11108 0.87718 0.0
H189 H 0.67417 0.108 0.88411 0.0
O190 O 0.56722 0.14206 0.86962 0.0
O191 O 0.63258 0.13984 0.85863 0.0
O192 O 0.6703 0.13591 0.90252 0.0
C193 C 0.59288 0.14175 0.85416 0.0
H194 H 0.67332 0.19638 0.88857 0.0
H195 H 0.56594 0.08048 0.87265 0.0
H196 H 0.59235 0.1539 0.96217 0.0
H197 H 0.49242 0.12697 0.93347 0.0
Co198 Co 0.38642 0.14384 0.61764 0.0
C199 C 0.40942 0.17968 0.61841 0.0
C200 C 0.34823 0.17437 0.6301 0.0
C201 C 0.35489 0.19087 0.6314 0.0
N202 N 0.38211 0.16729 0.6217 0.0
N203 N 0.39343 0.19424 0.62405 0.0
H204 H 0.44055 0.17826 0.61248 0.0
H205 H 0.32025 0.16791 0.63482 0.0
C206 C 0.31753 0.15468 0.58961 0.0
O207 O 0.34165 0.16717 0.58498 0.0
N208 N 0.38911 0.12052 0.61444 0.0
C209 C 0.42209 0.11153 0.60839 0.0
C210 C 0.41005 0.0954 0.60785 0.0
C211 C 0.35781 0.10981 0.61785 0.0
N212 N 0.36973 0.09437 0.61388 0.0
C213 C 0.45726 0.1515 0.59263 0.0
C214 C 0.42629 0.13982 0.55571 0.0
C215 C 0.46778 0.14529 0.55669 0.0
C216 C 0.48299 0.15134 0.57537 0.0
C217 C 0.4015 0.14011 0.5735 0.0
N218 N 0.41662 0.14639 0.5916 0.0
H219 H 0.47109 0.15499 0.60713 0.0
H220 H 0.37115 0.13436 0.5729 0.0
H221 H 0.45264 0.11636 0.60456 0.0
H222 H 0.32679 0.11328 0.62285 0.0
O223 O 0.43419 0.14288 0.63572 0.0
O224 O 0.36865 0.14065 0.6463 0.0
O225 O 0.33011 0.14401 0.60289 0.0
C226 C 0.40849 0.14091 0.65097 0.0
H227 H 0.33267 0.19968 0.63709 0.0
H228 H 0.42955 0.08519 0.6036 0.0
H229 H 0.41393 0.13453 0.5417 0.0
H230 H 0.51512 0.15544 0.57685 0.0
Co231 Co 0.1017 0.90053 0.61517 0.0
C232 C 0.07829 0.86558 0.61408 0.0
C233 C 0.1448 0.86903 0.61646 0.0
C234 C 0.1366 0.85258 0.61638 0.0
N235 N 0.1083 0.87715 0.61493 0.0
N236 N 0.09473 0.85036 0.61499 0.0
H237 H 0.04518 0.86833 0.61327 0.0
H238 H 0.17531 0.87465 0.61777 0.0
C239 C 0.16956 0.91309 0.58757 0.0
O240 O 0.1423 0.92359 0.57994 0.0
N241 N 0.09626 0.92422 0.61612 0.0
C242 C 0.06252 0.93381 0.61253 0.0
C243 C 0.07426 0.94988 0.61412 0.0
C244 C 0.1274 0.93471 0.62103 0.0
N245 N 0.1151 0.95041 0.61932 0.0
C246 C 0.03169 0.90271 0.58747 0.0
C247 C 0.0724 0.89316 0.55204 0.0
C248 C 0.03094 0.89861 0.55066 0.0
C249 C 0.01021 0.90297 0.56872 0.0
C250 C 0.09304 0.89339 0.57122 0.0
N251 N 0.0735 0.89932 0.58837 0.0
H252 H 0.01434 0.90517 0.60131 0.0
H253 H 0.12459 0.88871 0.57219 0.0
H254 H 0.03125 0.92979 0.60911 0.0
H255 H 0.15907 0.93092 0.62474 0.0
O256 O 0.05335 0.89826 0.63255 0.0
O257 O 0.1184 0.90065 0.64414 0.0
O258 O 0.15864 0.90292 0.60171 0.0
C259 C 0.07863 0.89904 0.64826 0.0
H260 H 0.15996 0.84305 0.61723 0.0
H261 H 0.05432 0.9604 0.61155 0.0
H262 H 0.08874 0.88898 0.53846 0.0
H263 H 0.97741 0.90638 0.56837 0.0
Co264 Co 0.60157 0.62956 0.07647 0.0
C265 C 0.62865 0.59466 0.07657 0.0
C266 C 0.59475 0.60135 0.04913 0.0
C267 C 0.60915 0.58565 0.04705 0.0
N268 N 0.60603 0.60694 0.06788 0.0
N269 N 0.63067 0.58147 0.06429 0.0
H270 H 0.6453 0.59555 0.091 0.0
H271 H 0.57911 0.60851 0.03726 0.0
C272 C 0.51501 0.6212 0.0618 0.0
O273 O 0.51695 0.60768 0.0729 0.0
N274 N 0.59822 0.65207 0.08466 0.0
C275 C 0.61552 0.65821 0.10191 0.0
C276 C 0.60515 0.67442 0.1031 0.0
C277 C 0.57782 0.66464 0.07542 0.0
N278 N 0.58138 0.67846 0.0865 0.0
C279 C 0.60281 0.61644 0.11779 0.0
C280 C 0.52398 0.62695 0.12888 0.0
C281 C 0.5495 0.61949 0.14398 0.0
C282 C 0.58932 0.61412 0.1381 0.0
C283 C 0.53882 0.6291 0.10873 0.0
N284 N 0.57743 0.62347 0.10315 0.0
H285 H 0.63488 0.61359 0.11434 0.0
H286 H 0.51992 0.63612 0.09799 0.0
H287 H 0.63399 0.6513 0.113 0.0
H288 H 0.55995 0.66361 0.06124 0.0
O289 O 0.66036 0.62936 0.08395 0.0
O290 O 0.63494 0.63579 0.05294 0.0
O291 O 0.54508 0.63148 0.06244 0.0
C292 C 0.66746 0.63381 0.06491 0.0
H293 H 0.60627 0.57831 0.03334 0.0
H294 H 0.61449 0.68262 0.11526 0.0
H295 H 0.4932 0.63153 0.13269 0.0
H296 H 0.611 0.60899 0.14935 0.0
Co297 Co 0.91357 0.38946 0.07947 0.0
C298 C 0.8852 0.42422 0.07887 0.0
C299 C 0.9241 0.41856 0.05311 0.0
C300 C 0.90865 0.43404 0.05027 0.0
N301 N 0.91049 0.41244 0.07135 0.0
N302 N 0.88385 0.43759 0.06639 0.0
H303 H 0.86495 0.42256 0.09203 0.0
H304 H 0.94159 0.41185 0.04177 0.0
C305 C 1.00021 0.39704 0.06544 0.0
O306 O 0.99945 0.40947 0.07808 0.0
N307 N 0.9151 0.36662 0.0871 0.0
C308 C 0.89728 0.36022 0.10419 0.0
C309 C 0.90614 0.34386 0.10519 0.0
C310 C 0.93444 0.35406 0.07779 0.0
N311 N 0.92965 0.33998 0.08868 0.0
C312 C 0.92113 0.40263 0.12062 0.0
C313 C 0.99483 0.3865 0.13038 0.0
C314 C 0.97442 0.39512 0.14591 0.0
C315 C 0.93739 0.4035 0.14074 0.0
C316 C 0.97748 0.38588 0.11061 0.0
N317 N 0.94134 0.39405 0.10572 0.0
H318 H 0.89096 0.40797 0.11752 0.0
H319 H 0.99221 0.37805 0.0995 0.0
H320 H 0.87957 0.36706 0.11534 0.0
H321 H 0.95244 0.35527 0.06373 0.0
O322 O 0.8556 0.39024 0.08812 0.0
O323 O 0.87752 0.38457 0.05651 0.0
O324 O 0.96887 0.38735 0.06458 0.0
C325 C 0.84635 0.38651 0.06912 0.0
H326 H 0.91383 0.44176 0.03684 0.0
H327 H 0.8959 0.33547 0.11718 0.0
H328 H 0.02343 0.37981 0.13358 0.0
H329 H 0.91985 0.40992 0.15238 0.0
Co330 Co 0.07929 0.39668 0.43427 0.0
C331 C 0.05469 0.36151 0.43284 0.0
C332 C 0.10306 0.36644 0.45512 0.0
C333 C 0.09312 0.35017 0.45638 0.0
N334 N 0.07907 0.37355 0.44041 0.0
N335 N 0.06268 0.34705 0.44245 0.0
H336 H 0.031 0.36338 0.42102 0.0
H337 H 0.1258 0.37274 0.46454 0.0
C338 C 0.17131 0.40227 0.42497 0.0
O339 O 0.16229 0.4105 0.40796 0.0
N340 N 0.08052 0.42021 0.42899 0.0
C341 C 0.05176 0.42968 0.41927 0.0
C342 C 0.06549 0.44559 0.41907 0.0
C343 C 0.11012 0.4308 0.43559 0.0
N344 N 0.10239 0.44628 0.42921 0.0
C345 C 0.04358 0.39657 0.39381 0.0
C346 C 0.10927 0.38212 0.37339 0.0
C347 C 0.07576 0.38863 0.36182 0.0
C348 C 0.04193 0.39529 0.37243 0.0
C349 C 0.10963 0.38372 0.39499 0.0
N350 N 0.07848 0.39208 0.40471 0.0
H351 H 0.01643 0.4012 0.40155 0.0
H352 H 0.13519 0.37843 0.40376 0.0
H353 H 0.02211 0.42565 0.41321 0.0
H354 H 0.13708 0.42727 0.44477 0.0
O355 O 0.01971 0.3974 0.4388 0.0
O356 O 0.06782 0.40099 0.46312 0.0
O357 O 0.14226 0.39616 0.43615 0.0
C358 C 0.02834 0.4001 0.45809 0.0
H359 H 0.10737 0.3413 0.46676 0.0
H360 H 0.04912 0.45592 0.41228 0.0
H361 H 0.13532 0.37624 0.36583 0.0
H362 H 0.01423 0.39953 0.36425 0.0
Co363 Co 0.39684 0.63473 0.42699 0.0
C364 C 0.36752 0.60027 0.43133 0.0
C365 C 0.40946 0.60677 0.45571 0.0
C366 C 0.3943 0.59136 0.45973 0.0
N367 N 0.39379 0.61227 0.4375 0.0
N368 N 0.36763 0.58725 0.44442 0.0
H369 H 0.34577 0.60157 0.41864 0.0
H370 H 0.42857 0.61381 0.46615 0.0
C371 C 0.48487 0.6283 0.44131 0.0
O372 O 0.48454 0.61488 0.43042 0.0
N373 N 0.39838 0.65703 0.41684 0.0
C374 C 0.37967 0.66235 0.39934 0.0
C375 C 0.38784 0.67868 0.39677 0.0
C376 C 0.41769 0.67022 0.4248 0.0
N377 N 0.41191 0.68369 0.41271 0.0
C378 C 0.39925 0.61884 0.38766 0.0
C379 C 0.47369 0.63257 0.37452 0.0
C380 C 0.45066 0.62302 0.36068 0.0
C381 C 0.41318 0.61598 0.36761 0.0
C382 C 0.45856 0.63514 0.39445 0.0
N383 N 0.42209 0.62807 0.40102 0.0
H384 H 0.36865 0.61451 0.39183 0.0
H385 H 0.47529 0.64352 0.40423 0.0
H386 H 0.36143 0.65481 0.38906 0.0
H387 H 0.43602 0.66991 0.43891 0.0
O388 O 0.33835 0.63353 0.41922 0.0
O389 O 0.36248 0.64127 0.44979 0.0
O390 O 0.4531 0.6378 0.44093 0.0
C391 C 0.33042 0.6384 0.43787 0.0
H392 H 0.4013 0.5841 0.47338 0.0
H393 H 0.37639 0.68629 0.38419 0.0
H394 H 0.50263 0.6384 0.36985 0.0
H395 H 0.39342 0.60906 0.35728 0.0
Co396 Co 0.3993 0.39516 0.8901 0.0
C397 C 0.42255 0.36012 0.89172 0.0
C398 C 0.35613 0.36375 0.88882 0.0
C399 C 0.3641 0.34728 0.88897 0.0
N400 N 0.3927 0.37177 0.89061 0.0
N401 N 0.40587 0.34496 0.89073 0.0
H402 H 0.45571 0.36273 0.89278 0.0
H403 H 0.32577 0.3695 0.88728 0.0
C404 C 0.3378 0.40627 0.92131 0.0
O405 O 0.36751 0.41595 0.92811 0.0
N406 N 0.40441 0.41892 0.88871 0.0
C407 C 0.43899 0.42818 0.88602 0.0
C408 C 0.42732 0.44428 0.88403 0.0
C409 C 0.37216 0.42958 0.88701 0.0
N410 N 0.3852 0.44519 0.88481 0.0
C411 C 0.47201 0.39829 0.91589 0.0
C412 C 0.43861 0.38432 0.95123 0.0
C413 C 0.47962 0.39042 0.95186 0.0
C414 C 0.49647 0.39714 0.93371 0.0
C415 C 0.41519 0.38568 0.93293 0.0
N416 N 0.43113 0.39351 0.91588 0.0
H417 H 0.48676 0.40243 0.9019 0.0
H418 H 0.38431 0.38031 0.93249 0.0
H419 H 0.47051 0.42374 0.88434 0.0
H420 H 0.33964 0.42595 0.88732 0.0
O421 O 0.44528 0.39309 0.87134 0.0
O422 O 0.37896 0.39577 0.86165 0.0
O423 O 0.34461 0.39721 0.90569 0.0
C424 C 0.41817 0.39415 0.85639 0.0
H425 H 0.34075 0.33776 0.88795 0.0
H426 H 0.44831 0.45446 0.88146 0.0
H427 H 0.42468 0.37856 0.96469 0.0
H428 H 0.52884 0.40107 0.93304 0.0
Co429 Co 0.11355 0.63889 0.88695 0.0
C430 C 0.09018 0.67475 0.88591 0.0
C431 C 0.15193 0.66974 0.87491 0.0
C432 C 0.14514 0.68625 0.87344 0.0
N433 N 0.11782 0.66246 0.88306 0.0
N434 N 0.10626 0.68943 0.88036 0.0
H435 H 0.05867 0.67317 0.8913 0.0
H436 H 0.1801 0.66341 0.87042 0.0
C437 C 0.18301 0.64899 0.91454 0.0
O438 O 0.15864 0.66122 0.91956 0.0
N439 N 0.11097 0.61548 0.88991 0.0
C440 C 0.07689 0.60626 0.89362 0.0
C441 C 0.08884 0.5901 0.89401 0.0
C442 C 0.14305 0.60492 0.88801 0.0
N443 N 0.13047 0.58927 0.89048 0.0
C444 C 0.04476 0.64647 0.9134 0.0
C445 C 0.07821 0.63345 0.94947 0.0
C446 C 0.03822 0.64035 0.94975 0.0
C447 C 0.02135 0.64682 0.93148 0.0
C448 C 0.10084 0.63352 0.93101 0.0
N449 N 0.08485 0.64067 0.91341 0.0
H450 H 0.02966 0.65022 0.89919 0.0
H451 H 0.13044 0.62717 0.93075 0.0
H452 H 0.04561 0.61095 0.89586 0.0
H453 H 0.17476 0.60864 0.88447 0.0
O454 O 0.0649 0.63854 0.86942 0.0
O455 O 0.12993 0.63647 0.85809 0.0
O456 O 0.17044 0.6387 0.90112 0.0
C457 C 0.08991 0.637 0.85385 0.0
H458 H 0.16747 0.69519 0.86789 0.0
H459 H 0.06846 0.57978 0.89688 0.0
H460 H 0.09126 0.62767 0.96321 0.0
H461 H 0.98961 0.65151 0.93103 0.0
Co462 Co 0.88457 0.64421 0.61672 0.0
C463 C 0.90771 0.68007 0.61725 0.0
C464 C 0.84683 0.67477 0.62939 0.0
C465 C 0.8534 0.6913 0.6305 0.0
N466 N 0.88052 0.66767 0.62078 0.0
N467 N 0.89169 0.69461 0.62287 0.0
H468 H 0.93835 0.6788 0.61066 0.0
H469 H 0.81914 0.6683 0.63448 0.0
C470 C 0.81521 0.65515 0.58915 0.0
O471 O 0.83954 0.66754 0.58435 0.0
N472 N 0.88706 0.62089 0.61359 0.0
C473 C 0.92113 0.61174 0.6099 0.0
C474 C 0.9093 0.59558 0.60989 0.0
C475 C 0.85513 0.61028 0.6159 0.0
N476 N 0.86775 0.59466 0.61369 0.0
C477 C 0.95398 0.65213 0.59065 0.0
C478 C 0.92072 0.64035 0.55429 0.0
C479 C 0.96123 0.64691 0.55417 0.0
C480 C 0.97784 0.65277 0.57271 0.0
C481 C 0.89773 0.64006 0.57265 0.0
N482 N 0.91367 0.64661 0.59039 0.0
H483 H 0.96881 0.65553 0.60497 0.0
H484 H 0.86784 0.63392 0.57268 0.0
H485 H 0.95244 0.61647 0.60771 0.0
H486 H 0.82338 0.61401 0.61918 0.0
O487 O 0.93296 0.64329 0.63445 0.0
O488 O 0.86773 0.64102 0.64548 0.0
O489 O 0.82781 0.64446 0.6024 0.0
C490 C 0.90769 0.64127 0.64988 0.0
H491 H 0.83195 0.70015 0.63677 0.0
H492 H 0.93004 0.58531 0.60777 0.0
H493 H 0.90721 0.63518 0.54045 0.0
H494 H 0.00983 0.65712 0.57362 0.0
Co495 Co 0.60087 0.40068 0.61583 0.0
C496 C 0.57592 0.36604 0.61276 0.0
C497 C 0.64274 0.36891 0.61422 0.0
C498 C 0.6337 0.35255 0.61307 0.0
N499 N 0.60655 0.37733 0.6139 0.0
N500 N 0.59172 0.35075 0.6122 0.0
H501 H 0.54286 0.36896 0.61238 0.0
H502 H 0.67358 0.37425 0.61561 0.0
C503 C 0.66788 0.41397 0.58821 0.0
O504 O 0.64053 0.42477 0.58139 0.0
N505 N 0.59628 0.42427 0.61849 0.0
C506 C 0.56208 0.43395 0.61775 0.0
C507 C 0.57425 0.44987 0.62073 0.0
C508 C 0.62833 0.43443 0.62297 0.0
N509 N 0.61603 0.45015 0.62376 0.0
C510 C 0.52959 0.40418 0.58917 0.0
C511 C 0.56799 0.39557 0.55275 0.0
C512 C 0.52584 0.40043 0.55216 0.0
C513 C 0.5065 0.4043 0.57088 0.0
C514 C 0.58987 0.39542 0.57157 0.0
N515 N 0.5714 0.40077 0.58929 0.0
H516 H 0.51319 0.40638 0.60335 0.0
H517 H 0.6215 0.39079 0.57182 0.0
H518 H 0.53027 0.43001 0.61549 0.0
H519 H 0.66027 0.43038 0.62534 0.0
O520 O 0.55323 0.39787 0.63356 0.0
O521 O 0.61878 0.39951 0.64463 0.0
O522 O 0.6573 0.40337 0.60192 0.0
C523 C 0.57913 0.39793 0.64905 0.0
H524 H 0.65628 0.3427 0.6135 0.0
H525 H 0.554 0.46045 0.62015 0.0
H526 H 0.58405 0.39192 0.53885 0.0
H527 H 0.47337 0.40705 0.57155 0.0
H528 H 0.50477 0.16603 0.9688 0.0
H529 H 0.44972 0.16529 0.99507 0.0
H530 H 0.46451 0.11311 1.00105 0.0
H531 H 0.5183 0.11384 0.9742 0.0
H532 H 0.38724 0.1208 0.99134 0.0
H533 H 0.43627 0.15953 0.05651 0.0
H534 H 0.44087 0.17001 0.03212 0.0
H535 H 0.47277 0.15232 0.03743 0.0
C536 C 0.49716 0.15453 0.97631 0.0
C537 C 0.51551 0.13999 0.96966 0.0
C538 C 0.46589 0.1541 0.99137 0.0
C539 C 0.45318 0.13915 1.00017 0.0
C540 C 0.47388 0.12478 0.99452 0.0
H541 H 0.243 0.12663 0.08561 0.0
H542 H 0.31377 0.12801 0.0711 0.0
C543 C 0.50459 0.12519 0.97927 0.0
C544 C 0.41415 0.13811 0.01243 0.0
H545 H 0.362 0.15436 0.0533 0.0
C546 C 0.38207 0.12797 0.00508 0.0
C547 C 0.40736 0.14739 0.03039 0.0
C548 C 0.44134 0.15779 0.0397 0.0
C549 C 0.34303 0.12723 0.01476 0.0
C550 C 0.33542 0.13721 0.03198 0.0
C551 C 0.36783 0.14691 0.03987 0.0
C552 C 0.29353 0.13787 0.04153 0.0
C553 C 0.31018 0.11579 0.0064 0.0
C554 C 0.25906 0.14337 0.02986 0.0
C555 C 0.21875 0.1425 0.03801 0.0
C556 C 0.21229 0.13627 0.05806 0.0
C557 C 0.24707 0.13144 0.07008 0.0
C558 C 0.28746 0.13225 0.06186 0.0
H559 H 0.32436 0.10596 0.99707 0.0
H560 H 0.2918 0.1101 0.01912 0.0
H561 H 0.28829 0.12275 0.99625 0.0
H562 H 0.26328 0.148 0.01425 0.0
H563 H 0.19261 0.14646 0.02846 0.0
H564 H 0.986 0.86738 0.97983 0.0
H565 H 0.03655 0.86481 0.00831 0.0
H566 H 0.09057 0.91118 0.99086 0.0
H567 H 0.03917 0.91418 0.96321 0.0
H568 H 0.1177 0.86201 0.00393 0.0
H569 H 0.09045 0.91576 0.05205 0.0
H570 H 0.05278 0.90913 0.03301 0.0
H571 H 0.09584 0.92218 0.02564 0.0
C572 C 0.00782 0.87725 0.98249 0.0
C573 C 0.00877 0.89094 0.96917 0.0
C574 C 0.03682 0.87573 0.9987 0.0
C575 C 0.06704 0.8879 1.00194 0.0
C576 C 0.06696 0.90181 0.98908 0.0
H577 H 0.3227 0.88293 0.02892 0.0
H578 H 0.25094 0.88112 0.01619 0.0
C579 C 0.03794 0.90338 0.97302 0.0
C580 C 0.10198 0.88533 0.01684 0.0
H581 H 0.16263 0.90553 0.05173 0.0
C582 C 0.12694 0.87136 0.01476 0.0
C583 C 0.11373 0.89729 0.03134 0.0
C584 C 0.08641 0.91182 0.03579 0.0
C585 C 0.16498 0.86968 0.02549 0.0
C586 C 0.17897 0.88253 0.03818 0.0
C587 C 0.15239 0.89584 0.04163 0.0
C588 C 0.2224 0.88309 0.04636 0.0
C589 C 0.19027 0.85433 0.02269 0.0
C590 C 0.23029 0.88537 0.0675 0.0
C591 C 0.27149 0.88665 0.07481 0.0
C592 C 0.30537 0.88572 0.06107 0.0
C593 C 0.29731 0.88352 0.03993 0.0
C594 C 0.25626 0.88234 0.03264 0.0
H595 H 0.1696 0.84379 0.01932 0.0
H596 H 0.21159 0.856 0.00934 0.0
H597 H 0.20937 0.85139 0.03664 0.0
H598 H 0.20459 0.88616 0.07831 0.0
H599 H 0.27678 0.8884 0.09119 0.0
H600 H 0.70757 0.8796 0.452 0.0
H601 H 0.77796 0.87956 0.46683 0.0
H602 H 0.81216 0.92001 0.42722 0.0
H603 H 0.74136 0.92016 0.41212 0.0
H604 H 0.87685 0.89037 0.43632 0.0
H605 H 0.80673 0.92261 0.50297 0.0
H606 H 0.7788 0.90506 0.49377 0.0
H607 H 0.78305 0.92289 0.47755 0.0
C608 C 0.73016 0.88834 0.44617 0.0
C609 C 0.71874 0.90004 0.43108 0.0
C610 C 0.77042 0.88823 0.45459 0.0
C611 C 0.79999 0.89981 0.44815 0.0
C612 C 0.78966 0.91092 0.43226 0.0
H613 H 0.99938 0.92574 0.53238 0.0
H614 H 0.9497 0.92715 0.5035 0.0
C615 C 0.74925 0.91101 0.42371 0.0
C616 C 0.83947 0.90143 0.45992 0.0
H617 H 0.87574 0.91284 0.50716 0.0
C618 C 0.87695 0.89544 0.45172 0.0
C619 C 0.83931 0.90819 0.47988 0.0
C620 C 0.79995 0.91518 0.4891 0.0
C621 C 0.91432 0.89562 0.46337 0.0
C622 C 0.9137 0.90174 0.48373 0.0
C623 C 0.8763 0.90815 0.49156 0.0
C624 C 0.95061 0.90121 0.49775 0.0
C625 C 0.95398 0.88928 0.4538 0.0
C626 C 0.96883 0.88623 0.50364 0.0
C627 C 0.99775 0.88547 0.51998 0.0
C628 C 0.00819 0.89963 0.53079 0.0
C629 C 0.99175 0.91469 0.52418 0.0
C630 C 0.96341 0.91548 0.50773 0.0
H631 H 0.95238 0.88986 0.43664 0.0
H632 H 0.98173 0.89628 0.45906 0.0
H633 H 0.95837 0.87632 0.45847 0.0
H634 H 0.95876 0.87501 0.49653 0.0
H635 H 0.00972 0.87372 0.52506 0.0
H636 H 0.80601 0.15175 0.47427 0.0
H637 H 0.73427 0.15314 0.48712 0.0
H638 H 0.68798 0.13459 0.42927 0.0
H639 H 0.75986 0.133 0.4163 0.0
H640 H 0.66117 0.16955 0.47062 0.0
H641 H 0.64491 0.10189 0.474 0.0
H642 H 0.69517 0.11175 0.47134 0.0
H643 H 0.65989 0.11101 0.4497 0.0
C644 C 0.78058 0.14808 0.46421 0.0
C645 C 0.78856 0.14216 0.44434 0.0
C646 C 0.73963 0.14893 0.47154 0.0
C647 C 0.70598 0.14382 0.4592 0.0
C648 C 0.71363 0.13841 0.43909 0.0
H649 H 0.45552 0.15485 0.51629 0.0
H650 H 0.50722 0.15402 0.48815 0.0
C651 C 0.75466 0.13758 0.43171 0.0
C652 C 0.66338 0.14344 0.46803 0.0
H653 H 0.59089 0.11732 0.48843 0.0
C654 C 0.64525 0.15818 0.47416 0.0
C655 C 0.64298 0.12854 0.47263 0.0
C656 C 0.66164 0.11235 0.46673 0.0
C657 C 0.60821 0.15836 0.48575 0.0
C658 C 0.58884 0.14342 0.49114 0.0
C659 C 0.60577 0.12874 0.48407 0.0
C660 C 0.55557 0.14262 0.50692 0.0
C661 C 0.59158 0.17443 0.49332 0.0
C662 C 0.56541 0.13606 0.52645 0.0
C663 C 0.53628 0.13655 0.54236 0.0
C664 C 0.49663 0.14355 0.53904 0.0
C665 C 0.48596 0.14944 0.5192 0.0
C666 C 0.51541 0.14904 0.50322 0.0
H667 H 0.61257 0.18479 0.48933 0.0
H668 H 0.56039 0.17681 0.48627 0.0
H669 H 0.58756 0.17395 0.51036 0.0
H670 H 0.5962 0.13102 0.52957 0.0
H671 H 0.54502 0.13167 0.55742 0.0
H672 H 0.77625 0.88438 0.91717 0.0
H673 H 0.71719 0.88011 0.94074 0.0
H674 H 0.75388 0.92262 0.97492 0.0
H675 H 0.8128 0.92695 0.95164 0.0
H676 H 0.74225 0.89363 0.99932 0.0
H677 H 0.60673 0.90641 0.94709 0.0
H678 H 0.64533 0.89223 0.93805 0.0
H679 H 0.65917 0.91326 0.9412 0.0
C680 C 0.77135 0.89296 0.92951 0.0
C681 C 0.79934 0.90599 0.93254 0.0
C682 C 0.73755 0.89052 0.94294 0.0
C683 C 0.73111 0.90109 0.95952 0.0
C684 C 0.75834 0.91431 0.96223 0.0
H685 H 0.57359 0.91619 0.06387 0.0
H686 H 0.62903 0.91514 0.03813 0.0
C687 C 0.79199 0.91677 0.94886 0.0
C688 C 0.69755 0.89802 0.97485 0.0
H689 H 0.59149 0.89858 0.98142 0.0
C690 C 0.70927 0.89463 0.9954 0.0
C691 C 0.65459 0.89917 0.96963 0.0
C692 C 0.64044 0.90307 0.94784 0.0
C693 C 0.67919 0.89264 0.01097 0.0
C694 C 0.63626 0.89441 0.00593 0.0
C695 C 0.62444 0.89726 0.98525 0.0
C696 C 0.6034 0.89439 0.02208 0.0
C697 C 0.69371 0.88866 0.03269 0.0
C698 C 0.5702 0.88318 0.02149 0.0
C699 C 0.53821 0.88378 0.0362 0.0
C700 C 0.5387 0.89571 0.05165 0.0
C701 C 0.5723 0.90678 0.0523 0.0
C702 C 0.60419 0.90616 0.03762 0.0
H703 H 0.72508 0.88279 0.03278 0.0
H704 H 0.69615 0.9001 0.04157 0.0
H705 H 0.67126 0.88044 0.04072 0.0
H706 H 0.56889 0.87405 0.00955 0.0
H707 H 0.51271 0.87511 0.0352 0.0
H708 H 0.73882 0.14949 0.91701 0.0
H709 H 0.79903 0.15155 0.94067 0.0
H710 H 0.76231 0.10651 0.97055 0.0
H711 H 0.70243 0.10442 0.94728 0.0
H712 H 0.77543 0.13259 0.99789 0.0
H713 H 0.9092 0.12494 0.94398 0.0
H714 H 0.87083 0.14013 0.93702 0.0
H715 H 0.85643 0.11898 0.9373 0.0
C716 C 0.74406 0.1399 0.92839 0.0
C717 C 0.71577 0.12682 0.93029 0.0
C718 C 0.77846 0.14108 0.94189 0.0
C719 C 0.78519 0.12915 0.95734 0.0
C720 C 0.75766 0.11587 0.95879 0.0
H721 H 0.9466 0.1031 0.05854 0.0
H722 H 0.89037 0.1066 0.03313 0.0
C723 C 0.72343 0.1147 0.94542 0.0
C724 C 0.81931 0.1307 0.97286 0.0
H725 H 0.92556 0.12908 0.9791 0.0
C726 C 0.80828 0.13192 0.99377 0.0
C727 C 0.86212 0.12995 0.96744 0.0
C728 C 0.87562 0.12832 0.94525 0.0
C729 C 0.83882 0.13208 0.00945 0.0
C730 C 0.88155 0.1307 0.00411 0.0
C731 C 0.89274 0.13006 0.98315 0.0
C732 C 0.9149 0.12906 0.02009 0.0
C733 C 0.82502 0.1337 0.0316 0.0
C734 C 0.94765 0.14043 0.02108 0.0
C735 C 0.97996 0.13845 0.03561 0.0
C736 C 0.98033 0.12495 0.04929 0.0
C737 C 0.94722 0.11367 0.04835 0.0
C738 C 0.91492 0.11569 0.03387 0.0
H739 H 0.79349 0.13936 0.03263 0.0
H740 H 0.82332 0.1214 0.0389 0.0
H741 H 0.84759 0.14113 0.04058 0.0
H742 H 0.94832 0.1508 0.01054 0.0
H743 H 0.00502 0.14735 0.03584 0.0
H744 H 0.0532 0.10801 0.45062 0.0
H745 H 0.10804 0.11186 0.47666 0.0
H746 H 0.05063 0.15702 0.49477 0.0
H747 H 0.99548 0.15325 0.46889 0.0
H748 H 0.16515 0.13754 0.48137 0.0
H749 H 0.06176 0.13143 0.54976 0.0
H750 H 0.04575 0.12527 0.52421 0.0
H751 H 0.04476 0.14643 0.53105 0.0
C752 C 0.05225 0.11881 0.46007 0.0
C753 C 0.01975 0.13028 0.4577 0.0
C754 C 0.08362 0.12097 0.47498 0.0
C755 C 0.08299 0.13456 0.48793 0.0
C756 C 0.05123 0.14625 0.48526 0.0
H757 H 0.2828 0.17518 0.5608 0.0
H758 H 0.22535 0.16957 0.53696 0.0
C759 C 0.0199 0.14413 0.47032 0.0
C760 C 0.11596 0.13665 0.50399 0.0
H761 H 0.13151 0.14047 0.55606 0.0
C762 C 0.15781 0.13811 0.4977 0.0
C763 C 0.10642 0.13714 0.52533 0.0
C764 C 0.0623 0.13484 0.53308 0.0
C765 C 0.19022 0.14052 0.51211 0.0
C766 C 0.18049 0.14166 0.53336 0.0
C767 C 0.13882 0.13973 0.53974 0.0
C768 C 0.21321 0.14533 0.54901 0.0
C769 C 0.23471 0.14178 0.50448 0.0
C770 C 0.22446 0.13377 0.56427 0.0
C771 C 0.25745 0.13695 0.57805 0.0
C772 C 0.27951 0.15179 0.57685 0.0
C773 C 0.2668 0.16357 0.5621 0.0
C774 C 0.23403 0.16037 0.54836 0.0
H775 H 0.23811 0.13672 0.48873 0.0
H776 H 0.24409 0.15481 0.50384 0.0
H777 H 0.25658 0.13526 0.51512 0.0
H778 H 0.20856 0.12212 0.5651 0.0
H779 H 0.26641 0.12761 0.58921 0.0
H780 H 0.21328 0.93752 0.56879 0.0
H781 H 0.27956 0.9354 0.55022 0.0
H782 H 0.28575 0.8841 0.56557 0.0
H783 H 0.22036 0.88635 0.58502 0.0
H784 H 0.36185 0.89721 0.56703 0.0
H785 H 0.28498 0.91653 0.4938 0.0
H786 H 0.28088 0.9317 0.51337 0.0
H787 H 0.25574 0.9122 0.51697 0.0
C788 C 0.22901 0.92582 0.56835 0.0
C789 C 0.2115 0.91206 0.57813 0.0
C790 C 0.26674 0.9246 0.55763 0.0
C791 C 0.28704 0.90948 0.55594 0.0
C792 C 0.27053 0.89587 0.56651 0.0
H793 H 0.45352 0.88641 0.45594 0.0
H794 H 0.39642 0.88853 0.48064 0.0
C795 C 0.23318 0.89716 0.57762 0.0
C796 C 0.32441 0.90773 0.5425 0.0
H797 H 0.35891 0.9143 0.49324 0.0
C798 C 0.36123 0.9009 0.55087 0.0
C799 C 0.32338 0.91226 0.5213 0.0
C800 C 0.28401 0.91841 0.51077 0.0
C801 C 0.39705 0.89855 0.53867 0.0
C802 C 0.39645 0.90366 0.51767 0.0
C803 C 0.35961 0.9105 0.50936 0.0
C804 C 0.43271 0.90144 0.50359 0.0
C805 C 0.43457 0.89016 0.54827 0.0
C806 C 0.47249 0.90784 0.50826 0.0
C807 C 0.50558 0.90634 0.49424 0.0
C808 C 0.49908 0.89879 0.47512 0.0
C809 C 0.45938 0.89239 0.47051 0.0
C810 C 0.42669 0.8936 0.48464 0.0
H811 H 0.42573 0.8828 0.56212 0.0
H812 H 0.45015 0.88204 0.53707 0.0
H813 H 0.4575 0.89949 0.55328 0.0
H814 H 0.47774 0.91434 0.5225 0.0
H815 H 0.53582 0.9115 0.49808 0.0
H816 H 0.74067 0.63434 0.08705 0.0
H817 H 0.81183 0.63774 0.07356 0.0
H818 H 0.76207 0.64096 0.01151 0.0
H819 H 0.69116 0.63808 0.02488 0.0
H820 H 0.85561 0.61908 0.04792 0.0
H821 H 0.83731 0.6801 0.01212 0.0
H822 H 0.79926 0.67171 0.02985 0.0
H823 H 0.79766 0.66654 0.00285 0.0
C824 C 0.74496 0.63594 0.07055 0.0
C825 C 0.71037 0.63609 0.05702 0.0
C826 C 0.78559 0.63787 0.06288 0.0
C827 C 0.79221 0.63997 0.04157 0.0
C828 C 0.75767 0.63989 0.02806 0.0
H829 H 0.98884 0.61529 0.9616 0.0
H830 H 0.93464 0.61562 0.98819 0.0
C831 C 0.71713 0.63812 0.03571 0.0
C832 C 0.83519 0.64144 0.03316 0.0
H833 H 0.89319 0.66347 0.99864 0.0
C834 C 0.86416 0.62894 0.03743 0.0
C835 C 0.84684 0.65451 0.01992 0.0
C836 C 0.81874 0.66905 0.01612 0.0
C837 C 0.90337 0.62862 0.02771 0.0
C838 C 0.91331 0.64087 0.01293 0.0
C839 C 0.88545 0.65393 0.00974 0.0
C840 C 0.9503 0.63973 0.99921 0.0
C841 C 0.93343 0.61504 0.03323 0.0
C842 C 0.97709 0.65318 0.99641 0.0
C843 C 0.00758 0.65306 0.98097 0.0
C844 C 0.01187 0.63945 0.96828 0.0
C845 C 0.98641 0.62576 0.97158 0.0
C846 C 0.95568 0.62593 0.98684 0.0
H847 H 0.92897 0.61085 0.04947 0.0
H848 H 0.92728 0.60448 0.0231 0.0
H849 H 0.96652 0.6189 0.03123 0.0
H850 H 0.97328 0.66401 0.00562 0.0
H851 H 0.02665 0.66382 0.97837 0.0
H852 H 0.77477 0.38657 0.09237 0.0
H853 H 0.70236 0.38382 0.07992 0.0
H854 H 0.74727 0.38047 0.01732 0.0
H855 H 0.81919 0.38274 0.02962 0.0
H856 H 0.65785 0.40298 0.0545 0.0
H857 H 0.66898 0.3423 0.01952 0.0
H858 H 0.70874 0.34997 0.0368 0.0
H859 H 0.70973 0.35517 0.00962 0.0
C860 C 0.7691 0.38509 0.07598 0.0
C861 C 0.80262 0.38475 0.06197 0.0
C862 C 0.72779 0.3835 0.06891 0.0
C863 C 0.71945 0.38153 0.04775 0.0
C864 C 0.75295 0.38142 0.03378 0.0
H865 H 0.53389 0.41316 0.96668 0.0
H866 H 0.58484 0.40985 0.99444 0.0
C867 C 0.7941 0.38287 0.04083 0.0
C868 C 0.67586 0.38062 0.03981 0.0
H869 H 0.61592 0.36041 0.00473 0.0
C870 C 0.64827 0.39348 0.04397 0.0
C871 C 0.66268 0.36798 0.0266 0.0
C872 C 0.68899 0.35299 0.0231 0.0
C873 C 0.6094 0.39476 0.03383 0.0
C874 C 0.59851 0.38314 0.01873 0.0
C875 C 0.62447 0.36953 0.01599 0.0
C876 C 0.56352 0.38581 0.00387 0.0
C877 C 0.58096 0.40878 0.0391 0.0
C878 C 0.53466 0.37334 0.99963 0.0
C879 C 0.50602 0.37504 0.98329 0.0
C880 C 0.5059 0.38924 0.97085 0.0
C881 C 0.53354 0.40197 0.97577 0.0
C882 C 0.56227 0.40021 0.99192 0.0
H883 H 0.58447 0.41207 0.05562 0.0
H884 H 0.58984 0.41964 0.0297 0.0
H885 H 0.54757 0.40585 0.036 0.0
H886 H 0.53527 0.36205 0.00852 0.0
H887 H 0.48542 0.36495 0.97981 0.0
H888 H 0.19743 0.39342 0.46349 0.0
H889 H 0.26857 0.3921 0.47676 0.0
H890 H 0.31619 0.40604 0.41677 0.0
H891 H 0.24414 0.40804 0.40343 0.0
H892 H 0.33319 0.37364 0.46677 0.0
H893 H 0.37363 0.43886 0.45273 0.0
H894 H 0.32094 0.43129 0.44988 0.0
H895 H 0.35933 0.42738 0.43033 0.0
C896 C 0.22291 0.39621 0.45302 0.0
C897 C 0.21509 0.40092 0.4324 0.0
C898 C 0.26369 0.39541 0.46066 0.0
C899 C 0.29782 0.39913 0.44786 0.0
C900 C 0.29034 0.40346 0.42707 0.0
H901 H 0.53041 0.37977 0.51883 0.0
H902 H 0.48419 0.37933 0.48856 0.0
C903 C 0.2492 0.40451 0.41944 0.0
C904 C 0.34068 0.39861 0.4569 0.0
H905 H 0.42226 0.42297 0.47118 0.0
C906 C 0.35304 0.38436 0.46753 0.0
C907 C 0.36652 0.41261 0.45779 0.0
C908 C 0.35448 0.42846 0.44722 0.0
C909 C 0.38858 0.38406 0.48037 0.0
C910 C 0.41362 0.39826 0.48191 0.0
C911 C 0.40305 0.41212 0.46998 0.0
C912 C 0.44654 0.39984 0.4981 0.0
C913 C 0.39687 0.36894 0.49334 0.0
C914 C 0.4427 0.41219 0.51277 0.0
C915 C 0.46981 0.4128 0.52968 0.0
C916 C 0.50111 0.4009 0.53257 0.0
C917 C 0.50659 0.3891 0.5172 0.0
C918 C 0.47978 0.38868 0.5 0.0
H919 H 0.36972 0.36046 0.49341 0.0
H920 H 0.42411 0.36232 0.48696 0.0
H921 H 0.40417 0.37217 0.50957 0.0
H922 H 0.41761 0.42106 0.51159 0.0
H923 H 0.46546 0.4224 0.5408 0.0
H924 H 0.30576 0.64645 0.47664 0.0
H925 H 0.23454 0.64672 0.49026 0.0
H926 H 0.18596 0.63333 0.43053 0.0
H927 H 0.2574 0.63303 0.41668 0.0
H928 H 0.14131 0.6597 0.45185 0.0
H929 H 0.16492 0.60404 0.50011 0.0
H930 H 0.20523 0.61912 0.50317 0.0
H931 H 0.19854 0.60933 0.47867 0.0
C932 C 0.27997 0.64365 0.46634 0.0
C933 C 0.28716 0.63964 0.44562 0.0
C934 C 0.23935 0.64375 0.47417 0.0
C935 C 0.20522 0.63982 0.46145 0.0
C936 C 0.21203 0.6363 0.44058 0.0
H937 H 0.97102 0.62174 0.52723 0.0
H938 H 0.0235 0.61953 0.49993 0.0
C939 C 0.25279 0.63614 0.43273 0.0
C940 C 0.16264 0.63924 0.47026 0.0
H941 H 0.10619 0.62073 0.50847 0.0
C942 C 0.13324 0.65104 0.46401 0.0
C943 C 0.15202 0.62771 0.48577 0.0
C944 C 0.18166 0.61422 0.49222 0.0
C945 C 0.09428 0.65224 0.47387 0.0
C946 C 0.08498 0.64149 0.49051 0.0
C947 C 0.11342 0.62905 0.49581 0.0
C948 C 0.04827 0.64384 0.50406 0.0
C949 C 0.06381 0.66518 0.46664 0.0
C950 C 0.04423 0.65835 0.51512 0.0
C951 C 0.01423 0.65967 0.53061 0.0
C952 C 0.98792 0.64644 0.53549 0.0
C953 C 0.99055 0.6322 0.52369 0.0
C954 C 0.02063 0.63089 0.50816 0.0
H955 H 0.06855 0.66829 0.45005 0.0
H956 H 0.03088 0.6612 0.46889 0.0
H957 H 0.06906 0.67642 0.47565 0.0
H958 H 0.06576 0.66837 0.51255 0.0
H959 H 0.01269 0.67083 0.53934 0.0
H960 H 0.27556 0.38334 0.91744 0.0
H961 H 0.21306 0.38016 0.9391 0.0
H962 H 0.2491 0.42256 0.97367 0.0
H963 H 0.311 0.42591 0.95214 0.0
H964 H 0.21209 0.37548 0.98251 0.0
H965 H 0.12602 0.43153 0.95966 0.0
H966 H 0.16814 0.42333 0.94442 0.0
H967 H 0.17945 0.43544 0.96676 0.0
C968 C 0.26979 0.39212 0.92945 0.0
C969 C 0.29821 0.4049 0.93303 0.0
C970 C 0.23419 0.39025 0.94185 0.0
C971 C 0.2262 0.40125 0.95782 0.0
C972 C 0.25422 0.41412 0.96119 0.0
H973 H 0.06898 0.4166 0.06166 0.0
H974 H 0.12248 0.41596 0.03486 0.0
C975 C 0.28976 0.41596 0.94892 0.0
C976 C 0.18998 0.39892 0.97181 0.0
H977 H 0.10557 0.4188 0.99162 0.0
C978 C 0.18835 0.38481 0.9843 0.0
C979 C 0.15908 0.41111 0.97408 0.0
C980 C 0.15792 0.42613 0.96037 0.0
C981 C 0.15783 0.38295 0.99975 0.0
C982 C 0.128 0.39546 1.00256 0.0
C983 C 0.12873 0.40929 0.98955 0.0
C984 C 0.09689 0.39489 0.01949 0.0
C985 C 0.1588 0.36798 0.01355 0.0
C986 C 0.06496 0.38313 0.01986 0.0
C987 C 0.03424 0.38344 0.03522 0.0
C988 C 0.03486 0.39558 0.05042 0.0
C989 C 0.06751 0.40708 0.05023 0.0
C990 C 0.09809 0.40677 0.03488 0.0
H991 H 0.18838 0.36099 0.01191 0.0
H992 H 0.15513 0.37139 0.03 0.0
H993 H 0.13232 0.35987 0.00941 0.0
H994 H 0.06315 0.37399 0.00795 0.0
H995 H 0.00943 0.37444 0.03487 0.0
H996 H 0.21982 0.6695 0.9419 0.0
H997 H 0.27766 0.66368 0.96558 0.0
H998 H 0.29065 0.61572 0.93985 0.0
H999 H 0.23247 0.62147 0.91587 0.0
H1000 H 0.27766 0.63795 0.99523 0.0
H1001 H 0.41217 0.63393 0.94118 0.0
H1002 H 0.3633 0.64363 0.93402 0.0
H1003 H 0.36698 0.6218 0.93499 0.0
C1004 C 0.23522 0.65776 0.94103 0.0
C1005 C 0.22142 0.64594 0.92698 0.0
C1006 C 0.26828 0.65446 0.95464 0.0
C1007 C 0.28852 0.6393 0.95446 0.0
C1008 C 0.27578 0.62758 0.94007 0.0
H1009 H 0.44623 0.60183 0.0555 0.0
H1010 H 0.39066 0.60562 0.02966 0.0
C1011 C 0.24253 0.63089 0.92638 0.0
C1012 C 0.32133 0.63564 0.97019 0.0
H1013 H 0.42597 0.62829 0.97648 0.0
C1014 C 0.31007 0.63576 0.99114 0.0
C1015 C 0.36359 0.63292 0.96479 0.0
C1016 C 0.37755 0.63316 0.94255 0.0
C1017 C 0.33997 0.63332 0.00688 0.0
C1018 C 0.38221 0.63054 1.0015 0.0
C1019 C 0.39349 0.63035 0.98054 0.0
C1020 C 0.41538 0.62831 0.01743 0.0
C1021 C 0.32637 0.63419 0.02914 0.0
C1022 C 0.4478 0.63977 0.01907 0.0
C1023 C 0.47953 0.63768 0.03384 0.0
C1024 C 0.47969 0.62398 0.04718 0.0
C1025 C 0.44697 0.61256 0.04557 0.0
C1026 C 0.41515 0.6147 0.03082 0.0
H1027 H 0.29484 0.63977 0.03066 0.0
H1028 H 0.32513 0.62168 0.03585 0.0
H1029 H 0.34912 0.64136 0.03836 0.0
H1030 H 0.44854 0.65036 0.00889 0.0
H1031 H 0.50427 0.64669 0.03457 0.0
H1032 H 0.49228 0.65328 0.46879 0.0
H1033 H 0.54753 0.65736 0.49454 0.0
H1034 H 0.61129 0.61446 0.47321 0.0
H1035 H 0.55632 0.6103 0.44731 0.0
H1036 H 0.57289 0.6351 0.52668 0.0
H1037 H 0.70285 0.65012 0.47285 0.0
H1038 H 0.64851 0.65082 0.46502 0.0
H1039 H 0.67512 0.63159 0.46741 0.0
C1040 C 0.51824 0.64478 0.46941 0.0
C1041 C 0.51989 0.63148 0.4559 0.0
C1042 C 0.5497 0.6471 0.48422 0.0
C1043 C 0.58363 0.63627 0.48572 0.0
C1044 C 0.58565 0.62308 0.47215 0.0
H1045 H 0.76584 0.62766 0.58734 0.0
H1046 H 0.70776 0.62259 0.56325 0.0
C1047 C 0.55414 0.62072 0.45736 0.0
C1048 C 0.61648 0.63864 0.50174 0.0
H1049 H 0.72047 0.64698 0.50822 0.0
C1050 C 0.60518 0.63768 0.52268 0.0
C1051 C 0.6585 0.64212 0.49645 0.0
C1052 C 0.6721 0.64387 0.47423 0.0
C1053 C 0.63488 0.64006 0.5385 0.0
C1054 C 0.67698 0.64336 0.5332 0.0
C1055 C 0.68821 0.64434 0.51225 0.0
C1056 C 0.70971 0.64661 0.54903 0.0
C1057 C 0.62083 0.63942 0.56072 0.0
C1058 C 0.72991 0.66178 0.54911 0.0
C1059 C 0.76296 0.6647 0.56277 0.0
C1060 C 0.77681 0.65246 0.57664 0.0
C1061 C 0.75575 0.63738 0.57699 0.0
C1062 C 0.72253 0.63447 0.56324 0.0
H1063 H 0.5862 0.64013 0.56206 0.0
H1064 H 0.63133 0.62775 0.56792 0.0
H1065 H 0.63499 0.64954 0.5696 0.0
H1066 H 0.7205 0.67133 0.53832 0.0
H1067 H 0.77832 0.67647 0.5621 0.0
H1068 H 0.03219 0.41372 0.49656 0.0
H1069 H 0.97456 0.41677 0.52117 0.0
H1070 H 0.89134 0.39215 0.47905 0.0
H1071 H 0.94804 0.38979 0.45418 0.0
H1072 H 0.85504 0.41796 0.49285 0.0
H1073 H 0.92291 0.38439 0.55995 0.0
H1074 H 0.95491 0.40112 0.55143 0.0
H1075 H 0.94638 0.38408 0.53466 0.0
C1076 C 1.00159 0.40891 0.49266 0.0
C1077 C 0.99453 0.40156 0.47346 0.0
C1078 C 0.96876 0.41053 0.5068 0.0
C1079 C 0.92865 0.40445 0.50215 0.0
C1080 C 0.92191 0.39695 0.48303 0.0
H1081 H 0.7183 0.38732 0.58383 0.0
H1082 H 0.7832 0.38568 0.5639 0.0
C1083 C 0.95438 0.39561 0.46881 0.0
C1084 C 0.8929 0.40651 0.51656 0.0
H1085 H 0.85937 0.39871 0.56581 0.0
C1086 C 0.85604 0.4137 0.5088 0.0
C1087 C 0.89392 0.4008 0.53732 0.0
C1088 C 0.93149 0.39202 0.5463 0.0
C1089 C 0.82015 0.41522 0.52103 0.0
C1090 C 0.82157 0.41003 0.542 0.0
C1091 C 0.85845 0.40288 0.54984 0.0
C1092 C 0.7845 0.41136 0.5557 0.0
C1093 C 0.78065 0.4218 0.51105 0.0
C1094 C 0.76438 0.42642 0.55834 0.0
C1095 C 0.72693 0.42731 0.56935 0.0
C1096 C 0.70952 0.41324 0.57845 0.0
C1097 C 0.73104 0.39836 0.57697 0.0
C1098 C 0.76811 0.39741 0.56559 0.0
H1099 H 0.78126 0.42052 0.49397 0.0
H1100 H 0.75244 0.41543 0.51704 0.0
H1101 H 0.77775 0.43498 0.51443 0.0
H1102 H 0.77714 0.43744 0.55148 0.0
H1103 H 0.71132 0.43898 0.57055 0.0
H1104 H 0.20681 0.07844 0.08396 0.0
H1105 H 0.24975 0.0538 0.08646 0.0
H1106 H 0.15808 0.02767 0.05064 0.0
H1107 H 0.1149 0.05226 0.04811 0.0
H1108 H 0.23306 0.02256 0.10231 0.0
H1109 H 0.26612 0.02083 0.01823 0.0
H1110 H 0.24374 0.03844 0.03044 0.0
H1111 H 0.21134 0.02121 0.02434 0.0
C1112 C 0.19547 0.06743 0.07681 0.0
C1113 C 0.15743 0.06739 0.0657 0.0
C1114 C 0.22019 0.05335 0.07819 0.0
C1115 C 0.20749 0.03896 0.06845 0.0
C1116 C 0.169 0.03874 0.05788 0.0
H1117 H 0.3122 0.94119 0.08542 0.0
H1118 H 0.26849 0.96567 0.08696 0.0
C1119 C 0.14433 0.05281 0.05644 0.0
C1120 C 0.23478 0.02426 0.06909 0.0
H1121 H 0.2882 0.99799 0.03828 0.0
C1122 C 0.2452 0.01719 0.08833 0.0
C1123 C 0.25107 0.0174 0.05085 0.0
C1124 C 0.24289 0.02492 0.02979 0.0
C1125 C 0.27099 1.0033 0.08979 0.0
C1126 C 0.28628 0.99617 0.0715 0.0
C1127 C 0.27622 1.00337 0.05229 0.0
C1128 C 0.31354 0.98145 0.0718 0.0
C1129 C 0.28233 0.99661 0.11091 0.0
C1130 C 0.35324 0.98208 0.0626 0.0
C1131 C 0.37817 0.96811 0.06163 0.0
C1132 C 0.36397 0.95313 0.06978 0.0
C1133 C 0.32443 0.95256 0.07931 0.0
C1134 C 0.29938 0.96656 0.0802 0.0
H1135 H 0.2775 1.00579 0.12315 0.0
H1136 H 0.2621 0.98595 0.11449 0.0
H1137 H 0.31547 0.99251 0.11144 0.0
H1138 H 0.36486 0.99341 0.05602 0.0
H1139 H 0.4086 0.96901 0.0544 0.0
H1140 H 0.67438 0.94907 0.45737 0.0
H1141 H 0.7192 0.97312 0.46016 0.0
H1142 H 0.6385 0.99939 0.41779 0.0
H1143 H 0.59382 0.97546 0.41469 0.0
H1144 H 0.76266 0.99 0.4289 0.0
H1145 H 0.64753 0.03053 0.46647 0.0
H1146 H 0.6404 1.00873 0.46508 0.0
H1147 H 0.62867 0.02154 0.44304 0.0
C1148 C 0.66604 0.95991 0.44859 0.0
C1149 C 0.63002 0.96024 0.43591 0.0
C1150 C 0.69173 0.9737 0.45028 0.0
C1151 C 0.68187 0.98817 0.43947 0.0
C1152 C 0.64622 0.98852 0.4267 0.0
H1153 H 0.79319 0.0841 0.42398 0.0
H1154 H 0.7503 0.05948 0.42222 0.0
C1155 C 0.62058 0.97476 0.42497 0.0
C1156 C 0.70942 1.00276 0.44101 0.0
H1157 H 0.70985 0.04303 0.45403 0.0
C1158 C 0.75123 1.00157 0.43454 0.0
C1159 C 0.69446 0.01787 0.44831 0.0
C1160 C 0.65043 0.01977 0.4563 0.0
C1161 C 0.77814 1.01516 0.43468 0.0
C1162 C 0.76309 0.0303 0.44186 0.0
C1163 C 0.72136 0.03145 0.44846 0.0
C1164 C 0.79002 0.04512 0.44261 0.0
C1165 C 0.82211 1.01328 0.42659 0.0
C1166 C 0.82655 0.04534 0.45478 0.0
C1167 C 0.85138 0.05939 0.45571 0.0
C1168 C 0.84015 0.07361 0.44457 0.0
C1169 C 0.80336 0.07336 0.43247 0.0
C1170 C 0.77854 0.0593 0.43157 0.0
H1171 H 0.82515 1.00238 0.4167 0.0
H1172 H 0.83175 0.02422 0.4175 0.0
H1173 H 0.84408 1.01181 0.43982 0.0
H1174 H 0.83568 0.03467 0.46376 0.0
H1175 H 0.87953 0.05908 0.46508 0.0
H1176 H 0.60487 0.05814 0.88713 0.0
H1177 H 0.64866 0.03371 0.88616 0.0
H1178 H 0.75361 0.06287 0.86612 0.0
H1179 H 0.71007 0.08736 0.86712 0.0
H1180 H 0.69196 0.01958 0.85436 0.0
H1181 H 0.80178 0.03889 0.91615 0.0
H1182 H 0.75279 0.0492 0.91111 0.0
H1183 H 0.7975 0.05319 0.89501 0.0
C1184 C 0.63716 0.05936 0.88235 0.0
C1185 C 0.65398 0.07476 0.87735 0.0
C1186 C 0.66222 0.04538 0.88188 0.0
C1187 C 0.70463 0.04649 0.87644 0.0
C1188 C 0.72126 0.06177 0.87089 0.0
H1189 H 0.9056 0.97534 0.86728 0.0
H1190 H 0.86165 0.9997 0.86499 0.0
C1191 C 0.69628 0.07578 0.87145 0.0
C1192 C 0.73133 0.03164 0.87655 0.0
H1193 H 0.81939 1.01483 0.89822 0.0
C1194 C 0.71976 0.01852 0.86399 0.0
C1195 C 0.76758 0.03025 0.88916 0.0
C1196 C 0.78052 0.04356 0.90377 0.0
C1197 C 0.74375 1.00416 0.86348 0.0
C1198 C 0.78 1.00281 0.87604 0.0
C1199 C 0.79167 0.01593 0.88854 0.0
C1200 C 0.80601 0.98781 0.87671 0.0
C1201 C 0.73051 0.99065 0.84926 0.0
C1202 C 0.78938 0.97304 0.88417 0.0
C1203 C 0.81451 0.95909 0.88565 0.0
C1204 C 0.85691 0.95964 0.87977 0.0
C1205 C 0.87331 0.97447 0.87216 0.0
C1206 C 0.84817 0.98841 0.87074 0.0
H1207 H 0.7084 0.99506 0.8371 0.0
H1208 H 0.75812 0.98511 0.84168 0.0
H1209 H 0.71454 0.98098 0.85841 0.0
H1210 H 0.75715 0.97238 0.88927 0.0
H1211 H 0.80094 0.94802 0.89195 0.0
H1212 H 0.10955 0.9771 0.59474 0.0
H1213 H 0.15462 1.00114 0.59518 0.0
H1214 H 0.2239 0.98049 0.64667 0.0
H1215 H 0.17966 0.95603 0.64559 0.0
H1216 H 0.16671 0.02341 0.62239 0.0
H1217 H 0.31858 0.99249 0.60985 0.0
H1218 H 0.26919 0.98203 0.60746 0.0
H1219 H 0.2923 0.98514 0.63256 0.0
C1220 C 0.13436 0.97772 0.60617 0.0
C1221 C 0.14116 0.96472 0.62014 0.0
C1222 C 0.1602 0.99144 0.6064 0.0
C1223 C 0.1932 0.99259 0.62074 0.0
C1224 C 0.19952 0.97974 0.63503 0.0
H1225 H 0.31186 0.08734 0.643 0.0
H1226 H 0.26955 0.0625 0.64588 0.0
C1227 C 0.17409 0.96582 0.63454 0.0
C1228 C 0.22012 1.00743 0.62081 0.0
H1229 H 0.32153 0.02058 0.61815 0.0
C1230 C 0.20058 0.02277 0.6214 0.0
C1231 C 0.26432 1.00667 0.61923 0.0
C1232 C 0.28732 0.99071 0.61702 0.0
C1233 C 0.22376 0.03731 0.62031 0.0
C1234 C 0.26806 0.03654 0.61948 0.0
C1235 C 0.28764 0.02121 0.619 0.0
C1236 C 0.29461 0.05146 0.61831 0.0
C1237 C 0.20027 0.05327 0.61926 0.0
C1238 C 0.32415 0.0533 0.60241 0.0
C1239 C 0.34905 0.0673 0.60109 0.0
C1240 C 0.34459 0.07984 0.61549 0.0
C1241 C 0.31534 0.07797 0.63149 0.0
C1242 C 0.29102 0.06381 0.63307 0.0
H1243 H 0.16768 0.05159 0.61356 0.0
H1244 H 0.19847 0.05846 0.63498 0.0
H1245 H 0.21618 0.06222 0.60894 0.0
H1246 H 0.32766 0.04396 0.59085 0.0
H1247 H 0.37122 0.06848 0.58855 0.0
H1248 H 0.85386 0.45061 0.10183 0.0
H1249 H 0.80994 0.47502 0.10492 0.0
H1250 H 0.81018 0.48119 0.03865 0.0
H1251 H 0.85344 0.45694 0.0354 0.0
H1252 H 0.82873 0.50974 0.05971 0.0
H1253 H 0.68478 0.4801 0.09033 0.0
H1254 H 0.73224 0.47591 0.1045 0.0
H1255 H 0.72653 0.4687 0.07855 0.0
C1256 C 0.8442 0.45708 0.08792 0.0
C1257 C 0.85746 0.45181 0.06838 0.0
C1258 C 0.81907 0.47102 0.08971 0.0
C1259 C 0.80652 0.47986 0.07199 0.0
C1260 C 0.81959 0.4746 0.05253 0.0
H1261 H 0.61561 0.55175 0.048 0.0
H1262 H 0.65891 0.52727 0.05161 0.0
C1263 C 0.84462 0.46074 0.05073 0.0
C1264 C 0.78061 0.49485 0.07349 0.0
H1265 H 0.68358 0.50879 0.0867 0.0
C1266 C 0.79709 0.50957 0.06574 0.0
C1267 C 0.73918 0.49455 0.08116 0.0
C1268 C 0.71934 0.47897 0.08897 0.0
C1269 C 0.77318 0.52394 0.06524 0.0
C1270 C 0.73181 0.52367 0.073 0.0
C1271 C 0.7154 0.50899 0.08092 0.0
C1272 C 0.70444 0.53832 0.07196 0.0
C1273 C 0.79192 0.53917 0.05573 0.0
C1274 C 0.71517 0.55258 0.08253 0.0
C1275 C 0.69061 0.56664 0.08037 0.0
C1276 C 0.65469 0.56672 0.06764 0.0
C1277 C 0.64338 0.55222 0.05763 0.0
C1278 C 0.66793 0.53817 0.05981 0.0
H1279 H 0.82012 0.53644 0.04639 0.0
H1280 H 0.7687 0.54557 0.04569 0.0
H1281 H 0.80136 0.54758 0.06821 0.0
H1282 H 0.74288 0.55289 0.09224 0.0
H1283 H 0.70054 0.57756 0.08821 0.0
H1284 H 0.32619 0.57563 0.4107 0.0
H1285 H 0.28072 0.55177 0.40917 0.0
H1286 H 0.30615 0.54124 0.47346 0.0
H1287 H 0.34978 0.56546 0.47551 0.0
H1288 H 0.29692 0.51997 0.41521 0.0
H1289 H 0.18053 0.5395 0.47317 0.0
H1290 H 0.21941 0.55321 0.46267 0.0
H1291 H 0.23302 0.53909 0.48316 0.0
C1292 C 0.32169 0.56846 0.42466 0.0
C1293 C 0.34159 0.57278 0.4433 0.0
C1294 C 0.29584 0.55469 0.42369 0.0
C1295 C 0.28922 0.54484 0.4413 0.0
C1296 C 0.30977 0.54885 0.45978 0.0
H1297 H 0.15768 0.45227 0.46035 0.0
H1298 H 0.20409 0.47599 0.46352 0.0
C1299 C 0.33534 0.56268 0.46083 0.0
C1300 C 0.26159 0.53021 0.44018 0.0
H1301 H 0.17561 0.51204 0.46194 0.0
C1302 C 0.27032 0.5183 0.42538 0.0
C1303 C 0.22674 0.52798 0.45344 0.0
C1304 C 0.21406 0.5407 0.46886 0.0
C1305 C 0.24551 0.50421 0.42363 0.0
C1306 C 0.21102 0.50196 0.43697 0.0
C1307 C 0.20231 0.51377 0.45183 0.0
C1308 C 0.18279 0.48765 0.43521 0.0
C1309 C 0.25644 0.49171 0.40762 0.0
C1310 C 0.15519 0.48646 0.41837 0.0
C1311 C 0.12856 0.47301 0.41658 0.0
C1312 C 0.12907 0.46039 0.43154 0.0
C1313 C 0.15672 0.46167 0.44847 0.0
C1314 C 0.18312 0.47524 0.45035 0.0
H1315 H 0.28794 0.49387 0.40089 0.0
H1316 H 0.25554 0.47924 0.4145 0.0
H1317 H 0.23295 0.49224 0.39493 0.0
H1318 H 0.1543 0.49596 0.40658 0.0
H1319 H 0.10812 0.47234 0.40322 0.0
H1320 H 0.30276 0.44768 0.87394 0.0
H1321 H 0.25947 0.47226 0.87398 0.0
H1322 H 0.36574 0.5005 0.89391 0.0
H1323 H 0.40915 0.47602 0.89419 0.0
H1324 H 0.24258 0.4928 0.90749 0.0
H1325 H 0.32159 0.52676 0.84398 0.0
H1326 H 0.32892 0.50515 0.84832 0.0
H1327 H 0.35622 0.51961 0.8641 0.0
C1328 C 0.31704 0.45907 0.87838 0.0
C1329 C 0.3597 0.45978 0.88398 0.0
C1330 C 0.29221 0.47315 0.8783 0.0
C1331 C 0.30949 0.48826 0.88365 0.0
C1332 C 0.35194 0.48904 0.88926 0.0
H1333 H 0.21393 0.58662 0.89831 0.0
H1334 H 0.25678 0.56194 0.89668 0.0
C1335 C 0.37678 0.47499 0.88938 0.0
C1336 C 0.28281 0.5031 0.88413 0.0
H1337 H 0.27197 0.54149 0.86362 0.0
C1338 C 0.24881 0.50341 0.8978 0.0
C1339 C 0.29111 0.51696 0.87156 0.0
C1340 C 0.3262 0.51712 0.85602 0.0
C1341 C 0.22341 0.51732 0.89956 0.0
C1342 C 0.23173 0.5312 0.88699 0.0
C1343 C 0.26566 0.53087 0.87327 0.0
C1344 C 0.20557 0.54618 0.88783 0.0
C1345 C 0.18859 0.51718 0.91525 0.0
C1346 C 0.16264 0.54561 0.8831 0.0
C1347 C 0.13807 0.5597 0.88398 0.0
C1348 C 0.15596 0.57474 0.88944 0.0
C1349 C 0.19915 0.57532 0.89387 0.0
C1350 C 0.22368 0.56119 0.89303 0.0
H1351 H 0.19345 0.50757 0.92729 0.0
H1352 H 0.18596 0.52916 0.92294 0.0
H1353 H 0.15844 0.51464 0.90731 0.0
H1354 H 0.14815 0.53426 0.87854 0.0
H1355 H 0.10516 0.55885 0.88008 0.0
H1356 H 0.79297 0.59118 0.6334 0.0
H1357 H 0.7507 0.56646 0.63641 0.0
H1358 H 0.84259 0.54005 0.60158 0.0
H1359 H 0.88477 0.56474 0.59809 0.0
H1360 H 0.71764 0.54701 0.60342 0.0
H1361 H 0.82583 0.51191 0.6547 0.0
H1362 H 0.82945 0.53375 0.6513 0.0
H1363 H 0.84917 0.52045 0.63177 0.0
C1364 C 0.8042 0.5802 0.62621 0.0
C1365 C 0.84255 0.58005 0.61554 0.0
C1366 C 0.78003 0.56603 0.62808 0.0
C1367 C 0.79382 0.55138 0.61949 0.0
C1368 C 0.8318 0.55116 0.6087 0.0
H1369 H 0.69607 0.45321 0.61046 0.0
H1370 H 0.73879 0.47795 0.61017 0.0
C1371 C 0.85593 0.56532 0.60675 0.0
C1372 C 0.7679 0.53642 0.62133 0.0
H1373 H 0.76749 0.49762 0.64118 0.0
C1374 C 0.72837 0.53623 0.61177 0.0
C1375 C 0.78212 0.52237 0.63216 0.0
C1376 C 0.82382 0.52208 0.64324 0.0
C1377 C 0.70299 0.52224 0.61235 0.0
C1378 C 0.71712 0.50818 0.62325 0.0
C1379 C 0.75664 0.5084 0.63288 0.0
C1380 C 0.69172 0.49301 0.62446 0.0
C1381 C 0.66186 0.52251 0.60075 0.0
C1382 C 0.65143 0.49313 0.63308 0.0
C1383 C 0.6269 0.47899 0.63324 0.0
C1384 C 0.64239 0.4644 0.62505 0.0
C1385 C 0.68335 0.46418 0.61711 0.0
C1386 C 0.70774 0.47835 0.61683 0.0
H1387 H 0.66098 0.53236 0.58881 0.0
H1388 H 0.65593 0.51068 0.59311 0.0
H1389 H 0.63604 0.52474 0.61178 0.0
H1390 H 0.63882 0.50419 0.63957 0.0
H1391 H 0.59576 0.47948 0.63975 0.0
H1392 H 0.9507 0.31659 0.11662 0.0
H1393 H 0.97472 0.28905 0.10969 0.0
H1394 H 0.97207 0.29943 0.04419 0.0
H1395 H 0.94744 0.32725 0.05106 0.0
H1396 H 0.93002 0.26579 0.08529 0.0
H1397 H 0.08997 0.27889 0.0551 0.0
H1398 H 0.06114 0.29358 0.06997 0.0
H1399 H 0.04645 0.28976 0.04369 0.0
C1400 C 0.95501 0.31307 0.10071 0.0
C1401 C 0.94667 0.32409 0.08437 0.0
C1402 C 0.96897 0.29732 0.09679 0.0
C1403 C 0.97521 0.29219 0.07645 0.0
C1404 C 0.96787 0.30321 0.06002 0.0
H1405 H 0.0682 0.1927 0.05073 0.0
H1406 H 0.0384 0.21997 0.04419 0.0
C1407 C 0.95385 0.31908 0.06396 0.0
C1408 C 0.98792 0.27508 0.0729 0.0
H1409 H 0.07175 0.25135 0.06029 0.0
C1410 C 0.96077 0.26262 0.07951 0.0
C1411 C 0.02792 0.27098 0.06522 0.0
C1412 C 0.05833 0.28394 0.05815 0.0
C1413 C 0.97324 0.24623 0.07956 0.0
C1414 C 0.01411 0.24221 0.07306 0.0
C1415 C 0.04045 0.25452 0.06529 0.0
C1416 C 0.03146 0.22564 0.07655 0.0
C1417 C 0.94305 0.23337 0.08717 0.0
C1418 C 0.0376 0.21992 0.09685 0.0
C1419 C 0.05459 0.2045 0.1006 0.0
C1420 C 0.06586 0.19442 0.08411 0.0
C1421 C 0.05948 0.20013 0.06372 0.0
C1422 C 0.04271 0.2157 0.05997 0.0
H1423 H 0.91007 0.23763 0.08604 0.0
H1424 H 0.94632 0.22196 0.07825 0.0
H1425 H 0.94994 0.2305 0.10365 0.0
H1426 H 0.02949 0.22747 0.10986 0.0
H1427 H 0.0586 0.20041 0.11645 0.0
H1428 H 0.45068 0.81656 0.11559 0.0
H1429 H 0.47375 0.78894 0.10837 0.0
H1430 H 0.47222 0.79987 0.04299 0.0
H1431 H 0.44858 0.82778 0.05017 0.0
H1432 H 0.42857 0.76612 0.08371 0.0
H1433 H 0.58903 0.7785 0.05373 0.0
H1434 H 0.56066 0.79328 0.06867 0.0
H1435 H 0.54596 0.78965 0.04234 0.0
C1436 C 0.45505 0.81314 0.09965 0.0
C1437 C 0.44731 0.82435 0.08344 0.0
C1438 C 0.46846 0.79735 0.09555 0.0
C1439 C 0.47473 0.79234 0.07517 0.0
C1440 C 0.468 0.80354 0.05887 0.0
H1441 H 0.56518 0.69245 0.04896 0.0
H1442 H 0.53575 0.7198 0.04239 0.0
C1443 C 0.45454 0.81947 0.06298 0.0
C1444 C 0.48681 0.77517 0.07142 0.0
H1445 H 0.56977 0.75105 0.05861 0.0
C1446 C 0.4592 0.76282 0.0779 0.0
C1447 C 0.52665 0.77088 0.06371 0.0
C1448 C 0.55756 0.78371 0.05677 0.0
C1449 C 0.47108 0.74636 0.07779 0.0
C1450 C 0.5118 0.74214 0.07128 0.0
C1451 C 0.53858 0.75436 0.06362 0.0
C1452 C 0.52863 0.72547 0.07474 0.0
C1453 C 0.44041 0.73363 0.08529 0.0
C1454 C 0.53449 0.7197 0.09504 0.0
C1455 C 0.55127 0.70425 0.09879 0.0
C1456 C 0.56264 0.69417 0.08233 0.0
C1457 C 0.55639 0.69989 0.06193 0.0
C1458 C 0.53984 0.71551 0.05817 0.0
H1459 H 0.40758 0.73805 0.08412 0.0
H1460 H 0.44338 0.72223 0.07633 0.0
H1461 H 0.44706 0.73069 0.10178 0.0
H1462 H 0.52642 0.72726 0.10805 0.0
H1463 H 0.55517 0.70015 0.11465 0.0
H1464 H 0.55622 0.82187 0.46934 0.0
H1465 H 0.52725 0.79477 0.46354 0.0
H1466 H 0.50102 0.80788 0.40003 0.0
H1467 H 0.53081 0.83514 0.40572 0.0
H1468 H 0.44634 0.78508 0.44923 0.0
H1469 H 0.57403 0.76601 0.39656 0.0
H1470 H 0.57852 0.78359 0.41295 0.0
H1471 H 0.54752 0.78468 0.38975 0.0
C1472 C 0.54444 0.819 0.4541 0.0
C1473 C 0.54635 0.83059 0.4379 0.0
C1474 C 0.52763 0.80352 0.45086 0.0
C1475 C 0.51258 0.7992 0.43129 0.0
C1476 C 0.51307 0.81089 0.41519 0.0
H1477 H 0.42418 0.70708 0.38326 0.0
H1478 H 0.44702 0.73505 0.38828 0.0
C1479 C 0.52972 0.82649 0.41848 0.0
C1480 C 0.49727 0.78232 0.42789 0.0
H1481 H 0.51997 0.74704 0.40278 0.0
C1482 C 0.46233 0.77676 0.43904 0.0
C1483 C 0.51832 0.77147 0.41467 0.0
C1484 C 0.55689 0.77662 0.40288 0.0
C1485 C 0.44753 0.76069 0.43712 0.0
C1486 C 0.46888 0.74976 0.42407 0.0
C1487 C 0.5037 0.75538 0.41284 0.0
C1488 C 0.45504 0.73257 0.42139 0.0
C1489 C 0.40862 0.75571 0.44874 0.0
C1490 C 0.45255 0.72166 0.43829 0.0
C1491 C 0.43891 0.70557 0.4355 0.0
C1492 C 0.42774 0.70003 0.41572 0.0
C1493 C 0.43147 0.71092 0.3988 0.0
C1494 C 0.44491 0.72695 0.4016 0.0
H1495 H 0.38986 0.76646 0.45338 0.0
H1496 H 0.38851 0.74763 0.43927 0.0
H1497 H 0.41782 0.74894 0.46301 0.0
H1498 H 0.46117 0.72557 0.45365 0.0
H1499 H 0.43648 0.69759 0.44889 0.0
H1500 H 0.03278 0.33503 0.40631 0.0
H1501 H 0.00502 0.30744 0.40064 0.0
H1502 H 0.0217 0.29608 0.46541 0.0
H1503 H 0.04879 0.32348 0.47116 0.0
H1504 H 0.04983 0.27746 0.40996 0.0
H1505 H 0.90039 0.28128 0.45313 0.0
H1506 H 0.92871 0.29913 0.44442 0.0
H1507 H 0.9457 0.28811 0.46713 0.0
C1508 C 0.02981 0.32672 0.41936 0.0
C1509 C 0.04314 0.33141 0.43916 0.0
C1510 C 0.0142 0.31095 0.4161 0.0
C1511 C 0.01097 0.29975 0.43265 0.0
C1512 C 0.02338 0.30456 0.45247 0.0
H1513 H 0.93742 0.19795 0.44857 0.0
H1514 H 0.96194 0.22597 0.45352 0.0
C1515 C 0.03924 0.3202 0.45569 0.0
C1516 C 0.99686 0.28272 0.4292 0.0
H1517 H 0.92229 0.25484 0.44317 0.0
C1518 C 0.02175 0.27253 0.41706 0.0
C1519 C 0.96051 0.27627 0.43869 0.0
C1520 C 0.93202 0.28677 0.45145 0.0
C1521 C 0.01174 0.25598 0.41448 0.0
C1522 C 0.97526 0.24952 0.42391 0.0
C1523 C 0.95031 0.25975 0.43601 0.0
C1524 C 0.96181 0.23232 0.42094 0.0
C1525 C 0.04103 0.24548 0.40215 0.0
C1526 C 0.95343 0.22655 0.40103 0.0
C1527 C 0.93985 0.21054 0.39815 0.0
C1528 C 0.93369 0.1999 0.41514 0.0
C1529 C 0.9422 0.20569 0.43512 0.0
C1530 C 0.95594 0.22176 0.43798 0.0
H1531 H 0.07301 0.2508 0.40142 0.0
H1532 H 0.04325 0.23298 0.40885 0.0
H1533 H 0.02902 0.24458 0.38608 0.0
H1534 H 0.95691 0.23451 0.38766 0.0
H1535 H 0.93422 0.20655 0.38252 0.0
H1536 H 0.98283 0.83924 0.87428 0.0
H1537 H 0.0176 0.81262 0.87261 0.0
H1538 H 0.91691 0.7909 0.9076 0.0
H1539 H 0.88191 0.81734 0.90907 0.0
H1540 H 0.04637 0.79152 0.90246 0.0
H1541 H 0.91971 0.76205 0.8575 0.0
H1542 H 0.922 0.7838 0.86113 0.0
H1543 H 0.90153 0.77066 0.88117 0.0
C1544 C 0.96831 0.8288 0.88173 0.0
C1545 C 0.92937 0.83034 0.89159 0.0
C1546 C 0.9881 0.81359 0.8807 0.0
C1547 C 0.96935 0.79968 0.88954 0.0
C1548 C 0.93133 0.80134 0.9001 0.0
H1549 H 0.04038 0.69799 0.90459 0.0
H1550 H 0.00761 0.72485 0.90678 0.0
C1551 C 0.91141 0.81648 0.90098 0.0
C1552 C 0.98949 0.78342 0.8878 0.0
H1553 H 0.97248 0.7445 0.8714 0.0
C1554 C 0.03032 0.78127 0.89555 0.0
C1555 C 0.96856 0.77004 0.87871 0.0
C1556 C 0.92571 0.77176 0.86896 0.0
C1557 C 0.05039 0.76604 0.89486 0.0
C1558 C 0.02916 0.75265 0.88609 0.0
C1559 C 0.98849 0.75478 0.87825 0.0
C1560 C 0.04894 0.73637 0.88462 0.0
C1561 C 0.0939 0.76425 0.9038 0.0
C1562 C 0.08257 0.73392 0.87118 0.0
C1563 C 0.10105 0.71853 0.86965 0.0
C1564 C 0.08637 0.70525 0.8816 0.0
C1565 C 0.05232 0.70779 0.89495 0.0
C1566 C 0.03367 0.72318 0.89635 0.0
H1567 H 0.10285 0.77485 0.91339 0.0
H1568 H 0.09626 0.75297 0.91341 0.0
H1569 H 0.11676 0.76325 0.89101 0.0
H1570 H 0.09433 0.7439 0.86174 0.0
H1571 H 0.12658 0.71707 0.85891 0.0
H1572 H 0.63897 0.21695 0.90737 0.0
H1573 H 0.6041 0.24343 0.90837 0.0
H1574 H 0.49444 0.22264 0.87981 0.0
H1575 H 0.52919 0.19605 0.87882 0.0
H1576 H 0.57538 0.262 0.87589 0.0
H1577 H 0.44427 0.24639 0.92849 0.0
H1578 H 0.48925 0.23332 0.92547 0.0
H1579 H 0.44784 0.23334 0.90652 0.0
C1580 C 0.60742 0.21799 0.90131 0.0
C1581 C 0.5869 0.20435 0.89299 0.0
C1582 C 0.58747 0.23313 0.90196 0.0
C1583 C 0.54647 0.23501 0.89439 0.0
C1584 C 0.52573 0.22142 0.88618 0.0
H1585 H 0.37876 0.31642 0.8746 0.0
H1586 H 0.41422 0.29011 0.8759 0.0
C1587 C 0.54564 0.20622 0.8856 0.0
C1588 C 0.52627 0.25135 0.89435 0.0
H1589 H 0.44063 0.27217 0.91131 0.0
C1590 C 0.54606 0.26426 0.88376 0.0
C1591 C 0.48802 0.25428 0.90462 0.0
C1592 C 0.46625 0.24115 0.91709 0.0
C1593 C 0.5282 0.27991 0.88277 0.0
C1594 C 0.48978 0.28279 0.89288 0.0
C1595 C 0.47008 0.26993 0.90356 0.0
C1596 C 0.46887 0.29897 0.89211 0.0
C1597 C 0.55 0.29313 0.87046 0.0
C1598 C 0.48773 0.31273 0.9009 0.0
C1599 C 0.46734 0.32786 0.90031 0.0
C1600 C 0.42759 0.32949 0.89101 0.0
C1601 C 0.40897 0.31564 0.88219 0.0
C1602 C 0.4293 0.30055 0.88281 0.0
H1603 H 0.57395 0.28807 0.85992 0.0
H1604 H 0.52709 0.30034 0.86116 0.0
H1605 H 0.56599 0.30154 0.88124 0.0
H1606 H 0.51796 0.31171 0.90848 0.0
H1607 H 0.48236 0.33818 0.9075 0.0
H1608 H 0.37364 0.2215 0.64545 0.0
H1609 H 0.40502 0.24845 0.64195 0.0
H1610 H 0.49096 0.23011 0.5966 0.0
H1611 H 0.45834 0.20328 0.59916 0.0
H1612 H 0.48349 0.25844 0.64955 0.0
H1613 H 0.44586 0.26986 0.56687 0.0
H1614 H 0.42291 0.25328 0.58149 0.0
H1615 H 0.47494 0.25141 0.5712 0.0
C1616 C 0.39872 0.22318 0.63446 0.0
C1617 C 0.41304 0.21011 0.62246 0.0
C1618 C 0.41689 0.23863 0.6326 0.0
C1619 C 0.44984 0.24142 0.61873 0.0
C1620 C 0.46488 0.22838 0.60704 0.0
H1621 H 0.61671 0.32251 0.595 0.0
H1622 H 0.58064 0.29618 0.59651 0.0
C1623 C 0.44652 0.21293 0.60877 0.0
C1624 C 0.4691 0.25788 0.617 0.0
H1625 H 0.49299 0.28853 0.58271 0.0
C1626 C 0.48527 0.26506 0.63495 0.0
C1627 C 0.47133 0.26656 0.59795 0.0
C1628 C 0.45247 0.25997 0.57832 0.0
C1629 C 0.5043 0.28049 0.63431 0.0
C1630 C 0.50704 0.28901 0.61524 0.0
C1631 C 0.49082 0.28192 0.59729 0.0
C1632 C 0.5276 0.30516 0.61361 0.0
C1633 C 0.52217 0.28747 0.65394 0.0
C1634 C 0.50928 0.31898 0.62241 0.0
C1635 C 0.52977 0.33407 0.62151 0.0
C1636 C 0.56906 0.33554 0.61192 0.0
C1637 C 0.58679 0.32171 0.60274 0.0
C1638 C 0.56614 0.30669 0.60349 0.0
H1639 H 0.52369 0.27826 0.66666 0.0
H1640 H 0.55413 0.29236 0.65119 0.0
H1641 H 0.50215 0.29771 0.65902 0.0
H1642 H 0.47934 0.31805 0.63014 0.0
H1643 H 0.51546 0.34445 0.62884 0.0
H1644 H 0.97461 0.70154 0.62547 0.0
H1645 H 0.0072 0.72855 0.62347 0.0
H1646 H 0.88571 0.75047 0.61391 0.0
H1647 H 0.85301 0.72356 0.61621 0.0
H1648 H 0.0086 0.75124 0.59276 0.0
H1649 H 0.92984 0.77701 0.66123 0.0
H1650 H 0.92848 0.75554 0.65552 0.0
H1651 H 0.89385 0.7695 0.64222 0.0
C1652 C 0.95489 0.71211 0.62288 0.0
C1653 C 0.91119 0.71043 0.62118 0.0
C1654 C 0.97351 0.72755 0.62181 0.0
C1655 C 0.94883 0.74159 0.61897 0.0
C1656 C 0.9053 0.73989 0.61674 0.0
H1657 H 0.01452 0.84449 0.60227 0.0
H1658 H 0.97791 0.81826 0.60263 0.0
C1659 C 0.88665 0.72449 0.618 0.0
C1660 C 0.96873 0.75797 0.61802 0.0
H1661 H 0.96883 0.79554 0.64036 0.0
C1662 C 0.99996 0.7609 0.60321 0.0
C1663 C 0.95748 0.7706 0.63168 0.0
C1664 C 0.92588 0.76799 0.64869 0.0
C1665 C 0.01998 0.77611 0.6016 0.0
C1666 C 0.00857 0.78869 0.61518 0.0
C1667 C 0.97718 0.78587 0.62987 0.0
C1668 C 0.03045 0.80461 0.61502 0.0
C1669 C 0.05314 0.77869 0.58535 0.0
C1670 C 0.07183 0.80563 0.62215 0.0
C1671 C 0.09269 0.82059 0.62225 0.0
C1672 C 0.07269 0.83493 0.61509 0.0
C1673 C 0.03094 0.83383 0.60806 0.0
C1674 C 0.00997 0.81882 0.60814 0.0
H1675 H 0.05281 0.7689 0.57363 0.0
H1676 H 0.04872 0.79065 0.57738 0.0
H1677 H 0.08445 0.77877 0.59288 0.0
H1678 H 0.08793 0.79482 0.62782 0.0
H1679 H 0.12436 0.82086 0.6282 0.0
H1680 H 0.06199 0.0934 0.17189 0.0
H1681 H 0.04655 0.09265 0.20892 0.0
H1682 H 0.99948 0.14187 0.20495 0.0
H1683 H 0.01613 0.14295 0.16814 0.0
H1684 H 0.05502 0.13692 0.23757 0.0
H1685 H 0.9321 0.089 0.23678 0.0
H1686 H 0.98063 0.08325 0.22497 0.0
H1687 H 0.94959 0.09932 0.21357 0.0
C1688 C 0.0483 0.10406 0.17889 0.0
C1689 C 0.0401 0.11821 0.167 0.0
C1690 C 0.03915 0.10356 0.20002 0.0
C1691 C 0.02141 0.11714 0.20963 0.0
C1692 C 0.01295 0.13122 0.1978 0.0
H1693 H 0.90121 0.12561 0.32746 0.0
H1694 H 0.92057 0.12383 0.29114 0.0
C1695 C 0.0221 0.13175 0.1767 0.0
C1696 C 0.01285 0.11692 0.23214 0.0
H1697 H 0.9548 0.09802 0.2696 0.0
C1698 C 0.03317 0.1284 0.24461 0.0
C1699 C 0.98409 0.10587 0.24122 0.0
C1700 C 0.96001 0.09374 0.22846 0.0
C1701 C 0.0254 0.12917 0.26592 0.0
C1702 C 0.99706 0.11798 0.27505 0.0
C1703 C 0.97683 0.10647 0.26259 0.0
C1704 C 0.98593 0.11865 0.29725 0.0
C1705 C 0.04661 0.14227 0.27836 0.0
C1706 C 0.01623 0.11616 0.3128 0.0
C1707 C 0.0052 0.11712 0.33368 0.0
C1708 C 0.9636 0.12041 0.33935 0.0
C1709 C 0.93337 0.12274 0.32368 0.0
C1710 C 0.94441 0.12182 0.30289 0.0
H1711 H 0.05988 0.15205 0.26832 0.0
H1712 H 0.02432 0.14786 0.28933 0.0
H1713 H 0.07266 0.13677 0.28748 0.0
H1714 H 0.04833 0.11342 0.30878 0.0
H1715 H 0.02911 0.11513 0.34538 0.0
H1716 H 0.50564 0.86917 0.16806 0.0
H1717 H 0.52822 0.86804 0.2042 0.0
H1718 H 0.50072 0.91922 0.2102 0.0
H1719 H 0.47814 0.9205 0.17397 0.0
H1720 H 0.59065 0.88512 0.22543 0.0
H1721 H 0.4328 0.89808 0.25682 0.0
H1722 H 0.44107 0.89261 0.23021 0.0
H1723 H 0.45102 0.91309 0.23853 0.0
C1724 C 0.50486 0.88026 0.17697 0.0
C1725 C 0.49001 0.89494 0.16811 0.0
C1726 C 0.51762 0.87955 0.19766 0.0
C1727 C 0.51561 0.89348 0.20996 0.0
C1728 C 0.50172 0.90825 0.20108 0.0
H1729 H 0.56342 0.91632 0.33713 0.0
H1730 H 0.55211 0.91645 0.29979 0.0
C1731 C 0.48884 0.90896 0.18039 0.0
C1732 C 0.52745 0.89247 0.23215 0.0
H1733 H 0.48925 0.89792 0.28076 0.0
C1734 C 0.56849 0.88785 0.23756 0.0
C1735 C 0.49835 0.89589 0.24793 0.0
C1736 C 0.45323 0.90005 0.24316 0.0
C1737 C 0.58153 0.88704 0.25835 0.0
C1738 C 0.55259 0.89076 0.27407 0.0
C1739 C 0.51145 0.89515 0.26865 0.0
C1740 C 0.56426 0.89069 0.29629 0.0
C1741 C 0.62636 0.88265 0.26332 0.0
C1742 C 0.57563 0.87619 0.3067 0.0
C1743 C 0.58213 0.87608 0.32816 0.0
C1744 C 0.57688 0.89044 0.3395 0.0
C1745 C 0.56709 0.90502 0.32885 0.0
C1746 C 0.56074 0.90513 0.30751 0.0
H1747 H 0.64671 0.8835 0.24947 0.0
H1748 H 0.63919 0.89074 0.27545 0.0
H1749 H 0.62763 0.86992 0.26934 0.0
H1750 H 0.5779 0.86486 0.29837 0.0
H1751 H 0.58933 0.86466 0.33598 0.0
H1752 H 0.86913 0.89687 0.81995 0.0
H1753 H 0.89419 0.89656 0.78403 0.0
H1754 H 0.0212 0.89108 0.80602 0.0
H1755 H 0.99671 0.89111 0.84153 0.0
H1756 H 0.95077 0.91783 0.76486 0.0
H1757 H 0.01243 0.85473 0.76423 0.0
H1758 H 0.97749 0.86185 0.78403 0.0
H1759 H 0.0326 0.86638 0.78534 0.0
C1760 C 0.90231 0.89544 0.81706 0.0
C1761 C 0.93086 0.89392 0.83358 0.0
C1762 C 0.91659 0.89529 0.79657 0.0
C1763 C 0.95951 0.89349 0.79235 0.0
C1764 C 0.98789 0.89207 0.80886 0.0
H1765 H 0.12246 0.89828 0.68499 0.0
H1766 H 0.09317 0.89716 0.72009 0.0
C1767 C 0.97376 0.8922 0.82921 0.0
C1768 C 0.97536 0.89378 0.77082 0.0
H1769 H 0.03506 0.87242 0.7368 0.0
C1770 C 0.96879 0.90784 0.75863 0.0
C1771 C 0.99909 0.88075 0.76276 0.0
C1772 C 0.0055 0.86501 0.77469 0.0
C1773 C 0.98626 0.90939 0.73881 0.0
C1774 C 0.01057 0.89648 0.73093 0.0
C1775 C 0.01678 0.88236 0.743 0.0
C1776 C 0.02853 0.89719 0.70986 0.0
C1777 C 0.97941 0.92498 0.72662 0.0
C1778 C 1.00189 0.89736 0.69259 0.0
C1779 C 0.01843 0.89793 0.67267 0.0
C1780 C 0.06202 0.89833 0.66958 0.0
C1781 C 0.08878 0.89804 0.6869 0.0
C1782 C 0.07211 0.89739 0.70691 0.0
H1783 H 0.96835 0.93503 0.73656 0.0
H1784 H 0.00872 0.92888 0.71881 0.0
H1785 H 0.95533 0.92288 0.71451 0.0
H1786 H 0.96822 0.89696 0.69453 0.0
H1787 H 0.99689 0.89808 0.65968 0.0
H1788 H 0.63438 0.13691 0.81741 0.0
H1789 H 0.60347 0.13703 0.78245 0.0
H1790 H 0.48272 0.14849 0.80808 0.0
H1791 H 0.51307 0.14862 0.84261 0.0
H1792 H 0.5379 0.11712 0.76804 0.0
H1793 H 0.49337 0.18232 0.76185 0.0
H1794 H 0.52991 0.17475 0.78108 0.0
H1795 H 0.47441 0.17253 0.78494 0.0
C1796 C 0.60141 0.13968 0.81549 0.0
C1797 C 0.57626 0.14281 0.83276 0.0
C1798 C 0.58376 0.13969 0.79556 0.0
C1799 C 0.54088 0.14301 0.79263 0.0
C1800 C 0.51599 0.14625 0.80987 0.0
H1801 H 0.36602 0.14356 0.68781 0.0
H1802 H 0.3967 0.14306 0.72285 0.0
C1803 C 0.53346 0.14622 0.82966 0.0
C1804 C 0.52123 0.14234 0.7718 0.0
H1805 H 0.46288 0.16454 0.73707 0.0
C1806 C 0.52181 0.12752 0.76118 0.0
C1807 C 0.49987 0.15588 0.76296 0.0
C1808 C 0.49961 0.17231 0.77319 0.0
C1809 C 0.50103 0.12582 0.74213 0.0
C1810 C 0.47952 0.13933 0.73335 0.0
C1811 C 0.47895 0.15415 0.74395 0.0
C1812 C 0.46006 0.1387 0.7125 0.0
C1813 C 0.5017 0.10948 0.73167 0.0
C1814 C 0.48547 0.13645 0.69519 0.0
C1815 C 0.46819 0.13679 0.67536 0.0
C1816 C 0.42501 0.13942 0.67233 0.0
C1817 C 0.3993 0.14141 0.68969 0.0
C1818 C 0.4168 0.14118 0.70965 0.0
H1819 H 0.50945 0.09944 0.74272 0.0
H1820 H 0.47101 0.10683 0.72428 0.0
H1821 H 0.52593 0.10966 0.71942 0.0
H1822 H 0.51896 0.13479 0.69699 0.0
H1823 H 0.48893 0.13522 0.66234 0.0
H1824 H 0.48467 0.64653 0.33535 0.0
H1825 H 0.50164 0.64448 0.29869 0.0
H1826 H 0.46179 0.59427 0.29921 0.0
H1827 H 0.44545 0.59607 0.33605 0.0
H1828 H 0.557 0.62204 0.27804 0.0
H1829 H 0.3909 0.61678 0.25256 0.0
H1830 H 0.40555 0.62405 0.27782 0.0
H1831 H 0.40752 0.60265 0.27244 0.0
C1832 C 0.48018 0.63495 0.32782 0.0
C1833 C 0.46361 0.62146 0.3387 0.0
C1834 C 0.48964 0.63385 0.30681 0.0
C1835 C 0.48242 0.6193 0.29621 0.0
C1836 C 0.46689 0.60569 0.30706 0.0
H1837 H 0.56439 0.59476 0.1721 0.0
H1838 H 0.54806 0.59429 0.20904 0.0
C1839 C 0.45755 0.60675 0.3281 0.0
C1840 C 0.49075 0.61849 0.27373 0.0
H1841 H 0.44271 0.61454 0.22674 0.0
C1842 C 0.53208 0.62034 0.26681 0.0
C1843 C 0.45803 0.61646 0.25915 0.0
C1844 C 0.41291 0.61499 0.26576 0.0
C1845 C 0.54162 0.62006 0.24565 0.0
C1846 C 0.50899 0.61783 0.23111 0.0
C1847 C 0.46763 0.61611 0.23799 0.0
C1848 C 0.51724 0.61776 0.20862 0.0
C1849 C 0.58639 0.62245 0.23889 0.0
C1850 C 0.50456 0.63098 0.19615 0.0
C1851 C 0.51419 0.63139 0.17509 0.0
C1852 C 0.53638 0.61848 0.16605 0.0
C1853 C 0.54788 0.60502 0.17857 0.0
C1854 C 0.53847 0.60469 0.19966 0.0
H1855 H 0.60689 0.62648 0.25178 0.0
H1856 H 0.59879 0.61077 0.23298 0.0
H1857 H 0.58804 0.63161 0.22613 0.0
H1858 H 0.48815 0.64118 0.20284 0.0
H1859 H 0.5054 0.64207 0.16608 0.0
H1860 H 0.05477 0.41392 0.33634 0.0
H1861 H 0.04541 0.41368 0.29889 0.0
H1862 H 0.0866 0.36363 0.29766 0.0
H1863 H 0.0953 0.36368 0.33546 0.0
H1864 H 0.10082 0.40692 0.26624 0.0
H1865 H 0.96911 0.36256 0.27068 0.0
H1866 H 0.98886 0.37297 0.29312 0.0
H1867 H 0.01751 0.3562 0.28258 0.0
C1868 C 0.06193 0.40285 0.32811 0.0
C1869 C 0.07515 0.38873 0.33886 0.0
C1870 C 0.0568 0.40277 0.3067 0.0
C1871 C 0.06463 0.38857 0.29554 0.0
C1872 C 0.07973 0.37464 0.30605 0.0
H1873 H 0.00627 0.3686 0.16667 0.0
H1874 H 0.03182 0.36701 0.20224 0.0
C1875 C 0.08503 0.37472 0.32759 0.0
C1876 C 0.05504 0.38837 0.27309 0.0
H1877 H 0.98747 0.37239 0.23765 0.0
C1878 C 0.07625 0.39929 0.25993 0.0
C1879 C 0.02282 0.37847 0.26495 0.0
C1880 C 0.99793 0.36696 0.27852 0.0
C1881 C 0.06601 0.40061 0.23882 0.0
C1882 C 0.03317 0.39096 0.23078 0.0
C1883 C 0.01256 0.3798 0.24387 0.0
C1884 C 0.01928 0.39231 0.2089 0.0
C1885 C 0.09067 0.41221 0.2253 0.0
C1886 C 0.00338 0.40706 0.20083 0.0
C1887 C 0.98901 0.40806 0.18036 0.0
C1888 C 0.99014 0.39431 0.16761 0.0
C1889 C 0.00579 0.37954 0.17586 0.0
C1890 C 0.02014 0.37856 0.19627 0.0
H1891 H 0.12155 0.41519 0.2323 0.0
H1892 H 0.09588 0.40703 0.20975 0.0
H1893 H 0.07288 0.42376 0.22337 0.0
H1894 H 1.00156 0.41774 0.21044 0.0
H1895 H 0.97721 0.41962 0.1745 0.0
H1896 H 0.37078 0.39554 0.82066 0.0
H1897 H 0.39664 0.39501 0.7849 0.0
H1898 H 0.52362 0.39184 0.80763 0.0
H1899 H 0.49834 0.39209 0.84301 0.0
H1900 H 0.45132 0.41659 0.76517 0.0
H1901 H 0.5194 0.35446 0.76722 0.0
H1902 H 0.48352 0.36152 0.78664 0.0
H1903 H 0.53808 0.36697 0.78785 0.0
C1904 C 0.40415 0.39461 0.81798 0.0
C1905 C 0.43244 0.39374 0.83466 0.0
C1906 C 0.41888 0.39432 0.79758 0.0
C1907 C 0.46204 0.39305 0.79361 0.0
C1908 C 0.49018 0.39238 0.81028 0.0
H1909 H 0.62393 0.39773 0.68555 0.0
H1910 H 0.5955 0.3966 0.72083 0.0
C1911 C 0.47558 0.39264 0.83055 0.0
C1912 C 0.47825 0.39308 0.77214 0.0
H1913 H 0.54002 0.37171 0.73901 0.0
C1914 C 0.47035 0.40671 0.75937 0.0
C1915 C 0.50331 0.38021 0.76463 0.0
C1916 C 0.51127 0.36489 0.77723 0.0
C1917 C 0.48765 0.40799 0.73949 0.0
C1918 C 0.51313 0.39522 0.73212 0.0
C1919 C 0.5208 0.38154 0.7448 0.0
C1920 C 0.53069 0.3956 0.71095 0.0
C1921 C 0.47926 0.42315 0.72666 0.0
C1922 C 0.50372 0.39509 0.69384 0.0
C1923 C 0.51977 0.39567 0.67383 0.0
C1924 C 0.56321 0.39674 0.67047 0.0
C1925 C 0.59035 0.39696 0.68764 0.0
C1926 C 0.57417 0.39631 0.70776 0.0
H1927 H 0.46769 0.43334 0.73624 0.0
H1928 H 0.50801 0.42718 0.71847 0.0
H1929 H 0.45499 0.42043 0.71486 0.0
H1930 H 0.47015 0.39425 0.69596 0.0
H1931 H 0.49794 0.39539 0.66097 0.0
H1932 H 0.13225 0.63566 0.8168 0.0
H1933 H 0.10128 0.63569 0.78185 0.0
H1934 H 0.97758 0.6366 0.80825 0.0
H1935 H 0.00784 0.6367 0.84283 0.0
H1936 H 0.04241 0.61335 0.76382 0.0
H1937 H 0.97688 0.67586 0.76816 0.0
H1938 H 0.01655 0.66837 0.78587 0.0
H1939 H 0.96258 0.66279 0.78946 0.0
C1940 C 0.09849 0.63585 0.8151 0.0
C1941 C 0.07257 0.6363 0.83258 0.0
C1942 C 0.08084 0.63587 0.79516 0.0
C1943 C 0.03712 0.63646 0.79247 0.0
C1944 C 0.01136 0.63651 0.80993 0.0
H1945 H 0.86483 0.64003 0.68678 0.0
H1946 H 0.89524 0.63788 0.72177 0.0
C1947 C 0.02883 0.63648 0.82973 0.0
C1948 C 0.0179 0.63693 0.77152 0.0
H1949 H 0.95399 0.65975 0.74001 0.0
C1950 C 0.02332 0.62353 0.75854 0.0
C1951 C 0.9927 0.65018 0.76474 0.0
C1952 C 0.98706 0.66519 0.77769 0.0
C1953 C 0.00364 0.62291 0.73907 0.0
C1954 C 0.97841 0.63616 0.7323 0.0
C1955 C 0.973 0.64955 0.7453 0.0
C1956 C 0.95948 0.63681 0.7113 0.0
C1957 C 0.00944 0.60796 0.72605 0.0
C1958 C 0.98546 0.63709 0.69391 0.0
C1959 C 0.96829 0.63836 0.67409 0.0
C1960 C 0.92466 0.63945 0.67114 0.0
C1961 C 0.8985 0.63914 0.68856 0.0
C1962 C 0.91584 0.63793 0.70851 0.0
H1963 H 0.01942 0.59725 0.73555 0.0
H1964 H 0.98008 0.60484 0.71772 0.0
H1965 H 0.03412 0.6104 0.71439 0.0
H1966 H 0.0192 0.63658 0.69568 0.0
H1967 H 0.98943 0.6386 0.66104 0.0
loop_
_geom_bond_atom_site_label_1
_geom_bond_atom_site_label_2
_geom_bond_distance
_geom_bond_site_symmetry_2
_ccdc_geom_bond_type
Co0 N4 2.148 . S
Co0 N10 2.128 . S
Co0 N20 2.194 . S
Co0 O25 2.351 . S
Co0 O26 2.155 . S
Co0 O27 2.096 . S
C1 N4 1.301 . S
C1 N5 1.328 . S
C1 H6 0.930 . S
C2 C3 1.333 . S
C2 N4 1.317 . S
C2 H7 0.930 . S
C3 C2 1.333 . S
C3 N5 1.350 . S
C3 H29 0.931 . S
N4 Co0 2.148 . S
N4 C1 1.301 . S
N4 C2 1.317 . S
N5 C1 1.328 . S
N5 C3 1.350 . S
H6 C1 0.930 . S
H7 C2 0.930 . S
C8 O9 1.224 . S
C8 O27 1.247 1_655 S
O9 C8 1.224 . S
N10 Co0 2.128 . S
N10 C11 1.355 . S
N10 C13 1.311 . S
C11 N10 1.355 . S
C11 C12 1.363 . S
C11 H23 0.929 . S
C12 C11 1.363 . S
C12 N14 1.375 . S
C12 H30 0.931 . S
C13 N10 1.311 . S
C13 N14 1.347 . S
C13 H24 0.929 . S
N14 C12 1.375 . S
N14 C13 1.347 . S
C15 C18 1.365 . S
C15 N20 1.328 . S
C15 H21 0.929 . S
C16 C17 1.362 . S
C16 C19 1.378 . S
C16 H31 0.929 1_455 S
C17 C16 1.362 . S
C17 C18 1.366 . S
C18 C15 1.365 . S
C18 C17 1.366 . S
C18 H32 0.930 . S
C19 C16 1.378 . S
C19 N20 1.315 . S
C19 H22 0.930 . S
N20 Co0 2.194 . S
N20 C15 1.328 . S
N20 C19 1.315 . S
H21 C15 0.929 . S
H22 C19 0.930 . S
H23 C11 0.929 . S
H24 C13 0.929 . S
O25 Co0 2.351 . S
O25 C28 1.244 . S
O26 Co0 2.155 . S
O26 C28 1.240 . S
O27 Co0 2.096 . S
O27 C8 1.247 1_455 S
C28 O25 1.244 . S
C28 O26 1.240 . S
H29 C3 0.931 . S
H30 C12 0.931 . S
H31 C16 0.929 1_655 S
H32 C18 0.930 . S
Co33 N37 2.148 . S
Co33 N43 2.128 . S
Co33 N53 2.194 . S
Co33 O58 2.351 . S
Co33 O59 2.155 . S
Co33 O60 2.096 . S
C34 N37 1.301 . S
C34 N38 1.328 . S
C34 H39 0.930 . S
C35 C36 1.333 . S
C35 N37 1.317 . S
C35 H40 0.930 . S
C36 C35 1.333 . S
C36 N38 1.350 . S
C36 H62 0.931 . S
N37 Co33 2.148 . S
N37 C34 1.301 . S
N37 C35 1.317 . S
N38 C34 1.328 . S
N38 C36 1.350 . S
H39 C34 0.930 . S
H40 C35 0.930 . S
C41 O42 1.224 . S
C41 O60 1.247 . S
O42 C41 1.224 . S
N43 Co33 2.128 . S
N43 C44 1.355 . S
N43 C46 1.311 . S
C44 N43 1.355 . S
C44 C45 1.363 . S
C44 H56 0.929 . S
C45 C44 1.363 . S
C45 N47 1.375 . S
C45 H63 0.931 . S
C46 N43 1.311 . S
C46 N47 1.347 . S
C46 H57 0.929 . S
N47 C45 1.375 . S
N47 C46 1.347 . S
C48 C51 1.365 . S
C48 N53 1.328 . S
C48 H54 0.929 . S
C49 C50 1.362 . S
C49 C52 1.378 . S
C49 H64 0.929 . S
C50 C49 1.362 . S
C50 C51 1.366 . S
C51 C48 1.365 . S
C51 C50 1.366 . S
C51 H65 0.930 . S
C52 C49 1.378 . S
C52 N53 1.315 . S
C52 H55 0.930 . S
N53 Co33 2.194 . S
N53 C48 1.328 . S
N53 C52 1.315 . S
H54 C48 0.929 . S
H55 C52 0.930 . S
H56 C44 0.929 . S
H57 C46 0.929 . S
O58 Co33 2.351 . S
O58 C61 1.244 . S
O59 Co33 2.155 . S
O59 C61 1.240 . S
O60 Co33 2.096 . S
O60 C41 1.247 . S
C61 O58 1.244 . S
C61 O59 1.240 . S
H62 C36 0.931 . S
H63 C45 0.931 . S
H64 C49 0.929 . S
H65 C51 0.930 . S
Co66 N70 2.148 . S
Co66 N76 2.128 . S
Co66 N86 2.194 . S
Co66 O91 2.351 . S
Co66 O92 2.155 . S
Co66 O93 2.096 . S
C67 N70 1.301 . S
C67 N71 1.328 . S
C67 H72 0.930 . S
C68 C69 1.333 . S
C68 N70 1.317 . S
C68 H73 0.930 . S
C69 C68 1.333 . S
C69 N71 1.350 . S
C69 H95 0.931 . S
N70 Co66 2.148 . S
N70 C67 1.301 . S
N70 C68 1.317 . S
N71 C67 1.328 . S
N71 C69 1.350 . S
H72 C67 0.930 . S
H73 C68 0.930 . S
C74 O75 1.224 . S
C74 O93 1.247 . S
O75 C74 1.224 . S
N76 Co66 2.128 . S
N76 C77 1.355 . S
N76 C79 1.311 . S
C77 N76 1.355 . S
C77 C78 1.363 . S
C77 H89 0.929 . S
C78 C77 1.363 . S
C78 N80 1.375 . S
C78 H96 0.931 . S
C79 N76 1.311 . S
C79 N80 1.347 . S
C79 H90 0.929 . S
N80 C78 1.375 . S
N80 C79 1.347 . S
C81 C84 1.365 . S
C81 N86 1.328 . S
C81 H87 0.929 . S
C82 C83 1.362 . S
C82 C85 1.378 . S
C82 H97 0.929 . S
C83 C82 1.362 . S
C83 C84 1.366 . S
C84 C81 1.365 . S
C84 C83 1.366 . S
C84 H98 0.930 . S
C85 C82 1.378 . S
C85 N86 1.315 . S
C85 H88 0.930 . S
N86 Co66 2.194 . S
N86 C81 1.328 . S
N86 C85 1.315 . S
H87 C81 0.929 . S
H88 C85 0.930 . S
H89 C77 0.929 . S
H90 C79 0.929 . S
O91 Co66 2.351 . S
O91 C94 1.244 . S
O92 Co66 2.155 . S
O92 C94 1.240 . S
O93 Co66 2.096 . S
O93 C74 1.247 . S
C94 O91 1.244 . S
C94 O92 1.240 . S
H95 C69 0.931 . S
H96 C78 0.931 . S
H97 C82 0.929 . S
H98 C84 0.930 . S
Co99 N103 2.148 . S
Co99 N109 2.128 . S
Co99 N119 2.194 . S
Co99 O124 2.351 . S
Co99 O125 2.155 . S
Co99 O126 2.096 . S
C100 N103 1.301 . S
C100 N104 1.328 . S
C100 H105 0.930 . S
C101 C102 1.333 . S
C101 N103 1.317 . S
C101 H106 0.930 . S
C102 C101 1.333 . S
C102 N104 1.350 . S
C102 H128 0.931 . S
N103 Co99 2.148 . S
N103 C100 1.301 . S
N103 C101 1.317 . S
N104 C100 1.328 . S
N104 C102 1.350 . S
H105 C100 0.930 . S
H106 C101 0.930 . S
C107 O108 1.224 . S
C107 O126 1.247 1_455 S
O108 C107 1.224 . S
N109 Co99 2.128 . S
N109 C110 1.355 . S
N109 C112 1.311 . S
C110 N109 1.355 . S
C110 C111 1.363 . S
C110 H122 0.929 . S
C111 C110 1.363 . S
C111 N113 1.375 . S
C111 H129 0.931 . S
C112 N109 1.311 . S
C112 N113 1.347 . S
C112 H123 0.929 . S
N113 C111 1.375 . S
N113 C112 1.347 . S
C114 C117 1.365 . S
C114 N119 1.328 . S
C114 H120 0.929 . S
C115 C116 1.362 . S
C115 C118 1.378 . S
C115 H130 0.929 1_655 S
C116 C115 1.362 . S
C116 C117 1.366 . S
C117 C114 1.365 . S
C117 C116 1.366 . S
C117 H131 0.930 . S
C118 C115 1.378 . S
C118 N119 1.315 . S
C118 H121 0.930 . S
N119 Co99 2.194 . S
N119 C114 1.328 . S
N119 C118 1.315 . S
H120 C114 0.929 . S
H121 C118 0.930 . S
H122 C110 0.929 . S
H123 C112 0.929 . S
O124 Co99 2.351 . S
O124 C127 1.244 . S
O125 Co99 2.155 . S
O125 C127 1.240 . S
O126 Co99 2.096 . S
O126 C107 1.247 1_655 S
C127 O124 1.244 . S
C127 O125 1.240 . S
H128 C102 0.931 . S
H129 C111 0.931 . S
H130 C115 0.929 1_455 S
H131 C117 0.930 . S
Co132 N136 2.148 . S
Co132 N142 2.128 . S
Co132 N152 2.194 . S
Co132 O157 2.351 . S
Co132 O158 2.155 . S
Co132 O159 2.096 . S
C133 N136 1.301 . S
C133 N137 1.328 . S
C133 H138 0.930 . S
C134 C135 1.333 . S
C134 N136 1.317 . S
C134 H139 0.930 . S
C135 C134 1.333 . S
C135 N137 1.350 . S
C135 H161 0.931 . S
N136 Co132 2.148 . S
N136 C133 1.301 . S
N136 C134 1.317 . S
N137 C133 1.328 . S
N137 C135 1.350 . S
H138 C133 0.930 . S
H139 C134 0.930 . S
C140 O141 1.224 . S
C140 O159 1.247 . S
O141 C140 1.224 . S
N142 Co132 2.128 . S
N142 C143 1.355 . S
N142 C145 1.311 . S
C143 N142 1.355 . S
C143 C144 1.363 . S
C143 H155 0.929 . S
C144 C143 1.363 . S
C144 N146 1.375 . S
C144 H162 0.931 . S
C145 N142 1.311 . S
C145 N146 1.347 . S
C145 H156 0.929 . S
N146 C144 1.375 . S
N146 C145 1.347 . S
C147 C150 1.365 . S
C147 N152 1.328 1_455 S
C147 H153 0.929 . S
C148 C149 1.362 1_655 S
C148 C151 1.378 . S
C148 H163 0.929 . S
C149 C148 1.362 1_455 S
C149 C150 1.366 . S
C150 C147 1.365 . S
C150 C149 1.366 . S
C150 H164 0.930 . S
C151 C148 1.378 . S
C151 N152 1.315 . S
C151 H154 0.930 . S
N152 Co132 2.194 . S
N152 C147 1.328 1_655 S
N152 C151 1.315 . S
H153 C147 0.929 . S
H154 C151 0.930 . S
H155 C143 0.929 . S
H156 C145 0.929 . S
O157 Co132 2.351 . S
O157 C160 1.244 . S
O158 Co132 2.155 . S
O158 C160 1.240 . S
O159 Co132 2.096 . S
O159 C140 1.247 . S
C160 O157 1.244 . S
C160 O158 1.240 . S
H161 C135 0.931 . S
H162 C144 0.931 . S
H163 C148 0.929 . S
H164 C150 0.930 . S
Co165 N169 2.148 . S
Co165 N175 2.128 . S
Co165 N185 2.194 . S
Co165 O190 2.351 . S
Co165 O191 2.155 . S
Co165 O192 2.096 . S
C166 N169 1.301 . S
C166 N170 1.328 . S
C166 H171 0.930 . S
C167 C168 1.333 . S
C167 N169 1.317 . S
C167 H172 0.930 . S
C168 C167 1.333 . S
C168 N170 1.350 . S
C168 H194 0.931 . S
N169 Co165 2.148 . S
N169 C166 1.301 . S
N169 C167 1.317 . S
N170 C166 1.328 . S
N170 C168 1.350 . S
H171 C166 0.930 . S
H172 C167 0.930 . S
C173 O174 1.224 . S
C173 O192 1.247 . S
O174 C173 1.224 . S
N175 Co165 2.128 . S
N175 C176 1.355 . S
N175 C178 1.311 . S
C176 N175 1.355 . S
C176 C177 1.363 . S
C176 H188 0.929 . S
C177 C176 1.363 . S
C177 N179 1.375 . S
C177 H195 0.931 . S
C178 N175 1.311 . S
C178 N179 1.347 . S
C178 H189 0.929 . S
N179 C177 1.375 . S
N179 C178 1.347 . S
C180 C183 1.365 . S
C180 N185 1.328 . S
C180 H186 0.929 . S
C181 C182 1.362 . S
C181 C184 1.378 . S
C181 H196 0.929 . S
C182 C181 1.362 . S
C182 C183 1.366 . S
C183 C180 1.365 . S
C183 C182 1.366 . S
C183 H197 0.930 . S
C184 C181 1.378 . S
C184 N185 1.315 . S
C184 H187 0.930 . S
N185 Co165 2.194 . S
N185 C180 1.328 . S
N185 C184 1.315 . S
H186 C180 0.929 . S
H187 C184 0.930 . S
H188 C176 0.929 . S
H189 C178 0.929 . S
O190 Co165 2.351 . S
O190 C193 1.244 . S
O191 Co165 2.155 . S
O191 C193 1.240 . S
O192 Co165 2.096 . S
O192 C173 1.247 . S
C193 O190 1.244 . S
C193 O191 1.240 . S
H194 C168 0.931 . S
H195 C177 0.931 . S
H196 C181 0.929 . S
H197 C183 0.930 . S
Co198 N202 2.148 . S
Co198 N208 2.128 . S
Co198 N218 2.194 . S
Co198 O223 2.351 . S
Co198 O224 2.155 . S
Co198 O225 2.096 . S
C199 N202 1.301 . S
C199 N203 1.328 . S
C199 H204 0.930 . S
C200 C201 1.333 . S
C200 N202 1.317 . S
C200 H205 0.930 . S
C201 C200 1.333 . S
C201 N203 1.350 . S
C201 H227 0.931 . S
N202 Co198 2.148 . S
N202 C199 1.301 . S
N202 C200 1.317 . S
N203 C199 1.328 . S
N203 C201 1.350 . S
H204 C199 0.930 . S
H205 C200 0.930 . S
C206 O207 1.224 . S
C206 O225 1.247 . S
O207 C206 1.224 . S
N208 Co198 2.128 . S
N208 C209 1.355 . S
N208 C211 1.311 . S
C209 N208 1.355 . S
C209 C210 1.363 . S
C209 H221 0.929 . S
C210 C209 1.363 . S
C210 N212 1.375 . S
C210 H228 0.931 . S
C211 N208 1.311 . S
C211 N212 1.347 . S
C211 H222 0.929 . S
N212 C210 1.375 . S
N212 C211 1.347 . S
C213 C216 1.365 . S
C213 N218 1.328 . S
C213 H219 0.929 . S
C214 C215 1.362 . S
C214 C217 1.378 . S
C214 H229 0.929 . S
C215 C214 1.362 . S
C215 C216 1.366 . S
C216 C213 1.365 . S
C216 C215 1.366 . S
C216 H230 0.930 . S
C217 C214 1.378 . S
C217 N218 1.315 . S
C217 H220 0.930 . S
N218 Co198 2.194 . S
N218 C213 1.328 . S
N218 C217 1.315 . S
H219 C213 0.929 . S
H220 C217 0.930 . S
H221 C209 0.929 . S
H222 C211 0.929 . S
O223 Co198 2.351 . S
O223 C226 1.244 . S
O224 Co198 2.155 . S
O224 C226 1.240 . S
O225 Co198 2.096 . S
O225 C206 1.247 . S
C226 O223 1.244 . S
C226 O224 1.240 . S
H227 C201 0.931 . S
H228 C210 0.931 . S
H229 C214 0.929 . S
H230 C216 0.930 . S
Co231 N235 2.148 . S
Co231 N241 2.128 . S
Co231 N251 2.194 . S
Co231 O256 2.351 . S
Co231 O257 2.155 . S
Co231 O258 2.096 . S
C232 N235 1.301 . S
C232 N236 1.328 . S
C232 H237 0.930 . S
C233 C234 1.333 . S
C233 N235 1.317 . S
C233 H238 0.930 . S
C234 C233 1.333 . S
C234 N236 1.350 . S
C234 H260 0.931 . S
N235 Co231 2.148 . S
N235 C232 1.301 . S
N235 C233 1.317 . S
N236 C232 1.328 . S
N236 C234 1.350 . S
H237 C232 0.930 . S
H238 C233 0.930 . S
C239 O240 1.224 . S
C239 O258 1.247 . S
O240 C239 1.224 . S
N241 Co231 2.128 . S
N241 C242 1.355 . S
N241 C244 1.311 . S
C242 N241 1.355 . S
C242 C243 1.363 . S
C242 H254 0.929 . S
C243 C242 1.363 . S
C243 N245 1.375 . S
C243 H261 0.931 . S
C244 N241 1.311 . S
C244 N245 1.347 . S
C244 H255 0.929 . S
N245 C243 1.375 . S
N245 C244 1.347 . S
C246 C249 1.365 . S
C246 N251 1.328 1_655 S
C246 H252 0.929 . S
C247 C248 1.362 1_455 S
C247 C250 1.378 . S
C247 H262 0.929 . S
C248 C247 1.362 1_655 S
C248 C249 1.366 . S
C249 C246 1.365 . S
C249 C248 1.366 . S
C249 H263 0.930 . S
C250 C247 1.378 . S
C250 N251 1.315 . S
C250 H253 0.930 . S
N251 Co231 2.194 . S
N251 C246 1.328 1_455 S
N251 C250 1.315 . S
H252 C246 0.929 . S
H253 C250 0.930 . S
H254 C242 0.929 . S
H255 C244 0.929 . S
O256 Co231 2.351 . S
O256 C259 1.244 . S
O257 Co231 2.155 . S
O257 C259 1.240 . S
O258 Co231 2.096 . S
O258 C239 1.247 . S
C259 O256 1.244 . S
C259 O257 1.240 . S
H260 C234 0.931 . S
H261 C243 0.931 . S
H262 C247 0.929 . S
H263 C249 0.930 . S
Co264 N268 2.148 . S
Co264 N274 2.128 . S
Co264 N284 2.194 . S
Co264 O289 2.351 . S
Co264 O290 2.155 . S
Co264 O291 2.096 . S
C265 N268 1.301 . S
C265 N269 1.328 . S
C265 H270 0.930 . S
C266 C267 1.333 . S
C266 N268 1.317 . S
C266 H271 0.930 . S
C267 C266 1.333 . S
C267 N269 1.350 . S
C267 H293 0.931 . S
N268 Co264 2.148 . S
N268 C265 1.301 . S
N268 C266 1.317 . S
N269 C265 1.328 . S
N269 C267 1.350 . S
H270 C265 0.930 . S
H271 C266 0.930 . S
C272 O273 1.224 . S
C272 O291 1.247 . S
O273 C272 1.224 . S
N274 Co264 2.128 . S
N274 C275 1.355 . S
N274 C277 1.311 . S
C275 N274 1.355 . S
C275 C276 1.363 . S
C275 H287 0.929 . S
C276 C275 1.363 . S
C276 N278 1.375 . S
C276 H294 0.931 . S
C277 N274 1.311 . S
C277 N278 1.347 . S
C277 H288 0.929 . S
N278 C276 1.375 . S
N278 C277 1.347 . S
C279 C282 1.365 . S
C279 N284 1.328 . S
C279 H285 0.929 . S
C280 C281 1.362 . S
C280 C283 1.378 . S
C280 H295 0.929 . S
C281 C280 1.362 . S
C281 C282 1.366 . S
C282 C279 1.365 . S
C282 C281 1.366 . S
C282 H296 0.930 . S
C283 C280 1.378 . S
C283 N284 1.315 . S
C283 H286 0.930 . S
N284 Co264 2.194 . S
N284 C279 1.328 . S
N284 C283 1.315 . S
H285 C279 0.929 . S
H286 C283 0.930 . S
H287 C275 0.929 . S
H288 C277 0.929 . S
O289 Co264 2.351 . S
O289 C292 1.244 . S
O290 Co264 2.155 . S
O290 C292 1.240 . S
O291 Co264 2.096 . S
O291 C272 1.247 . S
C292 O289 1.244 . S
C292 O290 1.240 . S
H293 C267 0.931 . S
H294 C276 0.931 . S
H295 C280 0.929 . S
H296 C282 0.930 . S
Co297 N301 2.148 . S
Co297 N307 2.128 . S
Co297 N317 2.194 . S
Co297 O322 2.351 . S
Co297 O323 2.155 . S
Co297 O324 2.096 . S
C298 N301 1.301 . S
C298 N302 1.328 . S
C298 H303 0.930 . S
C299 C300 1.333 . S
C299 N301 1.317 . S
C299 H304 0.930 . S
C300 C299 1.333 . S
C300 N302 1.350 . S
C300 H326 0.931 . S
N301 Co297 2.148 . S
N301 C298 1.301 . S
N301 C299 1.317 . S
N302 C298 1.328 . S
N302 C300 1.350 . S
H303 C298 0.930 . S
H304 C299 0.930 . S
C305 O306 1.224 . S
C305 O324 1.247 1_455 S
O306 C305 1.224 . S
N307 Co297 2.128 . S
N307 C308 1.355 . S
N307 C310 1.311 . S
C308 N307 1.355 . S
C308 C309 1.363 . S
C308 H320 0.929 . S
C309 C308 1.363 . S
C309 N311 1.375 . S
C309 H327 0.931 . S
C310 N307 1.311 . S
C310 N311 1.347 . S
C310 H321 0.929 . S
N311 C309 1.375 . S
N311 C310 1.347 . S
C312 C315 1.365 . S
C312 N317 1.328 . S
C312 H318 0.929 . S
C313 C314 1.362 . S
C313 C316 1.378 . S
C313 H328 0.929 1_655 S
C314 C313 1.362 . S
C314 C315 1.366 . S
C315 C312 1.365 . S
C315 C314 1.366 . S
C315 H329 0.930 . S
C316 C313 1.378 . S
C316 N317 1.315 . S
C316 H319 0.930 . S
N317 Co297 2.194 . S
N317 C312 1.328 . S
N317 C316 1.315 . S
H318 C312 0.929 . S
H319 C316 0.930 . S
H320 C308 0.929 . S
H321 C310 0.929 . S
O322 Co297 2.351 . S
O322 C325 1.244 . S
O323 Co297 2.155 . S
O323 C325 1.240 . S
O324 Co297 2.096 . S
O324 C305 1.247 1_655 S
C325 O322 1.244 . S
C325 O323 1.240 . S
H326 C300 0.931 . S
H327 C309 0.931 . S
H328 C313 0.929 1_455 S
H329 C315 0.930 . S
Co330 N334 2.148 . S
Co330 N340 2.128 . S
Co330 N350 2.194 . S
Co330 O355 2.351 1_455 S
Co330 O356 2.155 . S
Co330 O357 2.096 . S
C331 N334 1.301 . S
C331 N335 1.328 . S
C331 H336 0.930 . S
C332 C333 1.333 . S
C332 N334 1.317 . S
C332 H337 0.930 . S
C333 C332 1.333 . S
C333 N335 1.350 . S
C333 H359 0.931 . S
N334 Co330 2.148 . S
N334 C331 1.301 . S
N334 C332 1.317 . S
N335 C331 1.328 . S
N335 C333 1.350 . S
H336 C331 0.930 . S
H337 C332 0.930 . S
C338 O339 1.224 . S
C338 O357 1.247 . S
O339 C338 1.224 . S
N340 Co330 2.128 . S
N340 C341 1.355 . S
N340 C343 1.311 . S
C341 N340 1.355 . S
C341 C342 1.363 . S
C341 H353 0.929 . S
C342 C341 1.363 . S
C342 N344 1.375 . S
C342 H360 0.931 . S
C343 N340 1.311 . S
C343 N344 1.347 . S
C343 H354 0.929 . S
N344 C342 1.375 . S
N344 C343 1.347 . S
C345 C348 1.365 . S
C345 N350 1.328 . S
C345 H351 0.929 1_455 S
C346 C347 1.362 . S
C346 C349 1.378 . S
C346 H361 0.929 . S
C347 C346 1.362 . S
C347 C348 1.366 . S
C348 C345 1.365 . S
C348 C347 1.366 . S
C348 H362 0.930 1_455 S
C349 C346 1.378 . S
C349 N350 1.315 . S
C349 H352 0.930 . S
N350 Co330 2.194 . S
N350 C345 1.328 . S
N350 C349 1.315 . S
H351 C345 0.929 1_655 S
H352 C349 0.930 . S
H353 C341 0.929 . S
H354 C343 0.929 . S
O355 Co330 2.351 1_655 S
O355 C358 1.244 . S
O356 Co330 2.155 . S
O356 C358 1.240 1_455 S
O357 Co330 2.096 . S
O357 C338 1.247 . S
C358 O355 1.244 . S
C358 O356 1.240 1_655 S
H359 C333 0.931 . S
H360 C342 0.931 . S
H361 C346 0.929 . S
H362 C348 0.930 1_655 S
Co363 N367 2.148 . S
Co363 N373 2.128 . S
Co363 N383 2.194 . S
Co363 O388 2.351 . S
Co363 O389 2.155 . S
Co363 O390 2.096 . S
C364 N367 1.301 . S
C364 N368 1.328 . S
C364 H369 0.930 . S
C365 C366 1.333 . S
C365 N367 1.317 . S
C365 H370 0.930 . S
C366 C365 1.333 . S
C366 N368 1.350 . S
C366 H392 0.931 . S
N367 Co363 2.148 . S
N367 C364 1.301 . S
N367 C365 1.317 . S
N368 C364 1.328 . S
N368 C366 1.350 . S
H369 C364 0.930 . S
H370 C365 0.930 . S
C371 O372 1.224 . S
C371 O390 1.247 . S
O372 C371 1.224 . S
N373 Co363 2.128 . S
N373 C374 1.355 . S
N373 C376 1.311 . S
C374 N373 1.355 . S
C374 C375 1.363 . S
C374 H386 0.929 . S
C375 C374 1.363 . S
C375 N377 1.375 . S
C375 H393 0.931 . S
C376 N373 1.311 . S
C376 N377 1.347 . S
C376 H387 0.929 . S
N377 C375 1.375 . S
N377 C376 1.347 . S
C378 C381 1.365 . S
C378 N383 1.328 . S
C378 H384 0.929 . S
C379 C380 1.362 . S
C379 C382 1.378 . S
C379 H394 0.929 . S
C380 C379 1.362 . S
C380 C381 1.366 . S
C381 C378 1.365 . S
C381 C380 1.366 . S
C381 H395 0.930 . S
C382 C379 1.378 . S
C382 N383 1.315 . S
C382 H385 0.930 . S
N383 Co363 2.194 . S
N383 C378 1.328 . S
N383 C382 1.315 . S
H384 C378 0.929 . S
H385 C382 0.930 . S
H386 C374 0.929 . S
H387 C376 0.929 . S
O388 Co363 2.351 . S
O388 C391 1.244 . S
O389 Co363 2.155 . S
O389 C391 1.240 . S
O390 Co363 2.096 . S
O390 C371 1.247 . S
C391 O388 1.244 . S
C391 O389 1.240 . S
H392 C366 0.931 . S
H393 C375 0.931 . S
H394 C379 0.929 . S
H395 C381 0.930 . S
Co396 N400 2.148 . S
Co396 N406 2.128 . S
Co396 N416 2.194 . S
Co396 O421 2.351 . S
Co396 O422 2.155 . S
Co396 O423 2.096 . S
C397 N400 1.301 . S
C397 N401 1.328 . S
C397 H402 0.930 . S
C398 C399 1.333 . S
C398 N400 1.317 . S
C398 H403 0.930 . S
C399 C398 1.333 . S
C399 N401 1.350 . S
C399 H425 0.931 . S
N400 Co396 2.148 . S
N400 C397 1.301 . S
N400 C398 1.317 . S
N401 C397 1.328 . S
N401 C399 1.350 . S
H402 C397 0.930 . S
H403 C398 0.930 . S
C404 O405 1.224 . S
C404 O423 1.247 . S
O405 C404 1.224 . S
N406 Co396 2.128 . S
N406 C407 1.355 . S
N406 C409 1.311 . S
C407 N406 1.355 . S
C407 C408 1.363 . S
C407 H419 0.929 . S
C408 C407 1.363 . S
C408 N410 1.375 . S
C408 H426 0.931 . S
C409 N406 1.311 . S
C409 N410 1.347 . S
C409 H420 0.929 . S
N410 C408 1.375 . S
N410 C409 1.347 . S
C411 C414 1.365 . S
C411 N416 1.328 . S
C411 H417 0.929 . S
C412 C413 1.362 . S
C412 C415 1.378 . S
C412 H427 0.929 . S
C413 C412 1.362 . S
C413 C414 1.366 . S
C414 C411 1.365 . S
C414 C413 1.366 . S
C414 H428 0.930 . S
C415 C412 1.378 . S
C415 N416 1.315 . S
C415 H418 0.930 . S
N416 Co396 2.194 . S
N416 C411 1.328 . S
N416 C415 1.315 . S
H417 C411 0.929 . S
H418 C415 0.930 . S
H419 C407 0.929 . S
H420 C409 0.929 . S
O421 Co396 2.351 . S
O421 C424 1.244 . S
O422 Co396 2.155 . S
O422 C424 1.240 . S
O423 Co396 2.096 . S
O423 C404 1.247 . S
C424 O421 1.244 . S
C424 O422 1.240 . S
H425 C399 0.931 . S
H426 C408 0.931 . S
H427 C412 0.929 . S
H428 C414 0.930 . S
Co429 N433 2.148 . S
Co429 N439 2.128 . S
Co429 N449 2.194 . S
Co429 O454 2.351 . S
Co429 O455 2.155 . S
Co429 O456 2.096 . S
C430 N433 1.301 . S
C430 N434 1.328 . S
C430 H435 0.930 . S
C431 C432 1.333 . S
C431 N433 1.317 . S
C431 H436 0.930 . S
C432 C431 1.333 . S
C432 N434 1.350 . S
C432 H458 0.931 . S
N433 Co429 2.148 . S
N433 C430 1.301 . S
N433 C431 1.317 . S
N434 C430 1.328 . S
N434 C432 1.350 . S
H435 C430 0.930 . S
H436 C431 0.930 . S
C437 O438 1.224 . S
C437 O456 1.247 . S
O438 C437 1.224 . S
N439 Co429 2.128 . S
N439 C440 1.355 . S
N439 C442 1.311 . S
C440 N439 1.355 . S
C440 C441 1.363 . S
C440 H452 0.929 . S
C441 C440 1.363 . S
C441 N443 1.375 . S
C441 H459 0.931 . S
C442 N439 1.311 . S
C442 N443 1.347 . S
C442 H453 0.929 . S
N443 C441 1.375 . S
N443 C442 1.347 . S
C444 C447 1.365 . S
C444 N449 1.328 1_655 S
C444 H450 0.929 . S
C445 C446 1.362 1_455 S
C445 C448 1.378 . S
C445 H460 0.929 . S
C446 C445 1.362 1_655 S
C446 C447 1.366 . S
C447 C444 1.365 . S
C447 C446 1.366 . S
C447 H461 0.930 . S
C448 C445 1.378 . S
C448 N449 1.315 . S
C448 H451 0.930 . S
N449 Co429 2.194 . S
N449 C444 1.328 1_455 S
N449 C448 1.315 . S
H450 C444 0.929 . S
H451 C448 0.930 . S
H452 C440 0.929 . S
H453 C442 0.929 . S
O454 Co429 2.351 . S
O454 C457 1.244 . S
O455 Co429 2.155 . S
O455 C457 1.240 . S
O456 Co429 2.096 . S
O456 C437 1.247 . S
C457 O454 1.244 . S
C457 O455 1.240 . S
H458 C432 0.931 . S
H459 C441 0.931 . S
H460 C445 0.929 . S
H461 C447 0.930 . S
Co462 N466 2.148 . S
Co462 N472 2.128 . S
Co462 N482 2.194 . S
Co462 O487 2.351 . S
Co462 O488 2.155 . S
Co462 O489 2.096 . S
C463 N466 1.301 . S
C463 N467 1.328 . S
C463 H468 0.930 . S
C464 C465 1.333 . S
C464 N466 1.317 . S
C464 H469 0.930 . S
C465 C464 1.333 . S
C465 N467 1.350 . S
C465 H491 0.931 . S
N466 Co462 2.148 . S
N466 C463 1.301 . S
N466 C464 1.317 . S
N467 C463 1.328 . S
N467 C465 1.350 . S
H468 C463 0.930 . S
H469 C464 0.930 . S
C470 O471 1.224 . S
C470 O489 1.247 . S
O471 C470 1.224 . S
N472 Co462 2.128 . S
N472 C473 1.355 . S
N472 C475 1.311 . S
C473 N472 1.355 . S
C473 C474 1.363 . S
C473 H485 0.929 . S
C474 C473 1.363 . S
C474 N476 1.375 . S
C474 H492 0.931 . S
C475 N472 1.311 . S
C475 N476 1.347 . S
C475 H486 0.929 . S
N476 C474 1.375 . S
N476 C475 1.347 . S
C477 C480 1.365 . S
C477 N482 1.328 1_455 S
C477 H483 0.929 . S
C478 C479 1.362 1_655 S
C478 C481 1.378 . S
C478 H493 0.929 . S
C479 C478 1.362 1_455 S
C479 C480 1.366 . S
C480 C477 1.365 . S
C480 C479 1.366 . S
C480 H494 0.930 . S
C481 C478 1.378 . S
C481 N482 1.315 . S
C481 H484 0.930 . S
N482 Co462 2.194 . S
N482 C477 1.328 1_655 S
N482 C481 1.315 . S
H483 C477 0.929 . S
H484 C481 0.930 . S
H485 C473 0.929 . S
H486 C475 0.929 . S
O487 Co462 2.351 . S
O487 C490 1.244 . S
O488 Co462 2.155 . S
O488 C490 1.240 . S
O489 Co462 2.096 . S
O489 C470 1.247 . S
C490 O487 1.244 . S
C490 O488 1.240 . S
H491 C465 0.931 . S
H492 C474 0.931 . S
H493 C478 0.929 . S
H494 C480 0.930 . S
Co495 N499 2.148 . S
Co495 N505 2.128 . S
Co495 N515 2.194 . S
Co495 O520 2.351 . S
Co495 O521 2.155 . S
Co495 O522 2.096 . S
C496 N499 1.301 . S
C496 N500 1.328 . S
C496 H501 0.930 . S
C497 C498 1.333 . S
C497 N499 1.317 . S
C497 H502 0.930 . S
C498 C497 1.333 . S
C498 N500 1.350 . S
C498 H524 0.931 . S
N499 Co495 2.148 . S
N499 C496 1.301 . S
N499 C497 1.317 . S
N500 C496 1.328 . S
N500 C498 1.350 . S
H501 C496 0.930 . S
H502 C497 0.930 . S
C503 O504 1.224 . S
C503 O522 1.247 . S
O504 C503 1.224 . S
N505 Co495 2.128 . S
N505 C506 1.355 . S
N505 C508 1.311 . S
C506 N505 1.355 . S
C506 C507 1.363 . S
C506 H518 0.929 . S
C507 C506 1.363 . S
C507 N509 1.375 . S
C507 H525 0.931 . S
C508 N505 1.311 . S
C508 N509 1.347 . S
C508 H519 0.929 . S
N509 C507 1.375 . S
N509 C508 1.347 . S
C510 C513 1.365 . S
C510 N515 1.328 . S
C510 H516 0.929 . S
C511 C512 1.362 . S
C511 C514 1.378 . S
C511 H526 0.929 . S
C512 C511 1.362 . S
C512 C513 1.366 . S
C513 C510 1.365 . S
C513 C512 1.366 . S
C513 H527 0.930 . S
C514 C511 1.378 . S
C514 N515 1.315 . S
C514 H517 0.930 . S
N515 Co495 2.194 . S
N515 C510 1.328 . S
N515 C514 1.315 . S
H516 C510 0.929 . S
H517 C514 0.930 . S
H518 C506 0.929 . S
H519 C508 0.929 . S
O520 Co495 2.351 . S
O520 C523 1.244 . S
O521 Co495 2.155 . S
O521 C523 1.240 . S
O522 Co495 2.096 . S
O522 C503 1.247 . S
C523 O520 1.244 . S
C523 O521 1.240 . S
H524 C498 0.931 . S
H525 C507 0.931 . S
H526 C511 0.929 . S
H527 C513 0.930 . S
H528 C536 0.929 . S
H529 C538 0.930 . S
H530 C540 0.930 . S
H531 C543 0.929 . S
H532 C546 0.930 . S
H533 C548 0.960 . S
H534 C548 0.960 . S
H535 C548 0.960 . S
C536 H528 0.929 . S
C536 C537 1.377 . S
C536 C538 1.384 . S
C537 C536 1.377 . S
C537 C543 1.390 . S
C538 H529 0.930 . S
C538 C536 1.384 . S
C538 C539 1.372 . S
C539 C538 1.372 . S
C539 C540 1.400 . S
C539 C544 1.490 . S
C540 H530 0.930 . S
C540 C539 1.400 . S
C540 C543 1.386 . S
H541 C557 0.930 . S
H542 C558 0.931 . S
C543 H531 0.929 . S
C543 C537 1.390 . S
C543 C540 1.386 . S
C544 C539 1.490 . S
C544 C546 1.395 . S
C544 C547 1.403 1_556 S
H545 C551 0.930 . S
C546 H532 0.930 . S
C546 C544 1.395 . S
C546 C549 1.403 . S
C547 C544 1.403 1_554 S
C547 C548 1.524 . S
C547 C551 1.400 . S
C548 H533 0.960 . S
C548 H534 0.960 . S
C548 H535 0.960 . S
C548 C547 1.524 . S
C549 C546 1.403 . S
C549 C550 1.392 1_556 S
C549 C553 1.495 . S
C550 C549 1.392 1_554 S
C550 C551 1.385 . S
C550 C552 1.478 . S
C551 H545 0.930 . S
C551 C547 1.400 . S
C551 C550 1.385 . S
C552 C550 1.478 . S
C552 C554 1.381 . S
C552 C558 1.383 . S
C553 C549 1.495 . S
C553 H559 0.959 . S
C553 H560 0.961 . S
C553 H561 0.960 . S
C554 C552 1.381 . S
C554 C555 1.394 . S
C554 H562 0.930 . S
C555 C554 1.394 . S
C555 C556 1.383 . S
C555 H563 0.929 . S
C556 C555 1.383 . S
C556 C557 1.377 . S
C557 H541 0.930 . S
C557 C556 1.377 . S
C557 C558 1.379 . S
C558 H542 0.931 . S
C558 C552 1.383 . S
C558 C557 1.379 . S
H559 C553 0.959 . S
H560 C553 0.961 . S
H561 C553 0.960 . S
H562 C554 0.930 . S
H563 C555 0.929 . S
H564 C572 0.929 . S
H565 C574 0.930 . S
H566 C576 0.930 . S
H567 C579 0.929 . S
H568 C582 0.930 . S
H569 C584 0.960 . S
H570 C584 0.960 . S
H571 C584 0.960 . S
C572 H564 0.929 . S
C572 C573 1.377 . S
C572 C574 1.384 . S
C573 C572 1.377 . S
C573 C579 1.390 . S
C574 H565 0.930 . S
C574 C572 1.384 . S
C574 C575 1.372 . S
C575 C574 1.372 . S
C575 C576 1.400 . S
C575 C580 1.490 . S
C576 H566 0.930 . S
C576 C575 1.400 . S
C576 C579 1.386 . S
H577 C593 0.930 . S
H578 C594 0.931 . S
C579 H567 0.929 . S
C579 C573 1.390 . S
C579 C576 1.386 . S
C580 C575 1.490 . S
C580 C582 1.395 . S
C580 C583 1.403 . S
H581 C587 0.930 . S
C582 H568 0.930 . S
C582 C580 1.395 . S
C582 C585 1.403 1_556 S
C583 C580 1.403 . S
C583 C584 1.524 . S
C583 C587 1.400 1_556 S
C584 H569 0.960 . S
C584 H570 0.960 . S
C584 H571 0.960 . S
C584 C583 1.524 . S
C585 C582 1.403 1_554 S
C585 C586 1.392 . S
C585 C589 1.495 . S
C586 C585 1.392 . S
C586 C587 1.385 . S
C586 C588 1.478 . S
C587 H581 0.930 . S
C587 C583 1.400 1_554 S
C587 C586 1.385 . S
C588 C586 1.478 . S
C588 C590 1.381 . S
C588 C594 1.383 . S
C589 C585 1.495 . S
C589 H595 0.959 . S
C589 H596 0.961 . S
C589 H597 0.960 . S
C590 C588 1.381 . S
C590 C591 1.394 . S
C590 H598 0.930 . S
C591 C590 1.394 . S
C591 C592 1.383 . S
C591 H599 0.929 . S
C592 C591 1.383 . S
C592 C593 1.377 . S
C593 H577 0.930 . S
C593 C592 1.377 . S
C593 C594 1.379 . S
C594 H578 0.931 . S
C594 C588 1.383 . S
C594 C593 1.379 . S
H595 C589 0.959 . S
H596 C589 0.961 . S
H597 C589 0.960 . S
H598 C590 0.930 . S
H599 C591 0.929 . S
H600 C608 0.929 . S
H601 C610 0.930 . S
H602 C612 0.930 . S
H603 C615 0.929 . S
H604 C618 0.930 . S
H605 C620 0.960 . S
H606 C620 0.960 . S
H607 C620 0.960 . S
C608 H600 0.929 . S
C608 C609 1.377 . S
C608 C610 1.384 . S
C609 C608 1.377 . S
C609 C615 1.390 . S
C610 H601 0.930 . S
C610 C608 1.384 . S
C610 C611 1.372 . S
C611 C610 1.372 . S
C611 C612 1.400 . S
C611 C616 1.490 . S
C612 H602 0.930 . S
C612 C611 1.400 . S
C612 C615 1.386 . S
H613 C629 0.930 . S
H614 C630 0.931 . S
C615 H603 0.929 . S
C615 C609 1.390 . S
C615 C612 1.386 . S
C616 C611 1.490 . S
C616 C618 1.395 . S
C616 C619 1.403 . S
H617 C623 0.930 . S
C618 H604 0.930 . S
C618 C616 1.395 . S
C618 C621 1.403 . S
C619 C616 1.403 . S
C619 C620 1.524 . S
C619 C623 1.400 . S
C620 H605 0.960 . S
C620 H606 0.960 . S
C620 H607 0.960 . S
C620 C619 1.524 . S
C621 C618 1.403 . S
C621 C622 1.392 . S
C621 C625 1.495 . S
C622 C621 1.392 . S
C622 C623 1.385 . S
C622 C624 1.478 . S
C623 H617 0.930 . S
C623 C619 1.400 . S
C623 C622 1.385 . S
C624 C622 1.478 . S
C624 C626 1.381 . S
C624 C630 1.383 . S
C625 C621 1.495 . S
C625 H631 0.959 . S
C625 H632 0.961 . S
C625 H633 0.960 . S
C626 C624 1.381 . S
C626 C627 1.394 . S
C626 H634 0.930 . S
C627 C626 1.394 . S
C627 C628 1.383 . S
C627 H635 0.929 . S
C628 C627 1.383 . S
C628 C629 1.377 . S
C629 H613 0.930 . S
C629 C628 1.377 . S
C629 C630 1.379 . S
C630 H614 0.931 . S
C630 C624 1.383 . S
C630 C629 1.379 . S
H631 C625 0.959 . S
H632 C625 0.961 . S
H633 C625 0.960 . S
H634 C626 0.930 . S
H635 C627 0.929 . S
H636 C644 0.929 . S
H637 C646 0.930 . S
H638 C648 0.930 . S
H639 C651 0.929 . S
H640 C654 0.930 . S
H641 C656 0.960 . S
H642 C656 0.960 . S
H643 C656 0.960 . S
C644 H636 0.929 . S
C644 C645 1.377 . S
C644 C646 1.384 . S
C645 C644 1.377 . S
C645 C651 1.390 . S
C646 H637 0.930 . S
C646 C644 1.384 . S
C646 C647 1.372 . S
C647 C646 1.372 . S
C647 C648 1.400 . S
C647 C652 1.490 . S
C648 H638 0.930 . S
C648 C647 1.400 . S
C648 C651 1.386 . S
H649 C665 0.930 . S
H650 C666 0.931 . S
C651 H639 0.929 . S
C651 C645 1.390 . S
C651 C648 1.386 . S
C652 C647 1.490 . S
C652 C654 1.395 . S
C652 C655 1.403 . S
H653 C659 0.930 . S
C654 H640 0.930 . S
C654 C652 1.395 . S
C654 C657 1.403 . S
C655 C652 1.403 . S
C655 C656 1.524 . S
C655 C659 1.400 . S
C656 H641 0.960 . S
C656 H642 0.960 . S
C656 H643 0.960 . S
C656 C655 1.524 . S
C657 C654 1.403 . S
C657 C658 1.392 . S
C657 C661 1.495 . S
C658 C657 1.392 . S
C658 C659 1.385 . S
C658 C660 1.478 . S
C659 H653 0.930 . S
C659 C655 1.400 . S
C659 C658 1.385 . S
C660 C658 1.478 . S
C660 C662 1.381 . S
C660 C666 1.383 . S
C661 C657 1.495 . S
C661 H667 0.959 . S
C661 H668 0.961 . S
C661 H669 0.960 . S
C662 C660 1.381 . S
C662 C663 1.394 . S
C662 H670 0.930 . S
C663 C662 1.394 . S
C663 C664 1.383 . S
C663 H671 0.929 . S
C664 C663 1.383 . S
C664 C665 1.377 . S
C665 H649 0.930 . S
C665 C664 1.377 . S
C665 C666 1.379 . S
C666 H650 0.931 . S
C666 C660 1.383 . S
C666 C665 1.379 . S
H667 C661 0.959 . S
H668 C661 0.961 . S
H669 C661 0.960 . S
H670 C662 0.930 . S
H671 C663 0.929 . S
H672 C680 0.929 . S
H673 C682 0.930 . S
H674 C684 0.930 . S
H675 C687 0.929 . S
H676 C690 0.930 . S
H677 C692 0.960 . S
H678 C692 0.960 . S
H679 C692 0.960 . S
C680 H672 0.929 . S
C680 C681 1.377 . S
C680 C682 1.384 . S
C681 C680 1.377 . S
C681 C687 1.390 . S
C682 H673 0.930 . S
C682 C680 1.384 . S
C682 C683 1.372 . S
C683 C682 1.372 . S
C683 C684 1.400 . S
C683 C688 1.490 . S
C684 H674 0.930 . S
C684 C683 1.400 . S
C684 C687 1.386 . S
H685 C701 0.930 . S
H686 C702 0.931 . S
C687 H675 0.929 . S
C687 C681 1.390 . S
C687 C684 1.386 . S
C688 C683 1.490 . S
C688 C690 1.395 . S
C688 C691 1.403 . S
H689 C695 0.930 . S
C690 H676 0.930 . S
C690 C688 1.395 . S
C690 C693 1.403 1_556 S
C691 C688 1.403 . S
C691 C692 1.524 . S
C691 C695 1.400 . S
C692 H677 0.960 . S
C692 H678 0.960 . S
C692 H679 0.960 . S
C692 C691 1.524 . S
C693 C690 1.403 1_554 S
C693 C694 1.392 . S
C693 C697 1.495 . S
C694 C693 1.392 . S
C694 C695 1.385 1_554 S
C694 C696 1.478 . S
C695 H689 0.930 . S
C695 C691 1.400 . S
C695 C694 1.385 1_556 S
C696 C694 1.478 . S
C696 C698 1.381 . S
C696 C702 1.383 . S
C697 C693 1.495 . S
C697 H703 0.959 . S
C697 H704 0.961 . S
C697 H705 0.960 . S
C698 C696 1.381 . S
C698 C699 1.394 . S
C698 H706 0.930 . S
C699 C698 1.394 . S
C699 C700 1.383 . S
C699 H707 0.929 . S
C700 C699 1.383 . S
C700 C701 1.377 . S
C701 H685 0.930 . S
C701 C700 1.377 . S
C701 C702 1.379 . S
C702 H686 0.931 . S
C702 C696 1.383 . S
C702 C701 1.379 . S
H703 C697 0.959 . S
H704 C697 0.961 . S
H705 C697 0.960 . S
H706 C698 0.930 . S
H707 C699 0.929 . S
H708 C716 0.929 . S
H709 C718 0.930 . S
H710 C720 0.930 . S
H711 C723 0.929 . S
H712 C726 0.930 . S
H713 C728 0.960 . S
H714 C728 0.960 . S
H715 C728 0.960 . S
C716 H708 0.929 . S
C716 C717 1.377 . S
C716 C718 1.384 . S
C717 C716 1.377 . S
C717 C723 1.390 . S
C718 H709 0.930 . S
C718 C716 1.384 . S
C718 C719 1.372 . S
C719 C718 1.372 . S
C719 C720 1.400 . S
C719 C724 1.490 . S
C720 H710 0.930 . S
C720 C719 1.400 . S
C720 C723 1.386 . S
H721 C737 0.930 . S
H722 C738 0.931 . S
C723 H711 0.929 . S
C723 C717 1.390 . S
C723 C720 1.386 . S
C724 C719 1.490 . S
C724 C726 1.395 . S
C724 C727 1.403 . S
H725 C731 0.930 . S
C726 H712 0.930 . S
C726 C724 1.395 . S
C726 C729 1.403 1_556 S
C727 C724 1.403 . S
C727 C728 1.524 . S
C727 C731 1.400 . S
C728 H713 0.960 . S
C728 H714 0.960 . S
C728 H715 0.960 . S
C728 C727 1.524 . S
C729 C726 1.403 1_554 S
C729 C730 1.392 . S
C729 C733 1.495 . S
C730 C729 1.392 . S
C730 C731 1.385 1_554 S
C730 C732 1.478 . S
C731 H725 0.930 . S
C731 C727 1.400 . S
C731 C730 1.385 1_556 S
C732 C730 1.478 . S
C732 C734 1.381 . S
C732 C738 1.383 . S
C733 C729 1.495 . S
C733 H739 0.959 . S
C733 H740 0.961 . S
C733 H741 0.960 . S
C734 C732 1.381 . S
C734 C735 1.394 . S
C734 H742 0.930 . S
C735 C734 1.394 . S
C735 C736 1.383 . S
C735 H743 0.929 . S
C736 C735 1.383 . S
C736 C737 1.377 . S
C737 H721 0.930 . S
C737 C736 1.377 . S
C737 C738 1.379 . S
C738 H722 0.931 . S
C738 C732 1.383 . S
C738 C737 1.379 . S
H739 C733 0.959 . S
H740 C733 0.961 . S
H741 C733 0.960 . S
H742 C734 0.930 . S
H743 C735 0.929 . S
H744 C752 0.929 . S
H745 C754 0.930 . S
H746 C756 0.930 . S
H747 C759 0.929 . S
H748 C762 0.930 . S
H749 C764 0.960 . S
H750 C764 0.960 . S
H751 C764 0.960 . S
C752 H744 0.929 . S
C752 C753 1.377 . S
C752 C754 1.384 . S
C753 C752 1.377 . S
C753 C759 1.390 . S
C754 H745 0.930 . S
C754 C752 1.384 . S
C754 C755 1.372 . S
C755 C754 1.372 . S
C755 C756 1.400 . S
C755 C760 1.490 . S
C756 H746 0.930 . S
C756 C755 1.400 . S
C756 C759 1.386 . S
H757 C773 0.930 . S
H758 C774 0.931 . S
C759 H747 0.929 . S
C759 C753 1.390 . S
C759 C756 1.386 . S
C760 C755 1.490 . S
C760 C762 1.395 . S
C760 C763 1.403 . S
H761 C767 0.930 . S
C762 H748 0.930 . S
C762 C760 1.395 . S
C762 C765 1.403 . S
C763 C760 1.403 . S
C763 C764 1.524 . S
C763 C767 1.400 . S
C764 H749 0.960 . S
C764 H750 0.960 . S
C764 H751 0.960 . S
C764 C763 1.524 . S
C765 C762 1.403 . S
C765 C766 1.392 . S
C765 C769 1.495 . S
C766 C765 1.392 . S
C766 C767 1.385 . S
C766 C768 1.478 . S
C767 H761 0.930 . S
C767 C763 1.400 . S
C767 C766 1.385 . S
C768 C766 1.478 . S
C768 C770 1.381 . S
C768 C774 1.383 . S
C769 C765 1.495 . S
C769 H775 0.959 . S
C769 H776 0.961 . S
C769 H777 0.960 . S
C770 C768 1.381 . S
C770 C771 1.394 . S
C770 H778 0.930 . S
C771 C770 1.394 . S
C771 C772 1.383 . S
C771 H779 0.929 . S
C772 C771 1.383 . S
C772 C773 1.377 . S
C773 H757 0.930 . S
C773 C772 1.377 . S
C773 C774 1.379 . S
C774 H758 0.931 . S
C774 C768 1.383 . S
C774 C773 1.379 . S
H775 C769 0.959 . S
H776 C769 0.961 . S
H777 C769 0.960 . S
H778 C770 0.930 . S
H779 C771 0.929 . S
H780 C788 0.929 . S
H781 C790 0.930 . S
H782 C792 0.930 . S
H783 C795 0.929 . S
H784 C798 0.930 . S
H785 C800 0.960 . S
H786 C800 0.960 . S
H787 C800 0.960 . S
C788 H780 0.929 . S
C788 C789 1.377 . S
C788 C790 1.384 . S
C789 C788 1.377 . S
C789 C795 1.390 . S
C790 H781 0.930 . S
C790 C788 1.384 . S
C790 C791 1.372 . S
C791 C790 1.372 . S
C791 C792 1.400 . S
C791 C796 1.490 . S
C792 H782 0.930 . S
C792 C791 1.400 . S
C792 C795 1.386 . S
H793 C809 0.930 . S
H794 C810 0.931 . S
C795 H783 0.929 . S
C795 C789 1.390 . S
C795 C792 1.386 . S
C796 C791 1.490 . S
C796 C798 1.395 . S
C796 C799 1.403 . S
H797 C803 0.930 . S
C798 H784 0.930 . S
C798 C796 1.395 . S
C798 C801 1.403 . S
C799 C796 1.403 . S
C799 C800 1.524 . S
C799 C803 1.400 . S
C800 H785 0.960 . S
C800 H786 0.960 . S
C800 H787 0.960 . S
C800 C799 1.524 . S
C801 C798 1.403 . S
C801 C802 1.392 . S
C801 C805 1.495 . S
C802 C801 1.392 . S
C802 C803 1.385 . S
C802 C804 1.478 . S
C803 H797 0.930 . S
C803 C799 1.400 . S
C803 C802 1.385 . S
C804 C802 1.478 . S
C804 C806 1.381 . S
C804 C810 1.383 . S
C805 C801 1.495 . S
C805 H811 0.959 . S
C805 H812 0.961 . S
C805 H813 0.960 . S
C806 C804 1.381 . S
C806 C807 1.394 . S
C806 H814 0.930 . S
C807 C806 1.394 . S
C807 C808 1.383 . S
C807 H815 0.929 . S
C808 C807 1.383 . S
C808 C809 1.377 . S
C809 H793 0.930 . S
C809 C808 1.377 . S
C809 C810 1.379 . S
C810 H794 0.931 . S
C810 C804 1.383 . S
C810 C809 1.379 . S
H811 C805 0.959 . S
H812 C805 0.961 . S
H813 C805 0.960 . S
H814 C806 0.930 . S
H815 C807 0.929 . S
H816 C824 0.929 . S
H817 C826 0.930 . S
H818 C828 0.930 . S
H819 C831 0.929 . S
H820 C834 0.930 . S
H821 C836 0.960 . S
H822 C836 0.960 . S
H823 C836 0.960 . S
C824 H816 0.929 . S
C824 C825 1.377 . S
C824 C826 1.384 . S
C825 C824 1.377 . S
C825 C831 1.390 . S
C826 H817 0.930 . S
C826 C824 1.384 . S
C826 C827 1.372 . S
C827 C826 1.372 . S
C827 C828 1.400 . S
C827 C832 1.490 . S
C828 H818 0.930 . S
C828 C827 1.400 . S
C828 C831 1.386 . S
H829 C845 0.930 . S
H830 C846 0.931 . S
C831 H819 0.929 . S
C831 C825 1.390 . S
C831 C828 1.386 . S
C832 C827 1.490 . S
C832 C834 1.395 . S
C832 C835 1.403 1_554 S
H833 C839 0.930 . S
C834 H820 0.930 . S
C834 C832 1.395 . S
C834 C837 1.403 . S
C835 C832 1.403 1_556 S
C835 C836 1.524 . S
C835 C839 1.400 . S
C836 H821 0.960 . S
C836 H822 0.960 . S
C836 H823 0.960 . S
C836 C835 1.524 . S
C837 C834 1.403 . S
C837 C838 1.392 1_554 S
C837 C841 1.495 . S
C838 C837 1.392 1_556 S
C838 C839 1.385 . S
C838 C840 1.478 . S
C839 H833 0.930 . S
C839 C835 1.400 . S
C839 C838 1.385 . S
C840 C838 1.478 . S
C840 C842 1.381 . S
C840 C846 1.383 . S
C841 C837 1.495 . S
C841 H847 0.959 . S
C841 H848 0.961 . S
C841 H849 0.960 . S
C842 C840 1.381 . S
C842 C843 1.394 . S
C842 H850 0.930 . S
C843 C842 1.394 . S
C843 C844 1.383 . S
C843 H851 0.929 . S
C844 C843 1.383 . S
C844 C845 1.377 . S
C845 H829 0.930 . S
C845 C844 1.377 . S
C845 C846 1.379 . S
C846 H830 0.931 . S
C846 C840 1.383 . S
C846 C845 1.379 . S
H847 C841 0.959 . S
H848 C841 0.961 . S
H849 C841 0.960 . S
H850 C842 0.930 . S
H851 C843 0.929 . S
H852 C860 0.929 . S
H853 C862 0.930 . S
H854 C864 0.930 . S
H855 C867 0.929 . S
H856 C870 0.930 . S
H857 C872 0.960 . S
H858 C872 0.960 . S
H859 C872 0.960 . S
C860 H852 0.929 . S
C860 C861 1.377 . S
C860 C862 1.384 . S
C861 C860 1.377 . S
C861 C867 1.390 . S
C862 H853 0.930 . S
C862 C860 1.384 . S
C862 C863 1.372 . S
C863 C862 1.372 . S
C863 C864 1.400 . S
C863 C868 1.490 . S
C864 H854 0.930 . S
C864 C863 1.400 . S
C864 C867 1.386 . S
H865 C881 0.930 . S
H866 C882 0.931 . S
C867 H855 0.929 . S
C867 C861 1.390 . S
C867 C864 1.386 . S
C868 C863 1.490 . S
C868 C870 1.395 . S
C868 C871 1.403 1_554 S
H869 C875 0.930 . S
C870 H856 0.930 . S
C870 C868 1.395 . S
C870 C873 1.403 . S
C871 C868 1.403 1_556 S
C871 C872 1.524 . S
C871 C875 1.400 . S
C872 H857 0.960 . S
C872 H858 0.960 . S
C872 H859 0.960 . S
C872 C871 1.524 . S
C873 C870 1.403 . S
C873 C874 1.392 1_554 S
C873 C877 1.495 . S
C874 C873 1.392 1_556 S
C874 C875 1.385 . S
C874 C876 1.478 . S
C875 H869 0.930 . S
C875 C871 1.400 . S
C875 C874 1.385 . S
C876 C874 1.478 . S
C876 C878 1.381 . S
C876 C882 1.383 . S
C877 C873 1.495 . S
C877 H883 0.959 . S
C877 H884 0.961 . S
C877 H885 0.960 . S
C878 C876 1.381 . S
C878 C879 1.394 . S
C878 H886 0.930 . S
C879 C878 1.394 . S
C879 C880 1.383 . S
C879 H887 0.929 . S
C880 C879 1.383 . S
C880 C881 1.377 . S
C881 H865 0.930 . S
C881 C880 1.377 . S
C881 C882 1.379 . S
C882 H866 0.931 . S
C882 C876 1.383 . S
C882 C881 1.379 . S
H883 C877 0.959 . S
H884 C877 0.961 . S
H885 C877 0.960 . S
H886 C878 0.930 . S
H887 C879 0.929 . S
H888 C896 0.929 . S
H889 C898 0.930 . S
H890 C900 0.930 . S
H891 C903 0.929 . S
H892 C906 0.930 . S
H893 C908 0.960 . S
H894 C908 0.960 . S
H895 C908 0.960 . S
C896 H888 0.929 . S
C896 C897 1.377 . S
C896 C898 1.384 . S
C897 C896 1.377 . S
C897 C903 1.390 . S
C898 H889 0.930 . S
C898 C896 1.384 . S
C898 C899 1.372 . S
C899 C898 1.372 . S
C899 C900 1.400 . S
C899 C904 1.490 . S
C900 H890 0.930 . S
C900 C899 1.400 . S
C900 C903 1.386 . S
H901 C917 0.930 . S
H902 C918 0.931 . S
C903 H891 0.929 . S
C903 C897 1.390 . S
C903 C900 1.386 . S
C904 C899 1.490 . S
C904 C906 1.395 . S
C904 C907 1.403 . S
H905 C911 0.930 . S
C906 H892 0.930 . S
C906 C904 1.395 . S
C906 C909 1.403 . S
C907 C904 1.403 . S
C907 C908 1.524 . S
C907 C911 1.400 . S
C908 H893 0.960 . S
C908 H894 0.960 . S
C908 H895 0.960 . S
C908 C907 1.524 . S
C909 C906 1.403 . S
C909 C910 1.392 . S
C909 C913 1.495 . S
C910 C909 1.392 . S
C910 C911 1.385 . S
C910 C912 1.478 . S
C911 H905 0.930 . S
C911 C907 1.400 . S
C911 C910 1.385 . S
C912 C910 1.478 . S
C912 C914 1.381 . S
C912 C918 1.383 . S
C913 C909 1.495 . S
C913 H919 0.959 . S
C913 H920 0.961 . S
C913 H921 0.960 . S
C914 C912 1.381 . S
C914 C915 1.394 . S
C914 H922 0.930 . S
C915 C914 1.394 . S
C915 C916 1.383 . S
C915 H923 0.929 . S
C916 C915 1.383 . S
C916 C917 1.377 . S
C917 H901 0.930 . S
C917 C916 1.377 . S
C917 C918 1.379 . S
C918 H902 0.931 . S
C918 C912 1.383 . S
C918 C917 1.379 . S
H919 C913 0.959 . S
H920 C913 0.961 . S
H921 C913 0.960 . S
H922 C914 0.930 . S
H923 C915 0.929 . S
H924 C932 0.929 . S
H925 C934 0.930 . S
H926 C936 0.930 . S
H927 C939 0.929 . S
H928 C942 0.930 . S
H929 C944 0.960 . S
H930 C944 0.960 . S
H931 C944 0.960 . S
C932 H924 0.929 . S
C932 C933 1.377 . S
C932 C934 1.384 . S
C933 C932 1.377 . S
C933 C939 1.390 . S
C934 H925 0.930 . S
C934 C932 1.384 . S
C934 C935 1.372 . S
C935 C934 1.372 . S
C935 C936 1.400 . S
C935 C940 1.490 . S
C936 H926 0.930 . S
C936 C935 1.400 . S
C936 C939 1.386 . S
H937 C953 0.930 . S
H938 C954 0.931 . S
C939 H927 0.929 . S
C939 C933 1.390 . S
C939 C936 1.386 . S
C940 C935 1.490 . S
C940 C942 1.395 . S
C940 C943 1.403 . S
H941 C947 0.930 . S
C942 H928 0.930 . S
C942 C940 1.395 . S
C942 C945 1.403 . S
C943 C940 1.403 . S
C943 C944 1.524 . S
C943 C947 1.400 . S
C944 H929 0.960 . S
C944 H930 0.960 . S
C944 H931 0.960 . S
C944 C943 1.524 . S
C945 C942 1.403 . S
C945 C946 1.392 . S
C945 C949 1.495 . S
C946 C945 1.392 . S
C946 C947 1.385 . S
C946 C948 1.478 . S
C947 H941 0.930 . S
C947 C943 1.400 . S
C947 C946 1.385 . S
C948 C946 1.478 . S
C948 C950 1.381 . S
C948 C954 1.383 . S
C949 C945 1.495 . S
C949 H955 0.959 . S
C949 H956 0.961 . S
C949 H957 0.960 . S
C950 C948 1.381 . S
C950 C951 1.394 . S
C950 H958 0.930 . S
C951 C950 1.394 . S
C951 C952 1.383 . S
C951 H959 0.929 . S
C952 C951 1.383 . S
C952 C953 1.377 . S
C953 H937 0.930 . S
C953 C952 1.377 . S
C953 C954 1.379 . S
C954 H938 0.931 . S
C954 C948 1.383 . S
C954 C953 1.379 . S
H955 C949 0.959 . S
H956 C949 0.961 . S
H957 C949 0.960 . S
H958 C950 0.930 . S
H959 C951 0.929 . S
H960 C968 0.929 . S
H961 C970 0.930 . S
H962 C972 0.930 . S
H963 C975 0.929 . S
H964 C978 0.930 . S
H965 C980 0.960 . S
H966 C980 0.960 . S
H967 C980 0.960 . S
C968 H960 0.929 . S
C968 C969 1.377 . S
C968 C970 1.384 . S
C969 C968 1.377 . S
C969 C975 1.390 . S
C970 H961 0.930 . S
C970 C968 1.384 . S
C970 C971 1.372 . S
C971 C970 1.372 . S
C971 C972 1.400 . S
C971 C976 1.490 . S
C972 H962 0.930 . S
C972 C971 1.400 . S
C972 C975 1.386 . S
H973 C989 0.930 . S
H974 C990 0.931 . S
C975 H963 0.929 . S
C975 C969 1.390 . S
C975 C972 1.386 . S
C976 C971 1.490 . S
C976 C978 1.395 . S
C976 C979 1.403 . S
H977 C983 0.930 . S
C978 H964 0.930 . S
C978 C976 1.395 . S
C978 C981 1.403 1_556 S
C979 C976 1.403 . S
C979 C980 1.524 . S
C979 C983 1.400 . S
C980 H965 0.960 . S
C980 H966 0.960 . S
C980 H967 0.960 . S
C980 C979 1.524 . S
C981 C978 1.403 1_554 S
C981 C982 1.395 . S
C981 C985 1.495 . S
C982 C981 1.395 . S
C982 C983 1.371 1_554 S
C982 C984 1.488 . S
C983 H977 0.930 . S
C983 C979 1.400 . S
C983 C982 1.371 1_556 S
C984 C982 1.488 . S
C984 C986 1.381 . S
C984 C990 1.383 . S
C985 C981 1.495 . S
C985 H991 0.959 . S
C985 H992 0.961 . S
C985 H993 0.960 . S
C986 C984 1.381 . S
C986 C987 1.394 . S
C986 H994 0.930 . S
C987 C986 1.394 . S
C987 C988 1.383 . S
C987 H995 0.929 . S
C988 C987 1.383 . S
C988 C989 1.377 . S
C989 H973 0.930 . S
C989 C988 1.377 . S
C989 C990 1.379 . S
C990 H974 0.931 . S
C990 C984 1.383 . S
C990 C989 1.379 . S
H991 C985 0.959 . S
H992 C985 0.961 . S
H993 C985 0.960 . S
H994 C986 0.930 . S
H995 C987 0.929 . S
H996 C1004 0.929 . S
H997 C1006 0.930 . S
H998 C1008 0.930 . S
H999 C1011 0.929 . S
H1000 C1014 0.930 . S
H1001 C1016 0.960 . S
H1002 C1016 0.960 . S
H1003 C1016 0.960 . S
C1004 H996 0.929 . S
C1004 C1005 1.377 . S
C1004 C1006 1.384 . S
C1005 C1004 1.377 . S
C1005 C1011 1.390 . S
C1006 H997 0.930 . S
C1006 C1004 1.384 . S
C1006 C1007 1.372 . S
C1007 C1006 1.372 . S
C1007 C1008 1.400 . S
C1007 C1012 1.490 . S
C1008 H998 0.930 . S
C1008 C1007 1.400 . S
C1008 C1011 1.386 . S
H1009 C1025 0.930 . S
H1010 C1026 0.931 . S
C1011 H999 0.929 . S
C1011 C1005 1.390 . S
C1011 C1008 1.386 . S
C1012 C1007 1.490 . S
C1012 C1014 1.395 . S
C1012 C1015 1.403 . S
H1013 C1019 0.930 . S
C1014 H1000 0.930 . S
C1014 C1012 1.395 . S
C1014 C1017 1.403 1_556 S
C1015 C1012 1.403 . S
C1015 C1016 1.524 . S
C1015 C1019 1.400 . S
C1016 H1001 0.960 . S
C1016 H1002 0.960 . S
C1016 H1003 0.960 . S
C1016 C1015 1.524 . S
C1017 C1014 1.403 1_554 S
C1017 C1018 1.398 . S
C1017 C1021 1.495 . S
C1018 C1017 1.398 . S
C1018 C1019 1.361 1_554 S
C1018 C1020 1.496 . S
C1019 H1013 0.930 . S
C1019 C1015 1.400 . S
C1019 C1018 1.361 1_556 S
C1020 C1018 1.496 . S
C1020 C1022 1.381 . S
C1020 C1026 1.383 . S
C1021 C1017 1.495 . S
C1021 H1027 0.959 . S
C1021 H1028 0.961 . S
C1021 H1029 0.960 . S
C1022 C1020 1.381 . S
C1022 C1023 1.394 . S
C1022 H1030 0.930 . S
C1023 C1022 1.394 . S
C1023 C1024 1.383 . S
C1023 H1031 0.929 . S
C1024 C1023 1.383 . S
C1024 C1025 1.377 . S
C1025 H1009 0.930 . S
C1025 C1024 1.377 . S
C1025 C1026 1.379 . S
C1026 H1010 0.931 . S
C1026 C1020 1.383 . S
C1026 C1025 1.379 . S
H1027 C1021 0.959 . S
H1028 C1021 0.961 . S
H1029 C1021 0.960 . S
H1030 C1022 0.930 . S
H1031 C1023 0.929 . S
H1032 C1040 0.929 . S
H1033 C1042 0.930 . S
H1034 C1044 0.930 . S
H1035 C1047 0.929 . S
H1036 C1050 0.930 . S
H1037 C1052 0.960 . S
H1038 C1052 0.960 . S
H1039 C1052 0.960 . S
C1040 H1032 0.929 . S
C1040 C1041 1.377 . S
C1040 C1042 1.384 . S
C1041 C1040 1.377 . S
C1041 C1047 1.390 . S
C1042 H1033 0.930 . S
C1042 C1040 1.384 . S
C1042 C1043 1.372 . S
C1043 C1042 1.372 . S
C1043 C1044 1.400 . S
C1043 C1048 1.490 . S
C1044 H1034 0.930 . S
C1044 C1043 1.400 . S
C1044 C1047 1.386 . S
H1045 C1061 0.930 . S
H1046 C1062 0.931 . S
C1047 H1035 0.929 . S
C1047 C1041 1.390 . S
C1047 C1044 1.386 . S
C1048 C1043 1.490 . S
C1048 C1050 1.395 . S
C1048 C1051 1.403 . S
H1049 C1055 0.930 . S
C1050 H1036 0.930 . S
C1050 C1048 1.395 . S
C1050 C1053 1.403 . S
C1051 C1048 1.403 . S
C1051 C1052 1.524 . S
C1051 C1055 1.400 . S
C1052 H1037 0.960 . S
C1052 H1038 0.960 . S
C1052 H1039 0.960 . S
C1052 C1051 1.524 . S
C1053 C1050 1.403 . S
C1053 C1054 1.392 . S
C1053 C1057 1.495 . S
C1054 C1053 1.392 . S
C1054 C1055 1.385 . S
C1054 C1056 1.478 . S
C1055 H1049 0.930 . S
C1055 C1051 1.400 . S
C1055 C1054 1.385 . S
C1056 C1054 1.478 . S
C1056 C1058 1.381 . S
C1056 C1062 1.383 . S
C1057 C1053 1.495 . S
C1057 H1063 0.959 . S
C1057 H1064 0.961 . S
C1057 H1065 0.960 . S
C1058 C1056 1.381 . S
C1058 C1059 1.394 . S
C1058 H1066 0.930 . S
C1059 C1058 1.394 . S
C1059 C1060 1.383 . S
C1059 H1067 0.929 . S
C1060 C1059 1.383 . S
C1060 C1061 1.377 . S
C1061 H1045 0.930 . S
C1061 C1060 1.377 . S
C1061 C1062 1.379 . S
C1062 H1046 0.931 . S
C1062 C1056 1.383 . S
C1062 C1061 1.379 . S
H1063 C1057 0.959 . S
H1064 C1057 0.961 . S
H1065 C1057 0.960 . S
H1066 C1058 0.930 . S
H1067 C1059 0.929 . S
H1068 C1076 0.929 . S
H1069 C1078 0.930 . S
H1070 C1080 0.930 . S
H1071 C1083 0.929 . S
H1072 C1086 0.930 . S
H1073 C1088 0.960 . S
H1074 C1088 0.960 . S
H1075 C1088 0.960 . S
C1076 H1068 0.929 . S
C1076 C1077 1.377 . S
C1076 C1078 1.384 . S
C1077 C1076 1.377 . S
C1077 C1083 1.390 . S
C1078 H1069 0.930 . S
C1078 C1076 1.384 . S
C1078 C1079 1.372 . S
C1079 C1078 1.372 . S
C1079 C1080 1.400 . S
C1079 C1084 1.490 . S
C1080 H1070 0.930 . S
C1080 C1079 1.400 . S
C1080 C1083 1.386 . S
H1081 C1097 0.930 . S
H1082 C1098 0.931 . S
C1083 H1071 0.929 . S
C1083 C1077 1.390 . S
C1083 C1080 1.386 . S
C1084 C1079 1.490 . S
C1084 C1086 1.395 . S
C1084 C1087 1.403 . S
H1085 C1091 0.930 . S
C1086 H1072 0.930 . S
C1086 C1084 1.395 . S
C1086 C1089 1.403 . S
C1087 C1084 1.403 . S
C1087 C1088 1.524 . S
C1087 C1091 1.400 . S
C1088 H1073 0.960 . S
C1088 H1074 0.960 . S
C1088 H1075 0.960 . S
C1088 C1087 1.524 . S
C1089 C1086 1.403 . S
C1089 C1090 1.392 . S
C1089 C1093 1.495 . S
C1090 C1089 1.392 . S
C1090 C1091 1.385 . S
C1090 C1092 1.478 . S
C1091 H1085 0.930 . S
C1091 C1087 1.400 . S
C1091 C1090 1.385 . S
C1092 C1090 1.478 . S
C1092 C1094 1.381 . S
C1092 C1098 1.383 . S
C1093 C1089 1.495 . S
C1093 H1099 0.959 . S
C1093 H1100 0.961 . S
C1093 H1101 0.960 . S
C1094 C1092 1.381 . S
C1094 C1095 1.394 . S
C1094 H1102 0.930 . S
C1095 C1094 1.394 . S
C1095 C1096 1.383 . S
C1095 H1103 0.929 . S
C1096 C1095 1.383 . S
C1096 C1097 1.377 . S
C1097 H1081 0.930 . S
C1097 C1096 1.377 . S
C1097 C1098 1.379 . S
C1098 H1082 0.931 . S
C1098 C1092 1.383 . S
C1098 C1097 1.379 . S
H1099 C1093 0.959 . S
H1100 C1093 0.961 . S
H1101 C1093 0.960 . S
H1102 C1094 0.930 . S
H1103 C1095 0.929 . S
H1104 C1112 0.929 . S
H1105 C1114 0.930 . S
H1106 C1116 0.930 . S
H1107 C1119 0.929 . S
H1108 C1122 0.930 . S
H1109 C1124 0.960 . S
H1110 C1124 0.960 1_545 S
H1111 C1124 0.960 . S
C1112 H1104 0.929 . S
C1112 C1113 1.377 . S
C1112 C1114 1.384 . S
C1113 C1112 1.377 . S
C1113 C1119 1.390 . S
C1114 H1105 0.930 . S
C1114 C1112 1.384 . S
C1114 C1115 1.372 . S
C1115 C1114 1.372 . S
C1115 C1116 1.400 . S
C1115 C1120 1.490 . S
C1116 H1106 0.930 . S
C1116 C1115 1.400 . S
C1116 C1119 1.386 . S
H1117 C1133 0.930 . S
H1118 C1134 0.931 . S
C1119 H1107 0.929 . S
C1119 C1113 1.390 . S
C1119 C1116 1.386 . S
C1120 C1115 1.490 . S
C1120 C1122 1.395 . S
C1120 C1123 1.352 1_545 S
H1121 C1127 0.930 . S
C1122 H1108 0.930 . S
C1122 C1120 1.395 . S
C1122 C1125 1.404 1_545 S
C1123 C1120 1.352 1_565 S
C1123 C1124 1.529 . S
C1123 C1127 1.449 . S
C1124 H1109 0.960 . S
C1124 H1110 0.960 1_565 S
C1124 H1111 0.960 . S
C1124 C1123 1.529 . S
C1125 C1122 1.404 1_565 S
C1125 C1126 1.392 . S
C1125 C1129 1.493 1_565 S
C1126 C1125 1.392 . S
C1126 C1127 1.385 . S
C1126 C1128 1.478 . S
C1127 H1121 0.930 . S
C1127 C1123 1.449 . S
C1127 C1126 1.385 . S
C1128 C1126 1.478 . S
C1128 C1130 1.381 . S
C1128 C1134 1.383 . S
C1129 C1125 1.493 1_545 S
C1129 H1135 1.008 . S
C1129 H1136 0.915 1_545 S
C1129 H1137 0.963 . S
C1130 C1128 1.381 . S
C1130 C1131 1.394 . S
C1130 H1138 0.930 . S
C1131 C1130 1.394 . S
C1131 C1132 1.383 . S
C1131 H1139 0.929 . S
C1132 C1131 1.383 . S
C1132 C1133 1.377 . S
C1133 H1117 0.930 . S
C1133 C1132 1.377 . S
C1133 C1134 1.379 . S
C1134 H1118 0.931 . S
C1134 C1128 1.383 . S
C1134 C1133 1.379 . S
H1135 C1129 1.008 . S
H1136 C1129 0.915 1_565 S
H1137 C1129 0.963 . S
H1138 C1130 0.930 . S
H1139 C1131 0.929 . S
H1140 C1148 0.929 . S
H1141 C1150 0.930 . S
H1142 C1152 0.930 . S
H1143 C1155 0.929 . S
H1144 C1158 0.930 . S
H1145 C1160 0.960 . S
H1146 C1160 0.960 . S
H1147 C1160 0.960 . S
C1148 H1140 0.929 . S
C1148 C1149 1.377 . S
C1148 C1150 1.384 . S
C1149 C1148 1.377 . S
C1149 C1155 1.390 . S
C1150 H1141 0.930 . S
C1150 C1148 1.384 . S
C1150 C1151 1.372 . S
C1151 C1150 1.372 . S
C1151 C1152 1.400 . S
C1151 C1156 1.490 . S
C1152 H1142 0.930 . S
C1152 C1151 1.400 . S
C1152 C1155 1.386 . S
H1153 C1169 0.930 . S
H1154 C1170 0.931 . S
C1155 H1143 0.929 . S
C1155 C1149 1.390 . S
C1155 C1152 1.386 . S
C1156 C1151 1.490 . S
C1156 C1158 1.395 . S
C1156 C1159 1.403 1_565 S
H1157 C1163 0.930 . S
C1158 H1144 0.930 . S
C1158 C1156 1.395 . S
C1158 C1161 1.403 . S
C1159 C1156 1.403 1_545 S
C1159 C1160 1.524 . S
C1159 C1163 1.400 . S
C1160 H1145 0.960 . S
C1160 H1146 0.960 . S
C1160 H1147 0.960 . S
C1160 C1159 1.524 . S
C1161 C1158 1.403 . S
C1161 C1162 1.392 1_565 S
C1161 C1165 1.495 . S
C1162 C1161 1.392 1_545 S
C1162 C1163 1.385 . S
C1162 C1164 1.478 . S
C1163 H1157 0.930 . S
C1163 C1159 1.400 . S
C1163 C1162 1.385 . S
C1164 C1162 1.478 . S
C1164 C1166 1.381 . S
C1164 C1170 1.383 . S
C1165 C1161 1.495 . S
C1165 H1171 0.959 . S
C1165 H1172 0.961 . S
C1165 H1173 0.960 . S
C1166 C1164 1.381 . S
C1166 C1167 1.394 . S
C1166 H1174 0.930 . S
C1167 C1166 1.394 . S
C1167 C1168 1.383 . S
C1167 H1175 0.929 . S
C1168 C1167 1.383 . S
C1168 C1169 1.377 . S
C1169 H1153 0.930 . S
C1169 C1168 1.377 . S
C1169 C1170 1.379 . S
C1170 H1154 0.931 . S
C1170 C1164 1.383 . S
C1170 C1169 1.379 . S
H1171 C1165 0.959 . S
H1172 C1165 0.961 . S
H1173 C1165 0.960 . S
H1174 C1166 0.930 . S
H1175 C1167 0.929 . S
H1176 C1184 0.929 . S
H1177 C1186 0.930 . S
H1178 C1188 0.930 . S
H1179 C1191 0.929 . S
H1180 C1194 0.927 1_545 S
H1181 C1196 0.960 . S
H1182 C1196 0.960 . S
H1183 C1196 0.960 . S
C1184 H1176 0.929 . S
C1184 C1185 1.377 . S
C1184 C1186 1.384 . S
C1185 C1184 1.377 . S
C1185 C1191 1.390 . S
C1186 H1177 0.930 . S
C1186 C1184 1.384 . S
C1186 C1187 1.372 . S
C1187 C1186 1.372 . S
C1187 C1188 1.400 . S
C1187 C1192 1.490 . S
C1188 H1178 0.930 . S
C1188 C1187 1.400 . S
C1188 C1191 1.386 . S
H1189 C1205 0.930 . S
H1190 C1206 0.931 . S
C1191 H1179 0.929 . S
C1191 C1185 1.390 . S
C1191 C1188 1.386 . S
C1192 C1187 1.490 . S
C1192 C1194 1.382 1_545 S
C1192 C1195 1.403 . S
H1193 C1199 0.930 . S
C1194 H1180 0.927 1_565 S
C1194 C1192 1.382 1_565 S
C1194 C1197 1.417 . S
C1195 C1192 1.403 . S
C1195 C1196 1.524 . S
C1195 C1199 1.400 1_545 S
C1196 H1181 0.960 . S
C1196 H1182 0.960 . S
C1196 H1183 0.960 . S
C1196 C1195 1.524 . S
C1197 C1194 1.417 . S
C1197 C1198 1.392 . S
C1197 C1201 1.495 . S
C1198 C1197 1.392 . S
C1198 C1199 1.385 . S
C1198 C1200 1.478 . S
C1199 H1193 0.930 . S
C1199 C1195 1.400 1_565 S
C1199 C1198 1.385 . S
C1200 C1198 1.478 . S
C1200 C1202 1.381 . S
C1200 C1206 1.383 . S
C1201 C1197 1.495 . S
C1201 H1207 0.959 . S
C1201 H1208 0.961 . S
C1201 H1209 0.960 . S
C1202 C1200 1.381 . S
C1202 C1203 1.394 . S
C1202 H1210 0.930 . S
C1203 C1202 1.394 . S
C1203 C1204 1.383 . S
C1203 H1211 0.929 . S
C1204 C1203 1.383 . S
C1204 C1205 1.377 . S
C1205 H1189 0.930 . S
C1205 C1204 1.377 . S
C1205 C1206 1.379 . S
C1206 H1190 0.931 . S
C1206 C1200 1.383 . S
C1206 C1205 1.379 . S
H1207 C1201 0.959 . S
H1208 C1201 0.961 . S
H1209 C1201 0.960 . S
H1210 C1202 0.930 . S
H1211 C1203 0.929 . S
H1212 C1220 0.929 . S
H1213 C1222 0.930 . S
H1214 C1224 0.930 . S
H1215 C1227 0.929 . S
H1216 C1230 0.930 . S
H1217 C1232 0.960 . S
H1218 C1232 0.960 . S
H1219 C1232 0.960 . S
C1220 H1212 0.929 . S
C1220 C1221 1.377 . S
C1220 C1222 1.384 . S
C1221 C1220 1.377 . S
C1221 C1227 1.390 . S
C1222 H1213 0.930 . S
C1222 C1220 1.384 . S
C1222 C1223 1.372 . S
C1223 C1222 1.372 . S
C1223 C1224 1.400 . S
C1223 C1228 1.490 . S
C1224 H1214 0.930 . S
C1224 C1223 1.400 . S
C1224 C1227 1.386 . S
H1225 C1241 0.930 . S
H1226 C1242 0.931 . S
C1227 H1215 0.929 . S
C1227 C1221 1.390 . S
C1227 C1224 1.386 . S
C1228 C1223 1.490 . S
C1228 C1230 1.395 1_565 S
C1228 C1231 1.403 . S
H1229 C1235 0.930 . S
C1230 H1216 0.930 . S
C1230 C1228 1.395 1_545 S
C1230 C1233 1.403 . S
C1231 C1228 1.403 . S
C1231 C1232 1.524 . S
C1231 C1235 1.400 1_565 S
C1232 H1217 0.960 . S
C1232 H1218 0.960 . S
C1232 H1219 0.960 . S
C1232 C1231 1.524 . S
C1233 C1230 1.403 . S
C1233 C1234 1.392 . S
C1233 C1237 1.495 . S
C1234 C1233 1.392 . S
C1234 C1235 1.385 . S
C1234 C1236 1.478 . S
C1235 H1229 0.930 . S
C1235 C1231 1.400 1_545 S
C1235 C1234 1.385 . S
C1236 C1234 1.478 . S
C1236 C1238 1.381 . S
C1236 C1242 1.383 . S
C1237 C1233 1.495 . S
C1237 H1243 0.959 . S
C1237 H1244 0.961 . S
C1237 H1245 0.960 . S
C1238 C1236 1.381 . S
C1238 C1239 1.394 . S
C1238 H1246 0.930 . S
C1239 C1238 1.394 . S
C1239 C1240 1.383 . S
C1239 H1247 0.929 . S
C1240 C1239 1.383 . S
C1240 C1241 1.377 . S
C1241 H1225 0.930 . S
C1241 C1240 1.377 . S
C1241 C1242 1.379 . S
C1242 H1226 0.931 . S
C1242 C1236 1.383 . S
C1242 C1241 1.379 . S
H1243 C1237 0.959 . S
H1244 C1237 0.961 . S
H1245 C1237 0.960 . S
H1246 C1238 0.930 . S
H1247 C1239 0.929 . S
H1248 C1256 0.929 . S
H1249 C1258 0.930 . S
H1250 C1260 0.930 . S
H1251 C1263 0.929 . S
H1252 C1266 0.930 . S
H1253 C1268 0.960 . S
H1254 C1268 0.960 . S
H1255 C1268 0.960 . S
C1256 H1248 0.929 . S
C1256 C1257 1.377 . S
C1256 C1258 1.384 . S
C1257 C1256 1.377 . S
C1257 C1263 1.390 . S
C1258 H1249 0.930 . S
C1258 C1256 1.384 . S
C1258 C1259 1.372 . S
C1259 C1258 1.372 . S
C1259 C1260 1.400 . S
C1259 C1264 1.490 . S
C1260 H1250 0.930 . S
C1260 C1259 1.400 . S
C1260 C1263 1.386 . S
H1261 C1277 0.930 . S
H1262 C1278 0.931 . S
C1263 H1251 0.929 . S
C1263 C1257 1.390 . S
C1263 C1260 1.386 . S
C1264 C1259 1.490 . S
C1264 C1266 1.395 . S
C1264 C1267 1.403 . S
H1265 C1271 0.930 . S
C1266 H1252 0.930 . S
C1266 C1264 1.395 . S
C1266 C1269 1.403 . S
C1267 C1264 1.403 . S
C1267 C1268 1.524 . S
C1267 C1271 1.400 . S
C1268 H1253 0.960 . S
C1268 H1254 0.960 . S
C1268 H1255 0.960 . S
C1268 C1267 1.524 . S
C1269 C1266 1.403 . S
C1269 C1270 1.392 . S
C1269 C1273 1.495 . S
C1270 C1269 1.392 . S
C1270 C1271 1.385 . S
C1270 C1272 1.478 . S
C1271 H1265 0.930 . S
C1271 C1267 1.400 . S
C1271 C1270 1.385 . S
C1272 C1270 1.478 . S
C1272 C1274 1.381 . S
C1272 C1278 1.383 . S
C1273 C1269 1.495 . S
C1273 H1279 0.959 . S
C1273 H1280 0.961 . S
C1273 H1281 0.960 . S
C1274 C1272 1.381 . S
C1274 C1275 1.394 . S
C1274 H1282 0.930 . S
C1275 C1274 1.394 . S
C1275 C1276 1.383 . S
C1275 H1283 0.929 . S
C1276 C1275 1.383 . S
C1276 C1277 1.377 . S
C1277 H1261 0.930 . S
C1277 C1276 1.377 . S
C1277 C1278 1.379 . S
C1278 H1262 0.931 . S
C1278 C1272 1.383 . S
C1278 C1277 1.379 . S
H1279 C1273 0.959 . S
H1280 C1273 0.961 . S
H1281 C1273 0.960 . S
H1282 C1274 0.930 . S
H1283 C1275 0.929 . S
H1284 C1292 0.929 . S
H1285 C1294 0.930 . S
H1286 C1296 0.930 . S
H1287 C1299 0.929 . S
H1288 C1302 0.930 . S
H1289 C1304 0.960 . S
H1290 C1304 0.960 . S
H1291 C1304 0.960 . S
C1292 H1284 0.929 . S
C1292 C1293 1.377 . S
C1292 C1294 1.384 . S
C1293 C1292 1.377 . S
C1293 C1299 1.390 . S
C1294 H1285 0.930 . S
C1294 C1292 1.384 . S
C1294 C1295 1.372 . S
C1295 C1294 1.372 . S
C1295 C1296 1.400 . S
C1295 C1300 1.490 . S
C1296 H1286 0.930 . S
C1296 C1295 1.400 . S
C1296 C1299 1.386 . S
H1297 C1313 0.930 . S
H1298 C1314 0.931 . S
C1299 H1287 0.929 . S
C1299 C1293 1.390 . S
C1299 C1296 1.386 . S
C1300 C1295 1.490 . S
C1300 C1302 1.395 . S
C1300 C1303 1.403 . S
H1301 C1307 0.930 . S
C1302 H1288 0.930 . S
C1302 C1300 1.395 . S
C1302 C1305 1.403 . S
C1303 C1300 1.403 . S
C1303 C1304 1.524 . S
C1303 C1307 1.400 . S
C1304 H1289 0.960 . S
C1304 H1290 0.960 . S
C1304 H1291 0.960 . S
C1304 C1303 1.524 . S
C1305 C1302 1.403 . S
C1305 C1306 1.392 . S
C1305 C1309 1.495 . S
C1306 C1305 1.392 . S
C1306 C1307 1.385 . S
C1306 C1308 1.478 . S
C1307 H1301 0.930 . S
C1307 C1303 1.400 . S
C1307 C1306 1.385 . S
C1308 C1306 1.478 . S
C1308 C1310 1.381 . S
C1308 C1314 1.383 . S
C1309 C1305 1.495 . S
C1309 H1315 0.959 . S
C1309 H1316 0.961 . S
C1309 H1317 0.960 . S
C1310 C1308 1.381 . S
C1310 C1311 1.394 . S
C1310 H1318 0.930 . S
C1311 C1310 1.394 . S
C1311 C1312 1.383 . S
C1311 H1319 0.929 . S
C1312 C1311 1.383 . S
C1312 C1313 1.377 . S
C1313 H1297 0.930 . S
C1313 C1312 1.377 . S
C1313 C1314 1.379 . S
C1314 H1298 0.931 . S
C1314 C1308 1.383 . S
C1314 C1313 1.379 . S
H1315 C1309 0.959 . S
H1316 C1309 0.961 . S
H1317 C1309 0.960 . S
H1318 C1310 0.930 . S
H1319 C1311 0.929 . S
H1320 C1328 0.929 . S
H1321 C1330 0.930 . S
H1322 C1332 0.930 . S
H1323 C1335 0.929 . S
H1324 C1338 0.930 . S
H1325 C1340 0.960 . S
H1326 C1340 0.960 . S
H1327 C1340 0.960 . S
C1328 H1320 0.929 . S
C1328 C1329 1.377 . S
C1328 C1330 1.384 . S
C1329 C1328 1.377 . S
C1329 C1335 1.390 . S
C1330 H1321 0.930 . S
C1330 C1328 1.384 . S
C1330 C1331 1.372 . S
C1331 C1330 1.372 . S
C1331 C1332 1.400 . S
C1331 C1336 1.490 . S
C1332 H1322 0.930 . S
C1332 C1331 1.400 . S
C1332 C1335 1.386 . S
H1333 C1349 0.930 . S
H1334 C1350 0.931 . S
C1335 H1323 0.929 . S
C1335 C1329 1.390 . S
C1335 C1332 1.386 . S
C1336 C1331 1.490 . S
C1336 C1338 1.395 . S
C1336 C1339 1.403 . S
H1337 C1343 0.930 . S
C1338 H1324 0.930 . S
C1338 C1336 1.395 . S
C1338 C1341 1.403 . S
C1339 C1336 1.403 . S
C1339 C1340 1.524 . S
C1339 C1343 1.400 . S
C1340 H1325 0.960 . S
C1340 H1326 0.960 . S
C1340 H1327 0.960 . S
C1340 C1339 1.524 . S
C1341 C1338 1.403 . S
C1341 C1342 1.392 . S
C1341 C1345 1.495 . S
C1342 C1341 1.392 . S
C1342 C1343 1.385 . S
C1342 C1344 1.478 . S
C1343 H1337 0.930 . S
C1343 C1339 1.400 . S
C1343 C1342 1.385 . S
C1344 C1342 1.478 . S
C1344 C1346 1.381 . S
C1344 C1350 1.383 . S
C1345 C1341 1.495 . S
C1345 H1351 0.959 . S
C1345 H1352 0.961 . S
C1345 H1353 0.960 . S
C1346 C1344 1.381 . S
C1346 C1347 1.394 . S
C1346 H1354 0.930 . S
C1347 C1346 1.394 . S
C1347 C1348 1.383 . S
C1347 H1355 0.929 . S
C1348 C1347 1.383 . S
C1348 C1349 1.377 . S
C1349 H1333 0.930 . S
C1349 C1348 1.377 . S
C1349 C1350 1.379 . S
C1350 H1334 0.931 . S
C1350 C1344 1.383 . S
C1350 C1349 1.379 . S
H1351 C1345 0.959 . S
H1352 C1345 0.961 . S
H1353 C1345 0.960 . S
H1354 C1346 0.930 . S
H1355 C1347 0.929 . S
H1356 C1364 0.929 . S
H1357 C1366 0.930 . S
H1358 C1368 0.930 . S
H1359 C1371 0.929 . S
H1360 C1374 0.930 . S
H1361 C1376 0.960 . S
H1362 C1376 0.960 . S
H1363 C1376 0.960 . S
C1364 H1356 0.929 . S
C1364 C1365 1.377 . S
C1364 C1366 1.384 . S
C1365 C1364 1.377 . S
C1365 C1371 1.390 . S
C1366 H1357 0.930 . S
C1366 C1364 1.384 . S
C1366 C1367 1.372 . S
C1367 C1366 1.372 . S
C1367 C1368 1.400 . S
C1367 C1372 1.490 . S
C1368 H1358 0.930 . S
C1368 C1367 1.400 . S
C1368 C1371 1.386 . S
H1369 C1385 0.930 . S
H1370 C1386 0.931 . S
C1371 H1359 0.929 . S
C1371 C1365 1.390 . S
C1371 C1368 1.386 . S
C1372 C1367 1.490 . S
C1372 C1374 1.395 . S
C1372 C1375 1.403 . S
H1373 C1379 0.930 . S
C1374 H1360 0.930 . S
C1374 C1372 1.395 . S
C1374 C1377 1.403 . S
C1375 C1372 1.403 . S
C1375 C1376 1.524 . S
C1375 C1379 1.400 . S
C1376 H1361 0.960 . S
C1376 H1362 0.960 . S
C1376 H1363 0.960 . S
C1376 C1375 1.524 . S
C1377 C1374 1.403 . S
C1377 C1378 1.392 . S
C1377 C1381 1.495 . S
C1378 C1377 1.392 . S
C1378 C1379 1.385 . S
C1378 C1380 1.478 . S
C1379 H1373 0.930 . S
C1379 C1375 1.400 . S
C1379 C1378 1.385 . S
C1380 C1378 1.478 . S
C1380 C1382 1.381 . S
C1380 C1386 1.383 . S
C1381 C1377 1.495 . S
C1381 H1387 0.959 . S
C1381 H1388 0.961 . S
C1381 H1389 0.960 . S
C1382 C1380 1.381 . S
C1382 C1383 1.394 . S
C1382 H1390 0.930 . S
C1383 C1382 1.394 . S
C1383 C1384 1.383 . S
C1383 H1391 0.929 . S
C1384 C1383 1.383 . S
C1384 C1385 1.377 . S
C1385 H1369 0.930 . S
C1385 C1384 1.377 . S
C1385 C1386 1.379 . S
C1386 H1370 0.931 . S
C1386 C1380 1.383 . S
C1386 C1385 1.379 . S
H1387 C1381 0.959 . S
H1388 C1381 0.961 . S
H1389 C1381 0.960 . S
H1390 C1382 0.930 . S
H1391 C1383 0.929 . S
H1392 C1400 0.929 . S
H1393 C1402 0.930 . S
H1394 C1404 0.928 1_455 S
H1395 C1407 0.925 1_455 S
H1396 C1410 0.930 . S
H1397 C1412 0.960 . S
H1398 C1412 0.960 . S
H1399 C1412 0.960 . S
C1400 H1392 0.929 . S
C1400 C1401 1.377 . S
C1400 C1402 1.384 . S
C1401 C1400 1.377 . S
C1401 C1407 1.390 . S
C1402 H1393 0.930 . S
C1402 C1400 1.384 . S
C1402 C1403 1.372 . S
C1403 C1402 1.372 . S
C1403 C1404 1.401 . S
C1403 C1408 1.490 . S
C1404 H1394 0.928 1_655 S
C1404 C1403 1.401 . S
C1404 C1407 1.386 . S
H1405 C1421 0.930 . S
H1406 C1422 0.931 . S
C1407 H1395 0.925 1_655 S
C1407 C1401 1.390 . S
C1407 C1404 1.386 . S
C1408 C1403 1.490 . S
C1408 C1410 1.395 . S
C1408 C1411 1.403 1_655 S
H1409 C1415 0.930 . S
C1410 H1396 0.930 . S
C1410 C1408 1.395 . S
C1410 C1413 1.403 . S
C1411 C1408 1.403 1_455 S
C1411 C1412 1.524 . S
C1411 C1415 1.400 . S
C1412 H1397 0.960 . S
C1412 H1398 0.960 . S
C1412 H1399 0.960 . S
C1412 C1411 1.524 . S
C1413 C1410 1.403 . S
C1413 C1414 1.392 . S
C1413 C1417 1.495 . S
C1414 C1413 1.392 . S
C1414 C1415 1.385 1_655 S
C1414 C1416 1.477 1_655 S
C1415 H1409 0.930 . S
C1415 C1411 1.400 . S
C1415 C1414 1.385 1_455 S
C1416 C1414 1.477 1_455 S
C1416 C1418 1.381 1_455 S
C1416 C1422 1.384 . S
C1417 C1413 1.495 . S
C1417 H1423 0.959 . S
C1417 H1424 0.961 . S
C1417 H1425 0.960 . S
C1418 C1416 1.381 1_655 S
C1418 C1419 1.394 1_655 S
C1418 H1426 0.930 . S
C1419 C1418 1.394 1_455 S
C1419 C1420 1.383 . S
C1419 H1427 0.929 . S
C1420 C1419 1.383 . S
C1420 C1421 1.377 . S
C1421 H1405 0.930 . S
C1421 C1420 1.377 . S
C1421 C1422 1.379 . S
C1422 H1406 0.931 . S
C1422 C1416 1.384 . S
C1422 C1421 1.379 . S
H1423 C1417 0.959 . S
H1424 C1417 0.961 . S
H1425 C1417 0.960 . S
H1426 C1418 0.930 . S
H1427 C1419 0.929 . S
H1428 C1436 0.929 . S
H1429 C1438 0.930 . S
H1430 C1440 0.930 . S
H1431 C1443 0.929 . S
H1432 C1446 0.930 . S
H1433 C1448 0.960 . S
H1434 C1448 0.960 . S
H1435 C1448 0.960 . S
C1436 H1428 0.929 . S
C1436 C1437 1.377 . S
C1436 C1438 1.384 . S
C1437 C1436 1.377 . S
C1437 C1443 1.390 . S
C1438 H1429 0.930 . S
C1438 C1436 1.384 . S
C1438 C1439 1.372 . S
C1439 C1438 1.372 . S
C1439 C1440 1.400 . S
C1439 C1444 1.490 . S
C1440 H1430 0.930 . S
C1440 C1439 1.400 . S
C1440 C1443 1.386 . S
H1441 C1457 0.930 . S
H1442 C1458 0.931 . S
C1443 H1431 0.929 . S
C1443 C1437 1.390 . S
C1443 C1440 1.386 . S
C1444 C1439 1.490 . S
C1444 C1446 1.395 . S
C1444 C1447 1.403 . S
H1445 C1451 0.930 . S
C1446 H1432 0.930 . S
C1446 C1444 1.395 . S
C1446 C1449 1.403 . S
C1447 C1444 1.403 . S
C1447 C1448 1.524 . S
C1447 C1451 1.400 . S
C1448 H1433 0.960 . S
C1448 H1434 0.960 . S
C1448 H1435 0.960 . S
C1448 C1447 1.524 . S
C1449 C1446 1.403 . S
C1449 C1450 1.392 . S
C1449 C1453 1.495 . S
C1450 C1449 1.392 . S
C1450 C1451 1.385 . S
C1450 C1452 1.478 . S
C1451 H1445 0.930 . S
C1451 C1447 1.400 . S
C1451 C1450 1.385 . S
C1452 C1450 1.478 . S
C1452 C1454 1.381 . S
C1452 C1458 1.383 . S
C1453 C1449 1.495 . S
C1453 H1459 0.959 . S
C1453 H1460 0.961 . S
C1453 H1461 0.960 . S
C1454 C1452 1.381 . S
C1454 C1455 1.394 . S
C1454 H1462 0.930 . S
C1455 C1454 1.394 . S
C1455 C1456 1.383 . S
C1455 H1463 0.929 . S
C1456 C1455 1.383 . S
C1456 C1457 1.377 . S
C1457 H1441 0.930 . S
C1457 C1456 1.377 . S
C1457 C1458 1.379 . S
C1458 H1442 0.931 . S
C1458 C1452 1.383 . S
C1458 C1457 1.379 . S
H1459 C1453 0.959 . S
H1460 C1453 0.961 . S
H1461 C1453 0.960 . S
H1462 C1454 0.930 . S
H1463 C1455 0.929 . S
H1464 C1472 0.929 . S
H1465 C1474 0.930 . S
H1466 C1476 0.930 . S
H1467 C1479 0.929 . S
H1468 C1482 0.930 . S
H1469 C1484 0.960 . S
H1470 C1484 0.960 . S
H1471 C1484 0.960 . S
C1472 H1464 0.929 . S
C1472 C1473 1.377 . S
C1472 C1474 1.384 . S
C1473 C1472 1.377 . S
C1473 C1479 1.390 . S
C1474 H1465 0.930 . S
C1474 C1472 1.384 . S
C1474 C1475 1.372 . S
C1475 C1474 1.372 . S
C1475 C1476 1.400 . S
C1475 C1480 1.490 . S
C1476 H1466 0.930 . S
C1476 C1475 1.400 . S
C1476 C1479 1.386 . S
H1477 C1493 0.930 . S
H1478 C1494 0.931 . S
C1479 H1467 0.929 . S
C1479 C1473 1.390 . S
C1479 C1476 1.386 . S
C1480 C1475 1.490 . S
C1480 C1482 1.395 . S
C1480 C1483 1.403 . S
H1481 C1487 0.930 . S
C1482 H1468 0.930 . S
C1482 C1480 1.395 . S
C1482 C1485 1.403 . S
C1483 C1480 1.403 . S
C1483 C1484 1.524 . S
C1483 C1487 1.400 . S
C1484 H1469 0.960 . S
C1484 H1470 0.960 . S
C1484 H1471 0.960 . S
C1484 C1483 1.524 . S
C1485 C1482 1.403 . S
C1485 C1486 1.392 . S
C1485 C1489 1.495 . S
C1486 C1485 1.392 . S
C1486 C1487 1.385 . S
C1486 C1488 1.478 . S
C1487 H1481 0.930 . S
C1487 C1483 1.400 . S
C1487 C1486 1.385 . S
C1488 C1486 1.478 . S
C1488 C1490 1.381 . S
C1488 C1494 1.383 . S
C1489 C1485 1.495 . S
C1489 H1495 0.959 . S
C1489 H1496 0.961 . S
C1489 H1497 0.960 . S
C1490 C1488 1.381 . S
C1490 C1491 1.394 . S
C1490 H1498 0.930 . S
C1491 C1490 1.394 . S
C1491 C1492 1.383 . S
C1491 H1499 0.929 . S
C1492 C1491 1.383 . S
C1492 C1493 1.377 . S
C1493 H1477 0.930 . S
C1493 C1492 1.377 . S
C1493 C1494 1.379 . S
C1494 H1478 0.931 . S
C1494 C1488 1.383 . S
C1494 C1493 1.379 . S
H1495 C1489 0.959 . S
H1496 C1489 0.961 . S
H1497 C1489 0.960 . S
H1498 C1490 0.930 . S
H1499 C1491 0.929 . S
H1500 C1508 0.929 . S
H1501 C1510 0.930 . S
H1502 C1512 0.930 1_655 S
H1503 C1515 0.929 . S
H1504 C1518 0.930 . S
H1505 C1520 0.960 . S
H1506 C1520 0.960 . S
H1507 C1520 0.960 . S
C1508 H1500 0.929 . S
C1508 C1509 1.377 . S
C1508 C1510 1.384 . S
C1509 C1508 1.377 . S
C1509 C1515 1.390 . S
C1510 H1501 0.930 . S
C1510 C1508 1.384 . S
C1510 C1511 1.372 . S
C1511 C1510 1.372 . S
C1511 C1512 1.400 . S
C1511 C1516 1.490 . S
C1512 H1502 0.930 1_455 S
C1512 C1511 1.400 . S
C1512 C1515 1.386 . S
H1513 C1529 0.930 . S
H1514 C1530 0.931 . S
C1515 H1503 0.929 . S
C1515 C1509 1.390 . S
C1515 C1512 1.386 . S
C1516 C1511 1.490 . S
C1516 C1518 1.395 . S
C1516 C1519 1.403 1_455 S
H1517 C1523 0.930 . S
C1518 H1504 0.930 . S
C1518 C1516 1.395 . S
C1518 C1521 1.403 . S
C1519 C1516 1.403 1_655 S
C1519 C1520 1.524 . S
C1519 C1523 1.400 . S
C1520 H1505 0.960 . S
C1520 H1506 0.960 . S
C1520 H1507 0.960 . S
C1520 C1519 1.524 . S
C1521 C1518 1.403 . S
C1521 C1522 1.392 . S
C1521 C1525 1.495 . S
C1522 C1521 1.392 . S
C1522 C1523 1.385 1_455 S
C1522 C1524 1.478 . S
C1523 H1517 0.930 . S
C1523 C1519 1.400 . S
C1523 C1522 1.385 1_655 S
C1524 C1522 1.478 . S
C1524 C1526 1.381 1_455 S
C1524 C1530 1.382 1_455 S
C1525 C1521 1.495 . S
C1525 H1531 0.959 . S
C1525 H1532 0.961 . S
C1525 H1533 0.960 . S
C1526 C1524 1.381 1_655 S
C1526 C1527 1.394 . S
C1526 H1534 0.930 1_655 S
C1527 C1526 1.394 . S
C1527 C1528 1.383 . S
C1527 H1535 0.929 . S
C1528 C1527 1.383 . S
C1528 C1529 1.377 . S
C1529 H1513 0.930 . S
C1529 C1528 1.377 . S
C1529 C1530 1.379 . S
C1530 H1514 0.931 . S
C1530 C1524 1.382 1_655 S
C1530 C1529 1.379 . S
H1531 C1525 0.959 . S
H1532 C1525 0.961 . S
H1533 C1525 0.960 . S
H1534 C1526 0.930 1_455 S
H1535 C1527 0.929 . S
H1536 C1544 0.929 1_455 S
H1537 C1546 0.930 . S
H1538 C1548 0.930 . S
H1539 C1551 0.929 . S
H1540 C1554 0.930 . S
H1541 C1556 0.960 . S
H1542 C1556 0.960 . S
H1543 C1556 0.960 . S
C1544 H1536 0.929 1_655 S
C1544 C1545 1.377 . S
C1544 C1546 1.384 1_655 S
C1545 C1544 1.377 . S
C1545 C1551 1.390 . S
C1546 H1537 0.930 . S
C1546 C1544 1.384 1_455 S
C1546 C1547 1.372 1_455 S
C1547 C1546 1.372 1_655 S
C1547 C1548 1.400 . S
C1547 C1552 1.490 . S
C1548 H1538 0.930 . S
C1548 C1547 1.400 . S
C1548 C1551 1.386 . S
H1549 C1565 0.930 1_655 S
H1550 C1566 0.931 . S
C1551 H1539 0.929 . S
C1551 C1545 1.390 . S
C1551 C1548 1.386 . S
C1552 C1547 1.490 . S
C1552 C1554 1.395 1_655 S
C1552 C1555 1.403 . S
H1553 C1559 0.930 . S
C1554 H1540 0.930 . S
C1554 C1552 1.395 1_455 S
C1554 C1557 1.403 . S
C1555 C1552 1.403 . S
C1555 C1556 1.524 . S
C1555 C1559 1.400 . S
C1556 H1541 0.960 . S
C1556 H1542 0.960 . S
C1556 H1543 0.960 . S
C1556 C1555 1.524 . S
C1557 C1554 1.403 . S
C1557 C1558 1.392 . S
C1557 C1561 1.495 . S
C1558 C1557 1.392 . S
C1558 C1559 1.385 1_455 S
C1558 C1560 1.478 . S
C1559 H1553 0.930 . S
C1559 C1555 1.400 . S
C1559 C1558 1.385 1_655 S
C1560 C1558 1.478 . S
C1560 C1562 1.381 . S
C1560 C1566 1.383 1_455 S
C1561 C1557 1.495 . S
C1561 H1567 0.959 . S
C1561 H1568 0.961 . S
C1561 H1569 0.960 . S
C1562 C1560 1.381 . S
C1562 C1563 1.394 . S
C1562 H1570 0.930 . S
C1563 C1562 1.394 . S
C1563 C1564 1.383 . S
C1563 H1571 0.929 . S
C1564 C1563 1.383 . S
C1564 C1565 1.377 . S
C1565 H1549 0.930 1_455 S
C1565 C1564 1.377 . S
C1565 C1566 1.379 1_455 S
C1566 H1550 0.931 . S
C1566 C1560 1.383 1_655 S
C1566 C1565 1.379 1_655 S
H1567 C1561 0.959 . S
H1568 C1561 0.961 . S
H1569 C1561 0.960 . S
H1570 C1562 0.930 . S
H1571 C1563 0.929 . S
H1572 C1580 0.929 . S
H1573 C1582 0.930 . S
H1574 C1584 0.930 . S
H1575 C1587 0.929 . S
H1576 C1590 0.930 . S
H1577 C1592 0.960 . S
H1578 C1592 0.960 . S
H1579 C1592 0.960 . S
C1580 H1572 0.929 . S
C1580 C1581 1.377 . S
C1580 C1582 1.384 . S
C1581 C1580 1.377 . S
C1581 C1587 1.390 . S
C1582 H1573 0.930 . S
C1582 C1580 1.384 . S
C1582 C1583 1.372 . S
C1583 C1582 1.372 . S
C1583 C1584 1.400 . S
C1583 C1588 1.490 . S
C1584 H1574 0.930 . S
C1584 C1583 1.400 . S
C1584 C1587 1.386 . S
H1585 C1601 0.930 . S
H1586 C1602 0.931 . S
C1587 H1575 0.929 . S
C1587 C1581 1.390 . S
C1587 C1584 1.386 . S
C1588 C1583 1.490 . S
C1588 C1590 1.395 . S
C1588 C1591 1.403 . S
H1589 C1595 0.930 . S
C1590 H1576 0.930 . S
C1590 C1588 1.395 . S
C1590 C1593 1.403 . S
C1591 C1588 1.403 . S
C1591 C1592 1.524 . S
C1591 C1595 1.400 . S
C1592 H1577 0.960 . S
C1592 H1578 0.960 . S
C1592 H1579 0.960 . S
C1592 C1591 1.524 . S
C1593 C1590 1.403 . S
C1593 C1594 1.392 . S
C1593 C1597 1.495 . S
C1594 C1593 1.392 . S
C1594 C1595 1.385 . S
C1594 C1596 1.478 . S
C1595 H1589 0.930 . S
C1595 C1591 1.400 . S
C1595 C1594 1.385 . S
C1596 C1594 1.478 . S
C1596 C1598 1.381 . S
C1596 C1602 1.383 . S
C1597 C1593 1.495 . S
C1597 H1603 0.959 . S
C1597 H1604 0.961 . S
C1597 H1605 0.960 . S
C1598 C1596 1.381 . S
C1598 C1599 1.394 . S
C1598 H1606 0.930 . S
C1599 C1598 1.394 . S
C1599 C1600 1.383 . S
C1599 H1607 0.929 . S
C1600 C1599 1.383 . S
C1600 C1601 1.377 . S
C1601 H1585 0.930 . S
C1601 C1600 1.377 . S
C1601 C1602 1.379 . S
C1602 H1586 0.931 . S
C1602 C1596 1.383 . S
C1602 C1601 1.379 . S
H1603 C1597 0.959 . S
H1604 C1597 0.961 . S
H1605 C1597 0.960 . S
H1606 C1598 0.930 . S
H1607 C1599 0.929 . S
H1608 C1616 0.929 . S
H1609 C1618 0.930 . S
H1610 C1620 0.930 . S
H1611 C1623 0.929 . S
H1612 C1626 0.930 . S
H1613 C1628 0.960 . S
H1614 C1628 0.960 . S
H1615 C1628 0.960 . S
C1616 H1608 0.929 . S
C1616 C1617 1.377 . S
C1616 C1618 1.384 . S
C1617 C1616 1.377 . S
C1617 C1623 1.390 . S
C1618 H1609 0.930 . S
C1618 C1616 1.384 . S
C1618 C1619 1.372 . S
C1619 C1618 1.372 . S
C1619 C1620 1.400 . S
C1619 C1624 1.490 . S
C1620 H1610 0.930 . S
C1620 C1619 1.400 . S
C1620 C1623 1.386 . S
H1621 C1637 0.930 . S
H1622 C1638 0.931 . S
C1623 H1611 0.929 . S
C1623 C1617 1.390 . S
C1623 C1620 1.386 . S
C1624 C1619 1.490 . S
C1624 C1626 1.395 . S
C1624 C1627 1.403 . S
H1625 C1631 0.930 . S
C1626 H1612 0.930 . S
C1626 C1624 1.395 . S
C1626 C1629 1.403 . S
C1627 C1624 1.403 . S
C1627 C1628 1.524 . S
C1627 C1631 1.400 . S
C1628 H1613 0.960 . S
C1628 H1614 0.960 . S
C1628 H1615 0.960 . S
C1628 C1627 1.524 . S
C1629 C1626 1.403 . S
C1629 C1630 1.392 . S
C1629 C1633 1.495 . S
C1630 C1629 1.392 . S
C1630 C1631 1.385 . S
C1630 C1632 1.478 . S
C1631 H1625 0.930 . S
C1631 C1627 1.400 . S
C1631 C1630 1.385 . S
C1632 C1630 1.478 . S
C1632 C1634 1.381 . S
C1632 C1638 1.383 . S
C1633 C1629 1.495 . S
C1633 H1639 0.959 . S
C1633 H1640 0.961 . S
C1633 H1641 0.960 . S
C1634 C1632 1.381 . S
C1634 C1635 1.394 . S
C1634 H1642 0.930 . S
C1635 C1634 1.394 . S
C1635 C1636 1.383 . S
C1635 H1643 0.929 . S
C1636 C1635 1.383 . S
C1636 C1637 1.377 . S
C1637 H1621 0.930 . S
C1637 C1636 1.377 . S
C1637 C1638 1.379 . S
C1638 H1622 0.931 . S
C1638 C1632 1.383 . S
C1638 C1637 1.379 . S
H1639 C1633 0.959 . S
H1640 C1633 0.961 . S
H1641 C1633 0.960 . S
H1642 C1634 0.930 . S
H1643 C1635 0.929 . S
H1644 C1652 0.929 1_455 S
H1645 C1654 0.930 . S
H1646 C1656 0.930 . S
H1647 C1659 0.929 . S
H1648 C1662 0.930 . S
H1649 C1664 0.960 . S
H1650 C1664 0.960 . S
H1651 C1664 0.960 . S
C1652 H1644 0.929 1_655 S
C1652 C1653 1.377 . S
C1652 C1654 1.384 1_655 S
C1653 C1652 1.377 . S
C1653 C1659 1.390 . S
C1654 H1645 0.930 . S
C1654 C1652 1.384 1_455 S
C1654 C1655 1.372 1_455 S
C1655 C1654 1.372 1_655 S
C1655 C1656 1.400 . S
C1655 C1660 1.490 . S
C1656 H1646 0.930 . S
C1656 C1655 1.400 . S
C1656 C1659 1.386 . S
H1657 C1673 0.930 1_655 S
H1658 C1674 0.931 . S
C1659 H1647 0.929 . S
C1659 C1653 1.390 . S
C1659 C1656 1.386 . S
C1660 C1655 1.490 . S
C1660 C1662 1.395 1_655 S
C1660 C1663 1.403 . S
H1661 C1667 0.930 . S
C1662 H1648 0.930 . S
C1662 C1660 1.395 1_455 S
C1662 C1665 1.403 . S
C1663 C1660 1.403 . S
C1663 C1664 1.524 . S
C1663 C1667 1.400 . S
C1664 H1649 0.960 . S
C1664 H1650 0.960 . S
C1664 H1651 0.960 . S
C1664 C1663 1.524 . S
C1665 C1662 1.403 . S
C1665 C1666 1.392 . S
C1665 C1669 1.495 . S
C1666 C1665 1.392 . S
C1666 C1667 1.385 1_455 S
C1666 C1668 1.478 . S
C1667 H1661 0.930 . S
C1667 C1663 1.400 . S
C1667 C1666 1.385 1_655 S
C1668 C1666 1.478 . S
C1668 C1670 1.381 . S
C1668 C1674 1.383 1_455 S
C1669 C1665 1.495 . S
C1669 H1675 0.959 . S
C1669 H1676 0.961 . S
C1669 H1677 0.960 . S
C1670 C1668 1.381 . S
C1670 C1671 1.394 . S
C1670 H1678 0.930 . S
C1671 C1670 1.394 . S
C1671 C1672 1.383 . S
C1671 H1679 0.929 . S
C1672 C1671 1.383 . S
C1672 C1673 1.377 . S
C1673 H1657 0.930 1_455 S
C1673 C1672 1.377 . S
C1673 C1674 1.379 1_455 S
C1674 H1658 0.931 . S
C1674 C1668 1.383 1_655 S
C1674 C1673 1.379 1_655 S
H1675 C1669 0.959 . S
H1676 C1669 0.961 . S
H1677 C1669 0.960 . S
H1678 C1670 0.930 . S
H1679 C1671 0.929 . S
H1680 C1688 0.929 . S
H1681 C1690 0.930 . S
H1682 C1692 0.930 1_655 S
H1683 C1695 0.929 . S
H1684 C1698 0.930 . S
H1685 C1700 0.960 . S
H1686 C1700 0.960 . S
H1687 C1700 0.960 . S
C1688 H1680 0.929 . S
C1688 C1689 1.377 . S
C1688 C1690 1.384 . S
C1689 C1688 1.377 . S
C1689 C1695 1.390 . S
C1690 H1681 0.930 . S
C1690 C1688 1.384 . S
C1690 C1691 1.372 . S
C1691 C1690 1.372 . S
C1691 C1692 1.400 . S
C1691 C1696 1.490 . S
C1692 H1682 0.930 1_455 S
C1692 C1691 1.400 . S
C1692 C1695 1.386 . S
H1693 C1709 0.930 . S
H1694 C1710 0.931 . S
C1695 H1683 0.929 . S
C1695 C1689 1.390 . S
C1695 C1692 1.386 . S
C1696 C1691 1.490 . S
C1696 C1698 1.395 . S
C1696 C1699 1.403 1_455 S
H1697 C1703 0.930 . S
C1698 H1684 0.930 . S
C1698 C1696 1.395 . S
C1698 C1701 1.403 . S
C1699 C1696 1.403 1_655 S
C1699 C1700 1.524 . S
C1699 C1703 1.400 . S
C1700 H1685 0.960 . S
C1700 H1686 0.960 . S
C1700 H1687 0.960 . S
C1700 C1699 1.524 . S
C1701 C1698 1.403 . S
C1701 C1702 1.392 1_455 S
C1701 C1705 1.495 . S
C1702 C1701 1.392 1_655 S
C1702 C1703 1.385 . S
C1702 C1704 1.478 . S
C1703 H1697 0.930 . S
C1703 C1699 1.400 . S
C1703 C1702 1.385 . S
C1704 C1702 1.478 . S
C1704 C1706 1.381 . S
C1704 C1710 1.383 . S
C1705 C1701 1.495 . S
C1705 H1711 0.959 . S
C1705 H1712 0.961 . S
C1705 H1713 0.960 . S
C1706 C1704 1.381 . S
C1706 C1707 1.394 . S
C1706 H1714 0.930 1_655 S
C1707 C1706 1.394 . S
C1707 C1708 1.383 . S
C1707 H1715 0.929 . S
C1708 C1707 1.383 . S
C1708 C1709 1.377 . S
C1709 H1693 0.930 . S
C1709 C1708 1.377 . S
C1709 C1710 1.379 . S
C1710 H1694 0.931 . S
C1710 C1704 1.383 . S
C1710 C1709 1.379 . S
H1711 C1705 0.959 . S
H1712 C1705 0.961 . S
H1713 C1705 0.960 . S
H1714 C1706 0.930 1_455 S
H1715 C1707 0.929 . S
H1716 C1724 0.929 . S
H1717 C1726 0.930 . S
H1718 C1728 0.930 . S
H1719 C1731 0.929 . S
H1720 C1734 0.930 . S
H1721 C1736 0.960 . S
H1722 C1736 0.960 . S
H1723 C1736 0.960 . S
C1724 H1716 0.929 . S
C1724 C1725 1.377 . S
C1724 C1726 1.384 . S
C1725 C1724 1.377 . S
C1725 C1731 1.390 . S
C1726 H1717 0.930 . S
C1726 C1724 1.384 . S
C1726 C1727 1.372 . S
C1727 C1726 1.372 . S
C1727 C1728 1.400 . S
C1727 C1732 1.490 . S
C1728 H1718 0.930 . S
C1728 C1727 1.400 . S
C1728 C1731 1.386 . S
H1729 C1745 0.930 . S
H1730 C1746 0.931 . S
C1731 H1719 0.929 . S
C1731 C1725 1.390 . S
C1731 C1728 1.386 . S
C1732 C1727 1.490 . S
C1732 C1734 1.395 . S
C1732 C1735 1.403 . S
H1733 C1739 0.930 . S
C1734 H1720 0.930 . S
C1734 C1732 1.395 . S
C1734 C1737 1.403 . S
C1735 C1732 1.403 . S
C1735 C1736 1.524 . S
C1735 C1739 1.400 . S
C1736 H1721 0.960 . S
C1736 H1722 0.960 . S
C1736 H1723 0.960 . S
C1736 C1735 1.524 . S
C1737 C1734 1.403 . S
C1737 C1738 1.392 . S
C1737 C1741 1.495 . S
C1738 C1737 1.392 . S
C1738 C1739 1.385 . S
C1738 C1740 1.478 . S
C1739 H1733 0.930 . S
C1739 C1735 1.400 . S
C1739 C1738 1.385 . S
C1740 C1738 1.478 . S
C1740 C1742 1.381 . S
C1740 C1746 1.383 . S
C1741 C1737 1.495 . S
C1741 H1747 0.959 . S
C1741 H1748 0.961 . S
C1741 H1749 0.960 . S
C1742 C1740 1.381 . S
C1742 C1743 1.394 . S
C1742 H1750 0.930 . S
C1743 C1742 1.394 . S
C1743 C1744 1.383 . S
C1743 H1751 0.929 . S
C1744 C1743 1.383 . S
C1744 C1745 1.377 . S
C1745 H1729 0.930 . S
C1745 C1744 1.377 . S
C1745 C1746 1.379 . S
C1746 H1730 0.931 . S
C1746 C1740 1.383 . S
C1746 C1745 1.379 . S
H1747 C1741 0.959 . S
H1748 C1741 0.961 . S
H1749 C1741 0.960 . S
H1750 C1742 0.930 . S
H1751 C1743 0.929 . S
H1752 C1760 0.929 . S
H1753 C1762 0.930 . S
H1754 C1764 0.930 1_455 S
H1755 C1767 0.929 . S
H1756 C1770 0.930 . S
H1757 C1772 0.960 . S
H1758 C1772 0.960 . S
H1759 C1772 0.960 . S
C1760 H1752 0.929 . S
C1760 C1761 1.377 . S
C1760 C1762 1.384 . S
C1761 C1760 1.377 . S
C1761 C1767 1.390 . S
C1762 H1753 0.930 . S
C1762 C1760 1.384 . S
C1762 C1763 1.372 . S
C1763 C1762 1.372 . S
C1763 C1764 1.400 . S
C1763 C1768 1.490 . S
C1764 H1754 0.930 1_655 S
C1764 C1763 1.400 . S
C1764 C1767 1.386 . S
H1765 C1781 0.930 . S
H1766 C1782 0.931 . S
C1767 H1755 0.929 . S
C1767 C1761 1.390 . S
C1767 C1764 1.386 . S
C1768 C1763 1.490 . S
C1768 C1770 1.395 . S
C1768 C1771 1.403 . S
H1769 C1775 0.932 . S
C1770 H1756 0.930 . S
C1770 C1768 1.395 . S
C1770 C1773 1.403 1_655 S
C1771 C1768 1.403 . S
C1771 C1772 1.524 . S
C1771 C1775 1.392 1_655 S
C1772 H1757 0.960 . S
C1772 H1758 0.960 . S
C1772 H1759 0.960 . S
C1772 C1771 1.524 . S
C1773 C1770 1.403 1_455 S
C1773 C1774 1.392 . S
C1773 C1777 1.495 . S
C1774 C1773 1.392 . S
C1774 C1775 1.392 . S
C1774 C1776 1.478 . S
C1775 H1769 0.932 . S
C1775 C1771 1.392 1_455 S
C1775 C1774 1.392 . S
C1776 C1774 1.478 . S
C1776 C1778 1.381 . S
C1776 C1782 1.383 . S
C1777 C1773 1.495 . S
C1777 H1783 0.959 . S
C1777 H1784 0.961 . S
C1777 H1785 0.960 . S
C1778 C1776 1.381 . S
C1778 C1779 1.394 . S
C1778 H1786 0.930 1_455 S
C1779 C1778 1.394 . S
C1779 C1780 1.383 . S
C1779 H1787 0.929 . S
C1780 C1779 1.383 . S
C1780 C1781 1.377 . S
C1781 H1765 0.930 . S
C1781 C1780 1.377 . S
C1781 C1782 1.379 . S
C1782 H1766 0.931 . S
C1782 C1776 1.383 . S
C1782 C1781 1.379 . S
H1783 C1777 0.959 . S
H1784 C1777 0.961 . S
H1785 C1777 0.960 . S
H1786 C1778 0.930 1_655 S
H1787 C1779 0.929 . S
H1788 C1796 0.929 . S
H1789 C1798 0.930 . S
H1790 C1800 0.930 . S
H1791 C1803 0.929 . S
H1792 C1806 0.930 . S
H1793 C1808 0.960 . S
H1794 C1808 0.960 . S
H1795 C1808 0.960 . S
C1796 H1788 0.929 . S
C1796 C1797 1.377 . S
C1796 C1798 1.384 . S
C1797 C1796 1.377 . S
C1797 C1803 1.390 . S
C1798 H1789 0.930 . S
C1798 C1796 1.384 . S
C1798 C1799 1.372 . S
C1799 C1798 1.372 . S
C1799 C1800 1.400 . S
C1799 C1804 1.490 . S
C1800 H1790 0.930 . S
C1800 C1799 1.400 . S
C1800 C1803 1.386 . S
H1801 C1817 0.930 . S
H1802 C1818 0.931 . S
C1803 H1791 0.929 . S
C1803 C1797 1.390 . S
C1803 C1800 1.386 . S
C1804 C1799 1.490 . S
C1804 C1806 1.395 . S
C1804 C1807 1.403 . S
H1805 C1811 0.930 . S
C1806 H1792 0.930 . S
C1806 C1804 1.395 . S
C1806 C1809 1.403 . S
C1807 C1804 1.403 . S
C1807 C1808 1.524 . S
C1807 C1811 1.400 . S
C1808 H1793 0.960 . S
C1808 H1794 0.960 . S
C1808 H1795 0.960 . S
C1808 C1807 1.524 . S
C1809 C1806 1.403 . S
C1809 C1810 1.392 . S
C1809 C1813 1.495 . S
C1810 C1809 1.392 . S
C1810 C1811 1.385 . S
C1810 C1812 1.478 . S
C1811 H1805 0.930 . S
C1811 C1807 1.400 . S
C1811 C1810 1.385 . S
C1812 C1810 1.478 . S
C1812 C1814 1.381 . S
C1812 C1818 1.383 . S
C1813 C1809 1.495 . S
C1813 H1819 0.959 . S
C1813 H1820 0.961 . S
C1813 H1821 0.960 . S
C1814 C1812 1.381 . S
C1814 C1815 1.394 . S
C1814 H1822 0.930 . S
C1815 C1814 1.394 . S
C1815 C1816 1.383 . S
C1815 H1823 0.929 . S
C1816 C1815 1.383 . S
C1816 C1817 1.377 . S
C1817 H1801 0.930 . S
C1817 C1816 1.377 . S
C1817 C1818 1.379 . S
C1818 H1802 0.931 . S
C1818 C1812 1.383 . S
C1818 C1817 1.379 . S
H1819 C1813 0.959 . S
H1820 C1813 0.961 . S
H1821 C1813 0.960 . S
H1822 C1814 0.930 . S
H1823 C1815 0.929 . S
H1824 C1832 0.929 . S
H1825 C1834 0.930 . S
H1826 C1836 0.930 . S
H1827 C1839 0.929 . S
H1828 C1842 0.930 . S
H1829 C1844 0.960 . S
H1830 C1844 0.960 . S
H1831 C1844 0.960 . S
C1832 H1824 0.929 . S
C1832 C1833 1.377 . S
C1832 C1834 1.384 . S
C1833 C1832 1.377 . S
C1833 C1839 1.390 . S
C1834 H1825 0.930 . S
C1834 C1832 1.384 . S
C1834 C1835 1.372 . S
C1835 C1834 1.372 . S
C1835 C1836 1.400 . S
C1835 C1840 1.490 . S
C1836 H1826 0.930 . S
C1836 C1835 1.400 . S
C1836 C1839 1.386 . S
H1837 C1853 0.930 . S
H1838 C1854 0.931 . S
C1839 H1827 0.929 . S
C1839 C1833 1.390 . S
C1839 C1836 1.386 . S
C1840 C1835 1.490 . S
C1840 C1842 1.395 . S
C1840 C1843 1.403 . S
H1841 C1847 0.930 . S
C1842 H1828 0.930 . S
C1842 C1840 1.395 . S
C1842 C1845 1.403 . S
C1843 C1840 1.403 . S
C1843 C1844 1.524 . S
C1843 C1847 1.400 . S
C1844 H1829 0.960 . S
C1844 H1830 0.960 . S
C1844 H1831 0.960 . S
C1844 C1843 1.524 . S
C1845 C1842 1.403 . S
C1845 C1846 1.392 . S
C1845 C1849 1.495 . S
C1846 C1845 1.392 . S
C1846 C1847 1.385 . S
C1846 C1848 1.478 . S
C1847 H1841 0.930 . S
C1847 C1843 1.400 . S
C1847 C1846 1.385 . S
C1848 C1846 1.478 . S
C1848 C1850 1.381 . S
C1848 C1854 1.383 . S
C1849 C1845 1.495 . S
C1849 H1855 0.959 . S
C1849 H1856 0.961 . S
C1849 H1857 0.960 . S
C1850 C1848 1.381 . S
C1850 C1851 1.394 . S
C1850 H1858 0.930 . S
C1851 C1850 1.394 . S
C1851 C1852 1.383 . S
C1851 H1859 0.929 . S
C1852 C1851 1.383 . S
C1852 C1853 1.377 . S
C1853 H1837 0.930 . S
C1853 C1852 1.377 . S
C1853 C1854 1.379 . S
C1854 H1838 0.931 . S
C1854 C1848 1.383 . S
C1854 C1853 1.379 . S
H1855 C1849 0.959 . S
H1856 C1849 0.961 . S
H1857 C1849 0.960 . S
H1858 C1850 0.930 . S
H1859 C1851 0.929 . S
H1860 C1868 0.929 . S
H1861 C1870 0.930 . S
H1862 C1872 0.930 . S
H1863 C1875 0.929 . S
H1864 C1878 0.930 . S
H1865 C1880 0.960 . S
H1866 C1880 0.960 . S
H1867 C1880 0.960 . S
C1868 H1860 0.929 . S
C1868 C1869 1.377 . S
C1868 C1870 1.384 . S
C1869 C1868 1.377 . S
C1869 C1875 1.390 . S
C1870 H1861 0.930 . S
C1870 C1868 1.384 . S
C1870 C1871 1.372 . S
C1871 C1870 1.372 . S
C1871 C1872 1.400 . S
C1871 C1876 1.490 . S
C1872 H1862 0.930 . S
C1872 C1871 1.400 . S
C1872 C1875 1.386 . S
H1873 C1889 0.930 . S
H1874 C1890 0.931 1_455 S
C1875 H1863 0.929 . S
C1875 C1869 1.390 . S
C1875 C1872 1.386 . S
C1876 C1871 1.490 . S
C1876 C1878 1.395 . S
C1876 C1879 1.403 1_455 S
H1877 C1883 0.930 . S
C1878 H1864 0.930 . S
C1878 C1876 1.395 . S
C1878 C1881 1.403 . S
C1879 C1876 1.403 1_655 S
C1879 C1880 1.524 . S
C1879 C1883 1.400 . S
C1880 H1865 0.960 . S
C1880 H1866 0.960 . S
C1880 H1867 0.960 . S
C1880 C1879 1.524 . S
C1881 C1878 1.403 . S
C1881 C1882 1.392 1_455 S
C1881 C1885 1.495 . S
C1882 C1881 1.392 1_655 S
C1882 C1883 1.385 . S
C1882 C1884 1.478 . S
C1883 H1877 0.930 . S
C1883 C1879 1.400 . S
C1883 C1882 1.385 . S
C1884 C1882 1.478 . S
C1884 C1886 1.381 . S
C1884 C1890 1.383 . S
C1885 C1881 1.495 . S
C1885 H1891 0.959 . S
C1885 H1892 0.961 . S
C1885 H1893 0.960 . S
C1886 C1884 1.381 . S
C1886 C1887 1.394 . S
C1886 H1894 0.930 . S
C1887 C1886 1.394 . S
C1887 C1888 1.383 . S
C1887 H1895 0.929 . S
C1888 C1887 1.383 . S
C1888 C1889 1.377 . S
C1889 H1873 0.930 . S
C1889 C1888 1.377 . S
C1889 C1890 1.379 . S
C1890 H1874 0.931 1_655 S
C1890 C1884 1.383 . S
C1890 C1889 1.379 . S
H1891 C1885 0.959 . S
H1892 C1885 0.961 . S
H1893 C1885 0.960 . S
H1894 C1886 0.930 . S
H1895 C1887 0.929 . S
H1896 C1904 0.929 . S
H1897 C1906 0.930 . S
H1898 C1908 0.930 . S
H1899 C1911 0.929 . S
H1900 C1914 0.930 . S
H1901 C1916 0.960 . S
H1902 C1916 0.960 . S
H1903 C1916 0.960 . S
C1904 H1896 0.929 . S
C1904 C1905 1.377 . S
C1904 C1906 1.384 . S
C1905 C1904 1.377 . S
C1905 C1911 1.390 . S
C1906 H1897 0.930 . S
C1906 C1904 1.384 . S
C1906 C1907 1.372 . S
C1907 C1906 1.372 . S
C1907 C1908 1.400 . S
C1907 C1912 1.490 . S
C1908 H1898 0.930 . S
C1908 C1907 1.400 . S
C1908 C1911 1.386 . S
H1909 C1925 0.930 . S
H1910 C1926 0.931 . S
C1911 H1899 0.929 . S
C1911 C1905 1.390 . S
C1911 C1908 1.386 . S
C1912 C1907 1.490 . S
C1912 C1914 1.395 . S
C1912 C1915 1.403 . S
H1913 C1919 0.930 . S
C1914 H1900 0.930 . S
C1914 C1912 1.395 . S
C1914 C1917 1.403 . S
C1915 C1912 1.403 . S
C1915 C1916 1.524 . S
C1915 C1919 1.400 . S
C1916 H1901 0.960 . S
C1916 H1902 0.960 . S
C1916 H1903 0.960 . S
C1916 C1915 1.524 . S
C1917 C1914 1.403 . S
C1917 C1918 1.392 . S
C1917 C1921 1.495 . S
C1918 C1917 1.392 . S
C1918 C1919 1.385 . S
C1918 C1920 1.478 . S
C1919 H1913 0.930 . S
C1919 C1915 1.400 . S
C1919 C1918 1.385 . S
C1920 C1918 1.478 . S
C1920 C1922 1.381 . S
C1920 C1926 1.383 . S
C1921 C1917 1.495 . S
C1921 H1927 0.959 . S
C1921 H1928 0.961 . S
C1921 H1929 0.960 . S
C1922 C1920 1.381 . S
C1922 C1923 1.394 . S
C1922 H1930 0.930 . S
C1923 C1922 1.394 . S
C1923 C1924 1.383 . S
C1923 H1931 0.929 . S
C1924 C1923 1.383 . S
C1924 C1925 1.377 . S
C1925 H1909 0.930 . S
C1925 C1924 1.377 . S
C1925 C1926 1.379 . S
C1926 H1910 0.931 . S
C1926 C1920 1.383 . S
C1926 C1925 1.379 . S
H1927 C1921 0.959 . S
H1928 C1921 0.961 . S
H1929 C1921 0.960 . S
H1930 C1922 0.930 . S
H1931 C1923 0.929 . S
H1932 C1940 0.929 . S
H1933 C1942 0.930 . S
H1934 C1944 0.930 . S
H1935 C1947 0.929 . S
H1936 C1950 0.930 . S
H1937 C1952 0.960 . S
H1938 C1952 0.960 . S
H1939 C1952 0.960 . S
C1940 H1932 0.929 . S
C1940 C1941 1.377 . S
C1940 C1942 1.384 . S
C1941 C1940 1.377 . S
C1941 C1947 1.390 . S
C1942 H1933 0.930 . S
C1942 C1940 1.384 . S
C1942 C1943 1.372 . S
C1943 C1942 1.372 . S
C1943 C1944 1.400 . S
C1943 C1948 1.490 . S
C1944 H1934 0.930 . S
C1944 C1943 1.400 . S
C1944 C1947 1.386 . S
H1945 C1961 0.930 . S
H1946 C1962 0.931 . S
C1947 H1935 0.929 . S
C1947 C1941 1.390 . S
C1947 C1944 1.386 . S
C1948 C1943 1.490 . S
C1948 C1950 1.395 1_455 S
C1948 C1951 1.403 . S
H1949 C1955 0.930 . S
C1950 H1936 0.930 . S
C1950 C1948 1.395 1_655 S
C1950 C1953 1.403 . S
C1951 C1948 1.403 . S
C1951 C1952 1.524 . S
C1951 C1955 1.400 . S
C1952 H1937 0.960 . S
C1952 H1938 0.960 . S
C1952 H1939 0.960 . S
C1952 C1951 1.524 . S
C1953 C1950 1.403 . S
C1953 C1954 1.392 . S
C1953 C1957 1.495 . S
C1954 C1953 1.392 . S
C1954 C1955 1.385 1_655 S
C1954 C1956 1.478 . S
C1955 H1949 0.930 . S
C1955 C1951 1.400 . S
C1955 C1954 1.385 1_455 S
C1956 C1954 1.478 . S
C1956 C1958 1.381 . S
C1956 C1962 1.383 . S
C1957 C1953 1.495 . S
C1957 H1963 0.959 . S
C1957 H1964 0.961 . S
C1957 H1965 0.960 . S
C1958 C1956 1.381 . S
C1958 C1959 1.394 . S
C1958 H1966 0.930 . S
C1959 C1958 1.394 . S
C1959 C1960 1.383 . S
C1959 H1967 0.929 . S
C1960 C1959 1.383 . S
C1960 C1961 1.377 . S
C1961 H1945 0.930 . S
C1961 C1960 1.377 . S
C1961 C1962 1.379 . S
C1962 H1946 0.931 . S
C1962 C1956 1.383 . S
C1962 C1961 1.379 . S
H1963 C1957 0.959 . S
H1964 C1957 0.961 . S
H1965 C1957 0.960 . S
H1966 C1958 0.930 . S
H1967 C1959 0.929 . S
C537 C182 0.703 . S
C556 C28 0.680 . S
C573 C149 0.714 . S
C592 C61 0.726 . S
C609 C74 0.732 . S
C628 C248 0.729 . S
C645 C127 0.720 . S
C664 C215 0.717 . S
C681 C140 1.179 . S
C700 C41 1.191 . S
C717 C173 1.182 . S
C736 C8 1.196 . S
C753 C107 1.176 . S
C772 C206 1.142 . S
C789 C239 1.156 . S
C808 C94 1.156 . S
C825 C292 0.707 . S
C844 C446 0.705 . S
C861 C325 0.710 . S
C880 C413 0.721 . S
C897 C338 0.726 . S
C916 C512 0.706 . S
C933 C391 0.713 . S
C952 C479 0.688 . S
C969 C404 1.180 . S
C988 C305 1.184 . S
C1005 C437 1.184 . S
C1024 C272 1.187 . S
C1041 C371 1.172 . S
C1060 C470 1.176 . S
C1077 C358 1.167 . S
C1096 C503 1.137 . S
C1113 N5 1.662 . S
C1132 N38 1.671 . S
C1149 N80 1.688 . S
C1168 N104 1.686 . S
C1185 N179 1.798 . S
C1204 N146 1.788 . S
C1221 N245 1.770 . S
C1240 N212 1.771 . S
C1257 N302 1.667 . S
C1276 N269 1.654 . S
C1293 N368 1.686 . S
C1312 N344 1.681 . S
C1329 N410 1.794 . S
C1348 N443 1.786 . S
C1365 N476 1.767 . S
C1384 N509 1.768 . S
C1401 N311 1.783 . S
C1420 N14 1.797 . S
C1437 N47 1.785 . S
C1456 N278 1.789 . S
C1473 N71 1.794 . S
C1492 N377 1.763 . S
C1509 N335 1.801 . S
C1528 N113 1.805 . S
C1545 N137 1.320 . S
C1564 N434 1.288 . S
C1581 N170 1.315 . S
C1600 N401 1.333 . S
C1617 N203 1.369 . S
C1636 N500 1.374 . S
C1653 N467 1.377 . S
C1672 N236 1.345 . S
C1689 C17 1.517 . S
C1708 C116 1.508 . S
C1725 C50 1.523 . S
C1744 C83 1.517 . S
C1761 C160 1.518 . S
C1780 C259 1.510 . S
C1797 C193 1.518 . S
C1816 C226 1.509 . S
C1833 C380 1.520 . S
C1852 C281 1.522 . S
C1869 C347 1.510 . S
C1888 C314 1.509 . S
C1905 C424 1.516 . S
C1924 C523 1.503 . S
C1941 C457 1.517 . S
C1960 C490 1.516 . S
