# Generated by pormake.
# Topology sxg, (6)-cn, num edge types: 1
# Building blocks:
#     Node 0, Type 0, BuildingBlock: KUMJIN_clean_sbu_0, # of connection points: 6
#     Node 1, Type 0, BuildingBlock: KUMJIN_clean_sbu_0, # of connection points: 6
#     Node 2, Type 0, BuildingBlock: KUMJIN_clean_sbu_0, # of connection points: 6
#     Node 3, Type 0, BuildingBlock: KUMJIN_clean_sbu_0, # of connection points: 6
#     Node 4, Type 0, BuildingBlock: KUMJIN_clean_sbu_0, # of connection points: 6
#     Node 5, Type 0, BuildingBlock: KUMJIN_clean_sbu_0, # of connection points: 6
#     Node 6, Type 0, BuildingBlock: KUMJIN_clean_sbu_0, # of connection points: 6
#     Node 7, Type 0, BuildingBlock: KUMJIN_clean_sbu_0, # of connection points: 6
#     Node 8, Type 0, BuildingBlock: KUMJIN_clean_sbu_0, # of connection points: 6
#     Node 9, Type 0, BuildingBlock: KUMJIN_clean_sbu_0, # of connection points: 6
#     Node 10, Type 0, BuildingBlock: KUMJIN_clean_sbu_0, # of connection points: 6
#     Node 11, Type 0, BuildingBlock: KUMJIN_clean_sbu_0, # of connection points: 6
#     Node 12, Type 0, BuildingBlock: KUMJIN_clean_sbu_0, # of connection points: 6
#     Node 13, Type 0, BuildingBlock: KUMJIN_clean_sbu_0, # of connection points: 6
#     Node 14, Type 0, BuildingBlock: KUMJIN_clean_sbu_0, # of connection points: 6
#     Node 15, Type 0, BuildingBlock: KUMJIN_clean_sbu_0, # of connection points: 6
#     Node 16, Type 0, BuildingBlock: KUMJIN_clean_sbu_0, # of connection points: 6
#     Node 17, Type 0, BuildingBlock: KUMJIN_clean_sbu_0, # of connection points: 6
#     Node 18, Type 0, BuildingBlock: KUMJIN_clean_sbu_0, # of connection points: 6
#     Node 19, Type 0, BuildingBlock: KUMJIN_clean_sbu_0, # of connection points: 6
#     Node 20, Type 0, BuildingBlock: KUMJIN_clean_sbu_0, # of connection points: 6
#     Node 21, Type 0, BuildingBlock: KUMJIN_clean_sbu_0, # of connection points: 6
#     Node 22, Type 0, BuildingBlock: KUMJIN_clean_sbu_0, # of connection points: 6
#     Node 23, Type 0, BuildingBlock: KUMJIN_clean_sbu_0, # of connection points: 6
#     Edge 24, Type (0, 0), BuildingBlock: KIFKEQ_clean_linker_1, # of connection points: 2
#     Edge 25, Type (0, 0), BuildingBlock: KIFKEQ_clean_linker_1, # of connection points: 2
#     Edge 26, Type (0, 0), BuildingBlock: KIFKEQ_clean_linker_1, # of connection points: 2
#     Edge 27, Type (0, 0), BuildingBlock: KIFKEQ_clean_linker_1, # of connection points: 2
#     Edge 28, Type (0, 0), BuildingBlock: KIFKEQ_clean_linker_1, # of connection points: 2
#     Edge 29, Type (0, 0), BuildingBlock: KIFKEQ_clean_linker_1, # of connection points: 2
#     Edge 30, Type (0, 0), BuildingBlock: KIFKEQ_clean_linker_1, # of connection points: 2
#     Edge 31, Type (0, 0), BuildingBlock: KIFKEQ_clean_linker_1, # of connection points: 2
#     Edge 32, Type (0, 0), BuildingBlock: KIFKEQ_clean_linker_1, # of connection points: 2
#     Edge 33, Type (0, 0), BuildingBlock: KIFKEQ_clean_linker_1, # of connection points: 2
#     Edge 34, Type (0, 0), BuildingBlock: KIFKEQ_clean_linker_1, # of connection points: 2
#     Edge 35, Type (0, 0), BuildingBlock: KIFKEQ_clean_linker_1, # of connection points: 2
#     Edge 36, Type (0, 0), BuildingBlock: KIFKEQ_clean_linker_1, # of connection points: 2
#     Edge 37, Type (0, 0), BuildingBlock: KIFKEQ_clean_linker_1, # of connection points: 2
#     Edge 38, Type (0, 0), BuildingBlock: KIFKEQ_clean_linker_1, # of connection points: 2
#     Edge 39, Type (0, 0), BuildingBlock: KIFKEQ_clean_linker_1, # of connection points: 2
#     Edge 40, Type (0, 0), BuildingBlock: KIFKEQ_clean_linker_1, # of connection points: 2
#     Edge 41, Type (0, 0), BuildingBlock: KIFKEQ_clean_linker_1, # of connection points: 2
#     Edge 42, Type (0, 0), BuildingBlock: KIFKEQ_clean_linker_1, # of connection points: 2
#     Edge 43, Type (0, 0), BuildingBlock: KIFKEQ_clean_linker_1, # of connection points: 2
#     Edge 44, Type (0, 0), BuildingBlock: KIFKEQ_clean_linker_1, # of connection points: 2
#     Edge 45, Type (0, 0), BuildingBlock: KIFKEQ_clean_linker_1, # of connection points: 2
#     Edge 46, Type (0, 0), BuildingBlock: KIFKEQ_clean_linker_1, # of connection points: 2
#     Edge 47, Type (0, 0), BuildingBlock: KIFKEQ_clean_linker_1, # of connection points: 2
#     Edge 48, Type (0, 0), BuildingBlock: KIFKEQ_clean_linker_1, # of connection points: 2
#     Edge 49, Type (0, 0), BuildingBlock: KIFKEQ_clean_linker_1, # of connection points: 2
#     Edge 50, Type (0, 0), BuildingBlock: KIFKEQ_clean_linker_1, # of connection points: 2
#     Edge 51, Type (0, 0), BuildingBlock: KIFKEQ_clean_linker_1, # of connection points: 2
#     Edge 52, Type (0, 0), BuildingBlock: KIFKEQ_clean_linker_1, # of connection points: 2
#     Edge 53, Type (0, 0), BuildingBlock: KIFKEQ_clean_linker_1, # of connection points: 2
#     Edge 54, Type (0, 0), BuildingBlock: KIFKEQ_clean_linker_1, # of connection points: 2
#     Edge 55, Type (0, 0), BuildingBlock: KIFKEQ_clean_linker_1, # of connection points: 2
#     Edge 56, Type (0, 0), BuildingBlock: KIFKEQ_clean_linker_1, # of connection points: 2
#     Edge 57, Type (0, 0), BuildingBlock: KIFKEQ_clean_linker_1, # of connection points: 2
#     Edge 58, Type (0, 0), BuildingBlock: KIFKEQ_clean_linker_1, # of connection points: 2
#     Edge 59, Type (0, 0), BuildingBlock: KIFKEQ_clean_linker_1, # of connection points: 2
#     Edge 60, Type (0, 0), BuildingBlock: KIFKEQ_clean_linker_1, # of connection points: 2
#     Edge 61, Type (0, 0), BuildingBlock: KIFKEQ_clean_linker_1, # of connection points: 2
#     Edge 62, Type (0, 0), BuildingBlock: KIFKEQ_clean_linker_1, # of connection points: 2
#     Edge 63, Type (0, 0), BuildingBlock: KIFKEQ_clean_linker_1, # of connection points: 2
#     Edge 64, Type (0, 0), BuildingBlock: KIFKEQ_clean_linker_1, # of connection points: 2
#     Edge 65, Type (0, 0), BuildingBlock: KIFKEQ_clean_linker_1, # of connection points: 2
#     Edge 66, Type (0, 0), BuildingBlock: KIFKEQ_clean_linker_1, # of connection points: 2
#     Edge 67, Type (0, 0), BuildingBlock: KIFKEQ_clean_linker_1, # of connection points: 2
#     Edge 68, Type (0, 0), BuildingBlock: KIFKEQ_clean_linker_1, # of connection points: 2
#     Edge 69, Type (0, 0), BuildingBlock: KIFKEQ_clean_linker_1, # of connection points: 2
#     Edge 70, Type (0, 0), BuildingBlock: KIFKEQ_clean_linker_1, # of connection points: 2
#     Edge 71, Type (0, 0), BuildingBlock: KIFKEQ_clean_linker_1, # of connection points: 2
#     Edge 72, Type (0, 0), BuildingBlock: KIFKEQ_clean_linker_1, # of connection points: 2
#     Edge 73, Type (0, 0), BuildingBlock: KIFKEQ_clean_linker_1, # of connection points: 2
#     Edge 74, Type (0, 0), BuildingBlock: KIFKEQ_clean_linker_1, # of connection points: 2
#     Edge 75, Type (0, 0), BuildingBlock: KIFKEQ_clean_linker_1, # of connection points: 2
#     Edge 76, Type (0, 0), BuildingBlock: KIFKEQ_clean_linker_1, # of connection points: 2
#     Edge 77, Type (0, 0), BuildingBlock: KIFKEQ_clean_linker_1, # of connection points: 2
#     Edge 78, Type (0, 0), BuildingBlock: KIFKEQ_clean_linker_1, # of connection points: 2
#     Edge 79, Type (0, 0), BuildingBlock: KIFKEQ_clean_linker_1, # of connection points: 2
#     Edge 80, Type (0, 0), BuildingBlock: KIFKEQ_clean_linker_1, # of connection points: 2
#     Edge 81, Type (0, 0), BuildingBlock: KIFKEQ_clean_linker_1, # of connection points: 2
#     Edge 82, Type (0, 0), BuildingBlock: KIFKEQ_clean_linker_1, # of connection points: 2
#     Edge 83, Type (0, 0), BuildingBlock: KIFKEQ_clean_linker_1, # of connection points: 2
#     Edge 84, Type (0, 0), BuildingBlock: KIFKEQ_clean_linker_1, # of connection points: 2
#     Edge 85, Type (0, 0), BuildingBlock: KIFKEQ_clean_linker_1, # of connection points: 2
#     Edge 86, Type (0, 0), BuildingBlock: KIFKEQ_clean_linker_1, # of connection points: 2
#     Edge 87, Type (0, 0), BuildingBlock: KIFKEQ_clean_linker_1, # of connection points: 2
#     Edge 88, Type (0, 0), BuildingBlock: KIFKEQ_clean_linker_1, # of connection points: 2
#     Edge 89, Type (0, 0), BuildingBlock: KIFKEQ_clean_linker_1, # of connection points: 2
#     Edge 90, Type (0, 0), BuildingBlock: KIFKEQ_clean_linker_1, # of connection points: 2
#     Edge 91, Type (0, 0), BuildingBlock: KIFKEQ_clean_linker_1, # of connection points: 2
#     Edge 92, Type (0, 0), BuildingBlock: KIFKEQ_clean_linker_1, # of connection points: 2
#     Edge 93, Type (0, 0), BuildingBlock: KIFKEQ_clean_linker_1, # of connection points: 2
#     Edge 94, Type (0, 0), BuildingBlock: KIFKEQ_clean_linker_1, # of connection points: 2
#     Edge 95, Type (0, 0), BuildingBlock: KIFKEQ_clean_linker_1, # of connection points: 2
# Relax obj value: 0.122
# Max RMSD: 0.247
# Mean RMSD: 0.247
data_MOF--net-sxg--node1-KUMJIN_clean_sbu_0--edge1-KIFKEQ_clean_linker_1
_symmetry_space_group_name_H-M    P1
_symmetry_Int_Tables_number       1
_symmetry_cell_setting            triclinic
loop_
_symmetry_equiv_pos_as_xyz
'x, y, z'
_cell_length_a     52.585319
_cell_length_b     52.550153
_cell_length_c     52.55186
_cell_angle_alpha  89.994822
_cell_angle_beta   90.041584
_cell_angle_gamma 90.032298
loop_
_atom_site_label
_atom_site_type_symbol
_atom_site_fract_x
_atom_site_fract_y
_atom_site_fract_z
_atom_type_partial_charge
Eu0 Eu 0.04693 0.38826 0.27278 0.0
C1 C 0.03306 0.30484 0.34459 0.0
C2 C 0.03593 0.32825 0.38425 0.0
C3 C 1.00735 0.29217 0.38112 0.0
C4 C 0.04355 0.32452 0.35868 0.0
C5 C 1.01508 0.28826 0.35588 0.0
C6 C 1.01772 0.31213 0.39525 0.0
C7 C 1.01422 0.26426 0.31688 0.0
N8 N 0.04026 0.30186 0.31993 0.0
C9 C 0.0321 0.28099 0.30656 0.0
C10 C 1.00537 0.26811 0.34152 0.0
Eu11 Eu 0.07149 0.33079 0.30401 0.0
N12 N 0.06061 0.3404 0.34734 0.0
C13 C 0.07155 0.35953 0.36128 0.0
C14 C 0.04657 0.34828 0.39805 0.0
C15 C 0.06456 0.36387 0.38654 0.0
H16 H 0.03974 0.27652 0.28804 0.0
H17 H 0.07324 0.37923 0.39719 0.0
H18 H 1.01151 0.31499 0.4147 0.0
H19 H 1.0076 0.24812 0.30592 0.0
H20 H 0.08598 0.3716 0.35364 0.0
H21 H 0.08541 0.37921 0.17651 0.0
H22 H 0.04115 0.35178 0.41763 0.0
H23 H 0.04115 0.44187 0.30697 0.0
H24 H 0.05862 0.36749 0.21309 0.0
H25 H 0.0604 0.48487 0.30892 0.0
H26 H 0.99336 0.27983 0.3899 0.0
H27 H 0.11212 0.41793 0.17829 0.0
H28 H 0.12444 0.45786 0.20157 0.0
H29 H 0.99155 0.25505 0.3495 0.0
H30 H 0.11747 0.48686 0.23766 0.0
N31 N 0.07066 0.39874 0.23591 0.0
C32 C 0.07009 0.38448 0.21419 0.0
C33 C 0.10042 0.41286 0.19448 0.0
C34 C 0.09931 0.4285 0.216 0.0
C35 C 0.08528 0.39105 0.19335 0.0
C36 C 0.08383 0.42096 0.23658 0.0
H37 H 0.09298 0.49742 0.27735 0.0
N38 N 0.06347 0.43014 0.27537 0.0
C39 C 0.06626 0.47158 0.29433 0.0
C40 C 0.08003 0.43725 0.25689 0.0
C41 C 0.05536 0.44732 0.29315 0.0
C42 C 0.08475 0.47854 0.27656 0.0
C43 C 0.09145 0.46152 0.2572 0.0
O44 O 1.00998 0.40613 0.28007 0.0
O45 O 0.03729 0.35604 0.29967 0.0
O46 O 0.04578 0.31699 0.27125 0.0
O47 O 0.03387 0.3543 0.24996 0.0
O48 O 0.02955 0.39288 0.31184 0.0
O49 O 0.02088 0.39805 0.24154 0.0
O50 O 0.10552 0.32045 0.3258 0.0
O51 O 0.07971 0.36005 0.27417 0.0
O52 O 0.07829 0.40214 0.29845 0.0
O53 O 0.09904 0.36509 0.31204 0.0
O54 O 0.08873 0.3225 0.2657 0.0
O55 O 0.08711 0.29207 0.30273 0.0
C56 C 0.02692 0.36907 0.31715 0.0
C57 C 0.99335 0.43343 0.24866 0.0
C58 C 0.95703 0.46244 0.24419 0.0
C59 C 0.96683 0.43795 0.2494 0.0
C60 C 0.97399 0.48218 0.23815 0.0
C61 C 1.00976 0.45341 0.242 0.0
C62 C 1.00011 0.47761 0.23688 0.0
C63 C 0.03388 0.32935 0.25265 0.0
C64 C 1.00382 0.4084 0.25625 0.0
C65 C 0.10823 0.46842 0.2376 0.0
C66 C 0.11219 0.45191 0.21704 0.0
C67 C 0.08947 0.34558 0.25728 0.0
C68 C 0.13106 0.28598 0.31121 0.0
C69 C 0.13979 0.2632 0.32277 0.0
C70 C 0.16408 0.25313 0.31683 0.0
C71 C 0.17908 0.26613 0.29882 0.0
C72 C 0.14653 0.29835 0.29339 0.0
C73 C 0.17034 0.28842 0.28723 0.0
C74 C 0.09718 0.39051 0.31019 0.0
C75 C 0.10598 0.29687 0.31802 0.0
H76 H 0.95396 0.42264 0.25442 0.0
H77 H 0.96693 0.5011 0.23403 0.0
H78 H 0.03005 0.45037 0.24092 0.0
H79 H 1.01297 0.49293 0.23195 0.0
H80 H 0.12788 0.25364 0.33661 0.0
H81 H 0.19754 0.25884 0.29333 0.0
H82 H 0.14021 0.31573 0.28427 0.0
H83 H 0.18213 0.29806 0.27337 0.0
Eu84 Eu 0.49103 0.65041 0.77331 0.0
C85 C 0.50375 0.73642 0.84349 0.0
C86 C 0.50307 0.71303 0.88322 0.0
C87 C 0.52981 0.75044 0.87926 0.0
C88 C 0.49472 0.71627 0.85782 0.0
C89 C 0.52109 0.75397 0.85426 0.0
C90 C 0.52084 0.72999 0.89368 0.0
C91 C 0.51896 0.77825 0.81543 0.0
N92 N 0.49536 0.73917 0.8192 0.0
C93 C 0.50176 0.76049 0.80563 0.0
C94 C 0.52898 0.77478 0.83972 0.0
Eu95 Eu 0.46582 0.70834 0.80377 0.0
N96 N 0.47779 0.69987 0.84705 0.0
C97 C 0.46781 0.68049 0.86132 0.0
C98 C 0.49338 0.69278 0.89741 0.0
C99 C 0.47557 0.67655 0.88645 0.0
H100 H 0.49336 0.76424 0.78725 0.0
H101 H 0.46769 0.66098 0.89739 0.0
H102 H 0.52766 0.72752 0.91299 0.0
H103 H 0.52422 0.79478 0.80433 0.0
H104 H 0.45376 0.66779 0.85391 0.0
H105 H 0.45442 0.65749 0.67616 0.0
H106 H 0.49939 0.68962 0.91689 0.0
H107 H 0.49655 0.59723 0.80828 0.0
H108 H 0.48066 0.66981 0.71304 0.0
H109 H 0.47724 0.55428 0.81068 0.0
H110 H 0.54334 0.76354 0.88767 0.0
H111 H 0.42735 0.61904 0.67829 0.0
H112 H 0.41443 0.57963 0.70215 0.0
H113 H 0.54224 0.78863 0.84732 0.0
H114 H 0.42082 0.55127 0.73887 0.0
N115 N 0.4678 0.63926 0.73631 0.0
C116 C 0.46896 0.65298 0.71427 0.0
C117 C 0.43876 0.62441 0.6946 0.0
C118 C 0.43937 0.60922 0.71647 0.0
C119 C 0.4541 0.64605 0.69328 0.0
C120 C 0.45452 0.61713 0.73718 0.0
H121 H 0.44486 0.54131 0.77903 0.0
N122 N 0.47444 0.60855 0.77634 0.0
C123 C 0.4715 0.56737 0.79585 0.0
C124 C 0.45804 0.60117 0.75781 0.0
C125 C 0.48244 0.5916 0.79442 0.0
C126 C 0.45312 0.56017 0.77804 0.0
C127 C 0.44661 0.57691 0.75836 0.0
O128 O 0.52776 0.63227 0.7811 0.0
O129 O 0.50002 0.68286 0.80005 0.0
O130 O 0.49284 0.72185 0.77185 0.0
O131 O 0.50439 0.68436 0.75058 0.0
O132 O 0.50833 0.64623 0.81246 0.0
O133 O 0.51754 0.64079 0.74246 0.0
O134 O 0.44763 0.746 0.80122 0.0
O135 O 0.45832 0.67875 0.77387 0.0
O136 O 0.45935 0.63676 0.79865 0.0
O137 O 0.43893 0.67385 0.81255 0.0
O138 O 0.45043 0.71646 0.76471 0.0
O139 O 0.43003 0.71673 0.82353 0.0
C140 C 0.51059 0.6701 0.81764 0.0
C141 C 0.54443 0.60496 0.74972 0.0
C142 C 0.58027 0.57527 0.74564 0.0
C143 C 0.57085 0.59992 0.75088 0.0
C144 C 0.563 0.55594 0.7391 0.0
C145 C 0.52775 0.58537 0.74257 0.0
C146 C 0.537 0.56104 0.73739 0.0
C147 C 0.50481 0.70931 0.75337 0.0
C148 C 0.53425 0.63011 0.75736 0.0
C149 C 0.43007 0.5697 0.73864 0.0
C150 C 0.42643 0.58586 0.71773 0.0
C151 C 0.4495 0.69331 0.75654 0.0
C152 C 0.42446 0.75947 0.83771 0.0
C153 C 0.40597 0.77908 0.83534 0.0
C154 C 0.40171 0.79665 0.85557 0.0
C155 C 0.41688 0.79444 0.87758 0.0
C156 C 0.43846 0.75771 0.86033 0.0
C157 C 0.43488 0.77514 0.87992 0.0
C158 C 0.44066 0.64848 0.81057 0.0
C159 C 0.42932 0.74068 0.81698 0.0
H160 H 0.58392 0.61492 0.75631 0.0
H161 H 0.56972 0.53691 0.73491 0.0
H162 H 0.50755 0.58881 0.74116 0.0
H163 H 0.52393 0.54603 0.73208 0.0
H164 H 0.39476 0.78034 0.81809 0.0
H165 H 0.41509 0.80784 0.89311 0.0
H166 H 0.45217 0.74274 0.86296 0.0
H167 H 0.44615 0.77366 0.89711 0.0
Eu168 Eu 0.54791 0.15039 0.76585 0.0
C169 C 0.53563 0.23803 0.69509 0.0
C170 C 0.53477 0.21422 0.65561 0.0
C171 C 0.51066 0.25339 0.65913 0.0
C172 C 0.54346 0.21729 0.6809 0.0
C173 C 0.51933 0.25646 0.6842 0.0
C174 C 0.51825 0.23225 0.64493 0.0
C175 C 0.522 0.28031 0.72328 0.0
N176 N 0.5439 0.24029 0.71946 0.0
C177 C 0.53815 0.26167 0.7332 0.0
C178 C 0.51232 0.27757 0.69876 0.0
Eu179 Eu 0.57239 0.20852 0.73473 0.0
N180 N 0.55921 0.19991 0.69186 0.0
C181 C 0.56692 0.17909 0.67823 0.0
C182 C 0.54273 0.19299 0.64179 0.0
C183 C 0.55886 0.17536 0.65317 0.0
H184 H 0.54633 0.26477 0.75182 0.0
H185 H 0.56495 0.1587 0.64271 0.0
H186 H 0.51126 0.22996 0.62568 0.0
H187 H 0.5173 0.29695 0.73446 0.0
H188 H 0.57873 0.16468 0.68642 0.0
H189 H 0.58322 0.15744 0.86352 0.0
H190 H 0.53639 0.18994 0.6224 0.0
H191 H 0.54638 0.09922 0.7276 0.0
H192 H 0.55848 0.17056 0.82597 0.0
H193 H 0.56527 0.05611 0.7255 0.0
H194 H 0.49805 0.26726 0.65055 0.0
H195 H 0.60801 0.11747 0.86262 0.0
H196 H 0.61989 0.07745 0.83941 0.0
H197 H 0.49985 0.29208 0.69107 0.0
H198 H 0.61474 0.04971 0.80203 0.0
N199 N 0.56982 0.13884 0.80349 0.0
C200 C 0.56917 0.15307 0.82522 0.0
C201 C 0.59722 0.12317 0.846 0.0
C202 C 0.59641 0.10779 0.82427 0.0
C203 C 0.58319 0.1457 0.84661 0.0
C204 C 0.58219 0.11615 0.8031 0.0
H205 H 0.59378 0.0413 0.75992 0.0
N206 N 0.56482 0.10877 0.76233 0.0
C207 C 0.56955 0.0685 0.74139 0.0
C208 C 0.5794 0.10052 0.78203 0.0
C209 C 0.55885 0.09282 0.74264 0.0
C210 C 0.58572 0.06024 0.7608 0.0
C211 C 0.5906 0.07616 0.7816 0.0
O212 O 0.51219 0.13061 0.75766 0.0
O213 O 0.53864 0.18256 0.73896 0.0
O214 O 0.54484 0.22172 0.76634 0.0
O215 O 0.53479 0.18435 0.78873 0.0
O216 O 0.53028 0.14604 0.72664 0.0
O217 O 0.52055 0.1417 0.79623 0.0
O218 O 0.5912 0.24589 0.73705 0.0
O219 O 0.57975 0.17939 0.76487 0.0
O220 O 0.5832 0.13785 0.74484 0.0
O221 O 0.59891 0.17426 0.72437 0.0
O222 O 0.58852 0.21678 0.77373 0.0
O223 O 0.60827 0.21616 0.71489 0.0
C224 C 0.5277 0.1699 0.72157 0.0
C225 C 0.49445 0.105 0.78988 0.0
C226 C 0.45852 0.07553 0.79486 0.0
C227 C 0.46803 0.09996 0.78878 0.0
C228 C 0.47569 0.05642 0.80218 0.0
C229 C 0.51104 0.08565 0.79775 0.0
C230 C 0.5017 0.06154 0.8038 0.0
C231 C 0.53362 0.20924 0.78536 0.0
C232 C 0.5047 0.12979 0.78123 0.0
C233 C 0.60573 0.06825 0.80215 0.0
C234 C 0.60867 0.08405 0.82342 0.0
C235 C 0.58908 0.19368 0.78208 0.0
C236 C 0.61428 0.25869 0.70028 0.0
C237 C 0.63234 0.27868 0.70276 0.0
C238 C 0.63666 0.29609 0.68242 0.0
C239 C 0.62193 0.29335 0.66017 0.0
C240 C 0.60081 0.25632 0.67739 0.0
C241 C 0.60439 0.27362 0.65768 0.0
C242 C 0.59987 0.14941 0.73003 0.0
C243 C 0.60932 0.24017 0.72121 0.0
H244 H 0.45501 0.11476 0.78273 0.0
H245 H 0.46889 0.03756 0.80699 0.0
H246 H 0.53124 0.08909 0.79902 0.0
H247 H 0.51471 0.0467 0.80968 0.0
H248 H 0.64319 0.28033 0.72021 0.0
H249 H 0.62372 0.30663 0.64453 0.0
H250 H 0.58753 0.24097 0.67463 0.0
H251 H 0.5935 0.27171 0.6403 0.0
Eu252 Eu 0.99008 0.88734 0.26531 0.0
C253 C 1.0042 0.80376 0.194 0.0
C254 C 1.00091 0.82672 0.15411 0.0
C255 C 0.02998 0.7911 0.15753 0.0
C256 C 0.99342 0.82315 0.17975 0.0
C257 C 0.02236 0.78732 0.18283 0.0
C258 C 1.01931 0.81077 0.14323 0.0
C259 C 0.02353 0.76363 0.22201 0.0
N260 N 0.99706 0.80089 0.21869 0.0
C261 C 1.00545 0.78021 0.23221 0.0
C262 C 0.03233 0.76742 0.19734 0.0
Eu263 Eu 0.96555 0.82961 0.23443 0.0
N264 N 0.97618 0.83889 0.19097 0.0
C265 C 0.96488 0.85766 0.17685 0.0
C266 C 0.98992 0.84643 0.14012 0.0
C267 C 0.97172 0.86184 0.15151 0.0
H268 H 0.99785 0.77572 0.25074 0.0
H269 H 0.96277 0.87693 0.14072 0.0
H270 H 0.02541 0.81351 0.12373 0.0
H271 H 0.03033 0.74765 0.23308 0.0
H272 H 0.95025 0.86955 0.18439 0.0
H273 H 0.95313 0.8771 0.36208 0.0
H274 H 0.99523 0.8498 0.12049 0.0
H275 H 0.99466 0.94137 0.23153 0.0
H276 H 0.9796 0.86606 0.32506 0.0
H277 H 0.97451 0.98396 0.23001 0.0
H278 H 0.04409 0.77885 0.14883 0.0
H279 H 0.92565 0.91526 0.36083 0.0
H280 H 0.91221 0.95501 0.33788 0.0
H281 H 0.04629 0.75448 0.18945 0.0
H282 H 0.91815 0.98433 0.30185 0.0
N283 N 0.9667 0.8972 0.30257 0.0
C284 C 0.96783 0.88284 0.32421 0.0
C285 C 0.93724 0.91051 0.34446 0.0
C286 C 0.93775 0.92627 0.32301 0.0
C287 C 0.95281 0.88902 0.34529 0.0
C288 C 0.9531 0.91915 0.30219 0.0
H289 H 0.94197 0.99562 0.26194 0.0
N290 N 0.97285 0.92896 0.26324 0.0
C291 C 0.96907 0.97046 0.24458 0.0
C292 C 0.95634 0.93561 0.28192 0.0
C293 C 0.98048 0.94644 0.24552 0.0
C294 C 0.9506 0.97692 0.26255 0.0
C295 C 0.94444 0.95965 0.28188 0.0
O296 O 0.02653 0.90606 0.25758 0.0
O297 O 0.99967 0.85519 0.23829 0.0
O298 O 0.99092 0.81595 0.26745 0.0
O299 O 1.0039 0.85346 0.28775 0.0
O300 O 1.00691 0.89215 0.22606 0.0
O301 O 1.01655 0.89714 0.29617 0.0
O302 O 0.93127 0.81922 0.21304 0.0
O303 O 0.95736 0.859 0.26415 0.0
O304 O 0.95864 0.90093 0.23967 0.0
O305 O 0.93795 0.86376 0.22628 0.0
O306 O 0.94848 0.82147 0.27287 0.0
O307 O 0.95015 0.79077 0.23559 0.0
C308 C 1.00968 0.86837 0.22068 0.0
C309 C 0.04322 0.9332 0.28914 0.0
C310 C 0.07904 0.96288 0.29356 0.0
C311 C 0.06963 0.93827 0.28811 0.0
C312 C 0.06177 0.98215 0.30017 0.0
C313 C 0.02652 0.95271 0.29636 0.0
C314 C 0.03577 0.97701 0.30174 0.0
C315 C 1.0034 0.82847 0.28556 0.0
C316 C 0.03311 0.90807 0.28131 0.0
C317 C 0.92775 0.96609 0.30171 0.0
C318 C 0.92438 0.9494 0.32223 0.0
C319 C 0.94768 0.84459 0.28115 0.0
C320 C 0.90605 0.78459 0.22788 0.0
C321 C 0.89712 0.76184 0.21639 0.0
C322 C 0.87292 0.75172 0.2227 0.0
C323 C 0.85823 0.76465 0.241 0.0
C324 C 0.89087 0.79688 0.24599 0.0
C325 C 0.86716 0.7869 0.25251 0.0
C326 C 0.93981 0.88918 0.22796 0.0
C327 C 0.931 0.79559 0.22067 0.0
H328 H 0.08273 0.92332 0.28263 0.0
H329 H 0.0685 1.00116 0.3045 0.0
H330 H 1.00631 0.94923 0.29767 0.0
H331 H 0.02269 0.99198 0.30711 0.0
H332 H 0.90879 0.75233 0.20231 0.0
H333 H 0.83986 0.75733 0.24677 0.0
H334 H 0.89733 0.81425 0.25505 0.0
H335 H 0.85561 0.79649 0.2666 0.0
Eu336 Eu 0.27104 0.04865 0.38766 0.0
C337 C 0.33993 0.03413 0.29964 0.0
C338 C 0.37973 0.03193 0.32277 0.0
C339 C 0.37398 1.00654 0.28464 0.0
C340 C 0.35487 0.04176 0.31994 0.0
C341 C 0.34957 1.0168 0.28149 0.0
C342 C 0.38901 1.01406 0.30526 0.0
C343 C 0.31075 0.02179 0.25761 0.0
N344 N 0.31611 0.04377 0.29743 0.0
C345 C 0.30202 0.03882 0.27605 0.0
C346 C 0.33449 1.0104 0.26054 0.0
Eu347 Eu 0.30239 0.07262 0.32959 0.0
N348 N 0.34506 0.0585 0.33706 0.0
C349 C 0.35967 0.06665 0.35704 0.0
C350 C 0.39449 0.04009 0.34332 0.0
C351 C 0.38444 0.05761 0.36044 0.0
H352 H 0.28395 0.04812 0.27297 0.0
H353 H 0.39568 0.06401 0.37647 0.0
H354 H 0.40777 1.00593 0.30753 0.0
H355 H 0.29924 1.01764 0.24104 0.0
H356 H 0.3525 0.07969 0.37094 0.0
H357 H 0.17415 0.08559 0.37946 0.0
H358 H 0.4136 0.03292 0.34617 0.0
H359 H 0.30863 0.04637 0.43931 0.0
H360 H 0.21144 0.06041 0.36667 0.0
H361 H 0.31053 0.06505 0.48251 0.0
H362 H 0.38141 0.99282 0.27118 0.0
H363 H 0.17487 0.10999 0.41969 0.0
H364 H 0.19769 0.12121 0.46015 0.0
H365 H 0.34124 0.9972 0.24622 0.0
H366 H 0.23461 0.11538 0.48832 0.0
N367 N 0.23366 0.07113 0.39882 0.0
C368 C 0.21214 0.07095 0.38426 0.0
C369 C 0.1914 0.09903 0.41413 0.0
C370 C 0.21288 0.09779 0.4298 0.0
C371 C 0.19089 0.08522 0.39145 0.0
C372 C 0.23394 0.08333 0.42161 0.0
H373 H 0.27637 0.09395 0.49707 0.0
N374 N 0.27431 0.06533 0.42941 0.0
C375 C 0.29485 0.06959 0.46996 0.0
C376 C 0.25475 0.08014 0.4375 0.0
C377 C 0.29371 0.05903 0.44557 0.0
C378 C 0.27558 0.08598 0.47808 0.0
C379 C 0.25505 0.09119 0.46194 0.0
O380 O 0.279 1.01256 0.40689 0.0
O381 O 0.29805 0.0389 0.35567 0.0
O382 O 0.27058 0.04526 0.31651 0.0
O383 O 0.24805 0.03553 0.3538 0.0
O384 O 0.31023 0.03147 0.39248 0.0
O385 O 0.2404 0.02165 0.3967 0.0
O386 O 0.29988 0.09203 0.29254 0.0
O387 O 0.27246 0.08064 0.35877 0.0
O388 O 0.29255 0.08347 0.40048 0.0
O389 O 0.31341 0.09873 0.36413 0.0
O390 O 0.26352 0.08875 0.32128 0.0
O391 O 0.3232 0.10801 0.32197 0.0
C392 C 0.31539 0.02833 0.36871 0.0
C393 C 0.24708 0.99485 0.43286 0.0
C394 C 0.24231 0.95847 0.4618 0.0
C395 C 0.24803 0.96833 0.43744 0.0
C396 C 0.23551 0.97537 0.48132 0.0
C397 C 0.23975 1.0112 0.45262 0.0
C398 C 0.23407 1.0015 0.47668 0.0
C399 C 0.25148 0.03421 0.32895 0.0
C400 C 0.25536 1.0054 0.40807 0.0
C401 C 0.23461 0.10651 0.46971 0.0
C402 C 0.2136 0.10984 0.45365 0.0
C403 C 0.25527 0.08984 0.34438 0.0
C404 C 0.33703 0.11418 0.2792 0.0
C405 C 0.33478 0.13274 0.25963 0.0
C406 C 0.35489 0.13673 0.24189 0.0
C407 C 0.37668 0.12125 0.24393 0.0
C408 C 0.35941 0.09981 0.28076 0.0
C409 C 0.3789 0.10316 0.26318 0.0
C410 C 0.30779 0.09979 0.38901 0.0
C411 C 0.31639 0.1096 0.29813 0.0
H412 H 0.25366 0.95549 0.42231 0.0
H413 H 0.23099 0.96828 0.50014 0.0
H414 H 0.23862 0.03148 0.44955 0.0
H415 H 0.2286 1.01432 0.49184 0.0
H416 H 0.3177 0.1442 0.25852 0.0
H417 H 0.39211 0.12286 0.2304 0.0
H418 H 0.36194 0.08598 0.29567 0.0
H419 H 0.39591 0.09163 0.2645 0.0
Eu420 Eu 0.26547 0.99098 0.88839 0.0
C421 C 0.19582 1.00393 0.80202 0.0
C422 C 0.15588 1.00325 0.82499 0.0
C423 C 0.16022 0.02996 0.7876 0.0
C424 C 0.18129 0.99491 0.82203 0.0
C425 C 0.18523 0.02125 0.78434 0.0
C426 C 0.1456 0.02101 0.8079 0.0
C427 C 0.22422 1.01904 0.76042 0.0
N428 N 0.22009 0.99549 0.7995 0.0
C429 C 0.23382 1.00183 0.77827 0.0
C430 C 0.19995 0.0291 0.76366 0.0
Eu431 Eu 0.23513 0.96581 0.8304 0.0
N432 N 0.19186 0.97794 0.83853 0.0
C433 C 0.17737 0.96796 0.85774 0.0
C434 C 0.14147 0.99357 0.84508 0.0
C435 C 0.15224 0.97574 0.86141 0.0
H436 H 0.25217 0.99335 0.77464 0.0
H437 H 0.14113 0.96785 0.87684 0.0
H438 H 0.12628 0.02781 0.81015 0.0
H439 H 0.23545 0.02425 0.74397 0.0
H440 H 0.18459 0.95386 0.87049 0.0
H441 H 0.36186 0.95253 0.8817 0.0
H442 H 0.12198 0.99957 0.84801 0.0
H443 H 0.23034 0.99737 0.94127 0.0
H444 H 0.32549 0.97925 0.86905 0.0
H445 H 0.22765 0.97867 0.98445 0.0
H446 H 0.15193 0.04345 0.77439 0.0
H447 H 0.35929 0.92606 0.92055 0.0
H448 H 0.33524 0.91406 0.96011 0.0
H449 H 0.1925 0.04235 0.74973 0.0
H450 H 0.29864 0.92136 0.98834 0.0
N451 N 0.30207 0.9673 0.89983 0.0
C452 C 0.32407 0.96785 0.88606 0.0
C453 C 0.34321 0.9377 0.91504 0.0
C454 C 0.32139 0.93891 0.93022 0.0
C455 C 0.34477 0.9527 0.89317 0.0
C456 C 0.30096 0.95431 0.92213 0.0
H457 H 0.25892 0.9462 0.99797 0.0
N458 N 0.26206 0.97481 0.93034 0.0
C459 C 0.24242 0.97259 0.97148 0.0
C460 C 0.28036 0.95829 0.93798 0.0
C461 C 0.24402 0.98317 0.94711 0.0
C462 C 0.26002 0.95414 0.97898 0.0
C463 C 0.27961 0.94715 0.96237 0.0
O464 O 0.25802 0.02808 0.90597 0.0
O465 O 0.2389 1.00013 0.8558 0.0
O466 O 0.26725 0.99259 0.81707 0.0
O467 O 0.28864 1.00386 0.85458 0.0
O468 O 0.22644 1.00844 0.89241 0.0
O469 O 0.29658 1.01712 0.89831 0.0
O470 O 0.23811 0.94758 0.7928 0.0
O471 O 0.26465 0.95809 0.86024 0.0
O472 O 0.23976 0.9596 0.90208 0.0
O473 O 0.22591 0.93911 0.86496 0.0
O474 O 0.27407 0.94981 0.82275 0.0
O475 O 0.2149 0.93034 0.82157 0.0
C476 C 0.22132 1.01071 0.86853 0.0
C477 C 0.28914 0.04446 0.93379 0.0
C478 C 0.29292 0.08042 0.96343 0.0
C479 C 0.28797 0.07091 0.93874 0.0
C480 C 0.29915 0.0632 0.9829 0.0
C481 C 0.296 0.02784 0.95352 0.0
C482 C 0.30087 0.03716 0.9779 0.0
C483 C 0.28587 1.00431 0.82963 0.0
C484 C 0.28181 0.03419 0.90857 0.0
C485 C 0.29905 0.93041 0.96981 0.0
C486 C 0.3199 0.92625 0.95373 0.0
C487 C 0.28197 0.94882 0.84599 0.0
C488 C 0.20141 0.92527 0.77852 0.0
C489 C 0.20396 0.90723 0.75851 0.0
C490 C 0.18403 0.9036 0.74047 0.0
C491 C 0.16219 0.919 0.74258 0.0
C492 C 0.1789 0.9394 0.78022 0.0
C493 C 0.15965 0.93651 0.76229 0.0
C494 C 0.22772 0.94096 0.89036 0.0
C495 C 0.22187 0.92958 0.79774 0.0
H496 H 0.28279 0.08395 0.92363 0.0
H497 H 0.30311 0.06998 1.00197 0.0
H498 H 0.29745 1.00761 0.95016 0.0
H499 H 0.30596 0.02413 0.99302 0.0
H500 H 0.22109 0.89586 0.75732 0.0
H501 H 0.14693 0.91772 0.72881 0.0
H502 H 0.17608 0.95269 0.79553 0.0
H503 H 0.14257 0.94792 0.76372 0.0
Eu504 Eu 0.7723 0.49082 0.65106 0.0
C505 C 0.84248 0.50249 0.73786 0.0
C506 C 0.88199 0.50313 0.71417 0.0
C507 C 0.87821 0.52805 0.75282 0.0
C508 C 0.85674 0.49438 0.71728 0.0
C509 C 0.85326 0.51914 0.75606 0.0
C510 C 0.89247 0.52019 0.73183 0.0
C511 C 0.81447 0.51609 0.78023 0.0
N512 N 0.81825 0.49392 0.74034 0.0
C513 C 0.80467 0.49957 0.76184 0.0
C514 C 0.83876 0.5262 0.77718 0.0
Eu515 Eu 0.80303 0.46518 0.70871 0.0
N516 N 0.84603 0.47798 0.70033 0.0
C517 C 0.86017 0.46905 0.68037 0.0
C518 C 0.89607 0.49451 0.69338 0.0
C519 C 0.88513 0.47729 0.6765 0.0
H520 H 0.78627 0.49106 0.76523 0.0
H521 H 0.89596 0.47025 0.66048 0.0
H522 H 0.91167 0.52726 0.72947 0.0
H523 H 0.80337 0.52075 0.79694 0.0
H524 H 0.85273 0.45558 0.66708 0.0
H525 H 0.67551 0.45347 0.65903 0.0
H526 H 0.91543 0.50086 0.6903 0.0
H527 H 0.80678 0.49663 0.59764 0.0
H528 H 0.7123 0.47989 0.67112 0.0
H529 H 0.8089 0.47739 0.55464 0.0
H530 H 0.88669 0.54093 0.76651 0.0
H531 H 0.67738 0.42666 0.62039 0.0
H532 H 0.70092 0.41403 0.58074 0.0
H533 H 0.84636 0.53893 0.79151 0.0
H534 H 0.73732 0.42067 0.55209 0.0
N535 N 0.73526 0.46753 0.64015 0.0
C536 C 0.71342 0.46838 0.65416 0.0
C537 C 0.69365 0.4382 0.62563 0.0
C538 C 0.71532 0.43905 0.61022 0.0
C539 C 0.69247 0.4534 0.64738 0.0
C540 C 0.736 0.45433 0.61796 0.0
H541 H 0.77729 0.44489 0.54187 0.0
N542 N 0.77502 0.47439 0.60914 0.0
C543 C 0.7942 0.47159 0.56782 0.0
C544 C 0.75648 0.45796 0.60187 0.0
C545 C 0.79292 0.48248 0.59207 0.0
C546 C 0.7764 0.45314 0.56073 0.0
C547 C 0.75688 0.44654 0.57759 0.0
O548 O 0.77986 0.52764 0.63298 0.0
O549 O 0.799 0.49962 0.68354 0.0
O550 O 0.7712 0.49202 0.72255 0.0
O551 O 0.74966 0.50373 0.68523 0.0
O552 O 0.81124 0.50872 0.64708 0.0
O553 O 0.74132 0.51728 0.64174 0.0
O554 O 0.80052 0.44605 0.74591 0.0
O555 O 0.77327 0.45783 0.67904 0.0
O556 O 0.79781 0.45941 0.63711 0.0
O557 O 0.81211 0.4388 0.67398 0.0
O558 O 0.76404 0.4493 0.71653 0.0
O559 O 0.82336 0.42956 0.71642 0.0
C560 C 0.81643 0.51066 0.67099 0.0
C561 C 0.74826 0.54446 0.60604 0.0
C562 C 0.74361 0.58063 0.57685 0.0
C563 C 0.74915 0.57095 0.60132 0.0
C564 C 0.73712 0.56359 0.55733 0.0
C565 C 0.74117 0.52795 0.58629 0.0
C566 C 0.73574 0.53748 0.56209 0.0
C567 C 0.75259 0.50395 0.71018 0.0
C568 C 0.75611 0.53409 0.63104 0.0
C569 C 0.73719 0.42991 0.57052 0.0
C570 C 0.71645 0.42614 0.58684 0.0
C571 C 0.756 0.44853 0.69332 0.0
C572 C 0.83749 0.42352 0.75911 0.0
C573 C 0.83508 0.40526 0.77893 0.0
C574 C 0.85529 0.40116 0.79655 0.0
C575 C 0.87732 0.41627 0.79418 0.0
C576 C 0.86016 0.4374 0.75714 0.0
C577 C 0.87972 0.43401 0.77464 0.0
C578 C 0.80995 0.44073 0.64864 0.0
C579 C 0.81674 0.42823 0.74031 0.0
H580 H 0.7545 0.5839 0.61646 0.0
H581 H 0.73274 0.57057 0.53842 0.0
H582 H 0.73998 0.50768 0.58948 0.0
H583 H 0.73047 0.52455 0.54695 0.0
H584 H 0.81782 0.39411 0.78031 0.0
H585 H 0.89283 0.41461 0.80763 0.0
H586 H 0.86286 0.45086 0.74194 0.0
H587 H 0.89693 0.44521 0.77302 0.0
Eu588 Eu 0.76389 0.54712 0.14948 0.0
C589 C 0.69917 0.53567 0.2403 0.0
C590 C 0.65827 0.53273 0.21891 0.0
C591 C 0.66544 0.50925 0.25803 0.0
C592 C 0.68324 0.54271 0.22019 0.0
C593 C 0.69003 0.51945 0.25972 0.0
C594 C 0.64971 0.51573 0.23761 0.0
C595 C 0.72928 0.52625 0.28256 0.0
N596 N 0.72315 0.54538 0.2415 0.0
C597 C 0.73751 0.54224 0.26301 0.0
C598 C 0.70564 0.51439 0.28068 0.0
Eu599 Eu 0.73506 0.57258 0.20763 0.0
N600 N 0.69203 0.55897 0.20189 0.0
C601 C 0.6763 0.56643 0.18248 0.0
C602 C 0.64252 0.53999 0.19878 0.0
C603 C 0.65153 0.557 0.18062 0.0
H604 H 0.75543 0.55211 0.26515 0.0
H605 H 0.6394 0.56281 0.16501 0.0
H606 H 0.6308 0.50765 0.23655 0.0
H607 H 0.74105 0.52332 0.29921 0.0
H608 H 0.68235 0.57928 0.1679 0.0
H609 H 0.86076 0.58403 0.15802 0.0
H610 H 0.62333 0.53265 0.19714 0.0
H611 H 0.72882 0.54256 0.09632 0.0
H612 H 0.82385 0.55755 0.16975 0.0
H613 H 0.7268 0.56217 0.05347 0.0
H614 H 0.65829 0.49651 0.27259 0.0
H615 H 0.85907 0.61106 0.11951 0.0
H616 H 0.83567 0.62401 0.07985 0.0
H617 H 0.69925 0.50207 0.29593 0.0
H618 H 0.79917 0.61787 0.05115 0.0
N619 N 0.801 0.57034 0.13886 0.0
C620 C 0.82282 0.56928 0.15292 0.0
C621 C 0.84273 0.59959 0.12465 0.0
C622 C 0.82107 0.59893 0.10918 0.0
C623 C 0.84381 0.58427 0.14633 0.0
C624 C 0.8003 0.58374 0.11679 0.0
H625 H 0.75892 0.5942 0.04081 0.0
N626 N 0.761 0.56418 0.10786 0.0
C627 C 0.74165 0.56764 0.06665 0.0
C628 C 0.77973 0.58044 0.10069 0.0
C629 C 0.74286 0.55655 0.09082 0.0
C630 C 0.75972 0.58583 0.05963 0.0
C631 C 0.77939 0.59205 0.0765 0.0
O632 O 0.7559 0.51093 0.1304 0.0
O633 O 0.73767 0.53839 0.18207 0.0
O634 O 0.76606 0.54444 0.221 0.0
O635 O 0.78637 0.53234 0.18315 0.0
O636 O 0.72467 0.52958 0.14585 0.0
O637 O 0.7946 0.52062 0.13947 0.0
O638 O 0.74056 0.61208 0.22081 0.0
O639 O 0.76429 0.58011 0.1776 0.0
O640 O 0.73874 0.57918 0.13628 0.0
O641 O 0.72188 0.59748 0.17334 0.0
O642 O 0.77539 0.5838 0.21573 0.0
O643 O 0.71274 0.58909 0.23896 0.0
C644 C 0.71989 0.52752 0.16983 0.0
C645 C 0.78737 0.49414 0.10328 0.0
C646 C 0.7919 0.45827 0.07371 0.0
C647 C 0.78655 0.4677 0.09831 0.0
C648 C 0.79818 0.47555 0.05432 0.0
C649 C 0.79428 0.51087 0.08366 0.0
C650 C 0.79956 0.5016 0.05935 0.0
C651 C 0.78385 0.53175 0.20816 0.0
C652 C 0.7796 0.50421 0.12841 0.0
C653 C 0.79925 0.60851 0.06952 0.0
C654 C 0.82003 0.61199 0.08586 0.0
C655 C 0.78239 0.58719 0.19229 0.0
C656 C 0.73403 0.6185 0.26528 0.0
C657 C 0.71863 0.63316 0.28197 0.0
C658 C 0.72707 0.63873 0.307 0.0
C659 C 0.75107 0.62986 0.31474 0.0
C660 C 0.75788 0.61005 0.27378 0.0
C661 C 0.76633 0.6158 0.29825 0.0
C662 C 0.72502 0.59658 0.14807 0.0
C663 C 0.72479 0.6105 0.23974 0.0
H664 H 0.78133 0.45458 0.11335 0.0
H665 H 0.80243 0.4688 0.03531 0.0
H666 H 0.79544 0.53111 0.08706 0.0
H667 H 0.80468 0.5147 0.0443 0.0
H668 H 0.70005 0.63956 0.27579 0.0
H669 H 0.75811 0.63392 0.3337 0.0
H670 H 0.76994 0.59868 0.26164 0.0
H671 H 0.78474 0.6091 0.30456 0.0
Eu672 Eu 0.38734 0.27332 0.04747 0.0
C673 C 0.30153 0.34325 0.03504 0.0
C674 C 0.32478 0.38307 0.03574 0.0
C675 C 0.28751 0.37891 1.00885 0.0
C676 C 0.3216 0.35767 0.04412 0.0
C677 C 0.284 0.35393 1.01763 0.0
C678 C 0.30788 0.39342 1.01786 0.0
C679 C 0.2598 0.31507 0.01982 0.0
N680 N 0.29881 0.31897 0.04348 0.0
C681 C 0.27751 0.30536 0.03709 0.0
C682 C 0.26325 0.33932 1.00972 0.0
Eu683 Eu 0.32963 0.30369 0.0731 0.0
N684 N 0.33796 0.34701 0.06115 0.0
C685 C 0.35719 0.36142 0.07124 0.0
C686 C 0.34491 0.39738 0.0455 0.0
C687 C 0.36106 0.38654 0.06345 0.0
H688 H 0.27373 0.28703 0.04558 0.0
H689 H 0.37651 0.39759 0.07143 0.0
H690 H 0.31034 0.4127 1.01099 0.0
H691 H 0.24329 0.30393 1.01456 0.0
H692 H 0.36977 0.35416 0.08547 0.0
H693 H 0.37847 0.17616 0.08384 0.0
H694 H 0.34802 0.41686 0.03947 0.0
H695 H 0.44102 0.30754 0.04237 0.0
H696 H 0.36681 0.21327 0.05771 0.0
H697 H 0.48386 0.30927 0.06198 0.0
H698 H 0.27446 0.38725 0.99524 0.0
H699 H 0.41692 0.17759 0.11096 0.0
H700 H 0.4566 0.20081 0.12412 0.0
H701 H 0.24943 0.34685 0.99639 0.0
H702 H 0.48552 0.23714 0.11805 0.0
N703 N 0.39783 0.23598 0.07049 0.0
C704 C 0.38369 0.2142 0.06934 0.0
C705 C 0.41187 0.19399 0.09954 0.0
C706 C 0.42741 0.21561 0.09901 0.0
C707 C 0.39023 0.19307 0.08417 0.0
C708 C 0.41992 0.23647 0.08387 0.0
H709 H 0.49617 0.27729 0.09428 0.0
N710 N 0.42914 0.27564 0.06424 0.0
C711 C 0.47055 0.29458 0.06754 0.0
C712 C 0.43616 0.25691 0.08056 0.0
C713 C 0.44638 0.29352 0.05643 0.0
C714 C 0.47738 0.27657 0.08588 0.0
C715 C 0.46034 0.25708 0.09217 0.0
O716 O 0.4058 0.28129 1.01092 0.0
O717 O 0.35483 0.30004 0.03861 0.0
O718 O 0.31587 0.27145 0.04667 0.0
O719 O 0.3533 0.2508 0.034 0.0
O720 O 0.39144 0.31251 0.03032 0.0
O721 O 0.3967 0.24265 0.02062 0.0
O722 O 0.29207 0.30112 0.09141 0.0
O723 O 0.35941 0.27404 0.08051 0.0
O724 O 0.40125 0.29888 0.07894 0.0
O725 O 0.3643 0.31263 0.09969 0.0
O726 O 0.32196 0.26462 0.0889 0.0
O727 O 0.32132 0.32356 0.10888 0.0
C728 C 0.36758 0.31766 0.02806 0.0
C729 C 0.4326 0.24971 0.99375 0.0
C730 C 0.46196 0.24511 0.95769 0.0
C731 C 0.43746 0.2507 0.96727 0.0
C732 C 0.48131 0.23843 0.97485 0.0
C733 C 0.4522 0.24241 1.01032 0.0
C734 C 0.47639 0.2369 1.00091 0.0
C735 C 0.32833 0.25325 0.03425 0.0
C736 C 0.4076 0.25761 1.0041 0.0
C737 C 0.46716 0.23719 0.10867 0.0
C738 C 0.4507 0.2165 0.11212 0.0
C739 C 0.34518 0.25668 0.08977 0.0
C740 C 0.27858 0.3376 0.11457 0.0
C741 C 0.25913 0.33523 0.13321 0.0
C742 C 0.24146 0.35535 0.13745 0.0
C743 C 0.24344 0.37727 0.12212 0.0
C744 C 0.28011 0.36013 0.10041 0.0
C745 C 0.26259 0.37963 0.10399 0.0
C746 C 0.38965 0.31082 0.09771 0.0
C747 C 0.29741 0.31694 0.10969 0.0
H748 H 0.42244 0.25623 0.95426 0.0
H749 H 0.50023 0.234 0.968 0.0
H750 H 0.4489 0.24112 0.03057 0.0
H751 H 0.49142 0.23148 1.0139 0.0
H752 H 0.25807 0.31804 0.14454 0.0
H753 H 0.22994 0.39272 0.12389 0.0
H754 H 0.29494 0.36276 0.08656 0.0
H755 H 0.26388 0.39675 0.09259 0.0
Eu756 Eu 0.88736 0.2653 0.99097 0.0
C757 C 0.80184 0.19499 1.00398 0.0
C758 C 0.82514 0.15522 1.00317 0.0
C759 C 0.78805 0.15929 0.03026 0.0
C760 C 0.82187 0.18061 0.9948 0.0
C761 C 0.78445 0.18426 0.0215 0.0
C762 C 0.80836 0.14483 0.02113 0.0
C763 C 0.76017 0.22306 1.01944 0.0
N764 N 0.79903 0.21925 0.99555 0.0
C765 C 0.77774 0.2328 1.00205 0.0
C766 C 0.76374 0.19882 0.02952 0.0
Eu767 Eu 0.82957 0.23457 0.96568 0.0
N768 N 0.8381 0.19131 0.97767 0.0
C769 C 0.85728 0.17694 0.96749 0.0
C770 C 0.84522 0.14096 0.99331 0.0
C771 C 0.86124 0.15183 0.97528 0.0
H772 H 0.77385 0.25111 0.99356 0.0
H773 H 0.87665 0.14083 0.96723 0.0
H774 H 0.81089 0.12555 0.02798 0.0
H775 H 0.74368 0.23415 0.02478 0.0
H776 H 0.86976 0.18422 0.95319 0.0
H777 H 0.87848 0.36233 0.95429 0.0
H778 H 0.8484 0.12149 0.99933 0.0
H779 H 0.94107 0.23115 0.99605 0.0
H780 H 0.86691 0.32533 0.98062 0.0
H781 H 0.98377 0.22928 0.97621 0.0
H782 H 0.7751 0.15093 0.04394 0.0
H783 H 0.91673 0.36075 0.92695 0.0
H784 H 0.95626 0.33741 0.91364 0.0
H785 H 0.75003 0.19126 0.04293 0.0
H786 H 0.98513 0.30107 0.9197 0.0
N787 N 0.89779 0.30254 0.96775 0.0
C788 C 0.8837 0.32434 0.9689 0.0
C789 C 0.91173 0.34439 0.93847 0.0
C790 C 0.92722 0.32276 0.93899 0.0
C791 C 0.8902 0.3454 0.95396 0.0
C792 C 0.91979 0.30197 0.95427 0.0
H793 H 0.99589 0.26104 0.94362 0.0
N794 N 0.92908 0.26291 0.97405 0.0
C795 C 0.97044 0.24394 0.97063 0.0
C796 C 0.93602 0.28154 0.95758 0.0
C797 C 0.94636 0.24508 0.98187 0.0
C798 C 0.97716 0.26182 0.95214 0.0
C799 C 0.96011 0.28129 0.94584 0.0
O800 O 0.90585 0.25752 0.02756 0.0
O801 O 0.85497 0.23849 1.00002 0.0
O802 O 0.81591 0.26682 0.99207 0.0
O803 O 0.85332 0.2878 1.00436 0.0
O804 O 0.89167 0.2262 1.00825 0.0
O805 O 0.89692 0.29612 1.01758 0.0
O806 O 0.79188 0.23722 0.94761 0.0
O807 O 0.85924 0.26428 0.95812 0.0
O808 O 0.9011 0.23969 0.95954 0.0
O809 O 0.86411 0.22569 0.93894 0.0
O810 O 0.82178 0.27351 0.94959 0.0
O811 O 0.82083 0.21442 0.93014 0.0
C812 C 0.86782 0.22095 1.01056 0.0
C813 C 0.93297 0.28907 0.04426 0.0
C814 C 0.96277 0.29339 0.08003 0.0
C815 C 0.93813 0.28796 0.07068 0.0
C816 C 0.98197 0.30005 0.06269 0.0
C817 C 0.95242 0.29636 0.02752 0.0
C818 C 0.97674 0.30172 0.0367 0.0
C819 C 0.82836 0.28518 1.00427 0.0
C820 C 0.90784 0.28124 0.03417 0.0
C821 C 0.96685 0.30109 0.9292 0.0
C822 C 0.9504 0.32179 0.92575 0.0
C823 C 0.84498 0.28155 0.94877 0.0
C824 C 0.77793 0.20056 0.92501 0.0
C825 C 0.75808 0.20299 0.90678 0.0
C826 C 0.7402 0.18295 0.90297 0.0
C827 C 0.74236 0.16107 0.91834 0.0
C828 C 0.77965 0.17805 0.93918 0.0
C829 C 0.76191 0.15865 0.93606 0.0
C830 C 0.88946 0.22763 0.94086 0.0
C831 C 0.79695 0.22116 0.92947 0.0
H832 H 0.92323 0.28244 0.08381 0.0
H833 H 1.00099 0.30438 0.06936 0.0
H834 H 0.94888 0.29776 1.00731 0.0
H835 H 0.99165 0.30713 0.02357 0.0
H836 H 0.75687 0.22015 0.89543 0.0
H837 H 0.72872 0.14569 0.9169 0.0
H838 H 0.7948 0.17536 0.95268 0.0
H839 H 0.76335 0.14155 0.94747 0.0
Eu840 Eu 0.64939 0.77204 0.49004 0.0
C841 C 0.73683 0.84222 0.50405 0.0
C842 C 0.7135 0.88197 0.5043 0.0
C843 C 0.75124 0.87752 0.53048 0.0
C844 C 0.71662 0.85674 0.49548 0.0
C845 C 0.75461 0.85267 0.52132 0.0
C846 C 0.7307 0.89211 0.52201 0.0
C847 C 0.77859 0.81371 0.51846 0.0
N848 N 0.73929 0.81802 0.49538 0.0
C849 C 0.76054 0.80421 0.50141 0.0
C850 C 0.77543 0.83792 0.52877 0.0
Eu851 Eu 0.70798 0.8031 0.46613 0.0
N852 N 0.69982 0.84616 0.47885 0.0
C853 C 0.67975 0.86025 0.47008 0.0
C854 C 0.69298 0.89624 0.49532 0.0
C855 C 0.67608 0.88533 0.4781 0.0
H856 H 0.7639 0.7858 0.49287 0.0
H857 H 0.65999 0.89614 0.47116 0.0
H858 H 0.72823 0.91122 0.5293 0.0
H859 H 0.79508 0.80243 0.52344 0.0
H860 H 0.66592 0.85242 0.45736 0.0
H861 H 0.65576 0.67361 0.45696 0.0
H862 H 0.68992 0.91561 0.5017 0.0
H863 H 0.5985 0.8108 0.48995 0.0
H864 H 0.66884 0.71151 0.48124 0.0
H865 H 0.55603 0.81322 0.46977 0.0
H866 H 0.76445 0.88564 0.54407 0.0
H867 H 0.61639 0.67453 0.43119 0.0
H868 H 0.57701 0.69805 0.41783 0.0
H869 H 0.78947 0.84527 0.54198 0.0
H870 H 0.54976 0.73593 0.42149 0.0
N871 N 0.63774 0.73414 0.46864 0.0
C872 C 0.65164 0.71226 0.47008 0.0
C873 C 0.62208 0.6913 0.44176 0.0
C874 C 0.607 0.71323 0.44177 0.0
C875 C 0.64427 0.69068 0.45634 0.0
C876 C 0.61532 0.73456 0.45578 0.0
H877 H 0.54153 0.77862 0.4413 0.0
N878 N 0.60806 0.77565 0.47234 0.0
C879 C 0.56826 0.79707 0.46613 0.0
C880 C 0.5999 0.75583 0.45787 0.0
C881 C 0.59224 0.79563 0.47757 0.0
C882 C 0.56017 0.77754 0.45001 0.0
C883 C 0.57586 0.75642 0.44598 0.0
O884 O 0.62963 0.78095 0.52558 0.0
O885 O 0.6813 0.79928 0.49937 0.0
O886 O 0.72065 0.77177 0.49423 0.0
O887 O 0.68319 0.74938 0.50385 0.0
O888 O 0.64451 0.81159 0.50647 0.0
O889 O 0.64013 0.74213 0.5178 0.0
O890 O 0.74548 0.80049 0.44772 0.0
O891 O 0.67901 0.77274 0.45884 0.0
O892 O 0.63757 0.79224 0.4541 0.0
O893 O 0.67396 0.8133 0.4392 0.0
O894 O 0.7165 0.76411 0.45029 0.0
O895 O 0.71614 0.82283 0.43024 0.0
C896 C 0.66826 0.81684 0.50951 0.0
C897 C 0.60361 0.74939 0.54387 0.0
C898 C 0.57453 0.74466 0.58013 0.0
C899 C 0.599 0.75011 0.5704 0.0
C900 C 0.55496 0.73832 0.56308 0.0
C901 C 0.58378 0.74253 0.52738 0.0
C902 C 0.55963 0.73708 0.53695 0.0
C903 C 0.70802 0.75285 0.50545 0.0
C904 C 0.62849 0.75751 0.53344 0.0
C905 C 0.56804 0.73571 0.43102 0.0
C906 C 0.58358 0.71416 0.4289 0.0
C907 C 0.6935 0.75555 0.44986 0.0
C908 C 0.75886 0.83691 0.42439 0.0
C909 C 0.77827 0.8345 0.4057 0.0
C910 C 0.79591 0.85464 0.40133 0.0
C911 C 0.79395 0.87662 0.41658 0.0
C912 C 0.75735 0.85949 0.43847 0.0
C913 C 0.77484 0.87901 0.43476 0.0
C914 C 0.64923 0.80727 0.43774 0.0
C915 C 0.74006 0.81624 0.4294 0.0
H916 H 0.61417 0.7554 0.58333 0.0
H917 H 0.53606 0.734 0.57006 0.0
H918 H 0.58687 0.74164 0.50709 0.0
H919 H 0.54442 0.73198 0.52403 0.0
H920 H 0.77931 0.81727 0.39444 0.0
H921 H 0.80743 0.89208 0.41471 0.0
H922 H 0.74254 0.86213 0.45236 0.0
H923 H 0.77357 0.89617 0.44609 0.0
Eu924 Eu 0.14916 0.76623 0.54816 0.0
C925 C 0.24149 0.70226 0.53625 0.0
C926 C 0.2211 0.66097 0.53202 0.0
C927 C 0.26038 0.66957 0.50936 0.0
C928 C 0.22164 0.68575 0.54251 0.0
C929 C 0.26139 0.69392 0.52021 0.0
C930 C 0.24025 0.65322 0.51516 0.0
C931 C 0.28344 0.73331 0.52877 0.0
N932 N 0.24208 0.72594 0.5467 0.0
C933 C 0.26344 0.74071 0.54458 0.0
C934 C 0.28218 0.71003 0.51611 0.0
Eu935 Eu 0.20736 0.73664 0.57327 0.0
N936 N 0.2029 0.6938 0.55861 0.0
C937 C 0.18373 0.67749 0.56542 0.0
C938 C 0.20127 0.64458 0.53868 0.0
C939 C 0.18263 0.65284 0.55555 0.0
H940 H 0.26501 0.75834 0.55511 0.0
H941 H 0.16719 0.64027 0.56079 0.0
H942 H 0.23978 0.63448 0.50665 0.0
H943 H 0.29995 0.74542 0.52661 0.0
H944 H 0.16859 0.68316 0.57784 0.0
H945 H 0.15921 0.86504 0.57931 0.0
H946 H 0.20019 0.6255 0.53093 0.0
H947 H 0.0973 0.72898 0.54962 0.0
H948 H 0.1708 0.82634 0.55562 0.0
H949 H 0.05483 0.7284 0.57003 0.0
H950 H 0.2753 0.66304 0.49673 0.0
H951 H 0.12009 0.86584 0.60539 0.0
H952 H 0.0801 0.84385 0.61949 0.0
H953 H 0.29779 0.70427 0.50396 0.0
H954 H 0.05156 0.80682 0.61675 0.0
N955 N 0.13901 0.80495 0.56877 0.0
C956 C 0.15365 0.82634 0.56687 0.0
C957 C 0.1251 0.84872 0.59506 0.0
C958 C 0.10931 0.82728 0.5956 0.0
C959 C 0.14715 0.84837 0.5803 0.0
C960 C 0.11679 0.80543 0.58193 0.0
H961 H 0.04167 0.76414 0.5977 0.0
N962 N 0.10807 0.76418 0.56641 0.0
C963 C 0.06764 0.7442 0.57327 0.0
C964 C 0.10072 0.78454 0.58052 0.0
C965 C 0.09158 0.7446 0.56171 0.0
C966 C 0.06031 0.76435 0.58898 0.0
C967 C 0.07677 0.78499 0.59254 0.0
O968 O 0.12773 0.75677 0.51374 0.0
O969 O 0.18105 0.73912 0.53967 0.0
O970 O 0.22064 0.76772 0.54509 0.0
O971 O 0.18286 0.78796 0.53255 0.0
O972 O 0.1446 0.72639 0.53196 0.0
O973 O 0.14019 0.79543 0.51962 0.0
O974 O 0.21783 0.74004 0.61382 0.0
O975 O 0.17799 0.76652 0.58024 0.0
O976 O 0.13747 0.7462 0.58419 0.0
O977 O 0.17268 0.72199 0.5969 0.0
O978 O 0.21599 0.77697 0.58492 0.0
O979 O 0.23947 0.71561 0.58988 0.0
C980 C 0.16845 0.72131 0.52939 0.0
C981 C 0.10268 0.78881 0.49483 0.0
C982 C 0.07323 0.79408 0.45895 0.0
C983 C 0.09757 0.78774 0.46842 0.0
C984 C 0.05426 0.80166 0.47614 0.0
C985 C 0.08349 0.79693 0.51147 0.0
C986 C 0.05945 0.80326 0.50216 0.0
C987 C 0.20784 0.78537 0.53211 0.0
C988 C 0.12739 0.77994 0.50498 0.0
C989 C 0.06976 0.80625 0.60711 0.0
C990 C 0.08602 0.82733 0.60868 0.0
C991 C 0.19263 0.78449 0.58747 0.0
C992 C 0.26221 0.73551 0.62303 0.0
C993 C 0.27899 0.71938 0.63678 0.0
C994 C 0.30294 0.72854 0.64516 0.0
C995 C 0.3096 0.75388 0.63991 0.0
C996 C 0.26961 0.76072 0.61818 0.0
C997 C 0.29303 0.76981 0.62667 0.0
C998 C 0.14837 0.72923 0.59914 0.0
C999 C 0.23792 0.72571 0.61225 0.0
H1000 H 0.11226 0.78151 0.45537 0.0
H1001 H 0.03546 0.80669 0.46936 0.0
H1002 H 0.087 0.79817 0.53167 0.0
H1003 H 0.04473 0.80934 0.5152 0.0
H1004 H 0.27375 0.69976 0.64036 0.0
H1005 H 0.32779 0.76137 0.64608 0.0
H1006 H 0.25747 0.77342 0.60753 0.0
H1007 H 0.29851 0.78927 0.62272 0.0
Eu1008 Eu 0.96522 0.70879 0.73398 0.0
C1009 C 0.95808 0.6012 0.78229 0.0
C1010 C 0.94162 0.60904 0.82462 0.0
C1011 C 0.93172 0.56934 0.80302 0.0
C1012 C 0.95567 0.61707 0.80321 0.0
C1013 C 0.94667 0.57692 0.78223 0.0
C1014 C 0.92916 0.58539 0.82415 0.0
C1015 C 0.96719 0.56867 0.7419 0.0
N1016 N 0.97251 0.60913 0.76236 0.0
C1017 C 0.97812 0.59292 0.7428 0.0
C1018 C 0.95115 0.56075 0.76155 0.0
Eu1019 Eu 0.98974 0.65068 0.76521 0.0
N1020 N 0.96822 0.63968 0.80323 0.0
C1021 C 0.96922 0.65415 0.82479 0.0
C1022 C 0.94119 0.62466 0.84618 0.0
C1023 C 0.9554 0.6471 0.8464 0.0
H1024 H 0.99048 0.59906 0.72757 0.0
H1025 H 0.95566 0.65903 0.86318 0.0
H1026 H 0.91807 0.57904 0.84032 0.0
H1027 H 0.97117 0.55608 0.7261 0.0
H1028 H 0.98003 0.67158 0.82525 0.0
H1029 H 0.97109 0.659 0.64185 0.0
H1030 H 0.93055 0.61922 0.86298 0.0
H1031 H 0.99201 0.76489 0.75074 0.0
H1032 H 0.95763 0.66522 0.68558 0.0
H1033 H 0.02158 0.79651 0.7333 0.0
H1034 H 0.92254 0.55087 0.80319 0.0
H1035 H 1.00022 0.68966 0.62147 0.0
H1036 H 0.02622 0.72916 0.6247 0.0
H1037 H 0.94289 0.54188 0.76094 0.0
H1038 H 0.04027 0.76622 0.64954 0.0
N1039 N 0.97796 0.70002 0.69103 0.0
C1040 C 0.96974 0.67938 0.6774 0.0
C1041 C 0.99405 0.69282 0.64089 0.0
C1042 C 1.0025 0.71388 0.6547 0.0
C1043 C 0.9776 0.67551 0.65231 0.0
C1044 C 0.99399 0.7171 0.68002 0.0
H1045 H 0.03896 0.79117 0.68996 0.0
N1046 N 0.99409 0.74018 0.71854 0.0
C1047 C 1.01661 0.77989 0.72219 0.0
C1048 C 1.00226 0.73772 0.69416 0.0
C1049 C 1.00016 0.76155 0.73217 0.0
C1050 C 0.02626 0.77689 0.6977 0.0
C1051 C 1.01886 0.75585 0.68321 0.0
O1052 O 0.9468 0.74635 0.73605 0.0
O1053 O 0.95796 0.67974 0.76428 0.0
O1054 O 0.95428 0.63816 0.74447 0.0
O1055 O 0.93848 0.67455 0.72401 0.0
O1056 O 0.94924 0.71718 0.77298 0.0
O1057 O 0.92921 0.71656 0.71437 0.0
O1058 O 0.02522 0.63063 0.75671 0.0
O1059 O 0.99884 0.68263 0.73804 0.0
O1060 O 0.99265 0.72211 0.76565 0.0
O1061 O 1.00333 0.68473 0.7877 0.0
O1062 O 1.00674 0.64599 0.7258 0.0
O1063 O 1.01752 0.64211 0.79528 0.0
C1064 C 0.94871 0.69412 0.78144 0.0
C1065 C 0.92334 0.75901 0.69943 0.0
C1066 C 0.90076 0.79617 0.68131 0.0
C1067 C 0.90525 0.77898 0.70181 0.0
C1068 C 0.91535 0.79325 0.65901 0.0
C1069 C 0.93671 0.7565 0.67652 0.0
C1070 C 0.93294 0.77359 0.65665 0.0
C1071 C 0.93753 0.64971 0.72973 0.0
C1072 C 0.92843 0.74063 0.72047 0.0
C1073 C 0.02742 0.75258 0.65815 0.0
C1074 C 0.01935 0.73158 0.64397 0.0
C1075 C 1.00941 0.66981 0.72057 0.0
C1076 C 0.04337 0.60526 0.78893 0.0
C1077 C 0.06979 0.60021 0.78775 0.0
C1078 C 0.0793 0.57582 0.79397 0.0
C1079 C 0.06215 0.55678 0.80152 0.0
C1080 C 0.02681 0.58598 0.79702 0.0
C1081 C 0.03615 0.56192 0.80322 0.0
C1082 C 1.00421 0.70963 0.78446 0.0
C1083 C 0.03308 0.63001 0.78017 0.0
H1084 H 0.8945 0.78078 0.71929 0.0
H1085 H 0.91338 0.80636 0.64324 0.0
H1086 H 0.95005 0.7412 0.67387 0.0
H1087 H 0.94374 0.77155 0.63924 0.0
H1088 H 0.08279 0.61496 0.78154 0.0
H1089 H 0.06895 0.53795 0.80645 0.0
H1090 H 1.00662 0.58943 0.79835 0.0
H1091 H 0.02316 0.54713 0.80927 0.0
Eu1092 Eu 0.57059 0.32981 0.23465 0.0
C1093 C 0.57927 0.43794 0.28213 0.0
C1094 C 0.59721 0.43069 0.32399 0.0
C1095 C 0.60574 0.4704 0.30181 0.0
C1096 C 0.58259 0.42229 0.30309 0.0
C1097 C 0.59028 0.4624 0.28153 0.0
C1098 C 0.60925 0.45455 0.32296 0.0
C1099 C 0.56856 0.46989 0.24166 0.0
N1100 N 0.56442 0.42958 0.26268 0.0
C1101 C 0.55812 0.44546 0.24304 0.0
C1102 C 0.58491 0.47831 0.26086 0.0
Eu1103 Eu 0.54762 0.38794 0.26652 0.0
N1104 N 0.5704 0.39949 0.30367 0.0
C1105 C 0.57039 0.38515 0.32534 0.0
C1106 C 0.59865 0.41523 0.34561 0.0
C1107 C 0.58484 0.39255 0.34643 0.0
H1108 H 0.54547 0.43901 0.22818 0.0
H1109 H 0.58535 0.38073 0.36329 0.0
H1110 H 0.62076 0.4612 0.33873 0.0
H1111 H 0.56393 0.48225 0.22585 0.0
H1112 H 0.55985 0.36757 0.32628 0.0
H1113 H 0.5672 0.38128 0.14322 0.0
H1114 H 0.60975 0.42095 0.36202 0.0
H1115 H 0.53991 0.27528 0.25097 0.0
H1116 H 0.57916 0.37457 0.18728 0.0
H1117 H 0.50898 0.24555 0.23283 0.0
H1118 H 0.61462 0.48901 0.30155 0.0
H1119 H 0.53827 0.35121 0.12169 0.0
H1120 H 0.51095 0.3126 0.12402 0.0
H1121 H 0.59272 0.49735 0.25989 0.0
H1122 H 0.49436 0.27647 0.14854 0.0
N1123 N 0.55858 0.3398 0.19174 0.0
C1124 C 0.56728 0.36055 0.17859 0.0
C1125 C 0.54394 0.34773 0.14122 0.0
C1126 C 0.53468 0.32675 0.15462 0.0
C1127 C 0.56024 0.36472 0.1533 0.0
C1128 C 0.54256 0.32306 0.18012 0.0
H1129 H 0.4932 0.25167 0.18899 0.0
N1130 N 0.54004 0.3002 0.21879 0.0
C1131 C 0.5152 0.26182 0.22183 0.0
C1132 C 0.53291 0.30288 0.19407 0.0
C1133 C 0.53238 0.27922 0.23226 0.0
C1134 C 0.5065 0.26522 0.19705 0.0
C1135 C 0.51558 0.28567 0.1827 0.0
O1136 O 0.6041 0.31924 0.21223 0.0
O1137 O 0.57907 0.35853 0.26484 0.0
O1138 O 0.5828 0.40025 0.24512 0.0
O1139 O 0.59847 0.36346 0.22524 0.0
O1140 O 0.58832 0.32105 0.27283 0.0
O1141 O 0.58668 0.2913 0.23658 0.0
O1142 O 0.51162 0.4075 0.25899 0.0
O1143 O 0.5373 0.35607 0.23953 0.0
O1144 O 0.5434 0.31697 0.26666 0.0
O1145 O 0.53496 0.35416 0.28986 0.0
O1146 O 0.52995 0.39288 0.22743 0.0
O1147 O 0.52089 0.39678 0.29743 0.0
C1148 C 0.58893 0.344 0.28156 0.0
C1149 C 0.63048 0.28548 0.22707 0.0
C1150 C 0.66404 0.25315 0.22124 0.0
C1151 C 0.63941 0.26269 0.21564 0.0
C1152 C 0.67914 0.2667 0.23877 0.0
C1153 C 0.64611 0.29838 0.2444 0.0
C1154 C 0.67023 0.28898 0.25021 0.0
C1155 C 0.5996 0.38841 0.23066 0.0
C1156 C 0.60506 0.29588 0.22065 0.0
C1157 C 0.50782 0.28933 0.15741 0.0
C1158 C 0.51733 0.30983 0.14343 0.0
C1159 C 0.52679 0.36912 0.22222 0.0
C1160 C 0.49445 0.4333 0.29138 0.0
C1161 C 0.46799 0.43827 0.29065 0.0
C1162 C 0.45852 0.46268 0.29686 0.0
C1163 C 0.47576 0.48184 0.30392 0.0
C1164 C 0.51111 0.45272 0.29898 0.0
C1165 C 0.50181 0.4768 0.30514 0.0
C1166 C 0.5331 0.32938 0.28619 0.0
C1167 C 0.50465 0.40849 0.2827 0.0
H1168 H 0.6274 0.25271 0.20217 0.0
H1169 H 0.69784 0.25985 0.24402 0.0
H1170 H 0.63965 0.31576 0.2534 0.0
H1171 H 0.68212 0.29904 0.2637 0.0
H1172 H 0.45491 0.42343 0.28483 0.0
H1173 H 0.46899 0.50068 0.30882 0.0
H1174 H 0.53134 0.44935 0.29996 0.0
H1175 H 0.51487 0.49169 0.31082 0.0
Eu1176 Eu 0.46504 0.83077 0.29986 0.0
C1177 C 0.45977 0.94417 0.26917 0.0
C1178 C 0.43959 0.94285 0.22776 0.0
C1179 C 0.43447 0.98008 0.25469 0.0
C1180 C 0.45452 0.93127 0.24684 0.0
C1181 C 0.45049 0.96905 0.273 0.0
C1182 C 0.42888 0.96693 0.23218 0.0
C1183 C 0.47626 0.97153 0.31102 0.0
N1184 N 0.47585 0.93322 0.28616 0.0
C1185 C 0.48505 0.94687 0.30632 0.0
C1186 C 0.45867 0.98256 0.29446 0.0
Eu1187 Eu 0.49012 0.89145 0.27684 0.0
N1188 N 0.46603 0.90852 0.24278 0.0
C1189 C 0.46555 0.89767 0.2192 0.0
C1190 C 0.43708 0.93051 0.2043 0.0
C1191 C 0.45056 0.90809 0.19982 0.0
H1192 H 0.49882 0.93852 0.31908 0.0
H1193 H 0.44955 0.89888 0.18143 0.0
H1194 H 0.41719 0.97602 0.21783 0.0
H1195 H 0.4832 0.98207 0.32729 0.0
H1196 H 0.47623 0.88055 0.21541 0.0
H1197 H 0.45238 0.86804 0.39732 0.0
H1198 H 0.42574 0.93872 0.18916 0.0
H1199 H 0.50181 0.77991 0.28099 0.0
H1200 H 0.44228 0.86335 0.35276 0.0
H1201 H 0.53356 0.75143 0.29904 0.0
H1202 H 0.42709 0.99914 0.25732 0.0
H1203 H 0.48577 0.84165 0.41696 0.0
H1204 H 0.51775 0.80728 0.41271 0.0
H1205 H 0.4523 1.00185 0.2979 0.0
H1206 H 0.5393 0.77542 0.38638 0.0
N1207 N 0.47148 0.83611 0.34474 0.0
C1208 C 0.45786 0.85242 0.35984 0.0
C1209 C 0.48183 0.83978 0.3968 0.0
C1210 C 0.49474 0.82203 0.3819 0.0
C1211 C 0.46311 0.85481 0.38576 0.0
C1212 C 0.48901 0.82036 0.3556 0.0
H1213 H 0.54542 0.75473 0.34433 0.0
N1214 N 0.4964 0.80152 0.31516 0.0
C1215 C 0.52503 0.76596 0.31087 0.0
C1216 C 0.50154 0.80256 0.34055 0.0
C1217 C 0.50718 0.78273 0.30061 0.0
C1218 C 0.53151 0.76775 0.33645 0.0
C1219 C 0.5196 0.78592 0.3517 0.0
O1220 O 0.44286 0.79932 0.2842 0.0
O1221 O 0.45704 0.86342 0.27343 0.0
O1222 O 0.45858 0.9024 0.30327 0.0
O1223 O 0.43652 0.8642 0.30953 0.0
O1224 O 0.45186 0.82646 0.25965 0.0
O1225 O 0.43711 0.80915 0.32317 0.0
O1226 O 0.5279 0.90711 0.28529 0.0
O1227 O 0.49914 0.85635 0.29995 0.0
O1228 O 0.49595 0.82176 0.26992 0.0
O1229 O 0.50217 0.86075 0.24954 0.0
O1230 O 0.50653 0.89126 0.31665 0.0
O1231 O 0.51592 0.90376 0.24639 0.0
C1232 C 0.44967 0.85033 0.25426 0.0
C1233 C 0.4313 0.76504 0.31133 0.0
C1234 C 0.41098 0.72608 0.3285 0.0
C1235 C 0.41083 0.75294 0.32442 0.0
C1236 C 0.43176 0.71195 0.31929 0.0
C1237 C 0.451 0.74971 0.30184 0.0
C1238 C 0.45143 0.72364 0.30611 0.0
C1239 C 0.43877 0.88963 0.31174 0.0
C1240 C 0.43157 0.79296 0.30524 0.0
C1241 C 0.52537 0.78788 0.37767 0.0
C1242 C 0.51309 0.80597 0.39268 0.0
C1243 C 0.50883 0.86701 0.31934 0.0
C1244 C 0.54428 0.93757 0.25663 0.0
C1245 C 0.57089 0.94161 0.25651 0.0
C1246 C 0.58091 0.9664 0.25335 0.0
C1247 C 0.56404 0.98688 0.25022 0.0
C1248 C 0.528 0.95835 0.25278 0.0
C1249 C 0.53782 0.98281 0.24974 0.0
C1250 C 0.50589 0.83602 0.2515 0.0
C1251 C 0.53357 0.91199 0.26174 0.0
H1252 H 0.39493 0.7642 0.3311 0.0
H1253 H 0.43243 0.69146 0.32144 0.0
H1254 H 0.46577 0.75768 0.29018 0.0
H1255 H 0.46685 0.71229 0.29855 0.0
H1256 H 0.58369 0.92568 0.25924 0.0
H1257 H 0.57121 1.00604 0.24764 0.0
H1258 H 0.50766 0.95571 0.25216 0.0
H1259 H 0.52503 0.99871 0.24696 0.0
Eu1260 Eu 0.07244 0.20802 0.80343 0.0
C1261 C 0.08037 0.10256 0.75467 0.0
C1262 C 0.09757 0.11265 0.71317 0.0
C1263 C 0.10891 0.07281 0.73374 0.0
C1264 C 0.08274 0.11929 0.73452 0.0
C1265 C 0.09268 0.07873 0.7541 0.0
C1266 C 0.11136 0.08976 0.71329 0.0
C1267 C 0.06923 0.06705 0.79189 0.0
N1268 N 0.0643 0.10872 0.77386 0.0
C1269 C 0.05739 0.09088 0.79152 0.0
C1270 C 0.08737 0.06114 0.7734 0.0
Eu1271 Eu 0.04672 0.15027 0.77309 0.0
N1272 N 0.06881 0.14102 0.73484 0.0
C1273 C 0.06681 0.15562 0.71341 0.0
C1274 C 0.09714 0.12863 0.69188 0.0
C1275 C 0.08122 0.14988 0.69179 0.0
H1276 H 0.04358 0.09558 0.80601 0.0
H1277 H 0.08018 0.16198 0.67515 0.0
H1278 H 0.12316 0.08453 0.69723 0.0
H1279 H 0.06443 0.05331 0.80645 0.0
H1280 H 0.05483 0.17225 0.7131 0.0
H1281 H 0.07131 0.16112 0.89732 0.0
H1282 H 0.10828 0.12424 0.67511 0.0
H1283 H 0.04447 0.26376 0.78683 0.0
H1284 H 0.08512 0.1679 0.85384 0.0
H1285 H 1.01335 0.29397 0.80382 0.0
H1286 H 0.11886 0.05477 0.73315 0.0
H1287 H 0.03937 0.18947 0.91671 0.0
H1288 H 1.01074 0.22702 0.91267 0.0
H1289 H 0.0964 0.04262 0.77361 0.0
H1290 H 0.99469 0.26279 0.88725 0.0
N1291 N 0.06067 0.19962 0.84678 0.0
C1292 C 0.07089 0.18043 0.86115 0.0
C1293 C 0.04529 0.1926 0.89721 0.0
C1294 C 0.03539 0.21269 0.88293 0.0
C1295 C 0.06323 0.17653 0.8863 0.0
C1296 C 0.04364 0.2159 0.85751 0.0
H1297 H 0.99547 0.28776 0.84682 0.0
N1298 N 0.04268 0.23865 0.81879 0.0
C1299 C 1.01876 0.27751 0.81495 0.0
C1300 C 0.0344 0.23591 0.8431 0.0
C1301 C 0.03609 0.25989 0.80519 0.0
C1302 C 1.00883 0.27402 0.83925 0.0
C1303 C 1.01694 0.25334 0.85385 0.0
O1304 O 0.09049 0.24576 0.80112 0.0
O1305 O 0.07979 0.17815 0.7738 0.0
O1306 O 0.07846 0.13647 0.79835 0.0
O1307 O 0.09913 0.17343 0.8123 0.0
O1308 O 0.08812 0.21564 0.76433 0.0
O1309 O 0.10833 0.21639 0.8231 0.0
O1310 O 1.0117 0.12926 0.78168 0.0
O1311 O 0.03799 0.18271 0.79989 0.0
O1312 O 0.04641 0.22188 0.77094 0.0
O1313 O 0.03226 0.18439 0.75131 0.0
O1314 O 0.02996 0.14607 0.81244 0.0
O1315 O 1.0183 0.14246 0.74352 0.0
C1316 C 0.08897 0.19239 0.75642 0.0
C1317 C 0.11381 0.25905 0.83758 0.0
C1318 C 0.13637 0.29636 0.85545 0.0
C1319 C 0.13212 0.27882 0.83519 0.0
C1320 C 0.12137 0.29393 0.87753 0.0
C1321 C 0.09998 0.25706 0.86027 0.0
C1322 C 0.10356 0.27445 0.87991 0.0
C1323 C 0.09719 0.14807 0.81036 0.0
C1324 C 0.10891 0.24039 0.81674 0.0
C1325 C 1.00832 0.24981 0.87887 0.0
C1326 C 1.01749 0.2295 0.89335 0.0
C1327 C 0.0276 0.16994 0.81756 0.0
C1328 C 0.99371 0.1047 0.74863 0.0
C1329 C 0.96779 0.09799 0.75152 0.0
C1330 C 0.95864 0.07413 0.74286 0.0
C1331 C 0.976 0.05738 0.73118 0.0
C1332 C 1.01038 0.08751 0.73694 0.0
C1333 C 1.00155 0.06404 0.72831 0.0
C1334 C 0.03323 0.2094 0.75327 0.0
C1335 C 1.0034 0.12931 0.75839 0.0
H1336 H 0.1432 0.28023 0.81788 0.0
H1337 H 0.12314 0.3073 0.8931 0.0
H1338 H 0.08641 0.24197 0.86291 0.0
H1339 H 0.09242 0.2728 0.89715 0.0
H1340 H 0.95493 0.11118 0.76075 0.0
H1341 H 0.96976 0.0392 0.72374 0.0
H1342 H 0.03024 0.09225 0.73442 0.0
H1343 H 1.01456 0.05094 0.71921 0.0
Eu1344 Eu 0.73516 0.96546 0.70711 0.0
C1345 C 0.77749 0.95862 0.59798 0.0
C1346 C 0.81879 0.93928 0.60437 0.0
C1347 C 0.7957 0.9318 0.565 0.0
C1348 C 0.79849 0.95439 0.61327 0.0
C1349 C 0.77628 0.94813 0.57331 0.0
C1350 C 0.81687 0.92728 0.58056 0.0
C1351 C 0.73862 0.97339 0.56569 0.0
N1352 N 0.75927 0.97484 0.6064 0.0
C1353 C 0.7407 0.98336 0.59028 0.0
C1354 C 0.75626 0.95539 0.55731 0.0
Eu1355 Eu 0.76392 0.9906 0.64838 0.0
N1356 N 0.8001 0.96692 0.63581 0.0
C1357 C 0.82242 0.96722 0.64909 0.0
C1358 C 0.84093 0.93775 0.61908 0.0
C1359 C 0.84296 0.95224 0.64125 0.0
H1360 H 0.72706 0.99731 0.59675 0.0
H1361 H 0.8603 0.95185 0.65234 0.0
H1362 H 0.83215 0.91538 0.57353 0.0
H1363 H 0.7235 0.97965 0.5532 0.0
H1364 H 0.82423 0.97835 0.66625 0.0
H1365 H 0.64081 0.97046 0.66164 0.0
H1366 H 0.85693 0.9263 0.61296 0.0
H1367 H 0.75377 0.99145 0.763 0.0
H1368 H 0.68429 0.95592 0.6669 0.0
H1369 H 0.73764 0.02107 0.79526 0.0
H1370 H 0.795 0.92335 0.5462 0.0
H1371 H 0.62223 1.00096 0.6921 0.0
H1372 H 0.62721 0.02733 0.73117 0.0
H1373 H 0.75487 0.94801 0.53812 0.0
H1374 H 0.65333 0.04103 0.76745 0.0
N1375 N 0.69194 0.97823 0.70001 0.0
C1376 C 0.67721 0.9693 0.68045 0.0
C1377 C 0.6417 0.99465 0.69458 0.0
C1378 C 0.65641 1.00329 0.71494 0.0
C1379 C 0.65212 0.97749 0.67735 0.0
C1380 C 0.68175 0.9946 0.71728 0.0
H1381 H 0.69446 0.03912 0.7912 0.0
N1382 N 0.72095 0.9942 0.73917 0.0
C1383 C 0.72601 1.01638 0.77892 0.0
C1384 C 0.69664 1.00272 0.73744 0.0
C1385 C 0.73524 0.9999 0.76022 0.0
C1386 C 0.70161 0.02641 0.77663 0.0
C1387 C 0.68644 1.01933 0.75597 0.0
O1388 O 0.73843 0.94648 0.74437 0.0
O1389 O 0.76407 0.95775 0.67669 0.0
O1390 O 0.73818 0.95909 0.63524 0.0
O1391 O 0.72499 0.93884 0.67272 0.0
O1392 O 0.77441 0.9501 0.71417 0.0
O1393 O 0.71523 0.92969 0.71531 0.0
O1394 O 0.75641 0.02776 0.63096 0.0
O1395 O 0.73823 0.99966 0.68151 0.0
O1396 O 0.76729 0.99286 0.71975 0.0
O1397 O 0.78782 1.00332 0.68161 0.0
O1398 O 0.72491 1.00859 0.64542 0.0
O1399 O 0.79503 1.01661 0.63822 0.0
C1400 C 0.78177 0.94885 0.69076 0.0
C1401 C 0.70172 0.92377 0.75821 0.0
C1402 C 0.68425 0.90139 0.79583 0.0
C1403 C 0.70432 0.90552 0.77805 0.0
C1404 C 0.66224 0.91653 0.79365 0.0
C1405 C 0.67902 0.9376 0.75643 0.0
C1406 C 0.65965 0.93424 0.77411 0.0
C1407 C 0.72641 0.94051 0.64729 0.0
C1408 C 0.72222 0.92852 0.73912 0.0
C1409 C 0.66139 0.02817 0.7535 0.0
C1410 C 0.64648 0.0203 0.73294 0.0
C1411 C 0.72041 1.01064 0.66945 0.0
C1412 C 0.78732 0.04413 0.60295 0.0
C1413 C 0.78652 0.07064 0.59828 0.0
C1414 C 0.79125 0.08029 0.57362 0.0
C1415 C 0.79689 0.06318 0.55389 0.0
C1416 C 0.79361 0.02759 0.58298 0.0
C1417 C 0.79825 0.03707 0.55862 0.0
C1418 C 0.78565 1.0044 0.70661 0.0
C1419 C 0.7802 0.03378 0.62818 0.0
H1420 H 0.72158 0.89437 0.7793 0.0
H1421 H 0.64685 0.91488 0.80722 0.0
H1422 H 0.67611 0.95096 0.7412 0.0
H1423 H 0.64243 0.94542 0.77261 0.0
H1424 H 0.7818 0.08362 0.61358 0.0
H1425 H 0.80067 0.07009 0.53484 0.0
H1426 H 0.79478 1.00733 0.58614 0.0
H1427 H 0.80289 0.0241 0.54332 0.0
Eu1428 Eu 0.8036 0.07289 0.2088 0.0
C1429 C 0.75642 0.08104 0.10265 0.0
C1430 C 0.71566 0.10039 0.11177 0.0
C1431 C 0.73705 0.10957 0.07181 0.0
C1432 C 0.73624 0.08481 0.11908 0.0
C1433 C 0.75662 0.09265 0.07846 0.0
C1434 C 0.71661 0.11346 0.08846 0.0
C1435 C 0.79345 0.06723 0.06794 0.0
N1436 N 0.77483 0.06431 0.10951 0.0
C1437 C 0.79237 0.05613 0.09211 0.0
C1438 C 0.77581 0.08596 0.06127 0.0
Eu1439 Eu 0.77252 0.04764 0.15136 0.0
N1440 N 0.73565 0.07145 0.14119 0.0
C1441 C 0.71402 0.07075 0.15552 0.0
C1442 C 0.69424 0.1014 0.12752 0.0
C1443 C 0.69319 0.08605 0.14918 0.0
H1444 H 0.8061 0.04176 0.09736 0.0
H1445 H 0.6764 0.08609 0.16109 0.0
H1446 H 0.70114 0.1258 0.08268 0.0
H1447 H 0.80788 0.06136 0.0545 0.0
H1448 H 0.71302 0.0591 0.17239 0.0
H1449 H 0.8969 0.07097 0.16098 0.0
H1450 H 0.67804 0.11316 0.12261 0.0
H1451 H 0.78756 0.04557 0.26495 0.0
H1452 H 0.85368 0.08525 0.16828 0.0
H1453 H 0.80469 1.01452 0.29526 0.0
H1454 H 0.73703 0.11895 0.05345 0.0
H1455 H 0.91631 0.03882 0.18916 0.0
H1456 H 0.91247 1.01031 0.22685 0.0
H1457 H 0.77655 0.09438 0.04247 0.0
H1458 H 0.8874 0.99469 0.26305 0.0
N1459 N 0.84676 0.06083 0.20005 0.0
C1460 C 0.86099 0.07092 0.18071 0.0
C1461 C 0.89692 0.04495 0.1925 0.0
C1462 C 0.88282 0.03523 0.21279 0.0
C1463 C 0.886 0.063 0.17653 0.0
C1464 C 0.85754 0.04374 0.21628 0.0
H1465 H 0.84738 0.99611 0.2886 0.0
N1466 N 0.81917 0.0433 0.23951 0.0
C1467 C 0.81564 0.0197 0.27861 0.0
C1468 C 0.84333 0.03474 0.23652 0.0
C1469 C 0.80581 0.03701 0.26099 0.0
C1470 C 0.83976 1.00947 0.27487 0.0
C1471 C 0.85414 1.01727 0.25392 0.0
O1472 O 0.80116 0.09129 0.24634 0.0
O1473 O 0.77362 0.08075 0.17934 0.0
O1474 O 0.79847 0.0786 0.13725 0.0
O1475 O 0.81218 0.09957 0.17411 0.0
O1476 O 0.7646 0.08824 0.21711 0.0
O1477 O 0.82374 0.10854 0.21708 0.0
O1478 O 0.77983 1.01072 0.13334 0.0
O1479 O 0.79944 0.03853 0.18357 0.0
O1480 O 0.77171 0.04623 0.22275 0.0
O1481 O 0.75022 0.03419 0.18555 0.0
O1482 O 0.81153 0.03019 0.14686 0.0
O1483 O 0.74134 0.02154 0.14151 0.0
C1484 C 0.75643 0.08968 0.19397 0.0
C1485 C 0.83782 0.11412 0.25985 0.0
C1486 C 0.85557 0.13671 0.29718 0.0
C1487 C 0.83547 0.13263 0.27944 0.0
C1488 C 0.87745 0.12137 0.29514 0.0
C1489 C 0.86029 0.09992 0.25826 0.0
C1490 C 0.87978 0.10336 0.27584 0.0
C1491 C 0.81035 0.09747 0.14876 0.0
C1492 C 0.81713 0.10942 0.241 0.0
C1493 C 0.87899 1.00835 0.2501 0.0
C1494 C 0.89327 1.01728 0.22955 0.0
C1495 C 0.81689 0.02789 0.1707 0.0
C1496 C 0.74843 0.99434 0.10582 0.0
C1497 C 0.74969 0.9679 0.10075 0.0
C1498 C 0.74448 0.95845 0.07609 0.0
C1499 C 0.73789 0.9757 0.05677 0.0
C1500 C 0.74122 1.01099 0.08624 0.0
C1501 C 0.73608 1.00171 0.06189 0.0
C1502 C 0.75319 0.03409 0.21048 0.0
C1503 C 0.75603 1.00456 0.131 0.0
H1504 H 0.81832 0.14397 0.28055 0.0
H1505 H 0.89288 0.12305 0.30868 0.0
H1506 H 0.86288 0.08615 0.24332 0.0
H1507 H 0.89686 0.09194 0.2745 0.0
H1508 H 0.75516 0.95484 0.11574 0.0
H1509 H 0.73374 0.96897 0.03773 0.0
H1510 H 0.73971 0.0312 0.08969 0.0
H1511 H 0.73072 1.01477 0.04689 0.0
Eu1512 Eu 0.23495 0.57321 0.33119 0.0
C1513 C 0.27709 0.57885 0.44182 0.0
C1514 C 0.31937 0.59664 0.43741 0.0
C1515 C 0.29504 0.60441 0.47597 0.0
C1516 C 0.29888 0.58244 0.42746 0.0
C1517 C 0.27518 0.58927 0.46647 0.0
C1518 C 0.31707 0.60813 0.46144 0.0
C1519 C 0.23489 0.56758 0.47117 0.0
N1520 N 0.25811 0.56428 0.43202 0.0
C1521 C 0.23759 0.55773 0.4466 0.0
C1522 C 0.25365 0.5836 0.48106 0.0
Eu1523 Eu 0.2642 0.5485 0.3902 0.0
N1524 N 0.30065 0.57078 0.40445 0.0
C1525 C 0.32311 0.57073 0.39148 0.0
C1526 C 0.34187 0.59815 0.42328 0.0
C1527 C 0.34389 0.58476 0.40043 0.0
H1528 H 0.22304 0.54533 0.43908 0.0
H1529 H 0.36143 0.58524 0.38969 0.0
H1530 H 0.33252 0.61932 0.46927 0.0
H1531 H 0.21841 0.56272 0.4825 0.0
H1532 H 0.32495 0.56037 0.37385 0.0
H1533 H 0.14087 0.56806 0.37718 0.0
H1534 H 0.35803 0.60891 0.43022 0.0
H1535 H 0.25366 0.54603 0.27589 0.0
H1536 H 0.18476 0.58159 0.37249 0.0
H1537 H 0.23759 0.51572 0.24423 0.0
H1538 H 0.29379 0.61284 0.49474 0.0
H1539 H 0.12186 0.53813 0.34637 0.0
H1540 H 0.12682 0.51113 0.30773 0.0
H1541 H 0.25164 0.5909 0.50022 0.0
H1542 H 0.15318 0.49635 0.27212 0.0
N1543 N 0.19172 0.56046 0.33847 0.0
C1544 C 0.17723 0.56907 0.35832 0.0
C1545 C 0.14136 0.54434 0.34388 0.0
C1546 C 0.15604 0.53547 0.32362 0.0
C1547 C 0.15201 0.56121 0.36128 0.0
C1548 C 0.18143 0.54405 0.32126 0.0
H1549 H 0.19435 0.49783 0.24846 0.0
N1550 N 0.22075 0.54388 0.29961 0.0
C1551 C 0.22591 0.5208 0.2604 0.0
C1552 C 0.19639 0.53549 0.30136 0.0
C1553 C 0.2351 0.53768 0.27877 0.0
C1554 C 0.20147 0.51086 0.26277 0.0
C1555 C 0.18622 0.51844 0.28317 0.0
O1556 O 0.23826 0.59137 0.29356 0.0
O1557 O 0.2642 0.58052 0.36131 0.0
O1558 O 0.24304 0.58384 0.40225 0.0
O1559 O 0.22393 0.59989 0.36524 0.0
O1560 O 0.27395 0.58988 0.32428 0.0
O1561 O 0.21529 0.60897 0.3223 0.0
O1562 O 0.25584 0.51198 0.40851 0.0
O1563 O 0.23818 0.53928 0.35718 0.0
O1564 O 0.26718 0.54589 0.31907 0.0
O1565 O 0.28865 0.53619 0.35705 0.0
O1566 O 0.22483 0.53138 0.39344 0.0
O1567 O 0.29466 0.52143 0.39963 0.0
C1568 C 0.28174 0.59008 0.34758 0.0
C1569 C 0.20194 0.61437 0.27924 0.0
C1570 C 0.18468 0.63676 0.2415 0.0
C1571 C 0.20463 0.63268 0.25944 0.0
C1572 C 0.1627 0.62152 0.24347 0.0
C1573 C 0.17928 0.60044 0.28079 0.0
C1574 C 0.16003 0.60376 0.26295 0.0
C1575 C 0.22876 0.60069 0.3903 0.0
C1576 C 0.22232 0.60965 0.29848 0.0
C1577 C 0.16115 0.50965 0.28572 0.0
C1578 C 0.14612 0.51812 0.30592 0.0
C1579 C 0.22032 0.52872 0.36949 0.0
C1580 C 0.28714 0.49423 0.43531 0.0
C1581 C 0.28645 0.46764 0.43973 0.0
C1582 C 0.29164 0.45772 0.46422 0.0
C1583 C 0.29766 0.47466 0.484 0.0
C1584 C 0.29372 0.51056 0.45537 0.0
C1585 C 0.29888 0.50082 0.47952 0.0
C1586 C 0.28597 0.5349 0.33209 0.0
C1587 C 0.27947 0.50494 0.41034 0.0
H1588 H 0.22188 0.6439 0.25836 0.0
H1589 H 0.1474 0.62314 0.22977 0.0
H1590 H 0.17634 0.58699 0.29594 0.0
H1591 H 0.14283 0.5925 0.26426 0.0
H1592 H 0.28141 0.45482 0.42438 0.0
H1593 H 0.30178 0.46756 0.50292 0.0
H1594 H 0.29468 0.53086 0.45244 0.0
H1595 H 0.30377 0.51363 0.49489 0.0
Eu1596 Eu 0.3026 0.46581 0.82966 0.0
C1597 C 0.2564 0.45803 0.93655 0.0
C1598 C 0.21527 0.43908 0.92813 0.0
C1599 C 0.23721 0.42982 0.96779 0.0
C1600 C 0.23591 0.45442 0.92044 0.0
C1601 C 0.25686 0.44651 0.96078 0.0
C1602 C 0.21645 0.42608 0.95146 0.0
C1603 C 0.29417 0.47156 0.97064 0.0
N1604 N 0.2749 0.47452 0.92934 0.0
C1605 C 0.29282 0.48256 0.94644 0.0
C1606 C 0.27641 0.45306 0.97766 0.0
Eu1607 Eu 0.27211 0.4911 0.88747 0.0
N1608 N 0.23513 0.46768 0.89828 0.0
C1609 C 0.21326 0.46854 0.88428 0.0
C1610 C 0.19358 0.43824 0.91271 0.0
C1611 C 0.19235 0.45351 0.89101 0.0
H1612 H 0.30665 0.49676 0.94094 0.0
H1613 H 0.17538 0.4536 0.87935 0.0
H1614 H 0.20094 0.41393 0.95752 0.0
H1615 H 0.30889 0.47732 0.98384 0.0
H1616 H 0.21211 0.48011 0.86736 0.0
H1617 H 0.3964 0.46735 0.87667 0.0
H1618 H 0.17734 0.42666 0.91791 0.0
H1619 H 0.28595 0.49364 0.7739 0.0
H1620 H 0.35301 0.45333 0.86985 0.0
H1621 H 0.30287 0.52478 0.74359 0.0
H1622 H 0.23739 0.42051 0.98619 0.0
H1623 H 0.41569 0.49941 0.8483 0.0
H1624 H 0.41156 0.52803 0.81073 0.0
H1625 H 0.27735 0.44472 0.99649 0.0
H1626 H 0.38615 0.54392 0.77489 0.0
N1627 N 0.34588 0.47777 0.83812 0.0
C1628 C 0.36027 0.46761 0.85732 0.0
C1629 C 0.39622 0.4934 0.84516 0.0
C1630 C 0.38193 0.50323 0.82505 0.0
C1631 C 0.38538 0.47539 0.86124 0.0
C1632 C 0.35655 0.49487 0.82183 0.0
H1633 H 0.34578 0.54289 0.74983 0.0
N1634 N 0.31787 0.49562 0.79902 0.0
C1635 C 0.31399 0.51945 0.76009 0.0
C1636 C 0.34214 0.50403 0.80178 0.0
C1637 C 0.30428 0.50211 0.77773 0.0
C1638 C 0.33825 0.52951 0.76359 0.0
C1639 C 0.35284 0.52151 0.78432 0.0
O1640 O 0.29995 0.44772 0.79197 0.0
O1641 O 0.27298 0.45816 0.8594 0.0
O1642 O 0.29773 0.45972 0.9013 0.0
O1643 O 0.31154 0.43908 0.86428 0.0
O1644 O 0.26365 0.44982 0.82187 0.0
O1645 O 0.32264 0.43022 0.82101 0.0
O1646 O 0.27979 0.52797 0.90541 0.0
O1647 O 0.29882 0.50017 0.85503 0.0
O1648 O 0.27039 0.49236 0.81605 0.0
O1649 O 0.24931 0.50427 0.8535 0.0
O1650 O 0.31123 0.50839 0.8917 0.0
O1651 O 0.24118 0.51746 0.8972 0.0
C1652 C 0.2557 0.44887 0.84509 0.0
C1653 C 0.33656 0.425 0.77814 0.0
C1654 C 0.35427 0.4028 0.74056 0.0
C1655 C 0.33417 0.40669 0.75834 0.0
C1656 C 0.37613 0.41817 0.74274 0.0
C1657 C 0.35907 0.43916 0.77988 0.0
C1658 C 0.3785 0.43597 0.76224 0.0
C1659 C 0.3097 0.441 0.88966 0.0
C1660 C 0.31594 0.42954 0.7971 0.0
C1661 C 0.37781 0.53026 0.78788 0.0
C1662 C 0.39229 0.52117 0.80823 0.0
C1663 C 0.31642 0.5107 0.86784 0.0
C1664 C 0.24853 0.54467 0.93279 0.0
C1665 C 0.24943 0.57116 0.93752 0.0
C1666 C 0.2443 0.58081 0.9621 0.0
C1667 C 0.23817 0.5637 0.98169 0.0
C1668 C 0.24176 0.52813 0.95262 0.0
C1669 C 0.23672 0.53761 0.9769 0.0
C1670 C 0.25195 0.50438 0.82854 0.0
C1671 C 0.25605 0.53434 0.90768 0.0
H1672 H 0.31703 0.39534 0.75711 0.0
H1673 H 0.39154 0.41668 0.72918 0.0
H1674 H 0.36173 0.45271 0.795 0.0
H1675 H 0.39559 0.44738 0.7637 0.0
H1676 H 0.25452 0.58415 0.92233 0.0
H1677 H 0.2341 0.57063 1.00068 0.0
H1678 H 0.24052 0.50787 0.94941 0.0
H1679 H 0.23171 0.52465 0.9921 0.0
Eu1680 Eu 0.70881 0.73519 0.96567 0.0
C1681 C 0.60356 0.78429 0.95643 0.0
C1682 C 0.61383 0.82561 0.93887 0.0
C1683 C 0.57397 0.80506 0.92756 0.0
C1684 C 0.62035 0.80436 0.95393 0.0
C1685 C 0.57979 0.78481 0.94401 0.0
C1686 C 0.59099 0.82543 0.92498 0.0
C1687 C 0.56796 0.74722 0.96772 0.0
N1688 N 0.60961 0.76526 0.97276 0.0
C1689 C 0.59173 0.74765 0.97969 0.0
C1690 C 0.56215 0.7656 0.94942 0.0
Eu1691 Eu 0.65108 0.76606 0.99059 0.0
N1692 N 0.64201 0.8041 0.96799 0.0
C1693 C 0.65665 0.82551 0.96986 0.0
C1694 C 0.62987 0.84685 0.93917 0.0
C1695 C 0.65105 0.84702 0.9552 0.0
H1696 H 0.59634 0.73324 0.99364 0.0
H1697 H 0.66319 0.86363 0.95614 0.0
H1698 H 0.58584 0.84141 0.91301 0.0
H1699 H 0.55419 0.7327 0.97257 0.0
H1700 H 0.67323 0.82588 0.98194 0.0
H1701 H 0.66172 0.64137 0.96597 0.0
H1702 H 0.62557 0.86354 0.92785 0.0
H1703 H 0.76434 0.75146 0.99428 0.0
H1704 H 0.66893 0.68476 0.95214 0.0
H1705 H 0.79398 0.73441 0.02596 0.0
H1706 H 0.55597 0.80561 0.91753 0.0
H1707 H 0.68934 0.62199 0.99861 0.0
H1708 H 0.72627 0.62602 0.02804 0.0
H1709 H 0.54365 0.76537 0.94033 0.0
H1710 H 0.7619 0.6513 0.04463 0.0
N1711 N 0.7001 0.69186 0.97733 0.0
C1712 C 0.68111 0.6775 0.96671 0.0
C1713 C 0.69264 0.64147 0.9927 0.0
C1714 C 0.71257 0.65572 1.00297 0.0
C1715 C 0.67699 0.65237 0.97436 0.0
C1716 C 0.71602 0.68111 0.99471 0.0
H1717 H 0.78717 0.69155 0.04403 0.0
N1718 N 0.73894 0.71972 0.99592 0.0
C1719 C 0.7775 0.72338 0.02038 0.0
C1720 C 0.73593 0.69546 1.00428 0.0
C1721 C 0.76021 0.73318 1.00273 0.0
C1722 C 0.77368 0.69916 0.03041 0.0
C1723 C 0.75302 0.68466 0.02206 0.0
O1724 O 0.74665 0.73772 0.94798 0.0
O1725 O 0.67923 0.76497 0.9578 0.0
O1726 O 0.63742 0.74069 0.95896 0.0
O1727 O 0.6744 0.72638 0.93868 0.0
O1728 O 0.71683 0.77419 0.94985 0.0
O1729 O 0.71774 0.71518 0.9301 0.0
O1730 O 0.62925 0.75833 0.02531 0.0
O1731 O 0.68309 0.73888 0.9998 0.0
O1732 O 0.72259 0.76754 0.99195 0.0
O1733 O 0.68516 0.78786 1.00505 0.0
O1734 O 0.64624 0.72686 1.00752 0.0
O1735 O 0.6444 0.79582 1.01904 0.0
C1736 C 0.69366 0.78223 0.94868 0.0
C1737 C 0.76062 0.70124 0.92518 0.0
C1738 C 0.79822 0.68359 0.90302 0.0
C1739 C 0.78034 0.70361 0.90682 0.0
C1740 C 0.79618 0.66178 0.91851 0.0
C1741 C 0.75904 0.67882 0.9395 0.0
C1742 C 0.77676 0.65942 0.93637 0.0
C1743 C 0.64905 0.72843 0.94044 0.0
C1744 C 0.74165 0.72185 0.92967 0.0
C1745 C 0.74921 0.6597 0.03073 0.0
C1746 C 0.72899 0.64528 0.02124 0.0
C1747 C 0.66998 0.72134 1.01004 0.0
C1748 C 0.60625 0.7926 0.04305 0.0
C1749 C 0.60011 0.79215 0.06926 0.0
C1750 C 0.57733 0.80337 0.0781 0.0
C1751 C 0.56065 0.81436 0.06028 0.0
C1752 C 0.58923 0.80378 0.02581 0.0
C1753 C 0.56653 0.81442 0.03439 0.0
C1754 C 0.71012 0.78553 1.00465 0.0
C1755 C 0.63038 0.78155 0.03372 0.0
H1756 H 0.78145 0.72071 0.89537 0.0
H1757 H 0.80982 0.64643 0.91708 0.0
H1758 H 0.74403 0.6762 0.95315 0.0
H1759 H 0.77543 0.6424 0.94789 0.0
H1760 H 0.61327 0.78375 0.08274 0.0
H1761 H 0.54299 0.82299 0.06645 0.0
H1762 H 0.59357 0.80445 1.00572 0.0
H1763 H 0.55351 0.823 0.02092 0.0
Eu1764 Eu 0.20709 0.80287 0.07258 0.0
C1765 C 0.10117 0.75572 0.08099 0.0
C1766 C 0.11071 0.71438 0.09897 0.0
C1767 C 0.07097 0.73548 0.10957 0.0
C1768 C 0.11767 0.73542 0.08382 0.0
C1769 C 0.07725 0.75556 0.09309 0.0
C1770 C 0.08769 0.71492 0.11252 0.0
C1771 C 0.06626 0.79324 0.06909 0.0
N1772 N 0.1077 0.77468 0.06474 0.0
C1773 C 0.09018 0.7925 0.05748 0.0
C1774 C 0.05995 0.77499 0.08737 0.0
Eu1775 Eu 0.1492 0.77296 0.0473 0.0
N1776 N 0.13951 0.73529 0.07008 0.0
C1777 C 0.15392 0.71373 0.06857 0.0
C1778 C 0.12653 0.69297 0.09911 0.0
C1779 C 0.14792 0.69244 0.08339 0.0
H1780 H 0.09516 0.80673 0.04349 0.0
H1781 H 0.15989 0.6757 0.08279 0.0
H1782 H 0.08219 0.6991 0.12454 0.0
H1783 H 0.05273 0.8079 0.06398 0.0
H1784 H 0.1706 0.71314 0.05664 0.0
H1785 H 0.16522 0.89903 0.06416 0.0
H1786 H 0.1219 0.67644 0.11052 0.0
H1787 H 0.26462 0.78289 0.05158 0.0
H1788 H 0.16824 0.85609 0.08059 0.0
H1789 H 0.29767 0.79687 0.0215 0.0
H1790 H 0.05284 0.73521 0.11936 0.0
H1791 H 0.19631 0.91475 0.03277 0.0
H1792 H 0.23458 0.90684 1.00626 0.0
H1793 H 0.04135 0.77549 0.0962 0.0
H1794 H 0.26992 0.87901 0.99397 0.0
N1795 N 0.20121 0.84593 0.0589 0.0
C1796 C 0.18233 0.86191 0.06709 0.0
C1797 C 0.19802 0.89554 0.04008 0.0
C1798 C 0.21767 0.87957 0.03211 0.0
C1799 C 0.18042 0.88672 0.05776 0.0
C1800 C 0.21907 0.85459 0.04209 0.0
H1801 H 0.29352 0.83821 0.99949 0.0
N1802 N 0.24042 0.81473 0.04462 0.0
C1803 C 0.28102 0.80856 0.0246 0.0
C1804 C 0.23887 0.83856 0.03459 0.0
C1805 C 0.26199 0.80051 0.04128 0.0
C1806 C 0.27864 0.83194 1.01231 0.0
C1807 C 0.25779 0.84755 1.0177 0.0
O1808 O 0.21878 0.80003 0.11285 0.0
O1809 O 0.17745 0.77319 0.08019 0.0
O1810 O 0.13576 0.79793 0.07939 0.0
O1811 O 0.17258 0.816 0.09704 0.0
O1812 O 0.21569 0.76286 0.08479 0.0
O1813 O 0.23956 0.82424 0.08798 0.0
O1814 O 0.12992 0.7812 1.01125 0.0
O1815 O 0.18126 0.79991 0.03857 0.0
O1816 O 0.2208 0.7712 0.04541 0.0
O1817 O 0.18313 0.75117 0.03231 0.0
O1818 O 0.14468 0.81234 0.03046 0.0
O1819 O 0.13951 0.74249 0.02032 0.0
C1820 C 0.19232 0.75546 0.08777 0.0
C1821 C 0.26326 0.80519 0.12085 0.0
C1822 C 0.30363 0.81269 0.14339 0.0
C1823 C 0.27932 0.82124 0.1355 0.0
C1824 C 0.31139 0.78802 0.13673 0.0
C1825 C 0.27172 0.78067 0.11452 0.0
C1826 C 0.29552 0.77215 0.12254 0.0
C1827 C 0.14739 0.81235 0.09634 0.0
C1828 C 0.23865 0.81455 0.11055 0.0
C1829 C 0.25581 0.87203 1.00727 0.0
C1830 C 0.23578 0.88794 1.01439 0.0
C1831 C 0.16852 0.81761 0.02819 0.0
C1832 C 0.10333 0.74958 0.9938 0.0
C1833 C 0.09853 0.75051 0.96731 0.0
C1834 C 0.07407 0.74489 0.95765 0.0
C1835 C 0.05466 0.73821 0.97474 0.0
C1836 C 0.08369 0.7423 1.01032 0.0
C1837 C 0.05953 0.73674 1.00083 0.0
C1838 C 0.20813 0.75357 0.03232 0.0
C1839 C 0.12829 0.75759 1.00413 0.0
H1840 H 0.27325 0.84038 0.14016 0.0
H1841 H 0.32991 0.78103 0.14248 0.0
H1842 H 0.26012 0.76816 0.10303 0.0
H1843 H 0.30185 0.75322 0.11746 0.0
H1844 H 0.11358 0.75603 0.95435 0.0
H1845 H 0.03576 0.73376 0.96781 0.0
H1846 H 0.08696 0.7411 0.03059 0.0
H1847 H 0.04446 0.73133 1.01377 0.0
Eu1848 Eu 0.3293 0.23407 0.57312 0.0
C1849 C 0.43718 0.2818 0.57949 0.0
C1850 C 0.42983 0.32406 0.59639 0.0
C1851 C 0.46956 0.30221 0.60549 0.0
C1852 C 0.42147 0.30277 0.58231 0.0
C1853 C 0.46162 0.28155 0.59051 0.0
C1854 C 0.45367 0.3234 0.60847 0.0
C1855 C 0.46931 0.2413 0.56959 0.0
N1856 N 0.42892 0.26201 0.56504 0.0
C1857 C 0.44491 0.24238 0.55905 0.0
C1858 C 0.4776 0.26083 0.58562 0.0
Eu1859 Eu 0.3872 0.26523 0.54834 0.0
N1860 N 0.39869 0.303 0.57008 0.0
C1861 C 0.38436 0.32465 0.56944 0.0
C1862 C 0.41436 0.34569 0.59721 0.0
C1863 C 0.39173 0.34613 0.58333 0.0
H1864 H 0.4385 0.22726 0.54668 0.0
H1865 H 0.3799 0.36298 0.58336 0.0
H1866 H 0.46029 0.33947 0.61956 0.0
H1867 H 0.48174 0.22547 0.56529 0.0
H1868 H 0.36679 0.32528 0.55886 0.0
H1869 H 0.37911 0.14205 0.56614 0.0
H1870 H 0.42005 0.36239 0.60789 0.0
H1871 H 0.27305 0.25097 0.5469 0.0
H1872 H 0.37304 0.18573 0.57986 0.0
H1873 H 0.24105 0.23357 0.51768 0.0
H1874 H 0.48817 0.30225 0.61435 0.0
H1875 H 0.34805 0.1217 0.53738 0.0
H1876 H 0.30818 0.12495 0.51196 0.0
H1877 H 0.4966 0.26009 0.59355 0.0
H1878 H 0.27098 0.14979 0.49848 0.0
N1879 N 0.33795 0.19117 0.56008 0.0
C1880 C 0.35872 0.17755 0.56794 0.0
C1881 C 0.34496 0.14109 0.54368 0.0
C1882 C 0.32378 0.1549 0.53558 0.0
C1883 C 0.36249 0.15249 0.55992 0.0
C1884 C 0.32066 0.18019 0.54423 0.0
H1885 H 0.24609 0.19023 0.50019 0.0
N1886 N 0.29763 0.21871 0.54452 0.0
C1887 C 0.25769 0.22244 0.52245 0.0
C1888 C 0.29995 0.19434 0.53627 0.0
C1889 C 0.27623 0.23239 0.53869 0.0
C1890 C 0.26053 0.19794 0.51274 0.0
C1891 C 0.28162 0.18343 0.51986 0.0
O1892 O 0.29195 0.2364 0.59189 0.0
O1893 O 0.35847 0.26426 0.58042 0.0
O1894 O 0.40001 0.24426 0.58359 0.0
O1895 O 0.3637 0.22389 0.59963 0.0
O1896 O 0.32107 0.27304 0.58921 0.0
O1897 O 0.32159 0.21418 0.60901 0.0
O1898 O 0.40699 0.25705 0.51262 0.0
O1899 O 0.35507 0.23827 0.53923 0.0
O1900 O 0.3159 0.26578 0.5457 0.0
O1901 O 0.3532 0.28802 0.53521 0.0
O1902 O 0.39152 0.22596 0.53084 0.0
O1903 O 0.39544 0.29553 0.52072 0.0
C1904 C 0.34414 0.28144 0.58973 0.0
C1905 C 0.27903 0.19966 0.615 0.0
C1906 C 0.2416 0.18184 0.63737 0.0
C1907 C 0.25906 0.20216 0.63307 0.0
C1908 C 0.24428 0.15961 0.62259 0.0
C1909 C 0.28131 0.1768 0.6015 0.0
C1910 C 0.26397 0.15712 0.60506 0.0
C1911 C 0.38857 0.22951 0.60041 0.0
C1912 C 0.29762 0.22055 0.61004 0.0
C1913 C 0.28476 0.15838 0.51119 0.0
C1914 C 0.30586 0.1442 0.51894 0.0
C1915 C 0.36767 0.22085 0.52832 0.0
C1916 C 0.4321 0.28953 0.49458 0.0
C1917 C 0.43707 0.28833 0.46813 0.0
C1918 C 0.46132 0.29482 0.45852 0.0
C1919 C 0.48034 0.30263 0.4756 0.0
C1920 C 0.45135 0.29788 0.51107 0.0
C1921 C 0.47529 0.30433 0.50162 0.0
C1922 C 0.32832 0.28474 0.53429 0.0
C1923 C 0.40749 0.28058 0.50496 0.0
H1924 H 0.25745 0.21959 0.64394 0.0
H1925 H 0.23096 0.144 0.62436 0.0
H1926 H 0.29663 0.17403 0.5882 0.0
H1927 H 0.26582 0.13975 0.59414 0.0
H1928 H 0.42234 0.28192 0.45519 0.0
H1929 H 0.49907 0.30775 0.4687 0.0
H1930 H 0.44796 0.29923 0.53129 0.0
H1931 H 0.49005 0.31059 0.51456 0.0
Eu1932 Eu 0.82944 0.3039 0.46572 0.0
C1933 C 0.93606 0.25735 0.45752 0.0
C1934 C 0.92737 0.21616 0.43881 0.0
C1935 C 0.9669 0.23805 0.42901 0.0
C1936 C 0.91989 0.23687 0.45416 0.0
C1937 C 0.96013 0.25775 0.44573 0.0
C1938 C 0.95052 0.21728 0.42553 0.0
C1939 C 0.97037 0.29506 0.47064 0.0
N1940 N 0.92908 0.2759 0.47405 0.0
C1941 C 0.94631 0.29378 0.48191 0.0
C1942 C 0.97712 0.27729 0.45206 0.0
Eu1943 Eu 0.88736 0.27332 0.49094 0.0
N1944 N 0.8979 0.23617 0.46766 0.0
C1945 C 0.88389 0.21431 0.46877 0.0
C1946 C 0.91193 0.19446 0.43825 0.0
C1947 C 0.89042 0.19332 0.45376 0.0
H1948 H 0.94099 0.30764 0.49614 0.0
H1949 H 0.87876 0.17634 0.45406 0.0
H1950 H 0.9564 0.20172 0.41335 0.0
H1951 H 0.98365 0.30977 0.47623 0.0
H1952 H 0.8671 0.21323 0.4805 0.0
H1953 H 0.87616 0.39787 0.46747 0.0
H1954 H 0.91697 0.17816 0.42668 0.0
H1955 H 0.77368 0.2871 0.49337 0.0
H1956 H 0.86943 0.35448 0.45333 0.0
H1957 H 0.74336 0.30388 0.52454 0.0
H1958 H 0.98516 0.23819 0.41946 0.0
H1959 H 0.84782 0.417 0.49959 0.0
H1960 H 0.81031 0.4127 0.52822 0.0
H1961 H 0.99582 0.2782 0.44349 0.0
H1962 H 0.77455 0.38715 0.54403 0.0
N1963 N 0.83776 0.3472 0.47777 0.0
C1964 C 0.8569 0.36167 0.46763 0.0
C1965 C 0.84472 0.39754 0.49353 0.0
C1966 C 0.82466 0.38316 0.50333 0.0
C1967 C 0.86078 0.38678 0.47548 0.0
C1968 C 0.82148 0.35779 0.4949 0.0
H1969 H 0.74956 0.34673 0.54284 0.0
N1970 N 0.79876 0.31905 0.49552 0.0
C1971 C 0.75984 0.31504 0.51927 0.0
C1972 C 0.80149 0.3433 0.50402 0.0
C1973 C 0.77749 0.30541 0.50191 0.0
C1974 C 0.76333 0.33926 0.52945 0.0
C1975 C 0.78403 0.35392 0.52152 0.0
O1976 O 0.79186 0.30098 0.44749 0.0
O1977 O 0.8592 0.27426 0.45809 0.0
O1978 O 0.90101 0.29904 0.45954 0.0
O1979 O 0.86395 0.31299 0.43904 0.0
O1980 O 0.82169 0.26494 0.44971 0.0
O1981 O 0.82069 0.32408 0.43021 0.0
O1982 O 0.9057 0.28115 0.5276 0.0
O1983 O 0.85497 0.30003 0.49995 0.0
O1984 O 0.81592 0.27173 0.49229 0.0
O1985 O 0.85337 0.25068 0.5043 0.0
O1986 O 0.89162 0.31246 0.50817 0.0
O1987 O 0.89705 0.24251 0.51753 0.0
C1988 C 0.84489 0.25698 0.44881 0.0
C1989 C 0.77771 0.33755 0.4249 0.0
C1990 C 0.74001 0.35492 0.40263 0.0
C1991 C 0.75805 0.33504 0.40646 0.0
C1992 C 0.74182 0.37671 0.41817 0.0
C1993 C 0.77906 0.35997 0.43926 0.0
C1994 C 0.76118 0.37921 0.4361 0.0
C1995 C 0.88931 0.31115 0.44092 0.0
C1996 C 0.79687 0.31712 0.42941 0.0
C1997 C 0.78755 0.37887 0.53036 0.0
C1998 C 0.80784 0.39344 0.52131 0.0
C1999 C 0.86776 0.31764 0.51045 0.0
C2000 C 0.93293 0.24976 0.54441 0.0
C2001 C 0.93792 0.25073 0.57087 0.0
C2002 C 0.96253 0.24544 0.58034 0.0
C2003 C 0.98189 0.23905 0.56309 0.0
C2004 C 0.95254 0.24274 0.52774 0.0
C2005 C 0.97684 0.23752 0.53704 0.0
C2006 C 0.82841 0.25333 0.50438 0.0
C2007 C 0.9078 0.25743 0.53419 0.0
H2008 H 0.75712 0.31796 0.39498 0.0
H2009 H 0.72805 0.39194 0.41672 0.0
H2010 H 0.79405 0.36272 0.45294 0.0
H2011 H 0.76234 0.39623 0.44765 0.0
H2012 H 0.9229 0.25604 0.58394 0.0
H2013 H 1.0009 0.23484 0.56985 0.0
H2014 H 0.94914 0.24145 0.50751 0.0
H2015 H 0.99187 0.23231 0.52398 0.0
H2016 H 0.14995 0.38566 0.31161 0.0
H2017 H 0.08875 0.43545 0.3337 0.0
H2018 H 0.18095 0.41804 0.32568 0.0
H2019 H 0.11901 0.4678 0.3464 0.0
H2020 H 0.17632 0.51289 0.39083 0.0
H2021 H 0.14866 0.47792 0.37836 0.0
H2022 H 0.19879 0.46042 0.31572 0.0
H2023 H 0.22708 0.49533 0.32899 0.0
C2024 C 0.1431 0.40332 0.31974 0.0
C2025 C 0.11678 0.40788 0.32152 0.0
C2026 C 0.16085 0.42209 0.32744 0.0
C2027 C 0.15269 0.44577 0.33733 0.0
C2028 C 0.12632 0.44986 0.33938 0.0
C2029 C 0.10881 0.43128 0.33178 0.0
C2030 C 0.18144 0.50164 0.37433 0.0
C2031 C 0.2035 0.50752 0.36045 0.0
C2032 C 0.16546 0.48155 0.36704 0.0
C2033 C 0.17106 0.46629 0.34569 0.0
C2034 C 0.19373 0.47157 0.33228 0.0
C2035 C 0.20982 0.49183 0.33966 0.0
H2036 H 0.31007 0.54469 0.82781 0.0
H2037 H 0.3604 0.52583 0.88969 0.0
H2038 H 0.33865 0.5796 0.81525 0.0
H2039 H 0.38835 0.56082 0.87796 0.0
H2040 H 0.44878 0.60355 0.83426 0.0
H2041 H 0.41826 0.57131 0.84661 0.0
H2042 H 0.35673 0.62149 0.82552 0.0
H2043 H 0.38799 0.65367 0.81174 0.0
C2044 C 0.3273 0.54793 0.83864 0.0
C2045 C 0.33344 0.53186 0.85921 0.0
C2046 C 0.34355 0.56819 0.83168 0.0
C2047 C 0.3662 0.57308 0.84531 0.0
C2048 C 0.37159 0.55748 0.86647 0.0
C2049 C 0.35544 0.53737 0.87334 0.0
C2050 C 0.42875 0.60781 0.83219 0.0
C2051 C 0.42096 0.63125 0.82187 0.0
C2052 C 0.41109 0.58931 0.8396 0.0
C2053 C 0.38476 0.59355 0.83731 0.0
C2054 C 0.37679 0.61731 0.82744 0.0
C2055 C 0.39469 0.63598 0.8199 0.0
H2056 H 0.62104 0.14538 0.68181 0.0
H2057 H 0.62679 0.11535 0.75794 0.0
H2058 H 0.65137 0.11293 0.66702 0.0
H2059 H 0.6572 0.08359 0.74346 0.0
H2060 H 0.67694 0.02893 0.64831 0.0
H2061 H 0.65059 0.06474 0.66211 0.0
H2062 H 0.70126 0.07751 0.72544 0.0
H2063 H 0.72803 0.04198 0.71111 0.0
C2064 C 0.62911 0.13225 0.69548 0.0
C2065 C 0.62135 0.13301 0.72107 0.0
C2066 C 0.64634 0.11347 0.68699 0.0
C2067 C 0.6567 0.09538 0.70399 0.0
C2068 C 0.64978 0.09706 0.72977 0.0
C2069 C 0.63223 0.11535 0.73808 0.0
C2070 C 0.68248 0.03941 0.66517 0.0
C2071 C 0.7042 0.03205 0.67902 0.0
C2072 C 0.66745 0.06009 0.673 0.0
C2073 C 0.67367 0.07415 0.69494 0.0
C2074 C 0.6957 0.06705 0.70857 0.0
C2075 C 0.71098 0.04656 0.70048 0.0
H2076 H 0.94823 0.93383 0.204 0.0
H2077 H 0.88705 0.88439 0.22708 0.0
H2078 H 0.918 0.96627 0.19161 0.0
H2079 H 0.85605 0.91683 0.21329 0.0
H2080 H 0.81044 0.99426 0.21098 0.0
H2081 H 0.83863 0.95906 0.22352 0.0
H2082 H 0.88801 0.97681 0.16031 0.0
H2083 H 0.86046 1.01211 0.14859 0.0
C2084 C 0.92817 0.92974 0.20615 0.0
C2085 C 0.92018 0.90643 0.21662 0.0
C2086 C 0.91067 0.94837 0.19874 0.0
C2087 C 0.88432 0.9444 0.20119 0.0
C2088 C 0.87614 0.92078 0.21122 0.0
C2089 C 0.89388 0.90197 0.21877 0.0
C2090 C 0.82752 0.99074 0.20003 0.0
C2091 C 0.8337 1.00659 0.17931 0.0
C2092 C 0.84354 0.97031 0.20698 0.0
C2093 C 0.86597 0.96503 0.19319 0.0
C2094 C 0.87139 0.98044 0.1719 0.0
C2095 C 0.85549 1.00072 0.16504 0.0
H2096 H 0.3901 0.17817 0.5093 0.0
H2097 H 0.32559 0.22727 0.49742 0.0
H2098 H 0.37656 0.15151 0.47354 0.0
H2099 H 0.31166 0.20036 0.46189 0.0
H2100 H 0.27998 0.12695 0.42284 0.0
H2101 H 0.29445 0.15706 0.4549 0.0
H2102 H 0.371 0.15094 0.42607 0.0
H2103 H 0.35625 0.12063 0.39351 0.0
C2104 C 0.37294 0.18323 0.49908 0.0
C2105 C 0.35854 0.20446 0.50678 0.0
C2106 C 0.36525 0.16802 0.47841 0.0
C2107 C 0.34294 0.1736 0.46467 0.0
C2108 C 0.3288 0.1952 0.47209 0.0
C2109 C 0.33669 0.2106 0.49259 0.0
C2110 C 0.29989 0.13222 0.42305 0.0
C2111 C 0.31691 0.12123 0.40548 0.0
C2112 C 0.30819 0.14963 0.4415 0.0
C2113 C 0.33399 0.15646 0.44341 0.0
C2114 C 0.35102 0.14599 0.42542 0.0
C2115 C 0.34255 0.1288 0.40652 0.0
H2116 H 0.20384 0.94947 0.9351 0.0
H2117 H 0.22613 0.88825 0.88539 0.0
H2118 H 0.19083 0.91914 0.9673 0.0
H2119 H 0.21184 0.85721 0.91758 0.0
H2120 H 0.2089 0.81116 0.99479 0.0
H2121 H 0.22191 0.83952 0.95988 0.0
H2122 H 0.15892 0.88923 0.97733 0.0
H2123 H 0.14665 0.86143 1.01231 0.0
C2124 C 0.20572 0.9294 0.93091 0.0
C2125 C 0.21613 0.92142 0.90759 0.0
C2126 C 0.19795 0.91185 0.9494 0.0
C2127 C 0.20004 0.88547 0.94527 0.0
C2128 C 0.21005 0.87732 0.92165 0.0
C2129 C 0.21789 0.89509 0.90298 0.0
C2130 C 0.19809 0.82834 0.99127 0.0
C2131 C 0.17727 0.83452 1.00697 0.0
C2132 C 0.20531 0.84446 0.97101 0.0
C2133 C 0.19173 0.86704 0.96574 0.0
C2134 C 0.17034 0.87249 0.98096 0.0
C2135 C 0.16318 0.85645 1.00106 0.0
H2136 H 0.88946 0.36166 0.52571 0.0
H2137 H 0.82785 0.31093 0.54435 0.0
H2138 H 0.87761 0.38941 0.56082 0.0
H2139 H 0.81519 0.33928 0.57937 0.0
H2140 H 0.81169 0.38809 0.65366 0.0
H2141 H 0.82567 0.35709 0.62134 0.0
H2142 H 0.84591 0.41908 0.57131 0.0
H2143 H 0.83333 0.44937 0.60368 0.0
C2144 C 0.87315 0.35658 0.53724 0.0
C2145 C 0.85911 0.33453 0.53165 0.0
C2146 C 0.86622 0.37259 0.5574 0.0
C2147 C 0.84511 0.367 0.57296 0.0
C2148 C 0.83159 0.34431 0.56798 0.0
C2149 C 0.8386 0.3282 0.54766 0.0
C2150 C 0.8197 0.39494 0.63596 0.0
C2151 C 0.82136 0.42126 0.6313 0.0
C2152 C 0.82736 0.3772 0.61723 0.0
C2153 C 0.83703 0.38539 0.59349 0.0
C2154 C 0.83903 0.41177 0.5893 0.0
C2155 C 0.83149 0.42929 0.60787 0.0
H2156 H 0.72297 0.64904 0.15358 0.0
H2157 H 0.70148 0.58819 0.10305 0.0
H2158 H 0.70961 0.68032 0.12128 0.0
H2159 H 0.68943 0.61879 0.07065 0.0
H2160 H 0.64768 0.67727 0.02427 0.0
H2161 H 0.65853 0.64898 0.05931 0.0
H2162 H 0.72098 0.69832 0.07983 0.0
H2163 H 0.70934 0.72719 0.04485 0.0
C2164 C 0.715 0.64234 0.13579 0.0
C2165 C 0.7132 0.61605 0.13098 0.0
C2166 C 0.70775 0.66025 0.11704 0.0
C2167 C 0.69836 0.6523 0.09309 0.0
C2168 C 0.69611 0.62594 0.08879 0.0
C2169 C 0.70327 0.60824 0.10739 0.0
C2170 C 0.66379 0.68206 0.03621 0.0
C2171 C 0.67813 0.70406 0.03118 0.0
C2172 C 0.67015 0.66573 0.05634 0.0
C2173 C 0.69095 0.67094 0.07247 0.0
C2174 C 0.70479 0.69356 0.06801 0.0
C2175 C 0.69837 0.70998 0.04772 0.0
H2176 H 0.43473 0.33428 0.08946 0.0
H2177 H 0.38437 0.3125 0.15034 0.0
H2178 H 0.46676 0.34722 0.12005 0.0
H2179 H 0.4164 0.32667 0.18159 0.0
H2180 H 0.49314 0.32894 0.22822 0.0
H2181 H 0.4585 0.31612 0.19948 0.0
H2182 H 0.47664 0.37927 0.15012 0.0
H2183 H 0.51133 0.39142 0.17839 0.0
C2184 C 0.43038 0.33246 0.1095 0.0
C2185 C 0.40693 0.32222 0.11733 0.0
C2186 C 0.44877 0.34019 0.12718 0.0
C2187 C 0.44439 0.3382 0.15353 0.0
C2188 C 0.42066 0.32836 0.16151 0.0
C2189 C 0.40209 0.32058 0.14361 0.0
C2190 C 0.48981 0.33986 0.21106 0.0
C2191 C 0.50561 0.36068 0.20512 0.0
C2192 C 0.46971 0.33273 0.19471 0.0
C2193 C 0.46472 0.34641 0.17213 0.0
C2194 C 0.48006 0.3678 0.16689 0.0
C2195 C 0.49998 0.3749 0.18319 0.0
H2196 H 0.93431 0.20403 0.9494 0.0
H2197 H 0.88449 0.22614 0.88816 0.0
H2198 H 0.96667 0.19153 0.91911 0.0
H2199 H 0.9168 0.21222 0.85714 0.0
H2200 H 0.99368 0.20989 0.81094 0.0
H2201 H 0.95871 0.22253 0.83932 0.0
H2202 H 0.97731 0.16004 0.88936 0.0
H2203 H 1.01238 0.14822 0.8616 0.0
C2204 C 0.93014 0.20597 0.92932 0.0
C2205 C 0.90675 0.21622 0.92132 0.0
C2206 C 0.94871 0.19848 0.9118 0.0
C2207 C 0.94458 0.20063 0.88541 0.0
C2208 C 0.92088 0.21041 0.87725 0.0
C2209 C 0.90214 0.21803 0.895 0.0
C2210 C 0.99039 0.19912 0.8282 0.0
C2211 C 1.00641 0.17858 0.83448 0.0
C2212 C 0.9701 0.20613 0.84433 0.0
C2213 C 0.96512 0.19258 0.86701 0.0
C2214 C 0.98071 0.17146 0.87256 0.0
C2215 C 1.00085 0.16454 0.85653 0.0
H2216 H 0.52342 0.88356 0.36596 0.0
H2217 H 0.54352 0.829 0.30816 0.0
H2218 H 0.55982 0.86998 0.39168 0.0
H2219 H 0.57954 0.81467 0.33439 0.0
H2220 H 0.61766 0.77849 0.40882 0.0
H2221 H 0.58513 0.79256 0.37877 0.0
H2222 H 0.60958 0.87025 0.38884 0.0
H2223 H 0.64281 0.856 0.41854 0.0
C2224 C 0.53551 0.86846 0.35886 0.0
C2225 C 0.53007 0.85686 0.33534 0.0
C2226 C 0.55649 0.86081 0.37353 0.0
C2227 C 0.57271 0.84126 0.36515 0.0
C2228 C 0.5674 0.82971 0.34151 0.0
C2229 C 0.54662 0.83773 0.32657 0.0
C2230 C 0.61654 0.79855 0.4042 0.0
C2231 C 0.63304 0.81607 0.41606 0.0
C2232 C 0.5978 0.8066 0.38696 0.0
C2233 C 0.59453 0.83256 0.38147 0.0
C2234 C 0.61147 0.85011 0.39276 0.0
C2235 C 0.6307 0.84194 0.40962 0.0
H2236 H 0.14282 0.68015 0.61838 0.0
H2237 H 0.11548 0.75695 0.62741 0.0
H2238 H 0.11041 0.66532 0.64881 0.0
H2239 H 0.08355 0.74241 0.65747 0.0
H2240 H 0.041 0.7113 0.72702 0.0
H2241 H 0.07652 0.72478 0.69998 0.0
H2242 H 0.06329 0.66045 0.65066 0.0
H2243 H 0.02765 0.64726 0.67759 0.0
C2244 C 0.13028 0.69392 0.62716 0.0
C2245 C 0.13185 0.71976 0.62036 0.0
C2246 C 0.11147 0.68542 0.64441 0.0
C2247 C 0.09408 0.70261 0.65564 0.0
C2248 C 0.09649 0.72854 0.64949 0.0
C2249 C 0.11488 0.73689 0.63209 0.0
C2250 C 0.04551 0.70022 0.71024 0.0
C2251 C 0.03093 0.67864 0.70406 0.0
C2252 C 0.06599 0.70786 0.69475 0.0
C2253 C 0.07294 0.69377 0.67295 0.0
C2254 C 0.0588 0.6717 0.66732 0.0
C2255 C 0.03819 0.66423 0.68267 0.0
H2256 H 0.91571 0.64566 0.68176 0.0
H2257 H 0.91092 0.61575 0.758 0.0
H2258 H 0.88522 0.61314 0.66737 0.0
H2259 H 0.88041 0.5839 0.74393 0.0
H2260 H 0.80956 0.54179 0.71283 0.0
H2261 H 0.83639 0.57748 0.72666 0.0
H2262 H 0.88581 0.56515 0.66234 0.0
H2263 H 0.85934 0.52922 0.64896 0.0
C2264 C 0.90783 0.63254 0.69554 0.0
C2265 C 0.91591 0.63334 0.72104 0.0
C2266 C 0.89051 0.61372 0.68728 0.0
C2267 C 0.8804 0.59563 0.70443 0.0
C2268 C 0.88764 0.59736 0.73013 0.0
C2269 C 0.90525 0.6157 0.73821 0.0
C2270 C 0.82635 0.54651 0.70186 0.0
C2271 C 0.83275 0.53211 0.68023 0.0
C2272 C 0.84166 0.56709 0.70968 0.0
C2273 C 0.86336 0.57435 0.69562 0.0
C2274 C 0.8692 0.56038 0.67354 0.0
C2275 C 0.85411 0.53963 0.66596 0.0
H2276 H 0.62163 0.39171 0.18268 0.0
H2277 H 0.62616 0.42292 0.25842 0.0
H2278 H 0.65184 0.42424 0.16779 0.0
H2279 H 0.65637 0.45483 0.24382 0.0
H2280 H 0.72719 0.49673 0.2119 0.0
H2281 H 0.70059 0.46111 0.22632 0.0
H2282 H 0.65075 0.4724 0.16207 0.0
H2283 H 0.67693 0.50835 0.14816 0.0
C2284 C 0.62939 0.40511 0.19627 0.0
C2285 C 0.62128 0.40466 0.22177 0.0
C2286 C 0.64656 0.42395 0.1877 0.0
C2287 C 0.65652 0.44243 0.20454 0.0
C2288 C 0.64929 0.44104 0.23025 0.0
C2289 C 0.63184 0.42267 0.23863 0.0
C2290 C 0.71034 0.49183 0.20109 0.0
C2291 C 0.70374 0.50599 0.17933 0.0
C2292 C 0.69517 0.47126 0.20923 0.0
C2293 C 0.67342 0.46372 0.19538 0.0
C2294 C 0.66739 0.4774 0.17315 0.0
C2295 C 0.68232 0.49817 0.16526 0.0
H2296 H 0.38579 0.88595 0.30843 0.0
H2297 H 0.44593 0.93145 0.34059 0.0
H2298 H 0.35452 0.91802 0.32239 0.0
H2299 H 0.41572 0.96372 0.35284 0.0
H2300 H 0.35749 1.0106 0.39243 0.0
H2301 H 0.3845 0.97487 0.38118 0.0
H2302 H 0.3377 0.96013 0.31518 0.0
H2303 H 0.30971 0.99547 0.32758 0.0
C2304 C 0.39232 0.90252 0.3188 0.0
C2305 C 0.41848 0.90596 0.32343 0.0
C2306 C 0.37445 0.92121 0.32644 0.0
C2307 C 0.38229 0.94378 0.33895 0.0
C2308 C 0.40846 0.94665 0.34388 0.0
C2309 C 0.42603 0.92808 0.33653 0.0
C2310 C 0.35294 0.99976 0.37548 0.0
C2311 C 0.33191 1.00656 0.36046 0.0
C2312 C 0.36861 0.97922 0.36883 0.0
C2313 C 0.3639 0.96454 0.34683 0.0
C2314 C 0.34215 0.97074 0.33226 0.0
C2315 C 0.32625 0.99131 0.33913 0.0
H2316 H 0.1772 0.02574 0.89008 0.0
H2317 H 0.22778 0.04456 0.82844 0.0
H2318 H 0.14919 0.06057 0.87802 0.0
H2319 H 0.19918 0.07934 0.8156 0.0
H2320 H 0.14981 0.15346 0.81219 0.0
H2321 H 0.18104 0.12133 0.82614 0.0
H2322 H 0.11949 0.07067 0.84602 0.0
H2323 H 0.08896 0.1028 0.8334 0.0
C2324 C 0.18221 0.03724 0.87373 0.0
C2325 C 0.20429 0.03177 0.85974 0.0
C2326 C 0.16604 0.05725 0.86667 0.0
C2327 C 0.17151 0.0728 0.84551 0.0
C2328 C 0.19423 0.06795 0.83203 0.0
C2329 C 0.21049 0.04777 0.83915 0.0
C2330 C 0.14309 0.13566 0.82009 0.0
C2331 C 0.11682 0.13076 0.82165 0.0
C2332 C 0.16097 0.11703 0.82774 0.0
C2333 C 0.15298 0.09318 0.83733 0.0
C2334 C 0.12664 0.08875 0.8392 0.0
C2335 C 0.10899 0.1072 0.83165 0.0
H2336 H 0.72547 0.88782 0.65229 0.0
H2337 H 0.70147 0.94884 0.60308 0.0
H2338 H 0.71121 0.85667 0.6202 0.0
H2339 H 0.68853 0.91842 0.57094 0.0
H2340 H 0.64554 0.86019 0.52557 0.0
H2341 H 0.65733 0.88804 0.56069 0.0
H2342 H 0.72116 0.83931 0.578 0.0
H2343 H 0.70859 0.81088 0.54303 0.0
C2344 C 0.71683 0.89458 0.63485 0.0
C2345 C 0.71459 0.92088 0.63034 0.0
C2346 C 0.70901 0.87676 0.61622 0.0
C2347 C 0.69859 0.88483 0.59273 0.0
C2348 C 0.69597 0.91118 0.58874 0.0
C2349 C 0.70368 0.92878 0.60719 0.0
C2350 C 0.66212 0.85542 0.53684 0.0
C2351 C 0.67658 0.83376 0.5309 0.0
C2352 C 0.66903 0.8715 0.55701 0.0
C2353 C 0.69052 0.86635 0.57223 0.0
C2354 C 0.70446 0.84401 0.5669 0.0
C2355 C 0.69748 0.82785 0.5466 0.0
H2356 H 0.88956 0.17693 0.02576 0.0
H2357 H 0.82793 0.22752 0.04452 0.0
H2358 H 0.87775 0.14909 0.06083 0.0
H2359 H 0.81534 0.1991 0.07953 0.0
H2360 H 0.81215 0.15013 0.15386 0.0
H2361 H 0.82601 0.18122 0.12154 0.0
H2362 H 0.84593 0.11937 0.07126 0.0
H2363 H 0.83342 0.08899 0.10359 0.0
C2364 C 0.87326 0.18197 0.03731 0.0
C2365 C 0.85921 0.20401 0.03176 0.0
C2366 C 0.86636 0.16591 0.05745 0.0
C2367 C 0.84526 0.17144 0.07305 0.0
C2368 C 0.83172 0.19411 0.06811 0.0
C2369 C 0.8387 0.21027 0.0478 0.0
C2370 C 0.82006 0.14332 0.1361 0.0
C2371 C 0.82165 0.11701 0.13137 0.0
C2372 C 0.82764 0.16111 0.11737 0.0
C2373 C 0.83721 0.15299 0.09356 0.0
C2374 C 0.83913 0.12662 0.0893 0.0
C2375 C 0.83165 0.10905 0.10786 0.0
H2376 H 0.21015 0.72832 0.49825 0.0
H2377 H 0.14617 0.67848 0.5102 0.0
H2378 H 0.22428 0.70159 0.46271 0.0
H2379 H 0.15987 0.65206 0.47432 0.0
H2380 H 0.18049 0.62195 0.39405 0.0
H2381 H 0.16555 0.65218 0.42651 0.0
H2382 H 0.24182 0.65789 0.45629 0.0
H2383 H 0.25649 0.62772 0.42433 0.0
C2384 C 0.1992 0.71154 0.49342 0.0
C2385 C 0.17747 0.7051 0.50768 0.0
C2386 C 0.2072 0.69626 0.47291 0.0
C2387 C 0.19328 0.67451 0.46551 0.0
C2388 C 0.17102 0.66868 0.47923 0.0
C2389 C 0.16324 0.68375 0.49995 0.0
C2390 C 0.19411 0.63 0.40724 0.0
C2391 C 0.21971 0.6223 0.40652 0.0
C2392 C 0.18552 0.64716 0.42607 0.0
C2393 C 0.20241 0.65747 0.4443 0.0
C2394 C 0.2282 0.65056 0.44269 0.0
C2395 C 0.23662 0.63314 0.4243 0.0
H2396 H 0.38927 0.36168 1.01271 0.0
H2397 H 0.32743 0.31113 0.99428 0.0
H2398 H 0.37736 0.38945 0.97761 0.0
H2399 H 0.31471 0.33951 0.95927 0.0
H2400 H 0.31102 0.38827 0.88483 0.0
H2401 H 0.32491 0.35726 0.91723 0.0
H2402 H 0.34594 0.41926 0.96693 0.0
H2403 H 0.33344 0.44953 0.9345 0.0
C2404 C 0.37289 0.35664 1.00124 0.0
C2405 C 0.35883 0.33461 1.00689 0.0
C2406 C 0.36592 0.37267 0.98107 0.0
C2407 C 0.34474 0.36715 0.96554 0.0
C2408 C 0.33116 0.34451 0.97061 0.0
C2409 C 0.33822 0.32837 0.99093 0.0
C2410 C 0.3192 0.39512 0.90247 0.0
C2411 C 0.32111 0.42145 0.907 0.0
C2412 C 0.3268 0.37738 0.92126 0.0
C2413 C 0.33668 0.38555 0.94495 0.0
C2414 C 0.33891 0.41194 0.949 0.0
C2415 C 0.33144 0.42945 0.93037 0.0
H2416 H 0.54418 0.71034 0.81101 0.0
H2417 H 0.52614 0.6484 0.86158 0.0
H2418 H 0.57926 0.72314 0.83926 0.0
H2419 H 0.56131 0.6604 0.88923 0.0
H2420 H 0.60425 0.70487 0.94914 0.0
H2421 H 0.57181 0.69217 0.91895 0.0
H2422 H 0.62145 0.71273 0.85681 0.0
H2423 H 0.65389 0.72677 0.88772 0.0
C2424 C 0.54763 0.69955 0.82822 0.0
C2425 C 0.53178 0.67887 0.83452 0.0
C2426 C 0.56799 0.70665 0.84428 0.0
C2427 C 0.57318 0.69306 0.86688 0.0
C2428 C 0.55774 0.67183 0.87246 0.0
C2429 C 0.53755 0.66481 0.85651 0.0
C2430 C 0.60837 0.70669 0.92904 0.0
C2431 C 0.63174 0.71692 0.92096 0.0
C2432 C 0.58974 0.69912 0.91159 0.0
C2433 C 0.59379 0.70119 0.88519 0.0
C2434 C 0.61745 0.71097 0.87694 0.0
C2435 C 0.63626 0.71866 0.89462 0.0
H2436 H 0.0231 0.88992 0.17593 0.0
H2437 H 0.0452 0.82991 0.22719 0.0
H2438 H 0.05804 0.87895 0.14759 0.0
H2439 H 0.08008 0.81817 0.19835 0.0
H2440 H 0.15327 0.81596 0.14867 0.0
H2441 H 0.12107 0.82977 0.1798 0.0
H2442 H 0.0697 0.84743 0.11812 0.0
H2443 H 0.10199 0.83496 0.08763 0.0
C2444 C 0.03536 0.87415 0.18101 0.0
C2445 C 0.03079 0.86027 0.2034 0.0
C2446 C 0.05543 0.86773 0.16467 0.0
C2447 C 0.07196 0.84735 0.17028 0.0
C2448 C 0.06796 0.83402 0.19328 0.0
C2449 C 0.04772 0.8405 0.20969 0.0
C2450 C 0.13532 0.82345 0.14189 0.0
C2451 C 0.13026 0.82439 0.11561 0.0
C2452 C 0.11664 0.83097 0.15972 0.0
C2453 C 0.09252 0.83978 0.15169 0.0
C2454 C 0.08796 0.8412 0.12531 0.0
C2455 C 0.1065 0.83377 0.10769 0.0
H2456 H 0.50849 0.14731 0.67902 0.0
H2457 H 0.49706 0.21214 0.72788 0.0
H2458 H 0.47277 0.1609 0.65236 0.0
H2459 H 0.46164 0.22617 0.70089 0.0
H2460 H 0.42311 0.25742 0.62674 0.0
H2461 H 0.45509 0.24305 0.65698 0.0
H2462 H 0.42504 0.16678 0.65247 0.0
H2463 H 0.39248 0.18145 0.62216 0.0
C2464 C 0.49838 0.16456 0.68402 0.0
C2465 C 0.50619 0.17903 0.70518 0.0
C2466 C 0.47775 0.17227 0.66881 0.0
C2467 C 0.46418 0.19471 0.67431 0.0
C2468 C 0.47171 0.20893 0.69582 0.0
C2469 C 0.49215 0.20099 0.71125 0.0
C2470 C 0.42304 0.23761 0.63239 0.0
C2471 C 0.40513 0.22063 0.62186 0.0
C2472 C 0.44145 0.22936 0.64987 0.0
C2473 C 0.44298 0.20366 0.65716 0.0
C2474 C 0.42466 0.18668 0.64715 0.0
C2475 C 0.40579 0.19511 0.62994 0.0
H2476 H 0.88387 0.31332 0.3883 0.0
H2477 H 0.93435 0.33451 0.44934 0.0
H2478 H 0.91592 0.32757 0.35717 0.0
H2479 H 0.96648 0.34728 0.41892 0.0
H2480 H 1.01239 0.39056 0.36155 0.0
H2481 H 0.97736 0.37887 0.38949 0.0
H2482 H 0.95733 0.31737 0.33875 0.0
H2483 H 0.99222 0.32989 0.31025 0.0
C2484 C 0.90163 0.32128 0.39508 0.0
C2485 C 0.90651 0.32271 0.42138 0.0
C2486 C 0.92022 0.32909 0.37726 0.0
C2487 C 0.94404 0.33869 0.38532 0.0
C2488 C 0.94843 0.34048 0.41169 0.0
C2489 C 0.93 0.33281 0.42928 0.0
C2490 C 1.00054 0.3745 0.35638 0.0
C2491 C 1.00569 0.36064 0.33412 0.0
C2492 C 0.98043 0.36764 0.3725 0.0
C2493 C 0.96448 0.34681 0.36681 0.0
C2494 C 0.96901 0.33354 0.34389 0.0
C2495 C 0.98926 0.34047 0.32768 0.0
H2496 H 0.21027 0.09761 0.32145 0.0
H2497 H 0.25911 0.12918 0.37917 0.0
H2498 H 0.18542 0.13658 0.32064 0.0
H2499 H 0.23406 0.16865 0.37863 0.0
H2500 H 0.21221 0.24361 0.3347 0.0
H2501 H 0.23051 0.20319 0.348 0.0
H2502 H 0.15715 0.16722 0.33959 0.0
H2503 H 0.13894 0.20778 0.32561 0.0
C2504 C 0.2151 0.11263 0.33471 0.0
C2505 C 0.23654 0.11016 0.35052 0.0
C2506 C 0.20082 0.13511 0.33425 0.0
C2507 C 0.20776 0.15613 0.34931 0.0
C2508 C 0.22828 0.15305 0.36646 0.0
C2509 C 0.24246 0.13028 0.36711 0.0
C2510 C 0.19987 0.22715 0.33585 0.0
C2511 C 0.1741 0.22904 0.32866 0.0
C2512 C 0.21035 0.20391 0.34382 0.0
C2513 C 0.19547 0.18165 0.3448 0.0
C2514 C 0.16937 0.18379 0.33882 0.0
C2515 C 0.15882 0.20716 0.33098 0.0
H2516 H 0.2791 0.91014 0.88179 0.0
H2517 H 0.32694 0.94128 0.82304 0.0
H2518 H 0.30649 0.87243 0.88401 0.0
H2519 H 0.35493 0.90466 0.82587 0.0
H2520 H 0.37158 0.81512 0.89431 0.0
H2521 H 0.34447 0.85242 0.89448 0.0
H2522 H 0.35812 0.86247 0.81404 0.0
H2523 H 0.38688 0.82609 0.81436 0.0
C2524 C 0.29593 0.90929 0.86995 0.0
C2525 C 0.301 0.92883 0.85241 0.0
C2526 C 0.31168 0.88757 0.87106 0.0
C2527 C 0.33293 0.8849 0.85471 0.0
C2528 C 0.33847 0.90526 0.8382 0.0
C2529 C 0.32262 0.92662 0.83687 0.0
C2530 C 0.36912 0.82539 0.87662 0.0
C2531 C 0.38211 0.81763 0.8544 0.0
C2532 C 0.35312 0.84678 0.87668 0.0
C2533 C 0.34912 0.8611 0.85441 0.0
C2534 C 0.36113 0.8526 0.83187 0.0
C2535 C 0.37739 0.83131 0.83188 0.0
H2536 H 0.75876 0.41024 0.65721 0.0
H2537 H 0.71106 0.44083 0.71632 0.0
H2538 H 0.73134 0.3726 0.65464 0.0
H2539 H 0.68294 0.40431 0.71309 0.0
H2540 H 0.65085 0.32566 0.72377 0.0
H2541 H 0.67944 0.36215 0.72443 0.0
H2542 H 0.6936 0.35257 0.64402 0.0
H2543 H 0.66679 0.31507 0.64388 0.0
C2544 C 0.74194 0.40929 0.66906 0.0
C2545 C 0.73692 0.42864 0.68679 0.0
C2546 C 0.72616 0.38761 0.66773 0.0
C2547 C 0.7049 0.38481 0.68405 0.0
C2548 C 0.69941 0.40501 0.70078 0.0
C2549 C 0.71532 0.42631 0.70234 0.0
C2550 C 0.66041 0.331 0.70633 0.0
C2551 C 0.65594 0.31736 0.68373 0.0
C2552 C 0.67658 0.35237 0.70654 0.0
C2553 C 0.6887 0.36102 0.68411 0.0
C2554 C 0.68487 0.3468 0.66175 0.0
C2555 C 0.66901 0.32531 0.66162 0.0
H2556 H 0.82683 0.59561 0.21625 0.0
H2557 H 0.77758 0.62809 0.15932 0.0
H2558 H 0.85112 0.63497 0.21821 0.0
H2559 H 0.8021 0.66791 0.16106 0.0
H2560 H 0.82449 0.74234 0.20553 0.0
H2561 H 0.80591 0.70201 0.19221 0.0
H2562 H 0.87928 0.6659 0.1994 0.0
H2563 H 0.89778 0.70636 0.21338 0.0
C2564 C 0.82171 0.611 0.20352 0.0
C2565 C 0.80035 0.60864 0.18757 0.0
C2566 C 0.8357 0.63367 0.20461 0.0
C2567 C 0.82857 0.65496 0.19001 0.0
C2568 C 0.80802 0.65211 0.17286 0.0
C2569 C 0.79412 0.62917 0.17158 0.0
C2570 C 0.83677 0.72586 0.20412 0.0
C2571 C 0.86265 0.72768 0.21093 0.0
C2572 C 0.82611 0.70268 0.19614 0.0
C2573 C 0.84093 0.68042 0.19479 0.0
C2574 C 0.86711 0.68248 0.20046 0.0
C2575 C 0.87783 0.70579 0.2083 0.0
H2576 H 0.31363 0.15206 0.21283 0.0
H2577 H 0.39383 0.1664 0.22302 0.0
H2578 H 0.31332 0.18085 0.17644 0.0
H2579 H 0.39397 0.19357 0.18571 0.0
H2580 H 0.38135 0.25925 0.12814 0.0
H2581 H 0.38368 0.23179 0.16583 0.0
H2582 H 0.32484 0.1838 0.13411 0.0
H2583 H 0.32194 0.21184 0.0975 0.0
C2584 C 0.33121 0.16135 0.20744 0.0
C2585 C 0.35379 0.15636 0.22091 0.0
C2586 C 0.33119 0.17763 0.18614 0.0
C2587 C 0.35379 0.18939 0.17742 0.0
C2588 C 0.37613 0.18511 0.19153 0.0
C2589 C 0.37609 0.16908 0.21292 0.0
C2590 C 0.36938 0.2425 0.12909 0.0
C2591 C 0.35163 0.23758 0.1097 0.0
C2592 C 0.37055 0.22671 0.1508 0.0
C2593 C 0.35403 0.20558 0.15362 0.0
C2594 C 0.3373 0.20018 0.13339 0.0
C2595 C 0.33593 0.21605 0.11204 0.0
H2596 H 0.22549 0.88854 0.71152 0.0
H2597 H 0.14516 0.87442 0.72086 0.0
H2598 H 0.22594 0.8601 0.67482 0.0
H2599 H 0.14512 0.84782 0.68327 0.0
H2600 H 0.21751 0.82863 0.59564 0.0
H2601 H 0.21512 0.85666 0.63239 0.0
H2602 H 0.15492 0.80999 0.6635 0.0
H2603 H 0.15673 0.78274 0.62581 0.0
C2604 C 0.20792 0.8794 0.70587 0.0
C2605 C 0.18526 0.88432 0.7192 0.0
C2606 C 0.20802 0.86333 0.68439 0.0
C2607 C 0.18543 0.85176 0.67539 0.0
C2608 C 0.163 0.85606 0.68932 0.0
C2609 C 0.16297 0.87181 0.71088 0.0
C2610 C 0.20337 0.82473 0.61011 0.0
C2611 C 0.18713 0.80362 0.60765 0.0
C2612 C 0.20227 0.84059 0.63152 0.0
C2613 C 0.18522 0.83558 0.65158 0.0
C2614 C 0.16826 0.81484 0.64861 0.0
C2615 C 0.16916 0.79913 0.62689 0.0
H2616 H 0.89401 0.37129 0.81553 0.0
H2617 H 0.81399 0.38643 0.82583 0.0
H2618 H 0.89401 0.34432 0.85294 0.0
H2619 H 0.81349 0.35774 0.86227 0.0
H2620 H 0.88107 0.27887 0.91047 0.0
H2621 H 0.88351 0.30632 0.87282 0.0
H2622 H 0.82493 0.35454 0.90452 0.0
H2623 H 0.82187 0.32644 0.94108 0.0
C2624 C 0.87627 0.36884 0.82568 0.0
C2625 C 0.85408 0.38173 0.81769 0.0
C2626 C 0.87622 0.35291 0.84713 0.0
C2627 C 0.85387 0.34885 0.86125 0.0
C2628 C 0.83137 0.36079 0.85255 0.0
C2629 C 0.83149 0.37701 0.83121 0.0
C2630 C 0.86917 0.29566 0.90952 0.0
C2631 C 0.85145 0.30064 0.92888 0.0
C2632 C 0.87042 0.31145 0.88783 0.0
C2633 C 0.85402 0.33265 0.88504 0.0
C2634 C 0.8373 0.33811 0.90523 0.0
C2635 C 0.83583 0.3222 0.92655 0.0
H2636 H 0.70974 0.68815 0.30411 0.0
H2637 H 0.71063 0.62254 0.35325 0.0
H2638 H 0.69395 0.71435 0.33946 0.0
H2639 H 0.69432 0.64825 0.38826 0.0
H2640 H 0.71455 0.70923 0.44887 0.0
H2641 H 0.71562 0.67947 0.41365 0.0
H2642 H 0.66185 0.72605 0.37251 0.0
H2643 H 0.6609 0.75613 0.4085 0.0
C2644 C 0.70568 0.67914 0.3222 0.0
C2645 C 0.71154 0.65329 0.3259 0.0
C2646 C 0.69662 0.69415 0.34253 0.0
C2647 C 0.6932 0.6836 0.367 0.0
C2648 C 0.6972 0.65726 0.36995 0.0
C2649 C 0.70637 0.64241 0.3498 0.0
C2650 C 0.70221 0.71265 0.43273 0.0
C2651 C 0.68727 0.73476 0.43175 0.0
C2652 C 0.70282 0.69555 0.41237 0.0
C2653 C 0.6889 0.70021 0.38996 0.0
C2654 C 0.67295 0.72184 0.38935 0.0
C2655 C 0.67204 0.73889 0.41012 0.0
H2656 H 0.22268 0.39418 0.16732 0.0
H2657 H 0.21265 0.31393 0.15288 0.0
H2658 H 0.1855 0.39418 0.19455 0.0
H2659 H 0.17646 0.31344 0.18183 0.0
H2660 H 0.09754 0.32191 0.21279 0.0
H2661 H 0.13421 0.3247 0.18491 0.0
H2662 H 0.1656 0.38395 0.23265 0.0
H2663 H 0.1278 0.38176 0.25989 0.0
C2664 C 0.21264 0.37639 0.16999 0.0
C2665 C 0.22062 0.35413 0.15718 0.0
C2666 C 0.19133 0.37634 0.18608 0.0
C2667 C 0.17732 0.35394 0.19037 0.0
C2668 C 0.18607 0.33136 0.17859 0.0
C2669 C 0.20727 0.33148 0.16221 0.0
C2670 C 0.11201 0.33598 0.21696 0.0
C2671 C 0.10951 0.35189 0.2383 0.0
C2672 C 0.13341 0.33728 0.20119 0.0
C2673 C 0.15354 0.35413 0.20655 0.0
C2674 C 0.15063 0.37076 0.22757 0.0
C2675 C 0.12885 0.36967 0.24324 0.0
H2676 H 0.7208 0.14408 0.87356 0.0
H2677 H 0.71124 0.2244 0.88791 0.0
H2678 H 0.68338 0.14413 0.84664 0.0
H2679 H 0.67475 0.22492 0.85926 0.0
H2680 H 0.6267 0.157 0.7806 0.0
H2681 H 0.66388 0.15435 0.80853 0.0
H2682 H 0.63238 0.21395 0.85567 0.0
H2683 H 0.59621 0.21714 0.82702 0.0
C2684 C 0.7108 0.1619 0.87095 0.0
C2685 C 0.71902 0.18417 0.88359 0.0
C2686 C 0.68935 0.16197 0.85504 0.0
C2687 C 0.67542 0.18442 0.85075 0.0
C2688 C 0.68431 0.20698 0.86248 0.0
C2689 C 0.70568 0.20684 0.87867 0.0
C2690 C 0.62753 0.16902 0.79729 0.0
C2691 C 0.60837 0.18707 0.80174 0.0
C2692 C 0.64898 0.16768 0.81336 0.0
C2693 C 0.65175 0.18432 0.83438 0.0
C2694 C 0.63169 0.20135 0.83939 0.0
C2695 C 0.61058 0.20289 0.82318 0.0
H2696 H 0.82466 0.81318 0.38595 0.0
H2697 H 0.81468 0.89339 0.3713 0.0
H2698 H 0.86077 0.81261 0.35691 0.0
H2699 H 0.85179 0.8933 0.34395 0.0
H2700 H 0.90934 0.88074 0.27852 0.0
H2701 H 0.8716 0.88298 0.30584 0.0
H2702 H 0.90302 0.82383 0.35364 0.0
H2703 H 0.93963 0.82098 0.32569 0.0
C2704 C 0.83004 0.83071 0.37656 0.0
C2705 C 0.81672 0.85337 0.38155 0.0
C2706 C 0.85119 0.83054 0.36012 0.0
C2707 C 0.85993 0.85308 0.34823 0.0
C2708 C 0.84596 0.8755 0.3525 0.0
C2709 C 0.82469 0.87559 0.36865 0.0
C2710 C 0.9083 0.86868 0.2952 0.0
C2711 C 0.92765 0.85091 0.30014 0.0
C2712 C 0.88656 0.8698 0.31091 0.0
C2713 C 0.88367 0.85322 0.33198 0.0
C2714 C 0.9038 0.83638 0.33733 0.0
C2715 C 0.92516 0.83504 0.32152 0.0
H2716 H 0.44664 0.71457 0.71045 0.0
H2717 H 0.40775 0.66104 0.75879 0.0
H2718 H 0.41042 0.71585 0.68195 0.0
H2719 H 0.3707 0.66227 0.72996 0.0
H2720 H 0.30147 0.7109 0.69438 0.0
H2721 H 0.33751 0.69465 0.71932 0.0
H2722 H 0.38392 0.69471 0.65157 0.0
H2723 H 0.34818 0.71152 0.62711 0.0
C2724 C 0.43055 0.70234 0.71448 0.0
C2725 C 0.4303 0.68739 0.73662 0.0
C2726 C 0.40964 0.70305 0.69808 0.0
C2727 C 0.38737 0.68921 0.70349 0.0
C2728 C 0.38743 0.67329 0.72518 0.0
C2729 C 0.40877 0.67227 0.74153 0.0
C2730 C 0.31916 0.70659 0.68474 0.0
C2731 C 0.32196 0.71238 0.65876 0.0
C2732 C 0.33988 0.69729 0.69902 0.0
C2733 C 0.36391 0.69364 0.68764 0.0
C2734 C 0.36596 0.69768 0.66119 0.0
C2735 C 0.34538 0.70708 0.64705 0.0
H2736 H 0.77823 0.90972 0.65559 0.0
H2737 H 0.82727 0.94187 0.71287 0.0
H2738 H 0.80557 0.87201 0.65344 0.0
H2739 H 0.85526 0.90518 0.71006 0.0
H2740 H 0.8872 0.82657 0.72224 0.0
H2741 H 0.85871 0.86317 0.72249 0.0
H2742 H 0.84321 0.85178 0.64255 0.0
H2743 H 0.87002 0.81428 0.64284 0.0
C2744 C 0.79532 0.90907 0.6671 0.0
C2745 C 0.80073 0.92887 0.68424 0.0
C2746 C 0.81105 0.88735 0.66602 0.0
C2747 C 0.83264 0.88495 0.68199 0.0
C2748 C 0.83854 0.90559 0.69805 0.0
C2749 C 0.8227 0.92696 0.69936 0.0
C2750 C 0.87737 0.83155 0.70483 0.0
C2751 C 0.88146 0.81742 0.68247 0.0
C2752 C 0.86126 0.85297 0.70479 0.0
C2753 C 0.84879 0.86113 0.68236 0.0
C2754 C 0.85222 0.8464 0.66027 0.0
C2755 C 0.86806 0.8249 0.66039 0.0
H2756 H 0.71194 0.09784 0.21758 0.0
H2757 H 0.76024 0.12944 0.15942 0.0
H2758 H 0.68703 0.13677 0.21855 0.0
H2759 H 0.73507 0.16889 0.16014 0.0
H2760 H 0.71212 0.24417 0.2029 0.0
H2761 H 0.73097 0.20386 0.19006 0.0
H2762 H 0.65833 0.1668 0.1997 0.0
H2763 H 0.63959 0.20723 0.21329 0.0
C2764 C 0.71668 0.11291 0.20433 0.0
C2765 C 0.73795 0.11042 0.18831 0.0
C2766 C 0.70234 0.13535 0.20485 0.0
C2767 C 0.70902 0.15635 0.18964 0.0
C2768 C 0.72947 0.15333 0.17242 0.0
C2769 C 0.74374 0.13058 0.1717 0.0
C2770 C 0.70005 0.22748 0.20214 0.0
C2771 C 0.67432 0.22906 0.20958 0.0
C2772 C 0.71086 0.20429 0.19443 0.0
C2773 C 0.69636 0.18176 0.19394 0.0
C2774 C 0.67028 0.18358 0.20013 0.0
C2775 C 0.65941 0.20688 0.20773 0.0
H2776 H 0.35913 0.72905 0.31948 0.0
H2777 H 0.41463 0.68864 0.36447 0.0
H2778 H 0.32692 0.697 0.33101 0.0
H2779 H 0.38288 0.6564 0.37499 0.0
H2780 H 0.33013 0.59169 0.33126 0.0
H2781 H 0.35967 0.62758 0.33309 0.0
H2782 H 0.30596 0.6697 0.37844 0.0
H2783 H 0.2766 0.63297 0.37751 0.0
C2784 C 0.36428 0.71392 0.33249 0.0
C2785 C 0.38964 0.7114 0.34077 0.0
C2786 C 0.34585 0.69547 0.339 0.0
C2787 C 0.35243 0.67408 0.3538 0.0
C2788 C 0.37722 0.67261 0.36356 0.0
C2789 C 0.39542 0.69113 0.35744 0.0
C2790 C 0.325 0.60822 0.34244 0.0
C2791 C 0.30136 0.60913 0.35489 0.0
C2792 C 0.34182 0.62887 0.3433 0.0
C2793 C 0.3351 0.65154 0.35574 0.0
C2794 C 0.31166 0.65246 0.36871 0.0
C2795 C 0.29504 0.63132 0.3685 0.0
H2796 H 0.15094 0.32572 0.81411 0.0
H2797 H 0.16639 0.31528 0.89413 0.0
H2798 H 0.17958 0.36219 0.81358 0.0
H2799 H 0.19331 0.35273 0.8941 0.0
H2800 H 0.25851 0.4105 0.88117 0.0
H2801 H 0.23117 0.37277 0.8836 0.0
H2802 H 0.18283 0.40441 0.825 0.0
H2803 H 0.21084 0.44104 0.82193 0.0
C2804 C 0.16042 0.33108 0.83161 0.0
C2805 C 0.1558 0.3175 0.85421 0.0
C2806 C 0.17662 0.35244 0.83147 0.0
C2807 C 0.18862 0.36112 0.85396 0.0
C2808 C 0.18467 0.34694 0.87632 0.0
C2809 C 0.16876 0.32547 0.87639 0.0
C2810 C 0.24173 0.40951 0.86925 0.0
C2811 C 0.23669 0.42888 0.85152 0.0
C2812 C 0.22599 0.38778 0.8705 0.0
C2813 C 0.20478 0.38494 0.8541 0.0
C2814 C 0.19927 0.40515 0.83737 0.0
C2815 C 0.21512 0.4265 0.8359 0.0
H2816 H 0.71738 0.82679 0.94063 0.0
H2817 H 0.65759 0.77969 0.91025 0.0
H2818 H 0.71467 0.85468 0.90388 0.0
H2819 H 0.65551 0.80689 0.87241 0.0
H2820 H 0.64555 0.87146 0.81469 0.0
H2821 H 0.64544 0.84463 0.85216 0.0
H2822 H 0.72598 0.85796 0.86167 0.0
H2823 H 0.72558 0.88656 0.82512 0.0
C2824 C 0.70336 0.82261 0.9261 0.0
C2825 C 0.68747 0.80124 0.92858 0.0
C2826 C 0.7021 0.83839 0.90467 0.0
C2827 C 0.68531 0.83301 0.88448 0.0
C2828 C 0.66867 0.81199 0.8874 0.0
C2829 C 0.66971 0.79633 0.9092 0.0
C2830 C 0.66328 0.86901 0.82488 0.0
C2831 C 0.68549 0.88189 0.81692 0.0
C2832 C 0.66326 0.85315 0.84638 0.0
C2833 C 0.68557 0.84912 0.8606 0.0
C2834 C 0.70812 0.861 0.8519 0.0
C2835 C 0.70806 0.87717 0.8305 0.0
H2836 H 0.81413 0.15187 0.32599 0.0
H2837 H 0.89434 0.16647 0.31628 0.0
H2838 H 0.81352 0.18075 0.36227 0.0
H2839 H 0.8942 0.19369 0.35352 0.0
H2840 H 0.88108 0.25955 0.41058 0.0
H2841 H 0.88363 0.23196 0.37304 0.0
H2842 H 0.82479 0.18393 0.40465 0.0
H2843 H 0.82165 0.21213 0.44112 0.0
C2844 C 0.83165 0.16122 0.33146 0.0
C2845 C 0.85432 0.15629 0.31816 0.0
C2846 C 0.83146 0.17756 0.3527 0.0
C2847 C 0.85397 0.18942 0.36152 0.0
C2848 C 0.87641 0.18516 0.34761 0.0
C2849 C 0.87654 0.1691 0.32626 0.0
C2850 C 0.86914 0.24278 0.40963 0.0
C2851 C 0.85133 0.23787 0.42894 0.0
C2852 C 0.87045 0.2269 0.38801 0.0
C2853 C 0.85402 0.20571 0.38523 0.0
C2854 C 0.8372 0.20035 0.40536 0.0
C2855 C 0.83568 0.21632 0.42662 0.0
H2856 H 0.21729 0.71155 0.09646 0.0
H2857 H 0.1572 0.75809 0.12696 0.0
H2858 H 0.21531 0.68397 0.13354 0.0
H2859 H 0.15581 0.73121 0.16502 0.0
H2860 H 0.14604 0.66666 0.22258 0.0
H2861 H 0.14594 0.69353 0.18516 0.0
H2862 H 0.22651 0.68041 0.17581 0.0
H2863 H 0.22609 0.65175 0.21236 0.0
C2864 C 0.20343 0.71572 0.11112 0.0
C2865 C 0.18722 0.73684 0.10858 0.0
C2866 C 0.20255 0.7001 0.13272 0.0
C2867 C 0.18579 0.70535 0.15295 0.0
C2868 C 0.16894 0.72618 0.15 0.0
C2869 C 0.16961 0.74168 0.12808 0.0
C2870 C 0.16378 0.66917 0.21245 0.0
C2871 C 0.18599 0.65632 0.22046 0.0
C2872 C 0.16377 0.68507 0.19098 0.0
C2873 C 0.1861 0.6892 0.17681 0.0
C2874 C 0.20865 0.67734 0.18555 0.0
C2875 C 0.20858 0.66113 0.20694 0.0
H2876 H 0.31296 0.38758 0.71143 0.0
H2877 H 0.39317 0.37332 0.72149 0.0
H2878 H 0.3126 0.35882 0.67502 0.0
H2879 H 0.3933 0.34631 0.68415 0.0
H2880 H 0.38082 0.28019 0.62744 0.0
H2881 H 0.3833 0.30821 0.66458 0.0
H2882 H 0.32367 0.35509 0.63272 0.0
H2883 H 0.32063 0.32635 0.59662 0.0
C2884 C 0.33053 0.37834 0.706 0.0
C2885 C 0.35312 0.38332 0.71946 0.0
C2886 C 0.33048 0.36208 0.68468 0.0
C2887 C 0.35307 0.35035 0.67593 0.0
C2888 C 0.37544 0.3547 0.68998 0.0
C2889 C 0.37542 0.37067 0.7114 0.0
C2890 C 0.36875 0.29684 0.62819 0.0
C2891 C 0.35071 0.30118 0.60895 0.0
C2892 C 0.36999 0.31297 0.64961 0.0
C2893 C 0.35328 0.33394 0.65228 0.0
C2894 C 0.3363 0.33885 0.63213 0.0
C2895 C 0.33485 0.32259 0.61105 0.0
H2896 H 0.91117 0.6573 0.78037 0.0
H2897 H 0.9417 0.7179 0.82624 0.0
H2898 H 0.87414 0.65469 0.80846 0.0
H2899 H 0.9057 0.71476 0.85505 0.0
H2900 H 0.827 0.72506 0.8876 0.0
H2901 H 0.86333 0.72555 0.85879 0.0
H2902 H 0.85484 0.64466 0.84669 0.0
H2903 H 0.81757 0.64463 0.87375 0.0
C2904 C 0.91039 0.66943 0.79698 0.0
C2905 C 0.92952 0.68759 0.80122 0.0
C2906 C 0.88903 0.66812 0.81314 0.0
C2907 C 0.88631 0.68489 0.83406 0.0
C2908 C 0.90635 0.70205 0.83886 0.0
C2909 C 0.92736 0.70356 0.82256 0.0
C2910 C 0.83256 0.70746 0.87844 0.0
C2911 C 0.81929 0.68477 0.88354 0.0
C2912 C 0.85383 0.70759 0.86216 0.0
C2913 C 0.86273 0.685 0.85052 0.0
C2914 C 0.84888 0.66252 0.85501 0.0
C2915 C 0.82751 0.66246 0.871 0.0
H2916 H 0.34684 0.83473 0.12568 0.0
H2917 H 0.3026 0.82559 0.19398 0.0
H2918 H 0.38185 0.85257 0.15053 0.0
H2919 H 0.33794 0.84274 0.21926 0.0
H2920 H 0.40536 0.87817 0.26049 0.0
H2921 H 0.36795 0.8763 0.23227 0.0
H2922 H 0.41164 0.83279 0.17796 0.0
H2923 H 0.44831 0.83479 0.20589 0.0
C2924 C 0.34439 0.8372 0.146 0.0
C2925 C 0.3219 0.82897 0.15784 0.0
C2926 C 0.36458 0.84717 0.16036 0.0
C2927 C 0.36308 0.84882 0.1871 0.0
C2928 C 0.33986 0.84205 0.19876 0.0
C2929 C 0.31953 0.8322 0.18429 0.0
C2930 C 0.4071 0.86917 0.24203 0.0
C2931 C 0.4299 0.85699 0.23518 0.0
C2932 C 0.38557 0.86771 0.226 0.0
C2933 C 0.38652 0.85425 0.20272 0.0
C2934 C 0.40998 0.84365 0.19539 0.0
C2935 C 0.43117 0.84483 0.21143 0.0
H2936 H 0.21204 0.22317 0.65159 0.0
H2937 H 0.22258 0.14326 0.66745 0.0
H2938 H 0.1755 0.22375 0.68007 0.0
H2939 H 0.18505 0.1433 0.69415 0.0
H2940 H 0.12714 0.15614 0.75908 0.0
H2941 H 0.16482 0.15369 0.73177 0.0
H2942 H 0.13337 0.21248 0.68353 0.0
H2943 H 0.0968 0.21559 0.71155 0.0
C2944 C 0.20668 0.20571 0.66111 0.0
C2945 C 0.22032 0.18313 0.65664 0.0
C2946 C 0.18527 0.20587 0.67722 0.0
C2947 C 0.17659 0.18341 0.68929 0.0
C2948 C 0.19082 0.16107 0.68547 0.0
C2949 C 0.21234 0.16099 0.66967 0.0
C2950 C 0.12815 0.16808 0.74232 0.0
C2951 C 0.10885 0.18588 0.73733 0.0
C2952 C 0.14986 0.16683 0.72659 0.0
C2953 C 0.15276 0.18328 0.70542 0.0
C2954 C 0.13261 0.20007 0.69994 0.0
C2955 C 0.11127 0.20156 0.7158 0.0
H2956 H 0.62645 0.38085 0.28025 0.0
H2957 H 0.59668 0.31982 0.32599 0.0
H2958 H 0.66376 0.38344 0.30801 0.0
H2959 H 0.63293 0.32295 0.3545 0.0
H2960 H 0.71167 0.31323 0.38696 0.0
H2961 H 0.67538 0.31249 0.35807 0.0
H2962 H 0.68313 0.3935 0.34625 0.0
H2963 H 0.72038 0.39378 0.37338 0.0
C2964 C 0.62746 0.36862 0.29676 0.0
C2965 C 0.60841 0.35039 0.30111 0.0
C2966 C 0.64898 0.36992 0.31274 0.0
C2967 C 0.65195 0.35306 0.33355 0.0
C2968 C 0.63207 0.33576 0.3384 0.0
C2969 C 0.61089 0.33426 0.32228 0.0
C2970 C 0.70597 0.33079 0.37784 0.0
C2971 C 0.71901 0.35359 0.38306 0.0
C2972 C 0.68471 0.33053 0.36151 0.0
C2973 C 0.67561 0.35308 0.34995 0.0
C2974 C 0.68925 0.37567 0.35451 0.0
C2975 C 0.71061 0.37586 0.37055 0.0
H2976 H 0.05576 0.30093 0.21538 0.0
H2977 H 0.98346 0.32831 0.2421 0.0
H2978 H 0.03649 0.28895 0.17494 0.0
H2979 H 0.96336 0.3147 0.20254 0.0
H2980 H 0.94342 0.32321 0.11787 0.0
H2981 H 0.95891 0.32735 0.16138 0.0
H2982 H 1.01161 0.2655 0.14825 0.0
H2983 H 0.99703 0.26285 0.10424 0.0
C2984 C 0.03545 0.30331 0.21295 0.0
C2985 C 0.02105 0.31521 0.23196 0.0
C2986 C 0.02423 0.29646 0.18965 0.0
C2987 C 0.99816 0.30105 0.18488 0.0
C2988 C 0.98353 0.31142 0.20486 0.0
C2989 C 0.99492 0.31878 0.22786 0.0
C2990 C 0.95801 0.31027 0.12453 0.0
C2991 C 0.96897 0.29271 0.1077 0.0
C2992 C 0.96695 0.3125 0.14962 0.0
C2993 C 0.98685 0.29689 0.15879 0.0
C2994 C 0.99681 0.27839 0.14207 0.0
C2995 C 0.98823 0.27658 0.11684 0.0
H2996 H 0.54323 0.77712 0.60577 0.0
H2997 H 0.59199 0.71227 0.61669 0.0
H2998 H 0.52936 0.77444 0.65002 0.0
H2999 H 0.5771 0.70815 0.66036 0.0
H3000 H 0.55476 0.70664 0.74138 0.0
H3001 H 0.57483 0.71988 0.70177 0.0
H3002 H 0.50347 0.7528 0.6772 0.0
H3003 H 0.4844 0.7412 0.71787 0.0
C3004 C 0.55115 0.7624 0.61784 0.0
C3005 C 0.56888 0.74506 0.6079 0.0
C3006 C 0.54295 0.76058 0.6432 0.0
C3007 C 0.55174 0.7409 0.65923 0.0
C3008 C 0.57007 0.72395 0.6492 0.0
C3009 C 0.57865 0.72616 0.624 0.0
C3010 C 0.54376 0.71762 0.72783 0.0
C3011 C 0.51815 0.72324 0.73284 0.0
C3012 C 0.55507 0.72479 0.70476 0.0
C3013 C 0.54083 0.737 0.68555 0.0
C3014 C 0.51543 0.74372 0.69128 0.0
C3015 C 0.50433 0.7371 0.71471 0.0
H3016 H 0.44362 0.21391 0.92042 0.0
H3017 H 0.49476 0.2767 0.93283 0.0
H3018 H 0.45908 0.20968 0.87692 0.0
H3019 H 0.50926 0.27391 0.88881 0.0
H3020 H 0.48325 0.20844 0.79608 0.0
H3021 H 0.46281 0.22183 0.83551 0.0
H3022 H 0.53496 0.25103 0.86239 0.0
H3023 H 0.55452 0.23917 0.82207 0.0
C3024 C 0.45762 0.22736 0.91348 0.0
C3025 C 0.4679 0.24568 0.92996 0.0
C3026 C 0.46654 0.22507 0.88839 0.0
C3027 C 0.48575 0.24134 0.87888 0.0
C3028 C 0.49501 0.26053 0.89525 0.0
C3029 C 0.48645 0.26243 0.92048 0.0
C3030 C 0.49438 0.21868 0.8101 0.0
C3031 C 0.52032 0.22327 0.80582 0.0
C3032 C 0.48282 0.22592 0.83305 0.0
C3033 C 0.49711 0.23721 0.8528 0.0
C3034 C 0.52295 0.24278 0.84784 0.0
C3035 C 0.53433 0.23603 0.82461 0.0
H3036 H 0.09234 0.82415 0.42125 0.0
H3037 H 0.03942 0.76309 0.43469 0.0
H3038 H 0.07717 0.82791 0.3776 0.0
H3039 H 0.02519 0.76533 0.39052 0.0
H3040 H 0.98143 0.79974 0.32257 0.0
H3041 H 1.00035 0.78819 0.3633 0.0
H3042 H 0.07347 0.81492 0.33653 0.0
H3043 H 0.05368 0.82815 0.29671 0.0
C3044 C 0.07797 0.81098 0.41452 0.0
C3045 C 0.06712 0.7933 0.43129 0.0
C3046 C 0.06923 0.81298 0.38934 0.0
C3047 C 0.04966 0.79701 0.38006 0.0
C3048 C 0.03976 0.77846 0.39677 0.0
C3049 C 0.04814 0.77688 0.42209 0.0
C3050 C 1.00167 0.80242 0.32526 0.0
C3051 C 1.01615 0.81453 0.30641 0.0
C3052 C 1.01268 0.79583 0.34872 0.0
C3053 C 0.03862 0.80085 0.35381 0.0
C3054 C 0.05337 0.81135 0.33398 0.0
C3055 C 0.04218 0.81848 0.31082 0.0
H3056 H 0.24099 0.98372 0.32868 0.0
H3057 H 0.21442 0.05564 0.30002 0.0
H3058 H 0.20144 0.96343 0.31529 0.0
H3059 H 0.17403 0.03622 0.28821 0.0
H3060 H 0.10345 0.99647 0.26246 0.0
H3061 H 0.14748 1.01094 0.26499 0.0
H3062 H 0.1602 0.9594 0.32797 0.0
H3063 H 0.11666 0.94399 0.32397 0.0
C3064 C 0.22681 0.99503 0.31888 0.0
C3065 C 0.23094 0.02111 0.31487 0.0
C3066 C 0.20381 0.98356 0.31166 0.0
C3067 C 0.1839 0.99806 0.30097 0.0
C3068 C 0.18871 0.02406 0.29596 0.0
C3069 C 0.21198 0.03536 0.30269 0.0
C3070 C 0.11596 0.98789 0.27641 0.0
C3071 C 0.10671 0.96899 0.2929 0.0
C3072 C 0.14121 0.99641 0.27815 0.0
C3073 C 0.15781 0.98674 0.29692 0.0
C3074 C 0.14853 0.96719 0.31291 0.0
C3075 C 0.12341 0.9583 0.31076 0.0
H3076 H 0.43419 0.042 0.76361 0.0
H3077 H 0.42089 0.09432 0.8252 0.0
H3078 H 0.39016 0.02747 0.76602 0.0
H3079 H 0.37737 0.07886 0.82909 0.0
H3080 H 0.29661 0.05471 0.82958 0.0
H3081 H 0.3362 0.07493 0.81632 0.0
H3082 H 0.36341 1.00218 0.78901 0.0
H3083 H 0.32294 0.98281 0.80068 0.0
C3084 C 0.42164 0.05054 0.77755 0.0
C3085 C 0.43086 0.06943 0.79408 0.0
C3086 C 0.3964 0.04199 0.77922 0.0
C3087 C 0.37978 0.05161 0.79797 0.0
C3088 C 0.38905 0.07113 0.81403 0.0
C3089 C 0.41415 0.08004 0.81194 0.0
C3090 C 0.31077 0.04338 0.81978 0.0
C3091 C 0.30655 1.01733 0.81568 0.0
C3092 C 0.33379 0.05482 0.81262 0.0
C3093 C 0.35366 0.04031 0.80192 0.0
C3094 C 0.34877 1.01434 0.7968 0.0
C3095 C 0.32546 1.00308 0.80345 0.0
H3096 H 0.71544 0.48233 0.73891 0.0
H3097 H 0.7422 0.55443 0.71085 0.0
H3098 H 0.67509 0.50174 0.7508 0.0
H3099 H 0.70271 0.57468 0.72433 0.0
H3100 H 0.61804 0.59442 0.7156 0.0
H3101 H 0.66154 0.57895 0.71162 0.0
H3102 H 0.64851 0.52687 0.77408 0.0
H3103 H 0.60453 0.54142 0.77659 0.0
C3104 C 0.71305 0.50264 0.73639 0.0
C3105 C 0.73205 0.51694 0.72434 0.0
C3106 C 0.6898 0.51393 0.74316 0.0
C3107 C 0.68506 0.53998 0.73834 0.0
C3108 C 0.70502 0.55452 0.72781 0.0
C3109 C 0.72798 0.54306 0.72053 0.0
C3110 C 0.62472 0.57998 0.72871 0.0
C3111 C 0.60794 0.56917 0.7464 0.0
C3112 C 0.64981 0.57106 0.72657 0.0
C3113 C 0.65899 0.55133 0.74241 0.0
C3114 C 0.64232 0.54154 0.76103 0.0
C3115 C 0.6171 0.5501 0.76276 0.0
H3116 H 0.92089 0.445 0.21135 0.0
H3117 H 0.93096 0.4933 0.27673 0.0
H3118 H 0.8772 0.45971 0.20694 0.0
H3119 H 0.88669 0.50696 0.27375 0.0
H3120 H 0.81933 0.55214 0.2399 0.0
H3121 H 0.85988 0.53304 0.25177 0.0
H3122 H 0.83565 0.46172 0.21841 0.0
H3123 H 0.79607 0.48178 0.20502 0.0
C3124 C 0.91339 0.4582 0.22529 0.0
C3125 C 0.92924 0.46792 0.24442 0.0
C3126 C 0.88818 0.46666 0.22291 0.0
C3127 C 0.87792 0.48481 0.23992 0.0
C3128 C 0.8937 0.49352 0.25984 0.0
C3129 C 0.91907 0.48544 0.26183 0.0
C3130 C 0.8225 0.53218 0.23583 0.0
C3131 C 0.80447 0.51834 0.22185 0.0
C3132 C 0.84587 0.52109 0.24258 0.0
C3133 C 0.85166 0.49569 0.23582 0.0
C3134 C 0.83258 0.48146 0.22338 0.0
C3135 C 0.80955 0.49277 0.21611 0.0
H3136 H 0.32821 0.24242 0.98386 0.0
H3137 H 0.29925 0.21626 0.05581 0.0
H3138 H 0.31477 0.20283 0.96372 0.0
H3139 H 0.28741 0.17577 0.03653 0.0
H3140 H 0.26182 0.10492 0.99694 0.0
H3141 H 0.26439 0.14899 1.01134 0.0
H3142 H 0.32728 0.16162 0.95977 0.0
H3143 H 0.32324 0.11805 0.94443 0.0
C3144 C 0.31837 0.2283 0.99522 0.0
C3145 C 0.3143 0.23257 0.02126 0.0
C3146 C 0.3111 0.20527 0.98383 0.0
C3147 C 0.30034 0.18543 0.99837 0.0
C3148 C 0.29525 0.19038 0.02433 0.0
C3149 C 0.30199 0.21371 0.03555 0.0
C3150 C 0.27576 0.11743 0.98833 0.0
C3151 C 0.29221 0.10813 0.96944 0.0
C3152 C 0.27753 0.1427 0.99682 0.0
C3153 C 0.29628 0.15929 0.98713 0.0
C3154 C 0.31223 0.14997 0.96758 0.0
C3155 C 0.31005 0.12483 0.95872 0.0
H3156 H 0.82855 0.29655 0.05453 0.0
H3157 H 0.79883 0.32164 0.98248 0.0
H3158 H 0.81489 0.33621 0.07432 0.0
H3159 H 0.7868 0.36222 1.00138 0.0
H3160 H 0.76092 0.43325 0.04041 0.0
H3161 H 0.76377 0.38907 0.02639 0.0
H3162 H 0.82713 0.37753 0.07772 0.0
H3163 H 0.82279 0.42117 0.09271 0.0
C3164 C 0.81851 0.31045 0.04308 0.0
C3165 C 0.81429 0.30587 1.01711 0.0
C3166 C 0.81111 0.33352 0.05426 0.0
C3167 C 0.80008 0.35309 0.03956 0.0
C3168 C 0.79485 0.34782 1.01369 0.0
C3169 C 0.8017 0.32444 1.00269 0.0
C3170 C 0.77503 0.42095 0.04903 0.0
C3171 C 0.79152 0.43055 0.06777 0.0
C3172 C 0.77695 0.39563 0.04077 0.0
C3173 C 0.7959 0.37931 0.05054 0.0
C3174 C 0.81192 0.38896 0.06989 0.0
C3175 C 0.80958 0.41414 0.07853 0.0
H3176 H 0.70379 0.741 0.55532 0.0
H3177 H 0.7413 0.718 0.48632 0.0
H3178 H 0.71707 0.70172 0.57604 0.0
H3179 H 0.753 0.67762 0.50599 0.0
H3180 H 0.7771 0.6068 0.54707 0.0
H3181 H 0.77426 0.65102 0.53301 0.0
H3182 H 0.70569 0.66009 0.57762 0.0
H3183 H 0.70988 0.6165 0.59274 0.0
C3184 C 0.71542 0.72764 0.54478 0.0
C3185 C 0.72184 0.73266 0.51936 0.0
C3186 C 0.72262 0.70477 0.55646 0.0
C3187 C 0.73569 0.68578 0.54273 0.0
C3188 C 0.74323 0.69156 0.51755 0.0
C3189 C 0.73655 0.71481 0.50611 0.0
C3190 C 0.76184 0.61861 0.55429 0.0
C3191 C 0.74388 0.60838 0.57121 0.0
C3192 C 0.75994 0.64393 0.54597 0.0
C3193 C 0.7396 0.65957 0.55384 0.0
C3194 C 0.722 0.64924 0.57136 0.0
C3195 C 0.72425 0.62408 0.58006 0.0
H3196 H 0.23959 0.82104 0.55217 0.0
H3197 H 0.20469 0.79717 0.48203 0.0
H3198 H 0.25113 0.86159 0.53281 0.0
H3199 H 0.21775 0.83677 0.46171 0.0
H3200 H 0.20973 0.92195 0.4447 0.0
H3201 H 0.20583 0.87824 0.45962 0.0
H3202 H 0.27277 0.88853 0.50649 0.0
H3203 H 0.27527 0.93281 0.49259 0.0
C3204 C 0.23547 0.82407 0.5322 0.0
C3205 C 0.22156 0.80586 0.51851 0.0
C3206 C 0.24202 0.84744 0.52096 0.0
C3207 C 0.23513 0.85307 0.49555 0.0
C3208 C 0.22281 0.83382 0.48145 0.0
C3209 C 0.21574 0.81078 0.49291 0.0
C3210 C 0.22381 0.91461 0.45785 0.0
C3211 C 0.24285 0.93069 0.46738 0.0
C3212 C 0.22172 0.88939 0.46644 0.0
C3213 C 0.23892 0.87936 0.48454 0.0
C3214 C 0.25874 0.89537 0.49308 0.0
C3215 C 0.26045 0.92074 0.48486 0.0
H3216 H 0.98312 0.73995 0.82066 0.0
H3217 H 0.05445 0.70855 0.79584 0.0
H3218 H 1.00221 0.75164 0.86128 0.0
H3219 H 0.07447 0.72185 0.83554 0.0
H3220 H 0.09245 0.71359 0.92059 0.0
H3221 H 0.0775 0.70958 0.87689 0.0
H3222 H 0.02764 0.77409 0.88829 0.0
H3223 H 0.04161 0.77663 0.93253 0.0
C3224 C 1.00325 0.73664 0.82352 0.0
C3225 C 1.01739 0.72369 0.805 0.0
C3226 C 1.01435 0.7433 0.84693 0.0
C3227 C 0.04006 0.73748 0.8523 0.0
C3228 C 0.05453 0.72609 0.83277 0.0
C3229 C 0.04323 0.71891 0.80967 0.0
C3230 C 0.07862 0.72712 0.91351 0.0
C3231 C 0.06827 0.74545 0.9299 0.0
C3232 C 0.07 0.72497 0.8883 0.0
C3233 C 0.05106 0.74142 0.87857 0.0
C3234 C 0.04171 0.76059 0.89488 0.0
C3235 C 0.04995 0.76234 0.92024 0.0
H3236 H 0.55437 0.30065 0.32352 0.0
H3237 H 0.48259 0.32904 0.29638 0.0
H3238 H 0.53478 0.28898 0.36387 0.0
H3239 H 0.46215 0.31584 0.33592 0.0
H3240 H 0.4426 0.32508 0.42073 0.0
H3241 H 0.4581 0.32884 0.37718 0.0
H3242 H 0.5093 0.26572 0.39031 0.0
H3243 H 0.4947 0.26341 0.43433 0.0
C3244 C 0.53409 0.30331 0.32584 0.0
C3245 C 0.51992 0.31535 0.30671 0.0
C3246 C 0.52269 0.29665 0.34908 0.0
C3247 C 0.49669 0.30164 0.35372 0.0
C3248 C 0.48228 0.31221 0.33366 0.0
C3249 C 0.49384 0.31933 0.31068 0.0
C3250 C 0.45683 0.31178 0.41405 0.0
C3251 C 0.46737 0.29392 0.43085 0.0
C3252 C 0.46577 0.31379 0.38894 0.0
C3253 C 0.48527 0.2977 0.37978 0.0
C3254 C 0.4948 0.27895 0.39648 0.0
C3255 C 0.4862 0.27732 0.42172 0.0
H3256 H 0.57382 0.76478 0.11368 0.0
H3257 H 0.56578 0.84595 0.10474 0.0
H3258 H 0.55935 0.76837 0.15821 0.0
H3259 H 0.55161 0.84959 0.14865 0.0
H3260 H 0.49738 0.79217 0.2235 0.0
H3261 H 0.5179 0.78117 0.18275 0.0
H3262 H 0.56946 0.84443 0.19199 0.0
H3263 H 0.54902 0.85539 0.232 0.0
C3264 C 0.56931 0.78338 0.12134 0.0
C3265 C 0.571 0.80511 0.10575 0.0
C3266 C 0.56082 0.7854 0.14671 0.0
C3267 C 0.55441 0.80928 0.15709 0.0
C3268 C 0.55667 0.83093 0.14149 0.0
C3269 C 0.56471 0.82886 0.11624 0.0
C3270 C 0.51363 0.80313 0.21713 0.0
C3271 C 0.5215 0.82473 0.23084 0.0
C3272 C 0.52533 0.79693 0.19377 0.0
C3273 C 0.54502 0.81226 0.18383 0.0
C3274 C 0.55404 0.83254 0.19874 0.0
C3275 C 0.54241 0.83872 0.22179 0.0
H3276 H 0.94362 0.2148 0.61776 0.0
H3277 H 0.99606 0.27644 0.60506 0.0
H3278 H 0.95896 0.21051 0.66129 0.0
H3279 H 1.01046 0.27363 0.64913 0.0
H3280 H 0.98291 0.20919 0.74214 0.0
H3281 H 0.96286 0.22271 0.70255 0.0
H3282 H 0.03558 0.25067 0.67595 0.0
H3283 H 0.05477 0.23875 0.71646 0.0
C3284 C 0.9579 0.22799 0.62463 0.0
C3285 C 0.96858 0.24597 0.60806 0.0
C3286 C 0.96676 0.22567 0.64975 0.0
C3287 C 0.98627 0.24161 0.65921 0.0
C3288 C 0.99595 0.26049 0.64274 0.0
C3289 C 0.98746 0.2624 0.61747 0.0
C3290 C 0.99427 0.21916 0.72812 0.0
C3291 C 0.02026 0.22338 0.73254 0.0
C3292 C 0.98293 0.22648 0.70509 0.0
C3293 C 0.99748 0.23745 0.68537 0.0
C3294 C 0.02338 0.24268 0.69046 0.0
C3295 C 0.03454 0.2359 0.71381 0.0
H3296 H 0.80769 0.04777 0.69036 0.0
H3297 H 0.81144 0.9927 0.75106 0.0
H3298 H 0.8474 0.06649 0.70433 0.0
H3299 H 0.85152 1.01195 0.76575 0.0
H3300 H 0.93875 0.0271 0.75444 0.0
H3301 H 0.89479 1.01304 0.75114 0.0
H3302 H 0.87164 0.09 0.73398 0.0
H3303 H 0.91591 0.10382 0.73606 0.0
C3304 C 0.81673 0.04009 0.70724 0.0
C3305 C 0.80639 1.01869 0.71957 0.0
C3306 C 0.83958 0.05097 0.71539 0.0
C3307 C 0.85303 0.04078 0.73616 0.0
C3308 C 0.84194 0.02018 0.74947 0.0
C3309 C 0.81878 1.00931 0.74132 0.0
C3310 C 0.92431 0.0411 0.75 0.0
C3311 C 0.93114 0.06657 0.74499 0.0
C3312 C 0.89891 0.03305 0.74847 0.0
C3313 C 0.87943 0.05022 0.74197 0.0
C3314 C 0.88607 0.07603 0.73854 0.0
C3315 C 0.91153 0.08408 0.74002 0.0
H3316 H 0.71851 0.05531 0.2425 0.0
H3317 H 0.74063 0.98416 0.20857 0.0
H3318 H 0.67833 0.03649 0.256 0.0
H3319 H 0.70141 0.96443 0.22352 0.0
H3320 H 0.61574 0.94801 0.21955 0.0
H3321 H 0.65935 0.96238 0.21338 0.0
H3322 H 0.65272 1.01064 0.27977 0.0
H3323 H 0.60854 0.99729 0.28461 0.0
C3324 C 0.71519 0.03527 0.23897 0.0
C3325 C 0.73277 0.0211 0.22482 0.0
C3326 C 0.69204 0.02434 0.24666 0.0
C3327 C 0.68606 0.99878 0.24068 0.0
C3328 C 0.70468 0.98427 0.22795 0.0
C3329 C 0.72749 0.99541 0.21977 0.0
C3330 C 0.62385 0.96134 0.23304 0.0
C3331 C 0.60877 0.9715 0.25255 0.0
C3332 C 0.64901 0.96962 0.22962 0.0
C3333 C 0.65998 0.988 0.24594 0.0
C3334 C 0.64508 0.99705 0.26633 0.0
C3335 C 0.61977 0.98915 0.26937 0.0
H3336 H 0.43332 0.49467 0.26469 0.0
H3337 H 0.42178 0.44553 0.32919 0.0
H3338 H 0.38938 0.50938 0.26768 0.0
H3339 H 0.37841 0.4612 0.33357 0.0
H3340 H 0.32246 0.55528 0.30137 0.0
H3341 H 0.36291 0.53567 0.2899 0.0
H3342 H 0.33696 0.46428 0.32174 0.0
H3343 H 0.2975 0.4848 0.33474 0.0
C3344 C 0.42117 0.48683 0.27938 0.0
C3345 C 0.43084 0.46874 0.29653 0.0
C3346 C 0.39599 0.49552 0.28138 0.0
C3347 C 0.37989 0.48685 0.30105 0.0
C3348 C 0.38964 0.46816 0.3178 0.0
C3349 C 0.41466 0.45912 0.31542 0.0
C3350 C 0.32527 0.53523 0.30525 0.0
C3351 C 0.30676 0.52148 0.31864 0.0
C3352 C 0.34856 0.52383 0.29871 0.0
C3353 C 0.35381 0.49821 0.3051 0.0
C3354 C 0.33431 0.48414 0.31704 0.0
C3355 C 0.31134 0.49574 0.32408 0.0
H3356 H 0.2414 0.55483 0.82814 0.0
H3357 H 0.21463 0.4828 0.79988 0.0
H3358 H 0.2018 0.57505 0.81493 0.0
H3359 H 0.17416 0.50218 0.78826 0.0
H3360 H 0.11722 0.59479 0.82397 0.0
H3361 H 0.16071 0.57925 0.82779 0.0
H3362 H 0.14734 0.52734 0.76524 0.0
H3363 H 0.10335 0.54198 0.7629 0.0
C3364 C 0.22715 0.54347 0.81848 0.0
C3365 C 0.23126 0.51738 0.81454 0.0
C3366 C 0.20412 0.55491 0.81136 0.0
C3367 C 0.18412 0.54038 0.80085 0.0
C3368 C 0.18889 0.51436 0.79589 0.0
C3369 C 0.21221 0.50309 0.80251 0.0
C3370 C 0.12382 0.58038 0.8108 0.0
C3371 C 0.10696 0.56967 0.7931 0.0
C3372 C 0.14891 0.57141 0.81285 0.0
C3373 C 0.15801 0.55172 0.79693 0.0
C3374 C 0.14123 0.54199 0.77834 0.0
C3375 C 0.11601 0.55061 0.7767 0.0
H3376 H 0.71028 0.7962 0.0551 0.0
H3377 H 0.73892 0.82279 0.98319 0.0
H3378 H 0.72341 0.83585 0.07533 0.0
H3379 H 0.75045 0.86332 1.00256 0.0
H3380 H 0.77557 0.9343 0.0423 0.0
H3381 H 0.77326 0.89027 0.02772 0.0
H3382 H 0.7107 0.87696 0.07952 0.0
H3383 H 0.71449 0.92049 0.09504 0.0
C3384 C 0.72001 0.81042 0.04377 0.0
C3385 C 0.72409 0.80623 1.01771 0.0
C3386 C 0.72708 0.83349 0.05521 0.0
C3387 C 0.73767 0.85346 0.04071 0.0
C3388 C 0.74276 0.84861 1.01473 0.0
C3389 C 0.73621 0.82525 1.00346 0.0
C3390 C 0.76176 0.92165 0.05092 0.0
C3391 C 0.74534 0.93075 0.06994 0.0
C3392 C 0.76013 0.8964 0.04233 0.0
C3393 C 0.74156 0.87962 0.05203 0.0
C3394 C 0.72563 0.88875 0.07169 0.0
C3395 C 0.72767 0.91387 0.08065 0.0
H3396 H 0.27638 0.60638 0.9939 0.0
H3397 H 0.21222 0.61738 0.94419 0.0
H3398 H 0.27349 0.65058 1.00789 0.0
H3399 H 0.20787 0.661 0.95921 0.0
H3400 H 0.20601 0.74193 0.98216 0.0
H3401 H 0.21957 0.70247 0.96195 0.0
H3402 H 0.25117 0.67726 0.03374 0.0
H3403 H 0.23919 0.7177 0.05301 0.0
C3404 C 0.26177 0.61846 0.98581 0.0
C3405 C 0.24466 0.60856 0.9678 0.0
C3406 C 0.25982 0.64379 0.99407 0.0
C3407 C 0.24024 0.6598 0.98506 0.0
C3408 C 0.22357 0.64983 0.96642 0.0
C3409 C 0.22592 0.62466 0.95777 0.0
C3410 C 0.21676 0.72826 0.99324 0.0
C3411 C 0.22197 0.73302 1.019 0.0
C3412 C 0.22412 0.7053 0.98183 0.0
C3413 C 0.23611 0.68599 0.99613 0.0
C3414 C 0.24234 0.69146 0.02173 0.0
C3415 C 0.23553 0.71476 0.03294 0.0
H3416 H 0.29762 0.3208 0.55521 0.0
H3417 H 0.32976 0.29625 0.48407 0.0
H3418 H 0.28564 0.36128 0.53598 0.0
H3419 H 0.31626 0.33581 0.46394 0.0
H3420 H 0.32346 0.42103 0.44589 0.0
H3421 H 0.32796 0.37738 0.46091 0.0
H3422 H 0.26295 0.38789 0.51026 0.0
H3423 H 0.25987 0.43205 0.49621 0.0
C3424 C 0.30105 0.32368 0.53509 0.0
C3425 C 0.31425 0.30525 0.52105 0.0
C3426 C 0.29423 0.34701 0.52391 0.0
C3427 C 0.30017 0.35243 0.49822 0.0
C3428 C 0.31189 0.33302 0.48386 0.0
C3429 C 0.31919 0.30998 0.49523 0.0
C3430 C 0.30991 0.41376 0.45959 0.0
C3431 C 0.29127 0.42989 0.46978 0.0
C3432 C 0.31235 0.38857 0.46827 0.0
C3433 C 0.29593 0.37863 0.48712 0.0
C3434 C 0.27645 0.39466 0.49628 0.0
C3435 C 0.27438 0.41997 0.48797 0.0
H3436 H 0.7984 0.21708 0.48281 0.0
H3437 H 0.82909 0.2418 0.5546 0.0
H3438 H 0.78618 0.17657 0.50179 0.0
H3439 H 0.81528 0.20221 0.57447 0.0
H3440 H 0.82264 0.11708 0.5925 0.0
H3441 H 0.82719 0.16076 0.57763 0.0
H3442 H 0.76307 0.14995 0.52707 0.0
H3443 H 0.75997 0.10575 0.54096 0.0
C3444 C 0.80146 0.21422 0.50299 0.0
C3445 C 0.81437 0.23266 0.51732 0.0
C3446 C 0.79449 0.19088 0.51403 0.0
C3447 C 0.79994 0.18553 0.53984 0.0
C3448 C 0.81132 0.20498 0.55446 0.0
C3449 C 0.81882 0.228 0.54323 0.0
C3450 C 0.8093 0.12429 0.57853 0.0
C3451 C 0.79095 0.10807 0.56793 0.0
C3452 C 0.81177 0.14948 0.56996 0.0
C3453 C 0.79561 0.15934 0.55083 0.0
C3454 C 0.77637 0.14323 0.54127 0.0
C3455 C 0.77431 0.11789 0.54946 0.0
loop_
_geom_bond_atom_site_label_1
_geom_bond_atom_site_label_2
_geom_bond_distance
_geom_bond_site_symmetry_2
_ccdc_geom_bond_type
Eu0 N31 2.657 . S
Eu0 N38 2.609 . S
Eu0 O44 2.558 1_455 S
Eu0 O45 2.612 . S
Eu0 O47 2.339 1_455 S
Eu0 O48 2.563 1_455 S
Eu0 O49 2.419 1_455 S
Eu0 O51 2.380 . S
Eu0 O52 2.432 . S
Eu0 C64 2.848 1_455 S
C1 C4 1.429 . S
C1 C5 1.411 1_455 S
C1 N8 1.377 . S
C2 C4 1.420 . S
C2 C6 1.423 1_455 S
C2 C14 1.392 . S
C3 C5 1.420 . S
C3 C6 1.351 . S
C3 H26 0.931 . S
C4 C1 1.429 . S
C4 C2 1.420 . S
C4 N12 1.362 . S
C5 C1 1.411 1_655 S
C5 C3 1.420 . S
C5 C10 1.395 . S
C6 C2 1.423 1_655 S
C6 C3 1.351 . S
C6 H18 0.930 . S
C7 C9 1.400 1_655 S
C7 C10 1.386 . S
C7 H19 0.930 . S
N8 C1 1.377 . S
N8 C9 1.321 . S
N8 Eu11 2.609 . S
C9 C7 1.400 1_455 S
C9 N8 1.321 . S
C9 H16 0.930 . S
C10 C5 1.395 . S
C10 C7 1.386 . S
C10 H29 0.930 . S
Eu11 N8 2.609 . S
Eu11 N12 2.657 . S
Eu11 O45 2.380 . S
Eu11 O46 2.432 . S
Eu11 O50 2.558 . S
Eu11 O51 2.612 . S
Eu11 O53 2.339 . S
Eu11 O54 2.563 . S
Eu11 O55 2.419 . S
Eu11 C75 2.848 . S
N12 C4 1.362 . S
N12 Eu11 2.657 . S
N12 C13 1.334 . S
C13 N12 1.334 . S
C13 C15 1.413 . S
C13 H20 0.929 . S
C14 C2 1.392 . S
C14 C15 1.367 . S
C14 H22 0.930 . S
C15 C13 1.413 . S
C15 C14 1.367 . S
C15 H17 0.930 . S
H16 C9 0.930 . S
H17 C15 0.930 . S
H18 C6 0.930 . S
H19 C7 0.930 . S
H20 C13 0.929 . S
H21 C35 0.930 . S
H22 C14 0.930 . S
H23 C41 0.930 . S
H24 C32 0.929 . S
H25 C39 0.930 . S
H26 C3 0.931 . S
H27 C33 0.930 . S
H28 C66 0.930 . S
H29 C10 0.930 . S
H30 C65 0.931 . S
N31 Eu0 2.657 . S
N31 C32 1.334 . S
N31 C36 1.362 . S
C32 H24 0.929 . S
C32 N31 1.334 . S
C32 C35 1.413 . S
C33 H27 0.930 . S
C33 C34 1.392 . S
C33 C35 1.367 . S
C34 C33 1.392 . S
C34 C36 1.420 . S
C34 C66 1.423 . S
C35 H21 0.930 . S
C35 C32 1.413 . S
C35 C33 1.367 . S
C36 N31 1.362 . S
C36 C34 1.420 . S
C36 C40 1.429 . S
H37 C42 0.930 . S
N38 Eu0 2.609 . S
N38 C40 1.377 . S
N38 C41 1.321 . S
C39 H25 0.930 . S
C39 C41 1.400 . S
C39 C42 1.386 . S
C40 C36 1.429 . S
C40 N38 1.377 . S
C40 C43 1.411 . S
C41 H23 0.930 . S
C41 N38 1.321 . S
C41 C39 1.400 . S
C42 H37 0.930 . S
C42 C39 1.386 . S
C42 C43 1.395 . S
C43 C40 1.411 . S
C43 C42 1.395 . S
C43 C65 1.420 . S
O44 Eu0 2.558 1_655 S
O44 C64 1.257 . S
O45 Eu0 2.612 . S
O45 Eu11 2.380 . S
O45 C56 1.276 1_455 S
O46 Eu11 2.432 . S
O46 C63 1.264 1_455 S
O47 Eu0 2.339 1_655 S
O47 C63 1.254 . S
O48 Eu0 2.563 1_655 S
O48 C56 1.235 . S
O49 Eu0 2.419 1_655 S
O49 C64 1.249 . S
O50 Eu11 2.558 . S
O50 C75 1.257 . S
O51 Eu0 2.380 . S
O51 Eu11 2.612 . S
O51 C67 1.276 . S
O52 Eu0 2.432 . S
O52 C74 1.264 . S
O53 Eu11 2.339 . S
O53 C74 1.254 . S
O54 Eu11 2.563 . S
O54 C67 1.235 . S
O55 Eu11 2.419 . S
O55 C75 1.249 . S
C56 O45 1.276 1_655 S
C56 O48 1.235 . S
C57 C59 1.393 . S
C57 C61 1.395 . S
C57 C64 1.492 . S
C58 C59 1.392 . S
C58 C60 1.386 . S
C59 C57 1.393 . S
C59 C58 1.392 . S
C59 H76 0.930 . S
C60 C58 1.386 . S
C60 C62 1.395 . S
C60 H77 0.930 . S
C61 C57 1.395 . S
C61 C62 1.379 . S
C61 H78 0.930 . S
C62 C60 1.395 . S
C62 C61 1.379 . S
C62 H79 0.930 . S
C63 O46 1.264 1_655 S
C63 O47 1.254 . S
C64 Eu0 2.848 1_655 S
C64 O44 1.257 . S
C64 O49 1.249 . S
C64 C57 1.492 . S
C65 H30 0.931 . S
C65 C43 1.420 . S
C65 C66 1.351 . S
C66 H28 0.930 . S
C66 C34 1.423 . S
C66 C65 1.351 . S
C67 O51 1.276 . S
C67 O54 1.235 . S
C68 C69 1.393 . S
C68 C72 1.395 . S
C68 C75 1.492 . S
C69 C68 1.393 . S
C69 C70 1.392 . S
C69 H80 0.930 . S
C70 C69 1.392 . S
C70 C71 1.386 . S
C71 C70 1.386 . S
C71 C73 1.395 . S
C71 H81 0.930 . S
C72 C68 1.395 . S
C72 C73 1.379 . S
C72 H82 0.930 . S
C73 C71 1.395 . S
C73 C72 1.379 . S
C73 H83 0.930 . S
C74 O52 1.264 . S
C74 O53 1.254 . S
C75 Eu11 2.848 . S
C75 O50 1.257 . S
C75 O55 1.249 . S
C75 C68 1.492 . S
H76 C59 0.930 . S
H77 C60 0.930 . S
H78 C61 0.930 . S
H79 C62 0.930 . S
H80 C69 0.930 . S
H81 C71 0.930 . S
H82 C72 0.930 . S
H83 C73 0.930 . S
Eu84 N115 2.657 . S
Eu84 N122 2.609 . S
Eu84 O128 2.558 . S
Eu84 O129 2.612 . S
Eu84 O131 2.339 . S
Eu84 O132 2.563 . S
Eu84 O133 2.419 . S
Eu84 O135 2.380 . S
Eu84 O136 2.432 . S
Eu84 C148 2.848 . S
C85 C88 1.429 . S
C85 C89 1.411 . S
C85 N92 1.377 . S
C86 C88 1.420 . S
C86 C90 1.423 . S
C86 C98 1.392 . S
C87 C89 1.420 . S
C87 C90 1.351 . S
C87 H110 0.931 . S
C88 C85 1.429 . S
C88 C86 1.420 . S
C88 N96 1.362 . S
C89 C85 1.411 . S
C89 C87 1.420 . S
C89 C94 1.395 . S
C90 C86 1.423 . S
C90 C87 1.351 . S
C90 H102 0.930 . S
C91 C93 1.400 . S
C91 C94 1.386 . S
C91 H103 0.930 . S
N92 C85 1.377 . S
N92 C93 1.321 . S
N92 Eu95 2.609 . S
C93 C91 1.400 . S
C93 N92 1.321 . S
C93 H100 0.930 . S
C94 C89 1.395 . S
C94 C91 1.386 . S
C94 H113 0.930 . S
Eu95 N92 2.609 . S
Eu95 N96 2.657 . S
Eu95 O129 2.380 . S
Eu95 O130 2.432 . S
Eu95 O134 2.558 . S
Eu95 O135 2.612 . S
Eu95 O137 2.339 . S
Eu95 O138 2.563 . S
Eu95 O139 2.419 . S
Eu95 C159 2.848 . S
N96 C88 1.362 . S
N96 Eu95 2.657 . S
N96 C97 1.334 . S
C97 N96 1.334 . S
C97 C99 1.413 . S
C97 H104 0.929 . S
C98 C86 1.392 . S
C98 C99 1.367 . S
C98 H106 0.930 . S
C99 C97 1.413 . S
C99 C98 1.367 . S
C99 H101 0.930 . S
H100 C93 0.930 . S
H101 C99 0.930 . S
H102 C90 0.930 . S
H103 C91 0.930 . S
H104 C97 0.929 . S
H105 C119 0.930 . S
H106 C98 0.930 . S
H107 C125 0.930 . S
H108 C116 0.929 . S
H109 C123 0.930 . S
H110 C87 0.931 . S
H111 C117 0.930 . S
H112 C150 0.930 . S
H113 C94 0.930 . S
H114 C149 0.931 . S
N115 Eu84 2.657 . S
N115 C116 1.334 . S
N115 C120 1.362 . S
C116 H108 0.929 . S
C116 N115 1.334 . S
C116 C119 1.413 . S
C117 H111 0.930 . S
C117 C118 1.392 . S
C117 C119 1.367 . S
C118 C117 1.392 . S
C118 C120 1.420 . S
C118 C150 1.423 . S
C119 H105 0.930 . S
C119 C116 1.413 . S
C119 C117 1.367 . S
C120 N115 1.362 . S
C120 C118 1.420 . S
C120 C124 1.429 . S
H121 C126 0.930 . S
N122 Eu84 2.609 . S
N122 C124 1.377 . S
N122 C125 1.321 . S
C123 H109 0.930 . S
C123 C125 1.400 . S
C123 C126 1.386 . S
C124 C120 1.429 . S
C124 N122 1.377 . S
C124 C127 1.411 . S
C125 H107 0.930 . S
C125 N122 1.321 . S
C125 C123 1.400 . S
C126 H121 0.930 . S
C126 C123 1.386 . S
C126 C127 1.395 . S
C127 C124 1.411 . S
C127 C126 1.395 . S
C127 C149 1.420 . S
O128 Eu84 2.558 . S
O128 C148 1.257 . S
O129 Eu84 2.612 . S
O129 Eu95 2.380 . S
O129 C140 1.276 . S
O130 Eu95 2.432 . S
O130 C147 1.264 . S
O131 Eu84 2.339 . S
O131 C147 1.254 . S
O132 Eu84 2.563 . S
O132 C140 1.235 . S
O133 Eu84 2.419 . S
O133 C148 1.249 . S
O134 Eu95 2.558 . S
O134 C159 1.257 . S
O135 Eu84 2.380 . S
O135 Eu95 2.612 . S
O135 C151 1.276 . S
O136 Eu84 2.432 . S
O136 C158 1.264 . S
O137 Eu95 2.339 . S
O137 C158 1.254 . S
O138 Eu95 2.563 . S
O138 C151 1.235 . S
O139 Eu95 2.419 . S
O139 C159 1.249 . S
C140 O129 1.276 . S
C140 O132 1.235 . S
C141 C143 1.393 . S
C141 C145 1.395 . S
C141 C148 1.492 . S
C142 C143 1.392 . S
C142 C144 1.386 . S
C143 C141 1.393 . S
C143 C142 1.392 . S
C143 H160 0.930 . S
C144 C142 1.386 . S
C144 C146 1.395 . S
C144 H161 0.930 . S
C145 C141 1.395 . S
C145 C146 1.379 . S
C145 H162 0.930 . S
C146 C144 1.395 . S
C146 C145 1.379 . S
C146 H163 0.930 . S
C147 O130 1.264 . S
C147 O131 1.254 . S
C148 Eu84 2.848 . S
C148 O128 1.257 . S
C148 O133 1.249 . S
C148 C141 1.492 . S
C149 H114 0.931 . S
C149 C127 1.420 . S
C149 C150 1.351 . S
C150 H112 0.930 . S
C150 C118 1.423 . S
C150 C149 1.351 . S
C151 O135 1.276 . S
C151 O138 1.235 . S
C152 C153 1.393 . S
C152 C156 1.395 . S
C152 C159 1.492 . S
C153 C152 1.393 . S
C153 C154 1.392 . S
C153 H164 0.930 . S
C154 C153 1.392 . S
C154 C155 1.386 . S
C155 C154 1.386 . S
C155 C157 1.395 . S
C155 H165 0.930 . S
C156 C152 1.395 . S
C156 C157 1.379 . S
C156 H166 0.930 . S
C157 C155 1.395 . S
C157 C156 1.379 . S
C157 H167 0.930 . S
C158 O136 1.264 . S
C158 O137 1.254 . S
C159 Eu95 2.848 . S
C159 O134 1.257 . S
C159 O139 1.249 . S
C159 C152 1.492 . S
H160 C143 0.930 . S
H161 C144 0.930 . S
H162 C145 0.930 . S
H163 C146 0.930 . S
H164 C153 0.930 . S
H165 C155 0.930 . S
H166 C156 0.930 . S
H167 C157 0.930 . S
Eu168 N199 2.657 . S
Eu168 N206 2.609 . S
Eu168 O212 2.558 . S
Eu168 O213 2.612 . S
Eu168 O215 2.339 . S
Eu168 O216 2.563 . S
Eu168 O217 2.419 . S
Eu168 O219 2.380 . S
Eu168 O220 2.432 . S
Eu168 C232 2.848 . S
C169 C172 1.429 . S
C169 C173 1.411 . S
C169 N176 1.377 . S
C170 C172 1.420 . S
C170 C174 1.423 . S
C170 C182 1.392 . S
C171 C173 1.420 . S
C171 C174 1.351 . S
C171 H194 0.931 . S
C172 C169 1.429 . S
C172 C170 1.420 . S
C172 N180 1.362 . S
C173 C169 1.411 . S
C173 C171 1.420 . S
C173 C178 1.395 . S
C174 C170 1.423 . S
C174 C171 1.351 . S
C174 H186 0.930 . S
C175 C177 1.400 . S
C175 C178 1.386 . S
C175 H187 0.930 . S
N176 C169 1.377 . S
N176 C177 1.321 . S
N176 Eu179 2.609 . S
C177 C175 1.400 . S
C177 N176 1.321 . S
C177 H184 0.930 . S
C178 C173 1.395 . S
C178 C175 1.386 . S
C178 H197 0.930 . S
Eu179 N176 2.609 . S
Eu179 N180 2.657 . S
Eu179 O213 2.380 . S
Eu179 O214 2.432 . S
Eu179 O218 2.558 . S
Eu179 O219 2.612 . S
Eu179 O221 2.339 . S
Eu179 O222 2.563 . S
Eu179 O223 2.419 . S
Eu179 C243 2.848 . S
N180 C172 1.362 . S
N180 Eu179 2.657 . S
N180 C181 1.334 . S
C181 N180 1.334 . S
C181 C183 1.413 . S
C181 H188 0.929 . S
C182 C170 1.392 . S
C182 C183 1.367 . S
C182 H190 0.930 . S
C183 C181 1.413 . S
C183 C182 1.367 . S
C183 H185 0.930 . S
H184 C177 0.930 . S
H185 C183 0.930 . S
H186 C174 0.930 . S
H187 C175 0.930 . S
H188 C181 0.929 . S
H189 C203 0.930 . S
H190 C182 0.930 . S
H191 C209 0.930 . S
H192 C200 0.929 . S
H193 C207 0.930 . S
H194 C171 0.931 . S
H195 C201 0.930 . S
H196 C234 0.930 . S
H197 C178 0.930 . S
H198 C233 0.931 . S
N199 Eu168 2.657 . S
N199 C200 1.334 . S
N199 C204 1.362 . S
C200 H192 0.929 . S
C200 N199 1.334 . S
C200 C203 1.413 . S
C201 H195 0.930 . S
C201 C202 1.392 . S
C201 C203 1.367 . S
C202 C201 1.392 . S
C202 C204 1.420 . S
C202 C234 1.423 . S
C203 H189 0.930 . S
C203 C200 1.413 . S
C203 C201 1.367 . S
C204 N199 1.362 . S
C204 C202 1.420 . S
C204 C208 1.429 . S
H205 C210 0.930 . S
N206 Eu168 2.609 . S
N206 C208 1.377 . S
N206 C209 1.321 . S
C207 H193 0.930 . S
C207 C209 1.400 . S
C207 C210 1.386 . S
C208 C204 1.429 . S
C208 N206 1.377 . S
C208 C211 1.411 . S
C209 H191 0.930 . S
C209 N206 1.321 . S
C209 C207 1.400 . S
C210 H205 0.930 . S
C210 C207 1.386 . S
C210 C211 1.395 . S
C211 C208 1.411 . S
C211 C210 1.395 . S
C211 C233 1.420 . S
O212 Eu168 2.558 . S
O212 C232 1.257 . S
O213 Eu168 2.612 . S
O213 Eu179 2.380 . S
O213 C224 1.276 . S
O214 Eu179 2.432 . S
O214 C231 1.264 . S
O215 Eu168 2.339 . S
O215 C231 1.254 . S
O216 Eu168 2.563 . S
O216 C224 1.235 . S
O217 Eu168 2.419 . S
O217 C232 1.249 . S
O218 Eu179 2.558 . S
O218 C243 1.257 . S
O219 Eu168 2.380 . S
O219 Eu179 2.612 . S
O219 C235 1.276 . S
O220 Eu168 2.432 . S
O220 C242 1.264 . S
O221 Eu179 2.339 . S
O221 C242 1.254 . S
O222 Eu179 2.563 . S
O222 C235 1.235 . S
O223 Eu179 2.419 . S
O223 C243 1.249 . S
C224 O213 1.276 . S
C224 O216 1.235 . S
C225 C227 1.393 . S
C225 C229 1.395 . S
C225 C232 1.492 . S
C226 C227 1.392 . S
C226 C228 1.386 . S
C227 C225 1.393 . S
C227 C226 1.392 . S
C227 H244 0.930 . S
C228 C226 1.386 . S
C228 C230 1.395 . S
C228 H245 0.930 . S
C229 C225 1.395 . S
C229 C230 1.379 . S
C229 H246 0.930 . S
C230 C228 1.395 . S
C230 C229 1.379 . S
C230 H247 0.930 . S
C231 O214 1.264 . S
C231 O215 1.254 . S
C232 Eu168 2.848 . S
C232 O212 1.257 . S
C232 O217 1.249 . S
C232 C225 1.492 . S
C233 H198 0.931 . S
C233 C211 1.420 . S
C233 C234 1.351 . S
C234 H196 0.930 . S
C234 C202 1.423 . S
C234 C233 1.351 . S
C235 O219 1.276 . S
C235 O222 1.235 . S
C236 C237 1.393 . S
C236 C240 1.395 . S
C236 C243 1.492 . S
C237 C236 1.393 . S
C237 C238 1.392 . S
C237 H248 0.930 . S
C238 C237 1.392 . S
C238 C239 1.386 . S
C239 C238 1.386 . S
C239 C241 1.395 . S
C239 H249 0.930 . S
C240 C236 1.395 . S
C240 C241 1.379 . S
C240 H250 0.930 . S
C241 C239 1.395 . S
C241 C240 1.379 . S
C241 H251 0.930 . S
C242 O220 1.264 . S
C242 O221 1.254 . S
C243 Eu179 2.848 . S
C243 O218 1.257 . S
C243 O223 1.249 . S
C243 C236 1.492 . S
H244 C227 0.930 . S
H245 C228 0.930 . S
H246 C229 0.930 . S
H247 C230 0.930 . S
H248 C237 0.930 . S
H249 C239 0.930 . S
H250 C240 0.930 . S
H251 C241 0.930 . S
Eu252 N283 2.657 . S
Eu252 N290 2.609 . S
Eu252 O296 2.558 1_655 S
Eu252 O297 2.612 . S
Eu252 O299 2.339 1_655 S
Eu252 O300 2.563 1_655 S
Eu252 O301 2.419 1_655 S
Eu252 O303 2.380 . S
Eu252 O304 2.432 . S
Eu252 C316 2.848 1_655 S
C253 C256 1.429 . S
C253 C257 1.411 1_655 S
C253 N260 1.377 . S
C254 C256 1.420 . S
C254 C258 1.423 1_655 S
C254 C266 1.392 . S
C255 C257 1.420 . S
C255 C258 1.351 . S
C255 H278 0.931 . S
C256 C253 1.429 . S
C256 C254 1.420 . S
C256 N264 1.362 . S
C257 C253 1.411 1_455 S
C257 C255 1.420 . S
C257 C262 1.395 . S
C258 C254 1.423 1_455 S
C258 C255 1.351 . S
C258 H270 0.930 . S
C259 C261 1.400 1_455 S
C259 C262 1.386 . S
C259 H271 0.930 . S
N260 C253 1.377 . S
N260 C261 1.321 . S
N260 Eu263 2.609 . S
C261 C259 1.400 1_655 S
C261 N260 1.321 . S
C261 H268 0.930 . S
C262 C257 1.395 . S
C262 C259 1.386 . S
C262 H281 0.930 . S
Eu263 N260 2.609 . S
Eu263 N264 2.657 . S
Eu263 O297 2.380 . S
Eu263 O298 2.432 . S
Eu263 O302 2.558 . S
Eu263 O303 2.612 . S
Eu263 O305 2.339 . S
Eu263 O306 2.563 . S
Eu263 O307 2.419 . S
Eu263 C327 2.848 . S
N264 C256 1.362 . S
N264 Eu263 2.657 . S
N264 C265 1.334 . S
C265 N264 1.334 . S
C265 C267 1.413 . S
C265 H272 0.929 . S
C266 C254 1.392 . S
C266 C267 1.367 . S
C266 H274 0.930 . S
C267 C265 1.413 . S
C267 C266 1.367 . S
C267 H269 0.930 . S
H268 C261 0.930 . S
H269 C267 0.930 . S
H270 C258 0.930 . S
H271 C259 0.930 . S
H272 C265 0.929 . S
H273 C287 0.930 . S
H274 C266 0.930 . S
H275 C293 0.930 . S
H276 C284 0.929 . S
H277 C291 0.930 . S
H278 C255 0.931 . S
H279 C285 0.930 . S
H280 C318 0.930 . S
H281 C262 0.930 . S
H282 C317 0.931 . S
N283 Eu252 2.657 . S
N283 C284 1.334 . S
N283 C288 1.362 . S
C284 H276 0.929 . S
C284 N283 1.334 . S
C284 C287 1.413 . S
C285 H279 0.930 . S
C285 C286 1.392 . S
C285 C287 1.367 . S
C286 C285 1.392 . S
C286 C288 1.420 . S
C286 C318 1.423 . S
C287 H273 0.930 . S
C287 C284 1.413 . S
C287 C285 1.367 . S
C288 N283 1.362 . S
C288 C286 1.420 . S
C288 C292 1.429 . S
H289 C294 0.930 . S
N290 Eu252 2.609 . S
N290 C292 1.377 . S
N290 C293 1.321 . S
C291 H277 0.930 . S
C291 C293 1.400 . S
C291 C294 1.386 . S
C292 C288 1.429 . S
C292 N290 1.377 . S
C292 C295 1.411 . S
C293 H275 0.930 . S
C293 N290 1.321 . S
C293 C291 1.400 . S
C294 H289 0.930 . S
C294 C291 1.386 . S
C294 C295 1.395 . S
C295 C292 1.411 . S
C295 C294 1.395 . S
C295 C317 1.420 . S
O296 Eu252 2.558 1_455 S
O296 C316 1.257 . S
O297 Eu252 2.612 . S
O297 Eu263 2.380 . S
O297 C308 1.276 1_655 S
O298 Eu263 2.432 . S
O298 C315 1.264 1_655 S
O299 Eu252 2.339 1_455 S
O299 C315 1.254 . S
O300 Eu252 2.563 1_455 S
O300 C308 1.235 . S
O301 Eu252 2.419 1_455 S
O301 C316 1.249 . S
O302 Eu263 2.558 . S
O302 C327 1.257 . S
O303 Eu252 2.380 . S
O303 Eu263 2.612 . S
O303 C319 1.276 . S
O304 Eu252 2.432 . S
O304 C326 1.264 . S
O305 Eu263 2.339 . S
O305 C326 1.254 . S
O306 Eu263 2.563 . S
O306 C319 1.235 . S
O307 Eu263 2.419 . S
O307 C327 1.249 . S
C308 O297 1.276 1_455 S
C308 O300 1.235 . S
C309 C311 1.393 . S
C309 C313 1.395 . S
C309 C316 1.492 . S
C310 C311 1.392 . S
C310 C312 1.386 . S
C311 C309 1.393 . S
C311 C310 1.392 . S
C311 H328 0.930 . S
C312 C310 1.386 . S
C312 C314 1.395 . S
C312 H329 0.930 . S
C313 C309 1.395 . S
C313 C314 1.379 . S
C313 H330 0.930 . S
C314 C312 1.395 . S
C314 C313 1.379 . S
C314 H331 0.930 . S
C315 O298 1.264 1_455 S
C315 O299 1.254 . S
C316 Eu252 2.848 1_455 S
C316 O296 1.257 . S
C316 O301 1.249 . S
C316 C309 1.492 . S
C317 H282 0.931 . S
C317 C295 1.420 . S
C317 C318 1.351 . S
C318 H280 0.930 . S
C318 C286 1.423 . S
C318 C317 1.351 . S
C319 O303 1.276 . S
C319 O306 1.235 . S
C320 C321 1.393 . S
C320 C324 1.395 . S
C320 C327 1.492 . S
C321 C320 1.393 . S
C321 C322 1.392 . S
C321 H332 0.930 . S
C322 C321 1.392 . S
C322 C323 1.386 . S
C323 C322 1.386 . S
C323 C325 1.395 . S
C323 H333 0.930 . S
C324 C320 1.395 . S
C324 C325 1.379 . S
C324 H334 0.930 . S
C325 C323 1.395 . S
C325 C324 1.379 . S
C325 H335 0.930 . S
C326 O304 1.264 . S
C326 O305 1.254 . S
C327 Eu263 2.848 . S
C327 O302 1.257 . S
C327 O307 1.249 . S
C327 C320 1.492 . S
H328 C311 0.930 . S
H329 C312 0.930 . S
H330 C313 0.930 . S
H331 C314 0.930 . S
H332 C321 0.930 . S
H333 C323 0.930 . S
H334 C324 0.930 . S
H335 C325 0.930 . S
Eu336 N367 2.657 . S
Eu336 N374 2.609 . S
Eu336 O380 2.558 1_545 S
Eu336 O381 2.612 . S
Eu336 O383 2.339 1_545 S
Eu336 O384 2.563 1_545 S
Eu336 O385 2.419 1_545 S
Eu336 O387 2.380 . S
Eu336 O388 2.432 . S
Eu336 C400 2.848 1_545 S
C337 C340 1.429 . S
C337 C341 1.411 1_545 S
C337 N344 1.377 . S
C338 C340 1.420 . S
C338 C342 1.423 1_545 S
C338 C350 1.392 . S
C339 C341 1.420 . S
C339 C342 1.351 . S
C339 H362 0.931 . S
C340 C337 1.429 . S
C340 C338 1.420 . S
C340 N348 1.362 . S
C341 C337 1.411 1_565 S
C341 C339 1.420 . S
C341 C346 1.395 . S
C342 C338 1.423 1_565 S
C342 C339 1.351 . S
C342 H354 0.930 . S
C343 C345 1.400 1_565 S
C343 C346 1.386 . S
C343 H355 0.930 . S
N344 C337 1.377 . S
N344 C345 1.321 . S
N344 Eu347 2.609 . S
C345 C343 1.400 1_545 S
C345 N344 1.321 . S
C345 H352 0.930 . S
C346 C341 1.395 . S
C346 C343 1.386 . S
C346 H365 0.930 . S
Eu347 N344 2.609 . S
Eu347 N348 2.657 . S
Eu347 O381 2.380 . S
Eu347 O382 2.432 . S
Eu347 O386 2.558 . S
Eu347 O387 2.612 . S
Eu347 O389 2.339 . S
Eu347 O390 2.563 . S
Eu347 O391 2.419 . S
Eu347 C411 2.848 . S
N348 C340 1.362 . S
N348 Eu347 2.657 . S
N348 C349 1.334 . S
C349 N348 1.334 . S
C349 C351 1.413 . S
C349 H356 0.929 . S
C350 C338 1.392 . S
C350 C351 1.367 . S
C350 H358 0.930 . S
C351 C349 1.413 . S
C351 C350 1.367 . S
C351 H353 0.930 . S
H352 C345 0.930 . S
H353 C351 0.930 . S
H354 C342 0.930 . S
H355 C343 0.930 . S
H356 C349 0.929 . S
H357 C371 0.930 . S
H358 C350 0.930 . S
H359 C377 0.930 . S
H360 C368 0.929 . S
H361 C375 0.930 . S
H362 C339 0.931 . S
H363 C369 0.930 . S
H364 C402 0.930 . S
H365 C346 0.930 . S
H366 C401 0.931 . S
N367 Eu336 2.657 . S
N367 C368 1.334 . S
N367 C372 1.362 . S
C368 H360 0.929 . S
C368 N367 1.334 . S
C368 C371 1.413 . S
C369 H363 0.930 . S
C369 C370 1.392 . S
C369 C371 1.367 . S
C370 C369 1.392 . S
C370 C372 1.420 . S
C370 C402 1.423 . S
C371 H357 0.930 . S
C371 C368 1.413 . S
C371 C369 1.367 . S
C372 N367 1.362 . S
C372 C370 1.420 . S
C372 C376 1.429 . S
H373 C378 0.930 . S
N374 Eu336 2.609 . S
N374 C376 1.377 . S
N374 C377 1.321 . S
C375 H361 0.930 . S
C375 C377 1.400 . S
C375 C378 1.386 . S
C376 C372 1.429 . S
C376 N374 1.377 . S
C376 C379 1.411 . S
C377 H359 0.930 . S
C377 N374 1.321 . S
C377 C375 1.400 . S
C378 H373 0.930 . S
C378 C375 1.386 . S
C378 C379 1.395 . S
C379 C376 1.411 . S
C379 C378 1.395 . S
C379 C401 1.420 . S
O380 Eu336 2.558 1_565 S
O380 C400 1.257 . S
O381 Eu336 2.612 . S
O381 Eu347 2.380 . S
O381 C392 1.276 1_545 S
O382 Eu347 2.432 . S
O382 C399 1.264 1_545 S
O383 Eu336 2.339 1_565 S
O383 C399 1.254 . S
O384 Eu336 2.563 1_565 S
O384 C392 1.235 . S
O385 Eu336 2.419 1_565 S
O385 C400 1.249 . S
O386 Eu347 2.558 . S
O386 C411 1.257 . S
O387 Eu336 2.380 . S
O387 Eu347 2.612 . S
O387 C403 1.276 . S
O388 Eu336 2.432 . S
O388 C410 1.264 . S
O389 Eu347 2.339 . S
O389 C410 1.254 . S
O390 Eu347 2.563 . S
O390 C403 1.235 . S
O391 Eu347 2.419 . S
O391 C411 1.249 . S
C392 O381 1.276 1_565 S
C392 O384 1.235 . S
C393 C395 1.393 . S
C393 C397 1.395 . S
C393 C400 1.492 . S
C394 C395 1.392 . S
C394 C396 1.386 . S
C395 C393 1.393 . S
C395 C394 1.392 . S
C395 H412 0.930 . S
C396 C394 1.386 . S
C396 C398 1.395 . S
C396 H413 0.930 . S
C397 C393 1.395 . S
C397 C398 1.379 . S
C397 H414 0.930 . S
C398 C396 1.395 . S
C398 C397 1.379 . S
C398 H415 0.930 . S
C399 O382 1.264 1_565 S
C399 O383 1.254 . S
C400 Eu336 2.848 1_565 S
C400 O380 1.257 . S
C400 O385 1.249 . S
C400 C393 1.492 . S
C401 H366 0.931 . S
C401 C379 1.420 . S
C401 C402 1.351 . S
C402 H364 0.930 . S
C402 C370 1.423 . S
C402 C401 1.351 . S
C403 O387 1.276 . S
C403 O390 1.235 . S
C404 C405 1.393 . S
C404 C408 1.395 . S
C404 C411 1.492 . S
C405 C404 1.393 . S
C405 C406 1.392 . S
C405 H416 0.930 . S
C406 C405 1.392 . S
C406 C407 1.386 . S
C407 C406 1.386 . S
C407 C409 1.395 . S
C407 H417 0.930 . S
C408 C404 1.395 . S
C408 C409 1.379 . S
C408 H418 0.930 . S
C409 C407 1.395 . S
C409 C408 1.379 . S
C409 H419 0.930 . S
C410 O388 1.264 . S
C410 O389 1.254 . S
C411 Eu347 2.848 . S
C411 O386 1.257 . S
C411 O391 1.249 . S
C411 C404 1.492 . S
H412 C395 0.930 . S
H413 C396 0.930 . S
H414 C397 0.930 . S
H415 C398 0.930 . S
H416 C405 0.930 . S
H417 C407 0.930 . S
H418 C408 0.930 . S
H419 C409 0.930 . S
Eu420 N451 2.657 . S
Eu420 N458 2.609 . S
Eu420 O464 2.558 1_565 S
Eu420 O465 2.612 . S
Eu420 O467 2.339 1_565 S
Eu420 O468 2.563 1_565 S
Eu420 O469 2.419 1_565 S
Eu420 O471 2.380 . S
Eu420 O472 2.432 . S
Eu420 C484 2.848 1_565 S
C421 C424 1.429 . S
C421 C425 1.411 1_565 S
C421 N428 1.377 . S
C422 C424 1.420 . S
C422 C426 1.423 1_565 S
C422 C434 1.392 . S
C423 C425 1.420 . S
C423 C426 1.351 . S
C423 H446 0.931 . S
C424 C421 1.429 . S
C424 C422 1.420 . S
C424 N432 1.362 . S
C425 C421 1.411 1_545 S
C425 C423 1.420 . S
C425 C430 1.395 . S
C426 C422 1.423 1_545 S
C426 C423 1.351 . S
C426 H438 0.930 . S
C427 C429 1.400 1_545 S
C427 C430 1.386 . S
C427 H439 0.930 . S
N428 C421 1.377 . S
N428 C429 1.321 . S
N428 Eu431 2.609 . S
C429 C427 1.400 1_565 S
C429 N428 1.321 . S
C429 H436 0.930 . S
C430 C425 1.395 . S
C430 C427 1.386 . S
C430 H449 0.930 . S
Eu431 N428 2.609 . S
Eu431 N432 2.657 . S
Eu431 O465 2.380 . S
Eu431 O466 2.432 . S
Eu431 O470 2.558 . S
Eu431 O471 2.612 . S
Eu431 O473 2.339 . S
Eu431 O474 2.563 . S
Eu431 O475 2.419 . S
Eu431 C495 2.848 . S
N432 C424 1.362 . S
N432 Eu431 2.657 . S
N432 C433 1.334 . S
C433 N432 1.334 . S
C433 C435 1.413 . S
C433 H440 0.929 . S
C434 C422 1.392 . S
C434 C435 1.367 . S
C434 H442 0.930 . S
C435 C433 1.413 . S
C435 C434 1.367 . S
C435 H437 0.930 . S
H436 C429 0.930 . S
H437 C435 0.930 . S
H438 C426 0.930 . S
H439 C427 0.930 . S
H440 C433 0.929 . S
H441 C455 0.930 . S
H442 C434 0.930 . S
H443 C461 0.930 . S
H444 C452 0.929 . S
H445 C459 0.930 . S
H446 C423 0.931 . S
H447 C453 0.930 . S
H448 C486 0.930 . S
H449 C430 0.930 . S
H450 C485 0.931 . S
N451 Eu420 2.657 . S
N451 C452 1.334 . S
N451 C456 1.362 . S
C452 H444 0.929 . S
C452 N451 1.334 . S
C452 C455 1.413 . S
C453 H447 0.930 . S
C453 C454 1.392 . S
C453 C455 1.367 . S
C454 C453 1.392 . S
C454 C456 1.420 . S
C454 C486 1.423 . S
C455 H441 0.930 . S
C455 C452 1.413 . S
C455 C453 1.367 . S
C456 N451 1.362 . S
C456 C454 1.420 . S
C456 C460 1.429 . S
H457 C462 0.930 . S
N458 Eu420 2.609 . S
N458 C460 1.377 . S
N458 C461 1.321 . S
C459 H445 0.930 . S
C459 C461 1.400 . S
C459 C462 1.386 . S
C460 C456 1.429 . S
C460 N458 1.377 . S
C460 C463 1.411 . S
C461 H443 0.930 . S
C461 N458 1.321 . S
C461 C459 1.400 . S
C462 H457 0.930 . S
C462 C459 1.386 . S
C462 C463 1.395 . S
C463 C460 1.411 . S
C463 C462 1.395 . S
C463 C485 1.420 . S
O464 Eu420 2.558 1_545 S
O464 C484 1.257 . S
O465 Eu420 2.612 . S
O465 Eu431 2.380 . S
O465 C476 1.276 1_565 S
O466 Eu431 2.432 . S
O466 C483 1.264 1_565 S
O467 Eu420 2.339 1_545 S
O467 C483 1.254 . S
O468 Eu420 2.563 1_545 S
O468 C476 1.235 . S
O469 Eu420 2.419 1_545 S
O469 C484 1.249 . S
O470 Eu431 2.558 . S
O470 C495 1.257 . S
O471 Eu420 2.380 . S
O471 Eu431 2.612 . S
O471 C487 1.276 . S
O472 Eu420 2.432 . S
O472 C494 1.264 . S
O473 Eu431 2.339 . S
O473 C494 1.254 . S
O474 Eu431 2.563 . S
O474 C487 1.235 . S
O475 Eu431 2.419 . S
O475 C495 1.249 . S
C476 O465 1.276 1_545 S
C476 O468 1.235 . S
C477 C479 1.393 . S
C477 C481 1.395 . S
C477 C484 1.492 . S
C478 C479 1.392 . S
C478 C480 1.386 . S
C479 C477 1.393 . S
C479 C478 1.392 . S
C479 H496 0.930 . S
C480 C478 1.386 . S
C480 C482 1.395 . S
C480 H497 0.930 . S
C481 C477 1.395 . S
C481 C482 1.379 . S
C481 H498 0.930 . S
C482 C480 1.395 . S
C482 C481 1.379 . S
C482 H499 0.930 . S
C483 O466 1.264 1_545 S
C483 O467 1.254 . S
C484 Eu420 2.848 1_545 S
C484 O464 1.257 . S
C484 O469 1.249 . S
C484 C477 1.492 . S
C485 H450 0.931 . S
C485 C463 1.420 . S
C485 C486 1.351 . S
C486 H448 0.930 . S
C486 C454 1.423 . S
C486 C485 1.351 . S
C487 O471 1.276 . S
C487 O474 1.235 . S
C488 C489 1.393 . S
C488 C492 1.395 . S
C488 C495 1.492 . S
C489 C488 1.393 . S
C489 C490 1.392 . S
C489 H500 0.930 . S
C490 C489 1.392 . S
C490 C491 1.386 . S
C491 C490 1.386 . S
C491 C493 1.395 . S
C491 H501 0.930 . S
C492 C488 1.395 . S
C492 C493 1.379 . S
C492 H502 0.930 . S
C493 C491 1.395 . S
C493 C492 1.379 . S
C493 H503 0.930 . S
C494 O472 1.264 . S
C494 O473 1.254 . S
C495 Eu431 2.848 . S
C495 O470 1.257 . S
C495 O475 1.249 . S
C495 C488 1.492 . S
H496 C479 0.930 . S
H497 C480 0.930 . S
H498 C481 0.930 . S
H499 C482 0.930 . S
H500 C489 0.930 . S
H501 C491 0.930 . S
H502 C492 0.930 . S
H503 C493 0.930 . S
Eu504 N535 2.657 . S
Eu504 N542 2.609 . S
Eu504 O548 2.558 . S
Eu504 O549 2.612 . S
Eu504 O551 2.339 . S
Eu504 O552 2.563 . S
Eu504 O553 2.419 . S
Eu504 O555 2.380 . S
Eu504 O556 2.432 . S
Eu504 C568 2.848 . S
C505 C508 1.429 . S
C505 C509 1.411 . S
C505 N512 1.377 . S
C506 C508 1.420 . S
C506 C510 1.423 . S
C506 C518 1.392 . S
C507 C509 1.420 . S
C507 C510 1.351 . S
C507 H530 0.931 . S
C508 C505 1.429 . S
C508 C506 1.420 . S
C508 N516 1.362 . S
C509 C505 1.411 . S
C509 C507 1.420 . S
C509 C514 1.395 . S
C510 C506 1.423 . S
C510 C507 1.351 . S
C510 H522 0.930 . S
C511 C513 1.400 . S
C511 C514 1.386 . S
C511 H523 0.930 . S
N512 C505 1.377 . S
N512 C513 1.321 . S
N512 Eu515 2.609 . S
C513 C511 1.400 . S
C513 N512 1.321 . S
C513 H520 0.930 . S
C514 C509 1.395 . S
C514 C511 1.386 . S
C514 H533 0.930 . S
Eu515 N512 2.609 . S
Eu515 N516 2.657 . S
Eu515 O549 2.380 . S
Eu515 O550 2.432 . S
Eu515 O554 2.558 . S
Eu515 O555 2.612 . S
Eu515 O557 2.339 . S
Eu515 O558 2.563 . S
Eu515 O559 2.419 . S
Eu515 C579 2.848 . S
N516 C508 1.362 . S
N516 Eu515 2.657 . S
N516 C517 1.334 . S
C517 N516 1.334 . S
C517 C519 1.413 . S
C517 H524 0.929 . S
C518 C506 1.392 . S
C518 C519 1.367 . S
C518 H526 0.930 . S
C519 C517 1.413 . S
C519 C518 1.367 . S
C519 H521 0.930 . S
H520 C513 0.930 . S
H521 C519 0.930 . S
H522 C510 0.930 . S
H523 C511 0.930 . S
H524 C517 0.929 . S
H525 C539 0.930 . S
H526 C518 0.930 . S
H527 C545 0.930 . S
H528 C536 0.929 . S
H529 C543 0.930 . S
H530 C507 0.931 . S
H531 C537 0.930 . S
H532 C570 0.930 . S
H533 C514 0.930 . S
H534 C569 0.931 . S
N535 Eu504 2.657 . S
N535 C536 1.334 . S
N535 C540 1.362 . S
C536 H528 0.929 . S
C536 N535 1.334 . S
C536 C539 1.413 . S
C537 H531 0.930 . S
C537 C538 1.392 . S
C537 C539 1.367 . S
C538 C537 1.392 . S
C538 C540 1.420 . S
C538 C570 1.423 . S
C539 H525 0.930 . S
C539 C536 1.413 . S
C539 C537 1.367 . S
C540 N535 1.362 . S
C540 C538 1.420 . S
C540 C544 1.429 . S
H541 C546 0.930 . S
N542 Eu504 2.609 . S
N542 C544 1.377 . S
N542 C545 1.321 . S
C543 H529 0.930 . S
C543 C545 1.400 . S
C543 C546 1.386 . S
C544 C540 1.429 . S
C544 N542 1.377 . S
C544 C547 1.411 . S
C545 H527 0.930 . S
C545 N542 1.321 . S
C545 C543 1.400 . S
C546 H541 0.930 . S
C546 C543 1.386 . S
C546 C547 1.395 . S
C547 C544 1.411 . S
C547 C546 1.395 . S
C547 C569 1.420 . S
O548 Eu504 2.558 . S
O548 C568 1.257 . S
O549 Eu504 2.612 . S
O549 Eu515 2.380 . S
O549 C560 1.276 . S
O550 Eu515 2.432 . S
O550 C567 1.264 . S
O551 Eu504 2.339 . S
O551 C567 1.254 . S
O552 Eu504 2.563 . S
O552 C560 1.235 . S
O553 Eu504 2.419 . S
O553 C568 1.249 . S
O554 Eu515 2.558 . S
O554 C579 1.257 . S
O555 Eu504 2.380 . S
O555 Eu515 2.612 . S
O555 C571 1.276 . S
O556 Eu504 2.432 . S
O556 C578 1.264 . S
O557 Eu515 2.339 . S
O557 C578 1.254 . S
O558 Eu515 2.563 . S
O558 C571 1.235 . S
O559 Eu515 2.419 . S
O559 C579 1.249 . S
C560 O549 1.276 . S
C560 O552 1.235 . S
C561 C563 1.393 . S
C561 C565 1.395 . S
C561 C568 1.492 . S
C562 C563 1.392 . S
C562 C564 1.386 . S
C563 C561 1.393 . S
C563 C562 1.392 . S
C563 H580 0.930 . S
C564 C562 1.386 . S
C564 C566 1.395 . S
C564 H581 0.930 . S
C565 C561 1.395 . S
C565 C566 1.379 . S
C565 H582 0.930 . S
C566 C564 1.395 . S
C566 C565 1.379 . S
C566 H583 0.930 . S
C567 O550 1.264 . S
C567 O551 1.254 . S
C568 Eu504 2.848 . S
C568 O548 1.257 . S
C568 O553 1.249 . S
C568 C561 1.492 . S
C569 H534 0.931 . S
C569 C547 1.420 . S
C569 C570 1.351 . S
C570 H532 0.930 . S
C570 C538 1.423 . S
C570 C569 1.351 . S
C571 O555 1.276 . S
C571 O558 1.235 . S
C572 C573 1.393 . S
C572 C576 1.395 . S
C572 C579 1.492 . S
C573 C572 1.393 . S
C573 C574 1.392 . S
C573 H584 0.930 . S
C574 C573 1.392 . S
C574 C575 1.386 . S
C575 C574 1.386 . S
C575 C577 1.395 . S
C575 H585 0.930 . S
C576 C572 1.395 . S
C576 C577 1.379 . S
C576 H586 0.930 . S
C577 C575 1.395 . S
C577 C576 1.379 . S
C577 H587 0.930 . S
C578 O556 1.264 . S
C578 O557 1.254 . S
C579 Eu515 2.848 . S
C579 O554 1.257 . S
C579 O559 1.249 . S
C579 C572 1.492 . S
H580 C563 0.930 . S
H581 C564 0.930 . S
H582 C565 0.930 . S
H583 C566 0.930 . S
H584 C573 0.930 . S
H585 C575 0.930 . S
H586 C576 0.930 . S
H587 C577 0.930 . S
Eu588 N619 2.657 . S
Eu588 N626 2.609 . S
Eu588 O632 2.558 . S
Eu588 O633 2.612 . S
Eu588 O635 2.339 . S
Eu588 O636 2.563 . S
Eu588 O637 2.419 . S
Eu588 O639 2.380 . S
Eu588 O640 2.432 . S
Eu588 C652 2.848 . S
C589 C592 1.429 . S
C589 C593 1.411 . S
C589 N596 1.377 . S
C590 C592 1.420 . S
C590 C594 1.423 . S
C590 C602 1.392 . S
C591 C593 1.420 . S
C591 C594 1.351 . S
C591 H614 0.931 . S
C592 C589 1.429 . S
C592 C590 1.420 . S
C592 N600 1.362 . S
C593 C589 1.411 . S
C593 C591 1.420 . S
C593 C598 1.395 . S
C594 C590 1.423 . S
C594 C591 1.351 . S
C594 H606 0.930 . S
C595 C597 1.400 . S
C595 C598 1.386 . S
C595 H607 0.930 . S
N596 C589 1.377 . S
N596 C597 1.321 . S
N596 Eu599 2.609 . S
C597 C595 1.400 . S
C597 N596 1.321 . S
C597 H604 0.930 . S
C598 C593 1.395 . S
C598 C595 1.386 . S
C598 H617 0.930 . S
Eu599 N596 2.609 . S
Eu599 N600 2.657 . S
Eu599 O633 2.380 . S
Eu599 O634 2.432 . S
Eu599 O638 2.558 . S
Eu599 O639 2.612 . S
Eu599 O641 2.339 . S
Eu599 O642 2.563 . S
Eu599 O643 2.419 . S
Eu599 C663 2.848 . S
N600 C592 1.362 . S
N600 Eu599 2.657 . S
N600 C601 1.334 . S
C601 N600 1.334 . S
C601 C603 1.413 . S
C601 H608 0.929 . S
C602 C590 1.392 . S
C602 C603 1.367 . S
C602 H610 0.930 . S
C603 C601 1.413 . S
C603 C602 1.367 . S
C603 H605 0.930 . S
H604 C597 0.930 . S
H605 C603 0.930 . S
H606 C594 0.930 . S
H607 C595 0.930 . S
H608 C601 0.929 . S
H609 C623 0.930 . S
H610 C602 0.930 . S
H611 C629 0.930 . S
H612 C620 0.929 . S
H613 C627 0.930 . S
H614 C591 0.931 . S
H615 C621 0.930 . S
H616 C654 0.930 . S
H617 C598 0.930 . S
H618 C653 0.931 . S
N619 Eu588 2.657 . S
N619 C620 1.334 . S
N619 C624 1.362 . S
C620 H612 0.929 . S
C620 N619 1.334 . S
C620 C623 1.413 . S
C621 H615 0.930 . S
C621 C622 1.392 . S
C621 C623 1.367 . S
C622 C621 1.392 . S
C622 C624 1.420 . S
C622 C654 1.423 . S
C623 H609 0.930 . S
C623 C620 1.413 . S
C623 C621 1.367 . S
C624 N619 1.362 . S
C624 C622 1.420 . S
C624 C628 1.429 . S
H625 C630 0.930 . S
N626 Eu588 2.609 . S
N626 C628 1.377 . S
N626 C629 1.321 . S
C627 H613 0.930 . S
C627 C629 1.400 . S
C627 C630 1.386 . S
C628 C624 1.429 . S
C628 N626 1.377 . S
C628 C631 1.411 . S
C629 H611 0.930 . S
C629 N626 1.321 . S
C629 C627 1.400 . S
C630 H625 0.930 . S
C630 C627 1.386 . S
C630 C631 1.395 . S
C631 C628 1.411 . S
C631 C630 1.395 . S
C631 C653 1.420 . S
O632 Eu588 2.558 . S
O632 C652 1.257 . S
O633 Eu588 2.612 . S
O633 Eu599 2.380 . S
O633 C644 1.276 . S
O634 Eu599 2.432 . S
O634 C651 1.264 . S
O635 Eu588 2.339 . S
O635 C651 1.254 . S
O636 Eu588 2.563 . S
O636 C644 1.235 . S
O637 Eu588 2.419 . S
O637 C652 1.249 . S
O638 Eu599 2.558 . S
O638 C663 1.257 . S
O639 Eu588 2.380 . S
O639 Eu599 2.612 . S
O639 C655 1.276 . S
O640 Eu588 2.432 . S
O640 C662 1.264 . S
O641 Eu599 2.339 . S
O641 C662 1.254 . S
O642 Eu599 2.563 . S
O642 C655 1.235 . S
O643 Eu599 2.419 . S
O643 C663 1.249 . S
C644 O633 1.276 . S
C644 O636 1.235 . S
C645 C647 1.393 . S
C645 C649 1.395 . S
C645 C652 1.492 . S
C646 C647 1.392 . S
C646 C648 1.386 . S
C647 C645 1.393 . S
C647 C646 1.392 . S
C647 H664 0.930 . S
C648 C646 1.386 . S
C648 C650 1.395 . S
C648 H665 0.930 . S
C649 C645 1.395 . S
C649 C650 1.379 . S
C649 H666 0.930 . S
C650 C648 1.395 . S
C650 C649 1.379 . S
C650 H667 0.930 . S
C651 O634 1.264 . S
C651 O635 1.254 . S
C652 Eu588 2.848 . S
C652 O632 1.257 . S
C652 O637 1.249 . S
C652 C645 1.492 . S
C653 H618 0.931 . S
C653 C631 1.420 . S
C653 C654 1.351 . S
C654 H616 0.930 . S
C654 C622 1.423 . S
C654 C653 1.351 . S
C655 O639 1.276 . S
C655 O642 1.235 . S
C656 C657 1.393 . S
C656 C660 1.395 . S
C656 C663 1.492 . S
C657 C656 1.393 . S
C657 C658 1.392 . S
C657 H668 0.930 . S
C658 C657 1.392 . S
C658 C659 1.386 . S
C659 C658 1.386 . S
C659 C661 1.395 . S
C659 H669 0.930 . S
C660 C656 1.395 . S
C660 C661 1.379 . S
C660 H670 0.930 . S
C661 C659 1.395 . S
C661 C660 1.379 . S
C661 H671 0.930 . S
C662 O640 1.264 . S
C662 O641 1.254 . S
C663 Eu599 2.848 . S
C663 O638 1.257 . S
C663 O643 1.249 . S
C663 C656 1.492 . S
H664 C647 0.930 . S
H665 C648 0.930 . S
H666 C649 0.930 . S
H667 C650 0.930 . S
H668 C657 0.930 . S
H669 C659 0.930 . S
H670 C660 0.930 . S
H671 C661 0.930 . S
Eu672 N703 2.657 . S
Eu672 N710 2.609 . S
Eu672 O716 2.558 1_554 S
Eu672 O717 2.612 . S
Eu672 O719 2.339 1_554 S
Eu672 O720 2.563 1_554 S
Eu672 O721 2.419 1_554 S
Eu672 O723 2.380 . S
Eu672 O724 2.432 . S
Eu672 C736 2.848 1_554 S
C673 C676 1.429 . S
C673 C677 1.411 1_554 S
C673 N680 1.377 . S
C674 C676 1.420 . S
C674 C678 1.423 1_554 S
C674 C686 1.392 . S
C675 C677 1.420 . S
C675 C678 1.351 . S
C675 H698 0.931 . S
C676 C673 1.429 . S
C676 C674 1.420 . S
C676 N684 1.362 . S
C677 C673 1.411 1_556 S
C677 C675 1.420 . S
C677 C682 1.395 . S
C678 C674 1.423 1_556 S
C678 C675 1.351 . S
C678 H690 0.930 . S
C679 C681 1.400 1_556 S
C679 C682 1.386 . S
C679 H691 0.930 . S
N680 C673 1.377 . S
N680 C681 1.321 . S
N680 Eu683 2.609 . S
C681 C679 1.400 1_554 S
C681 N680 1.321 . S
C681 H688 0.930 . S
C682 C677 1.395 . S
C682 C679 1.386 . S
C682 H701 0.930 . S
Eu683 N680 2.609 . S
Eu683 N684 2.657 . S
Eu683 O717 2.380 . S
Eu683 O718 2.432 . S
Eu683 O722 2.558 . S
Eu683 O723 2.612 . S
Eu683 O725 2.339 . S
Eu683 O726 2.563 . S
Eu683 O727 2.419 . S
Eu683 C747 2.848 . S
N684 C676 1.362 . S
N684 Eu683 2.657 . S
N684 C685 1.334 . S
C685 N684 1.334 . S
C685 C687 1.413 . S
C685 H692 0.929 . S
C686 C674 1.392 . S
C686 C687 1.367 . S
C686 H694 0.930 . S
C687 C685 1.413 . S
C687 C686 1.367 . S
C687 H689 0.930 . S
H688 C681 0.930 . S
H689 C687 0.930 . S
H690 C678 0.930 . S
H691 C679 0.930 . S
H692 C685 0.929 . S
H693 C707 0.930 . S
H694 C686 0.930 . S
H695 C713 0.930 . S
H696 C704 0.929 . S
H697 C711 0.930 . S
H698 C675 0.931 . S
H699 C705 0.930 . S
H700 C738 0.930 . S
H701 C682 0.930 . S
H702 C737 0.931 . S
N703 Eu672 2.657 . S
N703 C704 1.334 . S
N703 C708 1.362 . S
C704 H696 0.929 . S
C704 N703 1.334 . S
C704 C707 1.413 . S
C705 H699 0.930 . S
C705 C706 1.392 . S
C705 C707 1.367 . S
C706 C705 1.392 . S
C706 C708 1.420 . S
C706 C738 1.423 . S
C707 H693 0.930 . S
C707 C704 1.413 . S
C707 C705 1.367 . S
C708 N703 1.362 . S
C708 C706 1.420 . S
C708 C712 1.429 . S
H709 C714 0.930 . S
N710 Eu672 2.609 . S
N710 C712 1.377 . S
N710 C713 1.321 . S
C711 H697 0.930 . S
C711 C713 1.400 . S
C711 C714 1.386 . S
C712 C708 1.429 . S
C712 N710 1.377 . S
C712 C715 1.411 . S
C713 H695 0.930 . S
C713 N710 1.321 . S
C713 C711 1.400 . S
C714 H709 0.930 . S
C714 C711 1.386 . S
C714 C715 1.395 . S
C715 C712 1.411 . S
C715 C714 1.395 . S
C715 C737 1.420 . S
O716 Eu672 2.558 1_556 S
O716 C736 1.257 . S
O717 Eu672 2.612 . S
O717 Eu683 2.380 . S
O717 C728 1.276 1_554 S
O718 Eu683 2.432 . S
O718 C735 1.264 1_554 S
O719 Eu672 2.339 1_556 S
O719 C735 1.254 . S
O720 Eu672 2.563 1_556 S
O720 C728 1.235 . S
O721 Eu672 2.419 1_556 S
O721 C736 1.249 . S
O722 Eu683 2.558 . S
O722 C747 1.257 . S
O723 Eu672 2.380 . S
O723 Eu683 2.612 . S
O723 C739 1.276 . S
O724 Eu672 2.432 . S
O724 C746 1.264 . S
O725 Eu683 2.339 . S
O725 C746 1.254 . S
O726 Eu683 2.563 . S
O726 C739 1.235 . S
O727 Eu683 2.419 . S
O727 C747 1.249 . S
C728 O717 1.276 1_556 S
C728 O720 1.235 . S
C729 C731 1.393 . S
C729 C733 1.395 . S
C729 C736 1.492 . S
C730 C731 1.392 . S
C730 C732 1.386 . S
C731 C729 1.393 . S
C731 C730 1.392 . S
C731 H748 0.930 . S
C732 C730 1.386 . S
C732 C734 1.395 . S
C732 H749 0.930 . S
C733 C729 1.395 . S
C733 C734 1.379 . S
C733 H750 0.930 . S
C734 C732 1.395 . S
C734 C733 1.379 . S
C734 H751 0.930 . S
C735 O718 1.264 1_556 S
C735 O719 1.254 . S
C736 Eu672 2.848 1_556 S
C736 O716 1.257 . S
C736 O721 1.249 . S
C736 C729 1.492 . S
C737 H702 0.931 . S
C737 C715 1.420 . S
C737 C738 1.351 . S
C738 H700 0.930 . S
C738 C706 1.423 . S
C738 C737 1.351 . S
C739 O723 1.276 . S
C739 O726 1.235 . S
C740 C741 1.393 . S
C740 C744 1.395 . S
C740 C747 1.492 . S
C741 C740 1.393 . S
C741 C742 1.392 . S
C741 H752 0.930 . S
C742 C741 1.392 . S
C742 C743 1.386 . S
C743 C742 1.386 . S
C743 C745 1.395 . S
C743 H753 0.930 . S
C744 C740 1.395 . S
C744 C745 1.379 . S
C744 H754 0.930 . S
C745 C743 1.395 . S
C745 C744 1.379 . S
C745 H755 0.930 . S
C746 O724 1.264 . S
C746 O725 1.254 . S
C747 Eu683 2.848 . S
C747 O722 1.257 . S
C747 O727 1.249 . S
C747 C740 1.492 . S
H748 C731 0.930 . S
H749 C732 0.930 . S
H750 C733 0.930 . S
H751 C734 0.930 . S
H752 C741 0.930 . S
H753 C743 0.930 . S
H754 C744 0.930 . S
H755 C745 0.930 . S
Eu756 N787 2.657 . S
Eu756 N794 2.609 . S
Eu756 O800 2.558 1_556 S
Eu756 O801 2.612 . S
Eu756 O803 2.339 1_556 S
Eu756 O804 2.563 1_556 S
Eu756 O805 2.419 1_556 S
Eu756 O807 2.380 . S
Eu756 O808 2.432 . S
Eu756 C820 2.848 1_556 S
C757 C760 1.429 . S
C757 C761 1.411 1_556 S
C757 N764 1.377 . S
C758 C760 1.420 . S
C758 C762 1.423 1_556 S
C758 C770 1.392 . S
C759 C761 1.420 . S
C759 C762 1.351 . S
C759 H782 0.931 . S
C760 C757 1.429 . S
C760 C758 1.420 . S
C760 N768 1.362 . S
C761 C757 1.411 1_554 S
C761 C759 1.420 . S
C761 C766 1.395 . S
C762 C758 1.423 1_554 S
C762 C759 1.351 . S
C762 H774 0.930 . S
C763 C765 1.400 1_554 S
C763 C766 1.386 . S
C763 H775 0.930 . S
N764 C757 1.377 . S
N764 C765 1.321 . S
N764 Eu767 2.609 . S
C765 C763 1.400 1_556 S
C765 N764 1.321 . S
C765 H772 0.930 . S
C766 C761 1.395 . S
C766 C763 1.386 . S
C766 H785 0.930 . S
Eu767 N764 2.609 . S
Eu767 N768 2.657 . S
Eu767 O801 2.380 . S
Eu767 O802 2.432 . S
Eu767 O806 2.558 . S
Eu767 O807 2.612 . S
Eu767 O809 2.339 . S
Eu767 O810 2.563 . S
Eu767 O811 2.419 . S
Eu767 C831 2.848 . S
N768 C760 1.362 . S
N768 Eu767 2.657 . S
N768 C769 1.334 . S
C769 N768 1.334 . S
C769 C771 1.413 . S
C769 H776 0.929 . S
C770 C758 1.392 . S
C770 C771 1.367 . S
C770 H778 0.930 . S
C771 C769 1.413 . S
C771 C770 1.367 . S
C771 H773 0.930 . S
H772 C765 0.930 . S
H773 C771 0.930 . S
H774 C762 0.930 . S
H775 C763 0.930 . S
H776 C769 0.929 . S
H777 C791 0.930 . S
H778 C770 0.930 . S
H779 C797 0.930 . S
H780 C788 0.929 . S
H781 C795 0.930 . S
H782 C759 0.931 . S
H783 C789 0.930 . S
H784 C822 0.930 . S
H785 C766 0.930 . S
H786 C821 0.931 . S
N787 Eu756 2.657 . S
N787 C788 1.334 . S
N787 C792 1.362 . S
C788 H780 0.929 . S
C788 N787 1.334 . S
C788 C791 1.413 . S
C789 H783 0.930 . S
C789 C790 1.392 . S
C789 C791 1.367 . S
C790 C789 1.392 . S
C790 C792 1.420 . S
C790 C822 1.423 . S
C791 H777 0.930 . S
C791 C788 1.413 . S
C791 C789 1.367 . S
C792 N787 1.362 . S
C792 C790 1.420 . S
C792 C796 1.429 . S
H793 C798 0.930 . S
N794 Eu756 2.609 . S
N794 C796 1.377 . S
N794 C797 1.321 . S
C795 H781 0.930 . S
C795 C797 1.400 . S
C795 C798 1.386 . S
C796 C792 1.429 . S
C796 N794 1.377 . S
C796 C799 1.411 . S
C797 H779 0.930 . S
C797 N794 1.321 . S
C797 C795 1.400 . S
C798 H793 0.930 . S
C798 C795 1.386 . S
C798 C799 1.395 . S
C799 C796 1.411 . S
C799 C798 1.395 . S
C799 C821 1.420 . S
O800 Eu756 2.558 1_554 S
O800 C820 1.257 . S
O801 Eu756 2.612 . S
O801 Eu767 2.380 . S
O801 C812 1.276 1_556 S
O802 Eu767 2.432 . S
O802 C819 1.264 1_556 S
O803 Eu756 2.339 1_554 S
O803 C819 1.254 . S
O804 Eu756 2.563 1_554 S
O804 C812 1.235 . S
O805 Eu756 2.419 1_554 S
O805 C820 1.249 . S
O806 Eu767 2.558 . S
O806 C831 1.257 . S
O807 Eu756 2.380 . S
O807 Eu767 2.612 . S
O807 C823 1.276 . S
O808 Eu756 2.432 . S
O808 C830 1.264 . S
O809 Eu767 2.339 . S
O809 C830 1.254 . S
O810 Eu767 2.563 . S
O810 C823 1.235 . S
O811 Eu767 2.419 . S
O811 C831 1.249 . S
C812 O801 1.276 1_554 S
C812 O804 1.235 . S
C813 C815 1.393 . S
C813 C817 1.395 . S
C813 C820 1.492 . S
C814 C815 1.392 . S
C814 C816 1.386 . S
C815 C813 1.393 . S
C815 C814 1.392 . S
C815 H832 0.930 . S
C816 C814 1.386 . S
C816 C818 1.395 . S
C816 H833 0.930 . S
C817 C813 1.395 . S
C817 C818 1.379 . S
C817 H834 0.930 . S
C818 C816 1.395 . S
C818 C817 1.379 . S
C818 H835 0.930 . S
C819 O802 1.264 1_554 S
C819 O803 1.254 . S
C820 Eu756 2.848 1_554 S
C820 O800 1.257 . S
C820 O805 1.249 . S
C820 C813 1.492 . S
C821 H786 0.931 . S
C821 C799 1.420 . S
C821 C822 1.351 . S
C822 H784 0.930 . S
C822 C790 1.423 . S
C822 C821 1.351 . S
C823 O807 1.276 . S
C823 O810 1.235 . S
C824 C825 1.393 . S
C824 C828 1.395 . S
C824 C831 1.492 . S
C825 C824 1.393 . S
C825 C826 1.392 . S
C825 H836 0.930 . S
C826 C825 1.392 . S
C826 C827 1.386 . S
C827 C826 1.386 . S
C827 C829 1.395 . S
C827 H837 0.930 . S
C828 C824 1.395 . S
C828 C829 1.379 . S
C828 H838 0.930 . S
C829 C827 1.395 . S
C829 C828 1.379 . S
C829 H839 0.930 . S
C830 O808 1.264 . S
C830 O809 1.254 . S
C831 Eu767 2.848 . S
C831 O806 1.257 . S
C831 O811 1.249 . S
C831 C824 1.492 . S
H832 C815 0.930 . S
H833 C816 0.930 . S
H834 C817 0.930 . S
H835 C818 0.930 . S
H836 C825 0.930 . S
H837 C827 0.930 . S
H838 C828 0.930 . S
H839 C829 0.930 . S
Eu840 N871 2.657 . S
Eu840 N878 2.609 . S
Eu840 O884 2.558 . S
Eu840 O885 2.612 . S
Eu840 O887 2.339 . S
Eu840 O888 2.563 . S
Eu840 O889 2.419 . S
Eu840 O891 2.380 . S
Eu840 O892 2.432 . S
Eu840 C904 2.848 . S
C841 C844 1.429 . S
C841 C845 1.411 . S
C841 N848 1.377 . S
C842 C844 1.420 . S
C842 C846 1.423 . S
C842 C854 1.392 . S
C843 C845 1.420 . S
C843 C846 1.351 . S
C843 H866 0.931 . S
C844 C841 1.429 . S
C844 C842 1.420 . S
C844 N852 1.362 . S
C845 C841 1.411 . S
C845 C843 1.420 . S
C845 C850 1.395 . S
C846 C842 1.423 . S
C846 C843 1.351 . S
C846 H858 0.930 . S
C847 C849 1.400 . S
C847 C850 1.386 . S
C847 H859 0.930 . S
N848 C841 1.377 . S
N848 C849 1.321 . S
N848 Eu851 2.609 . S
C849 C847 1.400 . S
C849 N848 1.321 . S
C849 H856 0.930 . S
C850 C845 1.395 . S
C850 C847 1.386 . S
C850 H869 0.930 . S
Eu851 N848 2.609 . S
Eu851 N852 2.657 . S
Eu851 O885 2.380 . S
Eu851 O886 2.432 . S
Eu851 O890 2.558 . S
Eu851 O891 2.612 . S
Eu851 O893 2.339 . S
Eu851 O894 2.563 . S
Eu851 O895 2.419 . S
Eu851 C915 2.848 . S
N852 C844 1.362 . S
N852 Eu851 2.657 . S
N852 C853 1.334 . S
C853 N852 1.334 . S
C853 C855 1.413 . S
C853 H860 0.929 . S
C854 C842 1.392 . S
C854 C855 1.367 . S
C854 H862 0.930 . S
C855 C853 1.413 . S
C855 C854 1.367 . S
C855 H857 0.930 . S
H856 C849 0.930 . S
H857 C855 0.930 . S
H858 C846 0.930 . S
H859 C847 0.930 . S
H860 C853 0.929 . S
H861 C875 0.930 . S
H862 C854 0.930 . S
H863 C881 0.930 . S
H864 C872 0.929 . S
H865 C879 0.930 . S
H866 C843 0.931 . S
H867 C873 0.930 . S
H868 C906 0.930 . S
H869 C850 0.930 . S
H870 C905 0.931 . S
N871 Eu840 2.657 . S
N871 C872 1.334 . S
N871 C876 1.362 . S
C872 H864 0.929 . S
C872 N871 1.334 . S
C872 C875 1.413 . S
C873 H867 0.930 . S
C873 C874 1.392 . S
C873 C875 1.367 . S
C874 C873 1.392 . S
C874 C876 1.420 . S
C874 C906 1.423 . S
C875 H861 0.930 . S
C875 C872 1.413 . S
C875 C873 1.367 . S
C876 N871 1.362 . S
C876 C874 1.420 . S
C876 C880 1.429 . S
H877 C882 0.930 . S
N878 Eu840 2.609 . S
N878 C880 1.377 . S
N878 C881 1.321 . S
C879 H865 0.930 . S
C879 C881 1.400 . S
C879 C882 1.386 . S
C880 C876 1.429 . S
C880 N878 1.377 . S
C880 C883 1.411 . S
C881 H863 0.930 . S
C881 N878 1.321 . S
C881 C879 1.400 . S
C882 H877 0.930 . S
C882 C879 1.386 . S
C882 C883 1.395 . S
C883 C880 1.411 . S
C883 C882 1.395 . S
C883 C905 1.420 . S
O884 Eu840 2.558 . S
O884 C904 1.257 . S
O885 Eu840 2.612 . S
O885 Eu851 2.380 . S
O885 C896 1.276 . S
O886 Eu851 2.432 . S
O886 C903 1.264 . S
O887 Eu840 2.339 . S
O887 C903 1.254 . S
O888 Eu840 2.563 . S
O888 C896 1.235 . S
O889 Eu840 2.419 . S
O889 C904 1.249 . S
O890 Eu851 2.558 . S
O890 C915 1.257 . S
O891 Eu840 2.380 . S
O891 Eu851 2.612 . S
O891 C907 1.276 . S
O892 Eu840 2.432 . S
O892 C914 1.264 . S
O893 Eu851 2.339 . S
O893 C914 1.254 . S
O894 Eu851 2.563 . S
O894 C907 1.235 . S
O895 Eu851 2.419 . S
O895 C915 1.249 . S
C896 O885 1.276 . S
C896 O888 1.235 . S
C897 C899 1.393 . S
C897 C901 1.395 . S
C897 C904 1.492 . S
C898 C899 1.392 . S
C898 C900 1.386 . S
C899 C897 1.393 . S
C899 C898 1.392 . S
C899 H916 0.930 . S
C900 C898 1.386 . S
C900 C902 1.395 . S
C900 H917 0.930 . S
C901 C897 1.395 . S
C901 C902 1.379 . S
C901 H918 0.930 . S
C902 C900 1.395 . S
C902 C901 1.379 . S
C902 H919 0.930 . S
C903 O886 1.264 . S
C903 O887 1.254 . S
C904 Eu840 2.848 . S
C904 O884 1.257 . S
C904 O889 1.249 . S
C904 C897 1.492 . S
C905 H870 0.931 . S
C905 C883 1.420 . S
C905 C906 1.351 . S
C906 H868 0.930 . S
C906 C874 1.423 . S
C906 C905 1.351 . S
C907 O891 1.276 . S
C907 O894 1.235 . S
C908 C909 1.393 . S
C908 C912 1.395 . S
C908 C915 1.492 . S
C909 C908 1.393 . S
C909 C910 1.392 . S
C909 H920 0.930 . S
C910 C909 1.392 . S
C910 C911 1.386 . S
C911 C910 1.386 . S
C911 C913 1.395 . S
C911 H921 0.930 . S
C912 C908 1.395 . S
C912 C913 1.379 . S
C912 H922 0.930 . S
C913 C911 1.395 . S
C913 C912 1.379 . S
C913 H923 0.930 . S
C914 O892 1.264 . S
C914 O893 1.254 . S
C915 Eu851 2.848 . S
C915 O890 1.257 . S
C915 O895 1.249 . S
C915 C908 1.492 . S
H916 C899 0.930 . S
H917 C900 0.930 . S
H918 C901 0.930 . S
H919 C902 0.930 . S
H920 C909 0.930 . S
H921 C911 0.930 . S
H922 C912 0.930 . S
H923 C913 0.930 . S
Eu924 N955 2.657 . S
Eu924 N962 2.609 . S
Eu924 O968 2.558 . S
Eu924 O969 2.612 . S
Eu924 O971 2.339 . S
Eu924 O972 2.563 . S
Eu924 O973 2.419 . S
Eu924 O975 2.380 . S
Eu924 O976 2.432 . S
Eu924 C988 2.848 . S
C925 C928 1.429 . S
C925 C929 1.411 . S
C925 N932 1.377 . S
C926 C928 1.420 . S
C926 C930 1.423 . S
C926 C938 1.392 . S
C927 C929 1.420 . S
C927 C930 1.351 . S
C927 H950 0.931 . S
C928 C925 1.429 . S
C928 C926 1.420 . S
C928 N936 1.362 . S
C929 C925 1.411 . S
C929 C927 1.420 . S
C929 C934 1.395 . S
C930 C926 1.423 . S
C930 C927 1.351 . S
C930 H942 0.930 . S
C931 C933 1.400 . S
C931 C934 1.386 . S
C931 H943 0.930 . S
N932 C925 1.377 . S
N932 C933 1.321 . S
N932 Eu935 2.609 . S
C933 C931 1.400 . S
C933 N932 1.321 . S
C933 H940 0.930 . S
C934 C929 1.395 . S
C934 C931 1.386 . S
C934 H953 0.930 . S
Eu935 N932 2.609 . S
Eu935 N936 2.657 . S
Eu935 O969 2.380 . S
Eu935 O970 2.432 . S
Eu935 O974 2.558 . S
Eu935 O975 2.612 . S
Eu935 O977 2.339 . S
Eu935 O978 2.563 . S
Eu935 O979 2.419 . S
Eu935 C999 2.848 . S
N936 C928 1.362 . S
N936 Eu935 2.657 . S
N936 C937 1.334 . S
C937 N936 1.334 . S
C937 C939 1.413 . S
C937 H944 0.929 . S
C938 C926 1.392 . S
C938 C939 1.367 . S
C938 H946 0.930 . S
C939 C937 1.413 . S
C939 C938 1.367 . S
C939 H941 0.930 . S
H940 C933 0.930 . S
H941 C939 0.930 . S
H942 C930 0.930 . S
H943 C931 0.930 . S
H944 C937 0.929 . S
H945 C959 0.930 . S
H946 C938 0.930 . S
H947 C965 0.930 . S
H948 C956 0.929 . S
H949 C963 0.930 . S
H950 C927 0.931 . S
H951 C957 0.930 . S
H952 C990 0.930 . S
H953 C934 0.930 . S
H954 C989 0.931 . S
N955 Eu924 2.657 . S
N955 C956 1.334 . S
N955 C960 1.362 . S
C956 H948 0.929 . S
C956 N955 1.334 . S
C956 C959 1.413 . S
C957 H951 0.930 . S
C957 C958 1.392 . S
C957 C959 1.367 . S
C958 C957 1.392 . S
C958 C960 1.420 . S
C958 C990 1.423 . S
C959 H945 0.930 . S
C959 C956 1.413 . S
C959 C957 1.367 . S
C960 N955 1.362 . S
C960 C958 1.420 . S
C960 C964 1.429 . S
H961 C966 0.930 . S
N962 Eu924 2.609 . S
N962 C964 1.377 . S
N962 C965 1.321 . S
C963 H949 0.930 . S
C963 C965 1.400 . S
C963 C966 1.386 . S
C964 C960 1.429 . S
C964 N962 1.377 . S
C964 C967 1.411 . S
C965 H947 0.930 . S
C965 N962 1.321 . S
C965 C963 1.400 . S
C966 H961 0.930 . S
C966 C963 1.386 . S
C966 C967 1.395 . S
C967 C964 1.411 . S
C967 C966 1.395 . S
C967 C989 1.420 . S
O968 Eu924 2.558 . S
O968 C988 1.257 . S
O969 Eu924 2.612 . S
O969 Eu935 2.380 . S
O969 C980 1.276 . S
O970 Eu935 2.432 . S
O970 C987 1.264 . S
O971 Eu924 2.339 . S
O971 C987 1.254 . S
O972 Eu924 2.563 . S
O972 C980 1.235 . S
O973 Eu924 2.419 . S
O973 C988 1.249 . S
O974 Eu935 2.558 . S
O974 C999 1.257 . S
O975 Eu924 2.380 . S
O975 Eu935 2.612 . S
O975 C991 1.276 . S
O976 Eu924 2.432 . S
O976 C998 1.264 . S
O977 Eu935 2.339 . S
O977 C998 1.254 . S
O978 Eu935 2.563 . S
O978 C991 1.235 . S
O979 Eu935 2.419 . S
O979 C999 1.249 . S
C980 O969 1.276 . S
C980 O972 1.235 . S
C981 C983 1.393 . S
C981 C985 1.395 . S
C981 C988 1.492 . S
C982 C983 1.392 . S
C982 C984 1.386 . S
C983 C981 1.393 . S
C983 C982 1.392 . S
C983 H1000 0.930 . S
C984 C982 1.386 . S
C984 C986 1.395 . S
C984 H1001 0.930 . S
C985 C981 1.395 . S
C985 C986 1.379 . S
C985 H1002 0.930 . S
C986 C984 1.395 . S
C986 C985 1.379 . S
C986 H1003 0.930 . S
C987 O970 1.264 . S
C987 O971 1.254 . S
C988 Eu924 2.848 . S
C988 O968 1.257 . S
C988 O973 1.249 . S
C988 C981 1.492 . S
C989 H954 0.931 . S
C989 C967 1.420 . S
C989 C990 1.351 . S
C990 H952 0.930 . S
C990 C958 1.423 . S
C990 C989 1.351 . S
C991 O975 1.276 . S
C991 O978 1.235 . S
C992 C993 1.393 . S
C992 C996 1.395 . S
C992 C999 1.492 . S
C993 C992 1.393 . S
C993 C994 1.392 . S
C993 H1004 0.930 . S
C994 C993 1.392 . S
C994 C995 1.386 . S
C995 C994 1.386 . S
C995 C997 1.395 . S
C995 H1005 0.930 . S
C996 C992 1.395 . S
C996 C997 1.379 . S
C996 H1006 0.930 . S
C997 C995 1.395 . S
C997 C996 1.379 . S
C997 H1007 0.930 . S
C998 O976 1.264 . S
C998 O977 1.254 . S
C999 Eu935 2.848 . S
C999 O974 1.257 . S
C999 O979 1.249 . S
C999 C992 1.492 . S
H1000 C983 0.930 . S
H1001 C984 0.930 . S
H1002 C985 0.930 . S
H1003 C986 0.930 . S
H1004 C993 0.930 . S
H1005 C995 0.930 . S
H1006 C996 0.930 . S
H1007 C997 0.930 . S
Eu1008 N1039 2.657 . S
Eu1008 N1046 2.609 . S
Eu1008 O1052 2.558 . S
Eu1008 O1053 2.612 . S
Eu1008 O1055 2.339 . S
Eu1008 O1056 2.563 . S
Eu1008 O1057 2.419 . S
Eu1008 O1059 2.380 . S
Eu1008 O1060 2.432 . S
Eu1008 C1072 2.848 . S
C1009 C1012 1.429 . S
C1009 C1013 1.411 . S
C1009 N1016 1.377 . S
C1010 C1012 1.420 . S
C1010 C1014 1.423 . S
C1010 C1022 1.392 . S
C1011 C1013 1.420 . S
C1011 C1014 1.351 . S
C1011 H1034 0.931 . S
C1012 C1009 1.429 . S
C1012 C1010 1.420 . S
C1012 N1020 1.362 . S
C1013 C1009 1.411 . S
C1013 C1011 1.420 . S
C1013 C1018 1.395 . S
C1014 C1010 1.423 . S
C1014 C1011 1.351 . S
C1014 H1026 0.930 . S
C1015 C1017 1.400 . S
C1015 C1018 1.386 . S
C1015 H1027 0.930 . S
N1016 C1009 1.377 . S
N1016 C1017 1.321 . S
N1016 Eu1019 2.609 . S
C1017 C1015 1.400 . S
C1017 N1016 1.321 . S
C1017 H1024 0.930 . S
C1018 C1013 1.395 . S
C1018 C1015 1.386 . S
C1018 H1037 0.930 . S
Eu1019 N1016 2.609 . S
Eu1019 N1020 2.657 . S
Eu1019 O1053 2.380 . S
Eu1019 O1054 2.432 . S
Eu1019 O1058 2.558 1_655 S
Eu1019 O1059 2.612 . S
Eu1019 O1061 2.339 1_655 S
Eu1019 O1062 2.563 1_655 S
Eu1019 O1063 2.419 1_655 S
Eu1019 C1083 2.848 1_655 S
N1020 C1012 1.362 . S
N1020 Eu1019 2.657 . S
N1020 C1021 1.334 . S
C1021 N1020 1.334 . S
C1021 C1023 1.413 . S
C1021 H1028 0.929 . S
C1022 C1010 1.392 . S
C1022 C1023 1.367 . S
C1022 H1030 0.930 . S
C1023 C1021 1.413 . S
C1023 C1022 1.367 . S
C1023 H1025 0.930 . S
H1024 C1017 0.930 . S
H1025 C1023 0.930 . S
H1026 C1014 0.930 . S
H1027 C1015 0.930 . S
H1028 C1021 0.929 . S
H1029 C1043 0.930 . S
H1030 C1022 0.930 . S
H1031 C1049 0.930 . S
H1032 C1040 0.929 . S
H1033 C1047 0.930 . S
H1034 C1011 0.931 . S
H1035 C1041 0.930 . S
H1036 C1074 0.930 . S
H1037 C1018 0.930 . S
H1038 C1073 0.931 . S
N1039 Eu1008 2.657 . S
N1039 C1040 1.334 . S
N1039 C1044 1.362 . S
C1040 H1032 0.929 . S
C1040 N1039 1.334 . S
C1040 C1043 1.413 . S
C1041 H1035 0.930 . S
C1041 C1042 1.392 . S
C1041 C1043 1.367 . S
C1042 C1041 1.392 . S
C1042 C1044 1.420 . S
C1042 C1074 1.423 1_655 S
C1043 H1029 0.930 . S
C1043 C1040 1.413 . S
C1043 C1041 1.367 . S
C1044 N1039 1.362 . S
C1044 C1042 1.420 . S
C1044 C1048 1.429 . S
H1045 C1050 0.930 . S
N1046 Eu1008 2.609 . S
N1046 C1048 1.377 . S
N1046 C1049 1.321 . S
C1047 H1033 0.930 . S
C1047 C1049 1.400 1_455 S
C1047 C1050 1.386 . S
C1048 C1044 1.429 . S
C1048 N1046 1.377 . S
C1048 C1051 1.411 1_655 S
C1049 H1031 0.930 . S
C1049 N1046 1.321 . S
C1049 C1047 1.400 1_655 S
C1050 H1045 0.930 . S
C1050 C1047 1.386 . S
C1050 C1051 1.395 . S
C1051 C1048 1.411 1_455 S
C1051 C1050 1.395 . S
C1051 C1073 1.420 . S
O1052 Eu1008 2.558 . S
O1052 C1072 1.257 . S
O1053 Eu1008 2.612 . S
O1053 Eu1019 2.380 . S
O1053 C1064 1.276 . S
O1054 Eu1019 2.432 . S
O1054 C1071 1.264 . S
O1055 Eu1008 2.339 . S
O1055 C1071 1.254 . S
O1056 Eu1008 2.563 . S
O1056 C1064 1.235 . S
O1057 Eu1008 2.419 . S
O1057 C1072 1.249 . S
O1058 Eu1019 2.558 1_455 S
O1058 C1083 1.257 . S
O1059 Eu1008 2.380 . S
O1059 Eu1019 2.612 . S
O1059 C1075 1.276 1_655 S
O1060 Eu1008 2.432 . S
O1060 C1082 1.264 1_655 S
O1061 Eu1019 2.339 1_455 S
O1061 C1082 1.254 . S
O1062 Eu1019 2.563 1_455 S
O1062 C1075 1.235 . S
O1063 Eu1019 2.419 1_455 S
O1063 C1083 1.249 . S
C1064 O1053 1.276 . S
C1064 O1056 1.235 . S
C1065 C1067 1.393 . S
C1065 C1069 1.395 . S
C1065 C1072 1.492 . S
C1066 C1067 1.392 . S
C1066 C1068 1.386 . S
C1067 C1065 1.393 . S
C1067 C1066 1.392 . S
C1067 H1084 0.930 . S
C1068 C1066 1.386 . S
C1068 C1070 1.395 . S
C1068 H1085 0.930 . S
C1069 C1065 1.395 . S
C1069 C1070 1.379 . S
C1069 H1086 0.930 . S
C1070 C1068 1.395 . S
C1070 C1069 1.379 . S
C1070 H1087 0.930 . S
C1071 O1054 1.264 . S
C1071 O1055 1.254 . S
C1072 Eu1008 2.848 . S
C1072 O1052 1.257 . S
C1072 O1057 1.249 . S
C1072 C1065 1.492 . S
C1073 H1038 0.931 . S
C1073 C1051 1.420 . S
C1073 C1074 1.351 . S
C1074 H1036 0.930 . S
C1074 C1042 1.423 1_455 S
C1074 C1073 1.351 . S
C1075 O1059 1.276 1_455 S
C1075 O1062 1.235 . S
C1076 C1077 1.393 . S
C1076 C1080 1.395 . S
C1076 C1083 1.492 . S
C1077 C1076 1.393 . S
C1077 C1078 1.392 . S
C1077 H1088 0.930 . S
C1078 C1077 1.392 . S
C1078 C1079 1.386 . S
C1079 C1078 1.386 . S
C1079 C1081 1.395 . S
C1079 H1089 0.930 . S
C1080 C1076 1.395 . S
C1080 C1081 1.379 . S
C1080 H1090 0.930 . S
C1081 C1079 1.395 . S
C1081 C1080 1.379 . S
C1081 H1091 0.930 . S
C1082 O1060 1.264 1_455 S
C1082 O1061 1.254 . S
C1083 Eu1019 2.848 1_455 S
C1083 O1058 1.257 . S
C1083 O1063 1.249 . S
C1083 C1076 1.492 . S
H1084 C1067 0.930 . S
H1085 C1068 0.930 . S
H1086 C1069 0.930 . S
H1087 C1070 0.930 . S
H1088 C1077 0.930 . S
H1089 C1079 0.930 . S
H1090 C1080 0.930 . S
H1091 C1081 0.930 . S
Eu1092 N1123 2.657 . S
Eu1092 N1130 2.609 . S
Eu1092 O1136 2.558 . S
Eu1092 O1137 2.612 . S
Eu1092 O1139 2.339 . S
Eu1092 O1140 2.563 . S
Eu1092 O1141 2.419 . S
Eu1092 O1143 2.380 . S
Eu1092 O1144 2.432 . S
Eu1092 C1156 2.848 . S
C1093 C1096 1.429 . S
C1093 C1097 1.411 . S
C1093 N1100 1.377 . S
C1094 C1096 1.420 . S
C1094 C1098 1.423 . S
C1094 C1106 1.392 . S
C1095 C1097 1.420 . S
C1095 C1098 1.351 . S
C1095 H1118 0.931 . S
C1096 C1093 1.429 . S
C1096 C1094 1.420 . S
C1096 N1104 1.362 . S
C1097 C1093 1.411 . S
C1097 C1095 1.420 . S
C1097 C1102 1.395 . S
C1098 C1094 1.423 . S
C1098 C1095 1.351 . S
C1098 H1110 0.930 . S
C1099 C1101 1.400 . S
C1099 C1102 1.386 . S
C1099 H1111 0.930 . S
N1100 C1093 1.377 . S
N1100 C1101 1.321 . S
N1100 Eu1103 2.609 . S
C1101 C1099 1.400 . S
C1101 N1100 1.321 . S
C1101 H1108 0.930 . S
C1102 C1097 1.395 . S
C1102 C1099 1.386 . S
C1102 H1121 0.930 . S
Eu1103 N1100 2.609 . S
Eu1103 N1104 2.657 . S
Eu1103 O1137 2.380 . S
Eu1103 O1138 2.432 . S
Eu1103 O1142 2.558 . S
Eu1103 O1143 2.612 . S
Eu1103 O1145 2.339 . S
Eu1103 O1146 2.563 . S
Eu1103 O1147 2.419 . S
Eu1103 C1167 2.848 . S
N1104 C1096 1.362 . S
N1104 Eu1103 2.657 . S
N1104 C1105 1.334 . S
C1105 N1104 1.334 . S
C1105 C1107 1.413 . S
C1105 H1112 0.929 . S
C1106 C1094 1.392 . S
C1106 C1107 1.367 . S
C1106 H1114 0.930 . S
C1107 C1105 1.413 . S
C1107 C1106 1.367 . S
C1107 H1109 0.930 . S
H1108 C1101 0.930 . S
H1109 C1107 0.930 . S
H1110 C1098 0.930 . S
H1111 C1099 0.930 . S
H1112 C1105 0.929 . S
H1113 C1127 0.930 . S
H1114 C1106 0.930 . S
H1115 C1133 0.930 . S
H1116 C1124 0.929 . S
H1117 C1131 0.930 . S
H1118 C1095 0.931 . S
H1119 C1125 0.930 . S
H1120 C1158 0.930 . S
H1121 C1102 0.930 . S
H1122 C1157 0.931 . S
N1123 Eu1092 2.657 . S
N1123 C1124 1.334 . S
N1123 C1128 1.362 . S
C1124 H1116 0.929 . S
C1124 N1123 1.334 . S
C1124 C1127 1.413 . S
C1125 H1119 0.930 . S
C1125 C1126 1.392 . S
C1125 C1127 1.367 . S
C1126 C1125 1.392 . S
C1126 C1128 1.420 . S
C1126 C1158 1.423 . S
C1127 H1113 0.930 . S
C1127 C1124 1.413 . S
C1127 C1125 1.367 . S
C1128 N1123 1.362 . S
C1128 C1126 1.420 . S
C1128 C1132 1.429 . S
H1129 C1134 0.930 . S
N1130 Eu1092 2.609 . S
N1130 C1132 1.377 . S
N1130 C1133 1.321 . S
C1131 H1117 0.930 . S
C1131 C1133 1.400 . S
C1131 C1134 1.386 . S
C1132 C1128 1.429 . S
C1132 N1130 1.377 . S
C1132 C1135 1.411 . S
C1133 H1115 0.930 . S
C1133 N1130 1.321 . S
C1133 C1131 1.400 . S
C1134 H1129 0.930 . S
C1134 C1131 1.386 . S
C1134 C1135 1.395 . S
C1135 C1132 1.411 . S
C1135 C1134 1.395 . S
C1135 C1157 1.420 . S
O1136 Eu1092 2.558 . S
O1136 C1156 1.257 . S
O1137 Eu1092 2.612 . S
O1137 Eu1103 2.380 . S
O1137 C1148 1.276 . S
O1138 Eu1103 2.432 . S
O1138 C1155 1.264 . S
O1139 Eu1092 2.339 . S
O1139 C1155 1.254 . S
O1140 Eu1092 2.563 . S
O1140 C1148 1.235 . S
O1141 Eu1092 2.419 . S
O1141 C1156 1.249 . S
O1142 Eu1103 2.558 . S
O1142 C1167 1.257 . S
O1143 Eu1092 2.380 . S
O1143 Eu1103 2.612 . S
O1143 C1159 1.276 . S
O1144 Eu1092 2.432 . S
O1144 C1166 1.264 . S
O1145 Eu1103 2.339 . S
O1145 C1166 1.254 . S
O1146 Eu1103 2.563 . S
O1146 C1159 1.235 . S
O1147 Eu1103 2.419 . S
O1147 C1167 1.249 . S
C1148 O1137 1.276 . S
C1148 O1140 1.235 . S
C1149 C1151 1.393 . S
C1149 C1153 1.395 . S
C1149 C1156 1.492 . S
C1150 C1151 1.392 . S
C1150 C1152 1.386 . S
C1151 C1149 1.393 . S
C1151 C1150 1.392 . S
C1151 H1168 0.930 . S
C1152 C1150 1.386 . S
C1152 C1154 1.395 . S
C1152 H1169 0.930 . S
C1153 C1149 1.395 . S
C1153 C1154 1.379 . S
C1153 H1170 0.930 . S
C1154 C1152 1.395 . S
C1154 C1153 1.379 . S
C1154 H1171 0.930 . S
C1155 O1138 1.264 . S
C1155 O1139 1.254 . S
C1156 Eu1092 2.848 . S
C1156 O1136 1.257 . S
C1156 O1141 1.249 . S
C1156 C1149 1.492 . S
C1157 H1122 0.931 . S
C1157 C1135 1.420 . S
C1157 C1158 1.351 . S
C1158 H1120 0.930 . S
C1158 C1126 1.423 . S
C1158 C1157 1.351 . S
C1159 O1143 1.276 . S
C1159 O1146 1.235 . S
C1160 C1161 1.393 . S
C1160 C1164 1.395 . S
C1160 C1167 1.492 . S
C1161 C1160 1.393 . S
C1161 C1162 1.392 . S
C1161 H1172 0.930 . S
C1162 C1161 1.392 . S
C1162 C1163 1.386 . S
C1163 C1162 1.386 . S
C1163 C1165 1.395 . S
C1163 H1173 0.930 . S
C1164 C1160 1.395 . S
C1164 C1165 1.379 . S
C1164 H1174 0.930 . S
C1165 C1163 1.395 . S
C1165 C1164 1.379 . S
C1165 H1175 0.930 . S
C1166 O1144 1.264 . S
C1166 O1145 1.254 . S
C1167 Eu1103 2.848 . S
C1167 O1142 1.257 . S
C1167 O1147 1.249 . S
C1167 C1160 1.492 . S
H1168 C1151 0.930 . S
H1169 C1152 0.930 . S
H1170 C1153 0.930 . S
H1171 C1154 0.930 . S
H1172 C1161 0.930 . S
H1173 C1163 0.930 . S
H1174 C1164 0.930 . S
H1175 C1165 0.930 . S
Eu1176 N1207 2.657 . S
Eu1176 N1214 2.609 . S
Eu1176 O1220 2.558 . S
Eu1176 O1221 2.612 . S
Eu1176 O1223 2.339 . S
Eu1176 O1224 2.563 . S
Eu1176 O1225 2.419 . S
Eu1176 O1227 2.380 . S
Eu1176 O1228 2.432 . S
Eu1176 C1240 2.848 . S
C1177 C1180 1.429 . S
C1177 C1181 1.411 . S
C1177 N1184 1.377 . S
C1178 C1180 1.420 . S
C1178 C1182 1.423 . S
C1178 C1190 1.392 . S
C1179 C1181 1.420 . S
C1179 C1182 1.351 . S
C1179 H1202 0.931 . S
C1180 C1177 1.429 . S
C1180 C1178 1.420 . S
C1180 N1188 1.362 . S
C1181 C1177 1.411 . S
C1181 C1179 1.420 . S
C1181 C1186 1.395 . S
C1182 C1178 1.423 . S
C1182 C1179 1.351 . S
C1182 H1194 0.930 . S
C1183 C1185 1.400 . S
C1183 C1186 1.386 . S
C1183 H1195 0.930 . S
N1184 C1177 1.377 . S
N1184 C1185 1.321 . S
N1184 Eu1187 2.609 . S
C1185 C1183 1.400 . S
C1185 N1184 1.321 . S
C1185 H1192 0.930 . S
C1186 C1181 1.395 . S
C1186 C1183 1.386 . S
C1186 H1205 0.930 . S
Eu1187 N1184 2.609 . S
Eu1187 N1188 2.657 . S
Eu1187 O1221 2.380 . S
Eu1187 O1222 2.432 . S
Eu1187 O1226 2.558 . S
Eu1187 O1227 2.612 . S
Eu1187 O1229 2.339 . S
Eu1187 O1230 2.563 . S
Eu1187 O1231 2.419 . S
Eu1187 C1251 2.848 . S
N1188 C1180 1.362 . S
N1188 Eu1187 2.657 . S
N1188 C1189 1.334 . S
C1189 N1188 1.334 . S
C1189 C1191 1.413 . S
C1189 H1196 0.929 . S
C1190 C1178 1.392 . S
C1190 C1191 1.367 . S
C1190 H1198 0.930 . S
C1191 C1189 1.413 . S
C1191 C1190 1.367 . S
C1191 H1193 0.930 . S
H1192 C1185 0.930 . S
H1193 C1191 0.930 . S
H1194 C1182 0.930 . S
H1195 C1183 0.930 . S
H1196 C1189 0.929 . S
H1197 C1211 0.930 . S
H1198 C1190 0.930 . S
H1199 C1217 0.930 . S
H1200 C1208 0.929 . S
H1201 C1215 0.930 . S
H1202 C1179 0.931 . S
H1203 C1209 0.930 . S
H1204 C1242 0.930 . S
H1205 C1186 0.930 . S
H1206 C1241 0.931 . S
N1207 Eu1176 2.657 . S
N1207 C1208 1.334 . S
N1207 C1212 1.362 . S
C1208 H1200 0.929 . S
C1208 N1207 1.334 . S
C1208 C1211 1.413 . S
C1209 H1203 0.930 . S
C1209 C1210 1.392 . S
C1209 C1211 1.367 . S
C1210 C1209 1.392 . S
C1210 C1212 1.420 . S
C1210 C1242 1.423 . S
C1211 H1197 0.930 . S
C1211 C1208 1.413 . S
C1211 C1209 1.367 . S
C1212 N1207 1.362 . S
C1212 C1210 1.420 . S
C1212 C1216 1.429 . S
H1213 C1218 0.930 . S
N1214 Eu1176 2.609 . S
N1214 C1216 1.377 . S
N1214 C1217 1.321 . S
C1215 H1201 0.930 . S
C1215 C1217 1.400 . S
C1215 C1218 1.386 . S
C1216 C1212 1.429 . S
C1216 N1214 1.377 . S
C1216 C1219 1.411 . S
C1217 H1199 0.930 . S
C1217 N1214 1.321 . S
C1217 C1215 1.400 . S
C1218 H1213 0.930 . S
C1218 C1215 1.386 . S
C1218 C1219 1.395 . S
C1219 C1216 1.411 . S
C1219 C1218 1.395 . S
C1219 C1241 1.420 . S
O1220 Eu1176 2.558 . S
O1220 C1240 1.257 . S
O1221 Eu1176 2.612 . S
O1221 Eu1187 2.380 . S
O1221 C1232 1.276 . S
O1222 Eu1187 2.432 . S
O1222 C1239 1.264 . S
O1223 Eu1176 2.339 . S
O1223 C1239 1.254 . S
O1224 Eu1176 2.563 . S
O1224 C1232 1.235 . S
O1225 Eu1176 2.419 . S
O1225 C1240 1.249 . S
O1226 Eu1187 2.558 . S
O1226 C1251 1.257 . S
O1227 Eu1176 2.380 . S
O1227 Eu1187 2.612 . S
O1227 C1243 1.276 . S
O1228 Eu1176 2.432 . S
O1228 C1250 1.264 . S
O1229 Eu1187 2.339 . S
O1229 C1250 1.254 . S
O1230 Eu1187 2.563 . S
O1230 C1243 1.235 . S
O1231 Eu1187 2.419 . S
O1231 C1251 1.249 . S
C1232 O1221 1.276 . S
C1232 O1224 1.235 . S
C1233 C1235 1.393 . S
C1233 C1237 1.395 . S
C1233 C1240 1.492 . S
C1234 C1235 1.392 . S
C1234 C1236 1.386 . S
C1235 C1233 1.393 . S
C1235 C1234 1.392 . S
C1235 H1252 0.930 . S
C1236 C1234 1.386 . S
C1236 C1238 1.395 . S
C1236 H1253 0.930 . S
C1237 C1233 1.395 . S
C1237 C1238 1.379 . S
C1237 H1254 0.930 . S
C1238 C1236 1.395 . S
C1238 C1237 1.379 . S
C1238 H1255 0.930 . S
C1239 O1222 1.264 . S
C1239 O1223 1.254 . S
C1240 Eu1176 2.848 . S
C1240 O1220 1.257 . S
C1240 O1225 1.249 . S
C1240 C1233 1.492 . S
C1241 H1206 0.931 . S
C1241 C1219 1.420 . S
C1241 C1242 1.351 . S
C1242 H1204 0.930 . S
C1242 C1210 1.423 . S
C1242 C1241 1.351 . S
C1243 O1227 1.276 . S
C1243 O1230 1.235 . S
C1244 C1245 1.393 . S
C1244 C1248 1.395 . S
C1244 C1251 1.492 . S
C1245 C1244 1.393 . S
C1245 C1246 1.392 . S
C1245 H1256 0.930 . S
C1246 C1245 1.392 . S
C1246 C1247 1.386 . S
C1247 C1246 1.386 . S
C1247 C1249 1.395 . S
C1247 H1257 0.930 . S
C1248 C1244 1.395 . S
C1248 C1249 1.379 . S
C1248 H1258 0.930 . S
C1249 C1247 1.395 . S
C1249 C1248 1.379 . S
C1249 H1259 0.930 . S
C1250 O1228 1.264 . S
C1250 O1229 1.254 . S
C1251 Eu1187 2.848 . S
C1251 O1226 1.257 . S
C1251 O1231 1.249 . S
C1251 C1244 1.492 . S
H1252 C1235 0.930 . S
H1253 C1236 0.930 . S
H1254 C1237 0.930 . S
H1255 C1238 0.930 . S
H1256 C1245 0.930 . S
H1257 C1247 0.930 . S
H1258 C1248 0.930 . S
H1259 C1249 0.930 . S
Eu1260 N1291 2.657 . S
Eu1260 N1298 2.609 . S
Eu1260 O1304 2.558 . S
Eu1260 O1305 2.612 . S
Eu1260 O1307 2.339 . S
Eu1260 O1308 2.563 . S
Eu1260 O1309 2.419 . S
Eu1260 O1311 2.380 . S
Eu1260 O1312 2.432 . S
Eu1260 C1324 2.848 . S
C1261 C1264 1.429 . S
C1261 C1265 1.411 . S
C1261 N1268 1.377 . S
C1262 C1264 1.420 . S
C1262 C1266 1.423 . S
C1262 C1274 1.392 . S
C1263 C1265 1.420 . S
C1263 C1266 1.351 . S
C1263 H1286 0.931 . S
C1264 C1261 1.429 . S
C1264 C1262 1.420 . S
C1264 N1272 1.362 . S
C1265 C1261 1.411 . S
C1265 C1263 1.420 . S
C1265 C1270 1.395 . S
C1266 C1262 1.423 . S
C1266 C1263 1.351 . S
C1266 H1278 0.930 . S
C1267 C1269 1.400 . S
C1267 C1270 1.386 . S
C1267 H1279 0.930 . S
N1268 C1261 1.377 . S
N1268 C1269 1.321 . S
N1268 Eu1271 2.609 . S
C1269 C1267 1.400 . S
C1269 N1268 1.321 . S
C1269 H1276 0.930 . S
C1270 C1265 1.395 . S
C1270 C1267 1.386 . S
C1270 H1289 0.930 . S
Eu1271 N1268 2.609 . S
Eu1271 N1272 2.657 . S
Eu1271 O1305 2.380 . S
Eu1271 O1306 2.432 . S
Eu1271 O1310 2.558 1_455 S
Eu1271 O1311 2.612 . S
Eu1271 O1313 2.339 1_455 S
Eu1271 O1314 2.563 1_455 S
Eu1271 O1315 2.419 1_455 S
Eu1271 C1335 2.848 1_455 S
N1272 C1264 1.362 . S
N1272 Eu1271 2.657 . S
N1272 C1273 1.334 . S
C1273 N1272 1.334 . S
C1273 C1275 1.413 . S
C1273 H1280 0.929 . S
C1274 C1262 1.392 . S
C1274 C1275 1.367 . S
C1274 H1282 0.930 . S
C1275 C1273 1.413 . S
C1275 C1274 1.367 . S
C1275 H1277 0.930 . S
H1276 C1269 0.930 . S
H1277 C1275 0.930 . S
H1278 C1266 0.930 . S
H1279 C1267 0.930 . S
H1280 C1273 0.929 . S
H1281 C1295 0.930 . S
H1282 C1274 0.930 . S
H1283 C1301 0.930 . S
H1284 C1292 0.929 . S
H1285 C1299 0.930 . S
H1286 C1263 0.931 . S
H1287 C1293 0.930 . S
H1288 C1326 0.930 . S
H1289 C1270 0.930 . S
H1290 C1325 0.931 . S
N1291 Eu1260 2.657 . S
N1291 C1292 1.334 . S
N1291 C1296 1.362 . S
C1292 H1284 0.929 . S
C1292 N1291 1.334 . S
C1292 C1295 1.413 . S
C1293 H1287 0.930 . S
C1293 C1294 1.392 . S
C1293 C1295 1.367 . S
C1294 C1293 1.392 . S
C1294 C1296 1.420 . S
C1294 C1326 1.423 1_455 S
C1295 H1281 0.930 . S
C1295 C1292 1.413 . S
C1295 C1293 1.367 . S
C1296 N1291 1.362 . S
C1296 C1294 1.420 . S
C1296 C1300 1.429 . S
H1297 C1302 0.930 . S
N1298 Eu1260 2.609 . S
N1298 C1300 1.377 . S
N1298 C1301 1.321 . S
C1299 H1285 0.930 . S
C1299 C1301 1.400 1_655 S
C1299 C1302 1.386 . S
C1300 C1296 1.429 . S
C1300 N1298 1.377 . S
C1300 C1303 1.411 1_455 S
C1301 H1283 0.930 . S
C1301 N1298 1.321 . S
C1301 C1299 1.400 1_455 S
C1302 H1297 0.930 . S
C1302 C1299 1.386 . S
C1302 C1303 1.395 . S
C1303 C1300 1.411 1_655 S
C1303 C1302 1.395 . S
C1303 C1325 1.420 . S
O1304 Eu1260 2.558 . S
O1304 C1324 1.257 . S
O1305 Eu1260 2.612 . S
O1305 Eu1271 2.380 . S
O1305 C1316 1.276 . S
O1306 Eu1271 2.432 . S
O1306 C1323 1.264 . S
O1307 Eu1260 2.339 . S
O1307 C1323 1.254 . S
O1308 Eu1260 2.563 . S
O1308 C1316 1.235 . S
O1309 Eu1260 2.419 . S
O1309 C1324 1.249 . S
O1310 Eu1271 2.558 1_655 S
O1310 C1335 1.257 . S
O1311 Eu1260 2.380 . S
O1311 Eu1271 2.612 . S
O1311 C1327 1.276 1_455 S
O1312 Eu1260 2.432 . S
O1312 C1334 1.264 1_455 S
O1313 Eu1271 2.339 1_655 S
O1313 C1334 1.254 . S
O1314 Eu1271 2.563 1_655 S
O1314 C1327 1.235 . S
O1315 Eu1271 2.419 1_655 S
O1315 C1335 1.249 . S
C1316 O1305 1.276 . S
C1316 O1308 1.235 . S
C1317 C1319 1.393 . S
C1317 C1321 1.395 . S
C1317 C1324 1.492 . S
C1318 C1319 1.392 . S
C1318 C1320 1.386 . S
C1319 C1317 1.393 . S
C1319 C1318 1.392 . S
C1319 H1336 0.930 . S
C1320 C1318 1.386 . S
C1320 C1322 1.395 . S
C1320 H1337 0.930 . S
C1321 C1317 1.395 . S
C1321 C1322 1.379 . S
C1321 H1338 0.930 . S
C1322 C1320 1.395 . S
C1322 C1321 1.379 . S
C1322 H1339 0.930 . S
C1323 O1306 1.264 . S
C1323 O1307 1.254 . S
C1324 Eu1260 2.848 . S
C1324 O1304 1.257 . S
C1324 O1309 1.249 . S
C1324 C1317 1.492 . S
C1325 H1290 0.931 . S
C1325 C1303 1.420 . S
C1325 C1326 1.351 . S
C1326 H1288 0.930 . S
C1326 C1294 1.423 1_655 S
C1326 C1325 1.351 . S
C1327 O1311 1.276 1_655 S
C1327 O1314 1.235 . S
C1328 C1329 1.393 . S
C1328 C1332 1.395 . S
C1328 C1335 1.492 . S
C1329 C1328 1.393 . S
C1329 C1330 1.392 . S
C1329 H1340 0.930 . S
C1330 C1329 1.392 . S
C1330 C1331 1.386 . S
C1331 C1330 1.386 . S
C1331 C1333 1.395 . S
C1331 H1341 0.930 . S
C1332 C1328 1.395 . S
C1332 C1333 1.379 . S
C1332 H1342 0.930 . S
C1333 C1331 1.395 . S
C1333 C1332 1.379 . S
C1333 H1343 0.930 . S
C1334 O1312 1.264 1_655 S
C1334 O1313 1.254 . S
C1335 Eu1271 2.848 1_655 S
C1335 O1310 1.257 . S
C1335 O1315 1.249 . S
C1335 C1328 1.492 . S
H1336 C1319 0.930 . S
H1337 C1320 0.930 . S
H1338 C1321 0.930 . S
H1339 C1322 0.930 . S
H1340 C1329 0.930 . S
H1341 C1331 0.930 . S
H1342 C1332 0.930 . S
H1343 C1333 0.930 . S
Eu1344 N1375 2.657 . S
Eu1344 N1382 2.609 . S
Eu1344 O1388 2.558 . S
Eu1344 O1389 2.612 . S
Eu1344 O1391 2.339 . S
Eu1344 O1392 2.563 . S
Eu1344 O1393 2.419 . S
Eu1344 O1395 2.380 . S
Eu1344 O1396 2.432 . S
Eu1344 C1408 2.848 . S
C1345 C1348 1.429 . S
C1345 C1349 1.411 . S
C1345 N1352 1.377 . S
C1346 C1348 1.420 . S
C1346 C1350 1.423 . S
C1346 C1358 1.392 . S
C1347 C1349 1.420 . S
C1347 C1350 1.351 . S
C1347 H1370 0.931 . S
C1348 C1345 1.429 . S
C1348 C1346 1.420 . S
C1348 N1356 1.362 . S
C1349 C1345 1.411 . S
C1349 C1347 1.420 . S
C1349 C1354 1.395 . S
C1350 C1346 1.423 . S
C1350 C1347 1.351 . S
C1350 H1362 0.930 . S
C1351 C1353 1.400 . S
C1351 C1354 1.386 . S
C1351 H1363 0.930 . S
N1352 C1345 1.377 . S
N1352 C1353 1.321 . S
N1352 Eu1355 2.609 . S
C1353 C1351 1.400 . S
C1353 N1352 1.321 . S
C1353 H1360 0.930 . S
C1354 C1349 1.395 . S
C1354 C1351 1.386 . S
C1354 H1373 0.930 . S
Eu1355 N1352 2.609 . S
Eu1355 N1356 2.657 . S
Eu1355 O1389 2.380 . S
Eu1355 O1390 2.432 . S
Eu1355 O1394 2.558 1_565 S
Eu1355 O1395 2.612 . S
Eu1355 O1397 2.339 1_565 S
Eu1355 O1398 2.563 1_565 S
Eu1355 O1399 2.419 1_565 S
Eu1355 C1419 2.848 1_565 S
N1356 C1348 1.362 . S
N1356 Eu1355 2.657 . S
N1356 C1357 1.334 . S
C1357 N1356 1.334 . S
C1357 C1359 1.413 . S
C1357 H1364 0.929 . S
C1358 C1346 1.392 . S
C1358 C1359 1.367 . S
C1358 H1366 0.930 . S
C1359 C1357 1.413 . S
C1359 C1358 1.367 . S
C1359 H1361 0.930 . S
H1360 C1353 0.930 . S
H1361 C1359 0.930 . S
H1362 C1350 0.930 . S
H1363 C1351 0.930 . S
H1364 C1357 0.929 . S
H1365 C1379 0.930 . S
H1366 C1358 0.930 . S
H1367 C1385 0.930 . S
H1368 C1376 0.929 . S
H1369 C1383 0.930 . S
H1370 C1347 0.931 . S
H1371 C1377 0.930 . S
H1372 C1410 0.930 . S
H1373 C1354 0.930 . S
H1374 C1409 0.931 . S
N1375 Eu1344 2.657 . S
N1375 C1376 1.334 . S
N1375 C1380 1.362 . S
C1376 H1368 0.929 . S
C1376 N1375 1.334 . S
C1376 C1379 1.413 . S
C1377 H1371 0.930 . S
C1377 C1378 1.392 . S
C1377 C1379 1.367 . S
C1378 C1377 1.392 . S
C1378 C1380 1.420 . S
C1378 C1410 1.423 1_565 S
C1379 H1365 0.930 . S
C1379 C1376 1.413 . S
C1379 C1377 1.367 . S
C1380 N1375 1.362 . S
C1380 C1378 1.420 . S
C1380 C1384 1.429 . S
H1381 C1386 0.930 . S
N1382 Eu1344 2.609 . S
N1382 C1384 1.377 . S
N1382 C1385 1.321 . S
C1383 H1369 0.930 . S
C1383 C1385 1.400 1_545 S
C1383 C1386 1.386 . S
C1384 C1380 1.429 . S
C1384 N1382 1.377 . S
C1384 C1387 1.411 1_565 S
C1385 H1367 0.930 . S
C1385 N1382 1.321 . S
C1385 C1383 1.400 1_565 S
C1386 H1381 0.930 . S
C1386 C1383 1.386 . S
C1386 C1387 1.395 . S
C1387 C1384 1.411 1_545 S
C1387 C1386 1.395 . S
C1387 C1409 1.420 . S
O1388 Eu1344 2.558 . S
O1388 C1408 1.257 . S
O1389 Eu1344 2.612 . S
O1389 Eu1355 2.380 . S
O1389 C1400 1.276 . S
O1390 Eu1355 2.432 . S
O1390 C1407 1.264 . S
O1391 Eu1344 2.339 . S
O1391 C1407 1.254 . S
O1392 Eu1344 2.563 . S
O1392 C1400 1.235 . S
O1393 Eu1344 2.419 . S
O1393 C1408 1.249 . S
O1394 Eu1355 2.558 1_545 S
O1394 C1419 1.257 . S
O1395 Eu1344 2.380 . S
O1395 Eu1355 2.612 . S
O1395 C1411 1.276 1_565 S
O1396 Eu1344 2.432 . S
O1396 C1418 1.264 1_565 S
O1397 Eu1355 2.339 1_545 S
O1397 C1418 1.254 . S
O1398 Eu1355 2.563 1_545 S
O1398 C1411 1.235 . S
O1399 Eu1355 2.419 1_545 S
O1399 C1419 1.249 . S
C1400 O1389 1.276 . S
C1400 O1392 1.235 . S
C1401 C1403 1.393 . S
C1401 C1405 1.395 . S
C1401 C1408 1.492 . S
C1402 C1403 1.392 . S
C1402 C1404 1.386 . S
C1403 C1401 1.393 . S
C1403 C1402 1.392 . S
C1403 H1420 0.930 . S
C1404 C1402 1.386 . S
C1404 C1406 1.395 . S
C1404 H1421 0.930 . S
C1405 C1401 1.395 . S
C1405 C1406 1.379 . S
C1405 H1422 0.930 . S
C1406 C1404 1.395 . S
C1406 C1405 1.379 . S
C1406 H1423 0.930 . S
C1407 O1390 1.264 . S
C1407 O1391 1.254 . S
C1408 Eu1344 2.848 . S
C1408 O1388 1.257 . S
C1408 O1393 1.249 . S
C1408 C1401 1.492 . S
C1409 H1374 0.931 . S
C1409 C1387 1.420 . S
C1409 C1410 1.351 . S
C1410 H1372 0.930 . S
C1410 C1378 1.423 1_545 S
C1410 C1409 1.351 . S
C1411 O1395 1.276 1_545 S
C1411 O1398 1.235 . S
C1412 C1413 1.393 . S
C1412 C1416 1.395 . S
C1412 C1419 1.492 . S
C1413 C1412 1.393 . S
C1413 C1414 1.392 . S
C1413 H1424 0.930 . S
C1414 C1413 1.392 . S
C1414 C1415 1.386 . S
C1415 C1414 1.386 . S
C1415 C1417 1.395 . S
C1415 H1425 0.930 . S
C1416 C1412 1.395 . S
C1416 C1417 1.379 . S
C1416 H1426 0.930 . S
C1417 C1415 1.395 . S
C1417 C1416 1.379 . S
C1417 H1427 0.930 . S
C1418 O1396 1.264 1_545 S
C1418 O1397 1.254 . S
C1419 Eu1355 2.848 1_545 S
C1419 O1394 1.257 . S
C1419 O1399 1.249 . S
C1419 C1412 1.492 . S
H1420 C1403 0.930 . S
H1421 C1404 0.930 . S
H1422 C1405 0.930 . S
H1423 C1406 0.930 . S
H1424 C1413 0.930 . S
H1425 C1415 0.930 . S
H1426 C1416 0.930 . S
H1427 C1417 0.930 . S
Eu1428 N1459 2.657 . S
Eu1428 N1466 2.609 . S
Eu1428 O1472 2.558 . S
Eu1428 O1473 2.612 . S
Eu1428 O1475 2.339 . S
Eu1428 O1476 2.563 . S
Eu1428 O1477 2.419 . S
Eu1428 O1479 2.380 . S
Eu1428 O1480 2.432 . S
Eu1428 C1492 2.848 . S
C1429 C1432 1.429 . S
C1429 C1433 1.411 . S
C1429 N1436 1.377 . S
C1430 C1432 1.420 . S
C1430 C1434 1.423 . S
C1430 C1442 1.392 . S
C1431 C1433 1.420 . S
C1431 C1434 1.351 . S
C1431 H1454 0.931 . S
C1432 C1429 1.429 . S
C1432 C1430 1.420 . S
C1432 N1440 1.362 . S
C1433 C1429 1.411 . S
C1433 C1431 1.420 . S
C1433 C1438 1.395 . S
C1434 C1430 1.423 . S
C1434 C1431 1.351 . S
C1434 H1446 0.930 . S
C1435 C1437 1.400 . S
C1435 C1438 1.386 . S
C1435 H1447 0.930 . S
N1436 C1429 1.377 . S
N1436 C1437 1.321 . S
N1436 Eu1439 2.609 . S
C1437 C1435 1.400 . S
C1437 N1436 1.321 . S
C1437 H1444 0.930 . S
C1438 C1433 1.395 . S
C1438 C1435 1.386 . S
C1438 H1457 0.930 . S
Eu1439 N1436 2.609 . S
Eu1439 N1440 2.657 . S
Eu1439 O1473 2.380 . S
Eu1439 O1474 2.432 . S
Eu1439 O1478 2.558 1_545 S
Eu1439 O1479 2.612 . S
Eu1439 O1481 2.339 1_545 S
Eu1439 O1482 2.563 1_545 S
Eu1439 O1483 2.419 1_545 S
Eu1439 C1503 2.848 1_545 S
N1440 C1432 1.362 . S
N1440 Eu1439 2.657 . S
N1440 C1441 1.334 . S
C1441 N1440 1.334 . S
C1441 C1443 1.413 . S
C1441 H1448 0.929 . S
C1442 C1430 1.392 . S
C1442 C1443 1.367 . S
C1442 H1450 0.930 . S
C1443 C1441 1.413 . S
C1443 C1442 1.367 . S
C1443 H1445 0.930 . S
H1444 C1437 0.930 . S
H1445 C1443 0.930 . S
H1446 C1434 0.930 . S
H1447 C1435 0.930 . S
H1448 C1441 0.929 . S
H1449 C1463 0.930 . S
H1450 C1442 0.930 . S
H1451 C1469 0.930 . S
H1452 C1460 0.929 . S
H1453 C1467 0.930 . S
H1454 C1431 0.931 . S
H1455 C1461 0.930 . S
H1456 C1494 0.930 . S
H1457 C1438 0.930 . S
H1458 C1493 0.931 . S
N1459 Eu1428 2.657 . S
N1459 C1460 1.334 . S
N1459 C1464 1.362 . S
C1460 H1452 0.929 . S
C1460 N1459 1.334 . S
C1460 C1463 1.413 . S
C1461 H1455 0.930 . S
C1461 C1462 1.392 . S
C1461 C1463 1.367 . S
C1462 C1461 1.392 . S
C1462 C1464 1.420 . S
C1462 C1494 1.423 1_545 S
C1463 H1449 0.930 . S
C1463 C1460 1.413 . S
C1463 C1461 1.367 . S
C1464 N1459 1.362 . S
C1464 C1462 1.420 . S
C1464 C1468 1.429 . S
H1465 C1470 0.930 . S
N1466 Eu1428 2.609 . S
N1466 C1468 1.377 . S
N1466 C1469 1.321 . S
C1467 H1453 0.930 . S
C1467 C1469 1.400 1_565 S
C1467 C1470 1.386 . S
C1468 C1464 1.429 . S
C1468 N1466 1.377 . S
C1468 C1471 1.411 1_545 S
C1469 H1451 0.930 . S
C1469 N1466 1.321 . S
C1469 C1467 1.400 1_545 S
C1470 H1465 0.930 . S
C1470 C1467 1.386 . S
C1470 C1471 1.395 . S
C1471 C1468 1.411 1_565 S
C1471 C1470 1.395 . S
C1471 C1493 1.420 . S
O1472 Eu1428 2.558 . S
O1472 C1492 1.257 . S
O1473 Eu1428 2.612 . S
O1473 Eu1439 2.380 . S
O1473 C1484 1.276 . S
O1474 Eu1439 2.432 . S
O1474 C1491 1.264 . S
O1475 Eu1428 2.339 . S
O1475 C1491 1.254 . S
O1476 Eu1428 2.563 . S
O1476 C1484 1.235 . S
O1477 Eu1428 2.419 . S
O1477 C1492 1.249 . S
O1478 Eu1439 2.558 1_565 S
O1478 C1503 1.257 . S
O1479 Eu1428 2.380 . S
O1479 Eu1439 2.612 . S
O1479 C1495 1.276 1_545 S
O1480 Eu1428 2.432 . S
O1480 C1502 1.264 1_545 S
O1481 Eu1439 2.339 1_565 S
O1481 C1502 1.254 . S
O1482 Eu1439 2.563 1_565 S
O1482 C1495 1.235 . S
O1483 Eu1439 2.419 1_565 S
O1483 C1503 1.249 . S
C1484 O1473 1.276 . S
C1484 O1476 1.235 . S
C1485 C1487 1.393 . S
C1485 C1489 1.395 . S
C1485 C1492 1.492 . S
C1486 C1487 1.392 . S
C1486 C1488 1.386 . S
C1487 C1485 1.393 . S
C1487 C1486 1.392 . S
C1487 H1504 0.930 . S
C1488 C1486 1.386 . S
C1488 C1490 1.395 . S
C1488 H1505 0.930 . S
C1489 C1485 1.395 . S
C1489 C1490 1.379 . S
C1489 H1506 0.930 . S
C1490 C1488 1.395 . S
C1490 C1489 1.379 . S
C1490 H1507 0.930 . S
C1491 O1474 1.264 . S
C1491 O1475 1.254 . S
C1492 Eu1428 2.848 . S
C1492 O1472 1.257 . S
C1492 O1477 1.249 . S
C1492 C1485 1.492 . S
C1493 H1458 0.931 . S
C1493 C1471 1.420 . S
C1493 C1494 1.351 . S
C1494 H1456 0.930 . S
C1494 C1462 1.423 1_565 S
C1494 C1493 1.351 . S
C1495 O1479 1.276 1_565 S
C1495 O1482 1.235 . S
C1496 C1497 1.393 . S
C1496 C1500 1.395 . S
C1496 C1503 1.492 . S
C1497 C1496 1.393 . S
C1497 C1498 1.392 . S
C1497 H1508 0.930 . S
C1498 C1497 1.392 . S
C1498 C1499 1.386 . S
C1499 C1498 1.386 . S
C1499 C1501 1.395 . S
C1499 H1509 0.930 . S
C1500 C1496 1.395 . S
C1500 C1501 1.379 . S
C1500 H1510 0.930 . S
C1501 C1499 1.395 . S
C1501 C1500 1.379 . S
C1501 H1511 0.930 . S
C1502 O1480 1.264 1_565 S
C1502 O1481 1.254 . S
C1503 Eu1439 2.848 1_565 S
C1503 O1478 1.257 . S
C1503 O1483 1.249 . S
C1503 C1496 1.492 . S
H1504 C1487 0.930 . S
H1505 C1488 0.930 . S
H1506 C1489 0.930 . S
H1507 C1490 0.930 . S
H1508 C1497 0.930 . S
H1509 C1499 0.930 . S
H1510 C1500 0.930 . S
H1511 C1501 0.930 . S
Eu1512 N1543 2.657 . S
Eu1512 N1550 2.609 . S
Eu1512 O1556 2.558 . S
Eu1512 O1557 2.612 . S
Eu1512 O1559 2.339 . S
Eu1512 O1560 2.563 . S
Eu1512 O1561 2.419 . S
Eu1512 O1563 2.380 . S
Eu1512 O1564 2.432 . S
Eu1512 C1576 2.848 . S
C1513 C1516 1.429 . S
C1513 C1517 1.411 . S
C1513 N1520 1.377 . S
C1514 C1516 1.420 . S
C1514 C1518 1.423 . S
C1514 C1526 1.392 . S
C1515 C1517 1.420 . S
C1515 C1518 1.351 . S
C1515 H1538 0.931 . S
C1516 C1513 1.429 . S
C1516 C1514 1.420 . S
C1516 N1524 1.362 . S
C1517 C1513 1.411 . S
C1517 C1515 1.420 . S
C1517 C1522 1.395 . S
C1518 C1514 1.423 . S
C1518 C1515 1.351 . S
C1518 H1530 0.930 . S
C1519 C1521 1.400 . S
C1519 C1522 1.386 . S
C1519 H1531 0.930 . S
N1520 C1513 1.377 . S
N1520 C1521 1.321 . S
N1520 Eu1523 2.609 . S
C1521 C1519 1.400 . S
C1521 N1520 1.321 . S
C1521 H1528 0.930 . S
C1522 C1517 1.395 . S
C1522 C1519 1.386 . S
C1522 H1541 0.930 . S
Eu1523 N1520 2.609 . S
Eu1523 N1524 2.657 . S
Eu1523 O1557 2.380 . S
Eu1523 O1558 2.432 . S
Eu1523 O1562 2.558 . S
Eu1523 O1563 2.612 . S
Eu1523 O1565 2.339 . S
Eu1523 O1566 2.563 . S
Eu1523 O1567 2.419 . S
Eu1523 C1587 2.848 . S
N1524 C1516 1.362 . S
N1524 Eu1523 2.657 . S
N1524 C1525 1.334 . S
C1525 N1524 1.334 . S
C1525 C1527 1.413 . S
C1525 H1532 0.929 . S
C1526 C1514 1.392 . S
C1526 C1527 1.367 . S
C1526 H1534 0.930 . S
C1527 C1525 1.413 . S
C1527 C1526 1.367 . S
C1527 H1529 0.930 . S
H1528 C1521 0.930 . S
H1529 C1527 0.930 . S
H1530 C1518 0.930 . S
H1531 C1519 0.930 . S
H1532 C1525 0.929 . S
H1533 C1547 0.930 . S
H1534 C1526 0.930 . S
H1535 C1553 0.930 . S
H1536 C1544 0.929 . S
H1537 C1551 0.930 . S
H1538 C1515 0.931 . S
H1539 C1545 0.930 . S
H1540 C1578 0.930 . S
H1541 C1522 0.930 . S
H1542 C1577 0.931 . S
N1543 Eu1512 2.657 . S
N1543 C1544 1.334 . S
N1543 C1548 1.362 . S
C1544 H1536 0.929 . S
C1544 N1543 1.334 . S
C1544 C1547 1.413 . S
C1545 H1539 0.930 . S
C1545 C1546 1.392 . S
C1545 C1547 1.367 . S
C1546 C1545 1.392 . S
C1546 C1548 1.420 . S
C1546 C1578 1.423 . S
C1547 H1533 0.930 . S
C1547 C1544 1.413 . S
C1547 C1545 1.367 . S
C1548 N1543 1.362 . S
C1548 C1546 1.420 . S
C1548 C1552 1.429 . S
H1549 C1554 0.930 . S
N1550 Eu1512 2.609 . S
N1550 C1552 1.377 . S
N1550 C1553 1.321 . S
C1551 H1537 0.930 . S
C1551 C1553 1.400 . S
C1551 C1554 1.386 . S
C1552 C1548 1.429 . S
C1552 N1550 1.377 . S
C1552 C1555 1.411 . S
C1553 H1535 0.930 . S
C1553 N1550 1.321 . S
C1553 C1551 1.400 . S
C1554 H1549 0.930 . S
C1554 C1551 1.386 . S
C1554 C1555 1.395 . S
C1555 C1552 1.411 . S
C1555 C1554 1.395 . S
C1555 C1577 1.420 . S
O1556 Eu1512 2.558 . S
O1556 C1576 1.257 . S
O1557 Eu1512 2.612 . S
O1557 Eu1523 2.380 . S
O1557 C1568 1.276 . S
O1558 Eu1523 2.432 . S
O1558 C1575 1.264 . S
O1559 Eu1512 2.339 . S
O1559 C1575 1.254 . S
O1560 Eu1512 2.563 . S
O1560 C1568 1.235 . S
O1561 Eu1512 2.419 . S
O1561 C1576 1.249 . S
O1562 Eu1523 2.558 . S
O1562 C1587 1.257 . S
O1563 Eu1512 2.380 . S
O1563 Eu1523 2.612 . S
O1563 C1579 1.276 . S
O1564 Eu1512 2.432 . S
O1564 C1586 1.264 . S
O1565 Eu1523 2.339 . S
O1565 C1586 1.254 . S
O1566 Eu1523 2.563 . S
O1566 C1579 1.235 . S
O1567 Eu1523 2.419 . S
O1567 C1587 1.249 . S
C1568 O1557 1.276 . S
C1568 O1560 1.235 . S
C1569 C1571 1.393 . S
C1569 C1573 1.395 . S
C1569 C1576 1.492 . S
C1570 C1571 1.392 . S
C1570 C1572 1.386 . S
C1571 C1569 1.393 . S
C1571 C1570 1.392 . S
C1571 H1588 0.930 . S
C1572 C1570 1.386 . S
C1572 C1574 1.395 . S
C1572 H1589 0.930 . S
C1573 C1569 1.395 . S
C1573 C1574 1.379 . S
C1573 H1590 0.930 . S
C1574 C1572 1.395 . S
C1574 C1573 1.379 . S
C1574 H1591 0.930 . S
C1575 O1558 1.264 . S
C1575 O1559 1.254 . S
C1576 Eu1512 2.848 . S
C1576 O1556 1.257 . S
C1576 O1561 1.249 . S
C1576 C1569 1.492 . S
C1577 H1542 0.931 . S
C1577 C1555 1.420 . S
C1577 C1578 1.351 . S
C1578 H1540 0.930 . S
C1578 C1546 1.423 . S
C1578 C1577 1.351 . S
C1579 O1563 1.276 . S
C1579 O1566 1.235 . S
C1580 C1581 1.393 . S
C1580 C1584 1.395 . S
C1580 C1587 1.492 . S
C1581 C1580 1.393 . S
C1581 C1582 1.392 . S
C1581 H1592 0.930 . S
C1582 C1581 1.392 . S
C1582 C1583 1.386 . S
C1583 C1582 1.386 . S
C1583 C1585 1.395 . S
C1583 H1593 0.930 . S
C1584 C1580 1.395 . S
C1584 C1585 1.379 . S
C1584 H1594 0.930 . S
C1585 C1583 1.395 . S
C1585 C1584 1.379 . S
C1585 H1595 0.930 . S
C1586 O1564 1.264 . S
C1586 O1565 1.254 . S
C1587 Eu1523 2.848 . S
C1587 O1562 1.257 . S
C1587 O1567 1.249 . S
C1587 C1580 1.492 . S
H1588 C1571 0.930 . S
H1589 C1572 0.930 . S
H1590 C1573 0.930 . S
H1591 C1574 0.930 . S
H1592 C1581 0.930 . S
H1593 C1583 0.930 . S
H1594 C1584 0.930 . S
H1595 C1585 0.930 . S
Eu1596 N1627 2.657 . S
Eu1596 N1634 2.609 . S
Eu1596 O1640 2.558 . S
Eu1596 O1641 2.612 . S
Eu1596 O1643 2.339 . S
Eu1596 O1644 2.563 . S
Eu1596 O1645 2.419 . S
Eu1596 O1647 2.380 . S
Eu1596 O1648 2.432 . S
Eu1596 C1660 2.848 . S
C1597 C1600 1.429 . S
C1597 C1601 1.411 . S
C1597 N1604 1.377 . S
C1598 C1600 1.420 . S
C1598 C1602 1.423 . S
C1598 C1610 1.392 . S
C1599 C1601 1.420 . S
C1599 C1602 1.351 . S
C1599 H1622 0.931 . S
C1600 C1597 1.429 . S
C1600 C1598 1.420 . S
C1600 N1608 1.362 . S
C1601 C1597 1.411 . S
C1601 C1599 1.420 . S
C1601 C1606 1.395 . S
C1602 C1598 1.423 . S
C1602 C1599 1.351 . S
C1602 H1614 0.930 . S
C1603 C1605 1.400 . S
C1603 C1606 1.386 . S
C1603 H1615 0.930 . S
N1604 C1597 1.377 . S
N1604 C1605 1.321 . S
N1604 Eu1607 2.609 . S
C1605 C1603 1.400 . S
C1605 N1604 1.321 . S
C1605 H1612 0.930 . S
C1606 C1601 1.395 . S
C1606 C1603 1.386 . S
C1606 H1625 0.930 . S
Eu1607 N1604 2.609 . S
Eu1607 N1608 2.657 . S
Eu1607 O1641 2.380 . S
Eu1607 O1642 2.432 . S
Eu1607 O1646 2.558 . S
Eu1607 O1647 2.612 . S
Eu1607 O1649 2.339 . S
Eu1607 O1650 2.563 . S
Eu1607 O1651 2.419 . S
Eu1607 C1671 2.848 . S
N1608 C1600 1.362 . S
N1608 Eu1607 2.657 . S
N1608 C1609 1.334 . S
C1609 N1608 1.334 . S
C1609 C1611 1.413 . S
C1609 H1616 0.929 . S
C1610 C1598 1.392 . S
C1610 C1611 1.367 . S
C1610 H1618 0.930 . S
C1611 C1609 1.413 . S
C1611 C1610 1.367 . S
C1611 H1613 0.930 . S
H1612 C1605 0.930 . S
H1613 C1611 0.930 . S
H1614 C1602 0.930 . S
H1615 C1603 0.930 . S
H1616 C1609 0.929 . S
H1617 C1631 0.930 . S
H1618 C1610 0.930 . S
H1619 C1637 0.930 . S
H1620 C1628 0.929 . S
H1621 C1635 0.930 . S
H1622 C1599 0.931 . S
H1623 C1629 0.930 . S
H1624 C1662 0.930 . S
H1625 C1606 0.930 . S
H1626 C1661 0.931 . S
N1627 Eu1596 2.657 . S
N1627 C1628 1.334 . S
N1627 C1632 1.362 . S
C1628 H1620 0.929 . S
C1628 N1627 1.334 . S
C1628 C1631 1.413 . S
C1629 H1623 0.930 . S
C1629 C1630 1.392 . S
C1629 C1631 1.367 . S
C1630 C1629 1.392 . S
C1630 C1632 1.420 . S
C1630 C1662 1.423 . S
C1631 H1617 0.930 . S
C1631 C1628 1.413 . S
C1631 C1629 1.367 . S
C1632 N1627 1.362 . S
C1632 C1630 1.420 . S
C1632 C1636 1.429 . S
H1633 C1638 0.930 . S
N1634 Eu1596 2.609 . S
N1634 C1636 1.377 . S
N1634 C1637 1.321 . S
C1635 H1621 0.930 . S
C1635 C1637 1.400 . S
C1635 C1638 1.386 . S
C1636 C1632 1.429 . S
C1636 N1634 1.377 . S
C1636 C1639 1.411 . S
C1637 H1619 0.930 . S
C1637 N1634 1.321 . S
C1637 C1635 1.400 . S
C1638 H1633 0.930 . S
C1638 C1635 1.386 . S
C1638 C1639 1.395 . S
C1639 C1636 1.411 . S
C1639 C1638 1.395 . S
C1639 C1661 1.420 . S
O1640 Eu1596 2.558 . S
O1640 C1660 1.257 . S
O1641 Eu1596 2.612 . S
O1641 Eu1607 2.380 . S
O1641 C1652 1.276 . S
O1642 Eu1607 2.432 . S
O1642 C1659 1.264 . S
O1643 Eu1596 2.339 . S
O1643 C1659 1.254 . S
O1644 Eu1596 2.563 . S
O1644 C1652 1.235 . S
O1645 Eu1596 2.419 . S
O1645 C1660 1.249 . S
O1646 Eu1607 2.558 . S
O1646 C1671 1.257 . S
O1647 Eu1596 2.380 . S
O1647 Eu1607 2.612 . S
O1647 C1663 1.276 . S
O1648 Eu1596 2.432 . S
O1648 C1670 1.264 . S
O1649 Eu1607 2.339 . S
O1649 C1670 1.254 . S
O1650 Eu1607 2.563 . S
O1650 C1663 1.235 . S
O1651 Eu1607 2.419 . S
O1651 C1671 1.249 . S
C1652 O1641 1.276 . S
C1652 O1644 1.235 . S
C1653 C1655 1.393 . S
C1653 C1657 1.395 . S
C1653 C1660 1.492 . S
C1654 C1655 1.392 . S
C1654 C1656 1.386 . S
C1655 C1653 1.393 . S
C1655 C1654 1.392 . S
C1655 H1672 0.930 . S
C1656 C1654 1.386 . S
C1656 C1658 1.395 . S
C1656 H1673 0.930 . S
C1657 C1653 1.395 . S
C1657 C1658 1.379 . S
C1657 H1674 0.930 . S
C1658 C1656 1.395 . S
C1658 C1657 1.379 . S
C1658 H1675 0.930 . S
C1659 O1642 1.264 . S
C1659 O1643 1.254 . S
C1660 Eu1596 2.848 . S
C1660 O1640 1.257 . S
C1660 O1645 1.249 . S
C1660 C1653 1.492 . S
C1661 H1626 0.931 . S
C1661 C1639 1.420 . S
C1661 C1662 1.351 . S
C1662 H1624 0.930 . S
C1662 C1630 1.423 . S
C1662 C1661 1.351 . S
C1663 O1647 1.276 . S
C1663 O1650 1.235 . S
C1664 C1665 1.393 . S
C1664 C1668 1.395 . S
C1664 C1671 1.492 . S
C1665 C1664 1.393 . S
C1665 C1666 1.392 . S
C1665 H1676 0.930 . S
C1666 C1665 1.392 . S
C1666 C1667 1.386 . S
C1667 C1666 1.386 . S
C1667 C1669 1.395 . S
C1667 H1677 0.930 . S
C1668 C1664 1.395 . S
C1668 C1669 1.379 . S
C1668 H1678 0.930 . S
C1669 C1667 1.395 . S
C1669 C1668 1.379 . S
C1669 H1679 0.930 . S
C1670 O1648 1.264 . S
C1670 O1649 1.254 . S
C1671 Eu1607 2.848 . S
C1671 O1646 1.257 . S
C1671 O1651 1.249 . S
C1671 C1664 1.492 . S
H1672 C1655 0.930 . S
H1673 C1656 0.930 . S
H1674 C1657 0.930 . S
H1675 C1658 0.930 . S
H1676 C1665 0.930 . S
H1677 C1667 0.930 . S
H1678 C1668 0.930 . S
H1679 C1669 0.930 . S
Eu1680 N1711 2.657 . S
Eu1680 N1718 2.609 . S
Eu1680 O1724 2.558 . S
Eu1680 O1725 2.612 . S
Eu1680 O1727 2.339 . S
Eu1680 O1728 2.563 . S
Eu1680 O1729 2.419 . S
Eu1680 O1731 2.380 . S
Eu1680 O1732 2.432 . S
Eu1680 C1744 2.848 . S
C1681 C1684 1.429 . S
C1681 C1685 1.411 . S
C1681 N1688 1.377 . S
C1682 C1684 1.420 . S
C1682 C1686 1.423 . S
C1682 C1694 1.392 . S
C1683 C1685 1.420 . S
C1683 C1686 1.351 . S
C1683 H1706 0.931 . S
C1684 C1681 1.429 . S
C1684 C1682 1.420 . S
C1684 N1692 1.362 . S
C1685 C1681 1.411 . S
C1685 C1683 1.420 . S
C1685 C1690 1.395 . S
C1686 C1682 1.423 . S
C1686 C1683 1.351 . S
C1686 H1698 0.930 . S
C1687 C1689 1.400 . S
C1687 C1690 1.386 . S
C1687 H1699 0.930 . S
N1688 C1681 1.377 . S
N1688 C1689 1.321 . S
N1688 Eu1691 2.609 . S
C1689 C1687 1.400 . S
C1689 N1688 1.321 . S
C1689 H1696 0.930 . S
C1690 C1685 1.395 . S
C1690 C1687 1.386 . S
C1690 H1709 0.930 . S
Eu1691 N1688 2.609 . S
Eu1691 N1692 2.657 . S
Eu1691 O1725 2.380 . S
Eu1691 O1726 2.432 . S
Eu1691 O1730 2.558 1_556 S
Eu1691 O1731 2.612 . S
Eu1691 O1733 2.339 1_556 S
Eu1691 O1734 2.563 1_556 S
Eu1691 O1735 2.419 1_556 S
Eu1691 C1755 2.848 1_556 S
N1692 C1684 1.362 . S
N1692 Eu1691 2.657 . S
N1692 C1693 1.334 . S
C1693 N1692 1.334 . S
C1693 C1695 1.413 . S
C1693 H1700 0.929 . S
C1694 C1682 1.392 . S
C1694 C1695 1.367 . S
C1694 H1702 0.930 . S
C1695 C1693 1.413 . S
C1695 C1694 1.367 . S
C1695 H1697 0.930 . S
H1696 C1689 0.930 . S
H1697 C1695 0.930 . S
H1698 C1686 0.930 . S
H1699 C1687 0.930 . S
H1700 C1693 0.929 . S
H1701 C1715 0.930 . S
H1702 C1694 0.930 . S
H1703 C1721 0.930 . S
H1704 C1712 0.929 . S
H1705 C1719 0.930 . S
H1706 C1683 0.931 . S
H1707 C1713 0.930 . S
H1708 C1746 0.930 . S
H1709 C1690 0.930 . S
H1710 C1745 0.931 . S
N1711 Eu1680 2.657 . S
N1711 C1712 1.334 . S
N1711 C1716 1.362 . S
C1712 H1704 0.929 . S
C1712 N1711 1.334 . S
C1712 C1715 1.413 . S
C1713 H1707 0.930 . S
C1713 C1714 1.392 . S
C1713 C1715 1.367 . S
C1714 C1713 1.392 . S
C1714 C1716 1.420 . S
C1714 C1746 1.423 1_556 S
C1715 H1701 0.930 . S
C1715 C1712 1.413 . S
C1715 C1713 1.367 . S
C1716 N1711 1.362 . S
C1716 C1714 1.420 . S
C1716 C1720 1.429 . S
H1717 C1722 0.930 . S
N1718 Eu1680 2.609 . S
N1718 C1720 1.377 . S
N1718 C1721 1.321 . S
C1719 H1705 0.930 . S
C1719 C1721 1.400 1_554 S
C1719 C1722 1.386 . S
C1720 C1716 1.429 . S
C1720 N1718 1.377 . S
C1720 C1723 1.411 1_556 S
C1721 H1703 0.930 . S
C1721 N1718 1.321 . S
C1721 C1719 1.400 1_556 S
C1722 H1717 0.930 . S
C1722 C1719 1.386 . S
C1722 C1723 1.395 . S
C1723 C1720 1.411 1_554 S
C1723 C1722 1.395 . S
C1723 C1745 1.420 . S
O1724 Eu1680 2.558 . S
O1724 C1744 1.257 . S
O1725 Eu1680 2.612 . S
O1725 Eu1691 2.380 . S
O1725 C1736 1.276 . S
O1726 Eu1691 2.432 . S
O1726 C1743 1.264 . S
O1727 Eu1680 2.339 . S
O1727 C1743 1.254 . S
O1728 Eu1680 2.563 . S
O1728 C1736 1.235 . S
O1729 Eu1680 2.419 . S
O1729 C1744 1.249 . S
O1730 Eu1691 2.558 1_554 S
O1730 C1755 1.257 . S
O1731 Eu1680 2.380 . S
O1731 Eu1691 2.612 . S
O1731 C1747 1.276 1_556 S
O1732 Eu1680 2.432 . S
O1732 C1754 1.264 1_556 S
O1733 Eu1691 2.339 1_554 S
O1733 C1754 1.254 . S
O1734 Eu1691 2.563 1_554 S
O1734 C1747 1.235 . S
O1735 Eu1691 2.419 1_554 S
O1735 C1755 1.249 . S
C1736 O1725 1.276 . S
C1736 O1728 1.235 . S
C1737 C1739 1.393 . S
C1737 C1741 1.395 . S
C1737 C1744 1.492 . S
C1738 C1739 1.392 . S
C1738 C1740 1.386 . S
C1739 C1737 1.393 . S
C1739 C1738 1.392 . S
C1739 H1756 0.930 . S
C1740 C1738 1.386 . S
C1740 C1742 1.395 . S
C1740 H1757 0.930 . S
C1741 C1737 1.395 . S
C1741 C1742 1.379 . S
C1741 H1758 0.930 . S
C1742 C1740 1.395 . S
C1742 C1741 1.379 . S
C1742 H1759 0.930 . S
C1743 O1726 1.264 . S
C1743 O1727 1.254 . S
C1744 Eu1680 2.848 . S
C1744 O1724 1.257 . S
C1744 O1729 1.249 . S
C1744 C1737 1.492 . S
C1745 H1710 0.931 . S
C1745 C1723 1.420 . S
C1745 C1746 1.351 . S
C1746 H1708 0.930 . S
C1746 C1714 1.423 1_554 S
C1746 C1745 1.351 . S
C1747 O1731 1.276 1_554 S
C1747 O1734 1.235 . S
C1748 C1749 1.393 . S
C1748 C1752 1.395 . S
C1748 C1755 1.492 . S
C1749 C1748 1.393 . S
C1749 C1750 1.392 . S
C1749 H1760 0.930 . S
C1750 C1749 1.392 . S
C1750 C1751 1.386 . S
C1751 C1750 1.386 . S
C1751 C1753 1.395 . S
C1751 H1761 0.930 . S
C1752 C1748 1.395 . S
C1752 C1753 1.379 . S
C1752 H1762 0.930 . S
C1753 C1751 1.395 . S
C1753 C1752 1.379 . S
C1753 H1763 0.930 . S
C1754 O1732 1.264 1_554 S
C1754 O1733 1.254 . S
C1755 Eu1691 2.848 1_554 S
C1755 O1730 1.257 . S
C1755 O1735 1.249 . S
C1755 C1748 1.492 . S
H1756 C1739 0.930 . S
H1757 C1740 0.930 . S
H1758 C1741 0.930 . S
H1759 C1742 0.930 . S
H1760 C1749 0.930 . S
H1761 C1751 0.930 . S
H1762 C1752 0.930 . S
H1763 C1753 0.930 . S
Eu1764 N1795 2.657 . S
Eu1764 N1802 2.609 . S
Eu1764 O1808 2.558 . S
Eu1764 O1809 2.612 . S
Eu1764 O1811 2.339 . S
Eu1764 O1812 2.563 . S
Eu1764 O1813 2.419 . S
Eu1764 O1815 2.380 . S
Eu1764 O1816 2.432 . S
Eu1764 C1828 2.848 . S
C1765 C1768 1.429 . S
C1765 C1769 1.411 . S
C1765 N1772 1.377 . S
C1766 C1768 1.420 . S
C1766 C1770 1.423 . S
C1766 C1778 1.392 . S
C1767 C1769 1.420 . S
C1767 C1770 1.351 . S
C1767 H1790 0.931 . S
C1768 C1765 1.429 . S
C1768 C1766 1.420 . S
C1768 N1776 1.362 . S
C1769 C1765 1.411 . S
C1769 C1767 1.420 . S
C1769 C1774 1.395 . S
C1770 C1766 1.423 . S
C1770 C1767 1.351 . S
C1770 H1782 0.930 . S
C1771 C1773 1.400 . S
C1771 C1774 1.386 . S
C1771 H1783 0.930 . S
N1772 C1765 1.377 . S
N1772 C1773 1.321 . S
N1772 Eu1775 2.609 . S
C1773 C1771 1.400 . S
C1773 N1772 1.321 . S
C1773 H1780 0.930 . S
C1774 C1769 1.395 . S
C1774 C1771 1.386 . S
C1774 H1793 0.930 . S
Eu1775 N1772 2.609 . S
Eu1775 N1776 2.657 . S
Eu1775 O1809 2.380 . S
Eu1775 O1810 2.432 . S
Eu1775 O1814 2.558 1_554 S
Eu1775 O1815 2.612 . S
Eu1775 O1817 2.339 1_554 S
Eu1775 O1818 2.563 1_554 S
Eu1775 O1819 2.419 1_554 S
Eu1775 C1839 2.848 1_554 S
N1776 C1768 1.362 . S
N1776 Eu1775 2.657 . S
N1776 C1777 1.334 . S
C1777 N1776 1.334 . S
C1777 C1779 1.413 . S
C1777 H1784 0.929 . S
C1778 C1766 1.392 . S
C1778 C1779 1.367 . S
C1778 H1786 0.930 . S
C1779 C1777 1.413 . S
C1779 C1778 1.367 . S
C1779 H1781 0.930 . S
H1780 C1773 0.930 . S
H1781 C1779 0.930 . S
H1782 C1770 0.930 . S
H1783 C1771 0.930 . S
H1784 C1777 0.929 . S
H1785 C1799 0.930 . S
H1786 C1778 0.930 . S
H1787 C1805 0.930 . S
H1788 C1796 0.929 . S
H1789 C1803 0.930 . S
H1790 C1767 0.931 . S
H1791 C1797 0.930 . S
H1792 C1830 0.930 . S
H1793 C1774 0.930 . S
H1794 C1829 0.931 . S
N1795 Eu1764 2.657 . S
N1795 C1796 1.334 . S
N1795 C1800 1.362 . S
C1796 H1788 0.929 . S
C1796 N1795 1.334 . S
C1796 C1799 1.413 . S
C1797 H1791 0.930 . S
C1797 C1798 1.392 . S
C1797 C1799 1.367 . S
C1798 C1797 1.392 . S
C1798 C1800 1.420 . S
C1798 C1830 1.423 1_554 S
C1799 H1785 0.930 . S
C1799 C1796 1.413 . S
C1799 C1797 1.367 . S
C1800 N1795 1.362 . S
C1800 C1798 1.420 . S
C1800 C1804 1.429 . S
H1801 C1806 0.930 . S
N1802 Eu1764 2.609 . S
N1802 C1804 1.377 . S
N1802 C1805 1.321 . S
C1803 H1789 0.930 . S
C1803 C1805 1.400 1_556 S
C1803 C1806 1.386 . S
C1804 C1800 1.429 . S
C1804 N1802 1.377 . S
C1804 C1807 1.411 1_554 S
C1805 H1787 0.930 . S
C1805 N1802 1.321 . S
C1805 C1803 1.400 1_554 S
C1806 H1801 0.930 . S
C1806 C1803 1.386 . S
C1806 C1807 1.395 . S
C1807 C1804 1.411 1_556 S
C1807 C1806 1.395 . S
C1807 C1829 1.420 . S
O1808 Eu1764 2.558 . S
O1808 C1828 1.257 . S
O1809 Eu1764 2.612 . S
O1809 Eu1775 2.380 . S
O1809 C1820 1.276 . S
O1810 Eu1775 2.432 . S
O1810 C1827 1.264 . S
O1811 Eu1764 2.339 . S
O1811 C1827 1.254 . S
O1812 Eu1764 2.563 . S
O1812 C1820 1.235 . S
O1813 Eu1764 2.419 . S
O1813 C1828 1.249 . S
O1814 Eu1775 2.558 1_556 S
O1814 C1839 1.257 . S
O1815 Eu1764 2.380 . S
O1815 Eu1775 2.612 . S
O1815 C1831 1.276 1_554 S
O1816 Eu1764 2.432 . S
O1816 C1838 1.264 1_554 S
O1817 Eu1775 2.339 1_556 S
O1817 C1838 1.254 . S
O1818 Eu1775 2.563 1_556 S
O1818 C1831 1.235 . S
O1819 Eu1775 2.419 1_556 S
O1819 C1839 1.249 . S
C1820 O1809 1.276 . S
C1820 O1812 1.235 . S
C1821 C1823 1.393 . S
C1821 C1825 1.395 . S
C1821 C1828 1.492 . S
C1822 C1823 1.392 . S
C1822 C1824 1.386 . S
C1823 C1821 1.393 . S
C1823 C1822 1.392 . S
C1823 H1840 0.930 . S
C1824 C1822 1.386 . S
C1824 C1826 1.395 . S
C1824 H1841 0.930 . S
C1825 C1821 1.395 . S
C1825 C1826 1.379 . S
C1825 H1842 0.930 . S
C1826 C1824 1.395 . S
C1826 C1825 1.379 . S
C1826 H1843 0.930 . S
C1827 O1810 1.264 . S
C1827 O1811 1.254 . S
C1828 Eu1764 2.848 . S
C1828 O1808 1.257 . S
C1828 O1813 1.249 . S
C1828 C1821 1.492 . S
C1829 H1794 0.931 . S
C1829 C1807 1.420 . S
C1829 C1830 1.351 . S
C1830 H1792 0.930 . S
C1830 C1798 1.423 1_556 S
C1830 C1829 1.351 . S
C1831 O1815 1.276 1_556 S
C1831 O1818 1.235 . S
C1832 C1833 1.393 . S
C1832 C1836 1.395 . S
C1832 C1839 1.492 . S
C1833 C1832 1.393 . S
C1833 C1834 1.392 . S
C1833 H1844 0.930 . S
C1834 C1833 1.392 . S
C1834 C1835 1.386 . S
C1835 C1834 1.386 . S
C1835 C1837 1.395 . S
C1835 H1845 0.930 . S
C1836 C1832 1.395 . S
C1836 C1837 1.379 . S
C1836 H1846 0.930 . S
C1837 C1835 1.395 . S
C1837 C1836 1.379 . S
C1837 H1847 0.930 . S
C1838 O1816 1.264 1_556 S
C1838 O1817 1.254 . S
C1839 Eu1775 2.848 1_556 S
C1839 O1814 1.257 . S
C1839 O1819 1.249 . S
C1839 C1832 1.492 . S
H1840 C1823 0.930 . S
H1841 C1824 0.930 . S
H1842 C1825 0.930 . S
H1843 C1826 0.930 . S
H1844 C1833 0.930 . S
H1845 C1835 0.930 . S
H1846 C1836 0.930 . S
H1847 C1837 0.930 . S
Eu1848 N1879 2.657 . S
Eu1848 N1886 2.609 . S
Eu1848 O1892 2.558 . S
Eu1848 O1893 2.612 . S
Eu1848 O1895 2.339 . S
Eu1848 O1896 2.563 . S
Eu1848 O1897 2.419 . S
Eu1848 O1899 2.380 . S
Eu1848 O1900 2.432 . S
Eu1848 C1912 2.848 . S
C1849 C1852 1.429 . S
C1849 C1853 1.411 . S
C1849 N1856 1.377 . S
C1850 C1852 1.420 . S
C1850 C1854 1.423 . S
C1850 C1862 1.392 . S
C1851 C1853 1.420 . S
C1851 C1854 1.351 . S
C1851 H1874 0.931 . S
C1852 C1849 1.429 . S
C1852 C1850 1.420 . S
C1852 N1860 1.362 . S
C1853 C1849 1.411 . S
C1853 C1851 1.420 . S
C1853 C1858 1.395 . S
C1854 C1850 1.423 . S
C1854 C1851 1.351 . S
C1854 H1866 0.930 . S
C1855 C1857 1.400 . S
C1855 C1858 1.386 . S
C1855 H1867 0.930 . S
N1856 C1849 1.377 . S
N1856 C1857 1.321 . S
N1856 Eu1859 2.609 . S
C1857 C1855 1.400 . S
C1857 N1856 1.321 . S
C1857 H1864 0.930 . S
C1858 C1853 1.395 . S
C1858 C1855 1.386 . S
C1858 H1877 0.930 . S
Eu1859 N1856 2.609 . S
Eu1859 N1860 2.657 . S
Eu1859 O1893 2.380 . S
Eu1859 O1894 2.432 . S
Eu1859 O1898 2.558 . S
Eu1859 O1899 2.612 . S
Eu1859 O1901 2.339 . S
Eu1859 O1902 2.563 . S
Eu1859 O1903 2.419 . S
Eu1859 C1923 2.848 . S
N1860 C1852 1.362 . S
N1860 Eu1859 2.657 . S
N1860 C1861 1.334 . S
C1861 N1860 1.334 . S
C1861 C1863 1.413 . S
C1861 H1868 0.929 . S
C1862 C1850 1.392 . S
C1862 C1863 1.367 . S
C1862 H1870 0.930 . S
C1863 C1861 1.413 . S
C1863 C1862 1.367 . S
C1863 H1865 0.930 . S
H1864 C1857 0.930 . S
H1865 C1863 0.930 . S
H1866 C1854 0.930 . S
H1867 C1855 0.930 . S
H1868 C1861 0.929 . S
H1869 C1883 0.930 . S
H1870 C1862 0.930 . S
H1871 C1889 0.930 . S
H1872 C1880 0.929 . S
H1873 C1887 0.930 . S
H1874 C1851 0.931 . S
H1875 C1881 0.930 . S
H1876 C1914 0.930 . S
H1877 C1858 0.930 . S
H1878 C1913 0.931 . S
N1879 Eu1848 2.657 . S
N1879 C1880 1.334 . S
N1879 C1884 1.362 . S
C1880 H1872 0.929 . S
C1880 N1879 1.334 . S
C1880 C1883 1.413 . S
C1881 H1875 0.930 . S
C1881 C1882 1.392 . S
C1881 C1883 1.367 . S
C1882 C1881 1.392 . S
C1882 C1884 1.420 . S
C1882 C1914 1.423 . S
C1883 H1869 0.930 . S
C1883 C1880 1.413 . S
C1883 C1881 1.367 . S
C1884 N1879 1.362 . S
C1884 C1882 1.420 . S
C1884 C1888 1.429 . S
H1885 C1890 0.930 . S
N1886 Eu1848 2.609 . S
N1886 C1888 1.377 . S
N1886 C1889 1.321 . S
C1887 H1873 0.930 . S
C1887 C1889 1.400 . S
C1887 C1890 1.386 . S
C1888 C1884 1.429 . S
C1888 N1886 1.377 . S
C1888 C1891 1.411 . S
C1889 H1871 0.930 . S
C1889 N1886 1.321 . S
C1889 C1887 1.400 . S
C1890 H1885 0.930 . S
C1890 C1887 1.386 . S
C1890 C1891 1.395 . S
C1891 C1888 1.411 . S
C1891 C1890 1.395 . S
C1891 C1913 1.420 . S
O1892 Eu1848 2.558 . S
O1892 C1912 1.257 . S
O1893 Eu1848 2.612 . S
O1893 Eu1859 2.380 . S
O1893 C1904 1.276 . S
O1894 Eu1859 2.432 . S
O1894 C1911 1.264 . S
O1895 Eu1848 2.339 . S
O1895 C1911 1.254 . S
O1896 Eu1848 2.563 . S
O1896 C1904 1.235 . S
O1897 Eu1848 2.419 . S
O1897 C1912 1.249 . S
O1898 Eu1859 2.558 . S
O1898 C1923 1.257 . S
O1899 Eu1848 2.380 . S
O1899 Eu1859 2.612 . S
O1899 C1915 1.276 . S
O1900 Eu1848 2.432 . S
O1900 C1922 1.264 . S
O1901 Eu1859 2.339 . S
O1901 C1922 1.254 . S
O1902 Eu1859 2.563 . S
O1902 C1915 1.235 . S
O1903 Eu1859 2.419 . S
O1903 C1923 1.249 . S
C1904 O1893 1.276 . S
C1904 O1896 1.235 . S
C1905 C1907 1.393 . S
C1905 C1909 1.395 . S
C1905 C1912 1.492 . S
C1906 C1907 1.392 . S
C1906 C1908 1.386 . S
C1907 C1905 1.393 . S
C1907 C1906 1.392 . S
C1907 H1924 0.930 . S
C1908 C1906 1.386 . S
C1908 C1910 1.395 . S
C1908 H1925 0.930 . S
C1909 C1905 1.395 . S
C1909 C1910 1.379 . S
C1909 H1926 0.930 . S
C1910 C1908 1.395 . S
C1910 C1909 1.379 . S
C1910 H1927 0.930 . S
C1911 O1894 1.264 . S
C1911 O1895 1.254 . S
C1912 Eu1848 2.848 . S
C1912 O1892 1.257 . S
C1912 O1897 1.249 . S
C1912 C1905 1.492 . S
C1913 H1878 0.931 . S
C1913 C1891 1.420 . S
C1913 C1914 1.351 . S
C1914 H1876 0.930 . S
C1914 C1882 1.423 . S
C1914 C1913 1.351 . S
C1915 O1899 1.276 . S
C1915 O1902 1.235 . S
C1916 C1917 1.393 . S
C1916 C1920 1.395 . S
C1916 C1923 1.492 . S
C1917 C1916 1.393 . S
C1917 C1918 1.392 . S
C1917 H1928 0.930 . S
C1918 C1917 1.392 . S
C1918 C1919 1.386 . S
C1919 C1918 1.386 . S
C1919 C1921 1.395 . S
C1919 H1929 0.930 . S
C1920 C1916 1.395 . S
C1920 C1921 1.379 . S
C1920 H1930 0.930 . S
C1921 C1919 1.395 . S
C1921 C1920 1.379 . S
C1921 H1931 0.930 . S
C1922 O1900 1.264 . S
C1922 O1901 1.254 . S
C1923 Eu1859 2.848 . S
C1923 O1898 1.257 . S
C1923 O1903 1.249 . S
C1923 C1916 1.492 . S
H1924 C1907 0.930 . S
H1925 C1908 0.930 . S
H1926 C1909 0.930 . S
H1927 C1910 0.930 . S
H1928 C1917 0.930 . S
H1929 C1919 0.930 . S
H1930 C1920 0.930 . S
H1931 C1921 0.930 . S
Eu1932 N1963 2.657 . S
Eu1932 N1970 2.609 . S
Eu1932 O1976 2.558 . S
Eu1932 O1977 2.612 . S
Eu1932 O1979 2.339 . S
Eu1932 O1980 2.563 . S
Eu1932 O1981 2.419 . S
Eu1932 O1983 2.380 . S
Eu1932 O1984 2.432 . S
Eu1932 C1996 2.848 . S
C1933 C1936 1.429 . S
C1933 C1937 1.411 . S
C1933 N1940 1.377 . S
C1934 C1936 1.420 . S
C1934 C1938 1.423 . S
C1934 C1946 1.392 . S
C1935 C1937 1.420 . S
C1935 C1938 1.351 . S
C1935 H1958 0.931 . S
C1936 C1933 1.429 . S
C1936 C1934 1.420 . S
C1936 N1944 1.362 . S
C1937 C1933 1.411 . S
C1937 C1935 1.420 . S
C1937 C1942 1.395 . S
C1938 C1934 1.423 . S
C1938 C1935 1.351 . S
C1938 H1950 0.930 . S
C1939 C1941 1.400 . S
C1939 C1942 1.386 . S
C1939 H1951 0.930 . S
N1940 C1933 1.377 . S
N1940 C1941 1.321 . S
N1940 Eu1943 2.609 . S
C1941 C1939 1.400 . S
C1941 N1940 1.321 . S
C1941 H1948 0.930 . S
C1942 C1937 1.395 . S
C1942 C1939 1.386 . S
C1942 H1961 0.930 . S
Eu1943 N1940 2.609 . S
Eu1943 N1944 2.657 . S
Eu1943 O1977 2.380 . S
Eu1943 O1978 2.432 . S
Eu1943 O1982 2.558 . S
Eu1943 O1983 2.612 . S
Eu1943 O1985 2.339 . S
Eu1943 O1986 2.563 . S
Eu1943 O1987 2.419 . S
Eu1943 C2007 2.848 . S
N1944 C1936 1.362 . S
N1944 Eu1943 2.657 . S
N1944 C1945 1.334 . S
C1945 N1944 1.334 . S
C1945 C1947 1.413 . S
C1945 H1952 0.929 . S
C1946 C1934 1.392 . S
C1946 C1947 1.367 . S
C1946 H1954 0.930 . S
C1947 C1945 1.413 . S
C1947 C1946 1.367 . S
C1947 H1949 0.930 . S
H1948 C1941 0.930 . S
H1949 C1947 0.930 . S
H1950 C1938 0.930 . S
H1951 C1939 0.930 . S
H1952 C1945 0.929 . S
H1953 C1967 0.930 . S
H1954 C1946 0.930 . S
H1955 C1973 0.930 . S
H1956 C1964 0.929 . S
H1957 C1971 0.930 . S
H1958 C1935 0.931 . S
H1959 C1965 0.930 . S
H1960 C1998 0.930 . S
H1961 C1942 0.930 . S
H1962 C1997 0.931 . S
N1963 Eu1932 2.657 . S
N1963 C1964 1.334 . S
N1963 C1968 1.362 . S
C1964 H1956 0.929 . S
C1964 N1963 1.334 . S
C1964 C1967 1.413 . S
C1965 H1959 0.930 . S
C1965 C1966 1.392 . S
C1965 C1967 1.367 . S
C1966 C1965 1.392 . S
C1966 C1968 1.420 . S
C1966 C1998 1.423 . S
C1967 H1953 0.930 . S
C1967 C1964 1.413 . S
C1967 C1965 1.367 . S
C1968 N1963 1.362 . S
C1968 C1966 1.420 . S
C1968 C1972 1.429 . S
H1969 C1974 0.930 . S
N1970 Eu1932 2.609 . S
N1970 C1972 1.377 . S
N1970 C1973 1.321 . S
C1971 H1957 0.930 . S
C1971 C1973 1.400 . S
C1971 C1974 1.386 . S
C1972 C1968 1.429 . S
C1972 N1970 1.377 . S
C1972 C1975 1.411 . S
C1973 H1955 0.930 . S
C1973 N1970 1.321 . S
C1973 C1971 1.400 . S
C1974 H1969 0.930 . S
C1974 C1971 1.386 . S
C1974 C1975 1.395 . S
C1975 C1972 1.411 . S
C1975 C1974 1.395 . S
C1975 C1997 1.420 . S
O1976 Eu1932 2.558 . S
O1976 C1996 1.257 . S
O1977 Eu1932 2.612 . S
O1977 Eu1943 2.380 . S
O1977 C1988 1.276 . S
O1978 Eu1943 2.432 . S
O1978 C1995 1.264 . S
O1979 Eu1932 2.339 . S
O1979 C1995 1.254 . S
O1980 Eu1932 2.563 . S
O1980 C1988 1.235 . S
O1981 Eu1932 2.419 . S
O1981 C1996 1.249 . S
O1982 Eu1943 2.558 . S
O1982 C2007 1.257 . S
O1983 Eu1932 2.380 . S
O1983 Eu1943 2.612 . S
O1983 C1999 1.276 . S
O1984 Eu1932 2.432 . S
O1984 C2006 1.264 . S
O1985 Eu1943 2.339 . S
O1985 C2006 1.254 . S
O1986 Eu1943 2.563 . S
O1986 C1999 1.235 . S
O1987 Eu1943 2.419 . S
O1987 C2007 1.249 . S
C1988 O1977 1.276 . S
C1988 O1980 1.235 . S
C1989 C1991 1.393 . S
C1989 C1993 1.395 . S
C1989 C1996 1.492 . S
C1990 C1991 1.392 . S
C1990 C1992 1.386 . S
C1991 C1989 1.393 . S
C1991 C1990 1.392 . S
C1991 H2008 0.930 . S
C1992 C1990 1.386 . S
C1992 C1994 1.395 . S
C1992 H2009 0.930 . S
C1993 C1989 1.395 . S
C1993 C1994 1.379 . S
C1993 H2010 0.930 . S
C1994 C1992 1.395 . S
C1994 C1993 1.379 . S
C1994 H2011 0.930 . S
C1995 O1978 1.264 . S
C1995 O1979 1.254 . S
C1996 Eu1932 2.848 . S
C1996 O1976 1.257 . S
C1996 O1981 1.249 . S
C1996 C1989 1.492 . S
C1997 H1962 0.931 . S
C1997 C1975 1.420 . S
C1997 C1998 1.351 . S
C1998 H1960 0.930 . S
C1998 C1966 1.423 . S
C1998 C1997 1.351 . S
C1999 O1983 1.276 . S
C1999 O1986 1.235 . S
C2000 C2001 1.393 . S
C2000 C2004 1.395 . S
C2000 C2007 1.492 . S
C2001 C2000 1.393 . S
C2001 C2002 1.392 . S
C2001 H2012 0.930 . S
C2002 C2001 1.392 . S
C2002 C2003 1.386 . S
C2003 C2002 1.386 . S
C2003 C2005 1.395 . S
C2003 H2013 0.930 . S
C2004 C2000 1.395 . S
C2004 C2005 1.379 . S
C2004 H2014 0.930 . S
C2005 C2003 1.395 . S
C2005 C2004 1.379 . S
C2005 H2015 0.930 . S
C2006 O1984 1.264 . S
C2006 O1985 1.254 . S
C2007 Eu1943 2.848 . S
C2007 O1982 1.257 . S
C2007 O1987 1.249 . S
C2007 C2000 1.492 . S
H2008 C1991 0.930 . S
H2009 C1992 0.930 . S
H2010 C1993 0.930 . S
H2011 C1994 0.930 . S
H2012 C2001 0.930 . S
H2013 C2003 0.930 . S
H2014 C2004 0.930 . S
H2015 C2005 0.930 . S
H2016 C2024 0.950 . S
H2017 C2029 0.950 . S
H2018 C2026 0.950 . S
H2019 C2028 0.950 . S
H2020 C2030 0.950 . S
H2021 C2032 0.950 . S
H2022 C2034 0.950 . S
H2023 C2035 0.950 . S
C2024 H2016 0.950 . S
C2024 C2025 1.386 . S
C2024 C2026 1.391 . S
C2025 C2024 1.386 . S
C2025 C2029 1.393 . S
C2026 H2018 0.950 . S
C2026 C2024 1.391 . S
C2026 C2027 1.400 . S
C2027 C2026 1.400 . S
C2027 C2028 1.398 . S
C2027 C2033 1.491 . S
C2028 H2019 0.950 . S
C2028 C2027 1.398 . S
C2028 C2029 1.391 . S
C2029 H2017 0.950 . S
C2029 C2025 1.393 . S
C2029 C2028 1.391 . S
C2030 H2020 0.950 . S
C2030 C2031 1.386 . S
C2030 C2032 1.391 . S
C2031 C2030 1.386 . S
C2031 C2035 1.393 . S
C2032 H2021 0.950 . S
C2032 C2030 1.391 . S
C2032 C2033 1.400 . S
C2033 C2027 1.491 . S
C2033 C2032 1.400 . S
C2033 C2034 1.398 . S
C2034 H2022 0.950 . S
C2034 C2033 1.398 . S
C2034 C2035 1.391 . S
C2035 H2023 0.950 . S
C2035 C2031 1.393 . S
C2035 C2034 1.391 . S
H2036 C2044 0.950 . S
H2037 C2049 0.950 . S
H2038 C2046 0.950 . S
H2039 C2048 0.950 . S
H2040 C2050 0.950 . S
H2041 C2052 0.950 . S
H2042 C2054 0.950 . S
H2043 C2055 0.950 . S
C2044 H2036 0.950 . S
C2044 C2045 1.386 . S
C2044 C2046 1.391 . S
C2045 C2044 1.386 . S
C2045 C2049 1.393 . S
C2046 H2038 0.950 . S
C2046 C2044 1.391 . S
C2046 C2047 1.400 . S
C2047 C2046 1.400 . S
C2047 C2048 1.398 . S
C2047 C2053 1.491 . S
C2048 H2039 0.950 . S
C2048 C2047 1.398 . S
C2048 C2049 1.391 . S
C2049 H2037 0.950 . S
C2049 C2045 1.393 . S
C2049 C2048 1.391 . S
C2050 H2040 0.950 . S
C2050 C2051 1.386 . S
C2050 C2052 1.391 . S
C2051 C2050 1.386 . S
C2051 C2055 1.393 . S
C2052 H2041 0.950 . S
C2052 C2050 1.391 . S
C2052 C2053 1.400 . S
C2053 C2047 1.491 . S
C2053 C2052 1.400 . S
C2053 C2054 1.398 . S
C2054 H2042 0.950 . S
C2054 C2053 1.398 . S
C2054 C2055 1.391 . S
C2055 H2043 0.950 . S
C2055 C2051 1.393 . S
C2055 C2054 1.391 . S
H2056 C2064 0.950 . S
H2057 C2069 0.950 . S
H2058 C2066 0.950 . S
H2059 C2068 0.950 . S
H2060 C2070 0.950 . S
H2061 C2072 0.950 . S
H2062 C2074 0.950 . S
H2063 C2075 0.950 . S
C2064 H2056 0.950 . S
C2064 C2065 1.386 . S
C2064 C2066 1.391 . S
C2065 C2064 1.386 . S
C2065 C2069 1.393 . S
C2066 H2058 0.950 . S
C2066 C2064 1.391 . S
C2066 C2067 1.400 . S
C2067 C2066 1.400 . S
C2067 C2068 1.398 . S
C2067 C2073 1.491 . S
C2068 H2059 0.950 . S
C2068 C2067 1.398 . S
C2068 C2069 1.391 . S
C2069 H2057 0.950 . S
C2069 C2065 1.393 . S
C2069 C2068 1.391 . S
C2070 H2060 0.950 . S
C2070 C2071 1.386 . S
C2070 C2072 1.391 . S
C2071 C2070 1.386 . S
C2071 C2075 1.393 . S
C2072 H2061 0.950 . S
C2072 C2070 1.391 . S
C2072 C2073 1.400 . S
C2073 C2067 1.491 . S
C2073 C2072 1.400 . S
C2073 C2074 1.398 . S
C2074 H2062 0.950 . S
C2074 C2073 1.398 . S
C2074 C2075 1.391 . S
C2075 H2063 0.950 . S
C2075 C2071 1.393 . S
C2075 C2074 1.391 . S
H2076 C2084 0.950 . S
H2077 C2089 0.950 . S
H2078 C2086 0.950 . S
H2079 C2088 0.950 . S
H2080 C2090 0.950 . S
H2081 C2092 0.950 . S
H2082 C2094 0.950 . S
H2083 C2095 0.950 . S
C2084 H2076 0.950 . S
C2084 C2085 1.386 . S
C2084 C2086 1.391 . S
C2085 C2084 1.386 . S
C2085 C2089 1.393 . S
C2086 H2078 0.950 . S
C2086 C2084 1.391 . S
C2086 C2087 1.400 . S
C2087 C2086 1.400 . S
C2087 C2088 1.398 . S
C2087 C2093 1.491 . S
C2088 H2079 0.950 . S
C2088 C2087 1.398 . S
C2088 C2089 1.391 . S
C2089 H2077 0.950 . S
C2089 C2085 1.393 . S
C2089 C2088 1.391 . S
C2090 H2080 0.950 . S
C2090 C2091 1.386 . S
C2090 C2092 1.391 . S
C2091 C2090 1.386 . S
C2091 C2095 1.393 . S
C2092 H2081 0.950 . S
C2092 C2090 1.391 . S
C2092 C2093 1.400 . S
C2093 C2087 1.491 . S
C2093 C2092 1.400 . S
C2093 C2094 1.398 . S
C2094 H2082 0.950 . S
C2094 C2093 1.398 . S
C2094 C2095 1.391 . S
C2095 H2083 0.950 . S
C2095 C2091 1.393 . S
C2095 C2094 1.391 . S
H2096 C2104 0.950 . S
H2097 C2109 0.950 . S
H2098 C2106 0.950 . S
H2099 C2108 0.950 . S
H2100 C2110 0.950 . S
H2101 C2112 0.950 . S
H2102 C2114 0.950 . S
H2103 C2115 0.950 . S
C2104 H2096 0.950 . S
C2104 C2105 1.386 . S
C2104 C2106 1.391 . S
C2105 C2104 1.386 . S
C2105 C2109 1.393 . S
C2106 H2098 0.950 . S
C2106 C2104 1.391 . S
C2106 C2107 1.400 . S
C2107 C2106 1.400 . S
C2107 C2108 1.398 . S
C2107 C2113 1.491 . S
C2108 H2099 0.950 . S
C2108 C2107 1.398 . S
C2108 C2109 1.391 . S
C2109 H2097 0.950 . S
C2109 C2105 1.393 . S
C2109 C2108 1.391 . S
C2110 H2100 0.950 . S
C2110 C2111 1.386 . S
C2110 C2112 1.391 . S
C2111 C2110 1.386 . S
C2111 C2115 1.393 . S
C2112 H2101 0.950 . S
C2112 C2110 1.391 . S
C2112 C2113 1.400 . S
C2113 C2107 1.491 . S
C2113 C2112 1.400 . S
C2113 C2114 1.398 . S
C2114 H2102 0.950 . S
C2114 C2113 1.398 . S
C2114 C2115 1.391 . S
C2115 H2103 0.950 . S
C2115 C2111 1.393 . S
C2115 C2114 1.391 . S
H2116 C2124 0.950 . S
H2117 C2129 0.950 . S
H2118 C2126 0.950 . S
H2119 C2128 0.950 . S
H2120 C2130 0.950 . S
H2121 C2132 0.950 . S
H2122 C2134 0.950 . S
H2123 C2135 0.950 . S
C2124 H2116 0.950 . S
C2124 C2125 1.386 . S
C2124 C2126 1.391 . S
C2125 C2124 1.386 . S
C2125 C2129 1.393 . S
C2126 H2118 0.950 . S
C2126 C2124 1.391 . S
C2126 C2127 1.400 . S
C2127 C2126 1.400 . S
C2127 C2128 1.398 . S
C2127 C2133 1.491 . S
C2128 H2119 0.950 . S
C2128 C2127 1.398 . S
C2128 C2129 1.391 . S
C2129 H2117 0.950 . S
C2129 C2125 1.393 . S
C2129 C2128 1.391 . S
C2130 H2120 0.950 . S
C2130 C2131 1.386 . S
C2130 C2132 1.391 . S
C2131 C2130 1.386 . S
C2131 C2135 1.393 . S
C2132 H2121 0.950 . S
C2132 C2130 1.391 . S
C2132 C2133 1.400 . S
C2133 C2127 1.491 . S
C2133 C2132 1.400 . S
C2133 C2134 1.398 . S
C2134 H2122 0.950 . S
C2134 C2133 1.398 . S
C2134 C2135 1.391 . S
C2135 H2123 0.950 . S
C2135 C2131 1.393 . S
C2135 C2134 1.391 . S
H2136 C2144 0.950 . S
H2137 C2149 0.950 . S
H2138 C2146 0.950 . S
H2139 C2148 0.950 . S
H2140 C2150 0.950 . S
H2141 C2152 0.950 . S
H2142 C2154 0.950 . S
H2143 C2155 0.950 . S
C2144 H2136 0.950 . S
C2144 C2145 1.386 . S
C2144 C2146 1.391 . S
C2145 C2144 1.386 . S
C2145 C2149 1.393 . S
C2146 H2138 0.950 . S
C2146 C2144 1.391 . S
C2146 C2147 1.400 . S
C2147 C2146 1.400 . S
C2147 C2148 1.398 . S
C2147 C2153 1.491 . S
C2148 H2139 0.950 . S
C2148 C2147 1.398 . S
C2148 C2149 1.391 . S
C2149 H2137 0.950 . S
C2149 C2145 1.393 . S
C2149 C2148 1.391 . S
C2150 H2140 0.950 . S
C2150 C2151 1.386 . S
C2150 C2152 1.391 . S
C2151 C2150 1.386 . S
C2151 C2155 1.393 . S
C2152 H2141 0.950 . S
C2152 C2150 1.391 . S
C2152 C2153 1.400 . S
C2153 C2147 1.491 . S
C2153 C2152 1.400 . S
C2153 C2154 1.398 . S
C2154 H2142 0.950 . S
C2154 C2153 1.398 . S
C2154 C2155 1.391 . S
C2155 H2143 0.950 . S
C2155 C2151 1.393 . S
C2155 C2154 1.391 . S
H2156 C2164 0.950 . S
H2157 C2169 0.950 . S
H2158 C2166 0.950 . S
H2159 C2168 0.950 . S
H2160 C2170 0.950 . S
H2161 C2172 0.950 . S
H2162 C2174 0.950 . S
H2163 C2175 0.950 . S
C2164 H2156 0.950 . S
C2164 C2165 1.386 . S
C2164 C2166 1.391 . S
C2165 C2164 1.386 . S
C2165 C2169 1.393 . S
C2166 H2158 0.950 . S
C2166 C2164 1.391 . S
C2166 C2167 1.400 . S
C2167 C2166 1.400 . S
C2167 C2168 1.398 . S
C2167 C2173 1.491 . S
C2168 H2159 0.950 . S
C2168 C2167 1.398 . S
C2168 C2169 1.391 . S
C2169 H2157 0.950 . S
C2169 C2165 1.393 . S
C2169 C2168 1.391 . S
C2170 H2160 0.950 . S
C2170 C2171 1.386 . S
C2170 C2172 1.391 . S
C2171 C2170 1.386 . S
C2171 C2175 1.393 . S
C2172 H2161 0.950 . S
C2172 C2170 1.391 . S
C2172 C2173 1.400 . S
C2173 C2167 1.491 . S
C2173 C2172 1.400 . S
C2173 C2174 1.398 . S
C2174 H2162 0.950 . S
C2174 C2173 1.398 . S
C2174 C2175 1.391 . S
C2175 H2163 0.950 . S
C2175 C2171 1.393 . S
C2175 C2174 1.391 . S
H2176 C2184 0.950 . S
H2177 C2189 0.950 . S
H2178 C2186 0.950 . S
H2179 C2188 0.950 . S
H2180 C2190 0.950 . S
H2181 C2192 0.950 . S
H2182 C2194 0.950 . S
H2183 C2195 0.950 . S
C2184 H2176 0.950 . S
C2184 C2185 1.386 . S
C2184 C2186 1.391 . S
C2185 C2184 1.386 . S
C2185 C2189 1.393 . S
C2186 H2178 0.950 . S
C2186 C2184 1.391 . S
C2186 C2187 1.400 . S
C2187 C2186 1.400 . S
C2187 C2188 1.398 . S
C2187 C2193 1.491 . S
C2188 H2179 0.950 . S
C2188 C2187 1.398 . S
C2188 C2189 1.391 . S
C2189 H2177 0.950 . S
C2189 C2185 1.393 . S
C2189 C2188 1.391 . S
C2190 H2180 0.950 . S
C2190 C2191 1.386 . S
C2190 C2192 1.391 . S
C2191 C2190 1.386 . S
C2191 C2195 1.393 . S
C2192 H2181 0.950 . S
C2192 C2190 1.391 . S
C2192 C2193 1.400 . S
C2193 C2187 1.491 . S
C2193 C2192 1.400 . S
C2193 C2194 1.398 . S
C2194 H2182 0.950 . S
C2194 C2193 1.398 . S
C2194 C2195 1.391 . S
C2195 H2183 0.950 . S
C2195 C2191 1.393 . S
C2195 C2194 1.391 . S
H2196 C2204 0.950 . S
H2197 C2209 0.950 . S
H2198 C2206 0.950 . S
H2199 C2208 0.950 . S
H2200 C2210 0.950 . S
H2201 C2212 0.950 . S
H2202 C2214 0.950 . S
H2203 C2215 0.950 . S
C2204 H2196 0.950 . S
C2204 C2205 1.386 . S
C2204 C2206 1.391 . S
C2205 C2204 1.386 . S
C2205 C2209 1.393 . S
C2206 H2198 0.950 . S
C2206 C2204 1.391 . S
C2206 C2207 1.400 . S
C2207 C2206 1.400 . S
C2207 C2208 1.398 . S
C2207 C2213 1.491 . S
C2208 H2199 0.950 . S
C2208 C2207 1.398 . S
C2208 C2209 1.391 . S
C2209 H2197 0.950 . S
C2209 C2205 1.393 . S
C2209 C2208 1.391 . S
C2210 H2200 0.950 . S
C2210 C2211 1.386 . S
C2210 C2212 1.391 . S
C2211 C2210 1.386 . S
C2211 C2215 1.393 . S
C2212 H2201 0.950 . S
C2212 C2210 1.391 . S
C2212 C2213 1.400 . S
C2213 C2207 1.491 . S
C2213 C2212 1.400 . S
C2213 C2214 1.398 . S
C2214 H2202 0.950 . S
C2214 C2213 1.398 . S
C2214 C2215 1.391 . S
C2215 H2203 0.950 . S
C2215 C2211 1.393 . S
C2215 C2214 1.391 . S
H2216 C2224 0.950 . S
H2217 C2229 0.950 . S
H2218 C2226 0.950 . S
H2219 C2228 0.950 . S
H2220 C2230 0.950 . S
H2221 C2232 0.950 . S
H2222 C2234 0.950 . S
H2223 C2235 0.950 . S
C2224 H2216 0.950 . S
C2224 C2225 1.386 . S
C2224 C2226 1.391 . S
C2225 C2224 1.386 . S
C2225 C2229 1.393 . S
C2226 H2218 0.950 . S
C2226 C2224 1.391 . S
C2226 C2227 1.400 . S
C2227 C2226 1.400 . S
C2227 C2228 1.398 . S
C2227 C2233 1.491 . S
C2228 H2219 0.950 . S
C2228 C2227 1.398 . S
C2228 C2229 1.391 . S
C2229 H2217 0.950 . S
C2229 C2225 1.393 . S
C2229 C2228 1.391 . S
C2230 H2220 0.950 . S
C2230 C2231 1.386 . S
C2230 C2232 1.391 . S
C2231 C2230 1.386 . S
C2231 C2235 1.393 . S
C2232 H2221 0.950 . S
C2232 C2230 1.391 . S
C2232 C2233 1.400 . S
C2233 C2227 1.491 . S
C2233 C2232 1.400 . S
C2233 C2234 1.398 . S
C2234 H2222 0.950 . S
C2234 C2233 1.398 . S
C2234 C2235 1.391 . S
C2235 H2223 0.950 . S
C2235 C2231 1.393 . S
C2235 C2234 1.391 . S
H2236 C2244 0.950 . S
H2237 C2249 0.950 . S
H2238 C2246 0.950 . S
H2239 C2248 0.950 . S
H2240 C2250 0.950 . S
H2241 C2252 0.950 . S
H2242 C2254 0.950 . S
H2243 C2255 0.950 . S
C2244 H2236 0.950 . S
C2244 C2245 1.386 . S
C2244 C2246 1.391 . S
C2245 C2244 1.386 . S
C2245 C2249 1.393 . S
C2246 H2238 0.950 . S
C2246 C2244 1.391 . S
C2246 C2247 1.400 . S
C2247 C2246 1.400 . S
C2247 C2248 1.398 . S
C2247 C2253 1.491 . S
C2248 H2239 0.950 . S
C2248 C2247 1.398 . S
C2248 C2249 1.391 . S
C2249 H2237 0.950 . S
C2249 C2245 1.393 . S
C2249 C2248 1.391 . S
C2250 H2240 0.950 . S
C2250 C2251 1.386 . S
C2250 C2252 1.391 . S
C2251 C2250 1.386 . S
C2251 C2255 1.393 . S
C2252 H2241 0.950 . S
C2252 C2250 1.391 . S
C2252 C2253 1.400 . S
C2253 C2247 1.491 . S
C2253 C2252 1.400 . S
C2253 C2254 1.398 . S
C2254 H2242 0.950 . S
C2254 C2253 1.398 . S
C2254 C2255 1.391 . S
C2255 H2243 0.950 . S
C2255 C2251 1.393 . S
C2255 C2254 1.391 . S
H2256 C2264 0.950 . S
H2257 C2269 0.950 . S
H2258 C2266 0.950 . S
H2259 C2268 0.950 . S
H2260 C2270 0.950 . S
H2261 C2272 0.950 . S
H2262 C2274 0.950 . S
H2263 C2275 0.950 . S
C2264 H2256 0.950 . S
C2264 C2265 1.386 . S
C2264 C2266 1.391 . S
C2265 C2264 1.386 . S
C2265 C2269 1.393 . S
C2266 H2258 0.950 . S
C2266 C2264 1.391 . S
C2266 C2267 1.400 . S
C2267 C2266 1.400 . S
C2267 C2268 1.398 . S
C2267 C2273 1.491 . S
C2268 H2259 0.950 . S
C2268 C2267 1.398 . S
C2268 C2269 1.391 . S
C2269 H2257 0.950 . S
C2269 C2265 1.393 . S
C2269 C2268 1.391 . S
C2270 H2260 0.950 . S
C2270 C2271 1.386 . S
C2270 C2272 1.391 . S
C2271 C2270 1.386 . S
C2271 C2275 1.393 . S
C2272 H2261 0.950 . S
C2272 C2270 1.391 . S
C2272 C2273 1.400 . S
C2273 C2267 1.491 . S
C2273 C2272 1.400 . S
C2273 C2274 1.398 . S
C2274 H2262 0.950 . S
C2274 C2273 1.398 . S
C2274 C2275 1.391 . S
C2275 H2263 0.950 . S
C2275 C2271 1.393 . S
C2275 C2274 1.391 . S
H2276 C2284 0.950 . S
H2277 C2289 0.950 . S
H2278 C2286 0.950 . S
H2279 C2288 0.950 . S
H2280 C2290 0.950 . S
H2281 C2292 0.950 . S
H2282 C2294 0.950 . S
H2283 C2295 0.950 . S
C2284 H2276 0.950 . S
C2284 C2285 1.386 . S
C2284 C2286 1.391 . S
C2285 C2284 1.386 . S
C2285 C2289 1.393 . S
C2286 H2278 0.950 . S
C2286 C2284 1.391 . S
C2286 C2287 1.400 . S
C2287 C2286 1.400 . S
C2287 C2288 1.398 . S
C2287 C2293 1.491 . S
C2288 H2279 0.950 . S
C2288 C2287 1.398 . S
C2288 C2289 1.391 . S
C2289 H2277 0.950 . S
C2289 C2285 1.393 . S
C2289 C2288 1.391 . S
C2290 H2280 0.950 . S
C2290 C2291 1.386 . S
C2290 C2292 1.391 . S
C2291 C2290 1.386 . S
C2291 C2295 1.393 . S
C2292 H2281 0.950 . S
C2292 C2290 1.391 . S
C2292 C2293 1.400 . S
C2293 C2287 1.491 . S
C2293 C2292 1.400 . S
C2293 C2294 1.398 . S
C2294 H2282 0.950 . S
C2294 C2293 1.398 . S
C2294 C2295 1.391 . S
C2295 H2283 0.950 . S
C2295 C2291 1.393 . S
C2295 C2294 1.391 . S
H2296 C2304 0.950 . S
H2297 C2309 0.950 . S
H2298 C2306 0.950 . S
H2299 C2308 0.950 . S
H2300 C2310 0.950 . S
H2301 C2312 0.950 . S
H2302 C2314 0.950 . S
H2303 C2315 0.950 . S
C2304 H2296 0.950 . S
C2304 C2305 1.386 . S
C2304 C2306 1.391 . S
C2305 C2304 1.386 . S
C2305 C2309 1.393 . S
C2306 H2298 0.950 . S
C2306 C2304 1.391 . S
C2306 C2307 1.400 . S
C2307 C2306 1.400 . S
C2307 C2308 1.398 . S
C2307 C2313 1.491 . S
C2308 H2299 0.950 . S
C2308 C2307 1.398 . S
C2308 C2309 1.391 . S
C2309 H2297 0.950 . S
C2309 C2305 1.393 . S
C2309 C2308 1.391 . S
C2310 H2300 0.950 . S
C2310 C2311 1.386 . S
C2310 C2312 1.391 . S
C2311 C2310 1.386 . S
C2311 C2315 1.393 . S
C2312 H2301 0.950 . S
C2312 C2310 1.391 . S
C2312 C2313 1.400 . S
C2313 C2307 1.491 . S
C2313 C2312 1.400 . S
C2313 C2314 1.398 . S
C2314 H2302 0.950 . S
C2314 C2313 1.398 . S
C2314 C2315 1.391 . S
C2315 H2303 0.950 . S
C2315 C2311 1.393 . S
C2315 C2314 1.391 . S
H2316 C2324 0.950 . S
H2317 C2329 0.950 . S
H2318 C2326 0.950 . S
H2319 C2328 0.950 . S
H2320 C2330 0.950 . S
H2321 C2332 0.950 . S
H2322 C2334 0.950 . S
H2323 C2335 0.950 . S
C2324 H2316 0.950 . S
C2324 C2325 1.386 . S
C2324 C2326 1.391 . S
C2325 C2324 1.386 . S
C2325 C2329 1.393 . S
C2326 H2318 0.950 . S
C2326 C2324 1.391 . S
C2326 C2327 1.400 . S
C2327 C2326 1.400 . S
C2327 C2328 1.398 . S
C2327 C2333 1.491 . S
C2328 H2319 0.950 . S
C2328 C2327 1.398 . S
C2328 C2329 1.391 . S
C2329 H2317 0.950 . S
C2329 C2325 1.393 . S
C2329 C2328 1.391 . S
C2330 H2320 0.950 . S
C2330 C2331 1.386 . S
C2330 C2332 1.391 . S
C2331 C2330 1.386 . S
C2331 C2335 1.393 . S
C2332 H2321 0.950 . S
C2332 C2330 1.391 . S
C2332 C2333 1.400 . S
C2333 C2327 1.491 . S
C2333 C2332 1.400 . S
C2333 C2334 1.398 . S
C2334 H2322 0.950 . S
C2334 C2333 1.398 . S
C2334 C2335 1.391 . S
C2335 H2323 0.950 . S
C2335 C2331 1.393 . S
C2335 C2334 1.391 . S
H2336 C2344 0.950 . S
H2337 C2349 0.950 . S
H2338 C2346 0.950 . S
H2339 C2348 0.950 . S
H2340 C2350 0.950 . S
H2341 C2352 0.950 . S
H2342 C2354 0.950 . S
H2343 C2355 0.950 . S
C2344 H2336 0.950 . S
C2344 C2345 1.386 . S
C2344 C2346 1.391 . S
C2345 C2344 1.386 . S
C2345 C2349 1.393 . S
C2346 H2338 0.950 . S
C2346 C2344 1.391 . S
C2346 C2347 1.400 . S
C2347 C2346 1.400 . S
C2347 C2348 1.398 . S
C2347 C2353 1.491 . S
C2348 H2339 0.950 . S
C2348 C2347 1.398 . S
C2348 C2349 1.391 . S
C2349 H2337 0.950 . S
C2349 C2345 1.393 . S
C2349 C2348 1.391 . S
C2350 H2340 0.950 . S
C2350 C2351 1.386 . S
C2350 C2352 1.391 . S
C2351 C2350 1.386 . S
C2351 C2355 1.393 . S
C2352 H2341 0.950 . S
C2352 C2350 1.391 . S
C2352 C2353 1.400 . S
C2353 C2347 1.491 . S
C2353 C2352 1.400 . S
C2353 C2354 1.398 . S
C2354 H2342 0.950 . S
C2354 C2353 1.398 . S
C2354 C2355 1.391 . S
C2355 H2343 0.950 . S
C2355 C2351 1.393 . S
C2355 C2354 1.391 . S
H2356 C2364 0.950 . S
H2357 C2369 0.950 . S
H2358 C2366 0.950 . S
H2359 C2368 0.950 . S
H2360 C2370 0.950 . S
H2361 C2372 0.950 . S
H2362 C2374 0.950 . S
H2363 C2375 0.950 . S
C2364 H2356 0.950 . S
C2364 C2365 1.386 . S
C2364 C2366 1.391 . S
C2365 C2364 1.386 . S
C2365 C2369 1.393 . S
C2366 H2358 0.950 . S
C2366 C2364 1.391 . S
C2366 C2367 1.400 . S
C2367 C2366 1.400 . S
C2367 C2368 1.398 . S
C2367 C2373 1.491 . S
C2368 H2359 0.950 . S
C2368 C2367 1.398 . S
C2368 C2369 1.391 . S
C2369 H2357 0.950 . S
C2369 C2365 1.393 . S
C2369 C2368 1.391 . S
C2370 H2360 0.950 . S
C2370 C2371 1.386 . S
C2370 C2372 1.391 . S
C2371 C2370 1.386 . S
C2371 C2375 1.393 . S
C2372 H2361 0.950 . S
C2372 C2370 1.391 . S
C2372 C2373 1.400 . S
C2373 C2367 1.491 . S
C2373 C2372 1.400 . S
C2373 C2374 1.398 . S
C2374 H2362 0.950 . S
C2374 C2373 1.398 . S
C2374 C2375 1.391 . S
C2375 H2363 0.950 . S
C2375 C2371 1.393 . S
C2375 C2374 1.391 . S
H2376 C2384 0.950 . S
H2377 C2389 0.950 . S
H2378 C2386 0.950 . S
H2379 C2388 0.950 . S
H2380 C2390 0.950 . S
H2381 C2392 0.950 . S
H2382 C2394 0.950 . S
H2383 C2395 0.950 . S
C2384 H2376 0.950 . S
C2384 C2385 1.386 . S
C2384 C2386 1.391 . S
C2385 C2384 1.386 . S
C2385 C2389 1.393 . S
C2386 H2378 0.950 . S
C2386 C2384 1.391 . S
C2386 C2387 1.400 . S
C2387 C2386 1.400 . S
C2387 C2388 1.398 . S
C2387 C2393 1.491 . S
C2388 H2379 0.950 . S
C2388 C2387 1.398 . S
C2388 C2389 1.391 . S
C2389 H2377 0.950 . S
C2389 C2385 1.393 . S
C2389 C2388 1.391 . S
C2390 H2380 0.950 . S
C2390 C2391 1.386 . S
C2390 C2392 1.391 . S
C2391 C2390 1.386 . S
C2391 C2395 1.393 . S
C2392 H2381 0.950 . S
C2392 C2390 1.391 . S
C2392 C2393 1.400 . S
C2393 C2387 1.491 . S
C2393 C2392 1.400 . S
C2393 C2394 1.398 . S
C2394 H2382 0.950 . S
C2394 C2393 1.398 . S
C2394 C2395 1.391 . S
C2395 H2383 0.950 . S
C2395 C2391 1.393 . S
C2395 C2394 1.391 . S
H2396 C2404 0.950 . S
H2397 C2409 0.950 . S
H2398 C2406 0.950 . S
H2399 C2408 0.950 . S
H2400 C2410 0.950 . S
H2401 C2412 0.950 . S
H2402 C2414 0.950 . S
H2403 C2415 0.950 . S
C2404 H2396 0.950 . S
C2404 C2405 1.386 . S
C2404 C2406 1.391 . S
C2405 C2404 1.386 . S
C2405 C2409 1.393 . S
C2406 H2398 0.950 . S
C2406 C2404 1.391 . S
C2406 C2407 1.400 . S
C2407 C2406 1.400 . S
C2407 C2408 1.398 . S
C2407 C2413 1.491 . S
C2408 H2399 0.950 . S
C2408 C2407 1.398 . S
C2408 C2409 1.391 . S
C2409 H2397 0.950 . S
C2409 C2405 1.393 . S
C2409 C2408 1.391 . S
C2410 H2400 0.950 . S
C2410 C2411 1.386 . S
C2410 C2412 1.391 . S
C2411 C2410 1.386 . S
C2411 C2415 1.393 . S
C2412 H2401 0.950 . S
C2412 C2410 1.391 . S
C2412 C2413 1.400 . S
C2413 C2407 1.491 . S
C2413 C2412 1.400 . S
C2413 C2414 1.398 . S
C2414 H2402 0.950 . S
C2414 C2413 1.398 . S
C2414 C2415 1.391 . S
C2415 H2403 0.950 . S
C2415 C2411 1.393 . S
C2415 C2414 1.391 . S
H2416 C2424 0.950 . S
H2417 C2429 0.950 . S
H2418 C2426 0.950 . S
H2419 C2428 0.950 . S
H2420 C2430 0.950 . S
H2421 C2432 0.950 . S
H2422 C2434 0.950 . S
H2423 C2435 0.950 . S
C2424 H2416 0.950 . S
C2424 C2425 1.386 . S
C2424 C2426 1.391 . S
C2425 C2424 1.386 . S
C2425 C2429 1.393 . S
C2426 H2418 0.950 . S
C2426 C2424 1.391 . S
C2426 C2427 1.400 . S
C2427 C2426 1.400 . S
C2427 C2428 1.398 . S
C2427 C2433 1.491 . S
C2428 H2419 0.950 . S
C2428 C2427 1.398 . S
C2428 C2429 1.391 . S
C2429 H2417 0.950 . S
C2429 C2425 1.393 . S
C2429 C2428 1.391 . S
C2430 H2420 0.950 . S
C2430 C2431 1.386 . S
C2430 C2432 1.391 . S
C2431 C2430 1.386 . S
C2431 C2435 1.393 . S
C2432 H2421 0.950 . S
C2432 C2430 1.391 . S
C2432 C2433 1.400 . S
C2433 C2427 1.491 . S
C2433 C2432 1.400 . S
C2433 C2434 1.398 . S
C2434 H2422 0.950 . S
C2434 C2433 1.398 . S
C2434 C2435 1.391 . S
C2435 H2423 0.950 . S
C2435 C2431 1.393 . S
C2435 C2434 1.391 . S
H2436 C2444 0.950 . S
H2437 C2449 0.950 . S
H2438 C2446 0.950 . S
H2439 C2448 0.950 . S
H2440 C2450 0.950 . S
H2441 C2452 0.950 . S
H2442 C2454 0.950 . S
H2443 C2455 0.950 . S
C2444 H2436 0.950 . S
C2444 C2445 1.386 . S
C2444 C2446 1.391 . S
C2445 C2444 1.386 . S
C2445 C2449 1.393 . S
C2446 H2438 0.950 . S
C2446 C2444 1.391 . S
C2446 C2447 1.400 . S
C2447 C2446 1.400 . S
C2447 C2448 1.398 . S
C2447 C2453 1.491 . S
C2448 H2439 0.950 . S
C2448 C2447 1.398 . S
C2448 C2449 1.391 . S
C2449 H2437 0.950 . S
C2449 C2445 1.393 . S
C2449 C2448 1.391 . S
C2450 H2440 0.950 . S
C2450 C2451 1.386 . S
C2450 C2452 1.391 . S
C2451 C2450 1.386 . S
C2451 C2455 1.393 . S
C2452 H2441 0.950 . S
C2452 C2450 1.391 . S
C2452 C2453 1.400 . S
C2453 C2447 1.491 . S
C2453 C2452 1.400 . S
C2453 C2454 1.398 . S
C2454 H2442 0.950 . S
C2454 C2453 1.398 . S
C2454 C2455 1.391 . S
C2455 H2443 0.950 . S
C2455 C2451 1.393 . S
C2455 C2454 1.391 . S
H2456 C2464 0.950 . S
H2457 C2469 0.950 . S
H2458 C2466 0.950 . S
H2459 C2468 0.950 . S
H2460 C2470 0.950 . S
H2461 C2472 0.950 . S
H2462 C2474 0.950 . S
H2463 C2475 0.950 . S
C2464 H2456 0.950 . S
C2464 C2465 1.386 . S
C2464 C2466 1.391 . S
C2465 C2464 1.386 . S
C2465 C2469 1.393 . S
C2466 H2458 0.950 . S
C2466 C2464 1.391 . S
C2466 C2467 1.400 . S
C2467 C2466 1.400 . S
C2467 C2468 1.398 . S
C2467 C2473 1.491 . S
C2468 H2459 0.950 . S
C2468 C2467 1.398 . S
C2468 C2469 1.391 . S
C2469 H2457 0.950 . S
C2469 C2465 1.393 . S
C2469 C2468 1.391 . S
C2470 H2460 0.950 . S
C2470 C2471 1.386 . S
C2470 C2472 1.391 . S
C2471 C2470 1.386 . S
C2471 C2475 1.393 . S
C2472 H2461 0.950 . S
C2472 C2470 1.391 . S
C2472 C2473 1.400 . S
C2473 C2467 1.491 . S
C2473 C2472 1.400 . S
C2473 C2474 1.398 . S
C2474 H2462 0.950 . S
C2474 C2473 1.398 . S
C2474 C2475 1.391 . S
C2475 H2463 0.950 . S
C2475 C2471 1.393 . S
C2475 C2474 1.391 . S
H2476 C2484 0.950 . S
H2477 C2489 0.950 . S
H2478 C2486 0.950 . S
H2479 C2488 0.950 . S
H2480 C2490 0.950 . S
H2481 C2492 0.950 . S
H2482 C2494 0.950 . S
H2483 C2495 0.950 . S
C2484 H2476 0.950 . S
C2484 C2485 1.386 . S
C2484 C2486 1.391 . S
C2485 C2484 1.386 . S
C2485 C2489 1.393 . S
C2486 H2478 0.950 . S
C2486 C2484 1.391 . S
C2486 C2487 1.400 . S
C2487 C2486 1.400 . S
C2487 C2488 1.398 . S
C2487 C2493 1.491 . S
C2488 H2479 0.950 . S
C2488 C2487 1.398 . S
C2488 C2489 1.391 . S
C2489 H2477 0.950 . S
C2489 C2485 1.393 . S
C2489 C2488 1.391 . S
C2490 H2480 0.950 . S
C2490 C2491 1.386 . S
C2490 C2492 1.391 . S
C2491 C2490 1.386 . S
C2491 C2495 1.393 . S
C2492 H2481 0.950 . S
C2492 C2490 1.391 . S
C2492 C2493 1.400 . S
C2493 C2487 1.491 . S
C2493 C2492 1.400 . S
C2493 C2494 1.398 . S
C2494 H2482 0.950 . S
C2494 C2493 1.398 . S
C2494 C2495 1.391 . S
C2495 H2483 0.950 . S
C2495 C2491 1.393 . S
C2495 C2494 1.391 . S
H2496 C2504 0.950 . S
H2497 C2509 0.950 . S
H2498 C2506 0.950 . S
H2499 C2508 0.950 . S
H2500 C2510 0.950 . S
H2501 C2512 0.950 . S
H2502 C2514 0.950 . S
H2503 C2515 0.950 . S
C2504 H2496 0.950 . S
C2504 C2505 1.386 . S
C2504 C2506 1.391 . S
C2505 C2504 1.386 . S
C2505 C2509 1.393 . S
C2506 H2498 0.950 . S
C2506 C2504 1.391 . S
C2506 C2507 1.400 . S
C2507 C2506 1.400 . S
C2507 C2508 1.398 . S
C2507 C2513 1.491 . S
C2508 H2499 0.950 . S
C2508 C2507 1.398 . S
C2508 C2509 1.391 . S
C2509 H2497 0.950 . S
C2509 C2505 1.393 . S
C2509 C2508 1.391 . S
C2510 H2500 0.950 . S
C2510 C2511 1.386 . S
C2510 C2512 1.391 . S
C2511 C2510 1.386 . S
C2511 C2515 1.393 . S
C2512 H2501 0.950 . S
C2512 C2510 1.391 . S
C2512 C2513 1.400 . S
C2513 C2507 1.491 . S
C2513 C2512 1.400 . S
C2513 C2514 1.398 . S
C2514 H2502 0.950 . S
C2514 C2513 1.398 . S
C2514 C2515 1.391 . S
C2515 H2503 0.950 . S
C2515 C2511 1.393 . S
C2515 C2514 1.391 . S
H2516 C2524 0.950 . S
H2517 C2529 0.950 . S
H2518 C2526 0.950 . S
H2519 C2528 0.950 . S
H2520 C2530 0.950 . S
H2521 C2532 0.950 . S
H2522 C2534 0.950 . S
H2523 C2535 0.950 . S
C2524 H2516 0.950 . S
C2524 C2525 1.386 . S
C2524 C2526 1.391 . S
C2525 C2524 1.386 . S
C2525 C2529 1.393 . S
C2526 H2518 0.950 . S
C2526 C2524 1.391 . S
C2526 C2527 1.400 . S
C2527 C2526 1.400 . S
C2527 C2528 1.398 . S
C2527 C2533 1.491 . S
C2528 H2519 0.950 . S
C2528 C2527 1.398 . S
C2528 C2529 1.391 . S
C2529 H2517 0.950 . S
C2529 C2525 1.393 . S
C2529 C2528 1.391 . S
C2530 H2520 0.950 . S
C2530 C2531 1.386 . S
C2530 C2532 1.391 . S
C2531 C2530 1.386 . S
C2531 C2535 1.393 . S
C2532 H2521 0.950 . S
C2532 C2530 1.391 . S
C2532 C2533 1.400 . S
C2533 C2527 1.491 . S
C2533 C2532 1.400 . S
C2533 C2534 1.398 . S
C2534 H2522 0.950 . S
C2534 C2533 1.398 . S
C2534 C2535 1.391 . S
C2535 H2523 0.950 . S
C2535 C2531 1.393 . S
C2535 C2534 1.391 . S
H2536 C2544 0.950 . S
H2537 C2549 0.950 . S
H2538 C2546 0.950 . S
H2539 C2548 0.950 . S
H2540 C2550 0.950 . S
H2541 C2552 0.950 . S
H2542 C2554 0.950 . S
H2543 C2555 0.950 . S
C2544 H2536 0.950 . S
C2544 C2545 1.386 . S
C2544 C2546 1.391 . S
C2545 C2544 1.386 . S
C2545 C2549 1.393 . S
C2546 H2538 0.950 . S
C2546 C2544 1.391 . S
C2546 C2547 1.400 . S
C2547 C2546 1.400 . S
C2547 C2548 1.398 . S
C2547 C2553 1.491 . S
C2548 H2539 0.950 . S
C2548 C2547 1.398 . S
C2548 C2549 1.391 . S
C2549 H2537 0.950 . S
C2549 C2545 1.393 . S
C2549 C2548 1.391 . S
C2550 H2540 0.950 . S
C2550 C2551 1.386 . S
C2550 C2552 1.391 . S
C2551 C2550 1.386 . S
C2551 C2555 1.393 . S
C2552 H2541 0.950 . S
C2552 C2550 1.391 . S
C2552 C2553 1.400 . S
C2553 C2547 1.491 . S
C2553 C2552 1.400 . S
C2553 C2554 1.398 . S
C2554 H2542 0.950 . S
C2554 C2553 1.398 . S
C2554 C2555 1.391 . S
C2555 H2543 0.950 . S
C2555 C2551 1.393 . S
C2555 C2554 1.391 . S
H2556 C2564 0.950 . S
H2557 C2569 0.950 . S
H2558 C2566 0.950 . S
H2559 C2568 0.950 . S
H2560 C2570 0.950 . S
H2561 C2572 0.950 . S
H2562 C2574 0.950 . S
H2563 C2575 0.950 . S
C2564 H2556 0.950 . S
C2564 C2565 1.386 . S
C2564 C2566 1.391 . S
C2565 C2564 1.386 . S
C2565 C2569 1.393 . S
C2566 H2558 0.950 . S
C2566 C2564 1.391 . S
C2566 C2567 1.400 . S
C2567 C2566 1.400 . S
C2567 C2568 1.398 . S
C2567 C2573 1.491 . S
C2568 H2559 0.950 . S
C2568 C2567 1.398 . S
C2568 C2569 1.391 . S
C2569 H2557 0.950 . S
C2569 C2565 1.393 . S
C2569 C2568 1.391 . S
C2570 H2560 0.950 . S
C2570 C2571 1.386 . S
C2570 C2572 1.391 . S
C2571 C2570 1.386 . S
C2571 C2575 1.393 . S
C2572 H2561 0.950 . S
C2572 C2570 1.391 . S
C2572 C2573 1.400 . S
C2573 C2567 1.491 . S
C2573 C2572 1.400 . S
C2573 C2574 1.398 . S
C2574 H2562 0.950 . S
C2574 C2573 1.398 . S
C2574 C2575 1.391 . S
C2575 H2563 0.950 . S
C2575 C2571 1.393 . S
C2575 C2574 1.391 . S
H2576 C2584 0.950 . S
H2577 C2589 0.950 . S
H2578 C2586 0.950 . S
H2579 C2588 0.950 . S
H2580 C2590 0.950 . S
H2581 C2592 0.950 . S
H2582 C2594 0.950 . S
H2583 C2595 0.950 . S
C2584 H2576 0.950 . S
C2584 C2585 1.386 . S
C2584 C2586 1.391 . S
C2585 C2584 1.386 . S
C2585 C2589 1.393 . S
C2586 H2578 0.950 . S
C2586 C2584 1.391 . S
C2586 C2587 1.400 . S
C2587 C2586 1.400 . S
C2587 C2588 1.398 . S
C2587 C2593 1.491 . S
C2588 H2579 0.950 . S
C2588 C2587 1.398 . S
C2588 C2589 1.391 . S
C2589 H2577 0.950 . S
C2589 C2585 1.393 . S
C2589 C2588 1.391 . S
C2590 H2580 0.950 . S
C2590 C2591 1.386 . S
C2590 C2592 1.391 . S
C2591 C2590 1.386 . S
C2591 C2595 1.393 . S
C2592 H2581 0.950 . S
C2592 C2590 1.391 . S
C2592 C2593 1.400 . S
C2593 C2587 1.491 . S
C2593 C2592 1.400 . S
C2593 C2594 1.398 . S
C2594 H2582 0.950 . S
C2594 C2593 1.398 . S
C2594 C2595 1.391 . S
C2595 H2583 0.950 . S
C2595 C2591 1.393 . S
C2595 C2594 1.391 . S
H2596 C2604 0.950 . S
H2597 C2609 0.950 . S
H2598 C2606 0.950 . S
H2599 C2608 0.950 . S
H2600 C2610 0.950 . S
H2601 C2612 0.950 . S
H2602 C2614 0.950 . S
H2603 C2615 0.950 . S
C2604 H2596 0.950 . S
C2604 C2605 1.386 . S
C2604 C2606 1.391 . S
C2605 C2604 1.386 . S
C2605 C2609 1.393 . S
C2606 H2598 0.950 . S
C2606 C2604 1.391 . S
C2606 C2607 1.400 . S
C2607 C2606 1.400 . S
C2607 C2608 1.398 . S
C2607 C2613 1.491 . S
C2608 H2599 0.950 . S
C2608 C2607 1.398 . S
C2608 C2609 1.391 . S
C2609 H2597 0.950 . S
C2609 C2605 1.393 . S
C2609 C2608 1.391 . S
C2610 H2600 0.950 . S
C2610 C2611 1.386 . S
C2610 C2612 1.391 . S
C2611 C2610 1.386 . S
C2611 C2615 1.393 . S
C2612 H2601 0.950 . S
C2612 C2610 1.391 . S
C2612 C2613 1.400 . S
C2613 C2607 1.491 . S
C2613 C2612 1.400 . S
C2613 C2614 1.398 . S
C2614 H2602 0.950 . S
C2614 C2613 1.398 . S
C2614 C2615 1.391 . S
C2615 H2603 0.950 . S
C2615 C2611 1.393 . S
C2615 C2614 1.391 . S
H2616 C2624 0.950 . S
H2617 C2629 0.950 . S
H2618 C2626 0.950 . S
H2619 C2628 0.950 . S
H2620 C2630 0.950 . S
H2621 C2632 0.950 . S
H2622 C2634 0.950 . S
H2623 C2635 0.950 . S
C2624 H2616 0.950 . S
C2624 C2625 1.386 . S
C2624 C2626 1.391 . S
C2625 C2624 1.386 . S
C2625 C2629 1.393 . S
C2626 H2618 0.950 . S
C2626 C2624 1.391 . S
C2626 C2627 1.400 . S
C2627 C2626 1.400 . S
C2627 C2628 1.398 . S
C2627 C2633 1.491 . S
C2628 H2619 0.950 . S
C2628 C2627 1.398 . S
C2628 C2629 1.391 . S
C2629 H2617 0.950 . S
C2629 C2625 1.393 . S
C2629 C2628 1.391 . S
C2630 H2620 0.950 . S
C2630 C2631 1.386 . S
C2630 C2632 1.391 . S
C2631 C2630 1.386 . S
C2631 C2635 1.393 . S
C2632 H2621 0.950 . S
C2632 C2630 1.391 . S
C2632 C2633 1.400 . S
C2633 C2627 1.491 . S
C2633 C2632 1.400 . S
C2633 C2634 1.398 . S
C2634 H2622 0.950 . S
C2634 C2633 1.398 . S
C2634 C2635 1.391 . S
C2635 H2623 0.950 . S
C2635 C2631 1.393 . S
C2635 C2634 1.391 . S
H2636 C2644 0.950 . S
H2637 C2649 0.950 . S
H2638 C2646 0.950 . S
H2639 C2648 0.950 . S
H2640 C2650 0.950 . S
H2641 C2652 0.950 . S
H2642 C2654 0.950 . S
H2643 C2655 0.950 . S
C2644 H2636 0.950 . S
C2644 C2645 1.386 . S
C2644 C2646 1.391 . S
C2645 C2644 1.386 . S
C2645 C2649 1.393 . S
C2646 H2638 0.950 . S
C2646 C2644 1.391 . S
C2646 C2647 1.400 . S
C2647 C2646 1.400 . S
C2647 C2648 1.398 . S
C2647 C2653 1.491 . S
C2648 H2639 0.950 . S
C2648 C2647 1.398 . S
C2648 C2649 1.391 . S
C2649 H2637 0.950 . S
C2649 C2645 1.393 . S
C2649 C2648 1.391 . S
C2650 H2640 0.950 . S
C2650 C2651 1.386 . S
C2650 C2652 1.391 . S
C2651 C2650 1.386 . S
C2651 C2655 1.393 . S
C2652 H2641 0.950 . S
C2652 C2650 1.391 . S
C2652 C2653 1.400 . S
C2653 C2647 1.491 . S
C2653 C2652 1.400 . S
C2653 C2654 1.398 . S
C2654 H2642 0.950 . S
C2654 C2653 1.398 . S
C2654 C2655 1.391 . S
C2655 H2643 0.950 . S
C2655 C2651 1.393 . S
C2655 C2654 1.391 . S
H2656 C2664 0.950 . S
H2657 C2669 0.950 . S
H2658 C2666 0.950 . S
H2659 C2668 0.950 . S
H2660 C2670 0.950 . S
H2661 C2672 0.950 . S
H2662 C2674 0.950 . S
H2663 C2675 0.950 . S
C2664 H2656 0.950 . S
C2664 C2665 1.386 . S
C2664 C2666 1.391 . S
C2665 C2664 1.386 . S
C2665 C2669 1.393 . S
C2666 H2658 0.950 . S
C2666 C2664 1.391 . S
C2666 C2667 1.400 . S
C2667 C2666 1.400 . S
C2667 C2668 1.398 . S
C2667 C2673 1.491 . S
C2668 H2659 0.950 . S
C2668 C2667 1.398 . S
C2668 C2669 1.391 . S
C2669 H2657 0.950 . S
C2669 C2665 1.393 . S
C2669 C2668 1.391 . S
C2670 H2660 0.950 . S
C2670 C2671 1.386 . S
C2670 C2672 1.391 . S
C2671 C2670 1.386 . S
C2671 C2675 1.393 . S
C2672 H2661 0.950 . S
C2672 C2670 1.391 . S
C2672 C2673 1.400 . S
C2673 C2667 1.491 . S
C2673 C2672 1.400 . S
C2673 C2674 1.398 . S
C2674 H2662 0.950 . S
C2674 C2673 1.398 . S
C2674 C2675 1.391 . S
C2675 H2663 0.950 . S
C2675 C2671 1.393 . S
C2675 C2674 1.391 . S
H2676 C2684 0.950 . S
H2677 C2689 0.950 . S
H2678 C2686 0.950 . S
H2679 C2688 0.950 . S
H2680 C2690 0.950 . S
H2681 C2692 0.950 . S
H2682 C2694 0.950 . S
H2683 C2695 0.950 . S
C2684 H2676 0.950 . S
C2684 C2685 1.386 . S
C2684 C2686 1.391 . S
C2685 C2684 1.386 . S
C2685 C2689 1.393 . S
C2686 H2678 0.950 . S
C2686 C2684 1.391 . S
C2686 C2687 1.400 . S
C2687 C2686 1.400 . S
C2687 C2688 1.398 . S
C2687 C2693 1.491 . S
C2688 H2679 0.950 . S
C2688 C2687 1.398 . S
C2688 C2689 1.391 . S
C2689 H2677 0.950 . S
C2689 C2685 1.393 . S
C2689 C2688 1.391 . S
C2690 H2680 0.950 . S
C2690 C2691 1.386 . S
C2690 C2692 1.391 . S
C2691 C2690 1.386 . S
C2691 C2695 1.393 . S
C2692 H2681 0.950 . S
C2692 C2690 1.391 . S
C2692 C2693 1.400 . S
C2693 C2687 1.491 . S
C2693 C2692 1.400 . S
C2693 C2694 1.398 . S
C2694 H2682 0.950 . S
C2694 C2693 1.398 . S
C2694 C2695 1.391 . S
C2695 H2683 0.950 . S
C2695 C2691 1.393 . S
C2695 C2694 1.391 . S
H2696 C2704 0.950 . S
H2697 C2709 0.950 . S
H2698 C2706 0.950 . S
H2699 C2708 0.950 . S
H2700 C2710 0.950 . S
H2701 C2712 0.950 . S
H2702 C2714 0.950 . S
H2703 C2715 0.950 . S
C2704 H2696 0.950 . S
C2704 C2705 1.386 . S
C2704 C2706 1.391 . S
C2705 C2704 1.386 . S
C2705 C2709 1.393 . S
C2706 H2698 0.950 . S
C2706 C2704 1.391 . S
C2706 C2707 1.400 . S
C2707 C2706 1.400 . S
C2707 C2708 1.398 . S
C2707 C2713 1.491 . S
C2708 H2699 0.950 . S
C2708 C2707 1.398 . S
C2708 C2709 1.391 . S
C2709 H2697 0.950 . S
C2709 C2705 1.393 . S
C2709 C2708 1.391 . S
C2710 H2700 0.950 . S
C2710 C2711 1.386 . S
C2710 C2712 1.391 . S
C2711 C2710 1.386 . S
C2711 C2715 1.393 . S
C2712 H2701 0.950 . S
C2712 C2710 1.391 . S
C2712 C2713 1.400 . S
C2713 C2707 1.491 . S
C2713 C2712 1.400 . S
C2713 C2714 1.398 . S
C2714 H2702 0.950 . S
C2714 C2713 1.398 . S
C2714 C2715 1.391 . S
C2715 H2703 0.950 . S
C2715 C2711 1.393 . S
C2715 C2714 1.391 . S
H2716 C2724 0.950 . S
H2717 C2729 0.950 . S
H2718 C2726 0.950 . S
H2719 C2728 0.950 . S
H2720 C2730 0.950 . S
H2721 C2732 0.950 . S
H2722 C2734 0.950 . S
H2723 C2735 0.950 . S
C2724 H2716 0.950 . S
C2724 C2725 1.386 . S
C2724 C2726 1.391 . S
C2725 C2724 1.386 . S
C2725 C2729 1.393 . S
C2726 H2718 0.950 . S
C2726 C2724 1.391 . S
C2726 C2727 1.400 . S
C2727 C2726 1.400 . S
C2727 C2728 1.398 . S
C2727 C2733 1.491 . S
C2728 H2719 0.950 . S
C2728 C2727 1.398 . S
C2728 C2729 1.391 . S
C2729 H2717 0.950 . S
C2729 C2725 1.393 . S
C2729 C2728 1.391 . S
C2730 H2720 0.950 . S
C2730 C2731 1.386 . S
C2730 C2732 1.391 . S
C2731 C2730 1.386 . S
C2731 C2735 1.393 . S
C2732 H2721 0.950 . S
C2732 C2730 1.391 . S
C2732 C2733 1.400 . S
C2733 C2727 1.491 . S
C2733 C2732 1.400 . S
C2733 C2734 1.398 . S
C2734 H2722 0.950 . S
C2734 C2733 1.398 . S
C2734 C2735 1.391 . S
C2735 H2723 0.950 . S
C2735 C2731 1.393 . S
C2735 C2734 1.391 . S
H2736 C2744 0.950 . S
H2737 C2749 0.950 . S
H2738 C2746 0.950 . S
H2739 C2748 0.950 . S
H2740 C2750 0.950 . S
H2741 C2752 0.950 . S
H2742 C2754 0.950 . S
H2743 C2755 0.950 . S
C2744 H2736 0.950 . S
C2744 C2745 1.386 . S
C2744 C2746 1.391 . S
C2745 C2744 1.386 . S
C2745 C2749 1.393 . S
C2746 H2738 0.950 . S
C2746 C2744 1.391 . S
C2746 C2747 1.400 . S
C2747 C2746 1.400 . S
C2747 C2748 1.398 . S
C2747 C2753 1.491 . S
C2748 H2739 0.950 . S
C2748 C2747 1.398 . S
C2748 C2749 1.391 . S
C2749 H2737 0.950 . S
C2749 C2745 1.393 . S
C2749 C2748 1.391 . S
C2750 H2740 0.950 . S
C2750 C2751 1.386 . S
C2750 C2752 1.391 . S
C2751 C2750 1.386 . S
C2751 C2755 1.393 . S
C2752 H2741 0.950 . S
C2752 C2750 1.391 . S
C2752 C2753 1.400 . S
C2753 C2747 1.491 . S
C2753 C2752 1.400 . S
C2753 C2754 1.398 . S
C2754 H2742 0.950 . S
C2754 C2753 1.398 . S
C2754 C2755 1.391 . S
C2755 H2743 0.950 . S
C2755 C2751 1.393 . S
C2755 C2754 1.391 . S
H2756 C2764 0.950 . S
H2757 C2769 0.950 . S
H2758 C2766 0.950 . S
H2759 C2768 0.950 . S
H2760 C2770 0.950 . S
H2761 C2772 0.950 . S
H2762 C2774 0.950 . S
H2763 C2775 0.950 . S
C2764 H2756 0.950 . S
C2764 C2765 1.386 . S
C2764 C2766 1.391 . S
C2765 C2764 1.386 . S
C2765 C2769 1.393 . S
C2766 H2758 0.950 . S
C2766 C2764 1.391 . S
C2766 C2767 1.400 . S
C2767 C2766 1.400 . S
C2767 C2768 1.398 . S
C2767 C2773 1.491 . S
C2768 H2759 0.950 . S
C2768 C2767 1.398 . S
C2768 C2769 1.391 . S
C2769 H2757 0.950 . S
C2769 C2765 1.393 . S
C2769 C2768 1.391 . S
C2770 H2760 0.950 . S
C2770 C2771 1.386 . S
C2770 C2772 1.391 . S
C2771 C2770 1.386 . S
C2771 C2775 1.393 . S
C2772 H2761 0.950 . S
C2772 C2770 1.391 . S
C2772 C2773 1.400 . S
C2773 C2767 1.491 . S
C2773 C2772 1.400 . S
C2773 C2774 1.398 . S
C2774 H2762 0.950 . S
C2774 C2773 1.398 . S
C2774 C2775 1.391 . S
C2775 H2763 0.950 . S
C2775 C2771 1.393 . S
C2775 C2774 1.391 . S
H2776 C2784 0.950 . S
H2777 C2789 0.950 . S
H2778 C2786 0.950 . S
H2779 C2788 0.950 . S
H2780 C2790 0.950 . S
H2781 C2792 0.950 . S
H2782 C2794 0.950 . S
H2783 C2795 0.950 . S
C2784 H2776 0.950 . S
C2784 C2785 1.386 . S
C2784 C2786 1.391 . S
C2785 C2784 1.386 . S
C2785 C2789 1.393 . S
C2786 H2778 0.950 . S
C2786 C2784 1.391 . S
C2786 C2787 1.400 . S
C2787 C2786 1.400 . S
C2787 C2788 1.398 . S
C2787 C2793 1.491 . S
C2788 H2779 0.950 . S
C2788 C2787 1.398 . S
C2788 C2789 1.391 . S
C2789 H2777 0.950 . S
C2789 C2785 1.393 . S
C2789 C2788 1.391 . S
C2790 H2780 0.950 . S
C2790 C2791 1.386 . S
C2790 C2792 1.391 . S
C2791 C2790 1.386 . S
C2791 C2795 1.393 . S
C2792 H2781 0.950 . S
C2792 C2790 1.391 . S
C2792 C2793 1.400 . S
C2793 C2787 1.491 . S
C2793 C2792 1.400 . S
C2793 C2794 1.398 . S
C2794 H2782 0.950 . S
C2794 C2793 1.398 . S
C2794 C2795 1.391 . S
C2795 H2783 0.950 . S
C2795 C2791 1.393 . S
C2795 C2794 1.391 . S
H2796 C2804 0.950 . S
H2797 C2809 0.950 . S
H2798 C2806 0.950 . S
H2799 C2808 0.950 . S
H2800 C2810 0.950 . S
H2801 C2812 0.950 . S
H2802 C2814 0.950 . S
H2803 C2815 0.950 . S
C2804 H2796 0.950 . S
C2804 C2805 1.386 . S
C2804 C2806 1.391 . S
C2805 C2804 1.386 . S
C2805 C2809 1.393 . S
C2806 H2798 0.950 . S
C2806 C2804 1.391 . S
C2806 C2807 1.400 . S
C2807 C2806 1.400 . S
C2807 C2808 1.398 . S
C2807 C2813 1.491 . S
C2808 H2799 0.950 . S
C2808 C2807 1.398 . S
C2808 C2809 1.391 . S
C2809 H2797 0.950 . S
C2809 C2805 1.393 . S
C2809 C2808 1.391 . S
C2810 H2800 0.950 . S
C2810 C2811 1.386 . S
C2810 C2812 1.391 . S
C2811 C2810 1.386 . S
C2811 C2815 1.393 . S
C2812 H2801 0.950 . S
C2812 C2810 1.391 . S
C2812 C2813 1.400 . S
C2813 C2807 1.491 . S
C2813 C2812 1.400 . S
C2813 C2814 1.398 . S
C2814 H2802 0.950 . S
C2814 C2813 1.398 . S
C2814 C2815 1.391 . S
C2815 H2803 0.950 . S
C2815 C2811 1.393 . S
C2815 C2814 1.391 . S
H2816 C2824 0.950 . S
H2817 C2829 0.950 . S
H2818 C2826 0.950 . S
H2819 C2828 0.950 . S
H2820 C2830 0.950 . S
H2821 C2832 0.950 . S
H2822 C2834 0.950 . S
H2823 C2835 0.950 . S
C2824 H2816 0.950 . S
C2824 C2825 1.386 . S
C2824 C2826 1.391 . S
C2825 C2824 1.386 . S
C2825 C2829 1.393 . S
C2826 H2818 0.950 . S
C2826 C2824 1.391 . S
C2826 C2827 1.400 . S
C2827 C2826 1.400 . S
C2827 C2828 1.398 . S
C2827 C2833 1.491 . S
C2828 H2819 0.950 . S
C2828 C2827 1.398 . S
C2828 C2829 1.391 . S
C2829 H2817 0.950 . S
C2829 C2825 1.393 . S
C2829 C2828 1.391 . S
C2830 H2820 0.950 . S
C2830 C2831 1.386 . S
C2830 C2832 1.391 . S
C2831 C2830 1.386 . S
C2831 C2835 1.393 . S
C2832 H2821 0.950 . S
C2832 C2830 1.391 . S
C2832 C2833 1.400 . S
C2833 C2827 1.491 . S
C2833 C2832 1.400 . S
C2833 C2834 1.398 . S
C2834 H2822 0.950 . S
C2834 C2833 1.398 . S
C2834 C2835 1.391 . S
C2835 H2823 0.950 . S
C2835 C2831 1.393 . S
C2835 C2834 1.391 . S
H2836 C2844 0.950 . S
H2837 C2849 0.950 . S
H2838 C2846 0.950 . S
H2839 C2848 0.950 . S
H2840 C2850 0.950 . S
H2841 C2852 0.950 . S
H2842 C2854 0.950 . S
H2843 C2855 0.950 . S
C2844 H2836 0.950 . S
C2844 C2845 1.386 . S
C2844 C2846 1.391 . S
C2845 C2844 1.386 . S
C2845 C2849 1.393 . S
C2846 H2838 0.950 . S
C2846 C2844 1.391 . S
C2846 C2847 1.400 . S
C2847 C2846 1.400 . S
C2847 C2848 1.398 . S
C2847 C2853 1.491 . S
C2848 H2839 0.950 . S
C2848 C2847 1.398 . S
C2848 C2849 1.391 . S
C2849 H2837 0.950 . S
C2849 C2845 1.393 . S
C2849 C2848 1.391 . S
C2850 H2840 0.950 . S
C2850 C2851 1.386 . S
C2850 C2852 1.391 . S
C2851 C2850 1.386 . S
C2851 C2855 1.393 . S
C2852 H2841 0.950 . S
C2852 C2850 1.391 . S
C2852 C2853 1.400 . S
C2853 C2847 1.491 . S
C2853 C2852 1.400 . S
C2853 C2854 1.398 . S
C2854 H2842 0.950 . S
C2854 C2853 1.398 . S
C2854 C2855 1.391 . S
C2855 H2843 0.950 . S
C2855 C2851 1.393 . S
C2855 C2854 1.391 . S
H2856 C2864 0.950 . S
H2857 C2869 0.950 . S
H2858 C2866 0.950 . S
H2859 C2868 0.950 . S
H2860 C2870 0.950 . S
H2861 C2872 0.950 . S
H2862 C2874 0.950 . S
H2863 C2875 0.950 . S
C2864 H2856 0.950 . S
C2864 C2865 1.386 . S
C2864 C2866 1.391 . S
C2865 C2864 1.386 . S
C2865 C2869 1.393 . S
C2866 H2858 0.950 . S
C2866 C2864 1.391 . S
C2866 C2867 1.400 . S
C2867 C2866 1.400 . S
C2867 C2868 1.398 . S
C2867 C2873 1.491 . S
C2868 H2859 0.950 . S
C2868 C2867 1.398 . S
C2868 C2869 1.391 . S
C2869 H2857 0.950 . S
C2869 C2865 1.393 . S
C2869 C2868 1.391 . S
C2870 H2860 0.950 . S
C2870 C2871 1.386 . S
C2870 C2872 1.391 . S
C2871 C2870 1.386 . S
C2871 C2875 1.393 . S
C2872 H2861 0.950 . S
C2872 C2870 1.391 . S
C2872 C2873 1.400 . S
C2873 C2867 1.491 . S
C2873 C2872 1.400 . S
C2873 C2874 1.398 . S
C2874 H2862 0.950 . S
C2874 C2873 1.398 . S
C2874 C2875 1.391 . S
C2875 H2863 0.950 . S
C2875 C2871 1.393 . S
C2875 C2874 1.391 . S
H2876 C2884 0.950 . S
H2877 C2889 0.950 . S
H2878 C2886 0.950 . S
H2879 C2888 0.950 . S
H2880 C2890 0.950 . S
H2881 C2892 0.950 . S
H2882 C2894 0.950 . S
H2883 C2895 0.950 . S
C2884 H2876 0.950 . S
C2884 C2885 1.386 . S
C2884 C2886 1.391 . S
C2885 C2884 1.386 . S
C2885 C2889 1.393 . S
C2886 H2878 0.950 . S
C2886 C2884 1.391 . S
C2886 C2887 1.400 . S
C2887 C2886 1.400 . S
C2887 C2888 1.398 . S
C2887 C2893 1.491 . S
C2888 H2879 0.950 . S
C2888 C2887 1.398 . S
C2888 C2889 1.391 . S
C2889 H2877 0.950 . S
C2889 C2885 1.393 . S
C2889 C2888 1.391 . S
C2890 H2880 0.950 . S
C2890 C2891 1.386 . S
C2890 C2892 1.391 . S
C2891 C2890 1.386 . S
C2891 C2895 1.393 . S
C2892 H2881 0.950 . S
C2892 C2890 1.391 . S
C2892 C2893 1.400 . S
C2893 C2887 1.491 . S
C2893 C2892 1.400 . S
C2893 C2894 1.398 . S
C2894 H2882 0.950 . S
C2894 C2893 1.398 . S
C2894 C2895 1.391 . S
C2895 H2883 0.950 . S
C2895 C2891 1.393 . S
C2895 C2894 1.391 . S
H2896 C2904 0.950 . S
H2897 C2909 0.950 . S
H2898 C2906 0.950 . S
H2899 C2908 0.950 . S
H2900 C2910 0.950 . S
H2901 C2912 0.950 . S
H2902 C2914 0.950 . S
H2903 C2915 0.950 . S
C2904 H2896 0.950 . S
C2904 C2905 1.386 . S
C2904 C2906 1.391 . S
C2905 C2904 1.386 . S
C2905 C2909 1.393 . S
C2906 H2898 0.950 . S
C2906 C2904 1.391 . S
C2906 C2907 1.400 . S
C2907 C2906 1.400 . S
C2907 C2908 1.398 . S
C2907 C2913 1.491 . S
C2908 H2899 0.950 . S
C2908 C2907 1.398 . S
C2908 C2909 1.391 . S
C2909 H2897 0.950 . S
C2909 C2905 1.393 . S
C2909 C2908 1.391 . S
C2910 H2900 0.950 . S
C2910 C2911 1.386 . S
C2910 C2912 1.391 . S
C2911 C2910 1.386 . S
C2911 C2915 1.393 . S
C2912 H2901 0.950 . S
C2912 C2910 1.391 . S
C2912 C2913 1.400 . S
C2913 C2907 1.491 . S
C2913 C2912 1.400 . S
C2913 C2914 1.398 . S
C2914 H2902 0.950 . S
C2914 C2913 1.398 . S
C2914 C2915 1.391 . S
C2915 H2903 0.950 . S
C2915 C2911 1.393 . S
C2915 C2914 1.391 . S
H2916 C2924 0.950 . S
H2917 C2929 0.950 . S
H2918 C2926 0.950 . S
H2919 C2928 0.950 . S
H2920 C2930 0.950 . S
H2921 C2932 0.950 . S
H2922 C2934 0.950 . S
H2923 C2935 0.950 . S
C2924 H2916 0.950 . S
C2924 C2925 1.386 . S
C2924 C2926 1.391 . S
C2925 C2924 1.386 . S
C2925 C2929 1.393 . S
C2926 H2918 0.950 . S
C2926 C2924 1.391 . S
C2926 C2927 1.400 . S
C2927 C2926 1.400 . S
C2927 C2928 1.398 . S
C2927 C2933 1.491 . S
C2928 H2919 0.950 . S
C2928 C2927 1.398 . S
C2928 C2929 1.391 . S
C2929 H2917 0.950 . S
C2929 C2925 1.393 . S
C2929 C2928 1.391 . S
C2930 H2920 0.950 . S
C2930 C2931 1.386 . S
C2930 C2932 1.391 . S
C2931 C2930 1.386 . S
C2931 C2935 1.393 . S
C2932 H2921 0.950 . S
C2932 C2930 1.391 . S
C2932 C2933 1.400 . S
C2933 C2927 1.491 . S
C2933 C2932 1.400 . S
C2933 C2934 1.398 . S
C2934 H2922 0.950 . S
C2934 C2933 1.398 . S
C2934 C2935 1.391 . S
C2935 H2923 0.950 . S
C2935 C2931 1.393 . S
C2935 C2934 1.391 . S
H2936 C2944 0.950 . S
H2937 C2949 0.950 . S
H2938 C2946 0.950 . S
H2939 C2948 0.950 . S
H2940 C2950 0.950 . S
H2941 C2952 0.950 . S
H2942 C2954 0.950 . S
H2943 C2955 0.950 . S
C2944 H2936 0.950 . S
C2944 C2945 1.386 . S
C2944 C2946 1.391 . S
C2945 C2944 1.386 . S
C2945 C2949 1.393 . S
C2946 H2938 0.950 . S
C2946 C2944 1.391 . S
C2946 C2947 1.400 . S
C2947 C2946 1.400 . S
C2947 C2948 1.398 . S
C2947 C2953 1.491 . S
C2948 H2939 0.950 . S
C2948 C2947 1.398 . S
C2948 C2949 1.391 . S
C2949 H2937 0.950 . S
C2949 C2945 1.393 . S
C2949 C2948 1.391 . S
C2950 H2940 0.950 . S
C2950 C2951 1.386 . S
C2950 C2952 1.391 . S
C2951 C2950 1.386 . S
C2951 C2955 1.393 . S
C2952 H2941 0.950 . S
C2952 C2950 1.391 . S
C2952 C2953 1.400 . S
C2953 C2947 1.491 . S
C2953 C2952 1.400 . S
C2953 C2954 1.398 . S
C2954 H2942 0.950 . S
C2954 C2953 1.398 . S
C2954 C2955 1.391 . S
C2955 H2943 0.950 . S
C2955 C2951 1.393 . S
C2955 C2954 1.391 . S
H2956 C2964 0.950 . S
H2957 C2969 0.950 . S
H2958 C2966 0.950 . S
H2959 C2968 0.950 . S
H2960 C2970 0.950 . S
H2961 C2972 0.950 . S
H2962 C2974 0.950 . S
H2963 C2975 0.950 . S
C2964 H2956 0.950 . S
C2964 C2965 1.386 . S
C2964 C2966 1.391 . S
C2965 C2964 1.386 . S
C2965 C2969 1.393 . S
C2966 H2958 0.950 . S
C2966 C2964 1.391 . S
C2966 C2967 1.400 . S
C2967 C2966 1.400 . S
C2967 C2968 1.398 . S
C2967 C2973 1.491 . S
C2968 H2959 0.950 . S
C2968 C2967 1.398 . S
C2968 C2969 1.391 . S
C2969 H2957 0.950 . S
C2969 C2965 1.393 . S
C2969 C2968 1.391 . S
C2970 H2960 0.950 . S
C2970 C2971 1.386 . S
C2970 C2972 1.391 . S
C2971 C2970 1.386 . S
C2971 C2975 1.393 . S
C2972 H2961 0.950 . S
C2972 C2970 1.391 . S
C2972 C2973 1.400 . S
C2973 C2967 1.491 . S
C2973 C2972 1.400 . S
C2973 C2974 1.398 . S
C2974 H2962 0.950 . S
C2974 C2973 1.398 . S
C2974 C2975 1.391 . S
C2975 H2963 0.950 . S
C2975 C2971 1.393 . S
C2975 C2974 1.391 . S
H2976 C2984 0.950 . S
H2977 C2989 0.950 . S
H2978 C2986 0.950 . S
H2979 C2988 0.950 . S
H2980 C2990 0.950 . S
H2981 C2992 0.950 . S
H2982 C2994 0.950 . S
H2983 C2995 0.950 . S
C2984 H2976 0.950 . S
C2984 C2985 1.386 . S
C2984 C2986 1.391 . S
C2985 C2984 1.386 . S
C2985 C2989 1.393 . S
C2986 H2978 0.950 . S
C2986 C2984 1.391 . S
C2986 C2987 1.400 . S
C2987 C2986 1.400 . S
C2987 C2988 1.398 . S
C2987 C2993 1.491 . S
C2988 H2979 0.950 . S
C2988 C2987 1.398 . S
C2988 C2989 1.391 . S
C2989 H2977 0.950 . S
C2989 C2985 1.393 . S
C2989 C2988 1.391 . S
C2990 H2980 0.950 . S
C2990 C2991 1.386 . S
C2990 C2992 1.391 . S
C2991 C2990 1.386 . S
C2991 C2995 1.393 . S
C2992 H2981 0.950 . S
C2992 C2990 1.391 . S
C2992 C2993 1.400 . S
C2993 C2987 1.491 . S
C2993 C2992 1.400 . S
C2993 C2994 1.398 . S
C2994 H2982 0.950 . S
C2994 C2993 1.398 . S
C2994 C2995 1.391 . S
C2995 H2983 0.950 . S
C2995 C2991 1.393 . S
C2995 C2994 1.391 . S
H2996 C3004 0.950 . S
H2997 C3009 0.950 . S
H2998 C3006 0.950 . S
H2999 C3008 0.950 . S
H3000 C3010 0.950 . S
H3001 C3012 0.950 . S
H3002 C3014 0.950 . S
H3003 C3015 0.950 . S
C3004 H2996 0.950 . S
C3004 C3005 1.386 . S
C3004 C3006 1.391 . S
C3005 C3004 1.386 . S
C3005 C3009 1.393 . S
C3006 H2998 0.950 . S
C3006 C3004 1.391 . S
C3006 C3007 1.400 . S
C3007 C3006 1.400 . S
C3007 C3008 1.398 . S
C3007 C3013 1.491 . S
C3008 H2999 0.950 . S
C3008 C3007 1.398 . S
C3008 C3009 1.391 . S
C3009 H2997 0.950 . S
C3009 C3005 1.393 . S
C3009 C3008 1.391 . S
C3010 H3000 0.950 . S
C3010 C3011 1.386 . S
C3010 C3012 1.391 . S
C3011 C3010 1.386 . S
C3011 C3015 1.393 . S
C3012 H3001 0.950 . S
C3012 C3010 1.391 . S
C3012 C3013 1.400 . S
C3013 C3007 1.491 . S
C3013 C3012 1.400 . S
C3013 C3014 1.398 . S
C3014 H3002 0.950 . S
C3014 C3013 1.398 . S
C3014 C3015 1.391 . S
C3015 H3003 0.950 . S
C3015 C3011 1.393 . S
C3015 C3014 1.391 . S
H3016 C3024 0.950 . S
H3017 C3029 0.950 . S
H3018 C3026 0.950 . S
H3019 C3028 0.950 . S
H3020 C3030 0.950 . S
H3021 C3032 0.950 . S
H3022 C3034 0.950 . S
H3023 C3035 0.950 . S
C3024 H3016 0.950 . S
C3024 C3025 1.386 . S
C3024 C3026 1.391 . S
C3025 C3024 1.386 . S
C3025 C3029 1.393 . S
C3026 H3018 0.950 . S
C3026 C3024 1.391 . S
C3026 C3027 1.400 . S
C3027 C3026 1.400 . S
C3027 C3028 1.398 . S
C3027 C3033 1.491 . S
C3028 H3019 0.950 . S
C3028 C3027 1.398 . S
C3028 C3029 1.391 . S
C3029 H3017 0.950 . S
C3029 C3025 1.393 . S
C3029 C3028 1.391 . S
C3030 H3020 0.950 . S
C3030 C3031 1.386 . S
C3030 C3032 1.391 . S
C3031 C3030 1.386 . S
C3031 C3035 1.393 . S
C3032 H3021 0.950 . S
C3032 C3030 1.391 . S
C3032 C3033 1.400 . S
C3033 C3027 1.491 . S
C3033 C3032 1.400 . S
C3033 C3034 1.398 . S
C3034 H3022 0.950 . S
C3034 C3033 1.398 . S
C3034 C3035 1.391 . S
C3035 H3023 0.950 . S
C3035 C3031 1.393 . S
C3035 C3034 1.391 . S
H3036 C3044 0.950 . S
H3037 C3049 0.950 . S
H3038 C3046 0.950 . S
H3039 C3048 0.950 . S
H3040 C3050 0.950 1_655 S
H3041 C3052 0.950 . S
H3042 C3054 0.950 . S
H3043 C3055 0.950 . S
C3044 H3036 0.950 . S
C3044 C3045 1.386 . S
C3044 C3046 1.391 . S
C3045 C3044 1.386 . S
C3045 C3049 1.393 . S
C3046 H3038 0.950 . S
C3046 C3044 1.391 . S
C3046 C3047 1.400 . S
C3047 C3046 1.400 . S
C3047 C3048 1.398 . S
C3047 C3053 1.491 . S
C3048 H3039 0.950 . S
C3048 C3047 1.398 . S
C3048 C3049 1.391 . S
C3049 H3037 0.950 . S
C3049 C3045 1.393 . S
C3049 C3048 1.391 . S
C3050 H3040 0.950 1_455 S
C3050 C3051 1.386 . S
C3050 C3052 1.391 . S
C3051 C3050 1.386 . S
C3051 C3055 1.393 . S
C3052 H3041 0.950 . S
C3052 C3050 1.391 . S
C3052 C3053 1.400 . S
C3053 C3047 1.491 . S
C3053 C3052 1.400 . S
C3053 C3054 1.398 . S
C3054 H3042 0.950 . S
C3054 C3053 1.398 . S
C3054 C3055 1.391 . S
C3055 H3043 0.950 . S
C3055 C3051 1.393 . S
C3055 C3054 1.391 . S
H3056 C3064 0.950 . S
H3057 C3069 0.950 . S
H3058 C3066 0.950 . S
H3059 C3068 0.950 . S
H3060 C3070 0.950 . S
H3061 C3072 0.950 . S
H3062 C3074 0.950 . S
H3063 C3075 0.950 . S
C3064 H3056 0.950 . S
C3064 C3065 1.386 . S
C3064 C3066 1.391 . S
C3065 C3064 1.386 . S
C3065 C3069 1.393 . S
C3066 H3058 0.950 . S
C3066 C3064 1.391 . S
C3066 C3067 1.400 . S
C3067 C3066 1.400 . S
C3067 C3068 1.398 . S
C3067 C3073 1.491 . S
C3068 H3059 0.950 . S
C3068 C3067 1.398 . S
C3068 C3069 1.391 . S
C3069 H3057 0.950 . S
C3069 C3065 1.393 . S
C3069 C3068 1.391 . S
C3070 H3060 0.950 . S
C3070 C3071 1.386 . S
C3070 C3072 1.391 . S
C3071 C3070 1.386 . S
C3071 C3075 1.393 . S
C3072 H3061 0.950 . S
C3072 C3070 1.391 . S
C3072 C3073 1.400 . S
C3073 C3067 1.491 . S
C3073 C3072 1.400 . S
C3073 C3074 1.398 . S
C3074 H3062 0.950 . S
C3074 C3073 1.398 . S
C3074 C3075 1.391 . S
C3075 H3063 0.950 . S
C3075 C3071 1.393 . S
C3075 C3074 1.391 . S
H3076 C3084 0.950 . S
H3077 C3089 0.950 . S
H3078 C3086 0.950 . S
H3079 C3088 0.950 . S
H3080 C3090 0.950 . S
H3081 C3092 0.950 . S
H3082 C3094 0.950 . S
H3083 C3095 0.950 . S
C3084 H3076 0.950 . S
C3084 C3085 1.386 . S
C3084 C3086 1.391 . S
C3085 C3084 1.386 . S
C3085 C3089 1.393 . S
C3086 H3078 0.950 . S
C3086 C3084 1.391 . S
C3086 C3087 1.400 . S
C3087 C3086 1.400 . S
C3087 C3088 1.398 . S
C3087 C3093 1.491 . S
C3088 H3079 0.950 . S
C3088 C3087 1.398 . S
C3088 C3089 1.391 . S
C3089 H3077 0.950 . S
C3089 C3085 1.393 . S
C3089 C3088 1.391 . S
C3090 H3080 0.950 . S
C3090 C3091 1.386 . S
C3090 C3092 1.391 . S
C3091 C3090 1.386 . S
C3091 C3095 1.393 . S
C3092 H3081 0.950 . S
C3092 C3090 1.391 . S
C3092 C3093 1.400 . S
C3093 C3087 1.491 . S
C3093 C3092 1.400 . S
C3093 C3094 1.398 . S
C3094 H3082 0.950 . S
C3094 C3093 1.398 . S
C3094 C3095 1.391 . S
C3095 H3083 0.950 . S
C3095 C3091 1.393 . S
C3095 C3094 1.391 . S
H3096 C3104 0.950 . S
H3097 C3109 0.950 . S
H3098 C3106 0.950 . S
H3099 C3108 0.950 . S
H3100 C3110 0.950 . S
H3101 C3112 0.950 . S
H3102 C3114 0.950 . S
H3103 C3115 0.950 . S
C3104 H3096 0.950 . S
C3104 C3105 1.386 . S
C3104 C3106 1.391 . S
C3105 C3104 1.386 . S
C3105 C3109 1.393 . S
C3106 H3098 0.950 . S
C3106 C3104 1.391 . S
C3106 C3107 1.400 . S
C3107 C3106 1.400 . S
C3107 C3108 1.398 . S
C3107 C3113 1.491 . S
C3108 H3099 0.950 . S
C3108 C3107 1.398 . S
C3108 C3109 1.391 . S
C3109 H3097 0.950 . S
C3109 C3105 1.393 . S
C3109 C3108 1.391 . S
C3110 H3100 0.950 . S
C3110 C3111 1.386 . S
C3110 C3112 1.391 . S
C3111 C3110 1.386 . S
C3111 C3115 1.393 . S
C3112 H3101 0.950 . S
C3112 C3110 1.391 . S
C3112 C3113 1.400 . S
C3113 C3107 1.491 . S
C3113 C3112 1.400 . S
C3113 C3114 1.398 . S
C3114 H3102 0.950 . S
C3114 C3113 1.398 . S
C3114 C3115 1.391 . S
C3115 H3103 0.950 . S
C3115 C3111 1.393 . S
C3115 C3114 1.391 . S
H3116 C3124 0.950 . S
H3117 C3129 0.950 . S
H3118 C3126 0.950 . S
H3119 C3128 0.950 . S
H3120 C3130 0.950 . S
H3121 C3132 0.950 . S
H3122 C3134 0.950 . S
H3123 C3135 0.950 . S
C3124 H3116 0.950 . S
C3124 C3125 1.386 . S
C3124 C3126 1.391 . S
C3125 C3124 1.386 . S
C3125 C3129 1.393 . S
C3126 H3118 0.950 . S
C3126 C3124 1.391 . S
C3126 C3127 1.400 . S
C3127 C3126 1.400 . S
C3127 C3128 1.398 . S
C3127 C3133 1.491 . S
C3128 H3119 0.950 . S
C3128 C3127 1.398 . S
C3128 C3129 1.391 . S
C3129 H3117 0.950 . S
C3129 C3125 1.393 . S
C3129 C3128 1.391 . S
C3130 H3120 0.950 . S
C3130 C3131 1.386 . S
C3130 C3132 1.391 . S
C3131 C3130 1.386 . S
C3131 C3135 1.393 . S
C3132 H3121 0.950 . S
C3132 C3130 1.391 . S
C3132 C3133 1.400 . S
C3133 C3127 1.491 . S
C3133 C3132 1.400 . S
C3133 C3134 1.398 . S
C3134 H3122 0.950 . S
C3134 C3133 1.398 . S
C3134 C3135 1.391 . S
C3135 H3123 0.950 . S
C3135 C3131 1.393 . S
C3135 C3134 1.391 . S
H3136 C3144 0.950 . S
H3137 C3149 0.950 1_554 S
H3138 C3146 0.950 . S
H3139 C3148 0.950 . S
H3140 C3150 0.950 . S
H3141 C3152 0.950 . S
H3142 C3154 0.950 . S
H3143 C3155 0.950 . S
C3144 H3136 0.950 . S
C3144 C3145 1.386 . S
C3144 C3146 1.391 . S
C3145 C3144 1.386 . S
C3145 C3149 1.393 . S
C3146 H3138 0.950 . S
C3146 C3144 1.391 . S
C3146 C3147 1.400 . S
C3147 C3146 1.400 . S
C3147 C3148 1.398 . S
C3147 C3153 1.491 . S
C3148 H3139 0.950 . S
C3148 C3147 1.398 . S
C3148 C3149 1.391 . S
C3149 H3137 0.950 1_556 S
C3149 C3145 1.393 . S
C3149 C3148 1.391 . S
C3150 H3140 0.950 . S
C3150 C3151 1.386 . S
C3150 C3152 1.391 . S
C3151 C3150 1.386 . S
C3151 C3155 1.393 . S
C3152 H3141 0.950 . S
C3152 C3150 1.391 . S
C3152 C3153 1.400 . S
C3153 C3147 1.491 . S
C3153 C3152 1.400 . S
C3153 C3154 1.398 . S
C3154 H3142 0.950 . S
C3154 C3153 1.398 . S
C3154 C3155 1.391 . S
C3155 H3143 0.950 . S
C3155 C3151 1.393 . S
C3155 C3154 1.391 . S
H3156 C3164 0.950 . S
H3157 C3169 0.950 . S
H3158 C3166 0.950 . S
H3159 C3168 0.950 . S
H3160 C3170 0.950 . S
H3161 C3172 0.950 . S
H3162 C3174 0.950 . S
H3163 C3175 0.950 . S
C3164 H3156 0.950 . S
C3164 C3165 1.386 . S
C3164 C3166 1.391 . S
C3165 C3164 1.386 . S
C3165 C3169 1.393 . S
C3166 H3158 0.950 . S
C3166 C3164 1.391 . S
C3166 C3167 1.400 . S
C3167 C3166 1.400 . S
C3167 C3168 1.398 . S
C3167 C3173 1.491 . S
C3168 H3159 0.950 . S
C3168 C3167 1.398 . S
C3168 C3169 1.391 . S
C3169 H3157 0.950 . S
C3169 C3165 1.393 . S
C3169 C3168 1.391 . S
C3170 H3160 0.950 . S
C3170 C3171 1.386 . S
C3170 C3172 1.391 . S
C3171 C3170 1.386 . S
C3171 C3175 1.393 . S
C3172 H3161 0.950 . S
C3172 C3170 1.391 . S
C3172 C3173 1.400 . S
C3173 C3167 1.491 . S
C3173 C3172 1.400 . S
C3173 C3174 1.398 . S
C3174 H3162 0.950 . S
C3174 C3173 1.398 . S
C3174 C3175 1.391 . S
C3175 H3163 0.950 . S
C3175 C3171 1.393 . S
C3175 C3174 1.391 . S
H3176 C3184 0.950 . S
H3177 C3189 0.950 . S
H3178 C3186 0.950 . S
H3179 C3188 0.950 . S
H3180 C3190 0.950 . S
H3181 C3192 0.950 . S
H3182 C3194 0.950 . S
H3183 C3195 0.950 . S
C3184 H3176 0.950 . S
C3184 C3185 1.386 . S
C3184 C3186 1.391 . S
C3185 C3184 1.386 . S
C3185 C3189 1.393 . S
C3186 H3178 0.950 . S
C3186 C3184 1.391 . S
C3186 C3187 1.400 . S
C3187 C3186 1.400 . S
C3187 C3188 1.398 . S
C3187 C3193 1.491 . S
C3188 H3179 0.950 . S
C3188 C3187 1.398 . S
C3188 C3189 1.391 . S
C3189 H3177 0.950 . S
C3189 C3185 1.393 . S
C3189 C3188 1.391 . S
C3190 H3180 0.950 . S
C3190 C3191 1.386 . S
C3190 C3192 1.391 . S
C3191 C3190 1.386 . S
C3191 C3195 1.393 . S
C3192 H3181 0.950 . S
C3192 C3190 1.391 . S
C3192 C3193 1.400 . S
C3193 C3187 1.491 . S
C3193 C3192 1.400 . S
C3193 C3194 1.398 . S
C3194 H3182 0.950 . S
C3194 C3193 1.398 . S
C3194 C3195 1.391 . S
C3195 H3183 0.950 . S
C3195 C3191 1.393 . S
C3195 C3194 1.391 . S
H3196 C3204 0.950 . S
H3197 C3209 0.950 . S
H3198 C3206 0.950 . S
H3199 C3208 0.950 . S
H3200 C3210 0.950 . S
H3201 C3212 0.950 . S
H3202 C3214 0.950 . S
H3203 C3215 0.950 . S
C3204 H3196 0.950 . S
C3204 C3205 1.386 . S
C3204 C3206 1.391 . S
C3205 C3204 1.386 . S
C3205 C3209 1.393 . S
C3206 H3198 0.950 . S
C3206 C3204 1.391 . S
C3206 C3207 1.400 . S
C3207 C3206 1.400 . S
C3207 C3208 1.398 . S
C3207 C3213 1.491 . S
C3208 H3199 0.950 . S
C3208 C3207 1.398 . S
C3208 C3209 1.391 . S
C3209 H3197 0.950 . S
C3209 C3205 1.393 . S
C3209 C3208 1.391 . S
C3210 H3200 0.950 . S
C3210 C3211 1.386 . S
C3210 C3212 1.391 . S
C3211 C3210 1.386 . S
C3211 C3215 1.393 . S
C3212 H3201 0.950 . S
C3212 C3210 1.391 . S
C3212 C3213 1.400 . S
C3213 C3207 1.491 . S
C3213 C3212 1.400 . S
C3213 C3214 1.398 . S
C3214 H3202 0.950 . S
C3214 C3213 1.398 . S
C3214 C3215 1.391 . S
C3215 H3203 0.950 . S
C3215 C3211 1.393 . S
C3215 C3214 1.391 . S
H3216 C3224 0.950 . S
H3217 C3229 0.950 . S
H3218 C3226 0.950 . S
H3219 C3228 0.950 . S
H3220 C3230 0.950 . S
H3221 C3232 0.950 . S
H3222 C3234 0.950 . S
H3223 C3235 0.950 . S
C3224 H3216 0.950 . S
C3224 C3225 1.386 . S
C3224 C3226 1.391 . S
C3225 C3224 1.386 . S
C3225 C3229 1.393 . S
C3226 H3218 0.950 . S
C3226 C3224 1.391 . S
C3226 C3227 1.400 . S
C3227 C3226 1.400 . S
C3227 C3228 1.398 . S
C3227 C3233 1.491 . S
C3228 H3219 0.950 . S
C3228 C3227 1.398 . S
C3228 C3229 1.391 . S
C3229 H3217 0.950 . S
C3229 C3225 1.393 . S
C3229 C3228 1.391 . S
C3230 H3220 0.950 . S
C3230 C3231 1.386 . S
C3230 C3232 1.391 . S
C3231 C3230 1.386 . S
C3231 C3235 1.393 . S
C3232 H3221 0.950 . S
C3232 C3230 1.391 . S
C3232 C3233 1.400 . S
C3233 C3227 1.491 . S
C3233 C3232 1.400 . S
C3233 C3234 1.398 . S
C3234 H3222 0.950 . S
C3234 C3233 1.398 . S
C3234 C3235 1.391 . S
C3235 H3223 0.950 . S
C3235 C3231 1.393 . S
C3235 C3234 1.391 . S
H3236 C3244 0.950 . S
H3237 C3249 0.950 . S
H3238 C3246 0.950 . S
H3239 C3248 0.950 . S
H3240 C3250 0.950 . S
H3241 C3252 0.950 . S
H3242 C3254 0.950 . S
H3243 C3255 0.950 . S
C3244 H3236 0.950 . S
C3244 C3245 1.386 . S
C3244 C3246 1.391 . S
C3245 C3244 1.386 . S
C3245 C3249 1.393 . S
C3246 H3238 0.950 . S
C3246 C3244 1.391 . S
C3246 C3247 1.400 . S
C3247 C3246 1.400 . S
C3247 C3248 1.398 . S
C3247 C3253 1.491 . S
C3248 H3239 0.950 . S
C3248 C3247 1.398 . S
C3248 C3249 1.391 . S
C3249 H3237 0.950 . S
C3249 C3245 1.393 . S
C3249 C3248 1.391 . S
C3250 H3240 0.950 . S
C3250 C3251 1.386 . S
C3250 C3252 1.391 . S
C3251 C3250 1.386 . S
C3251 C3255 1.393 . S
C3252 H3241 0.950 . S
C3252 C3250 1.391 . S
C3252 C3253 1.400 . S
C3253 C3247 1.491 . S
C3253 C3252 1.400 . S
C3253 C3254 1.398 . S
C3254 H3242 0.950 . S
C3254 C3253 1.398 . S
C3254 C3255 1.391 . S
C3255 H3243 0.950 . S
C3255 C3251 1.393 . S
C3255 C3254 1.391 . S
H3256 C3264 0.950 . S
H3257 C3269 0.950 . S
H3258 C3266 0.950 . S
H3259 C3268 0.950 . S
H3260 C3270 0.950 . S
H3261 C3272 0.950 . S
H3262 C3274 0.950 . S
H3263 C3275 0.950 . S
C3264 H3256 0.950 . S
C3264 C3265 1.386 . S
C3264 C3266 1.391 . S
C3265 C3264 1.386 . S
C3265 C3269 1.393 . S
C3266 H3258 0.950 . S
C3266 C3264 1.391 . S
C3266 C3267 1.400 . S
C3267 C3266 1.400 . S
C3267 C3268 1.398 . S
C3267 C3273 1.491 . S
C3268 H3259 0.950 . S
C3268 C3267 1.398 . S
C3268 C3269 1.391 . S
C3269 H3257 0.950 . S
C3269 C3265 1.393 . S
C3269 C3268 1.391 . S
C3270 H3260 0.950 . S
C3270 C3271 1.386 . S
C3270 C3272 1.391 . S
C3271 C3270 1.386 . S
C3271 C3275 1.393 . S
C3272 H3261 0.950 . S
C3272 C3270 1.391 . S
C3272 C3273 1.400 . S
C3273 C3267 1.491 . S
C3273 C3272 1.400 . S
C3273 C3274 1.398 . S
C3274 H3262 0.950 . S
C3274 C3273 1.398 . S
C3274 C3275 1.391 . S
C3275 H3263 0.950 . S
C3275 C3271 1.393 . S
C3275 C3274 1.391 . S
H3276 C3284 0.950 . S
H3277 C3289 0.950 . S
H3278 C3286 0.950 . S
H3279 C3288 0.950 . S
H3280 C3290 0.950 . S
H3281 C3292 0.950 . S
H3282 C3294 0.950 . S
H3283 C3295 0.950 1_455 S
C3284 H3276 0.950 . S
C3284 C3285 1.386 . S
C3284 C3286 1.391 . S
C3285 C3284 1.386 . S
C3285 C3289 1.393 . S
C3286 H3278 0.950 . S
C3286 C3284 1.391 . S
C3286 C3287 1.400 . S
C3287 C3286 1.400 . S
C3287 C3288 1.398 . S
C3287 C3293 1.491 . S
C3288 H3279 0.950 . S
C3288 C3287 1.398 . S
C3288 C3289 1.391 . S
C3289 H3277 0.950 . S
C3289 C3285 1.393 . S
C3289 C3288 1.391 . S
C3290 H3280 0.950 . S
C3290 C3291 1.386 . S
C3290 C3292 1.391 . S
C3291 C3290 1.386 . S
C3291 C3295 1.393 . S
C3292 H3281 0.950 . S
C3292 C3290 1.391 . S
C3292 C3293 1.400 . S
C3293 C3287 1.491 . S
C3293 C3292 1.400 . S
C3293 C3294 1.398 . S
C3294 H3282 0.950 . S
C3294 C3293 1.398 . S
C3294 C3295 1.391 . S
C3295 H3283 0.950 1_655 S
C3295 C3291 1.393 . S
C3295 C3294 1.391 . S
H3296 C3304 0.950 . S
H3297 C3309 0.950 . S
H3298 C3306 0.950 . S
H3299 C3308 0.950 . S
H3300 C3310 0.950 . S
H3301 C3312 0.950 . S
H3302 C3314 0.950 . S
H3303 C3315 0.950 . S
C3304 H3296 0.950 . S
C3304 C3305 1.386 . S
C3304 C3306 1.391 . S
C3305 C3304 1.386 . S
C3305 C3309 1.393 . S
C3306 H3298 0.950 . S
C3306 C3304 1.391 . S
C3306 C3307 1.400 . S
C3307 C3306 1.400 . S
C3307 C3308 1.398 . S
C3307 C3313 1.491 . S
C3308 H3299 0.950 . S
C3308 C3307 1.398 . S
C3308 C3309 1.391 . S
C3309 H3297 0.950 . S
C3309 C3305 1.393 . S
C3309 C3308 1.391 . S
C3310 H3300 0.950 . S
C3310 C3311 1.386 . S
C3310 C3312 1.391 . S
C3311 C3310 1.386 . S
C3311 C3315 1.393 . S
C3312 H3301 0.950 . S
C3312 C3310 1.391 . S
C3312 C3313 1.400 . S
C3313 C3307 1.491 . S
C3313 C3312 1.400 . S
C3313 C3314 1.398 . S
C3314 H3302 0.950 . S
C3314 C3313 1.398 . S
C3314 C3315 1.391 . S
C3315 H3303 0.950 . S
C3315 C3311 1.393 . S
C3315 C3314 1.391 . S
H3316 C3324 0.950 . S
H3317 C3329 0.950 . S
H3318 C3326 0.950 . S
H3319 C3328 0.950 . S
H3320 C3330 0.950 . S
H3321 C3332 0.950 . S
H3322 C3334 0.950 . S
H3323 C3335 0.950 . S
C3324 H3316 0.950 . S
C3324 C3325 1.386 . S
C3324 C3326 1.391 . S
C3325 C3324 1.386 . S
C3325 C3329 1.393 . S
C3326 H3318 0.950 . S
C3326 C3324 1.391 . S
C3326 C3327 1.400 . S
C3327 C3326 1.400 . S
C3327 C3328 1.398 . S
C3327 C3333 1.491 . S
C3328 H3319 0.950 . S
C3328 C3327 1.398 . S
C3328 C3329 1.391 . S
C3329 H3317 0.950 . S
C3329 C3325 1.393 . S
C3329 C3328 1.391 . S
C3330 H3320 0.950 . S
C3330 C3331 1.386 . S
C3330 C3332 1.391 . S
C3331 C3330 1.386 . S
C3331 C3335 1.393 . S
C3332 H3321 0.950 . S
C3332 C3330 1.391 . S
C3332 C3333 1.400 . S
C3333 C3327 1.491 . S
C3333 C3332 1.400 . S
C3333 C3334 1.398 . S
C3334 H3322 0.950 . S
C3334 C3333 1.398 . S
C3334 C3335 1.391 . S
C3335 H3323 0.950 . S
C3335 C3331 1.393 . S
C3335 C3334 1.391 . S
H3336 C3344 0.950 . S
H3337 C3349 0.950 . S
H3338 C3346 0.950 . S
H3339 C3348 0.950 . S
H3340 C3350 0.950 . S
H3341 C3352 0.950 . S
H3342 C3354 0.950 . S
H3343 C3355 0.950 . S
C3344 H3336 0.950 . S
C3344 C3345 1.386 . S
C3344 C3346 1.391 . S
C3345 C3344 1.386 . S
C3345 C3349 1.393 . S
C3346 H3338 0.950 . S
C3346 C3344 1.391 . S
C3346 C3347 1.400 . S
C3347 C3346 1.400 . S
C3347 C3348 1.398 . S
C3347 C3353 1.491 . S
C3348 H3339 0.950 . S
C3348 C3347 1.398 . S
C3348 C3349 1.391 . S
C3349 H3337 0.950 . S
C3349 C3345 1.393 . S
C3349 C3348 1.391 . S
C3350 H3340 0.950 . S
C3350 C3351 1.386 . S
C3350 C3352 1.391 . S
C3351 C3350 1.386 . S
C3351 C3355 1.393 . S
C3352 H3341 0.950 . S
C3352 C3350 1.391 . S
C3352 C3353 1.400 . S
C3353 C3347 1.491 . S
C3353 C3352 1.400 . S
C3353 C3354 1.398 . S
C3354 H3342 0.950 . S
C3354 C3353 1.398 . S
C3354 C3355 1.391 . S
C3355 H3343 0.950 . S
C3355 C3351 1.393 . S
C3355 C3354 1.391 . S
H3356 C3364 0.950 . S
H3357 C3369 0.950 . S
H3358 C3366 0.950 . S
H3359 C3368 0.950 . S
H3360 C3370 0.950 . S
H3361 C3372 0.950 . S
H3362 C3374 0.950 . S
H3363 C3375 0.950 . S
C3364 H3356 0.950 . S
C3364 C3365 1.386 . S
C3364 C3366 1.391 . S
C3365 C3364 1.386 . S
C3365 C3369 1.393 . S
C3366 H3358 0.950 . S
C3366 C3364 1.391 . S
C3366 C3367 1.400 . S
C3367 C3366 1.400 . S
C3367 C3368 1.398 . S
C3367 C3373 1.491 . S
C3368 H3359 0.950 . S
C3368 C3367 1.398 . S
C3368 C3369 1.391 . S
C3369 H3357 0.950 . S
C3369 C3365 1.393 . S
C3369 C3368 1.391 . S
C3370 H3360 0.950 . S
C3370 C3371 1.386 . S
C3370 C3372 1.391 . S
C3371 C3370 1.386 . S
C3371 C3375 1.393 . S
C3372 H3361 0.950 . S
C3372 C3370 1.391 . S
C3372 C3373 1.400 . S
C3373 C3367 1.491 . S
C3373 C3372 1.400 . S
C3373 C3374 1.398 . S
C3374 H3362 0.950 . S
C3374 C3373 1.398 . S
C3374 C3375 1.391 . S
C3375 H3363 0.950 . S
C3375 C3371 1.393 . S
C3375 C3374 1.391 . S
H3376 C3384 0.950 . S
H3377 C3389 0.950 . S
H3378 C3386 0.950 . S
H3379 C3388 0.950 . S
H3380 C3390 0.950 . S
H3381 C3392 0.950 . S
H3382 C3394 0.950 . S
H3383 C3395 0.950 . S
C3384 H3376 0.950 . S
C3384 C3385 1.386 . S
C3384 C3386 1.391 . S
C3385 C3384 1.386 . S
C3385 C3389 1.393 . S
C3386 H3378 0.950 . S
C3386 C3384 1.391 . S
C3386 C3387 1.400 . S
C3387 C3386 1.400 . S
C3387 C3388 1.398 . S
C3387 C3393 1.491 . S
C3388 H3379 0.950 . S
C3388 C3387 1.398 . S
C3388 C3389 1.391 . S
C3389 H3377 0.950 . S
C3389 C3385 1.393 . S
C3389 C3388 1.391 . S
C3390 H3380 0.950 . S
C3390 C3391 1.386 . S
C3390 C3392 1.391 . S
C3391 C3390 1.386 . S
C3391 C3395 1.393 . S
C3392 H3381 0.950 . S
C3392 C3390 1.391 . S
C3392 C3393 1.400 . S
C3393 C3387 1.491 . S
C3393 C3392 1.400 . S
C3393 C3394 1.398 . S
C3394 H3382 0.950 . S
C3394 C3393 1.398 . S
C3394 C3395 1.391 . S
C3395 H3383 0.950 . S
C3395 C3391 1.393 . S
C3395 C3394 1.391 . S
H3396 C3404 0.950 . S
H3397 C3409 0.950 . S
H3398 C3406 0.950 . S
H3399 C3408 0.950 . S
H3400 C3410 0.950 . S
H3401 C3412 0.950 . S
H3402 C3414 0.950 . S
H3403 C3415 0.950 . S
C3404 H3396 0.950 . S
C3404 C3405 1.386 . S
C3404 C3406 1.391 . S
C3405 C3404 1.386 . S
C3405 C3409 1.393 . S
C3406 H3398 0.950 . S
C3406 C3404 1.391 . S
C3406 C3407 1.400 . S
C3407 C3406 1.400 . S
C3407 C3408 1.398 . S
C3407 C3413 1.491 . S
C3408 H3399 0.950 . S
C3408 C3407 1.398 . S
C3408 C3409 1.391 . S
C3409 H3397 0.950 . S
C3409 C3405 1.393 . S
C3409 C3408 1.391 . S
C3410 H3400 0.950 . S
C3410 C3411 1.386 . S
C3410 C3412 1.391 . S
C3411 C3410 1.386 . S
C3411 C3415 1.393 . S
C3412 H3401 0.950 . S
C3412 C3410 1.391 . S
C3412 C3413 1.400 . S
C3413 C3407 1.491 . S
C3413 C3412 1.400 . S
C3413 C3414 1.398 . S
C3414 H3402 0.950 . S
C3414 C3413 1.398 . S
C3414 C3415 1.391 . S
C3415 H3403 0.950 . S
C3415 C3411 1.393 . S
C3415 C3414 1.391 . S
H3416 C3424 0.950 . S
H3417 C3429 0.950 . S
H3418 C3426 0.950 . S
H3419 C3428 0.950 . S
H3420 C3430 0.950 . S
H3421 C3432 0.950 . S
H3422 C3434 0.950 . S
H3423 C3435 0.950 . S
C3424 H3416 0.950 . S
C3424 C3425 1.386 . S
C3424 C3426 1.391 . S
C3425 C3424 1.386 . S
C3425 C3429 1.393 . S
C3426 H3418 0.950 . S
C3426 C3424 1.391 . S
C3426 C3427 1.400 . S
C3427 C3426 1.400 . S
C3427 C3428 1.398 . S
C3427 C3433 1.491 . S
C3428 H3419 0.950 . S
C3428 C3427 1.398 . S
C3428 C3429 1.391 . S
C3429 H3417 0.950 . S
C3429 C3425 1.393 . S
C3429 C3428 1.391 . S
C3430 H3420 0.950 . S
C3430 C3431 1.386 . S
C3430 C3432 1.391 . S
C3431 C3430 1.386 . S
C3431 C3435 1.393 . S
C3432 H3421 0.950 . S
C3432 C3430 1.391 . S
C3432 C3433 1.400 . S
C3433 C3427 1.491 . S
C3433 C3432 1.400 . S
C3433 C3434 1.398 . S
C3434 H3422 0.950 . S
C3434 C3433 1.398 . S
C3434 C3435 1.391 . S
C3435 H3423 0.950 . S
C3435 C3431 1.393 . S
C3435 C3434 1.391 . S
H3436 C3444 0.950 . S
H3437 C3449 0.950 . S
H3438 C3446 0.950 . S
H3439 C3448 0.950 . S
H3440 C3450 0.950 . S
H3441 C3452 0.950 . S
H3442 C3454 0.950 . S
H3443 C3455 0.950 . S
C3444 H3436 0.950 . S
C3444 C3445 1.386 . S
C3444 C3446 1.391 . S
C3445 C3444 1.386 . S
C3445 C3449 1.393 . S
C3446 H3438 0.950 . S
C3446 C3444 1.391 . S
C3446 C3447 1.400 . S
C3447 C3446 1.400 . S
C3447 C3448 1.398 . S
C3447 C3453 1.491 . S
C3448 H3439 0.950 . S
C3448 C3447 1.398 . S
C3448 C3449 1.391 . S
C3449 H3437 0.950 . S
C3449 C3445 1.393 . S
C3449 C3448 1.391 . S
C3450 H3440 0.950 . S
C3450 C3451 1.386 . S
C3450 C3452 1.391 . S
C3451 C3450 1.386 . S
C3451 C3455 1.393 . S
C3452 H3441 0.950 . S
C3452 C3450 1.391 . S
C3452 C3453 1.400 . S
C3453 C3447 1.491 . S
C3453 C3452 1.400 . S
C3453 C3454 1.398 . S
C3454 H3442 0.950 . S
C3454 C3453 1.398 . S
C3454 C3455 1.391 . S
C3455 H3443 0.950 . S
C3455 C3451 1.393 . S
C3455 C3454 1.391 . S
C2025 C74 2.362 . S
C2031 C1579 2.382 . S
C2045 C1663 2.384 . S
C2051 C158 2.367 . S
C2065 C242 2.369 . S
C2071 C1411 2.385 . S
C2085 C326 2.374 . S
C2091 C1495 2.394 . S
C2105 C1915 2.390 . S
C2111 C410 2.373 . S
C2125 C494 2.373 . S
C2131 C1831 2.396 . S
C2145 C1999 2.397 . S
C2151 C578 2.369 . S
C2165 C662 2.364 . S
C2171 C1747 2.383 . S
C2185 C746 2.371 . S
C2191 C1159 2.397 . S
C2205 C830 2.373 . S
C2211 C1327 2.396 . S
C2225 C1243 2.391 . S
C2231 C914 2.374 . S
C2245 C998 2.374 . S
C2251 C1075 2.392 . S
C2265 C1071 2.357 . S
C2271 C560 2.389 . S
C2285 C1155 2.357 . S
C2291 C644 2.388 . S
C2305 C1239 2.372 . S
C2311 C392 2.396 . S
C2325 C476 2.384 . S
C2331 C1323 2.357 . S
C2345 C1407 2.368 . S
C2351 C896 2.397 . S
C2365 C812 2.382 . S
C2371 C1491 2.361 . S
C2385 C980 2.387 . S
C2391 C1575 2.371 . S
C2405 C728 2.383 . S
C2411 C1659 2.358 . S
C2425 C140 2.397 . S
C2431 C1743 2.366 . S
C2445 C308 2.383 . S
C2451 C1827 2.358 . S
C2465 C224 2.386 . S
C2471 C1911 2.356 . S
C2485 C1995 2.366 . S
C2491 C56 2.397 . S
C2505 C403 1.501 . S
C2511 C70 1.219 . S
C2525 C487 1.488 . S
C2531 C154 1.266 . S
C2545 C571 1.495 . S
C2551 C238 1.214 . S
C2565 C655 1.503 . S
C2571 C322 1.223 . S
C2585 C406 1.259 . S
C2591 C739 1.509 . S
C2605 C490 1.265 . S
C2611 C991 1.487 . S
C2625 C574 1.217 . S
C2631 C823 1.499 . S
C2645 C658 1.261 . S
C2651 C907 1.485 . S
C2665 C742 1.213 . S
C2671 C67 1.491 . S
C2685 C826 1.242 . S
C2691 C235 1.510 . S
C2705 C910 1.267 . S
C2711 C319 1.505 . S
C2725 C151 1.501 . S
C2731 C994 1.219 . S
C2745 C1400 1.507 . S
C2751 C1066 1.265 . S
C2765 C1484 1.478 . S
C2771 C1150 1.238 . S
C2785 C1234 1.223 . S
C2791 C1568 1.503 . S
C2805 C1318 1.239 . S
C2811 C1652 1.478 . S
C2825 C1736 1.480 . S
C2831 C1402 1.223 . S
C2845 C1486 1.226 . S
C2851 C1988 1.479 . S
C2865 C1820 1.491 . S
C2871 C1570 1.213 . S
C2885 C1654 1.227 . S
C2891 C1904 1.479 . S
C2905 C1064 1.496 . S
C2911 C1738 1.271 . S
C2925 C1822 1.267 . S
C2931 C1232 1.490 . S
C2945 C1906 1.217 . S
C2951 C1316 1.483 . S
C2965 C1148 1.509 . S
C2971 C1990 1.258 . S
C2985 C63 1.434 . S
C2991 C814 1.417 . S
C3005 C898 1.415 . S
C3011 C147 1.433 . S
C3025 C730 1.439 . S
C3031 C231 1.417 . S
C3045 C982 1.434 . S
C3051 C315 1.407 . S
C3065 C399 1.400 . S
C3071 C310 1.451 . S
C3085 C226 1.418 . S
C3091 C483 1.427 . S
C3105 C567 1.431 . S
C3111 C142 1.415 . S
C3125 C58 1.450 . S
C3131 C651 1.395 . S
C3145 C735 1.403 . S
C3151 C478 1.438 . S
C3165 C819 1.395 . S
C3171 C646 1.450 . S
C3185 C903 1.399 . S
C3191 C562 1.451 . S
C3205 C987 1.434 . S
C3211 C394 1.418 . S
C3225 C1082 1.396 . S
C3231 C1834 1.452 . S
C3245 C1166 1.396 . S
C3251 C1918 1.452 . S
C3265 C1750 1.431 . S
C3271 C1250 1.424 . S
C3285 C2002 1.433 . S
C3291 C1334 1.408 . S
C3305 C1418 1.424 . S
C3311 C1330 1.419 . S
C3325 C1502 1.400 . S
C3331 C1246 1.451 . S
C3345 C1162 1.438 . S
C3351 C1586 1.418 . S
C3365 C1670 1.410 . S
C3371 C1078 1.444 . S
C3385 C1754 1.433 . S
C3391 C1498 1.415 . S
C3405 C1666 1.450 . S
C3411 C1838 1.401 . S
C3425 C1922 1.395 . S
C3431 C1582 1.451 . S
C3445 C2006 1.408 . S
C3451 C1414 1.433 . S
