# Generated by pormake.
# Topology uli, (4)-cn, num edge types: 1
# Building blocks:
#     Node 0, Type 0, BuildingBlock: GALJAG_clean_sbu_0, # of connection points: 4
#     Node 1, Type 0, BuildingBlock: GALJAG_clean_sbu_0, # of connection points: 4
#     Node 2, Type 0, BuildingBlock: GALJAG_clean_sbu_0, # of connection points: 4
#     Node 3, Type 0, BuildingBlock: GALJAG_clean_sbu_0, # of connection points: 4
#     Node 4, Type 0, BuildingBlock: GALJAG_clean_sbu_0, # of connection points: 4
#     Node 5, Type 0, BuildingBlock: GALJAG_clean_sbu_0, # of connection points: 4
#     Node 6, Type 0, BuildingBlock: GALJAG_clean_sbu_0, # of connection points: 4
#     Node 7, Type 0, BuildingBlock: GALJAG_clean_sbu_0, # of connection points: 4
#     Node 8, Type 0, BuildingBlock: GALJAG_clean_sbu_0, # of connection points: 4
#     Node 9, Type 0, BuildingBlock: GALJAG_clean_sbu_0, # of connection points: 4
#     Node 10, Type 0, BuildingBlock: GALJAG_clean_sbu_0, # of connection points: 4
#     Node 11, Type 0, BuildingBlock: GALJAG_clean_sbu_0, # of connection points: 4
#     Node 12, Type 0, BuildingBlock: GALJAG_clean_sbu_0, # of connection points: 4
#     Node 13, Type 0, BuildingBlock: GALJAG_clean_sbu_0, # of connection points: 4
#     Node 14, Type 0, BuildingBlock: GALJAG_clean_sbu_0, # of connection points: 4
#     Node 15, Type 0, BuildingBlock: GALJAG_clean_sbu_0, # of connection points: 4
#     Node 16, Type 0, BuildingBlock: GALJAG_clean_sbu_0, # of connection points: 4
#     Node 17, Type 0, BuildingBlock: GALJAG_clean_sbu_0, # of connection points: 4
#     Node 18, Type 0, BuildingBlock: GALJAG_clean_sbu_0, # of connection points: 4
#     Node 19, Type 0, BuildingBlock: GALJAG_clean_sbu_0, # of connection points: 4
#     Node 20, Type 0, BuildingBlock: GALJAG_clean_sbu_0, # of connection points: 4
#     Node 21, Type 0, BuildingBlock: GALJAG_clean_sbu_0, # of connection points: 4
#     Node 22, Type 0, BuildingBlock: GALJAG_clean_sbu_0, # of connection points: 4
#     Node 23, Type 0, BuildingBlock: GALJAG_clean_sbu_0, # of connection points: 4
#     Node 24, Type 0, BuildingBlock: GALJAG_clean_sbu_0, # of connection points: 4
#     Node 25, Type 0, BuildingBlock: GALJAG_clean_sbu_0, # of connection points: 4
#     Node 26, Type 0, BuildingBlock: GALJAG_clean_sbu_0, # of connection points: 4
#     Node 27, Type 0, BuildingBlock: GALJAG_clean_sbu_0, # of connection points: 4
#     Node 28, Type 0, BuildingBlock: GALJAG_clean_sbu_0, # of connection points: 4
#     Node 29, Type 0, BuildingBlock: GALJAG_clean_sbu_0, # of connection points: 4
#     Node 30, Type 0, BuildingBlock: GALJAG_clean_sbu_0, # of connection points: 4
#     Node 31, Type 0, BuildingBlock: GALJAG_clean_sbu_0, # of connection points: 4
#     Node 32, Type 0, BuildingBlock: GALJAG_clean_sbu_0, # of connection points: 4
#     Node 33, Type 0, BuildingBlock: GALJAG_clean_sbu_0, # of connection points: 4
#     Node 34, Type 0, BuildingBlock: GALJAG_clean_sbu_0, # of connection points: 4
#     Node 35, Type 0, BuildingBlock: GALJAG_clean_sbu_0, # of connection points: 4
#     Node 36, Type 0, BuildingBlock: GALJAG_clean_sbu_0, # of connection points: 4
#     Node 37, Type 0, BuildingBlock: GALJAG_clean_sbu_0, # of connection points: 4
#     Node 38, Type 0, BuildingBlock: GALJAG_clean_sbu_0, # of connection points: 4
#     Node 39, Type 0, BuildingBlock: GALJAG_clean_sbu_0, # of connection points: 4
#     Node 40, Type 0, BuildingBlock: GALJAG_clean_sbu_0, # of connection points: 4
#     Node 41, Type 0, BuildingBlock: GALJAG_clean_sbu_0, # of connection points: 4
#     Node 42, Type 0, BuildingBlock: GALJAG_clean_sbu_0, # of connection points: 4
#     Node 43, Type 0, BuildingBlock: GALJAG_clean_sbu_0, # of connection points: 4
#     Node 44, Type 0, BuildingBlock: GALJAG_clean_sbu_0, # of connection points: 4
#     Node 45, Type 0, BuildingBlock: GALJAG_clean_sbu_0, # of connection points: 4
#     Node 46, Type 0, BuildingBlock: GALJAG_clean_sbu_0, # of connection points: 4
#     Node 47, Type 0, BuildingBlock: GALJAG_clean_sbu_0, # of connection points: 4
#     Edge 48, Type (0, 0), BuildingBlock: XUDNAN_clean_linker_2, # of connection points: 2
#     Edge 49, Type (0, 0), BuildingBlock: XUDNAN_clean_linker_2, # of connection points: 2
#     Edge 50, Type (0, 0), BuildingBlock: XUDNAN_clean_linker_2, # of connection points: 2
#     Edge 51, Type (0, 0), BuildingBlock: XUDNAN_clean_linker_2, # of connection points: 2
#     Edge 52, Type (0, 0), BuildingBlock: XUDNAN_clean_linker_2, # of connection points: 2
#     Edge 53, Type (0, 0), BuildingBlock: XUDNAN_clean_linker_2, # of connection points: 2
#     Edge 54, Type (0, 0), BuildingBlock: XUDNAN_clean_linker_2, # of connection points: 2
#     Edge 55, Type (0, 0), BuildingBlock: XUDNAN_clean_linker_2, # of connection points: 2
#     Edge 56, Type (0, 0), BuildingBlock: XUDNAN_clean_linker_2, # of connection points: 2
#     Edge 57, Type (0, 0), BuildingBlock: XUDNAN_clean_linker_2, # of connection points: 2
#     Edge 58, Type (0, 0), BuildingBlock: XUDNAN_clean_linker_2, # of connection points: 2
#     Edge 59, Type (0, 0), BuildingBlock: XUDNAN_clean_linker_2, # of connection points: 2
#     Edge 60, Type (0, 0), BuildingBlock: XUDNAN_clean_linker_2, # of connection points: 2
#     Edge 61, Type (0, 0), BuildingBlock: XUDNAN_clean_linker_2, # of connection points: 2
#     Edge 62, Type (0, 0), BuildingBlock: XUDNAN_clean_linker_2, # of connection points: 2
#     Edge 63, Type (0, 0), BuildingBlock: XUDNAN_clean_linker_2, # of connection points: 2
#     Edge 64, Type (0, 0), BuildingBlock: XUDNAN_clean_linker_2, # of connection points: 2
#     Edge 65, Type (0, 0), BuildingBlock: XUDNAN_clean_linker_2, # of connection points: 2
#     Edge 66, Type (0, 0), BuildingBlock: XUDNAN_clean_linker_2, # of connection points: 2
#     Edge 67, Type (0, 0), BuildingBlock: XUDNAN_clean_linker_2, # of connection points: 2
#     Edge 68, Type (0, 0), BuildingBlock: XUDNAN_clean_linker_2, # of connection points: 2
#     Edge 69, Type (0, 0), BuildingBlock: XUDNAN_clean_linker_2, # of connection points: 2
#     Edge 70, Type (0, 0), BuildingBlock: XUDNAN_clean_linker_2, # of connection points: 2
#     Edge 71, Type (0, 0), BuildingBlock: XUDNAN_clean_linker_2, # of connection points: 2
#     Edge 72, Type (0, 0), BuildingBlock: XUDNAN_clean_linker_2, # of connection points: 2
#     Edge 73, Type (0, 0), BuildingBlock: XUDNAN_clean_linker_2, # of connection points: 2
#     Edge 74, Type (0, 0), BuildingBlock: XUDNAN_clean_linker_2, # of connection points: 2
#     Edge 75, Type (0, 0), BuildingBlock: XUDNAN_clean_linker_2, # of connection points: 2
#     Edge 76, Type (0, 0), BuildingBlock: XUDNAN_clean_linker_2, # of connection points: 2
#     Edge 77, Type (0, 0), BuildingBlock: XUDNAN_clean_linker_2, # of connection points: 2
#     Edge 78, Type (0, 0), BuildingBlock: XUDNAN_clean_linker_2, # of connection points: 2
#     Edge 79, Type (0, 0), BuildingBlock: XUDNAN_clean_linker_2, # of connection points: 2
#     Edge 80, Type (0, 0), BuildingBlock: XUDNAN_clean_linker_2, # of connection points: 2
#     Edge 81, Type (0, 0), BuildingBlock: XUDNAN_clean_linker_2, # of connection points: 2
#     Edge 82, Type (0, 0), BuildingBlock: XUDNAN_clean_linker_2, # of connection points: 2
#     Edge 83, Type (0, 0), BuildingBlock: XUDNAN_clean_linker_2, # of connection points: 2
#     Edge 84, Type (0, 0), BuildingBlock: XUDNAN_clean_linker_2, # of connection points: 2
#     Edge 85, Type (0, 0), BuildingBlock: XUDNAN_clean_linker_2, # of connection points: 2
#     Edge 86, Type (0, 0), BuildingBlock: XUDNAN_clean_linker_2, # of connection points: 2
#     Edge 87, Type (0, 0), BuildingBlock: XUDNAN_clean_linker_2, # of connection points: 2
#     Edge 88, Type (0, 0), BuildingBlock: XUDNAN_clean_linker_2, # of connection points: 2
#     Edge 89, Type (0, 0), BuildingBlock: XUDNAN_clean_linker_2, # of connection points: 2
#     Edge 90, Type (0, 0), BuildingBlock: XUDNAN_clean_linker_2, # of connection points: 2
#     Edge 91, Type (0, 0), BuildingBlock: XUDNAN_clean_linker_2, # of connection points: 2
#     Edge 92, Type (0, 0), BuildingBlock: XUDNAN_clean_linker_2, # of connection points: 2
#     Edge 93, Type (0, 0), BuildingBlock: XUDNAN_clean_linker_2, # of connection points: 2
#     Edge 94, Type (0, 0), BuildingBlock: XUDNAN_clean_linker_2, # of connection points: 2
#     Edge 95, Type (0, 0), BuildingBlock: XUDNAN_clean_linker_2, # of connection points: 2
#     Edge 96, Type (0, 0), BuildingBlock: XUDNAN_clean_linker_2, # of connection points: 2
#     Edge 97, Type (0, 0), BuildingBlock: XUDNAN_clean_linker_2, # of connection points: 2
#     Edge 98, Type (0, 0), BuildingBlock: XUDNAN_clean_linker_2, # of connection points: 2
#     Edge 99, Type (0, 0), BuildingBlock: XUDNAN_clean_linker_2, # of connection points: 2
#     Edge 100, Type (0, 0), BuildingBlock: XUDNAN_clean_linker_2, # of connection points: 2
#     Edge 101, Type (0, 0), BuildingBlock: XUDNAN_clean_linker_2, # of connection points: 2
#     Edge 102, Type (0, 0), BuildingBlock: XUDNAN_clean_linker_2, # of connection points: 2
#     Edge 103, Type (0, 0), BuildingBlock: XUDNAN_clean_linker_2, # of connection points: 2
#     Edge 104, Type (0, 0), BuildingBlock: XUDNAN_clean_linker_2, # of connection points: 2
#     Edge 105, Type (0, 0), BuildingBlock: XUDNAN_clean_linker_2, # of connection points: 2
#     Edge 106, Type (0, 0), BuildingBlock: XUDNAN_clean_linker_2, # of connection points: 2
#     Edge 107, Type (0, 0), BuildingBlock: XUDNAN_clean_linker_2, # of connection points: 2
#     Edge 108, Type (0, 0), BuildingBlock: XUDNAN_clean_linker_2, # of connection points: 2
#     Edge 109, Type (0, 0), BuildingBlock: XUDNAN_clean_linker_2, # of connection points: 2
#     Edge 110, Type (0, 0), BuildingBlock: XUDNAN_clean_linker_2, # of connection points: 2
#     Edge 111, Type (0, 0), BuildingBlock: XUDNAN_clean_linker_2, # of connection points: 2
#     Edge 112, Type (0, 0), BuildingBlock: XUDNAN_clean_linker_2, # of connection points: 2
#     Edge 113, Type (0, 0), BuildingBlock: XUDNAN_clean_linker_2, # of connection points: 2
#     Edge 114, Type (0, 0), BuildingBlock: XUDNAN_clean_linker_2, # of connection points: 2
#     Edge 115, Type (0, 0), BuildingBlock: XUDNAN_clean_linker_2, # of connection points: 2
#     Edge 116, Type (0, 0), BuildingBlock: XUDNAN_clean_linker_2, # of connection points: 2
#     Edge 117, Type (0, 0), BuildingBlock: XUDNAN_clean_linker_2, # of connection points: 2
#     Edge 118, Type (0, 0), BuildingBlock: XUDNAN_clean_linker_2, # of connection points: 2
#     Edge 119, Type (0, 0), BuildingBlock: XUDNAN_clean_linker_2, # of connection points: 2
#     Edge 120, Type (0, 0), BuildingBlock: XUDNAN_clean_linker_2, # of connection points: 2
#     Edge 121, Type (0, 0), BuildingBlock: XUDNAN_clean_linker_2, # of connection points: 2
#     Edge 122, Type (0, 0), BuildingBlock: XUDNAN_clean_linker_2, # of connection points: 2
#     Edge 123, Type (0, 0), BuildingBlock: XUDNAN_clean_linker_2, # of connection points: 2
#     Edge 124, Type (0, 0), BuildingBlock: XUDNAN_clean_linker_2, # of connection points: 2
#     Edge 125, Type (0, 0), BuildingBlock: XUDNAN_clean_linker_2, # of connection points: 2
#     Edge 126, Type (0, 0), BuildingBlock: XUDNAN_clean_linker_2, # of connection points: 2
#     Edge 127, Type (0, 0), BuildingBlock: XUDNAN_clean_linker_2, # of connection points: 2
#     Edge 128, Type (0, 0), BuildingBlock: XUDNAN_clean_linker_2, # of connection points: 2
#     Edge 129, Type (0, 0), BuildingBlock: XUDNAN_clean_linker_2, # of connection points: 2
#     Edge 130, Type (0, 0), BuildingBlock: XUDNAN_clean_linker_2, # of connection points: 2
#     Edge 131, Type (0, 0), BuildingBlock: XUDNAN_clean_linker_2, # of connection points: 2
#     Edge 132, Type (0, 0), BuildingBlock: XUDNAN_clean_linker_2, # of connection points: 2
#     Edge 133, Type (0, 0), BuildingBlock: XUDNAN_clean_linker_2, # of connection points: 2
#     Edge 134, Type (0, 0), BuildingBlock: XUDNAN_clean_linker_2, # of connection points: 2
#     Edge 135, Type (0, 0), BuildingBlock: XUDNAN_clean_linker_2, # of connection points: 2
#     Edge 136, Type (0, 0), BuildingBlock: XUDNAN_clean_linker_2, # of connection points: 2
#     Edge 137, Type (0, 0), BuildingBlock: XUDNAN_clean_linker_2, # of connection points: 2
#     Edge 138, Type (0, 0), BuildingBlock: XUDNAN_clean_linker_2, # of connection points: 2
#     Edge 139, Type (0, 0), BuildingBlock: XUDNAN_clean_linker_2, # of connection points: 2
#     Edge 140, Type (0, 0), BuildingBlock: XUDNAN_clean_linker_2, # of connection points: 2
#     Edge 141, Type (0, 0), BuildingBlock: XUDNAN_clean_linker_2, # of connection points: 2
#     Edge 142, Type (0, 0), BuildingBlock: XUDNAN_clean_linker_2, # of connection points: 2
#     Edge 143, Type (0, 0), BuildingBlock: XUDNAN_clean_linker_2, # of connection points: 2
# Relax obj value: 0.561
# Max RMSD: 0.175
# Mean RMSD: 0.175
data_MOF--net-uli--node1-GALJAG_clean_sbu_0--edge1-XUDNAN_clean_linker_2
_symmetry_space_group_name_H-M    P1
_symmetry_Int_Tables_number       1
_symmetry_cell_setting            triclinic
loop_
_symmetry_equiv_pos_as_xyz
'x, y, z'
_cell_length_a     66.342622
_cell_length_b     66.312038
_cell_length_c     66.303267
_cell_angle_alpha  90.00603
_cell_angle_beta   89.984196
_cell_angle_gamma 90.02422
loop_
_atom_site_label
_atom_site_type_symbol
_atom_site_fract_x
_atom_site_fract_y
_atom_site_fract_z
_atom_type_partial_charge
In0 In 0.10043 0.26766 0.19292 0.0
O1 O 0.10547 0.29115 0.21712 0.0
O2 O 0.09632 0.30136 0.188 0.0
C3 C 0.11206 0.23375 0.21187 0.0
C4 C 0.06115 0.25897 0.19468 0.0
C5 C 0.12698 0.26865 0.1624 0.0
O6 O 0.11813 0.25092 0.21754 0.0
O7 O 0.10072 0.23386 0.19666 0.0
O8 O 0.1082 0.26744 0.15926 0.0
O9 O 0.13204 0.2695 0.1807 0.0
C10 C 0.10122 0.30592 0.20585 0.0
O11 O 0.07118 0.25631 0.17865 0.0
O12 O 0.07066 0.26735 0.20885 0.0
In13 In 0.72161 0.09202 0.22359 0.0
O14 O 0.69498 0.0895 0.24534 0.0
O15 O 0.68863 0.0913 0.21406 0.0
C16 C 0.74713 0.10559 0.25238 0.0
C17 C 0.73908 0.05639 0.21591 0.0
C18 C 0.72694 0.11947 0.19433 0.0
O19 O 0.73394 0.11669 0.24437 0.0
O20 O 0.74643 0.08744 0.24693 0.0
O21 O 0.72332 0.10118 0.19025 0.0
O22 O 0.72768 0.12358 0.21287 0.0
C23 C 0.68177 0.09022 0.23171 0.0
O24 O 0.74388 0.07224 0.20653 0.0
O25 O 0.72427 0.05829 0.22773 0.0
In26 In 0.90993 0.72951 0.19147 0.0
O27 O 0.93626 0.74512 0.17553 0.0
O28 O 0.94252 0.72497 0.19954 0.0
C29 C 0.87999 0.72952 0.16426 0.0
C30 C 0.90606 0.69127 0.20383 0.0
C31 C 0.90322 0.7617 0.21535 0.0
O32 O 0.89829 0.72859 0.15895 0.0
O33 O 0.87709 0.73058 0.18303 0.0
O34 O 0.90385 0.74398 0.2223 0.0
O35 O 0.90506 0.76291 0.19647 0.0
C36 C 0.94923 0.73806 0.18752 0.0
O37 O 0.90297 0.70622 0.21525 0.0
O38 O 0.91164 0.69561 0.1861 0.0
In39 In 0.27236 0.89494 0.20056 0.0
O40 O 0.25114 0.91475 0.18239 0.0
O41 O 0.27854 0.92761 0.19285 0.0
C42 C 0.26715 0.8639 0.17485 0.0
C43 C 0.31005 0.89546 0.21583 0.0
C44 C 0.24494 0.89006 0.2303 0.0
O45 O 0.27403 0.88068 0.16903 0.0
O46 O 0.2632 0.86293 0.19339 0.0
O47 O 0.25828 0.87706 0.22643 0.0
O48 O 0.24585 0.90571 0.21961 0.0
C49 C 0.26182 0.93039 0.18419 0.0
O50 O 0.29507 0.90233 0.22524 0.0
O51 O 0.3061 0.88864 0.19852 0.0
In52 In 0.11054 0.69593 0.77925 0.0
O53 O 0.0837 0.69563 0.80091 0.0
O54 O 0.07978 0.7073 0.77115 0.0
C55 C 0.14331 0.69193 0.80272 0.0
C56 C 0.10814 0.65876 0.76338 0.0
C57 C 0.12113 0.7308 0.7617 0.0
O58 O 0.12683 0.69868 0.80954 0.0
O59 O 0.14305 0.68715 0.78434 0.0
O60 O 0.12016 0.71447 0.75187 0.0
O61 O 0.11684 0.72938 0.7802 0.0
C62 C 0.07208 0.70366 0.78813 0.0
O63 O 0.11222 0.67411 0.75282 0.0
O64 O 0.10427 0.66246 0.78164 0.0
In65 In 0.26525 0.09444 0.78345 0.0
O66 O 0.28892 0.09343 0.75874 0.0
O67 O 0.29809 0.08717 0.78897 0.0
C68 C 0.23177 0.10041 0.76123 0.0
C69 C 0.25474 0.05841 0.79836 0.0
C70 C 0.27119 0.12934 0.80321 0.0
O71 O 0.24843 0.0961 0.75304 0.0
O72 O 0.23238 0.10202 0.78012 0.0
O73 O 0.26805 0.11292 0.81235 0.0
O74 O 0.2714 0.12806 0.78424 0.0
C75 C 0.30317 0.08913 0.77069 0.0
O76 O 0.24928 0.07458 0.80675 0.0
O77 O 0.26592 0.06055 0.78315 0.0
In78 In 0.9183 0.2932 0.78482 0.0
O79 O 0.91008 0.31321 0.75859 0.0
O80 O 0.91467 0.32715 0.78739 0.0
C81 C 0.90573 0.25957 0.76566 0.0
C82 C 0.95834 0.28773 0.78147 0.0
C83 C 0.89446 0.2952 0.81738 0.0
O84 O 0.90658 0.27642 0.75686 0.0
O85 O 0.91074 0.25992 0.78395 0.0
O86 O 0.91345 0.29426 0.81917 0.0
O87 O 0.88801 0.29531 0.7995 0.0
C88 C 0.91019 0.32923 0.76895 0.0
O89 O 0.94759 0.27684 0.79272 0.0
O90 O 0.94932 0.30284 0.77444 0.0
In91 In 0.74861 0.91132 0.80409 0.0
O92 O 0.7588 0.94222 0.81569 0.0
O93 O 0.75514 0.93792 0.78413 0.0
C94 C 0.73409 0.89651 0.83909 0.0
C95 C 0.7182 0.89977 0.78022 0.0
C96 C 0.7832 0.89295 0.79364 0.0
O97 O 0.75184 0.89363 0.83307 0.0
O98 O 0.72405 0.90854 0.82834 0.0
O99 O 0.76709 0.89081 0.78375 0.0
O100 O 0.7818 0.9042 0.8089 0.0
C101 C 0.76077 0.9494 0.79815 0.0
O102 O 0.73231 0.88809 0.78544 0.0
O103 O 0.71959 0.91764 0.78676 0.0
In104 In 0.21475 0.08926 0.26056 0.0
O105 O 0.23488 0.08673 0.28822 0.0
O106 O 0.20324 0.08457 0.29263 0.0
C107 C 0.23959 0.10765 0.23429 0.0
C108 C 0.21588 0.05238 0.24417 0.0
C109 C 0.18451 0.11597 0.25834 0.0
O110 O 0.24205 0.1091 0.25314 0.0
O111 O 0.22467 0.09719 0.22895 0.0
O112 O 0.18172 0.09729 0.25562 0.0
O113 O 0.20239 0.12095 0.26248 0.0
C114 C 0.22051 0.08492 0.30054 0.0
O115 O 0.19993 0.06277 0.24416 0.0
O116 O 0.23041 0.05999 0.25378 0.0
In117 In 0.90222 0.20527 0.26377 0.0
O118 O 0.92785 0.1881 0.24838 0.0
O119 O 0.93493 0.21391 0.266 0.0
C120 C 0.87174 0.17881 0.26625 0.0
C121 C 0.89974 0.21619 0.3025 0.0
C122 C 0.89297 0.22757 0.23124 0.0
O123 O 0.88997 0.17324 0.26717 0.0
O124 O 0.86913 0.19746 0.26351 0.0
O125 O 0.89473 0.23539 0.24855 0.0
O126 O 0.89535 0.20872 0.23067 0.0
C127 C 0.94116 0.20043 0.25415 0.0
O128 O 0.89749 0.22875 0.28831 0.0
O129 O 0.90412 0.19847 0.29708 0.0
In130 In 0.82249 0.90586 0.26578 0.0
O131 O 0.79814 0.88563 0.27793 0.0
O132 O 0.81299 0.90473 0.29908 0.0
C133 C 0.80138 0.89389 0.23309 0.0
C134 C 0.82253 0.94626 0.26297 0.0
C135 C 0.85888 0.88768 0.2672 0.0
O136 O 0.8128 0.88226 0.24288 0.0
O137 O 0.80047 0.91162 0.23982 0.0
O138 O 0.85186 0.89571 0.2515 0.0
O139 O 0.84835 0.8905 0.28277 0.0
C140 C 0.79976 0.89134 0.29599 0.0
O141 O 0.83464 0.93546 0.25305 0.0
O142 O 0.81206 0.93674 0.27565 0.0
In143 In 0.09398 0.79911 0.27236 0.0
O144 O 0.06934 0.81624 0.25534 0.0
O145 O 0.06084 0.79232 0.27475 0.0
C146 C 0.12405 0.82603 0.27515 0.0
C147 C 0.09617 0.78455 0.30995 0.0
C148 C 0.10235 0.77639 0.23972 0.0
O149 O 0.10576 0.83141 0.27578 0.0
O150 O 0.12687 0.80732 0.27323 0.0
O151 O 0.09807 0.76864 0.25658 0.0
O152 O 0.10314 0.79537 0.23966 0.0
C153 C 0.05547 0.80475 0.26144 0.0
O154 O 0.10046 0.77418 0.29455 0.0
O155 O 0.09029 0.80234 0.30637 0.0
In156 In 0.21404 0.88685 0.75174 0.0
O157 O 0.19769 0.91503 0.76349 0.0
O158 O 0.2298 0.91493 0.76077 0.0
C159 C 0.18691 0.85836 0.74284 0.0
C160 C 0.22672 0.89512 0.71439 0.0
C161 C 0.23124 0.86938 0.78391 0.0
O162 O 0.18191 0.87418 0.75232 0.0
O163 O 0.20528 0.85711 0.73814 0.0
O164 O 0.23907 0.86818 0.76654 0.0
O165 O 0.21476 0.87878 0.78471 0.0
C166 C 0.21419 0.92433 0.76617 0.0
O167 O 0.23856 0.8889 0.728 0.0
O168 O 0.20859 0.89748 0.71976 0.0
In169 In 0.0946 0.20067 0.71557 0.0
O170 O 0.06228 0.19293 0.72449 0.0
O171 O 0.06679 0.21117 0.6988 0.0
C172 C 0.11071 0.16346 0.71852 0.0
C173 C 0.11255 0.22093 0.68543 0.0
C174 C 0.10439 0.22105 0.74943 0.0
O175 O 0.10238 0.16946 0.70249 0.0
O176 O 0.10984 0.17574 0.73297 0.0
O177 O 0.11654 0.21886 0.73494 0.0
O178 O 0.08738 0.21303 0.74679 0.0
C179 C 0.05442 0.20421 0.71138 0.0
O180 O 0.10239 0.22964 0.69897 0.0
O181 O 0.11378 0.20201 0.68718 0.0
In182 In 0.81666 0.10403 0.73189 0.0
O183 O 0.83444 0.08072 0.74988 0.0
O184 O 0.81527 0.07025 0.72667 0.0
C185 C 0.8479 0.13015 0.7303 0.0
C186 C 0.79519 0.10529 0.69764 0.0
C187 C 0.79134 0.11849 0.76028 0.0
O188 O 0.84142 0.12267 0.74651 0.0
O189 O 0.83936 0.12359 0.71466 0.0
O190 O 0.7987 0.12936 0.7465 0.0
O191 O 0.79633 0.10018 0.75945 0.0
C192 C 0.82658 0.06577 0.74122 0.0
O193 O 0.78728 0.10673 0.71491 0.0
O194 O 0.81409 0.10278 0.69761 0.0
In195 In 0.89661 0.75357 0.75631 0.0
O196 O 0.89001 0.7345 0.72837 0.0
O197 O 0.90589 0.76207 0.72449 0.0
C198 C 0.87201 0.73682 0.78381 0.0
C199 C 0.93275 0.74071 0.76848 0.0
C200 C 0.88186 0.79108 0.76022 0.0
O201 O 0.86834 0.73581 0.76512 0.0
O202 O 0.88798 0.74605 0.78839 0.0
O203 O 0.89886 0.7862 0.76728 0.0
O204 O 0.87268 0.77717 0.75109 0.0
C205 C 0.89814 0.74679 0.71628 0.0
O206 O 0.92951 0.75895 0.76403 0.0
O207 O 0.91799 0.72896 0.76612 0.0
In208 In 0.28115 0.20726 0.08558 0.0
O209 O 0.26943 0.18707 0.06015 0.0
O210 O 0.28378 0.21488 0.05282 0.0
C211 C 0.28371 0.18322 0.1181 0.0
C212 C 0.31863 0.22217 0.08469 0.0
C213 C 0.24691 0.22803 0.09254 0.0
O214 O 0.28478 0.20214 0.11893 0.0
O215 O 0.28116 0.17602 0.10061 0.0
O216 O 0.26386 0.23447 0.0983 0.0
O217 O 0.24731 0.21129 0.08366 0.0
C218 C 0.27418 0.19967 0.04662 0.0
O219 O 0.30314 0.23323 0.08581 0.0
O220 O 0.31512 0.20346 0.08321 0.0
In221 In 0.28645 0.74544 0.90772 0.0
O222 O 0.2706 0.75192 0.9374 0.0
O223 O 0.28022 0.72185 0.93162 0.0
C224 C 0.2822 0.78049 0.88797 0.0
C225 C 0.32688 0.74344 0.90989 0.0
C226 C 0.2601 0.72509 0.88472 0.0
O227 O 0.27839 0.77886 0.90659 0.0
O228 O 0.28855 0.76461 0.87963 0.0
O229 O 0.27876 0.72112 0.88433 0.0
O230 O 0.25512 0.73915 0.89648 0.0
C231 C 0.27062 0.7337 0.94298 0.0
O232 O 0.31634 0.7299 0.9016 0.0
O233 O 0.31689 0.75736 0.91815 0.0
In234 In 0.20599 0.27305 0.89419 0.0
O235 O 0.22675 0.29982 0.89765 0.0
O236 O 0.19525 0.3058 0.89586 0.0
C237 C 0.23275 0.24787 0.8768 0.0
C238 C 0.20728 0.25855 0.93189 0.0
C239 C 0.17566 0.26974 0.8677 0.0
O240 O 0.2329 0.2666 0.87341 0.0
O241 O 0.21931 0.24209 0.88889 0.0
O242 O 0.17247 0.26911 0.88654 0.0
O243 O 0.19379 0.27243 0.86269 0.0
C244 C 0.21288 0.31282 0.89744 0.0
O245 O 0.19374 0.25304 0.91967 0.0
O246 O 0.21853 0.27248 0.92555 0.0
In247 In 0.73677 0.23947 0.8889 0.0
O248 O 0.71736 0.2613 0.87158 0.0
O249 O 0.70278 0.23619 0.88554 0.0
C250 C 0.77317 0.25676 0.88462 0.0
C251 C 0.73337 0.24695 0.92832 0.0
C252 C 0.74124 0.2065 0.86583 0.0
O253 O 0.75758 0.26354 0.87602 0.0
O254 O 0.77038 0.24125 0.89526 0.0
O255 O 0.73674 0.20501 0.88434 0.0
O256 O 0.74342 0.22428 0.85952 0.0
C257 C 0.70111 0.25189 0.87485 0.0
O258 O 0.73871 0.22979 0.92188 0.0
O259 O 0.72883 0.2596 0.91489 0.0
In260 In 0.72348 0.72327 0.89348 0.0
O261 O 0.70061 0.70451 0.87621 0.0
O262 O 0.72035 0.68942 0.89663 0.0
C263 C 0.71662 0.76186 0.88343 0.0
C264 C 0.7149 0.73012 0.93221 0.0
C265 C 0.75869 0.71756 0.87445 0.0
O266 O 0.70405 0.74814 0.8791 0.0
O267 O 0.7325 0.75582 0.8919 0.0
O268 O 0.75709 0.71627 0.89343 0.0
O269 O 0.74252 0.72156 0.86522 0.0
C270 C 0.7065 0.68795 0.88366 0.0
O271 O 0.70141 0.72807 0.91896 0.0
O272 O 0.73271 0.72702 0.92617 0.0
In273 In 0.7216 0.789 0.10111 0.0
O274 O 0.70116 0.76149 0.10232 0.0
O275 O 0.69131 0.78836 0.11695 0.0
C276 C 0.75359 0.76406 0.10253 0.0
C277 C 0.71405 0.7964 0.06204 0.0
C278 C 0.73289 0.81894 0.12625 0.0
O279 O 0.73883 0.76243 0.11444 0.0
O280 O 0.75184 0.77776 0.08948 0.0
O281 O 0.72553 0.82275 0.10912 0.0
O282 O 0.73391 0.80052 0.13048 0.0
C283 C 0.6876 0.77022 0.11244 0.0
O284 O 0.73166 0.79525 0.06908 0.0
O285 O 0.70024 0.79551 0.07506 0.0
In286 In 0.18742 0.7153 0.09591 0.0
O287 O 0.19204 0.68799 0.11602 0.0
O288 O 0.21563 0.6957 0.09571 0.0
C289 C 0.21247 0.74526 0.10737 0.0
C290 C 0.18236 0.71107 0.05586 0.0
C291 C 0.15198 0.72223 0.11462 0.0
O292 O 0.20357 0.73397 0.11982 0.0
O293 O 0.20903 0.74122 0.08912 0.0
O294 O 0.16291 0.73607 0.10758 0.0
O295 O 0.15811 0.70465 0.11074 0.0
C296 C 0.20937 0.68395 0.10929 0.0
O297 O 0.18112 0.72782 0.06471 0.0
O298 O 0.18401 0.69618 0.06755 0.0
In299 In 0.78463 0.27242 0.10361 0.0
O300 O 0.78997 0.26228 0.07131 0.0
O301 O 0.77636 0.29084 0.07593 0.0
C302 C 0.8237 0.2718 0.11476 0.0
C303 C 0.76364 0.30111 0.12299 0.0
C304 C 0.76607 0.23879 0.11722 0.0
O305 O 0.81463 0.28799 0.11064 0.0
O306 O 0.81346 0.25608 0.11179 0.0
O307 O 0.77367 0.25179 0.1288 0.0
O308 O 0.76746 0.2429 0.09874 0.0
C309 C 0.78177 0.27752 0.06351 0.0
O310 O 0.7558 0.29025 0.10945 0.0
O311 O 0.78192 0.29745 0.12667 0.0
In312 In 0.60477 0.79618 0.67495 0.0
O313 O 0.62456 0.80534 0.70109 0.0
O314 O 0.60971 0.82876 0.68485 0.0
C315 C 0.61322 0.76003 0.69151 0.0
C316 C 0.56424 0.79681 0.67423 0.0
C317 C 0.6244 0.7981 0.63936 0.0
O318 O 0.62578 0.76977 0.68109 0.0
O319 O 0.59671 0.76894 0.6944 0.0
O320 O 0.61459 0.78286 0.64501 0.0
O321 O 0.62242 0.81327 0.65066 0.0
C322 C 0.62156 0.82402 0.69899 0.0
O323 O 0.57448 0.78883 0.66032 0.0
O324 O 0.57452 0.80628 0.68709 0.0
In325 In 0.25284 0.59764 0.71796 0.0
O326 O 0.26756 0.56993 0.70349 0.0
O327 O 0.26255 0.57085 0.73541 0.0
C328 C 0.24326 0.62619 0.69134 0.0
C329 C 0.21526 0.58712 0.72749 0.0
C330 C 0.28402 0.61673 0.73492 0.0
O331 O 0.25269 0.61044 0.68592 0.0
O332 O 0.23904 0.62731 0.70987 0.0
O333 O 0.2666 0.61755 0.74273 0.0
O334 O 0.28531 0.6069 0.7187 0.0
C335 C 0.26981 0.56145 0.72053 0.0
O336 O 0.22738 0.5942 0.74046 0.0
O337 O 0.22231 0.58493 0.70991 0.0
In338 In 0.39849 0.21016 0.72747 0.0
O339 O 0.39244 0.18278 0.74661 0.0
O340 O 0.41053 0.17857 0.72037 0.0
C341 C 0.37446 0.23424 0.75011 0.0
C342 C 0.43273 0.23081 0.73335 0.0
C343 C 0.38116 0.20912 0.69104 0.0
O344 O 0.37109 0.23055 0.73183 0.0
O345 O 0.38916 0.22475 0.75737 0.0
O346 O 0.39727 0.21885 0.69426 0.0
O347 O 0.37426 0.19957 0.70602 0.0
C348 C 0.40226 0.17076 0.73564 0.0
O349 O 0.4216 0.23402 0.71828 0.0
O350 O 0.42775 0.21583 0.74388 0.0
In351 In 0.76423 0.39894 0.70896 0.0
O352 O 0.75435 0.42237 0.68551 0.0
O353 O 0.75938 0.43128 0.71608 0.0
C354 C 0.7659 0.36268 0.69136 0.0
C355 C 0.8028 0.4029 0.71989 0.0
C356 C 0.72907 0.3942 0.72827 0.0
O357 O 0.76353 0.37866 0.68114 0.0
O358 O 0.76787 0.36525 0.71013 0.0
O359 O 0.74543 0.39608 0.73797 0.0
O360 O 0.73091 0.39376 0.70935 0.0
C361 C 0.75302 0.43605 0.6988 0.0
O362 O 0.78893 0.39913 0.73246 0.0
O363 O 0.79703 0.40512 0.70184 0.0
In364 In 0.5773 0.21337 0.28605 0.0
O365 O 0.54811 0.22255 0.30209 0.0
O366 O 0.54795 0.21801 0.27027 0.0
C367 C 0.60505 0.20704 0.3146 0.0
C368 C 0.57982 0.17652 0.26977 0.0
C369 C 0.58911 0.24996 0.27349 0.0
O370 O 0.5864 0.20757 0.31875 0.0
O371 O 0.60938 0.20971 0.29625 0.0
O372 O 0.58829 0.23512 0.26149 0.0
O373 O 0.58464 0.24601 0.29154 0.0
C374 C 0.53845 0.22379 0.28568 0.0
O375 O 0.58603 0.19215 0.26075 0.0
O376 O 0.57151 0.17968 0.28664 0.0
In377 In 0.77809 0.59701 0.27528 0.0
O378 O 0.80026 0.59423 0.24904 0.0
O379 O 0.81193 0.60225 0.27769 0.0
C380 C 0.74737 0.60422 0.24961 0.0
C381 C 0.76774 0.56099 0.29056 0.0
C382 C 0.77358 0.62669 0.30251 0.0
O383 O 0.76098 0.61702 0.25321 0.0
O384 O 0.74996 0.58737 0.25796 0.0
O385 O 0.78258 0.61046 0.30686 0.0
O386 O 0.76738 0.62785 0.2846 0.0
C387 C 0.81549 0.59903 0.25932 0.0
O388 O 0.76157 0.57738 0.29796 0.0
O389 O 0.78027 0.56289 0.27633 0.0
In390 In 0.40091 0.77697 0.30131 0.0
O391 O 0.4261 0.76106 0.31875 0.0
O392 O 0.43376 0.77833 0.29297 0.0
C393 C 0.37134 0.78142 0.3286 0.0
C394 C 0.39921 0.81348 0.28417 0.0
C395 C 0.39158 0.74326 0.2807 0.0
O396 O 0.36816 0.77788 0.31019 0.0
O397 O 0.38974 0.78284 0.33348 0.0
O398 O 0.39369 0.7601 0.27208 0.0
O399 O 0.39337 0.74371 0.29961 0.0
C400 C 0.43951 0.76597 0.30618 0.0
O401 O 0.39552 0.79735 0.27474 0.0
O402 O 0.4042 0.81124 0.30245 0.0
In403 In 0.21274 0.41058 0.28401 0.0
O404 O 0.22937 0.43247 0.30474 0.0
O405 O 0.21007 0.44454 0.28241 0.0
C406 C 0.21526 0.38227 0.31303 0.0
C407 C 0.17639 0.4076 0.26625 0.0
C408 C 0.24088 0.3995 0.25685 0.0
O409 O 0.20012 0.39369 0.3115 0.0
O410 O 0.22919 0.38583 0.30062 0.0
O411 O 0.22677 0.3879 0.26225 0.0
O412 O 0.24032 0.41683 0.2646 0.0
C413 C 0.2233 0.44797 0.29559 0.0
O414 O 0.19232 0.41088 0.25643 0.0
O415 O 0.17869 0.4065 0.2851 0.0
In416 In 0.68804 0.59656 0.73512 0.0
O417 O 0.67981 0.57502 0.70954 0.0
O418 O 0.68483 0.56279 0.73867 0.0
C419 C 0.66299 0.62466 0.72014 0.0
C420 C 0.68629 0.59906 0.77564 0.0
C421 C 0.72494 0.60795 0.7224 0.0
O422 O 0.65648 0.60961 0.72985 0.0
O423 O 0.68175 0.62484 0.71735 0.0
O424 O 0.71437 0.61859 0.73411 0.0
O425 O 0.71734 0.59109 0.71803 0.0
C426 C 0.68131 0.55942 0.72029 0.0
O427 O 0.70165 0.59247 0.76656 0.0
O428 O 0.67177 0.60373 0.76434 0.0
In429 In 0.41688 0.74162 0.76932 0.0
O430 O 0.41537 0.76192 0.79717 0.0
O431 O 0.42346 0.73116 0.80115 0.0
C432 C 0.39965 0.7653 0.74118 0.0
C433 C 0.45414 0.74363 0.75395 0.0
C434 C 0.39271 0.70909 0.7672 0.0
O435 O 0.39367 0.7655 0.75929 0.0
O436 O 0.41392 0.75338 0.73759 0.0
O437 O 0.41167 0.70777 0.76599 0.0
O438 O 0.38605 0.72676 0.76937 0.0
C439 C 0.41968 0.7479 0.80932 0.0
O440 O 0.44306 0.72825 0.7519 0.0
O441 O 0.44702 0.75721 0.76528 0.0
In442 In 0.2916 0.39894 0.77718 0.0
O443 O 0.26284 0.40107 0.79604 0.0
O444 O 0.29086 0.40021 0.81144 0.0
C445 C 0.26718 0.39609 0.74483 0.0
C446 C 0.31082 0.43351 0.76867 0.0
C447 C 0.31379 0.36474 0.7774 0.0
O448 O 0.2662 0.384 0.75952 0.0
O449 O 0.27967 0.41024 0.74702 0.0
O450 O 0.31884 0.37999 0.78759 0.0
O451 O 0.29814 0.36705 0.76702 0.0
C452 C 0.27193 0.40097 0.81274 0.0
O453 O 0.31583 0.41698 0.76064 0.0
O454 O 0.297 0.43219 0.78169 0.0
In455 In 0.5736 0.32459 0.76008 0.0
O456 O 0.57577 0.30523 0.78851 0.0
O457 O 0.60293 0.31539 0.7747 0.0
C458 C 0.57908 0.29708 0.73055 0.0
C459 C 0.53335 0.32911 0.76222 0.0
C460 C 0.59318 0.36015 0.75923 0.0
O461 O 0.57331 0.29233 0.74802 0.0
O462 O 0.58206 0.31568 0.72796 0.0
O463 O 0.58549 0.35322 0.77518 0.0
O464 O 0.58923 0.35008 0.74359 0.0
C465 C 0.59479 0.30572 0.78892 0.0
O466 O 0.54296 0.33027 0.7459 0.0
O467 O 0.54433 0.32772 0.77765 0.0
In468 In 0.6873 0.39676 0.26183 0.0
O469 O 0.679 0.42854 0.27282 0.0
O470 O 0.70695 0.42411 0.2579 0.0
C471 C 0.65003 0.38034 0.2617 0.0
C472 C 0.70222 0.38525 0.22603 0.0
C473 C 0.70625 0.37804 0.29236 0.0
O474 O 0.65651 0.39084 0.24726 0.0
O475 O 0.66167 0.37955 0.27665 0.0
O476 O 0.7052 0.37062 0.27484 0.0
O477 O 0.69773 0.39492 0.29446 0.0
C478 C 0.69551 0.43609 0.2671 0.0
O479 O 0.71123 0.38188 0.24247 0.0
O480 O 0.68586 0.39484 0.22762 0.0
In481 In 0.58729 0.69588 0.23846 0.0
O482 O 0.5619 0.6797 0.25531 0.0
O483 O 0.5542 0.7008 0.23261 0.0
C484 C 0.61786 0.66937 0.23681 0.0
C485 C 0.59236 0.71062 0.20124 0.0
C486 C 0.59384 0.7201 0.27036 0.0
O487 O 0.59976 0.66382 0.23443 0.0
O488 O 0.62016 0.68786 0.24053 0.0
O489 O 0.59136 0.72697 0.25278 0.0
O490 O 0.59355 0.70113 0.27165 0.0
C491 C 0.54817 0.68968 0.24677 0.0
O492 O 0.59428 0.72123 0.21695 0.0
O493 O 0.58704 0.69255 0.20428 0.0
In494 In 0.30605 0.59481 0.23644 0.0
O495 O 0.31805 0.56744 0.25367 0.0
O496 O 0.29836 0.56242 0.2291 0.0
C497 C 0.3414 0.61491 0.23713 0.0
C498 C 0.28679 0.60328 0.20192 0.0
C499 C 0.28234 0.61072 0.2654 0.0
O500 O 0.33332 0.6076 0.2527 0.0
O501 O 0.33242 0.61071 0.22093 0.0
O502 O 0.28204 0.59227 0.26091 0.0
O503 O 0.29417 0.62128 0.25488 0.0
C504 C 0.30754 0.55497 0.24393 0.0
O505 O 0.27939 0.60688 0.21908 0.0
O506 O 0.30402 0.59512 0.20208 0.0
In507 In 0.38492 0.29088 0.22168 0.0
O508 O 0.39353 0.26734 0.1984 0.0
O509 O 0.38661 0.29692 0.18793 0.0
C510 C 0.36867 0.26197 0.2453 0.0
C511 C 0.4214 0.29645 0.23845 0.0
C512 C 0.3575 0.32079 0.22049 0.0
O513 O 0.36622 0.26215 0.22643 0.0
O514 O 0.37933 0.27616 0.25203 0.0
O515 O 0.3762 0.32441 0.22075 0.0
O516 O 0.35295 0.30237 0.22077 0.0
C517 C 0.39165 0.27908 0.18352 0.0
O518 O 0.40539 0.30171 0.24723 0.0
O519 O 0.41896 0.29007 0.22072 0.0
In520 In 0.78418 0.72018 0.59243 0.0
O521 O 0.77081 0.7025 0.56627 0.0
O522 O 0.78634 0.72968 0.55965 0.0
C523 C 0.7821 0.69176 0.62117 0.0
C524 C 0.82292 0.72976 0.59896 0.0
C525 C 0.75222 0.74412 0.59972 0.0
O526 O 0.78566 0.68754 0.60292 0.0
O527 O 0.77933 0.71025 0.62479 0.0
O528 O 0.76996 0.75104 0.59884 0.0
O529 O 0.75091 0.72525 0.59779 0.0
C530 C 0.77554 0.71544 0.55318 0.0
O531 O 0.80889 0.74254 0.60053 0.0
O532 O 0.81749 0.71251 0.59306 0.0
In533 In 0.76019 0.24219 0.40653 0.0
O534 O 0.78623 0.22328 0.39462 0.0
O535 O 0.79309 0.25087 0.40958 0.0
C536 C 0.72667 0.22429 0.39262 0.0
C537 C 0.75395 0.23156 0.4448 0.0
C538 C 0.75465 0.2776 0.38778 0.0
O539 O 0.74364 0.22129 0.3844 0.0
O540 O 0.72683 0.23618 0.40742 0.0
O541 O 0.7553 0.27635 0.40681 0.0
O542 O 0.75703 0.26115 0.37854 0.0
C543 C 0.79962 0.23565 0.40024 0.0
O544 O 0.75335 0.24976 0.4391 0.0
O545 O 0.75933 0.21906 0.43147 0.0
In546 In 0.69934 0.77091 0.39619 0.0
O547 O 0.68895 0.75594 0.42522 0.0
O548 O 0.71309 0.7769 0.42693 0.0
C549 C 0.66054 0.77186 0.38411 0.0
C550 C 0.71764 0.8035 0.38072 0.0
C551 C 0.72094 0.74021 0.38038 0.0
O552 O 0.66956 0.75594 0.38916 0.0
O553 O 0.67072 0.78776 0.38645 0.0
O554 O 0.70617 0.74809 0.37141 0.0
O555 O 0.72502 0.74796 0.39723 0.0
C556 C 0.70237 0.76404 0.43597 0.0
O557 O 0.7164 0.78684 0.37164 0.0
O558 O 0.70941 0.80398 0.39793 0.0
In559 In 0.22342 0.71683 0.40747 0.0
O560 O 0.24207 0.70008 0.43088 0.0
O561 O 0.2163 0.71627 0.44082 0.0
C562 C 0.23095 0.68823 0.37968 0.0
C563 C 0.18514 0.72976 0.40346 0.0
C564 C 0.25086 0.74593 0.39981 0.0
O565 O 0.23589 0.70644 0.37763 0.0
O566 O 0.22205 0.68413 0.39603 0.0
O567 O 0.25082 0.7358 0.41586 0.0
O568 O 0.23657 0.74194 0.38789 0.0
C569 C 0.2317 0.7062 0.44562 0.0
O570 O 0.19911 0.74095 0.40984 0.0
O571 O 0.1904 0.71193 0.39947 0.0
In572 In 0.26448 0.21808 0.38646 0.0
O573 O 0.24025 0.194 0.38445 0.0
O574 O 0.26879 0.18561 0.39653 0.0
C575 C 0.24613 0.25127 0.3721 0.0
C576 C 0.27139 0.23275 0.42347 0.0
C577 C 0.28971 0.21169 0.35547 0.0
O578 O 0.23612 0.23609 0.37786 0.0
O579 O 0.26497 0.24934 0.37328 0.0
O580 O 0.29591 0.21732 0.37262 0.0
O581 O 0.27093 0.20888 0.35421 0.0
C582 C 0.25131 0.18009 0.39136 0.0
O583 O 0.28564 0.2291 0.41136 0.0
O584 O 0.25411 0.22789 0.41724 0.0
In585 In 0.25209 0.29323 0.59404 0.0
O586 O 0.22968 0.26871 0.60185 0.0
O587 O 0.21818 0.298 0.59523 0.0
C588 C 0.28155 0.26752 0.60506 0.0
C589 C 0.25895 0.29697 0.55414 0.0
C590 C 0.25112 0.32347 0.62107 0.0
O591 O 0.26424 0.26161 0.59984 0.0
O592 O 0.28399 0.28638 0.60467 0.0
O593 O 0.25206 0.32696 0.60234 0.0
O594 O 0.2513 0.30508 0.62579 0.0
C595 C 0.21445 0.28008 0.60055 0.0
O596 O 0.2714 0.30307 0.56711 0.0
O597 O 0.24275 0.29024 0.56134 0.0
In598 In 0.68532 0.21566 0.61172 0.0
O599 O 0.67722 0.20044 0.58181 0.0
O600 O 0.6881 0.23055 0.58135 0.0
C601 C 0.64873 0.22278 0.62828 0.0
C602 C 0.70737 0.18212 0.6168 0.0
C603 C 0.70952 0.2424 0.63066 0.0
O604 O 0.65772 0.23524 0.61716 0.0
O605 O 0.65771 0.20617 0.63026 0.0
O606 O 0.70419 0.22603 0.6387 0.0
O607 O 0.70256 0.24531 0.61325 0.0
C608 C 0.68276 0.21534 0.57134 0.0
O609 O 0.71339 0.19688 0.6064 0.0
O610 O 0.6901 0.18423 0.62458 0.0
In611 In 0.27823 0.78471 0.60505 0.0
O612 O 0.25404 0.80807 0.61097 0.0
O613 O 0.2821 0.81829 0.59921 0.0
C614 C 0.26099 0.75161 0.62076 0.0
C615 C 0.27705 0.77142 0.56698 0.0
C616 C 0.30905 0.78937 0.63081 0.0
O617 O 0.2525 0.76867 0.62149 0.0
O618 O 0.27812 0.75152 0.61251 0.0
O619 O 0.31167 0.78913 0.6119 0.0
O620 O 0.29103 0.78715 0.63648 0.0
C621 C 0.26485 0.82289 0.60581 0.0
O622 O 0.29319 0.77139 0.57707 0.0
O623 O 0.26224 0.77969 0.57556 0.0
H624 H 0.97179 0.22494 0.2654 0.0
H625 H 0.95424 0.1815 0.21975 0.0
H626 H 0.98312 0.19215 0.19862 0.0
H627 H 0.98333 0.26347 0.23291 0.0
H628 H 0.00457 0.27303 0.24692 0.0
H629 H 0.98461 0.25996 0.25984 0.0
H630 H 0.01006 0.23423 0.27465 0.0
H631 H 0.03023 0.24768 0.2624 0.0
H632 H 0.02698 0.22106 0.25794 0.0
H633 H 0.01198 0.21056 0.18102 0.0
H634 H 0.04107 0.23169 0.17075 0.0
H635 H 0.03773 0.26359 0.22779 0.0
C636 C 0.97439 0.21717 0.25126 0.0
C637 C 0.9609 0.20235 0.24422 0.0
C638 C 0.96461 0.19272 0.22552 0.0
C639 C 0.98083 0.19882 0.21334 0.0
C640 C 0.99314 0.21442 0.22023 0.0
C641 C 0.99032 0.22314 0.23896 0.0
C642 C 0.00485 0.24027 0.24259 0.0
C643 C 0.99366 0.26036 0.24574 0.0
C644 C 0.01887 0.23552 0.26044 0.0
C645 C 0.01611 0.24011 0.22283 0.0
C646 C 0.00924 0.22514 0.21008 0.0
C647 C 0.01755 0.22225 0.19096 0.0
C648 C 0.03387 0.23446 0.18515 0.0
C649 C 0.04154 0.24931 0.19845 0.0
C650 C 0.03212 0.25244 0.21724 0.0
H651 H 0.7907 0.96807 0.27634 0.0
H652 H 0.83961 0.96907 0.23291 0.0
H653 H 0.82322 0.99757 0.21525 0.0
H654 H 0.75283 0.9741 0.24184 0.0
H655 H 0.73689 0.98963 0.25744 0.0
H656 H 0.75402 0.97202 0.26892 0.0
H657 H 0.77076 0.00066 0.28966 0.0
H658 H 0.75312 0.01825 0.27888 0.0
H659 H 0.77982 0.02288 0.27687 0.0
H660 H 0.79946 0.02394 0.20062 0.0
H661 H 0.77223 0.04818 0.19252 0.0
H662 H 0.73817 0.02685 0.24417 0.0
C663 C 0.7984 0.97474 0.26357 0.0
C664 C 0.81649 0.96649 0.25607 0.0
C665 C 0.82585 0.97537 0.23904 0.0
C666 C 0.81655 0.99141 0.22881 0.0
C667 C 0.79796 -0.00174 0.23585 0.0
C668 C 0.78918 0.99038 0.25304 0.0
C669 C 0.76851 -0.00084 0.25673 0.0
C670 C 0.75211 0.98274 0.25619 0.0
C671 C 0.76803 0.01095 0.27671 0.0
C672 C 0.76687 0.01306 0.2388 0.0
C673 C 0.78401 0.0125 0.22696 0.0
C674 C 0.78598 0.0245 0.2098 0.0
C675 C 0.77037 0.03804 0.20519 0.0
C676 C 0.75302 0.0392 0.21758 0.0
C677 C 0.75108 0.02608 0.23419 0.0
H678 H 0.02894 0.77426 0.26651 0.0
H679 H 0.04149 0.82618 0.22872 0.0
H680 H 0.01649 0.81387 0.20379 0.0
H681 H 0.02816 0.73982 0.22751 0.0
H682 H 0.00861 0.72417 0.23808 0.0
H683 H 0.02471 0.73863 0.25446 0.0
H684 H 0.99376 0.75627 0.27068 0.0
H685 H 0.97753 0.74117 0.25502 0.0
H686 H 0.97537 0.76826 0.25466 0.0
H687 H 0.99105 0.79416 0.18219 0.0
H688 H 0.96554 0.77086 0.16791 0.0
H689 H 0.97441 0.73049 0.21862 0.0
C690 C 0.02599 0.78348 0.25335 0.0
C691 C 0.03698 0.80128 0.24963 0.0
C692 C 0.03297 0.81263 0.23198 0.0
C693 C 0.019 0.80563 0.21765 0.0
C694 C 0.00945 0.78721 0.2212 0.0
C695 C 0.01267 0.77647 0.23876 0.0
C696 C 0.00182 0.75649 0.23861 0.0
C697 C 0.01672 0.73874 0.23973 0.0
C698 C 0.98619 0.7555 0.25575 0.0
C699 C 0.99187 0.75759 0.21822 0.0
C700 C 0.99625 0.77542 0.20835 0.0
C701 C 0.98764 0.7801 0.18974 0.0
C702 C 0.97337 0.76667 0.18161 0.0
C703 C 0.96815 0.74878 0.19205 0.0
C704 C 0.97829 0.74386 0.21007 0.0
H705 H 0.27961 0.96573 0.19431 0.0
H706 H 0.22364 0.94036 0.17209 0.0
H707 H 0.20576 0.97155 0.18164 0.0
H708 H 0.26114 0.98274 0.23679 0.0
H709 H 0.2755 0.00573 0.23879 0.0
H710 H 0.28537 0.98489 0.22464 0.0
H711 H 0.28889 0.00709 0.19268 0.0
H712 H 0.27978 0.02838 0.20693 0.0
H713 H 0.26749 0.02126 0.18375 0.0
H714 H 0.1929 0.00201 0.20044 0.0
H715 H 0.18701 0.03072 0.2237 0.0
H716 H 0.25128 0.03423 0.23522 0.0
C717 C 0.26382 0.96715 0.19044 0.0
C718 C 0.25301 0.9507 0.18247 0.0
C719 C 0.23224 0.9529 0.17804 0.0
C720 C 0.22194 0.97054 0.18352 0.0
C721 C 0.23272 0.9858 0.19313 0.0
C722 C 0.25333 0.98446 0.19611 0.0
C723 C 0.26099 0.00133 0.20936 0.0
C724 C 0.27134 0.99317 0.22851 0.0
C725 C 0.27512 0.01535 0.19747 0.0
C726 C 0.24137 0.01167 0.21433 0.0
C727 C 0.22524 0.00286 0.20454 0.0
C728 C 0.20548 0.00927 0.20787 0.0
C729 C 0.20224 0.02539 0.22125 0.0
C730 C 0.21867 0.0345 0.23135 0.0
C731 C 0.23839 0.02746 0.22782 0.0
H732 H 0.96961 0.75746 0.76213 0.0
H733 H 0.93938 0.70792 0.79225 0.0
H734 H 0.97217 0.6956 0.80501 0.0
H735 H 0.00956 0.72878 0.74433 0.0
H736 H 0.02827 0.74832 0.74699 0.0
H737 H 0.0023 0.75495 0.74312 0.0
H738 H 0.00295 0.77654 0.77574 0.0
H739 H 0.02897 0.76983 0.77977 0.0
H740 H 0.01056 0.76514 0.79922 0.0
H741 H 0.0084 0.68763 0.81276 0.0
H742 H 0.04536 0.68216 0.81102 0.0
H743 H 0.05139 0.73547 0.7737 0.0
C744 C 0.96991 0.74426 0.77174 0.0
C745 C 0.95213 0.73369 0.77641 0.0
C746 C 0.95298 0.71618 0.78857 0.0
C747 C 0.97146 0.7092 0.79603 0.0
C748 C 0.98884 0.71986 0.791 0.0
C749 C 0.98823 0.73689 0.77894 0.0
C750 C 0.00914 0.74417 0.77366 0.0
C751 C 0.0125 0.74403 0.75067 0.0
C752 C 0.01313 0.76517 0.78264 0.0
C753 C 0.02159 0.72822 0.78408 0.0
C754 C 0.00969 0.71467 0.79454 0.0
C755 C 0.0179 0.69822 0.80476 0.0
C756 C 0.03882 0.69524 0.80376 0.0
C757 C 0.05094 0.70839 0.79219 0.0
C758 C 0.04229 0.72525 0.78264 0.0
H759 H 0.27331 0.02266 0.79439 0.0
H760 H 0.2167 0.05006 0.81172 0.0
H761 H 0.19988 0.01677 0.80942 0.0
H762 H 0.25561 0.99428 0.75768 0.0
H763 H 0.27127 0.97243 0.7616 0.0
H764 H 0.27987 0.99677 0.76969 0.0
H765 H 0.28455 0.98376 0.80625 0.0
H766 H 0.27653 0.95907 0.79819 0.0
H767 H 0.2639 0.97138 0.81887 0.0
H768 H 0.18825 0.9821 0.79765 0.0
H769 H 0.1839 0.94852 0.78156 0.0
H770 H 0.24856 0.94501 0.77246 0.0
C771 C 0.25759 0.02141 0.79865 0.0
C772 C 0.24626 0.03865 0.80337 0.0
C773 C 0.22564 0.03679 0.80844 0.0
C774 C 0.21597 0.01799 0.80705 0.0
C775 C 0.22734 0.00135 0.80102 0.0
C776 C 0.24787 0.00285 0.79748 0.0
C777 C 0.2564 0.98356 0.78902 0.0
C778 C 0.26635 0.98698 0.76828 0.0
C779 C 0.27122 0.97386 0.80398 0.0
C780 C 0.23734 0.97135 0.78721 0.0
C781 C 0.22071 0.9816 0.79439 0.0
C782 C 0.20125 0.97374 0.79246 0.0
C783 C 0.19888 0.9548 0.78316 0.0
C784 C 0.21589 0.94424 0.77581 0.0
C785 C 0.23525 0.95265 0.77805 0.0
H786 H 0.02877 0.19894 0.74336 0.0
H787 H 0.03831 0.23495 0.68949 0.0
H788 H 0.01629 0.26139 0.7033 0.0
H789 H 0.97454 0.21524 0.75119 0.0
H790 H 0.97763 0.2146 0.77819 0.0
H791 H 0.99166 0.19742 0.7625 0.0
H792 H 0.02459 0.21034 0.77911 0.0
H793 H 0.01081 0.22833 0.79405 0.0
H794 H 0.0308 0.23677 0.77768 0.0
H795 H -0.00056 0.2864 0.72546 0.0
H796 H 0.9784 0.30465 0.74995 0.0
H797 H 0.97781 0.25191 0.78881 0.0
C798 C 0.02545 0.21194 0.73405 0.0
C799 C 0.03543 0.21499 0.71545 0.0
C800 C 0.03086 0.23229 0.70379 0.0
C801 C 0.01858 0.24754 0.71162 0.0
C802 C 0.01058 0.24493 0.73084 0.0
C803 C 0.013 0.22722 0.74153 0.0
C804 C 0.00287 0.22848 0.76199 0.0
C805 C 0.98565 0.21302 0.76355 0.0
C806 C 0.01819 0.22582 0.77921 0.0
C807 C 0.99491 0.24987 0.76128 0.0
C808 C -0.00011 0.25915 0.74331 0.0
C809 C 0.99498 0.27916 0.7394 0.0
C810 C 0.98329 0.28949 0.75357 0.0
C811 C 0.97628 0.27963 0.77119 0.0
C812 C 0.98296 0.25986 0.7755 0.0
H813 H 0.80779 0.03241 0.72674 0.0
H814 H 0.84091 0.05506 0.77839 0.0
H815 H 0.82839 0.02659 0.79885 0.0
H816 H 0.76521 0.02109 0.75156 0.0
H817 H 0.75893 -0.00166 0.73807 0.0
H818 H 0.77382 0.01751 0.72601 0.0
H819 H 0.80246 0.99194 0.71883 0.0
H820 H 0.78732 0.97239 0.73012 0.0
H821 H 0.8125 0.97702 0.73922 0.0
H822 H 0.80722 -0.00059 0.8151 0.0
H823 H 0.78369 0.97186 0.82427 0.0
H824 H 0.76418 0.96807 0.76192 0.0
C825 C 0.81317 0.03088 0.74208 0.0
C826 C 0.82531 0.04588 0.75099 0.0
C827 C 0.83175 0.04359 0.77122 0.0
C828 C 0.82457 0.02757 0.78302 0.0
C829 C 0.81126 0.01392 0.7742 0.0
C830 C 0.80609 0.01509 0.75402 0.0
C831 C 0.79025 -0.00034 0.74853 0.0
C832 C 0.77092 0.00977 0.74058 0.0
C833 C 0.79864 0.98434 0.73328 0.0
C834 C 0.7868 0.99011 0.7689 0.0
C835 C 0.79905 -0.00157 0.78353 0.0
C836 C 0.7978 0.99253 0.80369 0.0
C837 C 0.78422 0.97711 0.80881 0.0
C838 C 0.77215 0.96792 0.7938 0.0
C839 C 0.77325 0.97482 0.77372 0.0
H840 H 0.28379 0.22442 0.01586 0.0
H841 H 0.24224 0.17697 0.03303 0.0
H842 H 0.22024 0.18596 0.00422 0.0
H843 H 0.24822 0.25954 0.0074 0.0
H844 H 0.26045 0.27178 0.98642 0.0
H845 H 0.27528 0.25875 0.00497 0.0
H846 H 0.29141 0.23617 0.9774 0.0
H847 H 0.27727 0.24971 0.95858 0.0
H848 H 0.27539 0.22263 0.96011 0.0
H849 H 0.20063 0.20371 0.97587 0.0
H850 H 0.18726 0.22634 0.94916 0.0
H851 H 0.24086 0.2635 0.95431 0.0
C852 C 0.2705 0.21534 0.01308 0.0
C853 C 0.26475 0.19995 0.02653 0.0
C854 C 0.24706 0.18863 0.02266 0.0
C855 C 0.23438 0.19377 0.00646 0.0
C856 C 0.23976 0.21016 0.99439 0.0
C857 C 0.25763 0.22051 0.99737 0.0
C858 C 0.25916 0.23882 0.98399 0.0
C859 C 0.26087 0.25836 0.99645 0.0
C860 C 0.27685 0.2367 0.96913 0.0
C861 C 0.23916 0.23755 0.97333 0.0
C862 C 0.2282 0.22084 0.97919 0.0
C863 C 0.20918 0.21678 0.97111 0.0
C864 C 0.2016 0.2298 0.95617 0.0
C865 C 0.21292 0.24678 0.94986 0.0
C866 C 0.23169 0.2508 0.95895 0.0
H867 H 0.24635 0.75596 0.96778 0.0
H868 H 0.26435 0.69455 0.95408 0.0
H869 H 0.23866 0.68173 0.97779 0.0
H870 H 0.23864 0.74829 0.02026 0.0
H871 H 0.21744 0.76523 0.02161 0.0
H872 H 0.23657 0.76901 0.00278 0.0
H873 H 0.20891 0.76798 0.97512 0.0
H874 H 0.1898 0.76351 0.99392 0.0
H875 H 0.19274 0.74621 0.97316 0.0
H876 H 0.212 0.67567 0.00374 0.0
H877 H 0.19058 0.67701 0.03413 0.0
H878 H 0.1894 0.74232 0.03024 0.0
C879 C 0.24496 0.73982 0.96986 0.0
C880 C 0.25733 0.72624 0.95915 0.0
C881 C 0.25508 0.70523 0.96225 0.0
C882 C 0.24036 0.6978 0.97547 0.0
C883 C 0.228 0.71158 0.98536 0.0
C884 C 0.23036 0.73216 0.98296 0.0
C885 C 0.21612 0.74379 0.99643 0.0
C886 C 0.2279 0.75737 0.01115 0.0
C887 C 0.20099 0.7561 0.9839 0.0
C888 C 0.20578 0.72655 0.00722 0.0
C889 C 0.21253 0.70808 0.00032 0.0
C890 C 0.20642 0.69001 0.00915 0.0
C891 C 0.19411 0.69091 0.02631 0.0
C892 C 0.18831 0.70976 0.03449 0.0
C893 C 0.1933 0.72768 0.02413 0.0
H894 H 0.75417 0.22756 0.9582 0.0
H895 H 0.71879 0.28114 0.94556 0.0
H896 H 0.72854 0.29541 0.97848 0.0
H897 H 0.74377 0.22586 0.0129 0.0
H898 H 0.76893 0.21739 0.01868 0.0
H899 H 0.75752 0.21078 0.99494 0.0
H900 H 0.78816 0.22632 0.97629 0.0
H901 H 0.79939 0.23352 -6e-05 0.0
H902 H 0.7948 0.25229 0.98083 0.0
H903 H 0.74421 0.30505 0.01121 0.0
H904 H 0.76112 0.30744 0.04428 0.0
H905 H 0.78664 0.2478 0.03542 0.0
C906 C 0.74801 0.24202 0.96263 0.0
C907 C 0.73568 0.25324 0.94944 0.0
C908 C 0.72821 0.27229 0.95554 0.0
C909 C 0.73375 0.28057 0.97413 0.0
C910 C 0.74672 0.26957 0.98639 0.0
C911 C 0.75346 0.25056 0.98111 0.0
C912 C 0.76768 0.24216 0.99685 0.0
C913 C 0.75895 0.22291 0.00641 0.0
C914 C 0.78875 0.23836 0.98793 0.0
C915 C 0.76797 0.2595 0.01167 0.0
C916 C 0.75586 0.27519 0.00529 0.0
C917 C 0.75366 0.29283 0.01647 0.0
C918 C 0.76345 0.29412 0.03512 0.0
C919 C 0.77521 0.27784 0.04234 0.0
C920 C 0.77789 0.26056 0.0302 0.0
H921 H 0.74203 0.74421 0.95966 0.0
H922 H 0.67788 0.73784 0.94849 0.0
H923 H 0.67062 0.75844 0.9787 0.0
H924 H 0.73961 0.74128 0.01359 0.0
H925 H 0.75939 0.75958 0.01717 0.0
H926 H 0.75899 0.74429 0.99476 0.0
H927 H 0.75974 0.77686 0.97306 0.0
H928 H 0.75946 0.79223 0.99547 0.0
H929 H 0.74037 0.79562 0.97644 0.0
H930 H 0.67045 0.77932 0.01024 0.0
H931 H 0.67735 0.79497 0.04333 0.0
H932 H 0.7416 0.78884 0.03268 0.0
C933 C 0.72645 0.74689 0.96374 0.0
C934 C 0.7105 0.73938 0.95186 0.0
C935 C 0.69031 0.74338 0.95752 0.0
C936 C 0.68605 0.75523 0.97449 0.0
C937 C 0.70216 0.76303 0.98546 0.0
C938 C 0.72194 0.75881 0.98046 0.0
C939 C 0.7365 0.76852 0.99503 0.0
C940 C 0.74937 0.75247 0.00578 0.0
C941 C 0.7498 0.78424 0.98435 0.0
C942 C 0.7218 0.7785 0.00931 0.0
C943 C 0.70207 0.77541 0.00338 0.0
C944 C 0.68584 0.78201 0.01496 0.0
C945 C 0.68989 0.79102 0.03365 0.0
C946 C 0.70999 0.79318 0.04048 0.0
C947 C 0.72609 0.7877 0.02771 0.0
H948 H 0.54008 0.81056 0.70444 0.0
H949 H 0.54287 0.76661 0.65604 0.0
H950 H 0.51453 0.748 0.67138 0.0
H951 H 0.53302 0.77743 0.74265 0.0
H952 H 0.51559 0.79232 0.75725 0.0
H953 H 0.53338 0.80456 0.74083 0.0
H954 H 0.50455 0.82288 0.7219 0.0
H955 H 0.48666 0.81136 0.7388 0.0
H956 H 0.4838 0.80842 0.71192 0.0
H957 H 0.49014 0.73118 0.69504 0.0
H958 H 0.46638 0.72091 0.72183 0.0
H959 H 0.47966 0.77597 0.75465 0.0
C960 C 0.53416 0.79752 0.69659 0.0
C961 C 0.54363 0.79004 0.67904 0.0
C962 C 0.53569 0.77273 0.66937 0.0
C963 C 0.51974 0.76193 0.6781 0.0
C964 C 0.51176 0.76888 0.69626 0.0
C965 C 0.51827 0.78662 0.70507 0.0
C966 C 0.50803 0.79021 0.72515 0.0
C967 C 0.52343 0.79118 0.74248 0.0
C968 C 0.49498 0.80935 0.72439 0.0
C969 C 0.49521 0.77142 0.72655 0.0
C970 C 0.4976 0.75928 0.70979 0.0
C971 C 0.48788 0.74073 0.70808 0.0
C972 C 0.47463 0.73491 0.72349 0.0
C973 C 0.47121 0.74765 0.74031 0.0
C974 C 0.48201 0.7659 0.742 0.0
H975 H 0.30591 0.47002 0.78592 0.0
H976 H 0.32548 0.4409 0.73083 0.0
H977 H 0.32166 0.47306 0.71245 0.0
H978 H 0.26763 0.49377 0.76631 0.0
H979 H 0.26914 0.51687 0.78057 0.0
H980 H 0.27936 0.49405 0.79084 0.0
H981 H 0.31443 0.51073 0.79508 0.0
H982 H 0.30417 0.53399 0.78546 0.0
H983 H 0.32614 0.52301 0.77384 0.0
H984 H 0.30746 0.50573 0.69874 0.0
H985 H 0.28816 0.53713 0.69207 0.0
H986 H 0.27746 0.54366 0.75629 0.0
C987 C 0.31045 0.47072 0.77024 0.0
C988 C 0.31604 0.45313 0.75979 0.0
C989 C 0.32145 0.45436 0.73917 0.0
C990 C 0.3192 0.47254 0.72858 0.0
C991 C 0.31192 0.4893 0.73898 0.0
C992 C 0.30818 0.48866 0.75954 0.0
C993 C 0.29776 0.50754 0.76677 0.0
C994 C 0.27727 0.50275 0.77668 0.0
C995 C 0.31145 0.51953 0.78113 0.0
C996 C 0.2951 0.51837 0.74696 0.0
C997 C 0.3036 0.50791 0.73109 0.0
C998 C 0.30122 0.51431 0.71114 0.0
C999 C 0.29009 0.53199 0.70746 0.0
C1000 C 0.28132 0.54274 0.72366 0.0
C1001 C 0.28405 0.53583 0.74357 0.0
H1002 H 0.45264 0.26033 0.71213 0.0
H1003 H 0.44342 0.23638 0.77234 0.0
H1004 H 0.46227 0.26493 0.78671 0.0
H1005 H 0.50341 0.27449 0.72056 0.0
H1006 H 0.50214 0.29668 0.70491 0.0
H1007 H 0.48577 0.27568 0.69991 0.0
H1008 H 0.45504 0.29979 0.70246 0.0
H1009 H 0.47145 0.3207 0.70823 0.0
H1010 H 0.45119 0.31424 0.72517 0.0
H1011 H 0.48276 0.29486 0.79468 0.0
H1012 H 0.51108 0.31879 0.79519 0.0
H1013 H 0.50866 0.32297 0.72993 0.0
C1014 C 0.45466 0.26116 0.72832 0.0
C1015 C 0.44661 0.24622 0.74114 0.0
C1016 C 0.44965 0.24759 0.76223 0.0
C1017 C 0.45999 0.26395 0.77058 0.0
C1018 C 0.46734 0.27872 0.75762 0.0
C1019 C 0.46534 0.27721 0.73691 0.0
C1020 C 0.47705 0.29367 0.72629 0.0
C1021 C 0.49304 0.28459 0.7121 0.0
C1022 C 0.46282 0.30795 0.71486 0.0
C1023 C 0.48653 0.30415 0.74426 0.0
C1024 C 0.48006 0.29575 0.7622 0.0
C1025 C 0.48787 0.3017 0.78077 0.0
C1026 C 0.50387 0.31544 0.78092 0.0
C1027 C 0.51214 0.32258 0.76259 0.0
C1028 C 0.50247 0.31793 0.74418 0.0
H1029 H 0.73391 0.45575 0.72844 0.0
H1030 H 0.74311 0.45646 0.66369 0.0
H1031 H 0.72018 0.48608 0.66104 0.0
H1032 H 0.68059 0.46949 0.72705 0.0
H1033 H 0.68261 0.48402 0.74994 0.0
H1034 H 0.69862 0.4624 0.7461 0.0
H1035 H 0.73042 0.48455 0.75179 0.0
H1036 H 0.71451 0.50601 0.75608 0.0
H1037 H 0.73377 0.50707 0.73692 0.0
H1038 H 0.69906 0.5179 0.66682 0.0
H1039 H 0.68382 0.54918 0.68024 0.0
H1040 H 0.68682 0.52461 0.74075 0.0
C1041 C 0.73125 0.46214 0.71364 0.0
C1042 C 0.74056 0.45419 0.69629 0.0
C1043 C 0.73626 0.46261 0.67718 0.0
C1044 C 0.72314 0.47923 0.67556 0.0
C1045 C 0.7141 0.48663 0.69312 0.0
C1046 C 0.71795 0.47816 0.71175 0.0
C1047 C 0.70725 0.48906 0.72857 0.0
C1048 C 0.69132 0.47543 0.73849 0.0
C1049 C 0.72239 0.49716 0.74424 0.0
C1050 C 0.69752 0.50583 0.71673 0.0
C1051 C 0.7013 0.50409 0.69626 0.0
C1052 C 0.69566 0.51916 0.68273 0.0
C1053 C 0.6869 0.53683 0.69048 0.0
C1054 C 0.68409 0.53921 0.71153 0.0
C1055 C 0.68851 0.52307 0.72457 0.0
H1056 H 0.45608 0.2818 0.22283 0.0
H1057 H 0.42865 0.3011 0.27898 0.0
H1058 H 0.4566 0.28531 0.29799 0.0
H1059 H 0.46775 0.23472 0.23847 0.0
H1060 H 0.49128 0.23252 0.22506 0.0
H1061 H 0.47188 0.24893 0.21565 0.0
H1062 H 0.49635 0.27944 0.21622 0.0
H1063 H 0.51612 0.26297 0.22491 0.0
H1064 H 0.50988 0.28533 0.23906 0.0
H1065 H 0.48569 0.26338 0.31076 0.0
H1066 H 0.51465 0.24015 0.31568 0.0
H1067 H 0.52002 0.2337 0.25077 0.0
C1068 C 0.45633 0.28343 0.23908 0.0
C1069 C 0.44032 0.29275 0.24944 0.0
C1070 C 0.44096 0.29422 0.27075 0.0
C1071 C 0.45669 0.28516 0.28167 0.0
C1072 C 0.47155 0.27483 0.27098 0.0
C1073 C 0.47163 0.27426 0.25012 0.0
C1074 C 0.488 0.26067 0.24209 0.0
C1075 C 0.47919 0.24319 0.22959 0.0
C1076 C 0.50351 0.27283 0.22986 0.0
C1077 C 0.49682 0.25322 0.26166 0.0
C1078 C 0.48742 0.26166 0.27822 0.0
C1079 C 0.49322 0.25679 0.29787 0.0
C1080 C 0.50949 0.24344 0.30054 0.0
C1081 C 0.5194 0.23499 0.28362 0.0
C1082 C 0.51263 0.23972 0.26404 0.0
H1083 H 0.72978 0.45462 0.25487 0.0
H1084 H 0.67756 0.46255 0.29348 0.0
H1085 H 0.69241 0.49417 0.30683 0.0
H1086 H 0.76668 0.47218 0.28989 0.0
H1087 H 0.78169 0.4846 0.27093 0.0
H1088 H 0.76687 0.4628 0.26437 0.0
H1089 H 0.74866 0.48304 0.23627 0.0
H1090 H 0.76382 0.50468 0.24238 0.0
H1091 H 0.73673 0.50665 0.2425 0.0
H1092 H 0.71335 0.52486 0.3158 0.0
H1093 H 0.73626 0.55424 0.31637 0.0
H1094 H 0.77481 0.52495 0.27236 0.0
C1095 C 0.72134 0.46307 0.26601 0.0
C1096 C 0.70253 0.45623 0.27315 0.0
C1097 C 0.69195 0.46768 0.28772 0.0
C1098 C 0.70036 0.48549 0.29553 0.0
C1099 C 0.71931 0.49145 0.28859 0.0
C1100 C 0.7295 0.48069 0.27395 0.0
C1101 C 0.74931 0.49048 0.26849 0.0
C1102 C 0.76719 0.47669 0.27374 0.0
C1103 C 0.74964 0.49658 0.24609 0.0
C1104 C 0.74863 0.50866 0.28216 0.0
C1105 C 0.73135 0.50887 0.29383 0.0
C1106 C 0.72698 0.52478 0.30683 0.0
C1107 C 0.74016 0.54133 0.30717 0.0
C1108 C 0.75733 0.54179 0.29446 0.0
C1109 C 0.76196 0.5249 0.28244 0.0
H1110 H 0.51992 0.71646 0.23474 0.0
H1111 H 0.53337 0.67307 0.28179 0.0
H1112 H 0.50666 0.68808 0.30313 0.0
H1113 H 0.51657 0.75679 0.26601 0.0
H1114 H 0.49664 0.76956 0.25267 0.0
H1115 H 0.51333 0.75289 0.2393 0.0
H1116 H 0.48317 0.73148 0.22655 0.0
H1117 H 0.46628 0.74864 0.23909 0.0
H1118 H 0.465 0.72202 0.24442 0.0
H1119 H 0.48049 0.71065 0.32054 0.0
H1120 H 0.45534 0.73641 0.33073 0.0
H1121 H 0.46347 0.7666 0.27325 0.0
C1122 C 0.51674 0.70952 0.24919 0.0
C1123 C 0.5286 0.69352 0.25656 0.0
C1124 C 0.52424 0.68518 0.27575 0.0
C1125 C 0.50925 0.69374 0.28805 0.0
C1126 C 0.49893 0.71061 0.28088 0.0
C1127 C 0.50233 0.71817 0.26174 0.0
C1128 C 0.49088 0.73747 0.25812 0.0
C1129 C 0.50522 0.75521 0.25377 0.0
C1130 C 0.47541 0.73473 0.24104 0.0
C1131 C 0.48071 0.73985 0.2783 0.0
C1132 C 0.48524 0.72416 0.29123 0.0
C1133 C 0.47688 0.72301 0.31052 0.0
C1134 C 0.46284 0.73782 0.31629 0.0
C1135 C 0.45768 0.75364 0.3029 0.0
C1136 C 0.46733 0.75493 0.28401 0.0
H1137 H 0.27607 0.53207 0.23175 0.0
H1138 H 0.32273 0.53582 0.27743 0.0
H1139 H 0.30503 0.50971 0.29747 0.0
H1140 H 0.23625 0.5303 0.26525 0.0
H1141 H 0.22097 0.51333 0.25051 0.0
H1142 H 0.2388 0.52967 0.23819 0.0
H1143 H 0.25635 0.49907 0.22123 0.0
H1144 H 0.23799 0.48273 0.23274 0.0
H1145 H 0.26449 0.47818 0.2366 0.0
H1146 H 0.28064 0.48421 0.31316 0.0
H1147 H 0.25382 0.45945 0.32118 0.0
H1148 H 0.22194 0.47676 0.26676 0.0
C1149 C 0.28302 0.52694 0.24562 0.0
C1150 C 0.30089 0.53579 0.25295 0.0
C1151 C 0.30918 0.52898 0.27142 0.0
C1152 C 0.29911 0.51435 0.28299 0.0
C1153 C 0.28074 0.50696 0.27591 0.0
C1154 C 0.27295 0.51289 0.25751 0.0
C1155 C 0.25243 0.50384 0.25371 0.0
C1156 C 0.23617 0.52027 0.25181 0.0
C1157 C 0.25285 0.49014 0.23497 0.0
C1158 C 0.2498 0.49182 0.27283 0.0
C1159 C 0.26627 0.49364 0.28546 0.0
C1160 C 0.26761 0.48281 0.30344 0.0
C1161 C 0.25221 0.46898 0.30801 0.0
C1162 C 0.23569 0.46639 0.29473 0.0
C1163 C 0.23412 0.47868 0.27746 0.0
H1164 H 0.77981 0.74469 0.52464 0.0
H1165 H 0.74632 0.69022 0.53868 0.0
H1166 H 0.72263 0.6977 0.51093 0.0
H1167 H 0.73842 0.77519 0.51514 0.0
H1168 H 0.74959 0.78901 0.49457 0.0
H1169 H 0.76538 0.7784 0.51392 0.0
H1170 H 0.78589 0.75854 0.48719 0.0
H1171 H 0.77064 0.76967 0.46768 0.0
H1172 H 0.77281 0.74263 0.46943 0.0
H1173 H 0.7008 0.71296 0.4839 0.0
H1174 H 0.68568 0.73183 0.45556 0.0
H1175 H 0.73338 0.77645 0.45991 0.0
C1176 C 0.76787 0.73399 0.52149 0.0
C1177 C 0.76491 0.71685 0.53374 0.0
C1178 C 0.74895 0.70336 0.52934 0.0
C1179 C 0.73531 0.70759 0.51376 0.0
C1180 C 0.73799 0.72527 0.50273 0.0
C1181 C 0.75414 0.738 0.50609 0.0
C1182 C 0.75337 0.75627 0.49247 0.0
C1183 C 0.75158 0.77587 0.50477 0.0
C1184 C 0.77176 0.7568 0.47835 0.0
C1185 C 0.73416 0.75192 0.48104 0.0
C1186 C 0.72542 0.73405 0.48725 0.0
C1187 C 0.70758 0.7269 0.4788 0.0
C1188 C 0.69899 0.73783 0.46287 0.0
C1189 C 0.70836 0.7556 0.4556 0.0
C1190 C 0.72579 0.763 0.46525 0.0
H1191 H 0.739 0.25536 0.47485 0.0
H1192 H 0.74736 0.19286 0.45725 0.0
H1193 H 0.72629 0.18197 0.48596 0.0
H1194 H 0.74087 0.24678 0.52864 0.0
H1195 H 0.72219 0.2658 0.53387 0.0
H1196 H 0.73816 0.26816 0.51206 0.0
H1197 H 0.70629 0.27101 0.48956 0.0
H1198 H 0.69023 0.26799 0.51127 0.0
H1199 H 0.68774 0.25115 0.49007 0.0
H1200 H 0.70349 0.17802 0.51601 0.0
H1201 H 0.68573 0.18102 0.54866 0.0
H1202 H 0.69225 0.24608 0.54606 0.0
C1203 C 0.73668 0.23936 0.47722 0.0
C1204 C 0.7448 0.22495 0.46389 0.0
C1205 C 0.74136 0.20416 0.46741 0.0
C1206 C 0.72922 0.19783 0.48351 0.0
C1207 C 0.72074 0.2125 0.49589 0.0
C1208 C 0.72465 0.2328 0.49318 0.0
C1209 C 0.71427 0.2455 0.50898 0.0
C1210 C 0.72979 0.25724 0.52164 0.0
C1211 C 0.69871 0.25975 0.49939 0.0
C1212 C 0.70409 0.22915 0.52116 0.0
C1213 C 0.70771 0.21023 0.5132 0.0
C1214 C 0.70049 0.19275 0.52237 0.0
C1215 C 0.69024 0.1946 0.54078 0.0
C1216 C 0.68761 0.21378 0.54977 0.0
C1217 C 0.69389 0.23125 0.5394 0.0
H1218 H 0.21396 0.72273 0.47854 0.0
H1219 H 0.26868 0.69313 0.45846 0.0
H1220 H 0.28627 0.70506 0.48903 0.0
H1221 H 0.23571 0.7657 0.49288 0.0
H1222 H 0.22038 0.77067 0.51477 0.0
H1223 H 0.21042 0.75583 0.49441 0.0
H1224 H 0.20287 0.72612 0.51865 0.0
H1225 H 0.21203 0.74116 0.53935 0.0
H1226 H 0.2226 0.71656 0.5347 0.0
H1227 H 0.29935 0.72553 0.51841 0.0
H1228 H 0.30549 0.74907 0.54679 0.0
H1229 H 0.24236 0.76619 0.54595 0.0
C1230 C 0.22937 0.71795 0.48102 0.0
C1231 C 0.23995 0.707 0.4662 0.0
C1232 C 0.26023 0.70136 0.46976 0.0
C1233 C 0.27039 0.70819 0.48701 0.0
C1234 C 0.25993 0.7204 0.50054 0.0
C1235 C 0.23971 0.7248 0.49798 0.0
C1236 C 0.2324 0.7399 0.51338 0.0
C1237 C 0.22426 0.75915 0.50324 0.0
C1238 C 0.21654 0.73036 0.52736 0.0
C1239 C 0.25183 0.74398 0.52446 0.0
C1240 C 0.26752 0.73247 0.51707 0.0
C1241 C 0.28709 0.73438 0.52454 0.0
C1242 C 0.29049 0.74794 0.54045 0.0
C1243 C 0.27442 0.75949 0.54845 0.0
C1244 C 0.25498 0.75762 0.5401 0.0
H1245 H 0.23409 0.28422 0.52432 0.0
H1246 H 0.29595 0.30167 0.53629 0.0
H1247 H 0.30603 0.2886 0.50282 0.0
H1248 H 0.24464 0.23869 0.50339 0.0
H1249 H 0.22512 0.23913 0.4845 0.0
H1250 H 0.22199 0.25314 0.5075 0.0
H1251 H 0.2164 0.28615 0.48732 0.0
H1252 H 0.21894 0.27215 0.46417 0.0
H1253 H 0.23473 0.29379 0.46876 0.0
H1254 H 0.30989 0.26915 0.47004 0.0
H1255 H 0.3065 0.24805 0.43934 0.0
H1256 H 0.24219 0.24303 0.45018 0.0
C1257 C 0.24963 0.28594 0.51963 0.0
C1258 C 0.26423 0.29401 0.53279 0.0
C1259 C 0.28449 0.29572 0.52629 0.0
C1260 C 0.29037 0.28824 0.50737 0.0
C1261 C 0.27573 0.27933 0.49519 0.0
C1262 C 0.2557 0.27853 0.50094 0.0
C1263 C 0.24312 0.26683 0.486 0.0
C1264 C 0.23315 0.24836 0.49595 0.0
C1265 C 0.22737 0.28055 0.47596 0.0
C1266 C 0.25928 0.26059 0.47126 0.0
C1267 C 0.27798 0.26803 0.47663 0.0
C1268 C 0.29527 0.26348 0.46555 0.0
C1269 C 0.29325 0.25136 0.44828 0.0
C1270 C 0.27411 0.2439 0.44248 0.0
C1271 C 0.25703 0.2485 0.45425 0.0
H1272 H 0.18793 0.15676 0.26224 0.0
H1273 H 0.14552 0.10943 0.24662 0.0
H1274 H 0.12047 0.13523 0.23693 0.0
H1275 H 0.14985 0.19402 0.28105 0.0
H1276 H 0.16366 0.21492 0.27047 0.0
H1277 H 0.17694 0.19287 0.2792 0.0
H1278 H 0.19373 0.18918 0.24411 0.0
H1279 H 0.18042 0.21104 0.23521 0.0
H1280 H 0.17807 0.18742 0.22195 0.0
H1281 H 0.10239 0.16546 0.22419 0.0
H1282 H 0.09172 0.19831 0.21043 0.0
H1283 H 0.14547 0.2263 0.235 0.0
C1284 C 0.17318 0.15183 0.25731 0.0
C1285 C 0.16859 0.13113 0.25522 0.0
C1286 C 0.14926 0.12523 0.24842 0.0
C1287 C 0.13495 0.13977 0.24293 0.0
C1288 C 0.14017 0.16007 0.24458 0.0
C1289 C 0.15873 0.16613 0.25182 0.0
C1290 C 0.16126 0.18879 0.25044 0.0
C1291 C 0.16303 0.19821 0.27155 0.0
C1292 C 0.17944 0.19442 0.23713 0.0
C1293 C 0.14154 0.19446 0.24049 0.0
C1294 C 0.12952 0.17768 0.23744 0.0
C1295 C 0.11144 0.17877 0.22687 0.0
C1296 C 0.10558 0.19745 0.21902 0.0
C1297 C 0.11774 0.21477 0.22184 0.0
C1298 C 0.13574 0.21333 0.23303 0.0
H1299 H 0.83196 0.18734 0.26094 0.0
H1300 H 0.87283 0.13894 0.2772 0.0
H1301 H 0.84376 0.11587 0.28122 0.0
H1302 H 0.78991 0.17266 0.29433 0.0
H1303 H 0.77117 0.17951 0.27588 0.0
H1304 H 0.79488 0.19277 0.27672 0.0
H1305 H 0.80123 0.1843 0.23903 0.0
H1306 H 0.77746 0.17135 0.23806 0.0
H1307 H 0.80023 0.15838 0.23089 0.0
H1308 H 0.81073 0.09747 0.28019 0.0
H1309 H 0.77705 0.08449 0.27115 0.0
H1310 H 0.75785 0.14511 0.25588 0.0
C1311 C 0.83479 0.17196 0.26563 0.0
C1312 C 0.8546 0.16489 0.26883 0.0
C1313 C 0.85773 0.14462 0.27467 0.0
C1314 C 0.84132 0.13148 0.27716 0.0
C1315 C 0.82194 0.13894 0.27384 0.0
C1316 C 0.81864 0.15869 0.26809 0.0
C1317 C 0.79662 0.16253 0.26356 0.0
C1318 C 0.78762 0.17777 0.27852 0.0
C1319 C 0.79373 0.16954 0.24159 0.0
C1320 C 0.78811 0.14164 0.26694 0.0
C1321 C 0.80287 0.12833 0.27325 0.0
C1322 C 0.79898 0.10781 0.27559 0.0
C1323 C 0.77979 0.10058 0.27049 0.0
C1324 C 0.76482 0.11384 0.263 0.0
C1325 C 0.76884 0.13471 0.26202 0.0
H1326 H 0.90227 0.80069 0.20282 0.0
H1327 H 0.8995 0.76356 0.25658 0.0
H1328 H 0.89508 0.79424 0.27742 0.0
H1329 H 0.92792 0.84506 0.22619 0.0
H1330 H 0.91324 0.86249 0.2114 0.0
H1331 H 0.91955 0.83805 0.20129 0.0
H1332 H 0.88165 0.83054 0.19506 0.0
H1333 H 0.87536 0.855 0.20476 0.0
H1334 H 0.86411 0.83281 0.21571 0.0
H1335 H 0.88628 0.82832 0.29153 0.0
H1336 H 0.8706 0.86162 0.29704 0.0
H1337 H 0.88009 0.8764 0.23406 0.0
C1338 C 0.9011 0.79902 0.21902 0.0
C1339 C 0.90122 0.7798 0.22812 0.0
C1340 C 0.89944 0.77819 0.24933 0.0
C1341 C 0.89713 0.79554 0.26128 0.0
C1342 C 0.8969 0.81432 0.25177 0.0
C1343 C 0.89884 0.8161 0.23109 0.0
C1344 C 0.89576 0.8376 0.22419 0.0
C1345 C 0.91529 0.84631 0.21524 0.0
C1346 C 0.87818 0.83906 0.20906 0.0
C1347 C 0.89069 0.84752 0.24408 0.0
C1348 C 0.89193 0.834 0.25992 0.0
C1349 C 0.88567 0.83915 0.27934 0.0
C1350 C 0.87687 0.85817 0.28236 0.0
C1351 C 0.8742 0.87159 0.26598 0.0
C1352 C 0.88226 0.86659 0.24694 0.0
H1353 H 0.23559 0.85451 0.24857 0.0
H1354 H 0.21519 0.91622 0.2416 0.0
H1355 H 0.18314 0.90751 0.25842 0.0
H1356 H 0.1923 0.83274 0.2347 0.0
H1357 H 0.1931 0.81171 0.2519 0.0
H1358 H 0.2161 0.82366 0.24416 0.0
H1359 H 0.22562 0.83026 0.2815 0.0
H1360 H 0.20264 0.81807 0.28943 0.0
H1361 H 0.20818 0.84337 0.29772 0.0
H1362 H 0.15123 0.89075 0.26974 0.0
H1363 H 0.12255 0.86743 0.27494 0.0
H1364 H 0.16388 0.81678 0.27422 0.0
C1365 C 0.22472 0.86638 0.25135 0.0
C1366 C 0.22788 0.88605 0.24396 0.0
C1367 C 0.21309 0.90107 0.24732 0.0
C1368 C 0.19487 0.89627 0.25691 0.0
C1369 C 0.19178 0.87644 0.26318 0.0
C1370 C 0.20643 0.86178 0.26075 0.0
C1371 C 0.1985 0.8411 0.26616 0.0
C1372 C 0.20009 0.82647 0.24816 0.0
C1373 C 0.20938 0.83271 0.28482 0.0
C1374 C 0.17681 0.84624 0.27091 0.0
C1375 C 0.17328 0.86673 0.26955 0.0
C1376 C 0.15391 0.87474 0.27134 0.0
C1377 C 0.13771 0.8614 0.27422 0.0
C1378 C 0.14105 0.84035 0.27504 0.0
C1379 C 0.16091 0.83282 0.27389 0.0
H1380 H 0.11995 0.76797 0.77914 0.0
H1381 H 0.13721 0.73697 0.72417 0.0
H1382 H 0.15131 0.76878 0.71076 0.0
H1383 H 0.10791 0.81781 0.75502 0.0
H1384 H 0.11802 0.83152 0.77621 0.0
H1385 H 0.10641 0.80722 0.78002 0.0
H1386 H 0.1389 0.79438 0.79751 0.0
H1387 H 0.15056 0.81855 0.79378 0.0
H1388 H 0.16264 0.79609 0.78436 0.0
H1389 H 0.16858 0.8018 0.7061 0.0
H1390 H 0.18702 0.83393 0.7101 0.0
H1391 H 0.15708 0.84422 0.76725 0.0
C1392 C 0.12626 0.76799 0.76407 0.0
C1393 C 0.12751 0.75007 0.75265 0.0
C1394 C 0.13603 0.7506 0.7331 0.0
C1395 C 0.144 0.7686 0.72535 0.0
C1396 C 0.14297 0.78593 0.73722 0.0
C1397 C 0.13409 0.78583 0.75608 0.0
C1398 C 0.13652 0.80597 0.76658 0.0
C1399 C 0.11599 0.81624 0.76963 0.0
C1400 C 0.14783 0.80359 0.78673 0.0
C1401 C 0.14909 0.8171 0.75114 0.0
C1402 C 0.15242 0.80536 0.73419 0.0
C1403 C 0.16561 0.81137 0.71899 0.0
C1404 C 0.17604 0.82957 0.7214 0.0
C1405 C 0.17307 0.84158 0.73878 0.0
C1406 C 0.159 0.83558 0.75352 0.0
H1407 H 0.19521 0.10874 0.77723 0.0
H1408 H 0.22576 0.10017 0.72005 0.0
H1409 H 0.19415 0.10883 0.70205 0.0
H1410 H 0.14408 0.09118 0.76115 0.0
H1411 H 0.13202 0.1103 0.77625 0.0
H1412 H 0.15567 0.09958 0.78426 0.0
H1413 H 0.17143 0.13536 0.78612 0.0
H1414 H 0.14788 0.1461 0.77836 0.0
H1415 H 0.17047 0.15144 0.76422 0.0
H1416 H 0.16068 0.12334 0.69071 0.0
H1417 H 0.13044 0.14492 0.68734 0.0
H1418 H 0.12251 0.14383 0.75217 0.0
C1419 C 0.19518 0.1082 0.7609 0.0
C1420 C 0.21287 0.10374 0.75 0.0
C1421 C 0.21229 0.10346 0.72867 0.0
C1422 C 0.19438 0.10822 0.71836 0.0
C1423 C 0.17723 0.11296 0.72964 0.0
C1424 C 0.17757 0.11292 0.75049 0.0
C1425 C 0.15821 0.12104 0.7593 0.0
C1426 C 0.14682 0.10453 0.77092 0.0
C1427 C 0.16225 0.13958 0.77277 0.0
C1428 C 0.14724 0.12671 0.74019 0.0
C1429 C 0.15812 0.12144 0.72317 0.0
C1430 C 0.15183 0.12711 0.7039 0.0
C1431 C 0.13457 0.13927 0.7021 0.0
C1432 C 0.12415 0.14584 0.71952 0.0
C1433 C 0.13005 0.1387 0.73861 0.0
H1434 H 0.89892 0.22324 0.78333 0.0
H1435 H 0.89864 0.25347 0.72531 0.0
H1436 H 0.8881 0.2216 0.70888 0.0
H1437 H 0.91653 0.17387 0.76571 0.0
H1438 H 0.90032 0.16043 0.7829 0.0
H1439 H 0.90986 0.18498 0.78962 0.0
H1440 H 0.87338 0.19782 0.79541 0.0
H1441 H 0.86378 0.17331 0.78895 0.0
H1442 H 0.85507 0.19525 0.77549 0.0
H1443 H 0.87522 0.18696 0.69937 0.0
H1444 H 0.85841 0.15369 0.69802 0.0
H1445 H 0.86716 0.14676 0.76248 0.0
C1446 C 0.89691 0.22311 0.76712 0.0
C1447 C 0.89966 0.24074 0.75553 0.0
C1448 C 0.89661 0.24007 0.73442 0.0
C1449 C 0.89077 0.22203 0.72497 0.0
C1450 C 0.88814 0.20488 0.73689 0.0
C1451 C 0.89102 0.20535 0.75752 0.0
C1452 C 0.8856 0.18546 0.76724 0.0
C1453 C 0.90419 0.17561 0.77694 0.0
C1454 C 0.86844 0.18813 0.78267 0.0
C1455 C 0.87869 0.17382 0.74892 0.0
C1456 C 0.88057 0.18511 0.73148 0.0
C1457 C 0.87391 0.1779 0.71288 0.0
C1458 C 0.86446 0.15896 0.71224 0.0
C1459 C 0.8616 0.14765 0.73013 0.0
C1460 C 0.86937 0.15496 0.74852 0.0
H1461 H 0.84607 0.80428 0.74539 0.0
H1462 H 0.89599 0.82201 0.78375 0.0
H1463 H 0.87742 0.85286 0.79351 0.0
H1464 H 0.83065 0.85625 0.7297 0.0
H1465 H 0.80433 0.84951 0.73037 0.0
H1466 H 0.82297 0.83082 0.72389 0.0
H1467 H 0.80956 0.80771 0.75244 0.0
H1468 H 0.79108 0.82634 0.75914 0.0
H1469 H 0.8085 0.81723 0.7779 0.0
H1470 H 0.85141 0.87872 0.80292 0.0
H1471 H 0.82055 0.8983 0.81021 0.0
H1472 H 0.788 0.86358 0.76532 0.0
C1473 C 0.85334 0.81492 0.75541 0.0
C1474 C 0.87244 0.81085 0.7638 0.0
C1475 C 0.88138 0.82497 0.77707 0.0
C1476 C 0.87097 0.84251 0.78267 0.0
C1477 C 0.85181 0.84573 0.77464 0.0
C1478 C 0.8432 0.83243 0.76109 0.0
C1479 C 0.82177 0.83829 0.75604 0.0
C1480 C 0.81982 0.84406 0.73367 0.0
C1481 C 0.80686 0.82139 0.76173 0.0
C1482 C 0.81933 0.85648 0.76952 0.0
C1483 C 0.83688 0.86071 0.77996 0.0
C1484 C 0.83772 0.87582 0.79454 0.0
C1485 C 0.82012 0.88678 0.79865 0.0
C1486 C 0.80199 0.88247 0.78824 0.0
C1487 C 0.80174 0.86737 0.77329 0.0
H1488 H 0.23855 0.10338 0.19351 0.0
H1489 H 0.26906 0.13571 0.24151 0.0
H1490 H 0.28777 0.15558 0.21608 0.0
H1491 H 0.28166 0.10316 0.15712 0.0
H1492 H 0.26505 0.10664 0.13591 0.0
H1493 H 0.25648 0.09297 0.15779 0.0
H1494 H 0.22598 0.11717 0.161 0.0
H1495 H 0.23444 0.13091 0.13923 0.0
H1496 H 0.23036 0.14396 0.16274 0.0
H1497 H 0.29884 0.17519 0.18597 0.0
H1498 H 0.30215 0.19276 0.15332 0.0
H1499 H 0.26542 0.14687 0.1247 0.0
C1500 C 0.24952 0.11433 0.19867 0.0
C1501 C 0.25242 0.11805 0.21943 0.0
C1502 C 0.26672 0.13259 0.22565 0.0
C1503 C 0.27744 0.14388 0.21132 0.0
C1504 C 0.27386 0.14016 0.19092 0.0
C1505 C 0.26039 0.12558 0.1846 0.0
C1506 C 0.25794 0.1257 0.1619 0.0
C1507 C 0.26576 0.10594 0.15264 0.0
C1508 C 0.23588 0.12968 0.15588 0.0
C1509 C 0.27143 0.14326 0.15647 0.0
C1510 C 0.28066 0.15124 0.17341 0.0
C1511 C 0.29211 0.16881 0.17254 0.0
C1512 C 0.29384 0.1787 0.15397 0.0
C1513 C 0.28424 0.17095 0.13655 0.0
C1514 C 0.27335 0.15275 0.13771 0.0
H1515 H 0.84638 0.23893 0.12338 0.0
H1516 H 0.84144 0.30302 0.13505 0.0
H1517 H 0.86432 0.29948 0.16416 0.0
H1518 H 0.84091 0.22394 0.16991 0.0
H1519 H 0.85843 0.20317 0.1699 0.0
H1520 H 0.84716 0.21123 0.14669 0.0
H1521 H 0.88235 0.21682 0.13071 0.0
H1522 H 0.89389 0.20818 0.15377 0.0
H1523 H 0.9006 0.23242 0.14347 0.0
H1524 H 0.87976 0.28755 0.19656 0.0
H1525 H 0.88988 0.26872 0.2272 0.0
H1526 H 0.88489 0.21256 0.19405 0.0
C1527 C 0.85098 0.25238 0.13142 0.0
C1528 C 0.84223 0.27122 0.12698 0.0
C1529 C 0.8482 0.28847 0.13806 0.0
C1530 C 0.86114 0.28657 0.15469 0.0
C1531 C 0.86825 0.26743 0.1597 0.0
C1532 C 0.86384 0.2507 0.14801 0.0
C1533 C 0.87089 0.23145 0.15799 0.0
C1534 C 0.8533 0.2166 0.16132 0.0
C1535 C 0.88795 0.22164 0.14576 0.0
C1536 C 0.87863 0.23978 0.17772 0.0
C1537 C 0.87735 0.26058 0.17836 0.0
C1538 C 0.88144 0.27133 0.196 0.0
C1539 C 0.88699 0.26053 0.21336 0.0
C1540 C 0.88825 0.23923 0.21291 0.0
C1541 C 0.88434 0.22887 0.19476 0.0
H1542 H 0.79661 0.85528 0.22033 0.0
H1543 H 0.7796 0.9169 0.20649 0.0
H1544 H 0.7599 0.90479 0.17711 0.0
H1545 H 0.80207 0.83795 0.16952 0.0
H1546 H 0.79174 0.81338 0.17488 0.0
H1547 H 0.80462 0.82721 0.19436 0.0
H1548 H 0.77312 0.82424 0.21737 0.0
H1549 H 0.76014 0.81045 0.19792 0.0
H1550 H 0.74907 0.83302 0.20826 0.0
H1551 H 0.74251 0.88533 0.14861 0.0
H1552 H 0.72815 0.86027 0.1247 0.0
H1553 H 0.75605 0.81209 0.15902 0.0
C1554 C 0.7888 0.86626 0.21109 0.0
C1555 C 0.78966 0.887 0.21555 0.0
C1556 C 0.77911 0.9009 0.20324 0.0
C1557 C 0.76792 0.89417 0.18655 0.0
C1558 C 0.76738 0.87353 0.18258 0.0
C1559 C 0.77749 0.85982 0.19461 0.0
C1560 C 0.7743 0.83844 0.18753 0.0
C1561 C 0.79438 0.82868 0.18119 0.0
C1562 C 0.76351 0.8258 0.20373 0.0
C1563 C 0.76086 0.8422 0.16958 0.0
C1564 C 0.75706 0.86249 0.16678 0.0
C1565 C 0.74529 0.8694 0.15074 0.0
C1566 C 0.73723 0.85513 0.13726 0.0
C1567 C 0.74088 0.83431 0.14015 0.0
C1568 C 0.7528 0.8279 0.15654 0.0
H1569 H 0.11405 0.79036 0.20298 0.0
H1570 H 0.0977 0.73556 0.23474 0.0
H1571 H 0.10309 0.71592 0.20342 0.0
H1572 H 0.0922 0.77684 0.15367 0.0
H1573 H 0.11269 0.78837 0.14002 0.0
H1574 H 0.10518 0.79829 0.1642 0.0
H1575 H 0.14171 0.79408 0.17757 0.0
H1576 H 0.14932 0.78451 0.15339 0.0
H1577 H 0.15377 0.76979 0.1758 0.0
H1578 H 0.11349 0.70206 0.16954 0.0
H1579 H 0.131 0.69487 0.13743 0.0
H1580 H 0.13987 0.75899 0.12805 0.0
C1581 C 0.11134 0.77426 0.2033 0.0
C1582 C 0.10544 0.76445 0.22123 0.0
C1583 C 0.10226 0.74334 0.22112 0.0
C1584 C 0.1051 0.73211 0.20338 0.0
C1585 C 0.11097 0.74229 0.18592 0.0
C1586 C 0.11412 0.7629 0.18582 0.0
C1587 C 0.12222 0.77005 0.16575 0.0
C1588 C 0.10717 0.78423 0.15529 0.0
C1589 C 0.14298 0.78019 0.16829 0.0
C1590 C 0.12383 0.75016 0.15474 0.0
C1591 C 0.11691 0.73434 0.16644 0.0
C1592 C 0.11862 0.71435 0.16011 0.0
C1593 C 0.1285 0.71041 0.14179 0.0
C1594 C 0.13667 0.72639 0.13022 0.0
C1595 C 0.13347 0.74649 0.1364 0.0
H1596 H 0.25864 0.83854 0.78637 0.0
H1597 H 0.22414 0.88069 0.82258 0.0
H1598 H 0.2376 0.86524 0.8536 0.0
H1599 H 0.24888 0.79682 0.81638 0.0
H1600 H 0.27328 0.78526 0.81336 0.0
H1601 H 0.26362 0.80162 0.79403 0.0
H1602 H 0.29569 0.82382 0.79667 0.0
H1603 H 0.30544 0.8075 0.81609 0.0
H1604 H 0.30289 0.83415 0.82077 0.0
H1605 H 0.25186 0.84337 0.88052 0.0
H1606 H 0.26431 0.81514 0.90139 0.0
H1607 H 0.28883 0.7866 0.84784 0.0
C1608 C 0.25434 0.84477 0.80085 0.0
C1609 C 0.24051 0.86084 0.80216 0.0
C1610 C 0.23477 0.86835 0.82131 0.0
C1611 C 0.24243 0.85979 0.839 0.0
C1612 C 0.25578 0.8437 0.83727 0.0
C1613 C 0.26165 0.8362 0.8187 0.0
C1614 C 0.27438 0.81741 0.82106 0.0
C1615 C 0.26444 0.79921 0.8106 0.0
C1616 C 0.29588 0.82094 0.81318 0.0
C1617 C 0.27414 0.81518 0.84379 0.0
C1618 C 0.26369 0.83073 0.85288 0.0
C1619 C 0.26034 0.83125 0.87363 0.0
C1620 C 0.26745 0.81517 0.88536 0.0
C1621 C 0.27756 0.79877 0.87623 0.0
C1622 C 0.28133 0.79906 0.85526 0.0
H1623 H 0.13998 0.23961 0.75826 0.0
H1624 H 0.08147 0.22493 0.78354 0.0
H1625 H 0.09204 0.23924 0.81632 0.0
H1626 H 0.16831 0.22603 0.79991 0.0
H1627 H 0.18659 0.246 0.79742 0.0
H1628 H 0.17351 0.23685 0.77551 0.0
H1629 H 0.16114 0.2731 0.7676 0.0
H1630 H 0.17424 0.28238 0.78953 0.0
H1631 H 0.14765 0.28709 0.78661 0.0
H1632 H 0.11057 0.25172 0.84736 0.0
H1633 H 0.13534 0.26167 0.87355 0.0
H1634 H 0.18099 0.2687 0.8272 0.0
C1635 C 0.12926 0.23975 0.77058 0.0
C1636 C 0.10994 0.2312 0.76841 0.0
C1637 C 0.09637 0.23148 0.78491 0.0
C1638 C 0.10221 0.23961 0.80356 0.0
C1639 C 0.12157 0.24758 0.80533 0.0
C1640 C 0.1348 0.24787 0.7892 0.0
C1641 C 0.15516 0.25605 0.79526 0.0
C1642 C 0.17186 0.24029 0.79183 0.0
C1643 C 0.15981 0.27584 0.78409 0.0
C1644 C 0.15155 0.25973 0.81745 0.0
C1645 C 0.13205 0.25496 0.82302 0.0
C1646 C 0.12577 0.25584 0.8431 0.0
C1647 C 0.1399 0.26148 0.85787 0.0
C1648 C 0.16 0.26606 0.85237 0.0
C1649 C 0.16566 0.26552 0.83186 0.0
H1650 H 0.77827 0.15713 0.7642 0.0
H1651 H 0.77792 0.09902 0.79421 0.0
H1652 H 0.76159 0.11454 0.82399 0.0
H1653 H 0.79183 0.1853 0.80547 0.0
H1654 H 0.77644 0.20686 0.79943 0.0
H1655 H 0.7853 0.19063 0.77962 0.0
H1656 H 0.74856 0.18482 0.76757 0.0
H1657 H 0.73955 0.20121 0.7873 0.0
H1658 H 0.72992 0.17587 0.78522 0.0
H1659 H 0.74905 0.13762 0.85207 0.0
H1660 H 0.7408 0.16593 0.87516 0.0
H1661 H 0.74945 0.20813 0.82591 0.0
C1662 C 0.77433 0.14756 0.77684 0.0
C1663 C 0.77928 0.12691 0.77693 0.0
C1664 C 0.77411 0.1149 0.79383 0.0
C1665 C 0.76484 0.12357 0.81079 0.0
C1666 C 0.76067 0.14417 0.81044 0.0
C1667 C 0.76507 0.15593 0.79377 0.0
C1668 C 0.76054 0.1779 0.79756 0.0
C1669 C 0.77966 0.19092 0.7954 0.0
C1670 C 0.74363 0.18538 0.78358 0.0
C1671 C 0.75355 0.17683 0.81919 0.0
C1672 C 0.75348 0.15728 0.8264 0.0
C1673 C 0.74874 0.15295 0.84647 0.0
C1674 C 0.74412 0.16907 0.85948 0.0
C1675 C 0.74446 0.18916 0.8523 0.0
C1676 C 0.74894 0.19291 0.83184 0.0
H1677 H 0.76514 0.71891 0.83381 0.0
H1678 H 0.7961 0.71274 0.89113 0.0
H1679 H 0.82886 0.71314 0.87337 0.0
H1680 H 0.80104 0.68828 0.80356 0.0
H1681 H 0.79864 0.70462 0.78197 0.0
H1682 H 0.77767 0.70134 0.79895 0.0
H1683 H 0.77588 0.74004 0.8042 0.0
H1684 H 0.79683 0.74342 0.78733 0.0
H1685 H 0.79802 0.7534 0.81259 0.0
H1686 H 0.85791 0.7186 0.85006 0.0
H1687 H 0.8814 0.72779 0.82267 0.0
H1688 H 0.83162 0.72932 0.78031 0.0
C1689 C 0.7788 0.71722 0.84259 0.0
C1690 C 0.77814 0.71574 0.86383 0.0
C1691 C 0.7963 0.71379 0.87483 0.0
C1692 C 0.81495 0.71396 0.86487 0.0
C1693 C 0.8151 0.71585 0.84393 0.0
C1694 C 0.7975 0.71726 0.83289 0.0
C1695 C 0.8018 0.72057 0.8107 0.0
C1696 C 0.79435 0.70263 0.79805 0.0
C1697 C 0.79259 0.74054 0.80329 0.0
C1698 C 0.82458 0.72151 0.81108 0.0
C1699 C 0.83195 0.71859 0.83038 0.0
C1700 C 0.85238 0.72049 0.83483 0.0
C1701 C 0.86557 0.72578 0.81921 0.0
C1702 C 0.85829 0.72901 0.79941 0.0
C1703 C 0.83761 0.72646 0.79524 0.0
H1704 H 0.16717 0.27569 0.16592 0.0
H1705 H 0.12121 0.25808 0.12286 0.0
H1706 H 0.14773 0.2507 0.0977 0.0
H1707 H 0.20377 0.2975 0.12808 0.0
H1708 H 0.225 0.28796 0.14211 0.0
H1709 H 0.20236 0.29546 0.15516 0.0
H1710 H 0.20032 0.26016 0.17179 0.0
H1711 H 0.22276 0.2525 0.15873 0.0
H1712 H 0.19993 0.23801 0.15601 0.0
H1713 H 0.17888 0.23906 0.08016 0.0
H1714 H 0.21237 0.22581 0.07069 0.0
H1715 H 0.23823 0.2524 0.12451 0.0
C1716 C 0.16266 0.27087 0.15098 0.0
C1717 C 0.14219 0.26746 0.14626 0.0
C1718 C 0.13683 0.26092 0.12668 0.0
C1719 C 0.15178 0.25673 0.11232 0.0
C1720 C 0.17192 0.25954 0.11771 0.0
C1721 C 0.17735 0.2668 0.13648 0.0
C1722 C 0.2 0.26661 0.1393 0.0
C1723 C 0.20827 0.28817 0.14127 0.0
C1724 C 0.20609 0.25354 0.15752 0.0
C1725 C 0.20644 0.25707 0.11961 0.0
C1726 C 0.19003 0.25334 0.10726 0.0
C1727 C 0.1919 0.24243 0.0894 0.0
C1728 C 0.21092 0.23489 0.08421 0.0
C1729 C 0.2278 0.2384 0.09677 0.0
C1730 C 0.22562 0.25005 0.11439 0.0
H1731 H 0.21952 0.73009 0.88605 0.0
H1732 H 0.26664 0.6972 0.85477 0.0
H1733 H 0.24094 0.68215 0.83219 0.0
H1734 H 0.18025 0.69101 0.88241 0.0
H1735 H 0.16059 0.70938 0.87863 0.0
H1736 H 0.18243 0.71574 0.8935 0.0
H1737 H 0.18916 0.74664 0.8705 0.0
H1738 H 0.16741 0.74039 0.85558 0.0
H1739 H 0.1917 0.74298 0.84367 0.0
H1740 H 0.21058 0.67369 0.81105 0.0
H1741 H 0.17801 0.67217 0.79307 0.0
H1742 H 0.15091 0.71025 0.83885 0.0
C1743 C 0.22444 0.71947 0.87466 0.0
C1744 C 0.24503 0.71474 0.87212 0.0
C1745 C 0.25089 0.70091 0.85698 0.0
C1746 C 0.23642 0.69229 0.84415 0.0
C1747 C 0.21623 0.69755 0.84688 0.0
C1748 C 0.21025 0.71073 0.86187 0.0
C1749 C 0.18788 0.71498 0.86092 0.0
C1750 C 0.17716 0.70731 0.88 0.0
C1751 C 0.18381 0.73758 0.85745 0.0
C1752 C 0.18221 0.70257 0.84268 0.0
C1753 C 0.19873 0.69249 0.83488 0.0
C1754 C 0.19749 0.68124 0.8172 0.0
C1755 C 0.17896 0.68051 0.80709 0.0
C1756 C 0.16197 0.69097 0.8147 0.0
C1757 C 0.16357 0.70181 0.83291 0.0
H1758 H 0.23684 0.20794 0.88485 0.0
H1759 H 0.25726 0.25502 0.84429 0.0
H1760 H 0.27442 0.22938 0.82332 0.0
H1761 H 0.28221 0.17406 0.87934 0.0
H1762 H 0.26658 0.15184 0.88045 0.0
H1763 H 0.25945 0.17419 0.8942 0.0
H1764 H 0.22473 0.174 0.8763 0.0
H1765 H 0.23176 0.15184 0.86241 0.0
H1766 H 0.22376 0.17416 0.84912 0.0
H1767 H 0.28359 0.19845 0.80376 0.0
H1768 H 0.28531 0.16481 0.78784 0.0
H1769 H 0.2597 0.13798 0.84171 0.0
C1770 C 0.24545 0.21292 0.87189 0.0
C1771 C 0.24579 0.2334 0.86616 0.0
C1772 C 0.25697 0.23938 0.849 0.0
C1773 C 0.26677 0.22493 0.83704 0.0
C1774 C 0.26549 0.20471 0.84271 0.0
C1775 C 0.25535 0.19875 0.85992 0.0
C1776 C 0.25435 0.17602 0.86163 0.0
C1777 C 0.26637 0.16859 0.88 0.0
C1778 C 0.23235 0.16859 0.8624 0.0
C1779 C 0.26454 0.17007 0.84213 0.0
C1780 C 0.27113 0.18681 0.83155 0.0
C1781 C 0.27899 0.18521 0.81213 0.0
C1782 C 0.27981 0.16608 0.80318 0.0
C1783 C 0.27281 0.14886 0.81367 0.0
C1784 C 0.26558 0.15086 0.83355 0.0
H1785 H 0.78406 0.28453 0.85644 0.0
H1786 H 0.80788 0.24788 0.90504 0.0
H1787 H 0.84234 0.25948 0.89686 0.0
H1788 H 0.82003 0.27225 0.82237 0.0
H1789 H 0.82138 0.29655 0.81026 0.0
H1790 H 0.7986 0.28897 0.82272 0.0
H1791 H 0.79986 0.32122 0.84483 0.0
H1792 H 0.82279 0.32889 0.8324 0.0
H1793 H 0.8221 0.32661 0.85948 0.0
H1794 H 0.87442 0.271 0.88017 0.0
H1795 H 0.90087 0.27942 0.85513 0.0
H1796 H 0.8558 0.3078 0.81732 0.0
C1797 C 0.79646 0.27947 0.86577 0.0
C1798 C 0.79336 0.26547 0.88144 0.0
C1799 C 0.80998 0.25872 0.89301 0.0
C1800 C 0.82958 0.26533 0.88856 0.0
C1801 C 0.83223 0.27874 0.87259 0.0
C1802 C 0.81607 0.28576 0.8614 0.0
C1803 C 0.82301 0.29775 0.84332 0.0
C1804 C 0.81531 0.2883 0.82352 0.0
C1805 C 0.81656 0.31994 0.84513 0.0
C1806 C 0.84557 0.29555 0.84548 0.0
C1807 C 0.8507 0.28503 0.86272 0.0
C1808 C 0.87063 0.27962 0.86684 0.0
C1809 C 0.88556 0.28449 0.8526 0.0
C1810 C 0.88028 0.29428 0.83442 0.0
C1811 C 0.86021 0.30046 0.83123 0.0
H1812 H 0.75303 0.87322 0.86669 0.0
H1813 H 0.69424 0.88635 0.84155 0.0
H1814 H 0.68134 0.85408 0.85486 0.0
H1815 H 0.75547 0.82637 0.8519 0.0
H1816 H 0.76791 0.81558 0.87351 0.0
H1817 H 0.77111 0.84184 0.86789 0.0
H1818 H 0.75823 0.85182 0.90339 0.0
H1819 H 0.75562 0.82545 0.90951 0.0
H1820 H 0.7344 0.8422 0.91225 0.0
H1821 H 0.67766 0.81704 0.86279 0.0
H1822 H 0.68231 0.78047 0.86918 0.0
H1823 H 0.7435 0.79207 0.88903 0.0
C1824 C 0.73716 0.86981 0.86501 0.0
C1825 C 0.72461 0.88225 0.85323 0.0
C1826 C 0.70402 0.87716 0.85084 0.0
C1827 C 0.6966 0.85875 0.85822 0.0
C1828 C 0.70987 0.84594 0.86831 0.0
C1829 C 0.72959 0.85155 0.87228 0.0
C1830 C 0.7416 0.83424 0.88095 0.0
C1831 C 0.76009 0.82923 0.86776 0.0
C1832 C 0.74782 0.8387 0.90283 0.0
C1833 C 0.726 0.81769 0.88002 0.0
C1834 C 0.70769 0.82467 0.87298 0.0
C1835 C 0.69174 0.81153 0.8689 0.0
C1836 C 0.69456 0.79079 0.87235 0.0
C1837 C 0.71322 0.78351 0.87965 0.0
C1838 C 0.72897 0.79722 0.88366 0.0
H1839 H 0.7656 0.74455 0.13646 0.0
H1840 H 0.78507 0.76051 0.07613 0.0
H1841 H 0.81938 0.74827 0.08398 0.0
H1842 H 0.80656 0.76339 0.16008 0.0
H1843 H 0.80816 0.74457 0.17963 0.0
H1844 H 0.78432 0.74992 0.168 0.0
H1845 H 0.78022 0.71229 0.15822 0.0
H1846 H 0.80401 0.70672 0.1701 0.0
H1847 H 0.79985 0.69986 0.14412 0.0
H1848 H 0.85255 0.73925 0.10009 0.0
H1849 H 0.88155 0.7347 0.12318 0.0
H1850 H 0.8402 0.72614 0.17313 0.0
C1851 C 0.77687 0.74468 0.12464 0.0
C1852 C 0.77269 0.75318 0.10562 0.0
C1853 C 0.78798 0.75382 0.09074 0.0
C1854 C 0.80748 0.74687 0.09506 0.0
C1855 C 0.81137 0.73937 0.11431 0.0
C1856 C 0.79642 0.73812 0.12882 0.0
C1857 C 0.80494 0.73217 0.14911 0.0
C1858 C 0.80075 0.74849 0.16513 0.0
C1859 C 0.79677 0.71153 0.15577 0.0
C1860 C 0.8271 0.73102 0.14396 0.0
C1861 C 0.83053 0.73479 0.12375 0.0
C1862 C 0.85001 0.73593 0.11587 0.0
C1863 C 0.86638 0.73338 0.12907 0.0
C1864 C 0.86306 0.73008 0.14989 0.0
C1865 C 0.84318 0.72854 0.15725 0.0
H1866 H 0.21885 0.75856 0.14573 0.0
H1867 H 0.23322 0.77156 0.08322 0.0
H1868 H 0.25121 0.80248 0.09383 0.0
H1869 H 0.20813 0.80812 0.15981 0.0
H1870 H 0.21873 0.80608 0.18475 0.0
H1871 H 0.2089 0.78403 0.17238 0.0
H1872 H 0.24324 0.76592 0.17699 0.0
H1873 H 0.25316 0.78793 0.18947 0.0
H1874 H 0.26593 0.77771 0.16775 0.0
H1875 H 0.26518 0.83347 0.11124 0.0
H1876 H 0.27419 0.86166 0.13407 0.0
H1877 H 0.25046 0.82782 0.18482 0.0
C1878 C 0.2261 0.7677 0.1343 0.0
C1879 C 0.22476 0.76267 0.11368 0.0
C1880 C 0.23418 0.77515 0.09913 0.0
C1881 C 0.24443 0.7927 0.10501 0.0
C1882 C 0.24515 0.79745 0.12547 0.0
C1883 C 0.23632 0.78524 0.13989 0.0
C1884 C 0.23815 0.79423 0.16075 0.0
C1885 C 0.21724 0.79836 0.16995 0.0
C1886 C 0.25088 0.78064 0.17455 0.0
C1887 C 0.24907 0.81361 0.1558 0.0
C1888 C 0.25313 0.81519 0.13542 0.0
C1889 C 0.26229 0.83229 0.12726 0.0
C1890 C 0.26732 0.84821 0.1403 0.0
C1891 C 0.26309 0.84685 0.16117 0.0
C1892 C 0.25405 0.82923 0.16895 0.0
H1893 H 0.73936 0.15784 0.20094 0.0
H1894 H 0.72293 0.11626 0.15314 0.0
H1895 H 0.72964 0.14299 0.12781 0.0
H1896 H 0.71818 0.20275 0.17892 0.0
H1897 H 0.73843 0.21863 0.18766 0.0
H1898 H 0.73151 0.19647 0.20177 0.0
H1899 H 0.76829 0.18345 0.19961 0.0
H1900 H 0.77536 0.20556 0.18556 0.0
H1901 H 0.78013 0.18086 0.17527 0.0
H1902 H 0.73899 0.17441 0.10789 0.0
H1903 H 0.75128 0.20724 0.095 0.0
H1904 H 0.76174 0.22732 0.15641 0.0
C1905 C 0.737 0.15435 0.18515 0.0
C1906 C 0.73053 0.13506 0.17894 0.0
C1907 C 0.72785 0.13101 0.15816 0.0
C1908 C 0.73157 0.14608 0.14372 0.0
C1909 C 0.73799 0.16498 0.15042 0.0
C1910 C 0.74073 0.16907 0.17066 0.0
C1911 C 0.74842 0.19024 0.17406 0.0
C1912 C 0.73322 0.20276 0.18633 0.0
C1913 C 0.76928 0.19 0.18421 0.0
C1914 C 0.74969 0.1975 0.15252 0.0
C1915 C 0.74352 0.1828 0.13907 0.0
C1916 C 0.74378 0.18604 0.1183 0.0
C1917 C 0.75074 0.20471 0.11113 0.0
C1918 C 0.75739 0.21977 0.12474 0.0
C1919 C 0.75666 0.21611 0.14566 0.0
H1920 H 0.6747 0.65775 0.69908 0.0
H1921 H 0.62345 0.6315 0.73018 0.0
H1922 H 0.60464 0.66347 0.72589 0.0
H1923 H 0.67169 0.70522 0.72111 0.0
H1924 H 0.67894 0.71904 0.69886 0.0
H1925 H 0.68754 0.69355 0.70235 0.0
H1926 H 0.67219 0.68318 0.66797 0.0
H1927 H 0.66387 0.70875 0.66413 0.0
H1928 H 0.64598 0.68832 0.66291 0.0
H1929 H 0.59269 0.69927 0.72051 0.0
H1930 H 0.58746 0.73525 0.71216 0.0
H1931 H 0.64702 0.73757 0.68514 0.0
C1932 C 0.65935 0.65854 0.7046 0.0
C1933 C 0.65044 0.64218 0.71488 0.0
C1934 C 0.63044 0.64385 0.7221 0.0
C1935 C 0.61971 0.66195 0.71982 0.0
C1936 C 0.62924 0.67806 0.71021 0.0
C1937 C 0.64852 0.67641 0.70249 0.0
C1938 C 0.65576 0.6961 0.69356 0.0
C1939 C 0.67459 0.70393 0.70464 0.0
C1940 C 0.65967 0.69395 0.67079 0.0
C1941 C 0.63763 0.70922 0.69771 0.0
C1942 C 0.62247 0.69859 0.70729 0.0
C1943 C 0.6044 0.70771 0.71289 0.0
C1944 C 0.60162 0.72814 0.7082 0.0
C1945 C 0.61687 0.73914 0.69807 0.0
C1946 C 0.63513 0.72955 0.69296 0.0
H1947 H 0.28718 0.65389 0.7528 0.0
H1948 H 0.32136 0.60082 0.7359 0.0
H1949 H 0.35284 0.61756 0.74651 0.0
H1950 H 0.32096 0.68805 0.73274 0.0
H1951 H 0.31802 0.70716 0.75185 0.0
H1952 H 0.29773 0.68993 0.74673 0.0
H1953 H 0.29705 0.67917 0.7843 0.0
H1954 H 0.31729 0.69653 0.78959 0.0
H1955 H 0.31985 0.67026 0.7961 0.0
H1956 H 0.38069 0.6409 0.75507 0.0
H1957 H 0.40342 0.66994 0.76024 0.0
H1958 H 0.35159 0.70861 0.77019 0.0
C1959 C 0.30126 0.64565 0.75203 0.0
C1960 C 0.30198 0.62604 0.74387 0.0
C1961 C 0.32064 0.61585 0.74229 0.0
C1962 C 0.33854 0.62518 0.74834 0.0
C1963 C 0.33751 0.64477 0.75578 0.0
C1964 C 0.31939 0.65495 0.75765 0.0
C1965 C 0.32279 0.6767 0.76378 0.0
C1966 C 0.31438 0.69131 0.74782 0.0
C1967 C 0.31371 0.6809 0.78469 0.0
C1968 C 0.34562 0.67725 0.76441 0.0
C1969 C 0.35378 0.65858 0.76012 0.0
C1970 C 0.37452 0.65556 0.75872 0.0
C1971 C 0.3873 0.67213 0.76161 0.0
C1972 C 0.37925 0.69147 0.76561 0.0
C1973 C 0.35816 0.69396 0.76727 0.0
H1974 H 0.34154 0.25546 0.73786 0.0
H1975 H 0.38608 0.25173 0.78559 0.0
H1976 H 0.37418 0.28431 0.79923 0.0
H1977 H 0.34697 0.30581 0.72792 0.0
H1978 H 0.32071 0.31099 0.72323 0.0
H1979 H 0.33054 0.28608 0.71897 0.0
H1980 H 0.30384 0.27093 0.74318 0.0
H1981 H 0.29364 0.29579 0.74719 0.0
H1982 H 0.30153 0.28076 0.76842 0.0
H1983 H 0.36063 0.31958 0.80459 0.0
H1984 H 0.34378 0.35293 0.80342 0.0
H1985 H 0.30799 0.33278 0.75249 0.0
C1986 C 0.34835 0.26118 0.75155 0.0
C1987 C 0.36463 0.25108 0.76075 0.0
C1988 C 0.3734 0.25915 0.77847 0.0
C1989 C 0.36683 0.27769 0.78626 0.0
C1990 C 0.3513 0.28773 0.77629 0.0
C1991 C 0.3419 0.27954 0.75956 0.0
C1992 C 0.32638 0.2938 0.7509 0.0
C1993 C 0.33147 0.2995 0.72896 0.0
C1994 C 0.30509 0.28478 0.75253 0.0
C1995 C 0.32898 0.31155 0.76494 0.0
C1996 C 0.34336 0.30782 0.77953 0.0
C1997 C 0.34908 0.32254 0.79345 0.0
C1998 C 0.33958 0.34145 0.7926 0.0
C1999 C 0.32457 0.34534 0.77795 0.0
C2000 C 0.3193 0.33017 0.76399 0.0
H2001 H 0.612 0.37654 0.72686 0.0
H2002 H 0.61361 0.3744 0.79216 0.0
H2003 H 0.64834 0.38776 0.79172 0.0
H2004 H 0.6568 0.35668 0.71953 0.0
H2005 H 0.66435 0.37136 0.69794 0.0
H2006 H 0.63807 0.36758 0.70312 0.0
H2007 H 0.63197 0.40617 0.70404 0.0
H2008 H 0.65821 0.41017 0.69817 0.0
H2009 H 0.64728 0.42183 0.72016 0.0
H2010 H 0.68521 0.39363 0.78372 0.0
H2011 H 0.71951 0.39494 0.76879 0.0
H2012 H 0.69321 0.3923 0.70896 0.0
C2013 C 0.61927 0.3799 0.7411 0.0
C2014 C 0.61012 0.37455 0.75952 0.0
C2015 C 0.62026 0.37868 0.77786 0.0
C2016 C 0.64006 0.38616 0.77775 0.0
C2017 C 0.64929 0.38973 0.75919 0.0
C2018 C 0.639 0.38721 0.74119 0.0
C2019 C 0.65287 0.38937 0.72325 0.0
C2020 C 0.65302 0.3701 0.71022 0.0
C2021 C 0.64725 0.408 0.71067 0.0
C2022 C 0.67274 0.39234 0.73392 0.0
C2023 C 0.67046 0.39286 0.75462 0.0
C2024 C 0.6871 0.39375 0.76751 0.0
C2025 C 0.7065 0.39429 0.75895 0.0
C2026 C 0.70898 0.39369 0.73776 0.0
C2027 C 0.69182 0.39288 0.72523 0.0
H2028 H 0.6315 0.35944 0.29157 0.0
H2029 H 0.6323 0.36762 0.22673 0.0
H2030 H 0.61284 0.33613 0.22254 0.0
H2031 H 0.64173 0.31049 0.29174 0.0
H2032 H 0.62575 0.30315 0.31247 0.0
H2033 H 0.63507 0.32852 0.31098 0.0
H2034 H 0.5987 0.34268 0.31217 0.0
H2035 H 0.58917 0.3173 0.31429 0.0
H2036 H 0.58017 0.33358 0.29448 0.0
H2037 H 0.60045 0.3002 0.22522 0.0
H2038 H 0.5917 0.26516 0.23498 0.0
H2039 H 0.59863 0.28124 0.298 0.0
C2040 C 0.62673 0.3551 0.27656 0.0
C2041 C 0.63327 0.36594 0.2595 0.0
C2042 C 0.62715 0.35965 0.24003 0.0
C2043 C 0.61622 0.34171 0.2375 0.0
C2044 C 0.6112 0.33056 0.25462 0.0
C2045 C 0.61577 0.33734 0.27383 0.0
C2046 C 0.61066 0.32174 0.28963 0.0
C2047 C 0.62942 0.31562 0.30191 0.0
C2048 C 0.59366 0.32928 0.30346 0.0
C2049 C 0.60354 0.30472 0.27629 0.0
C2050 C 0.60378 0.31005 0.25614 0.0
C2051 C 0.59967 0.29603 0.24098 0.0
C2052 C 0.59493 0.27615 0.24662 0.0
C2053 C 0.59439 0.2706 0.26721 0.0
C2054 C 0.59865 0.28514 0.28213 0.0
H2055 H 0.73364 0.6421 0.24249 0.0
H2056 H 0.71685 0.57908 0.23777 0.0
H2057 H 0.68172 0.58904 0.23024 0.0
H2058 H 0.69277 0.65621 0.26964 0.0
H2059 H 0.68973 0.68082 0.25852 0.0
H2060 H 0.71417 0.66917 0.259 0.0
H2061 H 0.71711 0.6726 0.22015 0.0
H2062 H 0.69279 0.6847 0.21955 0.0
H2063 H 0.69739 0.66269 0.20427 0.0
H2064 H 0.64757 0.60591 0.22824 0.0
H2065 H 0.61774 0.62829 0.23082 0.0
H2066 H 0.65738 0.6798 0.2384 0.0
C2067 C 0.72278 0.63041 0.23901 0.0
C2068 C 0.72796 0.60984 0.24041 0.0
C2069 C 0.71318 0.59494 0.23649 0.0
C2070 C 0.6932 0.60046 0.23225 0.0
C2071 C 0.68834 0.62092 0.23201 0.0
C2072 C 0.7028 0.63565 0.23509 0.0
C2073 C 0.69345 0.65638 0.23651 0.0
C2074 C 0.69779 0.6662 0.25714 0.0
C2075 C 0.70061 0.66989 0.21908 0.0
C2076 C 0.67144 0.65098 0.23433 0.0
C2077 C 0.66873 0.63052 0.23147 0.0
C2078 C 0.64953 0.62199 0.23016 0.0
C2079 C 0.6327 0.63477 0.23175 0.0
C2080 C 0.63529 0.65572 0.23483 0.0
C2081 C 0.65492 0.66383 0.236 0.0
H2082 H 0.35922 0.62926 0.27109 0.0
H2083 H 0.35639 0.638 0.20634 0.0
H2084 H 0.37326 0.67099 0.21011 0.0
H2085 H 0.34474 0.67556 0.2837 0.0
H2086 H 0.36061 0.67882 0.30551 0.0
H2087 H 0.3534 0.65392 0.29769 0.0
H2088 H 0.39086 0.64318 0.29504 0.0
H2089 H 0.3983 0.66795 0.30345 0.0
H2090 H 0.40806 0.65802 0.2801 0.0
H2091 H 0.38367 0.7056 0.22161 0.0
H2092 H 0.38989 0.73766 0.23973 0.0
H2093 H 0.38526 0.70611 0.29685 0.0
C2094 C 0.36301 0.63767 0.25761 0.0
C2095 C 0.35661 0.63107 0.23844 0.0
C2096 C 0.36137 0.6427 0.22117 0.0
C2097 C 0.37088 0.6615 0.22318 0.0
C2098 C 0.37573 0.66823 0.2425 0.0
C2099 C 0.37234 0.65645 0.25939 0.0
C2100 C 0.37657 0.66798 0.27861 0.0
C2101 C 0.35771 0.66913 0.29215 0.0
C2102 C 0.39452 0.65873 0.28997 0.0
C2103 C 0.38187 0.68837 0.26997 0.0
C2104 C 0.3816 0.68821 0.24913 0.0
C2105 C 0.3844 0.70579 0.23792 0.0
C2106 C 0.38774 0.72394 0.24831 0.0
C2107 C 0.38807 0.7243 0.26965 0.0
C2108 C 0.38525 0.70625 0.28051 0.0
H2109 H 0.31709 0.31522 0.22355 0.0
H2110 H 0.3627 0.36189 0.21889 0.0
H2111 H 0.3362 0.38796 0.22245 0.0
H2112 H 0.27568 0.34271 0.19778 0.0
H2113 H 0.25707 0.33272 0.2149 0.0
H2114 H 0.27911 0.31807 0.20873 0.0
H2115 H 0.28769 0.31488 0.24677 0.0
H2116 H 0.26572 0.32941 0.25302 0.0
H2117 H 0.29016 0.33741 0.26179 0.0
H2118 H 0.30536 0.40849 0.23067 0.0
H2119 H 0.27335 0.42165 0.24442 0.0
H2120 H 0.24827 0.36124 0.24381 0.0
C2121 C 0.32148 0.33094 0.22279 0.0
C2122 C 0.34189 0.3366 0.22082 0.0
C2123 C 0.34709 0.35728 0.22028 0.0
C2124 C 0.33215 0.37216 0.22219 0.0
C2125 C 0.31215 0.36602 0.2245 0.0
C2126 C 0.30684 0.34587 0.22477 0.0
C2127 C 0.28474 0.34304 0.2296 0.0
C2128 C 0.27349 0.33358 0.21168 0.0
C2129 C 0.28193 0.33045 0.24894 0.0
C2130 C 0.27853 0.36472 0.23274 0.0
C2131 C 0.29443 0.37781 0.22938 0.0
C2132 C 0.29272 0.39843 0.23299 0.0
C2133 C 0.27448 0.40577 0.24079 0.0
C2134 C 0.25833 0.39245 0.24504 0.0
C2135 C 0.26024 0.3718 0.24037 0.0
H2136 H 0.73687 0.64714 0.72105 0.0
H2137 H 0.75041 0.58789 0.69698 0.0
H2138 H 0.7722 0.60341 0.67112 0.0
H2139 H 0.72885 0.66914 0.67715 0.0
H2140 H 0.73959 0.69348 0.68272 0.0
H2141 H 0.7301 0.67804 0.70281 0.0
H2142 H 0.76468 0.67938 0.72093 0.0
H2143 H 0.77426 0.69529 0.70106 0.0
H2144 H 0.78719 0.67226 0.70746 0.0
H2145 H 0.78555 0.62522 0.64368 0.0
H2146 H 0.79126 0.65166 0.61805 0.0
H2147 H 0.76876 0.69678 0.65971 0.0
C2148 C 0.74524 0.63738 0.71099 0.0
C2149 C 0.74213 0.61633 0.71108 0.0
C2150 C 0.75278 0.60405 0.69727 0.0
C2151 C 0.76519 0.61274 0.68252 0.0
C2152 C 0.76689 0.63369 0.68197 0.0
C2153 C 0.75749 0.64586 0.69608 0.0
C2154 C 0.75916 0.66792 0.69047 0.0
C2155 C 0.73819 0.67769 0.68814 0.0
C2156 C 0.7721 0.67939 0.70589 0.0
C2157 C 0.76986 0.66619 0.6704 0.0
C2158 C 0.77456 0.64638 0.66593 0.0
C2159 C 0.78247 0.64084 0.64725 0.0
C2160 C 0.78552 0.65592 0.63274 0.0
C2161 C 0.78054 0.67623 0.63699 0.0
C2162 C 0.77301 0.68141 0.65619 0.0
H2163 H 0.35983 0.7751 0.7377 0.0
H2164 H 0.41738 0.77877 0.707 0.0
H2165 H 0.40034 0.79052 0.67612 0.0
H2166 H 0.33479 0.75338 0.69907 0.0
H2167 H 0.31098 0.766 0.70252 0.0
H2168 H 0.32766 0.76272 0.7236 0.0
H2169 H 0.32762 0.80124 0.73014 0.0
H2170 H 0.31064 0.80466 0.70919 0.0
H2171 H 0.33414 0.81829 0.70999 0.0
H2172 H 0.37711 0.79582 0.6473 0.0
H2173 H 0.34911 0.79521 0.62271 0.0
H2174 H 0.3065 0.78747 0.67178 0.0
C2175 C 0.36883 0.7793 0.72474 0.0
C2176 C 0.38986 0.77638 0.7247 0.0
C2177 C 0.40122 0.78115 0.70728 0.0
C2178 C 0.39169 0.78787 0.68971 0.0
C2179 C 0.3708 0.78972 0.68984 0.0
C2180 C 0.35948 0.78577 0.70695 0.0
C2181 C 0.33714 0.78626 0.70231 0.0
C2182 C 0.32707 0.76588 0.70715 0.0
C2183 C 0.32678 0.80366 0.71358 0.0
C2184 C 0.33775 0.79016 0.67982 0.0
C2185 C 0.35727 0.79247 0.67298 0.0
C2186 C 0.36171 0.79449 0.65251 0.0
C2187 C 0.34575 0.79402 0.63865 0.0
C2188 C 0.32569 0.79139 0.64537 0.0
C2189 C 0.32168 0.78976 0.66623 0.0
H2190 H 0.24903 0.36121 0.73346 0.0
H2191 H 0.26623 0.42029 0.71142 0.0
H2192 H 0.25896 0.40938 0.67654 0.0
H2193 H 0.27383 0.33513 0.69831 0.0
H2194 H 0.25594 0.31487 0.69542 0.0
H2195 H 0.25715 0.32855 0.71875 0.0
H2196 H 0.2192 0.33744 0.71609 0.0
H2197 H 0.21771 0.32338 0.69286 0.0
H2198 H 0.20975 0.34936 0.69356 0.0
H2199 H 0.25589 0.39011 0.64385 0.0
H2200 H 0.25636 0.36443 0.61664 0.0
H2201 H 0.24256 0.31802 0.66061 0.0
C2202 C 0.25035 0.37214 0.7214 0.0
C2203 C 0.25796 0.39163 0.72511 0.0
C2204 C 0.26018 0.40534 0.70888 0.0
C2205 C 0.25609 0.39926 0.68902 0.0
C2206 C 0.24973 0.3795 0.68573 0.0
C2207 C 0.24661 0.36622 0.70155 0.0
C2208 C 0.24254 0.3451 0.69404 0.0
C2209 C 0.2583 0.33005 0.70211 0.0
C2210 C 0.22101 0.33843 0.69945 0.0
C2211 C 0.24479 0.34833 0.67161 0.0
C2212 C 0.24851 0.3683 0.66698 0.0
C2213 C 0.25258 0.3745 0.64726 0.0
C2214 C 0.25292 0.35985 0.63193 0.0
C2215 C 0.24955 0.3393 0.63658 0.0
C2216 C 0.24516 0.33364 0.65661 0.0
H2217 H 0.63173 0.25993 0.63099 0.0
H2218 H 0.62762 0.1992 0.65487 0.0
H2219 H 0.60409 0.21121 0.68116 0.0
H2220 H 0.63633 0.28308 0.67551 0.0
H2221 H 0.62197 0.30538 0.66959 0.0
H2222 H 0.63406 0.29149 0.64975 0.0
H2223 H 0.59993 0.28736 0.63122 0.0
H2224 H 0.58768 0.30156 0.65091 0.0
H2225 H 0.57867 0.27675 0.64443 0.0
H2226 H 0.5865 0.23076 0.70827 0.0
H2227 H 0.57584 0.25604 0.73349 0.0
H2228 H 0.59227 0.30407 0.69222 0.0
C2229 C 0.62521 0.249 0.64121 0.0
C2230 C 0.63132 0.22863 0.64082 0.0
C2231 C 0.62294 0.21485 0.6548 0.0
C2232 C 0.60956 0.22154 0.66977 0.0
C2233 C 0.60465 0.24199 0.6704 0.0
C2234 C 0.61204 0.25547 0.6563 0.0
C2235 C 0.60682 0.277 0.66179 0.0
C2236 C 0.62593 0.28998 0.66431 0.0
C2237 C 0.59241 0.2862 0.64616 0.0
C2238 C 0.59629 0.27364 0.68173 0.0
C2239 C 0.59477 0.25334 0.68624 0.0
C2240 C 0.58719 0.24667 0.70469 0.0
C2241 C 0.58126 0.26113 0.71895 0.0
C2242 C 0.58319 0.28198 0.71474 0.0
C2243 C 0.59042 0.28822 0.69575 0.0
H2244 H 0.72356 0.3408 0.29152 0.0
H2245 H 0.71007 0.39089 0.33141 0.0
H2246 H 0.72392 0.37169 0.36022 0.0
H2247 H 0.70901 0.3027 0.3246 0.0
H2248 H 0.72849 0.28526 0.31722 0.0
H2249 H 0.71957 0.3038 0.29957 0.0
H2250 H 0.75605 0.31702 0.29473 0.0
H2251 H 0.76512 0.29846 0.31237 0.0
H2252 H 0.77046 0.3248 0.31643 0.0
H2253 H 0.73661 0.34568 0.38507 0.0
H2254 H 0.74691 0.31503 0.4038 0.0
H2255 H 0.75197 0.28252 0.34722 0.0
C2256 C 0.72383 0.34788 0.30627 0.0
C2257 C 0.71582 0.36732 0.30929 0.0
C2258 C 0.71621 0.37601 0.32881 0.0
C2259 C 0.72408 0.36523 0.34522 0.0
C2260 C 0.73158 0.34591 0.34178 0.0
C2261 C 0.73159 0.33737 0.32275 0.0
C2262 C 0.73931 0.31595 0.32319 0.0
C2263 C 0.72313 0.30106 0.31571 0.0
C2264 C 0.7589 0.31395 0.31096 0.0
C2265 C 0.74318 0.31357 0.34551 0.0
C2266 C 0.73884 0.33104 0.35601 0.0
C2267 C 0.7403 0.332 0.37698 0.0
C2268 C 0.74613 0.31455 0.38747 0.0
C2269 C 0.75029 0.29647 0.37692 0.0
C2270 C 0.74905 0.29616 0.35568 0.0
H2271 H 0.59948 0.708 0.30908 0.0
H2272 H 0.59653 0.76137 0.27145 0.0
H2273 H 0.60575 0.78249 0.30079 0.0
H2274 H 0.58244 0.73273 0.3578 0.0
H2275 H 0.5999 0.71766 0.37217 0.0
H2276 H 0.58853 0.70753 0.34963 0.0
H2277 H 0.62399 0.69998 0.33493 0.0
H2278 H 0.63533 0.70983 0.3574 0.0
H2279 H 0.64218 0.72013 0.33319 0.0
H2280 H 0.62132 0.79664 0.33207 0.0
H2281 H 0.64424 0.80188 0.36091 0.0
H2282 H 0.63647 0.73939 0.37833 0.0
C2283 C 0.60021 0.7242 0.30715 0.0
C2284 C 0.59729 0.73309 0.28807 0.0
C2285 C 0.59866 0.75429 0.28601 0.0
C2286 C 0.60371 0.7664 0.30263 0.0
C2287 C 0.60703 0.75708 0.3212 0.0
C2288 C 0.60523 0.73643 0.32353 0.0
C2289 C 0.61238 0.72966 0.34408 0.0
C2290 C 0.59476 0.72141 0.35666 0.0
C2291 C 0.62949 0.714 0.34227 0.0
C2292 C 0.61986 0.7495 0.35246 0.0
C2293 C 0.61606 0.76529 0.33935 0.0
C2294 C 0.62392 0.78453 0.34269 0.0
C2295 C 0.63687 0.78741 0.35918 0.0
C2296 C 0.64204 0.77102 0.37183 0.0
C2297 C 0.63249 0.75223 0.36906 0.0
H2298 H 0.253 0.6942 0.34573 0.0
H2299 H 0.21921 0.64848 0.37817 0.0
H2300 H 0.22719 0.62373 0.35128 0.0
H2301 H 0.23891 0.67905 0.29549 0.0
H2302 H 0.26344 0.68442 0.2851 0.0
H2303 H 0.25441 0.69849 0.30651 0.0
H2304 H 0.2863 0.6885 0.32674 0.0
H2305 H 0.29548 0.67447 0.30541 0.0
H2306 H 0.29265 0.66221 0.3295 0.0
H2307 H 0.23973 0.60399 0.32102 0.0
H2308 H 0.2568 0.59048 0.29072 0.0
H2309 H 0.28227 0.64958 0.2788 0.0
C2310 C 0.24715 0.67901 0.34717 0.0
C2311 C 0.23543 0.67321 0.36395 0.0
C2312 C 0.22821 0.65318 0.36537 0.0
C2313 C 0.23261 0.63909 0.35017 0.0
C2314 C 0.24423 0.64536 0.33378 0.0
C2315 C 0.25144 0.66485 0.33227 0.0
C2316 C 0.26417 0.66773 0.31359 0.0
C2317 C 0.25465 0.68335 0.29933 0.0
C2318 C 0.28594 0.67356 0.31915 0.0
C2319 C 0.26314 0.64675 0.3048 0.0
C2320 C 0.25149 0.63407 0.31657 0.0
C2321 C 0.2488 0.61381 0.31166 0.0
C2322 C 0.25852 0.6063 0.29443 0.0
C2323 C 0.27078 0.61903 0.28243 0.0
C2324 C 0.27288 0.63954 0.28761 0.0
H2325 H 0.32679 0.22879 0.35119 0.0
H2326 H 0.28145 0.19437 0.31905 0.0
H2327 H 0.30048 0.19887 0.28735 0.0
H2328 H 0.33145 0.26534 0.31619 0.0
H2329 H 0.35818 0.26942 0.31888 0.0
H2330 H 0.34389 0.25954 0.33966 0.0
H2331 H 0.36756 0.22851 0.34158 0.0
H2332 H 0.38211 0.23842 0.32085 0.0
H2333 H 0.37167 0.21336 0.31939 0.0
H2334 H 0.32107 0.21189 0.25855 0.0
H2335 H 0.34132 0.23268 0.23511 0.0
H2336 H 0.3727 0.25918 0.28603 0.0
C2337 C 0.32132 0.22151 0.33762 0.0
C2338 C 0.30282 0.21105 0.33754 0.0
C2339 C 0.29572 0.20231 0.31941 0.0
C2340 C 0.30646 0.20472 0.30136 0.0
C2341 C 0.32427 0.21586 0.30175 0.0
C2342 C 0.33174 0.224 0.31946 0.0
C2343 C 0.34957 0.23764 0.31546 0.0
C2344 C 0.34551 0.25925 0.32298 0.0
C2345 C 0.36887 0.22895 0.32488 0.0
C2346 C 0.35036 0.2367 0.29269 0.0
C2347 C 0.33596 0.22372 0.28505 0.0
C2348 C 0.33269 0.22176 0.26435 0.0
C2349 C 0.34421 0.23365 0.25116 0.0
C2350 C 0.35858 0.24746 0.25879 0.0
C2351 C 0.36197 0.24858 0.27977 0.0
H2352 H 0.71322 0.73163 0.60173 0.0
H2353 H 0.75046 0.7854 0.60284 0.0
H2354 H 0.71983 0.8064 0.60674 0.0
H2355 H 0.66976 0.75367 0.57488 0.0
H2356 H 0.65188 0.73965 0.58982 0.0
H2357 H 0.67644 0.72922 0.58469 0.0
H2358 H 0.68292 0.72491 0.62307 0.0
H2359 H 0.65831 0.73492 0.6282 0.0
H2360 H 0.68019 0.7464 0.63949 0.0
H2361 H 0.68552 0.82093 0.61437 0.0
H2362 H 0.65147 0.82726 0.62805 0.0
H2363 H 0.63682 0.76397 0.62048 0.0
C2364 C 0.71495 0.74785 0.60252 0.0
C2365 C 0.73418 0.75693 0.60197 0.0
C2366 C 0.73583 0.77817 0.60324 0.0
C2367 C 0.71852 0.7902 0.60528 0.0
C2368 C 0.69973 0.78074 0.60579 0.0
C2369 C 0.6979 0.76001 0.6045 0.0
C2370 C 0.67631 0.75328 0.6073 0.0
C2371 C 0.66812 0.74337 0.58802 0.0
C2372 C 0.67433 0.73906 0.6256 0.0
C2373 C 0.6663 0.77341 0.61114 0.0
C2374 C 0.67996 0.78913 0.60987 0.0
C2375 C 0.67461 0.80881 0.61501 0.0
C2376 C 0.65518 0.8123 0.62264 0.0
C2377 C 0.64145 0.79614 0.62518 0.0
C2378 C 0.64681 0.77672 0.61832 0.0
H2379 H 0.71746 0.21367 0.35387 0.0
H2380 H 0.69276 0.21721 0.41429 0.0
H2381 H 0.65911 0.20831 0.40117 0.0
H2382 H 0.67835 0.23816 0.33097 0.0
H2383 H 0.67831 0.22363 0.30799 0.0
H2384 H 0.70113 0.22606 0.32238 0.0
H2385 H 0.70415 0.18716 0.32464 0.0
H2386 H 0.68136 0.18458 0.31006 0.0
H2387 H 0.68336 0.17262 0.33439 0.0
H2388 H 0.62759 0.20379 0.38121 0.0
H2389 H 0.60046 0.20441 0.35562 0.0
H2390 H 0.6455 0.20476 0.30815 0.0
C2391 C 0.70509 0.2118 0.36436 0.0
C2392 C 0.70763 0.21583 0.38506 0.0
C2393 C 0.69104 0.21401 0.39836 0.0
C2394 C 0.67191 0.20889 0.39107 0.0
C2395 C 0.66966 0.2057 0.37044 0.0
C2396 C 0.6858 0.20699 0.35726 0.0
C2397 C 0.6789 0.20537 0.33558 0.0
C2398 C 0.6845 0.22444 0.32354 0.0
C2399 C 0.68745 0.18629 0.32558 0.0
C2400 C 0.65635 0.20371 0.33863 0.0
C2401 C 0.65133 0.20355 0.35884 0.0
C2402 C 0.63132 0.20355 0.36532 0.0
C2403 C 0.61602 0.20395 0.35072 0.0
C2404 C 0.62091 0.20458 0.32996 0.0
C2405 C 0.64132 0.2041 0.32392 0.0
H2406 H 0.74891 0.65885 0.29728 0.0
H2407 H 0.78873 0.6307 0.34089 0.0
H2408 H 0.78059 0.65767 0.36551 0.0
H2409 H 0.75957 0.71067 0.31015 0.0
H2410 H 0.73384 0.7186 0.30655 0.0
H2411 H 0.74371 0.69773 0.29226 0.0
H2412 H 0.71469 0.67501 0.30518 0.0
H2413 H 0.7047 0.69576 0.31954 0.0
H2414 H 0.7107 0.67233 0.33194 0.0
H2415 H 0.76747 0.68763 0.38535 0.0
H2416 H 0.74953 0.71725 0.39927 0.0
H2417 H 0.7177 0.72448 0.34256 0.0
C2418 C 0.75611 0.65844 0.31193 0.0
C2419 C 0.76956 0.64283 0.3172 0.0
C2420 C 0.77843 0.64263 0.3366 0.0
C2421 C 0.77393 0.65786 0.35062 0.0
C2422 C 0.76047 0.673 0.34494 0.0
C2423 C 0.75166 0.67332 0.32607 0.0
C2424 C 0.73706 0.69066 0.32385 0.0
C2425 C 0.74397 0.70528 0.30722 0.0
C2426 C 0.71552 0.68297 0.31991 0.0
C2427 C 0.73892 0.70007 0.34451 0.0
C2428 C 0.75261 0.68982 0.35642 0.0
C2429 C 0.75675 0.69578 0.37615 0.0
C2430 C 0.74652 0.7126 0.3839 0.0
C2431 C 0.73225 0.72307 0.37197 0.0
C2432 C 0.72852 0.71673 0.35203 0.0
H2433 H 0.25981 0.7599 0.3623 0.0
H2434 H 0.28148 0.7592 0.42398 0.0
H2435 H 0.31381 0.77389 0.41276 0.0
H2436 H 0.30241 0.74215 0.34157 0.0
H2437 H 0.30159 0.75673 0.31864 0.0
H2438 H 0.27865 0.75105 0.33184 0.0
H2439 H 0.27011 0.78912 0.33414 0.0
H2440 H 0.29298 0.79498 0.32065 0.0
H2441 H 0.2882 0.80634 0.34488 0.0
H2442 H 0.34557 0.78268 0.39416 0.0
H2443 H 0.37376 0.78514 0.3698 0.0
H2444 H 0.33129 0.77936 0.3204 0.0
C2445 C 0.27103 0.76367 0.37355 0.0
C2446 C 0.26812 0.75866 0.39401 0.0
C2447 C 0.28338 0.76314 0.40824 0.0
C2448 C 0.30177 0.77151 0.402 0.0
C2449 C 0.30457 0.77538 0.38153 0.0
C2450 C 0.28951 0.77179 0.36754 0.0
C2451 C 0.29712 0.77452 0.34621 0.0
C2452 C 0.29481 0.75495 0.33386 0.0
C2453 C 0.28647 0.7923 0.33587 0.0
C2454 C 0.31901 0.77929 0.35034 0.0
C2455 C 0.32299 0.78012 0.37078 0.0
C2456 C 0.34256 0.78252 0.37813 0.0
C2457 C 0.35847 0.78384 0.36421 0.0
C2458 C 0.35466 0.78251 0.34326 0.0
C2459 C 0.33464 0.78064 0.33633 0.0
H2460 H 0.26534 0.2824 0.35396 0.0
H2461 H 0.20639 0.26304 0.37463 0.0
H2462 H 0.19208 0.29602 0.36418 0.0
H2463 H 0.2616 0.33422 0.36911 0.0
H2464 H 0.27479 0.34345 0.3472 0.0
H2465 H 0.28023 0.31866 0.35687 0.0
H2466 H 0.27228 0.30298 0.32191 0.0
H2467 H 0.26709 0.32772 0.31208 0.0
H2468 H 0.24834 0.30814 0.31013 0.0
H2469 H 0.18456 0.33148 0.35096 0.0
H2470 H 0.18389 0.36453 0.33346 0.0
H2471 H 0.24799 0.35941 0.32166 0.0
C2472 C 0.24941 0.28507 0.35635 0.0
C2473 C 0.23694 0.27026 0.36516 0.0
C2474 C 0.21616 0.27424 0.36786 0.0
C2475 C 0.20797 0.29293 0.3621 0.0
C2476 C 0.22081 0.30732 0.35365 0.0
C2477 C 0.24105 0.30345 0.35063 0.0
C2478 C 0.25161 0.3209 0.34052 0.0
C2479 C 0.26802 0.32983 0.35425 0.0
C2480 C 0.26033 0.31455 0.31994 0.0
C2481 C 0.23414 0.33524 0.33812 0.0
C2482 C 0.2165 0.32734 0.34595 0.0
C2483 C 0.19831 0.33783 0.34487 0.0
C2484 C 0.19808 0.35661 0.33504 0.0
C2485 C 0.21591 0.36449 0.32632 0.0
C2486 C 0.23416 0.35381 0.3283 0.0
H2487 H 0.37986 0.24178 0.66642 0.0
H2488 H 0.35456 0.18219 0.67517 0.0
H2489 H 0.32927 0.18901 0.64869 0.0
H2490 H 0.3354 0.26563 0.66495 0.0
H2491 H 0.34184 0.28446 0.64642 0.0
H2492 H 0.36127 0.2733 0.66159 0.0
H2493 H 0.3805 0.26216 0.62944 0.0
H2494 H 0.36121 0.27359 0.61407 0.0
H2495 H 0.36767 0.24742 0.61053 0.0
H2496 H 0.30339 0.2042 0.62624 0.0
H2497 H 0.27857 0.22672 0.61005 0.0
H2498 H 0.31969 0.2771 0.61718 0.0
C2499 C 0.36961 0.22985 0.66201 0.0
C2500 C 0.36932 0.21133 0.67243 0.0
C2501 C 0.35513 0.19636 0.66705 0.0
C2502 C 0.34077 0.2001 0.65202 0.0
C2503 C 0.34078 0.21891 0.64264 0.0
C2504 C 0.35492 0.23354 0.64735 0.0
C2505 C 0.34971 0.25354 0.63763 0.0
C2506 C 0.34688 0.27019 0.6536 0.0
C2507 C 0.36573 0.25952 0.62199 0.0
C2508 C 0.32998 0.24814 0.62756 0.0
C2509 C 0.32534 0.22799 0.63019 0.0
C2510 C 0.30705 0.2199 0.62372 0.0
C2511 C 0.29302 0.23281 0.61461 0.0
C2512 C 0.29727 0.25361 0.61235 0.0
C2513 C 0.31615 0.26121 0.61853 0.0
H2514 H 0.7163 0.28145 0.61963 0.0
H2515 H 0.73166 0.23683 0.66494 0.0
H2516 H 0.75216 0.26224 0.68292 0.0
H2517 H 0.76474 0.30937 0.62014 0.0
H2518 H 0.7524 0.33342 0.61736 0.0
H2519 H 0.74127 0.31109 0.60656 0.0
H2520 H 0.70815 0.31798 0.62613 0.0
H2521 H 0.71912 0.34032 0.63689 0.0
H2522 H 0.70902 0.32102 0.65314 0.0
H2523 H 0.76796 0.29295 0.69763 0.0
H2524 H 0.77634 0.32727 0.70923 0.0
H2525 H 0.7505 0.35216 0.65453 0.0
C2526 C 0.72433 0.27693 0.63312 0.0
C2527 C 0.72256 0.25719 0.64087 0.0
C2528 C 0.73289 0.2519 0.65876 0.0
C2529 C 0.74466 0.26618 0.66898 0.0
C2530 C 0.74592 0.28561 0.66106 0.0
C2531 C 0.73598 0.29103 0.64357 0.0
C2532 C 0.73812 0.31337 0.63935 0.0
C2533 C 0.74984 0.31702 0.61968 0.0
C2534 C 0.71738 0.32378 0.63886 0.0
C2535 C 0.75029 0.31981 0.65755 0.0
C2536 C 0.75492 0.30349 0.66969 0.0
C2537 C 0.76471 0.3058 0.68811 0.0
C2538 C 0.76938 0.32535 0.69458 0.0
C2539 C 0.76417 0.3423 0.68269 0.0
C2540 C 0.75501 0.33943 0.66371 0.0
H2541 H 0.26499 0.63876 0.65875 0.0
H2542 H 0.21201 0.65229 0.69451 0.0
H2543 H 0.20782 0.68448 0.67631 0.0
H2544 H 0.28517 0.68545 0.66157 0.0
H2545 H 0.29554 0.68645 0.63646 0.0
H2546 H 0.29178 0.66251 0.64855 0.0
H2547 H 0.26974 0.65042 0.61863 0.0
H2548 H 0.27366 0.67431 0.60624 0.0
H2549 H 0.24842 0.66534 0.61081 0.0
H2550 H 0.21256 0.71722 0.65853 0.0
H2551 H 0.22582 0.74802 0.64215 0.0
H2552 H 0.2763 0.7136 0.61878 0.0
C2553 C 0.25204 0.64814 0.66207 0.0
C2554 C 0.23867 0.64307 0.67776 0.0
C2555 C 0.22231 0.65596 0.68237 0.0
C2556 C 0.21978 0.67421 0.67208 0.0
C2557 C 0.23375 0.6793 0.65726 0.0
C2558 C 0.24949 0.66657 0.65213 0.0
C2559 C 0.26395 0.67674 0.6377 0.0
C2560 C 0.28536 0.67786 0.64661 0.0
C2561 C 0.26393 0.66607 0.61712 0.0
C2562 C 0.2544 0.69741 0.63629 0.0
C2563 C 0.23677 0.69848 0.64732 0.0
C2564 C 0.22613 0.71649 0.6495 0.0
C2565 C 0.2338 0.7339 0.64025 0.0
C2566 C 0.25204 0.73314 0.62923 0.0
C2567 C 0.26223 0.71459 0.62701 0.0
H2568 H 0.1485 0.38189 0.28097 0.0
H2569 H 0.1636 0.41751 0.22839 0.0
H2570 H 0.13759 0.39955 0.20873 0.0
H2571 H 0.14905 0.33891 0.25754 0.0
H2572 H 0.12892 0.32642 0.27088 0.0
H2573 H 0.14243 0.34652 0.28281 0.0
H2574 H 0.10912 0.36599 0.28877 0.0
H2575 H 0.09532 0.34569 0.27704 0.0
H2576 H 0.09257 0.37111 0.26782 0.0
H2577 H 0.1167 0.373 0.19301 0.0
H2578 H 0.10463 0.33949 0.18222 0.0
H2579 H 0.10516 0.31932 0.24439 0.0
C2580 C 0.14547 0.38666 0.26564 0.0
C2581 C 0.15767 0.40127 0.25623 0.0
C2582 C 0.1541 0.40654 0.23589 0.0
C2583 C 0.1393 0.39646 0.22467 0.0
C2584 C 0.12835 0.38109 0.234 0.0
C2585 C 0.1312 0.37629 0.25414 0.0
C2586 C 0.12107 0.35654 0.2595 0.0
C2587 C 0.13628 0.34122 0.26816 0.0
C2588 C 0.10347 0.36005 0.27415 0.0
C2589 C 0.11349 0.3502 0.23895 0.0
C2590 C 0.11704 0.36494 0.22461 0.0
C2591 C 0.11337 0.36157 0.20417 0.0
C2592 C 0.10656 0.34248 0.19817 0.0
C2593 C 0.10402 0.32691 0.21252 0.0
C2594 C 0.10682 0.33107 0.23317 0.0
H2595 H 0.65552 0.11227 0.20992 0.0
H2596 H 0.66074 0.07712 0.26464 0.0
H2597 H 0.62742 0.08947 0.27579 0.0
H2598 H 0.64197 0.15357 0.2326 0.0
H2599 H 0.62482 0.16326 0.21387 0.0
H2600 H 0.6444 0.14621 0.20653 0.0
H2601 H 0.61792 0.12206 0.19097 0.0
H2602 H 0.59811 0.13922 0.19824 0.0
H2603 H 0.59717 0.11323 0.20614 0.0
H2604 H 0.59851 0.11103 0.28455 0.0
H2605 H 0.57945 0.14197 0.29206 0.0
H2606 H 0.59444 0.16559 0.233 0.0
C2607 C 0.64906 0.10636 0.22371 0.0
C2608 C 0.66033 0.09346 0.23626 0.0
C2609 C 0.65207 0.08676 0.25471 0.0
C2610 C 0.63311 0.09361 0.26106 0.0
C2611 C 0.62277 0.10731 0.24886 0.0
C2612 C 0.63051 0.11363 0.23051 0.0
C2613 C 0.61917 0.13175 0.22249 0.0
C2614 C 0.63344 0.14974 0.21869 0.0
C2615 C 0.60739 0.12622 0.20333 0.0
C2616 C 0.60501 0.13569 0.23994 0.0
C2617 C 0.60659 0.12084 0.25452 0.0
C2618 C 0.59677 0.12247 0.27305 0.0
C2619 C 0.58596 0.14013 0.27719 0.0
C2620 C 0.58555 0.15612 0.26307 0.0
C2621 C 0.59435 0.15344 0.24391 0.0
H2622 H 0.84516 0.62208 0.27529 0.0
H2623 H 0.82892 0.58825 0.22183 0.0
H2624 H 0.85787 0.60306 0.20368 0.0
H2625 H 0.85193 0.66505 0.25202 0.0
H2626 H 0.87269 0.6745 0.2668 0.0
H2627 H 0.85566 0.65651 0.27757 0.0
H2628 H 0.88548 0.63256 0.28551 0.0
H2629 H 0.90275 0.65067 0.27483 0.0
H2630 H 0.90243 0.6251 0.26561 0.0
H2631 H 0.8829 0.62683 0.18932 0.0
H2632 H 0.9 0.65844 0.17961 0.0
H2633 H 0.89882 0.67814 0.24192 0.0
C2634 C 0.84833 0.61704 0.26009 0.0
C2635 C 0.83505 0.60387 0.25 0.0
C2636 C 0.83912 0.59817 0.22986 0.0
C2637 C 0.85559 0.60643 0.21948 0.0
C2638 C 0.8678 0.62034 0.2295 0.0
C2639 C 0.86442 0.6255 0.24945 0.0
C2640 C 0.8769 0.64359 0.25561 0.0
C2641 C 0.86349 0.66092 0.26343 0.0
C2642 C 0.89284 0.63762 0.27132 0.0
C2643 C 0.88661 0.64877 0.23564 0.0
C2644 C 0.88185 0.63473 0.22095 0.0
C2645 C 0.88716 0.63762 0.20079 0.0
C2646 C 0.89687 0.65563 0.1954 0.0
C2647 C 0.9007 0.67064 0.21006 0.0
C2648 C 0.89625 0.66676 0.23049 0.0
H2649 H 0.39422 0.82162 0.2445 0.0
H2650 H 0.39341 0.84942 0.3036 0.0
H2651 H 0.37712 0.87958 0.28915 0.0
H2652 H 0.39801 0.87161 0.21363 0.0
H2653 H 0.38169 0.86096 0.19467 0.0
H2654 H 0.39923 0.84504 0.20802 0.0
H2655 H 0.36977 0.82162 0.21849 0.0
H2656 H 0.35222 0.83745 0.20549 0.0
H2657 H 0.34857 0.83213 0.23191 0.0
H2658 H 0.35246 0.90091 0.27121 0.0
H2659 H 0.32324 0.91212 0.25115 0.0
H2660 H 0.34055 0.87139 0.20309 0.0
C2661 C 0.39148 0.83449 0.25417 0.0
C2662 C 0.39501 0.83329 0.27509 0.0
C2663 C 0.39098 0.85017 0.28746 0.0
C2664 C 0.38176 0.86738 0.27935 0.0
C2665 C 0.37714 0.86757 0.25881 0.0
C2666 C 0.38233 0.85172 0.24626 0.0
C2667 C 0.37279 0.85389 0.22564 0.0
C2668 C 0.38889 0.85814 0.20954 0.0
C2669 C 0.36008 0.83518 0.2201 0.0
C2670 C 0.35976 0.87225 0.22919 0.0
C2671 C 0.36295 0.88034 0.24818 0.0
C2672 C 0.35035 0.89522 0.25606 0.0
C2673 C 0.33372 0.90143 0.24461 0.0
C2674 C 0.32982 0.89269 0.22555 0.0
C2675 C 0.34353 0.87866 0.21742 0.0
H2676 H 0.11935 0.64705 0.7257 0.0
H2677 H 0.10903 0.62455 0.78611 0.0
H2678 H 0.1298 0.59488 0.77869 0.0
H2679 H 0.12744 0.59256 0.70077 0.0
H2680 H 0.14633 0.60348 0.68456 0.0
H2681 H 0.12424 0.61784 0.69131 0.0
H2682 H 0.14724 0.64653 0.70433 0.0
H2683 H 0.16922 0.63231 0.69808 0.0
H2684 H 0.16569 0.6411 0.72358 0.0
H2685 H 0.1614 0.57807 0.77098 0.0
H2686 H 0.19673 0.57193 0.76096 0.0
H2687 H 0.18584 0.60156 0.70395 0.0
C2688 C 0.12047 0.63519 0.73686 0.0
C2689 C 0.11288 0.63815 0.75649 0.0
C2690 C 0.11476 0.62259 0.77094 0.0
C2691 C 0.12655 0.6056 0.76683 0.0
C2692 C 0.13582 0.60413 0.74801 0.0
C2693 C 0.13219 0.61809 0.73286 0.0
C2694 C 0.14663 0.61521 0.71539 0.0
C2695 C 0.13549 0.60676 0.69691 0.0
C2696 C 0.15785 0.63494 0.71009 0.0
C2697 C 0.16063 0.59955 0.72428 0.0
C2698 C 0.15383 0.59289 0.74289 0.0
C2699 C 0.1664 0.5822 0.756 0.0
C2700 C 0.18647 0.57886 0.75031 0.0
C2701 C 0.19358 0.58581 0.73151 0.0
C2702 C 0.18029 0.59534 0.718 0.0
H2703 H 0.38172 0.14675 0.71089 0.0
H2704 H 0.41418 0.14775 0.76726 0.0
H2705 H 0.39777 0.11603 0.77746 0.0
H2706 H 0.33936 0.1408 0.73021 0.0
H2707 H 0.32726 0.12448 0.71212 0.0
H2708 H 0.34794 0.13989 0.70439 0.0
H2709 H 0.36736 0.10849 0.69185 0.0
H2710 H 0.34641 0.09279 0.69927 0.0
H2711 H 0.37137 0.08746 0.70859 0.0
H2712 H 0.37092 0.0931 0.78655 0.0
H2713 H 0.33621 0.08277 0.79433 0.0
H2714 H 0.31806 0.0977 0.73339 0.0
C2715 C 0.38637 0.13927 0.72465 0.0
C2716 C 0.39959 0.14903 0.73805 0.0
C2717 C 0.40455 0.13996 0.7566 0.0
C2718 C 0.39524 0.12193 0.76246 0.0
C2719 C 0.38072 0.11349 0.74974 0.0
C2720 C 0.37644 0.12177 0.731 0.0
C2721 C 0.35677 0.1136 0.72267 0.0
C2722 C 0.34199 0.13071 0.71707 0.0
C2723 C 0.36072 0.09976 0.70452 0.0
C2724 C 0.34947 0.10155 0.74063 0.0
C2725 C 0.36401 0.10068 0.75559 0.0
C2726 C 0.35967 0.09313 0.77474 0.0
C2727 C 0.33983 0.08738 0.77908 0.0
C2728 C 0.3245 0.08957 0.76444 0.0
C2729 C 0.32962 0.09565 0.74472 0.0
H2730 H 0.81867 0.39847 0.75749 0.0
H2731 H 0.8351 0.4034 0.69442 0.0
H2732 H 0.86964 0.39258 0.70256 0.0
H2733 H 0.87196 0.41145 0.77888 0.0
H2734 H 0.86829 0.39339 0.79887 0.0
H2735 H 0.84716 0.40757 0.78931 0.0
H2736 H 0.82814 0.37418 0.78223 0.0
H2737 H 0.84912 0.35999 0.79153 0.0
H2738 H 0.83978 0.35536 0.76642 0.0
H2739 H 0.89726 0.37149 0.71498 0.0
H2740 H 0.91686 0.34449 0.73149 0.0
H2741 H 0.88467 0.35499 0.78725 0.0
C2742 C 0.82984 0.39819 0.74559 0.0
C2743 C 0.82428 0.40171 0.72536 0.0
C2744 C 0.8391 0.40086 0.71005 0.0
C2745 C 0.8588 0.3948 0.71456 0.0
C2746 C 0.86352 0.39011 0.7345 0.0
C2747 C 0.8496 0.39226 0.74991 0.0
C2748 C 0.85736 0.3833 0.76943 0.0
C2749 C 0.86144 0.39992 0.78504 0.0
C2750 C 0.84275 0.36726 0.77786 0.0
C2751 C 0.87686 0.37399 0.76211 0.0
C2752 C 0.8804 0.37851 0.74202 0.0
C2753 C 0.89524 0.36856 0.73091 0.0
C2754 C 0.90624 0.35321 0.74033 0.0
C2755 C 0.9025 0.3482 0.76068 0.0
C2756 C 0.8883 0.35927 0.77191 0.0
H2757 H 0.70868 0.86091 0.77171 0.0
H2758 H 0.68926 0.92248 0.76123 0.0
H2759 H 0.66097 0.90988 0.74029 0.0
H2760 H 0.69837 0.84193 0.72306 0.0
H2761 H 0.68971 0.81775 0.73197 0.0
H2762 H 0.70781 0.83182 0.74647 0.0
H2763 H 0.6842 0.83023 0.77762 0.0
H2764 H 0.66598 0.81618 0.76318 0.0
H2765 H 0.65867 0.83928 0.77551 0.0
H2766 H 0.63594 0.89013 0.7189 0.0
H2767 H 0.61601 0.86506 0.69963 0.0
H2768 H 0.65168 0.81686 0.72577 0.0
C2769 C 0.69847 0.87177 0.76504 0.0
C2770 C 0.70115 0.89265 0.76793 0.0
C2771 C 0.68741 0.9064 0.75913 0.0
C2772 C 0.67133 0.89938 0.74726 0.0
C2773 C 0.66916 0.87861 0.74465 0.0
C2774 C 0.68231 0.86504 0.75343 0.0
C2775 C 0.67695 0.84353 0.74825 0.0
C2776 C 0.69424 0.83316 0.73675 0.0
C2777 C 0.6711 0.83161 0.76727 0.0
C2778 C 0.65894 0.84706 0.73482 0.0
C2779 C 0.65459 0.86736 0.7329 0.0
C2780 C 0.63908 0.8742 0.72047 0.0
C2781 C 0.62787 0.85988 0.70959 0.0
C2782 C 0.63225 0.83906 0.71135 0.0
C2783 C 0.64783 0.83266 0.72431 0.0
H2784 H 0.21481 0.16476 0.38078 0.0
H2785 H 0.27578 0.14739 0.39625 0.0
H2786 H 0.2698 0.11366 0.3821 0.0
H2787 H 0.19169 0.10966 0.38467 0.0
H2788 H 0.17556 0.1154 0.36356 0.0
H2789 H 0.18167 0.13475 0.38168 0.0
H2790 H 0.19462 0.15753 0.35274 0.0
H2791 H 0.18878 0.13839 0.3347 0.0
H2792 H 0.21409 0.14821 0.33618 0.0
H2793 H 0.26246 0.08882 0.35601 0.0
H2794 H 0.25309 0.07409 0.32317 0.0
H2795 H 0.19565 0.10477 0.32572 0.0
C2796 C 0.22647 0.15343 0.38217 0.0
C2797 C 0.24574 0.15864 0.38946 0.0
C2798 C 0.26085 0.14367 0.3908 0.0
C2799 C 0.25754 0.12439 0.38283 0.0
C2800 C 0.23889 0.12019 0.37405 0.0
C2801 C 0.22331 0.1341 0.37429 0.0
C2802 C 0.20613 0.12745 0.36079 0.0
C2803 C 0.18767 0.12145 0.37343 0.0
C2804 C 0.20064 0.14385 0.34519 0.0
C2805 C 0.21554 0.10912 0.35096 0.0
C2806 C 0.23418 0.10475 0.3593 0.0
C2807 C 0.24753 0.09139 0.34997 0.0
C2808 C 0.24215 0.08311 0.33128 0.0
C2809 C 0.22351 0.08804 0.32228 0.0
C2810 C 0.20964 0.1002 0.33279 0.0
H2811 H 0.88018 0.19104 0.32753 0.0
H2812 H 0.903 0.252 0.32274 0.0
H2813 H 0.88517 0.26112 0.35423 0.0
H2814 H 0.83343 0.20504 0.33666 0.0
H2815 H 0.82651 0.18489 0.35355 0.0
H2816 H 0.84623 0.18109 0.33548 0.0
H2817 H 0.87096 0.17125 0.36407 0.0
H2818 H 0.85116 0.17485 0.38236 0.0
H2819 H 0.87472 0.18813 0.38505 0.0
H2820 H 0.86016 0.26528 0.3817 0.0
H2821 H 0.82782 0.26551 0.39999 0.0
H2822 H 0.81853 0.20267 0.38453 0.0
C2823 C 0.88228 0.20599 0.33377 0.0
C2824 C 0.89334 0.22072 0.32319 0.0
C2825 C 0.8949 0.24047 0.331 0.0
C2826 C 0.8849 0.2457 0.34889 0.0
C2827 C 0.87321 0.23106 0.35852 0.0
C2828 C 0.8718 0.21158 0.35115 0.0
C2829 C 0.85497 0.19997 0.36132 0.0
C2830 C 0.83938 0.19233 0.34583 0.0
C2831 C 0.86347 0.18252 0.37396 0.0
C2832 C 0.84632 0.2163 0.37466 0.0
C2833 C 0.85757 0.23384 0.3735 0.0
C2834 C 0.85148 0.25153 0.38305 0.0
C2835 C 0.83307 0.25152 0.3934 0.0
C2836 C 0.82075 0.23409 0.39362 0.0
C2837 C 0.82781 0.21612 0.38474 0.0
H2838 H 0.77647 0.85805 0.2928 0.0
H2839 H 0.79536 0.90397 0.33539 0.0
H2840 H 0.77451 0.8877 0.36194 0.0
H2841 H 0.72542 0.8521 0.31033 0.0
H2842 H 0.72552 0.82521 0.30632 0.0
H2843 H 0.74093 0.8413 0.29078 0.0
H2844 H 0.77263 0.82063 0.30059 0.0
H2845 H 0.75734 0.80445 0.3161 0.0
H2846 H 0.77874 0.81726 0.32687 0.0
H2847 H 0.75162 0.86534 0.38389 0.0
H2848 H 0.73097 0.83817 0.39936 0.0
H2849 H 0.72886 0.80731 0.34173 0.0
C2850 C 0.7761 0.86486 0.30765 0.0
C2851 C 0.78736 0.88232 0.31207 0.0
C2852 C 0.78675 0.89058 0.33175 0.0
C2853 C 0.77492 0.8815 0.34685 0.0
C2854 C 0.76399 0.86418 0.34194 0.0
C2855 C 0.76465 0.85594 0.32279 0.0
C2856 C 0.75256 0.83674 0.32138 0.0
C2857 C 0.73507 0.83899 0.30631 0.0
C2858 C 0.76613 0.81871 0.31592 0.0
C2859 C 0.74498 0.8353 0.34275 0.0
C2860 C 0.75149 0.85129 0.35444 0.0
C2861 C 0.74643 0.85279 0.37483 0.0
C2862 C 0.73469 0.83737 0.38347 0.0
C2863 C 0.72842 0.82069 0.37171 0.0
C2864 C 0.73348 0.81987 0.3511 0.0
H2865 H 0.15819 0.7131 0.37769 0.0
H2866 H 0.16801 0.76505 0.41604 0.0
H2867 H 0.13844 0.7818 0.40092 0.0
H2868 H 0.15174 0.73865 0.33617 0.0
H2869 H 0.13275 0.72304 0.32454 0.0
H2870 H 0.14956 0.71234 0.34275 0.0
H2871 H 0.11921 0.70049 0.36431 0.0
H2872 H 0.10216 0.7111 0.34597 0.0
H2873 H 0.10037 0.71847 0.37208 0.0
H2874 H 0.11392 0.79591 0.37669 0.0
H2875 H 0.09823 0.80668 0.34471 0.0
H2876 H 0.10521 0.74619 0.32097 0.0
C2877 C 0.15346 0.72757 0.38359 0.0
C2878 C 0.16514 0.73773 0.39813 0.0
C2879 C 0.15907 0.75697 0.40501 0.0
C2880 C 0.14222 0.76653 0.39659 0.0
C2881 C 0.13164 0.75661 0.38135 0.0
C2882 C 0.13695 0.73743 0.37501 0.0
C2883 C 0.126 0.73166 0.35584 0.0
C2884 C 0.1409 0.72613 0.33884 0.0
C2885 C 0.11104 0.71441 0.3598 0.0
C2886 C 0.11504 0.75116 0.35146 0.0
C2887 C 0.11778 0.76509 0.36675 0.0
C2888 C 0.11119 0.78498 0.36488 0.0
C2889 C 0.10232 0.79098 0.34665 0.0
C2890 C 0.10056 0.77722 0.33045 0.0
C2891 C 0.10619 0.75692 0.33325 0.0
H2892 H 0.22789 0.83715 0.61602 0.0
H2893 H 0.29059 0.85449 0.61089 0.0
H2894 H 0.28443 0.88356 0.63305 0.0
H2895 H 0.20725 0.89281 0.62486 0.0
H2896 H 0.18882 0.88271 0.64211 0.0
H2897 H 0.19606 0.8685 0.62006 0.0
H2898 H 0.20498 0.83816 0.64292 0.0
H2899 H 0.19822 0.8522 0.66491 0.0
H2900 H 0.2231 0.84147 0.66294 0.0
H2901 H 0.27553 0.90042 0.66462 0.0
H2902 H 0.2629 0.90727 0.699 0.0
H2903 H 0.20488 0.88242 0.68271 0.0
C2904 C 0.23996 0.84783 0.61862 0.0
C2905 C 0.25967 0.84361 0.61191 0.0
C2906 C 0.27531 0.85756 0.61577 0.0
C2907 C 0.27193 0.87416 0.62839 0.0
C2908 C 0.2527 0.87689 0.63645 0.0
C2909 C 0.23671 0.86457 0.63106 0.0
C2910 C 0.21848 0.86847 0.64426 0.0
C2911 C 0.20166 0.87874 0.63209 0.0
C2912 C 0.21079 0.84893 0.65435 0.0
C2913 C 0.2275 0.8829 0.65945 0.0
C2914 C 0.24712 0.88801 0.65442 0.0
C2915 C 0.2599 0.89747 0.66825 0.0
C2916 C 0.2527 0.9012 0.68778 0.0
C2917 C 0.23283 0.8958 0.69313 0.0
C2918 C 0.21985 0.88744 0.67856 0.0
H2919 H 0.20287 0.24211 0.61112 0.0
H2920 H 0.18117 0.30362 0.60644 0.0
H2921 H 0.14993 0.2939 0.62421 0.0
H2922 H 0.15194 0.21685 0.60681 0.0
H2923 H 0.15912 0.19778 0.6248 0.0
H2924 H 0.17783 0.20874 0.60839 0.0
H2925 H 0.19922 0.21852 0.6396 0.0
H2926 H 0.18053 0.2079 0.65608 0.0
H2927 H 0.18808 0.23383 0.65913 0.0
H2928 H 0.12457 0.27914 0.64789 0.0
H2929 H 0.10552 0.25967 0.67336 0.0
H2930 H 0.14316 0.20752 0.6616 0.0
C2931 C 0.19124 0.25337 0.61322 0.0
C2932 C 0.19435 0.27358 0.60739 0.0
C2933 C 0.17897 0.288 0.61066 0.0
C2934 C 0.16119 0.28262 0.62075 0.0
C2935 C 0.15895 0.26271 0.6271 0.0
C2936 C 0.17339 0.24821 0.62313 0.0
C2937 C 0.16828 0.22837 0.63317 0.0
C2938 C 0.16403 0.21197 0.61734 0.0
C2939 C 0.18502 0.22179 0.64786 0.0
C2940 C 0.14927 0.23425 0.64427 0.0
C2941 C 0.144 0.25406 0.64043 0.0
C2942 C 0.12821 0.26347 0.6506 0.0
C2943 C 0.11758 0.25236 0.66512 0.0
C2944 C 0.1228 0.23209 0.66923 0.0
C2945 C 0.13861 0.22288 0.65842 0.0
H2946 H 0.75452 0.10827 0.69448 0.0
H2947 H 0.80963 0.11191 0.65954 0.0
H2948 H 0.79049 0.12592 0.63086 0.0
H2949 H 0.71878 0.09894 0.64962 0.0
H2950 H 0.69974 0.11435 0.66139 0.0
H2951 H 0.71654 0.09945 0.67672 0.0
H2952 H 0.72686 0.13159 0.6964 0.0
H2953 H 0.71038 0.14657 0.68111 0.0
H2954 H 0.73675 0.15294 0.68275 0.0
H2955 H 0.76765 0.14701 0.61005 0.0
H2956 H 0.74273 0.17201 0.59829 0.0
H2957 H 0.70211 0.15409 0.64627 0.0
C2958 C 0.76239 0.11123 0.68048 0.0
C2959 C 0.78349 0.10902 0.67915 0.0
C2960 C 0.79341 0.11334 0.66077 0.0
C2961 C 0.78264 0.12126 0.64439 0.0
C2962 C 0.76195 0.12435 0.64657 0.0
C2963 C 0.75185 0.11907 0.66404 0.0
C2964 C 0.7303 0.12653 0.66381 0.0
C2965 C 0.71546 0.10875 0.66282 0.0
C2966 C 0.72584 0.14022 0.68208 0.0
C2967 C 0.73033 0.13827 0.64428 0.0
C2968 C 0.74855 0.13641 0.63427 0.0
C2969 C 0.7531 0.14807 0.61737 0.0
C2970 C 0.73892 0.16231 0.61087 0.0
C2971 C 0.72049 0.1648 0.62132 0.0
C2972 C 0.71591 0.15214 0.63775 0.0
H2973 H 0.84281 0.70349 0.62238 0.0
H2974 H 0.84544 0.76427 0.59887 0.0
H2975 H 0.87318 0.77221 0.62248 0.0
H2976 H 0.84249 0.71761 0.66952 0.0
H2977 H 0.85672 0.69707 0.6802 0.0
H2978 H 0.8433 0.69347 0.65703 0.0
H2979 H 0.87618 0.68231 0.63918 0.0
H2980 H 0.8898 0.6856 0.66249 0.0
H2981 H 0.89808 0.69839 0.63998 0.0
H2982 H 0.89463 0.77578 0.65271 0.0
H2983 H 0.90517 0.77606 0.68833 0.0
H2984 H 0.88561 0.714 0.6947 0.0
C2985 C 0.85013 0.71806 0.62143 0.0
C2986 C 0.84259 0.73312 0.60849 0.0
C2987 C 0.85149 0.75246 0.60838 0.0
C2988 C 0.86726 0.75702 0.6217 0.0
C2989 C 0.87363 0.74217 0.63521 0.0
C2990 C 0.86528 0.72303 0.63518 0.0
C2991 C 0.87106 0.71136 0.65396 0.0
C2992 C 0.85228 0.70451 0.66586 0.0
C2993 C 0.88459 0.69335 0.64857 0.0
C2994 C 0.88279 0.72736 0.66521 0.0
C2995 C 0.88489 0.74469 0.65375 0.0
C2996 C 0.89346 0.76217 0.66165 0.0
C2997 C 0.89937 0.7622 0.68193 0.0
C2998 C 0.89615 0.74503 0.69421 0.0
C2999 C 0.88841 0.72723 0.68554 0.0
H3000 H 0.3291 0.26136 0.08979 0.0
H3001 H 0.35326 0.20073 0.09088 0.0
H3002 H 0.38294 0.21291 0.10945 0.0
H3003 H 0.3819 0.28949 0.09255 0.0
H3004 H 0.37051 0.30826 0.10857 0.0
H3005 H 0.35613 0.297 0.08841 0.0
H3006 H 0.32856 0.28684 0.1141 0.0
H3007 H 0.34282 0.29768 0.13421 0.0
H3008 H 0.33535 0.27157 0.13557 0.0
H3009 H 0.40173 0.22776 0.13729 0.0
H3010 H 0.40894 0.24441 0.16971 0.0
H3011 H 0.37407 0.29626 0.15094 0.0
C3012 C 0.34123 0.25092 0.09297 0.0
C3013 C 0.33891 0.23016 0.08906 0.0
C3014 C 0.3548 0.21675 0.09367 0.0
C3015 C 0.37179 0.22359 0.10419 0.0
C3016 C 0.37278 0.2439 0.10961 0.0
C3017 C 0.35816 0.25756 0.10362 0.0
C3018 C 0.36039 0.27746 0.11464 0.0
C3019 C 0.36768 0.29403 0.10018 0.0
C3020 C 0.34063 0.2837 0.12526 0.0
C3021 C 0.37673 0.27197 0.12958 0.0
C3022 C 0.38428 0.25285 0.12591 0.0
C3023 C 0.3966 0.24303 0.13986 0.0
C3024 C 0.40052 0.25253 0.15831 0.0
C3025 C 0.39215 0.27164 0.16262 0.0
C3026 C 0.38108 0.28188 0.14768 0.0
H3027 H 0.40975 0.71772 0.83465 0.0
H3028 H 0.41969 0.78217 0.83241 0.0
H3029 H 0.40488 0.78559 0.86642 0.0
H3030 H 0.3635 0.72089 0.84886 0.0
H3031 H 0.36232 0.69905 0.86503 0.0
H3032 H 0.38076 0.70017 0.8454 0.0
H3033 H 0.40924 0.69454 0.87153 0.0
H3034 H 0.3907 0.69332 0.8914 0.0
H3035 H 0.41128 0.71101 0.89306 0.0
H3036 H 0.38182 0.7835 0.8954 0.0
H3037 H 0.35001 0.77724 0.91344 0.0
H3038 H 0.35208 0.71448 0.8955 0.0
C3039 C 0.40984 0.73237 0.84186 0.0
C3040 C 0.41616 0.74964 0.83119 0.0
C3041 C 0.41521 0.76874 0.84056 0.0
C3042 C 0.40692 0.77076 0.85992 0.0
C3043 C 0.39951 0.75356 0.86959 0.0
C3044 C 0.40094 0.73465 0.86082 0.0
C3045 C 0.38765 0.71946 0.87153 0.0
C3046 C 0.37268 0.70935 0.85683 0.0
C3047 C 0.40049 0.70365 0.88254 0.0
C3048 C 0.37706 0.73313 0.8864 0.0
C3049 C 0.38491 0.75248 0.88585 0.0
C3050 C 0.3759 0.76832 0.89634 0.0
C3051 C 0.3578 0.76462 0.9066 0.0
C3052 C 0.34864 0.74536 0.90576 0.0
C3053 C 0.35898 0.72925 0.89655 0.0
H3054 H 0.19528 0.33883 0.87172 0.0
H3055 H 0.24252 0.33378 0.91629 0.0
H3056 H 0.25751 0.36553 0.90419 0.0
H3057 H 0.2243 0.34706 0.83476 0.0
H3058 H 0.20952 0.36481 0.82042 0.0
H3059 H 0.19727 0.34799 0.83756 0.0
H3060 H 0.18107 0.37815 0.85629 0.0
H3061 H 0.19315 0.39524 0.8389 0.0
H3062 H 0.19677 0.39827 0.86567 0.0
H3063 H 0.27312 0.38958 0.88156 0.0
H3064 H 0.28827 0.40285 0.85041 0.0
H3065 H 0.23228 0.39221 0.81855 0.0
C3066 C 0.20798 0.34527 0.87971 0.0
C3067 C 0.21758 0.3343 0.89513 0.0
C3068 C 0.23481 0.34231 0.90468 0.0
C3069 C 0.24336 0.36037 0.89792 0.0
C3070 C 0.23457 0.37011 0.88146 0.0
C3071 C 0.21704 0.36296 0.87258 0.0
C3072 C 0.21339 0.37296 0.85234 0.0
C3073 C 0.21102 0.35727 0.8353 0.0
C3074 C 0.19501 0.387 0.85337 0.0
C3075 C 0.23268 0.385 0.85021 0.0
C3076 C 0.24421 0.38396 0.86758 0.0
C3077 C 0.26398 0.39108 0.86813 0.0
C3078 C 0.27253 0.39851 0.85031 0.0
C3079 C 0.26138 0.39853 0.83215 0.0
C3080 C 0.24094 0.39271 0.83238 0.0
H3081 H 0.63385 0.31336 0.79799 0.0
H3082 H 0.58282 0.27644 0.8156 0.0
H3083 H 0.60403 0.25951 0.84133 0.0
H3084 H 0.6712 0.27633 0.80211 0.0
H3085 H 0.6901 0.29312 0.81209 0.0
H3086 H 0.67052 0.30282 0.79604 0.0
H3087 H 0.66046 0.32859 0.82369 0.0
H3088 H 0.68005 0.31897 0.83986 0.0
H3089 H 0.65435 0.31973 0.84866 0.0
H3090 H 0.63191 0.24511 0.86336 0.0
H3091 H 0.66363 0.23523 0.88043 0.0
H3092 H 0.69536 0.28285 0.84868 0.0
C3093 C 0.6271 0.30178 0.80733 0.0
C3094 C 0.60681 0.29606 0.80482 0.0
C3095 C 0.5984 0.28099 0.81738 0.0
C3096 C 0.6103 0.27134 0.83199 0.0
C3097 C 0.63039 0.27724 0.83396 0.0
C3098 C 0.63862 0.29227 0.82207 0.0
C3099 C 0.66061 0.29569 0.82679 0.0
C3100 C 0.67388 0.29175 0.80815 0.0
C3101 C 0.66406 0.31701 0.83526 0.0
C3102 C 0.66371 0.27983 0.84279 0.0
C3103 C 0.64614 0.26937 0.84686 0.0
C3104 C 0.64569 0.25336 0.86048 0.0
C3105 C 0.66374 0.24784 0.87007 0.0
C3106 C 0.68186 0.25836 0.86592 0.0
C3107 C 0.68169 0.27466 0.8523 0.0
H3108 H 0.66258 0.62639 0.79437 0.0
H3109 H 0.71143 0.58439 0.80493 0.0
H3110 H 0.71597 0.59838 0.8392 0.0
H3111 H 0.68668 0.6661 0.81196 0.0
H3112 H 0.66549 0.67889 0.82319 0.0
H3113 H 0.66148 0.66161 0.8028 0.0
H3114 H 0.63656 0.64103 0.82478 0.0
H3115 H 0.64041 0.65842 0.84534 0.0
H3116 H 0.64448 0.63181 0.8491 0.0
H3117 H 0.71974 0.62095 0.86881 0.0
H3118 H 0.72471 0.65153 0.88933 0.0
H3119 H 0.67506 0.6805 0.85829 0.0
C3120 C 0.67357 0.6195 0.80428 0.0
C3121 C 0.68644 0.60412 0.79725 0.0
C3122 C 0.70126 0.59601 0.81023 0.0
C3123 C 0.70384 0.6038 0.82974 0.0
C3124 C 0.69152 0.61971 0.83592 0.0
C3125 C 0.67664 0.62747 0.82353 0.0
C3126 C 0.66823 0.64701 0.83179 0.0
C3127 C 0.67064 0.66441 0.81654 0.0
C3128 C 0.64611 0.6444 0.83814 0.0
C3129 C 0.68167 0.64982 0.84998 0.0
C3130 C 0.69441 0.63351 0.85261 0.0
C3131 C 0.70955 0.63358 0.86718 0.0
C3132 C 0.71227 0.65104 0.87877 0.0
C3133 C 0.70023 0.66833 0.87534 0.0
C3134 C 0.68428 0.66738 0.86134 0.0
H3135 H 0.66001 0.78389 0.1395 0.0
H3136 H 0.67416 0.73289 0.10111 0.0
H3137 H 0.64523 0.71419 0.11532 0.0
H3138 H 0.65108 0.75683 0.18152 0.0
H3139 H 0.63089 0.77224 0.1912 0.0
H3140 H 0.64942 0.78312 0.17476 0.0
H3141 H 0.62109 0.79482 0.15047 0.0
H3142 H 0.60241 0.78382 0.1669 0.0
H3143 H 0.60341 0.77663 0.1407 0.0
H3144 H 0.61874 0.69922 0.13742 0.0
H3145 H 0.59901 0.68842 0.16709 0.0
H3146 H 0.60251 0.74903 0.19137 0.0
C3147 C 0.65662 0.76903 0.13364 0.0
C3148 C 0.66916 0.75984 0.11916 0.0
C3149 C 0.66462 0.7402 0.11217 0.0
C3150 C 0.64813 0.72955 0.12002 0.0
C3151 C 0.63632 0.73883 0.13474 0.0
C3152 C 0.64036 0.75818 0.14144 0.0
C3153 C 0.62742 0.76367 0.15939 0.0
C3154 C 0.64049 0.76927 0.17779 0.0
C3155 C 0.61271 0.78075 0.15404 0.0
C3156 C 0.61638 0.74398 0.16254 0.0
C3157 C 0.6212 0.73004 0.1478 0.0
C3158 C 0.61448 0.71013 0.14878 0.0
C3159 C 0.60326 0.70412 0.16568 0.0
C3160 C 0.59924 0.71794 0.18144 0.0
C3161 C 0.60516 0.73825 0.17939 0.0
H3162 H 0.24797 0.61561 0.19815 0.0
H3163 H 0.30292 0.60623 0.16399 0.0
H3164 H 0.28707 0.62217 0.13421 0.0
H3165 H 0.21205 0.60845 0.15489 0.0
H3166 H 0.19554 0.6278 0.16446 0.0
H3167 H 0.21003 0.61256 0.18169 0.0
H3168 H 0.22521 0.64497 0.19744 0.0
H3169 H 0.21096 0.66025 0.18022 0.0
H3170 H 0.23798 0.66284 0.18141 0.0
H3171 H 0.26738 0.64426 0.11053 0.0
H3172 H 0.24478 0.66905 0.09424 0.0
H3173 H 0.20245 0.6628 0.14371 0.0
C3174 C 0.25647 0.6164 0.18423 0.0
C3175 C 0.27662 0.60972 0.18329 0.0
C3176 C 0.28738 0.61115 0.16492 0.0
C3177 C 0.27851 0.62016 0.14796 0.0
C3178 C 0.25878 0.62726 0.14961 0.0
C3179 C 0.24779 0.62516 0.1672 0.0
C3180 C 0.22758 0.63556 0.16577 0.0
C3181 C 0.21028 0.62017 0.16675 0.0
C3182 C 0.22532 0.65187 0.18217 0.0
C3183 C 0.2293 0.64474 0.145 0.0
C3184 C 0.24728 0.63961 0.13578 0.0
C3185 C 0.25304 0.64798 0.11737 0.0
C3186 C 0.24018 0.6621 0.10829 0.0
C3187 C 0.22184 0.66765 0.11767 0.0
C3188 C 0.21621 0.65852 0.13602 0.0
H3189 H 0.73888 0.36846 0.21833 0.0
H3190 H 0.68153 0.38292 0.19046 0.0
H3191 H 0.69213 0.3651 0.15946 0.0
H3192 H 0.76974 0.37276 0.17173 0.0
H3193 H 0.78571 0.35207 0.17913 0.0
H3194 H 0.77441 0.36794 0.19808 0.0
H3195 H 0.75866 0.33641 0.215 0.0
H3196 H 0.76972 0.32048 0.19605 0.0
H3197 H 0.74289 0.31986 0.20027 0.0
H3198 H 0.70724 0.34189 0.13346 0.0
H3199 H 0.72682 0.31715 0.11349 0.0
H3200 H 0.77463 0.31924 0.15806 0.0
C3201 C 0.72873 0.36825 0.20554 0.0
C3202 C 0.70943 0.37704 0.20671 0.0
C3203 C 0.69647 0.37636 0.18977 0.0
C3204 C 0.70233 0.36627 0.17213 0.0
C3205 C 0.7213 0.35726 0.17166 0.0
C3206 C 0.73443 0.35845 0.18781 0.0
C3207 C 0.75352 0.34663 0.18395 0.0
C3208 C 0.77193 0.3607 0.18317 0.0
C3209 C 0.75634 0.32986 0.19975 0.0
C3210 C 0.7488 0.33803 0.16339 0.0
C3211 C 0.7302 0.34437 0.15648 0.0
C3212 C 0.722 0.33713 0.13852 0.0
C3213 C 0.73315 0.32304 0.12734 0.0
C3214 C 0.75225 0.31649 0.13419 0.0
C3215 C 0.7602 0.32427 0.15231 0.0
loop_
_geom_bond_atom_site_label_1
_geom_bond_atom_site_label_2
_geom_bond_distance
_geom_bond_site_symmetry_2
_ccdc_geom_bond_type
In0 O1 2.294 . S
In0 O2 2.326 . S
In0 O6 2.266 . S
In0 O7 2.326 . S
In0 O8 2.266 . S
In0 O9 2.326 . S
In0 O11 2.294 . S
In0 O12 2.326 . S
O1 In0 2.294 . S
O1 C10 1.240 . S
O2 In0 2.326 . S
O2 C10 1.252 . S
C3 O6 1.252 . S
C3 O7 1.260 . S
C4 O11 1.240 . S
C4 O12 1.252 . S
C5 O8 1.252 . S
C5 O9 1.260 . S
O6 In0 2.266 . S
O6 C3 1.252 . S
O7 In0 2.326 . S
O7 C3 1.260 . S
O8 In0 2.266 . S
O8 C5 1.252 . S
O9 In0 2.326 . S
O9 C5 1.260 . S
C10 O1 1.240 . S
C10 O2 1.252 . S
O11 In0 2.294 . S
O11 C4 1.240 . S
O12 In0 2.326 . S
O12 C4 1.252 . S
In13 O14 2.294 . S
In13 O15 2.326 . S
In13 O19 2.266 . S
In13 O20 2.326 . S
In13 O21 2.266 . S
In13 O22 2.326 . S
In13 O24 2.294 . S
In13 O25 2.326 . S
O14 In13 2.294 . S
O14 C23 1.240 . S
O15 In13 2.326 . S
O15 C23 1.252 . S
C16 O19 1.252 . S
C16 O20 1.260 . S
C17 O24 1.240 . S
C17 O25 1.252 . S
C18 O21 1.252 . S
C18 O22 1.260 . S
O19 In13 2.266 . S
O19 C16 1.252 . S
O20 In13 2.326 . S
O20 C16 1.260 . S
O21 In13 2.266 . S
O21 C18 1.252 . S
O22 In13 2.326 . S
O22 C18 1.260 . S
C23 O14 1.240 . S
C23 O15 1.252 . S
O24 In13 2.294 . S
O24 C17 1.240 . S
O25 In13 2.326 . S
O25 C17 1.252 . S
In26 O27 2.294 . S
In26 O28 2.326 . S
In26 O32 2.266 . S
In26 O33 2.326 . S
In26 O34 2.266 . S
In26 O35 2.326 . S
In26 O37 2.294 . S
In26 O38 2.326 . S
O27 In26 2.294 . S
O27 C36 1.240 . S
O28 In26 2.326 . S
O28 C36 1.252 . S
C29 O32 1.252 . S
C29 O33 1.260 . S
C30 O37 1.240 . S
C30 O38 1.252 . S
C31 O34 1.252 . S
C31 O35 1.260 . S
O32 In26 2.266 . S
O32 C29 1.252 . S
O33 In26 2.326 . S
O33 C29 1.260 . S
O34 In26 2.266 . S
O34 C31 1.252 . S
O35 In26 2.326 . S
O35 C31 1.260 . S
C36 O27 1.240 . S
C36 O28 1.252 . S
O37 In26 2.294 . S
O37 C30 1.240 . S
O38 In26 2.326 . S
O38 C30 1.252 . S
In39 O40 2.294 . S
In39 O41 2.326 . S
In39 O45 2.266 . S
In39 O46 2.326 . S
In39 O47 2.266 . S
In39 O48 2.326 . S
In39 O50 2.294 . S
In39 O51 2.326 . S
O40 In39 2.294 . S
O40 C49 1.240 . S
O41 In39 2.326 . S
O41 C49 1.252 . S
C42 O45 1.252 . S
C42 O46 1.260 . S
C43 O50 1.240 . S
C43 O51 1.252 . S
C44 O47 1.252 . S
C44 O48 1.260 . S
O45 In39 2.266 . S
O45 C42 1.252 . S
O46 In39 2.326 . S
O46 C42 1.260 . S
O47 In39 2.266 . S
O47 C44 1.252 . S
O48 In39 2.326 . S
O48 C44 1.260 . S
C49 O40 1.240 . S
C49 O41 1.252 . S
O50 In39 2.294 . S
O50 C43 1.240 . S
O51 In39 2.326 . S
O51 C43 1.252 . S
In52 O53 2.294 . S
In52 O54 2.326 . S
In52 O58 2.266 . S
In52 O59 2.326 . S
In52 O60 2.266 . S
In52 O61 2.326 . S
In52 O63 2.294 . S
In52 O64 2.326 . S
O53 In52 2.294 . S
O53 C62 1.240 . S
O54 In52 2.326 . S
O54 C62 1.252 . S
C55 O58 1.252 . S
C55 O59 1.260 . S
C56 O63 1.240 . S
C56 O64 1.252 . S
C57 O60 1.252 . S
C57 O61 1.260 . S
O58 In52 2.266 . S
O58 C55 1.252 . S
O59 In52 2.326 . S
O59 C55 1.260 . S
O60 In52 2.266 . S
O60 C57 1.252 . S
O61 In52 2.326 . S
O61 C57 1.260 . S
C62 O53 1.240 . S
C62 O54 1.252 . S
O63 In52 2.294 . S
O63 C56 1.240 . S
O64 In52 2.326 . S
O64 C56 1.252 . S
In65 O66 2.294 . S
In65 O67 2.326 . S
In65 O71 2.266 . S
In65 O72 2.326 . S
In65 O73 2.266 . S
In65 O74 2.326 . S
In65 O76 2.294 . S
In65 O77 2.326 . S
O66 In65 2.294 . S
O66 C75 1.240 . S
O67 In65 2.326 . S
O67 C75 1.252 . S
C68 O71 1.252 . S
C68 O72 1.260 . S
C69 O76 1.240 . S
C69 O77 1.252 . S
C70 O73 1.252 . S
C70 O74 1.260 . S
O71 In65 2.266 . S
O71 C68 1.252 . S
O72 In65 2.326 . S
O72 C68 1.260 . S
O73 In65 2.266 . S
O73 C70 1.252 . S
O74 In65 2.326 . S
O74 C70 1.260 . S
C75 O66 1.240 . S
C75 O67 1.252 . S
O76 In65 2.294 . S
O76 C69 1.240 . S
O77 In65 2.326 . S
O77 C69 1.252 . S
In78 O79 2.294 . S
In78 O80 2.326 . S
In78 O84 2.266 . S
In78 O85 2.326 . S
In78 O86 2.266 . S
In78 O87 2.326 . S
In78 O89 2.294 . S
In78 O90 2.326 . S
O79 In78 2.294 . S
O79 C88 1.240 . S
O80 In78 2.326 . S
O80 C88 1.252 . S
C81 O84 1.252 . S
C81 O85 1.260 . S
C82 O89 1.240 . S
C82 O90 1.252 . S
C83 O86 1.252 . S
C83 O87 1.260 . S
O84 In78 2.266 . S
O84 C81 1.252 . S
O85 In78 2.326 . S
O85 C81 1.260 . S
O86 In78 2.266 . S
O86 C83 1.252 . S
O87 In78 2.326 . S
O87 C83 1.260 . S
C88 O79 1.240 . S
C88 O80 1.252 . S
O89 In78 2.294 . S
O89 C82 1.240 . S
O90 In78 2.326 . S
O90 C82 1.252 . S
In91 O92 2.294 . S
In91 O93 2.326 . S
In91 O97 2.266 . S
In91 O98 2.326 . S
In91 O99 2.266 . S
In91 O100 2.326 . S
In91 O102 2.294 . S
In91 O103 2.326 . S
O92 In91 2.294 . S
O92 C101 1.240 . S
O93 In91 2.326 . S
O93 C101 1.252 . S
C94 O97 1.252 . S
C94 O98 1.260 . S
C95 O102 1.240 . S
C95 O103 1.252 . S
C96 O99 1.252 . S
C96 O100 1.260 . S
O97 In91 2.266 . S
O97 C94 1.252 . S
O98 In91 2.326 . S
O98 C94 1.260 . S
O99 In91 2.266 . S
O99 C96 1.252 . S
O100 In91 2.326 . S
O100 C96 1.260 . S
C101 O92 1.240 . S
C101 O93 1.252 . S
O102 In91 2.294 . S
O102 C95 1.240 . S
O103 In91 2.326 . S
O103 C95 1.252 . S
In104 O105 2.294 . S
In104 O106 2.326 . S
In104 O110 2.266 . S
In104 O111 2.326 . S
In104 O112 2.266 . S
In104 O113 2.326 . S
In104 O115 2.294 . S
In104 O116 2.326 . S
O105 In104 2.294 . S
O105 C114 1.240 . S
O106 In104 2.326 . S
O106 C114 1.252 . S
C107 O110 1.252 . S
C107 O111 1.260 . S
C108 O115 1.240 . S
C108 O116 1.252 . S
C109 O112 1.252 . S
C109 O113 1.260 . S
O110 In104 2.266 . S
O110 C107 1.252 . S
O111 In104 2.326 . S
O111 C107 1.260 . S
O112 In104 2.266 . S
O112 C109 1.252 . S
O113 In104 2.326 . S
O113 C109 1.260 . S
C114 O105 1.240 . S
C114 O106 1.252 . S
O115 In104 2.294 . S
O115 C108 1.240 . S
O116 In104 2.326 . S
O116 C108 1.252 . S
In117 O118 2.294 . S
In117 O119 2.326 . S
In117 O123 2.266 . S
In117 O124 2.326 . S
In117 O125 2.266 . S
In117 O126 2.326 . S
In117 O128 2.294 . S
In117 O129 2.326 . S
O118 In117 2.294 . S
O118 C127 1.240 . S
O119 In117 2.326 . S
O119 C127 1.252 . S
C120 O123 1.252 . S
C120 O124 1.260 . S
C121 O128 1.240 . S
C121 O129 1.252 . S
C122 O125 1.252 . S
C122 O126 1.260 . S
O123 In117 2.266 . S
O123 C120 1.252 . S
O124 In117 2.326 . S
O124 C120 1.260 . S
O125 In117 2.266 . S
O125 C122 1.252 . S
O126 In117 2.326 . S
O126 C122 1.260 . S
C127 O118 1.240 . S
C127 O119 1.252 . S
O128 In117 2.294 . S
O128 C121 1.240 . S
O129 In117 2.326 . S
O129 C121 1.252 . S
In130 O131 2.294 . S
In130 O132 2.326 . S
In130 O136 2.266 . S
In130 O137 2.326 . S
In130 O138 2.266 . S
In130 O139 2.326 . S
In130 O141 2.294 . S
In130 O142 2.326 . S
O131 In130 2.294 . S
O131 C140 1.240 . S
O132 In130 2.326 . S
O132 C140 1.252 . S
C133 O136 1.252 . S
C133 O137 1.260 . S
C134 O141 1.240 . S
C134 O142 1.252 . S
C135 O138 1.252 . S
C135 O139 1.260 . S
O136 In130 2.266 . S
O136 C133 1.252 . S
O137 In130 2.326 . S
O137 C133 1.260 . S
O138 In130 2.266 . S
O138 C135 1.252 . S
O139 In130 2.326 . S
O139 C135 1.260 . S
C140 O131 1.240 . S
C140 O132 1.252 . S
O141 In130 2.294 . S
O141 C134 1.240 . S
O142 In130 2.326 . S
O142 C134 1.252 . S
In143 O144 2.294 . S
In143 O145 2.326 . S
In143 O149 2.266 . S
In143 O150 2.326 . S
In143 O151 2.266 . S
In143 O152 2.326 . S
In143 O154 2.294 . S
In143 O155 2.326 . S
O144 In143 2.294 . S
O144 C153 1.240 . S
O145 In143 2.326 . S
O145 C153 1.252 . S
C146 O149 1.252 . S
C146 O150 1.260 . S
C147 O154 1.240 . S
C147 O155 1.252 . S
C148 O151 1.252 . S
C148 O152 1.260 . S
O149 In143 2.266 . S
O149 C146 1.252 . S
O150 In143 2.326 . S
O150 C146 1.260 . S
O151 In143 2.266 . S
O151 C148 1.252 . S
O152 In143 2.326 . S
O152 C148 1.260 . S
C153 O144 1.240 . S
C153 O145 1.252 . S
O154 In143 2.294 . S
O154 C147 1.240 . S
O155 In143 2.326 . S
O155 C147 1.252 . S
In156 O157 2.294 . S
In156 O158 2.326 . S
In156 O162 2.266 . S
In156 O163 2.326 . S
In156 O164 2.266 . S
In156 O165 2.326 . S
In156 O167 2.294 . S
In156 O168 2.326 . S
O157 In156 2.294 . S
O157 C166 1.240 . S
O158 In156 2.326 . S
O158 C166 1.252 . S
C159 O162 1.252 . S
C159 O163 1.260 . S
C160 O167 1.240 . S
C160 O168 1.252 . S
C161 O164 1.252 . S
C161 O165 1.260 . S
O162 In156 2.266 . S
O162 C159 1.252 . S
O163 In156 2.326 . S
O163 C159 1.260 . S
O164 In156 2.266 . S
O164 C161 1.252 . S
O165 In156 2.326 . S
O165 C161 1.260 . S
C166 O157 1.240 . S
C166 O158 1.252 . S
O167 In156 2.294 . S
O167 C160 1.240 . S
O168 In156 2.326 . S
O168 C160 1.252 . S
In169 O170 2.294 . S
In169 O171 2.326 . S
In169 O175 2.266 . S
In169 O176 2.326 . S
In169 O177 2.266 . S
In169 O178 2.326 . S
In169 O180 2.294 . S
In169 O181 2.326 . S
O170 In169 2.294 . S
O170 C179 1.240 . S
O171 In169 2.326 . S
O171 C179 1.252 . S
C172 O175 1.252 . S
C172 O176 1.260 . S
C173 O180 1.240 . S
C173 O181 1.252 . S
C174 O177 1.252 . S
C174 O178 1.260 . S
O175 In169 2.266 . S
O175 C172 1.252 . S
O176 In169 2.326 . S
O176 C172 1.260 . S
O177 In169 2.266 . S
O177 C174 1.252 . S
O178 In169 2.326 . S
O178 C174 1.260 . S
C179 O170 1.240 . S
C179 O171 1.252 . S
O180 In169 2.294 . S
O180 C173 1.240 . S
O181 In169 2.326 . S
O181 C173 1.252 . S
In182 O183 2.294 . S
In182 O184 2.326 . S
In182 O188 2.266 . S
In182 O189 2.326 . S
In182 O190 2.266 . S
In182 O191 2.326 . S
In182 O193 2.294 . S
In182 O194 2.326 . S
O183 In182 2.294 . S
O183 C192 1.240 . S
O184 In182 2.326 . S
O184 C192 1.252 . S
C185 O188 1.252 . S
C185 O189 1.260 . S
C186 O193 1.240 . S
C186 O194 1.252 . S
C187 O190 1.252 . S
C187 O191 1.260 . S
O188 In182 2.266 . S
O188 C185 1.252 . S
O189 In182 2.326 . S
O189 C185 1.260 . S
O190 In182 2.266 . S
O190 C187 1.252 . S
O191 In182 2.326 . S
O191 C187 1.260 . S
C192 O183 1.240 . S
C192 O184 1.252 . S
O193 In182 2.294 . S
O193 C186 1.240 . S
O194 In182 2.326 . S
O194 C186 1.252 . S
In195 O196 2.294 . S
In195 O197 2.326 . S
In195 O201 2.266 . S
In195 O202 2.326 . S
In195 O203 2.266 . S
In195 O204 2.326 . S
In195 O206 2.294 . S
In195 O207 2.326 . S
O196 In195 2.294 . S
O196 C205 1.240 . S
O197 In195 2.326 . S
O197 C205 1.252 . S
C198 O201 1.252 . S
C198 O202 1.260 . S
C199 O206 1.240 . S
C199 O207 1.252 . S
C200 O203 1.252 . S
C200 O204 1.260 . S
O201 In195 2.266 . S
O201 C198 1.252 . S
O202 In195 2.326 . S
O202 C198 1.260 . S
O203 In195 2.266 . S
O203 C200 1.252 . S
O204 In195 2.326 . S
O204 C200 1.260 . S
C205 O196 1.240 . S
C205 O197 1.252 . S
O206 In195 2.294 . S
O206 C199 1.240 . S
O207 In195 2.326 . S
O207 C199 1.252 . S
In208 O209 2.294 . S
In208 O210 2.326 . S
In208 O214 2.266 . S
In208 O215 2.326 . S
In208 O216 2.266 . S
In208 O217 2.326 . S
In208 O219 2.294 . S
In208 O220 2.326 . S
O209 In208 2.294 . S
O209 C218 1.240 . S
O210 In208 2.326 . S
O210 C218 1.252 . S
C211 O214 1.252 . S
C211 O215 1.260 . S
C212 O219 1.240 . S
C212 O220 1.252 . S
C213 O216 1.252 . S
C213 O217 1.260 . S
O214 In208 2.266 . S
O214 C211 1.252 . S
O215 In208 2.326 . S
O215 C211 1.260 . S
O216 In208 2.266 . S
O216 C213 1.252 . S
O217 In208 2.326 . S
O217 C213 1.260 . S
C218 O209 1.240 . S
C218 O210 1.252 . S
O219 In208 2.294 . S
O219 C212 1.240 . S
O220 In208 2.326 . S
O220 C212 1.252 . S
In221 O222 2.294 . S
In221 O223 2.326 . S
In221 O227 2.266 . S
In221 O228 2.326 . S
In221 O229 2.266 . S
In221 O230 2.326 . S
In221 O232 2.294 . S
In221 O233 2.326 . S
O222 In221 2.294 . S
O222 C231 1.240 . S
O223 In221 2.326 . S
O223 C231 1.252 . S
C224 O227 1.252 . S
C224 O228 1.260 . S
C225 O232 1.240 . S
C225 O233 1.252 . S
C226 O229 1.252 . S
C226 O230 1.260 . S
O227 In221 2.266 . S
O227 C224 1.252 . S
O228 In221 2.326 . S
O228 C224 1.260 . S
O229 In221 2.266 . S
O229 C226 1.252 . S
O230 In221 2.326 . S
O230 C226 1.260 . S
C231 O222 1.240 . S
C231 O223 1.252 . S
O232 In221 2.294 . S
O232 C225 1.240 . S
O233 In221 2.326 . S
O233 C225 1.252 . S
In234 O235 2.294 . S
In234 O236 2.326 . S
In234 O240 2.266 . S
In234 O241 2.326 . S
In234 O242 2.266 . S
In234 O243 2.326 . S
In234 O245 2.294 . S
In234 O246 2.326 . S
O235 In234 2.294 . S
O235 C244 1.240 . S
O236 In234 2.326 . S
O236 C244 1.252 . S
C237 O240 1.252 . S
C237 O241 1.260 . S
C238 O245 1.240 . S
C238 O246 1.252 . S
C239 O242 1.252 . S
C239 O243 1.260 . S
O240 In234 2.266 . S
O240 C237 1.252 . S
O241 In234 2.326 . S
O241 C237 1.260 . S
O242 In234 2.266 . S
O242 C239 1.252 . S
O243 In234 2.326 . S
O243 C239 1.260 . S
C244 O235 1.240 . S
C244 O236 1.252 . S
O245 In234 2.294 . S
O245 C238 1.240 . S
O246 In234 2.326 . S
O246 C238 1.252 . S
In247 O248 2.294 . S
In247 O249 2.326 . S
In247 O253 2.266 . S
In247 O254 2.326 . S
In247 O255 2.266 . S
In247 O256 2.326 . S
In247 O258 2.294 . S
In247 O259 2.326 . S
O248 In247 2.294 . S
O248 C257 1.240 . S
O249 In247 2.326 . S
O249 C257 1.252 . S
C250 O253 1.252 . S
C250 O254 1.260 . S
C251 O258 1.240 . S
C251 O259 1.252 . S
C252 O255 1.252 . S
C252 O256 1.260 . S
O253 In247 2.266 . S
O253 C250 1.252 . S
O254 In247 2.326 . S
O254 C250 1.260 . S
O255 In247 2.266 . S
O255 C252 1.252 . S
O256 In247 2.326 . S
O256 C252 1.260 . S
C257 O248 1.240 . S
C257 O249 1.252 . S
O258 In247 2.294 . S
O258 C251 1.240 . S
O259 In247 2.326 . S
O259 C251 1.252 . S
In260 O261 2.294 . S
In260 O262 2.326 . S
In260 O266 2.266 . S
In260 O267 2.326 . S
In260 O268 2.266 . S
In260 O269 2.326 . S
In260 O271 2.294 . S
In260 O272 2.326 . S
O261 In260 2.294 . S
O261 C270 1.240 . S
O262 In260 2.326 . S
O262 C270 1.252 . S
C263 O266 1.252 . S
C263 O267 1.260 . S
C264 O271 1.240 . S
C264 O272 1.252 . S
C265 O268 1.252 . S
C265 O269 1.260 . S
O266 In260 2.266 . S
O266 C263 1.252 . S
O267 In260 2.326 . S
O267 C263 1.260 . S
O268 In260 2.266 . S
O268 C265 1.252 . S
O269 In260 2.326 . S
O269 C265 1.260 . S
C270 O261 1.240 . S
C270 O262 1.252 . S
O271 In260 2.294 . S
O271 C264 1.240 . S
O272 In260 2.326 . S
O272 C264 1.252 . S
In273 O274 2.294 . S
In273 O275 2.326 . S
In273 O279 2.266 . S
In273 O280 2.326 . S
In273 O281 2.266 . S
In273 O282 2.326 . S
In273 O284 2.294 . S
In273 O285 2.326 . S
O274 In273 2.294 . S
O274 C283 1.240 . S
O275 In273 2.326 . S
O275 C283 1.252 . S
C276 O279 1.252 . S
C276 O280 1.260 . S
C277 O284 1.240 . S
C277 O285 1.252 . S
C278 O281 1.252 . S
C278 O282 1.260 . S
O279 In273 2.266 . S
O279 C276 1.252 . S
O280 In273 2.326 . S
O280 C276 1.260 . S
O281 In273 2.266 . S
O281 C278 1.252 . S
O282 In273 2.326 . S
O282 C278 1.260 . S
C283 O274 1.240 . S
C283 O275 1.252 . S
O284 In273 2.294 . S
O284 C277 1.240 . S
O285 In273 2.326 . S
O285 C277 1.252 . S
In286 O287 2.294 . S
In286 O288 2.326 . S
In286 O292 2.266 . S
In286 O293 2.326 . S
In286 O294 2.266 . S
In286 O295 2.326 . S
In286 O297 2.294 . S
In286 O298 2.326 . S
O287 In286 2.294 . S
O287 C296 1.240 . S
O288 In286 2.326 . S
O288 C296 1.252 . S
C289 O292 1.252 . S
C289 O293 1.260 . S
C290 O297 1.240 . S
C290 O298 1.252 . S
C291 O294 1.252 . S
C291 O295 1.260 . S
O292 In286 2.266 . S
O292 C289 1.252 . S
O293 In286 2.326 . S
O293 C289 1.260 . S
O294 In286 2.266 . S
O294 C291 1.252 . S
O295 In286 2.326 . S
O295 C291 1.260 . S
C296 O287 1.240 . S
C296 O288 1.252 . S
O297 In286 2.294 . S
O297 C290 1.240 . S
O298 In286 2.326 . S
O298 C290 1.252 . S
In299 O300 2.294 . S
In299 O301 2.326 . S
In299 O305 2.266 . S
In299 O306 2.326 . S
In299 O307 2.266 . S
In299 O308 2.326 . S
In299 O310 2.294 . S
In299 O311 2.326 . S
O300 In299 2.294 . S
O300 C309 1.240 . S
O301 In299 2.326 . S
O301 C309 1.252 . S
C302 O305 1.252 . S
C302 O306 1.260 . S
C303 O310 1.240 . S
C303 O311 1.252 . S
C304 O307 1.252 . S
C304 O308 1.260 . S
O305 In299 2.266 . S
O305 C302 1.252 . S
O306 In299 2.326 . S
O306 C302 1.260 . S
O307 In299 2.266 . S
O307 C304 1.252 . S
O308 In299 2.326 . S
O308 C304 1.260 . S
C309 O300 1.240 . S
C309 O301 1.252 . S
O310 In299 2.294 . S
O310 C303 1.240 . S
O311 In299 2.326 . S
O311 C303 1.252 . S
In312 O313 2.294 . S
In312 O314 2.326 . S
In312 O318 2.266 . S
In312 O319 2.326 . S
In312 O320 2.266 . S
In312 O321 2.326 . S
In312 O323 2.294 . S
In312 O324 2.326 . S
O313 In312 2.294 . S
O313 C322 1.240 . S
O314 In312 2.326 . S
O314 C322 1.252 . S
C315 O318 1.252 . S
C315 O319 1.260 . S
C316 O323 1.240 . S
C316 O324 1.252 . S
C317 O320 1.252 . S
C317 O321 1.260 . S
O318 In312 2.266 . S
O318 C315 1.252 . S
O319 In312 2.326 . S
O319 C315 1.260 . S
O320 In312 2.266 . S
O320 C317 1.252 . S
O321 In312 2.326 . S
O321 C317 1.260 . S
C322 O313 1.240 . S
C322 O314 1.252 . S
O323 In312 2.294 . S
O323 C316 1.240 . S
O324 In312 2.326 . S
O324 C316 1.252 . S
In325 O326 2.294 . S
In325 O327 2.326 . S
In325 O331 2.266 . S
In325 O332 2.326 . S
In325 O333 2.266 . S
In325 O334 2.326 . S
In325 O336 2.294 . S
In325 O337 2.326 . S
O326 In325 2.294 . S
O326 C335 1.240 . S
O327 In325 2.326 . S
O327 C335 1.252 . S
C328 O331 1.252 . S
C328 O332 1.260 . S
C329 O336 1.240 . S
C329 O337 1.252 . S
C330 O333 1.252 . S
C330 O334 1.260 . S
O331 In325 2.266 . S
O331 C328 1.252 . S
O332 In325 2.326 . S
O332 C328 1.260 . S
O333 In325 2.266 . S
O333 C330 1.252 . S
O334 In325 2.326 . S
O334 C330 1.260 . S
C335 O326 1.240 . S
C335 O327 1.252 . S
O336 In325 2.294 . S
O336 C329 1.240 . S
O337 In325 2.326 . S
O337 C329 1.252 . S
In338 O339 2.294 . S
In338 O340 2.326 . S
In338 O344 2.266 . S
In338 O345 2.326 . S
In338 O346 2.266 . S
In338 O347 2.326 . S
In338 O349 2.294 . S
In338 O350 2.326 . S
O339 In338 2.294 . S
O339 C348 1.240 . S
O340 In338 2.326 . S
O340 C348 1.252 . S
C341 O344 1.252 . S
C341 O345 1.260 . S
C342 O349 1.240 . S
C342 O350 1.252 . S
C343 O346 1.252 . S
C343 O347 1.260 . S
O344 In338 2.266 . S
O344 C341 1.252 . S
O345 In338 2.326 . S
O345 C341 1.260 . S
O346 In338 2.266 . S
O346 C343 1.252 . S
O347 In338 2.326 . S
O347 C343 1.260 . S
C348 O339 1.240 . S
C348 O340 1.252 . S
O349 In338 2.294 . S
O349 C342 1.240 . S
O350 In338 2.326 . S
O350 C342 1.252 . S
In351 O352 2.294 . S
In351 O353 2.326 . S
In351 O357 2.266 . S
In351 O358 2.326 . S
In351 O359 2.266 . S
In351 O360 2.326 . S
In351 O362 2.294 . S
In351 O363 2.326 . S
O352 In351 2.294 . S
O352 C361 1.240 . S
O353 In351 2.326 . S
O353 C361 1.252 . S
C354 O357 1.252 . S
C354 O358 1.260 . S
C355 O362 1.240 . S
C355 O363 1.252 . S
C356 O359 1.252 . S
C356 O360 1.260 . S
O357 In351 2.266 . S
O357 C354 1.252 . S
O358 In351 2.326 . S
O358 C354 1.260 . S
O359 In351 2.266 . S
O359 C356 1.252 . S
O360 In351 2.326 . S
O360 C356 1.260 . S
C361 O352 1.240 . S
C361 O353 1.252 . S
O362 In351 2.294 . S
O362 C355 1.240 . S
O363 In351 2.326 . S
O363 C355 1.252 . S
In364 O365 2.294 . S
In364 O366 2.326 . S
In364 O370 2.266 . S
In364 O371 2.326 . S
In364 O372 2.266 . S
In364 O373 2.326 . S
In364 O375 2.294 . S
In364 O376 2.326 . S
O365 In364 2.294 . S
O365 C374 1.240 . S
O366 In364 2.326 . S
O366 C374 1.252 . S
C367 O370 1.252 . S
C367 O371 1.260 . S
C368 O375 1.240 . S
C368 O376 1.252 . S
C369 O372 1.252 . S
C369 O373 1.260 . S
O370 In364 2.266 . S
O370 C367 1.252 . S
O371 In364 2.326 . S
O371 C367 1.260 . S
O372 In364 2.266 . S
O372 C369 1.252 . S
O373 In364 2.326 . S
O373 C369 1.260 . S
C374 O365 1.240 . S
C374 O366 1.252 . S
O375 In364 2.294 . S
O375 C368 1.240 . S
O376 In364 2.326 . S
O376 C368 1.252 . S
In377 O378 2.294 . S
In377 O379 2.326 . S
In377 O383 2.266 . S
In377 O384 2.326 . S
In377 O385 2.266 . S
In377 O386 2.326 . S
In377 O388 2.294 . S
In377 O389 2.326 . S
O378 In377 2.294 . S
O378 C387 1.240 . S
O379 In377 2.326 . S
O379 C387 1.252 . S
C380 O383 1.252 . S
C380 O384 1.260 . S
C381 O388 1.240 . S
C381 O389 1.252 . S
C382 O385 1.252 . S
C382 O386 1.260 . S
O383 In377 2.266 . S
O383 C380 1.252 . S
O384 In377 2.326 . S
O384 C380 1.260 . S
O385 In377 2.266 . S
O385 C382 1.252 . S
O386 In377 2.326 . S
O386 C382 1.260 . S
C387 O378 1.240 . S
C387 O379 1.252 . S
O388 In377 2.294 . S
O388 C381 1.240 . S
O389 In377 2.326 . S
O389 C381 1.252 . S
In390 O391 2.294 . S
In390 O392 2.326 . S
In390 O396 2.266 . S
In390 O397 2.326 . S
In390 O398 2.266 . S
In390 O399 2.326 . S
In390 O401 2.294 . S
In390 O402 2.326 . S
O391 In390 2.294 . S
O391 C400 1.240 . S
O392 In390 2.326 . S
O392 C400 1.252 . S
C393 O396 1.252 . S
C393 O397 1.260 . S
C394 O401 1.240 . S
C394 O402 1.252 . S
C395 O398 1.252 . S
C395 O399 1.260 . S
O396 In390 2.266 . S
O396 C393 1.252 . S
O397 In390 2.326 . S
O397 C393 1.260 . S
O398 In390 2.266 . S
O398 C395 1.252 . S
O399 In390 2.326 . S
O399 C395 1.260 . S
C400 O391 1.240 . S
C400 O392 1.252 . S
O401 In390 2.294 . S
O401 C394 1.240 . S
O402 In390 2.326 . S
O402 C394 1.252 . S
In403 O404 2.294 . S
In403 O405 2.326 . S
In403 O409 2.266 . S
In403 O410 2.326 . S
In403 O411 2.266 . S
In403 O412 2.326 . S
In403 O414 2.294 . S
In403 O415 2.326 . S
O404 In403 2.294 . S
O404 C413 1.240 . S
O405 In403 2.326 . S
O405 C413 1.252 . S
C406 O409 1.252 . S
C406 O410 1.260 . S
C407 O414 1.240 . S
C407 O415 1.252 . S
C408 O411 1.252 . S
C408 O412 1.260 . S
O409 In403 2.266 . S
O409 C406 1.252 . S
O410 In403 2.326 . S
O410 C406 1.260 . S
O411 In403 2.266 . S
O411 C408 1.252 . S
O412 In403 2.326 . S
O412 C408 1.260 . S
C413 O404 1.240 . S
C413 O405 1.252 . S
O414 In403 2.294 . S
O414 C407 1.240 . S
O415 In403 2.326 . S
O415 C407 1.252 . S
In416 O417 2.294 . S
In416 O418 2.326 . S
In416 O422 2.266 . S
In416 O423 2.326 . S
In416 O424 2.266 . S
In416 O425 2.326 . S
In416 O427 2.294 . S
In416 O428 2.326 . S
O417 In416 2.294 . S
O417 C426 1.240 . S
O418 In416 2.326 . S
O418 C426 1.252 . S
C419 O422 1.252 . S
C419 O423 1.260 . S
C420 O427 1.240 . S
C420 O428 1.252 . S
C421 O424 1.252 . S
C421 O425 1.260 . S
O422 In416 2.266 . S
O422 C419 1.252 . S
O423 In416 2.326 . S
O423 C419 1.260 . S
O424 In416 2.266 . S
O424 C421 1.252 . S
O425 In416 2.326 . S
O425 C421 1.260 . S
C426 O417 1.240 . S
C426 O418 1.252 . S
O427 In416 2.294 . S
O427 C420 1.240 . S
O428 In416 2.326 . S
O428 C420 1.252 . S
In429 O430 2.294 . S
In429 O431 2.326 . S
In429 O435 2.266 . S
In429 O436 2.326 . S
In429 O437 2.266 . S
In429 O438 2.326 . S
In429 O440 2.294 . S
In429 O441 2.326 . S
O430 In429 2.294 . S
O430 C439 1.240 . S
O431 In429 2.326 . S
O431 C439 1.252 . S
C432 O435 1.252 . S
C432 O436 1.260 . S
C433 O440 1.240 . S
C433 O441 1.252 . S
C434 O437 1.252 . S
C434 O438 1.260 . S
O435 In429 2.266 . S
O435 C432 1.252 . S
O436 In429 2.326 . S
O436 C432 1.260 . S
O437 In429 2.266 . S
O437 C434 1.252 . S
O438 In429 2.326 . S
O438 C434 1.260 . S
C439 O430 1.240 . S
C439 O431 1.252 . S
O440 In429 2.294 . S
O440 C433 1.240 . S
O441 In429 2.326 . S
O441 C433 1.252 . S
In442 O443 2.294 . S
In442 O444 2.326 . S
In442 O448 2.266 . S
In442 O449 2.326 . S
In442 O450 2.266 . S
In442 O451 2.326 . S
In442 O453 2.294 . S
In442 O454 2.326 . S
O443 In442 2.294 . S
O443 C452 1.240 . S
O444 In442 2.326 . S
O444 C452 1.252 . S
C445 O448 1.252 . S
C445 O449 1.260 . S
C446 O453 1.240 . S
C446 O454 1.252 . S
C447 O450 1.252 . S
C447 O451 1.260 . S
O448 In442 2.266 . S
O448 C445 1.252 . S
O449 In442 2.326 . S
O449 C445 1.260 . S
O450 In442 2.266 . S
O450 C447 1.252 . S
O451 In442 2.326 . S
O451 C447 1.260 . S
C452 O443 1.240 . S
C452 O444 1.252 . S
O453 In442 2.294 . S
O453 C446 1.240 . S
O454 In442 2.326 . S
O454 C446 1.252 . S
In455 O456 2.294 . S
In455 O457 2.326 . S
In455 O461 2.266 . S
In455 O462 2.326 . S
In455 O463 2.266 . S
In455 O464 2.326 . S
In455 O466 2.294 . S
In455 O467 2.326 . S
O456 In455 2.294 . S
O456 C465 1.240 . S
O457 In455 2.326 . S
O457 C465 1.252 . S
C458 O461 1.252 . S
C458 O462 1.260 . S
C459 O466 1.240 . S
C459 O467 1.252 . S
C460 O463 1.252 . S
C460 O464 1.260 . S
O461 In455 2.266 . S
O461 C458 1.252 . S
O462 In455 2.326 . S
O462 C458 1.260 . S
O463 In455 2.266 . S
O463 C460 1.252 . S
O464 In455 2.326 . S
O464 C460 1.260 . S
C465 O456 1.240 . S
C465 O457 1.252 . S
O466 In455 2.294 . S
O466 C459 1.240 . S
O467 In455 2.326 . S
O467 C459 1.252 . S
In468 O469 2.294 . S
In468 O470 2.326 . S
In468 O474 2.266 . S
In468 O475 2.326 . S
In468 O476 2.266 . S
In468 O477 2.326 . S
In468 O479 2.294 . S
In468 O480 2.326 . S
O469 In468 2.294 . S
O469 C478 1.240 . S
O470 In468 2.326 . S
O470 C478 1.252 . S
C471 O474 1.252 . S
C471 O475 1.260 . S
C472 O479 1.240 . S
C472 O480 1.252 . S
C473 O476 1.252 . S
C473 O477 1.260 . S
O474 In468 2.266 . S
O474 C471 1.252 . S
O475 In468 2.326 . S
O475 C471 1.260 . S
O476 In468 2.266 . S
O476 C473 1.252 . S
O477 In468 2.326 . S
O477 C473 1.260 . S
C478 O469 1.240 . S
C478 O470 1.252 . S
O479 In468 2.294 . S
O479 C472 1.240 . S
O480 In468 2.326 . S
O480 C472 1.252 . S
In481 O482 2.294 . S
In481 O483 2.326 . S
In481 O487 2.266 . S
In481 O488 2.326 . S
In481 O489 2.266 . S
In481 O490 2.326 . S
In481 O492 2.294 . S
In481 O493 2.326 . S
O482 In481 2.294 . S
O482 C491 1.240 . S
O483 In481 2.326 . S
O483 C491 1.252 . S
C484 O487 1.252 . S
C484 O488 1.260 . S
C485 O492 1.240 . S
C485 O493 1.252 . S
C486 O489 1.252 . S
C486 O490 1.260 . S
O487 In481 2.266 . S
O487 C484 1.252 . S
O488 In481 2.326 . S
O488 C484 1.260 . S
O489 In481 2.266 . S
O489 C486 1.252 . S
O490 In481 2.326 . S
O490 C486 1.260 . S
C491 O482 1.240 . S
C491 O483 1.252 . S
O492 In481 2.294 . S
O492 C485 1.240 . S
O493 In481 2.326 . S
O493 C485 1.252 . S
In494 O495 2.294 . S
In494 O496 2.326 . S
In494 O500 2.266 . S
In494 O501 2.326 . S
In494 O502 2.266 . S
In494 O503 2.326 . S
In494 O505 2.294 . S
In494 O506 2.326 . S
O495 In494 2.294 . S
O495 C504 1.240 . S
O496 In494 2.326 . S
O496 C504 1.252 . S
C497 O500 1.252 . S
C497 O501 1.260 . S
C498 O505 1.240 . S
C498 O506 1.252 . S
C499 O502 1.252 . S
C499 O503 1.260 . S
O500 In494 2.266 . S
O500 C497 1.252 . S
O501 In494 2.326 . S
O501 C497 1.260 . S
O502 In494 2.266 . S
O502 C499 1.252 . S
O503 In494 2.326 . S
O503 C499 1.260 . S
C504 O495 1.240 . S
C504 O496 1.252 . S
O505 In494 2.294 . S
O505 C498 1.240 . S
O506 In494 2.326 . S
O506 C498 1.252 . S
In507 O508 2.294 . S
In507 O509 2.326 . S
In507 O513 2.266 . S
In507 O514 2.326 . S
In507 O515 2.266 . S
In507 O516 2.326 . S
In507 O518 2.294 . S
In507 O519 2.326 . S
O508 In507 2.294 . S
O508 C517 1.240 . S
O509 In507 2.326 . S
O509 C517 1.252 . S
C510 O513 1.252 . S
C510 O514 1.260 . S
C511 O518 1.240 . S
C511 O519 1.252 . S
C512 O515 1.252 . S
C512 O516 1.260 . S
O513 In507 2.266 . S
O513 C510 1.252 . S
O514 In507 2.326 . S
O514 C510 1.260 . S
O515 In507 2.266 . S
O515 C512 1.252 . S
O516 In507 2.326 . S
O516 C512 1.260 . S
C517 O508 1.240 . S
C517 O509 1.252 . S
O518 In507 2.294 . S
O518 C511 1.240 . S
O519 In507 2.326 . S
O519 C511 1.252 . S
In520 O521 2.294 . S
In520 O522 2.326 . S
In520 O526 2.266 . S
In520 O527 2.326 . S
In520 O528 2.266 . S
In520 O529 2.326 . S
In520 O531 2.294 . S
In520 O532 2.326 . S
O521 In520 2.294 . S
O521 C530 1.240 . S
O522 In520 2.326 . S
O522 C530 1.252 . S
C523 O526 1.252 . S
C523 O527 1.260 . S
C524 O531 1.240 . S
C524 O532 1.252 . S
C525 O528 1.252 . S
C525 O529 1.260 . S
O526 In520 2.266 . S
O526 C523 1.252 . S
O527 In520 2.326 . S
O527 C523 1.260 . S
O528 In520 2.266 . S
O528 C525 1.252 . S
O529 In520 2.326 . S
O529 C525 1.260 . S
C530 O521 1.240 . S
C530 O522 1.252 . S
O531 In520 2.294 . S
O531 C524 1.240 . S
O532 In520 2.326 . S
O532 C524 1.252 . S
In533 O534 2.294 . S
In533 O535 2.326 . S
In533 O539 2.266 . S
In533 O540 2.326 . S
In533 O541 2.266 . S
In533 O542 2.326 . S
In533 O544 2.294 . S
In533 O545 2.326 . S
O534 In533 2.294 . S
O534 C543 1.240 . S
O535 In533 2.326 . S
O535 C543 1.252 . S
C536 O539 1.252 . S
C536 O540 1.260 . S
C537 O544 1.240 . S
C537 O545 1.252 . S
C538 O541 1.252 . S
C538 O542 1.260 . S
O539 In533 2.266 . S
O539 C536 1.252 . S
O540 In533 2.326 . S
O540 C536 1.260 . S
O541 In533 2.266 . S
O541 C538 1.252 . S
O542 In533 2.326 . S
O542 C538 1.260 . S
C543 O534 1.240 . S
C543 O535 1.252 . S
O544 In533 2.294 . S
O544 C537 1.240 . S
O545 In533 2.326 . S
O545 C537 1.252 . S
In546 O547 2.294 . S
In546 O548 2.326 . S
In546 O552 2.266 . S
In546 O553 2.326 . S
In546 O554 2.266 . S
In546 O555 2.326 . S
In546 O557 2.294 . S
In546 O558 2.326 . S
O547 In546 2.294 . S
O547 C556 1.240 . S
O548 In546 2.326 . S
O548 C556 1.252 . S
C549 O552 1.252 . S
C549 O553 1.260 . S
C550 O557 1.240 . S
C550 O558 1.252 . S
C551 O554 1.252 . S
C551 O555 1.260 . S
O552 In546 2.266 . S
O552 C549 1.252 . S
O553 In546 2.326 . S
O553 C549 1.260 . S
O554 In546 2.266 . S
O554 C551 1.252 . S
O555 In546 2.326 . S
O555 C551 1.260 . S
C556 O547 1.240 . S
C556 O548 1.252 . S
O557 In546 2.294 . S
O557 C550 1.240 . S
O558 In546 2.326 . S
O558 C550 1.252 . S
In559 O560 2.294 . S
In559 O561 2.326 . S
In559 O565 2.266 . S
In559 O566 2.326 . S
In559 O567 2.266 . S
In559 O568 2.326 . S
In559 O570 2.294 . S
In559 O571 2.326 . S
O560 In559 2.294 . S
O560 C569 1.240 . S
O561 In559 2.326 . S
O561 C569 1.252 . S
C562 O565 1.252 . S
C562 O566 1.260 . S
C563 O570 1.240 . S
C563 O571 1.252 . S
C564 O567 1.252 . S
C564 O568 1.260 . S
O565 In559 2.266 . S
O565 C562 1.252 . S
O566 In559 2.326 . S
O566 C562 1.260 . S
O567 In559 2.266 . S
O567 C564 1.252 . S
O568 In559 2.326 . S
O568 C564 1.260 . S
C569 O560 1.240 . S
C569 O561 1.252 . S
O570 In559 2.294 . S
O570 C563 1.240 . S
O571 In559 2.326 . S
O571 C563 1.252 . S
In572 O573 2.294 . S
In572 O574 2.326 . S
In572 O578 2.266 . S
In572 O579 2.326 . S
In572 O580 2.266 . S
In572 O581 2.326 . S
In572 O583 2.294 . S
In572 O584 2.326 . S
O573 In572 2.294 . S
O573 C582 1.240 . S
O574 In572 2.326 . S
O574 C582 1.252 . S
C575 O578 1.252 . S
C575 O579 1.260 . S
C576 O583 1.240 . S
C576 O584 1.252 . S
C577 O580 1.252 . S
C577 O581 1.260 . S
O578 In572 2.266 . S
O578 C575 1.252 . S
O579 In572 2.326 . S
O579 C575 1.260 . S
O580 In572 2.266 . S
O580 C577 1.252 . S
O581 In572 2.326 . S
O581 C577 1.260 . S
C582 O573 1.240 . S
C582 O574 1.252 . S
O583 In572 2.294 . S
O583 C576 1.240 . S
O584 In572 2.326 . S
O584 C576 1.252 . S
In585 O586 2.294 . S
In585 O587 2.326 . S
In585 O591 2.266 . S
In585 O592 2.326 . S
In585 O593 2.266 . S
In585 O594 2.326 . S
In585 O596 2.294 . S
In585 O597 2.326 . S
O586 In585 2.294 . S
O586 C595 1.240 . S
O587 In585 2.326 . S
O587 C595 1.252 . S
C588 O591 1.252 . S
C588 O592 1.260 . S
C589 O596 1.240 . S
C589 O597 1.252 . S
C590 O593 1.252 . S
C590 O594 1.260 . S
O591 In585 2.266 . S
O591 C588 1.252 . S
O592 In585 2.326 . S
O592 C588 1.260 . S
O593 In585 2.266 . S
O593 C590 1.252 . S
O594 In585 2.326 . S
O594 C590 1.260 . S
C595 O586 1.240 . S
C595 O587 1.252 . S
O596 In585 2.294 . S
O596 C589 1.240 . S
O597 In585 2.326 . S
O597 C589 1.252 . S
In598 O599 2.294 . S
In598 O600 2.326 . S
In598 O604 2.266 . S
In598 O605 2.326 . S
In598 O606 2.266 . S
In598 O607 2.326 . S
In598 O609 2.294 . S
In598 O610 2.326 . S
O599 In598 2.294 . S
O599 C608 1.240 . S
O600 In598 2.326 . S
O600 C608 1.252 . S
C601 O604 1.252 . S
C601 O605 1.260 . S
C602 O609 1.240 . S
C602 O610 1.252 . S
C603 O606 1.252 . S
C603 O607 1.260 . S
O604 In598 2.266 . S
O604 C601 1.252 . S
O605 In598 2.326 . S
O605 C601 1.260 . S
O606 In598 2.266 . S
O606 C603 1.252 . S
O607 In598 2.326 . S
O607 C603 1.260 . S
C608 O599 1.240 . S
C608 O600 1.252 . S
O609 In598 2.294 . S
O609 C602 1.240 . S
O610 In598 2.326 . S
O610 C602 1.252 . S
In611 O612 2.294 . S
In611 O613 2.326 . S
In611 O617 2.266 . S
In611 O618 2.326 . S
In611 O619 2.266 . S
In611 O620 2.326 . S
In611 O622 2.294 . S
In611 O623 2.326 . S
O612 In611 2.294 . S
O612 C621 1.240 . S
O613 In611 2.326 . S
O613 C621 1.252 . S
C614 O617 1.252 . S
C614 O618 1.260 . S
C615 O622 1.240 . S
C615 O623 1.252 . S
C616 O619 1.252 . S
C616 O620 1.260 . S
O617 In611 2.266 . S
O617 C614 1.252 . S
O618 In611 2.326 . S
O618 C614 1.260 . S
O619 In611 2.266 . S
O619 C616 1.252 . S
O620 In611 2.326 . S
O620 C616 1.260 . S
C621 O612 1.240 . S
C621 O613 1.252 . S
O622 In611 2.294 . S
O622 C615 1.240 . S
O623 In611 2.326 . S
O623 C615 1.252 . S
H624 C636 0.930 . S
H625 C638 0.930 . S
H626 C639 0.930 . S
H627 C643 0.959 . S
H628 C643 0.959 . S
H629 C643 0.961 . S
H630 C644 0.960 . S
H631 C644 0.961 . S
H632 C644 0.959 . S
H633 C647 0.929 . S
H634 C648 0.931 . S
H635 C650 0.930 . S
C636 H624 0.930 . S
C636 C637 1.399 . S
C636 C641 1.399 . S
C637 C636 1.399 . S
C637 C638 1.376 . S
C638 H625 0.930 . S
C638 C637 1.376 . S
C638 C639 1.388 . S
C639 H626 0.930 . S
C639 C638 1.388 . S
C639 C640 1.390 . S
C640 C639 1.390 . S
C640 C641 1.394 . S
C640 C646 1.465 1_655 S
C641 C636 1.399 . S
C641 C640 1.394 . S
C641 C642 1.516 . S
C642 C641 1.516 . S
C642 C643 1.502 . S
C642 C644 1.561 1_655 S
C642 C645 1.526 1_655 S
C643 H627 0.959 . S
C643 H628 0.959 . S
C643 H629 0.961 . S
C643 C642 1.502 . S
C644 H630 0.960 . S
C644 H631 0.961 . S
C644 H632 0.959 . S
C644 C642 1.561 1_455 S
C645 C642 1.526 1_455 S
C645 C646 1.396 . S
C645 C650 1.390 . S
C646 C640 1.465 1_455 S
C646 C645 1.396 . S
C646 C647 1.399 . S
C647 H633 0.929 . S
C647 C646 1.399 . S
C647 C648 1.385 . S
C648 H634 0.931 . S
C648 C647 1.385 . S
C648 C649 1.389 . S
C649 C648 1.389 . S
C649 C650 1.387 . S
C650 H635 0.930 . S
C650 C645 1.390 . S
C650 C649 1.387 . S
H651 C663 0.930 . S
H652 C665 0.930 . S
H653 C666 0.930 . S
H654 C670 0.991 . S
H655 C670 0.925 1_545 S
H656 C670 0.983 . S
H657 C671 0.960 . S
H658 C671 0.961 . S
H659 C671 0.959 . S
H660 C674 0.929 . S
H661 C675 0.931 . S
H662 C677 0.930 . S
C663 H651 0.930 . S
C663 C664 1.399 . S
C663 C668 1.399 . S
C664 C663 1.399 . S
C664 C665 1.376 . S
C665 H652 0.930 . S
C665 C664 1.376 . S
C665 C666 1.388 . S
C666 H653 0.930 . S
C666 C665 1.388 . S
C666 C667 1.390 . S
C667 C666 1.390 . S
C667 C668 1.394 . S
C667 C673 1.465 1_565 S
C668 C663 1.399 . S
C668 C667 1.394 . S
C668 C669 1.516 1_565 S
C669 C668 1.516 1_545 S
C669 C670 1.486 1_545 S
C669 C671 1.561 . S
C669 C672 1.526 . S
C670 H654 0.991 . S
C670 H655 0.925 1_565 S
C670 H656 0.983 . S
C670 C669 1.486 1_565 S
C671 H657 0.960 . S
C671 H658 0.961 . S
C671 H659 0.959 . S
C671 C669 1.561 . S
C672 C669 1.526 . S
C672 C673 1.396 . S
C672 C677 1.390 . S
C673 C667 1.465 1_545 S
C673 C672 1.396 . S
C673 C674 1.399 . S
C674 H660 0.929 . S
C674 C673 1.399 . S
C674 C675 1.385 . S
C675 H661 0.931 . S
C675 C674 1.385 . S
C675 C676 1.389 . S
C676 C675 1.389 . S
C676 C677 1.387 . S
C677 H662 0.930 . S
C677 C672 1.390 . S
C677 C676 1.387 . S
H678 C690 0.930 . S
H679 C692 0.930 . S
H680 C693 0.930 . S
H681 C697 0.959 . S
H682 C697 0.959 . S
H683 C697 0.961 . S
H684 C698 0.960 . S
H685 C698 0.961 . S
H686 C698 0.959 . S
H687 C701 0.929 . S
H688 C702 0.931 . S
H689 C704 0.930 . S
C690 H678 0.930 . S
C690 C691 1.399 . S
C690 C695 1.399 . S
C691 C690 1.399 . S
C691 C692 1.376 . S
C692 H679 0.930 . S
C692 C691 1.376 . S
C692 C693 1.388 1_455 S
C693 H680 0.930 . S
C693 C692 1.388 1_655 S
C693 C694 1.390 1_655 S
C694 C693 1.390 1_455 S
C694 C695 1.391 . S
C694 C700 1.467 1_455 S
C695 C690 1.399 . S
C695 C694 1.391 . S
C695 C696 1.516 . S
C696 C695 1.516 . S
C696 C697 1.502 . S
C696 C698 1.561 . S
C696 C699 1.526 1_455 S
C697 H681 0.959 . S
C697 H682 0.959 . S
C697 H683 0.961 . S
C697 C696 1.502 . S
C698 H684 0.960 . S
C698 H685 0.961 . S
C698 H686 0.959 . S
C698 C696 1.561 . S
C699 C696 1.526 1_655 S
C699 C700 1.396 . S
C699 C704 1.390 . S
C700 C694 1.467 1_655 S
C700 C699 1.396 . S
C700 C701 1.399 . S
C701 H687 0.929 . S
C701 C700 1.399 . S
C701 C702 1.385 . S
C702 H688 0.931 . S
C702 C701 1.385 . S
C702 C703 1.389 . S
C703 C702 1.389 . S
C703 C704 1.387 . S
C704 H689 0.930 . S
C704 C699 1.390 . S
C704 C703 1.387 . S
H705 C717 0.930 . S
H706 C719 0.930 . S
H707 C720 0.917 1_545 S
H708 C724 0.959 . S
H709 C724 0.959 . S
H710 C724 0.961 . S
H711 C725 0.960 . S
H712 C725 0.961 . S
H713 C725 0.946 1_545 S
H714 C728 0.929 . S
H715 C729 0.931 . S
H716 C731 0.930 . S
C717 H705 0.930 . S
C717 C718 1.399 . S
C717 C722 1.399 . S
C718 C717 1.399 . S
C718 C719 1.376 . S
C719 H706 0.930 . S
C719 C718 1.376 . S
C719 C720 1.402 . S
C720 H707 0.917 1_565 S
C720 C719 1.402 . S
C720 C721 1.390 . S
C721 C720 1.390 . S
C721 C722 1.413 . S
C721 C727 1.449 1_565 S
C722 C717 1.399 . S
C722 C721 1.413 . S
C722 C723 1.516 . S
C723 C722 1.516 . S
C723 C724 1.502 . S
C723 C725 1.561 . S
C723 C726 1.526 1_565 S
C724 H708 0.959 . S
C724 H709 0.959 . S
C724 H710 0.961 . S
C724 C723 1.502 . S
C725 H711 0.960 . S
C725 H712 0.961 . S
C725 H713 0.946 1_565 S
C725 C723 1.561 . S
C726 C723 1.526 1_545 S
C726 C727 1.396 . S
C726 C731 1.390 . S
C727 C721 1.449 1_545 S
C727 C726 1.396 . S
C727 C728 1.399 . S
C728 H714 0.929 . S
C728 C727 1.399 . S
C728 C729 1.385 . S
C729 H715 0.931 . S
C729 C728 1.385 . S
C729 C730 1.389 . S
C730 C729 1.389 . S
C730 C731 1.387 . S
C731 H716 0.930 . S
C731 C726 1.390 . S
C731 C730 1.387 . S
H732 C744 0.930 . S
H733 C746 0.930 . S
H734 C747 0.930 . S
H735 C751 0.959 . S
H736 C751 0.959 . S
H737 C751 0.961 . S
H738 C752 0.960 . S
H739 C752 0.961 . S
H740 C752 0.959 . S
H741 C755 0.927 . S
H742 C756 0.931 . S
H743 C758 0.930 . S
C744 H732 0.930 . S
C744 C745 1.399 . S
C744 C749 1.399 . S
C745 C744 1.399 . S
C745 C746 1.376 . S
C746 H733 0.930 . S
C746 C745 1.376 . S
C746 C747 1.388 . S
C747 H734 0.930 . S
C747 C746 1.388 . S
C747 C748 1.390 . S
C748 C747 1.390 . S
C748 C749 1.394 . S
C748 C754 1.454 1_655 S
C749 C744 1.399 . S
C749 C748 1.394 . S
C749 C750 1.516 1_655 S
C750 C749 1.516 1_455 S
C750 C751 1.502 . S
C750 C752 1.561 . S
C750 C753 1.526 . S
C751 H735 0.959 . S
C751 H736 0.959 . S
C751 H737 0.961 . S
C751 C750 1.502 . S
C752 H738 0.960 . S
C752 H739 0.961 . S
C752 H740 0.959 . S
C752 C750 1.561 . S
C753 C750 1.526 . S
C753 C754 1.410 . S
C753 C758 1.390 . S
C754 C748 1.454 1_455 S
C754 C753 1.410 . S
C754 C755 1.398 1_455 S
C755 H741 0.927 . S
C755 C754 1.398 1_655 S
C755 C756 1.387 1_655 S
C756 H742 0.931 . S
C756 C755 1.387 1_455 S
C756 C757 1.389 . S
C757 C756 1.389 . S
C757 C758 1.387 . S
C758 H743 0.930 . S
C758 C753 1.390 . S
C758 C757 1.387 . S
H759 C771 0.930 . S
H760 C773 0.930 . S
H761 C774 0.930 . S
H762 C778 0.959 . S
H763 C778 0.959 . S
H764 C778 0.961 . S
H765 C779 0.960 . S
H766 C779 0.961 . S
H767 C779 0.959 . S
H768 C782 0.929 . S
H769 C783 0.931 . S
H770 C785 0.930 . S
C771 H759 0.930 . S
C771 C772 1.399 . S
C771 C776 1.399 . S
C772 C771 1.399 . S
C772 C773 1.376 . S
C773 H760 0.930 . S
C773 C772 1.376 . S
C773 C774 1.388 . S
C774 H761 0.930 . S
C774 C773 1.388 . S
C774 C775 1.390 . S
C775 C774 1.390 . S
C775 C776 1.394 . S
C775 C781 1.464 1_545 S
C776 C771 1.399 . S
C776 C775 1.394 . S
C776 C777 1.516 1_545 S
C777 C776 1.516 1_565 S
C777 C778 1.502 . S
C777 C779 1.561 . S
C777 C780 1.526 . S
C778 H762 0.959 . S
C778 H763 0.959 . S
C778 H764 0.961 . S
C778 C777 1.502 . S
C779 H765 0.960 . S
C779 H766 0.961 . S
C779 H767 0.959 . S
C779 C777 1.561 . S
C780 C777 1.526 . S
C780 C781 1.397 . S
C780 C785 1.390 . S
C781 C775 1.464 1_565 S
C781 C780 1.397 . S
C781 C782 1.399 1_565 S
C782 H768 0.929 . S
C782 C781 1.399 1_545 S
C782 C783 1.385 1_545 S
C783 H769 0.931 . S
C783 C782 1.385 1_565 S
C783 C784 1.389 . S
C784 C783 1.389 . S
C784 C785 1.387 . S
C785 H770 0.930 . S
C785 C780 1.390 . S
C785 C784 1.387 . S
H786 C798 0.930 . S
H787 C800 0.930 . S
H788 C801 0.930 . S
H789 C805 0.959 . S
H790 C805 0.959 . S
H791 C805 0.961 . S
H792 C806 0.960 . S
H793 C806 0.961 1_655 S
H794 C806 0.959 . S
H795 C809 0.900 1_455 S
H796 C810 0.931 . S
H797 C812 0.930 . S
C798 H786 0.930 . S
C798 C799 1.399 . S
C798 C803 1.399 . S
C799 C798 1.399 . S
C799 C800 1.376 . S
C800 H787 0.930 . S
C800 C799 1.376 . S
C800 C801 1.388 . S
C801 H788 0.930 . S
C801 C800 1.388 . S
C801 C802 1.390 . S
C802 C801 1.390 . S
C802 C803 1.394 . S
C802 C808 1.465 1_455 S
C803 C798 1.399 . S
C803 C802 1.394 . S
C803 C804 1.516 1_455 S
C804 C803 1.516 1_655 S
C804 C805 1.502 . S
C804 C806 1.561 1_655 S
C804 C807 1.526 . S
C805 H789 0.959 . S
C805 H790 0.959 . S
C805 H791 0.961 . S
C805 C804 1.502 . S
C806 H792 0.960 . S
C806 H793 0.961 1_455 S
C806 H794 0.959 . S
C806 C804 1.561 1_455 S
C807 C804 1.526 . S
C807 C808 1.396 . S
C807 C812 1.390 . S
C808 C802 1.465 1_655 S
C808 C807 1.396 . S
C808 C809 1.399 . S
C809 H795 0.900 1_655 S
C809 C808 1.399 . S
C809 C810 1.385 . S
C810 H796 0.931 . S
C810 C809 1.385 . S
C810 C811 1.389 . S
C811 C810 1.389 . S
C811 C812 1.387 . S
C812 H797 0.930 . S
C812 C807 1.390 . S
C812 C811 1.387 . S
H813 C825 0.930 . S
H814 C827 0.930 . S
H815 C828 0.930 . S
H816 C832 0.959 1_545 S
H817 C832 0.959 . S
H818 C832 0.970 . S
H819 C833 0.960 . S
H820 C833 0.961 . S
H821 C833 0.959 . S
H822 C836 0.929 . S
H823 C837 0.931 . S
H824 C839 0.930 . S
C825 H813 0.930 . S
C825 C826 1.399 . S
C825 C830 1.399 . S
C826 C825 1.399 . S
C826 C827 1.376 . S
C827 H814 0.930 . S
C827 C826 1.376 . S
C827 C828 1.388 . S
C828 H815 0.930 . S
C828 C827 1.388 . S
C828 C829 1.390 . S
C829 C828 1.390 . S
C829 C830 1.394 . S
C829 C835 1.465 1_545 S
C830 C825 1.399 . S
C830 C829 1.394 . S
C830 C831 1.516 1_545 S
C831 C830 1.516 1_565 S
C831 C832 1.502 . S
C831 C833 1.561 . S
C831 C834 1.526 . S
C832 H816 0.959 1_565 S
C832 H817 0.959 . S
C832 H818 0.970 . S
C832 C831 1.502 . S
C833 H819 0.960 . S
C833 H820 0.961 . S
C833 H821 0.959 . S
C833 C831 1.561 . S
C834 C831 1.526 . S
C834 C835 1.396 . S
C834 C839 1.390 . S
C835 C829 1.465 1_565 S
C835 C834 1.396 . S
C835 C836 1.399 . S
C836 H822 0.929 . S
C836 C835 1.399 . S
C836 C837 1.385 . S
C837 H823 0.931 . S
C837 C836 1.385 . S
C837 C838 1.389 . S
C838 C837 1.389 . S
C838 C839 1.387 . S
C839 H824 0.930 . S
C839 C834 1.390 . S
C839 C838 1.387 . S
H840 C852 0.930 . S
H841 C854 0.930 . S
H842 C855 0.930 . S
H843 C859 0.959 . S
H844 C859 0.959 . S
H845 C859 0.961 . S
H846 C860 0.960 . S
H847 C860 0.961 . S
H848 C860 0.959 . S
H849 C863 0.929 . S
H850 C864 0.931 . S
H851 C866 0.930 . S
C852 H840 0.930 . S
C852 C853 1.399 . S
C852 C857 1.399 . S
C853 C852 1.399 . S
C853 C854 1.376 . S
C854 H841 0.930 . S
C854 C853 1.376 . S
C854 C855 1.388 . S
C855 H842 0.930 . S
C855 C854 1.388 . S
C855 C856 1.390 . S
C856 C855 1.390 . S
C856 C857 1.394 . S
C856 C862 1.466 . S
C857 C852 1.399 . S
C857 C856 1.394 . S
C857 C858 1.516 1_554 S
C858 C857 1.516 1_556 S
C858 C859 1.502 . S
C858 C860 1.561 . S
C858 C861 1.526 . S
C859 H843 0.959 . S
C859 H844 0.959 . S
C859 H845 0.961 . S
C859 C858 1.502 . S
C860 H846 0.960 . S
C860 H847 0.961 . S
C860 H848 0.959 . S
C860 C858 1.561 . S
C861 C858 1.526 . S
C861 C862 1.395 1_556 S
C861 C866 1.390 . S
C862 C856 1.466 . S
C862 C861 1.395 1_554 S
C862 C863 1.399 . S
C863 H849 0.929 . S
C863 C862 1.399 . S
C863 C864 1.385 1_554 S
C864 H850 0.931 . S
C864 C863 1.385 1_556 S
C864 C865 1.389 . S
C865 C864 1.389 . S
C865 C866 1.387 . S
C866 H851 0.930 . S
C866 C861 1.390 . S
C866 C865 1.387 . S
H867 C879 0.930 . S
H868 C881 0.930 . S
H869 C882 0.930 . S
H870 C886 0.959 . S
H871 C886 0.959 . S
H872 C886 0.961 . S
H873 C887 0.960 . S
H874 C887 0.961 1_554 S
H875 C887 0.959 . S
H876 C890 0.929 . S
H877 C891 0.931 . S
H878 C893 0.930 . S
C879 H867 0.930 . S
C879 C880 1.399 . S
C879 C884 1.399 . S
C880 C879 1.399 . S
C880 C881 1.376 . S
C881 H868 0.930 . S
C881 C880 1.376 . S
C881 C882 1.388 . S
C882 H869 0.930 . S
C882 C881 1.388 . S
C882 C883 1.390 . S
C883 C882 1.390 . S
C883 C884 1.394 . S
C883 C889 1.465 1_556 S
C884 C879 1.399 . S
C884 C883 1.394 . S
C884 C885 1.516 1_556 S
C885 C884 1.516 1_554 S
C885 C886 1.502 . S
C885 C887 1.561 1_554 S
C885 C888 1.526 . S
C886 H870 0.959 . S
C886 H871 0.959 . S
C886 H872 0.961 . S
C886 C885 1.502 . S
C887 H873 0.960 . S
C887 H874 0.961 1_556 S
C887 H875 0.959 . S
C887 C885 1.561 1_556 S
C888 C885 1.526 . S
C888 C889 1.396 . S
C888 C893 1.390 . S
C889 C883 1.465 1_554 S
C889 C888 1.396 . S
C889 C890 1.399 . S
C890 H876 0.929 . S
C890 C889 1.399 . S
C890 C891 1.385 . S
C891 H877 0.931 . S
C891 C890 1.385 . S
C891 C892 1.389 . S
C892 C891 1.389 . S
C892 C893 1.387 . S
C893 H878 0.930 . S
C893 C888 1.390 . S
C893 C892 1.387 . S
H894 C906 0.930 . S
H895 C908 0.930 . S
H896 C909 0.937 . S
H897 C913 0.959 . S
H898 C913 0.959 . S
H899 C913 0.961 . S
H900 C914 0.960 . S
H901 C914 0.961 . S
H902 C914 0.959 . S
H903 C917 0.929 . S
H904 C918 0.931 . S
H905 C920 0.930 . S
C906 H894 0.930 . S
C906 C907 1.399 . S
C906 C911 1.399 . S
C907 C906 1.399 . S
C907 C908 1.376 . S
C908 H895 0.930 . S
C908 C907 1.376 . S
C908 C909 1.382 1_556 S
C909 H896 0.937 . S
C909 C908 1.382 1_554 S
C909 C910 1.389 1_554 S
C910 C909 1.389 1_556 S
C910 C911 1.394 . S
C910 C916 1.465 1_556 S
C911 C906 1.399 . S
C911 C910 1.394 . S
C911 C912 1.516 . S
C912 C911 1.516 . S
C912 C913 1.502 . S
C912 C914 1.561 . S
C912 C915 1.526 1_556 S
C913 H897 0.959 . S
C913 H898 0.959 . S
C913 H899 0.961 . S
C913 C912 1.502 . S
C914 H900 0.960 . S
C914 H901 0.961 . S
C914 H902 0.959 . S
C914 C912 1.561 . S
C915 C912 1.526 1_554 S
C915 C916 1.396 . S
C915 C920 1.390 . S
C916 C910 1.465 1_554 S
C916 C915 1.396 . S
C916 C917 1.399 . S
C917 H903 0.929 . S
C917 C916 1.399 . S
C917 C918 1.385 . S
C918 H904 0.931 . S
C918 C917 1.385 . S
C918 C919 1.389 . S
C919 C918 1.389 . S
C919 C920 1.387 . S
C920 H905 0.930 . S
C920 C915 1.390 . S
C920 C919 1.387 . S
H921 C933 0.930 . S
H922 C935 0.930 . S
H923 C936 0.930 1_554 S
H924 C940 0.959 . S
H925 C940 0.959 . S
H926 C940 0.961 . S
H927 C941 0.960 . S
H928 C941 0.961 . S
H929 C941 0.959 . S
H930 C944 0.929 . S
H931 C945 0.931 . S
H932 C947 0.930 . S
C933 H921 0.930 . S
C933 C934 1.399 . S
C933 C938 1.399 . S
C934 C933 1.399 . S
C934 C935 1.376 . S
C935 H922 0.930 . S
C935 C934 1.376 . S
C935 C936 1.388 . S
C936 H923 0.930 1_556 S
C936 C935 1.388 . S
C936 C937 1.390 . S
C937 C936 1.390 . S
C937 C938 1.394 . S
C937 C943 1.465 1_556 S
C938 C933 1.399 . S
C938 C937 1.394 . S
C938 C939 1.516 . S
C939 C938 1.516 . S
C939 C940 1.502 . S
C939 C941 1.561 . S
C939 C942 1.526 1_556 S
C940 H924 0.959 . S
C940 H925 0.959 . S
C940 H926 0.961 . S
C940 C939 1.502 . S
C941 H927 0.960 . S
C941 H928 0.961 . S
C941 H929 0.959 . S
C941 C939 1.561 . S
C942 C939 1.526 1_554 S
C942 C943 1.396 . S
C942 C947 1.390 . S
C943 C937 1.465 1_554 S
C943 C942 1.396 . S
C943 C944 1.399 . S
C944 H930 0.929 . S
C944 C943 1.399 . S
C944 C945 1.385 . S
C945 H931 0.931 . S
C945 C944 1.385 . S
C945 C946 1.389 . S
C946 C945 1.389 . S
C946 C947 1.387 . S
C947 H932 0.930 . S
C947 C942 1.390 . S
C947 C946 1.387 . S
H948 C960 0.930 . S
H949 C962 0.930 . S
H950 C963 0.930 . S
H951 C967 0.959 . S
H952 C967 0.959 . S
H953 C967 0.961 . S
H954 C968 0.960 . S
H955 C968 0.961 . S
H956 C968 0.959 . S
H957 C971 0.929 . S
H958 C972 0.931 . S
H959 C974 0.930 . S
C960 H948 0.930 . S
C960 C961 1.399 . S
C960 C965 1.399 . S
C961 C960 1.399 . S
C961 C962 1.376 . S
C962 H949 0.930 . S
C962 C961 1.376 . S
C962 C963 1.388 . S
C963 H950 0.930 . S
C963 C962 1.388 . S
C963 C964 1.390 . S
C964 C963 1.390 . S
C964 C965 1.394 . S
C964 C970 1.465 . S
C965 C960 1.399 . S
C965 C964 1.394 . S
C965 C966 1.516 . S
C966 C965 1.516 . S
C966 C967 1.502 . S
C966 C968 1.561 . S
C966 C969 1.526 . S
C967 H951 0.959 . S
C967 H952 0.959 . S
C967 H953 0.961 . S
C967 C966 1.502 . S
C968 H954 0.960 . S
C968 H955 0.961 . S
C968 H956 0.959 . S
C968 C966 1.561 . S
C969 C966 1.526 . S
C969 C970 1.396 . S
C969 C974 1.390 . S
C970 C964 1.465 . S
C970 C969 1.396 . S
C970 C971 1.399 . S
C971 H957 0.929 . S
C971 C970 1.399 . S
C971 C972 1.385 . S
C972 H958 0.931 . S
C972 C971 1.385 . S
C972 C973 1.389 . S
C973 C972 1.389 . S
C973 C974 1.387 . S
C974 H959 0.930 . S
C974 C969 1.390 . S
C974 C973 1.387 . S
H975 C987 0.930 . S
H976 C989 0.930 . S
H977 C990 0.930 . S
H978 C994 0.959 . S
H979 C994 0.959 . S
H980 C994 0.961 . S
H981 C995 0.960 . S
H982 C995 0.961 . S
H983 C995 0.959 . S
H984 C998 0.929 . S
H985 C999 0.931 . S
H986 C1001 0.930 . S
C987 H975 0.930 . S
C987 C988 1.399 . S
C987 C992 1.399 . S
C988 C987 1.399 . S
C988 C989 1.376 . S
C989 H976 0.930 . S
C989 C988 1.376 . S
C989 C990 1.388 . S
C990 H977 0.930 . S
C990 C989 1.388 . S
C990 C991 1.390 . S
C991 C990 1.390 . S
C991 C992 1.394 . S
C991 C997 1.465 . S
C992 C987 1.399 . S
C992 C991 1.394 . S
C992 C993 1.516 . S
C993 C992 1.516 . S
C993 C994 1.502 . S
C993 C995 1.561 . S
C993 C996 1.526 . S
C994 H978 0.959 . S
C994 H979 0.959 . S
C994 H980 0.961 . S
C994 C993 1.502 . S
C995 H981 0.960 . S
C995 H982 0.961 . S
C995 H983 0.959 . S
C995 C993 1.561 . S
C996 C993 1.526 . S
C996 C997 1.396 . S
C996 C1001 1.390 . S
C997 C991 1.465 . S
C997 C996 1.396 . S
C997 C998 1.399 . S
C998 H984 0.929 . S
C998 C997 1.399 . S
C998 C999 1.385 . S
C999 H985 0.931 . S
C999 C998 1.385 . S
C999 C1000 1.389 . S
C1000 C999 1.389 . S
C1000 C1001 1.387 . S
C1001 H986 0.930 . S
C1001 C996 1.390 . S
C1001 C1000 1.387 . S
H1002 C1014 0.930 . S
H1003 C1016 0.930 . S
H1004 C1017 0.930 . S
H1005 C1021 0.959 . S
H1006 C1021 0.959 . S
H1007 C1021 0.961 . S
H1008 C1022 0.960 . S
H1009 C1022 0.961 . S
H1010 C1022 0.959 . S
H1011 C1025 0.929 . S
H1012 C1026 0.931 . S
H1013 C1028 0.930 . S
C1014 H1002 0.930 . S
C1014 C1015 1.399 . S
C1014 C1019 1.399 . S
C1015 C1014 1.399 . S
C1015 C1016 1.376 . S
C1016 H1003 0.930 . S
C1016 C1015 1.376 . S
C1016 C1017 1.388 . S
C1017 H1004 0.930 . S
C1017 C1016 1.388 . S
C1017 C1018 1.390 . S
C1018 C1017 1.390 . S
C1018 C1019 1.394 . S
C1018 C1024 1.465 . S
C1019 C1014 1.399 . S
C1019 C1018 1.394 . S
C1019 C1020 1.516 . S
C1020 C1019 1.516 . S
C1020 C1021 1.502 . S
C1020 C1022 1.561 . S
C1020 C1023 1.526 . S
C1021 H1005 0.959 . S
C1021 H1006 0.959 . S
C1021 H1007 0.961 . S
C1021 C1020 1.502 . S
C1022 H1008 0.960 . S
C1022 H1009 0.961 . S
C1022 H1010 0.959 . S
C1022 C1020 1.561 . S
C1023 C1020 1.526 . S
C1023 C1024 1.396 . S
C1023 C1028 1.390 . S
C1024 C1018 1.465 . S
C1024 C1023 1.396 . S
C1024 C1025 1.399 . S
C1025 H1011 0.929 . S
C1025 C1024 1.399 . S
C1025 C1026 1.385 . S
C1026 H1012 0.931 . S
C1026 C1025 1.385 . S
C1026 C1027 1.389 . S
C1027 C1026 1.389 . S
C1027 C1028 1.387 . S
C1028 H1013 0.930 . S
C1028 C1023 1.390 . S
C1028 C1027 1.387 . S
H1029 C1041 0.930 . S
H1030 C1043 0.930 . S
H1031 C1044 0.930 . S
H1032 C1048 0.959 . S
H1033 C1048 0.959 . S
H1034 C1048 0.961 . S
H1035 C1049 0.960 . S
H1036 C1049 0.961 . S
H1037 C1049 0.959 . S
H1038 C1052 0.929 . S
H1039 C1053 0.931 . S
H1040 C1055 0.930 . S
C1041 H1029 0.930 . S
C1041 C1042 1.399 . S
C1041 C1046 1.399 . S
C1042 C1041 1.399 . S
C1042 C1043 1.376 . S
C1043 H1030 0.930 . S
C1043 C1042 1.376 . S
C1043 C1044 1.388 . S
C1044 H1031 0.930 . S
C1044 C1043 1.388 . S
C1044 C1045 1.390 . S
C1045 C1044 1.390 . S
C1045 C1046 1.394 . S
C1045 C1051 1.465 . S
C1046 C1041 1.399 . S
C1046 C1045 1.394 . S
C1046 C1047 1.516 . S
C1047 C1046 1.516 . S
C1047 C1048 1.502 . S
C1047 C1049 1.561 . S
C1047 C1050 1.526 . S
C1048 H1032 0.959 . S
C1048 H1033 0.959 . S
C1048 H1034 0.961 . S
C1048 C1047 1.502 . S
C1049 H1035 0.960 . S
C1049 H1036 0.961 . S
C1049 H1037 0.959 . S
C1049 C1047 1.561 . S
C1050 C1047 1.526 . S
C1050 C1051 1.396 . S
C1050 C1055 1.390 . S
C1051 C1045 1.465 . S
C1051 C1050 1.396 . S
C1051 C1052 1.399 . S
C1052 H1038 0.929 . S
C1052 C1051 1.399 . S
C1052 C1053 1.385 . S
C1053 H1039 0.931 . S
C1053 C1052 1.385 . S
C1053 C1054 1.389 . S
C1054 C1053 1.389 . S
C1054 C1055 1.387 . S
C1055 H1040 0.930 . S
C1055 C1050 1.390 . S
C1055 C1054 1.387 . S
H1056 C1068 0.930 . S
H1057 C1070 0.930 . S
H1058 C1071 0.930 . S
H1059 C1075 0.959 . S
H1060 C1075 0.959 . S
H1061 C1075 0.961 . S
H1062 C1076 0.960 . S
H1063 C1076 0.961 . S
H1064 C1076 0.959 . S
H1065 C1079 0.929 . S
H1066 C1080 0.931 . S
H1067 C1082 0.930 . S
C1068 H1056 0.930 . S
C1068 C1069 1.399 . S
C1068 C1073 1.399 . S
C1069 C1068 1.399 . S
C1069 C1070 1.376 . S
C1070 H1057 0.930 . S
C1070 C1069 1.376 . S
C1070 C1071 1.388 . S
C1071 H1058 0.930 . S
C1071 C1070 1.388 . S
C1071 C1072 1.390 . S
C1072 C1071 1.390 . S
C1072 C1073 1.394 . S
C1072 C1078 1.465 . S
C1073 C1068 1.399 . S
C1073 C1072 1.394 . S
C1073 C1074 1.516 . S
C1074 C1073 1.516 . S
C1074 C1075 1.502 . S
C1074 C1076 1.561 . S
C1074 C1077 1.526 . S
C1075 H1059 0.959 . S
C1075 H1060 0.959 . S
C1075 H1061 0.961 . S
C1075 C1074 1.502 . S
C1076 H1062 0.960 . S
C1076 H1063 0.961 . S
C1076 H1064 0.959 . S
C1076 C1074 1.561 . S
C1077 C1074 1.526 . S
C1077 C1078 1.396 . S
C1077 C1082 1.390 . S
C1078 C1072 1.465 . S
C1078 C1077 1.396 . S
C1078 C1079 1.399 . S
C1079 H1065 0.929 . S
C1079 C1078 1.399 . S
C1079 C1080 1.385 . S
C1080 H1066 0.931 . S
C1080 C1079 1.385 . S
C1080 C1081 1.389 . S
C1081 C1080 1.389 . S
C1081 C1082 1.387 . S
C1082 H1067 0.930 . S
C1082 C1077 1.390 . S
C1082 C1081 1.387 . S
H1083 C1095 0.930 . S
H1084 C1097 0.930 . S
H1085 C1098 0.930 . S
H1086 C1102 0.959 . S
H1087 C1102 0.959 . S
H1088 C1102 0.961 . S
H1089 C1103 0.960 . S
H1090 C1103 0.961 . S
H1091 C1103 0.959 . S
H1092 C1106 0.929 . S
H1093 C1107 0.931 . S
H1094 C1109 0.930 . S
C1095 H1083 0.930 . S
C1095 C1096 1.399 . S
C1095 C1100 1.399 . S
C1096 C1095 1.399 . S
C1096 C1097 1.376 . S
C1097 H1084 0.930 . S
C1097 C1096 1.376 . S
C1097 C1098 1.388 . S
C1098 H1085 0.930 . S
C1098 C1097 1.388 . S
C1098 C1099 1.390 . S
C1099 C1098 1.390 . S
C1099 C1100 1.394 . S
C1099 C1105 1.465 . S
C1100 C1095 1.399 . S
C1100 C1099 1.394 . S
C1100 C1101 1.516 . S
C1101 C1100 1.516 . S
C1101 C1102 1.502 . S
C1101 C1103 1.561 . S
C1101 C1104 1.526 . S
C1102 H1086 0.959 . S
C1102 H1087 0.959 . S
C1102 H1088 0.961 . S
C1102 C1101 1.502 . S
C1103 H1089 0.960 . S
C1103 H1090 0.961 . S
C1103 H1091 0.959 . S
C1103 C1101 1.561 . S
C1104 C1101 1.526 . S
C1104 C1105 1.396 . S
C1104 C1109 1.390 . S
C1105 C1099 1.465 . S
C1105 C1104 1.396 . S
C1105 C1106 1.399 . S
C1106 H1092 0.929 . S
C1106 C1105 1.399 . S
C1106 C1107 1.385 . S
C1107 H1093 0.931 . S
C1107 C1106 1.385 . S
C1107 C1108 1.389 . S
C1108 C1107 1.389 . S
C1108 C1109 1.387 . S
C1109 H1094 0.930 . S
C1109 C1104 1.390 . S
C1109 C1108 1.387 . S
H1110 C1122 0.930 . S
H1111 C1124 0.930 . S
H1112 C1125 0.930 . S
H1113 C1129 0.959 . S
H1114 C1129 0.959 . S
H1115 C1129 0.961 . S
H1116 C1130 0.960 . S
H1117 C1130 0.961 . S
H1118 C1130 0.959 . S
H1119 C1133 0.929 . S
H1120 C1134 0.931 . S
H1121 C1136 0.930 . S
C1122 H1110 0.930 . S
C1122 C1123 1.399 . S
C1122 C1127 1.399 . S
C1123 C1122 1.399 . S
C1123 C1124 1.376 . S
C1124 H1111 0.930 . S
C1124 C1123 1.376 . S
C1124 C1125 1.388 . S
C1125 H1112 0.930 . S
C1125 C1124 1.388 . S
C1125 C1126 1.390 . S
C1126 C1125 1.390 . S
C1126 C1127 1.394 . S
C1126 C1132 1.465 . S
C1127 C1122 1.399 . S
C1127 C1126 1.394 . S
C1127 C1128 1.516 . S
C1128 C1127 1.516 . S
C1128 C1129 1.502 . S
C1128 C1130 1.561 . S
C1128 C1131 1.526 . S
C1129 H1113 0.959 . S
C1129 H1114 0.959 . S
C1129 H1115 0.961 . S
C1129 C1128 1.502 . S
C1130 H1116 0.960 . S
C1130 H1117 0.961 . S
C1130 H1118 0.959 . S
C1130 C1128 1.561 . S
C1131 C1128 1.526 . S
C1131 C1132 1.396 . S
C1131 C1136 1.390 . S
C1132 C1126 1.465 . S
C1132 C1131 1.396 . S
C1132 C1133 1.399 . S
C1133 H1119 0.929 . S
C1133 C1132 1.399 . S
C1133 C1134 1.385 . S
C1134 H1120 0.931 . S
C1134 C1133 1.385 . S
C1134 C1135 1.389 . S
C1135 C1134 1.389 . S
C1135 C1136 1.387 . S
C1136 H1121 0.930 . S
C1136 C1131 1.390 . S
C1136 C1135 1.387 . S
H1137 C1149 0.930 . S
H1138 C1151 0.930 . S
H1139 C1152 0.930 . S
H1140 C1156 0.959 . S
H1141 C1156 0.959 . S
H1142 C1156 0.961 . S
H1143 C1157 0.960 . S
H1144 C1157 0.961 . S
H1145 C1157 0.959 . S
H1146 C1160 0.929 . S
H1147 C1161 0.931 . S
H1148 C1163 0.930 . S
C1149 H1137 0.930 . S
C1149 C1150 1.399 . S
C1149 C1154 1.399 . S
C1150 C1149 1.399 . S
C1150 C1151 1.376 . S
C1151 H1138 0.930 . S
C1151 C1150 1.376 . S
C1151 C1152 1.388 . S
C1152 H1139 0.930 . S
C1152 C1151 1.388 . S
C1152 C1153 1.390 . S
C1153 C1152 1.390 . S
C1153 C1154 1.394 . S
C1153 C1159 1.465 . S
C1154 C1149 1.399 . S
C1154 C1153 1.394 . S
C1154 C1155 1.516 . S
C1155 C1154 1.516 . S
C1155 C1156 1.502 . S
C1155 C1157 1.561 . S
C1155 C1158 1.526 . S
C1156 H1140 0.959 . S
C1156 H1141 0.959 . S
C1156 H1142 0.961 . S
C1156 C1155 1.502 . S
C1157 H1143 0.960 . S
C1157 H1144 0.961 . S
C1157 H1145 0.959 . S
C1157 C1155 1.561 . S
C1158 C1155 1.526 . S
C1158 C1159 1.396 . S
C1158 C1163 1.390 . S
C1159 C1153 1.465 . S
C1159 C1158 1.396 . S
C1159 C1160 1.399 . S
C1160 H1146 0.929 . S
C1160 C1159 1.399 . S
C1160 C1161 1.385 . S
C1161 H1147 0.931 . S
C1161 C1160 1.385 . S
C1161 C1162 1.389 . S
C1162 C1161 1.389 . S
C1162 C1163 1.387 . S
C1163 H1148 0.930 . S
C1163 C1158 1.390 . S
C1163 C1162 1.387 . S
H1164 C1176 0.930 . S
H1165 C1178 0.930 . S
H1166 C1179 0.930 . S
H1167 C1183 0.959 . S
H1168 C1183 0.959 . S
H1169 C1183 0.961 . S
H1170 C1184 0.960 . S
H1171 C1184 0.961 . S
H1172 C1184 0.959 . S
H1173 C1187 0.929 . S
H1174 C1188 0.931 . S
H1175 C1190 0.930 . S
C1176 H1164 0.930 . S
C1176 C1177 1.399 . S
C1176 C1181 1.399 . S
C1177 C1176 1.399 . S
C1177 C1178 1.376 . S
C1178 H1165 0.930 . S
C1178 C1177 1.376 . S
C1178 C1179 1.388 . S
C1179 H1166 0.930 . S
C1179 C1178 1.388 . S
C1179 C1180 1.390 . S
C1180 C1179 1.390 . S
C1180 C1181 1.394 . S
C1180 C1186 1.465 . S
C1181 C1176 1.399 . S
C1181 C1180 1.394 . S
C1181 C1182 1.516 . S
C1182 C1181 1.516 . S
C1182 C1183 1.502 . S
C1182 C1184 1.561 . S
C1182 C1185 1.526 . S
C1183 H1167 0.959 . S
C1183 H1168 0.959 . S
C1183 H1169 0.961 . S
C1183 C1182 1.502 . S
C1184 H1170 0.960 . S
C1184 H1171 0.961 . S
C1184 H1172 0.959 . S
C1184 C1182 1.561 . S
C1185 C1182 1.526 . S
C1185 C1186 1.396 . S
C1185 C1190 1.390 . S
C1186 C1180 1.465 . S
C1186 C1185 1.396 . S
C1186 C1187 1.399 . S
C1187 H1173 0.929 . S
C1187 C1186 1.399 . S
C1187 C1188 1.385 . S
C1188 H1174 0.931 . S
C1188 C1187 1.385 . S
C1188 C1189 1.389 . S
C1189 C1188 1.389 . S
C1189 C1190 1.387 . S
C1190 H1175 0.930 . S
C1190 C1185 1.390 . S
C1190 C1189 1.387 . S
H1191 C1203 0.930 . S
H1192 C1205 0.930 . S
H1193 C1206 0.930 . S
H1194 C1210 0.959 . S
H1195 C1210 0.959 . S
H1196 C1210 0.961 . S
H1197 C1211 0.960 . S
H1198 C1211 0.961 . S
H1199 C1211 0.959 . S
H1200 C1214 0.929 . S
H1201 C1215 0.931 . S
H1202 C1217 0.930 . S
C1203 H1191 0.930 . S
C1203 C1204 1.399 . S
C1203 C1208 1.399 . S
C1204 C1203 1.399 . S
C1204 C1205 1.376 . S
C1205 H1192 0.930 . S
C1205 C1204 1.376 . S
C1205 C1206 1.388 . S
C1206 H1193 0.930 . S
C1206 C1205 1.388 . S
C1206 C1207 1.390 . S
C1207 C1206 1.390 . S
C1207 C1208 1.394 . S
C1207 C1213 1.465 . S
C1208 C1203 1.399 . S
C1208 C1207 1.394 . S
C1208 C1209 1.516 . S
C1209 C1208 1.516 . S
C1209 C1210 1.502 . S
C1209 C1211 1.561 . S
C1209 C1212 1.526 . S
C1210 H1194 0.959 . S
C1210 H1195 0.959 . S
C1210 H1196 0.961 . S
C1210 C1209 1.502 . S
C1211 H1197 0.960 . S
C1211 H1198 0.961 . S
C1211 H1199 0.959 . S
C1211 C1209 1.561 . S
C1212 C1209 1.526 . S
C1212 C1213 1.396 . S
C1212 C1217 1.390 . S
C1213 C1207 1.465 . S
C1213 C1212 1.396 . S
C1213 C1214 1.399 . S
C1214 H1200 0.929 . S
C1214 C1213 1.399 . S
C1214 C1215 1.385 . S
C1215 H1201 0.931 . S
C1215 C1214 1.385 . S
C1215 C1216 1.389 . S
C1216 C1215 1.389 . S
C1216 C1217 1.387 . S
C1217 H1202 0.930 . S
C1217 C1212 1.390 . S
C1217 C1216 1.387 . S
H1218 C1230 0.930 . S
H1219 C1232 0.930 . S
H1220 C1233 0.930 . S
H1221 C1237 0.959 . S
H1222 C1237 0.959 . S
H1223 C1237 0.961 . S
H1224 C1238 0.960 . S
H1225 C1238 0.961 . S
H1226 C1238 0.959 . S
H1227 C1241 0.929 . S
H1228 C1242 0.931 . S
H1229 C1244 0.930 . S
C1230 H1218 0.930 . S
C1230 C1231 1.399 . S
C1230 C1235 1.399 . S
C1231 C1230 1.399 . S
C1231 C1232 1.376 . S
C1232 H1219 0.930 . S
C1232 C1231 1.376 . S
C1232 C1233 1.388 . S
C1233 H1220 0.930 . S
C1233 C1232 1.388 . S
C1233 C1234 1.390 . S
C1234 C1233 1.390 . S
C1234 C1235 1.394 . S
C1234 C1240 1.465 . S
C1235 C1230 1.399 . S
C1235 C1234 1.394 . S
C1235 C1236 1.516 . S
C1236 C1235 1.516 . S
C1236 C1237 1.502 . S
C1236 C1238 1.561 . S
C1236 C1239 1.526 . S
C1237 H1221 0.959 . S
C1237 H1222 0.959 . S
C1237 H1223 0.961 . S
C1237 C1236 1.502 . S
C1238 H1224 0.960 . S
C1238 H1225 0.961 . S
C1238 H1226 0.959 . S
C1238 C1236 1.561 . S
C1239 C1236 1.526 . S
C1239 C1240 1.396 . S
C1239 C1244 1.390 . S
C1240 C1234 1.465 . S
C1240 C1239 1.396 . S
C1240 C1241 1.399 . S
C1241 H1227 0.929 . S
C1241 C1240 1.399 . S
C1241 C1242 1.385 . S
C1242 H1228 0.931 . S
C1242 C1241 1.385 . S
C1242 C1243 1.389 . S
C1243 C1242 1.389 . S
C1243 C1244 1.387 . S
C1244 H1229 0.930 . S
C1244 C1239 1.390 . S
C1244 C1243 1.387 . S
H1245 C1257 0.930 . S
H1246 C1259 0.930 . S
H1247 C1260 0.930 . S
H1248 C1264 0.959 . S
H1249 C1264 0.959 . S
H1250 C1264 0.961 . S
H1251 C1265 0.960 . S
H1252 C1265 0.961 . S
H1253 C1265 0.959 . S
H1254 C1268 0.929 . S
H1255 C1269 0.931 . S
H1256 C1271 0.930 . S
C1257 H1245 0.930 . S
C1257 C1258 1.399 . S
C1257 C1262 1.399 . S
C1258 C1257 1.399 . S
C1258 C1259 1.376 . S
C1259 H1246 0.930 . S
C1259 C1258 1.376 . S
C1259 C1260 1.388 . S
C1260 H1247 0.930 . S
C1260 C1259 1.388 . S
C1260 C1261 1.390 . S
C1261 C1260 1.390 . S
C1261 C1262 1.394 . S
C1261 C1267 1.465 . S
C1262 C1257 1.399 . S
C1262 C1261 1.394 . S
C1262 C1263 1.516 . S
C1263 C1262 1.516 . S
C1263 C1264 1.502 . S
C1263 C1265 1.561 . S
C1263 C1266 1.526 . S
C1264 H1248 0.959 . S
C1264 H1249 0.959 . S
C1264 H1250 0.961 . S
C1264 C1263 1.502 . S
C1265 H1251 0.960 . S
C1265 H1252 0.961 . S
C1265 H1253 0.959 . S
C1265 C1263 1.561 . S
C1266 C1263 1.526 . S
C1266 C1267 1.396 . S
C1266 C1271 1.390 . S
C1267 C1261 1.465 . S
C1267 C1266 1.396 . S
C1267 C1268 1.399 . S
C1268 H1254 0.929 . S
C1268 C1267 1.399 . S
C1268 C1269 1.385 . S
C1269 H1255 0.931 . S
C1269 C1268 1.385 . S
C1269 C1270 1.389 . S
C1270 C1269 1.389 . S
C1270 C1271 1.387 . S
C1271 H1256 0.930 . S
C1271 C1266 1.390 . S
C1271 C1270 1.387 . S
H1272 C1284 0.930 . S
H1273 C1286 0.930 . S
H1274 C1287 0.930 . S
H1275 C1291 0.959 . S
H1276 C1291 0.959 . S
H1277 C1291 0.961 . S
H1278 C1292 0.960 . S
H1279 C1292 0.961 . S
H1280 C1292 0.959 . S
H1281 C1295 0.929 . S
H1282 C1296 0.931 . S
H1283 C1298 0.930 . S
C1284 H1272 0.930 . S
C1284 C1285 1.399 . S
C1284 C1289 1.399 . S
C1285 C1284 1.399 . S
C1285 C1286 1.376 . S
C1286 H1273 0.930 . S
C1286 C1285 1.376 . S
C1286 C1287 1.388 . S
C1287 H1274 0.930 . S
C1287 C1286 1.388 . S
C1287 C1288 1.390 . S
C1288 C1287 1.390 . S
C1288 C1289 1.394 . S
C1288 C1294 1.465 . S
C1289 C1284 1.399 . S
C1289 C1288 1.394 . S
C1289 C1290 1.516 . S
C1290 C1289 1.516 . S
C1290 C1291 1.502 . S
C1290 C1292 1.561 . S
C1290 C1293 1.526 . S
C1291 H1275 0.959 . S
C1291 H1276 0.959 . S
C1291 H1277 0.961 . S
C1291 C1290 1.502 . S
C1292 H1278 0.960 . S
C1292 H1279 0.961 . S
C1292 H1280 0.959 . S
C1292 C1290 1.561 . S
C1293 C1290 1.526 . S
C1293 C1294 1.396 . S
C1293 C1298 1.390 . S
C1294 C1288 1.465 . S
C1294 C1293 1.396 . S
C1294 C1295 1.399 . S
C1295 H1281 0.929 . S
C1295 C1294 1.399 . S
C1295 C1296 1.385 . S
C1296 H1282 0.931 . S
C1296 C1295 1.385 . S
C1296 C1297 1.389 . S
C1297 C1296 1.389 . S
C1297 C1298 1.387 . S
C1298 H1283 0.930 . S
C1298 C1293 1.390 . S
C1298 C1297 1.387 . S
H1299 C1311 0.930 . S
H1300 C1313 0.930 . S
H1301 C1314 0.930 . S
H1302 C1318 0.959 . S
H1303 C1318 0.959 . S
H1304 C1318 0.961 . S
H1305 C1319 0.960 . S
H1306 C1319 0.961 . S
H1307 C1319 0.959 . S
H1308 C1322 0.929 . S
H1309 C1323 0.931 . S
H1310 C1325 0.930 . S
C1311 H1299 0.930 . S
C1311 C1312 1.399 . S
C1311 C1316 1.399 . S
C1312 C1311 1.399 . S
C1312 C1313 1.376 . S
C1313 H1300 0.930 . S
C1313 C1312 1.376 . S
C1313 C1314 1.388 . S
C1314 H1301 0.930 . S
C1314 C1313 1.388 . S
C1314 C1315 1.390 . S
C1315 C1314 1.390 . S
C1315 C1316 1.394 . S
C1315 C1321 1.465 . S
C1316 C1311 1.399 . S
C1316 C1315 1.394 . S
C1316 C1317 1.516 . S
C1317 C1316 1.516 . S
C1317 C1318 1.502 . S
C1317 C1319 1.561 . S
C1317 C1320 1.526 . S
C1318 H1302 0.959 . S
C1318 H1303 0.959 . S
C1318 H1304 0.961 . S
C1318 C1317 1.502 . S
C1319 H1305 0.960 . S
C1319 H1306 0.961 . S
C1319 H1307 0.959 . S
C1319 C1317 1.561 . S
C1320 C1317 1.526 . S
C1320 C1321 1.396 . S
C1320 C1325 1.390 . S
C1321 C1315 1.465 . S
C1321 C1320 1.396 . S
C1321 C1322 1.399 . S
C1322 H1308 0.929 . S
C1322 C1321 1.399 . S
C1322 C1323 1.385 . S
C1323 H1309 0.931 . S
C1323 C1322 1.385 . S
C1323 C1324 1.389 . S
C1324 C1323 1.389 . S
C1324 C1325 1.387 . S
C1325 H1310 0.930 . S
C1325 C1320 1.390 . S
C1325 C1324 1.387 . S
H1326 C1338 0.930 . S
H1327 C1340 0.930 . S
H1328 C1341 0.930 . S
H1329 C1345 0.959 . S
H1330 C1345 0.959 . S
H1331 C1345 0.961 . S
H1332 C1346 0.960 . S
H1333 C1346 0.961 . S
H1334 C1346 0.959 . S
H1335 C1349 0.929 . S
H1336 C1350 0.931 . S
H1337 C1352 0.930 . S
C1338 H1326 0.930 . S
C1338 C1339 1.399 . S
C1338 C1343 1.399 . S
C1339 C1338 1.399 . S
C1339 C1340 1.376 . S
C1340 H1327 0.930 . S
C1340 C1339 1.376 . S
C1340 C1341 1.388 . S
C1341 H1328 0.930 . S
C1341 C1340 1.388 . S
C1341 C1342 1.390 . S
C1342 C1341 1.390 . S
C1342 C1343 1.394 . S
C1342 C1348 1.465 . S
C1343 C1338 1.399 . S
C1343 C1342 1.394 . S
C1343 C1344 1.516 . S
C1344 C1343 1.516 . S
C1344 C1345 1.502 . S
C1344 C1346 1.561 . S
C1344 C1347 1.526 . S
C1345 H1329 0.959 . S
C1345 H1330 0.959 . S
C1345 H1331 0.961 . S
C1345 C1344 1.502 . S
C1346 H1332 0.960 . S
C1346 H1333 0.961 . S
C1346 H1334 0.959 . S
C1346 C1344 1.561 . S
C1347 C1344 1.526 . S
C1347 C1348 1.396 . S
C1347 C1352 1.390 . S
C1348 C1342 1.465 . S
C1348 C1347 1.396 . S
C1348 C1349 1.399 . S
C1349 H1335 0.929 . S
C1349 C1348 1.399 . S
C1349 C1350 1.385 . S
C1350 H1336 0.931 . S
C1350 C1349 1.385 . S
C1350 C1351 1.389 . S
C1351 C1350 1.389 . S
C1351 C1352 1.387 . S
C1352 H1337 0.930 . S
C1352 C1347 1.390 . S
C1352 C1351 1.387 . S
H1353 C1365 0.930 . S
H1354 C1367 0.930 . S
H1355 C1368 0.930 . S
H1356 C1372 0.959 . S
H1357 C1372 0.959 . S
H1358 C1372 0.961 . S
H1359 C1373 0.960 . S
H1360 C1373 0.961 . S
H1361 C1373 0.959 . S
H1362 C1376 0.929 . S
H1363 C1377 0.931 . S
H1364 C1379 0.930 . S
C1365 H1353 0.930 . S
C1365 C1366 1.399 . S
C1365 C1370 1.399 . S
C1366 C1365 1.399 . S
C1366 C1367 1.376 . S
C1367 H1354 0.930 . S
C1367 C1366 1.376 . S
C1367 C1368 1.388 . S
C1368 H1355 0.930 . S
C1368 C1367 1.388 . S
C1368 C1369 1.390 . S
C1369 C1368 1.390 . S
C1369 C1370 1.394 . S
C1369 C1375 1.465 . S
C1370 C1365 1.399 . S
C1370 C1369 1.394 . S
C1370 C1371 1.516 . S
C1371 C1370 1.516 . S
C1371 C1372 1.502 . S
C1371 C1373 1.561 . S
C1371 C1374 1.526 . S
C1372 H1356 0.959 . S
C1372 H1357 0.959 . S
C1372 H1358 0.961 . S
C1372 C1371 1.502 . S
C1373 H1359 0.960 . S
C1373 H1360 0.961 . S
C1373 H1361 0.959 . S
C1373 C1371 1.561 . S
C1374 C1371 1.526 . S
C1374 C1375 1.396 . S
C1374 C1379 1.390 . S
C1375 C1369 1.465 . S
C1375 C1374 1.396 . S
C1375 C1376 1.399 . S
C1376 H1362 0.929 . S
C1376 C1375 1.399 . S
C1376 C1377 1.385 . S
C1377 H1363 0.931 . S
C1377 C1376 1.385 . S
C1377 C1378 1.389 . S
C1378 C1377 1.389 . S
C1378 C1379 1.387 . S
C1379 H1364 0.930 . S
C1379 C1374 1.390 . S
C1379 C1378 1.387 . S
H1380 C1392 0.930 . S
H1381 C1394 0.930 . S
H1382 C1395 0.930 . S
H1383 C1399 0.959 . S
H1384 C1399 0.959 . S
H1385 C1399 0.961 . S
H1386 C1400 0.960 . S
H1387 C1400 0.961 . S
H1388 C1400 0.959 . S
H1389 C1403 0.929 . S
H1390 C1404 0.931 . S
H1391 C1406 0.930 . S
C1392 H1380 0.930 . S
C1392 C1393 1.399 . S
C1392 C1397 1.399 . S
C1393 C1392 1.399 . S
C1393 C1394 1.376 . S
C1394 H1381 0.930 . S
C1394 C1393 1.376 . S
C1394 C1395 1.388 . S
C1395 H1382 0.930 . S
C1395 C1394 1.388 . S
C1395 C1396 1.390 . S
C1396 C1395 1.390 . S
C1396 C1397 1.394 . S
C1396 C1402 1.465 . S
C1397 C1392 1.399 . S
C1397 C1396 1.394 . S
C1397 C1398 1.516 . S
C1398 C1397 1.516 . S
C1398 C1399 1.502 . S
C1398 C1400 1.561 . S
C1398 C1401 1.526 . S
C1399 H1383 0.959 . S
C1399 H1384 0.959 . S
C1399 H1385 0.961 . S
C1399 C1398 1.502 . S
C1400 H1386 0.960 . S
C1400 H1387 0.961 . S
C1400 H1388 0.959 . S
C1400 C1398 1.561 . S
C1401 C1398 1.526 . S
C1401 C1402 1.396 . S
C1401 C1406 1.390 . S
C1402 C1396 1.465 . S
C1402 C1401 1.396 . S
C1402 C1403 1.399 . S
C1403 H1389 0.929 . S
C1403 C1402 1.399 . S
C1403 C1404 1.385 . S
C1404 H1390 0.931 . S
C1404 C1403 1.385 . S
C1404 C1405 1.389 . S
C1405 C1404 1.389 . S
C1405 C1406 1.387 . S
C1406 H1391 0.930 . S
C1406 C1401 1.390 . S
C1406 C1405 1.387 . S
H1407 C1419 0.930 . S
H1408 C1421 0.930 . S
H1409 C1422 0.930 . S
H1410 C1426 0.959 . S
H1411 C1426 0.959 . S
H1412 C1426 0.961 . S
H1413 C1427 0.960 . S
H1414 C1427 0.961 . S
H1415 C1427 0.959 . S
H1416 C1430 0.929 . S
H1417 C1431 0.931 . S
H1418 C1433 0.930 . S
C1419 H1407 0.930 . S
C1419 C1420 1.399 . S
C1419 C1424 1.399 . S
C1420 C1419 1.399 . S
C1420 C1421 1.376 . S
C1421 H1408 0.930 . S
C1421 C1420 1.376 . S
C1421 C1422 1.388 . S
C1422 H1409 0.930 . S
C1422 C1421 1.388 . S
C1422 C1423 1.390 . S
C1423 C1422 1.390 . S
C1423 C1424 1.394 . S
C1423 C1429 1.465 . S
C1424 C1419 1.399 . S
C1424 C1423 1.394 . S
C1424 C1425 1.516 . S
C1425 C1424 1.516 . S
C1425 C1426 1.502 . S
C1425 C1427 1.561 . S
C1425 C1428 1.526 . S
C1426 H1410 0.959 . S
C1426 H1411 0.959 . S
C1426 H1412 0.961 . S
C1426 C1425 1.502 . S
C1427 H1413 0.960 . S
C1427 H1414 0.961 . S
C1427 H1415 0.959 . S
C1427 C1425 1.561 . S
C1428 C1425 1.526 . S
C1428 C1429 1.396 . S
C1428 C1433 1.390 . S
C1429 C1423 1.465 . S
C1429 C1428 1.396 . S
C1429 C1430 1.399 . S
C1430 H1416 0.929 . S
C1430 C1429 1.399 . S
C1430 C1431 1.385 . S
C1431 H1417 0.931 . S
C1431 C1430 1.385 . S
C1431 C1432 1.389 . S
C1432 C1431 1.389 . S
C1432 C1433 1.387 . S
C1433 H1418 0.930 . S
C1433 C1428 1.390 . S
C1433 C1432 1.387 . S
H1434 C1446 0.930 . S
H1435 C1448 0.930 . S
H1436 C1449 0.930 . S
H1437 C1453 0.959 . S
H1438 C1453 0.959 . S
H1439 C1453 0.961 . S
H1440 C1454 0.960 . S
H1441 C1454 0.961 . S
H1442 C1454 0.959 . S
H1443 C1457 0.929 . S
H1444 C1458 0.931 . S
H1445 C1460 0.930 . S
C1446 H1434 0.930 . S
C1446 C1447 1.399 . S
C1446 C1451 1.399 . S
C1447 C1446 1.399 . S
C1447 C1448 1.376 . S
C1448 H1435 0.930 . S
C1448 C1447 1.376 . S
C1448 C1449 1.388 . S
C1449 H1436 0.930 . S
C1449 C1448 1.388 . S
C1449 C1450 1.390 . S
C1450 C1449 1.390 . S
C1450 C1451 1.394 . S
C1450 C1456 1.465 . S
C1451 C1446 1.399 . S
C1451 C1450 1.394 . S
C1451 C1452 1.516 . S
C1452 C1451 1.516 . S
C1452 C1453 1.502 . S
C1452 C1454 1.561 . S
C1452 C1455 1.526 . S
C1453 H1437 0.959 . S
C1453 H1438 0.959 . S
C1453 H1439 0.961 . S
C1453 C1452 1.502 . S
C1454 H1440 0.960 . S
C1454 H1441 0.961 . S
C1454 H1442 0.959 . S
C1454 C1452 1.561 . S
C1455 C1452 1.526 . S
C1455 C1456 1.396 . S
C1455 C1460 1.390 . S
C1456 C1450 1.465 . S
C1456 C1455 1.396 . S
C1456 C1457 1.399 . S
C1457 H1443 0.929 . S
C1457 C1456 1.399 . S
C1457 C1458 1.385 . S
C1458 H1444 0.931 . S
C1458 C1457 1.385 . S
C1458 C1459 1.389 . S
C1459 C1458 1.389 . S
C1459 C1460 1.387 . S
C1460 H1445 0.930 . S
C1460 C1455 1.390 . S
C1460 C1459 1.387 . S
H1461 C1473 0.930 . S
H1462 C1475 0.930 . S
H1463 C1476 0.930 . S
H1464 C1480 0.959 . S
H1465 C1480 0.959 . S
H1466 C1480 0.961 . S
H1467 C1481 0.960 . S
H1468 C1481 0.961 . S
H1469 C1481 0.959 . S
H1470 C1484 0.929 . S
H1471 C1485 0.931 . S
H1472 C1487 0.930 . S
C1473 H1461 0.930 . S
C1473 C1474 1.399 . S
C1473 C1478 1.399 . S
C1474 C1473 1.399 . S
C1474 C1475 1.376 . S
C1475 H1462 0.930 . S
C1475 C1474 1.376 . S
C1475 C1476 1.388 . S
C1476 H1463 0.930 . S
C1476 C1475 1.388 . S
C1476 C1477 1.390 . S
C1477 C1476 1.390 . S
C1477 C1478 1.394 . S
C1477 C1483 1.465 . S
C1478 C1473 1.399 . S
C1478 C1477 1.394 . S
C1478 C1479 1.516 . S
C1479 C1478 1.516 . S
C1479 C1480 1.502 . S
C1479 C1481 1.561 . S
C1479 C1482 1.526 . S
C1480 H1464 0.959 . S
C1480 H1465 0.959 . S
C1480 H1466 0.961 . S
C1480 C1479 1.502 . S
C1481 H1467 0.960 . S
C1481 H1468 0.961 . S
C1481 H1469 0.959 . S
C1481 C1479 1.561 . S
C1482 C1479 1.526 . S
C1482 C1483 1.396 . S
C1482 C1487 1.390 . S
C1483 C1477 1.465 . S
C1483 C1482 1.396 . S
C1483 C1484 1.399 . S
C1484 H1470 0.929 . S
C1484 C1483 1.399 . S
C1484 C1485 1.385 . S
C1485 H1471 0.931 . S
C1485 C1484 1.385 . S
C1485 C1486 1.389 . S
C1486 C1485 1.389 . S
C1486 C1487 1.387 . S
C1487 H1472 0.930 . S
C1487 C1482 1.390 . S
C1487 C1486 1.387 . S
H1488 C1500 0.930 . S
H1489 C1502 0.930 . S
H1490 C1503 0.930 . S
H1491 C1507 0.959 . S
H1492 C1507 0.959 . S
H1493 C1507 0.961 . S
H1494 C1508 0.960 . S
H1495 C1508 0.961 . S
H1496 C1508 0.959 . S
H1497 C1511 0.929 . S
H1498 C1512 0.931 . S
H1499 C1514 0.930 . S
C1500 H1488 0.930 . S
C1500 C1501 1.399 . S
C1500 C1505 1.399 . S
C1501 C1500 1.399 . S
C1501 C1502 1.376 . S
C1502 H1489 0.930 . S
C1502 C1501 1.376 . S
C1502 C1503 1.388 . S
C1503 H1490 0.930 . S
C1503 C1502 1.388 . S
C1503 C1504 1.390 . S
C1504 C1503 1.390 . S
C1504 C1505 1.394 . S
C1504 C1510 1.465 . S
C1505 C1500 1.399 . S
C1505 C1504 1.394 . S
C1505 C1506 1.516 . S
C1506 C1505 1.516 . S
C1506 C1507 1.502 . S
C1506 C1508 1.561 . S
C1506 C1509 1.526 . S
C1507 H1491 0.959 . S
C1507 H1492 0.959 . S
C1507 H1493 0.961 . S
C1507 C1506 1.502 . S
C1508 H1494 0.960 . S
C1508 H1495 0.961 . S
C1508 H1496 0.959 . S
C1508 C1506 1.561 . S
C1509 C1506 1.526 . S
C1509 C1510 1.396 . S
C1509 C1514 1.390 . S
C1510 C1504 1.465 . S
C1510 C1509 1.396 . S
C1510 C1511 1.399 . S
C1511 H1497 0.929 . S
C1511 C1510 1.399 . S
C1511 C1512 1.385 . S
C1512 H1498 0.931 . S
C1512 C1511 1.385 . S
C1512 C1513 1.389 . S
C1513 C1512 1.389 . S
C1513 C1514 1.387 . S
C1514 H1499 0.930 . S
C1514 C1509 1.390 . S
C1514 C1513 1.387 . S
H1515 C1527 0.930 . S
H1516 C1529 0.930 . S
H1517 C1530 0.930 . S
H1518 C1534 0.959 . S
H1519 C1534 0.959 . S
H1520 C1534 0.961 . S
H1521 C1535 0.960 . S
H1522 C1535 0.961 . S
H1523 C1535 0.959 . S
H1524 C1538 0.929 . S
H1525 C1539 0.931 . S
H1526 C1541 0.930 . S
C1527 H1515 0.930 . S
C1527 C1528 1.399 . S
C1527 C1532 1.399 . S
C1528 C1527 1.399 . S
C1528 C1529 1.376 . S
C1529 H1516 0.930 . S
C1529 C1528 1.376 . S
C1529 C1530 1.388 . S
C1530 H1517 0.930 . S
C1530 C1529 1.388 . S
C1530 C1531 1.390 . S
C1531 C1530 1.390 . S
C1531 C1532 1.394 . S
C1531 C1537 1.465 . S
C1532 C1527 1.399 . S
C1532 C1531 1.394 . S
C1532 C1533 1.516 . S
C1533 C1532 1.516 . S
C1533 C1534 1.502 . S
C1533 C1535 1.561 . S
C1533 C1536 1.526 . S
C1534 H1518 0.959 . S
C1534 H1519 0.959 . S
C1534 H1520 0.961 . S
C1534 C1533 1.502 . S
C1535 H1521 0.960 . S
C1535 H1522 0.961 . S
C1535 H1523 0.959 . S
C1535 C1533 1.561 . S
C1536 C1533 1.526 . S
C1536 C1537 1.396 . S
C1536 C1541 1.390 . S
C1537 C1531 1.465 . S
C1537 C1536 1.396 . S
C1537 C1538 1.399 . S
C1538 H1524 0.929 . S
C1538 C1537 1.399 . S
C1538 C1539 1.385 . S
C1539 H1525 0.931 . S
C1539 C1538 1.385 . S
C1539 C1540 1.389 . S
C1540 C1539 1.389 . S
C1540 C1541 1.387 . S
C1541 H1526 0.930 . S
C1541 C1536 1.390 . S
C1541 C1540 1.387 . S
H1542 C1554 0.930 . S
H1543 C1556 0.930 . S
H1544 C1557 0.930 . S
H1545 C1561 0.959 . S
H1546 C1561 0.959 . S
H1547 C1561 0.961 . S
H1548 C1562 0.960 . S
H1549 C1562 0.961 . S
H1550 C1562 0.959 . S
H1551 C1565 0.929 . S
H1552 C1566 0.931 . S
H1553 C1568 0.930 . S
C1554 H1542 0.930 . S
C1554 C1555 1.399 . S
C1554 C1559 1.399 . S
C1555 C1554 1.399 . S
C1555 C1556 1.376 . S
C1556 H1543 0.930 . S
C1556 C1555 1.376 . S
C1556 C1557 1.388 . S
C1557 H1544 0.930 . S
C1557 C1556 1.388 . S
C1557 C1558 1.390 . S
C1558 C1557 1.390 . S
C1558 C1559 1.394 . S
C1558 C1564 1.465 . S
C1559 C1554 1.399 . S
C1559 C1558 1.394 . S
C1559 C1560 1.516 . S
C1560 C1559 1.516 . S
C1560 C1561 1.502 . S
C1560 C1562 1.561 . S
C1560 C1563 1.526 . S
C1561 H1545 0.959 . S
C1561 H1546 0.959 . S
C1561 H1547 0.961 . S
C1561 C1560 1.502 . S
C1562 H1548 0.960 . S
C1562 H1549 0.961 . S
C1562 H1550 0.959 . S
C1562 C1560 1.561 . S
C1563 C1560 1.526 . S
C1563 C1564 1.396 . S
C1563 C1568 1.390 . S
C1564 C1558 1.465 . S
C1564 C1563 1.396 . S
C1564 C1565 1.399 . S
C1565 H1551 0.929 . S
C1565 C1564 1.399 . S
C1565 C1566 1.385 . S
C1566 H1552 0.931 . S
C1566 C1565 1.385 . S
C1566 C1567 1.389 . S
C1567 C1566 1.389 . S
C1567 C1568 1.387 . S
C1568 H1553 0.930 . S
C1568 C1563 1.390 . S
C1568 C1567 1.387 . S
H1569 C1581 0.930 . S
H1570 C1583 0.930 . S
H1571 C1584 0.930 . S
H1572 C1588 0.959 . S
H1573 C1588 0.959 . S
H1574 C1588 0.961 . S
H1575 C1589 0.960 . S
H1576 C1589 0.961 . S
H1577 C1589 0.959 . S
H1578 C1592 0.929 . S
H1579 C1593 0.931 . S
H1580 C1595 0.930 . S
C1581 H1569 0.930 . S
C1581 C1582 1.399 . S
C1581 C1586 1.399 . S
C1582 C1581 1.399 . S
C1582 C1583 1.376 . S
C1583 H1570 0.930 . S
C1583 C1582 1.376 . S
C1583 C1584 1.388 . S
C1584 H1571 0.930 . S
C1584 C1583 1.388 . S
C1584 C1585 1.390 . S
C1585 C1584 1.390 . S
C1585 C1586 1.394 . S
C1585 C1591 1.465 . S
C1586 C1581 1.399 . S
C1586 C1585 1.394 . S
C1586 C1587 1.516 . S
C1587 C1586 1.516 . S
C1587 C1588 1.502 . S
C1587 C1589 1.561 . S
C1587 C1590 1.526 . S
C1588 H1572 0.959 . S
C1588 H1573 0.959 . S
C1588 H1574 0.961 . S
C1588 C1587 1.502 . S
C1589 H1575 0.960 . S
C1589 H1576 0.961 . S
C1589 H1577 0.959 . S
C1589 C1587 1.561 . S
C1590 C1587 1.526 . S
C1590 C1591 1.396 . S
C1590 C1595 1.390 . S
C1591 C1585 1.465 . S
C1591 C1590 1.396 . S
C1591 C1592 1.399 . S
C1592 H1578 0.929 . S
C1592 C1591 1.399 . S
C1592 C1593 1.385 . S
C1593 H1579 0.931 . S
C1593 C1592 1.385 . S
C1593 C1594 1.389 . S
C1594 C1593 1.389 . S
C1594 C1595 1.387 . S
C1595 H1580 0.930 . S
C1595 C1590 1.390 . S
C1595 C1594 1.387 . S
H1596 C1608 0.930 . S
H1597 C1610 0.930 . S
H1598 C1611 0.930 . S
H1599 C1615 0.959 . S
H1600 C1615 0.959 . S
H1601 C1615 0.961 . S
H1602 C1616 0.960 . S
H1603 C1616 0.961 . S
H1604 C1616 0.959 . S
H1605 C1619 0.929 . S
H1606 C1620 0.931 . S
H1607 C1622 0.930 . S
C1608 H1596 0.930 . S
C1608 C1609 1.399 . S
C1608 C1613 1.399 . S
C1609 C1608 1.399 . S
C1609 C1610 1.376 . S
C1610 H1597 0.930 . S
C1610 C1609 1.376 . S
C1610 C1611 1.388 . S
C1611 H1598 0.930 . S
C1611 C1610 1.388 . S
C1611 C1612 1.390 . S
C1612 C1611 1.390 . S
C1612 C1613 1.394 . S
C1612 C1618 1.465 . S
C1613 C1608 1.399 . S
C1613 C1612 1.394 . S
C1613 C1614 1.516 . S
C1614 C1613 1.516 . S
C1614 C1615 1.502 . S
C1614 C1616 1.561 . S
C1614 C1617 1.526 . S
C1615 H1599 0.959 . S
C1615 H1600 0.959 . S
C1615 H1601 0.961 . S
C1615 C1614 1.502 . S
C1616 H1602 0.960 . S
C1616 H1603 0.961 . S
C1616 H1604 0.959 . S
C1616 C1614 1.561 . S
C1617 C1614 1.526 . S
C1617 C1618 1.396 . S
C1617 C1622 1.390 . S
C1618 C1612 1.465 . S
C1618 C1617 1.396 . S
C1618 C1619 1.399 . S
C1619 H1605 0.929 . S
C1619 C1618 1.399 . S
C1619 C1620 1.385 . S
C1620 H1606 0.931 . S
C1620 C1619 1.385 . S
C1620 C1621 1.389 . S
C1621 C1620 1.389 . S
C1621 C1622 1.387 . S
C1622 H1607 0.930 . S
C1622 C1617 1.390 . S
C1622 C1621 1.387 . S
H1623 C1635 0.930 . S
H1624 C1637 0.930 . S
H1625 C1638 0.930 . S
H1626 C1642 0.959 . S
H1627 C1642 0.959 . S
H1628 C1642 0.961 . S
H1629 C1643 0.960 . S
H1630 C1643 0.961 . S
H1631 C1643 0.959 . S
H1632 C1646 0.929 . S
H1633 C1647 0.931 . S
H1634 C1649 0.930 . S
C1635 H1623 0.930 . S
C1635 C1636 1.399 . S
C1635 C1640 1.399 . S
C1636 C1635 1.399 . S
C1636 C1637 1.376 . S
C1637 H1624 0.930 . S
C1637 C1636 1.376 . S
C1637 C1638 1.388 . S
C1638 H1625 0.930 . S
C1638 C1637 1.388 . S
C1638 C1639 1.390 . S
C1639 C1638 1.390 . S
C1639 C1640 1.394 . S
C1639 C1645 1.465 . S
C1640 C1635 1.399 . S
C1640 C1639 1.394 . S
C1640 C1641 1.516 . S
C1641 C1640 1.516 . S
C1641 C1642 1.502 . S
C1641 C1643 1.561 . S
C1641 C1644 1.526 . S
C1642 H1626 0.959 . S
C1642 H1627 0.959 . S
C1642 H1628 0.961 . S
C1642 C1641 1.502 . S
C1643 H1629 0.960 . S
C1643 H1630 0.961 . S
C1643 H1631 0.959 . S
C1643 C1641 1.561 . S
C1644 C1641 1.526 . S
C1644 C1645 1.396 . S
C1644 C1649 1.390 . S
C1645 C1639 1.465 . S
C1645 C1644 1.396 . S
C1645 C1646 1.399 . S
C1646 H1632 0.929 . S
C1646 C1645 1.399 . S
C1646 C1647 1.385 . S
C1647 H1633 0.931 . S
C1647 C1646 1.385 . S
C1647 C1648 1.389 . S
C1648 C1647 1.389 . S
C1648 C1649 1.387 . S
C1649 H1634 0.930 . S
C1649 C1644 1.390 . S
C1649 C1648 1.387 . S
H1650 C1662 0.930 . S
H1651 C1664 0.930 . S
H1652 C1665 0.930 . S
H1653 C1669 0.959 . S
H1654 C1669 0.959 . S
H1655 C1669 0.961 . S
H1656 C1670 0.960 . S
H1657 C1670 0.961 . S
H1658 C1670 0.959 . S
H1659 C1673 0.929 . S
H1660 C1674 0.931 . S
H1661 C1676 0.930 . S
C1662 H1650 0.930 . S
C1662 C1663 1.399 . S
C1662 C1667 1.399 . S
C1663 C1662 1.399 . S
C1663 C1664 1.376 . S
C1664 H1651 0.930 . S
C1664 C1663 1.376 . S
C1664 C1665 1.388 . S
C1665 H1652 0.930 . S
C1665 C1664 1.388 . S
C1665 C1666 1.390 . S
C1666 C1665 1.390 . S
C1666 C1667 1.394 . S
C1666 C1672 1.465 . S
C1667 C1662 1.399 . S
C1667 C1666 1.394 . S
C1667 C1668 1.516 . S
C1668 C1667 1.516 . S
C1668 C1669 1.502 . S
C1668 C1670 1.561 . S
C1668 C1671 1.526 . S
C1669 H1653 0.959 . S
C1669 H1654 0.959 . S
C1669 H1655 0.961 . S
C1669 C1668 1.502 . S
C1670 H1656 0.960 . S
C1670 H1657 0.961 . S
C1670 H1658 0.959 . S
C1670 C1668 1.561 . S
C1671 C1668 1.526 . S
C1671 C1672 1.396 . S
C1671 C1676 1.390 . S
C1672 C1666 1.465 . S
C1672 C1671 1.396 . S
C1672 C1673 1.399 . S
C1673 H1659 0.929 . S
C1673 C1672 1.399 . S
C1673 C1674 1.385 . S
C1674 H1660 0.931 . S
C1674 C1673 1.385 . S
C1674 C1675 1.389 . S
C1675 C1674 1.389 . S
C1675 C1676 1.387 . S
C1676 H1661 0.930 . S
C1676 C1671 1.390 . S
C1676 C1675 1.387 . S
H1677 C1689 0.930 . S
H1678 C1691 0.930 . S
H1679 C1692 0.930 . S
H1680 C1696 0.959 . S
H1681 C1696 0.959 . S
H1682 C1696 0.961 . S
H1683 C1697 0.960 . S
H1684 C1697 0.961 . S
H1685 C1697 0.959 . S
H1686 C1700 0.929 . S
H1687 C1701 0.931 . S
H1688 C1703 0.930 . S
C1689 H1677 0.930 . S
C1689 C1690 1.399 . S
C1689 C1694 1.399 . S
C1690 C1689 1.399 . S
C1690 C1691 1.376 . S
C1691 H1678 0.930 . S
C1691 C1690 1.376 . S
C1691 C1692 1.388 . S
C1692 H1679 0.930 . S
C1692 C1691 1.388 . S
C1692 C1693 1.390 . S
C1693 C1692 1.390 . S
C1693 C1694 1.394 . S
C1693 C1699 1.465 . S
C1694 C1689 1.399 . S
C1694 C1693 1.394 . S
C1694 C1695 1.516 . S
C1695 C1694 1.516 . S
C1695 C1696 1.502 . S
C1695 C1697 1.561 . S
C1695 C1698 1.526 . S
C1696 H1680 0.959 . S
C1696 H1681 0.959 . S
C1696 H1682 0.961 . S
C1696 C1695 1.502 . S
C1697 H1683 0.960 . S
C1697 H1684 0.961 . S
C1697 H1685 0.959 . S
C1697 C1695 1.561 . S
C1698 C1695 1.526 . S
C1698 C1699 1.396 . S
C1698 C1703 1.390 . S
C1699 C1693 1.465 . S
C1699 C1698 1.396 . S
C1699 C1700 1.399 . S
C1700 H1686 0.929 . S
C1700 C1699 1.399 . S
C1700 C1701 1.385 . S
C1701 H1687 0.931 . S
C1701 C1700 1.385 . S
C1701 C1702 1.389 . S
C1702 C1701 1.389 . S
C1702 C1703 1.387 . S
C1703 H1688 0.930 . S
C1703 C1698 1.390 . S
C1703 C1702 1.387 . S
H1704 C1716 0.930 . S
H1705 C1718 0.930 . S
H1706 C1719 0.930 . S
H1707 C1723 0.959 . S
H1708 C1723 0.959 . S
H1709 C1723 0.961 . S
H1710 C1724 0.960 . S
H1711 C1724 0.961 . S
H1712 C1724 0.959 . S
H1713 C1727 0.929 . S
H1714 C1728 0.931 . S
H1715 C1730 0.930 . S
C1716 H1704 0.930 . S
C1716 C1717 1.399 . S
C1716 C1721 1.399 . S
C1717 C1716 1.399 . S
C1717 C1718 1.376 . S
C1718 H1705 0.930 . S
C1718 C1717 1.376 . S
C1718 C1719 1.388 . S
C1719 H1706 0.930 . S
C1719 C1718 1.388 . S
C1719 C1720 1.390 . S
C1720 C1719 1.390 . S
C1720 C1721 1.394 . S
C1720 C1726 1.465 . S
C1721 C1716 1.399 . S
C1721 C1720 1.394 . S
C1721 C1722 1.516 . S
C1722 C1721 1.516 . S
C1722 C1723 1.502 . S
C1722 C1724 1.561 . S
C1722 C1725 1.526 . S
C1723 H1707 0.959 . S
C1723 H1708 0.959 . S
C1723 H1709 0.961 . S
C1723 C1722 1.502 . S
C1724 H1710 0.960 . S
C1724 H1711 0.961 . S
C1724 H1712 0.959 . S
C1724 C1722 1.561 . S
C1725 C1722 1.526 . S
C1725 C1726 1.396 . S
C1725 C1730 1.390 . S
C1726 C1720 1.465 . S
C1726 C1725 1.396 . S
C1726 C1727 1.399 . S
C1727 H1713 0.929 . S
C1727 C1726 1.399 . S
C1727 C1728 1.385 . S
C1728 H1714 0.931 . S
C1728 C1727 1.385 . S
C1728 C1729 1.389 . S
C1729 C1728 1.389 . S
C1729 C1730 1.387 . S
C1730 H1715 0.930 . S
C1730 C1725 1.390 . S
C1730 C1729 1.387 . S
H1731 C1743 0.930 . S
H1732 C1745 0.930 . S
H1733 C1746 0.930 . S
H1734 C1750 0.959 . S
H1735 C1750 0.959 . S
H1736 C1750 0.961 . S
H1737 C1751 0.960 . S
H1738 C1751 0.961 . S
H1739 C1751 0.959 . S
H1740 C1754 0.929 . S
H1741 C1755 0.931 . S
H1742 C1757 0.930 . S
C1743 H1731 0.930 . S
C1743 C1744 1.399 . S
C1743 C1748 1.399 . S
C1744 C1743 1.399 . S
C1744 C1745 1.376 . S
C1745 H1732 0.930 . S
C1745 C1744 1.376 . S
C1745 C1746 1.388 . S
C1746 H1733 0.930 . S
C1746 C1745 1.388 . S
C1746 C1747 1.390 . S
C1747 C1746 1.390 . S
C1747 C1748 1.394 . S
C1747 C1753 1.465 . S
C1748 C1743 1.399 . S
C1748 C1747 1.394 . S
C1748 C1749 1.516 . S
C1749 C1748 1.516 . S
C1749 C1750 1.502 . S
C1749 C1751 1.561 . S
C1749 C1752 1.526 . S
C1750 H1734 0.959 . S
C1750 H1735 0.959 . S
C1750 H1736 0.961 . S
C1750 C1749 1.502 . S
C1751 H1737 0.960 . S
C1751 H1738 0.961 . S
C1751 H1739 0.959 . S
C1751 C1749 1.561 . S
C1752 C1749 1.526 . S
C1752 C1753 1.396 . S
C1752 C1757 1.390 . S
C1753 C1747 1.465 . S
C1753 C1752 1.396 . S
C1753 C1754 1.399 . S
C1754 H1740 0.929 . S
C1754 C1753 1.399 . S
C1754 C1755 1.385 . S
C1755 H1741 0.931 . S
C1755 C1754 1.385 . S
C1755 C1756 1.389 . S
C1756 C1755 1.389 . S
C1756 C1757 1.387 . S
C1757 H1742 0.930 . S
C1757 C1752 1.390 . S
C1757 C1756 1.387 . S
H1758 C1770 0.930 . S
H1759 C1772 0.930 . S
H1760 C1773 0.930 . S
H1761 C1777 0.959 . S
H1762 C1777 0.959 . S
H1763 C1777 0.961 . S
H1764 C1778 0.960 . S
H1765 C1778 0.961 . S
H1766 C1778 0.959 . S
H1767 C1781 0.929 . S
H1768 C1782 0.931 . S
H1769 C1784 0.930 . S
C1770 H1758 0.930 . S
C1770 C1771 1.399 . S
C1770 C1775 1.399 . S
C1771 C1770 1.399 . S
C1771 C1772 1.376 . S
C1772 H1759 0.930 . S
C1772 C1771 1.376 . S
C1772 C1773 1.388 . S
C1773 H1760 0.930 . S
C1773 C1772 1.388 . S
C1773 C1774 1.390 . S
C1774 C1773 1.390 . S
C1774 C1775 1.394 . S
C1774 C1780 1.465 . S
C1775 C1770 1.399 . S
C1775 C1774 1.394 . S
C1775 C1776 1.516 . S
C1776 C1775 1.516 . S
C1776 C1777 1.502 . S
C1776 C1778 1.561 . S
C1776 C1779 1.526 . S
C1777 H1761 0.959 . S
C1777 H1762 0.959 . S
C1777 H1763 0.961 . S
C1777 C1776 1.502 . S
C1778 H1764 0.960 . S
C1778 H1765 0.961 . S
C1778 H1766 0.959 . S
C1778 C1776 1.561 . S
C1779 C1776 1.526 . S
C1779 C1780 1.396 . S
C1779 C1784 1.390 . S
C1780 C1774 1.465 . S
C1780 C1779 1.396 . S
C1780 C1781 1.399 . S
C1781 H1767 0.929 . S
C1781 C1780 1.399 . S
C1781 C1782 1.385 . S
C1782 H1768 0.931 . S
C1782 C1781 1.385 . S
C1782 C1783 1.389 . S
C1783 C1782 1.389 . S
C1783 C1784 1.387 . S
C1784 H1769 0.930 . S
C1784 C1779 1.390 . S
C1784 C1783 1.387 . S
H1785 C1797 0.930 . S
H1786 C1799 0.930 . S
H1787 C1800 0.930 . S
H1788 C1804 0.959 . S
H1789 C1804 0.959 . S
H1790 C1804 0.961 . S
H1791 C1805 0.960 . S
H1792 C1805 0.961 . S
H1793 C1805 0.959 . S
H1794 C1808 0.929 . S
H1795 C1809 0.931 . S
H1796 C1811 0.930 . S
C1797 H1785 0.930 . S
C1797 C1798 1.399 . S
C1797 C1802 1.399 . S
C1798 C1797 1.399 . S
C1798 C1799 1.376 . S
C1799 H1786 0.930 . S
C1799 C1798 1.376 . S
C1799 C1800 1.388 . S
C1800 H1787 0.930 . S
C1800 C1799 1.388 . S
C1800 C1801 1.390 . S
C1801 C1800 1.390 . S
C1801 C1802 1.394 . S
C1801 C1807 1.465 . S
C1802 C1797 1.399 . S
C1802 C1801 1.394 . S
C1802 C1803 1.516 . S
C1803 C1802 1.516 . S
C1803 C1804 1.502 . S
C1803 C1805 1.561 . S
C1803 C1806 1.526 . S
C1804 H1788 0.959 . S
C1804 H1789 0.959 . S
C1804 H1790 0.961 . S
C1804 C1803 1.502 . S
C1805 H1791 0.960 . S
C1805 H1792 0.961 . S
C1805 H1793 0.959 . S
C1805 C1803 1.561 . S
C1806 C1803 1.526 . S
C1806 C1807 1.396 . S
C1806 C1811 1.390 . S
C1807 C1801 1.465 . S
C1807 C1806 1.396 . S
C1807 C1808 1.399 . S
C1808 H1794 0.929 . S
C1808 C1807 1.399 . S
C1808 C1809 1.385 . S
C1809 H1795 0.931 . S
C1809 C1808 1.385 . S
C1809 C1810 1.389 . S
C1810 C1809 1.389 . S
C1810 C1811 1.387 . S
C1811 H1796 0.930 . S
C1811 C1806 1.390 . S
C1811 C1810 1.387 . S
H1812 C1824 0.930 . S
H1813 C1826 0.930 . S
H1814 C1827 0.930 . S
H1815 C1831 0.959 . S
H1816 C1831 0.959 . S
H1817 C1831 0.961 . S
H1818 C1832 0.960 . S
H1819 C1832 0.961 . S
H1820 C1832 0.959 . S
H1821 C1835 0.929 . S
H1822 C1836 0.931 . S
H1823 C1838 0.930 . S
C1824 H1812 0.930 . S
C1824 C1825 1.399 . S
C1824 C1829 1.399 . S
C1825 C1824 1.399 . S
C1825 C1826 1.376 . S
C1826 H1813 0.930 . S
C1826 C1825 1.376 . S
C1826 C1827 1.388 . S
C1827 H1814 0.930 . S
C1827 C1826 1.388 . S
C1827 C1828 1.390 . S
C1828 C1827 1.390 . S
C1828 C1829 1.394 . S
C1828 C1834 1.465 . S
C1829 C1824 1.399 . S
C1829 C1828 1.394 . S
C1829 C1830 1.516 . S
C1830 C1829 1.516 . S
C1830 C1831 1.502 . S
C1830 C1832 1.561 . S
C1830 C1833 1.526 . S
C1831 H1815 0.959 . S
C1831 H1816 0.959 . S
C1831 H1817 0.961 . S
C1831 C1830 1.502 . S
C1832 H1818 0.960 . S
C1832 H1819 0.961 . S
C1832 H1820 0.959 . S
C1832 C1830 1.561 . S
C1833 C1830 1.526 . S
C1833 C1834 1.396 . S
C1833 C1838 1.390 . S
C1834 C1828 1.465 . S
C1834 C1833 1.396 . S
C1834 C1835 1.399 . S
C1835 H1821 0.929 . S
C1835 C1834 1.399 . S
C1835 C1836 1.385 . S
C1836 H1822 0.931 . S
C1836 C1835 1.385 . S
C1836 C1837 1.389 . S
C1837 C1836 1.389 . S
C1837 C1838 1.387 . S
C1838 H1823 0.930 . S
C1838 C1833 1.390 . S
C1838 C1837 1.387 . S
H1839 C1851 0.930 . S
H1840 C1853 0.930 . S
H1841 C1854 0.930 . S
H1842 C1858 0.959 . S
H1843 C1858 0.959 . S
H1844 C1858 0.961 . S
H1845 C1859 0.960 . S
H1846 C1859 0.961 . S
H1847 C1859 0.959 . S
H1848 C1862 0.929 . S
H1849 C1863 0.931 . S
H1850 C1865 0.930 . S
C1851 H1839 0.930 . S
C1851 C1852 1.399 . S
C1851 C1856 1.399 . S
C1852 C1851 1.399 . S
C1852 C1853 1.376 . S
C1853 H1840 0.930 . S
C1853 C1852 1.376 . S
C1853 C1854 1.388 . S
C1854 H1841 0.930 . S
C1854 C1853 1.388 . S
C1854 C1855 1.390 . S
C1855 C1854 1.390 . S
C1855 C1856 1.394 . S
C1855 C1861 1.465 . S
C1856 C1851 1.399 . S
C1856 C1855 1.394 . S
C1856 C1857 1.516 . S
C1857 C1856 1.516 . S
C1857 C1858 1.502 . S
C1857 C1859 1.561 . S
C1857 C1860 1.526 . S
C1858 H1842 0.959 . S
C1858 H1843 0.959 . S
C1858 H1844 0.961 . S
C1858 C1857 1.502 . S
C1859 H1845 0.960 . S
C1859 H1846 0.961 . S
C1859 H1847 0.959 . S
C1859 C1857 1.561 . S
C1860 C1857 1.526 . S
C1860 C1861 1.396 . S
C1860 C1865 1.390 . S
C1861 C1855 1.465 . S
C1861 C1860 1.396 . S
C1861 C1862 1.399 . S
C1862 H1848 0.929 . S
C1862 C1861 1.399 . S
C1862 C1863 1.385 . S
C1863 H1849 0.931 . S
C1863 C1862 1.385 . S
C1863 C1864 1.389 . S
C1864 C1863 1.389 . S
C1864 C1865 1.387 . S
C1865 H1850 0.930 . S
C1865 C1860 1.390 . S
C1865 C1864 1.387 . S
H1866 C1878 0.930 . S
H1867 C1880 0.930 . S
H1868 C1881 0.930 . S
H1869 C1885 0.959 . S
H1870 C1885 0.959 . S
H1871 C1885 0.961 . S
H1872 C1886 0.960 . S
H1873 C1886 0.961 . S
H1874 C1886 0.959 . S
H1875 C1889 0.929 . S
H1876 C1890 0.931 . S
H1877 C1892 0.930 . S
C1878 H1866 0.930 . S
C1878 C1879 1.399 . S
C1878 C1883 1.399 . S
C1879 C1878 1.399 . S
C1879 C1880 1.376 . S
C1880 H1867 0.930 . S
C1880 C1879 1.376 . S
C1880 C1881 1.388 . S
C1881 H1868 0.930 . S
C1881 C1880 1.388 . S
C1881 C1882 1.390 . S
C1882 C1881 1.390 . S
C1882 C1883 1.394 . S
C1882 C1888 1.465 . S
C1883 C1878 1.399 . S
C1883 C1882 1.394 . S
C1883 C1884 1.516 . S
C1884 C1883 1.516 . S
C1884 C1885 1.502 . S
C1884 C1886 1.561 . S
C1884 C1887 1.526 . S
C1885 H1869 0.959 . S
C1885 H1870 0.959 . S
C1885 H1871 0.961 . S
C1885 C1884 1.502 . S
C1886 H1872 0.960 . S
C1886 H1873 0.961 . S
C1886 H1874 0.959 . S
C1886 C1884 1.561 . S
C1887 C1884 1.526 . S
C1887 C1888 1.396 . S
C1887 C1892 1.390 . S
C1888 C1882 1.465 . S
C1888 C1887 1.396 . S
C1888 C1889 1.399 . S
C1889 H1875 0.929 . S
C1889 C1888 1.399 . S
C1889 C1890 1.385 . S
C1890 H1876 0.931 . S
C1890 C1889 1.385 . S
C1890 C1891 1.389 . S
C1891 C1890 1.389 . S
C1891 C1892 1.387 . S
C1892 H1877 0.930 . S
C1892 C1887 1.390 . S
C1892 C1891 1.387 . S
H1893 C1905 0.930 . S
H1894 C1907 0.930 . S
H1895 C1908 0.930 . S
H1896 C1912 0.959 . S
H1897 C1912 0.959 . S
H1898 C1912 0.961 . S
H1899 C1913 0.960 . S
H1900 C1913 0.961 . S
H1901 C1913 0.959 . S
H1902 C1916 0.929 . S
H1903 C1917 0.931 . S
H1904 C1919 0.930 . S
C1905 H1893 0.930 . S
C1905 C1906 1.399 . S
C1905 C1910 1.399 . S
C1906 C1905 1.399 . S
C1906 C1907 1.376 . S
C1907 H1894 0.930 . S
C1907 C1906 1.376 . S
C1907 C1908 1.388 . S
C1908 H1895 0.930 . S
C1908 C1907 1.388 . S
C1908 C1909 1.390 . S
C1909 C1908 1.390 . S
C1909 C1910 1.394 . S
C1909 C1915 1.465 . S
C1910 C1905 1.399 . S
C1910 C1909 1.394 . S
C1910 C1911 1.516 . S
C1911 C1910 1.516 . S
C1911 C1912 1.502 . S
C1911 C1913 1.561 . S
C1911 C1914 1.526 . S
C1912 H1896 0.959 . S
C1912 H1897 0.959 . S
C1912 H1898 0.961 . S
C1912 C1911 1.502 . S
C1913 H1899 0.960 . S
C1913 H1900 0.961 . S
C1913 H1901 0.959 . S
C1913 C1911 1.561 . S
C1914 C1911 1.526 . S
C1914 C1915 1.396 . S
C1914 C1919 1.390 . S
C1915 C1909 1.465 . S
C1915 C1914 1.396 . S
C1915 C1916 1.399 . S
C1916 H1902 0.929 . S
C1916 C1915 1.399 . S
C1916 C1917 1.385 . S
C1917 H1903 0.931 . S
C1917 C1916 1.385 . S
C1917 C1918 1.389 . S
C1918 C1917 1.389 . S
C1918 C1919 1.387 . S
C1919 H1904 0.930 . S
C1919 C1914 1.390 . S
C1919 C1918 1.387 . S
H1920 C1932 0.930 . S
H1921 C1934 0.930 . S
H1922 C1935 0.930 . S
H1923 C1939 0.959 . S
H1924 C1939 0.959 . S
H1925 C1939 0.961 . S
H1926 C1940 0.960 . S
H1927 C1940 0.961 . S
H1928 C1940 0.959 . S
H1929 C1943 0.929 . S
H1930 C1944 0.931 . S
H1931 C1946 0.930 . S
C1932 H1920 0.930 . S
C1932 C1933 1.399 . S
C1932 C1937 1.399 . S
C1933 C1932 1.399 . S
C1933 C1934 1.376 . S
C1934 H1921 0.930 . S
C1934 C1933 1.376 . S
C1934 C1935 1.388 . S
C1935 H1922 0.930 . S
C1935 C1934 1.388 . S
C1935 C1936 1.390 . S
C1936 C1935 1.390 . S
C1936 C1937 1.394 . S
C1936 C1942 1.465 . S
C1937 C1932 1.399 . S
C1937 C1936 1.394 . S
C1937 C1938 1.516 . S
C1938 C1937 1.516 . S
C1938 C1939 1.502 . S
C1938 C1940 1.561 . S
C1938 C1941 1.526 . S
C1939 H1923 0.959 . S
C1939 H1924 0.959 . S
C1939 H1925 0.961 . S
C1939 C1938 1.502 . S
C1940 H1926 0.960 . S
C1940 H1927 0.961 . S
C1940 H1928 0.959 . S
C1940 C1938 1.561 . S
C1941 C1938 1.526 . S
C1941 C1942 1.396 . S
C1941 C1946 1.390 . S
C1942 C1936 1.465 . S
C1942 C1941 1.396 . S
C1942 C1943 1.399 . S
C1943 H1929 0.929 . S
C1943 C1942 1.399 . S
C1943 C1944 1.385 . S
C1944 H1930 0.931 . S
C1944 C1943 1.385 . S
C1944 C1945 1.389 . S
C1945 C1944 1.389 . S
C1945 C1946 1.387 . S
C1946 H1931 0.930 . S
C1946 C1941 1.390 . S
C1946 C1945 1.387 . S
H1947 C1959 0.930 . S
H1948 C1961 0.930 . S
H1949 C1962 0.930 . S
H1950 C1966 0.959 . S
H1951 C1966 0.959 . S
H1952 C1966 0.961 . S
H1953 C1967 0.960 . S
H1954 C1967 0.961 . S
H1955 C1967 0.959 . S
H1956 C1970 0.929 . S
H1957 C1971 0.931 . S
H1958 C1973 0.930 . S
C1959 H1947 0.930 . S
C1959 C1960 1.399 . S
C1959 C1964 1.399 . S
C1960 C1959 1.399 . S
C1960 C1961 1.376 . S
C1961 H1948 0.930 . S
C1961 C1960 1.376 . S
C1961 C1962 1.388 . S
C1962 H1949 0.930 . S
C1962 C1961 1.388 . S
C1962 C1963 1.390 . S
C1963 C1962 1.390 . S
C1963 C1964 1.394 . S
C1963 C1969 1.465 . S
C1964 C1959 1.399 . S
C1964 C1963 1.394 . S
C1964 C1965 1.516 . S
C1965 C1964 1.516 . S
C1965 C1966 1.502 . S
C1965 C1967 1.561 . S
C1965 C1968 1.526 . S
C1966 H1950 0.959 . S
C1966 H1951 0.959 . S
C1966 H1952 0.961 . S
C1966 C1965 1.502 . S
C1967 H1953 0.960 . S
C1967 H1954 0.961 . S
C1967 H1955 0.959 . S
C1967 C1965 1.561 . S
C1968 C1965 1.526 . S
C1968 C1969 1.396 . S
C1968 C1973 1.390 . S
C1969 C1963 1.465 . S
C1969 C1968 1.396 . S
C1969 C1970 1.399 . S
C1970 H1956 0.929 . S
C1970 C1969 1.399 . S
C1970 C1971 1.385 . S
C1971 H1957 0.931 . S
C1971 C1970 1.385 . S
C1971 C1972 1.389 . S
C1972 C1971 1.389 . S
C1972 C1973 1.387 . S
C1973 H1958 0.930 . S
C1973 C1968 1.390 . S
C1973 C1972 1.387 . S
H1974 C1986 0.930 . S
H1975 C1988 0.930 . S
H1976 C1989 0.930 . S
H1977 C1993 0.959 . S
H1978 C1993 0.959 . S
H1979 C1993 0.961 . S
H1980 C1994 0.960 . S
H1981 C1994 0.961 . S
H1982 C1994 0.959 . S
H1983 C1997 0.929 . S
H1984 C1998 0.931 . S
H1985 C2000 0.930 . S
C1986 H1974 0.930 . S
C1986 C1987 1.399 . S
C1986 C1991 1.399 . S
C1987 C1986 1.399 . S
C1987 C1988 1.376 . S
C1988 H1975 0.930 . S
C1988 C1987 1.376 . S
C1988 C1989 1.388 . S
C1989 H1976 0.930 . S
C1989 C1988 1.388 . S
C1989 C1990 1.390 . S
C1990 C1989 1.390 . S
C1990 C1991 1.394 . S
C1990 C1996 1.465 . S
C1991 C1986 1.399 . S
C1991 C1990 1.394 . S
C1991 C1992 1.516 . S
C1992 C1991 1.516 . S
C1992 C1993 1.502 . S
C1992 C1994 1.561 . S
C1992 C1995 1.526 . S
C1993 H1977 0.959 . S
C1993 H1978 0.959 . S
C1993 H1979 0.961 . S
C1993 C1992 1.502 . S
C1994 H1980 0.960 . S
C1994 H1981 0.961 . S
C1994 H1982 0.959 . S
C1994 C1992 1.561 . S
C1995 C1992 1.526 . S
C1995 C1996 1.396 . S
C1995 C2000 1.390 . S
C1996 C1990 1.465 . S
C1996 C1995 1.396 . S
C1996 C1997 1.399 . S
C1997 H1983 0.929 . S
C1997 C1996 1.399 . S
C1997 C1998 1.385 . S
C1998 H1984 0.931 . S
C1998 C1997 1.385 . S
C1998 C1999 1.389 . S
C1999 C1998 1.389 . S
C1999 C2000 1.387 . S
C2000 H1985 0.930 . S
C2000 C1995 1.390 . S
C2000 C1999 1.387 . S
H2001 C2013 0.930 . S
H2002 C2015 0.930 . S
H2003 C2016 0.930 . S
H2004 C2020 0.959 . S
H2005 C2020 0.959 . S
H2006 C2020 0.961 . S
H2007 C2021 0.960 . S
H2008 C2021 0.961 . S
H2009 C2021 0.959 . S
H2010 C2024 0.929 . S
H2011 C2025 0.931 . S
H2012 C2027 0.930 . S
C2013 H2001 0.930 . S
C2013 C2014 1.399 . S
C2013 C2018 1.399 . S
C2014 C2013 1.399 . S
C2014 C2015 1.376 . S
C2015 H2002 0.930 . S
C2015 C2014 1.376 . S
C2015 C2016 1.388 . S
C2016 H2003 0.930 . S
C2016 C2015 1.388 . S
C2016 C2017 1.390 . S
C2017 C2016 1.390 . S
C2017 C2018 1.394 . S
C2017 C2023 1.465 . S
C2018 C2013 1.399 . S
C2018 C2017 1.394 . S
C2018 C2019 1.516 . S
C2019 C2018 1.516 . S
C2019 C2020 1.502 . S
C2019 C2021 1.561 . S
C2019 C2022 1.526 . S
C2020 H2004 0.959 . S
C2020 H2005 0.959 . S
C2020 H2006 0.961 . S
C2020 C2019 1.502 . S
C2021 H2007 0.960 . S
C2021 H2008 0.961 . S
C2021 H2009 0.959 . S
C2021 C2019 1.561 . S
C2022 C2019 1.526 . S
C2022 C2023 1.396 . S
C2022 C2027 1.390 . S
C2023 C2017 1.465 . S
C2023 C2022 1.396 . S
C2023 C2024 1.399 . S
C2024 H2010 0.929 . S
C2024 C2023 1.399 . S
C2024 C2025 1.385 . S
C2025 H2011 0.931 . S
C2025 C2024 1.385 . S
C2025 C2026 1.389 . S
C2026 C2025 1.389 . S
C2026 C2027 1.387 . S
C2027 H2012 0.930 . S
C2027 C2022 1.390 . S
C2027 C2026 1.387 . S
H2028 C2040 0.930 . S
H2029 C2042 0.930 . S
H2030 C2043 0.930 . S
H2031 C2047 0.959 . S
H2032 C2047 0.959 . S
H2033 C2047 0.961 . S
H2034 C2048 0.960 . S
H2035 C2048 0.961 . S
H2036 C2048 0.959 . S
H2037 C2051 0.929 . S
H2038 C2052 0.931 . S
H2039 C2054 0.930 . S
C2040 H2028 0.930 . S
C2040 C2041 1.399 . S
C2040 C2045 1.399 . S
C2041 C2040 1.399 . S
C2041 C2042 1.376 . S
C2042 H2029 0.930 . S
C2042 C2041 1.376 . S
C2042 C2043 1.388 . S
C2043 H2030 0.930 . S
C2043 C2042 1.388 . S
C2043 C2044 1.390 . S
C2044 C2043 1.390 . S
C2044 C2045 1.394 . S
C2044 C2050 1.465 . S
C2045 C2040 1.399 . S
C2045 C2044 1.394 . S
C2045 C2046 1.516 . S
C2046 C2045 1.516 . S
C2046 C2047 1.502 . S
C2046 C2048 1.561 . S
C2046 C2049 1.526 . S
C2047 H2031 0.959 . S
C2047 H2032 0.959 . S
C2047 H2033 0.961 . S
C2047 C2046 1.502 . S
C2048 H2034 0.960 . S
C2048 H2035 0.961 . S
C2048 H2036 0.959 . S
C2048 C2046 1.561 . S
C2049 C2046 1.526 . S
C2049 C2050 1.396 . S
C2049 C2054 1.390 . S
C2050 C2044 1.465 . S
C2050 C2049 1.396 . S
C2050 C2051 1.399 . S
C2051 H2037 0.929 . S
C2051 C2050 1.399 . S
C2051 C2052 1.385 . S
C2052 H2038 0.931 . S
C2052 C2051 1.385 . S
C2052 C2053 1.389 . S
C2053 C2052 1.389 . S
C2053 C2054 1.387 . S
C2054 H2039 0.930 . S
C2054 C2049 1.390 . S
C2054 C2053 1.387 . S
H2055 C2067 0.930 . S
H2056 C2069 0.930 . S
H2057 C2070 0.930 . S
H2058 C2074 0.959 . S
H2059 C2074 0.959 . S
H2060 C2074 0.961 . S
H2061 C2075 0.960 . S
H2062 C2075 0.961 . S
H2063 C2075 0.959 . S
H2064 C2078 0.929 . S
H2065 C2079 0.931 . S
H2066 C2081 0.930 . S
C2067 H2055 0.930 . S
C2067 C2068 1.399 . S
C2067 C2072 1.399 . S
C2068 C2067 1.399 . S
C2068 C2069 1.376 . S
C2069 H2056 0.930 . S
C2069 C2068 1.376 . S
C2069 C2070 1.388 . S
C2070 H2057 0.930 . S
C2070 C2069 1.388 . S
C2070 C2071 1.390 . S
C2071 C2070 1.390 . S
C2071 C2072 1.394 . S
C2071 C2077 1.465 . S
C2072 C2067 1.399 . S
C2072 C2071 1.394 . S
C2072 C2073 1.516 . S
C2073 C2072 1.516 . S
C2073 C2074 1.502 . S
C2073 C2075 1.561 . S
C2073 C2076 1.526 . S
C2074 H2058 0.959 . S
C2074 H2059 0.959 . S
C2074 H2060 0.961 . S
C2074 C2073 1.502 . S
C2075 H2061 0.960 . S
C2075 H2062 0.961 . S
C2075 H2063 0.959 . S
C2075 C2073 1.561 . S
C2076 C2073 1.526 . S
C2076 C2077 1.396 . S
C2076 C2081 1.390 . S
C2077 C2071 1.465 . S
C2077 C2076 1.396 . S
C2077 C2078 1.399 . S
C2078 H2064 0.929 . S
C2078 C2077 1.399 . S
C2078 C2079 1.385 . S
C2079 H2065 0.931 . S
C2079 C2078 1.385 . S
C2079 C2080 1.389 . S
C2080 C2079 1.389 . S
C2080 C2081 1.387 . S
C2081 H2066 0.930 . S
C2081 C2076 1.390 . S
C2081 C2080 1.387 . S
H2082 C2094 0.930 . S
H2083 C2096 0.930 . S
H2084 C2097 0.930 . S
H2085 C2101 0.959 . S
H2086 C2101 0.959 . S
H2087 C2101 0.961 . S
H2088 C2102 0.960 . S
H2089 C2102 0.961 . S
H2090 C2102 0.959 . S
H2091 C2105 0.929 . S
H2092 C2106 0.931 . S
H2093 C2108 0.930 . S
C2094 H2082 0.930 . S
C2094 C2095 1.399 . S
C2094 C2099 1.399 . S
C2095 C2094 1.399 . S
C2095 C2096 1.376 . S
C2096 H2083 0.930 . S
C2096 C2095 1.376 . S
C2096 C2097 1.388 . S
C2097 H2084 0.930 . S
C2097 C2096 1.388 . S
C2097 C2098 1.390 . S
C2098 C2097 1.390 . S
C2098 C2099 1.394 . S
C2098 C2104 1.465 . S
C2099 C2094 1.399 . S
C2099 C2098 1.394 . S
C2099 C2100 1.516 . S
C2100 C2099 1.516 . S
C2100 C2101 1.502 . S
C2100 C2102 1.561 . S
C2100 C2103 1.526 . S
C2101 H2085 0.959 . S
C2101 H2086 0.959 . S
C2101 H2087 0.961 . S
C2101 C2100 1.502 . S
C2102 H2088 0.960 . S
C2102 H2089 0.961 . S
C2102 H2090 0.959 . S
C2102 C2100 1.561 . S
C2103 C2100 1.526 . S
C2103 C2104 1.396 . S
C2103 C2108 1.390 . S
C2104 C2098 1.465 . S
C2104 C2103 1.396 . S
C2104 C2105 1.399 . S
C2105 H2091 0.929 . S
C2105 C2104 1.399 . S
C2105 C2106 1.385 . S
C2106 H2092 0.931 . S
C2106 C2105 1.385 . S
C2106 C2107 1.389 . S
C2107 C2106 1.389 . S
C2107 C2108 1.387 . S
C2108 H2093 0.930 . S
C2108 C2103 1.390 . S
C2108 C2107 1.387 . S
H2109 C2121 0.930 . S
H2110 C2123 0.930 . S
H2111 C2124 0.930 . S
H2112 C2128 0.959 . S
H2113 C2128 0.959 . S
H2114 C2128 0.961 . S
H2115 C2129 0.960 . S
H2116 C2129 0.961 . S
H2117 C2129 0.959 . S
H2118 C2132 0.929 . S
H2119 C2133 0.931 . S
H2120 C2135 0.930 . S
C2121 H2109 0.930 . S
C2121 C2122 1.399 . S
C2121 C2126 1.399 . S
C2122 C2121 1.399 . S
C2122 C2123 1.376 . S
C2123 H2110 0.930 . S
C2123 C2122 1.376 . S
C2123 C2124 1.388 . S
C2124 H2111 0.930 . S
C2124 C2123 1.388 . S
C2124 C2125 1.390 . S
C2125 C2124 1.390 . S
C2125 C2126 1.394 . S
C2125 C2131 1.465 . S
C2126 C2121 1.399 . S
C2126 C2125 1.394 . S
C2126 C2127 1.516 . S
C2127 C2126 1.516 . S
C2127 C2128 1.502 . S
C2127 C2129 1.561 . S
C2127 C2130 1.526 . S
C2128 H2112 0.959 . S
C2128 H2113 0.959 . S
C2128 H2114 0.961 . S
C2128 C2127 1.502 . S
C2129 H2115 0.960 . S
C2129 H2116 0.961 . S
C2129 H2117 0.959 . S
C2129 C2127 1.561 . S
C2130 C2127 1.526 . S
C2130 C2131 1.396 . S
C2130 C2135 1.390 . S
C2131 C2125 1.465 . S
C2131 C2130 1.396 . S
C2131 C2132 1.399 . S
C2132 H2118 0.929 . S
C2132 C2131 1.399 . S
C2132 C2133 1.385 . S
C2133 H2119 0.931 . S
C2133 C2132 1.385 . S
C2133 C2134 1.389 . S
C2134 C2133 1.389 . S
C2134 C2135 1.387 . S
C2135 H2120 0.930 . S
C2135 C2130 1.390 . S
C2135 C2134 1.387 . S
H2136 C2148 0.930 . S
H2137 C2150 0.930 . S
H2138 C2151 0.930 . S
H2139 C2155 0.959 . S
H2140 C2155 0.959 . S
H2141 C2155 0.961 . S
H2142 C2156 0.960 . S
H2143 C2156 0.961 . S
H2144 C2156 0.959 . S
H2145 C2159 0.929 . S
H2146 C2160 0.931 . S
H2147 C2162 0.930 . S
C2148 H2136 0.930 . S
C2148 C2149 1.399 . S
C2148 C2153 1.399 . S
C2149 C2148 1.399 . S
C2149 C2150 1.376 . S
C2150 H2137 0.930 . S
C2150 C2149 1.376 . S
C2150 C2151 1.388 . S
C2151 H2138 0.930 . S
C2151 C2150 1.388 . S
C2151 C2152 1.390 . S
C2152 C2151 1.390 . S
C2152 C2153 1.394 . S
C2152 C2158 1.465 . S
C2153 C2148 1.399 . S
C2153 C2152 1.394 . S
C2153 C2154 1.516 . S
C2154 C2153 1.516 . S
C2154 C2155 1.502 . S
C2154 C2156 1.561 . S
C2154 C2157 1.526 . S
C2155 H2139 0.959 . S
C2155 H2140 0.959 . S
C2155 H2141 0.961 . S
C2155 C2154 1.502 . S
C2156 H2142 0.960 . S
C2156 H2143 0.961 . S
C2156 H2144 0.959 . S
C2156 C2154 1.561 . S
C2157 C2154 1.526 . S
C2157 C2158 1.396 . S
C2157 C2162 1.390 . S
C2158 C2152 1.465 . S
C2158 C2157 1.396 . S
C2158 C2159 1.399 . S
C2159 H2145 0.929 . S
C2159 C2158 1.399 . S
C2159 C2160 1.385 . S
C2160 H2146 0.931 . S
C2160 C2159 1.385 . S
C2160 C2161 1.389 . S
C2161 C2160 1.389 . S
C2161 C2162 1.387 . S
C2162 H2147 0.930 . S
C2162 C2157 1.390 . S
C2162 C2161 1.387 . S
H2163 C2175 0.930 . S
H2164 C2177 0.930 . S
H2165 C2178 0.930 . S
H2166 C2182 0.959 . S
H2167 C2182 0.959 . S
H2168 C2182 0.961 . S
H2169 C2183 0.960 . S
H2170 C2183 0.961 . S
H2171 C2183 0.959 . S
H2172 C2186 0.929 . S
H2173 C2187 0.931 . S
H2174 C2189 0.930 . S
C2175 H2163 0.930 . S
C2175 C2176 1.399 . S
C2175 C2180 1.399 . S
C2176 C2175 1.399 . S
C2176 C2177 1.376 . S
C2177 H2164 0.930 . S
C2177 C2176 1.376 . S
C2177 C2178 1.388 . S
C2178 H2165 0.930 . S
C2178 C2177 1.388 . S
C2178 C2179 1.390 . S
C2179 C2178 1.390 . S
C2179 C2180 1.394 . S
C2179 C2185 1.465 . S
C2180 C2175 1.399 . S
C2180 C2179 1.394 . S
C2180 C2181 1.516 . S
C2181 C2180 1.516 . S
C2181 C2182 1.502 . S
C2181 C2183 1.561 . S
C2181 C2184 1.526 . S
C2182 H2166 0.959 . S
C2182 H2167 0.959 . S
C2182 H2168 0.961 . S
C2182 C2181 1.502 . S
C2183 H2169 0.960 . S
C2183 H2170 0.961 . S
C2183 H2171 0.959 . S
C2183 C2181 1.561 . S
C2184 C2181 1.526 . S
C2184 C2185 1.396 . S
C2184 C2189 1.390 . S
C2185 C2179 1.465 . S
C2185 C2184 1.396 . S
C2185 C2186 1.399 . S
C2186 H2172 0.929 . S
C2186 C2185 1.399 . S
C2186 C2187 1.385 . S
C2187 H2173 0.931 . S
C2187 C2186 1.385 . S
C2187 C2188 1.389 . S
C2188 C2187 1.389 . S
C2188 C2189 1.387 . S
C2189 H2174 0.930 . S
C2189 C2184 1.390 . S
C2189 C2188 1.387 . S
H2190 C2202 0.930 . S
H2191 C2204 0.930 . S
H2192 C2205 0.930 . S
H2193 C2209 0.959 . S
H2194 C2209 0.959 . S
H2195 C2209 0.961 . S
H2196 C2210 0.960 . S
H2197 C2210 0.961 . S
H2198 C2210 0.959 . S
H2199 C2213 0.929 . S
H2200 C2214 0.931 . S
H2201 C2216 0.930 . S
C2202 H2190 0.930 . S
C2202 C2203 1.399 . S
C2202 C2207 1.399 . S
C2203 C2202 1.399 . S
C2203 C2204 1.376 . S
C2204 H2191 0.930 . S
C2204 C2203 1.376 . S
C2204 C2205 1.388 . S
C2205 H2192 0.930 . S
C2205 C2204 1.388 . S
C2205 C2206 1.390 . S
C2206 C2205 1.390 . S
C2206 C2207 1.394 . S
C2206 C2212 1.465 . S
C2207 C2202 1.399 . S
C2207 C2206 1.394 . S
C2207 C2208 1.516 . S
C2208 C2207 1.516 . S
C2208 C2209 1.502 . S
C2208 C2210 1.561 . S
C2208 C2211 1.526 . S
C2209 H2193 0.959 . S
C2209 H2194 0.959 . S
C2209 H2195 0.961 . S
C2209 C2208 1.502 . S
C2210 H2196 0.960 . S
C2210 H2197 0.961 . S
C2210 H2198 0.959 . S
C2210 C2208 1.561 . S
C2211 C2208 1.526 . S
C2211 C2212 1.396 . S
C2211 C2216 1.390 . S
C2212 C2206 1.465 . S
C2212 C2211 1.396 . S
C2212 C2213 1.399 . S
C2213 H2199 0.929 . S
C2213 C2212 1.399 . S
C2213 C2214 1.385 . S
C2214 H2200 0.931 . S
C2214 C2213 1.385 . S
C2214 C2215 1.389 . S
C2215 C2214 1.389 . S
C2215 C2216 1.387 . S
C2216 H2201 0.930 . S
C2216 C2211 1.390 . S
C2216 C2215 1.387 . S
H2217 C2229 0.930 . S
H2218 C2231 0.930 . S
H2219 C2232 0.930 . S
H2220 C2236 0.959 . S
H2221 C2236 0.959 . S
H2222 C2236 0.961 . S
H2223 C2237 0.960 . S
H2224 C2237 0.961 . S
H2225 C2237 0.959 . S
H2226 C2240 0.929 . S
H2227 C2241 0.931 . S
H2228 C2243 0.930 . S
C2229 H2217 0.930 . S
C2229 C2230 1.399 . S
C2229 C2234 1.399 . S
C2230 C2229 1.399 . S
C2230 C2231 1.376 . S
C2231 H2218 0.930 . S
C2231 C2230 1.376 . S
C2231 C2232 1.388 . S
C2232 H2219 0.930 . S
C2232 C2231 1.388 . S
C2232 C2233 1.390 . S
C2233 C2232 1.390 . S
C2233 C2234 1.394 . S
C2233 C2239 1.465 . S
C2234 C2229 1.399 . S
C2234 C2233 1.394 . S
C2234 C2235 1.516 . S
C2235 C2234 1.516 . S
C2235 C2236 1.502 . S
C2235 C2237 1.561 . S
C2235 C2238 1.526 . S
C2236 H2220 0.959 . S
C2236 H2221 0.959 . S
C2236 H2222 0.961 . S
C2236 C2235 1.502 . S
C2237 H2223 0.960 . S
C2237 H2224 0.961 . S
C2237 H2225 0.959 . S
C2237 C2235 1.561 . S
C2238 C2235 1.526 . S
C2238 C2239 1.396 . S
C2238 C2243 1.390 . S
C2239 C2233 1.465 . S
C2239 C2238 1.396 . S
C2239 C2240 1.399 . S
C2240 H2226 0.929 . S
C2240 C2239 1.399 . S
C2240 C2241 1.385 . S
C2241 H2227 0.931 . S
C2241 C2240 1.385 . S
C2241 C2242 1.389 . S
C2242 C2241 1.389 . S
C2242 C2243 1.387 . S
C2243 H2228 0.930 . S
C2243 C2238 1.390 . S
C2243 C2242 1.387 . S
H2244 C2256 0.930 . S
H2245 C2258 0.930 . S
H2246 C2259 0.930 . S
H2247 C2263 0.959 . S
H2248 C2263 0.959 . S
H2249 C2263 0.961 . S
H2250 C2264 0.960 . S
H2251 C2264 0.961 . S
H2252 C2264 0.959 . S
H2253 C2267 0.929 . S
H2254 C2268 0.931 . S
H2255 C2270 0.930 . S
C2256 H2244 0.930 . S
C2256 C2257 1.399 . S
C2256 C2261 1.399 . S
C2257 C2256 1.399 . S
C2257 C2258 1.376 . S
C2258 H2245 0.930 . S
C2258 C2257 1.376 . S
C2258 C2259 1.388 . S
C2259 H2246 0.930 . S
C2259 C2258 1.388 . S
C2259 C2260 1.390 . S
C2260 C2259 1.390 . S
C2260 C2261 1.394 . S
C2260 C2266 1.465 . S
C2261 C2256 1.399 . S
C2261 C2260 1.394 . S
C2261 C2262 1.516 . S
C2262 C2261 1.516 . S
C2262 C2263 1.502 . S
C2262 C2264 1.561 . S
C2262 C2265 1.526 . S
C2263 H2247 0.959 . S
C2263 H2248 0.959 . S
C2263 H2249 0.961 . S
C2263 C2262 1.502 . S
C2264 H2250 0.960 . S
C2264 H2251 0.961 . S
C2264 H2252 0.959 . S
C2264 C2262 1.561 . S
C2265 C2262 1.526 . S
C2265 C2266 1.396 . S
C2265 C2270 1.390 . S
C2266 C2260 1.465 . S
C2266 C2265 1.396 . S
C2266 C2267 1.399 . S
C2267 H2253 0.929 . S
C2267 C2266 1.399 . S
C2267 C2268 1.385 . S
C2268 H2254 0.931 . S
C2268 C2267 1.385 . S
C2268 C2269 1.389 . S
C2269 C2268 1.389 . S
C2269 C2270 1.387 . S
C2270 H2255 0.930 . S
C2270 C2265 1.390 . S
C2270 C2269 1.387 . S
H2271 C2283 0.930 . S
H2272 C2285 0.930 . S
H2273 C2286 0.930 . S
H2274 C2290 0.959 . S
H2275 C2290 0.959 . S
H2276 C2290 0.961 . S
H2277 C2291 0.960 . S
H2278 C2291 0.961 . S
H2279 C2291 0.959 . S
H2280 C2294 0.929 . S
H2281 C2295 0.931 . S
H2282 C2297 0.930 . S
C2283 H2271 0.930 . S
C2283 C2284 1.399 . S
C2283 C2288 1.399 . S
C2284 C2283 1.399 . S
C2284 C2285 1.376 . S
C2285 H2272 0.930 . S
C2285 C2284 1.376 . S
C2285 C2286 1.388 . S
C2286 H2273 0.930 . S
C2286 C2285 1.388 . S
C2286 C2287 1.390 . S
C2287 C2286 1.390 . S
C2287 C2288 1.394 . S
C2287 C2293 1.465 . S
C2288 C2283 1.399 . S
C2288 C2287 1.394 . S
C2288 C2289 1.516 . S
C2289 C2288 1.516 . S
C2289 C2290 1.502 . S
C2289 C2291 1.561 . S
C2289 C2292 1.526 . S
C2290 H2274 0.959 . S
C2290 H2275 0.959 . S
C2290 H2276 0.961 . S
C2290 C2289 1.502 . S
C2291 H2277 0.960 . S
C2291 H2278 0.961 . S
C2291 H2279 0.959 . S
C2291 C2289 1.561 . S
C2292 C2289 1.526 . S
C2292 C2293 1.396 . S
C2292 C2297 1.390 . S
C2293 C2287 1.465 . S
C2293 C2292 1.396 . S
C2293 C2294 1.399 . S
C2294 H2280 0.929 . S
C2294 C2293 1.399 . S
C2294 C2295 1.385 . S
C2295 H2281 0.931 . S
C2295 C2294 1.385 . S
C2295 C2296 1.389 . S
C2296 C2295 1.389 . S
C2296 C2297 1.387 . S
C2297 H2282 0.930 . S
C2297 C2292 1.390 . S
C2297 C2296 1.387 . S
H2298 C2310 0.930 . S
H2299 C2312 0.930 . S
H2300 C2313 0.930 . S
H2301 C2317 0.959 . S
H2302 C2317 0.959 . S
H2303 C2317 0.961 . S
H2304 C2318 0.960 . S
H2305 C2318 0.961 . S
H2306 C2318 0.959 . S
H2307 C2321 0.929 . S
H2308 C2322 0.931 . S
H2309 C2324 0.930 . S
C2310 H2298 0.930 . S
C2310 C2311 1.399 . S
C2310 C2315 1.399 . S
C2311 C2310 1.399 . S
C2311 C2312 1.376 . S
C2312 H2299 0.930 . S
C2312 C2311 1.376 . S
C2312 C2313 1.388 . S
C2313 H2300 0.930 . S
C2313 C2312 1.388 . S
C2313 C2314 1.390 . S
C2314 C2313 1.390 . S
C2314 C2315 1.394 . S
C2314 C2320 1.465 . S
C2315 C2310 1.399 . S
C2315 C2314 1.394 . S
C2315 C2316 1.516 . S
C2316 C2315 1.516 . S
C2316 C2317 1.502 . S
C2316 C2318 1.561 . S
C2316 C2319 1.526 . S
C2317 H2301 0.959 . S
C2317 H2302 0.959 . S
C2317 H2303 0.961 . S
C2317 C2316 1.502 . S
C2318 H2304 0.960 . S
C2318 H2305 0.961 . S
C2318 H2306 0.959 . S
C2318 C2316 1.561 . S
C2319 C2316 1.526 . S
C2319 C2320 1.396 . S
C2319 C2324 1.390 . S
C2320 C2314 1.465 . S
C2320 C2319 1.396 . S
C2320 C2321 1.399 . S
C2321 H2307 0.929 . S
C2321 C2320 1.399 . S
C2321 C2322 1.385 . S
C2322 H2308 0.931 . S
C2322 C2321 1.385 . S
C2322 C2323 1.389 . S
C2323 C2322 1.389 . S
C2323 C2324 1.387 . S
C2324 H2309 0.930 . S
C2324 C2319 1.390 . S
C2324 C2323 1.387 . S
H2325 C2337 0.930 . S
H2326 C2339 0.930 . S
H2327 C2340 0.930 . S
H2328 C2344 0.959 . S
H2329 C2344 0.959 . S
H2330 C2344 0.961 . S
H2331 C2345 0.960 . S
H2332 C2345 0.961 . S
H2333 C2345 0.959 . S
H2334 C2348 0.929 . S
H2335 C2349 0.931 . S
H2336 C2351 0.930 . S
C2337 H2325 0.930 . S
C2337 C2338 1.399 . S
C2337 C2342 1.399 . S
C2338 C2337 1.399 . S
C2338 C2339 1.376 . S
C2339 H2326 0.930 . S
C2339 C2338 1.376 . S
C2339 C2340 1.388 . S
C2340 H2327 0.930 . S
C2340 C2339 1.388 . S
C2340 C2341 1.390 . S
C2341 C2340 1.390 . S
C2341 C2342 1.394 . S
C2341 C2347 1.465 . S
C2342 C2337 1.399 . S
C2342 C2341 1.394 . S
C2342 C2343 1.516 . S
C2343 C2342 1.516 . S
C2343 C2344 1.502 . S
C2343 C2345 1.561 . S
C2343 C2346 1.526 . S
C2344 H2328 0.959 . S
C2344 H2329 0.959 . S
C2344 H2330 0.961 . S
C2344 C2343 1.502 . S
C2345 H2331 0.960 . S
C2345 H2332 0.961 . S
C2345 H2333 0.959 . S
C2345 C2343 1.561 . S
C2346 C2343 1.526 . S
C2346 C2347 1.396 . S
C2346 C2351 1.390 . S
C2347 C2341 1.465 . S
C2347 C2346 1.396 . S
C2347 C2348 1.399 . S
C2348 H2334 0.929 . S
C2348 C2347 1.399 . S
C2348 C2349 1.385 . S
C2349 H2335 0.931 . S
C2349 C2348 1.385 . S
C2349 C2350 1.389 . S
C2350 C2349 1.389 . S
C2350 C2351 1.387 . S
C2351 H2336 0.930 . S
C2351 C2346 1.390 . S
C2351 C2350 1.387 . S
H2352 C2364 0.930 . S
H2353 C2366 0.930 . S
H2354 C2367 0.930 . S
H2355 C2371 0.959 . S
H2356 C2371 0.959 . S
H2357 C2371 0.961 . S
H2358 C2372 0.960 . S
H2359 C2372 0.961 . S
H2360 C2372 0.959 . S
H2361 C2375 0.929 . S
H2362 C2376 0.931 . S
H2363 C2378 0.930 . S
C2364 H2352 0.930 . S
C2364 C2365 1.399 . S
C2364 C2369 1.399 . S
C2365 C2364 1.399 . S
C2365 C2366 1.376 . S
C2366 H2353 0.930 . S
C2366 C2365 1.376 . S
C2366 C2367 1.388 . S
C2367 H2354 0.930 . S
C2367 C2366 1.388 . S
C2367 C2368 1.390 . S
C2368 C2367 1.390 . S
C2368 C2369 1.394 . S
C2368 C2374 1.465 . S
C2369 C2364 1.399 . S
C2369 C2368 1.394 . S
C2369 C2370 1.516 . S
C2370 C2369 1.516 . S
C2370 C2371 1.502 . S
C2370 C2372 1.561 . S
C2370 C2373 1.526 . S
C2371 H2355 0.959 . S
C2371 H2356 0.959 . S
C2371 H2357 0.961 . S
C2371 C2370 1.502 . S
C2372 H2358 0.960 . S
C2372 H2359 0.961 . S
C2372 H2360 0.959 . S
C2372 C2370 1.561 . S
C2373 C2370 1.526 . S
C2373 C2374 1.396 . S
C2373 C2378 1.390 . S
C2374 C2368 1.465 . S
C2374 C2373 1.396 . S
C2374 C2375 1.399 . S
C2375 H2361 0.929 . S
C2375 C2374 1.399 . S
C2375 C2376 1.385 . S
C2376 H2362 0.931 . S
C2376 C2375 1.385 . S
C2376 C2377 1.389 . S
C2377 C2376 1.389 . S
C2377 C2378 1.387 . S
C2378 H2363 0.930 . S
C2378 C2373 1.390 . S
C2378 C2377 1.387 . S
H2379 C2391 0.930 . S
H2380 C2393 0.930 . S
H2381 C2394 0.930 . S
H2382 C2398 0.959 . S
H2383 C2398 0.959 . S
H2384 C2398 0.961 . S
H2385 C2399 0.960 . S
H2386 C2399 0.961 . S
H2387 C2399 0.959 . S
H2388 C2402 0.929 . S
H2389 C2403 0.931 . S
H2390 C2405 0.930 . S
C2391 H2379 0.930 . S
C2391 C2392 1.399 . S
C2391 C2396 1.399 . S
C2392 C2391 1.399 . S
C2392 C2393 1.376 . S
C2393 H2380 0.930 . S
C2393 C2392 1.376 . S
C2393 C2394 1.388 . S
C2394 H2381 0.930 . S
C2394 C2393 1.388 . S
C2394 C2395 1.390 . S
C2395 C2394 1.390 . S
C2395 C2396 1.394 . S
C2395 C2401 1.465 . S
C2396 C2391 1.399 . S
C2396 C2395 1.394 . S
C2396 C2397 1.516 . S
C2397 C2396 1.516 . S
C2397 C2398 1.502 . S
C2397 C2399 1.561 . S
C2397 C2400 1.526 . S
C2398 H2382 0.959 . S
C2398 H2383 0.959 . S
C2398 H2384 0.961 . S
C2398 C2397 1.502 . S
C2399 H2385 0.960 . S
C2399 H2386 0.961 . S
C2399 H2387 0.959 . S
C2399 C2397 1.561 . S
C2400 C2397 1.526 . S
C2400 C2401 1.396 . S
C2400 C2405 1.390 . S
C2401 C2395 1.465 . S
C2401 C2400 1.396 . S
C2401 C2402 1.399 . S
C2402 H2388 0.929 . S
C2402 C2401 1.399 . S
C2402 C2403 1.385 . S
C2403 H2389 0.931 . S
C2403 C2402 1.385 . S
C2403 C2404 1.389 . S
C2404 C2403 1.389 . S
C2404 C2405 1.387 . S
C2405 H2390 0.930 . S
C2405 C2400 1.390 . S
C2405 C2404 1.387 . S
H2406 C2418 0.930 . S
H2407 C2420 0.930 . S
H2408 C2421 0.930 . S
H2409 C2425 0.959 . S
H2410 C2425 0.959 . S
H2411 C2425 0.961 . S
H2412 C2426 0.960 . S
H2413 C2426 0.961 . S
H2414 C2426 0.959 . S
H2415 C2429 0.929 . S
H2416 C2430 0.931 . S
H2417 C2432 0.930 . S
C2418 H2406 0.930 . S
C2418 C2419 1.399 . S
C2418 C2423 1.399 . S
C2419 C2418 1.399 . S
C2419 C2420 1.376 . S
C2420 H2407 0.930 . S
C2420 C2419 1.376 . S
C2420 C2421 1.388 . S
C2421 H2408 0.930 . S
C2421 C2420 1.388 . S
C2421 C2422 1.390 . S
C2422 C2421 1.390 . S
C2422 C2423 1.394 . S
C2422 C2428 1.465 . S
C2423 C2418 1.399 . S
C2423 C2422 1.394 . S
C2423 C2424 1.516 . S
C2424 C2423 1.516 . S
C2424 C2425 1.502 . S
C2424 C2426 1.561 . S
C2424 C2427 1.526 . S
C2425 H2409 0.959 . S
C2425 H2410 0.959 . S
C2425 H2411 0.961 . S
C2425 C2424 1.502 . S
C2426 H2412 0.960 . S
C2426 H2413 0.961 . S
C2426 H2414 0.959 . S
C2426 C2424 1.561 . S
C2427 C2424 1.526 . S
C2427 C2428 1.396 . S
C2427 C2432 1.390 . S
C2428 C2422 1.465 . S
C2428 C2427 1.396 . S
C2428 C2429 1.399 . S
C2429 H2415 0.929 . S
C2429 C2428 1.399 . S
C2429 C2430 1.385 . S
C2430 H2416 0.931 . S
C2430 C2429 1.385 . S
C2430 C2431 1.389 . S
C2431 C2430 1.389 . S
C2431 C2432 1.387 . S
C2432 H2417 0.930 . S
C2432 C2427 1.390 . S
C2432 C2431 1.387 . S
H2433 C2445 0.930 . S
H2434 C2447 0.930 . S
H2435 C2448 0.930 . S
H2436 C2452 0.959 . S
H2437 C2452 0.959 . S
H2438 C2452 0.961 . S
H2439 C2453 0.960 . S
H2440 C2453 0.961 . S
H2441 C2453 0.959 . S
H2442 C2456 0.929 . S
H2443 C2457 0.931 . S
H2444 C2459 0.930 . S
C2445 H2433 0.930 . S
C2445 C2446 1.399 . S
C2445 C2450 1.399 . S
C2446 C2445 1.399 . S
C2446 C2447 1.376 . S
C2447 H2434 0.930 . S
C2447 C2446 1.376 . S
C2447 C2448 1.388 . S
C2448 H2435 0.930 . S
C2448 C2447 1.388 . S
C2448 C2449 1.390 . S
C2449 C2448 1.390 . S
C2449 C2450 1.394 . S
C2449 C2455 1.465 . S
C2450 C2445 1.399 . S
C2450 C2449 1.394 . S
C2450 C2451 1.516 . S
C2451 C2450 1.516 . S
C2451 C2452 1.502 . S
C2451 C2453 1.561 . S
C2451 C2454 1.526 . S
C2452 H2436 0.959 . S
C2452 H2437 0.959 . S
C2452 H2438 0.961 . S
C2452 C2451 1.502 . S
C2453 H2439 0.960 . S
C2453 H2440 0.961 . S
C2453 H2441 0.959 . S
C2453 C2451 1.561 . S
C2454 C2451 1.526 . S
C2454 C2455 1.396 . S
C2454 C2459 1.390 . S
C2455 C2449 1.465 . S
C2455 C2454 1.396 . S
C2455 C2456 1.399 . S
C2456 H2442 0.929 . S
C2456 C2455 1.399 . S
C2456 C2457 1.385 . S
C2457 H2443 0.931 . S
C2457 C2456 1.385 . S
C2457 C2458 1.389 . S
C2458 C2457 1.389 . S
C2458 C2459 1.387 . S
C2459 H2444 0.930 . S
C2459 C2454 1.390 . S
C2459 C2458 1.387 . S
H2460 C2472 0.930 . S
H2461 C2474 0.930 . S
H2462 C2475 0.930 . S
H2463 C2479 0.959 . S
H2464 C2479 0.959 . S
H2465 C2479 0.961 . S
H2466 C2480 0.960 . S
H2467 C2480 0.961 . S
H2468 C2480 0.959 . S
H2469 C2483 0.929 . S
H2470 C2484 0.931 . S
H2471 C2486 0.930 . S
C2472 H2460 0.930 . S
C2472 C2473 1.399 . S
C2472 C2477 1.399 . S
C2473 C2472 1.399 . S
C2473 C2474 1.376 . S
C2474 H2461 0.930 . S
C2474 C2473 1.376 . S
C2474 C2475 1.388 . S
C2475 H2462 0.930 . S
C2475 C2474 1.388 . S
C2475 C2476 1.390 . S
C2476 C2475 1.390 . S
C2476 C2477 1.394 . S
C2476 C2482 1.465 . S
C2477 C2472 1.399 . S
C2477 C2476 1.394 . S
C2477 C2478 1.516 . S
C2478 C2477 1.516 . S
C2478 C2479 1.502 . S
C2478 C2480 1.561 . S
C2478 C2481 1.526 . S
C2479 H2463 0.959 . S
C2479 H2464 0.959 . S
C2479 H2465 0.961 . S
C2479 C2478 1.502 . S
C2480 H2466 0.960 . S
C2480 H2467 0.961 . S
C2480 H2468 0.959 . S
C2480 C2478 1.561 . S
C2481 C2478 1.526 . S
C2481 C2482 1.396 . S
C2481 C2486 1.390 . S
C2482 C2476 1.465 . S
C2482 C2481 1.396 . S
C2482 C2483 1.399 . S
C2483 H2469 0.929 . S
C2483 C2482 1.399 . S
C2483 C2484 1.385 . S
C2484 H2470 0.931 . S
C2484 C2483 1.385 . S
C2484 C2485 1.389 . S
C2485 C2484 1.389 . S
C2485 C2486 1.387 . S
C2486 H2471 0.930 . S
C2486 C2481 1.390 . S
C2486 C2485 1.387 . S
H2487 C2499 0.930 . S
H2488 C2501 0.930 . S
H2489 C2502 0.930 . S
H2490 C2506 0.959 . S
H2491 C2506 0.959 . S
H2492 C2506 0.961 . S
H2493 C2507 0.960 . S
H2494 C2507 0.961 . S
H2495 C2507 0.959 . S
H2496 C2510 0.929 . S
H2497 C2511 0.931 . S
H2498 C2513 0.930 . S
C2499 H2487 0.930 . S
C2499 C2500 1.399 . S
C2499 C2504 1.399 . S
C2500 C2499 1.399 . S
C2500 C2501 1.376 . S
C2501 H2488 0.930 . S
C2501 C2500 1.376 . S
C2501 C2502 1.388 . S
C2502 H2489 0.930 . S
C2502 C2501 1.388 . S
C2502 C2503 1.390 . S
C2503 C2502 1.390 . S
C2503 C2504 1.394 . S
C2503 C2509 1.465 . S
C2504 C2499 1.399 . S
C2504 C2503 1.394 . S
C2504 C2505 1.516 . S
C2505 C2504 1.516 . S
C2505 C2506 1.502 . S
C2505 C2507 1.561 . S
C2505 C2508 1.526 . S
C2506 H2490 0.959 . S
C2506 H2491 0.959 . S
C2506 H2492 0.961 . S
C2506 C2505 1.502 . S
C2507 H2493 0.960 . S
C2507 H2494 0.961 . S
C2507 H2495 0.959 . S
C2507 C2505 1.561 . S
C2508 C2505 1.526 . S
C2508 C2509 1.396 . S
C2508 C2513 1.390 . S
C2509 C2503 1.465 . S
C2509 C2508 1.396 . S
C2509 C2510 1.399 . S
C2510 H2496 0.929 . S
C2510 C2509 1.399 . S
C2510 C2511 1.385 . S
C2511 H2497 0.931 . S
C2511 C2510 1.385 . S
C2511 C2512 1.389 . S
C2512 C2511 1.389 . S
C2512 C2513 1.387 . S
C2513 H2498 0.930 . S
C2513 C2508 1.390 . S
C2513 C2512 1.387 . S
H2514 C2526 0.930 . S
H2515 C2528 0.930 . S
H2516 C2529 0.930 . S
H2517 C2533 0.959 . S
H2518 C2533 0.959 . S
H2519 C2533 0.961 . S
H2520 C2534 0.960 . S
H2521 C2534 0.961 . S
H2522 C2534 0.959 . S
H2523 C2537 0.929 . S
H2524 C2538 0.931 . S
H2525 C2540 0.930 . S
C2526 H2514 0.930 . S
C2526 C2527 1.399 . S
C2526 C2531 1.399 . S
C2527 C2526 1.399 . S
C2527 C2528 1.376 . S
C2528 H2515 0.930 . S
C2528 C2527 1.376 . S
C2528 C2529 1.388 . S
C2529 H2516 0.930 . S
C2529 C2528 1.388 . S
C2529 C2530 1.390 . S
C2530 C2529 1.390 . S
C2530 C2531 1.394 . S
C2530 C2536 1.465 . S
C2531 C2526 1.399 . S
C2531 C2530 1.394 . S
C2531 C2532 1.516 . S
C2532 C2531 1.516 . S
C2532 C2533 1.502 . S
C2532 C2534 1.561 . S
C2532 C2535 1.526 . S
C2533 H2517 0.959 . S
C2533 H2518 0.959 . S
C2533 H2519 0.961 . S
C2533 C2532 1.502 . S
C2534 H2520 0.960 . S
C2534 H2521 0.961 . S
C2534 H2522 0.959 . S
C2534 C2532 1.561 . S
C2535 C2532 1.526 . S
C2535 C2536 1.396 . S
C2535 C2540 1.390 . S
C2536 C2530 1.465 . S
C2536 C2535 1.396 . S
C2536 C2537 1.399 . S
C2537 H2523 0.929 . S
C2537 C2536 1.399 . S
C2537 C2538 1.385 . S
C2538 H2524 0.931 . S
C2538 C2537 1.385 . S
C2538 C2539 1.389 . S
C2539 C2538 1.389 . S
C2539 C2540 1.387 . S
C2540 H2525 0.930 . S
C2540 C2535 1.390 . S
C2540 C2539 1.387 . S
H2541 C2553 0.930 . S
H2542 C2555 0.930 . S
H2543 C2556 0.930 . S
H2544 C2560 0.959 . S
H2545 C2560 0.959 . S
H2546 C2560 0.961 . S
H2547 C2561 0.960 . S
H2548 C2561 0.961 . S
H2549 C2561 0.959 . S
H2550 C2564 0.929 . S
H2551 C2565 0.931 . S
H2552 C2567 0.930 . S
C2553 H2541 0.930 . S
C2553 C2554 1.399 . S
C2553 C2558 1.399 . S
C2554 C2553 1.399 . S
C2554 C2555 1.376 . S
C2555 H2542 0.930 . S
C2555 C2554 1.376 . S
C2555 C2556 1.388 . S
C2556 H2543 0.930 . S
C2556 C2555 1.388 . S
C2556 C2557 1.390 . S
C2557 C2556 1.390 . S
C2557 C2558 1.394 . S
C2557 C2563 1.465 . S
C2558 C2553 1.399 . S
C2558 C2557 1.394 . S
C2558 C2559 1.516 . S
C2559 C2558 1.516 . S
C2559 C2560 1.502 . S
C2559 C2561 1.561 . S
C2559 C2562 1.526 . S
C2560 H2544 0.959 . S
C2560 H2545 0.959 . S
C2560 H2546 0.961 . S
C2560 C2559 1.502 . S
C2561 H2547 0.960 . S
C2561 H2548 0.961 . S
C2561 H2549 0.959 . S
C2561 C2559 1.561 . S
C2562 C2559 1.526 . S
C2562 C2563 1.396 . S
C2562 C2567 1.390 . S
C2563 C2557 1.465 . S
C2563 C2562 1.396 . S
C2563 C2564 1.399 . S
C2564 H2550 0.929 . S
C2564 C2563 1.399 . S
C2564 C2565 1.385 . S
C2565 H2551 0.931 . S
C2565 C2564 1.385 . S
C2565 C2566 1.389 . S
C2566 C2565 1.389 . S
C2566 C2567 1.387 . S
C2567 H2552 0.930 . S
C2567 C2562 1.390 . S
C2567 C2566 1.387 . S
H2568 C2580 0.930 . S
H2569 C2582 0.930 . S
H2570 C2583 0.930 . S
H2571 C2587 0.959 . S
H2572 C2587 0.959 . S
H2573 C2587 0.961 . S
H2574 C2588 0.960 . S
H2575 C2588 0.961 . S
H2576 C2588 0.959 . S
H2577 C2591 0.929 . S
H2578 C2592 0.931 . S
H2579 C2594 0.930 . S
C2580 H2568 0.930 . S
C2580 C2581 1.399 . S
C2580 C2585 1.399 . S
C2581 C2580 1.399 . S
C2581 C2582 1.376 . S
C2582 H2569 0.930 . S
C2582 C2581 1.376 . S
C2582 C2583 1.388 . S
C2583 H2570 0.930 . S
C2583 C2582 1.388 . S
C2583 C2584 1.390 . S
C2584 C2583 1.390 . S
C2584 C2585 1.394 . S
C2584 C2590 1.465 . S
C2585 C2580 1.399 . S
C2585 C2584 1.394 . S
C2585 C2586 1.516 . S
C2586 C2585 1.516 . S
C2586 C2587 1.502 . S
C2586 C2588 1.561 . S
C2586 C2589 1.526 . S
C2587 H2571 0.959 . S
C2587 H2572 0.959 . S
C2587 H2573 0.961 . S
C2587 C2586 1.502 . S
C2588 H2574 0.960 . S
C2588 H2575 0.961 . S
C2588 H2576 0.959 . S
C2588 C2586 1.561 . S
C2589 C2586 1.526 . S
C2589 C2590 1.396 . S
C2589 C2594 1.390 . S
C2590 C2584 1.465 . S
C2590 C2589 1.396 . S
C2590 C2591 1.399 . S
C2591 H2577 0.929 . S
C2591 C2590 1.399 . S
C2591 C2592 1.385 . S
C2592 H2578 0.931 . S
C2592 C2591 1.385 . S
C2592 C2593 1.389 . S
C2593 C2592 1.389 . S
C2593 C2594 1.387 . S
C2594 H2579 0.930 . S
C2594 C2589 1.390 . S
C2594 C2593 1.387 . S
H2595 C2607 0.930 . S
H2596 C2609 0.930 . S
H2597 C2610 0.930 . S
H2598 C2614 0.959 . S
H2599 C2614 0.959 . S
H2600 C2614 0.961 . S
H2601 C2615 0.960 . S
H2602 C2615 0.961 . S
H2603 C2615 0.959 . S
H2604 C2618 0.929 . S
H2605 C2619 0.931 . S
H2606 C2621 0.930 . S
C2607 H2595 0.930 . S
C2607 C2608 1.399 . S
C2607 C2612 1.399 . S
C2608 C2607 1.399 . S
C2608 C2609 1.376 . S
C2609 H2596 0.930 . S
C2609 C2608 1.376 . S
C2609 C2610 1.388 . S
C2610 H2597 0.930 . S
C2610 C2609 1.388 . S
C2610 C2611 1.390 . S
C2611 C2610 1.390 . S
C2611 C2612 1.394 . S
C2611 C2617 1.465 . S
C2612 C2607 1.399 . S
C2612 C2611 1.394 . S
C2612 C2613 1.516 . S
C2613 C2612 1.516 . S
C2613 C2614 1.502 . S
C2613 C2615 1.561 . S
C2613 C2616 1.526 . S
C2614 H2598 0.959 . S
C2614 H2599 0.959 . S
C2614 H2600 0.961 . S
C2614 C2613 1.502 . S
C2615 H2601 0.960 . S
C2615 H2602 0.961 . S
C2615 H2603 0.959 . S
C2615 C2613 1.561 . S
C2616 C2613 1.526 . S
C2616 C2617 1.396 . S
C2616 C2621 1.390 . S
C2617 C2611 1.465 . S
C2617 C2616 1.396 . S
C2617 C2618 1.399 . S
C2618 H2604 0.929 . S
C2618 C2617 1.399 . S
C2618 C2619 1.385 . S
C2619 H2605 0.931 . S
C2619 C2618 1.385 . S
C2619 C2620 1.389 . S
C2620 C2619 1.389 . S
C2620 C2621 1.387 . S
C2621 H2606 0.930 . S
C2621 C2616 1.390 . S
C2621 C2620 1.387 . S
H2622 C2634 0.930 . S
H2623 C2636 0.930 . S
H2624 C2637 0.930 . S
H2625 C2641 0.959 . S
H2626 C2641 0.959 . S
H2627 C2641 0.961 . S
H2628 C2642 0.960 . S
H2629 C2642 0.961 . S
H2630 C2642 0.959 . S
H2631 C2645 0.929 . S
H2632 C2646 0.931 . S
H2633 C2648 0.930 . S
C2634 H2622 0.930 . S
C2634 C2635 1.399 . S
C2634 C2639 1.399 . S
C2635 C2634 1.399 . S
C2635 C2636 1.376 . S
C2636 H2623 0.930 . S
C2636 C2635 1.376 . S
C2636 C2637 1.388 . S
C2637 H2624 0.930 . S
C2637 C2636 1.388 . S
C2637 C2638 1.390 . S
C2638 C2637 1.390 . S
C2638 C2639 1.394 . S
C2638 C2644 1.465 . S
C2639 C2634 1.399 . S
C2639 C2638 1.394 . S
C2639 C2640 1.516 . S
C2640 C2639 1.516 . S
C2640 C2641 1.502 . S
C2640 C2642 1.561 . S
C2640 C2643 1.526 . S
C2641 H2625 0.959 . S
C2641 H2626 0.959 . S
C2641 H2627 0.961 . S
C2641 C2640 1.502 . S
C2642 H2628 0.960 . S
C2642 H2629 0.961 . S
C2642 H2630 0.959 . S
C2642 C2640 1.561 . S
C2643 C2640 1.526 . S
C2643 C2644 1.396 . S
C2643 C2648 1.390 . S
C2644 C2638 1.465 . S
C2644 C2643 1.396 . S
C2644 C2645 1.399 . S
C2645 H2631 0.929 . S
C2645 C2644 1.399 . S
C2645 C2646 1.385 . S
C2646 H2632 0.931 . S
C2646 C2645 1.385 . S
C2646 C2647 1.389 . S
C2647 C2646 1.389 . S
C2647 C2648 1.387 . S
C2648 H2633 0.930 . S
C2648 C2643 1.390 . S
C2648 C2647 1.387 . S
H2649 C2661 0.930 . S
H2650 C2663 0.930 . S
H2651 C2664 0.930 . S
H2652 C2668 0.959 . S
H2653 C2668 0.959 . S
H2654 C2668 0.961 . S
H2655 C2669 0.960 . S
H2656 C2669 0.961 . S
H2657 C2669 0.959 . S
H2658 C2672 0.929 . S
H2659 C2673 0.931 . S
H2660 C2675 0.930 . S
C2661 H2649 0.930 . S
C2661 C2662 1.399 . S
C2661 C2666 1.399 . S
C2662 C2661 1.399 . S
C2662 C2663 1.376 . S
C2663 H2650 0.930 . S
C2663 C2662 1.376 . S
C2663 C2664 1.388 . S
C2664 H2651 0.930 . S
C2664 C2663 1.388 . S
C2664 C2665 1.390 . S
C2665 C2664 1.390 . S
C2665 C2666 1.394 . S
C2665 C2671 1.465 . S
C2666 C2661 1.399 . S
C2666 C2665 1.394 . S
C2666 C2667 1.516 . S
C2667 C2666 1.516 . S
C2667 C2668 1.502 . S
C2667 C2669 1.561 . S
C2667 C2670 1.526 . S
C2668 H2652 0.959 . S
C2668 H2653 0.959 . S
C2668 H2654 0.961 . S
C2668 C2667 1.502 . S
C2669 H2655 0.960 . S
C2669 H2656 0.961 . S
C2669 H2657 0.959 . S
C2669 C2667 1.561 . S
C2670 C2667 1.526 . S
C2670 C2671 1.396 . S
C2670 C2675 1.390 . S
C2671 C2665 1.465 . S
C2671 C2670 1.396 . S
C2671 C2672 1.399 . S
C2672 H2658 0.929 . S
C2672 C2671 1.399 . S
C2672 C2673 1.385 . S
C2673 H2659 0.931 . S
C2673 C2672 1.385 . S
C2673 C2674 1.389 . S
C2674 C2673 1.389 . S
C2674 C2675 1.387 . S
C2675 H2660 0.930 . S
C2675 C2670 1.390 . S
C2675 C2674 1.387 . S
H2676 C2688 0.930 . S
H2677 C2690 0.930 . S
H2678 C2691 0.930 . S
H2679 C2695 0.959 . S
H2680 C2695 0.959 . S
H2681 C2695 0.961 . S
H2682 C2696 0.960 . S
H2683 C2696 0.961 . S
H2684 C2696 0.959 . S
H2685 C2699 0.929 . S
H2686 C2700 0.931 . S
H2687 C2702 0.930 . S
C2688 H2676 0.930 . S
C2688 C2689 1.399 . S
C2688 C2693 1.399 . S
C2689 C2688 1.399 . S
C2689 C2690 1.376 . S
C2690 H2677 0.930 . S
C2690 C2689 1.376 . S
C2690 C2691 1.388 . S
C2691 H2678 0.930 . S
C2691 C2690 1.388 . S
C2691 C2692 1.390 . S
C2692 C2691 1.390 . S
C2692 C2693 1.394 . S
C2692 C2698 1.465 . S
C2693 C2688 1.399 . S
C2693 C2692 1.394 . S
C2693 C2694 1.516 . S
C2694 C2693 1.516 . S
C2694 C2695 1.502 . S
C2694 C2696 1.561 . S
C2694 C2697 1.526 . S
C2695 H2679 0.959 . S
C2695 H2680 0.959 . S
C2695 H2681 0.961 . S
C2695 C2694 1.502 . S
C2696 H2682 0.960 . S
C2696 H2683 0.961 . S
C2696 H2684 0.959 . S
C2696 C2694 1.561 . S
C2697 C2694 1.526 . S
C2697 C2698 1.396 . S
C2697 C2702 1.390 . S
C2698 C2692 1.465 . S
C2698 C2697 1.396 . S
C2698 C2699 1.399 . S
C2699 H2685 0.929 . S
C2699 C2698 1.399 . S
C2699 C2700 1.385 . S
C2700 H2686 0.931 . S
C2700 C2699 1.385 . S
C2700 C2701 1.389 . S
C2701 C2700 1.389 . S
C2701 C2702 1.387 . S
C2702 H2687 0.930 . S
C2702 C2697 1.390 . S
C2702 C2701 1.387 . S
H2703 C2715 0.930 . S
H2704 C2717 0.930 . S
H2705 C2718 0.930 . S
H2706 C2722 0.959 . S
H2707 C2722 0.959 . S
H2708 C2722 0.961 . S
H2709 C2723 0.960 . S
H2710 C2723 0.961 . S
H2711 C2723 0.959 . S
H2712 C2726 0.929 . S
H2713 C2727 0.931 . S
H2714 C2729 0.930 . S
C2715 H2703 0.930 . S
C2715 C2716 1.399 . S
C2715 C2720 1.399 . S
C2716 C2715 1.399 . S
C2716 C2717 1.376 . S
C2717 H2704 0.930 . S
C2717 C2716 1.376 . S
C2717 C2718 1.388 . S
C2718 H2705 0.930 . S
C2718 C2717 1.388 . S
C2718 C2719 1.390 . S
C2719 C2718 1.390 . S
C2719 C2720 1.394 . S
C2719 C2725 1.465 . S
C2720 C2715 1.399 . S
C2720 C2719 1.394 . S
C2720 C2721 1.516 . S
C2721 C2720 1.516 . S
C2721 C2722 1.502 . S
C2721 C2723 1.561 . S
C2721 C2724 1.526 . S
C2722 H2706 0.959 . S
C2722 H2707 0.959 . S
C2722 H2708 0.961 . S
C2722 C2721 1.502 . S
C2723 H2709 0.960 . S
C2723 H2710 0.961 . S
C2723 H2711 0.959 . S
C2723 C2721 1.561 . S
C2724 C2721 1.526 . S
C2724 C2725 1.396 . S
C2724 C2729 1.390 . S
C2725 C2719 1.465 . S
C2725 C2724 1.396 . S
C2725 C2726 1.399 . S
C2726 H2712 0.929 . S
C2726 C2725 1.399 . S
C2726 C2727 1.385 . S
C2727 H2713 0.931 . S
C2727 C2726 1.385 . S
C2727 C2728 1.389 . S
C2728 C2727 1.389 . S
C2728 C2729 1.387 . S
C2729 H2714 0.930 . S
C2729 C2724 1.390 . S
C2729 C2728 1.387 . S
H2730 C2742 0.930 . S
H2731 C2744 0.930 . S
H2732 C2745 0.930 . S
H2733 C2749 0.959 . S
H2734 C2749 0.959 . S
H2735 C2749 0.961 . S
H2736 C2750 0.960 . S
H2737 C2750 0.961 . S
H2738 C2750 0.959 . S
H2739 C2753 0.929 . S
H2740 C2754 0.931 . S
H2741 C2756 0.930 . S
C2742 H2730 0.930 . S
C2742 C2743 1.399 . S
C2742 C2747 1.399 . S
C2743 C2742 1.399 . S
C2743 C2744 1.376 . S
C2744 H2731 0.930 . S
C2744 C2743 1.376 . S
C2744 C2745 1.388 . S
C2745 H2732 0.930 . S
C2745 C2744 1.388 . S
C2745 C2746 1.390 . S
C2746 C2745 1.390 . S
C2746 C2747 1.394 . S
C2746 C2752 1.465 . S
C2747 C2742 1.399 . S
C2747 C2746 1.394 . S
C2747 C2748 1.516 . S
C2748 C2747 1.516 . S
C2748 C2749 1.502 . S
C2748 C2750 1.561 . S
C2748 C2751 1.526 . S
C2749 H2733 0.959 . S
C2749 H2734 0.959 . S
C2749 H2735 0.961 . S
C2749 C2748 1.502 . S
C2750 H2736 0.960 . S
C2750 H2737 0.961 . S
C2750 H2738 0.959 . S
C2750 C2748 1.561 . S
C2751 C2748 1.526 . S
C2751 C2752 1.396 . S
C2751 C2756 1.390 . S
C2752 C2746 1.465 . S
C2752 C2751 1.396 . S
C2752 C2753 1.399 . S
C2753 H2739 0.929 . S
C2753 C2752 1.399 . S
C2753 C2754 1.385 . S
C2754 H2740 0.931 . S
C2754 C2753 1.385 . S
C2754 C2755 1.389 . S
C2755 C2754 1.389 . S
C2755 C2756 1.387 . S
C2756 H2741 0.930 . S
C2756 C2751 1.390 . S
C2756 C2755 1.387 . S
H2757 C2769 0.930 . S
H2758 C2771 0.930 . S
H2759 C2772 0.930 . S
H2760 C2776 0.959 . S
H2761 C2776 0.959 . S
H2762 C2776 0.961 . S
H2763 C2777 0.960 . S
H2764 C2777 0.961 . S
H2765 C2777 0.959 . S
H2766 C2780 0.929 . S
H2767 C2781 0.931 . S
H2768 C2783 0.930 . S
C2769 H2757 0.930 . S
C2769 C2770 1.399 . S
C2769 C2774 1.399 . S
C2770 C2769 1.399 . S
C2770 C2771 1.376 . S
C2771 H2758 0.930 . S
C2771 C2770 1.376 . S
C2771 C2772 1.388 . S
C2772 H2759 0.930 . S
C2772 C2771 1.388 . S
C2772 C2773 1.390 . S
C2773 C2772 1.390 . S
C2773 C2774 1.394 . S
C2773 C2779 1.465 . S
C2774 C2769 1.399 . S
C2774 C2773 1.394 . S
C2774 C2775 1.516 . S
C2775 C2774 1.516 . S
C2775 C2776 1.502 . S
C2775 C2777 1.561 . S
C2775 C2778 1.526 . S
C2776 H2760 0.959 . S
C2776 H2761 0.959 . S
C2776 H2762 0.961 . S
C2776 C2775 1.502 . S
C2777 H2763 0.960 . S
C2777 H2764 0.961 . S
C2777 H2765 0.959 . S
C2777 C2775 1.561 . S
C2778 C2775 1.526 . S
C2778 C2779 1.396 . S
C2778 C2783 1.390 . S
C2779 C2773 1.465 . S
C2779 C2778 1.396 . S
C2779 C2780 1.399 . S
C2780 H2766 0.929 . S
C2780 C2779 1.399 . S
C2780 C2781 1.385 . S
C2781 H2767 0.931 . S
C2781 C2780 1.385 . S
C2781 C2782 1.389 . S
C2782 C2781 1.389 . S
C2782 C2783 1.387 . S
C2783 H2768 0.930 . S
C2783 C2778 1.390 . S
C2783 C2782 1.387 . S
H2784 C2796 0.930 . S
H2785 C2798 0.930 . S
H2786 C2799 0.930 . S
H2787 C2803 0.959 . S
H2788 C2803 0.959 . S
H2789 C2803 0.961 . S
H2790 C2804 0.960 . S
H2791 C2804 0.961 . S
H2792 C2804 0.959 . S
H2793 C2807 0.929 . S
H2794 C2808 0.931 . S
H2795 C2810 0.930 . S
C2796 H2784 0.930 . S
C2796 C2797 1.399 . S
C2796 C2801 1.399 . S
C2797 C2796 1.399 . S
C2797 C2798 1.376 . S
C2798 H2785 0.930 . S
C2798 C2797 1.376 . S
C2798 C2799 1.388 . S
C2799 H2786 0.930 . S
C2799 C2798 1.388 . S
C2799 C2800 1.390 . S
C2800 C2799 1.390 . S
C2800 C2801 1.394 . S
C2800 C2806 1.465 . S
C2801 C2796 1.399 . S
C2801 C2800 1.394 . S
C2801 C2802 1.516 . S
C2802 C2801 1.516 . S
C2802 C2803 1.502 . S
C2802 C2804 1.561 . S
C2802 C2805 1.526 . S
C2803 H2787 0.959 . S
C2803 H2788 0.959 . S
C2803 H2789 0.961 . S
C2803 C2802 1.502 . S
C2804 H2790 0.960 . S
C2804 H2791 0.961 . S
C2804 H2792 0.959 . S
C2804 C2802 1.561 . S
C2805 C2802 1.526 . S
C2805 C2806 1.396 . S
C2805 C2810 1.390 . S
C2806 C2800 1.465 . S
C2806 C2805 1.396 . S
C2806 C2807 1.399 . S
C2807 H2793 0.929 . S
C2807 C2806 1.399 . S
C2807 C2808 1.385 . S
C2808 H2794 0.931 . S
C2808 C2807 1.385 . S
C2808 C2809 1.389 . S
C2809 C2808 1.389 . S
C2809 C2810 1.387 . S
C2810 H2795 0.930 . S
C2810 C2805 1.390 . S
C2810 C2809 1.387 . S
H2811 C2823 0.930 . S
H2812 C2825 0.930 . S
H2813 C2826 0.930 . S
H2814 C2830 0.959 . S
H2815 C2830 0.959 . S
H2816 C2830 0.961 . S
H2817 C2831 0.960 . S
H2818 C2831 0.961 . S
H2819 C2831 0.959 . S
H2820 C2834 0.929 . S
H2821 C2835 0.931 . S
H2822 C2837 0.930 . S
C2823 H2811 0.930 . S
C2823 C2824 1.399 . S
C2823 C2828 1.399 . S
C2824 C2823 1.399 . S
C2824 C2825 1.376 . S
C2825 H2812 0.930 . S
C2825 C2824 1.376 . S
C2825 C2826 1.388 . S
C2826 H2813 0.930 . S
C2826 C2825 1.388 . S
C2826 C2827 1.390 . S
C2827 C2826 1.390 . S
C2827 C2828 1.394 . S
C2827 C2833 1.465 . S
C2828 C2823 1.399 . S
C2828 C2827 1.394 . S
C2828 C2829 1.516 . S
C2829 C2828 1.516 . S
C2829 C2830 1.502 . S
C2829 C2831 1.561 . S
C2829 C2832 1.526 . S
C2830 H2814 0.959 . S
C2830 H2815 0.959 . S
C2830 H2816 0.961 . S
C2830 C2829 1.502 . S
C2831 H2817 0.960 . S
C2831 H2818 0.961 . S
C2831 H2819 0.959 . S
C2831 C2829 1.561 . S
C2832 C2829 1.526 . S
C2832 C2833 1.396 . S
C2832 C2837 1.390 . S
C2833 C2827 1.465 . S
C2833 C2832 1.396 . S
C2833 C2834 1.399 . S
C2834 H2820 0.929 . S
C2834 C2833 1.399 . S
C2834 C2835 1.385 . S
C2835 H2821 0.931 . S
C2835 C2834 1.385 . S
C2835 C2836 1.389 . S
C2836 C2835 1.389 . S
C2836 C2837 1.387 . S
C2837 H2822 0.930 . S
C2837 C2832 1.390 . S
C2837 C2836 1.387 . S
H2838 C2850 0.930 . S
H2839 C2852 0.930 . S
H2840 C2853 0.930 . S
H2841 C2857 0.959 . S
H2842 C2857 0.959 . S
H2843 C2857 0.961 . S
H2844 C2858 0.960 . S
H2845 C2858 0.961 . S
H2846 C2858 0.959 . S
H2847 C2861 0.929 . S
H2848 C2862 0.931 . S
H2849 C2864 0.930 . S
C2850 H2838 0.930 . S
C2850 C2851 1.399 . S
C2850 C2855 1.399 . S
C2851 C2850 1.399 . S
C2851 C2852 1.376 . S
C2852 H2839 0.930 . S
C2852 C2851 1.376 . S
C2852 C2853 1.388 . S
C2853 H2840 0.930 . S
C2853 C2852 1.388 . S
C2853 C2854 1.390 . S
C2854 C2853 1.390 . S
C2854 C2855 1.394 . S
C2854 C2860 1.465 . S
C2855 C2850 1.399 . S
C2855 C2854 1.394 . S
C2855 C2856 1.516 . S
C2856 C2855 1.516 . S
C2856 C2857 1.502 . S
C2856 C2858 1.561 . S
C2856 C2859 1.526 . S
C2857 H2841 0.959 . S
C2857 H2842 0.959 . S
C2857 H2843 0.961 . S
C2857 C2856 1.502 . S
C2858 H2844 0.960 . S
C2858 H2845 0.961 . S
C2858 H2846 0.959 . S
C2858 C2856 1.561 . S
C2859 C2856 1.526 . S
C2859 C2860 1.396 . S
C2859 C2864 1.390 . S
C2860 C2854 1.465 . S
C2860 C2859 1.396 . S
C2860 C2861 1.399 . S
C2861 H2847 0.929 . S
C2861 C2860 1.399 . S
C2861 C2862 1.385 . S
C2862 H2848 0.931 . S
C2862 C2861 1.385 . S
C2862 C2863 1.389 . S
C2863 C2862 1.389 . S
C2863 C2864 1.387 . S
C2864 H2849 0.930 . S
C2864 C2859 1.390 . S
C2864 C2863 1.387 . S
H2865 C2877 0.930 . S
H2866 C2879 0.930 . S
H2867 C2880 0.930 . S
H2868 C2884 0.959 . S
H2869 C2884 0.959 . S
H2870 C2884 0.961 . S
H2871 C2885 0.960 . S
H2872 C2885 0.961 . S
H2873 C2885 0.959 . S
H2874 C2888 0.929 . S
H2875 C2889 0.931 . S
H2876 C2891 0.930 . S
C2877 H2865 0.930 . S
C2877 C2878 1.399 . S
C2877 C2882 1.399 . S
C2878 C2877 1.399 . S
C2878 C2879 1.376 . S
C2879 H2866 0.930 . S
C2879 C2878 1.376 . S
C2879 C2880 1.388 . S
C2880 H2867 0.930 . S
C2880 C2879 1.388 . S
C2880 C2881 1.390 . S
C2881 C2880 1.390 . S
C2881 C2882 1.394 . S
C2881 C2887 1.465 . S
C2882 C2877 1.399 . S
C2882 C2881 1.394 . S
C2882 C2883 1.516 . S
C2883 C2882 1.516 . S
C2883 C2884 1.502 . S
C2883 C2885 1.561 . S
C2883 C2886 1.526 . S
C2884 H2868 0.959 . S
C2884 H2869 0.959 . S
C2884 H2870 0.961 . S
C2884 C2883 1.502 . S
C2885 H2871 0.960 . S
C2885 H2872 0.961 . S
C2885 H2873 0.959 . S
C2885 C2883 1.561 . S
C2886 C2883 1.526 . S
C2886 C2887 1.396 . S
C2886 C2891 1.390 . S
C2887 C2881 1.465 . S
C2887 C2886 1.396 . S
C2887 C2888 1.399 . S
C2888 H2874 0.929 . S
C2888 C2887 1.399 . S
C2888 C2889 1.385 . S
C2889 H2875 0.931 . S
C2889 C2888 1.385 . S
C2889 C2890 1.389 . S
C2890 C2889 1.389 . S
C2890 C2891 1.387 . S
C2891 H2876 0.930 . S
C2891 C2886 1.390 . S
C2891 C2890 1.387 . S
H2892 C2904 0.930 . S
H2893 C2906 0.930 . S
H2894 C2907 0.930 . S
H2895 C2911 0.959 . S
H2896 C2911 0.959 . S
H2897 C2911 0.961 . S
H2898 C2912 0.960 . S
H2899 C2912 0.961 . S
H2900 C2912 0.959 . S
H2901 C2915 0.929 . S
H2902 C2916 0.931 . S
H2903 C2918 0.930 . S
C2904 H2892 0.930 . S
C2904 C2905 1.399 . S
C2904 C2909 1.399 . S
C2905 C2904 1.399 . S
C2905 C2906 1.376 . S
C2906 H2893 0.930 . S
C2906 C2905 1.376 . S
C2906 C2907 1.388 . S
C2907 H2894 0.930 . S
C2907 C2906 1.388 . S
C2907 C2908 1.390 . S
C2908 C2907 1.390 . S
C2908 C2909 1.394 . S
C2908 C2914 1.465 . S
C2909 C2904 1.399 . S
C2909 C2908 1.394 . S
C2909 C2910 1.516 . S
C2910 C2909 1.516 . S
C2910 C2911 1.502 . S
C2910 C2912 1.561 . S
C2910 C2913 1.526 . S
C2911 H2895 0.959 . S
C2911 H2896 0.959 . S
C2911 H2897 0.961 . S
C2911 C2910 1.502 . S
C2912 H2898 0.960 . S
C2912 H2899 0.961 . S
C2912 H2900 0.959 . S
C2912 C2910 1.561 . S
C2913 C2910 1.526 . S
C2913 C2914 1.396 . S
C2913 C2918 1.390 . S
C2914 C2908 1.465 . S
C2914 C2913 1.396 . S
C2914 C2915 1.399 . S
C2915 H2901 0.929 . S
C2915 C2914 1.399 . S
C2915 C2916 1.385 . S
C2916 H2902 0.931 . S
C2916 C2915 1.385 . S
C2916 C2917 1.389 . S
C2917 C2916 1.389 . S
C2917 C2918 1.387 . S
C2918 H2903 0.930 . S
C2918 C2913 1.390 . S
C2918 C2917 1.387 . S
H2919 C2931 0.930 . S
H2920 C2933 0.930 . S
H2921 C2934 0.930 . S
H2922 C2938 0.959 . S
H2923 C2938 0.959 . S
H2924 C2938 0.961 . S
H2925 C2939 0.960 . S
H2926 C2939 0.961 . S
H2927 C2939 0.959 . S
H2928 C2942 0.929 . S
H2929 C2943 0.931 . S
H2930 C2945 0.930 . S
C2931 H2919 0.930 . S
C2931 C2932 1.399 . S
C2931 C2936 1.399 . S
C2932 C2931 1.399 . S
C2932 C2933 1.376 . S
C2933 H2920 0.930 . S
C2933 C2932 1.376 . S
C2933 C2934 1.388 . S
C2934 H2921 0.930 . S
C2934 C2933 1.388 . S
C2934 C2935 1.390 . S
C2935 C2934 1.390 . S
C2935 C2936 1.394 . S
C2935 C2941 1.465 . S
C2936 C2931 1.399 . S
C2936 C2935 1.394 . S
C2936 C2937 1.516 . S
C2937 C2936 1.516 . S
C2937 C2938 1.502 . S
C2937 C2939 1.561 . S
C2937 C2940 1.526 . S
C2938 H2922 0.959 . S
C2938 H2923 0.959 . S
C2938 H2924 0.961 . S
C2938 C2937 1.502 . S
C2939 H2925 0.960 . S
C2939 H2926 0.961 . S
C2939 H2927 0.959 . S
C2939 C2937 1.561 . S
C2940 C2937 1.526 . S
C2940 C2941 1.396 . S
C2940 C2945 1.390 . S
C2941 C2935 1.465 . S
C2941 C2940 1.396 . S
C2941 C2942 1.399 . S
C2942 H2928 0.929 . S
C2942 C2941 1.399 . S
C2942 C2943 1.385 . S
C2943 H2929 0.931 . S
C2943 C2942 1.385 . S
C2943 C2944 1.389 . S
C2944 C2943 1.389 . S
C2944 C2945 1.387 . S
C2945 H2930 0.930 . S
C2945 C2940 1.390 . S
C2945 C2944 1.387 . S
H2946 C2958 0.930 . S
H2947 C2960 0.930 . S
H2948 C2961 0.930 . S
H2949 C2965 0.959 . S
H2950 C2965 0.959 . S
H2951 C2965 0.961 . S
H2952 C2966 0.960 . S
H2953 C2966 0.961 . S
H2954 C2966 0.959 . S
H2955 C2969 0.929 . S
H2956 C2970 0.931 . S
H2957 C2972 0.930 . S
C2958 H2946 0.930 . S
C2958 C2959 1.399 . S
C2958 C2963 1.399 . S
C2959 C2958 1.399 . S
C2959 C2960 1.376 . S
C2960 H2947 0.930 . S
C2960 C2959 1.376 . S
C2960 C2961 1.388 . S
C2961 H2948 0.930 . S
C2961 C2960 1.388 . S
C2961 C2962 1.390 . S
C2962 C2961 1.390 . S
C2962 C2963 1.394 . S
C2962 C2968 1.465 . S
C2963 C2958 1.399 . S
C2963 C2962 1.394 . S
C2963 C2964 1.516 . S
C2964 C2963 1.516 . S
C2964 C2965 1.502 . S
C2964 C2966 1.561 . S
C2964 C2967 1.526 . S
C2965 H2949 0.959 . S
C2965 H2950 0.959 . S
C2965 H2951 0.961 . S
C2965 C2964 1.502 . S
C2966 H2952 0.960 . S
C2966 H2953 0.961 . S
C2966 H2954 0.959 . S
C2966 C2964 1.561 . S
C2967 C2964 1.526 . S
C2967 C2968 1.396 . S
C2967 C2972 1.390 . S
C2968 C2962 1.465 . S
C2968 C2967 1.396 . S
C2968 C2969 1.399 . S
C2969 H2955 0.929 . S
C2969 C2968 1.399 . S
C2969 C2970 1.385 . S
C2970 H2956 0.931 . S
C2970 C2969 1.385 . S
C2970 C2971 1.389 . S
C2971 C2970 1.389 . S
C2971 C2972 1.387 . S
C2972 H2957 0.930 . S
C2972 C2967 1.390 . S
C2972 C2971 1.387 . S
H2973 C2985 0.930 . S
H2974 C2987 0.930 . S
H2975 C2988 0.930 . S
H2976 C2992 0.959 . S
H2977 C2992 0.959 . S
H2978 C2992 0.961 . S
H2979 C2993 0.960 . S
H2980 C2993 0.961 . S
H2981 C2993 0.959 . S
H2982 C2996 0.929 . S
H2983 C2997 0.931 . S
H2984 C2999 0.930 . S
C2985 H2973 0.930 . S
C2985 C2986 1.399 . S
C2985 C2990 1.399 . S
C2986 C2985 1.399 . S
C2986 C2987 1.376 . S
C2987 H2974 0.930 . S
C2987 C2986 1.376 . S
C2987 C2988 1.388 . S
C2988 H2975 0.930 . S
C2988 C2987 1.388 . S
C2988 C2989 1.390 . S
C2989 C2988 1.390 . S
C2989 C2990 1.394 . S
C2989 C2995 1.465 . S
C2990 C2985 1.399 . S
C2990 C2989 1.394 . S
C2990 C2991 1.516 . S
C2991 C2990 1.516 . S
C2991 C2992 1.502 . S
C2991 C2993 1.561 . S
C2991 C2994 1.526 . S
C2992 H2976 0.959 . S
C2992 H2977 0.959 . S
C2992 H2978 0.961 . S
C2992 C2991 1.502 . S
C2993 H2979 0.960 . S
C2993 H2980 0.961 . S
C2993 H2981 0.959 . S
C2993 C2991 1.561 . S
C2994 C2991 1.526 . S
C2994 C2995 1.396 . S
C2994 C2999 1.390 . S
C2995 C2989 1.465 . S
C2995 C2994 1.396 . S
C2995 C2996 1.399 . S
C2996 H2982 0.929 . S
C2996 C2995 1.399 . S
C2996 C2997 1.385 . S
C2997 H2983 0.931 . S
C2997 C2996 1.385 . S
C2997 C2998 1.389 . S
C2998 C2997 1.389 . S
C2998 C2999 1.387 . S
C2999 H2984 0.930 . S
C2999 C2994 1.390 . S
C2999 C2998 1.387 . S
H3000 C3012 0.930 . S
H3001 C3014 0.930 . S
H3002 C3015 0.930 . S
H3003 C3019 0.959 . S
H3004 C3019 0.959 . S
H3005 C3019 0.961 . S
H3006 C3020 0.960 . S
H3007 C3020 0.961 . S
H3008 C3020 0.959 . S
H3009 C3023 0.929 . S
H3010 C3024 0.931 . S
H3011 C3026 0.930 . S
C3012 H3000 0.930 . S
C3012 C3013 1.399 . S
C3012 C3017 1.399 . S
C3013 C3012 1.399 . S
C3013 C3014 1.376 . S
C3014 H3001 0.930 . S
C3014 C3013 1.376 . S
C3014 C3015 1.388 . S
C3015 H3002 0.930 . S
C3015 C3014 1.388 . S
C3015 C3016 1.390 . S
C3016 C3015 1.390 . S
C3016 C3017 1.394 . S
C3016 C3022 1.465 . S
C3017 C3012 1.399 . S
C3017 C3016 1.394 . S
C3017 C3018 1.516 . S
C3018 C3017 1.516 . S
C3018 C3019 1.502 . S
C3018 C3020 1.561 . S
C3018 C3021 1.526 . S
C3019 H3003 0.959 . S
C3019 H3004 0.959 . S
C3019 H3005 0.961 . S
C3019 C3018 1.502 . S
C3020 H3006 0.960 . S
C3020 H3007 0.961 . S
C3020 H3008 0.959 . S
C3020 C3018 1.561 . S
C3021 C3018 1.526 . S
C3021 C3022 1.396 . S
C3021 C3026 1.390 . S
C3022 C3016 1.465 . S
C3022 C3021 1.396 . S
C3022 C3023 1.399 . S
C3023 H3009 0.929 . S
C3023 C3022 1.399 . S
C3023 C3024 1.385 . S
C3024 H3010 0.931 . S
C3024 C3023 1.385 . S
C3024 C3025 1.389 . S
C3025 C3024 1.389 . S
C3025 C3026 1.387 . S
C3026 H3011 0.930 . S
C3026 C3021 1.390 . S
C3026 C3025 1.387 . S
H3027 C3039 0.930 . S
H3028 C3041 0.930 . S
H3029 C3042 0.930 . S
H3030 C3046 0.959 . S
H3031 C3046 0.959 . S
H3032 C3046 0.961 . S
H3033 C3047 0.960 . S
H3034 C3047 0.961 . S
H3035 C3047 0.959 . S
H3036 C3050 0.929 . S
H3037 C3051 0.931 . S
H3038 C3053 0.930 . S
C3039 H3027 0.930 . S
C3039 C3040 1.399 . S
C3039 C3044 1.399 . S
C3040 C3039 1.399 . S
C3040 C3041 1.376 . S
C3041 H3028 0.930 . S
C3041 C3040 1.376 . S
C3041 C3042 1.388 . S
C3042 H3029 0.930 . S
C3042 C3041 1.388 . S
C3042 C3043 1.390 . S
C3043 C3042 1.390 . S
C3043 C3044 1.394 . S
C3043 C3049 1.465 . S
C3044 C3039 1.399 . S
C3044 C3043 1.394 . S
C3044 C3045 1.516 . S
C3045 C3044 1.516 . S
C3045 C3046 1.502 . S
C3045 C3047 1.561 . S
C3045 C3048 1.526 . S
C3046 H3030 0.959 . S
C3046 H3031 0.959 . S
C3046 H3032 0.961 . S
C3046 C3045 1.502 . S
C3047 H3033 0.960 . S
C3047 H3034 0.961 . S
C3047 H3035 0.959 . S
C3047 C3045 1.561 . S
C3048 C3045 1.526 . S
C3048 C3049 1.396 . S
C3048 C3053 1.390 . S
C3049 C3043 1.465 . S
C3049 C3048 1.396 . S
C3049 C3050 1.399 . S
C3050 H3036 0.929 . S
C3050 C3049 1.399 . S
C3050 C3051 1.385 . S
C3051 H3037 0.931 . S
C3051 C3050 1.385 . S
C3051 C3052 1.389 . S
C3052 C3051 1.389 . S
C3052 C3053 1.387 . S
C3053 H3038 0.930 . S
C3053 C3048 1.390 . S
C3053 C3052 1.387 . S
H3054 C3066 0.930 . S
H3055 C3068 0.930 . S
H3056 C3069 0.930 . S
H3057 C3073 0.959 . S
H3058 C3073 0.959 . S
H3059 C3073 0.961 . S
H3060 C3074 0.960 . S
H3061 C3074 0.961 . S
H3062 C3074 0.959 . S
H3063 C3077 0.929 . S
H3064 C3078 0.931 . S
H3065 C3080 0.930 . S
C3066 H3054 0.930 . S
C3066 C3067 1.399 . S
C3066 C3071 1.399 . S
C3067 C3066 1.399 . S
C3067 C3068 1.376 . S
C3068 H3055 0.930 . S
C3068 C3067 1.376 . S
C3068 C3069 1.388 . S
C3069 H3056 0.930 . S
C3069 C3068 1.388 . S
C3069 C3070 1.390 . S
C3070 C3069 1.390 . S
C3070 C3071 1.394 . S
C3070 C3076 1.465 . S
C3071 C3066 1.399 . S
C3071 C3070 1.394 . S
C3071 C3072 1.516 . S
C3072 C3071 1.516 . S
C3072 C3073 1.502 . S
C3072 C3074 1.561 . S
C3072 C3075 1.526 . S
C3073 H3057 0.959 . S
C3073 H3058 0.959 . S
C3073 H3059 0.961 . S
C3073 C3072 1.502 . S
C3074 H3060 0.960 . S
C3074 H3061 0.961 . S
C3074 H3062 0.959 . S
C3074 C3072 1.561 . S
C3075 C3072 1.526 . S
C3075 C3076 1.396 . S
C3075 C3080 1.390 . S
C3076 C3070 1.465 . S
C3076 C3075 1.396 . S
C3076 C3077 1.399 . S
C3077 H3063 0.929 . S
C3077 C3076 1.399 . S
C3077 C3078 1.385 . S
C3078 H3064 0.931 . S
C3078 C3077 1.385 . S
C3078 C3079 1.389 . S
C3079 C3078 1.389 . S
C3079 C3080 1.387 . S
C3080 H3065 0.930 . S
C3080 C3075 1.390 . S
C3080 C3079 1.387 . S
H3081 C3093 0.930 . S
H3082 C3095 0.930 . S
H3083 C3096 0.930 . S
H3084 C3100 0.959 . S
H3085 C3100 0.959 . S
H3086 C3100 0.961 . S
H3087 C3101 0.960 . S
H3088 C3101 0.961 . S
H3089 C3101 0.959 . S
H3090 C3104 0.929 . S
H3091 C3105 0.931 . S
H3092 C3107 0.930 . S
C3093 H3081 0.930 . S
C3093 C3094 1.399 . S
C3093 C3098 1.399 . S
C3094 C3093 1.399 . S
C3094 C3095 1.376 . S
C3095 H3082 0.930 . S
C3095 C3094 1.376 . S
C3095 C3096 1.388 . S
C3096 H3083 0.930 . S
C3096 C3095 1.388 . S
C3096 C3097 1.390 . S
C3097 C3096 1.390 . S
C3097 C3098 1.394 . S
C3097 C3103 1.465 . S
C3098 C3093 1.399 . S
C3098 C3097 1.394 . S
C3098 C3099 1.516 . S
C3099 C3098 1.516 . S
C3099 C3100 1.502 . S
C3099 C3101 1.561 . S
C3099 C3102 1.526 . S
C3100 H3084 0.959 . S
C3100 H3085 0.959 . S
C3100 H3086 0.961 . S
C3100 C3099 1.502 . S
C3101 H3087 0.960 . S
C3101 H3088 0.961 . S
C3101 H3089 0.959 . S
C3101 C3099 1.561 . S
C3102 C3099 1.526 . S
C3102 C3103 1.396 . S
C3102 C3107 1.390 . S
C3103 C3097 1.465 . S
C3103 C3102 1.396 . S
C3103 C3104 1.399 . S
C3104 H3090 0.929 . S
C3104 C3103 1.399 . S
C3104 C3105 1.385 . S
C3105 H3091 0.931 . S
C3105 C3104 1.385 . S
C3105 C3106 1.389 . S
C3106 C3105 1.389 . S
C3106 C3107 1.387 . S
C3107 H3092 0.930 . S
C3107 C3102 1.390 . S
C3107 C3106 1.387 . S
H3108 C3120 0.930 . S
H3109 C3122 0.930 . S
H3110 C3123 0.930 . S
H3111 C3127 0.959 . S
H3112 C3127 0.959 . S
H3113 C3127 0.961 . S
H3114 C3128 0.960 . S
H3115 C3128 0.961 . S
H3116 C3128 0.959 . S
H3117 C3131 0.929 . S
H3118 C3132 0.931 . S
H3119 C3134 0.930 . S
C3120 H3108 0.930 . S
C3120 C3121 1.399 . S
C3120 C3125 1.399 . S
C3121 C3120 1.399 . S
C3121 C3122 1.376 . S
C3122 H3109 0.930 . S
C3122 C3121 1.376 . S
C3122 C3123 1.388 . S
C3123 H3110 0.930 . S
C3123 C3122 1.388 . S
C3123 C3124 1.390 . S
C3124 C3123 1.390 . S
C3124 C3125 1.394 . S
C3124 C3130 1.465 . S
C3125 C3120 1.399 . S
C3125 C3124 1.394 . S
C3125 C3126 1.516 . S
C3126 C3125 1.516 . S
C3126 C3127 1.502 . S
C3126 C3128 1.561 . S
C3126 C3129 1.526 . S
C3127 H3111 0.959 . S
C3127 H3112 0.959 . S
C3127 H3113 0.961 . S
C3127 C3126 1.502 . S
C3128 H3114 0.960 . S
C3128 H3115 0.961 . S
C3128 H3116 0.959 . S
C3128 C3126 1.561 . S
C3129 C3126 1.526 . S
C3129 C3130 1.396 . S
C3129 C3134 1.390 . S
C3130 C3124 1.465 . S
C3130 C3129 1.396 . S
C3130 C3131 1.399 . S
C3131 H3117 0.929 . S
C3131 C3130 1.399 . S
C3131 C3132 1.385 . S
C3132 H3118 0.931 . S
C3132 C3131 1.385 . S
C3132 C3133 1.389 . S
C3133 C3132 1.389 . S
C3133 C3134 1.387 . S
C3134 H3119 0.930 . S
C3134 C3129 1.390 . S
C3134 C3133 1.387 . S
H3135 C3147 0.930 . S
H3136 C3149 0.930 . S
H3137 C3150 0.930 . S
H3138 C3154 0.959 . S
H3139 C3154 0.959 . S
H3140 C3154 0.961 . S
H3141 C3155 0.960 . S
H3142 C3155 0.961 . S
H3143 C3155 0.959 . S
H3144 C3158 0.929 . S
H3145 C3159 0.931 . S
H3146 C3161 0.930 . S
C3147 H3135 0.930 . S
C3147 C3148 1.399 . S
C3147 C3152 1.399 . S
C3148 C3147 1.399 . S
C3148 C3149 1.376 . S
C3149 H3136 0.930 . S
C3149 C3148 1.376 . S
C3149 C3150 1.388 . S
C3150 H3137 0.930 . S
C3150 C3149 1.388 . S
C3150 C3151 1.390 . S
C3151 C3150 1.390 . S
C3151 C3152 1.394 . S
C3151 C3157 1.465 . S
C3152 C3147 1.399 . S
C3152 C3151 1.394 . S
C3152 C3153 1.516 . S
C3153 C3152 1.516 . S
C3153 C3154 1.502 . S
C3153 C3155 1.561 . S
C3153 C3156 1.526 . S
C3154 H3138 0.959 . S
C3154 H3139 0.959 . S
C3154 H3140 0.961 . S
C3154 C3153 1.502 . S
C3155 H3141 0.960 . S
C3155 H3142 0.961 . S
C3155 H3143 0.959 . S
C3155 C3153 1.561 . S
C3156 C3153 1.526 . S
C3156 C3157 1.396 . S
C3156 C3161 1.390 . S
C3157 C3151 1.465 . S
C3157 C3156 1.396 . S
C3157 C3158 1.399 . S
C3158 H3144 0.929 . S
C3158 C3157 1.399 . S
C3158 C3159 1.385 . S
C3159 H3145 0.931 . S
C3159 C3158 1.385 . S
C3159 C3160 1.389 . S
C3160 C3159 1.389 . S
C3160 C3161 1.387 . S
C3161 H3146 0.930 . S
C3161 C3156 1.390 . S
C3161 C3160 1.387 . S
H3162 C3174 0.930 . S
H3163 C3176 0.930 . S
H3164 C3177 0.930 . S
H3165 C3181 0.959 . S
H3166 C3181 0.959 . S
H3167 C3181 0.961 . S
H3168 C3182 0.960 . S
H3169 C3182 0.961 . S
H3170 C3182 0.959 . S
H3171 C3185 0.929 . S
H3172 C3186 0.931 . S
H3173 C3188 0.930 . S
C3174 H3162 0.930 . S
C3174 C3175 1.399 . S
C3174 C3179 1.399 . S
C3175 C3174 1.399 . S
C3175 C3176 1.376 . S
C3176 H3163 0.930 . S
C3176 C3175 1.376 . S
C3176 C3177 1.388 . S
C3177 H3164 0.930 . S
C3177 C3176 1.388 . S
C3177 C3178 1.390 . S
C3178 C3177 1.390 . S
C3178 C3179 1.394 . S
C3178 C3184 1.465 . S
C3179 C3174 1.399 . S
C3179 C3178 1.394 . S
C3179 C3180 1.516 . S
C3180 C3179 1.516 . S
C3180 C3181 1.502 . S
C3180 C3182 1.561 . S
C3180 C3183 1.526 . S
C3181 H3165 0.959 . S
C3181 H3166 0.959 . S
C3181 H3167 0.961 . S
C3181 C3180 1.502 . S
C3182 H3168 0.960 . S
C3182 H3169 0.961 . S
C3182 H3170 0.959 . S
C3182 C3180 1.561 . S
C3183 C3180 1.526 . S
C3183 C3184 1.396 . S
C3183 C3188 1.390 . S
C3184 C3178 1.465 . S
C3184 C3183 1.396 . S
C3184 C3185 1.399 . S
C3185 H3171 0.929 . S
C3185 C3184 1.399 . S
C3185 C3186 1.385 . S
C3186 H3172 0.931 . S
C3186 C3185 1.385 . S
C3186 C3187 1.389 . S
C3187 C3186 1.389 . S
C3187 C3188 1.387 . S
C3188 H3173 0.930 . S
C3188 C3183 1.390 . S
C3188 C3187 1.387 . S
H3189 C3201 0.930 . S
H3190 C3203 0.930 . S
H3191 C3204 0.930 . S
H3192 C3208 0.959 . S
H3193 C3208 0.959 . S
H3194 C3208 0.961 . S
H3195 C3209 0.960 . S
H3196 C3209 0.961 . S
H3197 C3209 0.959 . S
H3198 C3212 0.929 . S
H3199 C3213 0.931 . S
H3200 C3215 0.930 . S
C3201 H3189 0.930 . S
C3201 C3202 1.399 . S
C3201 C3206 1.399 . S
C3202 C3201 1.399 . S
C3202 C3203 1.376 . S
C3203 H3190 0.930 . S
C3203 C3202 1.376 . S
C3203 C3204 1.388 . S
C3204 H3191 0.930 . S
C3204 C3203 1.388 . S
C3204 C3205 1.390 . S
C3205 C3204 1.390 . S
C3205 C3206 1.394 . S
C3205 C3211 1.465 . S
C3206 C3201 1.399 . S
C3206 C3205 1.394 . S
C3206 C3207 1.516 . S
C3207 C3206 1.516 . S
C3207 C3208 1.502 . S
C3207 C3209 1.561 . S
C3207 C3210 1.526 . S
C3208 H3192 0.959 . S
C3208 H3193 0.959 . S
C3208 H3194 0.961 . S
C3208 C3207 1.502 . S
C3209 H3195 0.960 . S
C3209 H3196 0.961 . S
C3209 H3197 0.959 . S
C3209 C3207 1.561 . S
C3210 C3207 1.526 . S
C3210 C3211 1.396 . S
C3210 C3215 1.390 . S
C3211 C3205 1.465 . S
C3211 C3210 1.396 . S
C3211 C3212 1.399 . S
C3212 H3198 0.929 . S
C3212 C3211 1.399 . S
C3212 C3213 1.385 . S
C3213 H3199 0.931 . S
C3213 C3212 1.385 . S
C3213 C3214 1.389 . S
C3214 C3213 1.389 . S
C3214 C3215 1.387 . S
C3215 H3200 0.930 . S
C3215 C3210 1.390 . S
C3215 C3214 1.387 . S
C637 C127 1.652 . S
C649 C4 1.609 . S
C664 C134 1.630 . S
C676 C17 1.631 . S
C691 C153 1.676 . S
C703 C36 1.587 . S
C718 C49 1.674 . S
C730 C108 1.589 . S
C745 C199 1.588 . S
C757 C62 1.675 . S
C772 C69 1.588 . S
C784 C166 1.672 . S
C799 C179 1.602 . S
C811 C82 1.664 . S
C826 C192 1.619 . S
C838 C101 1.640 . S
C853 C218 1.587 . S
C865 C238 1.674 . S
C880 C231 1.606 . S
C892 C290 1.661 . S
C907 C251 1.670 . S
C919 C309 1.598 . S
C934 C264 1.663 . S
C946 C277 1.605 . S
C961 C316 1.651 . S
C973 C433 1.609 . S
C988 C446 1.677 . S
C1000 C335 1.589 . S
C1015 C342 1.614 . S
C1027 C459 1.654 . S
C1042 C361 1.672 . S
C1054 C426 1.590 . S
C1069 C511 1.603 . S
C1081 C374 1.657 . S
C1096 C478 1.676 . S
C1108 C381 1.588 . S
C1123 C491 1.640 . S
C1135 C400 1.621 . S
C1150 C504 1.591 . S
C1162 C413 1.670 . S
C1177 C530 1.619 . S
C1189 C556 1.641 . S
C1204 C537 1.586 . S
C1216 C608 1.677 . S
C1231 C569 1.642 . S
C1243 C615 1.619 . S
C1258 C589 1.676 . S
C1270 C576 1.588 . S
C1285 C109 1.224 . S
C1297 C3 1.304 . S
C1312 C120 1.177 . S
C1324 C16 1.292 . S
C1339 C31 1.282 . S
C1351 C135 1.185 . S
C1366 C44 1.303 . S
C1378 C146 1.252 . S
C1393 C57 1.273 . S
C1405 C159 1.246 . S
C1420 C68 1.273 . S
C1432 C172 1.248 . S
C1447 C81 1.274 . S
C1459 C185 1.211 . S
C1474 C200 1.178 . S
C1486 C96 1.287 . S
C1501 C107 1.282 . S
C1513 C211 1.185 . S
C1528 C302 1.278 . S
C1540 C122 1.281 . S
C1555 C133 1.282 . S
C1567 C278 1.279 . S
C1582 C148 1.273 . S
C1594 C291 1.222 . S
C1609 C161 1.297 . S
C1621 C224 1.184 . S
C1636 C174 1.299 . S
C1648 C239 1.188 . S
C1663 C187 1.285 . S
C1675 C252 1.282 . S
C1690 C265 1.178 . S
C1702 C198 1.293 . S
C1717 C5 1.204 . S
C1729 C213 1.303 . S
C1744 C226 1.273 . S
C1756 C55 1.232 . S
C1771 C237 1.291 . S
C1783 C70 1.178 . S
C1798 C250 1.286 . S
C1810 C83 1.282 . S
C1825 C94 1.229 . S
C1837 C263 1.273 . S
C1852 C276 1.302 . S
C1864 C29 1.197 . S
C1879 C289 1.281 . S
C1891 C42 1.279 . S
C1906 C18 1.271 . S
C1918 C304 1.298 . S
C1933 C419 1.277 . S
C1945 C315 1.295 . S
C1960 C330 1.304 . S
C1972 C434 1.229 . S
C1987 C341 1.288 . S
C1999 C447 1.282 . S
C2014 C460 1.281 . S
C2026 C356 1.283 . S
C2041 C471 1.279 . S
C2053 C369 1.281 . S
C2068 C380 1.305 . S
C2080 C484 1.227 . S
C2095 C497 1.241 . S
C2107 C395 1.273 . S
C2122 C512 1.182 . S
C2134 C408 1.297 . S
C2149 C421 1.295 . S
C2161 C523 1.181 . S
C2176 C432 1.303 . S
C2188 C616 1.249 . S
C2203 C445 1.302 . S
C2215 C590 1.255 . S
C2230 C601 1.266 . S
C2242 C458 1.276 . S
C2257 C473 1.293 . S
C2269 C538 1.279 . S
C2284 C486 1.278 . S
C2296 C549 1.194 . S
C2311 C562 1.231 . S
C2323 C499 1.273 . S
C2338 C577 1.221 . S
C2350 C510 1.274 . S
C2365 C525 1.273 . S
C2377 C317 1.230 . S
C2392 C536 1.304 . S
C2404 C367 1.219 . S
C2419 C382 1.217 . S
C2431 C551 1.304 . S
C2446 C564 1.274 . S
C2458 C393 1.257 . S
C2473 C575 1.273 . S
C2485 C406 1.242 . S
C2500 C343 1.190 . S
C2512 C588 1.280 . S
C2527 C603 1.283 . S
C2539 C354 1.184 . S
C2554 C328 1.237 . S
C2566 C614 1.273 . S
C2581 C407 1.477 . S
C2593 C10 1.482 . S
C2608 C23 1.488 . S
C2620 C368 1.492 . S
C2635 C387 1.504 . S
C2647 C30 1.507 . S
C2662 C394 1.450 . S
C2674 C43 1.447 . S
C2689 C56 1.504 . S
C2701 C329 1.500 . S
C2716 C348 1.491 . S
C2728 C75 1.496 . S
C2743 C355 1.478 . S
C2755 C88 1.474 . S
C2770 C95 1.516 . S
C2782 C322 1.514 . S
C2797 C582 1.499 . S
C2809 C114 1.494 . S
C2824 C121 1.506 . S
C2836 C543 1.508 . S
C2851 C140 1.514 . S
C2863 C550 1.515 . S
C2878 C563 1.465 . S
C2890 C147 1.470 . S
C2905 C621 1.489 . S
C2917 C160 1.485 . S
C2932 C595 1.436 . S
C2944 C173 1.437 . S
C2959 C186 1.454 . S
C2971 C602 1.451 . S
C2986 C524 1.454 . S
C2998 C205 1.459 . S
C3013 C212 1.451 . S
C3025 C517 1.448 . S
C3040 C439 1.507 . S
C3052 C225 1.510 . S
C3067 C244 1.443 . S
C3079 C452 1.447 . S
C3094 C465 1.446 . S
C3106 C257 1.450 . S
C3121 C420 1.513 . S
C3133 C270 1.514 . S
C3148 C283 1.515 . S
C3160 C485 1.515 . S
C3175 C498 1.511 . S
C3187 C296 1.509 . S
C3202 C472 1.436 . S
C3214 C303 1.439 . S
