# Generated by pormake.
# Topology smk, (6)-cn, num edge types: 1
# Building blocks:
#     Node 0, Type 0, BuildingBlock: VOLQOD_clean_sbu_1, # of connection points: 6
#     Node 1, Type 0, BuildingBlock: VOLQOD_clean_sbu_1, # of connection points: 6
#     Node 2, Type 0, BuildingBlock: VOLQOD_clean_sbu_1, # of connection points: 6
#     Node 3, Type 0, BuildingBlock: VOLQOD_clean_sbu_1, # of connection points: 6
#     Node 4, Type 0, BuildingBlock: VOLQOD_clean_sbu_1, # of connection points: 6
#     Node 5, Type 0, BuildingBlock: VOLQOD_clean_sbu_1, # of connection points: 6
#     Edge 6, Type (0, 0), BuildingBlock: AJUNOK_clean_linker_0, # of connection points: 2
#     Edge 7, Type (0, 0), BuildingBlock: AJUNOK_clean_linker_0, # of connection points: 2
#     Edge 8, Type (0, 0), BuildingBlock: AJUNOK_clean_linker_0, # of connection points: 2
#     Edge 9, Type (0, 0), BuildingBlock: AJUNOK_clean_linker_0, # of connection points: 2
#     Edge 10, Type (0, 0), BuildingBlock: AJUNOK_clean_linker_0, # of connection points: 2
#     Edge 11, Type (0, 0), BuildingBlock: AJUNOK_clean_linker_0, # of connection points: 2
#     Edge 12, Type (0, 0), BuildingBlock: AJUNOK_clean_linker_0, # of connection points: 2
#     Edge 13, Type (0, 0), BuildingBlock: AJUNOK_clean_linker_0, # of connection points: 2
#     Edge 14, Type (0, 0), BuildingBlock: AJUNOK_clean_linker_0, # of connection points: 2
#     Edge 15, Type (0, 0), BuildingBlock: AJUNOK_clean_linker_0, # of connection points: 2
#     Edge 16, Type (0, 0), BuildingBlock: AJUNOK_clean_linker_0, # of connection points: 2
#     Edge 17, Type (0, 0), BuildingBlock: AJUNOK_clean_linker_0, # of connection points: 2
#     Edge 18, Type (0, 0), BuildingBlock: AJUNOK_clean_linker_0, # of connection points: 2
#     Edge 19, Type (0, 0), BuildingBlock: AJUNOK_clean_linker_0, # of connection points: 2
#     Edge 20, Type (0, 0), BuildingBlock: AJUNOK_clean_linker_0, # of connection points: 2
#     Edge 21, Type (0, 0), BuildingBlock: AJUNOK_clean_linker_0, # of connection points: 2
#     Edge 22, Type (0, 0), BuildingBlock: AJUNOK_clean_linker_0, # of connection points: 2
#     Edge 23, Type (0, 0), BuildingBlock: AJUNOK_clean_linker_0, # of connection points: 2
# Relax obj value: 0.161
# Max RMSD: 0.171
# Mean RMSD: 0.171
data_MOF--net-smk--node1-VOLQOD_clean_sbu_1--edge1-AJUNOK_clean_linker_0
_symmetry_space_group_name_H-M    P1
_symmetry_Int_Tables_number       1
_symmetry_cell_setting            triclinic
loop_
_symmetry_equiv_pos_as_xyz
'x, y, z'
_cell_length_a     33.943528
_cell_length_b     33.885827
_cell_length_c     12.97095
_cell_angle_alpha  89.90954
_cell_angle_beta   89.995881
_cell_angle_gamma 119.94292
loop_
_atom_site_label
_atom_site_type_symbol
_atom_site_fract_x
_atom_site_fract_y
_atom_site_fract_z
_atom_type_partial_charge
O0 O 0.45357 0.25462 0.78767 0.0
Zn1 Zn 0.44363 0.2639 0.63567 0.0
O2 O 0.42767 0.20936 0.55951 0.0
Zn3 Zn 0.47542 0.21864 0.46876 0.0
Zn4 Zn 0.42125 0.16577 0.65873 0.0
Zn5 Zn 0.37188 0.18603 0.48301 0.0
O6 O 0.45205 0.19733 0.32522 0.0
O7 O 0.38905 0.20239 0.33395 0.0
O8 O 0.49584 0.32043 0.56423 0.0
O9 O 0.51376 0.2846 0.44685 0.0
O10 O 0.51688 0.19875 0.53458 0.0
O11 O 0.48153 0.16981 0.68309 0.0
O12 O 0.37669 0.10407 0.60813 0.0
O13 O 0.38786 0.26938 0.6379 0.0
O14 O 0.33743 0.11648 0.48805 0.0
O15 O 0.33524 0.21427 0.5394 0.0
C16 C 0.42674 0.21841 0.83771 0.0
C17 C 0.42013 0.2008 0.28167 0.0
C18 C 0.51605 0.18321 0.62485 0.0
C19 C 0.51926 0.32128 0.48608 0.0
C20 C 0.34566 0.08932 0.53979 0.0
C21 C 0.34771 0.2478 0.60127 0.0
O22 O 0.40319 0.1804 0.7923 0.0
O23 O 0.2026 0.45492 0.96205 0.0
Zn24 Zn 0.18129 0.44343 0.81235 0.0
O25 O 0.21906 0.42695 0.73465 0.0
Zn26 Zn 0.25913 0.47672 0.64889 0.0
Zn27 Zn 0.25393 0.41602 0.83269 0.0
Zn28 Zn 0.18464 0.37307 0.6531 0.0
O29 O 0.2589 0.45515 0.50436 0.0
O30 O 0.18974 0.39328 0.50555 0.0
O31 O 0.17648 0.49509 0.74104 0.0
O32 O 0.23178 0.51571 0.62647 0.0
O33 O 0.3202 0.51576 0.71945 0.0
O34 O 0.31298 0.47369 0.85701 0.0
O35 O 0.26467 0.36606 0.78453 0.0
O36 O 0.11952 0.38838 0.81665 0.0
O37 O 0.21397 0.33352 0.65911 0.0
O38 O 0.11889 0.33828 0.70455 0.0
C39 C 0.2115 0.42796 0.01303 0.0
C40 C 0.22378 0.42471 0.45716 0.0
C41 C 0.33506 0.51047 0.80595 0.0
C42 C 0.19941 0.5196 0.66449 0.0
C43 C 0.24593 0.33573 0.71501 0.0
C44 C 0.0992 0.34962 0.77277 0.0
O45 O 0.22237 0.40142 0.96801 0.0
O46 O 0.74545 0.2054 0.12211 0.0
Zn47 Zn 0.73562 0.18592 0.97074 0.0
O48 O 0.79118 0.22291 0.89575 0.0
Zn49 Zn 0.78509 0.26488 0.80872 0.0
Zn50 Zn 0.83641 0.25681 -0.00448 0.0
Zn51 Zn 0.80997 0.18756 0.81506 0.0
O52 O 0.80472 0.26233 0.66364 0.0
O53 O 0.79488 0.19213 0.66699 0.0
O54 O 0.68108 0.18595 0.90007 0.0
O55 O 0.71964 0.24191 0.7891 0.0
O56 O 0.81038 0.32694 0.87618 0.0
O57 O 0.83932 0.31686 0.02042 0.0
O58 O 0.89671 0.26665 0.94813 0.0
O59 O 0.72583 0.12259 0.97168 0.0
O60 O 0.87884 0.21634 0.82173 0.0
O61 O 0.77751 0.12167 0.86709 0.0
C62 C 0.78072 0.21306 0.17363 0.0
C63 C 0.79838 0.22634 0.6174 0.0
C64 C 0.82833 0.34086 0.96486 0.0
C65 C 0.68205 0.21135 0.82589 0.0
C66 C 0.90841 0.24801 0.87854 0.0
C67 C 0.74457 0.10184 0.93093 0.0
O68 O 0.81833 0.22419 0.12953 0.0
O69 O 0.54555 0.74755 0.29308 0.0
Zn70 Zn 0.55309 0.73661 0.14172 0.0
O71 O 0.56748 0.79046 0.06311 0.0
Zn72 Zn 0.51799 0.77873 0.97425 0.0
Zn73 Zn 0.57515 0.83733 0.15516 0.0
Zn74 Zn 0.62164 0.8112 0.9805 0.0
O75 O 0.54101 0.80362 0.83307 0.0
O76 O 0.60141 0.79403 0.83342 0.0
O77 O 0.4996 0.67937 0.07678 0.0
O78 O 0.48158 0.71208 0.95112 0.0
O79 O 0.47575 0.79777 0.03992 0.0
O80 O 0.51687 0.83774 0.17339 0.0
O81 O 0.62436 0.89789 0.10578 0.0
O82 O 0.60792 0.72942 0.1384 0.0
O83 O 0.65944 0.88079 0.98402 0.0
O84 O 0.65794 0.78146 0.03037 0.0
C85 C 0.5666 0.78536 0.34157 0.0
C86 C 0.57105 0.79849 0.78537 0.0
C87 C 0.48004 0.82009 0.12232 0.0
C88 C 0.47658 0.67655 -0.00375 0.0
C89 C 0.65543 0.91014 0.03786 0.0
C90 C 0.64666 0.74881 0.09436 0.0
O91 O 0.58745 0.82344 0.29495 0.0
O92 O 0.7983 0.54717 0.45787 0.0
Zn93 Zn 0.81819 0.55597 0.30733 0.0
O94 O 0.77927 0.57071 0.22828 0.0
Zn95 Zn 0.74145 0.52139 0.13997 0.0
Zn96 Zn 0.74047 0.57958 0.3191 0.0
Zn97 Zn 0.81345 0.62401 0.14364 0.0
O98 O 0.73946 0.54465 -0.00091 0.0
O99 O 0.81081 0.60255 -0.00217 0.0
O100 O 0.82332 0.50359 0.23962 0.0
O101 O 0.77208 0.48548 0.11539 0.0
O102 O 0.6803 0.47972 0.20638 0.0
O103 O 0.68052 0.52226 0.33589 0.0
O104 O 0.73114 0.62996 0.26798 0.0
O105 O 0.87982 0.61132 0.3073 0.0
O106 O 0.78244 0.66234 0.14334 0.0
O107 O 0.87885 0.66058 0.19492 0.0
C108 C 0.78192 0.56861 0.50641 0.0
C109 C 0.77523 0.57312 0.95062 0.0
C110 C 0.66153 0.48496 0.28647 0.0
C111 C 0.80335 0.48115 0.15836 0.0
C112 C 0.74978 0.65982 0.19719 0.0
C113 C 0.89946 0.64985 0.26201 0.0
O114 O 0.76602 0.59068 0.45961 0.0
O115 O 0.24725 0.79042 0.63187 0.0
Zn116 Zn 0.25975 0.80949 0.48006 0.0
O117 O 0.2054 0.77466 0.40143 0.0
Zn118 Zn 0.2127 0.73498 0.31039 0.0
Zn119 Zn 0.15767 0.73722 0.49235 0.0
Zn120 Zn 0.1896 0.81219 0.31957 0.0
O121 O 0.1861 0.73426 0.17213 0.0
O122 O 0.20639 0.8078 0.17232 0.0
O123 O 0.31452 0.81018 0.40949 0.0
O124 O 0.27821 0.76299 0.2803 0.0
O125 O 0.19283 0.6738 0.37718 0.0
O126 O 0.15407 0.67672 0.51123 0.0
O127 O 0.0993 0.73012 0.43981 0.0
O128 O 0.27258 0.87327 0.47673 0.0
O129 O 0.12073 0.78471 0.32148 0.0
O130 O 0.22392 0.8783 0.37047 0.0
C131 C 0.2096 0.77696 0.67963 0.0
C132 C 0.19655 0.77116 0.12428 0.0
C133 C 0.17067 0.65644 0.46024 0.0
C134 C 0.31493 0.7916 0.32399 0.0
C135 C 0.08964 0.75128 0.37208 0.0
C136 C 0.25736 0.89662 0.43327 0.0
O137 O 0.17237 0.76367 0.63169 0.0
C138 C 0.46294 0.22871 0.11605 0.0
C139 C 0.42099 0.20632 0.16854 0.0
C140 C 0.46481 0.23512 0.00891 0.0
C141 C 0.42478 0.21854 0.95083 0.0
H142 H 0.49457 0.24151 0.15805 0.0
H143 H 0.49763 0.25149 0.97091 0.0
S144 S 0.30671 0.15923 0.05065 0.0
N145 N 0.33866 0.16935 0.15419 0.0
N146 N 0.34232 0.18022 0.95248 0.0
C147 C 0.38277 0.19683 0.0022 0.0
C148 C 0.38083 0.19106 0.11126 0.0
C149 C 0.197 0.38622 0.28751 0.0
C150 C 0.22117 0.42677 0.34396 0.0
C151 C 0.19313 0.38709 0.18029 0.0
C152 C 0.21213 0.42855 0.12622 0.0
H153 H 0.18163 0.35351 0.32625 0.0
H154 H 0.17525 0.35506 0.13922 0.0
S155 S 0.27733 0.54424 0.23788 0.0
N156 N 0.26379 0.50965 0.33801 0.0
N157 N 0.25545 0.51109 0.13605 0.0
C158 C 0.23548 0.46939 0.18158 0.0
C159 C 0.24035 0.46854 0.29067 0.0
C160 C 0.79845 0.19021 0.34119 0.0
C161 C 0.7803 0.21332 0.28673 0.0
C162 C 0.80391 0.19442 0.44831 0.0
C163 C 0.79267 0.22301 0.50419 0.0
H164 H 0.8089 0.16904 0.30043 0.0
H165 H 0.81794 0.1759 0.48728 0.0
S166 S 0.74458 0.29145 0.39568 0.0
N167 N 0.75099 0.26548 0.29489 0.0
N168 N 0.76207 0.27447 0.49642 0.0
C169 C 0.77438 0.24629 0.45018 0.0
C170 C 0.76792 0.24112 0.34132 0.0
C171 C 0.57754 0.76035 0.51475 0.0
C172 C 0.56473 0.78643 0.45432 0.0
C173 C 0.5802 0.76502 0.6223 0.0
C174 C 0.56904 0.79504 0.67226 0.0
H175 H 0.58681 0.73733 0.47858 0.0
H176 H 0.59064 0.74469 0.66667 0.0
S177 S 0.5315 0.86915 0.54725 0.0
N178 N 0.53997 0.84246 0.45087 0.0
N179 N 0.54352 0.85014 0.65314 0.0
C180 C 0.55502 0.82032 0.61241 0.0
C181 C 0.55327 0.81629 0.50322 0.0
C182 C 0.81614 0.57305 0.67931 0.0
C183 C 0.77903 0.56682 0.61944 0.0
C184 C 0.81489 0.57562 0.78704 0.0
C185 C 0.77605 0.57084 0.8377 0.0
H186 H 0.84671 0.5773 0.64263 0.0
H187 H 0.84429 0.58099 0.83104 0.0
S188 S 0.66937 0.55171 0.71555 0.0
N189 N 0.7021 0.55475 0.61813 0.0
N190 N 0.69943 0.55833 0.8207 0.0
C191 C 0.73835 0.56326 0.77875 0.0
C192 C 0.73993 0.5616 0.66941 0.0
C193 C 0.23682 0.80848 0.96105 0.0
C194 C 0.19969 0.77203 0.01128 0.0
C195 C 0.24102 0.8093 0.85333 0.0
C196 C 0.20755 0.77424 0.79294 0.0
H197 H 0.26304 0.83625 0.00542 0.0
H198 H 0.26985 0.83802 0.81707 0.0
S199 S 0.10415 0.67119 0.88814 0.0
N200 N 0.12967 0.69982 -0.0065 0.0
N201 N 0.13664 0.7017 0.79112 0.0
C202 C 0.17045 0.73753 0.84264 0.0
C203 C 0.16674 0.73632 0.95194 0.0
C204 C 0.2797 0.01819 0.46549 0.0
C205 C 0.32274 0.04025 0.51304 0.0
C206 C 0.25865 0.97181 0.43844 0.0
C207 C 0.28011 0.94606 0.45736 0.0
H208 H 0.26199 0.03673 0.45003 0.0
H209 H 0.22519 0.95595 0.40375 0.0
S210 S 0.39555 0.98951 0.56865 0.0
N211 N 0.38747 0.03359 0.57043 0.0
N212 N 0.34864 0.94747 0.51914 0.0
C213 C 0.32381 0.96832 0.50198 0.0
C214 C 0.34491 0.01508 0.52996 0.0
C215 C 0.28589 0.26597 0.5646 0.0
C216 C 0.31545 0.26245 0.63495 0.0
C217 C 0.26114 0.28741 0.59283 0.0
C218 C 0.26513 0.30581 0.69234 0.0
H219 H 0.28385 0.25449 0.48586 0.0
H220 H 0.24074 0.29176 0.53458 0.0
S221 S 0.33109 0.29661 0.91021 0.0
N222 N 0.34235 0.27295 0.81193 0.0
N223 N 0.29591 0.31285 0.86515 0.0
C224 C 0.29182 0.29903 0.7654 0.0
C225 C 0.31697 0.27745 0.73663 0.0
C226 C 0.9727 0.26444 0.7576 0.0
C227 C 0.95758 0.26713 0.85725 0.0
C228 C 0.01908 0.28933 0.73136 0.0
C229 C 0.05169 0.31778 0.80385 0.0
H230 H 0.94841 0.24496 0.69791 0.0
H231 H 0.02909 0.28817 0.65262 0.0
S232 S 0.03087 0.32975 0.07996 0.0
N233 N 0.97989 0.29548 0.0321 0.0
N234 N 0.06657 0.34214 0.9828 0.0
C235 C 0.03736 0.31801 0.9055 0.0
C236 C 0.99043 0.29271 0.93221 0.0
C237 C 0.70398 0.97497 0.91776 0.0
C238 C 0.68452 0.95958 0.01611 0.0
C239 C 0.72534 0.02145 0.89128 0.0
C240 C 0.72767 0.05394 0.96212 0.0
H241 H 0.70085 0.9508 0.85925 0.0
H242 H 0.73814 0.03166 0.81356 0.0
S243 S 0.68954 0.03251 0.235 0.0
N244 N 0.67459 0.98165 0.1884 0.0
N245 N 0.7142 0.06838 0.13856 0.0
C246 C 0.71108 0.03934 0.06255 0.0
C247 C 0.68966 0.99234 0.08956 0.0
C248 C 0.69876 0.69028 0.24306 0.0
C249 C 0.72985 0.68913 0.17311 0.0
C250 C 0.67363 0.7113 0.21773 0.0
C251 C 0.67851 0.73243 0.12145 0.0
H252 H 0.69253 0.67349 0.31731 0.0
H253 H 0.64928 0.70997 0.27368 0.0
S254 S 0.75804 0.74271 0.91338 0.0
N255 N 0.76634 0.71379 0.00519 0.0
N256 N 0.71901 0.75378 0.95807 0.0
C257 C 0.71129 0.73401 0.05268 0.0
C258 C 0.73696 0.71226 0.07837 0.0
C259 C 0.96201 0.67879 0.39011 0.0
C260 C 0.94715 0.68212 0.29096 0.0
C261 C 0.00784 0.70374 0.41735 0.0
C262 C 0.04099 0.73303 0.34652 0.0
H263 H 0.93816 0.65559 0.44668 0.0
H264 H 0.0175 0.69858 0.49364 0.0
S265 S 0.01935 0.757 0.07936 0.0
N266 N 0.96856 0.71952 0.1238 0.0
N267 N 0.05529 0.76647 0.17464 0.0
C268 C 0.02636 0.73892 0.2489 0.0
C269 C 0.97929 0.71343 0.22119 0.0
C270 C 0.57463 0.36217 0.34413 0.0
C271 C 0.55291 0.36457 0.43484 0.0
C272 C 0.60762 0.40126 0.2939 0.0
C273 C 0.6209 0.44493 0.33185 0.0
H274 H 0.56676 0.32963 0.31157 0.0
H275 H 0.62398 0.3969 0.22663 0.0
S276 S 0.57108 0.47078 0.55956 0.0
N277 N 0.54441 0.4146 0.55555 0.0
N278 N 0.60687 0.48855 0.46137 0.0
C279 C 0.59811 0.44818 0.41985 0.0
C280 C 0.56412 0.408 0.47118 0.0
C281 C 0.20748 0.56991 0.51556 0.0
C282 C 0.18771 0.5516 0.6123 0.0
C283 C 0.19931 0.60141 0.46424 0.0
C284 C 0.17116 0.61653 0.50722 0.0
H285 H 0.23023 0.56041 0.47897 0.0
H286 H 0.21682 0.61529 0.39193 0.0
S287 S 0.10684 0.57548 0.75325 0.0
N288 N 0.13549 0.54803 0.745 0.0
N289 N 0.12017 0.60768 0.64896 0.0
C290 C 0.14924 0.59686 0.60159 0.0
C291 C 0.1575 0.5644 0.65392 0.0
C292 C 0.59679 0.16705 0.80121 0.0
C293 C 0.63955 0.20429 0.77502 0.0
C294 C 0.55696 0.1594 0.7502 0.0
C295 C 0.55848 0.18817 0.66981 0.0
H296 H 0.59396 0.14365 0.86156 0.0
H297 H 0.5247 0.13085 0.77422 0.0
S298 S 0.66098 0.2922 0.57569 0.0
N299 N 0.68012 0.27167 0.66571 0.0
N300 N 0.60582 0.25643 0.5698 0.0
C301 C 0.60087 0.22542 0.64288 0.0
C302 C 0.64118 0.23372 0.69552 0.0
C303 C 0.43434 0.63012 0.84343 0.0
C304 C 0.44407 0.63191 0.94956 0.0
C305 C 0.40088 0.59012 0.7968 0.0
C306 C 0.37535 0.54994 0.85411 0.0
H307 H 0.4522 0.66029 0.79575 0.0
H308 H 0.39407 0.59126 0.71558 0.0
S309 S 0.38898 0.53583 0.1343 0.0
N310 N 0.42699 0.5895 0.11001 0.0
N311 N 0.36371 0.51405 0.02325 0.0
C312 C 0.38604 0.55065 0.95983 0.0
C313 C 0.42045 0.59162 0.00726 0.0
C314 C 0.82859 0.42281 0.16627 0.0
C315 C 0.81689 0.45041 0.10807 0.0
C316 C 0.83493 0.38912 0.1185 0.0
C317 C 0.83009 0.38204 0.01071 0.0
H318 H 0.83054 0.42562 0.24952 0.0
H319 H 0.84146 0.36705 0.1673 0.0
S320 S 0.80792 0.45142 0.82264 0.0
N321 N 0.80657 0.47264 0.93614 0.0
N322 N 0.81858 0.4098 0.84677 0.0
C323 C 0.82168 0.41182 0.95135 0.0
C324 C 0.81505 0.44584 -9e-05 0.0
C325 C 0.43904 0.82786 0.27514 0.0
C326 C 0.43969 0.81956 0.16858 0.0
C327 C 0.39908 0.82024 0.32496 0.0
C328 C 0.35822 0.80395 0.27014 0.0
H329 H 0.46912 0.83844 0.32173 0.0
H330 H 0.39985 0.82546 0.40748 0.0
S331 S 0.34351 0.78466 0.98691 0.0
N332 N 0.39709 0.79951 0.00818 0.0
N333 N 0.3223 0.78562 0.10073 0.0
C334 C 0.35914 0.79843 0.16237 0.0
C335 C 0.39974 0.80613 0.1119 0.0
loop_
_geom_bond_atom_site_label_1
_geom_bond_atom_site_label_2
_geom_bond_distance
_geom_bond_site_symmetry_2
_ccdc_geom_bond_type
O0 Zn1 1.953 . S
O0 C16 1.225 . S
Zn1 O0 1.953 . S
Zn1 O2 1.949 . S
Zn1 O8 1.919 . S
Zn1 O13 1.924 . S
O2 Zn1 1.949 . S
O2 Zn3 1.923 . S
O2 Zn4 1.950 . S
O2 Zn5 1.945 . S
Zn3 O2 1.923 . S
Zn3 O6 1.933 . S
Zn3 O9 1.941 . S
Zn3 O10 1.965 . S
Zn4 O2 1.950 . S
Zn4 O11 1.938 . S
Zn4 O12 1.906 . S
Zn4 O22 1.953 . S
Zn5 O2 1.945 . S
Zn5 O7 1.932 . S
Zn5 O14 1.977 . S
Zn5 O15 1.910 . S
O6 Zn3 1.933 . S
O6 C17 1.226 . S
O7 Zn5 1.932 . S
O7 C17 1.307 . S
O8 Zn1 1.919 . S
O8 C19 1.253 . S
O9 Zn3 1.941 . S
O9 C19 1.283 . S
O10 Zn3 1.965 . S
O10 C18 1.303 . S
O11 Zn4 1.938 . S
O11 C18 1.247 . S
O12 Zn4 1.906 . S
O12 C20 1.304 . S
O13 Zn1 1.924 . S
O13 C21 1.311 . S
O14 Zn5 1.977 . S
O14 C20 1.272 . S
O15 Zn5 1.910 . S
O15 C21 1.231 . S
C16 O0 1.225 . S
C16 O22 1.298 . S
C17 O6 1.226 . S
C17 O7 1.307 . S
C18 O10 1.303 . S
C18 O11 1.247 . S
C19 O8 1.253 . S
C19 O9 1.283 . S
C20 O12 1.304 . S
C20 O14 1.272 . S
C21 O13 1.311 . S
C21 O15 1.231 . S
O22 Zn4 1.953 . S
O22 C16 1.298 . S
O23 Zn24 1.953 . S
O23 C39 1.225 1_556 S
Zn24 O23 1.953 . S
Zn24 O25 1.949 . S
Zn24 O31 1.919 . S
Zn24 O36 1.924 . S
O25 Zn24 1.949 . S
O25 Zn26 1.923 . S
O25 Zn27 1.950 . S
O25 Zn28 1.945 . S
Zn26 O25 1.923 . S
Zn26 O29 1.933 . S
Zn26 O32 1.941 . S
Zn26 O33 1.965 . S
Zn27 O25 1.950 . S
Zn27 O34 1.938 . S
Zn27 O35 1.906 . S
Zn27 O45 1.953 . S
Zn28 O25 1.945 . S
Zn28 O30 1.932 . S
Zn28 O37 1.977 . S
Zn28 O38 1.910 . S
O29 Zn26 1.933 . S
O29 C40 1.226 . S
O30 Zn28 1.932 . S
O30 C40 1.307 . S
O31 Zn24 1.919 . S
O31 C42 1.253 . S
O32 Zn26 1.941 . S
O32 C42 1.283 . S
O33 Zn26 1.965 . S
O33 C41 1.303 . S
O34 Zn27 1.938 . S
O34 C41 1.247 . S
O35 Zn27 1.906 . S
O35 C43 1.304 . S
O36 Zn24 1.924 . S
O36 C44 1.311 . S
O37 Zn28 1.977 . S
O37 C43 1.272 . S
O38 Zn28 1.910 . S
O38 C44 1.231 . S
C39 O23 1.225 1_554 S
C39 O45 1.298 1_554 S
C40 O29 1.226 . S
C40 O30 1.307 . S
C41 O33 1.303 . S
C41 O34 1.247 . S
C42 O31 1.253 . S
C42 O32 1.283 . S
C43 O35 1.304 . S
C43 O37 1.272 . S
C44 O36 1.311 . S
C44 O38 1.231 . S
O45 Zn27 1.953 . S
O45 C39 1.298 1_556 S
O46 Zn47 1.953 1_554 S
O46 C62 1.225 . S
Zn47 O46 1.953 1_556 S
Zn47 O48 1.949 . S
Zn47 O54 1.919 . S
Zn47 O59 1.924 . S
O48 Zn47 1.949 . S
O48 Zn49 1.923 . S
O48 Zn50 1.950 1_556 S
O48 Zn51 1.945 . S
Zn49 O48 1.923 . S
Zn49 O52 1.933 . S
Zn49 O55 1.941 . S
Zn49 O56 1.965 . S
Zn50 O48 1.950 1_554 S
Zn50 O57 1.938 . S
Zn50 O58 1.906 1_554 S
Zn50 O68 1.953 . S
Zn51 O48 1.945 . S
Zn51 O53 1.932 . S
Zn51 O60 1.977 . S
Zn51 O61 1.910 . S
O52 Zn49 1.933 . S
O52 C63 1.226 . S
O53 Zn51 1.932 . S
O53 C63 1.307 . S
O54 Zn47 1.919 . S
O54 C65 1.253 . S
O55 Zn49 1.941 . S
O55 C65 1.283 . S
O56 Zn49 1.965 . S
O56 C64 1.303 . S
O57 Zn50 1.938 . S
O57 C64 1.247 1_554 S
O58 Zn50 1.906 1_556 S
O58 C66 1.304 . S
O59 Zn47 1.924 . S
O59 C67 1.311 . S
O60 Zn51 1.977 . S
O60 C66 1.272 . S
O61 Zn51 1.910 . S
O61 C67 1.231 . S
C62 O46 1.225 . S
C62 O68 1.298 . S
C63 O52 1.226 . S
C63 O53 1.307 . S
C64 O56 1.303 . S
C64 O57 1.247 1_556 S
C65 O54 1.253 . S
C65 O55 1.283 . S
C66 O58 1.304 . S
C66 O60 1.272 . S
C67 O59 1.311 . S
C67 O61 1.231 . S
O68 Zn50 1.953 . S
O68 C62 1.298 . S
O69 Zn70 1.953 . S
O69 C85 1.225 . S
Zn70 O69 1.953 . S
Zn70 O71 1.949 . S
Zn70 O77 1.919 . S
Zn70 O82 1.924 . S
O71 Zn70 1.949 . S
O71 Zn72 1.923 1_554 S
O71 Zn73 1.950 . S
O71 Zn74 1.945 1_554 S
Zn72 O71 1.923 1_556 S
Zn72 O75 1.933 . S
Zn72 O78 1.941 1_556 S
Zn72 O79 1.965 1_556 S
Zn73 O71 1.950 . S
Zn73 O80 1.938 . S
Zn73 O81 1.906 . S
Zn73 O91 1.953 . S
Zn74 O71 1.945 1_556 S
Zn74 O76 1.932 . S
Zn74 O83 1.977 1_556 S
Zn74 O84 1.910 1_556 S
O75 Zn72 1.933 . S
O75 C86 1.226 . S
O76 Zn74 1.932 . S
O76 C86 1.307 . S
O77 Zn70 1.919 . S
O77 C88 1.253 . S
O78 Zn72 1.941 1_554 S
O78 C88 1.283 . S
O79 Zn72 1.965 1_554 S
O79 C87 1.303 . S
O80 Zn73 1.938 . S
O80 C87 1.247 . S
O81 Zn73 1.906 . S
O81 C89 1.304 . S
O82 Zn70 1.924 . S
O82 C90 1.311 . S
O83 Zn74 1.977 1_554 S
O83 C89 1.272 . S
O84 Zn74 1.910 1_554 S
O84 C90 1.231 . S
C85 O69 1.225 . S
C85 O91 1.298 . S
C86 O75 1.226 . S
C86 O76 1.307 . S
C87 O79 1.303 . S
C87 O80 1.247 . S
C88 O77 1.253 . S
C88 O78 1.283 . S
C89 O81 1.304 . S
C89 O83 1.272 . S
C90 O82 1.311 . S
C90 O84 1.231 . S
O91 Zn73 1.953 . S
O91 C85 1.298 . S
O92 Zn93 1.953 . S
O92 C108 1.225 . S
Zn93 O92 1.953 . S
Zn93 O94 1.949 . S
Zn93 O100 1.919 . S
Zn93 O105 1.924 . S
O94 Zn93 1.949 . S
O94 Zn95 1.923 . S
O94 Zn96 1.950 . S
O94 Zn97 1.945 . S
Zn95 O94 1.923 . S
Zn95 O98 1.933 . S
Zn95 O101 1.941 . S
Zn95 O102 1.965 . S
Zn96 O94 1.950 . S
Zn96 O103 1.938 . S
Zn96 O104 1.906 . S
Zn96 O114 1.953 . S
Zn97 O94 1.945 . S
Zn97 O99 1.932 . S
Zn97 O106 1.977 . S
Zn97 O107 1.910 . S
O98 Zn95 1.933 . S
O98 C109 1.226 1_554 S
O99 Zn97 1.932 . S
O99 C109 1.307 1_554 S
O100 Zn93 1.919 . S
O100 C111 1.253 . S
O101 Zn95 1.941 . S
O101 C111 1.283 . S
O102 Zn95 1.965 . S
O102 C110 1.303 . S
O103 Zn96 1.938 . S
O103 C110 1.247 . S
O104 Zn96 1.906 . S
O104 C112 1.304 . S
O105 Zn93 1.924 . S
O105 C113 1.311 . S
O106 Zn97 1.977 . S
O106 C112 1.272 . S
O107 Zn97 1.910 . S
O107 C113 1.231 . S
C108 O92 1.225 . S
C108 O114 1.298 . S
C109 O98 1.226 1_556 S
C109 O99 1.307 1_556 S
C110 O102 1.303 . S
C110 O103 1.247 . S
C111 O100 1.253 . S
C111 O101 1.283 . S
C112 O104 1.304 . S
C112 O106 1.272 . S
C113 O105 1.311 . S
C113 O107 1.231 . S
O114 Zn96 1.953 . S
O114 C108 1.298 . S
O115 Zn116 1.953 . S
O115 C131 1.225 . S
Zn116 O115 1.953 . S
Zn116 O117 1.949 . S
Zn116 O123 1.919 . S
Zn116 O128 1.924 . S
O117 Zn116 1.949 . S
O117 Zn118 1.923 . S
O117 Zn119 1.950 . S
O117 Zn120 1.945 . S
Zn118 O117 1.923 . S
Zn118 O121 1.933 . S
Zn118 O124 1.941 . S
Zn118 O125 1.965 . S
Zn119 O117 1.950 . S
Zn119 O126 1.938 . S
Zn119 O127 1.906 . S
Zn119 O137 1.953 . S
Zn120 O117 1.945 . S
Zn120 O122 1.932 . S
Zn120 O129 1.977 . S
Zn120 O130 1.910 . S
O121 Zn118 1.933 . S
O121 C132 1.226 . S
O122 Zn120 1.932 . S
O122 C132 1.307 . S
O123 Zn116 1.919 . S
O123 C134 1.253 . S
O124 Zn118 1.941 . S
O124 C134 1.283 . S
O125 Zn118 1.965 . S
O125 C133 1.303 . S
O126 Zn119 1.938 . S
O126 C133 1.247 . S
O127 Zn119 1.906 . S
O127 C135 1.304 . S
O128 Zn116 1.924 . S
O128 C136 1.311 . S
O129 Zn120 1.977 . S
O129 C135 1.272 . S
O130 Zn120 1.910 . S
O130 C136 1.231 . S
C131 O115 1.225 . S
C131 O137 1.298 . S
C132 O121 1.226 . S
C132 O122 1.307 . S
C133 O125 1.303 . S
C133 O126 1.247 . S
C134 O123 1.253 . S
C134 O124 1.283 . S
C135 O127 1.304 . S
C135 O129 1.272 . S
C136 O128 1.311 . S
C136 O130 1.231 . S
O137 Zn119 1.953 . S
O137 C131 1.298 . S
C138 C139 1.369 . S
C138 C140 1.419 . S
C138 H142 0.930 . S
C139 C138 1.369 . S
C139 C148 1.429 . S
C140 C138 1.419 . S
C140 C141 1.363 1_554 S
C140 H143 0.929 . S
C141 C140 1.363 1_556 S
C141 C147 1.428 1_556 S
H142 C138 0.930 . S
H143 C140 0.929 . S
S144 N145 1.613 . S
S144 N146 1.610 1_554 S
N145 S144 1.613 . S
N145 C148 1.350 . S
N146 S144 1.610 1_556 S
N146 C147 1.351 1_556 S
C147 C141 1.428 1_554 S
C147 N146 1.351 1_554 S
C147 C148 1.434 . S
C148 C139 1.429 . S
C148 N145 1.350 . S
C148 C147 1.434 . S
C149 C150 1.369 . S
C149 C151 1.419 . S
C149 H153 0.930 . S
C150 C149 1.369 . S
C150 C159 1.429 . S
C151 C149 1.419 . S
C151 C152 1.363 . S
C151 H154 0.929 . S
C152 C151 1.363 . S
C152 C158 1.428 . S
H153 C149 0.930 . S
H154 C151 0.929 . S
S155 N156 1.613 . S
S155 N157 1.610 . S
N156 S155 1.613 . S
N156 C159 1.350 . S
N157 S155 1.610 . S
N157 C158 1.351 . S
C158 C152 1.428 . S
C158 N157 1.351 . S
C158 C159 1.434 . S
C159 C150 1.429 . S
C159 N156 1.350 . S
C159 C158 1.434 . S
C160 C161 1.369 . S
C160 C162 1.419 . S
C160 H164 0.930 . S
C161 C160 1.369 . S
C161 C170 1.429 . S
C162 C160 1.419 . S
C162 C163 1.363 . S
C162 H165 0.929 . S
C163 C162 1.363 . S
C163 C169 1.428 . S
H164 C160 0.930 . S
H165 C162 0.929 . S
S166 N167 1.613 . S
S166 N168 1.610 . S
N167 S166 1.613 . S
N167 C170 1.350 . S
N168 S166 1.610 . S
N168 C169 1.351 . S
C169 C163 1.428 . S
C169 N168 1.351 . S
C169 C170 1.434 . S
C170 C161 1.429 . S
C170 N167 1.350 . S
C170 C169 1.434 . S
C171 C172 1.369 . S
C171 C173 1.419 . S
C171 H175 0.930 . S
C172 C171 1.369 . S
C172 C181 1.429 . S
C173 C171 1.419 . S
C173 C174 1.363 . S
C173 H176 0.929 . S
C174 C173 1.363 . S
C174 C180 1.428 . S
H175 C171 0.930 . S
H176 C173 0.929 . S
S177 N178 1.613 . S
S177 N179 1.610 . S
N178 S177 1.613 . S
N178 C181 1.350 . S
N179 S177 1.610 . S
N179 C180 1.351 . S
C180 C174 1.428 . S
C180 N179 1.351 . S
C180 C181 1.434 . S
C181 C172 1.429 . S
C181 N178 1.350 . S
C181 C180 1.434 . S
C182 C183 1.369 . S
C182 C184 1.419 . S
C182 H186 0.930 . S
C183 C182 1.369 . S
C183 C192 1.429 . S
C184 C182 1.419 . S
C184 C185 1.363 . S
C184 H187 0.929 . S
C185 C184 1.363 . S
C185 C191 1.428 . S
H186 C182 0.930 . S
H187 C184 0.929 . S
S188 N189 1.613 . S
S188 N190 1.610 . S
N189 S188 1.613 . S
N189 C192 1.350 . S
N190 S188 1.610 . S
N190 C191 1.351 . S
C191 C185 1.428 . S
C191 N190 1.351 . S
C191 C192 1.434 . S
C192 C183 1.429 . S
C192 N189 1.350 . S
C192 C191 1.434 . S
C193 C194 1.369 1_556 S
C193 C195 1.419 . S
C193 H197 0.930 1_556 S
C194 C193 1.369 1_554 S
C194 C203 1.429 1_554 S
C195 C193 1.419 . S
C195 C196 1.363 . S
C195 H198 0.929 . S
C196 C195 1.363 . S
C196 C202 1.428 . S
H197 C193 0.930 1_554 S
H198 C195 0.929 . S
S199 N200 1.613 . S
S199 N201 1.610 . S
N200 S199 1.613 . S
N200 C203 1.350 . S
N201 S199 1.610 . S
N201 C202 1.351 . S
C202 C196 1.428 . S
C202 N201 1.351 . S
C202 C203 1.434 . S
C203 C194 1.429 1_556 S
C203 N200 1.350 . S
C203 C202 1.434 . S
C204 C205 1.369 . S
C204 C206 1.419 1_545 S
C204 H208 0.930 . S
C205 C204 1.369 . S
C205 C214 1.429 . S
C206 C204 1.419 1_565 S
C206 C207 1.363 . S
C206 H209 0.929 . S
C207 C206 1.363 . S
C207 C213 1.428 . S
H208 C204 0.930 . S
H209 C206 0.929 . S
S210 N211 1.613 . S
S210 N212 1.610 1_545 S
N211 S210 1.613 . S
N211 C214 1.350 . S
N212 S210 1.610 1_565 S
N212 C213 1.351 . S
C213 C207 1.428 . S
C213 N212 1.351 . S
C213 C214 1.434 1_565 S
C214 C205 1.429 . S
C214 N211 1.350 . S
C214 C213 1.434 1_545 S
C215 C216 1.369 . S
C215 C217 1.419 . S
C215 H219 0.930 . S
C216 C215 1.369 . S
C216 C225 1.429 . S
C217 C215 1.419 . S
C217 C218 1.363 . S
C217 H220 0.929 . S
C218 C217 1.363 . S
C218 C224 1.428 . S
H219 C215 0.930 . S
H220 C217 0.929 . S
S221 N222 1.613 . S
S221 N223 1.610 . S
N222 S221 1.613 . S
N222 C225 1.350 . S
N223 S221 1.610 . S
N223 C224 1.351 . S
C224 C218 1.428 . S
C224 N223 1.351 . S
C224 C225 1.434 . S
C225 C216 1.429 . S
C225 N222 1.350 . S
C225 C224 1.434 . S
C226 C227 1.369 . S
C226 C228 1.419 1_655 S
C226 H230 0.930 . S
C227 C226 1.369 . S
C227 C236 1.429 . S
C228 C226 1.419 1_455 S
C228 C229 1.363 . S
C228 H231 0.929 . S
C229 C228 1.363 . S
C229 C235 1.428 . S
H230 C226 0.930 . S
H231 C228 0.929 . S
S232 N233 1.613 1_455 S
S232 N234 1.610 1_554 S
N233 S232 1.613 1_655 S
N233 C236 1.350 1_554 S
N234 S232 1.610 1_556 S
N234 C235 1.351 . S
C235 C229 1.428 . S
C235 N234 1.351 . S
C235 C236 1.434 1_455 S
C236 C227 1.429 . S
C236 N233 1.350 1_556 S
C236 C235 1.434 1_655 S
C237 C238 1.369 1_556 S
C237 C239 1.419 1_565 S
C237 H241 0.930 . S
C238 C237 1.369 1_554 S
C238 C247 1.429 . S
C239 C237 1.419 1_545 S
C239 C240 1.363 . S
C239 H242 0.929 . S
C240 C239 1.363 . S
C240 C246 1.428 1_556 S
H241 C237 0.930 . S
H242 C239 0.929 . S
S243 N244 1.613 1_545 S
S243 N245 1.610 . S
N244 S243 1.613 1_565 S
N244 C247 1.350 . S
N245 S243 1.610 . S
N245 C246 1.351 . S
C246 C240 1.428 1_554 S
C246 N245 1.351 . S
C246 C247 1.434 1_545 S
C247 C238 1.429 . S
C247 N244 1.350 . S
C247 C246 1.434 1_565 S
C248 C249 1.369 . S
C248 C250 1.419 . S
C248 H252 0.930 . S
C249 C248 1.369 . S
C249 C258 1.429 . S
C250 C248 1.419 . S
C250 C251 1.363 . S
C250 H253 0.929 . S
C251 C250 1.363 . S
C251 C257 1.428 . S
H252 C248 0.930 . S
H253 C250 0.929 . S
S254 N255 1.613 . S
S254 N256 1.610 . S
N255 S254 1.613 . S
N255 C258 1.350 . S
N256 S254 1.610 . S
N256 C257 1.351 . S
C257 C251 1.428 . S
C257 N256 1.351 . S
C257 C258 1.434 . S
C258 C249 1.429 . S
C258 N255 1.350 . S
C258 C257 1.434 . S
C259 C260 1.369 . S
C259 C261 1.419 1_655 S
C259 H263 0.930 . S
C260 C259 1.369 . S
C260 C269 1.429 . S
C261 C259 1.419 1_455 S
C261 C262 1.363 . S
C261 H264 0.929 . S
C262 C261 1.363 . S
C262 C268 1.428 . S
H263 C259 0.930 . S
H264 C261 0.929 . S
S265 N266 1.613 1_455 S
S265 N267 1.610 . S
N266 S265 1.613 1_655 S
N266 C269 1.350 . S
N267 S265 1.610 . S
N267 C268 1.351 . S
C268 C262 1.428 . S
C268 N267 1.351 . S
C268 C269 1.434 1_455 S
C269 C260 1.429 . S
C269 N266 1.350 . S
C269 C268 1.434 1_655 S
C270 C271 1.369 . S
C270 C272 1.419 . S
C270 H274 0.930 . S
C271 C270 1.369 . S
C271 C280 1.429 . S
C272 C270 1.419 . S
C272 C273 1.363 . S
C272 H275 0.929 . S
C273 C272 1.363 . S
C273 C279 1.428 . S
H274 C270 0.930 . S
H275 C272 0.929 . S
S276 N277 1.613 . S
S276 N278 1.610 . S
N277 S276 1.613 . S
N277 C280 1.350 . S
N278 S276 1.610 . S
N278 C279 1.351 . S
C279 C273 1.428 . S
C279 N278 1.351 . S
C279 C280 1.434 . S
C280 C271 1.429 . S
C280 N277 1.350 . S
C280 C279 1.434 . S
C281 C282 1.369 . S
C281 C283 1.419 . S
C281 H285 0.930 . S
C282 C281 1.369 . S
C282 C291 1.429 . S
C283 C281 1.419 . S
C283 C284 1.363 . S
C283 H286 0.929 . S
C284 C283 1.363 . S
C284 C290 1.428 . S
H285 C281 0.930 . S
H286 C283 0.929 . S
S287 N288 1.613 . S
S287 N289 1.610 . S
N288 S287 1.613 . S
N288 C291 1.350 . S
N289 S287 1.610 . S
N289 C290 1.351 . S
C290 C284 1.428 . S
C290 N289 1.351 . S
C290 C291 1.434 . S
C291 C282 1.429 . S
C291 N288 1.350 . S
C291 C290 1.434 . S
C292 C293 1.369 . S
C292 C294 1.419 . S
C292 H296 0.930 . S
C293 C292 1.369 . S
C293 C302 1.429 . S
C294 C292 1.419 . S
C294 C295 1.363 . S
C294 H297 0.929 . S
C295 C294 1.363 . S
C295 C301 1.428 . S
H296 C292 0.930 . S
H297 C294 0.929 . S
S298 N299 1.613 . S
S298 N300 1.610 . S
N299 S298 1.613 . S
N299 C302 1.350 . S
N300 S298 1.610 . S
N300 C301 1.351 . S
C301 C295 1.428 . S
C301 N300 1.351 . S
C301 C302 1.434 . S
C302 C293 1.429 . S
C302 N299 1.350 . S
C302 C301 1.434 . S
C303 C304 1.369 . S
C303 C305 1.419 . S
C303 H307 0.930 1_556 S
C304 C303 1.369 . S
C304 C313 1.429 . S
C305 C303 1.419 . S
C305 C306 1.363 . S
C305 H308 0.929 . S
C306 C305 1.363 . S
C306 C312 1.428 . S
H307 C303 0.930 1_554 S
H308 C305 0.929 . S
S309 N310 1.613 . S
S309 N311 1.610 . S
N310 S309 1.613 . S
N310 C313 1.350 . S
N311 S309 1.610 . S
N311 C312 1.351 . S
C312 C306 1.428 . S
C312 N311 1.351 . S
C312 C313 1.434 . S
C313 C304 1.429 . S
C313 N310 1.350 . S
C313 C312 1.434 . S
C314 C315 1.369 . S
C314 C316 1.419 . S
C314 H318 0.930 . S
C315 C314 1.369 . S
C315 C324 1.429 . S
C316 C314 1.419 . S
C316 C317 1.363 . S
C316 H319 0.929 . S
C317 C316 1.363 . S
C317 C323 1.428 1_554 S
H318 C314 0.930 . S
H319 C316 0.929 . S
S320 N321 1.613 . S
S320 N322 1.610 . S
N321 S320 1.613 . S
N321 C324 1.350 1_556 S
N322 S320 1.610 . S
N322 C323 1.351 . S
C323 C317 1.428 1_556 S
C323 N322 1.351 . S
C323 C324 1.434 1_556 S
C324 C315 1.429 . S
C324 N321 1.350 1_554 S
C324 C323 1.434 1_554 S
C325 C326 1.369 . S
C325 C327 1.419 . S
C325 H329 0.930 . S
C326 C325 1.369 . S
C326 C335 1.429 . S
C327 C325 1.419 . S
C327 C328 1.363 . S
C327 H330 0.929 . S
C328 C327 1.363 . S
C328 C334 1.428 . S
H329 C325 0.930 . S
H330 C327 0.929 . S
S331 N332 1.613 . S
S331 N333 1.610 . S
N332 S331 1.613 . S
N332 C335 1.350 . S
N333 S331 1.610 . S
N333 C334 1.351 . S
C334 C328 1.428 . S
C334 N333 1.351 . S
C334 C335 1.434 . S
C335 C326 1.429 . S
C335 N332 1.350 . S
C335 C334 1.434 . S
C139 C17 1.351 . S
C141 C16 1.345 . S
C150 C40 1.349 . S
C152 C39 1.347 . S
C161 C62 1.346 . S
C163 C63 1.349 . S
C172 C85 1.345 . S
C174 C86 1.350 . S
C183 C108 1.344 . S
C185 C109 1.350 . S
C194 C132 1.351 . S
C196 C131 1.345 . S
C205 C20 1.538 . S
C207 C136 1.509 . S
C216 C21 1.509 . S
C218 C43 1.537 . S
C227 C66 1.537 . S
C229 C44 1.511 . S
C238 C89 1.537 . S
C240 C67 1.509 . S
C249 C112 1.538 . S
C251 C90 1.513 . S
C260 C113 1.510 . S
C262 C135 1.538 . S
C271 C19 1.650 . S
C273 C110 1.666 . S
C282 C42 1.649 . S
C284 C133 1.667 . S
C293 C65 1.645 . S
C295 C18 1.668 . S
C304 C88 1.649 1_556 S
C306 C41 1.667 . S
C315 C111 1.648 . S
C317 C64 1.667 1_554 S
C326 C87 1.667 . S
C328 C134 1.648 . S
