# Generated by pormake.
# Topology une, (4)-cn, num edge types: 1
# Building blocks:
#     Node 0, Type 0, BuildingBlock: QUQFOY_clean_sbu_3, # of connection points: 4
#     Node 1, Type 0, BuildingBlock: QUQFOY_clean_sbu_3, # of connection points: 4
#     Node 2, Type 0, BuildingBlock: QUQFOY_clean_sbu_3, # of connection points: 4
#     Node 3, Type 0, BuildingBlock: QUQFOY_clean_sbu_3, # of connection points: 4
#     Node 4, Type 0, BuildingBlock: QUQFOY_clean_sbu_3, # of connection points: 4
#     Node 5, Type 0, BuildingBlock: QUQFOY_clean_sbu_3, # of connection points: 4
#     Node 6, Type 0, BuildingBlock: QUQFOY_clean_sbu_3, # of connection points: 4
#     Node 7, Type 0, BuildingBlock: QUQFOY_clean_sbu_3, # of connection points: 4
#     Node 8, Type 0, BuildingBlock: QUQFOY_clean_sbu_3, # of connection points: 4
#     Node 9, Type 0, BuildingBlock: QUQFOY_clean_sbu_3, # of connection points: 4
#     Node 10, Type 0, BuildingBlock: QUQFOY_clean_sbu_3, # of connection points: 4
#     Node 11, Type 0, BuildingBlock: QUQFOY_clean_sbu_3, # of connection points: 4
#     Node 12, Type 0, BuildingBlock: QUQFOY_clean_sbu_3, # of connection points: 4
#     Node 13, Type 0, BuildingBlock: QUQFOY_clean_sbu_3, # of connection points: 4
#     Node 14, Type 0, BuildingBlock: QUQFOY_clean_sbu_3, # of connection points: 4
#     Node 15, Type 0, BuildingBlock: QUQFOY_clean_sbu_3, # of connection points: 4
#     Node 16, Type 0, BuildingBlock: QUQFOY_clean_sbu_3, # of connection points: 4
#     Node 17, Type 0, BuildingBlock: QUQFOY_clean_sbu_3, # of connection points: 4
#     Edge 18, Type (0, 0), BuildingBlock: OJICUG_clean_linker_0, # of connection points: 2
#     Edge 19, Type (0, 0), BuildingBlock: OJICUG_clean_linker_0, # of connection points: 2
#     Edge 20, Type (0, 0), BuildingBlock: OJICUG_clean_linker_0, # of connection points: 2
#     Edge 21, Type (0, 0), BuildingBlock: OJICUG_clean_linker_0, # of connection points: 2
#     Edge 22, Type (0, 0), BuildingBlock: OJICUG_clean_linker_0, # of connection points: 2
#     Edge 23, Type (0, 0), BuildingBlock: OJICUG_clean_linker_0, # of connection points: 2
#     Edge 24, Type (0, 0), BuildingBlock: OJICUG_clean_linker_0, # of connection points: 2
#     Edge 25, Type (0, 0), BuildingBlock: OJICUG_clean_linker_0, # of connection points: 2
#     Edge 26, Type (0, 0), BuildingBlock: OJICUG_clean_linker_0, # of connection points: 2
#     Edge 27, Type (0, 0), BuildingBlock: OJICUG_clean_linker_0, # of connection points: 2
#     Edge 28, Type (0, 0), BuildingBlock: OJICUG_clean_linker_0, # of connection points: 2
#     Edge 29, Type (0, 0), BuildingBlock: OJICUG_clean_linker_0, # of connection points: 2
#     Edge 30, Type (0, 0), BuildingBlock: OJICUG_clean_linker_0, # of connection points: 2
#     Edge 31, Type (0, 0), BuildingBlock: OJICUG_clean_linker_0, # of connection points: 2
#     Edge 32, Type (0, 0), BuildingBlock: OJICUG_clean_linker_0, # of connection points: 2
#     Edge 33, Type (0, 0), BuildingBlock: OJICUG_clean_linker_0, # of connection points: 2
#     Edge 34, Type (0, 0), BuildingBlock: OJICUG_clean_linker_0, # of connection points: 2
#     Edge 35, Type (0, 0), BuildingBlock: OJICUG_clean_linker_0, # of connection points: 2
#     Edge 36, Type (0, 0), BuildingBlock: OJICUG_clean_linker_0, # of connection points: 2
#     Edge 37, Type (0, 0), BuildingBlock: OJICUG_clean_linker_0, # of connection points: 2
#     Edge 38, Type (0, 0), BuildingBlock: OJICUG_clean_linker_0, # of connection points: 2
#     Edge 39, Type (0, 0), BuildingBlock: OJICUG_clean_linker_0, # of connection points: 2
#     Edge 40, Type (0, 0), BuildingBlock: OJICUG_clean_linker_0, # of connection points: 2
#     Edge 41, Type (0, 0), BuildingBlock: OJICUG_clean_linker_0, # of connection points: 2
#     Edge 42, Type (0, 0), BuildingBlock: OJICUG_clean_linker_0, # of connection points: 2
#     Edge 43, Type (0, 0), BuildingBlock: OJICUG_clean_linker_0, # of connection points: 2
#     Edge 44, Type (0, 0), BuildingBlock: OJICUG_clean_linker_0, # of connection points: 2
#     Edge 45, Type (0, 0), BuildingBlock: OJICUG_clean_linker_0, # of connection points: 2
#     Edge 46, Type (0, 0), BuildingBlock: OJICUG_clean_linker_0, # of connection points: 2
#     Edge 47, Type (0, 0), BuildingBlock: OJICUG_clean_linker_0, # of connection points: 2
#     Edge 48, Type (0, 0), BuildingBlock: OJICUG_clean_linker_0, # of connection points: 2
#     Edge 49, Type (0, 0), BuildingBlock: OJICUG_clean_linker_0, # of connection points: 2
#     Edge 50, Type (0, 0), BuildingBlock: OJICUG_clean_linker_0, # of connection points: 2
#     Edge 51, Type (0, 0), BuildingBlock: OJICUG_clean_linker_0, # of connection points: 2
#     Edge 52, Type (0, 0), BuildingBlock: OJICUG_clean_linker_0, # of connection points: 2
#     Edge 53, Type (0, 0), BuildingBlock: OJICUG_clean_linker_0, # of connection points: 2
# Relax obj value: 0.243
# Max RMSD: 0.165
# Mean RMSD: 0.156
data_MOF--net-une--node1-QUQFOY_clean_sbu_3--edge1-OJICUG_clean_linker_0
_symmetry_space_group_name_H-M    P1
_symmetry_Int_Tables_number       1
_symmetry_cell_setting            triclinic
loop_
_symmetry_equiv_pos_as_xyz
'x, y, z'
_cell_length_a     30.034112
_cell_length_b     30.082141
_cell_length_c     41.923259
_cell_angle_alpha  90.243594
_cell_angle_beta   89.352832
_cell_angle_gamma 120.84329
loop_
_atom_site_label
_atom_site_type_symbol
_atom_site_fract_x
_atom_site_fract_y
_atom_site_fract_z
_atom_type_partial_charge
C0 C 0.41738 0.05663 0.01343 0.0
O1 O 0.42009 0.08652 -0.00872 0.0
Cd2 Cd 0.35225 0.10386 0.98372 0.0
O3 O 0.38497 0.04517 0.0364 0.0
Cd4 Cd 0.31651 0.06627 0.05067 0.0
C5 C 0.25795 -0.02322 -0.00323 0.0
O6 O 0.33401 0.14569 0.02564 0.0
O7 O 0.2544 0.08137 0.02451 0.0
O8 O 0.34388 0.11027 0.10177 0.0
C9 C 0.28602 0.12976 0.02286 0.0
O10 O 0.2813 0.01504 0.97769 0.0
C11 C 0.2992 0.08511 0.11484 0.0
O12 O 0.26498 -0.01745 0.02675 0.0
O13 O 0.26489 0.04554 0.09996 0.0
C14 C 0.85691 0.20145 0.10084 0.0
O15 O 0.90071 0.20734 0.09337 0.0
Cd16 Cd -0.04697 0.24851 0.04777 0.0
O17 O 0.83969 0.2269 0.08624 0.0
Cd18 Cd 0.87517 0.29142 0.04008 0.0
C19 C 0.84542 0.18365 0.00032 0.0
O20 O -0.03146 0.33279 0.04107 0.0
O21 O 0.9319 0.31728 -0.00489 0.0
O22 O 0.87727 0.36931 0.05752 0.0
C23 C -0.02678 0.3401 0.01111 0.0
O24 O 0.88902 0.19098 0.00947 0.0
C25 C 0.86123 0.3759 0.03095 0.0
O26 O 0.82931 0.21378 0.00879 0.0
O27 O 0.8396 0.33694 0.01248 0.0
C28 C 0.5686 0.49401 -0.00097 0.0
O29 O 0.59579 0.5024 0.97393 0.0
Cd30 Cd 0.67904 0.57613 0.96516 0.0
O31 O 0.58907 0.51908 0.02467 0.0
Cd32 Cd 0.67652 0.58879 0.04182 0.0
C33 C 0.64545 0.6602 -0.00046 0.0
O34 O 0.73814 0.58916 0.00475 0.0
O35 O 0.75218 0.66365 0.02171 0.0
O36 O 0.70767 0.55998 0.08621 0.0
C37 C 0.76819 0.63793 0.00661 0.0
O38 O 0.6602 0.64433 0.97568 0.0
C39 C 0.71842 0.59931 0.10327 0.0
O40 O 0.64257 0.64283 0.0276 0.0
O41 O 0.70063 0.62742 0.09417 0.0
C42 C 0.50603 0.92792 -0.00942 0.0
O43 O 0.52136 0.91475 0.01488 0.0
Cd44 Cd 0.57857 0.88219 0.01565 0.0
O45 O 0.51774 0.92027 0.96246 0.0
Cd46 Cd 0.57309 0.88463 0.94353 0.0
C47 C 0.67542 -0.01605 0.97549 0.0
O48 O 0.55461 0.81305 0.97959 0.0
O49 O 0.63306 0.8605 0.96166 0.0
O50 O 0.53605 0.82691 0.89676 0.0
C51 C 0.59854 0.81812 0.97393 0.0
O52 O 0.66274 0.95604 0.00052 0.0
C53 C 0.57689 0.85302 0.87983 0.0
O54 O 0.64573 0.97029 0.95159 0.0
O55 O 0.61068 0.89689 0.89065 0.0
C56 C -0.0092 0.58193 0.98033 0.0
O57 O 0.01354 0.61786 0.00071 0.0
Cd58 Cd 0.06733 0.70968 -0.00338 0.0
O59 O -0.00203 0.592 0.95038 0.0
Cd60 Cd 0.04763 0.67906 0.92194 0.0
C61 C -0.03144 0.70977 0.95995 0.0
O62 O 0.12508 0.73429 0.95326 0.0
O63 O 0.08982 0.77034 0.92773 0.0
O64 O 0.09228 0.67898 0.87313 0.0
C65 C 0.12796 0.77551 0.94333 0.0
O66 O 0.00099 0.72888 0.98261 0.0
C67 C 0.07015 0.69727 0.85634 0.0
O68 O -0.02501 0.68594 0.93693 0.0
O69 O 0.03012 0.69511 0.86842 0.0
C70 C 0.35452 0.4261 0.97645 0.0
O71 O 0.32982 0.43217 -0.00083 0.0
Cd72 Cd 0.23954 0.39391 0.00692 0.0
O73 O 0.33144 0.40217 0.95095 0.0
Cd74 Cd 0.23829 0.35583 0.93406 0.0
C75 C 0.22579 0.27563 -0.00647 0.0
O76 O 0.20518 0.40604 0.95946 0.0
O77 O 0.15092 0.32536 0.9493 0.0
O78 O 0.23054 0.37654 0.87905 0.0
C79 C 0.15863 0.36959 0.95662 0.0
O80 O 0.22447 0.30691 0.01353 0.0
C81 C 0.20504 0.32923 0.8705 0.0
O82 O 0.23124 0.28512 0.96381 0.0
O83 O 0.20428 0.29623 0.88963 0.0
C84 C 0.08724 0.39671 0.34454 0.0
O85 O 0.09035 0.42593 0.32182 0.0
Cd86 Cd 0.01476 0.42766 0.30911 0.0
O87 O 0.05296 0.38411 0.36657 0.0
Cd88 Cd -0.018 0.40166 0.38199 0.0
C89 C 0.92956 0.30139 0.33416 0.0
O90 O -0.00875 0.46968 0.34748 0.0
O91 O 0.91272 0.40867 0.35963 0.0
O92 O 0.01087 0.45627 0.42951 0.0
C93 C 0.94283 0.45291 0.34762 0.0
O94 O -0.04589 0.33493 0.3124 0.0
C95 C -0.03094 0.42841 0.44525 0.0
O96 O 0.9315 0.31417 0.36332 0.0
O97 O 0.9371 0.3844 0.43353 0.0
C98 C 0.52513 0.53184 0.43576 0.0
O99 O 0.56954 0.53832 0.42948 0.0
Cd100 Cd 0.61842 0.57384 0.38209 0.0
O101 O 0.50756 0.55548 0.41955 0.0
Cd102 Cd 0.54286 0.61769 0.37238 0.0
C103 C 0.50772 0.50552 0.33724 0.0
O104 O 0.63623 0.65846 0.37258 0.0
O105 O 0.59826 0.63921 0.32693 0.0
O106 O 0.54573 0.69633 0.38911 0.0
C107 C 0.63997 0.66368 0.34246 0.0
O108 O 0.55093 0.51236 0.3468 0.0
C109 C 0.52962 0.7027 0.36251 0.0
O110 O 0.49352 0.53792 0.34359 0.0
O111 O 0.50846 0.66378 0.34399 0.0
C112 C 0.23221 0.81914 0.33593 0.0
O113 O 0.25925 0.82122 0.31195 0.0
Cd114 Cd 0.32597 0.90595 0.29936 0.0
O115 O 0.25325 0.85173 0.3586 0.0
Cd116 Cd 0.34271 0.92453 0.3717 0.0
C117 C 0.28422 -0.02095 0.34012 0.0
O118 O 0.40031 0.93004 0.32945 0.0
O119 O 0.41139 0.00272 0.34766 0.0
O120 O 0.38236 0.8984 0.41307 0.0
C121 C 0.428 -0.02096 0.3309 0.0
O122 O 0.28993 0.96001 0.31426 0.0
C123 C 0.39324 0.9372 0.43069 0.0
O124 O 0.30027 0.97243 0.36656 0.0
O125 O 0.37343 0.96415 0.42314 0.0
C126 C 0.16917 0.26208 0.32289 0.0
O127 O 0.18029 0.24551 0.34748 0.0
Cd128 Cd 0.23015 0.20545 0.34832 0.0
O129 O 0.18161 0.25405 0.29504 0.0
Cd130 Cd 0.23196 0.21073 0.27924 0.0
C131 C 0.33437 0.30594 0.31293 0.0
O132 O 0.19576 0.13353 0.3123 0.0
O133 O 0.2794 0.17812 0.30768 0.0
O134 O 0.19945 0.15908 0.22943 0.0
C135 C 0.23876 0.13564 0.31474 0.0
O136 O 0.31898 0.27655 0.33735 0.0
C137 C 0.24447 0.18003 0.21669 0.0
O138 O 0.3063 0.29433 0.2884 0.0
O139 O 0.28039 0.21897 0.23096 0.0
C140 C 0.65263 0.91044 0.31322 0.0
O141 O 0.67487 0.94578 0.33397 0.0
Cd142 Cd 0.72807 0.03688 0.3291 0.0
O143 O 0.65998 0.92162 0.2834 0.0
Cd144 Cd 0.71047 0.01143 0.25788 0.0
C145 C 0.63072 0.04144 0.29417 0.0
O146 O 0.79089 0.05869 0.28781 0.0
O147 O 0.75152 0.0994 0.27579 0.0
O148 O 0.75484 0.0172 0.20716 0.0
C149 C 0.79216 0.10129 0.2855 0.0
O150 O 0.66282 0.05937 0.31702 0.0
C151 C 0.73441 0.03936 0.19257 0.0
O152 O 0.6369 0.01739 0.27122 0.0
O153 O 0.69662 0.03915 0.20652 0.0
C154 C 0.01917 0.75188 0.30975 0.0
O155 O -0.01072 0.74572 0.33314 0.0
Cd156 Cd 0.89771 0.70804 0.33559 0.0
O157 O 0.0018 0.74028 0.28129 0.0
Cd158 Cd 0.91137 0.69761 0.26028 0.0
C159 C 0.88695 0.59827 0.30893 0.0
O160 O 0.87372 0.73928 0.29109 0.0
O161 O 0.82171 0.66331 0.27206 0.0
O162 O 0.90451 0.72361 0.20622 0.0
C163 C 0.82788 0.70461 0.28424 0.0
O164 O 0.87323 0.61729 0.3315 0.0
C165 C 0.88259 0.67724 0.19581 0.0
O166 O 0.90451 0.62226 0.28276 0.0
O167 O 0.88406 0.64394 0.21353 0.0
C168 C 0.75244 0.72679 0.67827 0.0
O169 O 0.75702 0.75693 0.65572 0.0
Cd170 Cd 0.68444 0.7639 0.64241 0.0
O171 O 0.71808 0.71492 0.70013 0.0
Cd172 Cd 0.64914 0.73581 0.71462 0.0
C173 C 0.5957 0.63763 0.66509 0.0
O174 O 0.66147 0.80614 0.68099 0.0
O175 O 0.58204 0.74588 0.69188 0.0
O176 O 0.67811 0.78862 0.76274 0.0
C177 C 0.61329 0.7905 0.68073 0.0
O178 O 0.62115 0.67182 0.64382 0.0
C179 C 0.63556 0.76151 0.77794 0.0
O180 O 0.59769 0.6494 0.69446 0.0
O181 O 0.60279 0.71827 0.76566 0.0
C182 C 0.19569 0.86374 0.76802 0.0
O183 O 0.23988 0.87035 0.76083 0.0
Cd184 Cd 0.28841 0.90932 0.71367 0.0
O185 O 0.17809 0.8886 0.75318 0.0
Cd186 Cd 0.21276 0.9539 0.70762 0.0
C187 C 0.17744 0.84516 0.66861 0.0
O188 O 0.30614 -0.00568 0.70629 0.0
O189 O 0.26638 -0.02308 0.66128 0.0
O190 O 0.21671 0.03222 0.72596 0.0
C191 C 0.30875 0.00035 0.67622 0.0
O192 O 0.22082 0.85131 0.67723 0.0
C193 C 0.19931 0.03893 0.69997 0.0
O194 O 0.1631 0.87669 0.67701 0.0
O195 O 0.17663 5e-05 0.68152 0.0
C196 C 0.8998 0.16457 0.6685 0.0
O197 O 0.92916 0.17598 0.64416 0.0
Cd198 Cd 0.0145 0.24733 0.63878 0.0
O199 O 0.91799 0.18599 0.69544 0.0
Cd200 Cd 0.00512 0.25311 0.71525 0.0
C201 C -0.01764 0.33169 0.67366 0.0
O202 O 0.06794 0.2522 0.67994 0.0
O203 O 0.08517 0.32706 0.69789 0.0
O204 O 0.03063 0.21906 0.75988 0.0
C205 C 0.10012 0.3003 0.68296 0.0
O206 O -0.00116 0.31735 0.64992 0.0
C207 C 0.04185 0.25784 0.77758 0.0
O208 O -0.02438 0.31119 0.70113 0.0
O209 O 0.02633 0.28788 0.76854 0.0
C210 C 0.83496 0.59227 0.6575 0.0
O211 O 0.84802 0.57758 0.68215 0.0
Cd212 Cd 0.90518 0.545 0.68426 0.0
O213 O 0.84827 0.58534 0.62967 0.0
Cd214 Cd 0.90282 0.5484 0.61133 0.0
C215 C 0.00325 0.64741 0.64474 0.0
O216 O 0.88513 0.47736 0.64777 0.0
O217 O -0.03628 0.52648 0.63048 0.0
O218 O 0.86733 0.49086 0.56435 0.0
C219 C 0.92999 0.48407 0.64312 0.0
O220 O -0.01073 0.61952 0.66982 0.0
C221 C 0.90837 0.51745 0.54766 0.0
O222 O -0.02502 0.63383 0.62017 0.0
O223 O 0.94169 0.56133 0.55871 0.0
C224 C 0.32549 0.24473 0.64866 0.0
O225 O 0.35025 0.28032 0.66891 0.0
Cd226 Cd 0.40254 0.37139 0.66317 0.0
O227 O 0.32998 0.25533 0.61877 0.0
Cd228 Cd 0.37837 0.34404 0.59219 0.0
C229 C 0.29926 0.37014 0.63258 0.0
O230 O 0.46086 0.39414 0.61939 0.0
O231 O 0.41794 0.43208 0.60934 0.0
O232 O 0.41953 0.34682 0.54107 0.0
C233 C 0.46005 0.43577 0.61764 0.0
O234 O 0.33396 0.38994 0.65394 0.0
C235 C 0.39977 0.36982 0.52671 0.0
O236 O 0.30419 0.34682 0.60871 0.0
O237 O 0.36295 0.37102 0.54102 0.0
C238 C 0.68572 0.09079 0.64072 0.0
O239 O 0.65534 0.08354 0.66404 0.0
Cd240 Cd 0.56371 0.04421 0.66672 0.0
O241 O 0.66867 0.07884 0.61222 0.0
Cd242 Cd 0.57838 0.03295 0.59112 0.0
C243 C 0.55696 0.93574 0.64114 0.0
O244 O 0.53999 0.07409 0.62151 0.0
O245 O 0.48807 -0.00132 0.60186 0.0
O246 O 0.57434 0.05924 0.53669 0.0
C247 C 0.49414 0.03957 0.61463 0.0
O248 O 0.54196 0.95425 0.66331 0.0
C249 C 0.55274 0.01298 0.52613 0.0
O250 O 0.57407 0.95928 0.61478 0.0
O251 O 0.55242 -0.02081 0.54431 0.0
C252 C 0.46535 0.02673 0.97864 0.0
C253 C 0.44368 0.02664 0.00867 0.0
H254 H 0.50029 -0.00553 0.94899 0.0
C255 C 0.44106 -0.00771 0.03221 0.0
H256 H 0.46733 0.05208 0.95969 0.0
C257 C 0.45977 0.95903 0.02592 0.0
C258 C 0.4809 0.95881 -0.00421 0.0
H259 H 0.424 -0.00937 0.05541 0.0
H260 H 0.45773 0.93347 0.04474 0.0
C261 C 0.48339 -0.00703 0.97221 0.0
C262 C 0.88895 0.4377 0.98469 0.0
C263 C 0.88351 0.42912 0.01795 0.0
H264 H 0.92785 0.49217 0.94651 0.0
C265 C 0.91053 0.47175 0.03825 0.0
H266 H 0.86915 0.40564 0.96827 0.0
C267 C 0.94465 0.5209 0.02579 0.0
C268 C -0.04709 0.52909 -0.0074 0.0
H269 H 0.90756 0.46665 0.06391 0.0
H270 H -0.03432 0.55231 0.04247 0.0
C271 C 0.92337 0.48716 0.97214 0.0
C272 C 0.43815 0.43256 0.95923 0.0
C273 C 0.40895 0.44092 0.98226 0.0
H274 H 0.51131 0.4408 0.94693 0.0
C275 C 0.43079 0.45987 0.01244 0.0
H276 H 0.42211 0.41688 0.93604 0.0
C277 C 0.4813 0.47241 0.01898 0.0
C278 C 0.51164 0.46694 -0.00461 0.0
H279 H 0.4091 0.46571 0.03112 0.0
H280 H 0.49738 0.48907 0.04199 0.0
C281 C 0.48899 0.44545 0.96573 0.0
C282 C 0.13793 0.36801 0.31128 0.0
C283 C 0.11364 0.36667 0.34057 0.0
H284 H 0.17289 0.33496 0.28224 0.0
C285 C 0.10734 0.3301 0.36361 0.0
H286 H 0.14296 0.39523 0.29275 0.0
C287 C 0.12412 0.29532 0.35737 0.0
C288 C 0.14723 0.29587 0.32784 0.0
H289 H 0.08828 0.32744 0.38621 0.0
H290 H 0.11869 0.2677 0.37574 0.0
C291 C 0.15421 0.33278 0.30491 0.0
C292 C 0.55495 0.76502 0.31665 0.0
C293 C 0.55013 0.75585 0.34986 0.0
H294 H 0.59185 0.82066 0.27877 0.0
C295 C 0.5759 0.79829 0.37041 0.0
H296 H 0.53607 0.73308 0.30006 0.0
C297 C 0.60828 0.84802 0.35824 0.0
C298 C 0.616 0.85699 0.32507 0.0
H299 H 0.57337 0.79276 0.39604 0.0
H300 H 0.62849 0.8793 0.37512 0.0
C301 C 0.58766 0.81509 0.30437 0.0
C302 C 0.10309 0.75792 0.29472 0.0
C303 C 0.07329 0.76703 0.31685 0.0
H304 H 0.17587 0.76447 0.28407 0.0
C305 C 0.09406 0.78661 0.34714 0.0
H306 H 0.08771 0.7415 0.27155 0.0
C307 C 0.14447 0.79936 0.35454 0.0
C308 C 0.17529 0.79265 0.33185 0.0
H309 H 0.07172 0.79316 0.36501 0.0
H310 H 0.16006 0.81677 0.37748 0.0
C311 C 0.15334 0.77018 0.30223 0.0
C312 C 0.81786 0.6611 0.63896 0.0
C313 C 0.81144 0.62476 0.66217 0.0
H314 H 0.80657 0.7233 0.62637 0.0
C315 C 0.78833 0.62448 0.69165 0.0
H316 H 0.8365 0.66311 0.6163 0.0
C317 C 0.77136 0.65926 0.69761 0.0
C318 C 0.77773 0.69565 0.67438 0.0
H319 H 0.78337 0.59731 0.71021 0.0
H320 H 0.75252 0.65705 0.72022 0.0
C321 C 0.8016 0.69635 0.64507 0.0
C322 C 0.28297 0.18371 0.69451 0.0
C323 C 0.28846 0.19194 0.66123 0.0
H324 H 0.24879 0.12952 0.7329 0.0
C325 C 0.25701 0.15017 0.64113 0.0
H326 H 0.30554 0.21501 0.71097 0.0
C327 C 0.22342 0.10077 0.654 0.0
C328 C 0.22075 0.09214 0.68723 0.0
H329 H 0.25935 0.15527 0.61549 0.0
H330 H 0.20207 0.06876 0.63776 0.0
C331 C 0.24963 0.13465 0.70729 0.0
C332 C 0.7589 0.12259 0.67921 0.0
C333 C 0.74029 0.10784 0.64793 0.0
H334 H 0.82335 0.15034 0.71062 0.0
C335 C 0.77301 0.10568 0.62464 0.0
H336 H 0.73445 0.12385 0.69795 0.0
C337 C 0.82382 0.11991 0.63215 0.0
C338 C 0.84322 0.13708 0.66305 0.0
H339 H 0.75955 0.09331 0.60056 0.0
H340 H 0.84855 0.11953 0.61327 0.0
C341 C 0.80972 0.13699 0.68669 0.0
C342 C 0.3226 0.15474 0.15541 0.0
C343 C 0.28548 0.10662 0.1427 0.0
H344 H 0.33848 0.21611 0.18774 0.0
C345 C 0.23387 0.08341 0.15383 0.0
H346 H 0.36252 0.17417 0.14713 0.0
C347 C 0.21981 0.10792 0.17704 0.0
C348 C 0.25702 0.15627 0.18952 0.0
H349 H 0.20409 0.04672 0.14421 0.0
H350 H 0.17997 0.08875 0.18542 0.0
C351 C 0.30857 0.17922 0.17842 0.0
C352 C 0.84119 0.12662 0.1351 0.0
C353 C 0.82375 0.15907 0.12368 0.0
H354 H 0.82607 0.06238 0.16453 0.0
C355 C 0.77362 0.14759 0.13238 0.0
H356 H 0.87914 0.13334 0.12853 0.0
C357 C 0.74275 0.10607 0.15304 0.0
C358 C 0.76119 0.07489 0.16527 0.0
H359 H 0.75849 0.17101 0.12359 0.0
H360 H 0.70518 0.0996 0.16036 0.0
C361 C 0.81033 0.0851 0.15543 0.0
C362 C 0.8243 0.68963 0.15965 0.0
C363 C 0.8453 0.65954 0.1692 0.0
H364 H 0.7664 0.69343 0.13262 0.0
C365 C 0.8229 0.60853 0.15771 0.0
H366 H 0.83977 0.72861 0.16862 0.0
C367 C 0.78032 0.58805 0.13726 0.0
C368 C 0.75874 0.61788 0.12819 0.0
H369 H 0.83762 0.58401 0.16505 0.0
H370 H 0.76448 0.54894 0.12846 0.0
C371 C 0.78135 0.66896 0.13959 0.0
C372 C 0.63868 0.85824 0.8374 0.0
C373 C 0.58955 0.83018 0.85219 0.0
H374 H 0.69227 0.85826 0.80336 0.0
C375 C 0.55639 0.77829 0.84326 0.0
H376 H 0.66561 0.89806 0.84396 0.0
C377 C 0.57203 0.75517 0.82004 0.0
C378 C 0.62133 0.78331 0.80541 0.0
H379 H 0.51866 0.75527 0.85453 0.0
H380 H 0.54526 0.71539 0.81333 0.0
C381 C 0.65439 0.83511 0.81443 0.0
C382 C 0.14958 0.74736 0.82247 0.0
C383 C 0.09828 0.73352 0.82957 0.0
H384 H 0.22061 0.79984 0.79881 0.0
C385 C 0.07864 0.76263 0.81578 0.0
H386 H 0.16632 0.72643 0.83291 0.0
C387 C 0.11021 0.8056 0.79629 0.0
C388 C 0.1622 0.82057 0.79028 0.0
H389 H 0.03943 0.75347 0.82103 0.0
H390 H 0.09398 0.82722 0.78617 0.0
C391 C 0.18108 0.79031 0.80328 0.0
C392 C 0.14973 0.34459 0.83365 0.0
C393 C 0.16717 0.31194 0.84424 0.0
H394 H 0.09507 0.35239 0.80574 0.0
C395 C 0.14131 0.26018 0.8338 0.0
H396 H 0.16791 0.38431 0.84178 0.0
C397 C 0.09912 0.24165 0.81308 0.0
C398 C 0.08124 0.27422 0.80294 0.0
H399 H 0.15326 0.2338 0.84199 0.0
H400 H 0.0807 0.20195 0.8049 0.0
C401 C 0.10706 0.32586 0.81354 0.0
C402 C -0.01326 0.50174 0.48178 0.0
C403 C -0.04554 0.44977 0.4728 0.0
H404 H -0.00313 0.56414 0.51149 0.0
C405 C 0.90542 0.42079 0.48765 0.0
H406 H 0.0244 0.5255 0.47056 0.0
C407 C 0.88924 0.44324 0.51099 0.0
C408 C 0.92163 0.49527 0.51992 0.0
H409 H 0.87922 0.38086 0.48099 0.0
H410 H 0.85172 0.41958 0.52238 0.0
C411 C -0.02947 0.52418 0.50495 0.0
C412 C 0.50825 0.45718 0.47044 0.0
C413 C 0.49136 0.48983 0.45861 0.0
H414 H 0.49189 0.39254 0.49976 0.0
C415 C 0.44102 0.47849 0.4666 0.0
H416 H 0.54632 0.46376 0.46438 0.0
C417 C 0.40936 0.43686 0.48701 0.0
C418 C 0.42718 0.40536 0.49955 0.0
H419 H 0.42633 0.50208 0.45745 0.0
H420 H 0.37165 0.43049 0.49386 0.0
C421 C 0.47657 0.41546 0.49038 0.0
C422 C 0.4976 0.02663 0.48812 0.0
C423 C 0.51772 -0.00388 0.49839 0.0
H424 H 0.44131 0.03117 0.45988 0.0
C425 C 0.4962 0.9455 0.48635 0.0
H426 H 0.51248 0.06534 0.49739 0.0
C427 C 0.45498 0.92565 0.46484 0.0
C428 C 0.43384 0.9557 0.4554 0.0
H429 H 0.51036 0.92074 0.49418 0.0
H430 H 0.43945 0.8867 0.45582 0.0
C431 C 0.45594 0.00653 0.46712 0.0
C432 C 0.21592 0.88064 0.00017 0.0
C433 C 0.22501 0.92491 0.98337 0.0
H434 H 0.1789 0.79786 8e-05 0.0
C435 C 0.20461 0.91959 0.95273 0.0
H436 H 0.23195 0.8839 0.02367 0.0
C437 C 0.17451 0.87077 0.93939 0.0
C438 C 0.16491 0.82649 0.95625 0.0
H439 H 0.21127 0.95312 0.9392 0.0
H440 H 0.15816 0.86758 0.91599 0.0
C441 C 0.18636 0.83164 0.98655 0.0
C442 C 0.06978 0.38608 0.0118 0.0
C443 C 0.02316 0.35849 -0.005 0.0
H444 H 0.15113 0.4128 0.01193 0.0
C445 C 0.02389 0.3431 0.96342 0.0
H446 H 0.07005 0.39873 0.03607 0.0
C447 C 0.06956 0.35024 0.95007 0.0
C448 C 0.11524 0.37422 0.96773 0.0
H449 H -0.01143 0.3221 0.94979 0.0
H450 H 0.06867 0.33457 0.92659 0.0
C451 C 0.11596 0.39441 -0.00198 0.0
C452 C 0.66197 0.7388 0.97114 0.0
C453 C 0.6336 0.70095 -0.00571 0.0
H454 H 0.67327 0.80606 0.94704 0.0
C455 C 0.5939 0.70212 0.01156 0.0
H456 H 0.69303 0.73877 0.95774 0.0
C457 C 0.58185 0.74023 0.005 0.0
C458 C 0.61044 0.77808 0.98178 0.0
H459 H 0.57155 0.67298 0.02947 0.0
H460 H 0.55058 0.74029 0.01809 0.0
C461 C 0.65085 0.77736 0.96517 0.0
C462 C 0.76729 0.04023 -0.00943 0.0
C463 C 0.72334 0.03439 0.97538 0.0
H464 H 0.84211 0.09298 0.00905 0.0
C465 C 0.72378 0.07796 0.96315 0.0
H466 H 0.76773 0.0069 -0.00014 0.0
C467 C 0.76586 0.12742 0.96897 0.0
C468 C 0.80836 0.13347 0.98625 0.0
H469 H 0.69008 0.07403 0.95128 0.0
H470 H 0.76389 0.16085 0.96163 0.0
C471 C 0.80993 0.08945 -0.00449 0.0
C472 C 0.85897 0.71009 0.00201 0.0
C473 C 0.81763 0.66424 -0.01036 0.0
H474 H 0.94104 0.76192 0.00149 0.0
C475 C 0.82502 0.64166 0.96243 0.0
H476 H 0.85357 0.72851 0.02275 0.0
C477 C 0.8745 0.66156 0.94969 0.0
C478 C 0.91718 0.70314 0.9648 0.0
H479 H 0.79308 0.60704 0.95207 0.0
H480 H 0.87969 0.64096 0.93011 0.0
C481 C 0.90879 0.72934 -0.01025 0.0
C482 C 0.272 0.24646 0.02775 0.0
C483 C 0.2336 0.23442 0.00495 0.0
H484 H 0.32022 0.22288 0.05034 0.0
C485 C 0.21092 0.18681 0.98898 0.0
H486 H 0.29077 0.28358 0.03978 0.0
C487 C 0.22712 0.15189 -0.00457 0.0
C488 C 0.26759 0.16532 0.01688 0.0
H489 H 0.18188 0.1774 0.97092 0.0
H490 H 0.2096 0.1154 0.98274 0.0
C491 C 0.28948 0.21239 0.03333 0.0
C492 C 0.85001 0.21506 0.34009 0.0
C493 C 0.89777 0.2471 0.32486 0.0
H494 H 0.7783 0.14258 0.33884 0.0
C495 C 0.91328 0.22806 0.29901 0.0
H496 H 0.83734 0.22917 0.35996 0.0
C497 C 0.88018 0.17824 0.28754 0.0
C498 C 0.83117 0.14772 0.30151 0.0
H499 H 0.9503 0.25223 0.28714 0.0
H500 H 0.89154 0.16482 0.26669 0.0
C501 C 0.8165 0.16578 0.32814 0.0
C502 C 0.78325 0.72303 0.32795 0.0
C503 C 0.78294 0.70526 0.29694 0.0
H504 H 0.73692 0.72303 0.3672 0.0
C505 C 0.73688 0.68071 0.27962 0.0
H506 H 0.81866 0.74198 0.34163 0.0
C507 C 0.69072 0.67061 0.29389 0.0
C508 C 0.6899 0.68382 0.32596 0.0
H509 H 0.73622 0.66708 0.25555 0.0
H510 H 0.6553 0.64947 0.28038 0.0
C511 C 0.73667 0.7119 0.34256 0.0
C512 C 0.21346 0.04366 0.31142 0.0
C513 C 0.24237 0.09203 0.32616 0.0
H514 H 0.20503 0.96915 0.3041 0.0
C515 C 0.28009 0.10044 0.3486 0.0
H516 H 0.18453 0.03695 0.2938 0.0
C517 C 0.29064 0.0615 0.35518 0.0
C518 C 0.26482 0.01458 0.33848 0.0
H519 H 0.30277 0.13779 0.36004 0.0
H520 H 0.32158 0.06948 0.37152 0.0
C521 C 0.22527 0.00525 0.31717 0.0
C522 C 0.4678 0.41027 0.33694 0.0
C523 C 0.46924 0.4545 0.32484 0.0
H524 H 0.4228 0.32803 0.34314 0.0
C525 C 0.42887 0.4488 0.30549 0.0
H526 H 0.49827 0.41368 0.35221 0.0
C527 C 0.38626 0.39964 0.29979 0.0
C528 C 0.38292 0.35595 0.3142 0.0
H529 H 0.42919 0.48241 0.29602 0.0
H530 H 0.35444 0.39621 0.28588 0.0
C531 C 0.42453 0.36136 0.33206 0.0
C532 C 0.53905 0.00335 0.27864 0.0
C533 C 0.58076 0.03875 0.29751 0.0
H534 H 0.4567 0.9558 0.27511 0.0
C535 C 0.5715 0.06297 0.32331 0.0
H536 H 0.54498 -0.01536 0.25826 0.0
C537 C 0.52074 0.04704 0.33247 0.0
C538 C 0.47928 0.00636 0.31615 0.0
H539 H 0.60306 0.09095 0.33794 0.0
H540 H 0.51408 0.06294 0.354 0.0
C541 C 0.4885 -0.01337 0.28824 0.0
C542 C 0.9323 0.55043 0.29851 0.0
C543 C 0.89329 0.55392 0.31519 0.0
H544 H -0.02066 0.51603 0.29639 0.0
C545 C 0.86666 0.51962 0.34041 0.0
H546 H -0.04626 0.57655 0.27903 0.0
C547 C 0.88076 0.48411 0.34981 0.0
C548 C 0.92254 0.48381 0.33465 0.0
H549 H 0.83651 0.52165 0.35359 0.0
H550 H 0.86119 0.45916 0.3701 0.0
C551 C 0.94735 0.51618 0.30851 0.0
C552 C 0.54554 0.51606 0.61653 0.0
C553 C 0.49913 0.48317 0.6327 0.0
H554 H 0.61286 0.59194 0.61428 0.0
C555 C 0.48621 0.49961 0.66079 0.0
H556 H 0.55537 0.50391 0.59451 0.0
C557 C 0.51891 0.54942 0.67225 0.0
C558 C 0.56406 0.58356 0.65517 0.0
H559 H 0.44986 0.4746 0.67315 0.0
H560 H 0.50761 0.562 0.6935 0.0
C561 C 0.5778 0.56628 0.62762 0.0
C562 C 0.40234 0.01399 0.61191 0.0
C563 C 0.44935 0.03967 0.62821 0.0
H564 H 0.32076 -0.01742 0.61423 0.0
C565 C 0.4512 0.05884 0.65903 0.0
H566 H 0.40043 -0.00074 0.588 0.0
C567 C 0.40538 0.04827 0.67445 0.0
C568 C 0.35778 0.01943 0.65884 0.0
H569 H 0.48734 0.07871 0.67195 0.0
H570 H 0.4069 0.06064 0.69892 0.0
C571 C 0.3569 0.0045 0.62696 0.0
C572 C 0.92735 0.37053 0.68312 0.0
C573 C -0.02934 0.37258 0.66853 0.0
H574 H 0.87947 0.4043 0.6859 0.0
C575 C 0.00138 0.41245 0.64701 0.0
H576 H 0.90307 0.33972 0.69968 0.0
C577 C -0.01147 0.44934 0.63959 0.0
C578 C 0.94415 0.44641 0.65309 0.0
H579 H 0.03513 0.41479 0.63566 0.0
H580 H 0.01263 0.47933 0.62252 0.0
C581 C 0.91374 0.40704 0.67512 0.0
C582 C 0.09668 0.79029 0.63804 0.0
C583 C 0.13876 0.79513 0.65523 0.0
H584 H 0.02033 0.73839 0.62054 0.0
C585 C 0.13864 0.75043 0.66495 0.0
H586 H 0.09601 0.82431 0.6304 0.0
C587 C 0.09499 0.70183 0.6603 0.0
C588 C 0.05168 0.69727 0.64498 0.0
H589 H 0.17043 0.75309 0.67849 0.0
H590 H 0.09426 0.668 0.66978 0.0
C591 C 0.05356 0.7414 0.6325 0.0
C592 C 0.15558 0.30281 0.63828 0.0
C593 C 0.14967 0.32525 0.66607 0.0
H594 H 0.20839 0.30179 0.60453 0.0
C595 C 0.19214 0.37004 0.6786 0.0
H596 H 0.12282 0.26902 0.62781 0.0
C597 C 0.24139 0.38866 0.66553 0.0
C598 C 0.24814 0.36296 0.63958 0.0
H599 H 0.18789 0.38832 0.69981 0.0
H600 H 0.27442 0.42064 0.67712 0.0
C601 C 0.20448 0.32207 0.62479 0.0
C602 C 0.62102 0.85691 0.64288 0.0
C603 C 0.59431 0.82275 0.66799 0.0
H604 H 0.62854 0.91834 0.6139 0.0
C605 C 0.55114 0.8217 0.68208 0.0
H606 H 0.65418 0.85792 0.6316 0.0
C607 C 0.53695 0.85706 0.67248 0.0
C608 C 0.56491 0.89259 0.64805 0.0
H609 H 0.5301 0.79544 0.70159 0.0
H610 H 0.5053 0.85768 0.68471 0.0
C611 C 0.60595 0.89106 0.63265 0.0
loop_
_geom_bond_atom_site_label_1
_geom_bond_atom_site_label_2
_geom_bond_distance
_geom_bond_site_symmetry_2
_ccdc_geom_bond_type
C0 O1 1.306 . S
C0 O3 1.160 . S
O1 C0 1.306 . S
O1 Cd2 2.228 1_554 S
Cd2 O1 2.228 1_556 S
Cd2 O6 2.273 1_556 S
Cd2 O10 2.277 1_546 S
O3 C0 1.160 . S
O3 Cd4 2.203 . S
Cd4 O3 2.203 . S
Cd4 O6 2.411 . S
Cd4 O7 2.333 . S
Cd4 O8 2.352 . S
Cd4 O12 2.277 1_545 S
Cd4 O13 2.356 . S
C5 O10 1.209 . S
C5 O12 1.226 . S
O6 Cd2 2.273 1_554 S
O6 Cd4 2.411 . S
O6 C9 1.320 . S
O7 Cd4 2.333 . S
O7 C9 1.214 . S
O8 Cd4 2.352 . S
O8 C11 1.258 . S
C9 O6 1.320 . S
C9 O7 1.214 . S
O10 Cd2 2.277 1_564 S
O10 C5 1.209 . S
C11 O8 1.258 . S
C11 O13 1.282 . S
O12 Cd4 2.277 1_565 S
O12 C5 1.226 . S
O13 Cd4 2.356 . S
O13 C11 1.282 . S
C14 O15 1.306 . S
C14 O17 1.160 . S
O15 C14 1.306 . S
O15 Cd16 2.228 . S
Cd16 O15 2.228 . S
Cd16 O20 2.273 1_655 S
Cd16 O24 2.277 . S
O17 C14 1.160 . S
O17 Cd18 2.203 . S
Cd18 O17 2.203 . S
Cd18 O20 2.411 1_655 S
Cd18 O21 2.333 1_655 S
Cd18 O22 2.352 1_655 S
Cd18 O26 2.277 . S
Cd18 O27 2.356 . S
C19 O24 1.209 . S
C19 O26 1.226 . S
O20 Cd16 2.273 1_455 S
O20 Cd18 2.411 1_455 S
O20 C23 1.320 . S
O21 Cd18 2.333 1_455 S
O21 C23 1.214 . S
O22 Cd18 2.352 1_455 S
O22 C25 1.258 1_455 S
C23 O20 1.320 . S
C23 O21 1.214 . S
O24 Cd16 2.277 . S
O24 C19 1.209 . S
C25 O22 1.258 1_655 S
C25 O27 1.282 . S
O26 Cd18 2.277 . S
O26 C19 1.226 . S
O27 Cd18 2.356 . S
O27 C25 1.282 . S
C28 O29 1.306 . S
C28 O31 1.160 . S
O29 C28 1.306 . S
O29 Cd30 2.228 1_554 S
Cd30 O29 2.228 1_556 S
Cd30 O34 2.273 1_556 S
Cd30 O38 2.277 1_556 S
O31 C28 1.160 . S
O31 Cd32 2.203 . S
Cd32 O31 2.203 . S
Cd32 O34 2.411 . S
Cd32 O35 2.333 . S
Cd32 O36 2.352 . S
Cd32 O40 2.277 . S
Cd32 O41 2.356 . S
C33 O38 1.209 . S
C33 O40 1.226 . S
O34 Cd30 2.273 1_554 S
O34 Cd32 2.411 . S
O34 C37 1.320 . S
O35 Cd32 2.333 . S
O35 C37 1.214 . S
O36 Cd32 2.352 . S
O36 C39 1.258 . S
C37 O34 1.320 . S
C37 O35 1.214 . S
O38 Cd30 2.277 1_554 S
O38 C33 1.209 . S
C39 O36 1.258 . S
C39 O41 1.282 . S
O40 Cd32 2.277 . S
O40 C33 1.226 . S
O41 Cd32 2.356 . S
O41 C39 1.282 . S
C42 O43 1.306 . S
C42 O45 1.160 . S
O43 C42 1.306 . S
O43 Cd44 2.228 1_556 S
Cd44 O43 2.228 1_554 S
Cd44 O48 2.273 1_554 S
Cd44 O52 2.277 1_564 S
O45 C42 1.160 . S
O45 Cd46 2.203 . S
Cd46 O45 2.203 . S
Cd46 O48 2.411 . S
Cd46 O49 2.333 . S
Cd46 O50 2.352 . S
Cd46 O54 2.277 1_565 S
Cd46 O55 2.356 . S
C47 O52 1.209 . S
C47 O54 1.226 . S
O48 Cd44 2.273 1_556 S
O48 Cd46 2.411 . S
O48 C51 1.320 . S
O49 Cd46 2.333 . S
O49 C51 1.214 . S
O50 Cd46 2.352 . S
O50 C53 1.258 . S
C51 O48 1.320 . S
C51 O49 1.214 . S
O52 Cd44 2.277 1_546 S
O52 C47 1.209 . S
C53 O50 1.258 . S
C53 O55 1.282 . S
O54 Cd46 2.277 1_545 S
O54 C47 1.226 . S
O55 Cd46 2.356 . S
O55 C53 1.282 . S
C56 O57 1.306 . S
C56 O59 1.160 . S
O57 C56 1.306 . S
O57 Cd58 2.228 1_556 S
Cd58 O57 2.228 1_554 S
Cd58 O62 2.273 1_554 S
Cd58 O66 2.277 1_454 S
O59 C56 1.160 . S
O59 Cd60 2.203 . S
Cd60 O59 2.203 . S
Cd60 O62 2.411 . S
Cd60 O63 2.333 . S
Cd60 O64 2.352 . S
Cd60 O68 2.277 1_455 S
Cd60 O69 2.356 . S
C61 O66 1.209 . S
C61 O68 1.226 . S
O62 Cd58 2.273 1_556 S
O62 Cd60 2.411 . S
O62 C65 1.320 . S
O63 Cd60 2.333 . S
O63 C65 1.214 . S
O64 Cd60 2.352 . S
O64 C67 1.258 . S
C65 O62 1.320 . S
C65 O63 1.214 . S
O66 Cd58 2.277 1_656 S
O66 C61 1.209 . S
C67 O64 1.258 . S
C67 O69 1.282 . S
O68 Cd60 2.277 1_655 S
O68 C61 1.226 . S
O69 Cd60 2.356 . S
O69 C67 1.282 . S
C70 O71 1.306 . S
C70 O73 1.160 . S
O71 C70 1.306 . S
O71 Cd72 2.228 1_556 S
Cd72 O71 2.228 1_554 S
Cd72 O76 2.273 1_554 S
Cd72 O80 2.277 1_554 S
O73 C70 1.160 . S
O73 Cd74 2.203 . S
Cd74 O73 2.203 . S
Cd74 O76 2.411 . S
Cd74 O77 2.333 . S
Cd74 O78 2.352 . S
Cd74 O82 2.277 . S
Cd74 O83 2.356 . S
C75 O80 1.209 . S
C75 O82 1.226 . S
O76 Cd72 2.273 1_556 S
O76 Cd74 2.411 . S
O76 C79 1.320 . S
O77 Cd74 2.333 . S
O77 C79 1.214 . S
O78 Cd74 2.352 . S
O78 C81 1.258 . S
C79 O76 1.320 . S
C79 O77 1.214 . S
O80 Cd72 2.277 1_556 S
O80 C75 1.209 . S
C81 O78 1.258 . S
C81 O83 1.282 . S
O82 Cd74 2.277 . S
O82 C75 1.226 . S
O83 Cd74 2.356 . S
O83 C81 1.282 . S
C84 O85 1.306 . S
C84 O87 1.160 . S
O85 C84 1.306 . S
O85 Cd86 2.228 . S
Cd86 O85 2.228 . S
Cd86 O90 2.273 . S
Cd86 O94 2.277 1_455 S
O87 C84 1.160 . S
O87 Cd88 2.203 1_455 S
Cd88 O87 2.203 1_655 S
Cd88 O90 2.411 1_655 S
Cd88 O91 2.333 . S
Cd88 O92 2.352 1_655 S
Cd88 O96 2.277 . S
Cd88 O97 2.356 . S
C89 O94 1.209 . S
C89 O96 1.226 . S
O90 Cd86 2.273 . S
O90 Cd88 2.411 1_455 S
O90 C93 1.320 1_455 S
O91 Cd88 2.333 . S
O91 C93 1.214 . S
O92 Cd88 2.352 1_455 S
O92 C95 1.258 . S
C93 O90 1.320 1_655 S
C93 O91 1.214 . S
O94 Cd86 2.277 1_655 S
O94 C89 1.209 . S
C95 O92 1.258 . S
C95 O97 1.282 1_455 S
O96 Cd88 2.277 . S
O96 C89 1.226 . S
O97 Cd88 2.356 . S
O97 C95 1.282 1_655 S
C98 O99 1.306 . S
C98 O101 1.160 . S
O99 C98 1.306 . S
O99 Cd100 2.228 . S
Cd100 O99 2.228 . S
Cd100 O104 2.273 . S
Cd100 O108 2.277 . S
O101 C98 1.160 . S
O101 Cd102 2.203 . S
Cd102 O101 2.203 . S
Cd102 O104 2.411 . S
Cd102 O105 2.333 . S
Cd102 O106 2.352 . S
Cd102 O110 2.277 . S
Cd102 O111 2.356 . S
C103 O108 1.209 . S
C103 O110 1.226 . S
O104 Cd100 2.273 . S
O104 Cd102 2.411 . S
O104 C107 1.320 . S
O105 Cd102 2.333 . S
O105 C107 1.214 . S
O106 Cd102 2.352 . S
O106 C109 1.258 . S
C107 O104 1.320 . S
C107 O105 1.214 . S
O108 Cd100 2.277 . S
O108 C103 1.209 . S
C109 O106 1.258 . S
C109 O111 1.282 . S
O110 Cd102 2.277 . S
O110 C103 1.226 . S
O111 Cd102 2.356 . S
O111 C109 1.282 . S
C112 O113 1.306 . S
C112 O115 1.160 . S
O113 C112 1.306 . S
O113 Cd114 2.228 . S
Cd114 O113 2.228 . S
Cd114 O118 2.273 . S
Cd114 O122 2.277 1_565 S
O115 C112 1.160 . S
O115 Cd116 2.203 1_565 S
Cd116 O115 2.203 1_545 S
Cd116 O118 2.411 1_545 S
Cd116 O119 2.333 . S
Cd116 O120 2.352 1_545 S
Cd116 O124 2.277 . S
Cd116 O125 2.356 . S
C117 O122 1.209 . S
C117 O124 1.226 . S
O118 Cd114 2.273 . S
O118 Cd116 2.411 1_565 S
O118 C121 1.320 1_565 S
O119 Cd116 2.333 . S
O119 C121 1.214 . S
O120 Cd116 2.352 1_565 S
O120 C123 1.258 . S
C121 O118 1.320 1_545 S
C121 O119 1.214 . S
O122 Cd114 2.277 1_545 S
O122 C117 1.209 . S
C123 O120 1.258 . S
C123 O125 1.282 1_565 S
O124 Cd116 2.277 . S
O124 C117 1.226 . S
O125 Cd116 2.356 . S
O125 C123 1.282 1_545 S
C126 O127 1.306 . S
C126 O129 1.160 . S
O127 C126 1.306 . S
O127 Cd128 2.228 . S
Cd128 O127 2.228 . S
Cd128 O132 2.273 . S
Cd128 O136 2.277 . S
O129 C126 1.160 . S
O129 Cd130 2.203 . S
Cd130 O129 2.203 . S
Cd130 O132 2.411 . S
Cd130 O133 2.333 . S
Cd130 O134 2.352 . S
Cd130 O138 2.277 . S
Cd130 O139 2.356 . S
C131 O136 1.209 . S
C131 O138 1.226 . S
O132 Cd128 2.273 . S
O132 Cd130 2.411 . S
O132 C135 1.320 . S
O133 Cd130 2.333 . S
O133 C135 1.214 . S
O134 Cd130 2.352 . S
O134 C137 1.258 . S
C135 O132 1.320 . S
C135 O133 1.214 . S
O136 Cd128 2.277 . S
O136 C131 1.209 . S
C137 O134 1.258 . S
C137 O139 1.282 . S
O138 Cd130 2.277 . S
O138 C131 1.226 . S
O139 Cd130 2.356 . S
O139 C137 1.282 . S
C140 O141 1.306 . S
C140 O143 1.160 . S
O141 C140 1.306 . S
O141 Cd142 2.228 1_565 S
Cd142 O141 2.228 1_545 S
Cd142 O146 2.273 . S
Cd142 O150 2.277 . S
O143 C140 1.160 . S
O143 Cd144 2.203 1_565 S
Cd144 O143 2.203 1_545 S
Cd144 O146 2.411 . S
Cd144 O147 2.333 . S
Cd144 O148 2.352 . S
Cd144 O152 2.277 . S
Cd144 O153 2.356 . S
C145 O150 1.209 . S
C145 O152 1.226 . S
O146 Cd142 2.273 . S
O146 Cd144 2.411 . S
O146 C149 1.320 . S
O147 Cd144 2.333 . S
O147 C149 1.214 . S
O148 Cd144 2.352 . S
O148 C151 1.258 . S
C149 O146 1.320 . S
C149 O147 1.214 . S
O150 Cd142 2.277 . S
O150 C145 1.209 . S
C151 O148 1.258 . S
C151 O153 1.282 . S
O152 Cd144 2.277 . S
O152 C145 1.226 . S
O153 Cd144 2.356 . S
O153 C151 1.282 . S
C154 O155 1.306 . S
C154 O157 1.160 . S
O155 C154 1.306 . S
O155 Cd156 2.228 1_455 S
Cd156 O155 2.228 1_655 S
Cd156 O160 2.273 . S
Cd156 O164 2.277 . S
O157 C154 1.160 . S
O157 Cd158 2.203 1_455 S
Cd158 O157 2.203 1_655 S
Cd158 O160 2.411 . S
Cd158 O161 2.333 . S
Cd158 O162 2.352 . S
Cd158 O166 2.277 . S
Cd158 O167 2.356 . S
C159 O164 1.209 . S
C159 O166 1.226 . S
O160 Cd156 2.273 . S
O160 Cd158 2.411 . S
O160 C163 1.320 . S
O161 Cd158 2.333 . S
O161 C163 1.214 . S
O162 Cd158 2.352 . S
O162 C165 1.258 . S
C163 O160 1.320 . S
C163 O161 1.214 . S
O164 Cd156 2.277 . S
O164 C159 1.209 . S
C165 O162 1.258 . S
C165 O167 1.282 . S
O166 Cd158 2.277 . S
O166 C159 1.226 . S
O167 Cd158 2.356 . S
O167 C165 1.282 . S
C168 O169 1.306 . S
C168 O171 1.160 . S
O169 C168 1.306 . S
O169 Cd170 2.228 . S
Cd170 O169 2.228 . S
Cd170 O174 2.273 . S
Cd170 O178 2.277 . S
O171 C168 1.160 . S
O171 Cd172 2.203 . S
Cd172 O171 2.203 . S
Cd172 O174 2.411 . S
Cd172 O175 2.333 . S
Cd172 O176 2.352 . S
Cd172 O180 2.277 . S
Cd172 O181 2.356 . S
C173 O178 1.209 . S
C173 O180 1.226 . S
O174 Cd170 2.273 . S
O174 Cd172 2.411 . S
O174 C177 1.320 . S
O175 Cd172 2.333 . S
O175 C177 1.214 . S
O176 Cd172 2.352 . S
O176 C179 1.258 . S
C177 O174 1.320 . S
C177 O175 1.214 . S
O178 Cd170 2.277 . S
O178 C173 1.209 . S
C179 O176 1.258 . S
C179 O181 1.282 . S
O180 Cd172 2.277 . S
O180 C173 1.226 . S
O181 Cd172 2.356 . S
O181 C179 1.282 . S
C182 O183 1.306 . S
C182 O185 1.160 . S
O183 C182 1.306 . S
O183 Cd184 2.228 . S
Cd184 O183 2.228 . S
Cd184 O188 2.273 . S
Cd184 O192 2.277 . S
O185 C182 1.160 . S
O185 Cd186 2.203 . S
Cd186 O185 2.203 . S
Cd186 O188 2.411 . S
Cd186 O189 2.333 . S
Cd186 O190 2.352 1_565 S
Cd186 O194 2.277 . S
Cd186 O195 2.356 1_565 S
C187 O192 1.209 . S
C187 O194 1.226 . S
O188 Cd184 2.273 . S
O188 Cd186 2.411 . S
O188 C191 1.320 . S
O189 Cd186 2.333 . S
O189 C191 1.214 . S
O190 Cd186 2.352 1_545 S
O190 C193 1.258 . S
C191 O188 1.320 . S
C191 O189 1.214 . S
O192 Cd184 2.277 . S
O192 C187 1.209 . S
C193 O190 1.258 . S
C193 O195 1.282 . S
O194 Cd186 2.277 . S
O194 C187 1.226 . S
O195 Cd186 2.356 1_545 S
O195 C193 1.282 . S
C196 O197 1.306 . S
C196 O199 1.160 . S
O197 C196 1.306 . S
O197 Cd198 2.228 1_655 S
Cd198 O197 2.228 1_455 S
Cd198 O202 2.273 . S
Cd198 O206 2.277 . S
O199 C196 1.160 . S
O199 Cd200 2.203 1_655 S
Cd200 O199 2.203 1_455 S
Cd200 O202 2.411 . S
Cd200 O203 2.333 . S
Cd200 O204 2.352 . S
Cd200 O208 2.277 . S
Cd200 O209 2.356 . S
C201 O206 1.209 . S
C201 O208 1.226 . S
O202 Cd198 2.273 . S
O202 Cd200 2.411 . S
O202 C205 1.320 . S
O203 Cd200 2.333 . S
O203 C205 1.214 . S
O204 Cd200 2.352 . S
O204 C207 1.258 . S
C205 O202 1.320 . S
C205 O203 1.214 . S
O206 Cd198 2.277 . S
O206 C201 1.209 . S
C207 O204 1.258 . S
C207 O209 1.282 . S
O208 Cd200 2.277 . S
O208 C201 1.226 . S
O209 Cd200 2.356 . S
O209 C207 1.282 . S
C210 O211 1.306 . S
C210 O213 1.160 . S
O211 C210 1.306 . S
O211 Cd212 2.228 . S
Cd212 O211 2.228 . S
Cd212 O216 2.273 . S
Cd212 O220 2.277 1_655 S
O213 C210 1.160 . S
O213 Cd214 2.203 1_655 S
Cd214 O213 2.203 1_455 S
Cd214 O216 2.411 1_455 S
Cd214 O217 2.333 . S
Cd214 O218 2.352 1_455 S
Cd214 O222 2.277 . S
Cd214 O223 2.356 . S
C215 O220 1.209 . S
C215 O222 1.226 . S
O216 Cd212 2.273 . S
O216 Cd214 2.411 1_655 S
O216 C219 1.320 1_655 S
O217 Cd214 2.333 . S
O217 C219 1.214 . S
O218 Cd214 2.352 1_655 S
O218 C221 1.258 . S
C219 O216 1.320 1_455 S
C219 O217 1.214 . S
O220 Cd212 2.277 1_455 S
O220 C215 1.209 . S
C221 O218 1.258 . S
C221 O223 1.282 1_655 S
O222 Cd214 2.277 . S
O222 C215 1.226 . S
O223 Cd214 2.356 . S
O223 C221 1.282 1_455 S
C224 O225 1.306 . S
C224 O227 1.160 . S
O225 C224 1.306 . S
O225 Cd226 2.228 . S
Cd226 O225 2.228 . S
Cd226 O230 2.273 . S
Cd226 O234 2.277 . S
O227 C224 1.160 . S
O227 Cd228 2.203 . S
Cd228 O227 2.203 . S
Cd228 O230 2.411 . S
Cd228 O231 2.333 . S
Cd228 O232 2.352 . S
Cd228 O236 2.277 . S
Cd228 O237 2.356 . S
C229 O234 1.209 . S
C229 O236 1.226 . S
O230 Cd226 2.273 . S
O230 Cd228 2.411 . S
O230 C233 1.320 . S
O231 Cd228 2.333 . S
O231 C233 1.214 . S
O232 Cd228 2.352 . S
O232 C235 1.258 . S
C233 O230 1.320 . S
C233 O231 1.214 . S
O234 Cd226 2.277 . S
O234 C229 1.209 . S
C235 O232 1.258 . S
C235 O237 1.282 . S
O236 Cd228 2.277 . S
O236 C229 1.226 . S
O237 Cd228 2.356 . S
O237 C235 1.282 . S
C238 O239 1.306 . S
C238 O241 1.160 . S
O239 C238 1.306 . S
O239 Cd240 2.228 . S
Cd240 O239 2.228 . S
Cd240 O244 2.273 . S
Cd240 O248 2.277 1_545 S
O241 C238 1.160 . S
O241 Cd242 2.203 1_545 S
Cd242 O241 2.203 1_565 S
Cd242 O244 2.411 1_565 S
Cd242 O245 2.333 . S
Cd242 O246 2.352 1_565 S
Cd242 O250 2.277 . S
Cd242 O251 2.356 . S
C243 O248 1.209 . S
C243 O250 1.226 . S
O244 Cd240 2.273 . S
O244 Cd242 2.411 1_545 S
O244 C247 1.320 1_545 S
O245 Cd242 2.333 . S
O245 C247 1.214 . S
O246 Cd242 2.352 1_545 S
O246 C249 1.258 . S
C247 O244 1.320 1_565 S
C247 O245 1.214 . S
O248 Cd240 2.277 1_565 S
O248 C243 1.209 . S
C249 O246 1.258 . S
C249 O251 1.282 1_545 S
O250 Cd242 2.277 . S
O250 C243 1.226 . S
O251 Cd242 2.356 . S
O251 C249 1.282 1_565 S
C252 C253 1.387 . S
C252 H256 0.950 . S
C252 C261 1.390 1_554 S
C253 C252 1.387 . S
C253 C255 1.387 1_545 S
H254 C261 0.950 . S
C255 C253 1.387 1_565 S
C255 C257 1.390 . S
C255 H259 0.950 . S
H256 C252 0.950 . S
C257 C255 1.390 . S
C257 C258 1.387 1_554 S
C257 H260 0.950 . S
C258 C257 1.387 1_556 S
C258 C261 1.387 1_565 S
H259 C255 0.950 . S
H260 C257 0.950 . S
C261 C252 1.390 1_556 S
C261 H254 0.950 . S
C261 C258 1.387 1_545 S
C262 C263 1.387 1_456 S
C262 H266 0.950 . S
C262 C271 1.390 . S
C263 C262 1.387 1_654 S
C263 C265 1.387 . S
H264 C271 0.950 . S
C265 C263 1.387 . S
C265 C267 1.390 . S
C265 H269 0.950 . S
H266 C262 0.950 . S
C267 C265 1.390 . S
C267 C268 1.387 1_654 S
C267 H270 0.950 . S
C268 C267 1.387 1_456 S
C268 C271 1.387 . S
H269 C265 0.950 . S
H270 C267 0.950 . S
C271 C262 1.390 . S
C271 H264 0.950 . S
C271 C268 1.387 . S
C272 C273 1.387 . S
C272 H276 0.950 . S
C272 C281 1.390 . S
C273 C272 1.387 . S
C273 C275 1.387 1_556 S
H274 C281 0.950 . S
C275 C273 1.387 1_554 S
C275 C277 1.390 . S
C275 H279 0.950 . S
H276 C272 0.950 . S
C277 C275 1.390 . S
C277 C278 1.387 . S
C277 H280 0.950 . S
C278 C277 1.387 . S
C278 C281 1.387 1_554 S
H279 C275 0.950 . S
H280 C277 0.950 . S
C281 C272 1.390 . S
C281 H274 0.950 . S
C281 C278 1.387 1_556 S
C282 C283 1.387 . S
C282 H286 0.950 . S
C282 C291 1.390 . S
C283 C282 1.387 . S
C283 C285 1.387 . S
H284 C291 0.950 . S
C285 C283 1.387 . S
C285 C287 1.390 . S
C285 H289 0.950 . S
H286 C282 0.950 . S
C287 C285 1.390 . S
C287 C288 1.387 . S
C287 H290 0.950 . S
C288 C287 1.387 . S
C288 C291 1.387 . S
H289 C285 0.950 . S
H290 C287 0.950 . S
C291 C282 1.390 . S
C291 H284 0.950 . S
C291 C288 1.387 . S
C292 C293 1.387 . S
C292 H296 0.950 . S
C292 C301 1.390 . S
C293 C292 1.387 . S
C293 C295 1.387 . S
H294 C301 0.950 . S
C295 C293 1.387 . S
C295 C297 1.390 . S
C295 H299 0.950 . S
H296 C292 0.950 . S
C297 C295 1.390 . S
C297 C298 1.387 . S
C297 H300 0.950 . S
C298 C297 1.387 . S
C298 C301 1.387 . S
H299 C295 0.950 . S
H300 C297 0.950 . S
C301 C292 1.390 . S
C301 H294 0.950 . S
C301 C298 1.387 . S
C302 C303 1.387 . S
C302 H306 0.950 . S
C302 C311 1.390 . S
C303 C302 1.387 . S
C303 C305 1.387 . S
H304 C311 0.950 . S
C305 C303 1.387 . S
C305 C307 1.390 . S
C305 H309 0.950 . S
H306 C302 0.950 . S
C307 C305 1.390 . S
C307 C308 1.387 . S
C307 H310 0.950 . S
C308 C307 1.387 . S
C308 C311 1.387 . S
H309 C305 0.950 . S
H310 C307 0.950 . S
C311 C302 1.390 . S
C311 H304 0.950 . S
C311 C308 1.387 . S
C312 C313 1.387 . S
C312 H316 0.950 . S
C312 C321 1.390 . S
C313 C312 1.387 . S
C313 C315 1.387 . S
H314 C321 0.950 . S
C315 C313 1.387 . S
C315 C317 1.390 . S
C315 H319 0.950 . S
H316 C312 0.950 . S
C317 C315 1.390 . S
C317 C318 1.387 . S
C317 H320 0.950 . S
C318 C317 1.387 . S
C318 C321 1.387 . S
H319 C315 0.950 . S
H320 C317 0.950 . S
C321 C312 1.390 . S
C321 H314 0.950 . S
C321 C318 1.387 . S
C322 C323 1.387 . S
C322 H326 0.950 . S
C322 C331 1.390 . S
C323 C322 1.387 . S
C323 C325 1.387 . S
H324 C331 0.950 . S
C325 C323 1.387 . S
C325 C327 1.390 . S
C325 H329 0.950 . S
H326 C322 0.950 . S
C327 C325 1.390 . S
C327 C328 1.387 . S
C327 H330 0.950 . S
C328 C327 1.387 . S
C328 C331 1.387 . S
H329 C325 0.950 . S
H330 C327 0.950 . S
C331 C322 1.390 . S
C331 H324 0.950 . S
C331 C328 1.387 . S
C332 C333 1.387 . S
C332 H336 0.950 . S
C332 C341 1.390 . S
C333 C332 1.387 . S
C333 C335 1.387 . S
H334 C341 0.950 . S
C335 C333 1.387 . S
C335 C337 1.390 . S
C335 H339 0.950 . S
H336 C332 0.950 . S
C337 C335 1.390 . S
C337 C338 1.387 . S
C337 H340 0.950 . S
C338 C337 1.387 . S
C338 C341 1.387 . S
H339 C335 0.950 . S
H340 C337 0.950 . S
C341 C332 1.390 . S
C341 H334 0.950 . S
C341 C338 1.387 . S
C342 C343 1.387 . S
C342 H346 0.950 . S
C342 C351 1.390 . S
C343 C342 1.387 . S
C343 C345 1.387 . S
H344 C351 0.950 . S
C345 C343 1.387 . S
C345 C347 1.390 . S
C345 H349 0.950 . S
H346 C342 0.950 . S
C347 C345 1.390 . S
C347 C348 1.387 . S
C347 H350 0.950 . S
C348 C347 1.387 . S
C348 C351 1.387 . S
H349 C345 0.950 . S
H350 C347 0.950 . S
C351 C342 1.390 . S
C351 H344 0.950 . S
C351 C348 1.387 . S
C352 C353 1.387 . S
C352 H356 0.950 . S
C352 C361 1.390 . S
C353 C352 1.387 . S
C353 C355 1.387 . S
H354 C361 0.950 . S
C355 C353 1.387 . S
C355 C357 1.390 . S
C355 H359 0.950 . S
H356 C352 0.950 . S
C357 C355 1.390 . S
C357 C358 1.387 . S
C357 H360 0.950 . S
C358 C357 1.387 . S
C358 C361 1.387 . S
H359 C355 0.950 . S
H360 C357 0.950 . S
C361 C352 1.390 . S
C361 H354 0.950 . S
C361 C358 1.387 . S
C362 C363 1.387 . S
C362 H366 0.950 . S
C362 C371 1.390 . S
C363 C362 1.387 . S
C363 C365 1.387 . S
H364 C371 0.950 . S
C365 C363 1.387 . S
C365 C367 1.390 . S
C365 H369 0.950 . S
H366 C362 0.950 . S
C367 C365 1.390 . S
C367 C368 1.387 . S
C367 H370 0.950 . S
C368 C367 1.387 . S
C368 C371 1.387 . S
H369 C365 0.950 . S
H370 C367 0.950 . S
C371 C362 1.390 . S
C371 H364 0.950 . S
C371 C368 1.387 . S
C372 C373 1.387 . S
C372 H376 0.950 . S
C372 C381 1.390 . S
C373 C372 1.387 . S
C373 C375 1.387 . S
H374 C381 0.950 . S
C375 C373 1.387 . S
C375 C377 1.390 . S
C375 H379 0.950 . S
H376 C372 0.950 . S
C377 C375 1.390 . S
C377 C378 1.387 . S
C377 H380 0.950 . S
C378 C377 1.387 . S
C378 C381 1.387 . S
H379 C375 0.950 . S
H380 C377 0.950 . S
C381 C372 1.390 . S
C381 H374 0.950 . S
C381 C378 1.387 . S
C382 C383 1.387 . S
C382 H386 0.950 . S
C382 C391 1.390 . S
C383 C382 1.387 . S
C383 C385 1.387 . S
H384 C391 0.950 . S
C385 C383 1.387 . S
C385 C387 1.390 . S
C385 H389 0.950 . S
H386 C382 0.950 . S
C387 C385 1.390 . S
C387 C388 1.387 . S
C387 H390 0.950 . S
C388 C387 1.387 . S
C388 C391 1.387 . S
H389 C385 0.950 . S
H390 C387 0.950 . S
C391 C382 1.390 . S
C391 H384 0.950 . S
C391 C388 1.387 . S
C392 C393 1.387 . S
C392 H396 0.950 . S
C392 C401 1.390 . S
C393 C392 1.387 . S
C393 C395 1.387 . S
H394 C401 0.950 . S
C395 C393 1.387 . S
C395 C397 1.390 . S
C395 H399 0.950 . S
H396 C392 0.950 . S
C397 C395 1.390 . S
C397 C398 1.387 . S
C397 H400 0.950 . S
C398 C397 1.387 . S
C398 C401 1.387 . S
H399 C395 0.950 . S
H400 C397 0.950 . S
C401 C392 1.390 . S
C401 H394 0.950 . S
C401 C398 1.387 . S
C402 C403 1.387 . S
C402 H406 0.950 . S
C402 C411 1.390 . S
C403 C402 1.387 . S
C403 C405 1.387 1_455 S
H404 C411 0.950 . S
C405 C403 1.387 1_655 S
C405 C407 1.390 . S
C405 H409 0.950 . S
H406 C402 0.950 . S
C407 C405 1.390 . S
C407 C408 1.387 . S
C407 H410 0.950 . S
C408 C407 1.387 . S
C408 C411 1.387 1_655 S
H409 C405 0.950 . S
H410 C407 0.950 . S
C411 C402 1.390 . S
C411 H404 0.950 . S
C411 C408 1.387 1_455 S
C412 C413 1.387 . S
C412 H416 0.950 . S
C412 C421 1.390 . S
C413 C412 1.387 . S
C413 C415 1.387 . S
H414 C421 0.950 . S
C415 C413 1.387 . S
C415 C417 1.390 . S
C415 H419 0.950 . S
H416 C412 0.950 . S
C417 C415 1.390 . S
C417 C418 1.387 . S
C417 H420 0.950 . S
C418 C417 1.387 . S
C418 C421 1.387 . S
H419 C415 0.950 . S
H420 C417 0.950 . S
C421 C412 1.390 . S
C421 H414 0.950 . S
C421 C418 1.387 . S
C422 C423 1.387 . S
C422 H426 0.950 . S
C422 C431 1.390 . S
C423 C422 1.387 . S
C423 C425 1.387 1_545 S
H424 C431 0.950 . S
C425 C423 1.387 1_565 S
C425 C427 1.390 . S
C425 H429 0.950 . S
H426 C422 0.950 . S
C427 C425 1.390 . S
C427 C428 1.387 . S
C427 H430 0.950 . S
C428 C427 1.387 . S
C428 C431 1.387 1_565 S
H429 C425 0.950 . S
H430 C427 0.950 . S
C431 C422 1.390 . S
C431 H424 0.950 . S
C431 C428 1.387 1_545 S
C432 C433 1.387 . S
C432 H436 0.950 . S
C432 C441 1.390 1_554 S
C433 C432 1.387 . S
C433 C435 1.387 . S
H434 C441 0.950 . S
C435 C433 1.387 . S
C435 C437 1.390 1_554 S
C435 H439 0.950 . S
H436 C432 0.950 . S
C437 C435 1.390 1_556 S
C437 C438 1.387 . S
C437 H440 0.950 . S
C438 C437 1.387 . S
C438 C441 1.387 . S
H439 C435 0.950 . S
H440 C437 0.950 . S
C441 C432 1.390 1_556 S
C441 H434 0.950 . S
C441 C438 1.387 . S
C442 C443 1.387 . S
C442 H446 0.950 . S
C442 C451 1.390 1_554 S
C443 C442 1.387 . S
C443 C445 1.387 . S
H444 C451 0.950 . S
C445 C443 1.387 . S
C445 C447 1.390 1_554 S
C445 H449 0.950 . S
H446 C442 0.950 . S
C447 C445 1.390 1_556 S
C447 C448 1.387 . S
C447 H450 0.950 . S
C448 C447 1.387 . S
C448 C451 1.387 . S
H449 C445 0.950 . S
H450 C447 0.950 . S
C451 C442 1.390 1_556 S
C451 H444 0.950 . S
C451 C448 1.387 . S
C452 C453 1.387 1_556 S
C452 H456 0.950 . S
C452 C461 1.390 . S
C453 C452 1.387 1_554 S
C453 C455 1.387 . S
H454 C461 0.950 . S
C455 C453 1.387 . S
C455 C457 1.390 . S
C455 H459 0.950 . S
H456 C452 0.950 . S
C457 C455 1.390 . S
C457 C458 1.387 1_554 S
C457 H460 0.950 . S
C458 C457 1.387 1_556 S
C458 C461 1.387 . S
H459 C455 0.950 . S
H460 C457 0.950 . S
C461 C452 1.390 . S
C461 H454 0.950 . S
C461 C458 1.387 . S
C462 C463 1.387 1_554 S
C462 H466 0.950 . S
C462 C471 1.390 . S
C463 C462 1.387 1_556 S
C463 C465 1.387 . S
H464 C471 0.950 . S
C465 C463 1.387 . S
C465 C467 1.390 . S
C465 H469 0.950 . S
H466 C462 0.950 . S
C467 C465 1.390 . S
C467 C468 1.387 1_556 S
C467 H470 0.950 . S
C468 C467 1.387 1_554 S
C468 C471 1.387 . S
H469 C465 0.950 . S
H470 C467 0.950 . S
C471 C462 1.390 . S
C471 H464 0.950 . S
C471 C468 1.387 . S
C472 C473 1.387 . S
C472 H476 0.950 . S
C472 C481 1.390 1_554 S
C473 C472 1.387 . S
C473 C475 1.387 . S
H474 C481 0.950 . S
C475 C473 1.387 . S
C475 C477 1.391 1_554 S
C475 H479 0.950 . S
H476 C472 0.950 . S
C477 C475 1.391 1_556 S
C477 C478 1.387 . S
C477 H480 0.950 . S
C478 C477 1.387 . S
C478 C481 1.387 . S
H479 C475 0.950 . S
H480 C477 0.950 . S
C481 C472 1.390 1_556 S
C481 H474 0.950 . S
C481 C478 1.387 . S
C482 C483 1.387 1_554 S
C482 H486 0.950 . S
C482 C491 1.390 . S
C483 C482 1.387 1_556 S
C483 C485 1.387 . S
H484 C491 0.950 . S
C485 C483 1.387 . S
C485 C487 1.390 . S
C485 H489 0.950 . S
H486 C482 0.950 . S
C487 C485 1.390 . S
C487 C488 1.387 1_556 S
C487 H490 0.950 . S
C488 C487 1.387 1_554 S
C488 C491 1.387 . S
H489 C485 0.950 . S
H490 C487 0.950 . S
C491 C482 1.390 . S
C491 H484 0.950 . S
C491 C488 1.387 . S
C492 C493 1.387 . S
C492 H496 0.950 . S
C492 C501 1.390 . S
C493 C492 1.387 . S
C493 C495 1.387 . S
H494 C501 0.950 . S
C495 C493 1.387 . S
C495 C497 1.390 . S
C495 H499 0.950 . S
H496 C492 0.950 . S
C497 C495 1.390 . S
C497 C498 1.387 . S
C497 H500 0.950 . S
C498 C497 1.387 . S
C498 C501 1.387 . S
H499 C495 0.950 . S
H500 C497 0.950 . S
C501 C492 1.390 . S
C501 H494 0.950 . S
C501 C498 1.387 . S
C502 C503 1.387 . S
C502 H506 0.950 . S
C502 C511 1.390 . S
C503 C502 1.387 . S
C503 C505 1.387 . S
H504 C511 0.950 . S
C505 C503 1.387 . S
C505 C507 1.390 . S
C505 H509 0.950 . S
H506 C502 0.950 . S
C507 C505 1.390 . S
C507 C508 1.387 . S
C507 H510 0.950 . S
C508 C507 1.387 . S
C508 C511 1.387 . S
H509 C505 0.950 . S
H510 C507 0.950 . S
C511 C502 1.390 . S
C511 H504 0.950 . S
C511 C508 1.387 . S
C512 C513 1.387 . S
C512 H516 0.950 . S
C512 C521 1.390 . S
C513 C512 1.387 . S
C513 C515 1.387 . S
H514 C521 0.950 . S
C515 C513 1.387 . S
C515 C517 1.390 . S
C515 H519 0.950 . S
H516 C512 0.950 . S
C517 C515 1.390 . S
C517 C518 1.387 . S
C517 H520 0.950 . S
C518 C517 1.387 . S
C518 C521 1.387 . S
H519 C515 0.950 . S
H520 C517 0.950 . S
C521 C512 1.390 . S
C521 H514 0.950 . S
C521 C518 1.387 . S
C522 C523 1.387 . S
C522 H526 0.950 . S
C522 C531 1.390 . S
C523 C522 1.387 . S
C523 C525 1.387 . S
H524 C531 0.950 . S
C525 C523 1.387 . S
C525 C527 1.390 . S
C525 H529 0.950 . S
H526 C522 0.950 . S
C527 C525 1.390 . S
C527 C528 1.387 . S
C527 H530 0.950 . S
C528 C527 1.387 . S
C528 C531 1.387 . S
H529 C525 0.950 . S
H530 C527 0.950 . S
C531 C522 1.390 . S
C531 H524 0.950 . S
C531 C528 1.387 . S
C532 C533 1.387 1_565 S
C532 H536 0.950 . S
C532 C541 1.390 . S
C533 C532 1.387 1_545 S
C533 C535 1.387 . S
H534 C541 0.950 . S
C535 C533 1.387 . S
C535 C537 1.390 . S
C535 H539 0.950 . S
H536 C532 0.950 . S
C537 C535 1.390 . S
C537 C538 1.387 . S
C537 H540 0.950 . S
C538 C537 1.387 . S
C538 C541 1.387 1_545 S
H539 C535 0.950 . S
H540 C537 0.950 . S
C541 C532 1.390 . S
C541 H534 0.950 . S
C541 C538 1.387 1_565 S
C542 C543 1.387 1_455 S
C542 H546 0.950 . S
C542 C551 1.390 . S
C543 C542 1.387 1_655 S
C543 C545 1.387 . S
H544 C551 0.950 . S
C545 C543 1.387 . S
C545 C547 1.390 . S
C545 H549 0.950 . S
H546 C542 0.950 . S
C547 C545 1.390 . S
C547 C548 1.387 . S
C547 H550 0.950 . S
C548 C547 1.387 . S
C548 C551 1.387 1_655 S
H549 C545 0.950 . S
H550 C547 0.950 . S
C551 C542 1.390 . S
C551 H544 0.950 . S
C551 C548 1.387 1_455 S
C552 C553 1.387 . S
C552 H556 0.950 . S
C552 C561 1.390 . S
C553 C552 1.387 . S
C553 C555 1.387 . S
H554 C561 0.950 . S
C555 C553 1.387 . S
C555 C557 1.390 . S
C555 H559 0.950 . S
H556 C552 0.950 . S
C557 C555 1.390 . S
C557 C558 1.387 . S
C557 H560 0.950 . S
C558 C557 1.387 . S
C558 C561 1.387 . S
H559 C555 0.950 . S
H560 C557 0.950 . S
C561 C552 1.390 . S
C561 H554 0.950 . S
C561 C558 1.387 . S
C562 C563 1.387 . S
C562 H566 0.950 . S
C562 C571 1.390 . S
C563 C562 1.387 . S
C563 C565 1.387 1_565 S
H564 C571 0.950 . S
C565 C563 1.387 1_545 S
C565 C567 1.390 . S
C565 H569 0.950 . S
H566 C562 0.950 . S
C567 C565 1.390 . S
C567 C568 1.387 1_545 S
C567 H570 0.950 . S
C568 C567 1.387 1_565 S
C568 C571 1.387 . S
H569 C565 0.950 . S
H570 C567 0.950 . S
C571 C562 1.390 . S
C571 H564 0.950 . S
C571 C568 1.387 . S
C572 C573 1.387 1_655 S
C572 H576 0.950 . S
C572 C581 1.390 . S
C573 C572 1.387 1_455 S
C573 C575 1.387 . S
H574 C581 0.950 . S
C575 C573 1.387 . S
C575 C577 1.390 . S
C575 H579 0.950 . S
H576 C572 0.950 . S
C577 C575 1.390 . S
C577 C578 1.387 . S
C577 H580 0.950 . S
C578 C577 1.387 . S
C578 C581 1.387 1_455 S
H579 C575 0.950 . S
H580 C577 0.950 . S
C581 C572 1.390 . S
C581 H574 0.950 . S
C581 C578 1.387 1_655 S
C582 C583 1.387 . S
C582 H586 0.950 . S
C582 C591 1.390 . S
C583 C582 1.387 . S
C583 C585 1.387 . S
H584 C591 0.950 . S
C585 C583 1.387 . S
C585 C587 1.390 . S
C585 H589 0.950 . S
H586 C582 0.950 . S
C587 C585 1.390 . S
C587 C588 1.387 . S
C587 H590 0.950 . S
C588 C587 1.387 . S
C588 C591 1.387 . S
H589 C585 0.950 . S
H590 C587 0.950 . S
C591 C582 1.390 . S
C591 H584 0.950 . S
C591 C588 1.387 . S
C592 C593 1.387 . S
C592 H596 0.950 . S
C592 C601 1.390 . S
C593 C592 1.387 . S
C593 C595 1.387 . S
H594 C601 0.950 . S
C595 C593 1.387 . S
C595 C597 1.390 . S
C595 H599 0.950 . S
H596 C592 0.950 . S
C597 C595 1.390 . S
C597 C598 1.387 . S
C597 H600 0.950 . S
C598 C597 1.387 . S
C598 C601 1.387 . S
H599 C595 0.950 . S
H600 C597 0.950 . S
C601 C592 1.390 . S
C601 H594 0.950 . S
C601 C598 1.387 . S
C602 C603 1.387 . S
C602 H606 0.950 . S
C602 C611 1.390 . S
C603 C602 1.387 . S
C603 C605 1.387 . S
H604 C611 0.950 . S
C605 C603 1.387 . S
C605 C607 1.390 . S
C605 H609 0.950 . S
H606 C602 0.950 . S
C607 C605 1.390 . S
C607 C608 1.387 . S
C607 H610 0.950 . S
C608 C607 1.387 . S
C608 C611 1.387 . S
H609 C605 0.950 . S
H610 C607 0.950 . S
C611 C602 1.390 . S
C611 H604 0.950 . S
C611 C608 1.387 . S
C253 C0 1.877 . S
C258 C42 1.880 . S
C263 C25 1.949 . S
C268 C56 1.926 . S
C273 C70 1.934 . S
C278 C28 1.933 . S
C283 C84 1.875 . S
C288 C126 1.876 . S
C293 C109 1.944 . S
C298 C140 1.920 . S
C303 C154 1.926 . S
C308 C112 1.924 . S
C313 C210 1.879 . S
C318 C168 1.874 . S
C323 C224 1.923 . S
C328 C193 1.945 . S
C333 C238 1.926 . S
C338 C196 1.925 . S
C343 C11 1.681 . S
C348 C137 1.681 . S
C353 C14 1.670 . S
C358 C151 1.706 . S
C363 C165 1.715 . S
C368 C39 1.721 . S
C373 C53 1.681 . S
C378 C179 1.680 . S
C383 C67 1.705 . S
C388 C182 1.671 . S
C393 C81 1.715 . S
C398 C207 1.721 . S
C403 C95 1.691 . S
C408 C221 1.693 . S
C413 C98 1.666 . S
C418 C235 1.701 . S
C423 C249 1.716 . S
C428 C123 1.720 . S
C433 C5 0.756 . S
C438 C65 0.758 . S
C443 C23 0.769 . S
C448 C79 0.771 . S
C453 C33 0.764 . S
C458 C51 0.764 . S
C463 C47 0.825 . S
C468 C19 0.824 . S
C473 C37 0.779 . S
C478 C61 0.778 . S
C483 C75 0.776 . S
C488 C9 0.775 . S
C493 C89 0.767 . S
C498 C149 0.767 . S
C503 C163 0.771 . S
C508 C107 0.769 . S
C513 C135 0.779 . S
C518 C117 0.781 . S
C523 C103 0.828 . S
C528 C131 0.828 . S
C533 C145 0.779 . S
C538 C121 0.776 . S
C543 C159 0.769 . S
C548 C93 0.768 . S
C553 C233 0.760 . S
C558 C173 0.760 . S
C563 C247 0.767 . S
C568 C191 0.769 . S
C573 C201 0.756 . S
C578 C219 0.759 . S
C583 C187 0.831 . S
C588 C215 0.833 . S
C593 C205 0.777 . S
C598 C229 0.779 . S
C603 C177 0.788 . S
C608 C243 0.793 . S
