# Generated by pormake.
# Topology ume, (4)-cn, num edge types: 1
# Building blocks:
#     Node 0, Type 0, BuildingBlock: QUQFOY_clean_sbu_3, # of connection points: 4
#     Node 1, Type 0, BuildingBlock: QUQFOY_clean_sbu_3, # of connection points: 4
#     Node 2, Type 0, BuildingBlock: QUQFOY_clean_sbu_3, # of connection points: 4
#     Node 3, Type 0, BuildingBlock: QUQFOY_clean_sbu_3, # of connection points: 4
#     Node 4, Type 0, BuildingBlock: QUQFOY_clean_sbu_3, # of connection points: 4
#     Node 5, Type 0, BuildingBlock: QUQFOY_clean_sbu_3, # of connection points: 4
#     Node 6, Type 0, BuildingBlock: QUQFOY_clean_sbu_3, # of connection points: 4
#     Node 7, Type 0, BuildingBlock: QUQFOY_clean_sbu_3, # of connection points: 4
#     Node 8, Type 0, BuildingBlock: QUQFOY_clean_sbu_3, # of connection points: 4
#     Node 9, Type 0, BuildingBlock: QUQFOY_clean_sbu_3, # of connection points: 4
#     Node 10, Type 0, BuildingBlock: QUQFOY_clean_sbu_3, # of connection points: 4
#     Node 11, Type 0, BuildingBlock: QUQFOY_clean_sbu_3, # of connection points: 4
#     Node 12, Type 0, BuildingBlock: QUQFOY_clean_sbu_3, # of connection points: 4
#     Node 13, Type 0, BuildingBlock: QUQFOY_clean_sbu_3, # of connection points: 4
#     Node 14, Type 0, BuildingBlock: QUQFOY_clean_sbu_3, # of connection points: 4
#     Node 15, Type 0, BuildingBlock: QUQFOY_clean_sbu_3, # of connection points: 4
#     Edge 16, Type (0, 0), None
#     Edge 17, Type (0, 0), None
#     Edge 18, Type (0, 0), None
#     Edge 19, Type (0, 0), None
#     Edge 20, Type (0, 0), None
#     Edge 21, Type (0, 0), None
#     Edge 22, Type (0, 0), None
#     Edge 23, Type (0, 0), None
#     Edge 24, Type (0, 0), None
#     Edge 25, Type (0, 0), None
#     Edge 26, Type (0, 0), None
#     Edge 27, Type (0, 0), None
#     Edge 28, Type (0, 0), None
#     Edge 29, Type (0, 0), None
#     Edge 30, Type (0, 0), None
#     Edge 31, Type (0, 0), None
#     Edge 32, Type (0, 0), None
#     Edge 33, Type (0, 0), None
#     Edge 34, Type (0, 0), None
#     Edge 35, Type (0, 0), None
#     Edge 36, Type (0, 0), None
#     Edge 37, Type (0, 0), None
#     Edge 38, Type (0, 0), None
#     Edge 39, Type (0, 0), None
#     Edge 40, Type (0, 0), None
#     Edge 41, Type (0, 0), None
#     Edge 42, Type (0, 0), None
#     Edge 43, Type (0, 0), None
#     Edge 44, Type (0, 0), None
#     Edge 45, Type (0, 0), None
#     Edge 46, Type (0, 0), None
#     Edge 47, Type (0, 0), None
# Relax obj value: 0.093
# Max RMSD: 0.141
# Mean RMSD: 0.141
data_MOF--net-ume--node1-QUQFOY_clean_sbu_3--edge1-none
_symmetry_space_group_name_H-M    P1
_symmetry_Int_Tables_number       1
_symmetry_cell_setting            triclinic
loop_
_symmetry_equiv_pos_as_xyz
'x, y, z'
_cell_length_a     13.252475
_cell_length_b     13.252458
_cell_length_c     53.434214
_cell_angle_alpha  89.646251
_cell_angle_beta   89.644723
_cell_angle_gamma 89.995571
loop_
_atom_site_label
_atom_site_type_symbol
_atom_site_fract_x
_atom_site_fract_y
_atom_site_fract_z
_atom_type_partial_charge
C0 C 0.26528 0.22515 0.22707 0.0
O1 O 0.34234 0.27078 0.23577 0.0
Cd2 Cd 0.4121 0.28661 0.27872 0.0
O3 O 0.20512 0.17715 0.24138 0.0
Cd4 Cd 0.198 0.13895 0.28589 0.0
C5 C 0.44889 0.03751 0.28891 0.0
O6 O 0.27144 0.27906 0.30597 0.0
O7 O 0.13483 0.23271 0.3234 0.0
O8 O 0.02039 0.11212 0.28165 0.0
C9 C 0.21643 0.28128 0.32534 0.0
O10 O 0.49078 0.12338 0.28609 0.0
C11 C 0.02361 0.02158 0.28954 0.0
O12 O 0.3526 0.02816 0.28916 0.0
O13 O 0.10877 0.98492 0.29573 0.0
C14 C 0.75855 0.76548 0.47851 0.0
O15 O 0.71219 0.84253 0.48711 0.0
Cd16 Cd 0.69502 0.91191 0.53005 0.0
O17 O 0.80592 0.70569 0.49288 0.0
Cd18 Cd 0.84348 0.698 0.53716 0.0
C19 C 0.94441 0.94915 0.5392 0.0
O20 O 0.70279 0.77134 0.55738 0.0
O21 O 0.7497 0.63537 0.57493 0.0
O22 O 0.8697 0.52062 0.53214 0.0
C23 C 0.70009 0.71646 0.57677 0.0
O24 O 0.85841 -0.00914 0.53666 0.0
C25 C 0.9601 0.52303 0.53988 0.0
O26 O 0.95388 0.85288 0.53967 0.0
O27 O -0.00325 0.60756 0.54649 0.0
C28 C 0.20759 0.25897 0.72695 0.0
O29 O 0.12949 0.21328 0.73526 0.0
Cd30 Cd 0.05803 0.20198 0.77807 0.0
O31 O 0.26509 0.30648 0.74158 0.0
Cd32 Cd 0.26168 0.34034 0.78587 0.0
C33 C 0.01409 0.44634 0.78869 0.0
O34 O 0.18727 0.19978 0.80924 0.0
O35 O 0.33552 0.24427 0.82052 0.0
O36 O 0.43872 0.37018 0.78131 0.0
C37 C 0.25482 0.19821 0.82591 0.0
O38 O 0.97277 0.36103 0.78514 0.0
C39 C 0.43504 0.45974 0.78951 0.0
O40 O 0.11025 0.4551 0.78947 0.0
O41 O 0.34972 0.49494 0.79623 0.0
C42 C 0.7247 0.70774 -0.0245 0.0
O43 O 0.76979 0.62969 -0.0161 0.0
Cd44 Cd 0.77957 0.55787 0.02672 0.0
O45 O 0.67644 0.76554 -0.00993 0.0
Cd46 Cd 0.64212 0.76171 0.0346 0.0
C47 C 0.53557 0.51434 0.03837 0.0
O48 O 0.78188 0.68698 0.05783 0.0
O49 O 0.73885 0.83599 0.0689 0.0
O50 O 0.61165 0.93897 0.03087 0.0
C51 C 0.78336 0.75474 0.07444 0.0
O52 O 0.62072 0.4728 0.0345 0.0
C53 C 0.52196 0.93448 0.03923 0.0
O54 O 0.52697 0.61055 0.03897 0.0
O55 O 0.48677 0.84855 0.04554 0.0
C56 C 0.27218 0.25533 0.95118 0.0
O57 O 0.35024 0.21024 0.94278 0.0
Cd58 Cd 0.42211 0.20044 0.89997 0.0
O59 O 0.21439 0.30357 0.9366 0.0
Cd60 Cd 0.21828 0.3378 0.89206 0.0
C61 C 0.46566 0.44439 0.8883 0.0
O62 O 0.29303 0.19804 0.86885 0.0
O63 O 0.14393 0.24095 0.85778 0.0
O64 O 0.04103 0.36829 0.89578 0.0
C65 C 0.22523 0.19653 0.85225 0.0
O66 O 0.50721 0.35925 0.89218 0.0
C67 C 0.04553 0.45797 0.88741 0.0
O68 O 0.36946 0.45297 0.8877 0.0
O69 O 0.13146 0.49314 0.8811 0.0
C70 C 0.72096 0.77234 0.19973 0.0
O71 O 0.76666 0.85044 0.19143 0.0
Cd72 Cd 0.778 0.92194 0.14861 0.0
O73 O 0.67348 0.71483 0.1851 0.0
Cd74 Cd 0.63972 0.7183 0.1408 0.0
C75 C 0.53368 0.96588 0.13798 0.0
O76 O 0.78028 0.79278 0.11743 0.0
O77 O 0.73588 0.64441 0.10617 0.0
O78 O 0.60985 0.54125 0.14534 0.0
C79 C 0.78182 0.72518 0.10077 0.0
O80 O 0.61898 0.00721 0.14154 0.0
C81 C 0.5203 0.54494 0.13713 0.0
O82 O 0.52494 0.86972 0.1372 0.0
O83 O 0.48513 0.63027 0.13041 0.0
C84 C 0.21457 0.22135 0.44816 0.0
O85 O 0.13751 0.26771 0.43957 0.0
Cd86 Cd 0.06809 0.28493 0.39663 0.0
O87 O 0.27437 0.17399 0.43379 0.0
Cd88 Cd 0.28202 0.13647 0.3895 0.0
C89 C 0.03085 0.03555 0.38747 0.0
O90 O 0.20863 0.27716 0.3693 0.0
O91 O 0.34469 0.23029 0.35174 0.0
O92 O 0.45941 0.11023 0.39451 0.0
C93 C 0.26357 0.27986 0.34991 0.0
O94 O 0.98914 0.12154 0.39001 0.0
C95 C 0.45699 0.01984 0.38677 0.0
O96 O 0.12712 0.02608 0.387 0.0
O97 O 0.37245 0.9832 0.38016 0.0
C98 C 0.75491 0.71477 0.69961 0.0
O99 O 0.70929 0.6377 0.69091 0.0
Cd100 Cd 0.69342 0.56787 0.64797 0.0
O101 O 0.8029 0.77493 0.68529 0.0
Cd102 Cd 0.84106 0.78199 0.64078 0.0
C103 C 0.94252 0.53108 0.63776 0.0
O104 O 0.70096 0.70849 0.6207 0.0
O105 O 0.74726 0.84522 0.60328 0.0
O106 O 0.86792 0.95961 0.645 0.0
C107 C 0.69874 0.76358 0.60135 0.0
O108 O 0.85664 0.48919 0.64059 0.0
C109 C 0.95845 0.95638 0.63711 0.0
O110 O 0.95185 0.62737 0.63751 0.0
O111 O -0.0049 0.87121 0.63092 0.0
C112 C 0.76595 0.72558 0.72689 0.0
O113 O 0.84312 0.77103 0.73558 0.0
Cd114 Cd 0.91315 0.78631 0.7785 0.0
O115 O 0.70587 0.67754 0.74121 0.0
Cd116 Cd 0.69944 0.63936 0.78571 0.0
C117 C 0.95009 0.53748 0.7888 0.0
O118 O 0.77329 0.77908 0.80606 0.0
O119 O 0.63537 0.73344 0.82301 0.0
O120 O 0.52183 0.61227 0.78157 0.0
C121 C 0.71714 0.7815 0.82523 0.0
O122 O -0.00797 0.62328 0.7859 0.0
C123 C 0.52518 0.52175 0.78946 0.0
O124 O 0.8538 0.52823 0.78907 0.0
O125 O 0.61042 0.48517 0.79562 0.0
C126 C 0.25815 0.26598 -0.02162 0.0
O127 O 0.21197 0.34316 -0.01305 0.0
Cd128 Cd 0.19534 0.4129 0.02986 0.0
O129 O 0.30559 0.2063 -0.00724 0.0
Cd130 Cd 0.3431 0.19943 0.03703 0.0
C131 C 0.44444 0.45034 0.03912 0.0
O132 O 0.20277 0.27319 0.05751 0.0
O133 O 0.24903 0.1359 0.07459 0.0
O134 O 0.36956 0.02206 0.03211 0.0
C135 C 0.1999 0.21717 0.07671 0.0
O136 O 0.35852 0.49208 0.0365 0.0
C137 C 0.45995 0.0246 0.03985 0.0
O138 O 0.45384 0.35407 0.03961 0.0
O139 O 0.49652 0.10921 0.04642 0.0
C140 C 0.70711 0.75876 0.22686 0.0
O141 O 0.62897 0.71308 0.23514 0.0
Cd142 Cd 0.55745 0.70244 0.27799 0.0
O143 O 0.7644 0.80647 0.24149 0.0
Cd144 Cd 0.76042 0.8402 0.28579 0.0
C145 C 0.51295 0.94641 0.28871 0.0
O146 O 0.68709 0.69977 0.30919 0.0
O147 O 0.83532 0.74393 0.32043 0.0
O148 O 0.93726 0.87007 0.28132 0.0
C149 C 0.7547 0.69793 0.32589 0.0
O150 O 0.47168 0.86115 0.28506 0.0
C151 C 0.93347 0.95961 0.28953 0.0
O152 O 0.6091 0.95514 0.28951 0.0
O153 O 0.8481 -0.00523 0.29622 0.0
C154 C 0.22494 0.20709 0.47536 0.0
O155 O 0.27003 0.129 0.48376 0.0
Cd156 Cd 0.27928 0.05717 0.52662 0.0
O157 O 0.17652 0.26472 0.48995 0.0
Cd158 Cd 0.14229 0.26043 0.53449 0.0
C159 C 0.03551 0.01319 0.53837 0.0
O160 O 0.28193 0.18655 0.55774 0.0
O161 O 0.23929 0.33559 0.56875 0.0
O162 O 0.11176 0.43751 0.53084 0.0
C163 C 0.28361 0.25437 0.57436 0.0
O164 O 0.12061 0.9717 0.53441 0.0
C165 C 0.02208 0.43292 0.5392 0.0
O166 O 0.02693 0.10939 0.53898 0.0
O167 O 0.98693 0.34695 0.54548 0.0
C168 C 0.77283 0.75509 0.45131 0.0
O169 O 0.85094 0.71 0.44291 0.0
Cd170 Cd 0.92286 0.70058 0.40005 0.0
O171 O 0.71521 0.8035 0.43672 0.0
Cd172 Cd 0.7195 0.83766 0.39218 0.0
C173 C 0.96681 0.94444 0.3883 0.0
O174 O 0.79302 0.69796 0.36901 0.0
O175 O 0.64417 0.74055 0.35787 0.0
O176 O 0.54248 0.86819 0.39582 0.0
C177 C 0.72537 0.69612 0.35234 0.0
O178 O 0.00831 0.85934 0.39227 0.0
C179 C 0.54708 0.95784 0.38744 0.0
O180 O 0.87061 0.95299 0.38767 0.0
O181 O 0.63306 -0.00703 0.38116 0.0
C182 C 0.22118 0.27281 0.69982 0.0
O183 O 0.26688 0.35093 0.69154 0.0
Cd184 Cd 0.2776 0.42247 0.64872 0.0
O185 O 0.17351 0.21552 0.68518 0.0
Cd186 Cd 0.13996 0.21967 0.64087 0.0
C187 C 0.03363 0.46703 0.63796 0.0
O188 O 0.28051 0.29348 0.61737 0.0
O189 O 0.2362 0.14481 0.60634 0.0
O190 O 0.10997 0.04273 0.64534 0.0
C191 C 0.28209 0.22542 0.60079 0.0
O192 O 0.11888 0.50828 0.64162 0.0
C193 C 0.02045 0.04652 0.63712 0.0
O194 O 0.02489 0.37088 0.63716 0.0
O195 O 0.98532 0.13189 0.63042 0.0
C196 C 0.71407 0.72176 0.94829 0.0
O197 O 0.63688 0.76793 0.93972 0.0
Cd198 Cd 0.5671 0.78461 0.89682 0.0
O199 O 0.77375 0.67433 0.93391 0.0
Cd200 Cd 0.78059 0.63686 0.88963 0.0
C201 C 0.52966 0.53552 0.88755 0.0
O202 O 0.70678 0.77719 0.86917 0.0
O203 O 0.84416 0.73097 0.85207 0.0
O204 O 0.95797 0.61037 0.89454 0.0
C205 C 0.76285 0.78005 0.84998 0.0
O206 O 0.48791 0.62143 0.89018 0.0
C207 C 0.95542 0.51999 0.8868 0.0
O208 O 0.62593 0.52613 0.88706 0.0
O209 O 0.8708 0.48344 0.88023 0.0
C210 C 0.25448 0.2141 0.19978 0.0
O211 O 0.20904 0.13691 0.1911 0.0
Cd212 Cd 0.19372 0.06682 0.14818 0.0
O213 O 0.30251 0.27418 0.18546 0.0
Cd214 Cd 0.34064 0.28055 0.14095 0.0
C215 C 0.44254 0.02988 0.13787 0.0
O216 O 0.20093 0.20664 0.12061 0.0
O217 O 0.24652 0.34468 0.10366 0.0
O218 O 0.36776 0.45817 0.14508 0.0
C219 C 0.19851 0.26287 0.10146 0.0
O220 O 0.35674 0.98793 0.14078 0.0
C221 C 0.45828 0.45481 0.13719 0.0
O222 O 0.45177 0.12618 0.1376 0.0
O223 O 0.49484 0.36956 0.13103 0.0
loop_
_geom_bond_atom_site_label_1
_geom_bond_atom_site_label_2
_geom_bond_distance
_geom_bond_site_symmetry_2
_ccdc_geom_bond_type
C0 O1 1.306 . S
C0 O3 1.160 . S
O1 C0 1.306 . S
O1 Cd2 2.228 . S
Cd2 O1 2.228 . S
Cd2 O6 2.273 . S
Cd2 O10 2.277 . S
O3 C0 1.160 . S
O3 Cd4 2.203 . S
Cd4 O3 2.203 . S
Cd4 O6 2.411 . S
Cd4 O7 2.333 . S
Cd4 O8 2.352 . S
Cd4 O12 2.277 1_545 S
Cd4 O13 2.356 1_545 S
C5 O10 1.209 . S
C5 O12 1.226 1_545 S
O6 Cd2 2.273 . S
O6 Cd4 2.411 . S
O6 C9 1.320 . S
O7 Cd4 2.333 . S
O7 C9 1.214 . S
O8 Cd4 2.352 . S
O8 C11 1.258 . S
C9 O6 1.320 . S
C9 O7 1.214 . S
O10 Cd2 2.277 . S
O10 C5 1.209 . S
C11 O8 1.258 . S
C11 O13 1.282 1_545 S
O12 Cd4 2.277 1_565 S
O12 C5 1.226 1_565 S
O13 Cd4 2.356 1_565 S
O13 C11 1.282 1_565 S
C14 O15 1.306 . S
C14 O17 1.160 . S
O15 C14 1.306 . S
O15 Cd16 2.228 . S
Cd16 O15 2.228 . S
Cd16 O20 2.273 . S
Cd16 O24 2.277 . S
O17 C14 1.160 . S
O17 Cd18 2.203 . S
Cd18 O17 2.203 . S
Cd18 O20 2.411 . S
Cd18 O21 2.333 . S
Cd18 O22 2.352 . S
Cd18 O26 2.277 1_655 S
Cd18 O27 2.356 1_655 S
C19 O24 1.209 . S
C19 O26 1.226 1_655 S
O20 Cd16 2.273 . S
O20 Cd18 2.411 . S
O20 C23 1.320 . S
O21 Cd18 2.333 . S
O21 C23 1.214 . S
O22 Cd18 2.352 . S
O22 C25 1.258 . S
C23 O20 1.320 . S
C23 O21 1.214 . S
O24 Cd16 2.277 . S
O24 C19 1.209 . S
C25 O22 1.258 . S
C25 O27 1.282 1_655 S
O26 Cd18 2.277 1_455 S
O26 C19 1.226 1_455 S
O27 Cd18 2.356 1_455 S
O27 C25 1.282 1_455 S
C28 O29 1.306 . S
C28 O31 1.160 . S
O29 C28 1.306 . S
O29 Cd30 2.228 . S
Cd30 O29 2.228 . S
Cd30 O34 2.273 . S
Cd30 O38 2.277 . S
O31 C28 1.160 . S
O31 Cd32 2.203 . S
Cd32 O31 2.203 . S
Cd32 O34 2.411 . S
Cd32 O35 2.333 . S
Cd32 O36 2.352 . S
Cd32 O40 2.277 . S
Cd32 O41 2.356 . S
C33 O38 1.209 . S
C33 O40 1.226 . S
O34 Cd30 2.273 . S
O34 Cd32 2.411 . S
O34 C37 1.320 . S
O35 Cd32 2.333 . S
O35 C37 1.214 . S
O36 Cd32 2.352 . S
O36 C39 1.258 . S
C37 O34 1.320 . S
C37 O35 1.214 . S
O38 Cd30 2.277 . S
O38 C33 1.209 . S
C39 O36 1.258 . S
C39 O41 1.282 . S
O40 Cd32 2.277 . S
O40 C33 1.226 . S
O41 Cd32 2.356 . S
O41 C39 1.282 . S
C42 O43 1.306 . S
C42 O45 1.160 . S
O43 C42 1.306 . S
O43 Cd44 2.228 . S
Cd44 O43 2.228 . S
Cd44 O48 2.273 . S
Cd44 O52 2.277 . S
O45 C42 1.160 . S
O45 Cd46 2.203 . S
Cd46 O45 2.203 . S
Cd46 O48 2.411 . S
Cd46 O49 2.333 . S
Cd46 O50 2.352 . S
Cd46 O54 2.277 . S
Cd46 O55 2.356 . S
C47 O52 1.209 . S
C47 O54 1.226 . S
O48 Cd44 2.273 . S
O48 Cd46 2.411 . S
O48 C51 1.320 . S
O49 Cd46 2.333 . S
O49 C51 1.214 . S
O50 Cd46 2.352 . S
O50 C53 1.258 . S
C51 O48 1.320 . S
C51 O49 1.214 . S
O52 Cd44 2.277 . S
O52 C47 1.209 . S
C53 O50 1.258 . S
C53 O55 1.282 . S
O54 Cd46 2.277 . S
O54 C47 1.226 . S
O55 Cd46 2.356 . S
O55 C53 1.282 . S
C56 O57 1.306 . S
C56 O59 1.160 . S
O57 C56 1.306 . S
O57 Cd58 2.228 . S
Cd58 O57 2.228 . S
Cd58 O62 2.273 . S
Cd58 O66 2.277 . S
O59 C56 1.160 . S
O59 Cd60 2.203 . S
Cd60 O59 2.203 . S
Cd60 O62 2.411 . S
Cd60 O63 2.333 . S
Cd60 O64 2.352 . S
Cd60 O68 2.277 . S
Cd60 O69 2.356 . S
C61 O66 1.209 . S
C61 O68 1.226 . S
O62 Cd58 2.273 . S
O62 Cd60 2.411 . S
O62 C65 1.320 . S
O63 Cd60 2.333 . S
O63 C65 1.214 . S
O64 Cd60 2.352 . S
O64 C67 1.258 . S
C65 O62 1.320 . S
C65 O63 1.214 . S
O66 Cd58 2.277 . S
O66 C61 1.209 . S
C67 O64 1.258 . S
C67 O69 1.282 . S
O68 Cd60 2.277 . S
O68 C61 1.226 . S
O69 Cd60 2.356 . S
O69 C67 1.282 . S
C70 O71 1.306 . S
C70 O73 1.160 . S
O71 C70 1.306 . S
O71 Cd72 2.228 . S
Cd72 O71 2.228 . S
Cd72 O76 2.273 . S
Cd72 O80 2.277 . S
O73 C70 1.160 . S
O73 Cd74 2.203 . S
Cd74 O73 2.203 . S
Cd74 O76 2.411 . S
Cd74 O77 2.333 . S
Cd74 O78 2.352 . S
Cd74 O82 2.277 . S
Cd74 O83 2.356 . S
C75 O80 1.209 . S
C75 O82 1.226 . S
O76 Cd72 2.273 . S
O76 Cd74 2.411 . S
O76 C79 1.320 . S
O77 Cd74 2.333 . S
O77 C79 1.214 . S
O78 Cd74 2.352 . S
O78 C81 1.258 . S
C79 O76 1.320 . S
C79 O77 1.214 . S
O80 Cd72 2.277 . S
O80 C75 1.209 . S
C81 O78 1.258 . S
C81 O83 1.282 . S
O82 Cd74 2.277 . S
O82 C75 1.226 . S
O83 Cd74 2.356 . S
O83 C81 1.282 . S
C84 O85 1.306 . S
C84 O87 1.160 . S
O85 C84 1.306 . S
O85 Cd86 2.228 . S
Cd86 O85 2.228 . S
Cd86 O90 2.273 . S
Cd86 O94 2.277 . S
O87 C84 1.160 . S
O87 Cd88 2.203 . S
Cd88 O87 2.203 . S
Cd88 O90 2.411 . S
Cd88 O91 2.333 . S
Cd88 O92 2.352 . S
Cd88 O96 2.277 1_545 S
Cd88 O97 2.356 1_545 S
C89 O94 1.209 . S
C89 O96 1.226 1_545 S
O90 Cd86 2.273 . S
O90 Cd88 2.411 . S
O90 C93 1.320 . S
O91 Cd88 2.333 . S
O91 C93 1.214 . S
O92 Cd88 2.352 . S
O92 C95 1.258 . S
C93 O90 1.320 . S
C93 O91 1.214 . S
O94 Cd86 2.277 . S
O94 C89 1.209 . S
C95 O92 1.258 . S
C95 O97 1.282 1_545 S
O96 Cd88 2.277 1_565 S
O96 C89 1.226 1_565 S
O97 Cd88 2.356 1_565 S
O97 C95 1.282 1_565 S
C98 O99 1.306 . S
C98 O101 1.160 . S
O99 C98 1.306 . S
O99 Cd100 2.228 . S
Cd100 O99 2.228 . S
Cd100 O104 2.273 . S
Cd100 O108 2.277 . S
O101 C98 1.160 . S
O101 Cd102 2.203 . S
Cd102 O101 2.203 . S
Cd102 O104 2.411 . S
Cd102 O105 2.333 . S
Cd102 O106 2.352 . S
Cd102 O110 2.277 1_655 S
Cd102 O111 2.356 1_655 S
C103 O108 1.209 . S
C103 O110 1.226 1_655 S
O104 Cd100 2.273 . S
O104 Cd102 2.411 . S
O104 C107 1.320 . S
O105 Cd102 2.333 . S
O105 C107 1.214 . S
O106 Cd102 2.352 . S
O106 C109 1.258 . S
C107 O104 1.320 . S
C107 O105 1.214 . S
O108 Cd100 2.277 . S
O108 C103 1.209 . S
C109 O106 1.258 . S
C109 O111 1.282 1_655 S
O110 Cd102 2.277 1_455 S
O110 C103 1.226 1_455 S
O111 Cd102 2.356 1_455 S
O111 C109 1.282 1_455 S
C112 O113 1.306 . S
C112 O115 1.160 . S
O113 C112 1.306 . S
O113 Cd114 2.228 . S
Cd114 O113 2.228 . S
Cd114 O118 2.273 . S
Cd114 O122 2.277 . S
O115 C112 1.160 . S
O115 Cd116 2.203 . S
Cd116 O115 2.203 . S
Cd116 O118 2.411 . S
Cd116 O119 2.333 . S
Cd116 O120 2.352 . S
Cd116 O124 2.277 . S
Cd116 O125 2.356 . S
C117 O122 1.209 . S
C117 O124 1.226 . S
O118 Cd114 2.273 . S
O118 Cd116 2.411 . S
O118 C121 1.320 . S
O119 Cd116 2.333 . S
O119 C121 1.214 . S
O120 Cd116 2.352 . S
O120 C123 1.258 . S
C121 O118 1.320 . S
C121 O119 1.214 . S
O122 Cd114 2.277 . S
O122 C117 1.209 . S
C123 O120 1.258 . S
C123 O125 1.282 . S
O124 Cd116 2.277 . S
O124 C117 1.226 . S
O125 Cd116 2.356 . S
O125 C123 1.282 . S
C126 O127 1.306 . S
C126 O129 1.160 . S
O127 C126 1.306 . S
O127 Cd128 2.228 . S
Cd128 O127 2.228 . S
Cd128 O132 2.273 . S
Cd128 O136 2.277 . S
O129 C126 1.160 . S
O129 Cd130 2.203 . S
Cd130 O129 2.203 . S
Cd130 O132 2.411 . S
Cd130 O133 2.333 . S
Cd130 O134 2.352 . S
Cd130 O138 2.277 . S
Cd130 O139 2.356 . S
C131 O136 1.209 . S
C131 O138 1.226 . S
O132 Cd128 2.273 . S
O132 Cd130 2.411 . S
O132 C135 1.320 . S
O133 Cd130 2.333 . S
O133 C135 1.214 . S
O134 Cd130 2.352 . S
O134 C137 1.258 . S
C135 O132 1.320 . S
C135 O133 1.214 . S
O136 Cd128 2.277 . S
O136 C131 1.209 . S
C137 O134 1.258 . S
C137 O139 1.282 . S
O138 Cd130 2.277 . S
O138 C131 1.226 . S
O139 Cd130 2.356 . S
O139 C137 1.282 . S
C140 O141 1.306 . S
C140 O143 1.160 . S
O141 C140 1.306 . S
O141 Cd142 2.228 . S
Cd142 O141 2.228 . S
Cd142 O146 2.273 . S
Cd142 O150 2.277 . S
O143 C140 1.160 . S
O143 Cd144 2.203 . S
Cd144 O143 2.203 . S
Cd144 O146 2.411 . S
Cd144 O147 2.333 . S
Cd144 O148 2.352 . S
Cd144 O152 2.277 1_565 S
Cd144 O153 2.356 1_565 S
C145 O150 1.209 . S
C145 O152 1.226 1_565 S
O146 Cd142 2.273 . S
O146 Cd144 2.411 . S
O146 C149 1.320 . S
O147 Cd144 2.333 . S
O147 C149 1.214 . S
O148 Cd144 2.352 . S
O148 C151 1.258 . S
C149 O146 1.320 . S
C149 O147 1.214 . S
O150 Cd142 2.277 . S
O150 C145 1.209 . S
C151 O148 1.258 . S
C151 O153 1.282 1_565 S
O152 Cd144 2.277 1_545 S
O152 C145 1.226 1_545 S
O153 Cd144 2.356 1_545 S
O153 C151 1.282 1_545 S
C154 O155 1.306 . S
C154 O157 1.160 . S
O155 C154 1.306 . S
O155 Cd156 2.228 . S
Cd156 O155 2.228 . S
Cd156 O160 2.273 . S
Cd156 O164 2.277 . S
O157 C154 1.160 . S
O157 Cd158 2.203 . S
Cd158 O157 2.203 . S
Cd158 O160 2.411 . S
Cd158 O161 2.333 . S
Cd158 O162 2.352 . S
Cd158 O166 2.277 1_455 S
Cd158 O167 2.356 1_455 S
C159 O164 1.209 . S
C159 O166 1.226 1_455 S
O160 Cd156 2.273 . S
O160 Cd158 2.411 . S
O160 C163 1.320 . S
O161 Cd158 2.333 . S
O161 C163 1.214 . S
O162 Cd158 2.352 . S
O162 C165 1.258 . S
C163 O160 1.320 . S
C163 O161 1.214 . S
O164 Cd156 2.277 . S
O164 C159 1.209 . S
C165 O162 1.258 . S
C165 O167 1.282 1_455 S
O166 Cd158 2.277 1_655 S
O166 C159 1.226 1_655 S
O167 Cd158 2.356 1_655 S
O167 C165 1.282 1_655 S
C168 O169 1.306 . S
C168 O171 1.160 . S
O169 C168 1.306 . S
O169 Cd170 2.228 . S
Cd170 O169 2.228 . S
Cd170 O174 2.273 . S
Cd170 O178 2.277 . S
O171 C168 1.160 . S
O171 Cd172 2.203 . S
Cd172 O171 2.203 . S
Cd172 O174 2.411 . S
Cd172 O175 2.333 . S
Cd172 O176 2.352 . S
Cd172 O180 2.277 1_565 S
Cd172 O181 2.356 1_565 S
C173 O178 1.209 . S
C173 O180 1.226 1_565 S
O174 Cd170 2.273 . S
O174 Cd172 2.411 . S
O174 C177 1.320 . S
O175 Cd172 2.333 . S
O175 C177 1.214 . S
O176 Cd172 2.352 . S
O176 C179 1.258 . S
C177 O174 1.320 . S
C177 O175 1.214 . S
O178 Cd170 2.277 . S
O178 C173 1.209 . S
C179 O176 1.258 . S
C179 O181 1.282 1_565 S
O180 Cd172 2.277 1_545 S
O180 C173 1.226 1_545 S
O181 Cd172 2.356 1_545 S
O181 C179 1.282 1_545 S
C182 O183 1.306 . S
C182 O185 1.160 . S
O183 C182 1.306 . S
O183 Cd184 2.228 . S
Cd184 O183 2.228 . S
Cd184 O188 2.273 . S
Cd184 O192 2.277 . S
O185 C182 1.160 . S
O185 Cd186 2.203 . S
Cd186 O185 2.203 . S
Cd186 O188 2.411 . S
Cd186 O189 2.333 . S
Cd186 O190 2.352 . S
Cd186 O194 2.277 1_455 S
Cd186 O195 2.356 1_455 S
C187 O192 1.209 . S
C187 O194 1.226 1_455 S
O188 Cd184 2.273 . S
O188 Cd186 2.411 . S
O188 C191 1.320 . S
O189 Cd186 2.333 . S
O189 C191 1.214 . S
O190 Cd186 2.352 . S
O190 C193 1.258 . S
C191 O188 1.320 . S
C191 O189 1.214 . S
O192 Cd184 2.277 . S
O192 C187 1.209 . S
C193 O190 1.258 . S
C193 O195 1.282 1_455 S
O194 Cd186 2.277 1_655 S
O194 C187 1.226 1_655 S
O195 Cd186 2.356 1_655 S
O195 C193 1.282 1_655 S
C196 O197 1.306 . S
C196 O199 1.160 . S
O197 C196 1.306 . S
O197 Cd198 2.228 . S
Cd198 O197 2.228 . S
Cd198 O202 2.273 . S
Cd198 O206 2.277 . S
O199 C196 1.160 . S
O199 Cd200 2.203 . S
Cd200 O199 2.203 . S
Cd200 O202 2.411 . S
Cd200 O203 2.333 . S
Cd200 O204 2.352 . S
Cd200 O208 2.277 . S
Cd200 O209 2.356 . S
C201 O206 1.209 . S
C201 O208 1.226 . S
O202 Cd198 2.273 . S
O202 Cd200 2.411 . S
O202 C205 1.320 . S
O203 Cd200 2.333 . S
O203 C205 1.214 . S
O204 Cd200 2.352 . S
O204 C207 1.258 . S
C205 O202 1.320 . S
C205 O203 1.214 . S
O206 Cd198 2.277 . S
O206 C201 1.209 . S
C207 O204 1.258 . S
C207 O209 1.282 . S
O208 Cd200 2.277 . S
O208 C201 1.226 . S
O209 Cd200 2.356 . S
O209 C207 1.282 . S
C210 O211 1.306 . S
C210 O213 1.160 . S
O211 C210 1.306 . S
O211 Cd212 2.228 . S
Cd212 O211 2.228 . S
Cd212 O216 2.273 . S
Cd212 O220 2.277 . S
O213 C210 1.160 . S
O213 Cd214 2.203 . S
Cd214 O213 2.203 . S
Cd214 O216 2.411 . S
Cd214 O217 2.333 . S
Cd214 O218 2.352 . S
Cd214 O222 2.277 . S
Cd214 O223 2.356 . S
C215 O220 1.209 . S
C215 O222 1.226 . S
O216 Cd212 2.273 . S
O216 Cd214 2.411 . S
O216 C219 1.320 . S
O217 Cd214 2.333 . S
O217 C219 1.214 . S
O218 Cd214 2.352 . S
O218 C221 1.258 . S
C219 O216 1.320 . S
C219 O217 1.214 . S
O220 Cd212 2.277 . S
O220 C215 1.209 . S
C221 O218 1.258 . S
C221 O223 1.282 . S
O222 Cd214 2.277 . S
O222 C215 1.226 . S
O223 Cd214 2.356 . S
O223 C221 1.282 . S
C151 C11 1.500 1_665 S
C25 C165 1.501 1_655 S
C123 C39 1.500 . S
C137 C53 1.501 1_545 S
C67 C207 1.501 1_455 S
C221 C81 1.500 . S
C95 C179 1.501 1_545 S
C193 C109 1.500 1_445 S
C145 C5 1.609 1_565 S
C19 C159 1.609 1_665 S
C33 C117 1.609 1_455 S
C47 C131 1.609 . S
C61 C201 1.609 . S
C75 C215 1.609 1_565 S
C173 C89 1.609 1_665 S
C187 C103 1.609 1_455 S
C9 C93 1.343 . S
C23 C107 1.343 . S
C37 C65 1.343 . S
C51 C79 1.343 . S
C121 C205 1.343 . S
C219 C135 1.343 . S
C149 C177 1.343 . S
C191 C163 1.343 . S
C0 C210 1.743 . S
C168 C14 1.743 . S
C182 C28 1.742 . S
C196 C42 1.743 1_556 S
C126 C56 1.743 1_554 S
C140 C70 1.742 . S
C84 C154 1.743 . S
C98 C112 1.743 . S
