# Generated by pormake.
# Topology ske, (6)-cn, num edge types: 1
# Building blocks:
#     Node 0, Type 0, BuildingBlock: BETFEN_clean_sbu_0, # of connection points: 6
#     Node 1, Type 0, BuildingBlock: BETFEN_clean_sbu_0, # of connection points: 6
#     Node 2, Type 0, BuildingBlock: BETFEN_clean_sbu_0, # of connection points: 6
#     Node 3, Type 0, BuildingBlock: BETFEN_clean_sbu_0, # of connection points: 6
#     Node 4, Type 0, BuildingBlock: BETFEN_clean_sbu_0, # of connection points: 6
#     Node 5, Type 0, BuildingBlock: BETFEN_clean_sbu_0, # of connection points: 6
#     Node 6, Type 0, BuildingBlock: BETFEN_clean_sbu_0, # of connection points: 6
#     Node 7, Type 0, BuildingBlock: BETFEN_clean_sbu_0, # of connection points: 6
#     Edge 8, Type (0, 0), BuildingBlock: EYOCIG_clean_linker_4, # of connection points: 2
#     Edge 9, Type (0, 0), BuildingBlock: EYOCIG_clean_linker_4, # of connection points: 2
#     Edge 10, Type (0, 0), BuildingBlock: EYOCIG_clean_linker_4, # of connection points: 2
#     Edge 11, Type (0, 0), BuildingBlock: EYOCIG_clean_linker_4, # of connection points: 2
#     Edge 12, Type (0, 0), BuildingBlock: EYOCIG_clean_linker_4, # of connection points: 2
#     Edge 13, Type (0, 0), BuildingBlock: EYOCIG_clean_linker_4, # of connection points: 2
#     Edge 14, Type (0, 0), BuildingBlock: EYOCIG_clean_linker_4, # of connection points: 2
#     Edge 15, Type (0, 0), BuildingBlock: EYOCIG_clean_linker_4, # of connection points: 2
#     Edge 16, Type (0, 0), BuildingBlock: EYOCIG_clean_linker_4, # of connection points: 2
#     Edge 17, Type (0, 0), BuildingBlock: EYOCIG_clean_linker_4, # of connection points: 2
#     Edge 18, Type (0, 0), BuildingBlock: EYOCIG_clean_linker_4, # of connection points: 2
#     Edge 19, Type (0, 0), BuildingBlock: EYOCIG_clean_linker_4, # of connection points: 2
#     Edge 20, Type (0, 0), BuildingBlock: EYOCIG_clean_linker_4, # of connection points: 2
#     Edge 21, Type (0, 0), BuildingBlock: EYOCIG_clean_linker_4, # of connection points: 2
#     Edge 22, Type (0, 0), BuildingBlock: EYOCIG_clean_linker_4, # of connection points: 2
#     Edge 23, Type (0, 0), BuildingBlock: EYOCIG_clean_linker_4, # of connection points: 2
#     Edge 24, Type (0, 0), BuildingBlock: EYOCIG_clean_linker_4, # of connection points: 2
#     Edge 25, Type (0, 0), BuildingBlock: EYOCIG_clean_linker_4, # of connection points: 2
#     Edge 26, Type (0, 0), BuildingBlock: EYOCIG_clean_linker_4, # of connection points: 2
#     Edge 27, Type (0, 0), BuildingBlock: EYOCIG_clean_linker_4, # of connection points: 2
#     Edge 28, Type (0, 0), BuildingBlock: EYOCIG_clean_linker_4, # of connection points: 2
#     Edge 29, Type (0, 0), BuildingBlock: EYOCIG_clean_linker_4, # of connection points: 2
#     Edge 30, Type (0, 0), BuildingBlock: EYOCIG_clean_linker_4, # of connection points: 2
#     Edge 31, Type (0, 0), BuildingBlock: EYOCIG_clean_linker_4, # of connection points: 2
# Relax obj value: 0.204
# Max RMSD: 0.209
# Mean RMSD: 0.202
data_MOF--net-ske--node1-BETFEN_clean_sbu_0--edge1-EYOCIG_clean_linker_4
_symmetry_space_group_name_H-M    P1
_symmetry_Int_Tables_number       1
_symmetry_cell_setting            triclinic
loop_
_symmetry_equiv_pos_as_xyz
'x, y, z'
_cell_length_a     91.223262
_cell_length_b     23.27175
_cell_length_c     12.392221
_cell_angle_alpha  89.998642
_cell_angle_beta   89.966346
_cell_angle_gamma 83.915744
loop_
_atom_site_label
_atom_site_type_symbol
_atom_site_fract_x
_atom_site_fract_y
_atom_site_fract_z
_atom_type_partial_charge
Pr0 Pr 0.16554 0.24357 0.46525 0.0
Pr1 Pr 0.12849 0.26036 0.44463 0.0
C2 C 0.19374 0.26148 0.50144 0.0
C3 C 0.20675 0.254 0.57361 0.0
C4 C 0.21664 0.2033 0.56939 0.0
C5 C 0.23063 0.20199 0.61594 0.0
C6 C 0.23488 0.25112 0.66742 0.0
C7 C 0.22473 0.30018 0.6791 0.0
C8 C 0.21074 0.3016 0.63263 0.0
C9 C 0.15405 0.13611 0.48156 0.0
C10 C 0.14457 0.24974 0.68617 0.0
C11 C 0.10011 0.24648 0.39972 0.0
C12 C 0.08642 0.2537 0.33295 0.0
C13 C 0.07664 0.30467 0.34033 0.0
C14 C 0.06202 0.30576 0.30479 0.0
C15 C 0.05689 0.25614 0.26071 0.0
C16 C 0.06692 0.20698 0.24359 0.0
C17 C 0.08157 0.20576 0.27938 0.0
C18 C 0.1406 0.36651 0.46421 0.0
C19 C 0.14979 0.25416 0.22247 0.0
O20 O 0.18258 0.29904 0.52824 0.0
O21 O 0.18992 0.21636 0.44915 0.0
O22 O 0.1467 0.18492 0.46764 0.0
O23 O 0.16798 0.14225 0.48473 0.0
O24 O 0.1323 0.24434 0.63083 0.0
O25 O 0.15752 0.25529 0.64226 0.0
O26 O 0.11105 0.20757 0.37453 0.0
O27 O 0.10423 0.29118 0.45136 0.0
O28 O 0.14717 0.31709 0.44344 0.0
O29 O 0.12654 0.36244 0.465 0.0
O30 O 0.16223 0.25402 0.27786 0.0
O31 O 0.1366 0.2543 0.26628 0.0
H32 H 0.21394 0.16584 0.52472 0.0
H33 H 0.23838 0.16363 0.60694 0.0
H34 H 0.22787 0.33841 0.71926 0.0
H35 H 0.20339 0.34128 0.63718 0.0
H36 H 0.07995 0.34255 0.38055 0.0
H37 H 0.05448 0.34435 0.31795 0.0
H38 H 0.06323 0.16829 0.20886 0.0
H39 H 0.08878 0.16587 0.27203 0.0
Pr40 Pr 0.87464 0.26364 0.46415 0.0
Pr41 Pr 0.9117 0.24694 0.44402 0.0
C42 C 0.84645 0.24574 0.50139 0.0
C43 C 0.83343 0.25354 0.57353 0.0
C44 C 0.82361 0.30444 0.56923 0.0
C45 C 0.8096 0.30612 0.6159 0.0
C46 C 0.80527 0.25717 0.66763 0.0
C47 C 0.81536 0.20791 0.67929 0.0
C48 C 0.82936 0.20611 0.63266 0.0
C49 C 0.88604 0.37113 0.47877 0.0
C50 C 0.89563 0.25772 0.68553 0.0
C51 C 0.9401 0.26148 0.40021 0.0
C52 C 0.95377 0.25433 0.33302 0.0
C53 C 0.96357 0.20343 0.34022 0.0
C54 C 0.9782 0.20247 0.30451 0.0
C55 C 0.9833 0.25216 0.26041 0.0
C56 C 0.97323 0.30122 0.24331 0.0
C57 C 0.95859 0.3023 0.27927 0.0
C58 C 0.89986 0.14004 0.46218 0.0
C59 C 0.89048 0.25219 0.22189 0.0
O60 O 0.85761 0.2083 0.52844 0.0
O61 O 0.85027 0.29064 0.44851 0.0
O62 O 0.89343 0.32236 0.46543 0.0
O63 O 0.87212 0.36488 0.48254 0.0
O64 O 0.90794 0.26278 0.63024 0.0
O65 O 0.88265 0.25269 0.64158 0.0
O66 O 0.92913 0.30023 0.37499 0.0
O67 O 0.936 0.21669 0.45178 0.0
O68 O 0.89304 0.18988 0.45284 0.0
O69 O 0.91388 0.14457 0.45756 0.0
O70 O 0.87806 0.25186 0.27724 0.0
O71 O 0.90364 0.25275 0.26571 0.0
H72 H 0.82637 0.34178 0.52444 0.0
H73 H 0.80191 0.34464 0.60687 0.0
H74 H 0.81216 0.16982 0.71961 0.0
H75 H 0.83664 0.16629 0.63724 0.0
H76 H 0.9603 0.16551 0.38048 0.0
H77 H 0.98575 0.16395 0.31763 0.0
H78 H 0.97691 0.33995 0.20853 0.0
H79 H 0.95136 0.34214 0.27197 0.0
Pr80 Pr 0.12883 0.76026 0.62018 0.0
Pr81 Pr 0.1648 0.74554 0.59882 0.0
C82 C 0.10033 0.74746 0.66746 0.0
C83 C 0.08642 0.75387 0.73227 0.0
C84 C 0.0766 0.80468 0.72434 0.0
C85 C 0.06194 0.80567 0.75935 0.0
C86 C 0.0568 0.75606 0.80336 0.0
C87 C 0.06684 0.70689 0.82048 0.0
C88 C 0.08152 0.70576 0.78511 0.0
C89 C 0.14098 0.86387 0.58928 0.0
C90 C 0.1497 0.75407 0.84273 0.0
C91 C 0.19322 0.76252 0.56243 0.0
C92 C 0.20646 0.7545 0.49142 0.0
C93 C 0.21632 0.70366 0.49619 0.0
C94 C 0.23037 0.70193 0.44971 0.0
C95 C 0.23474 0.75083 0.39786 0.0
C96 C 0.22464 0.80001 0.38591 0.0
C97 C 0.2106 0.80182 0.43218 0.0
C98 C 0.15411 0.6366 0.58052 0.0
C99 C 0.14431 0.75098 0.37822 0.0
O100 O 0.11118 0.70796 0.69079 0.0
O101 O 0.10459 0.79255 0.61822 0.0
O102 O 0.14717 0.82168 0.64417 0.0
O103 O 0.12757 0.85587 0.56395 0.0
O104 O 0.16209 0.75336 0.78671 0.0
O105 O 0.1365 0.75539 0.79913 0.0
O106 O 0.18209 0.79969 0.53366 0.0
O107 O 0.18929 0.71821 0.61653 0.0
O108 O 0.14648 0.68457 0.5948 0.0
O109 O 0.16794 0.64407 0.57858 0.0
O110 O 0.13234 0.7425 0.43441 0.0
O111 O 0.15701 0.75969 0.42218 0.0
H112 H 0.07992 0.84263 0.68443 0.0
H113 H 0.05441 0.84425 0.74605 0.0
H114 H 0.06312 0.6682 0.85509 0.0
H115 H 0.08875 0.66592 0.79271 0.0
H116 H 0.21352 0.66635 0.54092 0.0
H117 H 0.23806 0.66342 0.45891 0.0
H118 H 0.22784 0.83807 0.34551 0.0
H119 H 0.20332 0.84163 0.42708 0.0
Pr120 Pr 0.91113 0.74655 0.61904 0.0
Pr121 Pr 0.87531 0.76163 0.59854 0.0
C122 C 0.93963 0.75845 0.66782 0.0
C123 C 0.95356 0.75315 0.73229 0.0
C124 C 0.96351 0.70271 0.72463 0.0
C125 C 0.97815 0.70238 0.75943 0.0
C126 C 0.98316 0.75231 0.80308 0.0
C127 C 0.97301 0.8012 0.81979 0.0
C128 C 0.95833 0.80169 0.78453 0.0
C129 C 0.89884 0.64369 0.58427 0.0
C130 C 0.89029 0.75239 0.84218 0.0
C131 C 0.84689 0.74492 0.56203 0.0
C132 C 0.83368 0.7527 0.49092 0.0
C133 C 0.82377 0.8034 0.4957 0.0
C134 C 0.80973 0.8049 0.44918 0.0
C135 C 0.80543 0.75592 0.39731 0.0
C136 C 0.81557 0.70686 0.3854 0.0
C137 C 0.8296 0.70528 0.4317 0.0
C138 C 0.88606 0.87044 0.57965 0.0
C139 C 0.89576 0.75584 0.37761 0.0
O140 O 0.92889 0.79914 0.68718 0.0
O141 O 0.93526 0.71252 0.62226 0.0
O142 O 0.89284 0.68485 0.64268 0.0
O143 O 0.91203 0.65266 0.55463 0.0
O144 O 0.87788 0.75407 0.78639 0.0
O145 O 0.90348 0.75028 0.79824 0.0
O146 O 0.85801 0.70753 0.53386 0.0
O147 O 0.85084 0.78941 0.61546 0.0
O148 O 0.89364 0.82248 0.59398 0.0
O149 O 0.87222 0.8631 0.5776 0.0
O150 O 0.90769 0.76505 0.43357 0.0
O151 O 0.88312 0.74658 0.42199 0.0
H152 H 0.9603 0.66448 0.68509 0.0
H153 H 0.98577 0.66402 0.74637 0.0
H154 H 0.97662 0.84015 0.85411 0.0
H155 H 0.95101 0.84128 0.79193 0.0
H156 H 0.82651 0.84075 0.54048 0.0
H157 H 0.80201 0.84332 0.45837 0.0
H158 H 0.81242 0.66874 0.345 0.0
H159 H 0.83692 0.66557 0.42662 0.0
Pr160 Pr 0.6659 0.74459 0.03835 0.0
Pr161 Pr 0.62838 0.76005 1.01815 0.0
C162 C 0.69407 0.7615 0.07833 0.0
C163 C 0.7069 0.75373 0.15238 0.0
C164 C 0.71672 0.7028 0.14899 0.0
C165 C 0.73066 0.70112 0.19663 0.0
C166 C 0.73493 0.75011 0.24856 0.0
C167 C 0.72481 0.79933 0.25971 0.0
C168 C 0.71087 0.80113 0.21205 0.0
C169 C 0.65424 0.63823 0.03678 0.0
C170 C 0.64471 0.74953 0.26006 0.0
C171 C 0.60001 0.74483 0.97696 0.0
C172 C 0.58635 0.75255 0.91009 0.0
C173 C 0.57664 0.8037 0.91768 0.0
C174 C 0.56202 0.8051 0.88203 0.0
C175 C 0.55685 0.75563 0.83766 0.0
C176 C 0.56682 0.70635 0.8203 0.0
C177 C 0.58146 0.70482 0.85617 0.0
C178 C 0.64033 0.86605 1.02266 0.0
C179 C 0.64985 0.7554 0.79677 0.0
O180 O 0.68297 0.80004 0.102 0.0
O181 O 0.69022 0.71616 1.02707 0.0
O182 O 0.64714 0.68763 0.0336 0.0
O183 O 0.66824 0.64282 0.04265 0.0
O184 O 0.63232 0.74579 0.20498 0.0
O185 O 0.65777 0.75326 0.21607 0.0
O186 O 0.61101 0.70649 0.94986 0.0
O187 O 0.60409 0.78935 1.02955 0.0
O188 O 0.64717 0.81631 1.0235 0.0
O189 O 0.62629 0.86221 1.01765 0.0
O190 O 0.66222 0.75843 0.852 0.0
O191 O 0.63674 0.75222 0.84046 0.0
H192 H 0.71404 0.66545 0.1039 0.0
H193 H 0.73836 0.66261 0.18799 0.0
H194 H 0.72794 0.83744 0.30024 0.0
H195 H 0.70358 0.84096 0.2161 0.0
H196 H 0.57998 0.84143 0.95814 0.0
H197 H 0.55452 0.84376 0.89538 0.0
H198 H 0.56308 0.66779 0.78539 0.0
H199 H 0.58863 0.66483 0.84868 0.0
Pr200 Pr 0.37428 0.76256 0.03799 0.0
Pr201 Pr 0.4118 0.74755 1.01749 0.0
C202 C 0.34611 0.74542 0.07825 0.0
C203 C 0.33328 0.75307 0.15243 0.0
C204 C 0.32343 0.80391 0.14908 0.0
C205 C 0.30949 0.80545 0.1968 0.0
C206 C 0.30526 0.75643 0.24882 0.0
C207 C 0.3154 0.70729 0.25993 0.0
C208 C 0.32934 0.70562 0.21217 0.0
C209 C 0.38585 0.86906 0.03579 0.0
C210 C 0.39548 0.75826 0.25953 0.0
C211 C 0.44017 0.76308 0.97677 0.0
C212 C 0.45384 0.7553 0.90991 0.0
C213 C 0.46355 0.70418 0.91758 0.0
C214 C 0.47818 0.70279 0.88189 0.0
C215 C 0.48334 0.75225 0.83742 0.0
C216 C 0.47337 0.80149 0.81994 0.0
C217 C 0.45872 0.803 0.85583 0.0
C218 C 0.39997 0.64125 1.0204 0.0
C219 C 0.39036 0.75253 0.7963 0.0
O220 O 0.35724 0.707 0.10187 0.0
O221 O 0.34994 0.79079 1.02689 0.0
O222 O 0.39299 0.81972 0.03295 0.0
O223 O 0.37186 0.86434 0.04171 0.0
O224 O 0.40787 0.76187 0.20429 0.0
O225 O 0.38242 0.75442 0.21573 0.0
O226 O 0.42916 0.80119 0.94915 0.0
O227 O 0.4361 0.71864 1.02975 0.0
O228 O 0.39305 0.69087 1.02258 0.0
O229 O 0.41399 0.64543 1.01504 0.0
O230 O 0.378 0.74897 0.85157 0.0
O231 O 0.40345 0.75599 0.83996 0.0
H232 H 0.32608 0.84129 0.10395 0.0
H233 H 0.30176 0.84389 0.18819 0.0
H234 H 0.31229 0.66915 0.30053 0.0
H235 H 0.33665 0.66585 0.2162 0.0
H236 H 0.46021 0.66646 0.95814 0.0
H237 H 0.48569 0.66416 0.89532 0.0
H238 H 0.47711 0.84004 0.78494 0.0
H239 H 0.45155 0.84297 0.84827 0.0
Pr240 Pr 0.62825 0.25969 0.04619 0.0
Pr241 Pr 0.66578 0.24502 1.02586 0.0
C242 C 0.59989 0.24434 0.08735 0.0
C243 C 0.58623 0.25229 0.15438 0.0
C244 C 0.57656 0.30354 0.14676 0.0
C245 C 0.56194 0.30513 0.18254 0.0
C246 C 0.55674 0.25576 0.22709 0.0
C247 C 0.56667 0.20641 0.24452 0.0
C248 C 0.58132 0.20469 0.20852 0.0
C249 C 0.64004 0.36602 0.04183 0.0
C250 C 0.64967 0.25538 0.2675 0.0
C251 C 0.69394 0.2623 0.986 0.0
C252 C 0.70679 0.25485 0.91197 0.0
C253 C 0.71668 0.20411 0.91539 0.0
C254 C 0.73063 0.20277 0.86796 0.0
C255 C 0.73483 0.2519 0.81615 0.0
C256 C 0.72466 0.30094 0.80494 0.0
C257 C 0.71071 0.3024 0.85242 0.0
C258 C 0.6543 0.13833 1.02815 0.0
C259 C 0.64457 0.24933 0.80428 0.0
O260 O 0.61088 0.20612 0.11476 0.0
O261 O 0.60396 0.28875 0.03437 0.0
O262 O 0.64696 0.3164 0.04122 0.0
O263 O 0.62602 0.36185 0.0466 0.0
O264 O 0.66204 0.25878 0.21224 0.0
O265 O 0.63658 0.25188 0.22383 0.0
O266 O 0.68282 0.30077 0.9626 0.0
O267 O 0.69012 0.2168 0.03689 0.0
O268 O 0.64711 0.18756 1.03132 0.0
O269 O 0.66828 0.14329 1.02195 0.0
O270 O 0.6322 0.24526 0.85947 0.0
O271 O 0.65761 0.25347 0.84816 0.0
H272 H 0.57993 0.34119 0.10614 0.0
H273 H 0.55446 0.34385 0.16913 0.0
H274 H 0.5629 0.16793 0.27957 0.0
H275 H 0.58845 0.16463 0.21603 0.0
H276 H 0.71404 0.16666 0.96039 0.0
H277 H 0.73838 0.16442 0.87661 0.0
H278 H 0.72775 0.33914 0.76448 0.0
H279 H 0.70337 0.34209 0.84834 0.0
Pr280 Pr 0.41182 0.24725 0.0452 0.0
Pr281 Pr 0.37428 0.2621 1.02521 0.0
C282 C 0.44014 0.26278 0.08713 0.0
C283 C 0.45378 0.25527 0.15422 0.0
C284 C 0.46353 0.20424 0.14671 0.0
C285 C 0.47814 0.20304 0.18249 0.0
C286 C 0.48325 0.2526 0.22694 0.0
C287 C 0.47323 0.30176 0.24422 0.0
C288 C 0.45861 0.30308 0.20821 0.0
C289 C 0.39992 0.14113 0.04091 0.0
C290 C 0.39035 0.25151 0.26672 0.0
C291 C 0.34614 0.24477 0.98541 0.0
C292 C 0.3333 0.25283 0.91149 0.0
C293 C 0.32355 0.30394 0.91511 0.0
C294 C 0.30961 0.30598 0.86757 0.0
C295 C 0.30527 0.25717 0.81556 0.0
C296 C 0.31531 0.20774 0.80418 0.0
C297 C 0.32926 0.20559 0.85169 0.0
C298 C 0.38585 0.3687 1.02503 0.0
C299 C 0.39548 0.25702 0.80346 0.0
O300 O 0.42911 0.30107 0.11381 0.0
O301 O 0.43611 0.21813 0.03466 0.0
O302 O 0.39309 0.19087 0.04158 0.0
O303 O 0.41397 0.14503 0.0442 0.0
O304 O 0.37797 0.24845 0.21155 0.0
O305 O 0.40345 0.25481 0.22295 0.0
O306 O 0.35727 0.20656 0.96083 0.0
O307 O 0.34995 0.28991 0.03756 0.0
O308 O 0.39299 0.31941 1.02918 0.0
O309 O 0.37186 0.36386 1.01937 0.0
O310 O 0.40785 0.26139 0.85842 0.0
O311 O 0.38245 0.25281 0.84758 0.0
H312 H 0.46023 0.16644 0.10618 0.0
H313 H 0.48568 0.16448 0.16918 0.0
H314 H 0.47694 0.34038 0.27919 0.0
H315 H 0.45141 0.34299 0.21561 0.0
H316 H 0.32628 0.34117 0.96031 0.0
H317 H 0.30195 0.34463 0.87639 0.0
H318 H 0.3121 0.16977 0.76356 0.0
H319 H 0.3365 0.16564 0.84744 0.0
C320 C 0.26265 0.25347 0.72643 0.0
C321 C 0.24997 0.25279 0.69979 0.0
C322 C 0.27756 0.25485 0.75514 0.0
C323 C 0.29018 0.25597 0.78271 0.0
C324 C 0.76257 0.25436 0.756 0.0
C325 C 0.7499 0.25367 0.78313 0.0
C326 C 0.7775 0.25527 0.72735 0.0
C327 C 0.79018 0.25582 0.70034 0.0
C328 C 0.2775 0.75417 0.30942 0.0
C329 C 0.29017 0.75484 0.28204 0.0
C330 C 0.26256 0.75307 0.33822 0.0
C331 C 0.24987 0.75228 0.36523 0.0
C332 C 0.76269 0.75226 0.30887 0.0
C333 C 0.75002 0.7516 0.2816 0.0
C334 C 0.77763 0.7534 0.33759 0.0
C335 C 0.79031 0.75428 0.36461 0.0
C336 C 0.14748 0.97004 0.5485 0.0
C337 C 0.14621 0.92008 0.57283 0.0
C338 C 0.14756 0.02972 0.52013 0.0
C339 C 0.14868 0.08041 0.5009 0.0
C340 C 0.89243 0.47756 0.51688 0.0
C341 C 0.89136 0.42686 0.49785 0.0
C342 C 0.8925 0.5372 0.54507 0.0
C343 C 0.89377 0.58716 0.56911 0.0
C344 C 0.89252 0.9772 0.54561 0.0
C345 C 0.89124 0.92652 0.56258 0.0
C346 C 0.89279 0.03691 0.51925 0.0
C347 C 0.8942 0.08649 0.4935 0.0
C348 C 0.1479 0.52939 0.54673 0.0
C349 C 0.14901 0.58028 0.56364 0.0
C350 C 0.14785 0.46949 0.52025 0.0
C351 C 0.14655 0.41983 0.49396 0.0
C352 C 0.64734 0.53216 1.02481 0.0
C353 C 0.6486 0.58319 1.02912 0.0
C354 C 0.64731 0.47143 1.02584 0.0
C355 C 0.64589 0.42059 0.03214 0.0
C356 C 0.39262 0.97522 1.02279 0.0
C357 C 0.39144 0.92416 1.02753 0.0
C358 C 0.39258 0.03597 1.02385 0.0
C359 C 0.39399 0.08678 1.03074 0.0
C360 C 0.39267 0.47497 0.03537 0.0
C361 C 0.39143 0.4239 1.03177 0.0
C362 C 0.39271 0.53572 0.03445 0.0
C363 C 0.39413 0.58659 1.02909 0.0
C364 C 0.64764 0.03198 0.04069 0.0
C365 C 0.64878 0.08308 0.03618 0.0
C366 C 0.64769 0.97122 0.03952 0.0
C367 C 0.64626 0.92042 0.03288 0.0
C368 C 0.14868 0.25232 1.01024 0.0
C369 C 0.15025 0.25318 0.10679 0.0
C370 C 0.146 0.25081 0.89813 0.0
C371 C 0.14426 0.24984 0.80177 0.0
C372 C 0.8916 0.25419 1.00968 0.0
C373 C 0.89004 0.2532 0.10624 0.0
C374 C 0.89425 0.25598 0.89754 0.0
C375 C 0.89595 0.25721 0.80114 0.0
C376 C 0.14578 0.7515 0.16643 0.0
C377 C 0.144 0.75051 0.2627 0.0
C378 C 0.14857 0.75276 0.05456 0.0
C379 C 0.15019 0.75331 0.95815 0.0
C380 C 0.89144 0.75371 0.05404 0.0
C381 C 0.88981 0.75322 0.95763 0.0
C382 C 0.89424 0.75503 0.16586 0.0
C383 C 0.89604 0.7562 0.26209 0.0
C384 C 0.64609 0.75158 0.4723 0.0
C385 C 0.64439 0.75031 0.37584 0.0
C386 C 0.64874 0.7535 0.58451 0.0
C387 C 0.6503 0.75465 0.68108 0.0
C388 C 0.39149 0.75473 0.58405 0.0
C389 C 0.38992 0.75341 0.68062 0.0
C390 C 0.39413 0.75662 0.47182 0.0
C391 C 0.39581 0.75771 0.37532 0.0
C392 C 0.64854 0.25334 0.47976 0.0
C393 C 0.6501 0.25458 0.38318 0.0
C394 C 0.64591 0.25135 0.592 0.0
C395 C 0.64423 0.25006 0.6885 0.0
C396 C 0.39146 0.25314 0.47899 0.0
C397 C 0.38991 0.25211 0.38241 0.0
C398 C 0.39409 0.25497 0.59122 0.0
C399 C 0.39579 0.25628 0.68768 0.0
C400 C 0.02791 0.25408 0.23465 0.0
C401 C 0.04115 0.25378 0.24568 0.0
C402 C 1.01227 0.25443 0.23455 0.0
C403 C 0.99903 0.25468 0.24545 0.0
C404 C 1.01214 0.75475 0.82937 0.0
C405 C 0.99889 0.75505 0.81836 0.0
C406 C 0.02779 0.75423 0.8294 0.0
C407 C 0.04104 0.75378 0.81842 0.0
C408 C 0.52791 0.75381 0.8116 0.0
C409 C 0.54113 0.75347 0.82268 0.0
C410 C 0.51229 0.75415 0.81153 0.0
C411 C 0.49907 0.75446 0.82251 0.0
C412 C 0.51217 0.25463 0.25315 0.0
C413 C 0.49896 0.25494 0.24206 0.0
C414 C 0.52779 0.2542 0.25315 0.0
C415 C 0.54101 0.25376 0.24207 0.0
loop_
_geom_bond_atom_site_label_1
_geom_bond_atom_site_label_2
_geom_bond_distance
_geom_bond_site_symmetry_2
_ccdc_geom_bond_type
Pr0 C2 2.880 . S
Pr0 O20 2.562 . S
Pr0 O21 2.490 . S
Pr0 O22 2.695 . S
Pr0 O23 2.512 . S
Pr0 O25 2.437 . S
Pr0 O28 2.436 . S
Pr0 O30 2.438 . S
Pr1 C11 2.880 . S
Pr1 O22 2.436 . S
Pr1 O24 2.438 . S
Pr1 O26 2.562 . S
Pr1 O27 2.490 . S
Pr1 O28 2.695 . S
Pr1 O29 2.512 . S
Pr1 O31 2.437 . S
C2 Pr0 2.880 . S
C2 C3 1.491 . S
C2 O20 1.254 . S
C2 O21 1.225 . S
C3 C2 1.491 . S
C3 C4 1.392 . S
C3 C8 1.356 . S
C4 C3 1.392 . S
C4 C5 1.368 . S
C4 H32 0.929 . S
C5 C4 1.368 . S
C5 C6 1.386 . S
C5 H33 0.929 . S
C6 C5 1.386 . S
C6 C7 1.373 . S
C7 C6 1.373 . S
C7 C8 1.409 . S
C7 H34 0.931 . S
C8 C3 1.356 . S
C8 C7 1.409 . S
C8 H35 0.930 . S
C9 O22 1.270 . S
C9 O23 1.248 . S
C10 O24 1.267 . S
C10 O25 1.278 . S
C11 Pr1 2.880 . S
C11 C12 1.491 . S
C11 O26 1.254 . S
C11 O27 1.225 . S
C12 C11 1.491 . S
C12 C13 1.392 . S
C12 C17 1.356 . S
C13 C12 1.392 . S
C13 C14 1.368 . S
C13 H36 0.929 . S
C14 C13 1.368 . S
C14 C15 1.386 . S
C14 H37 0.929 . S
C15 C14 1.386 . S
C15 C16 1.373 . S
C16 C15 1.373 . S
C16 C17 1.409 . S
C16 H38 0.931 . S
C17 C12 1.356 . S
C17 C16 1.409 . S
C17 H39 0.930 . S
C18 O28 1.270 . S
C18 O29 1.248 . S
C19 O30 1.267 . S
C19 O31 1.278 . S
O20 Pr0 2.562 . S
O20 C2 1.254 . S
O21 Pr0 2.490 . S
O21 C2 1.225 . S
O22 Pr0 2.695 . S
O22 Pr1 2.436 . S
O22 C9 1.270 . S
O23 Pr0 2.512 . S
O23 C9 1.248 . S
O24 Pr1 2.438 . S
O24 C10 1.267 . S
O25 Pr0 2.437 . S
O25 C10 1.278 . S
O26 Pr1 2.562 . S
O26 C11 1.254 . S
O27 Pr1 2.490 . S
O27 C11 1.225 . S
O28 Pr0 2.436 . S
O28 Pr1 2.695 . S
O28 C18 1.270 . S
O29 Pr1 2.512 . S
O29 C18 1.248 . S
O30 Pr0 2.438 . S
O30 C19 1.267 . S
O31 Pr1 2.437 . S
O31 C19 1.278 . S
H32 C4 0.929 . S
H33 C5 0.929 . S
H34 C7 0.931 . S
H35 C8 0.930 . S
H36 C13 0.929 . S
H37 C14 0.929 . S
H38 C16 0.931 . S
H39 C17 0.930 . S
Pr40 C42 2.880 . S
Pr40 O60 2.562 . S
Pr40 O61 2.490 . S
Pr40 O62 2.695 . S
Pr40 O63 2.512 . S
Pr40 O65 2.437 . S
Pr40 O68 2.436 . S
Pr40 O70 2.438 . S
Pr41 C51 2.880 . S
Pr41 O62 2.436 . S
Pr41 O64 2.438 . S
Pr41 O66 2.562 . S
Pr41 O67 2.490 . S
Pr41 O68 2.695 . S
Pr41 O69 2.512 . S
Pr41 O71 2.437 . S
C42 Pr40 2.880 . S
C42 C43 1.491 . S
C42 O60 1.254 . S
C42 O61 1.225 . S
C43 C42 1.491 . S
C43 C44 1.392 . S
C43 C48 1.356 . S
C44 C43 1.392 . S
C44 C45 1.368 . S
C44 H72 0.929 . S
C45 C44 1.368 . S
C45 C46 1.386 . S
C45 H73 0.929 . S
C46 C45 1.386 . S
C46 C47 1.373 . S
C47 C46 1.373 . S
C47 C48 1.409 . S
C47 H74 0.931 . S
C48 C43 1.356 . S
C48 C47 1.409 . S
C48 H75 0.930 . S
C49 O62 1.270 . S
C49 O63 1.248 . S
C50 O64 1.267 . S
C50 O65 1.278 . S
C51 Pr41 2.880 . S
C51 C52 1.491 . S
C51 O66 1.254 . S
C51 O67 1.225 . S
C52 C51 1.491 . S
C52 C53 1.392 . S
C52 C57 1.356 . S
C53 C52 1.392 . S
C53 C54 1.368 . S
C53 H76 0.929 . S
C54 C53 1.368 . S
C54 C55 1.386 . S
C54 H77 0.929 . S
C55 C54 1.386 . S
C55 C56 1.373 . S
C56 C55 1.373 . S
C56 C57 1.409 . S
C56 H78 0.931 . S
C57 C52 1.356 . S
C57 C56 1.409 . S
C57 H79 0.930 . S
C58 O68 1.270 . S
C58 O69 1.248 . S
C59 O70 1.267 . S
C59 O71 1.278 . S
O60 Pr40 2.562 . S
O60 C42 1.254 . S
O61 Pr40 2.490 . S
O61 C42 1.225 . S
O62 Pr40 2.695 . S
O62 Pr41 2.436 . S
O62 C49 1.270 . S
O63 Pr40 2.512 . S
O63 C49 1.248 . S
O64 Pr41 2.438 . S
O64 C50 1.267 . S
O65 Pr40 2.437 . S
O65 C50 1.278 . S
O66 Pr41 2.562 . S
O66 C51 1.254 . S
O67 Pr41 2.490 . S
O67 C51 1.225 . S
O68 Pr40 2.436 . S
O68 Pr41 2.695 . S
O68 C58 1.270 . S
O69 Pr41 2.512 . S
O69 C58 1.248 . S
O70 Pr40 2.438 . S
O70 C59 1.267 . S
O71 Pr41 2.437 . S
O71 C59 1.278 . S
H72 C44 0.929 . S
H73 C45 0.929 . S
H74 C47 0.931 . S
H75 C48 0.930 . S
H76 C53 0.929 . S
H77 C54 0.929 . S
H78 C56 0.931 . S
H79 C57 0.930 . S
Pr80 C82 2.880 . S
Pr80 O100 2.562 . S
Pr80 O101 2.490 . S
Pr80 O102 2.695 . S
Pr80 O103 2.512 . S
Pr80 O105 2.437 . S
Pr80 O108 2.436 . S
Pr80 O110 2.438 . S
Pr81 C91 2.880 . S
Pr81 O102 2.436 . S
Pr81 O104 2.438 . S
Pr81 O106 2.562 . S
Pr81 O107 2.490 . S
Pr81 O108 2.695 . S
Pr81 O109 2.512 . S
Pr81 O111 2.437 . S
C82 Pr80 2.880 . S
C82 C83 1.491 . S
C82 O100 1.254 . S
C82 O101 1.225 . S
C83 C82 1.491 . S
C83 C84 1.392 . S
C83 C88 1.356 . S
C84 C83 1.392 . S
C84 C85 1.368 . S
C84 H112 0.929 . S
C85 C84 1.368 . S
C85 C86 1.386 . S
C85 H113 0.929 . S
C86 C85 1.386 . S
C86 C87 1.373 . S
C87 C86 1.373 . S
C87 C88 1.409 . S
C87 H114 0.931 . S
C88 C83 1.356 . S
C88 C87 1.409 . S
C88 H115 0.930 . S
C89 O102 1.270 . S
C89 O103 1.248 . S
C90 O104 1.267 . S
C90 O105 1.278 . S
C91 Pr81 2.880 . S
C91 C92 1.491 . S
C91 O106 1.254 . S
C91 O107 1.225 . S
C92 C91 1.491 . S
C92 C93 1.392 . S
C92 C97 1.356 . S
C93 C92 1.392 . S
C93 C94 1.368 . S
C93 H116 0.929 . S
C94 C93 1.368 . S
C94 C95 1.386 . S
C94 H117 0.929 . S
C95 C94 1.386 . S
C95 C96 1.373 . S
C96 C95 1.373 . S
C96 C97 1.409 . S
C96 H118 0.931 . S
C97 C92 1.356 . S
C97 C96 1.409 . S
C97 H119 0.930 . S
C98 O108 1.270 . S
C98 O109 1.248 . S
C99 O110 1.267 . S
C99 O111 1.278 . S
O100 Pr80 2.562 . S
O100 C82 1.254 . S
O101 Pr80 2.490 . S
O101 C82 1.225 . S
O102 Pr80 2.695 . S
O102 Pr81 2.436 . S
O102 C89 1.270 . S
O103 Pr80 2.512 . S
O103 C89 1.248 . S
O104 Pr81 2.438 . S
O104 C90 1.267 . S
O105 Pr80 2.437 . S
O105 C90 1.278 . S
O106 Pr81 2.562 . S
O106 C91 1.254 . S
O107 Pr81 2.490 . S
O107 C91 1.225 . S
O108 Pr80 2.436 . S
O108 Pr81 2.695 . S
O108 C98 1.270 . S
O109 Pr81 2.512 . S
O109 C98 1.248 . S
O110 Pr80 2.438 . S
O110 C99 1.267 . S
O111 Pr81 2.437 . S
O111 C99 1.278 . S
H112 C84 0.929 . S
H113 C85 0.929 . S
H114 C87 0.931 . S
H115 C88 0.930 . S
H116 C93 0.929 . S
H117 C94 0.929 . S
H118 C96 0.931 . S
H119 C97 0.930 . S
Pr120 C122 2.880 . S
Pr120 O140 2.562 . S
Pr120 O141 2.490 . S
Pr120 O142 2.695 . S
Pr120 O143 2.512 . S
Pr120 O145 2.437 . S
Pr120 O148 2.436 . S
Pr120 O150 2.438 . S
Pr121 C131 2.880 . S
Pr121 O142 2.436 . S
Pr121 O144 2.438 . S
Pr121 O146 2.562 . S
Pr121 O147 2.490 . S
Pr121 O148 2.695 . S
Pr121 O149 2.512 . S
Pr121 O151 2.437 . S
C122 Pr120 2.880 . S
C122 C123 1.491 . S
C122 O140 1.254 . S
C122 O141 1.225 . S
C123 C122 1.491 . S
C123 C124 1.392 . S
C123 C128 1.356 . S
C124 C123 1.392 . S
C124 C125 1.368 . S
C124 H152 0.929 . S
C125 C124 1.368 . S
C125 C126 1.386 . S
C125 H153 0.929 . S
C126 C125 1.386 . S
C126 C127 1.373 . S
C127 C126 1.373 . S
C127 C128 1.409 . S
C127 H154 0.931 . S
C128 C123 1.356 . S
C128 C127 1.409 . S
C128 H155 0.930 . S
C129 O142 1.270 . S
C129 O143 1.248 . S
C130 O144 1.267 . S
C130 O145 1.278 . S
C131 Pr121 2.880 . S
C131 C132 1.491 . S
C131 O146 1.254 . S
C131 O147 1.225 . S
C132 C131 1.491 . S
C132 C133 1.392 . S
C132 C137 1.356 . S
C133 C132 1.392 . S
C133 C134 1.368 . S
C133 H156 0.929 . S
C134 C133 1.368 . S
C134 C135 1.386 . S
C134 H157 0.929 . S
C135 C134 1.386 . S
C135 C136 1.373 . S
C136 C135 1.373 . S
C136 C137 1.409 . S
C136 H158 0.931 . S
C137 C132 1.356 . S
C137 C136 1.409 . S
C137 H159 0.930 . S
C138 O148 1.270 . S
C138 O149 1.248 . S
C139 O150 1.267 . S
C139 O151 1.278 . S
O140 Pr120 2.562 . S
O140 C122 1.254 . S
O141 Pr120 2.490 . S
O141 C122 1.225 . S
O142 Pr120 2.695 . S
O142 Pr121 2.436 . S
O142 C129 1.270 . S
O143 Pr120 2.512 . S
O143 C129 1.248 . S
O144 Pr121 2.438 . S
O144 C130 1.267 . S
O145 Pr120 2.437 . S
O145 C130 1.278 . S
O146 Pr121 2.562 . S
O146 C131 1.254 . S
O147 Pr121 2.490 . S
O147 C131 1.225 . S
O148 Pr120 2.436 . S
O148 Pr121 2.695 . S
O148 C138 1.270 . S
O149 Pr121 2.512 . S
O149 C138 1.248 . S
O150 Pr120 2.438 . S
O150 C139 1.267 . S
O151 Pr121 2.437 . S
O151 C139 1.278 . S
H152 C124 0.929 . S
H153 C125 0.929 . S
H154 C127 0.931 . S
H155 C128 0.930 . S
H156 C133 0.929 . S
H157 C134 0.929 . S
H158 C136 0.931 . S
H159 C137 0.930 . S
Pr160 C162 2.880 1_556 S
Pr160 O180 2.562 1_556 S
Pr160 O181 2.490 1_556 S
Pr160 O182 2.695 . S
Pr160 O183 2.512 . S
Pr160 O185 2.437 1_556 S
Pr160 O188 2.436 1_556 S
Pr160 O190 2.438 . S
Pr161 C171 2.880 1_554 S
Pr161 O182 2.436 1_554 S
Pr161 O184 2.438 . S
Pr161 O186 2.562 1_554 S
Pr161 O187 2.490 1_554 S
Pr161 O188 2.695 . S
Pr161 O189 2.512 . S
Pr161 O191 2.437 1_554 S
C162 Pr160 2.880 1_554 S
C162 C163 1.491 . S
C162 O180 1.254 . S
C162 O181 1.225 . S
C163 C162 1.491 . S
C163 C164 1.392 . S
C163 C168 1.356 . S
C164 C163 1.392 . S
C164 C165 1.368 . S
C164 H192 0.929 . S
C165 C164 1.368 . S
C165 C166 1.386 . S
C165 H193 0.929 . S
C166 C165 1.386 . S
C166 C167 1.373 . S
C167 C166 1.373 . S
C167 C168 1.409 . S
C167 H194 0.931 . S
C168 C163 1.356 . S
C168 C167 1.409 . S
C168 H195 0.930 . S
C169 O182 1.270 . S
C169 O183 1.248 . S
C170 O184 1.267 . S
C170 O185 1.278 . S
C171 Pr161 2.880 1_556 S
C171 C172 1.491 . S
C171 O186 1.254 . S
C171 O187 1.225 . S
C172 C171 1.491 . S
C172 C173 1.392 . S
C172 C177 1.356 . S
C173 C172 1.392 . S
C173 C174 1.368 . S
C173 H196 0.929 . S
C174 C173 1.368 . S
C174 C175 1.386 . S
C174 H197 0.929 . S
C175 C174 1.386 . S
C175 C176 1.373 . S
C176 C175 1.373 . S
C176 C177 1.409 . S
C176 H198 0.931 . S
C177 C172 1.356 . S
C177 C176 1.409 . S
C177 H199 0.930 . S
C178 O188 1.270 . S
C178 O189 1.248 . S
C179 O190 1.267 . S
C179 O191 1.278 . S
O180 Pr160 2.562 1_554 S
O180 C162 1.254 . S
O181 Pr160 2.490 1_554 S
O181 C162 1.225 . S
O182 Pr160 2.695 . S
O182 Pr161 2.436 1_556 S
O182 C169 1.270 . S
O183 Pr160 2.512 . S
O183 C169 1.248 . S
O184 Pr161 2.438 . S
O184 C170 1.267 . S
O185 Pr160 2.437 1_554 S
O185 C170 1.278 . S
O186 Pr161 2.562 1_556 S
O186 C171 1.254 . S
O187 Pr161 2.490 1_556 S
O187 C171 1.225 . S
O188 Pr160 2.436 1_554 S
O188 Pr161 2.695 . S
O188 C178 1.270 . S
O189 Pr161 2.512 . S
O189 C178 1.248 . S
O190 Pr160 2.438 . S
O190 C179 1.267 . S
O191 Pr161 2.437 1_556 S
O191 C179 1.278 . S
H192 C164 0.929 . S
H193 C165 0.929 . S
H194 C167 0.931 . S
H195 C168 0.930 . S
H196 C173 0.929 . S
H197 C174 0.929 . S
H198 C176 0.931 . S
H199 C177 0.930 . S
Pr200 C202 2.880 1_556 S
Pr200 O220 2.562 1_556 S
Pr200 O221 2.490 1_556 S
Pr200 O222 2.695 . S
Pr200 O223 2.512 . S
Pr200 O225 2.437 1_556 S
Pr200 O228 2.436 1_556 S
Pr200 O230 2.438 . S
Pr201 C211 2.880 1_554 S
Pr201 O222 2.436 1_554 S
Pr201 O224 2.438 . S
Pr201 O226 2.562 1_554 S
Pr201 O227 2.490 1_554 S
Pr201 O228 2.695 . S
Pr201 O229 2.512 . S
Pr201 O231 2.437 1_554 S
C202 Pr200 2.880 1_554 S
C202 C203 1.491 . S
C202 O220 1.254 . S
C202 O221 1.225 . S
C203 C202 1.491 . S
C203 C204 1.392 . S
C203 C208 1.356 . S
C204 C203 1.392 . S
C204 C205 1.368 . S
C204 H232 0.929 . S
C205 C204 1.368 . S
C205 C206 1.386 . S
C205 H233 0.929 . S
C206 C205 1.386 . S
C206 C207 1.373 . S
C207 C206 1.373 . S
C207 C208 1.409 . S
C207 H234 0.931 . S
C208 C203 1.356 . S
C208 C207 1.409 . S
C208 H235 0.930 . S
C209 O222 1.270 . S
C209 O223 1.248 . S
C210 O224 1.267 . S
C210 O225 1.278 . S
C211 Pr201 2.880 1_556 S
C211 C212 1.491 . S
C211 O226 1.254 . S
C211 O227 1.225 . S
C212 C211 1.491 . S
C212 C213 1.392 . S
C212 C217 1.356 . S
C213 C212 1.392 . S
C213 C214 1.368 . S
C213 H236 0.929 . S
C214 C213 1.368 . S
C214 C215 1.386 . S
C214 H237 0.929 . S
C215 C214 1.386 . S
C215 C216 1.373 . S
C216 C215 1.373 . S
C216 C217 1.409 . S
C216 H238 0.931 . S
C217 C212 1.356 . S
C217 C216 1.409 . S
C217 H239 0.930 . S
C218 O228 1.270 . S
C218 O229 1.248 . S
C219 O230 1.267 . S
C219 O231 1.278 . S
O220 Pr200 2.562 1_554 S
O220 C202 1.254 . S
O221 Pr200 2.490 1_554 S
O221 C202 1.225 . S
O222 Pr200 2.695 . S
O222 Pr201 2.436 1_556 S
O222 C209 1.270 . S
O223 Pr200 2.512 . S
O223 C209 1.248 . S
O224 Pr201 2.438 . S
O224 C210 1.267 . S
O225 Pr200 2.437 1_554 S
O225 C210 1.278 . S
O226 Pr201 2.562 1_556 S
O226 C211 1.254 . S
O227 Pr201 2.490 1_556 S
O227 C211 1.225 . S
O228 Pr200 2.436 1_554 S
O228 Pr201 2.695 . S
O228 C218 1.270 . S
O229 Pr201 2.512 . S
O229 C218 1.248 . S
O230 Pr200 2.438 . S
O230 C219 1.267 . S
O231 Pr201 2.437 1_556 S
O231 C219 1.278 . S
H232 C204 0.929 . S
H233 C205 0.929 . S
H234 C207 0.931 . S
H235 C208 0.930 . S
H236 C213 0.929 . S
H237 C214 0.929 . S
H238 C216 0.931 . S
H239 C217 0.930 . S
Pr240 C242 2.880 1_556 S
Pr240 O260 2.562 1_556 S
Pr240 O261 2.490 1_556 S
Pr240 O262 2.695 . S
Pr240 O263 2.512 . S
Pr240 O265 2.437 1_556 S
Pr240 O268 2.436 1_556 S
Pr240 O270 2.438 . S
Pr241 C251 2.880 1_554 S
Pr241 O262 2.436 1_554 S
Pr241 O264 2.438 . S
Pr241 O266 2.562 1_554 S
Pr241 O267 2.490 1_554 S
Pr241 O268 2.695 . S
Pr241 O269 2.512 . S
Pr241 O271 2.437 1_554 S
C242 Pr240 2.880 1_554 S
C242 C243 1.491 . S
C242 O260 1.254 . S
C242 O261 1.225 . S
C243 C242 1.491 . S
C243 C244 1.392 . S
C243 C248 1.356 . S
C244 C243 1.392 . S
C244 C245 1.368 . S
C244 H272 0.929 . S
C245 C244 1.368 . S
C245 C246 1.386 . S
C245 H273 0.929 . S
C246 C245 1.386 . S
C246 C247 1.373 . S
C247 C246 1.373 . S
C247 C248 1.409 . S
C247 H274 0.931 . S
C248 C243 1.356 . S
C248 C247 1.409 . S
C248 H275 0.930 . S
C249 O262 1.270 . S
C249 O263 1.248 . S
C250 O264 1.267 . S
C250 O265 1.278 . S
C251 Pr241 2.880 1_556 S
C251 C252 1.491 . S
C251 O266 1.254 . S
C251 O267 1.225 . S
C252 C251 1.491 . S
C252 C253 1.392 . S
C252 C257 1.356 . S
C253 C252 1.392 . S
C253 C254 1.368 . S
C253 H276 0.929 . S
C254 C253 1.368 . S
C254 C255 1.386 . S
C254 H277 0.929 . S
C255 C254 1.386 . S
C255 C256 1.373 . S
C256 C255 1.373 . S
C256 C257 1.409 . S
C256 H278 0.931 . S
C257 C252 1.356 . S
C257 C256 1.409 . S
C257 H279 0.930 . S
C258 O268 1.270 . S
C258 O269 1.248 . S
C259 O270 1.267 . S
C259 O271 1.278 . S
O260 Pr240 2.562 1_554 S
O260 C242 1.254 . S
O261 Pr240 2.490 1_554 S
O261 C242 1.225 . S
O262 Pr240 2.695 . S
O262 Pr241 2.436 1_556 S
O262 C249 1.270 . S
O263 Pr240 2.512 . S
O263 C249 1.248 . S
O264 Pr241 2.438 . S
O264 C250 1.267 . S
O265 Pr240 2.437 1_554 S
O265 C250 1.278 . S
O266 Pr241 2.562 1_556 S
O266 C251 1.254 . S
O267 Pr241 2.490 1_556 S
O267 C251 1.225 . S
O268 Pr240 2.436 1_554 S
O268 Pr241 2.695 . S
O268 C258 1.270 . S
O269 Pr241 2.512 . S
O269 C258 1.248 . S
O270 Pr240 2.438 . S
O270 C259 1.267 . S
O271 Pr241 2.437 1_556 S
O271 C259 1.278 . S
H272 C244 0.929 . S
H273 C245 0.929 . S
H274 C247 0.931 . S
H275 C248 0.930 . S
H276 C253 0.929 . S
H277 C254 0.929 . S
H278 C256 0.931 . S
H279 C257 0.930 . S
Pr280 C282 2.880 1_556 S
Pr280 O300 2.562 1_556 S
Pr280 O301 2.490 1_556 S
Pr280 O302 2.695 . S
Pr280 O303 2.512 . S
Pr280 O305 2.437 1_556 S
Pr280 O308 2.436 1_556 S
Pr280 O310 2.438 . S
Pr281 C291 2.880 1_554 S
Pr281 O302 2.436 1_554 S
Pr281 O304 2.438 . S
Pr281 O306 2.562 1_554 S
Pr281 O307 2.490 1_554 S
Pr281 O308 2.695 . S
Pr281 O309 2.512 . S
Pr281 O311 2.437 1_554 S
C282 Pr280 2.880 1_554 S
C282 C283 1.491 . S
C282 O300 1.254 . S
C282 O301 1.225 . S
C283 C282 1.491 . S
C283 C284 1.392 . S
C283 C288 1.356 . S
C284 C283 1.392 . S
C284 C285 1.368 . S
C284 H312 0.929 . S
C285 C284 1.368 . S
C285 C286 1.386 . S
C285 H313 0.929 . S
C286 C285 1.386 . S
C286 C287 1.373 . S
C287 C286 1.373 . S
C287 C288 1.409 . S
C287 H314 0.931 . S
C288 C283 1.356 . S
C288 C287 1.409 . S
C288 H315 0.930 . S
C289 O302 1.270 . S
C289 O303 1.248 . S
C290 O304 1.267 . S
C290 O305 1.278 . S
C291 Pr281 2.880 1_556 S
C291 C292 1.491 . S
C291 O306 1.254 . S
C291 O307 1.225 . S
C292 C291 1.491 . S
C292 C293 1.392 . S
C292 C297 1.356 . S
C293 C292 1.392 . S
C293 C294 1.368 . S
C293 H316 0.929 . S
C294 C293 1.368 . S
C294 C295 1.386 . S
C294 H317 0.929 . S
C295 C294 1.386 . S
C295 C296 1.373 . S
C296 C295 1.373 . S
C296 C297 1.409 . S
C296 H318 0.931 . S
C297 C292 1.356 . S
C297 C296 1.409 . S
C297 H319 0.930 . S
C298 O308 1.270 . S
C298 O309 1.248 . S
C299 O310 1.267 . S
C299 O311 1.278 . S
O300 Pr280 2.562 1_554 S
O300 C282 1.254 . S
O301 Pr280 2.490 1_554 S
O301 C282 1.225 . S
O302 Pr280 2.695 . S
O302 Pr281 2.436 1_556 S
O302 C289 1.270 . S
O303 Pr280 2.512 . S
O303 C289 1.248 . S
O304 Pr281 2.438 . S
O304 C290 1.267 . S
O305 Pr280 2.437 1_554 S
O305 C290 1.278 . S
O306 Pr281 2.562 1_556 S
O306 C291 1.254 . S
O307 Pr281 2.490 1_556 S
O307 C291 1.225 . S
O308 Pr280 2.436 1_554 S
O308 Pr281 2.695 . S
O308 C298 1.270 . S
O309 Pr281 2.512 . S
O309 C298 1.248 . S
O310 Pr280 2.438 . S
O310 C299 1.267 . S
O311 Pr281 2.437 1_556 S
O311 C299 1.278 . S
H312 C284 0.929 . S
H313 C285 0.929 . S
H314 C287 0.931 . S
H315 C288 0.930 . S
H316 C293 0.929 . S
H317 C294 0.929 . S
H318 C296 0.931 . S
H319 C297 0.930 . S
C320 C321 1.170 . S
C320 C322 1.380 . S
C321 C320 1.170 . S
C322 C320 1.380 . S
C322 C323 1.170 . S
C323 C322 1.170 . S
C324 C325 1.170 . S
C324 C326 1.380 . S
C325 C324 1.170 . S
C326 C324 1.380 . S
C326 C327 1.170 . S
C327 C326 1.170 . S
C328 C329 1.170 . S
C328 C330 1.380 . S
C329 C328 1.170 . S
C330 C328 1.380 . S
C330 C331 1.170 . S
C331 C330 1.170 . S
C332 C333 1.170 . S
C332 C334 1.380 . S
C333 C332 1.170 . S
C334 C332 1.380 . S
C334 C335 1.170 . S
C335 C334 1.170 . S
C336 C337 1.170 . S
C336 C338 1.380 1_565 S
C337 C336 1.170 . S
C338 C336 1.380 1_545 S
C338 C339 1.170 . S
C339 C338 1.170 . S
C340 C341 1.170 . S
C340 C342 1.380 . S
C341 C340 1.170 . S
C342 C340 1.380 . S
C342 C343 1.170 . S
C343 C342 1.170 . S
C344 C345 1.170 . S
C344 C346 1.380 1_565 S
C345 C344 1.170 . S
C346 C344 1.380 1_545 S
C346 C347 1.170 . S
C347 C346 1.170 . S
C348 C349 1.170 . S
C348 C350 1.380 . S
C349 C348 1.170 . S
C350 C348 1.380 . S
C350 C351 1.170 . S
C351 C350 1.170 . S
C352 C353 1.170 . S
C352 C354 1.380 . S
C353 C352 1.170 . S
C354 C352 1.380 . S
C354 C355 1.170 . S
C355 C354 1.170 . S
C356 C357 1.170 . S
C356 C358 1.380 1_565 S
C357 C356 1.170 . S
C358 C356 1.380 1_545 S
C358 C359 1.170 . S
C359 C358 1.170 . S
C360 C361 1.170 . S
C360 C362 1.380 . S
C361 C360 1.170 . S
C362 C360 1.380 . S
C362 C363 1.170 1_556 S
C363 C362 1.170 1_554 S
C364 C365 1.170 . S
C364 C366 1.380 1_545 S
C365 C364 1.170 . S
C366 C364 1.380 1_565 S
C366 C367 1.170 . S
C367 C366 1.170 . S
C368 C369 1.170 1_556 S
C368 C370 1.380 . S
C369 C368 1.170 1_554 S
C370 C368 1.380 . S
C370 C371 1.170 . S
C371 C370 1.170 . S
C372 C373 1.170 1_556 S
C372 C374 1.380 . S
C373 C372 1.170 1_554 S
C374 C372 1.380 . S
C374 C375 1.170 . S
C375 C374 1.170 . S
C376 C377 1.170 . S
C376 C378 1.380 . S
C377 C376 1.170 . S
C378 C376 1.380 . S
C378 C379 1.170 1_554 S
C379 C378 1.170 1_556 S
C380 C381 1.170 1_554 S
C380 C382 1.380 . S
C381 C380 1.170 1_556 S
C382 C380 1.380 . S
C382 C383 1.170 . S
C383 C382 1.170 . S
C384 C385 1.170 . S
C384 C386 1.380 . S
C385 C384 1.170 . S
C386 C384 1.380 . S
C386 C387 1.170 . S
C387 C386 1.170 . S
C388 C389 1.170 . S
C388 C390 1.380 . S
C389 C388 1.170 . S
C390 C388 1.380 . S
C390 C391 1.170 . S
C391 C390 1.170 . S
C392 C393 1.170 . S
C392 C394 1.380 . S
C393 C392 1.170 . S
C394 C392 1.380 . S
C394 C395 1.170 . S
C395 C394 1.170 . S
C396 C397 1.170 . S
C396 C398 1.380 . S
C397 C396 1.170 . S
C398 C396 1.380 . S
C398 C399 1.170 . S
C399 C398 1.170 . S
C400 C401 1.170 . S
C400 C402 1.380 1_455 S
C401 C400 1.170 . S
C402 C400 1.380 1_655 S
C402 C403 1.170 . S
C403 C402 1.170 . S
C404 C405 1.170 . S
C404 C406 1.380 1_655 S
C405 C404 1.170 . S
C406 C404 1.380 1_455 S
C406 C407 1.170 . S
C407 C406 1.170 . S
C408 C409 1.170 . S
C408 C410 1.380 . S
C409 C408 1.170 . S
C410 C408 1.380 . S
C410 C411 1.170 . S
C411 C410 1.170 . S
C412 C413 1.170 . S
C412 C414 1.380 . S
C413 C412 1.170 . S
C414 C412 1.380 . S
C414 C415 1.170 . S
C415 C414 1.170 . S
C321 C6 1.682 . S
C323 C295 1.695 . S
C325 C255 1.686 . S
C327 C46 1.679 . S
C329 C206 1.696 . S
C331 C95 1.673 . S
C333 C166 1.689 . S
C335 C135 1.676 . S
C337 C89 1.603 . S
C339 C9 1.619 . S
C341 C49 1.608 . S
C343 C129 1.580 . S
C345 C138 1.621 . S
C347 C58 1.575 . S
C349 C98 1.600 . S
C351 C18 1.610 . S
C353 C169 1.450 . S
C355 C249 1.418 . S
C357 C209 1.441 . S
C359 C289 1.419 . S
C361 C298 1.449 1_556 S
C363 C218 1.422 . S
C365 C258 1.431 . S
C367 C178 1.447 . S
C369 C19 2.064 . S
C371 C10 2.066 . S
C373 C59 2.076 . S
C375 C50 2.044 . S
C377 C99 2.047 . S
C379 C90 2.077 . S
C381 C130 2.045 . S
C383 C139 2.076 . S
C385 C170 2.076 . S
C387 C179 2.047 . S
C389 C219 2.072 . S
C391 C210 2.056 . S
C393 C250 2.076 . S
C395 C259 2.047 . S
C397 C290 2.045 . S
C399 C299 2.076 . S
C401 C15 2.252 . S
C403 C55 2.248 . S
C405 C126 2.256 . S
C407 C86 2.249 . S
C409 C175 2.251 . S
C411 C215 2.249 . S
C413 C286 2.258 . S
C415 C246 2.251 . S
