# Generated by pormake.
# Topology bsn, (6)-cn, num edge types: 1
# Building blocks:
#     Node 0, Type 0, BuildingBlock: BETDEL_clean_sbu_0, # of connection points: 6
#     Node 1, Type 0, BuildingBlock: BETDEL_clean_sbu_0, # of connection points: 6
#     Node 2, Type 0, BuildingBlock: BETDEL_clean_sbu_0, # of connection points: 6
#     Node 3, Type 0, BuildingBlock: BETDEL_clean_sbu_0, # of connection points: 6
#     Edge 4, Type (0, 0), BuildingBlock: EZIPEK_clean_linker_0, # of connection points: 2
#     Edge 5, Type (0, 0), BuildingBlock: EZIPEK_clean_linker_0, # of connection points: 2
#     Edge 6, Type (0, 0), BuildingBlock: EZIPEK_clean_linker_0, # of connection points: 2
#     Edge 7, Type (0, 0), BuildingBlock: EZIPEK_clean_linker_0, # of connection points: 2
#     Edge 8, Type (0, 0), BuildingBlock: EZIPEK_clean_linker_0, # of connection points: 2
#     Edge 9, Type (0, 0), BuildingBlock: EZIPEK_clean_linker_0, # of connection points: 2
#     Edge 10, Type (0, 0), BuildingBlock: EZIPEK_clean_linker_0, # of connection points: 2
#     Edge 11, Type (0, 0), BuildingBlock: EZIPEK_clean_linker_0, # of connection points: 2
#     Edge 12, Type (0, 0), BuildingBlock: EZIPEK_clean_linker_0, # of connection points: 2
#     Edge 13, Type (0, 0), BuildingBlock: EZIPEK_clean_linker_0, # of connection points: 2
#     Edge 14, Type (0, 0), BuildingBlock: EZIPEK_clean_linker_0, # of connection points: 2
#     Edge 15, Type (0, 0), BuildingBlock: EZIPEK_clean_linker_0, # of connection points: 2
# Relax obj value: 0.364
# Max RMSD: 0.263
# Mean RMSD: 0.263
data_MOF--net-bsn--node1-BETDEL_clean_sbu_0--edge1-EZIPEK_clean_linker_0
_symmetry_space_group_name_H-M    P1
_symmetry_Int_Tables_number       1
_symmetry_cell_setting            triclinic
loop_
_symmetry_equiv_pos_as_xyz
'x, y, z'
_cell_length_a     24.981333
_cell_length_b     24.975181
_cell_length_c     10.427929
_cell_angle_alpha  93.959939
_cell_angle_beta   91.385334
_cell_angle_gamma 89.741225
loop_
_atom_site_label
_atom_site_type_symbol
_atom_site_fract_x
_atom_site_fract_y
_atom_site_fract_z
_atom_type_partial_charge
Dy0 Dy 0.07608 0.25842 0.35332 0.0
C1 C 0.84641 0.26935 0.3341 0.0
C2 C 0.17907 0.25463 0.26903 0.0
Dy3 Dy 0.95466 0.25454 0.35046 0.0
O4 O 0.16546 0.26257 0.38828 0.0
O5 O 0.13652 0.24838 0.196 0.0
O6 O 0.08158 0.288 0.55962 0.0
O7 O 0.01715 0.23874 0.49352 0.0
C8 C 0.03636 0.26663 0.58878 0.0
C9 C 1.00057 0.23952 0.12149 0.0
O10 O 0.97055 0.3383 0.43416 0.0
O11 O 0.05695 0.34636 0.36161 0.0
O12 O 0.88174 0.29634 0.27738 0.0
O13 O 0.87004 0.23443 0.4036 0.0
O14 O 0.95859 0.21414 0.15354 0.0
O15 O 0.01431 0.27351 0.21073 0.0
O16 O 0.06111 0.16853 0.35249 0.0
O17 O 0.96945 0.16916 0.39088 0.0
C18 C 0.01318 0.36746 0.41418 0.0
C19 C 0.01591 0.1435 0.37855 0.0
Dy20 Dy 0.01351 0.82279 0.60672 0.0
C21 C 1.00386 0.59385 0.57206 0.0
C22 C 0.02229 0.92558 0.53639 0.0
Dy23 Dy 0.01419 0.70255 0.59689 0.0
O24 O 0.02981 0.91075 0.65244 0.0
O25 O 1.01039 0.88432 0.45878 0.0
O26 O 0.98128 0.82966 0.80523 0.0
O27 O 0.03168 0.76495 0.74936 0.0
C28 C 1.00335 0.7852 0.83855 0.0
C29 C 0.03186 0.74531 0.37308 0.0
O30 O 0.92969 0.72051 0.6558 0.0
O31 O 0.9249 0.80892 0.60096 0.0
O32 O 0.97502 0.62744 0.51123 0.0
O33 O 0.03675 0.61953 0.65259 0.0
O34 O 0.0563 0.70332 0.41042 0.0
O35 O 0.99782 0.76097 0.45436 0.0
O36 O 0.1026 0.80386 0.60703 0.0
O37 O 0.09805 0.71639 0.66745 0.0
C38 C 0.90204 0.76492 0.63809 0.0
C39 C 0.12588 0.76002 0.64857 0.0
Dy40 Dy 0.5754 0.76186 0.8579 0.0
C41 C 0.34677 0.75567 0.8237 0.0
C42 C 0.6786 0.769 0.78045 0.0
Dy43 Dy 0.45524 0.765 0.85151 0.0
O44 O 0.66303 0.77745 0.89827 0.0
O45 O 0.63773 0.75702 0.70511 0.0
O46 O 0.5791 0.72424 0.04501 0.0
O47 O 0.51595 0.77745 0.00596 0.0
C48 C 0.5343 0.74551 0.0853 0.0
C49 C 0.50292 0.78087 0.62948 0.0
O50 O 0.46774 0.84936 0.92901 0.0
O51 O 0.55761 0.85168 0.87676 0.0
O52 O 0.3812 0.74355 0.73612 0.0
O53 O 0.37151 0.77143 0.9311 0.0
O54 O 0.46197 0.80811 0.67102 0.0
O55 O 0.5157 0.74695 0.70804 0.0
O56 O 0.55977 0.67352 0.82894 0.0
O57 O 0.47062 0.67798 0.88058 0.0
C58 C 0.51291 0.8759 0.91799 0.0
C59 C 0.51414 0.64944 0.85196 0.0
Dy60 Dy 0.5103 0.33375 0.11203 0.0
C61 C 0.50713 0.1024 0.0841 0.0
C62 C 0.51654 0.43532 0.02924 0.0
Dy63 Dy 0.51483 0.2121 0.1051 0.0
O64 O 0.50067 0.42404 0.14211 0.0
O65 O 0.52961 0.3915 0.96372 0.0
O66 O 0.47901 0.34089 0.31122 0.0
O67 O 0.52916 0.2762 0.25643 0.0
C68 C 0.50004 0.29613 0.34499 0.0
C69 C 0.53019 0.25553 0.88047 0.0
O70 O 0.4293 0.22965 0.15802 0.0
O71 O 0.42331 0.31414 0.08034 0.0
O72 O 0.48036 0.13509 0.01575 0.0
O73 O 0.53665 0.1297 0.16972 0.0
O74 O 0.55567 0.21392 0.91681 0.0
O75 O 0.49622 0.27017 0.96292 0.0
O76 O 0.60007 0.31927 0.12969 0.0
O77 O 0.59983 0.22821 0.16616 0.0
C78 C 0.40073 0.27189 0.12679 0.0
C79 C 0.62526 0.2743 0.15848 0.0
C80 C 0.01701 0.46401 0.36277 0.0
C81 C 1.01196 0.42555 0.45538 0.0
C82 C 0.99735 0.49783 0.62339 0.0
C83 C 1.00717 0.53601 0.5331 0.0
N84 N 0.03781 0.55581 0.32331 0.0
N85 N 1.00769 0.40619 0.67877 0.0
C86 C 0.02014 0.51928 0.40439 0.0
C87 C 1.00481 0.44254 0.58713 0.0
N88 N 0.0168 0.448 0.23465 0.0
N89 N 0.97937 0.51422 0.74266 0.0
H90 H 0.01484 0.36583 0.65635 0.0
H91 H 1.00847 0.41664 0.77723 0.0
H92 H 0.97394 0.55453 0.77299 0.0
H93 H 0.96555 0.48787 0.80754 0.0
H94 H 0.01432 0.47474 0.16233 0.0
H95 H 0.01409 0.40789 0.20005 0.0
H96 H 0.05304 0.54504 0.23303 0.0
H97 H 0.04249 0.59645 0.35079 0.0
C98 C 0.75107 0.79185 0.62802 0.0
C99 C 0.73521 0.76749 0.74038 0.0
C100 C 0.82875 0.74843 0.79213 0.0
C101 C 0.84441 0.76655 0.67236 0.0
N102 N 0.81775 0.79531 0.46373 0.0
N103 N 0.75856 0.70821 0.90699 0.0
C104 C 0.80478 0.78541 0.58638 0.0
C105 C 0.77387 0.74147 0.81584 0.0
N106 N 0.71577 0.823 0.56403 0.0
N107 N 0.86589 0.74072 0.88699 0.0
H108 H 0.71869 0.69898 0.92254 0.0
H109 H 0.78572 0.68468 0.95594 0.0
H110 H 0.90588 0.75006 0.87775 0.0
H111 H 0.85587 0.73212 -0.02015 0.0
H112 H 0.72677 0.84568 0.48876 0.0
H113 H 0.67693 0.83064 0.59459 0.0
H114 H 0.78926 0.80404 0.39353 0.0
H115 H 0.85618 0.78944 0.42836 0.0
C116 C 0.56307 0.51017 0.92793 0.0
C117 C 0.5154 0.48901 -0.02416 0.0
C118 C 0.46439 0.56417 0.89358 0.0
C119 C 0.51302 0.5895 0.86467 0.0
N120 N 0.60169 0.57132 0.78571 0.0
N121 N 0.41993 0.49588 0.00573 0.0
C122 C 0.56074 0.5583 0.86212 0.0
C123 C 0.46583 0.51605 0.95926 0.0
N124 N 0.61107 0.4855 0.94992 0.0
N125 N 0.41712 0.58259 0.84451 0.0
H126 H 0.4181 0.45889 0.04589 0.0
H127 H 0.38419 0.51745 0.0116 0.0
H128 H 0.41594 0.61173 0.77747 0.0
H129 H 0.3804 0.56381 0.85331 0.0
H130 H 0.64781 0.50237 0.93067 0.0
H131 H 0.61461 0.45042 -0.0017 0.0
H132 H 0.63596 0.54791 0.77241 0.0
H133 H 0.59759 0.60031 0.7189 0.0
C134 C 0.7524 0.30276 0.36235 0.0
C135 C 0.78917 0.2689 0.29451 0.0
C136 C 0.72055 0.24585 0.12728 0.0
C137 C 0.68252 0.27626 0.20027 0.0
N138 N 0.65973 0.32721 0.39644 0.0
N139 N 0.80775 0.20267 0.12184 0.0
C140 C 0.69781 0.30324 0.32011 0.0
C141 C 0.77306 0.2388 0.17959 0.0
N142 N 0.76989 0.33521 0.46574 0.0
N143 N 0.70685 0.22526 0.00605 0.0
H144 H 0.84664 0.19671 0.15673 0.0
H145 H 0.79684 0.17545 0.04569 0.0
H146 H 0.66888 0.2303 0.9646 0.0
H147 H 0.73408 0.20738 0.94223 0.0
H148 H 0.74661 0.36545 0.5102 0.0
H149 H 0.80912 0.3342 0.50226 0.0
H150 H 0.667 0.34188 0.49112 0.0
H151 H 0.61964 0.32883 0.36794 0.0
C152 C 0.31114 0.22654 0.09897 0.0
C153 C 0.34184 0.2715 0.14811 0.0
C154 C 0.26179 0.30958 0.25322 0.0
C155 C 0.2341 0.26087 0.22177 0.0
N156 N 0.2327 0.17113 0.12061 0.0
N157 N 0.34665 0.3548 0.28187 0.0
C158 C 0.25864 0.21896 0.14514 0.0
C159 C 0.31716 0.31302 0.22688 0.0
N160 N 0.33156 0.1921 0.00474 0.0
N161 N 0.23461 0.35357 0.30335 0.0
H162 H 0.38625 0.36161 0.26066 0.0
H163 H 0.33257 0.38126 0.35513 0.0
H164 H 0.19371 0.3533 0.32109 0.0
H165 H 0.25122 0.39184 0.31468 0.0
H166 H 0.3094 0.16154 0.95601 0.0
H167 H 0.36907 0.19754 0.9657 0.0
H168 H 0.25077 0.13703 0.07756 0.0
H169 H 0.19422 0.16417 0.15221 0.0
C170 C 0.25667 0.80199 0.82388 0.0
C171 C 0.2884 0.7556 0.79525 0.0
C172 C 0.2165 0.71742 0.65396 0.0
C173 C 0.1828 0.7611 0.69249 0.0
N174 N 0.1672 0.83816 0.84103 0.0
N175 N 0.29322 0.6636 0.70923 0.0
C176 C 0.20175 0.80155 0.78512 0.0
C177 C 0.26662 0.71159 0.7182 0.0
N178 N 0.27908 0.84755 0.88182 0.0
N179 N 0.20155 0.68247 0.55292 0.0
H180 H 0.32891 0.65724 0.75997 0.0
H181 H 0.27693 0.62874 0.66372 0.0
H182 H 0.16597 0.68663 0.50003 0.0
H183 H 0.22694 0.6529 0.51315 0.0
H184 H 0.25874 0.8841 0.89078 0.0
H185 H 0.31921 0.8505 0.9105 0.0
H186 H 0.1781 0.86446 0.91917 0.0
H187 H 0.12645 0.83879 0.81853 0.0
C188 C 0.52339 0.97302 0.87426 0.0
C189 C 0.51413 0.93378 0.96286 0.0
C190 C 0.50021 1.00526 0.13406 0.0
C191 C 0.51275 0.04414 0.04686 0.0
N192 N 0.5495 0.0643 0.84352 0.0
N193 N 0.502 0.91165 0.18209 0.0
C194 C 0.52818 0.0278 0.91966 0.0
C195 C 0.50494 0.94967 0.09439 0.0
N196 N 0.52501 0.95836 0.74569 0.0
N197 N 0.48166 0.0214 0.25287 0.0
H198 H 0.50401 0.87068 0.15656 0.0
H199 H 0.50174 0.9206 0.28108 0.0
H200 H 0.47841 0.06168 0.28555 0.0
H201 H 0.46592 0.99522 0.3156 0.0
H202 H 0.52581 0.98589 0.67513 0.0
H203 H 0.52012 0.91882 0.70864 0.0
H204 H 0.56631 0.05371 0.75487 0.0
H205 H 0.5558 0.10439 0.87461 0.0
C206 C 0.99247 0.02145 0.56869 0.0
C207 C 0.02277 0.98174 0.49914 0.0
C208 C 0.04452 0.04666 0.34235 0.0
C209 C 0.01901 0.08772 0.41948 0.0
N210 N 0.98249 0.11577 0.62714 0.0
N211 N 0.08921 0.9605 0.33973 0.0
C212 C 0.99693 0.07567 0.53883 0.0
C213 C 0.05209 0.99539 0.39128 0.0
N214 N 0.95753 1.00755 0.65959 0.0
N215 N 0.05991 0.05581 0.22105 0.0
H216 H 0.09869 0.92467 0.38067 0.0
H217 H 0.11487 0.97006 0.26742 0.0
H218 H 0.05341 0.09232 0.18048 0.0
H219 H 0.07407 0.02556 0.15662 0.0
H220 H 0.9306 0.03472 0.70306 0.0
H221 H 0.95121 0.96806 0.6818 0.0
H222 H 0.97168 0.1087 0.72041 0.0
H223 H 0.98715 0.15625 0.61328 0.0
C224 C 0.975 0.27772 0.91503 0.0
C225 C 1.01094 0.24629 -0.0143 0.0
C226 C 0.06246 0.22457 0.79271 0.0
C227 C 0.02514 0.25472 0.72184 0.0
N228 N 0.93626 0.29199 0.70599 0.0
N229 N 0.08125 0.18001 -0.01164 0.0
C230 C 0.9783 0.2757 0.77988 0.0
C231 C 0.05266 0.21685 0.9237 0.0
N232 N 0.93843 0.31042 -0.02306 0.0
N233 N 0.10655 0.20245 0.73433 0.0
H234 H 0.0749 0.17359 0.08451 0.0
H235 H 0.10843 0.15317 0.945 0.0
H236 H 0.11189 0.20155 0.63535 0.0
H237 H 0.13862 0.18632 0.78453 0.0
H238 H 0.91495 0.33805 0.93029 0.0
H239 H 0.93538 0.31386 0.07659 0.0
H240 H 0.89934 0.30354 0.74343 0.0
H241 H 0.93612 0.28745 0.6061 0.0
C242 C 0.04047 0.81235 0.0602 0.0
C243 C 0.01383 0.77395 -0.02586 0.0
C244 C 0.99725 0.71803 0.15177 0.0
C245 C 0.02615 0.75492 0.23602 0.0
N246 N 0.08996 0.82688 0.26144 0.0
N247 N 0.98416 0.68219 0.93262 0.0
C248 C 0.05202 0.79919 0.18793 0.0
C249 C 0.99783 0.7241 0.01798 0.0
N250 N 0.05517 0.8612 0.02135 0.0
N251 N 0.96806 0.67804 0.19921 0.0
H252 H 0.98513 0.68464 0.83359 0.0
H253 H 0.97714 0.64357 0.9602 0.0
H254 H 0.96587 0.67277 0.29712 0.0
H255 H 0.94204 0.65348 0.14224 0.0
H256 H 0.06872 0.89236 0.08547 0.0
H257 H 0.05149 0.87194 0.92694 0.0
H258 H 0.1158 0.85405 0.22359 0.0
H259 H 0.09942 0.81845 0.3559 0.0
C260 C 0.48578 0.7261 0.28315 0.0
C261 C 0.5257 0.75525 0.22419 0.0
C262 C 0.54885 0.80351 0.43075 0.0
C263 C 0.51195 0.77118 0.49095 0.0
N264 N 0.45158 0.69541 0.47997 0.0
N265 N 0.599 0.81851 0.24071 0.0
C266 C 0.48223 0.73059 0.41885 0.0
C267 C 0.55845 0.79302 0.29774 0.0
N268 N 0.45026 0.6952 0.20931 0.0
N269 N 0.57395 0.84489 0.5004 0.0
H270 H 0.60505 0.81527 0.14193 0.0
H271 H 0.62843 0.84102 0.2918 0.0
H272 H 0.57073 0.85127 0.59977 0.0
H273 H 0.59576 0.87447 0.45945 0.0
H274 H 0.41639 0.67794 0.24534 0.0
H275 H 0.45195 0.69066 0.10967 0.0
H276 H 0.43423 0.66125 0.43377 0.0
H277 H 0.447 0.69739 0.57907 0.0
C278 C 0.53667 0.32341 0.56798 0.0
C279 C 0.50957 0.28526 0.48165 0.0
C280 C 0.49255 0.2298 0.66062 0.0
C281 C 0.5236 0.26544 0.74343 0.0
N282 N 0.58892 0.33618 0.76603 0.0
N283 N 0.47546 0.19506 0.44186 0.0
C284 C 0.54963 0.30946 0.69452 0.0
C285 C 0.49179 0.23618 0.52659 0.0
N286 N 0.55052 0.37276 0.53065 0.0
N287 N 0.463 0.19046 0.70972 0.0
H288 H 0.47656 0.19728 0.34288 0.0
H289 H 0.46685 0.15678 0.46944 0.0
H290 H 0.4623 0.1846 0.80759 0.0
H291 H 0.43542 0.16697 0.65472 0.0
H292 H 0.56403 0.40363 0.59569 0.0
H293 H 0.54654 0.38413 0.43679 0.0
H294 H 0.61303 0.36528 0.72978 0.0
H295 H 0.60089 0.32547 0.85738 0.0
loop_
_geom_bond_atom_site_label_1
_geom_bond_atom_site_label_2
_geom_bond_distance
_geom_bond_site_symmetry_2
_ccdc_geom_bond_type
Dy0 O4 2.398 . S
Dy0 O5 2.491 . S
Dy0 O6 2.403 . S
Dy0 O7 2.664 1_455 S
Dy0 O11 2.326 . S
Dy0 O15 2.310 . S
Dy0 O16 2.351 . S
C1 O12 1.185 . S
C1 O13 1.355 . S
C2 O4 1.185 . S
C2 O5 1.355 . S
Dy3 O7 2.310 . S
Dy3 O10 2.351 . S
Dy3 O12 2.398 . S
Dy3 O13 2.491 . S
Dy3 O14 2.403 . S
Dy3 O15 2.664 1_655 S
Dy3 O17 2.326 . S
O4 Dy0 2.398 . S
O4 C2 1.185 . S
O5 Dy0 2.491 . S
O5 C2 1.355 . S
O6 Dy0 2.403 . S
O6 C8 1.254 . S
O7 Dy0 2.664 1_655 S
O7 Dy3 2.310 . S
O7 C8 1.268 1_655 S
C8 O6 1.254 . S
C8 O7 1.268 1_455 S
C9 O14 1.254 . S
C9 O15 1.268 1_655 S
O10 Dy3 2.351 . S
O10 C18 1.249 1_655 S
O11 Dy0 2.326 . S
O11 C18 1.267 . S
O12 C1 1.185 . S
O12 Dy3 2.398 . S
O13 C1 1.355 . S
O13 Dy3 2.491 . S
O14 Dy3 2.403 . S
O14 C9 1.254 . S
O15 Dy0 2.310 . S
O15 Dy3 2.664 1_455 S
O15 C9 1.268 1_455 S
O16 Dy0 2.351 . S
O16 C19 1.249 1_455 S
O17 Dy3 2.326 . S
O17 C19 1.267 . S
C18 O10 1.249 1_455 S
C18 O11 1.267 . S
C19 O16 1.249 1_655 S
C19 O17 1.267 . S
Dy20 O24 2.398 1_455 S
Dy20 O25 2.491 1_455 S
Dy20 O26 2.403 . S
Dy20 O27 2.664 . S
Dy20 O31 2.326 1_455 S
Dy20 O35 2.310 1_455 S
Dy20 O36 2.351 . S
C21 O32 1.185 . S
C21 O33 1.355 . S
C22 O24 1.185 . S
C22 O25 1.355 . S
Dy23 O27 2.310 1_655 S
Dy23 O30 2.351 . S
Dy23 O32 2.398 1_655 S
Dy23 O33 2.491 1_655 S
Dy23 O34 2.403 . S
Dy23 O35 2.664 . S
Dy23 O37 2.326 1_655 S
O24 Dy20 2.398 1_655 S
O24 C22 1.185 . S
O25 Dy20 2.491 1_655 S
O25 C22 1.355 . S
O26 Dy20 2.403 . S
O26 C28 1.254 . S
O27 Dy20 2.664 . S
O27 Dy23 2.310 1_455 S
O27 C28 1.268 . S
C28 O26 1.254 . S
C28 O27 1.268 . S
C29 O34 1.254 . S
C29 O35 1.268 . S
O30 Dy23 2.351 . S
O30 C38 1.249 . S
O31 Dy20 2.326 1_655 S
O31 C38 1.267 . S
O32 C21 1.185 . S
O32 Dy23 2.398 1_455 S
O33 C21 1.355 . S
O33 Dy23 2.491 1_455 S
O34 Dy23 2.403 . S
O34 C29 1.254 . S
O35 Dy20 2.310 1_655 S
O35 Dy23 2.664 . S
O35 C29 1.268 . S
O36 Dy20 2.351 . S
O36 C39 1.249 . S
O37 Dy23 2.326 1_455 S
O37 C39 1.267 . S
C38 O30 1.249 . S
C38 O31 1.267 . S
C39 O36 1.249 . S
C39 O37 1.267 . S
Dy40 O44 2.398 . S
Dy40 O45 2.491 . S
Dy40 O46 2.403 1_556 S
Dy40 O47 2.664 1_556 S
Dy40 O51 2.326 . S
Dy40 O55 2.310 . S
Dy40 O56 2.351 . S
C41 O52 1.185 . S
C41 O53 1.355 . S
C42 O44 1.185 . S
C42 O45 1.355 . S
Dy43 O47 2.310 1_556 S
Dy43 O50 2.351 . S
Dy43 O52 2.398 . S
Dy43 O53 2.491 . S
Dy43 O54 2.403 . S
Dy43 O55 2.664 . S
Dy43 O57 2.326 . S
O44 Dy40 2.398 . S
O44 C42 1.185 . S
O45 Dy40 2.491 . S
O45 C42 1.355 . S
O46 Dy40 2.403 1_554 S
O46 C48 1.254 . S
O47 Dy40 2.664 1_554 S
O47 Dy43 2.310 1_554 S
O47 C48 1.268 . S
C48 O46 1.254 . S
C48 O47 1.268 . S
C49 O54 1.254 . S
C49 O55 1.268 . S
O50 Dy43 2.351 . S
O50 C58 1.249 . S
O51 Dy40 2.326 . S
O51 C58 1.267 . S
O52 C41 1.185 . S
O52 Dy43 2.398 . S
O53 C41 1.355 . S
O53 Dy43 2.491 . S
O54 Dy43 2.403 . S
O54 C49 1.254 . S
O55 Dy40 2.310 . S
O55 Dy43 2.664 . S
O55 C49 1.268 . S
O56 Dy40 2.351 . S
O56 C59 1.249 . S
O57 Dy43 2.326 . S
O57 C59 1.267 . S
C58 O50 1.249 . S
C58 O51 1.267 . S
C59 O56 1.249 . S
C59 O57 1.267 . S
Dy60 O64 2.398 . S
Dy60 O65 2.491 . S
Dy60 O66 2.403 . S
Dy60 O67 2.664 . S
Dy60 O71 2.326 . S
Dy60 O75 2.310 1_554 S
Dy60 O76 2.351 . S
C61 O72 1.185 . S
C61 O73 1.355 . S
C62 O64 1.185 . S
C62 O65 1.355 . S
Dy63 O67 2.310 . S
Dy63 O70 2.351 . S
Dy63 O72 2.398 . S
Dy63 O73 2.491 . S
Dy63 O74 2.403 1_554 S
Dy63 O75 2.664 1_554 S
Dy63 O77 2.326 . S
O64 Dy60 2.398 . S
O64 C62 1.185 . S
O65 Dy60 2.491 . S
O65 C62 1.355 . S
O66 Dy60 2.403 . S
O66 C68 1.254 . S
O67 Dy60 2.664 . S
O67 Dy63 2.310 . S
O67 C68 1.268 . S
C68 O66 1.254 . S
C68 O67 1.268 . S
C69 O74 1.254 . S
C69 O75 1.268 . S
O70 Dy63 2.351 . S
O70 C78 1.249 . S
O71 Dy60 2.326 . S
O71 C78 1.267 . S
O72 C61 1.185 . S
O72 Dy63 2.398 . S
O73 C61 1.355 . S
O73 Dy63 2.491 . S
O74 Dy63 2.403 1_556 S
O74 C69 1.254 . S
O75 Dy60 2.310 1_556 S
O75 Dy63 2.664 1_556 S
O75 C69 1.268 . S
O76 Dy60 2.351 . S
O76 C79 1.249 . S
O77 Dy63 2.326 . S
O77 C79 1.267 . S
C78 O70 1.249 . S
C78 O71 1.267 . S
C79 O76 1.249 . S
C79 O77 1.267 . S
C80 C81 1.363 . S
C80 C86 1.379 . S
C80 N88 1.356 . S
C81 C80 1.363 . S
C81 C87 1.363 . S
C82 C83 1.363 . S
C82 C87 1.379 . S
C82 N89 1.356 . S
C83 C82 1.363 . S
C83 C86 1.363 . S
N84 C86 1.356 . S
N84 H96 0.984 . S
N84 H97 0.985 . S
N85 C87 1.356 . S
N85 H90 0.984 . S
N85 H91 0.985 . S
C86 C80 1.379 . S
C86 C83 1.363 . S
C86 N84 1.356 . S
C87 C81 1.363 . S
C87 C82 1.379 . S
C87 N85 1.356 . S
N88 C80 1.356 . S
N88 H94 0.984 . S
N88 H95 0.984 . S
N89 C82 1.356 . S
N89 H92 0.984 . S
N89 H93 0.985 . S
H90 N85 0.984 . S
H91 N85 0.985 . S
H92 N89 0.984 . S
H93 N89 0.985 . S
H94 N88 0.984 . S
H95 N88 0.984 . S
H96 N84 0.984 . S
H97 N84 0.985 . S
C98 C99 1.363 . S
C98 C104 1.379 . S
C98 N106 1.356 . S
C99 C98 1.363 . S
C99 C105 1.363 . S
C100 C101 1.363 . S
C100 C105 1.379 . S
C100 N107 1.356 . S
C101 C100 1.363 . S
C101 C104 1.363 . S
N102 C104 1.356 . S
N102 H114 0.984 . S
N102 H115 0.985 . S
N103 C105 1.356 . S
N103 H108 0.984 . S
N103 H109 0.985 . S
C104 C98 1.379 . S
C104 C101 1.363 . S
C104 N102 1.356 . S
C105 C99 1.363 . S
C105 C100 1.379 . S
C105 N103 1.356 . S
N106 C98 1.356 . S
N106 H112 0.984 . S
N106 H113 0.984 . S
N107 C100 1.356 . S
N107 H110 0.984 . S
N107 H111 0.985 . S
H108 N103 0.984 . S
H109 N103 0.985 . S
H110 N107 0.984 . S
H111 N107 0.985 . S
H112 N106 0.984 . S
H113 N106 0.984 . S
H114 N102 0.984 . S
H115 N102 0.985 . S
C116 C117 1.363 1_556 S
C116 C122 1.379 . S
C116 N124 1.356 . S
C117 C116 1.363 1_554 S
C117 C123 1.363 . S
C118 C119 1.363 1_554 S
C118 C123 1.379 . S
C118 N125 1.356 1_554 S
C119 C118 1.363 1_556 S
C119 C122 1.363 . S
N120 C122 1.356 . S
N120 H132 0.984 . S
N120 H133 0.985 . S
N121 C123 1.356 . S
N121 H126 0.984 . S
N121 H127 0.985 . S
C122 C116 1.379 . S
C122 C119 1.363 . S
C122 N120 1.356 . S
C123 C117 1.363 . S
C123 C118 1.379 . S
C123 N121 1.356 . S
N124 C116 1.356 . S
N124 H130 0.984 . S
N124 H131 0.984 1_556 S
N125 C118 1.356 1_556 S
N125 H128 0.985 . S
N125 H129 0.984 1_556 S
H126 N121 0.984 . S
H127 N121 0.985 . S
H128 N125 0.985 . S
H129 N125 0.984 1_554 S
H130 N124 0.984 . S
H131 N124 0.984 1_554 S
H132 N120 0.984 . S
H133 N120 0.985 . S
C134 C135 1.363 . S
C134 C140 1.379 . S
C134 N142 1.356 . S
C135 C134 1.363 . S
C135 C141 1.363 . S
C136 C137 1.363 . S
C136 C141 1.379 . S
C136 N143 1.356 . S
C137 C136 1.363 . S
C137 C140 1.363 . S
N138 C140 1.356 . S
N138 H150 0.984 . S
N138 H151 0.985 . S
N139 C141 1.356 . S
N139 H144 0.984 . S
N139 H145 0.985 . S
C140 C134 1.379 . S
C140 C137 1.363 . S
C140 N138 1.356 . S
C141 C135 1.363 . S
C141 C136 1.379 . S
C141 N139 1.356 . S
N142 C134 1.356 . S
N142 H148 0.984 . S
N142 H149 0.984 . S
N143 C136 1.356 . S
N143 H146 0.984 . S
N143 H147 0.985 1_554 S
H144 N139 0.984 . S
H145 N139 0.985 . S
H146 N143 0.984 . S
H147 N143 0.985 1_556 S
H148 N142 0.984 . S
H149 N142 0.984 . S
H150 N138 0.984 . S
H151 N138 0.985 . S
C152 C153 1.363 . S
C152 C158 1.379 . S
C152 N160 1.356 . S
C153 C152 1.363 . S
C153 C159 1.363 . S
C154 C155 1.363 . S
C154 C159 1.379 . S
C154 N161 1.356 . S
C155 C154 1.363 . S
C155 C158 1.363 . S
N156 C158 1.356 . S
N156 H168 0.984 . S
N156 H169 0.985 . S
N157 C159 1.356 . S
N157 H162 0.984 . S
N157 H163 0.985 . S
C158 C152 1.379 . S
C158 C155 1.363 . S
C158 N156 1.356 . S
C159 C153 1.363 . S
C159 C154 1.379 . S
C159 N157 1.356 . S
N160 C152 1.356 . S
N160 H166 0.984 1_554 S
N160 H167 0.984 1_554 S
N161 C154 1.356 . S
N161 H164 0.984 . S
N161 H165 0.985 . S
H162 N157 0.984 . S
H163 N157 0.985 . S
H164 N161 0.984 . S
H165 N161 0.985 . S
H166 N160 0.984 1_556 S
H167 N160 0.984 1_556 S
H168 N156 0.984 . S
H169 N156 0.985 . S
C170 C171 1.363 . S
C170 C176 1.379 . S
C170 N178 1.356 . S
C171 C170 1.363 . S
C171 C177 1.363 . S
C172 C173 1.363 . S
C172 C177 1.379 . S
C172 N179 1.356 . S
C173 C172 1.363 . S
C173 C176 1.363 . S
N174 C176 1.356 . S
N174 H186 0.984 . S
N174 H187 0.985 . S
N175 C177 1.356 . S
N175 H180 0.984 . S
N175 H181 0.985 . S
C176 C170 1.379 . S
C176 C173 1.363 . S
C176 N174 1.356 . S
C177 C171 1.363 . S
C177 C172 1.379 . S
C177 N175 1.356 . S
N178 C170 1.356 . S
N178 H184 0.984 . S
N178 H185 0.984 . S
N179 C172 1.356 . S
N179 H182 0.984 . S
N179 H183 0.985 . S
H180 N175 0.984 . S
H181 N175 0.985 . S
H182 N179 0.984 . S
H183 N179 0.985 . S
H184 N178 0.984 . S
H185 N178 0.984 . S
H186 N174 0.984 . S
H187 N174 0.985 . S
C188 C189 1.363 . S
C188 C194 1.379 1_565 S
C188 N196 1.356 . S
C189 C188 1.363 . S
C189 C195 1.363 1_556 S
C190 C191 1.363 1_565 S
C190 C195 1.379 . S
C190 N197 1.356 . S
C191 C190 1.363 1_545 S
C191 C194 1.363 1_554 S
N192 C194 1.356 . S
N192 H204 0.984 . S
N192 H205 0.985 . S
N193 C195 1.356 . S
N193 H198 0.984 . S
N193 H199 0.985 . S
C194 C188 1.379 1_545 S
C194 C191 1.363 1_556 S
C194 N192 1.356 . S
C195 C189 1.363 1_554 S
C195 C190 1.379 . S
C195 N193 1.356 . S
N196 C188 1.356 . S
N196 H202 0.984 . S
N196 H203 0.984 . S
N197 C190 1.356 . S
N197 H200 0.984 1_565 S
N197 H201 0.985 . S
H198 N193 0.984 . S
H199 N193 0.985 . S
H200 N197 0.984 1_545 S
H201 N197 0.985 . S
H202 N196 0.984 . S
H203 N196 0.984 . S
H204 N192 0.984 . S
H205 N192 0.985 . S
C206 C207 1.363 1_545 S
C206 C212 1.379 . S
C206 N214 1.356 . S
C207 C206 1.363 1_565 S
C207 C213 1.363 . S
C208 C209 1.363 . S
C208 C213 1.379 1_545 S
C208 N215 1.356 . S
C209 C208 1.363 . S
C209 C212 1.363 . S
N210 C212 1.356 . S
N210 H222 0.984 . S
N210 H223 0.985 . S
N211 C213 1.356 . S
N211 H216 0.984 . S
N211 H217 0.985 . S
C212 C206 1.379 . S
C212 C209 1.363 . S
C212 N210 1.356 . S
C213 C207 1.363 . S
C213 C208 1.379 1_565 S
C213 N211 1.356 . S
N214 C206 1.356 . S
N214 H220 0.984 . S
N214 H221 0.984 1_545 S
N215 C208 1.356 . S
N215 H218 0.984 . S
N215 H219 0.985 . S
H216 N211 0.984 . S
H217 N211 0.985 . S
H218 N215 0.984 . S
H219 N215 0.985 . S
H220 N214 0.984 . S
H221 N214 0.984 1_565 S
H222 N210 0.984 . S
H223 N210 0.985 . S
C224 C225 1.363 1_656 S
C224 C230 1.379 . S
C224 N232 1.356 1_556 S
C225 C224 1.363 1_454 S
C225 C231 1.363 1_554 S
C226 C227 1.358 1_455 S
C226 C231 1.379 . S
C226 N233 1.356 . S
C227 C226 1.358 1_655 S
C227 C230 1.368 . S
N228 C230 1.356 . S
N228 H240 0.984 . S
N228 H241 0.985 . S
N229 C231 1.356 1_554 S
N229 H234 0.984 . S
N229 H235 0.984 1_554 S
C230 C224 1.379 . S
C230 C227 1.368 . S
C230 N228 1.356 . S
C231 C225 1.363 1_556 S
C231 C226 1.379 . S
C231 N229 1.356 1_556 S
N232 C224 1.356 1_554 S
N232 H238 0.984 . S
N232 H239 0.984 . S
N233 C226 1.356 . S
N233 H236 0.984 . S
N233 H237 0.985 . S
H234 N229 0.984 . S
H235 N229 0.984 1_556 S
H236 N233 0.984 . S
H237 N233 0.985 . S
H238 N232 0.984 . S
H239 N232 0.984 . S
H240 N228 0.984 . S
H241 N228 0.985 . S
C242 C243 1.363 1_554 S
C242 C248 1.379 . S
C242 N250 1.356 1_554 S
C243 C242 1.363 1_556 S
C243 C249 1.363 1_456 S
C244 C245 1.368 . S
C244 C249 1.379 . S
C244 N251 1.356 . S
C245 C244 1.368 . S
C245 C248 1.358 1_655 S
N246 C248 1.356 . S
N246 H258 0.984 . S
N246 H259 0.985 . S
N247 C249 1.356 1_556 S
N247 H252 0.984 . S
N247 H253 0.985 . S
C248 C242 1.379 . S
C248 C245 1.358 1_455 S
C248 N246 1.356 . S
C249 C243 1.363 1_654 S
C249 C244 1.379 . S
C249 N247 1.356 1_554 S
N250 C242 1.356 1_556 S
N250 H256 0.984 . S
N250 H257 0.984 . S
N251 C244 1.356 . S
N251 H254 0.984 . S
N251 H255 0.985 . S
H252 N247 0.984 . S
H253 N247 0.985 . S
H254 N251 0.984 . S
H255 N251 0.985 . S
H256 N250 0.984 . S
H257 N250 0.984 . S
H258 N246 0.984 . S
H259 N246 0.985 . S
C260 C261 1.363 . S
C260 C266 1.379 . S
C260 N268 1.356 . S
C261 C260 1.363 . S
C261 C267 1.363 . S
C262 C263 1.363 . S
C262 C267 1.379 . S
C262 N269 1.356 . S
C263 C262 1.363 . S
C263 C266 1.363 . S
N264 C266 1.356 . S
N264 H276 0.984 . S
N264 H277 0.985 . S
N265 C267 1.356 . S
N265 H270 0.984 . S
N265 H271 0.985 . S
C266 C260 1.379 . S
C266 C263 1.363 . S
C266 N264 1.356 . S
C267 C261 1.363 . S
C267 C262 1.379 . S
C267 N265 1.356 . S
N268 C260 1.356 . S
N268 H274 0.984 . S
N268 H275 0.984 . S
N269 C262 1.356 . S
N269 H272 0.984 . S
N269 H273 0.985 . S
H270 N265 0.984 . S
H271 N265 0.985 . S
H272 N269 0.984 . S
H273 N269 0.985 . S
H274 N268 0.984 . S
H275 N268 0.984 . S
H276 N264 0.984 . S
H277 N264 0.985 . S
C278 C279 1.363 . S
C278 C284 1.379 . S
C278 N286 1.356 . S
C279 C278 1.363 . S
C279 C285 1.363 . S
C280 C281 1.363 . S
C280 C285 1.379 . S
C280 N287 1.356 . S
C281 C280 1.363 . S
C281 C284 1.363 . S
N282 C284 1.356 . S
N282 H294 0.984 . S
N282 H295 0.985 . S
N283 C285 1.356 . S
N283 H288 0.984 . S
N283 H289 0.985 . S
C284 C278 1.379 . S
C284 C281 1.363 . S
C284 N282 1.356 . S
C285 C279 1.363 . S
C285 C280 1.379 . S
C285 N283 1.356 . S
N286 C278 1.356 . S
N286 H292 0.984 . S
N286 H293 0.984 . S
N287 C280 1.356 . S
N287 H290 0.984 . S
N287 H291 0.985 . S
H288 N283 0.984 . S
H289 N283 0.985 . S
H290 N287 0.984 . S
H291 N287 0.985 . S
H292 N286 0.984 . S
H293 N286 0.984 . S
H294 N282 0.984 . S
H295 N282 0.985 . S
C81 C18 1.764 . S
C83 C21 1.719 . S
C99 C42 1.807 . S
C101 C38 1.788 . S
C117 C62 1.847 . S
C119 C59 1.944 . S
C135 C1 1.762 . S
C137 C79 1.923 . S
C153 C78 1.788 . S
C155 C2 1.807 . S
C171 C41 1.762 . S
C173 C39 1.923 . S
C189 C58 1.764 . S
C191 C61 1.719 . S
C207 C22 1.847 . S
C209 C19 1.944 . S
C225 C9 1.045 1_455 S
C227 C8 1.042 1_655 S
C243 C28 1.053 . S
C245 C29 1.054 . S
C261 C48 1.045 . S
C263 C49 1.045 . S
C279 C68 1.053 . S
C281 C69 1.053 . S
