# Generated by pormake.
# Topology yff, (5)-cn, num edge types: 1
# Building blocks:
#     Node 0, Type 0, BuildingBlock: BEQFEK_clean_sbu_0, # of connection points: 5
#     Node 1, Type 0, BuildingBlock: BEQFEK_clean_sbu_0, # of connection points: 5
#     Node 2, Type 0, BuildingBlock: BEQFEK_clean_sbu_0, # of connection points: 5
#     Node 3, Type 0, BuildingBlock: BEQFEK_clean_sbu_0, # of connection points: 5
#     Node 4, Type 0, BuildingBlock: BEQFEK_clean_sbu_0, # of connection points: 5
#     Node 5, Type 0, BuildingBlock: BEQFEK_clean_sbu_0, # of connection points: 5
#     Node 6, Type 0, BuildingBlock: BEQFEK_clean_sbu_0, # of connection points: 5
#     Node 7, Type 0, BuildingBlock: BEQFEK_clean_sbu_0, # of connection points: 5
#     Node 8, Type 0, BuildingBlock: BEQFEK_clean_sbu_0, # of connection points: 5
#     Node 9, Type 0, BuildingBlock: BEQFEK_clean_sbu_0, # of connection points: 5
#     Node 10, Type 0, BuildingBlock: BEQFEK_clean_sbu_0, # of connection points: 5
#     Node 11, Type 0, BuildingBlock: BEQFEK_clean_sbu_0, # of connection points: 5
#     Node 12, Type 0, BuildingBlock: BEQFEK_clean_sbu_0, # of connection points: 5
#     Node 13, Type 0, BuildingBlock: BEQFEK_clean_sbu_0, # of connection points: 5
#     Node 14, Type 0, BuildingBlock: BEQFEK_clean_sbu_0, # of connection points: 5
#     Node 15, Type 0, BuildingBlock: BEQFEK_clean_sbu_0, # of connection points: 5
#     Edge 16, Type (0, 0), BuildingBlock: OJICUG_clean_linker_0, # of connection points: 2
#     Edge 17, Type (0, 0), BuildingBlock: OJICUG_clean_linker_0, # of connection points: 2
#     Edge 18, Type (0, 0), BuildingBlock: OJICUG_clean_linker_0, # of connection points: 2
#     Edge 19, Type (0, 0), BuildingBlock: OJICUG_clean_linker_0, # of connection points: 2
#     Edge 20, Type (0, 0), BuildingBlock: OJICUG_clean_linker_0, # of connection points: 2
#     Edge 21, Type (0, 0), BuildingBlock: OJICUG_clean_linker_0, # of connection points: 2
#     Edge 22, Type (0, 0), BuildingBlock: OJICUG_clean_linker_0, # of connection points: 2
#     Edge 23, Type (0, 0), BuildingBlock: OJICUG_clean_linker_0, # of connection points: 2
#     Edge 24, Type (0, 0), BuildingBlock: OJICUG_clean_linker_0, # of connection points: 2
#     Edge 25, Type (0, 0), BuildingBlock: OJICUG_clean_linker_0, # of connection points: 2
#     Edge 26, Type (0, 0), BuildingBlock: OJICUG_clean_linker_0, # of connection points: 2
#     Edge 27, Type (0, 0), BuildingBlock: OJICUG_clean_linker_0, # of connection points: 2
#     Edge 28, Type (0, 0), BuildingBlock: OJICUG_clean_linker_0, # of connection points: 2
#     Edge 29, Type (0, 0), BuildingBlock: OJICUG_clean_linker_0, # of connection points: 2
#     Edge 30, Type (0, 0), BuildingBlock: OJICUG_clean_linker_0, # of connection points: 2
#     Edge 31, Type (0, 0), BuildingBlock: OJICUG_clean_linker_0, # of connection points: 2
#     Edge 32, Type (0, 0), BuildingBlock: OJICUG_clean_linker_0, # of connection points: 2
#     Edge 33, Type (0, 0), BuildingBlock: OJICUG_clean_linker_0, # of connection points: 2
#     Edge 34, Type (0, 0), BuildingBlock: OJICUG_clean_linker_0, # of connection points: 2
#     Edge 35, Type (0, 0), BuildingBlock: OJICUG_clean_linker_0, # of connection points: 2
#     Edge 36, Type (0, 0), BuildingBlock: OJICUG_clean_linker_0, # of connection points: 2
#     Edge 37, Type (0, 0), BuildingBlock: OJICUG_clean_linker_0, # of connection points: 2
#     Edge 38, Type (0, 0), BuildingBlock: OJICUG_clean_linker_0, # of connection points: 2
#     Edge 39, Type (0, 0), BuildingBlock: OJICUG_clean_linker_0, # of connection points: 2
#     Edge 40, Type (0, 0), BuildingBlock: OJICUG_clean_linker_0, # of connection points: 2
#     Edge 41, Type (0, 0), BuildingBlock: OJICUG_clean_linker_0, # of connection points: 2
#     Edge 42, Type (0, 0), BuildingBlock: OJICUG_clean_linker_0, # of connection points: 2
#     Edge 43, Type (0, 0), BuildingBlock: OJICUG_clean_linker_0, # of connection points: 2
#     Edge 44, Type (0, 0), BuildingBlock: OJICUG_clean_linker_0, # of connection points: 2
#     Edge 45, Type (0, 0), BuildingBlock: OJICUG_clean_linker_0, # of connection points: 2
#     Edge 46, Type (0, 0), BuildingBlock: OJICUG_clean_linker_0, # of connection points: 2
#     Edge 47, Type (0, 0), BuildingBlock: OJICUG_clean_linker_0, # of connection points: 2
#     Edge 48, Type (0, 0), BuildingBlock: OJICUG_clean_linker_0, # of connection points: 2
#     Edge 49, Type (0, 0), BuildingBlock: OJICUG_clean_linker_0, # of connection points: 2
#     Edge 50, Type (0, 0), BuildingBlock: OJICUG_clean_linker_0, # of connection points: 2
#     Edge 51, Type (0, 0), BuildingBlock: OJICUG_clean_linker_0, # of connection points: 2
#     Edge 52, Type (0, 0), BuildingBlock: OJICUG_clean_linker_0, # of connection points: 2
#     Edge 53, Type (0, 0), BuildingBlock: OJICUG_clean_linker_0, # of connection points: 2
#     Edge 54, Type (0, 0), BuildingBlock: OJICUG_clean_linker_0, # of connection points: 2
#     Edge 55, Type (0, 0), BuildingBlock: OJICUG_clean_linker_0, # of connection points: 2
# Relax obj value: 0.554
# Max RMSD: 0.296
# Mean RMSD: 0.281
data_MOF--net-yff--node1-BEQFEK_clean_sbu_0--edge1-OJICUG_clean_linker_0
_symmetry_space_group_name_H-M    P1
_symmetry_Int_Tables_number       1
_symmetry_cell_setting            triclinic
loop_
_symmetry_equiv_pos_as_xyz
'x, y, z'
_cell_length_a     53.102614
_cell_length_b     51.140026
_cell_length_c     21.012137
_cell_angle_alpha  89.621367
_cell_angle_beta   89.275483
_cell_angle_gamma 88.897387
loop_
_atom_site_label
_atom_site_type_symbol
_atom_site_fract_x
_atom_site_fract_y
_atom_site_fract_z
_atom_type_partial_charge
Co0 Co 0.0688 0.03586 0.28462 0.0
Co1 Co 0.1268 0.035 0.26155 0.0
C2 C 0.09946 0.98626 0.25058 0.0
O3 O 0.08 1.00046 0.26011 0.0
O4 O 0.12141 0.99596 0.25132 0.0
C5 C 0.04298 0.01302 0.37791 0.0
O6 O 0.06603 1.00336 0.38117 0.0
C7 C 0.18335 0.03171 0.26967 0.0
C8 C 0.19207 0.07163 0.23646 0.0
C9 C 0.20318 0.04877 0.25923 0.0
N10 N 0.16163 0.04417 0.25394 0.0
N11 N 0.16715 0.06791 0.2337 0.0
C12 C 0.18476 1.00495 0.2985 0.0
H13 H 0.16621 0.99954 0.3191 0.0
H14 H 0.19941 1.00398 0.33571 0.0
H15 H 0.19001 0.99066 0.26088 0.0
C16 C 0.08302 0.06543 0.39536 0.0
N17 N 0.08961 0.05185 0.34317 0.0
N18 N 0.11408 0.04789 0.34144 0.0
C19 C 0.12368 0.05739 0.39591 0.0
C20 C 0.10415 0.06904 0.43154 0.0
C21 C 0.05663 0.07417 0.41172 0.0
H22 H 0.04455 0.07406 0.36912 0.0
H23 H 0.04881 0.06116 0.44919 0.0
H24 H 0.05648 0.0943 0.431 0.0
O25 O 0.06718 0.05829 0.21 0.0
O26 O 0.10863 0.05607 0.19142 0.0
H27 H 0.16183 0.06834 0.38051 0.0
H28 H 0.15379 0.06183 0.46294 0.0
C29 C 0.15087 0.0556 0.41311 0.0
H30 H 0.15792 0.03522 0.40659 0.0
H31 H 0.15375 0.08188 0.21944 0.0
O32 O 0.03753 0.02884 0.33269 0.0
C33 C 0.08647 0.06451 0.17691 0.0
Co34 Co 0.47792 0.05752 0.79627 0.0
Co35 Co 0.47758 0.11776 0.76767 0.0
C36 C 0.52508 0.08853 0.75894 0.0
O37 O 0.51217 0.06861 0.77254 0.0
O38 O 0.51479 0.11113 0.75428 0.0
C39 C 0.50431 0.01706 0.86125 0.0
O40 O 0.5241 0.0253 0.82953 0.0
C41 C 0.4805 0.17623 0.76527 0.0
C42 C 0.44292 0.18538 0.72585 0.0
C43 C 0.4648 0.19684 0.74612 0.0
N44 N 0.46831 0.15368 0.75628 0.0
N45 N 0.44586 0.15943 0.7331 0.0
C46 C 0.50689 0.17786 0.78875 0.0
H47 H 0.51715 0.15899 0.78246 0.0
H48 H 0.5064 0.18252 0.84024 0.0
H49 H 0.51704 0.19366 0.76335 0.0
C50 C 0.45117 0.07575 0.9104 0.0
N51 N 0.46325 0.08079 0.85535 0.0
N52 N 0.46606 0.10615 0.84906 0.0
C53 C 0.45705 0.11793 0.90237 0.0
C54 C 0.4471 0.09891 0.9426 0.0
C55 C 0.44458 0.049 0.93367 0.0
H56 H 0.45982 0.04163 0.96491 0.0
H57 H 0.4269 0.04952 0.96224 0.0
H58 H 0.44209 0.03554 0.89326 0.0
O59 O 0.45605 0.05629 0.72217 0.0
O60 O 0.45725 0.09901 0.70195 0.0
H61 H 0.44504 0.15701 0.881 0.0
H62 H 0.45217 0.15136 0.96398 0.0
C63 C 0.45791 0.14666 0.91431 0.0
H64 H 0.47724 0.15364 0.90465 0.0
H65 H 0.43254 0.14553 0.72166 0.0
O66 O 0.48242 0.0239 0.84279 0.0
C67 C 0.44938 0.07617 0.68916 0.0
Co68 Co 0.45132 0.47282 0.30796 0.0
Co69 Co 0.39357 0.4792 0.28025 0.0
C70 C 0.42455 0.52546 0.28076 0.0
O71 O 0.44262 0.50963 0.29187 0.0
O72 O 0.40225 0.51738 0.27361 0.0
C73 C 0.49397 0.49544 0.36557 0.0
O74 O 0.48847 0.516 0.33034 0.0
C75 C 0.33803 0.48735 0.29242 0.0
C76 C 0.32489 0.45655 0.22821 0.0
C77 C 0.31648 0.47614 0.26872 0.0
N78 N 0.35828 0.47476 0.26726 0.0
N79 N 0.3502 0.45653 0.22857 0.0
C80 C 0.33933 0.51053 0.33519 0.0
H81 H 0.35918 0.51525 0.34529 0.0
H82 H 0.32913 0.50668 0.38052 0.0
H83 H 0.32987 0.52758 0.3121 0.0
C84 C 0.43235 0.44551 0.41904 0.0
N85 N 0.42786 0.45836 0.36448 0.0
N86 N 0.40367 0.46405 0.36025 0.0
C87 C 0.3923 0.4562 0.41507 0.0
C88 C 0.41022 0.44415 0.45376 0.0
C89 C 0.45797 0.437 0.44087 0.0
H90 H 0.47019 0.43178 0.39957 0.0
H91 H 0.46633 0.45318 0.46771 0.0
H92 H 0.45689 0.41978 0.47302 0.0
O93 O 0.4517 0.45248 0.23012 0.0
O94 O 0.41087 0.45803 0.21014 0.0
H95 H 0.3532 0.4549 0.39238 0.0
H96 H 0.35987 0.45041 0.47605 0.0
C97 C 0.36525 0.46113 0.43196 0.0
H98 H 0.36214 0.48236 0.43973 0.0
H99 H 0.362 0.44377 0.20294 0.0
O100 O 0.48381 0.47372 0.35357 0.0
C101 C 0.4326 0.44827 0.19592 0.0
Co102 Co 0.01629 0.37502 0.7862 0.0
Co103 Co 0.07 0.36896 0.84697 0.0
C104 C 0.03773 0.3221 0.81195 0.0
O105 O 0.0191 0.33586 0.79198 0.0
O106 O 0.05733 0.33295 0.83326 0.0
C107 C 0.96028 0.38383 0.76439 0.0
O108 O 0.95426 0.36732 0.81 0.0
C109 C 0.0961 0.36348 0.96632 0.0
C110 C 0.13348 0.3791 0.94263 0.0
C111 C 0.11805 0.37256 -0.0059 0.0
N112 N 0.09818 0.36619 0.90281 0.0
N113 N 0.12097 0.37447 0.8887 0.0
C114 C 0.07205 0.35547 -0.00156 0.0
H115 H 0.06494 0.37089 0.03124 0.0
H116 H 0.07554 0.33734 0.02651 0.0
H117 H 0.05742 0.35133 0.96285 0.0
C118 C 0.00821 0.40952 0.89931 0.0
N119 N 0.02193 0.39174 0.86559 0.0
N120 N 0.04537 0.39193 0.88531 0.0
C121 C 0.04754 0.41092 0.92921 0.0
C122 C 0.02394 0.42189 0.94115 0.0
C123 C 0.98162 0.41756 0.88544 0.0
H124 H 0.98047 0.42505 0.83593 0.0
H125 H 0.9694 0.40037 0.89081 0.0
H126 H 0.97459 0.43308 0.91816 0.0
O127 O 0.04212 0.38905 0.72434 0.0
O128 O 0.08052 0.38443 0.76462 0.0
H129 H 0.08771 0.41552 0.91965 0.0
H130 H 0.07141 0.44292 0.95457 0.0
C131 C 0.07204 0.4213 0.95206 0.0
H132 H 0.07568 0.41404 0.00094 0.0
H133 H 0.12705 0.37945 0.84284 0.0
O134 O 0.98336 0.38759 0.75053 0.0
C135 C 0.06594 0.39204 0.72025 0.0
Co136 Co 0.57496 0.97181 0.67879 0.0
Co137 Co 0.6326 0.97584 0.70463 0.0
C138 C 0.6016 0.02267 0.71387 0.0
O139 O 0.58373 0.00742 0.7024 0.0
O140 O 0.62437 0.01433 0.7158 0.0
C141 C 0.54718 0.99367 0.58605 0.0
O142 O 0.56947 1.00417 0.5798 0.0
C143 C 0.68937 0.97928 0.7007 0.0
C144 C 0.69849 0.93897 0.73241 0.0
C145 C 0.70946 0.96192 0.71182 0.0
N146 N 0.66767 0.96686 0.71389 0.0
N147 N 0.67344 0.94289 0.73322 0.0
C148 C 0.69061 1.00633 0.67374 0.0
H149 H 0.67217 0.0124 0.65353 0.0
H150 H 0.70563 0.00738 0.63663 0.0
H151 H 0.69526 0.02007 0.71232 0.0
C152 C 0.5934 0.94438 0.56791 0.0
N153 N 0.59804 0.95695 0.62203 0.0
N154 N 0.62188 0.96305 0.62412 0.0
C155 C 0.63281 0.95628 0.5679 0.0
C156 C 0.61496 0.94405 0.53068 0.0
C157 C 0.56809 0.93453 0.54967 0.0
H158 H 0.55554 0.93283 0.59198 0.0
H159 H 0.55948 0.94793 0.51398 0.0
H160 H 0.57017 0.915 0.52734 0.0
O161 O 0.57385 0.95013 0.75413 0.0
O162 O 0.61461 0.95487 0.77452 0.0
H163 H 0.67231 0.95042 0.58044 0.0
H164 H 0.66334 0.95713 0.49905 0.0
C165 C 0.65941 0.96203 0.54964 0.0
H166 H 0.66305 0.98301 0.55792 0.0
H167 H 0.66015 0.92891 0.74561 0.0
O168 O 0.54343 0.97747 0.63145 0.0
C169 C 0.59298 0.94553 0.78871 0.0
Co170 Co 0.54129 0.56169 0.19848 0.0
Co171 Co 0.54226 0.62154 0.22001 0.0
C172 C 0.49552 0.59484 0.24281 0.0
O173 O 0.50839 0.57426 0.23119 0.0
O174 O 0.50522 0.61738 0.23851 0.0
C175 C 0.51601 0.53526 0.11221 0.0
O176 O 0.5061 0.55899 0.11168 0.0
C177 C 0.54094 0.67979 0.21346 0.0
C178 C 0.58081 0.68704 0.23545 0.0
C179 C 0.5584 0.69953 0.21932 0.0
N180 N 0.55273 0.65674 0.22533 0.0
N181 N 0.57645 0.66132 0.23883 0.0
C182 C 0.51424 0.68241 0.19229 0.0
H183 H 0.50786 0.66375 0.17188 0.0
H184 H 0.51225 0.69843 0.15668 0.0
H185 H 0.50206 0.68723 0.23403 0.0
C186 C 0.56571 0.57686 0.07959 0.0
N187 N 0.55485 0.58335 0.13536 0.0
N188 N 0.55163 0.60881 0.13818 0.0
C189 C 0.55899 0.61926 0.08176 0.0
C190 C 0.5683 0.59917 0.04317 0.0
C191 C 0.57332 0.54961 0.06055 0.0
H192 H 0.55952 0.54209 0.02634 0.0
H193 H 0.59194 0.54963 0.03606 0.0
H194 H 0.57456 0.53652 0.10266 0.0
O195 O 0.5652 0.55903 0.26741 0.0
O196 O 0.56369 0.60194 0.28497 0.0
H197 H 0.57128 0.65833 0.09431 0.0
H198 H 0.56154 0.65116 0.01425 0.0
C199 C 0.55744 0.64772 0.06553 0.0
H200 H 0.5384 0.65556 0.07788 0.0
H201 H 0.58987 0.64674 0.24892 0.0
O202 O 0.5327 0.52953 0.1534 0.0
C203 C 0.5721 0.57894 0.29842 0.0
Co204 Co 0.94376 0.52757 0.66228 0.0
Co205 Co 0.88662 0.52925 0.6939 0.0
C206 C 0.9131 0.47924 0.69861 0.0
O207 O 0.9324 0.4924 0.6847 0.0
O208 O 0.89152 0.49029 0.70451 0.0
C209 C 0.96952 0.50452 0.5662 0.0
O210 O 0.94666 0.4955 0.56077 0.0
C211 C 0.8307 0.52651 0.70437 0.0
C212 C 0.82183 0.56735 0.73188 0.0
C213 C 0.81091 0.54348 0.72071 0.0
N214 N 0.85228 0.5399 0.70611 0.0
N215 N 0.84675 0.5643 0.72207 0.0
C216 C 0.82961 0.49776 0.69236 0.0
H217 H 0.84174 0.48721 0.72705 0.0
H218 H 0.83731 0.49355 0.64408 0.0
H219 H 0.81016 0.49041 0.69675 0.0
C220 C 0.92752 0.55783 0.5533 0.0
N221 N 0.92204 0.54525 0.60765 0.0
N222 N 0.89773 0.54159 0.61213 0.0
C223 C 0.88714 0.54993 0.55714 0.0
C224 C 0.90586 0.5607 0.51822 0.0
C225 C 0.95351 0.56556 0.53291 0.0
H226 H 0.96642 0.56555 0.57396 0.0
H227 H 0.96074 0.55197 0.49573 0.0
H228 H 0.95298 0.58548 0.51167 0.0
O229 O 0.94719 0.54829 0.73822 0.0
O230 O 0.90619 0.54828 0.76237 0.0
H231 H 0.84868 0.56149 0.5703 0.0
H232 H 0.85649 0.55071 0.49055 0.0
C233 C 0.85993 0.54714 0.54191 0.0
H234 H 0.85368 0.5273 0.55586 0.0
H235 H 0.86012 0.5788 0.72732 0.0
O236 O 0.97429 0.51987 0.61194 0.0
C237 C 0.92879 0.55499 0.77445 0.0
Co238 Co 0.98322 0.94271 0.18573 0.0
Co239 Co 0.98606 0.88238 0.21003 0.0
C240 C 0.03205 0.91247 0.21807 0.0
O241 O 0.01765 0.93206 0.20819 0.0
O242 O 0.02351 0.8893 0.21902 0.0
C243 C 1.00413 0.97048 0.09144 0.0
O244 O 0.014 0.94682 0.08644 0.0
C245 C 0.98964 0.82334 0.20111 0.0
C246 C 0.95153 0.81427 0.23716 0.0
C247 C 0.97327 0.80275 0.21226 0.0
N248 N 0.97786 0.84591 0.21844 0.0
N249 N 0.95523 0.84011 0.24054 0.0
C250 C 0.01504 0.82179 0.16985 0.0
H251 H 0.02092 0.84142 0.15321 0.0
H252 H 0.01481 0.808 0.12929 0.0
H253 H 0.02893 0.81419 0.20473 0.0
C254 C 0.95528 0.92641 0.07619 0.0
N255 N 0.96832 0.92023 0.12853 0.0
N256 N 0.97315 0.89499 0.13028 0.0
C257 C 0.96478 0.88456 0.07549 0.0
C258 C 0.95297 0.90429 0.03975 0.0
C259 C 0.94605 0.95346 0.05953 0.0
H260 H 0.94548 0.96614 0.10211 0.0
H261 H 0.95851 0.96193 0.0223 0.0
H262 H 0.92681 0.95282 0.0398 0.0
O263 O 0.96214 0.94402 0.26165 0.0
O264 O 0.96565 0.90114 0.28096 0.0
H265 H 0.95675 0.84428 0.09071 0.0
H266 H 0.962 0.85305 0.0081 0.0
C267 C 0.96808 0.85646 0.05767 0.0
H268 H 0.98813 0.85044 0.06294 0.0
H269 H 0.94191 0.854 0.25614 0.0
O270 O 0.98888 0.97538 0.13745 0.0
C271 C 0.957 0.924 0.29555 0.0
Co272 Co 0.95198 0.97635 0.68869 0.0
Co273 Co 0.89402 0.97715 0.71237 0.0
C274 C 0.92129 0.02589 0.72348 0.0
O275 O 0.94073 0.0117 0.71356 0.0
O276 O 0.89933 0.01619 0.72296 0.0
C277 C 0.97769 0.99936 0.5953 0.0
O278 O 0.95466 0.00908 0.59224 0.0
C279 C 0.83735 0.97971 0.7053 0.0
C280 C 0.82936 0.93967 0.73884 0.0
C281 C 0.81782 0.96233 0.71624 0.0
N282 N 0.85931 0.96761 0.72056 0.0
N283 N 0.85421 0.94379 0.74099 0.0
C284 C 0.83546 1.00646 0.67651 0.0
H285 H 0.85391 0.01226 0.65602 0.0
H286 H 0.82083 0.00712 0.63922 0.0
H287 H 0.8299 0.02064 0.71411 0.0
C288 C 0.93758 0.94712 0.57761 0.0
N289 N 0.93108 0.96047 0.63022 0.0
N290 N 0.90662 0.96449 0.63217 0.0
C291 C 0.89695 0.95531 0.57746 0.0
C292 C 0.91642 0.94378 0.54142 0.0
C293 C 0.96392 0.93836 0.56084 0.0
H294 H 0.97608 0.93829 0.60332 0.0
H295 H 0.97172 0.95145 0.52352 0.0
H296 H 0.96397 0.91829 0.54117 0.0
O297 O 0.95382 0.95382 0.7631 0.0
O298 O 0.91241 0.95607 0.78209 0.0
H299 H 0.85873 0.94461 0.59287 0.0
H300 H 0.86678 0.9512 0.51047 0.0
C301 C 0.86976 0.95732 0.56036 0.0
H302 H 0.86285 0.97773 0.5671 0.0
H303 H 0.86786 0.93004 0.75499 0.0
O304 O 0.98316 0.98347 0.64037 0.0
C305 C 0.93458 0.9476 0.79637 0.0
Co306 Co 0.54091 0.95066 0.1879 0.0
Co307 Co 0.54232 0.89026 0.21254 0.0
C308 C 0.4943 0.91817 0.22262 0.0
O309 O 0.50698 0.93843 0.21068 0.0
O310 O 0.50486 0.89563 0.22567 0.0
C311 C 0.51357 0.99152 0.12689 0.0
O312 O 0.49404 0.98265 0.15861 0.0
C313 C 0.54098 0.83199 0.20846 0.0
C314 C 0.58063 0.8232 0.23302 0.0
C315 C 0.55836 0.81157 0.21635 0.0
N316 N 0.55269 0.8546 0.21971 0.0
N317 N 0.57628 0.8491 0.23479 0.0
C318 C 0.51447 0.83034 0.18597 0.0
H319 H 0.50849 0.84898 0.16286 0.0
H320 H 0.51262 0.81389 0.15224 0.0
H321 H 0.50187 0.8268 0.22753 0.0
C322 C 0.56786 0.93419 0.07217 0.0
N323 N 0.55585 0.92846 0.12692 0.0
N324 N 0.55351 0.90299 0.1319 0.0
C325 C 0.56283 0.89182 0.07816 0.0
C326 C 0.57247 0.91134 0.03905 0.0
C327 C 0.5739 0.96126 0.05012 0.0
H328 H 0.55867 0.9684 0.01858 0.0
H329 H 0.59173 0.96136 0.02214 0.0
H330 H 0.57582 0.97454 0.09109 0.0
O331 O 0.56297 0.9514 0.26159 0.0
O332 O 0.5625 0.90848 0.27941 0.0
H333 H 0.57676 0.85304 0.0951 0.0
H334 H 0.56734 0.85917 0.01403 0.0
C335 C 0.56265 0.86317 0.06471 0.0
H336 H 0.54387 0.85529 0.07685 0.0
H337 H 0.58962 0.86317 0.24489 0.0
O338 O 0.53564 0.98478 0.14429 0.0
C339 C 0.57009 0.93131 0.29326 0.0
Co340 Co 0.5693 0.53422 0.68404 0.0
Co341 Co 0.62701 0.5298 0.71526 0.0
C342 C 0.59766 0.48271 0.71712 0.0
O343 O 0.57935 0.498 0.70411 0.0
O344 O 0.61981 0.49133 0.72416 0.0
C345 C 0.529 0.50935 0.6213 0.0
O346 O 0.53564 0.48878 0.65525 0.0
C347 C 0.68369 0.52559 0.71824 0.0
C348 C 0.69106 0.56358 0.76319 0.0
C349 C 0.70297 0.54136 0.73936 0.0
N350 N 0.66149 0.53812 0.72943 0.0
N351 N 0.6662 0.5608 0.75607 0.0
C352 C 0.68618 0.49877 0.69068 0.0
H353 H 0.66811 0.48836 0.69482 0.0
H354 H 0.69135 0.50036 0.63953 0.0
H355 H 0.70132 0.48744 0.71501 0.0
C356 C 0.58897 0.56131 0.57305 0.0
N357 N 0.59292 0.54887 0.62841 0.0
N358 N 0.61708 0.54355 0.63453 0.0
C359 C 0.62909 0.55112 0.58051 0.0
C360 C 0.61155 0.56282 0.54009 0.0
C361 C 0.56356 0.56938 0.549 0.0
H362 H 0.55054 0.57394 0.58921 0.0
H363 H 0.55605 0.55323 0.52038 0.0
H364 H 0.56477 0.5869 0.51783 0.0
O365 O 0.56725 0.55529 0.7609 0.0
O366 O 0.60794 0.55038 0.78314 0.0
H367 H 0.66776 0.557 0.60172 0.0
H368 H 0.66164 0.55261 0.51792 0.0
C369 C 0.65644 0.54623 0.56687 0.0
H370 H 0.66083 0.52507 0.57284 0.0
H371 H 0.65234 0.5745 0.7695 0.0
O372 O 0.53763 0.5316 0.63532 0.0
C373 C 0.58598 0.55977 0.79623 0.0
Co374 Co 0.98147 0.54888 0.17539 0.0
Co375 Co 0.98279 0.61007 0.19403 0.0
C376 C 0.02896 0.57835 0.21234 0.0
O377 O 0.0156 0.55868 0.20058 0.0
O378 O 0.01959 0.60155 0.21177 0.0
C379 C 1.00288 0.5128 0.09527 0.0
O380 O 0.01436 0.53463 0.08078 0.0
C381 C 0.98743 0.6692 0.18826 0.0
C382 C 0.94739 0.67961 0.20554 0.0
C383 C 0.97065 0.69053 0.19347 0.0
N384 N 0.9744 0.64695 0.19672 0.0
N385 N 0.95056 0.65353 0.20728 0.0
C386 C 0.01485 0.66977 0.17166 0.0
H387 H 0.0211 0.65089 0.15038 0.0
H388 H 0.01877 0.6861 0.13812 0.0
H389 H 0.0257 0.67285 0.21568 0.0
C390 C 0.95812 0.56517 0.05599 0.0
N391 N 0.96944 0.57104 0.11071 0.0
N392 N 0.9725 0.59647 0.11381 0.0
C393 C 0.96428 0.60743 0.05888 0.0
C394 C 0.95466 0.58785 0.02102 0.0
C395 C 0.95073 0.5382 0.03709 0.0
H396 H 0.94751 0.52581 0.07975 0.0
H397 H 0.9659 0.52934 0.00704 0.0
H398 H 0.93329 0.5388 0.00865 0.0
O399 O 0.9579 0.55106 0.24783 0.0
O400 O 0.96026 0.59405 0.26198 0.0
H401 H 0.94954 0.64623 0.06979 0.0
H402 H 0.96272 0.63958 0.99189 0.0
C403 C 0.96506 0.63598 0.04365 0.0
H404 H 0.98314 0.64406 0.05961 0.0
H405 H 0.93628 0.64008 0.21487 0.0
O406 O 0.98632 0.51316 0.13965 0.0
C407 C 0.95131 0.5718 0.27753 0.0
Co408 Co 0.44609 0.03477 0.29885 0.0
Co409 Co 0.38824 0.03206 0.27416 0.0
C410 C 0.41856 0.98467 0.26237 0.0
O411 O 0.43676 0.99951 0.27379 0.0
O412 O 0.3959 0.99346 0.26158 0.0
C413 C 0.4744 0.01161 0.38891 0.0
O414 O 0.45212 1.00111 0.39533 0.0
C415 C 0.33132 0.02954 0.27775 0.0
C416 C 0.32295 0.07054 0.25037 0.0
C417 C 0.31153 0.04747 0.26824 0.0
N418 N 0.35326 0.04176 0.26622 0.0
N419 N 0.34793 0.06617 0.24954 0.0
C420 C 0.32958 1.00203 0.30153 0.0
H421 H 0.34778 0.99538 0.32211 0.0
H422 H 0.31424 1.00045 0.33764 0.0
H423 H 0.32518 0.9891 0.26113 0.0
C424 C 0.42841 0.0611 0.41252 0.0
N425 N 0.42348 0.04919 0.35765 0.0
N426 N 0.39943 0.04396 0.35503 0.0
C427 C 0.38857 0.05077 0.4113 0.0
C428 C 0.40674 0.06204 0.44928 0.0
C429 C 0.45392 0.07014 0.43147 0.0
H430 H 0.46648 0.07217 0.38926 0.0
H431 H 0.46229 0.05603 0.46592 0.0
H432 H 0.45228 0.08935 0.45549 0.0
O433 O 0.44708 0.05734 0.22477 0.0
O434 O 0.40617 0.05349 0.20504 0.0
H435 H 0.34943 0.05926 0.39956 0.0
H436 H 0.35792 0.05003 0.47984 0.0
C437 C 0.36165 0.04615 0.42862 0.0
H438 H 0.35686 0.0257 0.41725 0.0
H439 H 0.36149 0.08009 0.23882 0.0
O440 O 0.47791 0.02831 0.34448 0.0
C441 C 0.42788 0.06268 0.191 0.0
Co442 Co 0.47945 0.44642 0.79975 0.0
Co443 Co 0.47945 0.38667 0.77634 0.0
C444 C 0.52629 0.41396 0.75937 0.0
O445 O 0.51309 0.43437 0.77047 0.0
O446 O 0.51667 0.39135 0.76148 0.0
C447 C 0.50273 0.47188 0.89089 0.0
O448 O 0.51234 0.44802 0.8916 0.0
C449 C 0.482 0.32842 0.76922 0.0
C450 C 0.44204 0.32122 0.74789 0.0
C451 C 0.46512 0.30876 0.75637 0.0
N452 N 0.4693 0.35146 0.76805 0.0
N453 N 0.44545 0.34691 0.7558 0.0
C454 C 0.50985 0.32582 0.7779 0.0
H455 H 0.51455 0.33185 0.8269 0.0
H456 H 0.51677 0.30552 0.76961 0.0
H457 H 0.51956 0.33924 0.74442 0.0
C458 C 0.45249 0.43033 0.91425 0.0
N459 N 0.46472 0.42424 0.86002 0.0
N460 N 0.46856 0.39888 0.85727 0.0
C461 C 0.46034 0.38811 0.9125 0.0
C462 C 0.44966 0.40786 0.95009 0.0
C463 C 0.44427 0.45746 0.93282 0.0
H464 H 0.45712 0.46492 0.96943 0.0
H465 H 0.42507 0.45726 0.95413 0.0
H466 H 0.44402 0.47073 0.89092 0.0
O467 O 0.45681 0.44935 0.7281 0.0
O468 O 0.45882 0.40645 0.71034 0.0
H469 H 0.44705 0.34927 0.90402 0.0
H470 H 0.46049 0.35627 0.98037 0.0
C471 C 0.46235 0.35964 0.92829 0.0
H472 H 0.4806 0.35149 0.91036 0.0
H473 H 0.43152 0.36149 0.75183 0.0
O474 O 0.487 0.47818 0.84775 0.0
C475 C 0.45047 0.42942 0.69635 0.0
Co476 Co 0.0791 0.45917 0.30759 0.0
Co477 Co 0.13562 0.46905 0.32463 0.0
C478 C 0.10408 0.51101 0.27461 0.0
O479 O 0.08748 0.49367 0.27016 0.0
O480 O 0.12484 0.50607 0.30232 0.0
C481 C 0.04387 0.48443 0.37143 0.0
O482 O 0.06527 0.49637 0.37916 0.0
C483 C 0.18994 0.48131 0.31926 0.0
C484 C 0.20609 0.44836 0.37481 0.0
C485 C 0.21255 0.47045 0.34041 0.0
N486 N 0.17099 0.46642 0.3409 0.0
N487 N 0.18087 0.44669 0.3737 0.0
C488 C 0.18622 0.50531 0.27914 0.0
H489 H 0.17255 0.51875 0.30315 0.0
H490 H 0.20412 0.51569 0.27085 0.0
H491 H 0.17806 0.49974 0.2329 0.0
C492 C 0.08378 0.43843 0.43514 0.0
N493 N 0.09451 0.45001 0.38453 0.0
N494 N 0.11744 0.45694 0.3981 0.0
C495 C 0.12147 0.45122 0.46042 0.0
C496 C 0.10006 0.43933 0.4858 0.0
C497 C 0.05916 0.42461 0.43312 0.0
H498 H 0.0547 0.41919 0.38352 0.0
H499 H 0.0439 0.43758 0.45191 0.0
H500 H 0.05984 0.40671 0.46328 0.0
O501 O 0.08869 0.43281 0.24628 0.0
O502 O 0.12916 0.44406 0.25031 0.0
H503 H 0.15662 0.44078 0.50275 0.0
H504 H 0.13898 0.46563 0.54435 0.0
C505 C 0.14443 0.45842 0.49628 0.0
H506 H 0.1551 0.47365 0.47019 0.0
H507 H 0.17043 0.43153 0.39357 0.0
O508 O 0.04341 0.46494 0.33373 0.0
C509 C 0.11142 0.43061 0.22646 0.0
Co510 Co 0.03792 0.06998 0.78743 0.0
Co511 Co 0.03456 0.13036 0.76416 0.0
C512 C 0.9888 0.09973 0.75597 0.0
O513 O 1.00335 0.08022 0.76535 0.0
O514 O 0.99718 0.12295 0.75541 0.0
C515 C 0.01741 0.042 0.88161 0.0
O516 O 0.00748 0.06563 0.88673 0.0
C517 C 0.02929 0.18893 0.77694 0.0
C518 C 0.06661 0.20016 0.73947 0.0
C519 C 0.04469 0.21039 0.76659 0.0
N520 N 0.04177 0.16713 0.75705 0.0
N521 N 0.06392 0.1742 0.73414 0.0
C522 C 1.00421 0.18883 0.80997 0.0
H523 H 0.99967 0.16881 0.82668 0.0
H524 H 1.00403 0.20254 0.85073 0.0
H525 H 0.98954 0.19553 0.77612 0.0
C526 C 0.06601 0.08618 0.89674 0.0
N527 N 0.05277 0.09244 0.84476 0.0
N528 N 0.04776 0.11765 0.84359 0.0
C529 C 0.05618 0.12795 0.8985 0.0
C530 C 0.06822 0.10818 0.93364 0.0
C531 C 0.0755 0.05915 0.91262 0.0
H532 H 0.07605 0.04664 0.86975 0.0
H533 H 0.06323 0.05043 0.9499 0.0
H534 H 0.0948 0.05989 0.93198 0.0
O535 O 0.05886 0.06919 0.71132 0.0
O536 O 0.05515 0.11212 0.69251 0.0
H537 H 0.06305 0.16847 0.88284 0.0
H538 H 0.05973 0.15936 0.96585 0.0
C539 C 0.0527 0.15593 0.91713 0.0
H540 H 0.03245 0.16148 0.91477 0.0
H541 H 0.07761 0.16111 0.71667 0.0
O542 O 0.03261 0.03716 0.83544 0.0
C543 C 0.06389 0.0893 0.67764 0.0
C544 C 0.98765 0.0203 0.49095 0.0
C545 C 0.99496 1.00353 0.5411 0.0
H546 H 0.9969 0.03618 0.39932 0.0
C547 C 0.01777 0.98945 0.53625 0.0
H548 H 0.97006 0.03136 0.49319 0.0
C549 C 0.03298 0.99205 0.48215 0.0
C550 C 0.02568 0.00883 0.43202 0.0
H551 H 0.02373 0.97617 0.57377 0.0
H552 H 0.05056 0.98098 0.47991 0.0
C553 C 1.00286 0.0229 0.43685 0.0
C554 C 0.48769 0.99644 0.96088 0.0
C555 C 0.50727 0.009 0.92822 0.0
H556 H 0.47392 0.98188 0.05003 0.0
C557 C 0.52837 0.01706 0.96226 0.0
H558 H 0.47111 0.9903 0.93588 0.0
C559 C 0.52977 0.01278 0.02777 0.0
C560 C 0.51027 1.00006 0.06037 0.0
H561 H 0.54358 0.02726 0.93863 0.0
H562 H 0.54636 0.0189 0.05272 0.0
C563 C 0.4891 0.99213 0.02641 0.0
C564 C 0.51015 0.52717 0.52112 0.0
C565 C 0.51848 0.5056 0.55737 0.0
H566 H 0.49671 0.54102 0.43134 0.0
C567 C 0.51965 0.48076 0.52901 0.0
H568 H 0.50907 0.54654 0.54163 0.0
C569 C 0.51291 0.47763 0.46555 0.0
C570 C 0.50463 0.4992 0.4293 0.0
H571 H 0.52634 0.46376 0.55531 0.0
H572 H 0.51389 0.45825 0.44506 0.0
C573 C 0.50346 0.52404 0.45763 0.0
C574 C 0.99825 0.46478 0.07384 0.0
C575 C 0.00779 0.48927 0.05619 0.0
H576 H 0.99611 0.42398 0.05062 0.0
C577 C 0.02201 0.49142 -0.00049 0.0
H578 H 0.9871 0.46257 0.117 0.0
C579 C 0.02683 0.46957 0.96166 0.0
C580 C 0.01791 0.44507 0.98019 0.0
H581 H 0.02933 0.51006 0.98395 0.0
H582 H 0.03763 0.47179 0.91793 0.0
C583 C 1.00333 0.44279 0.03603 0.0
C584 C 0.50545 0.98522 0.53735 0.0
C585 C 0.5283 0.99848 0.53639 0.0
H586 H 0.47065 0.97874 0.49087 0.0
C587 C 0.53361 0.0157 0.48565 0.0
H588 H 0.50093 0.9717 0.57554 0.0
C589 C 0.51635 0.01966 0.43688 0.0
C590 C 0.49347 1.00646 0.43796 0.0
H591 H 0.55115 0.02614 0.48339 0.0
H592 H 0.52086 0.03321 0.39875 0.0
C593 C 0.4882 0.98916 0.48856 0.0
C594 C 0.52561 0.49491 0.04968 0.0
C595 C 0.51158 0.51815 0.05768 0.0
H596 H 0.53427 0.46242 0.98966 0.0
C597 C 0.49494 0.52644 0.00964 0.0
H598 H 0.53877 0.48821 0.08552 0.0
C599 C 0.49256 0.51188 0.95431 0.0
C600 C 0.50669 0.48871 0.94619 0.0
H601 H 0.48393 0.54439 0.01429 0.0
H602 H 0.47945 0.5186 0.91839 0.0
C603 C 0.52322 0.48034 -0.00562 0.0
C604 C 0.00888 0.51568 0.50824 0.0
C605 C 0.98806 0.49953 0.51514 0.0
H606 H 0.04216 0.5242 0.45561 0.0
C607 C 0.98442 0.47943 0.47092 0.0
H608 H 0.01184 0.53165 0.54075 0.0
C609 C 1.00193 0.47499 0.42177 0.0
C610 C 0.02314 0.49076 0.41607 0.0
H611 H 0.96829 0.46684 0.47496 0.0
H612 H 0.99927 0.45882 0.38965 0.0
C613 C 0.0261 0.51149 0.45893 0.0
C614 C 0.99453 0.01303 0.03706 0.0
C615 C 0.00806 0.98926 0.03901 0.0
H616 H 0.98658 0.04811 0.98503 0.0
C617 C 0.02436 0.98262 0.98802 0.0
H618 H 0.98168 0.01854 0.07531 0.0
C619 C 0.02706 0.99944 0.93596 0.0
C620 C 0.01353 0.0232 0.93401 0.0
H621 H 0.035 0.96434 0.98802 0.0
H622 H 0.03992 0.99393 0.8977 0.0
C623 C 0.99723 0.02983 0.98501 0.0
C624 C 0.10314 0.08678 0.07817 0.0
C625 C 0.08288 0.08137 0.11967 0.0
H626 H 0.11437 0.10101 0.98599 0.0
C627 C 0.05871 0.0911 0.1041 0.0
H628 H 0.12205 0.07992 0.08894 0.0
C629 C 0.05451 0.10364 0.04575 0.0
C630 C 0.07434 0.10668 0.00186 0.0
H631 H 0.0427 0.08769 0.13528 0.0
H632 H 0.03535 0.10864 0.03244 0.0
C633 C 0.09887 0.0993 0.01971 0.0
C634 C 0.42556 0.04771 0.61471 0.0
C635 C 0.43254 0.07281 0.63412 0.0
H636 H 0.41029 0.02473 0.54004 0.0
C637 C 0.42432 0.09464 0.59831 0.0
H638 H 0.43124 0.03049 0.64158 0.0
C639 C 0.41179 0.09126 0.54095 0.0
C640 C 0.4073 0.06605 0.51845 0.0
H641 H 0.42894 0.11429 0.61241 0.0
H642 H 0.40802 0.10818 0.51102 0.0
C643 C 0.41304 0.04438 0.55727 0.0
C644 C 0.45974 0.42198 0.1204 0.0
C645 C 0.43583 0.43217 0.13782 0.0
H646 H 0.48262 0.40485 0.04634 0.0
C647 C 0.4154 0.42792 0.09744 0.0
H648 H 0.47584 0.42453 0.15072 0.0
C649 C 0.41931 0.41608 0.03826 0.0
C650 C 0.44365 0.40833 0.01856 0.0
H651 H 0.39667 0.43514 0.10971 0.0
H652 H 0.40377 0.41529 0.00543 0.0
C653 C 0.46359 0.41017 0.06121 0.0
C654 C 0.07033 0.43722 0.57787 0.0
C655 C 0.094 0.4305 0.55155 0.0
H656 H 0.04279 0.42991 0.65051 0.0
C657 C 0.10963 0.41268 0.5844 0.0
H658 H 0.05815 0.45143 0.55448 0.0
C659 C 0.10096 0.40062 0.64069 0.0
C660 C 0.07642 0.40593 0.66403 0.0
H661 H 0.12792 0.40709 0.56495 0.0
H662 H 0.11298 0.38632 0.66428 0.0
C663 C 0.06149 0.42483 0.63281 0.0
C664 C 0.56579 0.92031 0.86466 0.0
C665 C 0.58954 0.93041 0.84853 0.0
H666 H 0.54203 0.90522 0.93891 0.0
C667 C 0.60917 0.92786 0.89257 0.0
H668 H 0.55033 0.92156 0.83159 0.0
C669 C 0.60439 0.91804 0.95372 0.0
C670 C 0.58 0.91058 0.9715 0.0
H671 H 0.62776 0.93511 0.88147 0.0
H672 H 0.61913 0.91859 0.98885 0.0
C673 C 0.56107 0.9105 0.92573 0.0
C674 C 0.59637 0.59677 0.38963 0.0
C675 C 0.58918 0.57524 0.35314 0.0
H676 H 0.61081 0.60952 0.47876 0.0
C677 C 0.59678 0.54996 0.37266 0.0
H678 H 0.59126 0.61655 0.37542 0.0
C679 C 0.60852 0.54611 0.43119 0.0
C680 C 0.61275 0.56742 0.47103 0.0
H681 H 0.59197 0.53296 0.34519 0.0
H682 H 0.61156 0.52629 0.44847 0.0
C683 C 0.6081 0.59285 0.44819 0.0
C684 C 0.92144 0.58299 0.94025 0.0
C685 C 0.94652 0.58856 0.95437 0.0
H686 H 0.89601 0.5679 0.87187 0.0
C687 C 0.9649 0.58694 0.90615 0.0
H688 H 0.90709 0.58369 0.97735 0.0
C689 C 0.95876 0.57754 0.84616 0.0
C690 C 0.9341 0.56951 0.83353 0.0
H691 H 0.98443 0.59073 0.91652 0.0
H692 H 0.97371 0.57506 0.81105 0.0
C693 C 0.91523 0.57359 0.88017 0.0
C694 C 0.93727 0.90686 0.39688 0.0
C695 C 0.94123 0.92766 0.35397 0.0
H696 H 0.92496 0.89564 0.49066 0.0
C697 C 0.93113 0.95255 0.36927 0.0
H698 H 0.94448 0.88738 0.38643 0.0
C699 C 0.91953 0.95706 0.42842 0.0
C700 C 0.91778 0.93681 0.4734 0.0
H701 H 0.93345 0.96898 0.33708 0.0
H702 H 0.91409 0.97689 0.4412 0.0
C703 C 0.92568 0.91144 0.45613 0.0
C704 C 0.9223 0.91284 0.95365 0.0
C705 C 0.94685 0.90556 0.97152 0.0
H706 H 0.89906 0.93209 0.88436 0.0
C707 C 0.96666 0.90862 0.92758 0.0
H708 H 0.90682 0.91114 0.98742 0.0
C709 C 0.96242 0.92109 0.86916 0.0
C710 C 0.93822 0.93074 0.85359 0.0
H711 H 0.98584 0.9037 0.94092 0.0
H712 H 0.97842 0.92453 0.83795 0.0
C713 C 0.91798 0.9253 0.89513 0.0
C714 C 0.60763 0.96243 0.42394 0.0
C715 C 0.61398 0.94052 0.46138 0.0
H716 H 0.58829 0.97679 0.34175 0.0
C717 C 0.60945 0.91545 0.43807 0.0
H718 H 0.6104 0.98198 0.44184 0.0
C719 C 0.59625 0.91239 0.38157 0.0
C720 C 0.5874 0.93441 0.34744 0.0
H721 H 0.6137 0.89833 0.46694 0.0
H722 H 0.59164 0.8928 0.36691 0.0
C723 C 0.59442 0.95942 0.3674 0.0
C724 C 0.5538 0.59579 0.93263 0.0
C725 C 0.57388 0.59867 0.97452 0.0
H726 H 0.5418 0.581 0.84325 0.0
C727 C 0.59841 0.59217 0.954 0.0
H728 H 0.53465 0.60009 0.94829 0.0
C729 C 0.60255 0.58075 0.89446 0.0
C730 C 0.58216 0.57557 0.8546 0.0
H731 H 0.61405 0.5937 0.9863 0.0
H732 H 0.62154 0.57459 0.88142 0.0
C733 C 0.55789 0.58437 0.87304 0.0
C734 C 0.92677 0.59225 0.36817 0.0
C735 C 0.9335 0.56994 0.33249 0.0
H736 H 0.91102 0.60685 0.45574 0.0
C737 C 0.92424 0.54554 0.3523 0.0
H738 H 0.93318 0.61142 0.35387 0.0
C739 C 0.91098 0.54314 0.40993 0.0
C740 C 0.90682 0.56503 0.44884 0.0
H741 H 0.92868 0.52798 0.32556 0.0
H742 H 0.9065 0.52376 0.42734 0.0
C743 C 0.91355 0.58979 0.42587 0.0
C744 C 0.4157 0.09341 0.02954 0.0
C745 C 0.4402 0.10004 0.01056 0.0
H746 H 0.39247 0.07612 0.10181 0.0
C747 C 0.4596 0.09866 0.05505 0.0
H748 H 0.40058 0.09391 -0.00461 0.0
C749 C 0.45518 0.08807 0.11552 0.0
C750 C 0.43124 0.07864 0.13238 0.0
H751 H 0.47872 0.10324 0.04094 0.0
H752 H 0.47097 0.08562 0.14728 0.0
C753 C 0.41122 0.08278 0.09006 0.0
C754 C 0.4265 0.41117 0.60519 0.0
C755 C 0.43377 0.43291 0.64083 0.0
H756 H 0.41172 0.39786 0.51691 0.0
C757 C 0.42631 0.45809 0.6203 0.0
H758 H 0.43149 0.39146 0.6202 0.0
C759 C 0.41445 0.46159 0.5618 0.0
C760 C 0.40993 0.44 0.52304 0.0
H761 H 0.43121 0.47524 0.64708 0.0
H762 H 0.41138 0.48129 0.54381 0.0
C763 C 0.41464 0.41472 0.54669 0.0
C764 C 0.13535 0.40607 0.06754 0.0
C765 C 0.12069 0.38365 0.05918 0.0
H766 H 0.14403 0.43841 0.12741 0.0
C767 C 0.10632 0.37462 0.11125 0.0
H768 H 0.14701 0.41355 0.02918 0.0
C769 C 0.10398 0.38947 0.16673 0.0
C770 C 0.11695 0.41298 0.17254 0.0
H771 H 0.09612 0.35663 0.10882 0.0
H772 H 0.09156 0.38288 0.2046 0.0
C773 C 0.13362 0.42047 0.12383 0.0
C774 C 0.09443 0.10168 0.51598 0.0
C775 C 0.10276 0.07637 0.49936 0.0
H776 H 0.0754 0.12574 0.58534 0.0
C777 C 0.1016 0.05635 0.54506 0.0
H778 H 0.09474 0.11731 0.48093 0.0
C779 C 0.09014 0.06096 0.60433 0.0
C780 C 0.07959 0.08573 0.61905 0.0
H781 H 0.10741 0.03656 0.53285 0.0
H782 H 0.08828 0.04466 0.63711 0.0
C783 C 0.08298 0.10637 0.57538 0.0
C784 C 0.06728 0.92468 0.28694 0.0
C785 C 0.05894 0.91854 0.22581 0.0
H786 H 0.08849 0.95114 0.34286 0.0
C787 C 0.07161 0.92945 0.17298 0.0
H788 H 0.05745 0.9172 0.32852 0.0
C789 C 0.08935 0.94912 0.18114 0.0
C790 C 0.09481 0.95807 0.24233 0.0
H791 H 0.06516 0.92558 0.12529 0.0
H792 H 0.09594 0.95978 0.13962 0.0
C793 C 0.08511 0.94426 0.29511 0.0
C794 C 0.58253 0.06391 0.6756 0.0
C795 C 0.59392 0.05003 0.72605 0.0
H796 H 0.55123 0.08823 0.64693 0.0
C797 C 0.58695 0.05655 0.78865 0.0
H798 H 0.58714 0.05878 0.62681 0.0
C799 C 0.56619 0.07326 0.80012 0.0
C800 C 0.55236 0.08391 0.74919 0.0
H801 H 0.59491 0.04571 0.82831 0.0
H802 H 0.55899 0.07503 0.84843 0.0
C803 C 0.56182 0.08073 0.68708 0.0
C804 C 0.44338 0.56424 0.3282 0.0
C805 C 0.43117 0.55327 0.27598 0.0
H806 H 0.47372 0.588 0.35845 0.0
C807 C 0.43487 0.56437 0.21547 0.0
H808 H 0.44118 0.55567 0.37521 0.0
C809 C 0.45351 0.58313 0.20598 0.0
C810 C 0.46864 0.59084 0.25681 0.0
H811 H 0.42614 0.55591 0.17429 0.0
H812 H 0.4586 0.58851 0.15759 0.0
C813 C 0.46202 0.58291 0.31867 0.0
C814 C 0.93356 0.43799 0.66366 0.0
C815 C 0.91729 0.4508 0.70709 0.0
H816 H 0.95966 0.40631 0.64766 0.0
C817 C 0.91104 0.43816 0.76453 0.0
H818 H 0.93868 0.44731 0.61901 0.0
C819 C 0.9231 0.41437 0.78096 0.0
C820 C 0.9416 0.40321 0.74023 0.0
H821 H 0.89885 0.44782 0.79916 0.0
H822 H 0.91979 0.40616 0.82791 0.0
C823 C 0.94563 0.41452 0.68009 0.0
C824 C 0.95346 0.08749 0.6874 0.0
C825 C 0.96192 0.09351 0.74848 0.0
H826 H 0.93209 0.06117 0.63146 0.0
C827 C 0.94938 0.08249 0.80136 0.0
H828 H 0.9632 0.09506 0.64577 0.0
C829 C 0.9316 0.06286 0.79321 0.0
C830 C 0.92598 0.05405 0.73199 0.0
H831 H 0.95594 0.08626 0.849 0.0
H832 H 0.92509 0.05213 0.83469 0.0
C833 C 0.93558 0.06795 0.67925 0.0
C834 C 0.457 0.92603 0.29243 0.0
C835 C 0.46688 0.9224 0.23086 0.0
H836 H 0.43155 0.9486 0.35093 0.0
C837 C 0.45348 0.93293 0.17901 0.0
H838 H 0.46725 0.91865 0.33326 0.0
C839 C 0.43294 0.95009 0.18908 0.0
C840 C 0.42564 0.95707 0.25117 0.0
H841 H 0.46102 0.93085 0.13109 0.0
H842 H 0.42548 0.9609 0.14875 0.0
C843 C 0.43641 0.94317 0.30247 0.0
C844 C 0.57984 0.44257 0.6739 0.0
C845 C 0.59135 0.45493 0.72532 0.0
H846 H 0.54977 0.41816 0.64479 0.0
C847 C 0.58663 0.44554 0.7871 0.0
H848 H 0.58279 0.44983 0.62586 0.0
C849 C 0.56767 0.42726 0.7979 0.0
C850 C 0.55328 0.41818 0.74707 0.0
H851 H 0.59478 0.4551 0.82762 0.0
H852 H 0.56184 0.42325 0.84655 0.0
C853 C 0.56088 0.42433 0.6847 0.0
C854 C 0.06403 0.57058 0.28819 0.0
C855 C 0.05583 0.57261 0.22503 0.0
H856 H 0.08768 0.54952 0.35376 0.0
C857 C 0.07001 0.55984 0.17714 0.0
H858 H 0.05305 0.57962 0.3262 0.0
C859 C 0.08973 0.54252 0.19288 0.0
C860 C 0.09573 0.53774 0.25681 0.0
H861 H 0.06377 0.56062 0.12823 0.0
H862 H 0.09799 0.53034 0.15579 0.0
C863 C 0.08396 0.55334 0.30393 0.0
C864 C 0.24438 0.02289 0.25557 0.0
C865 C 0.23053 0.04568 0.27188 0.0
H866 H 0.28116 1.0054 0.24105 0.0
C867 C 0.24352 0.06739 0.29397 0.0
H868 H 0.23491 1.00598 0.23745 0.0
C869 C 0.26972 0.06702 0.29632 0.0
C870 C 0.28382 0.04497 0.2764 0.0
H871 H 0.23341 0.08515 0.30748 0.0
H872 H 0.27902 0.08454 0.31162 0.0
C873 C 0.27089 0.02255 0.25772 0.0
C874 C 0.45776 0.24044 0.69654 0.0
C875 C 0.46902 0.22534 0.74483 0.0
H876 H 0.44817 0.27871 0.66219 0.0
C877 C 0.48157 0.23805 0.79405 0.0
H878 H 0.44805 0.23122 0.65784 0.0
C879 C 0.48178 0.26545 0.79621 0.0
C880 C 0.46937 0.28036 0.74936 0.0
H881 H 0.48985 0.22702 0.83283 0.0
H882 H 0.49028 0.27491 0.83639 0.0
C883 C 0.45787 0.26761 0.69889 0.0
C884 C 0.2828 0.47813 0.35246 0.0
C885 C 0.28993 0.48027 0.28812 0.0
H886 H 0.25236 0.47339 0.41934 0.0
C887 C 0.27119 0.48192 0.24164 0.0
H888 H 0.29687 0.47581 0.389 0.0
C889 C 0.24573 0.48064 0.259 0.0
C890 C 0.23866 0.47726 0.32309 0.0
H891 H 0.27631 0.48307 0.19163 0.0
H892 H 0.23174 0.48055 0.22195 0.0
C893 C 0.25737 0.47645 0.36974 0.0
C894 C 0.01692 0.27941 0.78414 0.0
C895 C 0.03788 0.29301 0.8064 0.0
H896 H 1.00239 0.24245 0.75452 0.0
C897 C 0.06003 0.27861 0.82001 0.0
H898 H 0.99955 0.28983 0.77317 0.0
C899 C 0.06165 0.25175 0.80893 0.0
C900 C 0.04108 0.23827 0.7849 0.0
H901 H 0.07658 0.2882 0.83741 0.0
H902 H 0.0793 0.24154 0.81826 0.0
C903 C 0.01847 0.25223 0.77383 0.0
C904 C 0.74976 0.98756 0.71916 0.0
C905 C 0.73706 0.96476 0.70227 0.0
H906 H 0.78561 1.00486 0.73712 0.0
C907 C 0.75132 0.94276 0.6829 0.0
H908 H 0.73933 1.0047 0.73531 0.0
C909 C 0.77753 0.94284 0.68404 0.0
C910 C 0.79036 0.96494 0.70449 0.0
H911 H 0.74216 0.92496 0.66898 0.0
H912 H 0.78779 0.92511 0.67098 0.0
C913 C 0.77629 0.98765 0.72023 0.0
C914 C 0.53442 0.74233 0.23062 0.0
C915 C 0.55571 0.72805 0.20899 0.0
H916 H 0.51848 0.78039 0.25031 0.0
C917 C 0.57627 0.74156 0.18339 0.0
H918 H 0.51851 0.73244 0.25173 0.0
C919 C 0.57626 0.76874 0.18266 0.0
C920 C 0.55568 0.78314 0.20745 0.0
H921 H 0.59284 0.73107 0.16586 0.0
H922 H 0.59283 0.77853 0.16463 0.0
C923 C 0.53441 0.76978 0.22982 0.0
C924 C 0.76983 0.52619 0.68173 0.0
C925 C 0.78375 0.53849 0.72904 0.0
H926 H 0.7331 0.51753 0.64718 0.0
C927 C 0.77104 0.54913 0.782 0.0
H928 H 0.77918 0.51842 0.63963 0.0
C929 C 0.74488 0.54848 0.78658 0.0
C930 C 0.73069 0.53734 0.73809 0.0
H931 H 0.78133 0.55874 0.81911 0.0
H932 H 0.73566 0.5576 0.82728 0.0
C933 C 0.74343 0.52563 0.68619 0.0
C934 C 0.99601 0.7316 0.21074 0.0
C935 C 0.97446 0.71926 0.18773 0.0
H936 H 0.01279 0.76809 0.23623 0.0
C937 C 0.95438 0.73502 0.16567 0.0
H938 H 0.01164 0.72012 0.22916 0.0
C939 C 0.95496 0.76217 0.17032 0.0
C940 C 0.97572 0.77452 0.19668 0.0
H941 H 0.9376 0.72629 0.14702 0.0
H942 H 0.93861 0.77353 0.15536 0.0
C943 C 0.99667 0.75909 0.21494 0.0
loop_
_geom_bond_atom_site_label_1
_geom_bond_atom_site_label_2
_geom_bond_distance
_geom_bond_site_symmetry_2
_ccdc_geom_bond_type
Co0 O3 1.970 1_545 S
Co0 N17 1.989 . S
Co0 O25 1.967 . S
Co0 O32 1.920 . S
Co1 O4 1.928 1_545 S
Co1 N10 2.022 . S
Co1 N18 1.993 . S
Co1 O26 1.941 . S
C2 O3 1.258 . S
C2 O4 1.288 . S
O3 Co0 1.970 1_565 S
O3 C2 1.258 . S
O4 Co1 1.928 1_565 S
O4 C2 1.288 . S
C5 O6 1.235 1_545 S
C5 O32 1.289 . S
O6 C5 1.235 1_565 S
C7 C9 1.400 . S
C7 N10 1.351 . S
C7 C12 1.501 1_545 S
C8 C9 1.387 . S
C8 N11 1.341 . S
C9 C7 1.400 . S
C9 C8 1.387 . S
N10 Co1 2.022 . S
N10 C7 1.351 . S
N10 N11 1.365 . S
N11 C8 1.341 . S
N11 N10 1.365 . S
N11 H31 0.862 . S
C12 C7 1.501 1_565 S
C12 H13 0.961 . S
C12 H14 0.961 . S
C12 H15 0.960 . S
H13 C12 0.961 . S
H14 C12 0.961 . S
H15 C12 0.960 . S
C16 N17 1.342 . S
C16 C20 1.401 . S
C16 C21 1.499 . S
N17 Co0 1.989 . S
N17 C16 1.342 . S
N17 N18 1.388 . S
N18 Co1 1.993 . S
N18 N17 1.388 . S
N18 C19 1.346 . S
C19 N18 1.346 . S
C19 C20 1.396 . S
C19 C29 1.510 . S
C20 C16 1.401 . S
C20 C19 1.396 . S
C21 C16 1.499 . S
C21 H22 0.959 . S
C21 H23 0.960 . S
C21 H24 0.961 . S
H22 C21 0.959 . S
H23 C21 0.960 . S
H24 C21 0.961 . S
O25 Co0 1.967 . S
O25 C33 1.258 . S
O26 Co1 1.941 . S
O26 C33 1.266 . S
H27 C29 0.959 . S
H28 C29 0.961 . S
C29 C19 1.510 . S
C29 H27 0.959 . S
C29 H28 0.961 . S
C29 H30 0.960 . S
H30 C29 0.960 . S
H31 N11 0.862 . S
O32 Co0 1.920 . S
O32 C5 1.289 . S
C33 O25 1.258 . S
C33 O26 1.266 . S
Co34 O37 1.970 . S
Co34 N51 1.989 . S
Co34 O59 1.967 . S
Co34 O66 1.920 . S
Co35 O38 1.966 . S
Co35 N44 2.022 . S
Co35 N52 1.993 . S
Co35 O60 1.941 . S
C36 O37 1.258 . S
C36 O38 1.263 . S
O37 Co34 1.970 . S
O37 C36 1.258 . S
O38 Co35 1.966 . S
O38 C36 1.263 . S
C39 O40 1.235 . S
C39 O66 1.289 . S
O40 C39 1.235 . S
C41 C43 1.400 . S
C41 N44 1.351 . S
C41 C46 1.501 . S
C42 C43 1.387 . S
C42 N45 1.341 . S
C43 C41 1.400 . S
C43 C42 1.387 . S
N44 Co35 2.022 . S
N44 C41 1.351 . S
N44 N45 1.365 . S
N45 C42 1.341 . S
N45 N44 1.365 . S
N45 H65 0.862 . S
C46 C41 1.501 . S
C46 H47 0.961 . S
C46 H48 0.961 . S
C46 H49 0.960 . S
H47 C46 0.961 . S
H48 C46 0.961 . S
H49 C46 0.960 . S
C50 N51 1.342 1_554 S
C50 C54 1.401 . S
C50 C55 1.499 . S
N51 Co34 1.989 . S
N51 C50 1.342 1_556 S
N51 N52 1.388 . S
N52 Co35 1.993 . S
N52 N51 1.388 . S
N52 C53 1.346 . S
C53 N52 1.346 . S
C53 C54 1.396 1_556 S
C53 C63 1.511 . S
C54 C50 1.401 . S
C54 C53 1.396 1_554 S
C55 C50 1.499 . S
C55 H56 0.959 . S
C55 H57 0.960 . S
C55 H58 0.961 . S
H56 C55 0.959 . S
H57 C55 0.960 . S
H58 C55 0.961 . S
O59 Co34 1.967 . S
O59 C67 1.258 . S
O60 Co35 1.941 . S
O60 C67 1.266 . S
H61 C63 0.958 1_554 S
H62 C63 0.956 1_554 S
C63 C53 1.511 . S
C63 H61 0.958 1_556 S
C63 H62 0.956 1_556 S
C63 H64 0.965 . S
H64 C63 0.965 . S
H65 N45 0.862 . S
O66 Co34 1.920 . S
O66 C39 1.289 . S
C67 O59 1.258 . S
C67 O60 1.266 . S
Co68 O71 1.970 . S
Co68 N85 1.989 . S
Co68 O93 1.967 . S
Co68 O100 1.920 . S
Co69 O72 1.966 . S
Co69 N78 2.022 . S
Co69 N86 1.993 . S
Co69 O94 1.941 . S
C70 O71 1.258 . S
C70 O72 1.263 . S
O71 Co68 1.970 . S
O71 C70 1.258 . S
O72 Co69 1.966 . S
O72 C70 1.263 . S
C73 O74 1.235 . S
C73 O100 1.289 . S
O74 C73 1.235 . S
C75 C77 1.400 . S
C75 N78 1.351 . S
C75 C80 1.501 . S
C76 C77 1.387 . S
C76 N79 1.341 . S
C77 C75 1.400 . S
C77 C76 1.387 . S
N78 Co69 2.022 . S
N78 C75 1.351 . S
N78 N79 1.365 . S
N79 C76 1.341 . S
N79 N78 1.365 . S
N79 H99 0.862 . S
C80 C75 1.501 . S
C80 H81 0.961 . S
C80 H82 0.961 . S
C80 H83 0.960 . S
H81 C80 0.961 . S
H82 C80 0.961 . S
H83 C80 0.960 . S
C84 N85 1.342 . S
C84 C88 1.401 . S
C84 C89 1.499 . S
N85 Co68 1.989 . S
N85 C84 1.342 . S
N85 N86 1.388 . S
N86 Co69 1.993 . S
N86 N85 1.388 . S
N86 C87 1.346 . S
C87 N86 1.346 . S
C87 C88 1.396 . S
C87 C97 1.510 . S
C88 C84 1.401 . S
C88 C87 1.396 . S
C89 C84 1.499 . S
C89 H90 0.959 . S
C89 H91 0.960 . S
C89 H92 0.961 . S
H90 C89 0.959 . S
H91 C89 0.960 . S
H92 C89 0.961 . S
O93 Co68 1.967 . S
O93 C101 1.258 . S
O94 Co69 1.941 . S
O94 C101 1.266 . S
H95 C97 0.959 . S
H96 C97 0.961 . S
C97 C87 1.510 . S
C97 H95 0.959 . S
C97 H96 0.961 . S
C97 H98 0.960 . S
H98 C97 0.960 . S
H99 N79 0.862 . S
O100 Co68 1.920 . S
O100 C73 1.289 . S
C101 O93 1.258 . S
C101 O94 1.266 . S
Co102 O105 1.970 . S
Co102 N119 1.989 . S
Co102 O127 1.967 . S
Co102 O134 1.920 1_455 S
Co103 O106 1.966 . S
Co103 N112 2.010 1_556 S
Co103 N120 1.993 . S
Co103 O128 1.941 . S
C104 O105 1.258 . S
C104 O106 1.263 . S
O105 Co102 1.970 . S
O105 C104 1.258 . S
O106 Co103 1.966 . S
O106 C104 1.263 . S
C107 O108 1.235 . S
C107 O134 1.289 . S
O108 C107 1.235 . S
C109 C111 1.400 . S
C109 N112 1.364 . S
C109 C114 1.501 . S
C110 C111 1.387 . S
C110 N113 1.341 . S
C111 C109 1.400 . S
C111 C110 1.387 . S
N112 Co103 2.010 1_554 S
N112 C109 1.364 . S
N112 N113 1.369 . S
N113 C110 1.341 . S
N113 N112 1.369 . S
N113 H133 0.862 1_554 S
C114 C109 1.501 . S
C114 H115 0.961 . S
C114 H116 0.961 . S
C114 H117 0.960 . S
H115 C114 0.961 . S
H116 C114 0.961 . S
H117 C114 0.960 . S
C118 N119 1.342 1_655 S
C118 C122 1.401 1_655 S
C118 C123 1.499 . S
N119 Co102 1.989 . S
N119 C118 1.342 1_455 S
N119 N120 1.388 . S
N120 Co103 1.993 . S
N120 N119 1.388 . S
N120 C121 1.346 . S
C121 N120 1.346 . S
C121 C122 1.396 . S
C121 C131 1.510 1_556 S
C122 C118 1.401 1_455 S
C122 C121 1.396 . S
C123 C118 1.499 . S
C123 H124 0.959 . S
C123 H125 0.960 . S
C123 H126 0.961 . S
H124 C123 0.959 . S
H125 C123 0.960 . S
H126 C123 0.961 . S
O127 Co102 1.967 . S
O127 C135 1.258 . S
O128 Co103 1.941 . S
O128 C135 1.266 . S
H129 C131 0.959 . S
H130 C131 0.961 . S
C131 C121 1.510 1_554 S
C131 H129 0.959 . S
C131 H130 0.961 . S
C131 H132 0.960 . S
H132 C131 0.960 . S
H133 N113 0.862 1_556 S
O134 Co102 1.920 1_655 S
O134 C107 1.289 . S
C135 O127 1.258 . S
C135 O128 1.266 . S
Co136 O139 1.970 1_565 S
Co136 N153 1.989 . S
Co136 O161 1.967 . S
Co136 O168 1.920 . S
Co137 O140 1.966 1_565 S
Co137 N146 2.022 . S
Co137 N154 1.993 . S
Co137 O162 1.941 . S
C138 O139 1.258 . S
C138 O140 1.263 . S
O139 Co136 1.970 1_545 S
O139 C138 1.258 . S
O140 Co137 1.966 1_545 S
O140 C138 1.263 . S
C141 O142 1.235 1_565 S
C141 O168 1.289 . S
O142 C141 1.235 1_545 S
C143 C145 1.400 . S
C143 N146 1.351 . S
C143 C148 1.501 1_565 S
C144 C145 1.387 . S
C144 N147 1.341 . S
C145 C143 1.400 . S
C145 C144 1.387 . S
N146 Co137 2.022 . S
N146 C143 1.351 . S
N146 N147 1.365 . S
N147 C144 1.341 . S
N147 N146 1.365 . S
N147 H167 0.862 . S
C148 C143 1.501 1_545 S
C148 H149 0.961 . S
C148 H150 0.961 . S
C148 H151 0.960 . S
H149 C148 0.961 . S
H150 C148 0.961 . S
H151 C148 0.960 . S
C152 N153 1.342 . S
C152 C156 1.401 . S
C152 C157 1.499 . S
N153 Co136 1.989 . S
N153 C152 1.342 . S
N153 N154 1.388 . S
N154 Co137 1.993 . S
N154 N153 1.388 . S
N154 C155 1.346 . S
C155 N154 1.346 . S
C155 C156 1.396 . S
C155 C165 1.510 . S
C156 C152 1.401 . S
C156 C155 1.396 . S
C157 C152 1.499 . S
C157 H158 0.959 . S
C157 H159 0.960 . S
C157 H160 0.961 . S
H158 C157 0.959 . S
H159 C157 0.960 . S
H160 C157 0.961 . S
O161 Co136 1.967 . S
O161 C169 1.258 . S
O162 Co137 1.941 . S
O162 C169 1.266 . S
H163 C165 0.959 . S
H164 C165 0.961 . S
C165 C155 1.510 . S
C165 H163 0.959 . S
C165 H164 0.961 . S
C165 H166 0.960 . S
H166 C165 0.960 . S
H167 N147 0.862 . S
O168 Co136 1.920 . S
O168 C141 1.289 . S
C169 O161 1.258 . S
C169 O162 1.266 . S
Co170 O173 1.970 . S
Co170 N187 1.989 . S
Co170 O195 1.967 . S
Co170 O202 1.920 . S
Co171 O174 1.966 . S
Co171 N180 2.022 . S
Co171 N188 1.993 . S
Co171 O196 1.941 . S
C172 O173 1.258 . S
C172 O174 1.263 . S
O173 Co170 1.970 . S
O173 C172 1.258 . S
O174 Co171 1.966 . S
O174 C172 1.263 . S
C175 O176 1.235 . S
C175 O202 1.289 . S
O176 C175 1.235 . S
C177 C179 1.400 . S
C177 N180 1.351 . S
C177 C182 1.501 . S
C178 C179 1.387 . S
C178 N181 1.341 . S
C179 C177 1.400 . S
C179 C178 1.387 . S
N180 Co171 2.022 . S
N180 C177 1.351 . S
N180 N181 1.365 . S
N181 C178 1.341 . S
N181 N180 1.365 . S
N181 H201 0.862 . S
C182 C177 1.501 . S
C182 H183 0.961 . S
C182 H184 0.961 . S
C182 H185 0.960 . S
H183 C182 0.961 . S
H184 C182 0.961 . S
H185 C182 0.960 . S
C186 N187 1.342 1_556 S
C186 C190 1.401 . S
C186 C191 1.499 . S
N187 Co170 1.989 . S
N187 C186 1.342 1_554 S
N187 N188 1.388 . S
N188 Co171 1.993 . S
N188 N187 1.388 . S
N188 C189 1.346 . S
C189 N188 1.346 . S
C189 C190 1.396 1_554 S
C189 C199 1.510 . S
C190 C186 1.401 . S
C190 C189 1.396 1_556 S
C191 C186 1.499 . S
C191 H192 0.959 . S
C191 H193 0.960 . S
C191 H194 0.961 . S
H192 C191 0.959 . S
H193 C191 0.960 . S
H194 C191 0.961 . S
O195 Co170 1.967 . S
O195 C203 1.258 . S
O196 Co171 1.941 . S
O196 C203 1.266 . S
H197 C199 0.959 1_556 S
H198 C199 0.961 1_556 S
C199 C189 1.510 . S
C199 H197 0.959 1_554 S
C199 H198 0.961 1_554 S
C199 H200 0.960 . S
H200 C199 0.960 . S
H201 N181 0.862 . S
O202 Co170 1.920 . S
O202 C175 1.289 . S
C203 O195 1.258 . S
C203 O196 1.266 . S
Co204 O207 1.970 . S
Co204 N221 1.989 . S
Co204 O229 1.967 . S
Co204 O236 1.920 . S
Co205 O208 1.966 . S
Co205 N214 2.022 . S
Co205 N222 1.993 . S
Co205 O230 1.941 . S
C206 O207 1.258 . S
C206 O208 1.263 . S
O207 Co204 1.970 . S
O207 C206 1.258 . S
O208 Co205 1.966 . S
O208 C206 1.263 . S
C209 O210 1.235 . S
C209 O236 1.289 . S
O210 C209 1.235 . S
C211 C213 1.400 . S
C211 N214 1.351 . S
C211 C216 1.501 . S
C212 C213 1.387 . S
C212 N215 1.341 . S
C213 C211 1.400 . S
C213 C212 1.387 . S
N214 Co205 2.022 . S
N214 C211 1.351 . S
N214 N215 1.365 . S
N215 C212 1.341 . S
N215 N214 1.365 . S
N215 H235 0.862 . S
C216 C211 1.501 . S
C216 H217 0.961 . S
C216 H218 0.961 . S
C216 H219 0.960 . S
H217 C216 0.961 . S
H218 C216 0.961 . S
H219 C216 0.960 . S
C220 N221 1.342 . S
C220 C224 1.401 . S
C220 C225 1.499 . S
N221 Co204 1.989 . S
N221 C220 1.342 . S
N221 N222 1.388 . S
N222 Co205 1.993 . S
N222 N221 1.388 . S
N222 C223 1.346 . S
C223 N222 1.346 . S
C223 C224 1.396 . S
C223 C233 1.510 . S
C224 C220 1.401 . S
C224 C223 1.396 . S
C225 C220 1.499 . S
C225 H226 0.959 . S
C225 H227 0.960 . S
C225 H228 0.961 . S
H226 C225 0.959 . S
H227 C225 0.960 . S
H228 C225 0.961 . S
O229 Co204 1.967 . S
O229 C237 1.258 . S
O230 Co205 1.941 . S
O230 C237 1.266 . S
H231 C233 0.959 . S
H232 C233 0.961 . S
C233 C223 1.510 . S
C233 H231 0.959 . S
C233 H232 0.961 . S
C233 H234 0.960 . S
H234 C233 0.960 . S
H235 N215 0.862 . S
O236 Co204 1.920 . S
O236 C209 1.289 . S
C237 O229 1.258 . S
C237 O230 1.266 . S
Co238 O241 1.970 1_655 S
Co238 N255 1.989 . S
Co238 O263 1.967 . S
Co238 O270 1.920 . S
Co239 O242 1.966 1_655 S
Co239 N248 2.022 . S
Co239 N256 1.993 . S
Co239 O264 1.941 . S
C240 O241 1.258 . S
C240 O242 1.263 . S
O241 Co238 1.970 1_455 S
O241 C240 1.258 . S
O242 Co239 1.966 1_455 S
O242 C240 1.263 . S
C243 O244 1.235 1_655 S
C243 O270 1.289 . S
O244 C243 1.235 1_455 S
C245 C247 1.400 . S
C245 N248 1.351 . S
C245 C250 1.501 1_655 S
C246 C247 1.387 . S
C246 N249 1.341 . S
C247 C245 1.400 . S
C247 C246 1.387 . S
N248 Co239 2.022 . S
N248 C245 1.351 . S
N248 N249 1.365 . S
N249 C246 1.341 . S
N249 N248 1.365 . S
N249 H269 0.862 . S
C250 C245 1.501 1_455 S
C250 H251 0.961 . S
C250 H252 0.961 . S
C250 H253 0.960 . S
H251 C250 0.961 . S
H252 C250 0.961 . S
H253 C250 0.960 . S
C254 N255 1.342 1_556 S
C254 C258 1.401 . S
C254 C259 1.499 . S
N255 Co238 1.989 . S
N255 C254 1.342 1_554 S
N255 N256 1.388 . S
N256 Co239 1.993 . S
N256 N255 1.388 . S
N256 C257 1.346 1_554 S
C257 N256 1.346 1_556 S
C257 C258 1.396 . S
C257 C267 1.510 . S
C258 C254 1.401 . S
C258 C257 1.396 . S
C259 C254 1.499 . S
C259 H260 0.959 . S
C259 H261 0.960 . S
C259 H262 0.961 . S
H260 C259 0.959 . S
H261 C259 0.960 . S
H262 C259 0.961 . S
O263 Co238 1.967 . S
O263 C271 1.258 . S
O264 Co239 1.941 . S
O264 C271 1.266 . S
H265 C267 0.959 . S
H266 C267 0.961 . S
C267 C257 1.510 . S
C267 H265 0.959 . S
C267 H266 0.961 . S
C267 H268 0.960 1_556 S
H268 C267 0.960 1_554 S
H269 N249 0.862 . S
O270 Co238 1.920 . S
O270 C243 1.289 . S
C271 O263 1.258 . S
C271 O264 1.266 . S
Co272 O275 1.970 1_565 S
Co272 N289 1.989 . S
Co272 O297 1.967 . S
Co272 O304 1.920 . S
Co273 O276 1.966 1_565 S
Co273 N282 2.022 . S
Co273 N290 1.993 . S
Co273 O298 1.941 . S
C274 O275 1.258 . S
C274 O276 1.263 . S
O275 Co272 1.970 1_545 S
O275 C274 1.258 . S
O276 Co273 1.966 1_545 S
O276 C274 1.263 . S
C277 O278 1.235 1_565 S
C277 O304 1.289 . S
O278 C277 1.235 1_545 S
C279 C281 1.400 . S
C279 N282 1.351 . S
C279 C284 1.501 1_565 S
C280 C281 1.387 . S
C280 N283 1.341 . S
C281 C279 1.400 . S
C281 C280 1.387 . S
N282 Co273 2.022 . S
N282 C279 1.351 . S
N282 N283 1.365 . S
N283 C280 1.341 . S
N283 N282 1.365 . S
N283 H303 0.862 . S
C284 C279 1.501 1_545 S
C284 H285 0.961 . S
C284 H286 0.961 . S
C284 H287 0.960 . S
H285 C284 0.961 . S
H286 C284 0.961 . S
H287 C284 0.960 . S
C288 N289 1.342 . S
C288 C292 1.401 . S
C288 C293 1.499 . S
N289 Co272 1.989 . S
N289 C288 1.342 . S
N289 N290 1.388 . S
N290 Co273 1.993 . S
N290 N289 1.388 . S
N290 C291 1.346 . S
C291 N290 1.346 . S
C291 C292 1.396 . S
C291 C301 1.510 . S
C292 C288 1.401 . S
C292 C291 1.396 . S
C293 C288 1.499 . S
C293 H294 0.959 . S
C293 H295 0.960 . S
C293 H296 0.961 . S
H294 C293 0.959 . S
H295 C293 0.960 . S
H296 C293 0.961 . S
O297 Co272 1.967 . S
O297 C305 1.258 . S
O298 Co273 1.941 . S
O298 C305 1.266 . S
H299 C301 0.959 . S
H300 C301 0.961 . S
C301 C291 1.510 . S
C301 H299 0.959 . S
C301 H300 0.961 . S
C301 H302 0.960 . S
H302 C301 0.960 . S
H303 N283 0.862 . S
O304 Co272 1.920 . S
O304 C277 1.289 . S
C305 O297 1.258 . S
C305 O298 1.266 . S
Co306 O309 1.970 . S
Co306 N323 1.989 . S
Co306 O331 1.967 . S
Co306 O338 1.920 . S
Co307 O310 1.966 . S
Co307 N316 2.022 . S
Co307 N324 1.993 . S
Co307 O332 1.941 . S
C308 O309 1.258 . S
C308 O310 1.263 . S
O309 Co306 1.970 . S
O309 C308 1.258 . S
O310 Co307 1.966 . S
O310 C308 1.263 . S
C311 O312 1.235 . S
C311 O338 1.289 . S
O312 C311 1.235 . S
C313 C315 1.400 . S
C313 N316 1.351 . S
C313 C318 1.501 . S
C314 C315 1.387 . S
C314 N317 1.341 . S
C315 C313 1.400 . S
C315 C314 1.387 . S
N316 Co307 2.022 . S
N316 C313 1.351 . S
N316 N317 1.365 . S
N317 C314 1.341 . S
N317 N316 1.365 . S
N317 H337 0.862 . S
C318 C313 1.501 . S
C318 H319 0.961 . S
C318 H320 0.961 . S
C318 H321 0.960 . S
H319 C318 0.961 . S
H320 C318 0.961 . S
H321 C318 0.960 . S
C322 N323 1.342 1_556 S
C322 C326 1.401 . S
C322 C327 1.499 . S
N323 Co306 1.989 . S
N323 C322 1.342 1_554 S
N323 N324 1.388 . S
N324 Co307 1.993 . S
N324 N323 1.388 . S
N324 C325 1.346 . S
C325 N324 1.346 . S
C325 C326 1.396 1_554 S
C325 C335 1.510 1_554 S
C326 C322 1.401 . S
C326 C325 1.396 1_556 S
C327 C322 1.499 . S
C327 H328 0.959 . S
C327 H329 0.960 . S
C327 H330 0.961 . S
H328 C327 0.959 . S
H329 C327 0.960 . S
H330 C327 0.961 . S
O331 Co306 1.967 . S
O331 C339 1.258 . S
O332 Co307 1.941 . S
O332 C339 1.266 . S
H333 C335 0.959 . S
H334 C335 0.961 . S
C335 C325 1.510 1_556 S
C335 H333 0.959 . S
C335 H334 0.961 . S
C335 H336 0.960 1_556 S
H336 C335 0.960 1_554 S
H337 N317 0.862 . S
O338 Co306 1.920 . S
O338 C311 1.289 . S
C339 O331 1.258 . S
C339 O332 1.266 . S
Co340 O343 1.970 . S
Co340 N357 1.989 . S
Co340 O365 1.967 . S
Co340 O372 1.920 . S
Co341 O344 1.966 . S
Co341 N350 2.022 . S
Co341 N358 1.993 . S
Co341 O366 1.941 . S
C342 O343 1.258 . S
C342 O344 1.263 . S
O343 Co340 1.970 . S
O343 C342 1.258 . S
O344 Co341 1.966 . S
O344 C342 1.263 . S
C345 O346 1.235 . S
C345 O372 1.289 . S
O346 C345 1.235 . S
C347 C349 1.400 . S
C347 N350 1.351 . S
C347 C352 1.501 . S
C348 C349 1.387 . S
C348 N351 1.341 . S
C349 C347 1.400 . S
C349 C348 1.387 . S
N350 Co341 2.022 . S
N350 C347 1.351 . S
N350 N351 1.365 . S
N351 C348 1.341 . S
N351 N350 1.365 . S
N351 H371 0.862 . S
C352 C347 1.501 . S
C352 H353 0.961 . S
C352 H354 0.961 . S
C352 H355 0.960 . S
H353 C352 0.961 . S
H354 C352 0.961 . S
H355 C352 0.960 . S
C356 N357 1.342 . S
C356 C360 1.401 . S
C356 C361 1.499 . S
N357 Co340 1.989 . S
N357 C356 1.342 . S
N357 N358 1.388 . S
N358 Co341 1.993 . S
N358 N357 1.388 . S
N358 C359 1.346 . S
C359 N358 1.346 . S
C359 C360 1.396 . S
C359 C369 1.510 . S
C360 C356 1.401 . S
C360 C359 1.396 . S
C361 C356 1.499 . S
C361 H362 0.959 . S
C361 H363 0.960 . S
C361 H364 0.961 . S
H362 C361 0.959 . S
H363 C361 0.960 . S
H364 C361 0.961 . S
O365 Co340 1.967 . S
O365 C373 1.258 . S
O366 Co341 1.941 . S
O366 C373 1.266 . S
H367 C369 0.959 . S
H368 C369 0.961 . S
C369 C359 1.510 . S
C369 H367 0.959 . S
C369 H368 0.961 . S
C369 H370 0.960 . S
H370 C369 0.960 . S
H371 N351 0.862 . S
O372 Co340 1.920 . S
O372 C345 1.289 . S
C373 O365 1.258 . S
C373 O366 1.266 . S
Co374 O377 1.970 1_655 S
Co374 N391 1.989 . S
Co374 O399 1.967 . S
Co374 O406 1.920 . S
Co375 O378 1.966 1_655 S
Co375 N384 2.022 . S
Co375 N392 1.993 . S
Co375 O400 1.941 . S
C376 O377 1.258 . S
C376 O378 1.263 . S
O377 Co374 1.970 1_455 S
O377 C376 1.258 . S
O378 Co375 1.966 1_455 S
O378 C376 1.263 . S
C379 O380 1.235 1_655 S
C379 O406 1.289 . S
O380 C379 1.235 1_455 S
C381 C383 1.400 . S
C381 N384 1.351 . S
C381 C386 1.501 1_655 S
C382 C383 1.387 . S
C382 N385 1.341 . S
C383 C381 1.400 . S
C383 C382 1.387 . S
N384 Co375 2.022 . S
N384 C381 1.351 . S
N384 N385 1.365 . S
N385 C382 1.341 . S
N385 N384 1.365 . S
N385 H405 0.862 . S
C386 C381 1.501 1_455 S
C386 H387 0.961 . S
C386 H388 0.961 . S
C386 H389 0.960 . S
H387 C386 0.961 . S
H388 C386 0.961 . S
H389 C386 0.960 . S
C390 N391 1.342 1_556 S
C390 C394 1.401 . S
C390 C395 1.499 . S
N391 Co374 1.989 . S
N391 C390 1.342 1_554 S
N391 N392 1.388 . S
N392 Co375 1.993 . S
N392 N391 1.388 . S
N392 C393 1.346 . S
C393 N392 1.346 . S
C393 C394 1.396 1_554 S
C393 C403 1.510 1_554 S
C394 C390 1.401 . S
C394 C393 1.396 1_556 S
C395 C390 1.499 . S
C395 H396 0.959 . S
C395 H397 0.960 . S
C395 H398 0.961 . S
H396 C395 0.959 . S
H397 C395 0.960 . S
H398 C395 0.961 . S
O399 Co374 1.967 . S
O399 C407 1.258 . S
O400 Co375 1.941 . S
O400 C407 1.266 . S
H401 C403 0.959 . S
H402 C403 0.961 . S
C403 C393 1.510 1_556 S
C403 H401 0.959 . S
C403 H402 0.961 . S
C403 H404 0.960 1_556 S
H404 C403 0.960 1_554 S
H405 N385 0.862 . S
O406 Co374 1.920 . S
O406 C379 1.289 . S
C407 O399 1.258 . S
C407 O400 1.266 . S
Co408 O411 1.970 1_545 S
Co408 N425 1.989 . S
Co408 O433 1.967 . S
Co408 O440 1.920 . S
Co409 O412 1.966 1_545 S
Co409 N418 2.022 . S
Co409 N426 1.993 . S
Co409 O434 1.941 . S
C410 O411 1.258 . S
C410 O412 1.263 . S
O411 Co408 1.970 1_565 S
O411 C410 1.258 . S
O412 Co409 1.966 1_565 S
O412 C410 1.263 . S
C413 O414 1.235 1_545 S
C413 O440 1.289 . S
O414 C413 1.235 1_565 S
C415 C417 1.400 . S
C415 N418 1.351 . S
C415 C420 1.501 1_545 S
C416 C417 1.387 . S
C416 N419 1.341 . S
C417 C415 1.400 . S
C417 C416 1.387 . S
N418 Co409 2.022 . S
N418 C415 1.351 . S
N418 N419 1.365 . S
N419 C416 1.341 . S
N419 N418 1.365 . S
N419 H439 0.862 . S
C420 C415 1.501 1_565 S
C420 H421 0.961 . S
C420 H422 0.961 . S
C420 H423 0.960 . S
H421 C420 0.961 . S
H422 C420 0.961 . S
H423 C420 0.960 . S
C424 N425 1.342 . S
C424 C428 1.401 . S
C424 C429 1.499 . S
N425 Co408 1.989 . S
N425 C424 1.342 . S
N425 N426 1.388 . S
N426 Co409 1.993 . S
N426 N425 1.388 . S
N426 C427 1.346 . S
C427 N426 1.346 . S
C427 C428 1.396 . S
C427 C437 1.510 . S
C428 C424 1.401 . S
C428 C427 1.396 . S
C429 C424 1.499 . S
C429 H430 0.959 . S
C429 H431 0.960 . S
C429 H432 0.961 . S
H430 C429 0.959 . S
H431 C429 0.960 . S
H432 C429 0.961 . S
O433 Co408 1.967 . S
O433 C441 1.258 . S
O434 Co409 1.941 . S
O434 C441 1.266 . S
H435 C437 0.959 . S
H436 C437 0.961 . S
C437 C427 1.510 . S
C437 H435 0.959 . S
C437 H436 0.961 . S
C437 H438 0.960 . S
H438 C437 0.960 . S
H439 N419 0.862 . S
O440 Co408 1.920 . S
O440 C413 1.289 . S
C441 O433 1.258 . S
C441 O434 1.266 . S
Co442 O445 1.970 . S
Co442 N459 1.989 . S
Co442 O467 1.967 . S
Co442 O474 1.920 . S
Co443 O446 1.966 . S
Co443 N452 2.022 . S
Co443 N460 1.993 . S
Co443 O468 1.941 . S
C444 O445 1.258 . S
C444 O446 1.263 . S
O445 Co442 1.970 . S
O445 C444 1.258 . S
O446 Co443 1.966 . S
O446 C444 1.263 . S
C447 O448 1.235 . S
C447 O474 1.289 . S
O448 C447 1.235 . S
C449 C451 1.400 . S
C449 N452 1.351 . S
C449 C454 1.501 . S
C450 C451 1.387 . S
C450 N453 1.341 . S
C451 C449 1.400 . S
C451 C450 1.387 . S
N452 Co443 2.022 . S
N452 C449 1.351 . S
N452 N453 1.365 . S
N453 C450 1.341 . S
N453 N452 1.365 . S
N453 H473 0.862 . S
C454 C449 1.501 . S
C454 H455 0.961 . S
C454 H456 0.961 . S
C454 H457 0.960 . S
H455 C454 0.961 . S
H456 C454 0.961 . S
H457 C454 0.960 . S
C458 N459 1.342 1_554 S
C458 C462 1.401 . S
C458 C463 1.499 . S
N459 Co442 1.989 . S
N459 C458 1.342 1_556 S
N459 N460 1.388 . S
N460 Co443 1.993 . S
N460 N459 1.388 . S
N460 C461 1.346 1_556 S
C461 N460 1.346 1_554 S
C461 C462 1.396 . S
C461 C471 1.510 . S
C462 C458 1.401 . S
C462 C461 1.396 . S
C463 C458 1.499 . S
C463 H464 0.959 . S
C463 H465 0.960 . S
C463 H466 0.961 . S
H464 C463 0.959 . S
H465 C463 0.960 . S
H466 C463 0.961 . S
O467 Co442 1.967 . S
O467 C475 1.258 . S
O468 Co443 1.941 . S
O468 C475 1.266 . S
H469 C471 0.959 . S
H470 C471 0.961 . S
C471 C461 1.510 . S
C471 H469 0.959 . S
C471 H470 0.961 . S
C471 H472 0.960 1_554 S
H472 C471 0.960 1_556 S
H473 N453 0.862 . S
O474 Co442 1.920 . S
O474 C447 1.289 . S
C475 O467 1.258 . S
C475 O468 1.266 . S
Co476 O479 1.970 . S
Co476 N493 1.989 . S
Co476 O501 1.967 . S
Co476 O508 1.920 . S
Co477 O480 1.966 . S
Co477 N486 2.022 . S
Co477 N494 1.993 . S
Co477 O502 1.941 . S
C478 O479 1.258 . S
C478 O480 1.263 . S
O479 Co476 1.970 . S
O479 C478 1.258 . S
O480 Co477 1.966 . S
O480 C478 1.263 . S
C481 O482 1.235 . S
C481 O508 1.289 . S
O482 C481 1.235 . S
C483 C485 1.400 . S
C483 N486 1.351 . S
C483 C488 1.501 . S
C484 C485 1.387 . S
C484 N487 1.341 . S
C485 C483 1.400 . S
C485 C484 1.387 . S
N486 Co477 2.022 . S
N486 C483 1.351 . S
N486 N487 1.365 . S
N487 C484 1.341 . S
N487 N486 1.365 . S
N487 H507 0.862 . S
C488 C483 1.501 . S
C488 H489 0.961 . S
C488 H490 0.961 . S
C488 H491 0.960 . S
H489 C488 0.961 . S
H490 C488 0.961 . S
H491 C488 0.960 . S
C492 N493 1.342 . S
C492 C496 1.401 . S
C492 C497 1.499 . S
N493 Co476 1.989 . S
N493 C492 1.342 . S
N493 N494 1.388 . S
N494 Co477 1.993 . S
N494 N493 1.388 . S
N494 C495 1.346 . S
C495 N494 1.346 . S
C495 C496 1.396 . S
C495 C505 1.510 . S
C496 C492 1.401 . S
C496 C495 1.396 . S
C497 C492 1.499 . S
C497 H498 0.959 . S
C497 H499 0.960 . S
C497 H500 0.961 . S
H498 C497 0.959 . S
H499 C497 0.960 . S
H500 C497 0.961 . S
O501 Co476 1.967 . S
O501 C509 1.258 . S
O502 Co477 1.941 . S
O502 C509 1.266 . S
H503 C505 0.959 . S
H504 C505 0.961 . S
C505 C495 1.510 . S
C505 H503 0.959 . S
C505 H504 0.961 . S
C505 H506 0.960 . S
H506 C505 0.960 . S
H507 N487 0.862 . S
O508 Co476 1.920 . S
O508 C481 1.289 . S
C509 O501 1.258 . S
C509 O502 1.266 . S
Co510 O513 1.970 1_455 S
Co510 N527 1.989 . S
Co510 O535 1.967 . S
Co510 O542 1.920 . S
Co511 O514 1.966 1_455 S
Co511 N520 2.022 . S
Co511 N528 1.993 . S
Co511 O536 1.941 . S
C512 O513 1.258 . S
C512 O514 1.263 . S
O513 Co510 1.970 1_655 S
O513 C512 1.258 . S
O514 Co511 1.966 1_655 S
O514 C512 1.263 . S
C515 O516 1.235 1_455 S
C515 O542 1.289 . S
O516 C515 1.235 1_655 S
C517 C519 1.400 . S
C517 N520 1.351 . S
C517 C522 1.501 1_455 S
C518 C519 1.387 . S
C518 N521 1.341 . S
C519 C517 1.400 . S
C519 C518 1.387 . S
N520 Co511 2.022 . S
N520 C517 1.351 . S
N520 N521 1.365 . S
N521 C518 1.341 . S
N521 N520 1.365 . S
N521 H541 0.862 . S
C522 C517 1.501 1_655 S
C522 H523 0.961 . S
C522 H524 0.961 . S
C522 H525 0.960 . S
H523 C522 0.961 . S
H524 C522 0.961 . S
H525 C522 0.960 . S
C526 N527 1.328 1_554 S
C526 C530 1.408 . S
C526 C531 1.505 . S
N527 Co510 1.989 . S
N527 C526 1.328 1_556 S
N527 N528 1.388 . S
N528 Co511 1.993 . S
N528 N527 1.388 . S
N528 C529 1.346 . S
C529 N528 1.346 . S
C529 C530 1.396 1_556 S
C529 C539 1.510 . S
C530 C526 1.408 . S
C530 C529 1.396 1_554 S
C531 C526 1.505 . S
C531 H532 0.959 1_554 S
C531 H533 0.960 . S
C531 H534 0.961 . S
H532 C531 0.959 1_556 S
H533 C531 0.960 . S
H534 C531 0.961 . S
O535 Co510 1.967 . S
O535 C543 1.258 . S
O536 Co511 1.941 . S
O536 C543 1.266 . S
H537 C539 0.959 . S
H538 C539 0.961 1_554 S
C539 C529 1.510 . S
C539 H537 0.959 . S
C539 H538 0.961 1_556 S
C539 H540 0.960 . S
H540 C539 0.960 . S
H541 N521 0.862 . S
O542 Co510 1.920 . S
O542 C515 1.289 . S
C543 O535 1.258 . S
C543 O536 1.266 . S
C544 C545 1.383 1_445 S
C544 H548 0.948 1_455 S
C544 C553 1.397 . S
C545 C544 1.383 1_665 S
C545 C547 1.387 . S
H546 C553 0.950 . S
C547 C545 1.387 . S
C547 C549 1.390 1_655 S
C547 H551 0.950 . S
H548 C544 0.948 1_655 S
C549 C547 1.390 1_455 S
C549 C550 1.387 1_565 S
C549 H552 0.950 . S
C550 C549 1.387 1_545 S
C550 C553 1.387 . S
H551 C547 0.950 . S
H552 C549 0.950 . S
C553 C544 1.397 . S
C553 H546 0.950 . S
C553 C550 1.387 . S
C554 C555 1.406 . S
C554 H558 0.950 . S
C554 C563 1.390 1_556 S
C555 C554 1.406 . S
C555 C557 1.371 1_565 S
H556 C563 0.950 . S
C557 C555 1.371 1_545 S
C557 C559 1.390 1_556 S
C557 H561 0.950 . S
H558 C554 0.950 . S
C559 C557 1.390 1_554 S
C559 C560 1.387 1_545 S
C559 H562 0.950 . S
C560 C559 1.387 1_565 S
C560 C563 1.387 . S
H561 C557 0.950 . S
H562 C559 0.950 . S
C563 C554 1.390 1_554 S
C563 H556 0.950 . S
C563 C560 1.387 . S
C564 C565 1.387 . S
C564 H568 0.950 . S
C564 C573 1.390 . S
C565 C564 1.387 . S
C565 C567 1.387 . S
H566 C573 0.950 . S
C567 C565 1.387 . S
C567 C569 1.390 . S
C567 H571 0.950 . S
H568 C564 0.950 . S
C569 C567 1.390 . S
C569 C570 1.387 . S
C569 H572 0.950 . S
C570 C569 1.387 . S
C570 C573 1.387 . S
H571 C567 0.950 . S
H572 C569 0.950 . S
C573 C564 1.390 . S
C573 H566 0.950 . S
C573 C570 1.387 . S
C574 C575 1.387 . S
C574 H578 0.950 . S
C574 C583 1.390 1_554 S
C575 C574 1.387 . S
C575 C577 1.387 1_655 S
H576 C583 0.950 . S
C577 C575 1.387 1_455 S
C577 C579 1.390 . S
C577 H581 0.950 . S
H578 C574 0.950 . S
C579 C577 1.390 . S
C579 C580 1.387 1_554 S
C579 H582 0.950 . S
C580 C579 1.387 1_556 S
C580 C583 1.387 1_455 S
H581 C577 0.950 . S
H582 C579 0.950 . S
C583 C574 1.390 1_556 S
C583 H576 0.950 . S
C583 C580 1.387 1_655 S
C584 C585 1.387 . S
C584 H588 0.950 . S
C584 C593 1.390 . S
C585 C584 1.387 . S
C585 C587 1.387 1_565 S
H586 C593 0.950 . S
C587 C585 1.387 1_545 S
C587 C589 1.390 . S
C587 H591 0.950 . S
H588 C584 0.950 . S
C589 C587 1.390 . S
C589 C590 1.387 . S
C589 H592 0.950 . S
C590 C589 1.387 . S
C590 C593 1.387 1_545 S
H591 C587 0.950 . S
H592 C589 0.950 . S
C593 C584 1.390 . S
C593 H586 0.950 . S
C593 C590 1.387 1_565 S
C594 C595 1.387 . S
C594 H598 0.950 . S
C594 C603 1.390 1_554 S
C595 C594 1.387 . S
C595 C597 1.387 . S
H596 C603 0.950 . S
C597 C595 1.387 . S
C597 C599 1.390 1_554 S
C597 H601 0.950 . S
H598 C594 0.950 . S
C599 C597 1.390 1_556 S
C599 C600 1.387 . S
C599 H602 0.950 . S
C600 C599 1.387 . S
C600 C603 1.387 . S
H601 C597 0.950 . S
H602 C599 0.950 . S
C603 C594 1.390 1_556 S
C603 H596 0.950 . S
C603 C600 1.387 . S
C604 C605 1.398 . S
C604 H608 0.960 . S
C604 C613 1.371 1_655 S
C605 C604 1.398 . S
C605 C607 1.387 . S
H606 C613 0.950 . S
C607 C605 1.387 . S
C607 C609 1.390 1_655 S
C607 H611 0.950 . S
H608 C604 0.960 . S
C609 C607 1.390 1_455 S
C609 C610 1.387 . S
C609 H612 0.950 . S
C610 C609 1.387 . S
C610 C613 1.387 . S
H611 C607 0.950 . S
H612 C609 0.950 . S
C613 C604 1.371 1_455 S
C613 H606 0.950 . S
C613 C610 1.387 . S
C614 C615 1.387 1_445 S
C614 H618 0.951 . S
C614 C623 1.390 1_554 S
C615 C614 1.387 1_665 S
C615 C617 1.387 1_554 S
H616 C623 0.950 . S
C617 C615 1.387 1_556 S
C617 C619 1.390 1_655 S
C617 H621 0.950 . S
H618 C614 0.951 . S
C619 C617 1.390 1_455 S
C619 C620 1.387 1_565 S
C619 H622 0.950 . S
C620 C619 1.387 1_545 S
C620 C623 1.387 . S
H621 C617 0.950 . S
H622 C619 0.950 . S
C623 C614 1.390 1_556 S
C623 H616 0.950 . S
C623 C620 1.387 . S
C624 C625 1.387 . S
C624 H628 0.950 . S
C624 C633 1.390 . S
C625 C624 1.387 . S
C625 C627 1.387 . S
H626 C633 0.950 . S
C627 C625 1.387 . S
C627 C629 1.390 . S
C627 H631 0.950 . S
H628 C624 0.950 . S
C629 C627 1.390 . S
C629 C630 1.387 . S
C629 H632 0.950 . S
C630 C629 1.387 . S
C630 C633 1.387 . S
H631 C627 0.950 . S
H632 C629 0.950 . S
C633 C624 1.390 . S
C633 H626 0.950 . S
C633 C630 1.387 . S
C634 C635 1.387 . S
C634 H638 0.950 . S
C634 C643 1.390 . S
C635 C634 1.387 . S
C635 C637 1.387 . S
H636 C643 0.950 . S
C637 C635 1.387 . S
C637 C639 1.390 . S
C637 H641 0.950 . S
H638 C634 0.950 . S
C639 C637 1.390 . S
C639 C640 1.387 . S
C639 H642 0.950 . S
C640 C639 1.387 . S
C640 C643 1.387 . S
H641 C637 0.950 . S
H642 C639 0.950 . S
C643 C634 1.390 . S
C643 H636 0.950 . S
C643 C640 1.387 . S
C644 C645 1.387 . S
C644 H648 0.950 . S
C644 C653 1.390 . S
C645 C644 1.387 . S
C645 C647 1.387 . S
H646 C653 0.950 . S
C647 C645 1.387 . S
C647 C649 1.390 . S
C647 H651 0.950 . S
H648 C644 0.950 . S
C649 C647 1.390 . S
C649 C650 1.387 . S
C649 H652 0.950 . S
C650 C649 1.387 . S
C650 C653 1.387 . S
H651 C647 0.950 . S
H652 C649 0.950 . S
C653 C644 1.390 . S
C653 H646 0.950 . S
C653 C650 1.387 . S
C654 C655 1.387 . S
C654 H658 0.950 . S
C654 C663 1.390 . S
C655 C654 1.387 . S
C655 C657 1.387 . S
H656 C663 0.950 . S
C657 C655 1.387 . S
C657 C659 1.390 . S
C657 H661 0.950 . S
H658 C654 0.950 . S
C659 C657 1.390 . S
C659 C660 1.387 . S
C659 H662 0.950 . S
C660 C659 1.387 . S
C660 C663 1.387 . S
H661 C657 0.950 . S
H662 C659 0.950 . S
C663 C654 1.390 . S
C663 H656 0.950 . S
C663 C660 1.387 . S
C664 C665 1.387 . S
C664 H668 0.950 . S
C664 C673 1.390 . S
C665 C664 1.387 . S
C665 C667 1.387 . S
H666 C673 0.950 . S
C667 C665 1.387 . S
C667 C669 1.390 . S
C667 H671 0.950 . S
H668 C664 0.950 . S
C669 C667 1.390 . S
C669 C670 1.387 . S
C669 H672 0.950 . S
C670 C669 1.387 . S
C670 C673 1.387 . S
H671 C667 0.950 . S
H672 C669 0.950 . S
C673 C664 1.390 . S
C673 H666 0.950 . S
C673 C670 1.387 . S
C674 C675 1.387 . S
C674 H678 0.950 . S
C674 C683 1.390 . S
C675 C674 1.387 . S
C675 C677 1.387 . S
H676 C683 0.950 . S
C677 C675 1.387 . S
C677 C679 1.390 . S
C677 H681 0.950 . S
H678 C674 0.950 . S
C679 C677 1.390 . S
C679 C680 1.387 . S
C679 H682 0.950 . S
C680 C679 1.387 . S
C680 C683 1.387 . S
H681 C677 0.950 . S
H682 C679 0.950 . S
C683 C674 1.390 . S
C683 H676 0.950 . S
C683 C680 1.387 . S
C684 C685 1.387 . S
C684 H688 0.950 . S
C684 C693 1.390 . S
C685 C684 1.387 . S
C685 C687 1.387 . S
H686 C693 0.950 . S
C687 C685 1.387 . S
C687 C689 1.390 . S
C687 H691 0.950 . S
H688 C684 0.950 . S
C689 C687 1.390 . S
C689 C690 1.387 . S
C689 H692 0.950 . S
C690 C689 1.387 . S
C690 C693 1.387 . S
H691 C687 0.950 . S
H692 C689 0.950 . S
C693 C684 1.390 . S
C693 H686 0.950 . S
C693 C690 1.387 . S
C694 C695 1.387 . S
C694 H698 0.950 . S
C694 C703 1.390 . S
C695 C694 1.387 . S
C695 C697 1.387 . S
H696 C703 0.950 . S
C697 C695 1.387 . S
C697 C699 1.390 . S
C697 H701 0.950 . S
H698 C694 0.950 . S
C699 C697 1.390 . S
C699 C700 1.387 . S
C699 H702 0.950 . S
C700 C699 1.387 . S
C700 C703 1.387 . S
H701 C697 0.950 . S
H702 C699 0.950 . S
C703 C694 1.390 . S
C703 H696 0.950 . S
C703 C700 1.387 . S
C704 C705 1.387 . S
C704 H708 0.950 . S
C704 C713 1.390 . S
C705 C704 1.387 . S
C705 C707 1.387 . S
H706 C713 0.950 . S
C707 C705 1.387 . S
C707 C709 1.390 . S
C707 H711 0.950 . S
H708 C704 0.950 . S
C709 C707 1.390 . S
C709 C710 1.387 . S
C709 H712 0.950 . S
C710 C709 1.387 . S
C710 C713 1.387 . S
H711 C707 0.950 . S
H712 C709 0.950 . S
C713 C704 1.390 . S
C713 H706 0.950 . S
C713 C710 1.387 . S
C714 C715 1.387 . S
C714 H718 0.950 . S
C714 C723 1.390 . S
C715 C714 1.387 . S
C715 C717 1.387 . S
H716 C723 0.950 . S
C717 C715 1.387 . S
C717 C719 1.390 . S
C717 H721 0.950 . S
H718 C714 0.950 . S
C719 C717 1.390 . S
C719 C720 1.387 . S
C719 H722 0.950 . S
C720 C719 1.387 . S
C720 C723 1.387 . S
H721 C717 0.950 . S
H722 C719 0.950 . S
C723 C714 1.390 . S
C723 H716 0.950 . S
C723 C720 1.387 . S
C724 C725 1.387 . S
C724 H728 0.950 . S
C724 C733 1.390 . S
C725 C724 1.387 . S
C725 C727 1.387 . S
H726 C733 0.950 . S
C727 C725 1.387 . S
C727 C729 1.390 . S
C727 H731 0.950 . S
H728 C724 0.950 . S
C729 C727 1.390 . S
C729 C730 1.387 . S
C729 H732 0.950 . S
C730 C729 1.387 . S
C730 C733 1.387 . S
H731 C727 0.950 . S
H732 C729 0.950 . S
C733 C724 1.390 . S
C733 H726 0.950 . S
C733 C730 1.387 . S
C734 C735 1.387 . S
C734 H738 0.950 . S
C734 C743 1.390 . S
C735 C734 1.387 . S
C735 C737 1.387 . S
H736 C743 0.950 . S
C737 C735 1.387 . S
C737 C739 1.390 . S
C737 H741 0.950 . S
H738 C734 0.950 . S
C739 C737 1.390 . S
C739 C740 1.387 . S
C739 H742 0.950 . S
C740 C739 1.387 . S
C740 C743 1.387 . S
H741 C737 0.950 . S
H742 C739 0.950 . S
C743 C734 1.390 . S
C743 H736 0.950 . S
C743 C740 1.387 . S
C744 C745 1.387 . S
C744 H748 0.950 . S
C744 C753 1.390 . S
C745 C744 1.387 . S
C745 C747 1.387 . S
H746 C753 0.950 . S
C747 C745 1.387 . S
C747 C749 1.390 . S
C747 H751 0.950 . S
H748 C744 0.950 . S
C749 C747 1.390 . S
C749 C750 1.387 . S
C749 H752 0.950 . S
C750 C749 1.387 . S
C750 C753 1.387 . S
H751 C747 0.950 . S
H752 C749 0.950 . S
C753 C744 1.390 . S
C753 H746 0.950 . S
C753 C750 1.387 . S
C754 C755 1.387 . S
C754 H758 0.950 . S
C754 C763 1.390 . S
C755 C754 1.387 . S
C755 C757 1.387 . S
H756 C763 0.950 . S
C757 C755 1.387 . S
C757 C759 1.390 . S
C757 H761 0.950 . S
H758 C754 0.950 . S
C759 C757 1.390 . S
C759 C760 1.387 . S
C759 H762 0.950 . S
C760 C759 1.387 . S
C760 C763 1.387 . S
H761 C757 0.950 . S
H762 C759 0.950 . S
C763 C754 1.390 . S
C763 H756 0.950 . S
C763 C760 1.387 . S
C764 C765 1.387 . S
C764 H768 0.950 . S
C764 C773 1.390 . S
C765 C764 1.387 . S
C765 C767 1.387 . S
H766 C773 0.950 . S
C767 C765 1.387 . S
C767 C769 1.390 . S
C767 H771 0.950 . S
H768 C764 0.950 . S
C769 C767 1.390 . S
C769 C770 1.387 . S
C769 H772 0.950 . S
C770 C769 1.387 . S
C770 C773 1.387 . S
H771 C767 0.950 . S
H772 C769 0.950 . S
C773 C764 1.390 . S
C773 H766 0.950 . S
C773 C770 1.387 . S
C774 C775 1.387 . S
C774 H778 0.950 . S
C774 C783 1.390 . S
C775 C774 1.387 . S
C775 C777 1.387 . S
H776 C783 0.950 . S
C777 C775 1.387 . S
C777 C779 1.390 . S
C777 H781 0.950 . S
H778 C774 0.950 . S
C779 C777 1.390 . S
C779 C780 1.387 . S
C779 H782 0.950 . S
C780 C779 1.387 . S
C780 C783 1.387 . S
H781 C777 0.950 . S
H782 C779 0.950 . S
C783 C774 1.390 . S
C783 H776 0.950 . S
C783 C780 1.387 . S
C784 C785 1.387 . S
C784 H788 0.950 . S
C784 C793 1.390 . S
C785 C784 1.387 . S
C785 C787 1.387 . S
H786 C793 0.950 . S
C787 C785 1.387 . S
C787 C789 1.390 . S
C787 H791 0.950 . S
H788 C784 0.950 . S
C789 C787 1.390 . S
C789 C790 1.387 . S
C789 H792 0.950 . S
C790 C789 1.387 . S
C790 C793 1.387 . S
H791 C787 0.950 . S
H792 C789 0.950 . S
C793 C784 1.390 . S
C793 H786 0.950 . S
C793 C790 1.387 . S
C794 C795 1.387 . S
C794 H798 0.950 . S
C794 C803 1.390 . S
C795 C794 1.387 . S
C795 C797 1.387 . S
H796 C803 0.950 . S
C797 C795 1.387 . S
C797 C799 1.390 . S
C797 H801 0.950 . S
H798 C794 0.950 . S
C799 C797 1.390 . S
C799 C800 1.387 . S
C799 H802 0.950 . S
C800 C799 1.387 . S
C800 C803 1.387 . S
H801 C797 0.950 . S
H802 C799 0.950 . S
C803 C794 1.390 . S
C803 H796 0.950 . S
C803 C800 1.387 . S
C804 C805 1.387 . S
C804 H808 0.950 . S
C804 C813 1.390 . S
C805 C804 1.387 . S
C805 C807 1.387 . S
H806 C813 0.950 . S
C807 C805 1.387 . S
C807 C809 1.390 . S
C807 H811 0.950 . S
H808 C804 0.950 . S
C809 C807 1.390 . S
C809 C810 1.387 . S
C809 H812 0.950 . S
C810 C809 1.387 . S
C810 C813 1.387 . S
H811 C807 0.950 . S
H812 C809 0.950 . S
C813 C804 1.390 . S
C813 H806 0.950 . S
C813 C810 1.387 . S
C814 C815 1.387 . S
C814 H818 0.950 . S
C814 C823 1.390 . S
C815 C814 1.387 . S
C815 C817 1.387 . S
H816 C823 0.950 . S
C817 C815 1.387 . S
C817 C819 1.390 . S
C817 H821 0.950 . S
H818 C814 0.950 . S
C819 C817 1.390 . S
C819 C820 1.387 . S
C819 H822 0.950 . S
C820 C819 1.387 . S
C820 C823 1.387 . S
H821 C817 0.950 . S
H822 C819 0.950 . S
C823 C814 1.390 . S
C823 H816 0.950 . S
C823 C820 1.387 . S
C824 C825 1.387 . S
C824 H828 0.950 . S
C824 C833 1.390 . S
C825 C824 1.387 . S
C825 C827 1.387 . S
H826 C833 0.950 . S
C827 C825 1.387 . S
C827 C829 1.390 . S
C827 H831 0.950 . S
H828 C824 0.950 . S
C829 C827 1.390 . S
C829 C830 1.387 . S
C829 H832 0.950 . S
C830 C829 1.387 . S
C830 C833 1.387 . S
H831 C827 0.950 . S
H832 C829 0.950 . S
C833 C824 1.390 . S
C833 H826 0.950 . S
C833 C830 1.387 . S
C834 C835 1.387 . S
C834 H838 0.950 . S
C834 C843 1.390 . S
C835 C834 1.387 . S
C835 C837 1.387 . S
H836 C843 0.950 . S
C837 C835 1.387 . S
C837 C839 1.390 . S
C837 H841 0.950 . S
H838 C834 0.950 . S
C839 C837 1.390 . S
C839 C840 1.387 . S
C839 H842 0.950 . S
C840 C839 1.387 . S
C840 C843 1.387 . S
H841 C837 0.950 . S
H842 C839 0.950 . S
C843 C834 1.390 . S
C843 H836 0.950 . S
C843 C840 1.387 . S
C844 C845 1.387 . S
C844 H848 0.950 . S
C844 C853 1.390 . S
C845 C844 1.387 . S
C845 C847 1.387 . S
H846 C853 0.950 . S
C847 C845 1.387 . S
C847 C849 1.390 . S
C847 H851 0.950 . S
H848 C844 0.950 . S
C849 C847 1.390 . S
C849 C850 1.387 . S
C849 H852 0.950 . S
C850 C849 1.387 . S
C850 C853 1.387 . S
H851 C847 0.950 . S
H852 C849 0.950 . S
C853 C844 1.390 . S
C853 H846 0.950 . S
C853 C850 1.387 . S
C854 C855 1.387 . S
C854 H858 0.950 . S
C854 C863 1.390 . S
C855 C854 1.387 . S
C855 C857 1.387 . S
H856 C863 0.950 . S
C857 C855 1.387 . S
C857 C859 1.390 . S
C857 H861 0.950 . S
H858 C854 0.950 . S
C859 C857 1.390 . S
C859 C860 1.387 . S
C859 H862 0.950 . S
C860 C859 1.387 . S
C860 C863 1.387 . S
H861 C857 0.950 . S
H862 C859 0.950 . S
C863 C854 1.390 . S
C863 H856 0.950 . S
C863 C860 1.387 . S
C864 C865 1.387 1_565 S
C864 H868 0.950 . S
C864 C873 1.390 . S
C865 C864 1.387 1_545 S
C865 C867 1.387 . S
H866 C873 0.950 . S
C867 C865 1.387 . S
C867 C869 1.390 . S
C867 H871 0.950 . S
H868 C864 0.950 . S
C869 C867 1.390 . S
C869 C870 1.387 . S
C869 H872 0.950 . S
C870 C869 1.387 . S
C870 C873 1.387 1_545 S
H871 C867 0.950 . S
H872 C869 0.950 . S
C873 C864 1.390 . S
C873 H866 0.950 . S
C873 C870 1.387 1_565 S
C874 C875 1.387 . S
C874 H878 0.950 . S
C874 C883 1.390 . S
C875 C874 1.387 . S
C875 C877 1.387 . S
H876 C883 0.950 . S
C877 C875 1.387 . S
C877 C879 1.390 . S
C877 H881 0.950 . S
H878 C874 0.950 . S
C879 C877 1.390 . S
C879 C880 1.387 . S
C879 H882 0.950 . S
C880 C879 1.387 . S
C880 C883 1.387 . S
H881 C877 0.950 . S
H882 C879 0.950 . S
C883 C874 1.390 . S
C883 H876 0.950 . S
C883 C880 1.387 . S
C884 C885 1.387 . S
C884 H888 0.950 . S
C884 C893 1.390 . S
C885 C884 1.387 . S
C885 C887 1.387 . S
H886 C893 0.950 . S
C887 C885 1.387 . S
C887 C889 1.390 . S
C887 H891 0.950 . S
H888 C884 0.950 . S
C889 C887 1.390 . S
C889 C890 1.387 . S
C889 H892 0.950 . S
C890 C889 1.387 . S
C890 C893 1.387 . S
H891 C887 0.950 . S
H892 C889 0.950 . S
C893 C884 1.390 . S
C893 H886 0.950 . S
C893 C890 1.387 . S
C894 C895 1.387 . S
C894 H898 0.950 . S
C894 C903 1.390 . S
C895 C894 1.387 . S
C895 C897 1.387 . S
H896 C903 0.933 1_655 S
C897 C895 1.387 . S
C897 C899 1.390 . S
C897 H901 0.950 . S
H898 C894 0.950 . S
C899 C897 1.390 . S
C899 C900 1.387 . S
C899 H902 0.950 . S
C900 C899 1.387 . S
C900 C903 1.387 . S
H901 C897 0.950 . S
H902 C899 0.950 . S
C903 C894 1.390 . S
C903 H896 0.933 1_455 S
C903 C900 1.387 . S
C904 C905 1.387 1_545 S
C904 H908 0.950 . S
C904 C913 1.390 . S
C905 C904 1.387 1_565 S
C905 C907 1.387 . S
H906 C913 0.950 . S
C907 C905 1.387 . S
C907 C909 1.390 . S
C907 H911 0.950 . S
H908 C904 0.950 . S
C909 C907 1.390 . S
C909 C910 1.387 . S
C909 H912 0.950 . S
C910 C909 1.387 . S
C910 C913 1.387 1_565 S
H911 C907 0.950 . S
H912 C909 0.950 . S
C913 C904 1.390 . S
C913 H906 0.950 . S
C913 C910 1.387 1_545 S
C914 C915 1.387 . S
C914 H918 0.950 . S
C914 C923 1.390 . S
C915 C914 1.387 . S
C915 C917 1.387 . S
H916 C923 0.950 . S
C917 C915 1.387 . S
C917 C919 1.390 . S
C917 H921 0.950 . S
H918 C914 0.950 . S
C919 C917 1.390 . S
C919 C920 1.387 . S
C919 H922 0.950 . S
C920 C919 1.387 . S
C920 C923 1.387 . S
H921 C917 0.950 . S
H922 C919 0.950 . S
C923 C914 1.390 . S
C923 H916 0.950 . S
C923 C920 1.387 . S
C924 C925 1.387 . S
C924 H928 0.950 . S
C924 C933 1.390 . S
C925 C924 1.387 . S
C925 C927 1.387 . S
H926 C933 0.950 . S
C927 C925 1.387 . S
C927 C929 1.390 . S
C927 H931 0.950 . S
H928 C924 0.950 . S
C929 C927 1.390 . S
C929 C930 1.387 . S
C929 H932 0.950 . S
C930 C929 1.387 . S
C930 C933 1.387 . S
H931 C927 0.950 . S
H932 C929 0.950 . S
C933 C924 1.390 . S
C933 H926 0.950 . S
C933 C930 1.387 . S
C934 C935 1.387 . S
C934 H938 0.950 . S
C934 C943 1.390 . S
C935 C934 1.387 . S
C935 C937 1.387 . S
H936 C943 0.950 . S
C937 C935 1.387 . S
C937 C939 1.390 . S
C937 H941 0.950 . S
H938 C934 0.950 . S
C939 C937 1.390 . S
C939 C940 1.387 . S
C939 H942 0.950 . S
C940 C939 1.387 . S
C940 C943 1.387 . S
H941 C937 0.950 . S
H942 C939 0.950 . S
C943 C934 1.390 . S
C943 H936 0.950 . S
C943 C940 1.387 . S
C545 C277 0.721 . S
C550 C5 0.722 . S
C555 C39 0.726 1_565 S
C560 C311 0.746 . S
C565 C345 0.706 . S
C570 C73 0.702 . S
C575 C379 0.577 . S
C580 C122 0.508 . S
C585 C141 0.714 . S
C590 C413 0.712 . S
C595 C175 0.743 . S
C600 C447 0.742 . S
C605 C209 0.700 . S
C610 C481 0.705 . S
C615 C243 0.723 . S
C620 C515 0.723 . S
C625 C33 1.862 . S
C630 C530 1.718 . S
C635 C67 1.707 . S
C640 C428 1.581 . S
C645 C101 1.741 . S
C650 C462 1.618 . S
C655 C496 1.587 . S
C660 C135 1.693 . S
C665 C169 1.681 . S
C670 C326 1.563 . S
C675 C203 1.679 . S
C680 C360 1.551 . S
C685 C394 1.725 . S
C690 C237 1.799 . S
C695 C271 1.761 . S
C700 C292 1.628 . S
C705 C258 1.601 . S
C710 C305 1.724 . S
C715 C156 1.577 . S
C720 C339 1.709 . S
C725 C190 1.577 . S
C730 C373 1.692 . S
C735 C407 1.481 . S
C740 C224 1.352 . S
C745 C54 1.555 . S
C750 C441 1.670 . S
C755 C475 1.678 . S
C760 C88 1.559 . S
C765 C111 1.207 . S
C770 C509 1.423 . S
C775 C20 1.660 . S
C780 C543 1.782 . S
C785 C240 1.959 . S
C790 C2 1.979 . S
C795 C138 1.901 . S
C800 C36 1.924 . S
C805 C70 1.896 . S
C810 C172 1.942 . S
C815 C206 1.554 . S
C820 C107 1.506 . S
C825 C512 2.070 . S
C830 C274 2.117 . S
C835 C308 1.940 . S
C840 C410 1.905 . S
C845 C342 1.886 . S
C850 C444 1.902 . S
C855 C376 2.156 . S
C860 C478 2.124 . S
C865 C9 1.345 . S
C870 C417 1.284 . S
C875 C43 1.058 . S
C880 C451 1.027 . S
C885 C77 1.215 . S
C890 C485 1.316 . S
C895 C104 1.512 . S
C900 C519 1.430 . S
C905 C145 1.301 . S
C910 C281 1.312 . S
C915 C179 1.070 . S
C920 C315 1.082 . S
C925 C213 1.234 . S
C930 C349 1.226 . S
C935 C383 1.534 . S
C940 C247 1.501 . S
