# Generated by pormake.
# Topology zfn, (5)-cn, num edge types: 1
# Building blocks:
#     Node 0, Type 0, BuildingBlock: BEQFEK_clean_sbu_0, # of connection points: 5
#     Node 1, Type 0, BuildingBlock: BEQFEK_clean_sbu_0, # of connection points: 5
#     Node 2, Type 0, BuildingBlock: BEQFEK_clean_sbu_0, # of connection points: 5
#     Node 3, Type 0, BuildingBlock: BEQFEK_clean_sbu_0, # of connection points: 5
#     Node 4, Type 0, BuildingBlock: BEQFEK_clean_sbu_0, # of connection points: 5
#     Node 5, Type 0, BuildingBlock: BEQFEK_clean_sbu_0, # of connection points: 5
#     Node 6, Type 0, BuildingBlock: BEQFEK_clean_sbu_0, # of connection points: 5
#     Node 7, Type 0, BuildingBlock: BEQFEK_clean_sbu_0, # of connection points: 5
#     Node 8, Type 0, BuildingBlock: BEQFEK_clean_sbu_0, # of connection points: 5
#     Node 9, Type 0, BuildingBlock: BEQFEK_clean_sbu_0, # of connection points: 5
#     Node 10, Type 0, BuildingBlock: BEQFEK_clean_sbu_0, # of connection points: 5
#     Node 11, Type 0, BuildingBlock: BEQFEK_clean_sbu_0, # of connection points: 5
#     Node 12, Type 0, BuildingBlock: BEQFEK_clean_sbu_0, # of connection points: 5
#     Node 13, Type 0, BuildingBlock: BEQFEK_clean_sbu_0, # of connection points: 5
#     Node 14, Type 0, BuildingBlock: BEQFEK_clean_sbu_0, # of connection points: 5
#     Node 15, Type 0, BuildingBlock: BEQFEK_clean_sbu_0, # of connection points: 5
#     Edge 16, Type (0, 0), BuildingBlock: UVAHIK_clean_linker_0, # of connection points: 2
#     Edge 17, Type (0, 0), BuildingBlock: UVAHIK_clean_linker_0, # of connection points: 2
#     Edge 18, Type (0, 0), BuildingBlock: UVAHIK_clean_linker_0, # of connection points: 2
#     Edge 19, Type (0, 0), BuildingBlock: UVAHIK_clean_linker_0, # of connection points: 2
#     Edge 20, Type (0, 0), BuildingBlock: UVAHIK_clean_linker_0, # of connection points: 2
#     Edge 21, Type (0, 0), BuildingBlock: UVAHIK_clean_linker_0, # of connection points: 2
#     Edge 22, Type (0, 0), BuildingBlock: UVAHIK_clean_linker_0, # of connection points: 2
#     Edge 23, Type (0, 0), BuildingBlock: UVAHIK_clean_linker_0, # of connection points: 2
#     Edge 24, Type (0, 0), BuildingBlock: UVAHIK_clean_linker_0, # of connection points: 2
#     Edge 25, Type (0, 0), BuildingBlock: UVAHIK_clean_linker_0, # of connection points: 2
#     Edge 26, Type (0, 0), BuildingBlock: UVAHIK_clean_linker_0, # of connection points: 2
#     Edge 27, Type (0, 0), BuildingBlock: UVAHIK_clean_linker_0, # of connection points: 2
#     Edge 28, Type (0, 0), BuildingBlock: UVAHIK_clean_linker_0, # of connection points: 2
#     Edge 29, Type (0, 0), BuildingBlock: UVAHIK_clean_linker_0, # of connection points: 2
#     Edge 30, Type (0, 0), BuildingBlock: UVAHIK_clean_linker_0, # of connection points: 2
#     Edge 31, Type (0, 0), BuildingBlock: UVAHIK_clean_linker_0, # of connection points: 2
#     Edge 32, Type (0, 0), BuildingBlock: UVAHIK_clean_linker_0, # of connection points: 2
#     Edge 33, Type (0, 0), BuildingBlock: UVAHIK_clean_linker_0, # of connection points: 2
#     Edge 34, Type (0, 0), BuildingBlock: UVAHIK_clean_linker_0, # of connection points: 2
#     Edge 35, Type (0, 0), BuildingBlock: UVAHIK_clean_linker_0, # of connection points: 2
#     Edge 36, Type (0, 0), BuildingBlock: UVAHIK_clean_linker_0, # of connection points: 2
#     Edge 37, Type (0, 0), BuildingBlock: UVAHIK_clean_linker_0, # of connection points: 2
#     Edge 38, Type (0, 0), BuildingBlock: UVAHIK_clean_linker_0, # of connection points: 2
#     Edge 39, Type (0, 0), BuildingBlock: UVAHIK_clean_linker_0, # of connection points: 2
#     Edge 40, Type (0, 0), BuildingBlock: UVAHIK_clean_linker_0, # of connection points: 2
#     Edge 41, Type (0, 0), BuildingBlock: UVAHIK_clean_linker_0, # of connection points: 2
#     Edge 42, Type (0, 0), BuildingBlock: UVAHIK_clean_linker_0, # of connection points: 2
#     Edge 43, Type (0, 0), BuildingBlock: UVAHIK_clean_linker_0, # of connection points: 2
#     Edge 44, Type (0, 0), BuildingBlock: UVAHIK_clean_linker_0, # of connection points: 2
#     Edge 45, Type (0, 0), BuildingBlock: UVAHIK_clean_linker_0, # of connection points: 2
#     Edge 46, Type (0, 0), BuildingBlock: UVAHIK_clean_linker_0, # of connection points: 2
#     Edge 47, Type (0, 0), BuildingBlock: UVAHIK_clean_linker_0, # of connection points: 2
#     Edge 48, Type (0, 0), BuildingBlock: UVAHIK_clean_linker_0, # of connection points: 2
#     Edge 49, Type (0, 0), BuildingBlock: UVAHIK_clean_linker_0, # of connection points: 2
#     Edge 50, Type (0, 0), BuildingBlock: UVAHIK_clean_linker_0, # of connection points: 2
#     Edge 51, Type (0, 0), BuildingBlock: UVAHIK_clean_linker_0, # of connection points: 2
#     Edge 52, Type (0, 0), BuildingBlock: UVAHIK_clean_linker_0, # of connection points: 2
#     Edge 53, Type (0, 0), BuildingBlock: UVAHIK_clean_linker_0, # of connection points: 2
#     Edge 54, Type (0, 0), BuildingBlock: UVAHIK_clean_linker_0, # of connection points: 2
#     Edge 55, Type (0, 0), BuildingBlock: UVAHIK_clean_linker_0, # of connection points: 2
# Relax obj value: 0.130
# Max RMSD: 0.169
# Mean RMSD: 0.169
data_MOF--net-zfn--node1-BEQFEK_clean_sbu_0--edge1-UVAHIK_clean_linker_0
_symmetry_space_group_name_H-M    P1
_symmetry_Int_Tables_number       1
_symmetry_cell_setting            triclinic
loop_
_symmetry_equiv_pos_as_xyz
'x, y, z'
_cell_length_a     95.20227
_cell_length_b     95.167109
_cell_length_c     23.263133
_cell_angle_alpha  89.974514
_cell_angle_beta   89.984081
_cell_angle_gamma 89.988325
loop_
_atom_site_label
_atom_site_type_symbol
_atom_site_fract_x
_atom_site_fract_y
_atom_site_fract_z
_atom_type_partial_charge
Co0 Co -0.00145 0.35812 0.09493 0.0
Co1 Co 0.00573 0.36267 0.22445 0.0
C2 C 0.9798 0.37497 0.17103 0.0
O3 O 0.98251 0.36948 0.12234 0.0
O4 O 0.98798 0.37331 0.21383 0.0
C5 C 0.98391 0.34969 0.98997 0.0
O6 O 0.97201 0.35047 0.01839 0.0
C7 C 0.00232 0.36223 0.34985 0.0
C8 C 0.02372 0.35639 0.37781 0.0
C9 C 0.01016 0.35846 0.39775 0.0
N10 N 0.01075 0.36184 0.30356 0.0
N11 N 0.02359 0.35865 0.32073 0.0
C12 C 0.98718 0.36643 0.34755 0.0
H13 H 0.98098 0.35797 0.32677 0.0
H14 H 0.9829 0.36874 0.39083 0.0
H15 H 0.98616 0.37604 0.3212 0.0
C16 C 0.00109 0.32836 0.12909 0.0
N17 N 0.0013 0.34218 0.14116 0.0
N18 N 0.00364 0.34397 0.19637 0.0
C19 C 0.0045 0.33125 0.22169 0.0
C20 C 0.00307 0.32095 0.17979 0.0
C21 C -5e-05 0.32248 0.06958 0.0
H22 H 0.0064 0.32882 0.03954 0.0
H23 H 0.98884 0.32303 0.05536 0.0
H24 H 0.00355 0.31141 0.06768 0.0
O25 O 0.01568 0.36949 0.093 0.0
O26 O 0.02134 0.37256 0.18448 0.0
H27 H 0.01632 0.33121 0.29982 0.0
H28 H 0.00268 0.31805 0.29742 0.0
C29 C 0.00546 0.32897 0.28525 0.0
H30 H -0.00187 0.33615 0.30754 0.0
H31 H 0.03212 0.35737 0.29306 0.0
O32 O 0.99539 0.35249 0.01514 0.0
C33 C 0.02381 0.37443 0.13124 0.0
Co34 Co 0.13677 0.9952 0.59341 0.0
Co35 Co 0.12909 0.0063 0.71612 0.0
C36 C 0.11913 0.97816 0.67074 0.0
O37 O 0.12575 0.97933 0.62351 0.0
O38 O 0.11939 0.9879 0.70817 0.0
C39 C 0.13977 0.98046 0.48647 0.0
O40 O 0.13104 0.97143 0.50983 0.0
C41 C 0.13163 0.00347 0.84008 0.0
C42 C 0.12311 0.02357 0.87235 0.0
C43 C 0.12899 0.01096 0.89001 0.0
N44 N 0.1277 0.01137 0.79498 0.0
N45 N 0.12259 0.02337 0.81447 0.0
C46 C 0.137 0.9887 0.83523 0.0
H47 H 0.14847 0.98849 0.84309 0.0
H48 H 0.13189 0.98192 0.86795 0.0
H49 H 0.13515 0.9844 0.79175 0.0
C50 C 0.16546 -0.00042 0.6373 0.0
N51 N 0.15143 -0.00014 0.64384 0.0
N52 N 0.14831 0.00505 0.6947 0.0
C53 C 0.16034 0.00853 0.72174 0.0
C54 C 0.17154 0.00503 0.68655 0.0
C55 C 0.17279 0.99388 0.5854 0.0
H56 H 0.17162 0.00146 0.54945 0.0
H57 H 0.16779 0.98386 0.57216 0.0
H58 H 0.18413 0.99211 0.5937 0.0
O59 O 0.12452 0.01171 0.58195 0.0
O60 O 0.11944 0.02045 0.66794 0.0
H61 H 0.15216 0.02346 0.78254 0.0
H62 H 0.17109 0.02241 0.78033 0.0
C63 C 0.16122 0.01625 0.77769 0.0
H64 H 0.1612 0.00861 0.81361 0.0
H65 H 0.11874 0.0314 0.78829 0.0
O66 O 0.14407 0.99083 0.51597 0.0
C67 C 0.11854 0.02089 0.61333 0.0
Co68 Co 0.49415 0.136 0.08019 0.0
Co69 Co 0.48827 0.12979 0.20975 0.0
C70 C 0.5142 0.1192 0.15095 0.0
O71 O 0.51082 0.12506 0.10373 0.0
O72 O 0.50635 0.12007 0.19516 0.0
C73 C 0.5082 0.14569 0.97647 0.0
O74 O 0.52005 0.14493 0.00521 0.0
C75 C 0.49258 0.12954 0.33484 0.0
C76 C 0.47089 0.13289 0.36578 0.0
C77 C 0.48472 0.13205 0.38407 0.0
N78 N 0.48384 0.12946 0.28949 0.0
N79 N 0.47086 0.13116 0.30842 0.0
C80 C 0.50807 0.12707 0.33039 0.0
H81 H 0.51321 0.1365 0.31185 0.0
H82 H 0.51279 0.12456 0.37274 0.0
H83 H 0.51007 0.11811 0.30126 0.0
C84 C 0.49032 0.1652 0.11965 0.0
N85 N 0.49104 0.15129 0.12952 0.0
N86 N 0.48915 0.14884 0.18461 0.0
C87 C 0.48757 0.16123 0.21198 0.0
C88 C 0.48813 0.17198 0.17164 0.0
C89 C 0.49078 0.17168 0.06102 0.0
H90 H 0.48446 0.16529 0.03069 0.0
H91 H 0.5018 0.17183 0.04555 0.0
H92 H 0.48661 0.18257 0.06124 0.0
O93 O 0.47751 0.12391 0.07827 0.0
O94 O 0.47285 0.11961 0.16995 0.0
H95 H 0.47608 0.15935 0.29058 0.0
H96 H 0.48834 0.17383 0.28969 0.0
C97 C 0.4866 0.16282 0.27588 0.0
H98 H 0.49469 0.1562 0.29667 0.0
H99 H 0.46206 0.13178 0.28184 0.0
O100 O 0.49673 0.14251 0.00104 0.0
C101 C 0.46998 0.11819 0.11683 0.0
Co102 Co 0.3563 0.49512 0.57998 0.0
Co103 Co 0.36178 0.48766 0.7088 0.0
C104 C 0.3742 0.51339 0.65322 0.0
O105 O 0.3682 0.51097 0.60532 0.0
O106 O 0.37268 0.50513 0.6959 0.0
C107 C 0.34772 0.50976 0.47513 0.0
O108 O 0.34919 0.5217 0.50282 0.0
C109 C 0.36159 0.49163 0.83398 0.0
C110 C 0.35776 0.46995 0.86419 0.0
C111 C 0.35876 0.48374 0.88285 0.0
N112 N 0.36169 0.48295 0.7884 0.0
N113 N 0.35971 0.46997 0.8069 0.0
C114 C 0.36428 0.50709 0.83009 0.0
H115 H 0.37338 0.50899 0.80169 0.0
H116 H 0.35501 0.5124 0.811 0.0
H117 H 0.36669 0.51172 0.87269 0.0
C118 C 0.3268 0.49279 0.61806 0.0
N119 N 0.34071 0.49261 0.62847 0.0
N120 N 0.3429 0.48991 0.68319 0.0
C121 C 0.33038 0.48862 0.70977 0.0
C122 C 0.31979 0.49027 0.66928 0.0
C123 C 0.3205 0.4943 0.55943 0.0
H124 H 0.3263 0.4876 0.5285 0.0
H125 H 0.3215 0.50539 0.54525 0.0
H126 H 0.30927 0.49124 0.55887 0.0
O127 O 0.3674 0.47777 0.5769 0.0
O128 O 0.37101 0.47184 0.66783 0.0
H129 H 0.33196 0.47603 0.78564 0.0
H130 H 0.31753 0.48834 0.78697 0.0
C131 C 0.32856 0.48675 0.77324 0.0
H132 H 0.33512 0.49451 0.79621 0.0
H133 H 0.35904 0.46122 0.78007 0.0
O134 O 0.35013 0.49824 0.50073 0.0
C135 C 0.37245 0.46946 0.61431 0.0
Co136 Co -0.00128 0.13728 0.39317 0.0
Co137 Co 0.00553 0.13008 0.26511 0.0
C138 C 0.9793 0.11973 0.32283 0.0
O139 O 0.98228 0.12603 0.36955 0.0
O140 O 0.98748 0.12026 0.27949 0.0
C141 C 0.98436 0.14636 0.4975 0.0
O142 O 0.97244 0.14428 0.47037 0.0
C143 C 0.00169 0.12854 0.13998 0.0
C144 C 0.02324 0.13285 0.10949 0.0
C145 C 0.00953 0.13115 0.09076 0.0
N146 N 0.0103 0.12924 0.18567 0.0
N147 N 0.02322 0.13148 0.16704 0.0
C148 C 0.98635 0.12526 0.14415 0.0
H149 H 0.98069 0.13442 0.1625 0.0
H150 H 0.98182 0.12246 0.10178 0.0
H151 H 0.98482 0.11622 0.17339 0.0
C152 C 0.00169 0.16619 0.34964 0.0
N153 N 0.00182 0.15219 0.34202 0.0
N154 N 0.0041 0.14932 0.28751 0.0
C155 C 0.00508 0.16153 0.25822 0.0
C156 C 0.0037 0.1726 0.29672 0.0
C157 C 0.00034 0.17316 0.40707 0.0
H158 H 0.00686 0.16752 0.43912 0.0
H159 H 0.98922 0.17263 0.4213 0.0
H160 H 0.00372 0.1843 0.40555 0.0
O161 O 0.01543 0.12537 0.3979 0.0
O162 O 0.02087 0.12037 0.3076 0.0
H163 H 0.01665 0.15949 0.17989 0.0
H164 H 0.00368 0.17333 0.1785 0.0
C165 C 0.00597 0.16257 0.1941 0.0
H166 H -0.00177 0.15535 0.17446 0.0
H167 H 0.0319 0.13278 0.19389 0.0
O168 O 0.9959 0.14424 0.47163 0.0
C169 C 0.02333 0.11941 0.36125 0.0
Co170 Co 0.35288 0.994 0.9167 0.0
Co171 Co 0.36041 0.00408 0.79274 0.0
C172 C 0.37057 0.9765 0.83864 0.0
O173 O 0.36405 0.97827 0.88581 0.0
O174 O 0.37025 0.98577 0.79919 0.0
C175 C 0.35261 0.98063 0.02559 0.0
O176 O 0.36399 0.97457 0.00547 0.0
C177 C 0.36158 0.00243 0.66801 0.0
C178 C 0.36164 0.02481 0.64254 0.0
C179 C 0.36139 0.01127 0.62069 0.0
N180 N 0.36188 0.01038 0.71562 0.0
N181 N 0.36214 0.02374 0.70022 0.0
C182 C 0.35967 0.9868 0.66864 0.0
H183 H 0.35445 0.98344 0.70898 0.0
H184 H 0.35331 0.98328 0.63138 0.0
H185 H 0.37013 0.98168 0.66633 0.0
C186 C 0.32416 -0.00089 0.87466 0.0
N187 N 0.33813 -0.0013 0.86673 0.0
N188 N 0.34112 0.00255 0.81382 0.0
C189 C 0.32902 0.00531 0.78584 0.0
C190 C 0.31788 0.00328 0.82359 0.0
C191 C 0.31718 -0.00352 0.93135 0.0
H192 H 0.32297 0.0021 0.96573 0.0
H193 H 0.31759 0.98507 0.94112 0.0
H194 H 0.3061 6e-05 0.93153 0.0
O195 O 0.36493 0.01047 0.92939 0.0
O196 O 0.36999 0.01816 0.84181 0.0
H197 H 0.33307 0.0195 0.71643 0.0
H198 H 0.31721 0.00928 0.70744 0.0
C199 C 0.32816 0.00908 0.72342 0.0
H200 H 0.33399 0.0012 0.69793 0.0
H201 H 0.36212 0.03213 0.72911 0.0
O202 O 0.3457 0.98887 0.99326 0.0
C203 C 0.37092 0.01924 0.89623 0.0
Co204 Co 0.49513 0.35303 0.40576 0.0
Co205 Co 0.48577 0.36125 0.28107 0.0
C206 C 0.51256 0.37206 0.33508 0.0
O207 O 0.51076 0.3651 0.38113 0.0
O208 O 0.50361 0.37162 0.29446 0.0
C209 C 0.5104 0.3474 0.51023 0.0
O210 O 0.52088 0.35369 0.48401 0.0
C211 C 0.49009 0.35941 0.15749 0.0
C212 C 0.4701 0.36749 0.12226 0.0
C213 C 0.48301 0.36196 0.10649 0.0
N214 N 0.48166 0.36302 0.2014 0.0
N215 N 0.46974 0.3679 0.18014 0.0
C216 C 0.50489 0.35434 0.16454 0.0
H217 H 0.50533 0.3428 0.15841 0.0
H218 H 0.51179 0.35927 0.13174 0.0
H219 H 0.50889 0.35667 0.20815 0.0
C220 C 0.49251 0.32454 0.35767 0.0
N221 N 0.49197 0.3386 0.35239 0.0
N222 N 0.48743 0.3419 0.30069 0.0
C223 C 0.48458 0.32996 0.27182 0.0
C224 C 0.48788 0.31863 0.30671 0.0
C225 C 0.49752 0.31706 0.41037 0.0
H226 H 0.48934 0.31781 0.44422 0.0
H227 H 0.50716 0.32222 0.42682 0.0
H228 H 0.49976 0.30582 0.40154 0.0
O229 O 0.47792 0.3644 0.41446 0.0
O230 O 0.47062 0.37005 0.32681 0.0
H231 H 0.47005 0.33827 0.20964 0.0
H232 H 0.47122 0.31934 0.21078 0.0
C233 C 0.47729 0.32925 0.21484 0.0
H234 H 0.48519 0.32944 0.1799 0.0
H235 H 0.46135 0.37145 0.20511 0.0
O236 O 0.49894 0.34548 0.48341 0.0
C237 C 0.46914 0.37038 0.38123 0.0
Co238 Co 0.1396 0.49809 0.91663 0.0
Co239 Co 0.13109 0.48771 0.79384 0.0
C240 C 0.1211 0.51534 0.8419 0.0
O241 O 0.12793 0.51374 0.88846 0.0
O242 O 0.1213 0.50601 0.80267 0.0
C243 C 0.14206 0.51185 0.0254 0.0
O244 O 0.13182 0.51971 0.00547 0.0
C245 C 0.13081 0.49021 0.6696 0.0
C246 C 0.12756 0.46829 0.64122 0.0
C247 C 0.12998 0.48179 0.62111 0.0
N248 N 0.12903 0.48205 0.71611 0.0
N249 N 0.12687 0.46899 0.69897 0.0
C250 C 0.1348 0.50541 0.67257 0.0
H251 H 0.13959 0.50787 0.71488 0.0
H252 H 0.14229 0.50814 0.63772 0.0
H253 H 0.12522 0.51192 0.6674 0.0
C254 C 0.16797 0.49472 0.86815 0.0
N255 N 0.15391 0.49397 0.86375 0.0
N256 N 0.15049 0.48942 0.81219 0.0
C257 C 0.16237 0.48702 0.78218 0.0
C258 C 0.17376 0.49038 0.81655 0.0
C259 C 0.17555 0.50002 0.92011 0.0
H260 H 0.17442 0.49227 0.95544 0.0
H261 H 0.1707 0.51001 0.93459 0.0
H262 H 0.18688 0.50175 0.91131 0.0
O263 O 0.12786 0.48133 0.92974 0.0
O264 O 0.12206 0.47341 0.84333 0.0
H265 H 0.15516 0.47236 0.71874 0.0
H266 H 0.17354 0.47671 0.71304 0.0
C267 C 0.16295 0.48094 0.72291 0.0
H268 H 0.16046 0.48925 0.69112 0.0
H269 H 0.12546 0.46049 0.72674 0.0
O270 O 0.14746 0.50255 0.99304 0.0
C271 C 0.12168 0.47241 0.89788 0.0
Co272 Co 0.99359 0.63734 0.88425 0.0
Co273 Co 0.9867 0.62871 0.75737 0.0
C274 C 0.01299 0.61912 0.81739 0.0
O275 O 0.00992 0.62571 0.86319 0.0
O276 O 0.00488 0.61936 0.77394 0.0
C277 C 0.00852 0.64518 0.98675 0.0
O278 O 0.01968 0.64108 0.9581 0.0
C279 C 0.99202 0.63075 0.63438 0.0
C280 C 0.97275 0.62168 0.59666 0.0
C281 C 0.98549 0.62783 0.58255 0.0
N282 N 0.98344 0.62673 0.67721 0.0
N283 N 0.97196 0.62126 0.65445 0.0
C284 C 0.0065 0.63653 0.64324 0.0
H285 H 0.0065 0.64803 0.63595 0.0
H286 H 0.01391 0.63174 0.61201 0.0
H287 H 0.01018 0.6346 0.68768 0.0
C288 C 0.99013 0.66566 0.83591 0.0
N289 N 0.99059 0.65161 0.83014 0.0
N290 N 0.98702 0.64815 0.77735 0.0
C291 C 0.98386 0.65998 0.74809 0.0
C292 C 0.98588 0.67139 0.78408 0.0
C293 C 0.99378 0.6733 0.89007 0.0
H294 H 0.98551 0.67129 0.92271 0.0
H295 H 0.00385 0.66922 0.90721 0.0
H296 H 0.99471 0.68479 0.88286 0.0
O297 O 0.97655 0.62562 0.88958 0.0
O298 O 0.97163 0.61892 0.80021 0.0
H299 H 0.97079 0.65105 0.68213 0.0
H300 H 0.971 0.67001 0.68366 0.0
C301 C 0.97747 0.66041 0.6893 0.0
H302 H 0.98591 0.66064 0.65657 0.0
H303 H 0.96356 0.61732 0.67836 0.0
O304 O -0.0034 0.64501 0.9622 0.0
C305 C 0.96895 0.61893 0.85384 0.0
Co306 Co 0.85531 0.99634 0.40686 0.0
Co307 Co 0.86364 0.98717 0.28247 0.0
C308 C 0.87258 0.01492 0.33227 0.0
O309 O 0.86611 0.01265 0.37924 0.0
O310 O 0.87259 0.00588 0.29189 0.0
C311 C 0.8511 0.01058 0.51454 0.0
O312 O 0.85978 0.01998 0.49335 0.0
C313 C 0.86328 0.99001 0.15839 0.0
C314 C 0.86741 0.96831 0.12899 0.0
C315 C 0.8643 0.98173 0.10957 0.0
N316 N 0.86561 0.98185 0.20444 0.0
N317 N 0.86828 0.96893 0.18669 0.0
C318 C 0.85865 0.00502 0.1622 0.0
H319 H 0.85394 0.00719 0.20493 0.0
H320 H 0.85091 0.00749 0.12797 0.0
H321 H 0.86792 0.01195 0.15662 0.0
C322 C 0.8269 0.99176 0.36089 0.0
N323 N 0.84094 0.9918 0.35495 0.0
N324 N 0.84428 0.98777 0.30258 0.0
C325 C 0.83235 0.98494 0.27353 0.0
C326 C 0.82102 0.98743 0.30947 0.0
C327 C 0.81937 0.9964 0.41407 0.0
H328 H 0.82134 0.98867 0.4489 0.0
H329 H 0.82361 0.00668 0.42832 0.0
H330 H 0.80789 -0.00265 0.40691 0.0
O331 O 0.86788 0.98007 0.41775 0.0
O332 O 0.87366 0.97315 0.32986 0.0
H333 H 0.83982 0.97111 0.20748 0.0
H334 H 0.82125 0.97476 0.20388 0.0
C335 C 0.83171 0.97933 0.21349 0.0
H336 H 0.83372 0.98799 0.18272 0.0
H337 H 0.87018 0.96045 0.21405 0.0
O338 O 0.84747 0.00019 0.48373 0.0
C339 C 0.87437 0.97175 0.38419 0.0
Co340 Co 0.49844 0.85557 0.9025 0.0
Co341 Co 0.50568 0.86265 0.77452 0.0
C342 C 0.47956 0.87347 0.83044 0.0
O343 O 0.48248 0.86737 0.87762 0.0
O344 O 0.48768 0.87256 0.78719 0.0
C345 C 0.48269 0.84917 0.0051 0.0
O346 O 0.4718 0.85377 0.97599 0.0
C347 C 0.50064 0.86228 0.65159 0.0
C348 C 0.52184 0.86548 0.61509 0.0
C349 C 0.50795 0.86313 0.60025 0.0
N350 N 0.50982 0.86382 0.69488 0.0
N351 N 0.52246 0.86585 0.67293 0.0
C352 C 0.48512 0.86073 0.6602 0.0
H353 H 0.483 0.85349 0.69659 0.0
H354 H 0.47969 0.857 0.62098 0.0
H355 H 0.48069 0.87114 0.67177 0.0
C356 C 0.50161 0.82668 0.8599 0.0
N357 N 0.5014 0.84064 0.85139 0.0
N358 N 0.50444 0.84341 0.79738 0.0
C359 C 0.50659 0.83117 0.76945 0.0
C360 C 0.50486 0.82018 0.80824 0.0
C361 C 0.49979 0.81992 0.91756 0.0
H362 H 0.50642 0.82542 0.94962 0.0
H363 H 0.48868 0.82099 0.93126 0.0
H364 H 0.50274 0.80865 0.917 0.0
O365 O 0.5157 0.86681 0.90779 0.0
O366 O 0.52085 0.87241 0.81742 0.0
H367 H 0.51918 0.83625 0.69601 0.0
H368 H 0.51111 0.81906 0.69222 0.0
C369 C 0.50964 0.83006 0.70644 0.0
H370 H 0.50071 0.83448 0.68196 0.0
H371 H 0.53153 0.86728 0.69742 0.0
O372 O 0.49466 0.8487 0.98102 0.0
C373 C 0.5235 0.87289 0.87105 0.0
Co374 Co 0.63736 0.49594 0.40542 0.0
Co375 Co 0.63003 0.50474 0.27956 0.0
C376 C 0.61896 0.47818 0.33022 0.0
O377 O 0.62529 0.48049 0.37744 0.0
O378 O 0.61979 0.48676 0.28841 0.0
C379 C 0.64015 0.48095 0.51233 0.0
O380 O 0.63079 0.47235 0.49043 0.0
C381 C 0.62932 0.50227 0.15494 0.0
C382 C 0.62917 0.52452 0.12746 0.0
C383 C 0.62968 0.51086 0.10683 0.0
N384 N 0.62873 0.51049 0.20177 0.0
N385 N 0.62841 0.52376 0.18514 0.0
C386 C 0.63129 0.48667 0.15724 0.0
H387 H 0.63599 0.48351 0.19892 0.0
H388 H 0.63814 0.48302 0.12165 0.0
H389 H 0.6209 0.48148 0.15303 0.0
C390 C 0.66615 0.49926 0.36216 0.0
N391 N 0.65217 0.49933 0.35428 0.0
N392 N 0.64931 0.50288 0.30091 0.0
C393 C 0.6615 0.50503 0.27267 0.0
C394 C 0.67257 0.50282 0.31065 0.0
C395 C 0.67303 0.49689 0.41925 0.0
H396 H 0.66772 0.50339 0.45234 0.0
H397 H 0.67179 0.4857 0.43165 0.0
H398 H 0.68434 0.49964 0.41855 0.0
O399 O 0.6264 0.51326 0.41552 0.0
O400 O 0.62065 0.5194 0.32645 0.0
H401 H 0.65732 0.51876 0.20181 0.0
H402 H 0.67353 0.50899 0.19477 0.0
C403 C 0.66252 0.50853 0.21004 0.0
H404 H 0.65705 0.50035 0.18484 0.0
H405 H 0.62822 0.5323 0.21325 0.0
O406 O 0.6446 0.49117 0.48236 0.0
C407 C 0.62031 0.5215 0.38046 0.0
Co408 Co -0.00231 0.85548 0.59663 0.0
Co409 Co 0.98764 0.86099 0.72196 0.0
C410 C 0.01535 0.87163 0.67913 0.0
O411 O 0.01357 0.86598 0.63012 0.0
O412 O 0.00605 0.87069 0.71822 0.0
C413 C 0.01152 0.85574 0.4878 0.0
O414 O 0.01781 0.86696 0.50823 0.0
C415 C 0.98942 0.86065 0.84636 0.0
C416 C 0.96711 0.8604 0.8727 0.0
C417 C 0.9807 0.86007 0.89389 0.0
N418 N 0.98137 0.86131 0.79915 0.0
N419 N 0.96804 0.86132 0.81506 0.0
C420 C 0.00505 0.85886 0.84502 0.0
H421 H 0.00834 0.85367 0.8045 0.0
H422 H 0.00873 0.85252 0.88209 0.0
H423 H 0.01009 0.86936 0.84713 0.0
C424 C 0.99224 0.82618 0.63059 0.0
N425 N 0.99283 0.83999 0.64245 0.0
N426 N 0.98899 0.84211 0.69602 0.0
C427 C 0.98606 0.82961 0.72053 0.0
C428 C 0.98798 0.8191 0.67974 0.0
C429 C 0.99468 0.82016 0.57196 0.0
H430 H 0.98889 0.82647 0.53963 0.0
H431 H 0.00604 0.82078 0.56157 0.0
H432 H 0.99114 0.80909 0.56889 0.0
O433 O 0.98132 0.86789 0.58665 0.0
O434 O 0.97372 0.87149 0.67556 0.0
H435 H 0.97166 0.83238 0.79018 0.0
H436 H 0.98211 0.81655 0.79553 0.0
C437 C 0.98218 0.82775 0.78245 0.0
H438 H 0.98989 0.83332 0.80974 0.0
H439 H 0.95959 0.86155 0.78648 0.0
O440 O 0.00292 0.84909 0.51938 0.0
C441 C 0.97262 0.87338 0.62157 0.0
Co442 Co 0.63916 0.99486 0.08035 0.0
Co443 Co 0.63165 0.98804 0.20833 0.0
C444 C 0.62101 0.01397 0.15041 0.0
O445 O 0.62721 0.01086 0.10367 0.0
O446 O 0.62185 0.00603 0.19427 0.0
C447 C 0.64599 0.01048 0.97805 0.0
O448 O 0.64163 0.02144 0.00734 0.0
C449 C 0.63171 0.99329 0.33122 0.0
C450 C 0.62828 0.97215 0.36806 0.0
C451 C 0.63071 0.98605 0.38269 0.0
N452 N 0.63019 0.98407 0.28807 0.0
N453 N 0.62801 0.97146 0.31023 0.0
C454 C 0.63342 0.00879 0.32233 0.0
H455 H 0.62307 0.01331 0.31059 0.0
H456 H 0.64069 0.0108 0.28595 0.0
H457 H 0.63718 0.01422 0.36149 0.0
C458 C 0.6679 0.99185 0.1249 0.0
N459 N 0.65391 0.99206 0.13251 0.0
N460 N 0.65095 0.98915 0.18646 0.0
C461 C 0.66308 0.98706 0.21523 0.0
C462 C 0.67421 0.98872 0.17708 0.0
C463 C 0.67489 0.99362 0.06767 0.0
H464 H 0.66954 0.98692 0.0354 0.0
H465 H 0.67383 0.00472 0.05363 0.0
H466 H 0.68616 0.99073 0.06911 0.0
O467 O 0.62792 0.97759 0.07524 0.0
O468 O 0.62197 0.9728 0.16554 0.0
H469 H 0.65763 0.97471 0.28894 0.0
H470 H 0.67489 0.98258 0.29331 0.0
C471 C 0.66396 0.98415 0.27842 0.0
H472 H 0.65958 0.9932 0.30228 0.0
H473 H 0.62657 0.96237 0.2859 0.0
O474 O 0.64624 -0.00152 0.00198 0.0
C475 C 0.62166 0.96996 0.11207 0.0
Co476 Co 0.49979 0.63758 0.59779 0.0
Co477 Co 0.50709 0.62997 0.72528 0.0
C478 C 0.48117 0.619 0.66657 0.0
O479 O 0.48394 0.62539 0.61994 0.0
O480 O 0.48928 0.6199 0.70986 0.0
C481 C 0.48442 0.64457 0.49537 0.0
O482 O 0.47346 0.64008 0.52434 0.0
C483 C 0.50178 0.6322 0.84817 0.0
C484 C 0.52142 0.624 0.88613 0.0
C485 C 0.50843 0.62963 0.90006 0.0
N486 N 0.51051 0.62846 0.80546 0.0
N487 N 0.52222 0.62352 0.82835 0.0
C488 C 0.48705 0.63731 0.83917 0.0
H489 H 0.48644 0.64874 0.84785 0.0
H490 H 0.47981 0.63193 0.86944 0.0
H491 H 0.4836 0.63553 0.79433 0.0
C492 C 0.5021 0.6663 0.64361 0.0
N493 N 0.50226 0.65227 0.65058 0.0
N494 N 0.50597 0.64924 0.70367 0.0
C495 C 0.50857 0.66133 0.73193 0.0
C496 C 0.50606 0.67247 0.69497 0.0
C497 C 0.49814 0.67351 0.58883 0.0
H498 H 0.48813 0.66906 0.57255 0.0
H499 H 0.4969 0.68501 0.59487 0.0
H500 H 0.50637 0.67151 0.55605 0.0
O501 O 0.51728 0.62647 0.593 0.0
O502 O 0.52244 0.62052 0.68304 0.0
H503 H 0.52079 0.67227 0.79599 0.0
H504 H 0.50633 0.66223 0.82332 0.0
C505 C 0.51483 0.66232 0.79083 0.0
H506 H 0.52198 0.65335 0.79881 0.0
H507 H 0.53076 0.61987 0.80455 0.0
O508 O 0.49638 0.64486 0.51957 0.0
C509 C 0.52511 0.62028 0.62942 0.0
Co510 Co 0.85477 0.49756 0.09449 0.0
Co511 Co 0.86259 0.50716 0.21897 0.0
C512 C 0.87274 0.47979 0.17009 0.0
O513 O 0.86643 0.48181 0.12255 0.0
O514 O 0.87213 0.48878 0.21052 0.0
C515 C 0.85147 0.48312 0.98675 0.0
O516 O 0.86078 0.47432 0.00771 0.0
C517 C 0.86219 0.50445 0.34305 0.0
C518 C 0.8654 0.52631 0.37227 0.0
C519 C 0.86284 0.51278 0.39179 0.0
N520 N 0.86421 0.51267 0.29693 0.0
N521 N 0.86633 0.52569 0.31457 0.0
C522 C 0.85817 0.48926 0.33939 0.0
H523 H 0.85349 0.4869 0.29679 0.0
H524 H 0.85058 0.48648 0.37381 0.0
H525 H 0.86772 0.48271 0.34477 0.0
C526 C 0.82616 0.50112 0.13976 0.0
N527 N 0.84018 0.50151 0.14614 0.0
N528 N 0.84329 0.5058 0.1984 0.0
C529 C 0.83122 0.50831 0.227 0.0
C530 C 0.82005 0.50539 0.19079 0.0
C531 C 0.81888 0.49628 0.08631 0.0
H532 H 0.82072 0.50405 0.05154 0.0
H533 H 0.82342 0.48611 0.07224 0.0
H534 H 0.80741 0.49503 0.09307 0.0
O535 O 0.86634 0.51451 0.08332 0.0
O536 O 0.87234 0.52134 0.17123 0.0
H537 H 0.83803 0.52264 0.29239 0.0
H538 H 0.81963 0.5182 0.29606 0.0
C539 C 0.83029 0.51406 0.28675 0.0
H540 H 0.83267 0.50559 0.31796 0.0
H541 H 0.8679 0.53423 0.28713 0.0
O542 O 0.84716 0.49322 0.01773 0.0
C543 C 0.87269 0.52291 0.11692 0.0
C544 C 0.96468 0.39131 0.22861 0.0
C545 C 0.96711 0.38384 0.17746 0.0
C546 C 0.95314 0.40025 0.23361 0.0
C547 C 0.91887 0.40933 0.16813 0.0
H548 H 0.92635 0.44606 0.23351 0.0
C549 C 0.88321 0.45751 0.13205 0.0
C550 C 0.88149 0.46708 0.17754 0.0
C551 C 0.89238 0.44614 0.13744 0.0
C552 C 0.924 0.43577 0.21606 0.0
H553 H 0.95907 0.37968 0.0918 0.0
H554 H 0.93905 0.39548 0.10025 0.0
H555 H 0.94479 0.42838 0.23284 0.0
H556 H 0.88756 0.47181 0.26541 0.0
H557 H 0.90348 0.4519 0.27482 0.0
H558 H 0.89814 0.41691 0.15023 0.0
C559 C 0.94599 0.39426 0.13681 0.0
C560 C 0.93458 0.42563 0.21565 0.0
C561 C 0.95754 0.38528 0.13183 0.0
C562 C 0.88873 0.46471 0.22932 0.0
C563 C 0.8979 0.45334 0.23468 0.0
C564 C 0.90828 0.4195 0.16851 0.0
C565 C 0.94377 0.40198 0.1875 0.0
C566 C 0.93219 0.41235 0.19113 0.0
C567 C 0.90001 0.44408 0.18844 0.0
C568 C 0.91079 0.43287 0.19192 0.0
H569 H 0.97184 0.39051 0.26455 0.0
H570 H 0.95162 0.40592 0.27349 0.0
H571 H 0.91666 0.39912 0.14966 0.0
H572 H 0.87778 0.45899 0.09161 0.0
H573 H 0.89388 0.43927 0.10084 0.0
C574 C 0.10945 0.9549 0.63972 0.0
C575 C 0.11068 0.96541 0.68187 0.0
C576 C 0.10082 0.94326 0.6489 0.0
C577 C 0.06969 0.93279 0.73055 0.0
H578 H 0.07897 0.89563 0.67363 0.0
C579 C 0.02987 0.88745 0.74147 0.0
C580 C 0.02815 0.88004 0.68966 0.0
C581 C 0.04135 0.89639 0.74915 0.0
C582 C 0.07623 0.90596 0.68969 0.0
H583 H 0.10424 0.97162 0.76776 0.0
H584 H 0.08923 0.95125 0.78374 0.0
H585 H 0.09669 0.91418 0.67142 0.0
H586 H 0.0375 0.87574 0.60634 0.0
H587 H 0.05736 0.89144 0.61951 0.0
H588 H 0.04914 0.92474 0.74725 0.0
C589 C 0.0948 0.95214 0.74329 0.0
C590 C 0.08636 0.91657 0.68839 0.0
C591 C 0.10343 0.96379 0.73414 0.0
C592 C 0.03846 0.88133 0.64671 0.0
C593 C 0.04993 0.89025 0.65442 0.0
C594 C 0.05957 0.9222 0.73185 0.0
C595 C 0.09325 0.94185 0.70045 0.0
C596 C 0.0831 0.93017 0.70771 0.0
C597 C 0.05136 0.89808 0.70526 0.0
C598 C 0.06264 0.90875 0.71033 0.0
H599 H 0.1149 0.9558 0.59902 0.0
H600 H 0.09971 0.93561 0.61475 0.0
H601 H 0.06678 0.94321 0.74505 0.0
H602 H 0.02217 0.88664 0.77558 0.0
H603 H 0.04227 0.90217 0.78908 0.0
C604 C 0.61153 0.03597 0.10577 0.0
C605 C 0.61225 0.02679 0.15307 0.0
C606 C 0.6026 0.04759 0.10683 0.0
C607 C 0.58149 0.07021 0.20345 0.0
H608 H 0.55884 0.07601 0.06693 0.0
C609 C 0.53021 0.10248 0.20231 0.0
C610 C 0.52721 0.11073 0.15368 0.0
C611 C 0.54197 0.09373 0.20321 0.0
C612 C 0.56524 0.0747 0.10506 0.0
H613 H 0.6044 0.02288 0.23924 0.0
H614 H 0.58868 0.04305 0.24071 0.0
H615 H 0.57697 0.058 0.06682 0.0
H616 H 0.53455 0.11663 0.06865 0.0
H617 H 0.55512 0.1014 0.07046 0.0
H618 H 0.56949 0.08675 0.24202 0.0
C619 C 0.59517 0.04135 0.20308 0.0
C620 C 0.57564 0.06438 0.105 0.0
C621 C 0.60412 0.02974 0.20209 0.0
C622 C 0.53648 0.11033 0.10664 0.0
C623 C 0.54824 0.10158 0.10756 0.0
C624 C 0.57106 0.08055 0.20352 0.0
C625 C 0.59416 0.05029 0.15514 0.0
C626 C 0.58378 0.06191 0.15436 0.0
C627 C 0.55099 0.09302 0.1555 0.0
C628 C 0.56274 0.08279 0.15449 0.0
H629 H 0.61772 0.03408 0.06748 0.0
H630 H 0.60221 0.0544 0.06956 0.0
H631 H 0.58773 0.06869 0.24189 0.0
H632 H 0.52326 0.10244 0.23913 0.0
H633 H 0.54371 0.08713 0.2405 0.0
C634 C 0.3912 0.52795 0.70971 0.0
C635 C 0.38353 0.52575 0.65888 0.0
C636 C 0.40056 0.53915 0.71416 0.0
C637 C 0.41076 0.57303 0.64788 0.0
H638 H 0.44689 0.56467 0.71684 0.0
C639 C 0.45973 0.60832 0.62194 0.0
C640 C 0.46857 0.60995 0.6699 0.0
C641 C 0.44836 0.59908 0.62396 0.0
C642 C 0.43678 0.56724 0.69825 0.0
H643 H 0.37952 0.53383 0.57314 0.0
H644 H 0.39611 0.55324 0.58058 0.0
H645 H 0.42886 0.5466 0.71385 0.0
H646 H 0.47205 0.60354 0.75837 0.0
H647 H 0.45218 0.58744 0.76178 0.0
H648 H 0.41889 0.59363 0.63129 0.0
C649 C 0.39469 0.5464 0.61734 0.0
C650 C 0.42644 0.55689 0.69655 0.0
C651 C 0.38526 0.5352 0.61295 0.0
C652 C 0.46553 0.60245 0.72048 0.0
C653 C 0.45418 0.59319 0.72241 0.0
C654 C 0.42115 0.58339 0.64945 0.0
C655 C 0.40257 0.54839 0.66776 0.0
C656 C 0.41332 0.55963 0.67115 0.0
C657 C 0.4456 0.59125 0.67391 0.0
C658 C 0.43429 0.58057 0.67444 0.0
H659 H 0.39021 0.52087 0.74587 0.0
H660 H 0.40633 0.54052 0.75391 0.0
H661 H 0.4007 0.57552 0.62867 0.0
H662 H 0.46176 0.61396 0.58234 0.0
H663 H 0.44201 0.59771 0.58574 0.0
C664 C 0.88951 0.03004 0.27762 0.0
C665 C 0.88086 0.02797 0.32588 0.0
C666 C 0.89835 0.04173 0.27443 0.0
C667 C 0.91659 0.0664 0.36952 0.0
H668 H 0.9251 0.08616 0.22793 0.0
C669 C 0.95641 0.1117 0.3644 0.0
C670 C 0.96631 0.11125 0.3196 0.0
C671 C 0.94455 0.10308 0.36305 0.0
C672 C 0.92286 0.08069 0.26773 0.0
H673 H 0.87411 0.037 0.40702 0.0
H674 H 0.8894 0.05743 0.40103 0.0
H675 H 0.90664 0.06832 0.22888 0.0
H676 H 0.97135 0.10155 0.23773 0.0
H677 H 0.95076 0.08644 0.23568 0.0
H678 H 0.93295 0.07848 0.40817 0.0
C679 C 0.88957 0.04986 0.36627 0.0
C680 C 0.9123 0.07049 0.26827 0.0
C681 C 0.88076 0.03817 0.36956 0.0
C682 C 0.9639 0.10225 0.27273 0.0
C683 C 0.95205 0.09362 0.27143 0.0
C684 C 0.92711 0.07657 0.36898 0.0
C685 C 0.89868 0.05161 0.31932 0.0
C686 C 0.90915 0.06314 0.31908 0.0
C687 C 0.94236 0.09379 0.31696 0.0
C688 C 0.93047 0.08373 0.31798 0.0
H689 H 0.88981 0.02241 0.24311 0.0
H690 H 0.90533 0.04272 0.23788 0.0
H691 H 0.9146 0.06074 0.40912 0.0
H692 H 0.95788 0.11859 0.40094 0.0
H693 H 0.93716 0.10359 0.39839 0.0
C694 C 0.45695 0.88225 0.87192 0.0
C695 C 0.46668 0.8821 0.82647 0.0
C696 C 0.4452 0.89099 0.86979 0.0
C697 C 0.42332 0.91268 0.77234 0.0
H698 H 0.41503 0.93309 0.91254 0.0
C699 C 0.38803 0.96225 0.78271 0.0
C700 C 0.37937 0.96382 0.83127 0.0
C701 C 0.39741 0.95099 0.77894 0.0
C702 C 0.41705 0.92732 0.87327 0.0
H703 H 0.47147 0.89076 0.74237 0.0
H704 H 0.45107 0.90621 0.73918 0.0
H705 H 0.43382 0.91583 0.912 0.0
H706 H 0.37318 0.95432 0.91232 0.0
H707 H 0.38943 0.93468 0.90541 0.0
H708 H 0.40667 0.9245 0.73346 0.0
C709 C 0.45244 0.89941 0.77611 0.0
C710 C 0.42782 0.91741 0.87296 0.0
C711 C 0.46418 0.89061 0.77811 0.0
C712 C 0.37981 0.95353 0.87461 0.0
C713 C 0.38917 0.9423 0.87081 0.0
C714 C 0.41253 0.92266 0.77263 0.0
C715 C 0.44294 0.89984 0.82233 0.0
C716 C 0.43112 0.91 0.82252 0.0
C717 C 0.39829 0.94109 0.82364 0.0
C718 C 0.40932 0.93009 0.82313 0.0
H719 H 0.45847 0.87572 0.90956 0.0
H720 H 0.43794 0.89089 0.90563 0.0
H721 H 0.42552 0.90703 0.73295 0.0
H722 H 0.38791 0.96996 0.74845 0.0
H723 H 0.40437 0.95037 0.7422 0.0
C724 C 0.6013 0.46363 0.27671 0.0
C725 C 0.60996 0.46558 0.32504 0.0
C726 C 0.59195 0.45232 0.27435 0.0
C727 C 0.57272 0.4287 0.37101 0.0
H728 H 0.56477 0.40756 0.23231 0.0
C729 C 0.53504 0.38181 0.37392 0.0
C730 C 0.52504 0.38122 0.32954 0.0
C731 C 0.54634 0.39108 0.37057 0.0
C732 C 0.56683 0.41345 0.27124 0.0
H733 H 0.61612 0.45673 0.40729 0.0
H734 H 0.59997 0.43699 0.4028 0.0
H735 H 0.58304 0.42563 0.23116 0.0
H736 H 0.51937 0.38957 0.24583 0.0
H737 H 0.53905 0.40592 0.24046 0.0
H738 H 0.55646 0.41674 0.411 0.0
C739 C 0.60018 0.44437 0.36733 0.0
C740 C 0.57727 0.42378 0.27058 0.0
C741 C 0.60948 0.45566 0.36978 0.0
C742 C 0.52686 0.3898 0.28087 0.0
C743 C 0.53818 0.39911 0.27759 0.0
C744 C 0.56232 0.41841 0.37167 0.0
C745 C 0.59111 0.44273 0.32018 0.0
C746 C 0.58032 0.43151 0.32052 0.0
C747 C 0.54791 0.4 0.32286 0.0
C748 C 0.55925 0.41067 0.32185 0.0
H749 H 0.60144 0.47106 0.24141 0.0
H750 H 0.58504 0.45139 0.23759 0.0
H751 H 0.5746 0.43469 0.40986 0.0
H752 H 0.53404 0.37526 0.41178 0.0
H753 H 0.55381 0.39136 0.40568 0.0
C754 C 0.02889 0.60195 0.76796 0.0
C755 C 0.02597 0.6106 0.81547 0.0
C756 C 0.04065 0.59317 0.7681 0.0
C757 C 0.06428 0.57537 0.8694 0.0
H758 H 0.08649 0.56763 0.73324 0.0
C759 C 0.1116 0.53821 0.87799 0.0
C760 C 0.11226 0.52799 0.83446 0.0
C761 C 0.10242 0.54958 0.87323 0.0
C762 C 0.08033 0.56965 0.7715 0.0
H763 H 0.03349 0.61729 0.89921 0.0
H764 H 0.05407 0.60214 0.899 0.0
H765 H 0.06793 0.58537 0.72936 0.0
H766 H 0.10423 0.52205 0.75057 0.0
H767 H 0.08808 0.54183 0.7427 0.0
H768 H 0.07647 0.55957 0.91138 0.0
C769 C 0.04711 0.60192 0.86218 0.0
C770 C 0.06971 0.57979 0.76929 0.0
C771 C 0.03534 0.61065 0.86216 0.0
C772 C 0.10393 0.5297 0.78503 0.0
C773 C 0.09474 0.54108 0.7803 0.0
C774 C 0.07488 0.56529 0.87163 0.0
C775 C 0.04976 0.59289 0.81564 0.0
C776 C 0.06151 0.58269 0.81817 0.0
C777 C 0.0937 0.55099 0.82488 0.0
C778 C 0.08296 0.56225 0.82267 0.0
H779 H 0.02191 0.60168 0.73123 0.0
H780 H 0.04233 0.58624 0.7318 0.0
H781 H 0.05798 0.57714 0.90749 0.0
H782 H 0.11796 0.53731 0.9164 0.0
H783 H 0.10202 0.55718 0.90784 0.0
C784 C 0.04453 0.38992 0.15273 0.0
C785 C 0.03616 0.3827 0.1127 0.0
C786 C 0.0557 0.39832 0.13407 0.0
C787 C 0.07859 0.40541 0.00843 0.0
H788 H 0.08054 0.4431 0.071 0.0
C789 C 0.10627 0.45109 0.89187 0.0
C790 C 0.11375 0.46084 0.92527 0.0
C791 C 0.09838 0.44052 0.91822 0.0
C792 C 0.08031 0.43254 0.0537 0.0
H793 H 0.03325 0.37828 0.02184 0.0
H794 H 0.05252 0.39295 0.98964 0.0
H795 H 0.06418 0.42621 0.11227 0.0
H796 H 0.11913 0.46688 0.01262 0.0
H797 H 0.10544 0.4484 0.05829 0.0
H798 H 0.09449 0.41186 0.94895 0.0
C799 C 0.05058 0.39206 0.03538 0.0
C800 C 0.07094 0.42286 0.07743 0.0
C801 C 0.03944 0.38373 0.05391 0.0
C802 C 0.11341 0.45961 0.98553 0.0
C803 C 0.10552 0.44905 0.0118 0.0
C804 C 0.08795 0.41509 0.98468 0.0
C805 C 0.05874 0.39957 0.07513 0.0
C806 C 0.0698 0.40927 0.05435 0.0
C807 C 0.09781 0.43948 0.97848 0.0
C808 C 0.08873 0.42884 0.00644 0.0
H809 H 0.04232 0.3893 0.19833 0.0
H810 H 0.06189 0.40391 0.16571 0.0
H811 H 0.0781 0.39493 0.99033 0.0
H812 H 0.10631 0.45173 0.84538 0.0
H813 H 0.09241 0.43339 0.89138 0.0
C814 C 0.10317 0.04232 0.61759 0.0
C815 C 0.11038 0.03218 0.58507 0.0
C816 C 0.09523 0.05272 0.59027 0.0
C817 C 0.08516 0.07777 0.51998 0.0
H818 H 0.06097 0.06612 0.39458 0.0
C819 C 0.03842 0.11066 0.44138 0.0
C820 C 0.03528 0.11092 0.38232 0.0
C821 C 0.04906 0.10205 0.46252 0.0
C822 C 0.06785 0.0696 0.42879 0.0
H823 H 0.11517 0.02524 0.49823 0.0
H824 H 0.10144 0.0434 0.45098 0.0
H825 H 0.07662 0.04908 0.43935 0.0
H826 H 0.04122 0.10267 0.29885 0.0
H827 H 0.05994 0.0876 0.33599 0.0
H828 H 0.07619 0.09825 0.50999 0.0
C829 C 0.10175 0.04319 0.49752 0.0
C830 C 0.07679 0.05984 0.45456 0.0
C831 C 0.10967 0.03282 0.52472 0.0
C832 C 0.04333 0.10266 0.3446 0.0
C833 C 0.054 0.09399 0.36587 0.0
C834 C 0.07622 0.08755 0.49416 0.0
C835 C 0.09436 0.05319 0.52995 0.0
C836 C 0.08541 0.06377 0.50088 0.0
C837 C 0.05686 0.09348 0.42516 0.0
C838 C 0.06733 0.08351 0.44882 0.0
H839 H 0.1035 0.04213 0.66413 0.0
H840 H 0.08952 0.0602 0.61643 0.0
H841 H 0.09186 0.08116 0.55495 0.0
H842 H 0.03247 0.11692 0.47172 0.0
H843 H 0.05087 0.10177 0.50847 0.0
C844 C 0.44983 0.10206 0.13941 0.0
C845 C 0.45783 0.10956 0.0989 0.0
C846 C 0.43879 0.09344 0.12149 0.0
C847 C 0.41534 0.08616 -0.00203 0.0
H848 H 0.41401 0.04849 0.06129 0.0
C849 C 0.38648 0.04038 0.8869 0.0
C850 C 0.37925 0.03075 0.92187 0.0
C851 C 0.39472 0.05092 0.91155 0.0
C852 C 0.41409 0.05904 0.04379 0.0
H853 H 0.46024 0.11415 0.00792 0.0
H854 H 0.44116 0.09906 0.97694 0.0
H855 H 0.43062 0.06547 0.10018 0.0
H856 H 0.37469 0.02491 0.01024 0.0
H857 H 0.38897 0.04334 0.05295 0.0
H858 H 0.39901 0.07961 0.94074 0.0
C859 C 0.4433 0.09994 0.02253 0.0
C860 C 0.42359 0.06877 0.06614 0.0
C861 C 0.45433 0.10851 0.04034 0.0
C862 C 0.3802 0.03208 0.98197 0.0
C863 C 0.38843 0.0426 0.00654 0.0
C864 C 0.40585 0.07642 0.97559 0.0
C865 C 0.4355 0.0922 0.06278 0.0
C866 C 0.42447 0.08236 0.04287 0.0
C867 C 0.39588 0.05205 0.97162 0.0
C868 C 0.40526 0.0627 -0.00227 0.0
H869 H 0.45222 0.10269 0.18486 0.0
H870 H 0.43285 0.08769 0.15352 0.0
H871 H 0.41564 0.09663 0.97975 0.0
H872 H 0.38597 0.03966 0.84049 0.0
H873 H 0.40047 0.05796 0.88352 0.0
C874 C 0.38155 0.45418 0.53537 0.0
C875 C 0.38037 0.45699 0.59451 0.0
C876 C 0.38958 0.44291 0.51585 0.0
C877 C 0.41943 0.4211 0.55805 0.0
H878 H 0.4086 0.39908 0.42493 0.0
C879 C 0.45528 0.37799 0.46702 0.0
C880 C 0.45726 0.37815 0.40709 0.0
C881 C 0.44466 0.38596 0.49227 0.0
C882 C 0.41178 0.40519 0.46198 0.0
H883 H 0.38637 0.44987 0.67967 0.0
H884 H 0.40042 0.43008 0.64536 0.0
H885 H 0.39199 0.41582 0.46633 0.0
H886 H 0.4493 0.38646 0.32656 0.0
H887 H 0.43081 0.40053 0.37088 0.0
H888 H 0.4393 0.41073 0.55308 0.0
C889 C 0.39521 0.43674 0.6142 0.0
C890 C 0.40228 0.41475 0.48572 0.0
C891 C 0.38713 0.44804 0.63382 0.0
C892 C 0.44808 0.38612 0.37283 0.0
C893 C 0.43743 0.39411 0.39819 0.0
C894 C 0.42892 0.41154 0.53438 0.0
C895 C 0.39664 0.43417 0.55495 0.0
C896 C 0.4061 0.42297 0.53344 0.0
C897 C 0.43576 0.39427 0.45826 0.0
C898 C 0.42527 0.40364 0.48559 0.0
H899 H 0.37646 0.46083 0.50382 0.0
H900 H 0.39063 0.44134 0.46994 0.0
H901 H 0.42277 0.42743 0.59424 0.0
H902 H 0.46207 0.37186 0.49473 0.0
H903 H 0.44348 0.38569 0.53858 0.0
C904 C 0.89304 0.53944 0.11905 0.0
C905 C 0.88087 0.53451 0.09178 0.0
C906 C 0.90136 0.54968 0.09278 0.0
C907 C 0.90786 0.56603 0.94959 0.0
H908 H 0.93046 0.59141 0.04098 0.0
C909 C 0.95325 0.59795 0.85058 0.0
C910 C 0.957 0.61076 0.876 0.0
C911 C 0.94283 0.58957 0.87538 0.0
C912 C 0.92405 0.58462 0.01447 0.0
H913 H 0.8674 0.53684 0.01734 0.0
H914 H 0.8814 0.55527 0.973 0.0
H915 H 0.91398 0.57591 0.08826 0.0
H916 H 0.95234 0.62535 0.94486 0.0
H917 H 0.9336 0.61122 0.98615 0.0
H918 H 0.91737 0.57528 0.87561 0.0
C919 C 0.88496 0.55084 0.01331 0.0
C920 C 0.91475 0.57548 0.04187 0.0
C921 C 0.87685 0.54036 0.03891 0.0
C922 C 0.94974 0.61539 0.92493 0.0
C923 C 0.93908 0.60721 0.94884 0.0
C924 C 0.91692 0.5754 0.9221 0.0
C925 C 0.89748 0.55546 0.0393 0.0
C926 C 0.9067 0.56588 0.00991 0.0
C927 C 0.93572 0.59401 0.92532 0.0
C928 C 0.92531 0.58468 0.95418 0.0
H929 H 0.89641 0.535 0.15968 0.0
H930 H 0.91103 0.55272 0.11377 0.0
H931 H 0.90202 0.55869 0.92331 0.0
H932 H 0.95878 0.59413 0.813 0.0
H933 H 0.94075 0.5794 0.8564 0.0
C934 C 0.95961 0.88412 0.53909 0.0
C935 C 0.96116 0.88226 0.59872 0.0
C936 C 0.9491 0.89283 0.51731 0.0
C937 C 0.92722 0.92292 0.55719 0.0
H938 H 0.90605 0.91283 0.42086 0.0
C939 C 0.88329 0.95828 0.46901 0.0
C940 C 0.88306 0.96041 0.4092 0.0
C941 C 0.89185 0.94795 0.4931 0.0
C942 C 0.91196 0.91583 0.45869 0.0
H943 H 0.95267 0.8879 0.68222 0.0
H944 H 0.93428 0.9031 0.644 0.0
H945 H 0.92271 0.89608 0.46183 0.0
H946 H 0.89146 0.95316 0.3277 0.0
H947 H 0.90659 0.93525 0.36995 0.0
H948 H 0.9167 0.94273 0.55365 0.0
C949 C 0.94131 0.8979 0.61424 0.0
C950 C 0.92148 0.90624 0.48217 0.0
C951 C 0.95181 0.88915 0.63607 0.0
C952 C 0.89139 0.95179 0.37393 0.0
C953 C 0.9 0.94147 0.3981 0.0
C954 C 0.91774 0.9325 0.53369 0.0
C955 C 0.93992 0.8999 0.55465 0.0
C956 C 0.92928 0.90973 0.53142 0.0
C957 C 0.90041 0.93954 0.458 0.0
C958 C 0.91008 0.9291 0.48397 0.0
H959 H 0.96662 0.87897 0.50905 0.0
H960 H 0.9484 0.8943 0.47123 0.0
H961 H 0.93325 0.92599 0.59463 0.0
H962 H 0.87691 0.96465 0.49744 0.0
H963 H 0.89177 0.94656 0.53931 0.0
C964 C 0.60117 0.95368 0.11942 0.0
C965 C 0.61354 0.9578 0.09142 0.0
C966 C 0.59276 0.94309 0.09612 0.0
C967 C 0.58641 0.92456 0.95761 0.0
H968 H 0.56236 0.90162 0.05366 0.0
C969 C 0.54004 0.89318 0.86375 0.0
C970 C 0.53569 0.88091 0.89194 0.0
C971 C 0.55071 0.90148 0.88715 0.0
C972 C 0.56917 0.90771 0.02596 0.0
H973 H 0.62735 0.95361 0.01939 0.0
H974 H 0.61317 0.93461 0.9805 0.0
H975 H 0.57925 0.91719 0.0981 0.0
H976 H 0.53955 0.86715 0.96444 0.0
H977 H 0.55869 0.8811 0.0035 0.0
H978 H 0.57683 0.91456 0.88547 0.0
C979 C 0.60952 0.93992 0.01884 0.0
C980 C 0.57872 0.91689 0.05164 0.0
C981 C 0.61773 0.95073 0.04136 0.0
C982 C 0.5426 0.8767 0.94233 0.0
C983 C 0.5535 0.88478 0.96494 0.0
C984 C 0.57708 0.91515 0.93193 0.0
C985 C 0.59673 0.93619 0.04505 0.0
C986 C 0.5873 0.92562 0.01785 0.0
C987 C 0.55747 0.89747 0.93851 0.0
C988 C 0.56816 0.90676 0.96572 0.0
H989 H 0.59768 0.95905 0.15792 0.0
H990 H 0.5829 0.94071 0.11718 0.0
H991 H 0.59266 0.93122 0.92991 0.0
H992 H 0.53479 0.89669 0.82499 0.0
H993 H 0.55328 0.91126 0.8659 0.0
C994 C 0.60034 0.53845 0.37588 0.0
C995 C 0.61249 0.5336 0.40349 0.0
C996 C 0.59235 0.54921 0.40037 0.0
C997 C 0.58674 0.56737 0.54041 0.0
H998 H 0.56375 0.59167 0.44563 0.0
C999 C 0.54135 0.59977 0.63576 0.0
C1000 C 0.53723 0.61221 0.60819 0.0
C1001 C 0.55188 0.59137 0.61204 0.0
C1002 C 0.57029 0.58521 0.47302 0.0
H1003 H 0.62632 0.53658 0.4764 0.0
H1004 H 0.61292 0.55589 0.51743 0.0
H1005 H 0.58005 0.57563 0.40038 0.0
H1006 H 0.54137 0.62613 0.53649 0.0
H1007 H 0.56033 0.61197 0.49693 0.0
H1008 H 0.57754 0.57748 0.61309 0.0
C1009 C 0.60909 0.55103 0.4784 0.0
C1010 C 0.57948 0.57575 0.44685 0.0
C1011 C 0.61686 0.54004 0.45469 0.0
C1012 C 0.54426 0.61647 0.55813 0.0
C1013 C 0.55504 0.60827 0.53523 0.0
C1014 C 0.5778 0.57708 0.5666 0.0
C1015 C 0.59656 0.55558 0.45226 0.0
C1016 C 0.58762 0.56648 0.48012 0.0
C1017 C 0.55877 0.59541 0.561 0.0
C1018 C 0.56923 0.58593 0.53329 0.0
H1019 H 0.59671 0.53357 0.33652 0.0
H1020 H 0.58265 0.55218 0.37935 0.0
H1021 H 0.59267 0.56033 0.56775 0.0
H1022 H 0.536 0.59622 0.67423 0.0
H1023 H 0.55422 0.58145 0.63276 0.0
C1024 C 0.99339 0.29693 0.16244 0.0
C1025 C 0.00359 0.30557 0.18767 0.0
C1026 C 0.99373 0.28242 0.1711 0.0
C1027 C 0.01686 0.25356 0.22366 0.0
H1028 H 0.98144 0.23387 0.23918 0.0
C1029 C 0.0145 0.19341 0.24864 0.0
C1030 C 0.00395 0.18778 0.28384 0.0
C1031 C 0.01452 0.20768 0.23501 0.0
C1032 C 0.99144 0.23922 0.23573 0.0
H1033 H 0.02227 0.30596 0.24068 0.0
H1034 H 0.02245 0.28078 0.25873 0.0
H1035 H 0.98144 0.25891 0.22007 0.0
H1036 H 0.98523 0.19254 0.33298 0.0
H1037 H 0.98568 0.21762 0.31225 0.0
H1038 H 0.02686 0.23404 0.24271 0.0
C1039 C 0.01439 0.28504 0.2309 0.0
C1040 C 0.99144 0.25358 0.22367 0.0
C1041 C 0.01419 0.2995 0.22133 0.0
C1042 C 0.99355 0.19668 0.30608 0.0
C1043 C 0.9937 0.211 0.29339 0.0
C1044 C 0.01686 0.23926 0.23674 0.0
C1045 C 0.00414 0.2763 0.20602 0.0
C1046 C 0.00415 0.26094 0.21752 0.0
C1047 C 0.00412 0.21668 0.25729 0.0
C1048 C 0.00414 0.2319 0.24298 0.0
H1049 H 0.98505 0.3014 0.13658 0.0
H1050 H 0.98581 0.27602 0.15036 0.0
H1051 H 0.02687 0.25881 0.21833 0.0
H1052 H 0.02271 0.18674 0.23142 0.0
H1053 H 0.02259 0.2116 0.20643 0.0
C1054 C 0.2977 0.01708 0.78431 0.0
C1055 C 0.30275 0.00496 0.81191 0.0
C1056 C 0.28345 0.01838 0.77129 0.0
C1057 C 0.24889 0.00861 0.81601 0.0
H1058 H 0.23772 0.0095 0.65575 0.0
C1059 C 0.19175 -0.00076 0.74926 0.0
C1060 C 0.18653 0.00611 0.70055 0.0
C1061 C 0.20595 0.00016 0.76318 0.0
C1062 C 0.24061 0.00957 0.70074 0.0
H1063 H 0.29696 0.98485 0.84861 0.0
H1064 H 0.27185 0.98744 0.82817 0.0
H1065 H 0.26261 0.00972 0.68075 0.0
H1066 H 0.19165 0.01955 0.6286 0.0
H1067 H 0.21648 0.02174 0.65402 0.0
H1068 H 0.22707 0.00886 0.8367 0.0
C1069 C 0.27899 0.99579 0.81599 0.0
C1070 C 0.25486 0.00961 0.71488 0.0
C1071 C 0.29328 0.99435 0.82779 0.0
C1072 C 0.1956 0.01407 0.66613 0.0
C1073 C 0.20979 0.01524 0.68062 0.0
C1074 C 0.23465 0.00888 0.80204 0.0
C1075 C 0.27403 0.00774 0.78714 0.0
C1076 C 0.25906 0.00888 0.77252 0.0
C1077 C 0.21516 0.00824 0.72926 0.0
C1078 C 0.23032 0.00907 0.74416 0.0
H1079 H 0.30479 0.02551 0.77262 0.0
H1080 H 0.27975 0.02771 0.74928 0.0
H1081 H 0.25199 0.00816 0.8608 0.0
H1082 H 0.18486 0.99297 0.77606 0.0
H1083 H 0.20971 0.99433 0.80007 0.0
C1084 C 0.49361 0.29853 0.24304 0.0
C1085 C 0.48677 0.30366 0.29202 0.0
C1086 C 0.4927 0.28434 0.22877 0.0
C1087 C 0.48379 0.24963 0.29137 0.0
H1088 H 0.48392 0.23821 0.13128 0.0
C1089 C 0.47579 0.19231 0.21682 0.0
C1090 C 0.48668 0.1872 0.18192 0.0
C1091 C 0.47479 0.20663 0.22886 0.0
C1092 C 0.48388 0.2413 0.1761 0.0
H1093 H 0.47335 0.29839 0.36384 0.0
H1094 H 0.47128 0.27358 0.33805 0.0
H1095 H 0.48362 0.26316 0.15539 0.0
H1096 H 0.50489 0.19294 0.13125 0.0
H1097 H 0.50286 0.21814 0.1507 0.0
H1098 H 0.48373 0.22767 0.31165 0.0
C1099 C 0.47772 0.28035 0.31149 0.0
C1100 C 0.4838 0.25556 0.19003 0.0
C1101 C 0.47883 0.29452 0.32622 0.0
C1102 C 0.49632 0.19667 0.15781 0.0
C1103 C 0.49518 0.21103 0.16899 0.0
C1104 C 0.48362 0.23538 0.27737 0.0
C1105 C 0.48472 0.27506 0.26273 0.0
C1106 C 0.48396 0.2599 0.24787 0.0
C1107 C 0.48451 0.21608 0.20517 0.0
C1108 C 0.48385 0.23113 0.21968 0.0
H1109 H 0.49985 0.30547 0.21634 0.0
H1110 H 0.49847 0.28063 0.19165 0.0
H1111 H 0.48415 0.25255 0.33632 0.0
H1112 H 0.46809 0.1852 0.23509 0.0
H1113 H 0.46642 0.21035 0.2565 0.0
C1114 C 0.29547 0.49974 0.65815 0.0
C1115 C 0.30451 0.48924 0.67879 0.0
C1116 C 0.2811 0.49909 0.66989 0.0
C1117 C 0.25683 0.48679 0.77725 0.0
H1118 H 0.22825 0.48985 0.65919 0.0
C1119 C 0.19807 0.48147 0.83118 0.0
C1120 C 0.18867 0.48993 0.80051 0.0
C1121 C 0.21216 0.4808 0.81481 0.0
C1122 C 0.23608 0.4892 0.69282 0.0
H1123 H 0.30573 0.4696 0.72562 0.0
H1124 H 0.28061 0.46874 0.748 0.0
H1125 H 0.25302 0.48991 0.63209 0.0
H1126 H 0.1863 0.50447 0.72974 0.0
H1127 H 0.21103 0.50388 0.70236 0.0
H1128 H 0.2401 0.48666 0.83834 0.0
C1129 C 0.28465 0.47742 0.72279 0.0
C1130 C 0.25024 0.48914 0.67715 0.0
C1131 C 0.29896 0.47794 0.71018 0.0
C1132 C 0.19346 0.49783 0.75366 0.0
C1133 C 0.20758 0.49737 0.73781 0.0
C1134 C 0.2427 0.4871 0.79306 0.0
C1135 C 0.27565 0.48805 0.70313 0.0
C1136 C 0.26069 0.48791 0.71926 0.0
C1137 C 0.2171 0.48879 0.76801 0.0
C1138 C 0.23214 0.4883 0.75105 0.0
H1139 H 0.29956 0.5086 0.63418 0.0
H1140 H 0.27432 0.50744 0.65462 0.0
H1141 H 0.26476 0.486 0.81047 0.0
H1142 H 0.19445 0.47521 0.86718 0.0
H1143 H 0.21911 0.47389 0.83841 0.0
C1144 C 0.97373 0.79854 0.71249 0.0
C1145 C 0.98599 0.80383 0.68689 0.0
C1146 C 0.97208 0.7841 0.72064 0.0
C1147 C 0.98245 0.75008 0.66633 0.0
H1148 H 0.97794 0.73642 0.8223 0.0
C1149 C 0.99169 0.69222 0.72457 0.0
C1150 C 0.98402 0.68631 0.76984 0.0
C1151 C 0.99045 0.7065 0.71221 0.0
C1152 C 0.97887 0.74001 0.7783 0.0
H1153 H 0.00604 0.79834 0.64901 0.0
H1154 H 0.00291 0.77298 0.66125 0.0
H1155 H 0.97812 0.76163 0.80388 0.0
H1156 H 0.96863 0.6902 0.83632 0.0
H1157 H 0.96593 0.71513 0.81348 0.0
H1158 H 0.98294 0.72859 0.64013 0.0
C1159 C 0.99466 0.78003 0.67535 0.0
C1160 C 0.97905 0.75445 0.76795 0.0
C1161 C -0.00357 0.79447 0.66832 0.0
C1162 C 0.97476 0.69469 0.80162 0.0
C1163 C 0.9733 0.70894 0.78866 0.0
C1164 C 0.982 0.73564 0.67645 0.0
C1165 C 0.98254 0.77477 0.70203 0.0
C1166 C 0.9811 0.75956 0.71207 0.0
C1167 C 0.98128 0.71507 0.74425 0.0
C1168 C 0.98049 0.73041 0.73274 0.0
H1169 H 0.96544 0.80557 0.72626 0.0
H1170 H 0.96262 0.78021 0.74107 0.0
H1171 H 0.98391 0.75386 0.62279 0.0
H1172 H -0.00107 0.68586 0.69977 0.0
H1173 H -0.00303 0.71086 0.67849 0.0
C1174 C 0.79717 0.97744 0.32534 0.0
C1175 C 0.80605 0.98649 0.29486 0.0
C1176 C 0.78295 0.97656 0.31105 0.0
C1177 C 0.75761 0.98596 0.19513 0.0
H1178 H 0.73017 0.98142 0.31701 0.0
C1179 C 0.69853 -0.00173 0.17204 0.0
C1180 C 0.68936 0.98751 0.18901 0.0
C1181 C 0.71288 -0.0028 0.18323 0.0
C1182 C 0.73776 0.98257 0.28263 0.0
H1183 H 0.80737 0.00183 0.22649 0.0
H1184 H 0.78244 0.00084 0.20287 0.0
H1185 H 0.75513 0.98155 0.34049 0.0
H1186 H 0.68787 0.96705 0.22943 0.0
H1187 H 0.71302 0.96545 0.25137 0.0
H1188 H 0.74006 0.98764 0.13786 0.0
C1189 C 0.78639 0.99403 0.23646 0.0
C1190 C 0.75205 0.98257 0.29588 0.0
C1191 C 0.80062 0.99471 0.25016 0.0
C1192 C 0.69474 0.97561 0.21706 0.0
C1193 C 0.70906 0.97466 0.22929 0.0
C1194 C 0.74331 0.98622 0.18211 0.0
C1195 C 0.77736 0.98491 0.26661 0.0
C1196 C 0.76217 0.98435 0.25232 0.0
C1197 C 0.71822 0.98544 0.21235 0.0
C1198 C 0.73331 0.98459 0.22579 0.0
H1199 H 0.80127 0.97095 0.35974 0.0
H1200 H 0.7764 0.96925 0.33454 0.0
H1201 H 0.76507 0.98703 0.16028 0.0
H1202 H 0.69457 0.00757 0.15058 0.0
H1203 H 0.71977 0.00568 0.17018 0.0
C1204 C 0.51809 0.7995 0.77019 0.0
C1205 C 0.50614 0.80498 0.79746 0.0
C1206 C 0.51918 0.7851 0.75976 0.0
C1207 C 0.50813 0.75118 0.81198 0.0
H1208 H 0.51235 0.73794 0.6553 0.0
C1209 C 0.4994 0.69331 0.75283 0.0
C1210 C 0.5073 0.68751 0.70798 0.0
C1211 C 0.50026 0.70763 0.76475 0.0
C1212 C 0.51146 0.74141 0.69946 0.0
H1213 H 0.48607 0.79987 0.83606 0.0
H1214 H 0.48822 0.77454 0.81969 0.0
H1215 H 0.51237 0.76311 0.67489 0.0
H1216 H 0.5226 0.69169 0.64147 0.0
H1217 H 0.52462 0.71672 0.66352 0.0
H1218 H 0.50756 0.72962 0.83723 0.0
C1219 C 0.49664 0.78142 0.80588 0.0
C1220 C 0.5114 0.75583 0.71048 0.0
C1221 C 0.49542 0.79584 0.81522 0.0
C1222 C 0.51631 0.69609 0.67587 0.0
C1223 C 0.51738 0.71039 0.68838 0.0
C1224 C 0.50846 0.73677 0.80119 0.0
C1225 C 0.50848 0.77597 0.77777 0.0
C1226 C 0.50952 0.76079 0.76667 0.0
C1227 C 0.50926 0.71638 0.73269 0.0
C1228 C 0.50989 0.7317 0.74465 0.0
H1229 H 0.52661 0.80635 0.75721 0.0
H1230 H 0.52845 0.78105 0.73837 0.0
H1231 H 0.50681 0.75483 0.85576 0.0
H1232 H 0.49234 0.68679 0.77786 0.0
H1233 H 0.49363 0.71187 0.79836 0.0
C1234 C 0.79619 0.51515 0.17328 0.0
C1235 C 0.80502 0.50617 0.20439 0.0
C1236 C 0.78189 0.51583 0.18625 0.0
C1237 C 0.75596 0.50586 0.29925 0.0
H1238 H 0.72927 0.5104 0.17465 0.0
C1239 C 0.69683 0.49309 0.31559 0.0
C1240 C 0.68775 0.50399 0.29922 0.0
C1241 C 0.71123 0.49419 0.30546 0.0
C1242 C 0.73665 0.50923 0.20977 0.0
H1243 H 0.80618 0.49081 0.27267 0.0
H1244 H 0.7811 0.49142 0.29396 0.0
H1245 H 0.75437 0.51055 0.15382 0.0
H1246 H 0.68645 0.52464 0.2604 0.0
H1247 H 0.71169 0.52631 0.24025 0.0
H1248 H 0.73806 0.50388 0.35455 0.0
C1249 C 0.78514 0.49832 0.26087 0.0
C1250 C 0.75102 0.5094 0.19805 0.0
C1251 C 0.79947 0.49786 0.24851 0.0
C1252 C 0.69325 0.516 0.27243 0.0
C1253 C 0.70762 0.51699 0.26121 0.0
C1254 C 0.74159 0.50543 0.31072 0.0
C1255 C 0.77616 0.50734 0.22996 0.0
C1256 C 0.76087 0.50765 0.24263 0.0
C1257 C 0.7167 0.50611 0.27789 0.0
C1258 C 0.73185 0.50707 0.26604 0.0
H1259 H 0.80039 0.52172 0.13932 0.0
H1260 H 0.77538 0.52308 0.16228 0.0
H1261 H 0.7632 0.50481 0.33486 0.0
H1262 H 0.69278 0.48368 0.33592 0.0
H1263 H 0.71806 0.48564 0.31823 0.0
C1264 C 0.97187 0.34465 0.89598 0.0
C1265 C 0.98425 0.34611 0.92828 0.0
C1266 C 0.97257 0.34243 0.83653 0.0
C1267 C -0.00218 0.33356 0.71896 0.0
H1268 H 0.97427 0.35798 0.62658 0.0
C1269 C 0.0143 0.35755 0.50333 0.0
C1270 C 0.00529 0.35523 0.45654 0.0
C1271 C 0.01013 0.35389 0.55882 0.0
C1272 C 0.98076 0.35096 0.6519 0.0
H1273 H 0.00705 0.34573 0.92411 0.0
H1274 H 0.00825 0.3423 0.8216 0.0
H1275 H 0.96943 0.35535 0.72921 0.0
H1276 H 0.9853 0.34618 0.43082 0.0
H1277 H 0.97768 0.34069 0.52854 0.0
H1278 H 0.00975 0.33007 0.64219 0.0
C1279 C -0.00202 0.34258 0.84158 0.0
C1280 C 0.97795 0.34936 0.71049 0.0
C1281 C -0.00272 0.34474 0.90055 0.0
C1282 C 0.99216 0.34888 0.46621 0.0
C1283 C 0.98787 0.34548 0.5219 0.0
C1284 C 0.00076 0.33537 0.66076 0.0
C1285 C 0.98567 0.34161 0.80861 0.0
C1286 C 0.98677 0.34103 0.74505 0.0
C1287 C -0.00313 0.34791 0.56843 0.0
C1288 C 0.9925 0.3444 0.62733 0.0
H1289 H 0.96167 0.34557 0.91628 0.0
H1290 H 0.96289 0.34159 0.81234 0.0
H1291 H 0.00459 0.32677 0.74406 0.0
H1292 H 0.02456 0.36222 0.49701 0.0
H1293 H 0.01721 0.35586 0.59439 0.0
C1294 C 0.12155 0.00971 0.99265 0.0
C1295 C 0.13149 0.00657 0.95001 0.0
C1296 C 0.12368 0.00532 0.04927 0.0
C1297 C 0.12683 0.98754 0.15644 0.0
H1298 H 0.16345 0.9917 0.22745 0.0
C1299 C 0.13591 0.97003 0.38902 0.0
C1300 C 0.14244 0.98015 0.4239 0.0
C1301 C 0.13634 0.97125 0.32921 0.0
C1302 C 0.15317 0.99045 0.20817 0.0
H1303 H 0.15192 -0.00269 0.93393 0.0
H1304 H 0.15545 0.98925 0.03217 0.0
H1305 H 0.16016 -0.0014 0.12733 0.0
H1306 H 0.15546 -0.00112 0.42337 0.0
H1307 H 0.15604 0.0011 0.31934 0.0
H1308 H 0.11968 0.97995 0.23773 0.0
C1309 C 0.14595 0.99498 0.02188 0.0
C1310 C 0.15131 0.9943 0.15071 0.0
C1311 C 0.14381 -0.00063 0.96531 0.0
C1312 C 0.15024 0.99094 0.39773 0.0
C1313 C 0.15064 0.99218 0.33798 0.0
C1314 C 0.12869 0.98371 0.21382 0.0
C1315 C 0.13586 -0.00219 0.06441 0.0
C1316 C 0.13807 0.99307 0.12449 0.0
C1317 C 0.1433 0.98262 0.30313 0.0
C1318 C 0.14183 0.98529 0.24058 0.0
H1319 H 0.11204 0.01539 0.98205 0.0
H1320 H 0.11585 0.00792 0.0813 0.0
H1321 H 0.11655 0.98627 0.13721 0.0
H1322 H 0.12993 0.96151 0.40783 0.0
H1323 H 0.13082 0.96356 0.30341 0.0
C1324 C 0.5205 0.15061 0.88301 0.0
C1325 C 0.50801 0.14916 0.91464 0.0
C1326 C 0.52003 0.15232 0.82326 0.0
C1327 C 0.49516 0.15925 0.70207 0.0
H1328 H 0.51991 0.13452 0.61659 0.0
C1329 C 0.48099 0.13202 0.48997 0.0
C1330 C 0.48957 0.13538 0.44282 0.0
C1331 C 0.48488 0.13603 0.54536 0.0
C1332 C 0.51309 0.14161 0.64 0.0
H1333 H 0.48524 0.14917 0.90899 0.0
H1334 H 0.48442 0.15172 0.80591 0.0
H1335 H 0.52406 0.1384 0.71907 0.0
H1336 H 0.5085 0.14644 0.41663 0.0
H1337 H 0.51572 0.15256 0.51421 0.0
H1338 H 0.4836 0.16153 0.62358 0.0
C1339 C 0.4946 0.15179 0.8266 0.0
C1340 C 0.51549 0.14394 0.69847 0.0
C1341 C 0.49508 0.15016 0.88593 0.0
C1342 C 0.50205 0.14296 0.45218 0.0
C1343 C 0.50609 0.14671 0.5078 0.0
C1344 C 0.49262 0.15671 0.64401 0.0
C1345 C 0.50705 0.15262 0.7943 0.0
C1346 C 0.50626 0.15241 0.73059 0.0
C1347 C 0.49745 0.14337 0.55454 0.0
C1348 C 0.50135 0.14759 0.61313 0.0
H1349 H 0.53063 0.14997 0.90406 0.0
H1350 H 0.5298 0.1531 0.79966 0.0
H1351 H 0.48806 0.16612 0.72518 0.0
H1352 H 0.47122 0.12638 0.48395 0.0
H1353 H 0.47809 0.13337 0.58116 0.0
C1354 C 0.34806 0.50123 0.95083 0.0
C1355 C 0.35544 0.48861 0.94158 0.0
C1356 C 0.34461 0.50549 0.00649 0.0
C1357 C 0.33504 0.49298 0.14453 0.0
H1358 H 0.35489 0.52405 0.21538 0.0
C1359 C 0.34261 0.49641 0.38577 0.0
C1360 C 0.34422 0.50943 0.41333 0.0
C1361 C 0.3408 0.49569 0.32658 0.0
C1362 C 0.34894 0.5156 0.19599 0.0
H1363 H 0.36423 0.47019 0.98291 0.0
H1364 H 0.35773 0.47745 0.0803 0.0
H1365 H 0.35807 0.51928 0.11295 0.0
H1366 H 0.34435 0.53201 0.4008 0.0
H1367 H 0.3409 0.53078 0.29662 0.0
H1368 H 0.32587 0.48917 0.22683 0.0
C1369 C 0.35504 0.48418 0.04435 0.0
C1370 C 0.35086 0.51284 0.13754 0.0
C1371 C 0.35876 0.48006 0.98885 0.0
C1372 C 0.34325 0.52181 0.38066 0.0
C1373 C 0.34134 0.5211 0.32103 0.0
C1374 C 0.33289 0.49588 0.20258 0.0
C1375 C 0.34802 0.49694 0.05342 0.0
C1376 C 0.3443 0.50121 0.11215 0.0
C1377 C 0.34039 0.508 0.29323 0.0
C1378 C 0.34028 0.50686 0.22959 0.0
H1379 H 0.3446 0.50766 0.9152 0.0
H1380 H 0.33899 0.51527 0.01283 0.0
H1381 H 0.32977 0.48405 0.12525 0.0
H1382 H 0.34322 0.48664 0.40962 0.0
H1383 H 0.34038 0.4854 0.30682 0.0
C1384 C -0.00236 0.15125 0.58734 0.0
C1385 C 0.98465 0.14955 0.5596 0.0
C1386 C -0.00165 0.15231 0.64688 0.0
C1387 C 0.97856 0.14179 0.77534 0.0
H1388 H 0.00959 0.16054 0.85146 0.0
C1389 C 0.99183 0.14108 0.02173 0.0
C1390 C 0.00462 0.13407 0.0317 0.0
C1391 C 0.98773 0.14456 0.96589 0.0
C1392 C 0.00083 0.15535 0.83064 0.0
H1393 H 0.96211 0.14862 0.57229 0.0
H1394 H 0.96331 0.15083 0.67693 0.0
H1395 H 0.0047 0.16561 0.75056 0.0
H1396 H 0.02342 0.12581 0.99136 0.0
H1397 H 0.0164 0.13236 0.89367 0.0
H1398 H 0.97476 0.13164 0.85631 0.0
C1399 C 0.97299 0.15098 0.65244 0.0
C1400 C -0.00195 0.15817 0.77295 0.0
C1401 C 0.97228 0.14981 0.59252 0.0
C1402 C 0.01341 0.131 0.98487 0.0
C1403 C 0.00944 0.13475 0.9292 0.0
C1404 C 0.98119 0.1392 0.83347 0.0
C1405 C 0.98607 0.15187 0.68038 0.0
C1406 C 0.98722 0.15102 0.74397 0.0
C1407 C -0.00342 0.14153 0.91948 0.0
C1408 C 0.99262 0.14562 0.86078 0.0
H1409 H 0.00739 0.15118 0.5633 0.0
H1410 H 0.00864 0.15275 0.66662 0.0
H1411 H 0.97024 0.13597 0.75442 0.0
H1412 H 0.98519 0.14435 0.05697 0.0
H1413 H 0.97787 0.14999 0.95907 0.0
C1414 C 0.33892 0.98877 0.11096 0.0
C1415 C 0.34949 0.98015 0.08772 0.0
C1416 C 0.33779 0.9905 0.17031 0.0
C1417 C 0.3493 0.97706 0.31161 0.0
H1418 H 0.35008 0.01654 0.35293 0.0
C1419 C 0.36648 0.99597 0.53594 0.0
C1420 C 0.35926 0.00738 0.56005 0.0
C1421 C 0.36394 0.99198 0.47915 0.0
C1422 C 0.34962 0.00546 0.3424 0.0
H1423 H 0.3663 0.96561 0.10852 0.0
H1424 H 0.3643 0.96866 0.2122 0.0
H1425 H 0.34679 0.00983 0.25307 0.0
H1426 H 0.34391 0.02372 0.54416 0.0
H1427 H 0.33927 0.01666 0.44521 0.0
H1428 H 0.35225 0.9727 0.40104 0.0
C1429 C 0.35694 0.9741 0.18452 0.0
C1430 C 0.34771 0.00162 0.28513 0.0
C1431 C 0.35812 0.97241 0.1251 0.0
C1432 C 0.34965 0.01492 0.52631 0.0
C1433 C 0.34702 0.01087 0.46969 0.0
C1434 C 0.3511 0.9809 0.3691 0.0
C1435 C 0.34712 0.98358 0.2075 0.0
C1436 C 0.3477 0.9874 0.26907 0.0
C1437 C 0.3541 -0.00067 0.44549 0.0
C1438 C 0.35147 0.99516 0.385 0.0
H1439 H 0.332 0.99477 0.08332 0.0
H1440 H 0.32998 -0.0023 0.18706 0.0
H1441 H 0.34925 0.96602 0.30036 0.0
H1442 H 0.37416 0.99019 0.56083 0.0
H1443 H 0.36982 0.98326 0.46143 0.0
C1444 C 0.52198 0.3504 0.606 0.0
C1445 C 0.51093 0.34491 0.5729 0.0
C1446 C 0.52122 0.35028 0.66598 0.0
C1447 C 0.50185 0.33561 0.79062 0.0
H1448 H 0.50883 0.37223 0.85803 0.0
C1449 C 0.48487 0.369 0.00355 0.0
C1450 C 0.48781 0.35926 0.0472 0.0
C1451 C 0.48927 0.36646 0.94722 0.0
C1452 C 0.50684 0.36195 0.83981 0.0
H1453 H 0.49093 0.334 0.57668 0.0
H1454 H 0.48959 0.33384 0.68112 0.0
H1455 H 0.51428 0.36822 0.75699 0.0
H1456 H 0.49689 0.33886 0.06568 0.0
H1457 H 0.50479 0.33453 0.96758 0.0
H1458 H 0.49395 0.3295 0.87312 0.0
C1459 C 0.49885 0.33824 0.66087 0.0
C1460 C 0.51013 0.35959 0.78216 0.0
C1461 C 0.49958 0.33841 0.60096 0.0
C1462 C 0.49493 0.34679 0.03336 0.0
C1463 C 0.49926 0.3442 0.977 0.0
C1464 C 0.49862 0.33795 0.84843 0.0
C1465 C 0.50943 0.34459 0.69395 0.0
C1466 C 0.50746 0.34646 0.7567 0.0
C1467 C 0.49651 0.35403 0.93338 0.0
C1468 C 0.50086 0.35122 0.8733 0.0
H1469 H 0.53092 0.35541 0.5857 0.0
H1470 H 0.52963 0.35505 0.69046 0.0
H1471 H 0.49976 0.32537 0.77222 0.0
H1472 H 0.47927 0.37863 0.01307 0.0
H1473 H 0.48678 0.37412 0.91429 0.0
C1474 C 0.15436 0.50159 0.11056 0.0
C1475 C 0.14527 0.51178 0.08756 0.0
C1476 C 0.15528 0.49965 0.16991 0.0
C1477 C 0.14634 0.51468 0.31171 0.0
H1478 H 0.1398 0.47576 0.3534 0.0
C1479 C 0.12758 0.4983 0.53789 0.0
C1480 C 0.13286 0.48574 0.56094 0.0
C1481 C 0.13057 0.50204 0.48111 0.0
C1482 C 0.14188 0.48665 0.3428 0.0
H1483 H 0.13096 0.52875 0.10889 0.0
H1484 H 0.13259 0.52536 0.21255 0.0
H1485 H 0.14362 0.48193 0.25329 0.0
H1486 H 0.14532 0.4672 0.54322 0.0
H1487 H 0.1508 0.47381 0.44447 0.0
H1488 H 0.14452 0.5194 0.40136 0.0
C1489 C 0.13896 0.51884 0.18466 0.0
C1490 C 0.14408 0.49018 0.28533 0.0
C1491 C 0.13799 0.52074 0.12524 0.0
C1492 C 0.14107 0.47692 0.52625 0.0
C1493 C 0.14417 0.4807 0.4697 0.0
C1494 C 0.14425 0.51113 0.36942 0.0
C1495 C 0.1472 0.50793 0.2074 0.0
C1496 C 0.14619 0.50424 0.26911 0.0
C1497 C 0.13893 0.4933 0.44636 0.0
C1498 C 0.14184 0.49708 0.38554 0.0
H1499 H 0.16024 0.4946 0.08274 0.0
H1500 H 0.1619 0.49132 0.18641 0.0
H1501 H 0.14802 0.52559 0.30037 0.0
H1502 H 0.12095 0.50512 0.56339 0.0
H1503 H 0.1261 0.51165 0.46417 0.0
C1504 C 0.98849 0.62104 0.47988 0.0
C1505 C 0.99048 0.63091 0.5239 0.0
C1506 C 0.99278 0.62406 0.42383 0.0
C1507 C 0.00974 0.63053 0.31625 0.0
H1508 H -0.00186 0.66614 0.25021 0.0
C1509 C 0.02135 0.64379 0.08042 0.0
C1510 C 0.00933 0.64772 0.04928 0.0
C1511 C 0.0212 0.64388 0.14047 0.0
C1512 C 0.00152 0.6562 0.26822 0.0
H1513 H -0.00211 0.65191 0.5435 0.0
H1514 H 0.00555 0.65712 0.4457 0.0
H1515 H 0.99359 0.66134 0.35175 0.0
H1516 H 0.98812 0.65588 0.05645 0.0
H1517 H 0.98787 0.65606 0.16109 0.0
H1518 H 0.01721 0.62517 0.2324 0.0
C1519 C 0.00086 0.64699 0.4547 0.0
C1520 C -0.00099 0.65349 0.32634 0.0
C1521 C -0.00333 0.64392 0.51084 0.0
C1522 C -0.00249 0.65269 0.07925 0.0
C1523 C -0.0026 0.65288 0.13922 0.0
C1524 C 0.01234 0.63328 0.25829 0.0
C1525 C -0.00105 0.63709 0.41064 0.0
C1526 C 0.00283 0.64051 0.35059 0.0
C1527 C 0.00907 0.64804 0.17042 0.0
C1528 C 0.008 0.64602 0.23341 0.0
H1529 H 0.98362 0.61099 0.48886 0.0
H1530 H 0.99096 0.61632 0.39051 0.0
H1531 H 0.01292 0.6205 0.33401 0.0
H1532 H 0.03064 0.63996 0.05857 0.0
H1533 H 0.03041 0.64028 0.16351 0.0
C1534 C 0.85317 0.97649 0.01526 0.0
C1535 C 0.86104 0.98565 0.04975 0.0
C1536 C 0.8498 0.98016 0.95888 0.0
C1537 C 0.8482 0.01045 0.85835 0.0
H1538 H 0.8507 0.98123 0.74274 0.0
C1539 C 0.85424 0.02009 0.61401 0.0
C1540 C 0.84773 0.01052 0.5765 0.0
C1541 C 0.85322 0.01829 0.67347 0.0
C1542 C 0.84971 0.98947 0.77461 0.0
H1543 H 0.872 0.00558 0.05213 0.0
H1544 H 0.86637 0.01193 0.95314 0.0
H1545 H 0.8547 0.97538 0.84297 0.0
H1546 H 0.83392 0.9924 0.57183 0.0
H1547 H 0.83212 0.98933 0.67551 0.0
H1548 H 0.84371 0.02462 0.78899 0.0
C1549 C 0.86239 0.00211 0.97014 0.0
C1550 C 0.85201 0.98611 0.83214 0.0
C1551 C 0.86565 -0.00152 0.02676 0.0
C1552 C 0.83924 -0.00017 0.59957 0.0
C1553 C 0.83824 -0.00197 0.65892 0.0
C1554 C 0.846 0.01383 0.80055 0.0
C1555 C 0.85442 0.99298 0.93553 0.0
C1556 C 0.85138 -0.00343 0.87469 0.0
C1557 C 0.84566 0.00691 0.69635 0.0
C1558 C 0.8468 0.00337 0.75813 0.0
H1559 H 0.84942 0.96657 0.03221 0.0
H1560 H 0.84348 0.97297 0.93372 0.0
H1561 H 0.84744 0.01871 0.89019 0.0
H1562 H 0.86078 0.02848 0.59756 0.0
H1563 H 0.85906 0.02528 0.70133 0.0
C1564 C 0.50585 0.87032 0.49777 0.0
C1565 C 0.50267 0.86075 0.54167 0.0
C1566 C 0.50123 0.86784 0.44172 0.0
C1567 C 0.48344 0.86348 0.33462 0.0
H1568 H 0.49082 0.82687 0.26783 0.0
C1569 C 0.47011 0.85181 0.0989 0.0
C1570 C 0.48165 0.8467 0.06758 0.0
C1571 C 0.47029 0.85162 0.15896 0.0
C1572 C 0.48861 0.8371 0.28609 0.0
H1573 H 0.49285 0.84081 0.5617 0.0
H1574 H 0.48466 0.83649 0.46359 0.0
H1575 H 0.49604 0.83101 0.3693 0.0
H1576 H 0.50192 0.8364 0.07427 0.0
H1577 H 0.5022 0.83604 0.1789 0.0
H1578 H 0.47648 0.86974 0.25106 0.0
C1579 C 0.49052 0.84599 0.47258 0.0
C1580 C 0.49151 0.83945 0.34414 0.0
C1581 C 0.49506 0.84853 0.52868 0.0
C1582 C 0.49291 0.84051 0.09728 0.0
C1583 C 0.49304 0.84022 0.15721 0.0
C1584 C 0.48044 0.86111 0.27673 0.0
C1585 C 0.49356 0.85563 0.42856 0.0
C1586 C 0.48924 0.85275 0.36861 0.0
C1587 C 0.48194 0.84618 0.18864 0.0
C1588 C 0.48327 0.84798 0.25161 0.0
H1589 H 0.51189 0.8797 0.50687 0.0
H1590 H 0.50394 0.87533 0.40841 0.0
H1591 H 0.48145 0.87379 0.3526 0.0
H1592 H 0.46125 0.8566 0.07721 0.0
H1593 H 0.46153 0.85614 0.18222 0.0
C1594 C 0.62562 0.49497 0.02279 0.0
C1595 C 0.63225 0.50676 0.04669 0.0
C1596 C 0.62846 0.49097 0.96621 0.0
C1597 C 0.64181 0.50519 0.82954 0.0
H1598 H 0.6448 0.4659 0.78684 0.0
C1599 C 0.65319 0.48999 0.59765 0.0
C1600 C 0.64346 0.48047 0.57426 0.0
C1601 C 0.65432 0.49159 0.65703 0.0
C1602 C 0.644 0.4769 0.79825 0.0
H1603 H 0.64693 0.5237 0.03062 0.0
H1604 H 0.65203 0.51668 0.93207 0.0
H1605 H 0.64139 0.47228 0.88772 0.0
H1606 H 0.62824 0.46426 0.59471 0.0
H1607 H 0.63014 0.46716 0.6985 0.0
H1608 H 0.6442 0.50985 0.74033 0.0
C1609 C 0.64453 0.51058 0.95661 0.0
C1610 C 0.64198 0.48056 0.85585 0.0
C1611 C 0.64162 0.5146 0.013 0.0
C1612 C 0.63576 0.47175 0.61144 0.0
C1613 C 0.63689 0.47337 0.67093 0.0
C1614 C 0.64389 0.50155 0.77219 0.0
C1615 C 0.63797 0.49873 0.93255 0.0
C1616 C 0.64073 0.49475 0.87199 0.0
C1617 C 0.64576 0.4837 0.69414 0.0
C1618 C 0.64488 0.48738 0.75585 0.0
H1619 H 0.6181 0.48894 0.04753 0.0
H1620 H 0.623 0.48197 0.94853 0.0
H1621 H 0.64063 0.5162 0.84031 0.0
H1622 H 0.65944 0.49672 0.57011 0.0
H1623 H 0.66147 0.49943 0.67386 0.0
C1624 C 0.00461 0.84097 0.40392 0.0
C1625 C 0.01238 0.8523 0.42609 0.0
C1626 C 0.00314 0.83925 0.34475 0.0
C1627 C 0.01591 0.85054 0.20242 0.0
H1628 H 0.97645 0.8489 0.16133 0.0
C1629 C 0.99598 0.86581 0.97763 0.0
C1630 C 0.98483 0.85808 0.95423 0.0
C1631 C 0.00021 0.86354 0.03427 0.0
C1632 C 0.98753 0.84909 0.1718 0.0
H1633 H 0.02575 0.86994 0.40374 0.0
H1634 H 0.02314 0.86693 0.30017 0.0
H1635 H 0.98333 0.84662 0.26141 0.0
H1636 H 0.96922 0.84206 0.97098 0.0
H1637 H 0.97673 0.83784 0.06982 0.0
H1638 H 0.02009 0.85312 0.11268 0.0
C1639 C 0.01818 0.85942 0.32865 0.0
C1640 C 0.99147 0.84778 0.2292 0.0
C1641 C 0.01961 0.86117 0.38795 0.0
C1642 C 0.97782 0.84819 0.98839 0.0
C1643 C 0.98212 0.8458 0.04488 0.0
C1644 C 0.01197 0.85172 0.14479 0.0
C1645 C 0.00947 0.84878 0.30668 0.0
C1646 C 0.00567 0.84868 0.24514 0.0
C1647 C 0.99338 0.85344 0.06845 0.0
C1648 C -0.00229 0.85123 0.12898 0.0
H1649 H -0.00093 0.83382 0.4322 0.0
H1650 H -0.00343 0.83083 0.32877 0.0
H1651 H 0.02693 0.85119 0.21366 0.0
H1652 H 0.00135 0.87371 0.95232 0.0
H1653 H 0.00868 0.86985 0.0515 0.0
C1654 C 0.64344 0.02318 0.88447 0.0
C1655 C 0.64838 0.01151 0.91551 0.0
C1656 C 0.64348 0.02303 0.82441 0.0
C1657 C 0.65739 0.00458 0.69656 0.0
H1658 H 0.62072 0.01248 0.63133 0.0
C1659 C 0.62361 0.98823 0.48525 0.0
C1660 C 0.63316 0.99133 0.44122 0.0
C1661 C 0.62621 0.99275 0.54135 0.0
C1662 C 0.63102 0.01028 0.64894 0.0
H1663 H 0.65825 0.99104 0.90825 0.0
H1664 H 0.65838 0.99082 0.80359 0.0
H1665 H 0.62504 0.01721 0.73289 0.0
H1666 H 0.6532 0.00092 0.42101 0.0
H1667 H 0.65774 0.00893 0.51919 0.0
H1668 H 0.6632 -0.0028 0.61295 0.0
C1669 C 0.65443 5e-05 0.82552 0.0
C1670 C 0.63355 0.01314 0.70685 0.0
C1671 C 0.65427 0.00014 0.88548 0.0
C1672 C 0.64548 -0.00121 0.45412 0.0
C1673 C 0.64815 0.00321 0.51027 0.0
C1674 C 0.65489 0.00182 0.63849 0.0
C1675 C 0.64862 0.01129 0.79443 0.0
C1676 C 0.64667 0.01005 0.7315 0.0
C1677 C 0.63854 0.00023 0.55443 0.0
C1678 C 0.64159 0.00438 0.61446 0.0
H1679 H 0.63887 0.03211 0.90642 0.0
H1680 H 0.63909 0.0319 0.8014 0.0
H1681 H 0.66761 0.00216 0.71445 0.0
H1682 H 0.61414 0.98231 0.47623 0.0
H1683 H 0.61874 0.99009 0.57477 0.0
C1684 C 0.49648 0.64514 0.97175 0.0
C1685 C 0.50322 0.63242 0.95861 0.0
C1686 C 0.49202 0.64793 0.02777 0.0
C1687 C 0.49325 0.65424 0.1563 0.0
H1688 H 0.47628 0.62492 0.249 0.0
C1689 C 0.49492 0.65282 0.40301 0.0
C1690 C 0.4834 0.64721 0.43298 0.0
C1691 C 0.49494 0.65321 0.34308 0.0
C1692 C 0.48079 0.63331 0.22346 0.0
H1693 H 0.51081 0.61273 0.99338 0.0
H1694 H 0.50302 0.61756 0.09153 0.0
H1695 H 0.48084 0.62069 0.14731 0.0
H1696 H 0.46246 0.6385 0.42385 0.0
H1697 H 0.46252 0.63917 0.3189 0.0
H1698 H 0.49349 0.66674 0.23287 0.0
C1699 C 0.50096 0.62529 0.05836 0.0
C1700 C 0.48355 0.63081 0.16545 0.0
C1701 C 0.50551 0.62256 0.00242 0.0
C1702 C 0.47152 0.64282 0.40196 0.0
C1703 C 0.47158 0.64313 0.34191 0.0
C1704 C 0.49056 0.65671 0.21446 0.0
C1705 C 0.49422 0.63802 0.07163 0.0
C1706 C 0.49006 0.64115 0.13159 0.0
C1707 C 0.48345 0.64795 0.31191 0.0
C1708 C 0.48455 0.64617 0.24884 0.0
H1709 H 0.49503 0.65314 0.93927 0.0
H1710 H 0.48689 0.65784 0.03684 0.0
H1711 H 0.49834 0.66238 0.13128 0.0
H1712 H 0.50419 0.65638 0.42575 0.0
H1713 H 0.50427 0.6569 0.32117 0.0
C1714 C 0.86508 0.49615 0.47457 0.0
C1715 C 0.85982 0.50873 0.45165 0.0
C1716 C 0.86203 0.49235 0.53121 0.0
C1717 C 0.85084 0.50774 0.66938 0.0
H1718 H 0.84469 0.46882 0.71227 0.0
C1719 C 0.83894 0.49319 0.90193 0.0
C1720 C 0.84806 0.48301 0.92482 0.0
C1721 C 0.83781 0.49496 0.84261 0.0
C1722 C 0.84637 0.47973 0.70078 0.0
H1723 H 0.84728 0.52721 0.46934 0.0
H1724 H 0.8417 0.52051 0.56788 0.0
H1725 H 0.84803 0.47497 0.61109 0.0
H1726 H 0.86217 0.46587 0.90346 0.0
H1727 H 0.86021 0.46903 0.79973 0.0
H1728 H 0.8493 0.5125 0.75885 0.0
C1729 C 0.84836 0.51365 0.54265 0.0
C1730 C 0.84836 0.48325 0.64299 0.0
C1731 C 0.85152 0.51749 0.48624 0.0
C1732 C 0.85513 0.47387 0.88716 0.0
C1733 C 0.85396 0.47564 0.82772 0.0
C1734 C 0.84875 0.50424 0.7269 0.0
C1735 C 0.85362 0.50106 0.56591 0.0
C1736 C 0.85077 0.49729 0.62674 0.0
C1737 C 0.84572 0.48656 0.80503 0.0
C1738 C 0.84663 0.49019 0.74328 0.0
H1739 H 0.87176 0.48937 0.44911 0.0
H1740 H 0.86651 0.48274 0.54813 0.0
H1741 H 0.85294 0.51862 0.65863 0.0
H1742 H 0.83319 0.50027 0.92979 0.0
H1743 H 0.83117 0.50329 0.82616 0.0
loop_
_geom_bond_atom_site_label_1
_geom_bond_atom_site_label_2
_geom_bond_distance
_geom_bond_site_symmetry_2
_ccdc_geom_bond_type
Co0 O3 1.970 1_455 S
Co0 N17 1.989 . S
Co0 O25 1.967 . S
Co0 O32 1.920 . S
Co1 O4 1.966 1_455 S
Co1 N10 2.022 . S
Co1 N18 1.993 . S
Co1 O26 1.941 . S
C2 O3 1.258 . S
C2 O4 1.263 . S
O3 Co0 1.970 1_655 S
O3 C2 1.258 . S
O4 Co1 1.966 1_655 S
O4 C2 1.263 . S
C5 O6 1.235 1_556 S
C5 O32 1.289 1_656 S
O6 C5 1.235 1_554 S
C7 C9 1.400 . S
C7 N10 1.351 . S
C7 C12 1.501 1_455 S
C8 C9 1.387 . S
C8 N11 1.341 . S
C9 C7 1.400 . S
C9 C8 1.387 . S
N10 Co1 2.022 . S
N10 C7 1.351 . S
N10 N11 1.365 . S
N11 C8 1.341 . S
N11 N10 1.365 . S
N11 H31 0.862 . S
C12 C7 1.501 1_655 S
C12 H13 0.961 . S
C12 H14 0.961 . S
C12 H15 0.960 . S
H13 C12 0.961 . S
H14 C12 0.961 . S
H15 C12 0.960 . S
C16 N17 1.342 . S
C16 C20 1.401 . S
C16 C21 1.499 . S
N17 Co0 1.989 . S
N17 C16 1.342 . S
N17 N18 1.388 . S
N18 Co1 1.993 . S
N18 N17 1.388 . S
N18 C19 1.346 . S
C19 N18 1.346 . S
C19 C20 1.396 . S
C19 C29 1.510 . S
C20 C16 1.401 . S
C20 C19 1.396 . S
C21 C16 1.499 . S
C21 H22 0.959 . S
C21 H23 0.960 . S
C21 H24 0.961 . S
H22 C21 0.959 . S
H23 C21 0.960 . S
H24 C21 0.961 . S
O25 Co0 1.967 . S
O25 C33 1.258 . S
O26 Co1 1.941 . S
O26 C33 1.266 . S
H27 C29 0.959 . S
H28 C29 0.961 . S
C29 C19 1.510 . S
C29 H27 0.959 . S
C29 H28 0.961 . S
C29 H30 0.960 . S
H30 C29 0.960 . S
H31 N11 0.862 . S
O32 Co0 1.920 . S
O32 C5 1.289 1_454 S
C33 O25 1.258 . S
C33 O26 1.266 . S
Co34 O37 1.970 1_545 S
Co34 N51 1.989 . S
Co34 O59 1.967 . S
Co34 O66 1.920 . S
Co35 O38 1.966 1_545 S
Co35 N44 2.022 . S
Co35 N52 1.993 . S
Co35 O60 1.941 . S
C36 O37 1.258 . S
C36 O38 1.263 . S
O37 Co34 1.970 1_565 S
O37 C36 1.258 . S
O38 Co35 1.966 1_565 S
O38 C36 1.263 . S
C39 O40 1.235 . S
C39 O66 1.289 1_565 S
O40 C39 1.235 . S
C41 C43 1.400 . S
C41 N44 1.351 . S
C41 C46 1.501 1_545 S
C42 C43 1.387 . S
C42 N45 1.341 . S
C43 C41 1.400 . S
C43 C42 1.387 . S
N44 Co35 2.022 . S
N44 C41 1.351 . S
N44 N45 1.365 . S
N45 C42 1.341 . S
N45 N44 1.365 . S
N45 H65 0.862 . S
C46 C41 1.501 1_565 S
C46 H47 0.961 . S
C46 H48 0.961 . S
C46 H49 0.960 . S
H47 C46 0.961 . S
H48 C46 0.961 . S
H49 C46 0.960 . S
C50 N51 1.342 . S
C50 C54 1.401 . S
C50 C55 1.499 . S
N51 Co34 1.989 . S
N51 C50 1.342 . S
N51 N52 1.388 . S
N52 Co35 1.993 . S
N52 N51 1.388 . S
N52 C53 1.346 . S
C53 N52 1.346 . S
C53 C54 1.396 . S
C53 C63 1.510 . S
C54 C50 1.401 . S
C54 C53 1.396 . S
C55 C50 1.499 . S
C55 H56 0.959 . S
C55 H57 0.960 . S
C55 H58 0.961 . S
H56 C55 0.959 . S
H57 C55 0.960 . S
H58 C55 0.961 . S
O59 Co34 1.967 . S
O59 C67 1.258 . S
O60 Co35 1.941 . S
O60 C67 1.266 . S
H61 C63 0.959 . S
H62 C63 0.961 . S
C63 C53 1.510 . S
C63 H61 0.959 . S
C63 H62 0.961 . S
C63 H64 0.960 . S
H64 C63 0.960 . S
H65 N45 0.862 . S
O66 Co34 1.920 . S
O66 C39 1.289 1_545 S
C67 O59 1.258 . S
C67 O60 1.266 . S
Co68 O71 1.970 . S
Co68 N85 1.989 . S
Co68 O93 1.967 . S
Co68 O100 1.920 . S
Co69 O72 1.966 . S
Co69 N78 2.022 . S
Co69 N86 1.993 . S
Co69 O94 1.941 . S
C70 O71 1.258 . S
C70 O72 1.263 . S
O71 Co68 1.970 . S
O71 C70 1.258 . S
O72 Co69 1.966 . S
O72 C70 1.263 . S
C73 O74 1.235 1_556 S
C73 O100 1.289 1_556 S
O74 C73 1.235 1_554 S
C75 C77 1.400 . S
C75 N78 1.351 . S
C75 C80 1.501 . S
C76 C77 1.387 . S
C76 N79 1.341 . S
C77 C75 1.400 . S
C77 C76 1.387 . S
N78 Co69 2.022 . S
N78 C75 1.351 . S
N78 N79 1.365 . S
N79 C76 1.341 . S
N79 N78 1.365 . S
N79 H99 0.862 . S
C80 C75 1.501 . S
C80 H81 0.961 . S
C80 H82 0.961 . S
C80 H83 0.960 . S
H81 C80 0.961 . S
H82 C80 0.961 . S
H83 C80 0.960 . S
C84 N85 1.342 . S
C84 C88 1.401 . S
C84 C89 1.499 . S
N85 Co68 1.989 . S
N85 C84 1.342 . S
N85 N86 1.388 . S
N86 Co69 1.993 . S
N86 N85 1.388 . S
N86 C87 1.346 . S
C87 N86 1.346 . S
C87 C88 1.396 . S
C87 C97 1.510 . S
C88 C84 1.401 . S
C88 C87 1.396 . S
C89 C84 1.499 . S
C89 H90 0.959 . S
C89 H91 0.960 . S
C89 H92 0.961 . S
H90 C89 0.959 . S
H91 C89 0.960 . S
H92 C89 0.961 . S
O93 Co68 1.967 . S
O93 C101 1.258 . S
O94 Co69 1.941 . S
O94 C101 1.266 . S
H95 C97 0.959 . S
H96 C97 0.961 . S
C97 C87 1.510 . S
C97 H95 0.959 . S
C97 H96 0.961 . S
C97 H98 0.960 . S
H98 C97 0.960 . S
H99 N79 0.862 . S
O100 Co68 1.920 . S
O100 C73 1.289 1_554 S
C101 O93 1.258 . S
C101 O94 1.266 . S
Co102 O105 1.970 . S
Co102 N119 1.989 . S
Co102 O127 1.967 . S
Co102 O134 1.920 . S
Co103 O106 1.966 . S
Co103 N112 2.022 . S
Co103 N120 1.993 . S
Co103 O128 1.941 . S
C104 O105 1.258 . S
C104 O106 1.263 . S
O105 Co102 1.970 . S
O105 C104 1.258 . S
O106 Co103 1.966 . S
O106 C104 1.263 . S
C107 O108 1.235 . S
C107 O134 1.289 . S
O108 C107 1.235 . S
C109 C111 1.400 . S
C109 N112 1.351 . S
C109 C114 1.501 . S
C110 C111 1.387 . S
C110 N113 1.341 . S
C111 C109 1.400 . S
C111 C110 1.387 . S
N112 Co103 2.022 . S
N112 C109 1.351 . S
N112 N113 1.365 . S
N113 C110 1.341 . S
N113 N112 1.365 . S
N113 H133 0.862 . S
C114 C109 1.501 . S
C114 H115 0.961 . S
C114 H116 0.961 . S
C114 H117 0.960 . S
H115 C114 0.961 . S
H116 C114 0.961 . S
H117 C114 0.960 . S
C118 N119 1.342 . S
C118 C122 1.401 . S
C118 C123 1.499 . S
N119 Co102 1.989 . S
N119 C118 1.342 . S
N119 N120 1.388 . S
N120 Co103 1.993 . S
N120 N119 1.388 . S
N120 C121 1.346 . S
C121 N120 1.346 . S
C121 C122 1.396 . S
C121 C131 1.510 . S
C122 C118 1.401 . S
C122 C121 1.396 . S
C123 C118 1.499 . S
C123 H124 0.959 . S
C123 H125 0.960 . S
C123 H126 0.961 . S
H124 C123 0.959 . S
H125 C123 0.960 . S
H126 C123 0.961 . S
O127 Co102 1.967 . S
O127 C135 1.258 . S
O128 Co103 1.941 . S
O128 C135 1.266 . S
H129 C131 0.959 . S
H130 C131 0.961 . S
C131 C121 1.510 . S
C131 H129 0.959 . S
C131 H130 0.961 . S
C131 H132 0.960 . S
H132 C131 0.960 . S
H133 N113 0.862 . S
O134 Co102 1.920 . S
O134 C107 1.289 . S
C135 O127 1.258 . S
C135 O128 1.266 . S
Co136 O139 1.970 1_455 S
Co136 N153 1.989 . S
Co136 O161 1.967 . S
Co136 O168 1.920 . S
Co137 O140 1.966 1_455 S
Co137 N146 2.022 . S
Co137 N154 1.993 . S
Co137 O162 1.941 . S
C138 O139 1.258 . S
C138 O140 1.263 . S
O139 Co136 1.970 1_655 S
O139 C138 1.258 . S
O140 Co137 1.966 1_655 S
O140 C138 1.263 . S
C141 O142 1.235 . S
C141 O168 1.289 1_655 S
O142 C141 1.235 . S
C143 C145 1.400 . S
C143 N146 1.351 . S
C143 C148 1.501 1_455 S
C144 C145 1.387 . S
C144 N147 1.341 . S
C145 C143 1.400 . S
C145 C144 1.387 . S
N146 Co137 2.022 . S
N146 C143 1.351 . S
N146 N147 1.365 . S
N147 C144 1.341 . S
N147 N146 1.365 . S
N147 H167 0.862 . S
C148 C143 1.501 1_655 S
C148 H149 0.961 . S
C148 H150 0.961 . S
C148 H151 0.960 . S
H149 C148 0.961 . S
H150 C148 0.961 . S
H151 C148 0.960 . S
C152 N153 1.342 . S
C152 C156 1.401 . S
C152 C157 1.499 . S
N153 Co136 1.989 . S
N153 C152 1.342 . S
N153 N154 1.388 . S
N154 Co137 1.993 . S
N154 N153 1.388 . S
N154 C155 1.346 . S
C155 N154 1.346 . S
C155 C156 1.396 . S
C155 C165 1.510 . S
C156 C152 1.401 . S
C156 C155 1.396 . S
C157 C152 1.499 . S
C157 H158 0.959 . S
C157 H159 0.960 . S
C157 H160 0.961 . S
H158 C157 0.959 . S
H159 C157 0.960 . S
H160 C157 0.961 . S
O161 Co136 1.967 . S
O161 C169 1.258 . S
O162 Co137 1.941 . S
O162 C169 1.266 . S
H163 C165 0.959 . S
H164 C165 0.961 . S
C165 C155 1.510 . S
C165 H163 0.959 . S
C165 H164 0.961 . S
C165 H166 0.960 . S
H166 C165 0.960 . S
H167 N147 0.862 . S
O168 Co136 1.920 . S
O168 C141 1.289 1_455 S
C169 O161 1.258 . S
C169 O162 1.266 . S
Co170 O173 1.970 1_545 S
Co170 N187 1.989 . S
Co170 O195 1.967 . S
Co170 O202 1.920 . S
Co171 O174 1.966 1_545 S
Co171 N180 2.022 . S
Co171 N188 1.993 . S
Co171 O196 1.941 . S
C172 O173 1.258 . S
C172 O174 1.263 . S
O173 Co170 1.970 1_565 S
O173 C172 1.258 . S
O174 Co171 1.966 1_565 S
O174 C172 1.263 . S
C175 O176 1.235 1_554 S
C175 O202 1.289 1_564 S
O176 C175 1.235 1_556 S
C177 C179 1.400 . S
C177 N180 1.351 . S
C177 C182 1.501 1_545 S
C178 C179 1.387 . S
C178 N181 1.341 . S
C179 C177 1.400 . S
C179 C178 1.387 . S
N180 Co171 2.022 . S
N180 C177 1.351 . S
N180 N181 1.365 . S
N181 C178 1.341 . S
N181 N180 1.365 . S
N181 H201 0.862 . S
C182 C177 1.501 1_565 S
C182 H183 0.961 . S
C182 H184 0.961 . S
C182 H185 0.960 . S
H183 C182 0.961 . S
H184 C182 0.961 . S
H185 C182 0.960 . S
C186 N187 1.342 . S
C186 C190 1.401 . S
C186 C191 1.499 . S
N187 Co170 1.989 . S
N187 C186 1.342 . S
N187 N188 1.388 . S
N188 Co171 1.993 . S
N188 N187 1.388 . S
N188 C189 1.346 . S
C189 N188 1.346 . S
C189 C190 1.396 . S
C189 C199 1.510 . S
C190 C186 1.401 . S
C190 C189 1.396 . S
C191 C186 1.499 . S
C191 H192 0.959 . S
C191 H193 0.960 . S
C191 H194 0.961 . S
H192 C191 0.959 . S
H193 C191 0.960 . S
H194 C191 0.961 . S
O195 Co170 1.967 . S
O195 C203 1.258 . S
O196 Co171 1.941 . S
O196 C203 1.266 . S
H197 C199 0.959 . S
H198 C199 0.961 . S
C199 C189 1.510 . S
C199 H197 0.959 . S
C199 H198 0.961 . S
C199 H200 0.960 . S
H200 C199 0.960 . S
H201 N181 0.862 . S
O202 Co170 1.920 . S
O202 C175 1.289 1_546 S
C203 O195 1.258 . S
C203 O196 1.266 . S
Co204 O207 1.970 . S
Co204 N221 1.989 . S
Co204 O229 1.967 . S
Co204 O236 1.920 . S
Co205 O208 1.966 . S
Co205 N214 2.022 . S
Co205 N222 1.993 . S
Co205 O230 1.941 . S
C206 O207 1.258 . S
C206 O208 1.263 . S
O207 Co204 1.970 . S
O207 C206 1.258 . S
O208 Co205 1.966 . S
O208 C206 1.263 . S
C209 O210 1.235 . S
C209 O236 1.289 . S
O210 C209 1.235 . S
C211 C213 1.400 . S
C211 N214 1.351 . S
C211 C216 1.501 . S
C212 C213 1.387 . S
C212 N215 1.341 . S
C213 C211 1.400 . S
C213 C212 1.387 . S
N214 Co205 2.022 . S
N214 C211 1.351 . S
N214 N215 1.365 . S
N215 C212 1.341 . S
N215 N214 1.365 . S
N215 H235 0.862 . S
C216 C211 1.501 . S
C216 H217 0.961 . S
C216 H218 0.961 . S
C216 H219 0.960 . S
H217 C216 0.961 . S
H218 C216 0.961 . S
H219 C216 0.960 . S
C220 N221 1.342 . S
C220 C224 1.401 . S
C220 C225 1.499 . S
N221 Co204 1.989 . S
N221 C220 1.342 . S
N221 N222 1.388 . S
N222 Co205 1.993 . S
N222 N221 1.388 . S
N222 C223 1.346 . S
C223 N222 1.346 . S
C223 C224 1.396 . S
C223 C233 1.510 . S
C224 C220 1.401 . S
C224 C223 1.396 . S
C225 C220 1.499 . S
C225 H226 0.959 . S
C225 H227 0.960 . S
C225 H228 0.961 . S
H226 C225 0.959 . S
H227 C225 0.960 . S
H228 C225 0.961 . S
O229 Co204 1.967 . S
O229 C237 1.258 . S
O230 Co205 1.941 . S
O230 C237 1.266 . S
H231 C233 0.959 . S
H232 C233 0.961 . S
C233 C223 1.510 . S
C233 H231 0.959 . S
C233 H232 0.961 . S
C233 H234 0.960 . S
H234 C233 0.960 . S
H235 N215 0.862 . S
O236 Co204 1.920 . S
O236 C209 1.289 . S
C237 O229 1.258 . S
C237 O230 1.266 . S
Co238 O241 1.970 . S
Co238 N255 1.989 . S
Co238 O263 1.967 . S
Co238 O270 1.920 . S
Co239 O242 1.966 . S
Co239 N248 2.022 . S
Co239 N256 1.993 . S
Co239 O264 1.941 . S
C240 O241 1.258 . S
C240 O242 1.263 . S
O241 Co238 1.970 . S
O241 C240 1.258 . S
O242 Co239 1.966 . S
O242 C240 1.263 . S
C243 O244 1.235 1_554 S
C243 O270 1.289 1_554 S
O244 C243 1.235 1_556 S
C245 C247 1.400 . S
C245 N248 1.351 . S
C245 C250 1.501 . S
C246 C247 1.387 . S
C246 N249 1.341 . S
C247 C245 1.400 . S
C247 C246 1.387 . S
N248 Co239 2.022 . S
N248 C245 1.351 . S
N248 N249 1.365 . S
N249 C246 1.341 . S
N249 N248 1.365 . S
N249 H269 0.862 . S
C250 C245 1.501 . S
C250 H251 0.961 . S
C250 H252 0.961 . S
C250 H253 0.960 . S
H251 C250 0.961 . S
H252 C250 0.961 . S
H253 C250 0.960 . S
C254 N255 1.342 . S
C254 C258 1.401 . S
C254 C259 1.499 . S
N255 Co238 1.989 . S
N255 C254 1.342 . S
N255 N256 1.388 . S
N256 Co239 1.993 . S
N256 N255 1.388 . S
N256 C257 1.346 . S
C257 N256 1.346 . S
C257 C258 1.396 . S
C257 C267 1.510 . S
C258 C254 1.401 . S
C258 C257 1.396 . S
C259 C254 1.499 . S
C259 H260 0.959 . S
C259 H261 0.960 . S
C259 H262 0.961 . S
H260 C259 0.959 . S
H261 C259 0.960 . S
H262 C259 0.961 . S
O263 Co238 1.967 . S
O263 C271 1.258 . S
O264 Co239 1.941 . S
O264 C271 1.266 . S
H265 C267 0.959 . S
H266 C267 0.961 . S
C267 C257 1.510 . S
C267 H265 0.959 . S
C267 H266 0.961 . S
C267 H268 0.960 . S
H268 C267 0.960 . S
H269 N249 0.862 . S
O270 Co238 1.920 . S
O270 C243 1.289 1_556 S
C271 O263 1.258 . S
C271 O264 1.266 . S
Co272 O275 1.970 1_655 S
Co272 N289 1.989 . S
Co272 O297 1.967 . S
Co272 O304 1.920 . S
Co273 O276 1.966 1_655 S
Co273 N282 2.022 . S
Co273 N290 1.993 . S
Co273 O298 1.941 . S
C274 O275 1.258 . S
C274 O276 1.263 . S
O275 Co272 1.970 1_455 S
O275 C274 1.258 . S
O276 Co273 1.966 1_455 S
O276 C274 1.263 . S
C277 O278 1.235 1_554 S
C277 O304 1.289 1_454 S
O278 C277 1.235 1_556 S
C279 C281 1.400 . S
C279 N282 1.351 . S
C279 C284 1.501 1_655 S
C280 C281 1.387 . S
C280 N283 1.341 . S
C281 C279 1.400 . S
C281 C280 1.387 . S
N282 Co273 2.022 . S
N282 C279 1.351 . S
N282 N283 1.365 . S
N283 C280 1.341 . S
N283 N282 1.365 . S
N283 H303 0.862 . S
C284 C279 1.501 1_455 S
C284 H285 0.961 . S
C284 H286 0.961 . S
C284 H287 0.960 . S
H285 C284 0.961 . S
H286 C284 0.961 . S
H287 C284 0.960 . S
C288 N289 1.342 . S
C288 C292 1.401 . S
C288 C293 1.499 . S
N289 Co272 1.989 . S
N289 C288 1.342 . S
N289 N290 1.388 . S
N290 Co273 1.993 . S
N290 N289 1.388 . S
N290 C291 1.346 . S
C291 N290 1.346 . S
C291 C292 1.396 . S
C291 C301 1.510 . S
C292 C288 1.401 . S
C292 C291 1.396 . S
C293 C288 1.499 . S
C293 H294 0.959 . S
C293 H295 0.960 . S
C293 H296 0.961 . S
H294 C293 0.959 . S
H295 C293 0.960 . S
H296 C293 0.961 . S
O297 Co272 1.967 . S
O297 C305 1.258 . S
O298 Co273 1.941 . S
O298 C305 1.266 . S
H299 C301 0.959 . S
H300 C301 0.961 . S
C301 C291 1.510 . S
C301 H299 0.959 . S
C301 H300 0.961 . S
C301 H302 0.960 . S
H302 C301 0.960 . S
H303 N283 0.862 . S
O304 Co272 1.920 . S
O304 C277 1.289 1_656 S
C305 O297 1.258 . S
C305 O298 1.266 . S
Co306 O309 1.970 1_565 S
Co306 N323 1.989 . S
Co306 O331 1.967 . S
Co306 O338 1.920 . S
Co307 O310 1.966 1_565 S
Co307 N316 2.022 . S
Co307 N324 1.993 . S
Co307 O332 1.941 . S
C308 O309 1.258 . S
C308 O310 1.263 . S
O309 Co306 1.970 1_545 S
O309 C308 1.258 . S
O310 Co307 1.966 1_545 S
O310 C308 1.263 . S
C311 O312 1.235 . S
C311 O338 1.289 1_545 S
O312 C311 1.235 . S
C313 C315 1.400 . S
C313 N316 1.351 . S
C313 C318 1.501 1_565 S
C314 C315 1.387 . S
C314 N317 1.341 . S
C315 C313 1.400 . S
C315 C314 1.387 . S
N316 Co307 2.022 . S
N316 C313 1.351 . S
N316 N317 1.365 . S
N317 C314 1.341 . S
N317 N316 1.365 . S
N317 H337 0.862 . S
C318 C313 1.501 1_545 S
C318 H319 0.961 . S
C318 H320 0.961 . S
C318 H321 0.960 . S
H319 C318 0.961 . S
H320 C318 0.961 . S
H321 C318 0.960 . S
C322 N323 1.342 . S
C322 C326 1.401 . S
C322 C327 1.499 . S
N323 Co306 1.989 . S
N323 C322 1.342 . S
N323 N324 1.388 . S
N324 Co307 1.993 . S
N324 N323 1.388 . S
N324 C325 1.346 . S
C325 N324 1.346 . S
C325 C326 1.396 . S
C325 C335 1.510 . S
C326 C322 1.401 . S
C326 C325 1.396 . S
C327 C322 1.499 . S
C327 H328 0.959 . S
C327 H329 0.960 . S
C327 H330 0.961 . S
H328 C327 0.959 . S
H329 C327 0.960 . S
H330 C327 0.961 . S
O331 Co306 1.967 . S
O331 C339 1.258 . S
O332 Co307 1.941 . S
O332 C339 1.266 . S
H333 C335 0.959 . S
H334 C335 0.961 . S
C335 C325 1.510 . S
C335 H333 0.959 . S
C335 H334 0.961 . S
C335 H336 0.960 . S
H336 C335 0.960 . S
H337 N317 0.862 . S
O338 Co306 1.920 . S
O338 C311 1.289 1_565 S
C339 O331 1.258 . S
C339 O332 1.266 . S
Co340 O343 1.970 . S
Co340 N357 1.989 . S
Co340 O365 1.967 . S
Co340 O372 1.920 . S
Co341 O344 1.966 . S
Co341 N350 2.022 . S
Co341 N358 1.993 . S
Co341 O366 1.941 . S
C342 O343 1.258 . S
C342 O344 1.263 . S
O343 Co340 1.970 . S
O343 C342 1.258 . S
O344 Co341 1.966 . S
O344 C342 1.263 . S
C345 O346 1.235 1_554 S
C345 O372 1.289 1_554 S
O346 C345 1.235 1_556 S
C347 C349 1.400 . S
C347 N350 1.351 . S
C347 C352 1.501 . S
C348 C349 1.387 . S
C348 N351 1.341 . S
C349 C347 1.400 . S
C349 C348 1.387 . S
N350 Co341 2.022 . S
N350 C347 1.351 . S
N350 N351 1.365 . S
N351 C348 1.341 . S
N351 N350 1.365 . S
N351 H371 0.862 . S
C352 C347 1.501 . S
C352 H353 0.961 . S
C352 H354 0.961 . S
C352 H355 0.960 . S
H353 C352 0.961 . S
H354 C352 0.961 . S
H355 C352 0.960 . S
C356 N357 1.342 . S
C356 C360 1.401 . S
C356 C361 1.499 . S
N357 Co340 1.989 . S
N357 C356 1.342 . S
N357 N358 1.388 . S
N358 Co341 1.993 . S
N358 N357 1.388 . S
N358 C359 1.346 . S
C359 N358 1.346 . S
C359 C360 1.396 . S
C359 C369 1.510 . S
C360 C356 1.401 . S
C360 C359 1.396 . S
C361 C356 1.499 . S
C361 H362 0.959 . S
C361 H363 0.960 . S
C361 H364 0.961 . S
H362 C361 0.959 . S
H363 C361 0.960 . S
H364 C361 0.961 . S
O365 Co340 1.967 . S
O365 C373 1.258 . S
O366 Co341 1.941 . S
O366 C373 1.266 . S
H367 C369 0.959 . S
H368 C369 0.961 . S
C369 C359 1.510 . S
C369 H367 0.959 . S
C369 H368 0.961 . S
C369 H370 0.960 . S
H370 C369 0.960 . S
H371 N351 0.862 . S
O372 Co340 1.920 . S
O372 C345 1.289 1_556 S
C373 O365 1.258 . S
C373 O366 1.266 . S
Co374 O377 1.970 . S
Co374 N391 1.989 . S
Co374 O399 1.967 . S
Co374 O406 1.920 . S
Co375 O378 1.966 . S
Co375 N384 2.022 . S
Co375 N392 1.993 . S
Co375 O400 1.941 . S
C376 O377 1.258 . S
C376 O378 1.263 . S
O377 Co374 1.970 . S
O377 C376 1.258 . S
O378 Co375 1.966 . S
O378 C376 1.263 . S
C379 O380 1.235 . S
C379 O406 1.289 . S
O380 C379 1.235 . S
C381 C383 1.400 . S
C381 N384 1.351 . S
C381 C386 1.501 . S
C382 C383 1.387 . S
C382 N385 1.341 . S
C383 C381 1.400 . S
C383 C382 1.387 . S
N384 Co375 2.022 . S
N384 C381 1.351 . S
N384 N385 1.365 . S
N385 C382 1.341 . S
N385 N384 1.365 . S
N385 H405 0.862 . S
C386 C381 1.501 . S
C386 H387 0.961 . S
C386 H388 0.961 . S
C386 H389 0.960 . S
H387 C386 0.961 . S
H388 C386 0.961 . S
H389 C386 0.960 . S
C390 N391 1.342 . S
C390 C394 1.401 . S
C390 C395 1.499 . S
N391 Co374 1.989 . S
N391 C390 1.342 . S
N391 N392 1.388 . S
N392 Co375 1.993 . S
N392 N391 1.388 . S
N392 C393 1.346 . S
C393 N392 1.346 . S
C393 C394 1.396 . S
C393 C403 1.510 . S
C394 C390 1.401 . S
C394 C393 1.396 . S
C395 C390 1.499 . S
C395 H396 0.959 . S
C395 H397 0.960 . S
C395 H398 0.961 . S
H396 C395 0.959 . S
H397 C395 0.960 . S
H398 C395 0.961 . S
O399 Co374 1.967 . S
O399 C407 1.258 . S
O400 Co375 1.941 . S
O400 C407 1.266 . S
H401 C403 0.959 . S
H402 C403 0.961 . S
C403 C393 1.510 . S
C403 H401 0.959 . S
C403 H402 0.961 . S
C403 H404 0.960 . S
H404 C403 0.960 . S
H405 N385 0.862 . S
O406 Co374 1.920 . S
O406 C379 1.289 . S
C407 O399 1.258 . S
C407 O400 1.266 . S
Co408 O411 1.970 1_655 S
Co408 N425 1.989 . S
Co408 O433 1.967 . S
Co408 O440 1.920 . S
Co409 O412 1.966 1_655 S
Co409 N418 2.022 . S
Co409 N426 1.993 . S
Co409 O434 1.941 . S
C410 O411 1.258 . S
C410 O412 1.263 . S
O411 Co408 1.970 1_455 S
O411 C410 1.258 . S
O412 Co409 1.966 1_455 S
O412 C410 1.263 . S
C413 O414 1.235 . S
C413 O440 1.289 1_455 S
O414 C413 1.235 . S
C415 C417 1.400 . S
C415 N418 1.351 . S
C415 C420 1.501 1_655 S
C416 C417 1.387 . S
C416 N419 1.341 . S
C417 C415 1.400 . S
C417 C416 1.387 . S
N418 Co409 2.022 . S
N418 C415 1.351 . S
N418 N419 1.365 . S
N419 C416 1.341 . S
N419 N418 1.365 . S
N419 H439 0.862 . S
C420 C415 1.501 1_455 S
C420 H421 0.961 . S
C420 H422 0.961 . S
C420 H423 0.960 . S
H421 C420 0.961 . S
H422 C420 0.961 . S
H423 C420 0.960 . S
C424 N425 1.342 . S
C424 C428 1.401 . S
C424 C429 1.499 . S
N425 Co408 1.989 . S
N425 C424 1.342 . S
N425 N426 1.388 . S
N426 Co409 1.993 . S
N426 N425 1.388 . S
N426 C427 1.346 . S
C427 N426 1.346 . S
C427 C428 1.396 . S
C427 C437 1.510 . S
C428 C424 1.401 . S
C428 C427 1.396 . S
C429 C424 1.499 . S
C429 H430 0.959 . S
C429 H431 0.960 . S
C429 H432 0.961 . S
H430 C429 0.959 . S
H431 C429 0.960 . S
H432 C429 0.961 . S
O433 Co408 1.967 . S
O433 C441 1.258 . S
O434 Co409 1.941 . S
O434 C441 1.266 . S
H435 C437 0.959 . S
H436 C437 0.961 . S
C437 C427 1.510 . S
C437 H435 0.959 . S
C437 H436 0.961 . S
C437 H438 0.960 . S
H438 C437 0.960 . S
H439 N419 0.862 . S
O440 Co408 1.920 . S
O440 C413 1.289 1_655 S
C441 O433 1.258 . S
C441 O434 1.266 . S
Co442 O445 1.970 1_565 S
Co442 N459 1.989 . S
Co442 O467 1.967 . S
Co442 O474 1.920 . S
Co443 O446 1.966 1_565 S
Co443 N452 2.022 . S
Co443 N460 1.993 . S
Co443 O468 1.941 . S
C444 O445 1.258 . S
C444 O446 1.263 . S
O445 Co442 1.970 1_545 S
O445 C444 1.258 . S
O446 Co443 1.966 1_545 S
O446 C444 1.263 . S
C447 O448 1.235 1_556 S
C447 O474 1.289 1_546 S
O448 C447 1.235 1_554 S
C449 C451 1.400 . S
C449 N452 1.351 . S
C449 C454 1.501 1_565 S
C450 C451 1.387 . S
C450 N453 1.341 . S
C451 C449 1.400 . S
C451 C450 1.387 . S
N452 Co443 2.022 . S
N452 C449 1.351 . S
N452 N453 1.365 . S
N453 C450 1.341 . S
N453 N452 1.365 . S
N453 H473 0.862 . S
C454 C449 1.501 1_545 S
C454 H455 0.961 . S
C454 H456 0.961 . S
C454 H457 0.960 . S
H455 C454 0.961 . S
H456 C454 0.961 . S
H457 C454 0.960 . S
C458 N459 1.342 . S
C458 C462 1.401 . S
C458 C463 1.499 . S
N459 Co442 1.989 . S
N459 C458 1.342 . S
N459 N460 1.388 . S
N460 Co443 1.993 . S
N460 N459 1.388 . S
N460 C461 1.346 . S
C461 N460 1.346 . S
C461 C462 1.396 . S
C461 C471 1.510 . S
C462 C458 1.401 . S
C462 C461 1.396 . S
C463 C458 1.499 . S
C463 H464 0.959 . S
C463 H465 0.960 . S
C463 H466 0.961 . S
H464 C463 0.959 . S
H465 C463 0.960 . S
H466 C463 0.961 . S
O467 Co442 1.967 . S
O467 C475 1.258 . S
O468 Co443 1.941 . S
O468 C475 1.266 . S
H469 C471 0.959 . S
H470 C471 0.961 . S
C471 C461 1.510 . S
C471 H469 0.959 . S
C471 H470 0.961 . S
C471 H472 0.960 . S
H472 C471 0.960 . S
H473 N453 0.862 . S
O474 Co442 1.920 . S
O474 C447 1.289 1_564 S
C475 O467 1.258 . S
C475 O468 1.266 . S
Co476 O479 1.970 . S
Co476 N493 1.989 . S
Co476 O501 1.967 . S
Co476 O508 1.920 . S
Co477 O480 1.966 . S
Co477 N486 2.022 . S
Co477 N494 1.993 . S
Co477 O502 1.941 . S
C478 O479 1.258 . S
C478 O480 1.263 . S
O479 Co476 1.970 . S
O479 C478 1.258 . S
O480 Co477 1.966 . S
O480 C478 1.263 . S
C481 O482 1.235 . S
C481 O508 1.289 . S
O482 C481 1.235 . S
C483 C485 1.400 . S
C483 N486 1.351 . S
C483 C488 1.501 . S
C484 C485 1.387 . S
C484 N487 1.341 . S
C485 C483 1.400 . S
C485 C484 1.387 . S
N486 Co477 2.022 . S
N486 C483 1.351 . S
N486 N487 1.365 . S
N487 C484 1.341 . S
N487 N486 1.365 . S
N487 H507 0.862 . S
C488 C483 1.501 . S
C488 H489 0.961 . S
C488 H490 0.961 . S
C488 H491 0.960 . S
H489 C488 0.961 . S
H490 C488 0.961 . S
H491 C488 0.960 . S
C492 N493 1.342 . S
C492 C496 1.401 . S
C492 C497 1.499 . S
N493 Co476 1.989 . S
N493 C492 1.342 . S
N493 N494 1.388 . S
N494 Co477 1.993 . S
N494 N493 1.388 . S
N494 C495 1.346 . S
C495 N494 1.346 . S
C495 C496 1.396 . S
C495 C505 1.510 . S
C496 C492 1.401 . S
C496 C495 1.396 . S
C497 C492 1.499 . S
C497 H498 0.959 . S
C497 H499 0.960 . S
C497 H500 0.961 . S
H498 C497 0.959 . S
H499 C497 0.960 . S
H500 C497 0.961 . S
O501 Co476 1.967 . S
O501 C509 1.258 . S
O502 Co477 1.941 . S
O502 C509 1.266 . S
H503 C505 0.959 . S
H504 C505 0.961 . S
C505 C495 1.510 . S
C505 H503 0.959 . S
C505 H504 0.961 . S
C505 H506 0.960 . S
H506 C505 0.960 . S
H507 N487 0.862 . S
O508 Co476 1.920 . S
O508 C481 1.289 . S
C509 O501 1.258 . S
C509 O502 1.266 . S
Co510 O513 1.970 . S
Co510 N527 1.989 . S
Co510 O535 1.967 . S
Co510 O542 1.920 . S
Co511 O514 1.966 . S
Co511 N520 2.022 . S
Co511 N528 1.993 . S
Co511 O536 1.941 . S
C512 O513 1.258 . S
C512 O514 1.263 . S
O513 Co510 1.970 . S
O513 C512 1.258 . S
O514 Co511 1.966 . S
O514 C512 1.263 . S
C515 O516 1.235 1_556 S
C515 O542 1.289 1_556 S
O516 C515 1.235 1_554 S
C517 C519 1.400 . S
C517 N520 1.351 . S
C517 C522 1.501 . S
C518 C519 1.387 . S
C518 N521 1.341 . S
C519 C517 1.400 . S
C519 C518 1.387 . S
N520 Co511 2.022 . S
N520 C517 1.351 . S
N520 N521 1.365 . S
N521 C518 1.341 . S
N521 N520 1.365 . S
N521 H541 0.862 . S
C522 C517 1.501 . S
C522 H523 0.961 . S
C522 H524 0.961 . S
C522 H525 0.960 . S
H523 C522 0.961 . S
H524 C522 0.961 . S
H525 C522 0.960 . S
C526 N527 1.342 . S
C526 C530 1.401 . S
C526 C531 1.499 . S
N527 Co510 1.989 . S
N527 C526 1.342 . S
N527 N528 1.388 . S
N528 Co511 1.993 . S
N528 N527 1.388 . S
N528 C529 1.346 . S
C529 N528 1.346 . S
C529 C530 1.396 . S
C529 C539 1.510 . S
C530 C526 1.401 . S
C530 C529 1.396 . S
C531 C526 1.499 . S
C531 H532 0.959 . S
C531 H533 0.960 . S
C531 H534 0.961 . S
H532 C531 0.959 . S
H533 C531 0.960 . S
H534 C531 0.961 . S
O535 Co510 1.967 . S
O535 C543 1.258 . S
O536 Co511 1.941 . S
O536 C543 1.266 . S
H537 C539 0.959 . S
H538 C539 0.961 . S
C539 C529 1.510 . S
C539 H537 0.959 . S
C539 H538 0.961 . S
C539 H540 0.960 . S
H540 C539 0.960 . S
H541 N521 0.862 . S
O542 Co510 1.920 . S
O542 C515 1.289 1_554 S
C543 O535 1.258 . S
C543 O536 1.266 . S
C544 C545 1.349 . S
C544 C546 1.327 . S
C544 H569 0.950 . S
C545 C544 1.349 . S
C545 C561 1.349 . S
C546 C544 1.327 . S
C546 C565 1.429 . S
C546 H570 0.950 . S
C547 C564 1.574 . S
C547 C566 1.368 . S
C547 H571 0.949 . S
H548 C552 0.949 . S
C549 C550 1.349 . S
C549 C551 1.327 . S
C549 H572 0.950 . S
C550 C549 1.349 . S
C550 C562 1.349 . S
C551 C549 1.327 . S
C551 C567 1.429 . S
C551 H573 0.950 . S
C552 H548 0.949 . S
C552 C560 1.574 . S
C552 C568 1.368 . S
H553 C561 0.950 . S
H554 C559 0.950 . S
H555 C560 0.949 . S
H556 C562 0.950 . S
H557 C563 0.950 . S
H558 C564 0.949 . S
C559 H554 0.950 . S
C559 C561 1.327 . S
C559 C565 1.429 . S
C560 C552 1.574 . S
C560 H555 0.949 . S
C560 C566 1.368 . S
C561 C545 1.349 . S
C561 H553 0.950 . S
C561 C559 1.327 . S
C562 C550 1.349 . S
C562 H556 0.950 . S
C562 C563 1.327 . S
C563 H557 0.950 . S
C563 C562 1.327 . S
C563 C567 1.429 . S
C564 C547 1.574 . S
C564 H558 0.949 . S
C564 C568 1.368 . S
C565 C546 1.429 . S
C565 C559 1.429 . S
C565 C566 1.523 . S
C566 C547 1.368 . S
C566 C560 1.368 . S
C566 C565 1.523 . S
C567 C551 1.429 . S
C567 C563 1.429 . S
C567 C568 1.523 . S
C568 C552 1.368 . S
C568 C564 1.368 . S
C568 C567 1.523 . S
H569 C544 0.950 . S
H570 C546 0.950 . S
H571 C547 0.949 . S
H572 C549 0.950 . S
H573 C551 0.950 . S
C574 C575 1.349 . S
C574 C576 1.327 . S
C574 H599 0.950 . S
C575 C574 1.349 . S
C575 C591 1.349 . S
C576 C574 1.327 . S
C576 C595 1.429 . S
C576 H600 0.950 . S
C577 C594 1.574 . S
C577 C596 1.368 . S
C577 H601 0.949 . S
H578 C582 0.949 . S
C579 C580 1.349 . S
C579 C581 1.327 . S
C579 H602 0.950 . S
C580 C579 1.349 . S
C580 C592 1.349 . S
C581 C579 1.327 . S
C581 C597 1.429 . S
C581 H603 0.950 . S
C582 H578 0.949 . S
C582 C590 1.574 . S
C582 C598 1.368 . S
H583 C591 0.950 . S
H584 C589 0.950 . S
H585 C590 0.949 . S
H586 C592 0.950 . S
H587 C593 0.950 . S
H588 C594 0.949 . S
C589 H584 0.950 . S
C589 C591 1.327 . S
C589 C595 1.429 . S
C590 C582 1.574 . S
C590 H585 0.949 . S
C590 C596 1.368 . S
C591 C575 1.349 . S
C591 H583 0.950 . S
C591 C589 1.327 . S
C592 C580 1.349 . S
C592 H586 0.950 . S
C592 C593 1.327 . S
C593 H587 0.950 . S
C593 C592 1.327 . S
C593 C597 1.429 . S
C594 C577 1.574 . S
C594 H588 0.949 . S
C594 C598 1.368 . S
C595 C576 1.429 . S
C595 C589 1.429 . S
C595 C596 1.523 . S
C596 C577 1.368 . S
C596 C590 1.368 . S
C596 C595 1.523 . S
C597 C581 1.429 . S
C597 C593 1.429 . S
C597 C598 1.523 . S
C598 C582 1.368 . S
C598 C594 1.368 . S
C598 C597 1.523 . S
H599 C574 0.950 . S
H600 C576 0.950 . S
H601 C577 0.949 . S
H602 C579 0.950 . S
H603 C581 0.950 . S
C604 C605 1.349 . S
C604 C606 1.327 . S
C604 H629 0.950 . S
C605 C604 1.349 . S
C605 C621 1.349 . S
C606 C604 1.327 . S
C606 C625 1.429 . S
C606 H630 0.950 . S
C607 C624 1.574 . S
C607 C626 1.368 . S
C607 H631 0.949 . S
H608 C612 0.949 . S
C609 C610 1.349 . S
C609 C611 1.327 . S
C609 H632 0.950 . S
C610 C609 1.349 . S
C610 C622 1.349 . S
C611 C609 1.327 . S
C611 C627 1.429 . S
C611 H633 0.950 . S
C612 H608 0.949 . S
C612 C620 1.574 . S
C612 C628 1.368 . S
H613 C621 0.950 . S
H614 C619 0.950 . S
H615 C620 0.949 . S
H616 C622 0.950 . S
H617 C623 0.950 . S
H618 C624 0.949 . S
C619 H614 0.950 . S
C619 C621 1.327 . S
C619 C625 1.429 . S
C620 C612 1.574 . S
C620 H615 0.949 . S
C620 C626 1.368 . S
C621 C605 1.349 . S
C621 H613 0.950 . S
C621 C619 1.327 . S
C622 C610 1.349 . S
C622 H616 0.950 . S
C622 C623 1.327 . S
C623 H617 0.950 . S
C623 C622 1.327 . S
C623 C627 1.429 . S
C624 C607 1.574 . S
C624 H618 0.949 . S
C624 C628 1.368 . S
C625 C606 1.429 . S
C625 C619 1.429 . S
C625 C626 1.523 . S
C626 C607 1.368 . S
C626 C620 1.368 . S
C626 C625 1.523 . S
C627 C611 1.429 . S
C627 C623 1.429 . S
C627 C628 1.523 . S
C628 C612 1.368 . S
C628 C624 1.368 . S
C628 C627 1.523 . S
H629 C604 0.950 . S
H630 C606 0.950 . S
H631 C607 0.949 . S
H632 C609 0.950 . S
H633 C611 0.950 . S
C634 C635 1.349 . S
C634 C636 1.327 . S
C634 H659 0.950 . S
C635 C634 1.349 . S
C635 C651 1.349 . S
C636 C634 1.327 . S
C636 C655 1.429 . S
C636 H660 0.950 . S
C637 C654 1.574 . S
C637 C656 1.368 . S
C637 H661 0.949 . S
H638 C642 0.949 . S
C639 C640 1.349 . S
C639 C641 1.327 . S
C639 H662 0.950 . S
C640 C639 1.349 . S
C640 C652 1.349 . S
C641 C639 1.327 . S
C641 C657 1.429 . S
C641 H663 0.950 . S
C642 H638 0.949 . S
C642 C650 1.574 . S
C642 C658 1.368 . S
H643 C651 0.950 . S
H644 C649 0.950 . S
H645 C650 0.949 . S
H646 C652 0.950 . S
H647 C653 0.950 . S
H648 C654 0.949 . S
C649 H644 0.950 . S
C649 C651 1.327 . S
C649 C655 1.429 . S
C650 C642 1.574 . S
C650 H645 0.949 . S
C650 C656 1.368 . S
C651 C635 1.349 . S
C651 H643 0.950 . S
C651 C649 1.327 . S
C652 C640 1.349 . S
C652 H646 0.950 . S
C652 C653 1.327 . S
C653 H647 0.950 . S
C653 C652 1.327 . S
C653 C657 1.429 . S
C654 C637 1.574 . S
C654 H648 0.949 . S
C654 C658 1.368 . S
C655 C636 1.429 . S
C655 C649 1.429 . S
C655 C656 1.523 . S
C656 C637 1.368 . S
C656 C650 1.368 . S
C656 C655 1.523 . S
C657 C641 1.429 . S
C657 C653 1.429 . S
C657 C658 1.523 . S
C658 C642 1.368 . S
C658 C654 1.368 . S
C658 C657 1.523 . S
H659 C634 0.950 . S
H660 C636 0.950 . S
H661 C637 0.949 . S
H662 C639 0.950 . S
H663 C641 0.950 . S
C664 C665 1.349 . S
C664 C666 1.327 . S
C664 H689 0.950 . S
C665 C664 1.349 . S
C665 C681 1.349 . S
C666 C664 1.327 . S
C666 C685 1.429 . S
C666 H690 0.950 . S
C667 C684 1.574 . S
C667 C686 1.368 . S
C667 H691 0.949 . S
H668 C672 0.949 . S
C669 C670 1.349 . S
C669 C671 1.327 . S
C669 H692 0.950 . S
C670 C669 1.349 . S
C670 C682 1.349 . S
C671 C669 1.327 . S
C671 C687 1.429 . S
C671 H693 0.950 . S
C672 H668 0.949 . S
C672 C680 1.574 . S
C672 C688 1.368 . S
H673 C681 0.950 . S
H674 C679 0.950 . S
H675 C680 0.949 . S
H676 C682 0.950 . S
H677 C683 0.950 . S
H678 C684 0.949 . S
C679 H674 0.950 . S
C679 C681 1.327 . S
C679 C685 1.429 . S
C680 C672 1.574 . S
C680 H675 0.949 . S
C680 C686 1.368 . S
C681 C665 1.349 . S
C681 H673 0.950 . S
C681 C679 1.327 . S
C682 C670 1.349 . S
C682 H676 0.950 . S
C682 C683 1.327 . S
C683 H677 0.950 . S
C683 C682 1.327 . S
C683 C687 1.429 . S
C684 C667 1.574 . S
C684 H678 0.949 . S
C684 C688 1.368 . S
C685 C666 1.429 . S
C685 C679 1.429 . S
C685 C686 1.523 . S
C686 C667 1.368 . S
C686 C680 1.368 . S
C686 C685 1.523 . S
C687 C671 1.429 . S
C687 C683 1.429 . S
C687 C688 1.523 . S
C688 C672 1.368 . S
C688 C684 1.368 . S
C688 C687 1.523 . S
H689 C664 0.950 . S
H690 C666 0.950 . S
H691 C667 0.949 . S
H692 C669 0.950 . S
H693 C671 0.950 . S
C694 C695 1.349 . S
C694 C696 1.327 . S
C694 H719 0.950 . S
C695 C694 1.349 . S
C695 C711 1.349 . S
C696 C694 1.327 . S
C696 C715 1.429 . S
C696 H720 0.950 . S
C697 C714 1.574 . S
C697 C716 1.368 . S
C697 H721 0.949 . S
H698 C702 0.949 . S
C699 C700 1.349 . S
C699 C701 1.327 . S
C699 H722 0.950 . S
C700 C699 1.349 . S
C700 C712 1.349 . S
C701 C699 1.327 . S
C701 C717 1.429 . S
C701 H723 0.950 . S
C702 H698 0.949 . S
C702 C710 1.574 . S
C702 C718 1.368 . S
H703 C711 0.950 . S
H704 C709 0.950 . S
H705 C710 0.949 . S
H706 C712 0.950 . S
H707 C713 0.950 . S
H708 C714 0.949 . S
C709 H704 0.950 . S
C709 C711 1.327 . S
C709 C715 1.429 . S
C710 C702 1.574 . S
C710 H705 0.949 . S
C710 C716 1.368 . S
C711 C695 1.349 . S
C711 H703 0.950 . S
C711 C709 1.327 . S
C712 C700 1.349 . S
C712 H706 0.950 . S
C712 C713 1.327 . S
C713 H707 0.950 . S
C713 C712 1.327 . S
C713 C717 1.429 . S
C714 C697 1.574 . S
C714 H708 0.949 . S
C714 C718 1.368 . S
C715 C696 1.429 . S
C715 C709 1.429 . S
C715 C716 1.523 . S
C716 C697 1.368 . S
C716 C710 1.368 . S
C716 C715 1.523 . S
C717 C701 1.429 . S
C717 C713 1.429 . S
C717 C718 1.523 . S
C718 C702 1.368 . S
C718 C714 1.368 . S
C718 C717 1.523 . S
H719 C694 0.950 . S
H720 C696 0.950 . S
H721 C697 0.949 . S
H722 C699 0.950 . S
H723 C701 0.950 . S
C724 C725 1.349 . S
C724 C726 1.327 . S
C724 H749 0.950 . S
C725 C724 1.349 . S
C725 C741 1.349 . S
C726 C724 1.327 . S
C726 C745 1.429 . S
C726 H750 0.950 . S
C727 C744 1.574 . S
C727 C746 1.368 . S
C727 H751 0.949 . S
H728 C732 0.949 . S
C729 C730 1.349 . S
C729 C731 1.327 . S
C729 H752 0.950 . S
C730 C729 1.349 . S
C730 C742 1.349 . S
C731 C729 1.327 . S
C731 C747 1.429 . S
C731 H753 0.950 . S
C732 H728 0.949 . S
C732 C740 1.574 . S
C732 C748 1.368 . S
H733 C741 0.950 . S
H734 C739 0.950 . S
H735 C740 0.949 . S
H736 C742 0.950 . S
H737 C743 0.950 . S
H738 C744 0.949 . S
C739 H734 0.950 . S
C739 C741 1.327 . S
C739 C745 1.429 . S
C740 C732 1.574 . S
C740 H735 0.949 . S
C740 C746 1.368 . S
C741 C725 1.349 . S
C741 H733 0.950 . S
C741 C739 1.327 . S
C742 C730 1.349 . S
C742 H736 0.950 . S
C742 C743 1.327 . S
C743 H737 0.950 . S
C743 C742 1.327 . S
C743 C747 1.429 . S
C744 C727 1.574 . S
C744 H738 0.949 . S
C744 C748 1.368 . S
C745 C726 1.429 . S
C745 C739 1.429 . S
C745 C746 1.523 . S
C746 C727 1.368 . S
C746 C740 1.368 . S
C746 C745 1.523 . S
C747 C731 1.429 . S
C747 C743 1.429 . S
C747 C748 1.523 . S
C748 C732 1.368 . S
C748 C744 1.368 . S
C748 C747 1.523 . S
H749 C724 0.950 . S
H750 C726 0.950 . S
H751 C727 0.949 . S
H752 C729 0.950 . S
H753 C731 0.950 . S
C754 C755 1.349 . S
C754 C756 1.327 . S
C754 H779 0.950 . S
C755 C754 1.349 . S
C755 C771 1.349 . S
C756 C754 1.327 . S
C756 C775 1.429 . S
C756 H780 0.950 . S
C757 C774 1.574 . S
C757 C776 1.368 . S
C757 H781 0.949 . S
H758 C762 0.949 . S
C759 C760 1.349 . S
C759 C761 1.327 . S
C759 H782 0.950 . S
C760 C759 1.349 . S
C760 C772 1.349 . S
C761 C759 1.327 . S
C761 C777 1.429 . S
C761 H783 0.950 . S
C762 H758 0.949 . S
C762 C770 1.574 . S
C762 C778 1.368 . S
H763 C771 0.950 . S
H764 C769 0.950 . S
H765 C770 0.949 . S
H766 C772 0.950 . S
H767 C773 0.950 . S
H768 C774 0.949 . S
C769 H764 0.950 . S
C769 C771 1.327 . S
C769 C775 1.429 . S
C770 C762 1.574 . S
C770 H765 0.949 . S
C770 C776 1.368 . S
C771 C755 1.349 . S
C771 H763 0.950 . S
C771 C769 1.327 . S
C772 C760 1.349 . S
C772 H766 0.950 . S
C772 C773 1.327 . S
C773 H767 0.950 . S
C773 C772 1.327 . S
C773 C777 1.429 . S
C774 C757 1.574 . S
C774 H768 0.949 . S
C774 C778 1.368 . S
C775 C756 1.429 . S
C775 C769 1.429 . S
C775 C776 1.523 . S
C776 C757 1.368 . S
C776 C770 1.368 . S
C776 C775 1.523 . S
C777 C761 1.429 . S
C777 C773 1.429 . S
C777 C778 1.523 . S
C778 C762 1.368 . S
C778 C774 1.368 . S
C778 C777 1.523 . S
H779 C754 0.950 . S
H780 C756 0.950 . S
H781 C757 0.949 . S
H782 C759 0.950 . S
H783 C761 0.950 . S
C784 C785 1.349 . S
C784 C786 1.327 . S
C784 H809 0.950 . S
C785 C784 1.349 . S
C785 C801 1.349 . S
C786 C784 1.327 . S
C786 C805 1.429 . S
C786 H810 0.950 . S
C787 C804 1.574 . S
C787 C806 1.368 1_556 S
C787 H811 0.949 . S
H788 C792 0.949 . S
C789 C790 1.349 . S
C789 C791 1.327 . S
C789 H812 0.950 . S
C790 C789 1.349 . S
C790 C802 1.349 . S
C791 C789 1.327 . S
C791 C807 1.429 . S
C791 H813 0.950 . S
C792 H788 0.949 . S
C792 C800 1.574 . S
C792 C808 1.368 1_554 S
H793 C801 0.950 . S
H794 C799 0.950 . S
H795 C800 0.949 . S
H796 C802 0.950 . S
H797 C803 0.950 . S
H798 C804 0.949 . S
C799 H794 0.950 . S
C799 C801 1.327 . S
C799 C805 1.429 . S
C800 C792 1.574 . S
C800 H795 0.949 . S
C800 C806 1.368 . S
C801 C785 1.349 . S
C801 H793 0.950 . S
C801 C799 1.327 . S
C802 C790 1.349 . S
C802 H796 0.950 . S
C802 C803 1.327 . S
C803 H797 0.950 . S
C803 C802 1.327 . S
C803 C807 1.429 . S
C804 C787 1.574 . S
C804 H798 0.949 . S
C804 C808 1.368 . S
C805 C786 1.429 . S
C805 C799 1.429 . S
C805 C806 1.523 . S
C806 C787 1.368 1_554 S
C806 C800 1.368 . S
C806 C805 1.523 . S
C807 C791 1.429 . S
C807 C803 1.429 . S
C807 C808 1.523 . S
C808 C792 1.368 1_556 S
C808 C804 1.368 . S
C808 C807 1.523 . S
H809 C784 0.950 . S
H810 C786 0.950 . S
H811 C787 0.949 . S
H812 C789 0.950 . S
H813 C791 0.950 . S
C814 C815 1.349 . S
C814 C816 1.327 . S
C814 H839 0.950 . S
C815 C814 1.349 . S
C815 C831 1.349 . S
C816 C814 1.327 . S
C816 C835 1.429 . S
C816 H840 0.950 . S
C817 C834 1.574 . S
C817 C836 1.368 . S
C817 H841 0.949 . S
H818 C822 0.949 . S
C819 C820 1.349 . S
C819 C821 1.327 . S
C819 H842 0.950 . S
C820 C819 1.349 . S
C820 C832 1.349 . S
C821 C819 1.327 . S
C821 C837 1.429 . S
C821 H843 0.950 . S
C822 H818 0.949 . S
C822 C830 1.574 . S
C822 C838 1.368 . S
H823 C831 0.950 . S
H824 C829 0.950 . S
H825 C830 0.949 . S
H826 C832 0.950 . S
H827 C833 0.950 . S
H828 C834 0.949 . S
C829 H824 0.950 . S
C829 C831 1.327 . S
C829 C835 1.429 . S
C830 C822 1.574 . S
C830 H825 0.949 . S
C830 C836 1.368 . S
C831 C815 1.349 . S
C831 H823 0.950 . S
C831 C829 1.327 . S
C832 C820 1.349 . S
C832 H826 0.950 . S
C832 C833 1.327 . S
C833 H827 0.950 . S
C833 C832 1.327 . S
C833 C837 1.429 . S
C834 C817 1.574 . S
C834 H828 0.949 . S
C834 C838 1.368 . S
C835 C816 1.429 . S
C835 C829 1.429 . S
C835 C836 1.523 . S
C836 C817 1.368 . S
C836 C830 1.368 . S
C836 C835 1.523 . S
C837 C821 1.429 . S
C837 C833 1.429 . S
C837 C838 1.523 . S
C838 C822 1.368 . S
C838 C834 1.368 . S
C838 C837 1.523 . S
H839 C814 0.950 . S
H840 C816 0.950 . S
H841 C817 0.949 . S
H842 C819 0.950 . S
H843 C821 0.950 . S
C844 C845 1.349 . S
C844 C846 1.327 . S
C844 H869 0.950 . S
C845 C844 1.349 . S
C845 C861 1.349 . S
C846 C844 1.327 . S
C846 C865 1.429 . S
C846 H870 0.950 . S
C847 C864 1.574 . S
C847 C866 1.368 1_556 S
C847 H871 0.949 . S
H848 C852 0.949 . S
C849 C850 1.349 . S
C849 C851 1.327 . S
C849 H872 0.950 . S
C850 C849 1.349 . S
C850 C862 1.349 . S
C851 C849 1.327 . S
C851 C867 1.429 . S
C851 H873 0.950 . S
C852 H848 0.949 . S
C852 C860 1.574 . S
C852 C868 1.368 1_554 S
H853 C861 0.950 . S
H854 C859 0.941 1_556 S
H855 C860 0.949 . S
H856 C862 0.950 . S
H857 C863 0.940 1_554 S
H858 C864 0.949 . S
C859 H854 0.941 1_554 S
C859 C861 1.327 . S
C859 C865 1.429 . S
C860 C852 1.574 . S
C860 H855 0.949 . S
C860 C866 1.368 . S
C861 C845 1.349 . S
C861 H853 0.950 . S
C861 C859 1.327 . S
C862 C850 1.349 . S
C862 H856 0.950 . S
C862 C863 1.327 . S
C863 H857 0.940 1_556 S
C863 C862 1.327 . S
C863 C867 1.429 . S
C864 C847 1.574 . S
C864 H858 0.949 . S
C864 C868 1.368 . S
C865 C846 1.429 . S
C865 C859 1.429 . S
C865 C866 1.523 . S
C866 C847 1.368 1_554 S
C866 C860 1.368 . S
C866 C865 1.523 . S
C867 C851 1.429 . S
C867 C863 1.429 . S
C867 C868 1.523 . S
C868 C852 1.368 1_556 S
C868 C864 1.368 . S
C868 C867 1.523 . S
H869 C844 0.950 . S
H870 C846 0.950 . S
H871 C847 0.949 . S
H872 C849 0.950 . S
H873 C851 0.950 . S
C874 C875 1.349 . S
C874 C876 1.327 . S
C874 H899 0.950 . S
C875 C874 1.349 . S
C875 C891 1.349 . S
C876 C874 1.327 . S
C876 C895 1.429 . S
C876 H900 0.950 . S
C877 C894 1.574 . S
C877 C896 1.368 . S
C877 H901 0.949 . S
H878 C882 0.949 . S
C879 C880 1.349 . S
C879 C881 1.327 . S
C879 H902 0.950 . S
C880 C879 1.349 . S
C880 C892 1.349 . S
C881 C879 1.327 . S
C881 C897 1.429 . S
C881 H903 0.950 . S
C882 H878 0.949 . S
C882 C890 1.574 . S
C882 C898 1.368 . S
H883 C891 0.950 . S
H884 C889 0.950 . S
H885 C890 0.949 . S
H886 C892 0.950 . S
H887 C893 0.950 . S
H888 C894 0.949 . S
C889 H884 0.950 . S
C889 C891 1.327 . S
C889 C895 1.429 . S
C890 C882 1.574 . S
C890 H885 0.949 . S
C890 C896 1.368 . S
C891 C875 1.349 . S
C891 H883 0.950 . S
C891 C889 1.327 . S
C892 C880 1.349 . S
C892 H886 0.950 . S
C892 C893 1.327 . S
C893 H887 0.950 . S
C893 C892 1.327 . S
C893 C897 1.429 . S
C894 C877 1.574 . S
C894 H888 0.949 . S
C894 C898 1.368 . S
C895 C876 1.429 . S
C895 C889 1.429 . S
C895 C896 1.523 . S
C896 C877 1.368 . S
C896 C890 1.368 . S
C896 C895 1.523 . S
C897 C881 1.429 . S
C897 C893 1.429 . S
C897 C898 1.523 . S
C898 C882 1.368 . S
C898 C894 1.368 . S
C898 C897 1.523 . S
H899 C874 0.950 . S
H900 C876 0.950 . S
H901 C877 0.949 . S
H902 C879 0.950 . S
H903 C881 0.950 . S
C904 C905 1.349 . S
C904 C906 1.327 . S
C904 H929 0.950 . S
C905 C904 1.349 . S
C905 C921 1.349 . S
C906 C904 1.327 . S
C906 C925 1.429 . S
C906 H930 0.950 . S
C907 C924 1.574 . S
C907 C926 1.368 1_556 S
C907 H931 0.949 . S
H908 C912 0.949 . S
C909 C910 1.349 . S
C909 C911 1.327 . S
C909 H932 0.950 . S
C910 C909 1.349 . S
C910 C922 1.349 . S
C911 C909 1.327 . S
C911 C927 1.429 . S
C911 H933 0.950 . S
C912 H908 0.949 . S
C912 C920 1.574 . S
C912 C928 1.368 1_554 S
H913 C921 0.950 . S
H914 C919 0.950 1_556 S
H915 C920 0.949 . S
H916 C922 0.950 . S
H917 C923 0.950 1_554 S
H918 C924 0.949 . S
C919 H914 0.950 1_554 S
C919 C921 1.327 . S
C919 C925 1.429 . S
C920 C912 1.574 . S
C920 H915 0.949 . S
C920 C926 1.368 . S
C921 C905 1.349 . S
C921 H913 0.950 . S
C921 C919 1.327 . S
C922 C910 1.349 . S
C922 H916 0.950 . S
C922 C923 1.327 . S
C923 H917 0.950 1_556 S
C923 C922 1.327 . S
C923 C927 1.429 . S
C924 C907 1.574 . S
C924 H918 0.949 . S
C924 C928 1.368 . S
C925 C906 1.429 . S
C925 C919 1.429 . S
C925 C926 1.523 . S
C926 C907 1.368 1_554 S
C926 C920 1.368 . S
C926 C925 1.523 . S
C927 C911 1.429 . S
C927 C923 1.429 . S
C927 C928 1.523 . S
C928 C912 1.368 1_556 S
C928 C924 1.368 . S
C928 C927 1.523 . S
H929 C904 0.950 . S
H930 C906 0.950 . S
H931 C907 0.949 . S
H932 C909 0.950 . S
H933 C911 0.950 . S
C934 C935 1.349 . S
C934 C936 1.327 . S
C934 H959 0.950 . S
C935 C934 1.349 . S
C935 C951 1.349 . S
C936 C934 1.327 . S
C936 C955 1.429 . S
C936 H960 0.950 . S
C937 C954 1.574 . S
C937 C956 1.368 . S
C937 H961 0.949 . S
H938 C942 0.949 . S
C939 C940 1.349 . S
C939 C941 1.327 . S
C939 H962 0.950 . S
C940 C939 1.349 . S
C940 C952 1.349 . S
C941 C939 1.327 . S
C941 C957 1.429 . S
C941 H963 0.950 . S
C942 H938 0.949 . S
C942 C950 1.574 . S
C942 C958 1.368 . S
H943 C951 0.950 . S
H944 C949 0.950 . S
H945 C950 0.949 . S
H946 C952 0.950 . S
H947 C953 0.950 . S
H948 C954 0.949 . S
C949 H944 0.950 . S
C949 C951 1.327 . S
C949 C955 1.429 . S
C950 C942 1.574 . S
C950 H945 0.949 . S
C950 C956 1.368 . S
C951 C935 1.349 . S
C951 H943 0.950 . S
C951 C949 1.327 . S
C952 C940 1.349 . S
C952 H946 0.950 . S
C952 C953 1.327 . S
C953 H947 0.950 . S
C953 C952 1.327 . S
C953 C957 1.429 . S
C954 C937 1.574 . S
C954 H948 0.949 . S
C954 C958 1.368 . S
C955 C936 1.429 . S
C955 C949 1.429 . S
C955 C956 1.523 . S
C956 C937 1.368 . S
C956 C950 1.368 . S
C956 C955 1.523 . S
C957 C941 1.429 . S
C957 C953 1.429 . S
C957 C958 1.523 . S
C958 C942 1.368 . S
C958 C954 1.368 . S
C958 C957 1.523 . S
H959 C934 0.950 . S
H960 C936 0.950 . S
H961 C937 0.949 . S
H962 C939 0.950 . S
H963 C941 0.950 . S
C964 C965 1.349 . S
C964 C966 1.327 . S
C964 H989 0.950 . S
C965 C964 1.349 . S
C965 C981 1.349 . S
C966 C964 1.327 . S
C966 C985 1.429 . S
C966 H990 0.950 . S
C967 C984 1.574 . S
C967 C986 1.368 1_556 S
C967 H991 0.949 . S
H968 C972 0.949 . S
C969 C970 1.349 . S
C969 C971 1.327 . S
C969 H992 0.950 . S
C970 C969 1.349 . S
C970 C982 1.349 . S
C971 C969 1.327 . S
C971 C987 1.429 . S
C971 H993 0.950 . S
C972 H968 0.949 . S
C972 C980 1.574 . S
C972 C988 1.368 1_554 S
H973 C981 0.950 . S
H974 C979 0.950 1_556 S
H975 C980 0.949 . S
H976 C982 0.950 . S
H977 C983 0.950 1_554 S
H978 C984 0.949 . S
C979 H974 0.950 1_554 S
C979 C981 1.327 . S
C979 C985 1.429 . S
C980 C972 1.574 . S
C980 H975 0.949 . S
C980 C986 1.368 . S
C981 C965 1.349 . S
C981 H973 0.950 . S
C981 C979 1.327 . S
C982 C970 1.349 . S
C982 H976 0.950 . S
C982 C983 1.327 . S
C983 H977 0.950 1_556 S
C983 C982 1.327 . S
C983 C987 1.429 . S
C984 C967 1.574 . S
C984 H978 0.949 . S
C984 C988 1.368 . S
C985 C966 1.429 . S
C985 C979 1.429 . S
C985 C986 1.523 . S
C986 C967 1.368 1_554 S
C986 C980 1.368 . S
C986 C985 1.523 . S
C987 C971 1.429 . S
C987 C983 1.429 . S
C987 C988 1.523 . S
C988 C972 1.368 1_556 S
C988 C984 1.368 . S
C988 C987 1.523 . S
H989 C964 0.950 . S
H990 C966 0.950 . S
H991 C967 0.949 . S
H992 C969 0.950 . S
H993 C971 0.950 . S
C994 C995 1.349 . S
C994 C996 1.327 . S
C994 H1019 0.950 . S
C995 C994 1.349 . S
C995 C1011 1.349 . S
C996 C994 1.327 . S
C996 C1015 1.429 . S
C996 H1020 0.950 . S
C997 C1014 1.574 . S
C997 C1016 1.368 . S
C997 H1021 0.949 . S
H998 C1002 0.949 . S
C999 C1000 1.349 . S
C999 C1001 1.327 . S
C999 H1022 0.950 . S
C1000 C999 1.349 . S
C1000 C1012 1.349 . S
C1001 C999 1.327 . S
C1001 C1017 1.429 . S
C1001 H1023 0.950 . S
C1002 H998 0.949 . S
C1002 C1010 1.574 . S
C1002 C1018 1.368 . S
H1003 C1011 0.950 . S
H1004 C1009 0.950 . S
H1005 C1010 0.949 . S
H1006 C1012 0.950 . S
H1007 C1013 0.950 . S
H1008 C1014 0.949 . S
C1009 H1004 0.950 . S
C1009 C1011 1.327 . S
C1009 C1015 1.429 . S
C1010 C1002 1.574 . S
C1010 H1005 0.949 . S
C1010 C1016 1.368 . S
C1011 C995 1.349 . S
C1011 H1003 0.950 . S
C1011 C1009 1.327 . S
C1012 C1000 1.349 . S
C1012 H1006 0.950 . S
C1012 C1013 1.327 . S
C1013 H1007 0.950 . S
C1013 C1012 1.327 . S
C1013 C1017 1.429 . S
C1014 C997 1.574 . S
C1014 H1008 0.949 . S
C1014 C1018 1.368 . S
C1015 C996 1.429 . S
C1015 C1009 1.429 . S
C1015 C1016 1.523 . S
C1016 C997 1.368 . S
C1016 C1010 1.368 . S
C1016 C1015 1.523 . S
C1017 C1001 1.429 . S
C1017 C1013 1.429 . S
C1017 C1018 1.523 . S
C1018 C1002 1.368 . S
C1018 C1014 1.368 . S
C1018 C1017 1.523 . S
H1019 C994 0.950 . S
H1020 C996 0.950 . S
H1021 C997 0.949 . S
H1022 C999 0.950 . S
H1023 C1001 0.950 . S
C1024 C1025 1.349 . S
C1024 C1026 1.327 . S
C1024 H1049 0.950 1_455 S
C1025 C1024 1.349 . S
C1025 C1041 1.349 . S
C1026 C1024 1.327 . S
C1026 C1045 1.429 . S
C1026 H1050 0.950 1_455 S
C1027 C1044 1.574 . S
C1027 C1046 1.368 . S
C1027 H1051 0.949 . S
H1028 C1032 0.949 1_655 S
C1029 C1030 1.349 . S
C1029 C1031 1.327 . S
C1029 H1052 0.950 . S
C1030 C1029 1.349 . S
C1030 C1042 1.349 . S
C1031 C1029 1.327 . S
C1031 C1047 1.429 . S
C1031 H1053 0.950 . S
C1032 H1028 0.949 1_455 S
C1032 C1040 1.574 . S
C1032 C1048 1.368 . S
H1033 C1041 0.950 . S
H1034 C1039 0.950 . S
H1035 C1040 0.949 1_655 S
H1036 C1042 0.950 1_655 S
H1037 C1043 0.950 1_655 S
H1038 C1044 0.949 . S
C1039 H1034 0.950 . S
C1039 C1041 1.327 . S
C1039 C1045 1.429 . S
C1040 C1032 1.574 . S
C1040 H1035 0.949 1_455 S
C1040 C1046 1.368 . S
C1041 C1025 1.349 . S
C1041 H1033 0.950 . S
C1041 C1039 1.327 . S
C1042 C1030 1.349 . S
C1042 H1036 0.950 1_455 S
C1042 C1043 1.327 . S
C1043 H1037 0.950 1_455 S
C1043 C1042 1.327 . S
C1043 C1047 1.429 . S
C1044 C1027 1.574 . S
C1044 H1038 0.949 . S
C1044 C1048 1.368 . S
C1045 C1026 1.429 . S
C1045 C1039 1.429 . S
C1045 C1046 1.523 . S
C1046 C1027 1.368 . S
C1046 C1040 1.368 . S
C1046 C1045 1.523 . S
C1047 C1031 1.429 . S
C1047 C1043 1.429 . S
C1047 C1048 1.523 . S
C1048 C1032 1.368 . S
C1048 C1044 1.368 . S
C1048 C1047 1.523 . S
H1049 C1024 0.950 1_655 S
H1050 C1026 0.950 1_655 S
H1051 C1027 0.949 . S
H1052 C1029 0.950 . S
H1053 C1031 0.950 . S
C1054 C1055 1.349 . S
C1054 C1056 1.327 . S
C1054 H1079 0.950 . S
C1055 C1054 1.349 . S
C1055 C1071 1.349 . S
C1056 C1054 1.327 . S
C1056 C1075 1.429 . S
C1056 H1080 0.950 . S
C1057 C1074 1.574 . S
C1057 C1076 1.368 . S
C1057 H1081 0.949 1_545 S
H1058 C1062 0.949 . S
C1059 C1060 1.349 . S
C1059 C1061 1.327 . S
C1059 H1082 0.950 1_545 S
C1060 C1059 1.349 . S
C1060 C1072 1.349 . S
C1061 C1059 1.327 . S
C1061 C1077 1.429 . S
C1061 H1083 0.950 1_545 S
C1062 H1058 0.949 . S
C1062 C1070 1.574 . S
C1062 C1078 1.368 . S
H1063 C1071 0.950 1_565 S
H1064 C1069 0.950 1_565 S
H1065 C1070 0.949 . S
H1066 C1072 0.950 . S
H1067 C1073 0.950 . S
H1068 C1074 0.949 1_565 S
C1069 H1064 0.950 1_545 S
C1069 C1071 1.327 . S
C1069 C1075 1.429 . S
C1070 C1062 1.574 . S
C1070 H1065 0.949 . S
C1070 C1076 1.368 . S
C1071 C1055 1.349 . S
C1071 H1063 0.950 1_545 S
C1071 C1069 1.327 . S
C1072 C1060 1.349 . S
C1072 H1066 0.950 . S
C1072 C1073 1.327 . S
C1073 H1067 0.950 . S
C1073 C1072 1.327 . S
C1073 C1077 1.429 . S
C1074 C1057 1.574 . S
C1074 H1068 0.949 1_545 S
C1074 C1078 1.368 . S
C1075 C1056 1.429 . S
C1075 C1069 1.429 . S
C1075 C1076 1.523 . S
C1076 C1057 1.368 . S
C1076 C1070 1.368 . S
C1076 C1075 1.523 . S
C1077 C1061 1.429 . S
C1077 C1073 1.429 . S
C1077 C1078 1.523 . S
C1078 C1062 1.368 . S
C1078 C1074 1.368 . S
C1078 C1077 1.523 . S
H1079 C1054 0.950 . S
H1080 C1056 0.950 . S
H1081 C1057 0.949 1_565 S
H1082 C1059 0.950 1_565 S
H1083 C1061 0.950 1_565 S
C1084 C1085 1.349 . S
C1084 C1086 1.327 . S
C1084 H1109 0.950 . S
C1085 C1084 1.349 . S
C1085 C1101 1.349 . S
C1086 C1084 1.327 . S
C1086 C1105 1.429 . S
C1086 H1110 0.950 . S
C1087 C1104 1.574 . S
C1087 C1106 1.368 . S
C1087 H1111 0.949 . S
H1088 C1092 0.949 . S
C1089 C1090 1.349 . S
C1089 C1091 1.327 . S
C1089 H1112 0.950 . S
C1090 C1089 1.349 . S
C1090 C1102 1.349 . S
C1091 C1089 1.327 . S
C1091 C1107 1.429 . S
C1091 H1113 0.950 . S
C1092 H1088 0.949 . S
C1092 C1100 1.574 . S
C1092 C1108 1.368 . S
H1093 C1101 0.950 . S
H1094 C1099 0.950 . S
H1095 C1100 0.949 . S
H1096 C1102 0.950 . S
H1097 C1103 0.950 . S
H1098 C1104 0.949 . S
C1099 H1094 0.950 . S
C1099 C1101 1.327 . S
C1099 C1105 1.429 . S
C1100 C1092 1.574 . S
C1100 H1095 0.949 . S
C1100 C1106 1.368 . S
C1101 C1085 1.349 . S
C1101 H1093 0.950 . S
C1101 C1099 1.327 . S
C1102 C1090 1.349 . S
C1102 H1096 0.950 . S
C1102 C1103 1.327 . S
C1103 H1097 0.950 . S
C1103 C1102 1.327 . S
C1103 C1107 1.429 . S
C1104 C1087 1.574 . S
C1104 H1098 0.949 . S
C1104 C1108 1.368 . S
C1105 C1086 1.429 . S
C1105 C1099 1.429 . S
C1105 C1106 1.523 . S
C1106 C1087 1.368 . S
C1106 C1100 1.368 . S
C1106 C1105 1.523 . S
C1107 C1091 1.429 . S
C1107 C1103 1.429 . S
C1107 C1108 1.523 . S
C1108 C1092 1.368 . S
C1108 C1104 1.368 . S
C1108 C1107 1.523 . S
H1109 C1084 0.950 . S
H1110 C1086 0.950 . S
H1111 C1087 0.949 . S
H1112 C1089 0.950 . S
H1113 C1091 0.950 . S
C1114 C1115 1.349 . S
C1114 C1116 1.327 . S
C1114 H1139 0.950 . S
C1115 C1114 1.349 . S
C1115 C1131 1.349 . S
C1116 C1114 1.327 . S
C1116 C1135 1.429 . S
C1116 H1140 0.950 . S
C1117 C1134 1.574 . S
C1117 C1136 1.368 . S
C1117 H1141 0.949 . S
H1118 C1122 0.949 . S
C1119 C1120 1.349 . S
C1119 C1121 1.327 . S
C1119 H1142 0.950 . S
C1120 C1119 1.349 . S
C1120 C1132 1.349 . S
C1121 C1119 1.327 . S
C1121 C1137 1.429 . S
C1121 H1143 0.950 . S
C1122 H1118 0.949 . S
C1122 C1130 1.574 . S
C1122 C1138 1.368 . S
H1123 C1131 0.950 . S
H1124 C1129 0.950 . S
H1125 C1130 0.949 . S
H1126 C1132 0.950 . S
H1127 C1133 0.950 . S
H1128 C1134 0.949 . S
C1129 H1124 0.950 . S
C1129 C1131 1.327 . S
C1129 C1135 1.429 . S
C1130 C1122 1.574 . S
C1130 H1125 0.949 . S
C1130 C1136 1.368 . S
C1131 C1115 1.349 . S
C1131 H1123 0.950 . S
C1131 C1129 1.327 . S
C1132 C1120 1.349 . S
C1132 H1126 0.950 . S
C1132 C1133 1.327 . S
C1133 H1127 0.950 . S
C1133 C1132 1.327 . S
C1133 C1137 1.429 . S
C1134 C1117 1.574 . S
C1134 H1128 0.949 . S
C1134 C1138 1.368 . S
C1135 C1116 1.429 . S
C1135 C1129 1.429 . S
C1135 C1136 1.523 . S
C1136 C1117 1.368 . S
C1136 C1130 1.368 . S
C1136 C1135 1.523 . S
C1137 C1121 1.429 . S
C1137 C1133 1.429 . S
C1137 C1138 1.523 . S
C1138 C1122 1.368 . S
C1138 C1134 1.368 . S
C1138 C1137 1.523 . S
H1139 C1114 0.950 . S
H1140 C1116 0.950 . S
H1141 C1117 0.949 . S
H1142 C1119 0.950 . S
H1143 C1121 0.950 . S
C1144 C1145 1.349 . S
C1144 C1146 1.327 . S
C1144 H1169 0.950 . S
C1145 C1144 1.349 . S
C1145 C1161 1.349 . S
C1146 C1144 1.327 . S
C1146 C1165 1.429 . S
C1146 H1170 0.950 . S
C1147 C1164 1.574 . S
C1147 C1166 1.368 . S
C1147 H1171 0.949 . S
H1148 C1152 0.949 . S
C1149 C1150 1.349 . S
C1149 C1151 1.327 . S
C1149 H1172 0.950 . S
C1150 C1149 1.349 . S
C1150 C1162 1.349 . S
C1151 C1149 1.327 . S
C1151 C1167 1.429 . S
C1151 H1173 0.950 . S
C1152 H1148 0.949 . S
C1152 C1160 1.574 . S
C1152 C1168 1.368 . S
H1153 C1161 0.950 . S
H1154 C1159 0.950 . S
H1155 C1160 0.949 . S
H1156 C1162 0.950 . S
H1157 C1163 0.950 . S
H1158 C1164 0.949 . S
C1159 H1154 0.950 . S
C1159 C1161 1.327 . S
C1159 C1165 1.429 . S
C1160 C1152 1.574 . S
C1160 H1155 0.949 . S
C1160 C1166 1.368 . S
C1161 C1145 1.349 . S
C1161 H1153 0.950 . S
C1161 C1159 1.327 . S
C1162 C1150 1.349 . S
C1162 H1156 0.950 . S
C1162 C1163 1.327 . S
C1163 H1157 0.950 . S
C1163 C1162 1.327 . S
C1163 C1167 1.429 . S
C1164 C1147 1.574 . S
C1164 H1158 0.949 . S
C1164 C1168 1.368 . S
C1165 C1146 1.429 . S
C1165 C1159 1.429 . S
C1165 C1166 1.523 . S
C1166 C1147 1.368 . S
C1166 C1160 1.368 . S
C1166 C1165 1.523 . S
C1167 C1151 1.429 . S
C1167 C1163 1.429 . S
C1167 C1168 1.523 . S
C1168 C1152 1.368 . S
C1168 C1164 1.368 . S
C1168 C1167 1.523 . S
H1169 C1144 0.950 . S
H1170 C1146 0.950 . S
H1171 C1147 0.949 . S
H1172 C1149 0.950 . S
H1173 C1151 0.950 . S
C1174 C1175 1.349 . S
C1174 C1176 1.327 . S
C1174 H1199 0.950 . S
C1175 C1174 1.349 . S
C1175 C1191 1.349 . S
C1176 C1174 1.327 . S
C1176 C1195 1.429 . S
C1176 H1200 0.950 . S
C1177 C1194 1.574 . S
C1177 C1196 1.368 . S
C1177 H1201 0.949 1_565 S
H1178 C1182 0.949 . S
C1179 C1180 1.349 . S
C1179 C1181 1.327 . S
C1179 H1202 0.950 1_565 S
C1180 C1179 1.349 . S
C1180 C1192 1.349 . S
C1181 C1179 1.327 . S
C1181 C1197 1.429 . S
C1181 H1203 0.950 1_565 S
C1182 H1178 0.949 . S
C1182 C1190 1.574 . S
C1182 C1198 1.368 . S
H1183 C1191 0.950 1_545 S
H1184 C1189 0.950 1_545 S
H1185 C1190 0.949 . S
H1186 C1192 0.950 . S
H1187 C1193 0.950 . S
H1188 C1194 0.949 1_545 S
C1189 H1184 0.950 1_565 S
C1189 C1191 1.327 . S
C1189 C1195 1.429 . S
C1190 C1182 1.574 . S
C1190 H1185 0.949 . S
C1190 C1196 1.368 . S
C1191 C1175 1.349 . S
C1191 H1183 0.950 1_565 S
C1191 C1189 1.327 . S
C1192 C1180 1.349 . S
C1192 H1186 0.950 . S
C1192 C1193 1.327 . S
C1193 H1187 0.950 . S
C1193 C1192 1.327 . S
C1193 C1197 1.429 . S
C1194 C1177 1.574 . S
C1194 H1188 0.949 1_565 S
C1194 C1198 1.368 . S
C1195 C1176 1.429 . S
C1195 C1189 1.429 . S
C1195 C1196 1.523 . S
C1196 C1177 1.368 . S
C1196 C1190 1.368 . S
C1196 C1195 1.523 . S
C1197 C1181 1.429 . S
C1197 C1193 1.429 . S
C1197 C1198 1.523 . S
C1198 C1182 1.368 . S
C1198 C1194 1.368 . S
C1198 C1197 1.523 . S
H1199 C1174 0.950 . S
H1200 C1176 0.950 . S
H1201 C1177 0.949 1_545 S
H1202 C1179 0.950 1_545 S
H1203 C1181 0.950 1_545 S
C1204 C1205 1.349 . S
C1204 C1206 1.327 . S
C1204 H1229 0.950 . S
C1205 C1204 1.349 . S
C1205 C1221 1.349 . S
C1206 C1204 1.327 . S
C1206 C1225 1.429 . S
C1206 H1230 0.950 . S
C1207 C1224 1.574 . S
C1207 C1226 1.368 . S
C1207 H1231 0.949 . S
H1208 C1212 0.949 . S
C1209 C1210 1.349 . S
C1209 C1211 1.327 . S
C1209 H1232 0.950 . S
C1210 C1209 1.349 . S
C1210 C1222 1.349 . S
C1211 C1209 1.327 . S
C1211 C1227 1.429 . S
C1211 H1233 0.950 . S
C1212 H1208 0.949 . S
C1212 C1220 1.574 . S
C1212 C1228 1.368 . S
H1213 C1221 0.950 . S
H1214 C1219 0.950 . S
H1215 C1220 0.949 . S
H1216 C1222 0.950 . S
H1217 C1223 0.950 . S
H1218 C1224 0.949 . S
C1219 H1214 0.950 . S
C1219 C1221 1.327 . S
C1219 C1225 1.429 . S
C1220 C1212 1.574 . S
C1220 H1215 0.949 . S
C1220 C1226 1.368 . S
C1221 C1205 1.349 . S
C1221 H1213 0.950 . S
C1221 C1219 1.327 . S
C1222 C1210 1.349 . S
C1222 H1216 0.950 . S
C1222 C1223 1.327 . S
C1223 H1217 0.950 . S
C1223 C1222 1.327 . S
C1223 C1227 1.429 . S
C1224 C1207 1.574 . S
C1224 H1218 0.949 . S
C1224 C1228 1.368 . S
C1225 C1206 1.429 . S
C1225 C1219 1.429 . S
C1225 C1226 1.523 . S
C1226 C1207 1.368 . S
C1226 C1220 1.368 . S
C1226 C1225 1.523 . S
C1227 C1211 1.429 . S
C1227 C1223 1.429 . S
C1227 C1228 1.523 . S
C1228 C1212 1.368 . S
C1228 C1224 1.368 . S
C1228 C1227 1.523 . S
H1229 C1204 0.950 . S
H1230 C1206 0.950 . S
H1231 C1207 0.949 . S
H1232 C1209 0.950 . S
H1233 C1211 0.950 . S
C1234 C1235 1.349 . S
C1234 C1236 1.327 . S
C1234 H1259 0.950 . S
C1235 C1234 1.349 . S
C1235 C1251 1.349 . S
C1236 C1234 1.327 . S
C1236 C1255 1.429 . S
C1236 H1260 0.950 . S
C1237 C1254 1.574 . S
C1237 C1256 1.368 . S
C1237 H1261 0.949 . S
H1238 C1242 0.949 . S
C1239 C1240 1.349 . S
C1239 C1241 1.327 . S
C1239 H1262 0.950 . S
C1240 C1239 1.349 . S
C1240 C1252 1.349 . S
C1241 C1239 1.327 . S
C1241 C1257 1.429 . S
C1241 H1263 0.950 . S
C1242 H1238 0.949 . S
C1242 C1250 1.574 . S
C1242 C1258 1.368 . S
H1243 C1251 0.950 . S
H1244 C1249 0.950 . S
H1245 C1250 0.949 . S
H1246 C1252 0.950 . S
H1247 C1253 0.950 . S
H1248 C1254 0.949 . S
C1249 H1244 0.950 . S
C1249 C1251 1.327 . S
C1249 C1255 1.429 . S
C1250 C1242 1.574 . S
C1250 H1245 0.949 . S
C1250 C1256 1.368 . S
C1251 C1235 1.349 . S
C1251 H1243 0.950 . S
C1251 C1249 1.327 . S
C1252 C1240 1.349 . S
C1252 H1246 0.950 . S
C1252 C1253 1.327 . S
C1253 H1247 0.950 . S
C1253 C1252 1.327 . S
C1253 C1257 1.429 . S
C1254 C1237 1.574 . S
C1254 H1248 0.949 . S
C1254 C1258 1.368 . S
C1255 C1236 1.429 . S
C1255 C1249 1.429 . S
C1255 C1256 1.523 . S
C1256 C1237 1.368 . S
C1256 C1250 1.368 . S
C1256 C1255 1.523 . S
C1257 C1241 1.429 . S
C1257 C1253 1.429 . S
C1257 C1258 1.523 . S
C1258 C1242 1.368 . S
C1258 C1254 1.368 . S
C1258 C1257 1.523 . S
H1259 C1234 0.950 . S
H1260 C1236 0.950 . S
H1261 C1237 0.949 . S
H1262 C1239 0.950 . S
H1263 C1241 0.950 . S
C1264 C1265 1.349 . S
C1264 C1266 1.327 . S
C1264 H1289 0.950 . S
C1265 C1264 1.349 . S
C1265 C1281 1.349 1_655 S
C1266 C1264 1.327 . S
C1266 C1285 1.425 . S
C1266 H1290 0.950 . S
C1267 C1284 1.574 . S
C1267 C1286 1.368 . S
C1267 H1291 0.949 . S
H1268 C1272 0.949 . S
C1269 C1270 1.349 . S
C1269 C1271 1.327 . S
C1269 H1292 0.950 . S
C1270 C1269 1.349 . S
C1270 C1282 1.349 1_455 S
C1271 C1269 1.327 . S
C1271 C1287 1.429 . S
C1271 H1293 0.950 . S
C1272 H1268 0.949 . S
C1272 C1280 1.574 . S
C1272 C1288 1.368 1_655 S
H1273 C1281 0.950 . S
H1274 C1279 0.950 . S
H1275 C1280 0.949 . S
H1276 C1282 0.950 . S
H1277 C1283 0.950 . S
H1278 C1284 0.949 . S
C1279 H1274 0.950 . S
C1279 C1281 1.327 . S
C1279 C1285 1.431 1_455 S
C1280 C1272 1.574 . S
C1280 H1275 0.949 . S
C1280 C1286 1.368 1_655 S
C1281 C1265 1.349 1_455 S
C1281 H1273 0.950 . S
C1281 C1279 1.327 . S
C1282 C1270 1.349 1_655 S
C1282 H1276 0.950 . S
C1282 C1283 1.327 . S
C1283 H1277 0.950 . S
C1283 C1282 1.327 . S
C1283 C1287 1.429 1_655 S
C1284 C1267 1.574 . S
C1284 H1278 0.949 . S
C1284 C1288 1.368 . S
C1285 C1266 1.425 . S
C1285 C1279 1.431 1_655 S
C1285 C1286 1.523 1_655 S
C1286 C1267 1.368 . S
C1286 C1280 1.368 1_455 S
C1286 C1285 1.523 1_455 S
C1287 C1271 1.429 . S
C1287 C1283 1.429 1_455 S
C1287 C1288 1.523 . S
C1288 C1272 1.368 1_455 S
C1288 C1284 1.368 . S
C1288 C1287 1.523 . S
H1289 C1264 0.950 . S
H1290 C1266 0.950 . S
H1291 C1267 0.949 . S
H1292 C1269 0.950 . S
H1293 C1271 0.950 . S
C1294 C1295 1.349 . S
C1294 C1296 1.327 1_556 S
C1294 H1319 0.950 . S
C1295 C1294 1.349 . S
C1295 C1311 1.349 1_545 S
C1296 C1294 1.327 1_554 S
C1296 C1315 1.429 . S
C1296 H1320 0.950 . S
C1297 C1314 1.574 . S
C1297 C1316 1.368 1_565 S
C1297 H1321 0.949 . S
H1298 C1302 0.949 . S
C1299 C1300 1.349 . S
C1299 C1301 1.327 . S
C1299 H1322 0.950 . S
C1300 C1299 1.349 . S
C1300 C1312 1.349 1_565 S
C1301 C1299 1.327 . S
C1301 C1317 1.424 . S
C1301 H1323 0.950 . S
C1302 H1298 0.949 . S
C1302 C1310 1.574 . S
C1302 C1318 1.368 . S
H1303 C1311 0.950 . S
H1304 C1309 0.950 . S
H1305 C1310 0.949 . S
H1306 C1312 0.950 . S
H1307 C1313 0.950 . S
H1308 C1314 0.949 . S
C1309 H1304 0.950 . S
C1309 C1311 1.327 1_554 S
C1309 C1315 1.429 1_565 S
C1310 C1302 1.574 . S
C1310 H1305 0.949 . S
C1310 C1316 1.368 . S
C1311 C1295 1.349 1_565 S
C1311 H1303 0.950 . S
C1311 C1309 1.327 1_556 S
C1312 C1300 1.349 1_545 S
C1312 H1306 0.950 . S
C1312 C1313 1.327 . S
C1313 H1307 0.950 . S
C1313 C1312 1.327 . S
C1313 C1317 1.433 1_545 S
C1314 C1297 1.574 . S
C1314 H1308 0.949 . S
C1314 C1318 1.368 1_565 S
C1315 C1296 1.429 . S
C1315 C1309 1.429 1_545 S
C1315 C1316 1.523 . S
C1316 C1297 1.368 1_545 S
C1316 C1310 1.368 . S
C1316 C1315 1.523 . S
C1317 C1301 1.424 . S
C1317 C1313 1.433 1_565 S
C1317 C1318 1.523 1_565 S
C1318 C1302 1.368 . S
C1318 C1314 1.368 1_545 S
C1318 C1317 1.523 1_545 S
H1319 C1294 0.950 . S
H1320 C1296 0.950 . S
H1321 C1297 0.949 . S
H1322 C1299 0.950 . S
H1323 C1301 0.950 . S
C1324 C1325 1.349 . S
C1324 C1326 1.327 . S
C1324 H1349 0.950 . S
C1325 C1324 1.349 . S
C1325 C1341 1.349 . S
C1326 C1324 1.327 . S
C1326 C1345 1.429 . S
C1326 H1350 0.950 . S
C1327 C1344 1.574 . S
C1327 C1346 1.368 . S
C1327 H1351 0.949 . S
H1328 C1332 0.949 . S
C1329 C1330 1.349 . S
C1329 C1331 1.327 . S
C1329 H1352 0.950 . S
C1330 C1329 1.349 . S
C1330 C1342 1.349 . S
C1331 C1329 1.327 . S
C1331 C1347 1.429 . S
C1331 H1353 0.950 . S
C1332 H1328 0.949 . S
C1332 C1340 1.574 . S
C1332 C1348 1.368 . S
H1333 C1341 0.950 . S
H1334 C1339 0.950 . S
H1335 C1340 0.949 . S
H1336 C1342 0.950 . S
H1337 C1343 0.950 . S
H1338 C1344 0.949 . S
C1339 H1334 0.950 . S
C1339 C1341 1.327 . S
C1339 C1345 1.429 . S
C1340 C1332 1.574 . S
C1340 H1335 0.949 . S
C1340 C1346 1.368 . S
C1341 C1325 1.349 . S
C1341 H1333 0.950 . S
C1341 C1339 1.327 . S
C1342 C1330 1.349 . S
C1342 H1336 0.950 . S
C1342 C1343 1.327 . S
C1343 H1337 0.950 . S
C1343 C1342 1.327 . S
C1343 C1347 1.429 . S
C1344 C1327 1.574 . S
C1344 H1338 0.949 . S
C1344 C1348 1.368 . S
C1345 C1326 1.429 . S
C1345 C1339 1.429 . S
C1345 C1346 1.523 . S
C1346 C1327 1.368 . S
C1346 C1340 1.368 . S
C1346 C1345 1.523 . S
C1347 C1331 1.429 . S
C1347 C1343 1.429 . S
C1347 C1348 1.523 . S
C1348 C1332 1.368 . S
C1348 C1344 1.368 . S
C1348 C1347 1.523 . S
H1349 C1324 0.950 . S
H1350 C1326 0.950 . S
H1351 C1327 0.949 . S
H1352 C1329 0.950 . S
H1353 C1331 0.950 . S
C1354 C1355 1.349 . S
C1354 C1356 1.327 1_556 S
C1354 H1379 0.950 . S
C1355 C1354 1.349 . S
C1355 C1371 1.349 . S
C1356 C1354 1.327 1_554 S
C1356 C1375 1.429 . S
C1356 H1380 0.950 . S
C1357 C1374 1.574 . S
C1357 C1376 1.368 . S
C1357 H1381 0.949 . S
H1358 C1362 0.949 . S
C1359 C1360 1.349 . S
C1359 C1361 1.327 . S
C1359 H1382 0.950 . S
C1360 C1359 1.349 . S
C1360 C1372 1.349 . S
C1361 C1359 1.327 . S
C1361 C1377 1.429 . S
C1361 H1383 0.950 . S
C1362 H1358 0.949 . S
C1362 C1370 1.574 . S
C1362 C1378 1.368 . S
H1363 C1371 0.950 . S
H1364 C1369 0.950 . S
H1365 C1370 0.949 . S
H1366 C1372 0.950 . S
H1367 C1373 0.950 . S
H1368 C1374 0.949 . S
C1369 H1364 0.950 . S
C1369 C1371 1.327 1_554 S
C1369 C1375 1.429 . S
C1370 C1362 1.574 . S
C1370 H1365 0.949 . S
C1370 C1376 1.368 . S
C1371 C1355 1.349 . S
C1371 H1363 0.950 . S
C1371 C1369 1.327 1_556 S
C1372 C1360 1.349 . S
C1372 H1366 0.950 . S
C1372 C1373 1.327 . S
C1373 H1367 0.950 . S
C1373 C1372 1.327 . S
C1373 C1377 1.429 . S
C1374 C1357 1.574 . S
C1374 H1368 0.949 . S
C1374 C1378 1.368 . S
C1375 C1356 1.429 . S
C1375 C1369 1.429 . S
C1375 C1376 1.523 . S
C1376 C1357 1.368 . S
C1376 C1370 1.368 . S
C1376 C1375 1.523 . S
C1377 C1361 1.429 . S
C1377 C1373 1.429 . S
C1377 C1378 1.523 . S
C1378 C1362 1.368 . S
C1378 C1374 1.368 . S
C1378 C1377 1.523 . S
H1379 C1354 0.950 . S
H1380 C1356 0.950 . S
H1381 C1357 0.949 . S
H1382 C1359 0.950 . S
H1383 C1361 0.950 . S
C1384 C1385 1.349 1_455 S
C1384 C1386 1.327 . S
C1384 H1409 0.950 . S
C1385 C1384 1.349 1_655 S
C1385 C1401 1.349 . S
C1386 C1384 1.327 . S
C1386 C1405 1.432 1_455 S
C1386 H1410 0.950 . S
C1387 C1404 1.574 . S
C1387 C1406 1.368 1_655 S
C1387 H1411 0.949 . S
H1388 C1392 0.949 . S
C1389 C1390 1.349 1_655 S
C1389 C1391 1.327 1_554 S
C1389 H1412 0.950 . S
C1390 C1389 1.349 1_455 S
C1390 C1402 1.349 . S
C1391 C1389 1.327 1_556 S
C1391 C1407 1.429 1_655 S
C1391 H1413 0.950 . S
C1392 H1388 0.949 . S
C1392 C1400 1.574 . S
C1392 C1408 1.368 . S
H1393 C1401 0.950 . S
H1394 C1399 0.950 . S
H1395 C1400 0.949 . S
H1396 C1402 0.950 . S
H1397 C1403 0.950 . S
H1398 C1404 0.949 . S
C1399 H1394 0.950 . S
C1399 C1401 1.327 . S
C1399 C1405 1.425 . S
C1400 C1392 1.574 . S
C1400 H1395 0.949 . S
C1400 C1406 1.368 . S
C1401 C1385 1.349 . S
C1401 H1393 0.950 . S
C1401 C1399 1.327 . S
C1402 C1390 1.349 . S
C1402 H1396 0.950 . S
C1402 C1403 1.327 1_554 S
C1403 H1397 0.950 . S
C1403 C1402 1.327 1_556 S
C1403 C1407 1.429 . S
C1404 C1387 1.574 . S
C1404 H1398 0.949 . S
C1404 C1408 1.368 1_655 S
C1405 C1386 1.432 1_655 S
C1405 C1399 1.425 . S
C1405 C1406 1.523 1_655 S
C1406 C1387 1.368 1_455 S
C1406 C1400 1.368 . S
C1406 C1405 1.523 1_455 S
C1407 C1391 1.429 1_455 S
C1407 C1403 1.429 . S
C1407 C1408 1.523 . S
C1408 C1392 1.368 . S
C1408 C1404 1.368 1_455 S
C1408 C1407 1.523 . S
H1409 C1384 0.950 . S
H1410 C1386 0.950 . S
H1411 C1387 0.949 . S
H1412 C1389 0.950 . S
H1413 C1391 0.950 . S
C1414 C1415 1.349 1_545 S
C1414 C1416 1.327 . S
C1414 H1439 0.950 . S
C1415 C1414 1.349 1_565 S
C1415 C1431 1.349 . S
C1416 C1414 1.327 . S
C1416 C1435 1.433 1_545 S
C1416 H1440 0.950 . S
C1417 C1434 1.574 . S
C1417 C1436 1.368 1_565 S
C1417 H1441 0.949 . S
H1418 C1422 0.949 . S
C1419 C1420 1.349 1_565 S
C1419 C1421 1.327 . S
C1419 H1442 0.950 . S
C1420 C1419 1.349 1_545 S
C1420 C1432 1.349 . S
C1421 C1419 1.327 . S
C1421 C1437 1.429 1_565 S
C1421 H1443 0.950 . S
C1422 H1418 0.949 . S
C1422 C1430 1.574 . S
C1422 C1438 1.368 . S
H1423 C1431 0.950 . S
H1424 C1429 0.950 . S
H1425 C1430 0.949 . S
H1426 C1432 0.950 . S
H1427 C1433 0.950 . S
H1428 C1434 0.949 . S
C1429 H1424 0.950 . S
C1429 C1431 1.327 . S
C1429 C1435 1.424 . S
C1430 C1422 1.574 . S
C1430 H1425 0.949 . S
C1430 C1436 1.368 . S
C1431 C1415 1.349 . S
C1431 H1423 0.950 . S
C1431 C1429 1.327 . S
C1432 C1420 1.349 . S
C1432 H1426 0.950 . S
C1432 C1433 1.327 . S
C1433 H1427 0.950 . S
C1433 C1432 1.327 . S
C1433 C1437 1.429 . S
C1434 C1417 1.574 . S
C1434 H1428 0.949 . S
C1434 C1438 1.368 1_565 S
C1435 C1416 1.433 1_565 S
C1435 C1429 1.424 . S
C1435 C1436 1.523 1_565 S
C1436 C1417 1.368 1_545 S
C1436 C1430 1.368 . S
C1436 C1435 1.523 1_545 S
C1437 C1421 1.429 1_545 S
C1437 C1433 1.429 . S
C1437 C1438 1.523 . S
C1438 C1422 1.368 . S
C1438 C1434 1.368 1_545 S
C1438 C1437 1.523 . S
H1439 C1414 0.950 . S
H1440 C1416 0.950 . S
H1441 C1417 0.949 . S
H1442 C1419 0.950 . S
H1443 C1421 0.950 . S
C1444 C1445 1.349 . S
C1444 C1446 1.327 . S
C1444 H1469 0.950 . S
C1445 C1444 1.349 . S
C1445 C1461 1.349 . S
C1446 C1444 1.327 . S
C1446 C1465 1.429 . S
C1446 H1470 0.950 . S
C1447 C1464 1.574 . S
C1447 C1466 1.368 . S
C1447 H1471 0.949 . S
H1448 C1452 0.949 . S
C1449 C1450 1.349 . S
C1449 C1451 1.327 1_554 S
C1449 H1472 0.950 . S
C1450 C1449 1.349 . S
C1450 C1462 1.349 . S
C1451 C1449 1.327 1_556 S
C1451 C1467 1.429 . S
C1451 H1473 0.950 . S
C1452 H1448 0.949 . S
C1452 C1460 1.574 . S
C1452 C1468 1.368 . S
H1453 C1461 0.950 . S
H1454 C1459 0.950 . S
H1455 C1460 0.949 . S
H1456 C1462 0.950 . S
H1457 C1463 0.950 . S
H1458 C1464 0.949 . S
C1459 H1454 0.950 . S
C1459 C1461 1.327 . S
C1459 C1465 1.429 . S
C1460 C1452 1.574 . S
C1460 H1455 0.949 . S
C1460 C1466 1.368 . S
C1461 C1445 1.349 . S
C1461 H1453 0.950 . S
C1461 C1459 1.327 . S
C1462 C1450 1.349 . S
C1462 H1456 0.950 . S
C1462 C1463 1.327 1_554 S
C1463 H1457 0.950 . S
C1463 C1462 1.327 1_556 S
C1463 C1467 1.429 . S
C1464 C1447 1.574 . S
C1464 H1458 0.949 . S
C1464 C1468 1.368 . S
C1465 C1446 1.429 . S
C1465 C1459 1.429 . S
C1465 C1466 1.523 . S
C1466 C1447 1.368 . S
C1466 C1460 1.368 . S
C1466 C1465 1.523 . S
C1467 C1451 1.429 . S
C1467 C1463 1.429 . S
C1467 C1468 1.523 . S
C1468 C1452 1.368 . S
C1468 C1464 1.368 . S
C1468 C1467 1.523 . S
H1469 C1444 0.950 . S
H1470 C1446 0.950 . S
H1471 C1447 0.949 . S
H1472 C1449 0.950 . S
H1473 C1451 0.950 . S
C1474 C1475 1.349 . S
C1474 C1476 1.327 . S
C1474 H1499 0.950 . S
C1475 C1474 1.349 . S
C1475 C1491 1.349 . S
C1476 C1474 1.327 . S
C1476 C1495 1.429 . S
C1476 H1500 0.950 . S
C1477 C1494 1.574 . S
C1477 C1496 1.368 . S
C1477 H1501 0.949 . S
H1478 C1482 0.949 . S
C1479 C1480 1.349 . S
C1479 C1481 1.327 . S
C1479 H1502 0.950 . S
C1480 C1479 1.349 . S
C1480 C1492 1.349 . S
C1481 C1479 1.327 . S
C1481 C1497 1.429 . S
C1481 H1503 0.950 . S
C1482 H1478 0.949 . S
C1482 C1490 1.574 . S
C1482 C1498 1.368 . S
H1483 C1491 0.950 . S
H1484 C1489 0.950 . S
H1485 C1490 0.949 . S
H1486 C1492 0.950 . S
H1487 C1493 0.950 . S
H1488 C1494 0.949 . S
C1489 H1484 0.950 . S
C1489 C1491 1.327 . S
C1489 C1495 1.429 . S
C1490 C1482 1.574 . S
C1490 H1485 0.949 . S
C1490 C1496 1.368 . S
C1491 C1475 1.349 . S
C1491 H1483 0.950 . S
C1491 C1489 1.327 . S
C1492 C1480 1.349 . S
C1492 H1486 0.950 . S
C1492 C1493 1.327 . S
C1493 H1487 0.950 . S
C1493 C1492 1.327 . S
C1493 C1497 1.429 . S
C1494 C1477 1.574 . S
C1494 H1488 0.949 . S
C1494 C1498 1.368 . S
C1495 C1476 1.429 . S
C1495 C1489 1.429 . S
C1495 C1496 1.523 . S
C1496 C1477 1.368 . S
C1496 C1490 1.368 . S
C1496 C1495 1.523 . S
C1497 C1481 1.429 . S
C1497 C1493 1.429 . S
C1497 C1498 1.523 . S
C1498 C1482 1.368 . S
C1498 C1494 1.368 . S
C1498 C1497 1.523 . S
H1499 C1474 0.950 . S
H1500 C1476 0.950 . S
H1501 C1477 0.949 . S
H1502 C1479 0.950 . S
H1503 C1481 0.950 . S
C1504 C1505 1.349 . S
C1504 C1506 1.327 . S
C1504 H1529 0.950 . S
C1505 C1504 1.349 . S
C1505 C1521 1.349 1_655 S
C1506 C1504 1.327 . S
C1506 C1525 1.429 . S
C1506 H1530 0.950 . S
C1507 C1524 1.574 . S
C1507 C1526 1.368 1_455 S
C1507 H1531 0.949 . S
H1508 C1512 0.949 . S
C1509 C1510 1.349 . S
C1509 C1511 1.327 . S
C1509 H1532 0.950 . S
C1510 C1509 1.349 . S
C1510 C1522 1.349 1_455 S
C1511 C1509 1.327 . S
C1511 C1527 1.425 . S
C1511 H1533 0.950 . S
C1512 H1508 0.949 . S
C1512 C1520 1.574 . S
C1512 C1528 1.368 . S
H1513 C1521 0.950 . S
H1514 C1519 0.950 . S
H1515 C1520 0.949 . S
H1516 C1522 0.950 . S
H1517 C1523 0.950 . S
H1518 C1524 0.949 . S
C1519 H1514 0.950 . S
C1519 C1521 1.327 . S
C1519 C1525 1.429 1_455 S
C1520 C1512 1.574 . S
C1520 H1515 0.949 . S
C1520 C1526 1.368 . S
C1521 C1505 1.349 1_455 S
C1521 H1513 0.950 . S
C1521 C1519 1.327 . S
C1522 C1510 1.349 1_655 S
C1522 H1516 0.950 . S
C1522 C1523 1.327 . S
C1523 H1517 0.950 . S
C1523 C1522 1.327 . S
C1523 C1527 1.432 1_655 S
C1524 C1507 1.574 . S
C1524 H1518 0.949 . S
C1524 C1528 1.368 1_455 S
C1525 C1506 1.429 . S
C1525 C1519 1.429 1_655 S
C1525 C1526 1.523 . S
C1526 C1507 1.368 1_655 S
C1526 C1520 1.368 . S
C1526 C1525 1.523 . S
C1527 C1511 1.425 . S
C1527 C1523 1.432 1_455 S
C1527 C1528 1.523 1_455 S
C1528 C1512 1.368 . S
C1528 C1524 1.368 1_655 S
C1528 C1527 1.523 1_655 S
H1529 C1504 0.950 . S
H1530 C1506 0.950 . S
H1531 C1507 0.949 . S
H1532 C1509 0.950 . S
H1533 C1511 0.950 . S
C1534 C1535 1.349 . S
C1534 C1536 1.327 1_554 S
C1534 H1559 0.950 . S
C1535 C1534 1.349 . S
C1535 C1551 1.349 1_565 S
C1536 C1534 1.327 1_556 S
C1536 C1555 1.429 . S
C1536 H1560 0.950 . S
C1537 C1554 1.574 . S
C1537 C1556 1.368 1_545 S
C1537 H1561 0.949 . S
H1538 C1542 0.949 . S
C1539 C1540 1.349 . S
C1539 C1541 1.327 . S
C1539 H1562 0.950 . S
C1540 C1539 1.349 . S
C1540 C1552 1.349 1_545 S
C1541 C1539 1.327 . S
C1541 C1557 1.424 . S
C1541 H1563 0.950 . S
C1542 H1538 0.949 . S
C1542 C1550 1.574 . S
C1542 C1558 1.368 . S
H1543 C1551 0.950 . S
H1544 C1549 0.950 . S
H1545 C1550 0.949 . S
H1546 C1552 0.950 . S
H1547 C1553 0.950 . S
H1548 C1554 0.949 . S
C1549 H1544 0.950 . S
C1549 C1551 1.327 1_556 S
C1549 C1555 1.429 1_545 S
C1550 C1542 1.574 . S
C1550 H1545 0.949 . S
C1550 C1556 1.368 . S
C1551 C1535 1.349 1_545 S
C1551 H1543 0.950 . S
C1551 C1549 1.327 1_554 S
C1552 C1540 1.349 1_565 S
C1552 H1546 0.950 . S
C1552 C1553 1.327 . S
C1553 H1547 0.950 . S
C1553 C1552 1.327 . S
C1553 C1557 1.433 1_565 S
C1554 C1537 1.574 . S
C1554 H1548 0.949 . S
C1554 C1558 1.368 1_545 S
C1555 C1536 1.429 . S
C1555 C1549 1.429 1_565 S
C1555 C1556 1.523 . S
C1556 C1537 1.368 1_565 S
C1556 C1550 1.368 . S
C1556 C1555 1.523 . S
C1557 C1541 1.424 . S
C1557 C1553 1.433 1_545 S
C1557 C1558 1.523 1_545 S
C1558 C1542 1.368 . S
C1558 C1554 1.368 1_565 S
C1558 C1557 1.523 1_565 S
H1559 C1534 0.950 . S
H1560 C1536 0.950 . S
H1561 C1537 0.949 . S
H1562 C1539 0.950 . S
H1563 C1541 0.950 . S
C1564 C1565 1.349 . S
C1564 C1566 1.327 . S
C1564 H1589 0.950 . S
C1565 C1564 1.349 . S
C1565 C1581 1.349 . S
C1566 C1564 1.327 . S
C1566 C1585 1.429 . S
C1566 H1590 0.950 . S
C1567 C1584 1.574 . S
C1567 C1586 1.368 . S
C1567 H1591 0.949 . S
H1568 C1572 0.949 . S
C1569 C1570 1.349 . S
C1569 C1571 1.327 . S
C1569 H1592 0.950 . S
C1570 C1569 1.349 . S
C1570 C1582 1.349 . S
C1571 C1569 1.327 . S
C1571 C1587 1.429 . S
C1571 H1593 0.950 . S
C1572 H1568 0.949 . S
C1572 C1580 1.574 . S
C1572 C1588 1.368 . S
H1573 C1581 0.950 . S
H1574 C1579 0.950 . S
H1575 C1580 0.949 . S
H1576 C1582 0.950 . S
H1577 C1583 0.950 . S
H1578 C1584 0.949 . S
C1579 H1574 0.950 . S
C1579 C1581 1.327 . S
C1579 C1585 1.429 . S
C1580 C1572 1.574 . S
C1580 H1575 0.949 . S
C1580 C1586 1.368 . S
C1581 C1565 1.349 . S
C1581 H1573 0.950 . S
C1581 C1579 1.327 . S
C1582 C1570 1.349 . S
C1582 H1576 0.950 . S
C1582 C1583 1.327 . S
C1583 H1577 0.950 . S
C1583 C1582 1.327 . S
C1583 C1587 1.429 . S
C1584 C1567 1.574 . S
C1584 H1578 0.949 . S
C1584 C1588 1.368 . S
C1585 C1566 1.429 . S
C1585 C1579 1.429 . S
C1585 C1586 1.523 . S
C1586 C1567 1.368 . S
C1586 C1580 1.368 . S
C1586 C1585 1.523 . S
C1587 C1571 1.429 . S
C1587 C1583 1.429 . S
C1587 C1588 1.523 . S
C1588 C1572 1.368 . S
C1588 C1584 1.368 . S
C1588 C1587 1.523 . S
H1589 C1564 0.950 . S
H1590 C1566 0.950 . S
H1591 C1567 0.949 . S
H1592 C1569 0.950 . S
H1593 C1571 0.950 . S
C1594 C1595 1.349 . S
C1594 C1596 1.327 1_554 S
C1594 H1619 0.950 . S
C1595 C1594 1.349 . S
C1595 C1611 1.349 . S
C1596 C1594 1.327 1_556 S
C1596 C1615 1.429 . S
C1596 H1620 0.950 . S
C1597 C1614 1.574 . S
C1597 C1616 1.368 . S
C1597 H1621 0.949 . S
H1598 C1602 0.949 . S
C1599 C1600 1.349 . S
C1599 C1601 1.327 . S
C1599 H1622 0.950 . S
C1600 C1599 1.349 . S
C1600 C1612 1.349 . S
C1601 C1599 1.327 . S
C1601 C1617 1.429 . S
C1601 H1623 0.950 . S
C1602 H1598 0.949 . S
C1602 C1610 1.574 . S
C1602 C1618 1.368 . S
H1603 C1611 0.950 . S
H1604 C1609 0.950 . S
H1605 C1610 0.949 . S
H1606 C1612 0.950 . S
H1607 C1613 0.950 . S
H1608 C1614 0.949 . S
C1609 H1604 0.950 . S
C1609 C1611 1.327 1_556 S
C1609 C1615 1.429 . S
C1610 C1602 1.574 . S
C1610 H1605 0.949 . S
C1610 C1616 1.368 . S
C1611 C1595 1.349 . S
C1611 H1603 0.950 . S
C1611 C1609 1.327 1_554 S
C1612 C1600 1.349 . S
C1612 H1606 0.950 . S
C1612 C1613 1.327 . S
C1613 H1607 0.950 . S
C1613 C1612 1.327 . S
C1613 C1617 1.429 . S
C1614 C1597 1.574 . S
C1614 H1608 0.949 . S
C1614 C1618 1.368 . S
C1615 C1596 1.429 . S
C1615 C1609 1.429 . S
C1615 C1616 1.523 . S
C1616 C1597 1.368 . S
C1616 C1610 1.368 . S
C1616 C1615 1.523 . S
C1617 C1601 1.429 . S
C1617 C1613 1.429 . S
C1617 C1618 1.523 . S
C1618 C1602 1.368 . S
C1618 C1614 1.368 . S
C1618 C1617 1.523 . S
H1619 C1594 0.950 . S
H1620 C1596 0.950 . S
H1621 C1597 0.949 . S
H1622 C1599 0.950 . S
H1623 C1601 0.950 . S
C1624 C1625 1.349 1_655 S
C1624 C1626 1.327 . S
C1624 H1649 0.950 . S
C1625 C1624 1.349 1_455 S
C1625 C1641 1.349 . S
C1626 C1624 1.327 . S
C1626 C1645 1.430 1_655 S
C1626 H1650 0.950 . S
C1627 C1644 1.574 . S
C1627 C1646 1.368 1_455 S
C1627 H1651 0.949 . S
H1628 C1632 0.949 . S
C1629 C1630 1.349 . S
C1629 C1631 1.329 1_556 S
C1629 H1652 0.950 1_655 S
C1630 C1629 1.349 . S
C1630 C1642 1.349 . S
C1631 C1629 1.329 1_554 S
C1631 C1647 1.434 . S
C1631 H1653 0.943 1_655 S
C1632 H1628 0.949 . S
C1632 C1640 1.574 . S
C1632 C1648 1.368 . S
H1633 C1641 0.950 . S
H1634 C1639 0.950 . S
H1635 C1640 0.949 . S
H1636 C1642 0.950 . S
H1637 C1643 0.950 . S
H1638 C1644 0.949 . S
C1639 H1634 0.950 . S
C1639 C1641 1.327 . S
C1639 C1645 1.426 . S
C1640 C1632 1.574 . S
C1640 H1635 0.949 . S
C1640 C1646 1.368 . S
C1641 C1625 1.349 . S
C1641 H1633 0.950 . S
C1641 C1639 1.327 . S
C1642 C1630 1.349 . S
C1642 H1636 0.950 . S
C1642 C1643 1.327 1_556 S
C1643 H1637 0.950 . S
C1643 C1642 1.327 1_554 S
C1643 C1647 1.429 . S
C1644 C1627 1.574 . S
C1644 H1638 0.949 . S
C1644 C1648 1.368 1_455 S
C1645 C1626 1.430 1_455 S
C1645 C1639 1.426 . S
C1645 C1646 1.523 1_455 S
C1646 C1627 1.368 1_655 S
C1646 C1640 1.368 . S
C1646 C1645 1.523 1_655 S
C1647 C1631 1.434 . S
C1647 C1643 1.429 . S
C1647 C1648 1.523 . S
C1648 C1632 1.368 . S
C1648 C1644 1.368 1_655 S
C1648 C1647 1.523 . S
H1649 C1624 0.950 . S
H1650 C1626 0.950 . S
H1651 C1627 0.949 . S
H1652 C1629 0.950 1_455 S
H1653 C1631 0.943 1_455 S
C1654 C1655 1.349 . S
C1654 C1656 1.327 . S
C1654 H1679 0.950 . S
C1655 C1654 1.349 . S
C1655 C1671 1.349 1_545 S
C1656 C1654 1.327 . S
C1656 C1675 1.423 . S
C1656 H1680 0.950 . S
C1657 C1674 1.574 . S
C1657 C1676 1.368 . S
C1657 H1681 0.949 . S
H1658 C1662 0.949 . S
C1659 C1660 1.349 . S
C1659 C1661 1.327 . S
C1659 H1682 0.950 . S
C1660 C1659 1.349 . S
C1660 C1672 1.349 1_565 S
C1661 C1659 1.327 . S
C1661 C1677 1.429 . S
C1661 H1683 0.950 . S
C1662 H1658 0.949 . S
C1662 C1670 1.574 . S
C1662 C1678 1.368 1_545 S
H1663 C1671 0.950 . S
H1664 C1669 0.950 . S
H1665 C1670 0.949 . S
H1666 C1672 0.950 . S
H1667 C1673 0.950 . S
H1668 C1674 0.949 . S
C1669 H1664 0.950 . S
C1669 C1671 1.327 . S
C1669 C1675 1.433 1_565 S
C1670 C1662 1.574 . S
C1670 H1665 0.949 . S
C1670 C1676 1.368 1_545 S
C1671 C1655 1.349 1_565 S
C1671 H1663 0.950 . S
C1671 C1669 1.327 . S
C1672 C1660 1.349 1_545 S
C1672 H1666 0.950 . S
C1672 C1673 1.327 . S
C1673 H1667 0.950 . S
C1673 C1672 1.327 . S
C1673 C1677 1.429 1_545 S
C1674 C1657 1.574 . S
C1674 H1668 0.949 . S
C1674 C1678 1.368 . S
C1675 C1656 1.423 . S
C1675 C1669 1.433 1_545 S
C1675 C1676 1.523 1_545 S
C1676 C1657 1.368 . S
C1676 C1670 1.368 1_565 S
C1676 C1675 1.523 1_565 S
C1677 C1661 1.429 . S
C1677 C1673 1.429 1_565 S
C1677 C1678 1.523 . S
C1678 C1662 1.368 1_565 S
C1678 C1674 1.368 . S
C1678 C1677 1.523 . S
H1679 C1654 0.950 . S
H1680 C1656 0.950 . S
H1681 C1657 0.949 . S
H1682 C1659 0.950 . S
H1683 C1661 0.950 . S
C1684 C1685 1.349 . S
C1684 C1686 1.327 1_556 S
C1684 H1709 0.950 . S
C1685 C1684 1.349 . S
C1685 C1701 1.349 . S
C1686 C1684 1.327 1_554 S
C1686 C1705 1.429 . S
C1686 H1710 0.950 . S
C1687 C1704 1.574 . S
C1687 C1706 1.368 . S
C1687 H1711 0.949 . S
H1688 C1692 0.949 . S
C1689 C1690 1.349 . S
C1689 C1691 1.327 . S
C1689 H1712 0.950 . S
C1690 C1689 1.349 . S
C1690 C1702 1.349 . S
C1691 C1689 1.327 . S
C1691 C1707 1.429 . S
C1691 H1713 0.950 . S
C1692 H1688 0.949 . S
C1692 C1700 1.574 . S
C1692 C1708 1.368 . S
H1693 C1701 0.950 . S
H1694 C1699 0.950 . S
H1695 C1700 0.949 . S
H1696 C1702 0.950 . S
H1697 C1703 0.950 . S
H1698 C1704 0.949 . S
C1699 H1694 0.950 . S
C1699 C1701 1.327 1_554 S
C1699 C1705 1.429 . S
C1700 C1692 1.574 . S
C1700 H1695 0.949 . S
C1700 C1706 1.368 . S
C1701 C1685 1.349 . S
C1701 H1693 0.950 . S
C1701 C1699 1.327 1_556 S
C1702 C1690 1.349 . S
C1702 H1696 0.950 . S
C1702 C1703 1.327 . S
C1703 H1697 0.950 . S
C1703 C1702 1.327 . S
C1703 C1707 1.429 . S
C1704 C1687 1.574 . S
C1704 H1698 0.949 . S
C1704 C1708 1.368 . S
C1705 C1686 1.429 . S
C1705 C1699 1.429 . S
C1705 C1706 1.523 . S
C1706 C1687 1.368 . S
C1706 C1700 1.368 . S
C1706 C1705 1.523 . S
C1707 C1691 1.429 . S
C1707 C1703 1.429 . S
C1707 C1708 1.523 . S
C1708 C1692 1.368 . S
C1708 C1704 1.368 . S
C1708 C1707 1.523 . S
H1709 C1684 0.950 . S
H1710 C1686 0.950 . S
H1711 C1687 0.949 . S
H1712 C1689 0.950 . S
H1713 C1691 0.950 . S
C1714 C1715 1.349 . S
C1714 C1716 1.327 . S
C1714 H1739 0.950 . S
C1715 C1714 1.349 . S
C1715 C1731 1.349 . S
C1716 C1714 1.327 . S
C1716 C1735 1.429 . S
C1716 H1740 0.950 . S
C1717 C1734 1.574 . S
C1717 C1736 1.368 . S
C1717 H1741 0.949 . S
H1718 C1722 0.949 . S
C1719 C1720 1.349 . S
C1719 C1721 1.327 . S
C1719 H1742 0.950 . S
C1720 C1719 1.349 . S
C1720 C1732 1.349 . S
C1721 C1719 1.327 . S
C1721 C1737 1.429 . S
C1721 H1743 0.950 . S
C1722 H1718 0.949 . S
C1722 C1730 1.574 . S
C1722 C1738 1.368 . S
H1723 C1731 0.950 . S
H1724 C1729 0.950 . S
H1725 C1730 0.949 . S
H1726 C1732 0.950 . S
H1727 C1733 0.950 . S
H1728 C1734 0.949 . S
C1729 H1724 0.950 . S
C1729 C1731 1.327 . S
C1729 C1735 1.429 . S
C1730 C1722 1.574 . S
C1730 H1725 0.949 . S
C1730 C1736 1.368 . S
C1731 C1715 1.349 . S
C1731 H1723 0.950 . S
C1731 C1729 1.327 . S
C1732 C1720 1.349 . S
C1732 H1726 0.950 . S
C1732 C1733 1.327 . S
C1733 H1727 0.950 . S
C1733 C1732 1.327 . S
C1733 C1737 1.429 . S
C1734 C1717 1.574 . S
C1734 H1728 0.949 . S
C1734 C1738 1.368 . S
C1735 C1716 1.429 . S
C1735 C1729 1.429 . S
C1735 C1736 1.523 . S
C1736 C1717 1.368 . S
C1736 C1730 1.368 . S
C1736 C1735 1.523 . S
C1737 C1721 1.429 . S
C1737 C1733 1.429 . S
C1737 C1738 1.523 . S
C1738 C1722 1.368 . S
C1738 C1734 1.368 . S
C1738 C1737 1.523 . S
H1739 C1714 0.950 . S
H1740 C1716 0.950 . S
H1741 C1717 0.949 . S
H1742 C1719 0.950 . S
H1743 C1721 0.950 . S
C545 C2 1.769 . S
C550 C512 1.769 . S
C575 C36 1.769 . S
C580 C410 1.769 . S
C605 C444 1.769 . S
C610 C70 1.769 . S
C635 C104 1.769 . S
C640 C478 1.769 . S
C665 C308 1.769 . S
C670 C138 1.769 . S
C695 C342 1.769 . S
C700 C172 1.769 . S
C725 C376 1.769 . S
C730 C206 1.769 . S
C755 C274 1.769 . S
C760 C240 1.769 . S
C785 C33 1.157 . S
C790 C271 1.157 . S
C815 C67 1.157 . S
C820 C169 1.157 . S
C845 C101 1.157 . S
C850 C203 1.157 . S
C875 C135 1.157 . S
C880 C237 1.157 . S
C905 C543 1.157 . S
C910 C305 1.157 . S
C935 C441 1.157 . S
C940 C339 1.157 . S
C965 C475 1.157 . S
C970 C373 1.157 . S
C995 C407 1.157 . S
C1000 C509 1.157 . S
C1025 C20 1.532 . S
C1030 C156 1.532 . S
C1055 C190 1.532 . S
C1060 C54 1.532 . S
C1085 C224 1.532 . S
C1090 C88 1.532 . S
C1115 C122 1.532 . S
C1120 C258 1.532 . S
C1145 C428 1.532 . S
C1150 C292 1.532 . S
C1175 C326 1.532 . S
C1180 C462 1.532 . S
C1205 C360 1.532 . S
C1210 C496 1.532 . S
C1235 C530 1.532 . S
C1240 C394 1.532 . S
C1265 C5 1.160 . S
C1270 C9 1.127 . S
C1295 C43 1.127 . S
C1300 C39 1.160 . S
C1325 C73 1.160 . S
C1330 C77 1.127 . S
C1355 C111 1.127 . S
C1360 C107 1.160 . S
C1385 C141 1.160 . S
C1390 C145 1.127 . S
C1415 C175 1.160 . S
C1420 C179 1.127 . S
C1445 C209 1.160 . S
C1450 C213 1.127 . S
C1475 C243 1.160 . S
C1480 C247 1.127 . S
C1505 C281 1.127 . S
C1510 C277 1.160 . S
C1535 C315 1.127 . S
C1540 C311 1.160 . S
C1565 C349 1.127 . S
C1570 C345 1.160 . S
C1595 C383 1.127 . S
C1600 C379 1.160 . S
C1625 C413 1.160 . S
C1630 C417 1.127 . S
C1655 C447 1.160 . S
C1660 C451 1.127 . S
C1685 C485 1.127 . S
C1690 C481 1.160 . S
C1715 C519 1.127 . S
C1720 C515 1.160 . S
