# Generated by pormake.
# Topology uob, (4)-cn, num edge types: 1
# Building blocks:
#     Node 0, Type 0, BuildingBlock: MUDLON_clean_sbu_0, # of connection points: 4
#     Node 1, Type 0, BuildingBlock: MUDLON_clean_sbu_0, # of connection points: 4
#     Node 2, Type 0, BuildingBlock: MUDLON_clean_sbu_0, # of connection points: 4
#     Node 3, Type 0, BuildingBlock: MUDLON_clean_sbu_0, # of connection points: 4
#     Node 4, Type 0, BuildingBlock: MUDLON_clean_sbu_0, # of connection points: 4
#     Node 5, Type 0, BuildingBlock: MUDLON_clean_sbu_0, # of connection points: 4
#     Node 6, Type 0, BuildingBlock: MUDLON_clean_sbu_0, # of connection points: 4
#     Node 7, Type 0, BuildingBlock: MUDLON_clean_sbu_0, # of connection points: 4
#     Node 8, Type 0, BuildingBlock: MUDLON_clean_sbu_0, # of connection points: 4
#     Node 9, Type 0, BuildingBlock: MUDLON_clean_sbu_0, # of connection points: 4
#     Node 10, Type 0, BuildingBlock: MUDLON_clean_sbu_0, # of connection points: 4
#     Node 11, Type 0, BuildingBlock: MUDLON_clean_sbu_0, # of connection points: 4
#     Node 12, Type 0, BuildingBlock: MUDLON_clean_sbu_0, # of connection points: 4
#     Node 13, Type 0, BuildingBlock: MUDLON_clean_sbu_0, # of connection points: 4
#     Node 14, Type 0, BuildingBlock: MUDLON_clean_sbu_0, # of connection points: 4
#     Node 15, Type 0, BuildingBlock: MUDLON_clean_sbu_0, # of connection points: 4
#     Edge 16, Type (0, 0), BuildingBlock: OJICUG_clean_linker_0, # of connection points: 2
#     Edge 17, Type (0, 0), BuildingBlock: OJICUG_clean_linker_0, # of connection points: 2
#     Edge 18, Type (0, 0), BuildingBlock: OJICUG_clean_linker_0, # of connection points: 2
#     Edge 19, Type (0, 0), BuildingBlock: OJICUG_clean_linker_0, # of connection points: 2
#     Edge 20, Type (0, 0), BuildingBlock: OJICUG_clean_linker_0, # of connection points: 2
#     Edge 21, Type (0, 0), BuildingBlock: OJICUG_clean_linker_0, # of connection points: 2
#     Edge 22, Type (0, 0), BuildingBlock: OJICUG_clean_linker_0, # of connection points: 2
#     Edge 23, Type (0, 0), BuildingBlock: OJICUG_clean_linker_0, # of connection points: 2
#     Edge 24, Type (0, 0), BuildingBlock: OJICUG_clean_linker_0, # of connection points: 2
#     Edge 25, Type (0, 0), BuildingBlock: OJICUG_clean_linker_0, # of connection points: 2
#     Edge 26, Type (0, 0), BuildingBlock: OJICUG_clean_linker_0, # of connection points: 2
#     Edge 27, Type (0, 0), BuildingBlock: OJICUG_clean_linker_0, # of connection points: 2
#     Edge 28, Type (0, 0), BuildingBlock: OJICUG_clean_linker_0, # of connection points: 2
#     Edge 29, Type (0, 0), BuildingBlock: OJICUG_clean_linker_0, # of connection points: 2
#     Edge 30, Type (0, 0), BuildingBlock: OJICUG_clean_linker_0, # of connection points: 2
#     Edge 31, Type (0, 0), BuildingBlock: OJICUG_clean_linker_0, # of connection points: 2
#     Edge 32, Type (0, 0), BuildingBlock: OJICUG_clean_linker_0, # of connection points: 2
#     Edge 33, Type (0, 0), BuildingBlock: OJICUG_clean_linker_0, # of connection points: 2
#     Edge 34, Type (0, 0), BuildingBlock: OJICUG_clean_linker_0, # of connection points: 2
#     Edge 35, Type (0, 0), BuildingBlock: OJICUG_clean_linker_0, # of connection points: 2
#     Edge 36, Type (0, 0), BuildingBlock: OJICUG_clean_linker_0, # of connection points: 2
#     Edge 37, Type (0, 0), BuildingBlock: OJICUG_clean_linker_0, # of connection points: 2
#     Edge 38, Type (0, 0), BuildingBlock: OJICUG_clean_linker_0, # of connection points: 2
#     Edge 39, Type (0, 0), BuildingBlock: OJICUG_clean_linker_0, # of connection points: 2
#     Edge 40, Type (0, 0), BuildingBlock: OJICUG_clean_linker_0, # of connection points: 2
#     Edge 41, Type (0, 0), BuildingBlock: OJICUG_clean_linker_0, # of connection points: 2
#     Edge 42, Type (0, 0), BuildingBlock: OJICUG_clean_linker_0, # of connection points: 2
#     Edge 43, Type (0, 0), BuildingBlock: OJICUG_clean_linker_0, # of connection points: 2
#     Edge 44, Type (0, 0), BuildingBlock: OJICUG_clean_linker_0, # of connection points: 2
#     Edge 45, Type (0, 0), BuildingBlock: OJICUG_clean_linker_0, # of connection points: 2
#     Edge 46, Type (0, 0), BuildingBlock: OJICUG_clean_linker_0, # of connection points: 2
#     Edge 47, Type (0, 0), BuildingBlock: OJICUG_clean_linker_0, # of connection points: 2
# Relax obj value: 0.170
# Max RMSD: 0.256
# Mean RMSD: 0.256
data_MOF--net-uob--node1-MUDLON_clean_sbu_0--edge1-OJICUG_clean_linker_0
_symmetry_space_group_name_H-M    P1
_symmetry_Int_Tables_number       1
_symmetry_cell_setting            triclinic
loop_
_symmetry_equiv_pos_as_xyz
'x, y, z'
_cell_length_a     40.18121
_cell_length_b     40.169073
_cell_length_c     21.500527
_cell_angle_alpha  90.112877
_cell_angle_beta   90.103306
_cell_angle_gamma 89.941072
loop_
_atom_site_label
_atom_site_type_symbol
_atom_site_fract_x
_atom_site_fract_y
_atom_site_fract_z
_atom_type_partial_charge
Mg0 Mg 0.14233 0.0792 0.31681 0.0
C1 C 0.13813 0.09227 0.45167 0.0
O2 O 0.15847 0.0667 0.44955 0.0
C3 C 0.15241 0.10341 0.18551 0.0
O4 O 0.16984 0.07573 0.18336 0.0
C5 C 0.2104 0.08913 0.3545 0.0
O6 O 0.19806 0.11857 0.34097 0.0
O7 O 0.19296 0.06365 0.34114 0.0
O8 O 0.1267 0.10415 0.4011 0.0
O9 O 0.10302 0.04289 0.30102 0.0
C10 C 0.09174 0.02461 0.34427 0.0
O11 O 0.10751 0.02344 0.39774 0.0
O12 O 0.1398 0.11237 0.2371 0.0
Mg13 Mg 0.94966 0.64269 0.56815 0.0
C14 C 0.93219 0.64513 0.69968 0.0
O15 O 0.96214 0.65819 0.69859 0.0
C16 C 0.92812 0.65344 0.43409 0.0
O17 O 0.95496 0.67209 0.43338 0.0
C18 C 0.94534 0.71245 0.59536 0.0
O19 O 0.91595 0.70291 0.57514 0.0
O20 O 0.96949 0.69214 0.58955 0.0
O21 O 0.91887 0.6358 0.64893 0.0
O22 O 0.98135 0.59838 0.56862 0.0
C23 C 0.96542 0.57223 0.58412 0.0
O24 O 0.93366 0.57485 0.59758 0.0
O25 O 0.91937 0.63984 0.48477 0.0
Mg26 Mg 0.3878 0.45332 0.82444 0.0
C27 C 0.39111 0.43975 0.95662 0.0
O28 O 0.38037 0.47061 0.95348 0.0
C29 C 0.37608 0.43101 0.69098 0.0
O30 O 0.35845 0.45856 0.68963 0.0
C31 C 0.32017 0.4467 0.86173 0.0
O32 O 0.33116 0.41727 0.8444 0.0
O33 O 0.33833 0.47186 0.84986 0.0
O34 O 0.39704 0.42404 0.90647 0.0
O35 O 0.43185 0.48525 0.82189 0.0
C36 C 0.45822 0.46886 0.83463 0.0
O37 O 0.45569 0.43686 0.84604 0.0
O38 O 0.3894 0.42206 0.74194 0.0
Mg39 Mg 0.57605 0.88832 0.08113 0.0
C40 C 0.59561 0.88646 0.21141 0.0
O41 O 0.5651 0.87476 0.21069 0.0
C42 C 0.58487 0.90938 0.95059 0.0
O43 O 0.55554 0.92123 0.96589 0.0
C44 C 0.58055 0.81897 0.10947 0.0
O45 O 0.6097 0.82867 0.08856 0.0
O46 O 0.55618 0.839 0.1036 0.0
O47 O 0.60918 0.8945 0.1601 0.0
O48 O 0.54469 0.93273 0.08951 0.0
C49 C 0.56119 0.95878 0.10378 0.0
O50 O 0.59331 0.95608 0.11394 0.0
O51 O 0.60065 0.89183 0.99016 0.0
Mg52 Mg 0.14179 0.45691 0.07243 0.0
C53 C 0.13864 0.44201 0.93816 0.0
O54 O 0.15703 0.469 0.9395 0.0
C55 C 0.15296 0.43325 0.2045 0.0
O56 O 0.1701 0.46107 0.20662 0.0
C57 C 0.20963 0.44754 0.03562 0.0
O58 O 0.19746 0.41831 0.0509 0.0
O59 O 0.19214 0.47317 0.04792 0.0
O60 O 0.12779 0.4301 0.98905 0.0
O61 O 0.10113 0.49219 0.0858 0.0
C62 C 0.08934 0.50974 0.04184 0.0
O63 O 0.10511 0.51083 0.98846 0.0
O64 O 0.1401 0.42428 0.15305 0.0
Mg65 Mg 0.57593 0.64101 0.32105 0.0
C66 C 0.58984 0.63808 0.18857 0.0
O67 O 0.55905 0.64902 0.19135 0.0
C68 C 0.59823 0.65239 0.45473 0.0
O69 O 0.57063 0.66994 0.45636 0.0
C70 C 0.58204 0.70871 0.28389 0.0
O71 O 0.61156 0.6979 0.30099 0.0
O72 O 0.55701 0.69044 0.29611 0.0
O73 O 0.60528 0.63191 0.23891 0.0
O74 O 0.54409 0.59689 0.32363 0.0
C75 C 0.56048 0.57051 0.31091 0.0
O76 O 0.59246 0.57306 0.29929 0.0
O77 O 0.6072 0.6393 0.40357 0.0
Mg78 Mg 0.38625 0.07529 0.57807 0.0
C79 C 0.39633 0.08733 0.44748 0.0
O80 O 0.38383 0.05716 0.45027 0.0
C81 C 0.3771 0.09641 0.71282 0.0
O82 O 0.36038 0.06833 0.71455 0.0
C83 C 0.32105 0.08783 0.52865 0.0
O84 O 0.33456 0.11675 0.54217 0.0
O85 O 0.3361 0.06164 0.5468 0.0
O86 O 0.4016 0.10314 0.49781 0.0
O87 O 0.42583 0.03832 0.58388 0.0
C88 C 0.45446 0.052 0.58505 0.0
O89 O 0.45606 0.08468 0.58502 0.0
O90 O 0.38894 0.10618 0.66118 0.0
Mg91 Mg 0.95446 0.8861 0.82545 0.0
C92 C 0.94179 0.89583 0.69449 0.0
O93 O 0.97152 0.88223 0.69667 0.0
C94 C 0.93322 0.87607 0.95919 0.0
O95 O 0.96165 0.8599 0.96087 0.0
C96 C 0.94358 0.82113 0.77337 0.0
O97 O 0.91426 0.83414 0.78552 0.0
O98 O 0.96923 0.83623 0.79388 0.0
O99 O 0.92673 0.90212 0.7451 0.0
O100 O 0.9911 0.9257 0.83476 0.0
C101 C 0.97743 0.95428 0.83898 0.0
O102 O 0.94476 0.95596 0.83929 0.0
O103 O 0.92314 0.88781 0.90763 0.0
Mg104 Mg 0.64196 0.5794 0.81748 0.0
C105 C 0.63916 0.59552 0.95128 0.0
O106 O 0.6586 0.56924 0.95067 0.0
C107 C 0.65167 0.60194 0.68493 0.0
O108 O 0.66844 0.57386 0.68315 0.0
C109 C 0.70993 0.58887 0.85492 0.0
O110 O 0.69789 0.61815 0.83934 0.0
O111 O 0.69244 0.56332 0.84224 0.0
O112 O 0.62749 0.60646 0.90019 0.0
O113 O 0.60174 0.54371 0.8043 0.0
C114 C 0.58949 0.52722 0.84913 0.0
O115 O 0.60458 0.52753 0.90334 0.0
O116 O 0.63967 0.61164 0.73655 0.0
Mg117 Mg 0.45111 0.1419 0.07588 0.0
C118 C 0.43625 0.13855 0.20994 0.0
O119 O 0.46177 0.15893 0.20873 0.0
C120 C 0.42821 0.15026 0.94285 0.0
O121 O 0.45587 0.16765 0.9408 0.0
C122 C 0.4396 0.20962 0.11362 0.0
O123 O 0.41056 0.19665 0.09918 0.0
O124 O 0.46557 0.19288 0.10026 0.0
O125 O 0.42506 0.12681 0.15903 0.0
O126 O 0.48777 0.10238 0.06436 0.0
C127 C 0.5048 0.09117 0.10961 0.0
O128 O 0.50489 0.10739 0.16268 0.0
O129 O 0.41889 0.1383 0.99469 0.0
Mg130 Mg 0.89073 0.94974 0.32282 0.0
C131 C 0.89312 0.9368 0.45587 0.0
O132 O 0.87974 0.96659 0.45234 0.0
C133 C 0.88067 0.92743 0.18942 0.0
O134 O 0.86327 0.95512 0.18772 0.0
C135 C 0.82221 0.94338 0.35608 0.0
O136 O 0.83306 0.91386 0.33904 0.0
O137 O 0.84101 0.96829 0.34605 0.0
O138 O 0.9006 0.92152 0.40597 0.0
O139 O 0.93432 0.9821 0.31908 0.0
C140 C 0.9608 0.96558 0.33026 0.0
O141 O 0.95835 0.93347 0.34072 0.0
O142 O 0.89317 0.91813 0.24088 0.0
Mg143 Mg 0.07887 0.38996 0.56663 0.0
C144 C 0.09349 0.3931 0.70107 0.0
O145 O 0.06725 0.37366 0.69946 0.0
C146 C 0.10224 0.38005 0.43434 0.0
O147 O 0.07457 0.36266 0.43233 0.0
C148 C 0.08882 0.32156 0.60151 0.0
O149 O 0.11813 0.33384 0.58713 0.0
O150 O 0.06326 0.33929 0.59004 0.0
O151 O 0.10511 0.40442 0.6503 0.0
O152 O 0.04268 0.42977 0.55323 0.0
C153 C 0.02513 0.44134 0.59739 0.0
O154 O 0.02469 0.42575 0.65099 0.0
O155 O 0.11138 0.39258 0.48597 0.0
Mg156 Mg 0.64623 0.95369 0.57668 0.0
C157 C 0.64023 0.93456 0.44795 0.0
O158 O 0.65278 0.96474 0.44771 0.0
C159 C 0.63574 0.95122 0.71143 0.0
O160 O 0.63338 0.9829 0.69693 0.0
C161 C 0.71296 0.94382 0.53244 0.0
O162 O 0.70134 0.91456 0.54894 0.0
O163 O 0.69601 0.96947 0.54701 0.0
O164 O 0.63324 0.92113 0.49992 0.0
O165 O 0.60551 0.9896 0.57452 0.0
C166 C 0.57709 0.97578 0.57974 0.0
O167 O 0.57582 0.94321 0.58492 0.0
O168 O 0.64367 0.93066 0.66882 0.0
Mg169 Mg 0.07761 0.14413 0.82174 0.0
C170 C 0.08803 0.13252 0.69062 0.0
O171 O 0.05815 0.14573 0.69401 0.0
C172 C 0.0995 0.15442 0.95525 0.0
O173 O 0.07113 0.17068 0.95692 0.0
C174 C 0.0896 0.20888 0.77029 0.0
O175 O 0.11864 0.19502 0.78156 0.0
O176 O 0.06367 0.19415 0.79025 0.0
O177 O 0.10416 0.12736 0.74061 0.0
O178 O 0.04054 0.10505 0.83239 0.0
C179 C 0.05415 0.07646 0.83725 0.0
O180 O 0.08681 0.0747 0.83735 0.0
O181 O 0.10938 0.14246 0.90369 0.0
Mg182 Mg 0.88709 0.58271 0.0675 0.0
C183 C 0.88728 0.5995 0.93623 0.0
O184 O 0.87528 0.56911 0.93741 0.0
C185 C 0.87701 0.60255 0.20219 0.0
O186 O 0.86029 0.57445 0.20264 0.0
C187 C 0.81868 0.58869 0.03347 0.0
O188 O 0.82902 0.61799 0.05277 0.0
O189 O 0.83761 0.56377 0.04309 0.0
O190 O 0.89525 0.61352 0.98713 0.0
O191 O 0.9314 0.551 0.06808 0.0
C192 C 0.95761 0.56749 0.0552 0.0
O193 O 0.95487 0.59951 0.04412 0.0
O194 O 0.88916 0.61281 0.15122 0.0
Mg195 Mg 0.44865 0.38754 0.32811 0.0
C196 C 0.43321 0.3909 0.19439 0.0
O197 O 0.45951 0.37149 0.19531 0.0
C198 C 0.4259 0.37763 0.46029 0.0
O199 O 0.45381 0.36058 0.46185 0.0
C200 C 0.43844 0.31985 0.28902 0.0
O201 O 0.40915 0.3323 0.30328 0.0
O202 O 0.4641 0.33692 0.303 0.0
O203 O 0.42197 0.40243 0.24537 0.0
O204 O 0.48467 0.42745 0.3417 0.0
C205 C 0.50186 0.43927 0.29736 0.0
O206 O 0.50211 0.42383 0.24349 0.0
O207 O 0.41633 0.38993 0.40884 0.0
C208 C 0.282 0.11653 0.45639 0.0
C209 C 0.29256 0.08674 0.48439 0.0
H210 H 0.24906 0.14036 0.39286 0.0
C211 C 0.27692 0.05682 0.46667 0.0
H212 H 0.29361 0.14007 0.46798 0.0
C213 C 0.25079 0.05702 0.42286 0.0
C214 C 0.24016 0.0871 0.3956 0.0
H215 H 0.28468 0.03338 0.48688 0.0
H216 H 0.2386 0.0338 0.41118 0.0
C217 C 0.25644 0.11668 0.41259 0.0
C218 C 0.97518 0.77528 0.71702 0.0
C219 C 0.94586 0.79376 0.72689 0.0
H220 H 0.99833 0.73482 0.6673 0.0
C221 C 0.91793 0.78685 0.68965 0.0
H222 H 0.99724 0.78026 0.7445 0.0
C223 C 0.91878 0.76174 0.64497 0.0
C224 C 0.94744 0.74224 0.6364 0.0
H225 H 0.89508 0.80092 0.6948 0.0
H226 H 0.8964 0.75709 0.61818 0.0
C227 C 0.97589 0.74952 0.67242 0.0
C228 C 0.27832 0.41865 0.92864 0.0
C229 C 0.29136 0.4485 0.90503 0.0
H230 H 0.24368 0.39511 0.98881 0.0
C231 C 0.27804 0.47884 0.92665 0.0
H232 H 0.28802 0.39474 0.91393 0.0
C233 C 0.25185 0.47904 0.97024 0.0
C234 C 0.23901 0.44893 0.99362 0.0
H235 H 0.28775 0.50229 0.90985 0.0
H236 H 0.24156 0.50265 0.98525 0.0
C237 C 0.25286 0.41887 0.97241 0.0
C238 C 0.60887 0.77337 0.16709 0.0
C239 C 0.57901 0.78944 0.15112 0.0
H240 H 0.63317 0.73654 0.22161 0.0
C241 C 0.5493 0.7787 0.17952 0.0
H242 H 0.63233 0.78084 0.14669 0.0
C243 C 0.54976 0.75247 0.22305 0.0
C244 C 0.58001 0.73713 0.23976 0.0
H245 H 0.52588 0.79071 0.16858 0.0
H246 H 0.52662 0.74448 0.244 0.0
C247 C 0.60941 0.74795 0.21092 0.0
C248 C 0.75225 0.55708 0.91995 0.0
C249 C 0.7387 0.58734 0.89854 0.0
H250 H 0.78835 0.53344 0.9797 0.0
C251 C 0.75121 0.61724 0.92318 0.0
H252 H 0.74297 0.53358 0.90232 0.0
C253 C 0.77616 0.61713 0.96814 0.0
C254 C 0.79006 0.58713 0.98951 0.0
H255 H 0.74136 0.64109 0.90853 0.0
H256 H 0.78488 0.64092 0.98542 0.0
C257 C 0.77797 0.55698 0.96468 0.0
C258 C 0.41031 0.27751 0.22252 0.0
C259 C 0.44013 0.29084 0.24597 0.0
H260 H 0.38689 0.24275 0.16188 0.0
C261 C 0.47049 0.27785 0.22387 0.0
H262 H 0.3864 0.28692 0.23775 0.0
C263 C 0.47077 0.25189 0.17969 0.0
C264 C 0.44071 0.23883 0.15628 0.0
H265 H 0.49392 0.28778 0.2405 0.0
H266 H 0.49442 0.24196 0.16421 0.0
C267 C 0.4106 0.25218 0.17823 0.0
C268 C 0.78284 0.97527 0.427 0.0
C269 C 0.79262 0.94548 0.39744 0.0
H270 H 0.74984 0.9984 0.4933 0.0
C271 C 0.77569 0.91599 0.41239 0.0
H272 H 0.79552 0.9984 0.41686 0.0
C273 C 0.75049 0.91586 0.4567 0.0
C274 C 0.74086 0.9453 0.48714 0.0
H275 H 0.78234 0.89253 0.3908 0.0
H276 H 0.73839 0.89239 0.4667 0.0
C277 C 0.75694 0.97522 0.47116 0.0
C278 C 0.05755 0.28071 0.66987 0.0
C279 C 0.0872 0.29126 0.64108 0.0
H280 H 0.0348 0.24638 0.7339 0.0
C281 C 0.11687 0.27433 0.65507 0.0
H282 H 0.03429 0.2934 0.6605 0.0
C283 C 0.11726 0.24821 0.69751 0.0
C284 C 0.08793 0.23775 0.72714 0.0
H285 H 0.14022 0.28163 0.63404 0.0
H286 H 0.14085 0.23612 0.70684 0.0
C287 C 0.05789 0.25404 0.71236 0.0
C288 C 0.05055 0.98106 0.37441 0.0
C289 C 0.05869 1.00875 0.33788 0.0
H290 H 1.01328 0.94572 0.40006 0.0
C291 C 0.03416 0.0226 0.29881 0.0
H292 H 0.06885 0.97002 0.40519 0.0
C293 C 1.00192 1.00926 0.29717 0.0
C294 C 0.994 0.98134 0.33335 0.0
H295 H 0.03963 0.04426 0.27071 0.0
H296 H 0.98341 0.02042 0.26701 0.0
C297 C 0.01871 0.96725 0.37155 0.0
C298 C 0.96834 0.51478 0.62741 0.0
C299 C 0.98142 0.53908 0.58732 0.0
H300 H 0.972 0.46497 0.66222 0.0
C301 C 1.00849 0.53075 0.54915 0.0
H302 H 0.94746 0.52049 0.65742 0.0
C303 C 0.02197 0.49854 0.55069 0.0
C304 C 1.00911 0.4744 0.59153 0.0
H305 H 0.01887 0.54891 0.51748 0.0
H306 H 0.04295 0.49277 0.52097 0.0
C307 C 0.98229 0.48294 0.63007 0.0
C308 C 0.51551 0.47138 0.8787 0.0
C309 C 0.4914 0.48464 0.83819 0.0
H310 H 0.56526 0.47461 0.91418 0.0
C311 C 0.5 0.51156 0.79998 0.0
H312 H 0.50955 0.45061 0.90876 0.0
C313 C 0.53234 0.52467 0.80179 0.0
C314 C 0.55629 0.51162 0.84303 0.0
H315 H 0.48197 0.52205 0.76801 0.0
H316 H 0.53837 0.54551 0.77199 0.0
C317 C 0.54743 0.48501 0.88171 0.0
C318 C 0.51916 1.00059 0.06667 0.0
C319 C 0.54573 0.99215 0.10608 0.0
H320 H 0.48605 0.03903 0.03538 0.0
C321 C 0.55928 0.01672 0.14528 0.0
H322 H 0.50855 0.98223 0.03546 0.0
C323 C 0.54624 0.04898 0.14584 0.0
C324 C 0.51997 0.05764 0.10595 0.0
H325 H 0.57987 1.0109 0.17602 0.0
H326 H 0.55684 0.06721 0.17734 0.0
C327 C 0.50664 0.03318 0.06607 0.0
C328 C 0.03183 0.51144 0.0875 0.0
C329 C 0.05599 0.52513 0.04765 0.0
H330 H 0.98125 0.51346 0.11991 0.0
C331 C 0.04725 0.55226 0.01003 0.0
H332 H 0.03776 0.49021 0.11647 0.0
C333 C 1.01523 0.56574 0.01271 0.0
C334 C 0.99092 0.55186 0.05183 0.0
H335 H 0.06524 0.56318 0.97864 0.0
H336 H 1.00937 0.5869 0.98347 0.0
C337 C 0.99942 0.52444 0.08899 0.0
C338 C 0.50431 0.49665 0.34385 0.0
C339 C 0.51758 0.47243 0.30339 0.0
H340 H 0.50682 0.5472 0.37674 0.0
C341 C 0.54453 0.48099 0.2653 0.0
H342 H 0.48322 0.49086 0.37319 0.0
C343 C 0.55823 0.5129 0.26806 0.0
C344 C 0.54473 0.53729 0.30773 0.0
H345 H 0.55512 0.46295 0.23344 0.0
H346 H 0.57923 0.51863 0.23841 0.0
C347 C 0.51751 0.52896 0.34542 0.0
C348 C 0.51672 0.04852 0.58168 0.0
C349 C 0.48569 0.03226 0.58433 0.0
H350 H 0.56981 0.04362 0.5779 0.0
C351 C 0.48507 0.99734 0.58536 0.0
H352 H 0.51817 0.07543 0.5807 0.0
C353 C 0.51478 0.97912 0.58382 0.0
C354 C 0.54579 0.9954 0.58099 0.0
H355 H 0.46165 0.98405 0.58731 0.0
H356 H 0.51336 0.95221 0.58471 0.0
C357 C 0.54641 0.03031 0.57993 0.0
C358 C 0.05045 1.01419 0.84083 0.0
C359 C 0.03431 0.04536 0.83998 0.0
H360 H 0.04533 0.96106 0.84112 0.0
C361 C 0.99941 0.04622 0.84037 0.0
H362 H 0.07735 1.01256 0.84057 0.0
C363 C 0.98108 0.01661 0.8409 0.0
C364 C 0.99722 0.98544 0.84082 0.0
H365 H 0.98621 0.06974 0.83978 0.0
H366 H 0.95417 0.01822 0.84067 0.0
C367 C 0.03213 0.98459 0.84112 0.0
C368 C 0.13088 0.10417 0.62524 0.0
C369 C 0.10217 0.12392 0.62956 0.0
H370 H 0.16483 0.07875 0.56524 0.0
C371 C 0.08652 0.13493 0.57478 0.0
H372 H 0.14353 0.09546 0.66667 0.0
C373 C 0.09884 0.12562 0.51669 0.0
C374 C 0.12684 0.10486 0.51241 0.0
H375 H 0.0645 0.15048 0.57671 0.0
H376 H 0.08589 0.13391 0.47528 0.0
C377 C 0.14302 0.0946 0.56716 0.0
C378 C 0.9291 0.65194 0.81456 0.0
C379 C 0.91663 0.63749 0.75972 0.0
H380 H 0.92916 0.65147 0.91404 0.0
C381 C 0.89147 0.6134 0.7635 0.0
H382 H 0.94827 0.67086 0.81284 0.0
C383 C 0.88075 0.60216 0.82136 0.0
C384 C 0.89475 0.61512 0.87619 0.0
H385 H 0.88133 0.60195 0.72193 0.0
H386 H 0.86236 0.58247 0.82308 0.0
C387 C 0.9181 0.64096 0.87243 0.0
C388 C 0.398 0.42891 0.1303 0.0
C389 C 0.41908 0.40115 0.13428 0.0
H390 H 0.37256 0.46293 0.07044 0.0
C391 C 0.42847 0.3844 0.0796 0.0
H392 H 0.39029 0.4422 0.17173 0.0
C393 C 0.41821 0.39612 0.02169 0.0
C394 C 0.39863 0.42495 0.01753 0.0
H395 H 0.44445 0.36268 0.08139 0.0
H396 H 0.42665 0.38331 0.98021 0.0
C397 C 0.38798 0.44081 0.07232 0.0
C398 C 0.64711 0.93017 0.33316 0.0
C399 C 0.63258 0.91822 0.38824 0.0
H400 H 0.64722 0.92901 0.23362 0.0
C401 C 0.60893 0.89265 0.38473 0.0
H402 H 0.66579 0.94959 0.33459 0.0
C403 C 0.5982 0.88101 0.32683 0.0
C404 C 0.61125 0.89446 0.27164 0.0
H405 H 0.59747 0.88288 0.42645 0.0
H406 H 0.57876 0.86235 0.32529 0.0
C407 C 0.63667 0.91826 0.27533 0.0
C408 C 0.09466 0.38996 0.81693 0.0
C409 C 0.1073 0.40354 0.76155 0.0
H410 H 0.09478 0.39135 0.91641 0.0
C411 C 0.13191 0.42822 0.76486 0.0
H412 H 0.07583 0.37069 0.81587 0.0
C413 C 0.1427 0.44006 0.82248 0.0
C414 C 0.12916 0.42736 0.87782 0.0
H415 H 0.14222 0.43904 0.72301 0.0
H416 H 0.1612 0.45965 0.82351 0.0
C417 C 0.10553 0.40173 0.87456 0.0
C418 C 0.63363 0.61086 0.12392 0.0
C419 C 0.60483 0.63051 0.12779 0.0
H420 H 0.66714 0.58446 0.06459 0.0
C421 C 0.58914 0.64115 0.07281 0.0
H422 H 0.6463 0.60243 0.16553 0.0
C423 C 0.60116 0.63102 0.01495 0.0
C424 C 0.62887 0.60985 0.01126 0.0
H425 H 0.56707 0.65663 0.07444 0.0
H426 H 0.58798 0.63871 0.97339 0.0
C427 C 0.64546 0.6005 0.06613 0.0
C428 C 0.42357 0.13109 0.38302 0.0
C429 C 0.40441 0.102 0.38675 0.0
H430 H 0.44854 0.16556 0.32374 0.0
C431 C 0.3937 0.08637 0.3317 0.0
H432 H 0.43201 0.14374 0.4247 0.0
C433 C 0.40294 0.09898 0.27387 0.0
C434 C 0.42328 0.12725 0.27021 0.0
H435 H 0.37858 0.06408 0.33319 0.0
H436 H 0.39503 0.08597 0.23223 0.0
C437 C 0.43304 0.14353 0.32523 0.0
C438 C 0.93939 0.88922 0.57954 0.0
C439 C 0.92684 0.90397 0.63399 0.0
H440 H 0.93806 0.88767 0.48013 0.0
C441 C 0.90103 0.92737 0.62964 0.0
H442 H 0.95903 0.87076 0.5817 0.0
C443 C 0.88921 0.9372 0.57146 0.0
C444 C 0.90269 0.92341 0.5169 0.0
H445 H 0.89084 0.93897 0.67096 0.0
H446 H 0.87003 0.95615 0.56918 0.0
C447 C 0.92725 0.89871 0.52145 0.0
C448 C 0.10529 0.15774 0.07133 0.0
C449 C 0.11682 0.14552 0.01394 0.0
H450 H 0.10779 0.15443 0.1706 0.0
C451 C 0.14299 0.12223 0.01376 0.0
H452 H 0.08534 0.17586 0.07319 0.0
C453 C 0.15579 0.10983 0.06968 0.0
C454 C 0.14285 0.12056 0.12705 0.0
H455 H 0.1526 0.11239 0.97043 0.0
H456 H 0.17493 0.09085 0.06779 0.0
C457 C 0.11823 0.14547 0.12727 0.0
C458 C 0.9219 0.65761 0.3183 0.0
C459 C 0.91128 0.64415 0.37517 0.0
H460 H 0.91909 0.65537 0.21901 0.0
C461 C 0.88646 0.61947 0.37461 0.0
H462 H 0.9408 0.67681 0.31706 0.0
C463 C 0.87409 0.60706 0.31834 0.0
C464 C 0.88613 0.61917 0.26141 0.0
H465 H 0.87756 0.60866 0.41758 0.0
H466 H 0.856 0.5871 0.31955 0.0
C467 C 0.9094 0.64532 0.26203 0.0
C468 C 0.4085 0.38779 0.6323 0.0
C469 C 0.38475 0.41355 0.63232 0.0
H470 H 0.43992 0.35605 0.57798 0.0
C471 C 0.37178 0.42449 0.57513 0.0
H472 H 0.41889 0.3786 0.67551 0.0
C473 C 0.38377 0.41142 0.5191 0.0
C474 C 0.40912 0.38724 0.51905 0.0
H475 H 0.35329 0.44411 0.57345 0.0
H476 H 0.37423 0.42142 0.47584 0.0
C477 C 0.42059 0.37485 0.5763 0.0
C478 C 0.60328 0.9607 0.80817 0.0
C479 C 0.62464 0.94003 0.77374 0.0
H480 H 0.57397 0.96695 0.89001 0.0
C481 C 0.63391 0.90901 0.79882 0.0
H482 H 0.59544 0.98465 0.79024 0.0
C483 C 0.62193 0.89903 0.8574 0.0
C484 C 0.59979 0.91955 0.89064 0.0
H485 H 0.65036 0.89258 0.77331 0.0
H486 H 0.62922 0.87503 0.87585 0.0
C487 C 0.59077 0.95046 0.86537 0.0
C488 C 0.14455 0.41377 0.37618 0.0
C489 C 0.11925 0.3896 0.3758 0.0
H490 H 0.17522 0.44636 0.32241 0.0
C491 C 0.10809 0.3771 0.3183 0.0
H492 H 0.15387 0.42384 0.41961 0.0
C493 C 0.12043 0.38996 0.26248 0.0
C494 C 0.14411 0.41572 0.26289 0.0
H495 H 0.08881 0.3583 0.31627 0.0
H496 H 0.11025 0.38072 0.21908 0.0
C497 C 0.15678 0.42674 0.32036 0.0
C498 C 0.618 0.64432 0.6265 0.0
C499 C 0.64204 0.61884 0.62629 0.0
H500 H 0.5854 0.67506 0.57247 0.0
C501 C 0.65427 0.60736 0.5689 0.0
H502 H 0.60812 0.65386 0.66986 0.0
C503 C 0.64132 0.61962 0.51303 0.0
C504 C 0.6157 0.64352 0.51326 0.0
H505 H 0.67296 0.58793 0.56702 0.0
H506 H 0.65039 0.60924 0.46972 0.0
C507 C 0.60491 0.65646 0.57059 0.0
C508 C 0.40972 0.13974 0.77101 0.0
C509 C 0.38632 0.11372 0.77142 0.0
H510 H 0.44112 0.17184 0.82476 0.0
C511 C 0.37412 0.10247 0.82891 0.0
H512 H 0.41956 0.14913 0.7276 0.0
C513 C 0.38639 0.11563 0.88473 0.0
C514 C 0.4113 0.14021 0.88432 0.0
H515 H 0.35593 0.08262 0.83094 0.0
H516 H 0.37738 0.10547 0.92817 0.0
C517 C 0.42213 0.15277 0.82682 0.0
C518 C 0.91468 0.88532 0.13105 0.0
C519 C 0.89021 0.91039 0.13082 0.0
H520 H 0.94735 0.85468 0.07703 0.0
C521 C 0.87735 0.92121 0.07347 0.0
H522 H 0.92506 0.87629 0.17439 0.0
C523 C 0.89004 0.90867 0.01758 0.0
C524 C 0.91603 0.88518 0.01781 0.0
H525 H 0.85833 0.94031 0.0716 0.0
H526 H 0.88048 0.91855 0.97424 0.0
C527 C 0.92752 0.87294 0.07516 0.0
loop_
_geom_bond_atom_site_label_1
_geom_bond_atom_site_label_2
_geom_bond_distance
_geom_bond_site_symmetry_2
_ccdc_geom_bond_type
Mg0 O7 2.141 . S
Mg0 O8 2.048 . S
Mg0 O9 2.048 . S
Mg0 O12 2.141 . S
C1 O2 1.313 . S
C1 O8 1.195 . S
O2 C1 1.313 . S
C3 O4 1.245 . S
C3 O12 1.289 . S
O4 C3 1.245 . S
C5 O6 1.245 . S
C5 O7 1.289 . S
O6 C5 1.245 . S
O7 Mg0 2.141 . S
O7 C5 1.289 . S
O8 Mg0 2.048 . S
O8 C1 1.195 . S
O9 Mg0 2.048 . S
O9 C10 1.195 . S
C10 O9 1.195 . S
C10 O11 1.313 . S
O11 C10 1.313 . S
O12 Mg0 2.141 . S
O12 C3 1.289 . S
Mg13 O20 2.141 . S
Mg13 O21 2.048 . S
Mg13 O22 2.048 . S
Mg13 O25 2.141 . S
C14 O15 1.313 . S
C14 O21 1.195 . S
O15 C14 1.313 . S
C16 O17 1.245 . S
C16 O25 1.289 . S
O17 C16 1.245 . S
C18 O19 1.245 . S
C18 O20 1.289 . S
O19 C18 1.245 . S
O20 Mg13 2.141 . S
O20 C18 1.289 . S
O21 Mg13 2.048 . S
O21 C14 1.195 . S
O22 Mg13 2.048 . S
O22 C23 1.195 . S
C23 O22 1.195 . S
C23 O24 1.313 . S
O24 C23 1.313 . S
O25 Mg13 2.141 . S
O25 C16 1.289 . S
Mg26 O33 2.141 . S
Mg26 O34 2.048 . S
Mg26 O35 2.048 . S
Mg26 O38 2.141 . S
C27 O28 1.313 . S
C27 O34 1.195 . S
O28 C27 1.313 . S
C29 O30 1.245 . S
C29 O38 1.289 . S
O30 C29 1.245 . S
C31 O32 1.245 . S
C31 O33 1.289 . S
O32 C31 1.245 . S
O33 Mg26 2.141 . S
O33 C31 1.289 . S
O34 Mg26 2.048 . S
O34 C27 1.195 . S
O35 Mg26 2.048 . S
O35 C36 1.195 . S
C36 O35 1.195 . S
C36 O37 1.313 . S
O37 C36 1.313 . S
O38 Mg26 2.141 . S
O38 C29 1.289 . S
Mg39 O46 2.141 . S
Mg39 O47 2.048 . S
Mg39 O48 2.048 . S
Mg39 O51 2.141 1_554 S
C40 O41 1.313 . S
C40 O47 1.195 . S
O41 C40 1.313 . S
C42 O43 1.245 . S
C42 O51 1.289 . S
O43 C42 1.245 . S
C44 O45 1.245 . S
C44 O46 1.289 . S
O45 C44 1.245 . S
O46 Mg39 2.141 . S
O46 C44 1.289 . S
O47 Mg39 2.048 . S
O47 C40 1.195 . S
O48 Mg39 2.048 . S
O48 C49 1.195 . S
C49 O48 1.195 . S
C49 O50 1.313 . S
O50 C49 1.313 . S
O51 Mg39 2.141 1_556 S
O51 C42 1.289 . S
Mg52 O59 2.141 . S
Mg52 O60 2.048 1_554 S
Mg52 O61 2.048 . S
Mg52 O64 2.141 . S
C53 O54 1.313 . S
C53 O60 1.195 . S
O54 C53 1.313 . S
C55 O56 1.245 . S
C55 O64 1.289 . S
O56 C55 1.245 . S
C57 O58 1.245 . S
C57 O59 1.289 . S
O58 C57 1.245 . S
O59 Mg52 2.141 . S
O59 C57 1.289 . S
O60 Mg52 2.048 1_556 S
O60 C53 1.195 . S
O61 Mg52 2.048 . S
O61 C62 1.195 . S
C62 O61 1.195 . S
C62 O63 1.313 . S
O63 C62 1.313 . S
O64 Mg52 2.141 . S
O64 C55 1.289 . S
Mg65 O72 2.141 . S
Mg65 O73 2.048 . S
Mg65 O74 2.048 . S
Mg65 O77 2.141 . S
C66 O67 1.313 . S
C66 O73 1.195 . S
O67 C66 1.313 . S
C68 O69 1.245 . S
C68 O77 1.289 . S
O69 C68 1.245 . S
C70 O71 1.245 . S
C70 O72 1.289 . S
O71 C70 1.245 . S
O72 Mg65 2.141 . S
O72 C70 1.289 . S
O73 Mg65 2.048 . S
O73 C66 1.195 . S
O74 Mg65 2.048 . S
O74 C75 1.195 . S
C75 O74 1.195 . S
C75 O76 1.313 . S
O76 C75 1.313 . S
O77 Mg65 2.141 . S
O77 C68 1.289 . S
Mg78 O85 2.141 . S
Mg78 O86 2.048 . S
Mg78 O87 2.048 . S
Mg78 O90 2.141 . S
C79 O80 1.313 . S
C79 O86 1.195 . S
O80 C79 1.313 . S
C81 O82 1.245 . S
C81 O90 1.289 . S
O82 C81 1.245 . S
C83 O84 1.245 . S
C83 O85 1.289 . S
O84 C83 1.245 . S
O85 Mg78 2.141 . S
O85 C83 1.289 . S
O86 Mg78 2.048 . S
O86 C79 1.195 . S
O87 Mg78 2.048 . S
O87 C88 1.195 . S
C88 O87 1.195 . S
C88 O89 1.313 . S
O89 C88 1.313 . S
O90 Mg78 2.141 . S
O90 C81 1.289 . S
Mg91 O98 2.141 . S
Mg91 O99 2.048 . S
Mg91 O100 2.048 . S
Mg91 O103 2.141 . S
C92 O93 1.313 . S
C92 O99 1.195 . S
O93 C92 1.313 . S
C94 O95 1.245 . S
C94 O103 1.289 . S
O95 C94 1.245 . S
C96 O97 1.245 . S
C96 O98 1.289 . S
O97 C96 1.245 . S
O98 Mg91 2.141 . S
O98 C96 1.289 . S
O99 Mg91 2.048 . S
O99 C92 1.195 . S
O100 Mg91 2.048 . S
O100 C101 1.195 . S
C101 O100 1.195 . S
C101 O102 1.313 . S
O102 C101 1.313 . S
O103 Mg91 2.141 . S
O103 C94 1.289 . S
Mg104 O111 2.141 . S
Mg104 O112 2.048 . S
Mg104 O113 2.048 . S
Mg104 O116 2.141 . S
C105 O106 1.313 . S
C105 O112 1.195 . S
O106 C105 1.313 . S
C107 O108 1.245 . S
C107 O116 1.289 . S
O108 C107 1.245 . S
C109 O110 1.245 . S
C109 O111 1.289 . S
O110 C109 1.245 . S
O111 Mg104 2.141 . S
O111 C109 1.289 . S
O112 Mg104 2.048 . S
O112 C105 1.195 . S
O113 Mg104 2.048 . S
O113 C114 1.195 . S
C114 O113 1.195 . S
C114 O115 1.313 . S
O115 C114 1.313 . S
O116 Mg104 2.141 . S
O116 C107 1.289 . S
Mg117 O124 2.141 . S
Mg117 O125 2.048 . S
Mg117 O126 2.048 . S
Mg117 O129 2.141 1_554 S
C118 O119 1.313 . S
C118 O125 1.195 . S
O119 C118 1.313 . S
C120 O121 1.245 . S
C120 O129 1.289 . S
O121 C120 1.245 . S
C122 O123 1.245 . S
C122 O124 1.289 . S
O123 C122 1.245 . S
O124 Mg117 2.141 . S
O124 C122 1.289 . S
O125 Mg117 2.048 . S
O125 C118 1.195 . S
O126 Mg117 2.048 . S
O126 C127 1.195 . S
C127 O126 1.195 . S
C127 O128 1.313 . S
O128 C127 1.313 . S
O129 Mg117 2.141 1_556 S
O129 C120 1.289 . S
Mg130 O137 2.141 . S
Mg130 O138 2.048 . S
Mg130 O139 2.048 . S
Mg130 O142 2.141 . S
C131 O132 1.313 . S
C131 O138 1.195 . S
O132 C131 1.313 . S
C133 O134 1.245 . S
C133 O142 1.289 . S
O134 C133 1.245 . S
C135 O136 1.245 . S
C135 O137 1.289 . S
O136 C135 1.245 . S
O137 Mg130 2.141 . S
O137 C135 1.289 . S
O138 Mg130 2.048 . S
O138 C131 1.195 . S
O139 Mg130 2.048 . S
O139 C140 1.195 . S
C140 O139 1.195 . S
C140 O141 1.313 . S
O141 C140 1.313 . S
O142 Mg130 2.141 . S
O142 C133 1.289 . S
Mg143 O150 2.141 . S
Mg143 O151 2.048 . S
Mg143 O152 2.048 . S
Mg143 O155 2.141 . S
C144 O145 1.313 . S
C144 O151 1.195 . S
O145 C144 1.313 . S
C146 O147 1.245 . S
C146 O155 1.289 . S
O147 C146 1.245 . S
C148 O149 1.245 . S
C148 O150 1.289 . S
O149 C148 1.245 . S
O150 Mg143 2.141 . S
O150 C148 1.289 . S
O151 Mg143 2.048 . S
O151 C144 1.195 . S
O152 Mg143 2.048 . S
O152 C153 1.195 . S
C153 O152 1.195 . S
C153 O154 1.313 . S
O154 C153 1.313 . S
O155 Mg143 2.141 . S
O155 C146 1.289 . S
Mg156 O163 2.141 . S
Mg156 O164 2.048 . S
Mg156 O165 2.048 . S
Mg156 O168 2.141 . S
C157 O158 1.313 . S
C157 O164 1.195 . S
O158 C157 1.313 . S
C159 O160 1.245 . S
C159 O168 1.289 . S
O160 C159 1.245 . S
C161 O162 1.245 . S
C161 O163 1.289 . S
O162 C161 1.245 . S
O163 Mg156 2.141 . S
O163 C161 1.289 . S
O164 Mg156 2.048 . S
O164 C157 1.195 . S
O165 Mg156 2.048 . S
O165 C166 1.195 . S
C166 O165 1.195 . S
C166 O167 1.313 . S
O167 C166 1.313 . S
O168 Mg156 2.141 . S
O168 C159 1.289 . S
Mg169 O176 2.141 . S
Mg169 O177 2.048 . S
Mg169 O178 2.048 . S
Mg169 O181 2.141 . S
C170 O171 1.313 . S
C170 O177 1.195 . S
O171 C170 1.313 . S
C172 O173 1.245 . S
C172 O181 1.289 . S
O173 C172 1.245 . S
C174 O175 1.245 . S
C174 O176 1.289 . S
O175 C174 1.245 . S
O176 Mg169 2.141 . S
O176 C174 1.289 . S
O177 Mg169 2.048 . S
O177 C170 1.195 . S
O178 Mg169 2.048 . S
O178 C179 1.195 . S
C179 O178 1.195 . S
C179 O180 1.313 . S
O180 C179 1.313 . S
O181 Mg169 2.141 . S
O181 C172 1.289 . S
Mg182 O189 2.141 . S
Mg182 O190 2.048 1_554 S
Mg182 O191 2.048 . S
Mg182 O194 2.141 . S
C183 O184 1.313 . S
C183 O190 1.195 . S
O184 C183 1.313 . S
C185 O186 1.245 . S
C185 O194 1.289 . S
O186 C185 1.245 . S
C187 O188 1.245 . S
C187 O189 1.289 . S
O188 C187 1.245 . S
O189 Mg182 2.141 . S
O189 C187 1.289 . S
O190 Mg182 2.048 1_556 S
O190 C183 1.195 . S
O191 Mg182 2.048 . S
O191 C192 1.195 . S
C192 O191 1.195 . S
C192 O193 1.313 . S
O193 C192 1.313 . S
O194 Mg182 2.141 . S
O194 C185 1.289 . S
Mg195 O202 2.141 . S
Mg195 O203 2.048 . S
Mg195 O204 2.048 . S
Mg195 O207 2.141 . S
C196 O197 1.313 . S
C196 O203 1.195 . S
O197 C196 1.313 . S
C198 O199 1.245 . S
C198 O207 1.289 . S
O199 C198 1.245 . S
C200 O201 1.245 . S
C200 O202 1.289 . S
O201 C200 1.245 . S
O202 Mg195 2.141 . S
O202 C200 1.289 . S
O203 Mg195 2.048 . S
O203 C196 1.195 . S
O204 Mg195 2.048 . S
O204 C205 1.195 . S
C205 O204 1.195 . S
C205 O206 1.313 . S
O206 C205 1.313 . S
O207 Mg195 2.141 . S
O207 C198 1.289 . S
C208 C209 1.387 . S
C208 H212 0.950 . S
C208 C217 1.390 . S
C209 C208 1.387 . S
C209 C211 1.387 . S
H210 C217 0.950 . S
C211 C209 1.387 . S
C211 C213 1.390 . S
C211 H215 0.950 . S
H212 C208 0.950 . S
C213 C211 1.390 . S
C213 C214 1.387 . S
C213 H216 0.950 . S
C214 C213 1.387 . S
C214 C217 1.387 . S
H215 C211 0.950 . S
H216 C213 0.950 . S
C217 C208 1.390 . S
C217 H210 0.950 . S
C217 C214 1.387 . S
C218 C219 1.387 . S
C218 H222 0.950 . S
C218 C227 1.390 . S
C219 C218 1.387 . S
C219 C221 1.387 . S
H220 C227 0.950 . S
C221 C219 1.387 . S
C221 C223 1.390 . S
C221 H225 0.950 . S
H222 C218 0.950 . S
C223 C221 1.390 . S
C223 C224 1.387 . S
C223 H226 0.950 . S
C224 C223 1.387 . S
C224 C227 1.387 . S
H225 C221 0.950 . S
H226 C223 0.950 . S
C227 C218 1.390 . S
C227 H220 0.950 . S
C227 C224 1.387 . S
C228 C229 1.387 . S
C228 H232 0.950 . S
C228 C237 1.390 . S
C229 C228 1.387 . S
C229 C231 1.387 . S
H230 C237 0.950 . S
C231 C229 1.387 . S
C231 C233 1.390 . S
C231 H235 0.950 . S
H232 C228 0.950 . S
C233 C231 1.390 . S
C233 C234 1.387 . S
C233 H236 0.950 . S
C234 C233 1.387 . S
C234 C237 1.387 . S
H235 C231 0.950 . S
H236 C233 0.950 . S
C237 C228 1.390 . S
C237 H230 0.950 . S
C237 C234 1.387 . S
C238 C239 1.387 . S
C238 H242 0.950 . S
C238 C247 1.390 . S
C239 C238 1.387 . S
C239 C241 1.387 . S
H240 C247 0.950 . S
C241 C239 1.387 . S
C241 C243 1.390 . S
C241 H245 0.950 . S
H242 C238 0.950 . S
C243 C241 1.390 . S
C243 C244 1.387 . S
C243 H246 0.950 . S
C244 C243 1.387 . S
C244 C247 1.387 . S
H245 C241 0.950 . S
H246 C243 0.950 . S
C247 C238 1.390 . S
C247 H240 0.950 . S
C247 C244 1.387 . S
C248 C249 1.387 . S
C248 H252 0.950 . S
C248 C257 1.390 . S
C249 C248 1.387 . S
C249 C251 1.387 . S
H250 C257 0.950 . S
C251 C249 1.387 . S
C251 C253 1.390 . S
C251 H255 0.950 . S
H252 C248 0.950 . S
C253 C251 1.390 . S
C253 C254 1.387 . S
C253 H256 0.950 . S
C254 C253 1.387 . S
C254 C257 1.387 . S
H255 C251 0.950 . S
H256 C253 0.950 . S
C257 C248 1.390 . S
C257 H250 0.950 . S
C257 C254 1.387 . S
C258 C259 1.387 . S
C258 H262 0.950 . S
C258 C267 1.390 . S
C259 C258 1.387 . S
C259 C261 1.387 . S
H260 C267 0.950 . S
C261 C259 1.387 . S
C261 C263 1.390 . S
C261 H265 0.950 . S
H262 C258 0.950 . S
C263 C261 1.390 . S
C263 C264 1.387 . S
C263 H266 0.950 . S
C264 C263 1.387 . S
C264 C267 1.387 . S
H265 C261 0.950 . S
H266 C263 0.950 . S
C267 C258 1.390 . S
C267 H260 0.950 . S
C267 C264 1.387 . S
C268 C269 1.387 . S
C268 H272 0.950 . S
C268 C277 1.390 . S
C269 C268 1.387 . S
C269 C271 1.387 . S
H270 C277 0.950 . S
C271 C269 1.387 . S
C271 C273 1.390 . S
C271 H275 0.950 . S
H272 C268 0.950 . S
C273 C271 1.390 . S
C273 C274 1.387 . S
C273 H276 0.950 . S
C274 C273 1.387 . S
C274 C277 1.387 . S
H275 C271 0.950 . S
H276 C273 0.950 . S
C277 C268 1.390 . S
C277 H270 0.950 . S
C277 C274 1.387 . S
C278 C279 1.387 . S
C278 H282 0.950 . S
C278 C287 1.390 . S
C279 C278 1.387 . S
C279 C281 1.387 . S
H280 C287 0.950 . S
C281 C279 1.387 . S
C281 C283 1.390 . S
C281 H285 0.950 . S
H282 C278 0.950 . S
C283 C281 1.390 . S
C283 C284 1.387 . S
C283 H286 0.950 . S
C284 C283 1.387 . S
C284 C287 1.387 . S
H285 C281 0.950 . S
H286 C283 0.950 . S
C287 C278 1.390 . S
C287 H280 0.950 . S
C287 C284 1.387 . S
C288 C289 1.387 . S
C288 H292 0.950 . S
C288 C297 1.390 1_445 S
C289 C288 1.387 . S
C289 C291 1.387 . S
H290 C297 0.950 . S
C291 C289 1.387 . S
C291 C293 1.390 1_445 S
C291 H295 0.950 . S
H292 C288 0.950 . S
C293 C291 1.390 1_665 S
C293 C294 1.387 . S
C293 H296 0.950 . S
C294 C293 1.387 . S
C294 C297 1.387 . S
H295 C291 0.950 . S
H296 C293 0.950 . S
C297 C288 1.390 1_665 S
C297 H290 0.950 . S
C297 C294 1.387 . S
C298 C299 1.387 . S
C298 H302 0.950 . S
C298 C307 1.390 1_655 S
C299 C298 1.387 . S
C299 C301 1.387 . S
H300 C307 0.950 . S
C301 C299 1.387 . S
C301 C303 1.390 1_655 S
C301 H305 0.950 . S
H302 C298 0.950 . S
C303 C301 1.390 1_455 S
C303 C304 1.387 . S
C303 H306 0.950 . S
C304 C303 1.387 . S
C304 C307 1.387 . S
H305 C301 0.950 . S
H306 C303 0.950 . S
C307 C298 1.390 1_455 S
C307 H300 0.950 . S
C307 C304 1.387 . S
C308 C309 1.387 . S
C308 H312 0.950 . S
C308 C317 1.390 . S
C309 C308 1.387 . S
C309 C311 1.387 . S
H310 C317 0.950 . S
C311 C309 1.387 . S
C311 C313 1.390 . S
C311 H315 0.950 . S
H312 C308 0.950 . S
C313 C311 1.390 . S
C313 C314 1.387 . S
C313 H316 0.950 . S
C314 C313 1.387 . S
C314 C317 1.387 . S
H315 C311 0.950 . S
H316 C313 0.950 . S
C317 C308 1.390 . S
C317 H310 0.950 . S
C317 C314 1.387 . S
C318 C319 1.387 . S
C318 H322 0.950 1_554 S
C318 C327 1.390 1_565 S
C319 C318 1.387 . S
C319 C321 1.387 . S
H320 C327 0.950 1_556 S
C321 C319 1.387 . S
C321 C323 1.390 1_565 S
C321 H325 0.950 . S
H322 C318 0.950 1_556 S
C323 C321 1.390 1_545 S
C323 C324 1.387 . S
C323 H326 0.950 . S
C324 C323 1.387 . S
C324 C327 1.387 . S
H325 C321 0.950 . S
H326 C323 0.950 . S
C327 C318 1.390 1_545 S
C327 H320 0.950 1_554 S
C327 C324 1.387 . S
C328 C329 1.387 . S
C328 H332 0.950 . S
C328 C337 1.390 1_455 S
C329 C328 1.387 . S
C329 C331 1.387 . S
H330 C337 0.950 . S
C331 C329 1.387 . S
C331 C333 1.390 1_455 S
C331 H335 0.950 1_554 S
H332 C328 0.950 . S
C333 C331 1.390 1_655 S
C333 C334 1.387 . S
C333 H336 0.950 1_554 S
C334 C333 1.387 . S
C334 C337 1.387 . S
H335 C331 0.950 1_556 S
H336 C333 0.950 1_556 S
C337 C328 1.390 1_655 S
C337 H330 0.950 . S
C337 C334 1.387 . S
C338 C339 1.387 . S
C338 H342 0.950 . S
C338 C347 1.390 . S
C339 C338 1.387 . S
C339 C341 1.387 . S
H340 C347 0.950 . S
C341 C339 1.387 . S
C341 C343 1.390 . S
C341 H345 0.950 . S
H342 C338 0.950 . S
C343 C341 1.390 . S
C343 C344 1.387 . S
C343 H346 0.950 . S
C344 C343 1.387 . S
C344 C347 1.387 . S
H345 C341 0.950 . S
H346 C343 0.950 . S
C347 C338 1.390 . S
C347 H340 0.950 . S
C347 C344 1.387 . S
C348 C349 1.387 . S
C348 H352 0.950 . S
C348 C357 1.390 1_545 S
C349 C348 1.387 . S
C349 C351 1.387 . S
H350 C357 0.950 . S
C351 C349 1.387 . S
C351 C353 1.390 1_545 S
C351 H355 0.950 . S
H352 C348 0.950 . S
C353 C351 1.390 1_565 S
C353 C354 1.387 . S
C353 H356 0.950 . S
C354 C353 1.387 . S
C354 C357 1.387 . S
H355 C351 0.950 . S
H356 C353 0.950 . S
C357 C348 1.390 1_565 S
C357 H350 0.950 . S
C357 C354 1.387 . S
C358 C359 1.387 . S
C358 H362 0.950 . S
C358 C367 1.390 1_445 S
C359 C358 1.387 . S
C359 C361 1.387 . S
H360 C367 0.950 . S
C361 C359 1.387 . S
C361 C363 1.390 1_445 S
C361 H365 0.950 . S
H362 C358 0.950 . S
C363 C361 1.390 1_665 S
C363 C364 1.387 . S
C363 H366 0.950 . S
C364 C363 1.387 . S
C364 C367 1.387 . S
H365 C361 0.950 . S
H366 C363 0.950 . S
C367 C358 1.390 1_665 S
C367 H360 0.950 . S
C367 C364 1.387 . S
C368 C369 1.387 . S
C368 H372 0.950 . S
C368 C377 1.390 . S
C369 C368 1.387 . S
C369 C371 1.387 . S
H370 C377 0.950 . S
C371 C369 1.387 . S
C371 C373 1.390 . S
C371 H375 0.950 . S
H372 C368 0.950 . S
C373 C371 1.390 . S
C373 C374 1.387 . S
C373 H376 0.950 . S
C374 C373 1.387 . S
C374 C377 1.387 . S
H375 C371 0.950 . S
H376 C373 0.950 . S
C377 C368 1.390 . S
C377 H370 0.950 . S
C377 C374 1.387 . S
C378 C379 1.387 . S
C378 H382 0.950 . S
C378 C387 1.390 . S
C379 C378 1.387 . S
C379 C381 1.387 . S
H380 C387 0.950 . S
C381 C379 1.387 . S
C381 C383 1.390 . S
C381 H385 0.950 . S
H382 C378 0.950 . S
C383 C381 1.390 . S
C383 C384 1.387 . S
C383 H386 0.950 . S
C384 C383 1.387 . S
C384 C387 1.387 . S
H385 C381 0.950 . S
H386 C383 0.950 . S
C387 C378 1.390 . S
C387 H380 0.950 . S
C387 C384 1.387 . S
C388 C389 1.387 . S
C388 H392 0.950 . S
C388 C397 1.390 . S
C389 C388 1.387 . S
C389 C391 1.387 . S
H390 C397 0.950 . S
C391 C389 1.387 . S
C391 C393 1.390 . S
C391 H395 0.950 . S
H392 C388 0.950 . S
C393 C391 1.390 . S
C393 C394 1.387 . S
C393 H396 0.950 1_554 S
C394 C393 1.387 . S
C394 C397 1.387 . S
H395 C391 0.950 . S
H396 C393 0.950 1_556 S
C397 C388 1.390 . S
C397 H390 0.950 . S
C397 C394 1.387 . S
C398 C399 1.387 . S
C398 H402 0.950 . S
C398 C407 1.390 . S
C399 C398 1.387 . S
C399 C401 1.387 . S
H400 C407 0.950 . S
C401 C399 1.387 . S
C401 C403 1.390 . S
C401 H405 0.950 . S
H402 C398 0.950 . S
C403 C401 1.390 . S
C403 C404 1.387 . S
C403 H406 0.950 . S
C404 C403 1.387 . S
C404 C407 1.387 . S
H405 C401 0.950 . S
H406 C403 0.950 . S
C407 C398 1.390 . S
C407 H400 0.950 . S
C407 C404 1.387 . S
C408 C409 1.387 . S
C408 H412 0.950 . S
C408 C417 1.390 . S
C409 C408 1.387 . S
C409 C411 1.387 . S
H410 C417 0.950 . S
C411 C409 1.387 . S
C411 C413 1.390 . S
C411 H415 0.950 . S
H412 C408 0.950 . S
C413 C411 1.390 . S
C413 C414 1.387 . S
C413 H416 0.950 . S
C414 C413 1.387 . S
C414 C417 1.387 . S
H415 C411 0.950 . S
H416 C413 0.950 . S
C417 C408 1.390 . S
C417 H410 0.950 . S
C417 C414 1.387 . S
C418 C419 1.387 . S
C418 H422 0.950 . S
C418 C427 1.390 . S
C419 C418 1.387 . S
C419 C421 1.387 . S
H420 C427 0.950 . S
C421 C419 1.387 . S
C421 C423 1.390 . S
C421 H425 0.950 . S
H422 C418 0.950 . S
C423 C421 1.390 . S
C423 C424 1.387 . S
C423 H426 0.950 1_554 S
C424 C423 1.387 . S
C424 C427 1.387 . S
H425 C421 0.950 . S
H426 C423 0.950 1_556 S
C427 C418 1.390 . S
C427 H420 0.950 . S
C427 C424 1.387 . S
C428 C429 1.387 . S
C428 H432 0.950 . S
C428 C437 1.390 . S
C429 C428 1.387 . S
C429 C431 1.387 . S
H430 C437 0.950 . S
C431 C429 1.387 . S
C431 C433 1.390 . S
C431 H435 0.950 . S
H432 C428 0.950 . S
C433 C431 1.390 . S
C433 C434 1.387 . S
C433 H436 0.950 . S
C434 C433 1.387 . S
C434 C437 1.387 . S
H435 C431 0.950 . S
H436 C433 0.950 . S
C437 C428 1.390 . S
C437 H430 0.950 . S
C437 C434 1.387 . S
C438 C439 1.387 . S
C438 H442 0.950 . S
C438 C447 1.390 . S
C439 C438 1.387 . S
C439 C441 1.387 . S
H440 C447 0.950 . S
C441 C439 1.387 . S
C441 C443 1.390 . S
C441 H445 0.950 . S
H442 C438 0.950 . S
C443 C441 1.390 . S
C443 C444 1.387 . S
C443 H446 0.950 . S
C444 C443 1.387 . S
C444 C447 1.387 . S
H445 C441 0.950 . S
H446 C443 0.950 . S
C447 C438 1.390 . S
C447 H440 0.950 . S
C447 C444 1.387 . S
C448 C449 1.387 . S
C448 H452 0.950 . S
C448 C457 1.390 . S
C449 C448 1.387 . S
C449 C451 1.387 . S
H450 C457 0.950 . S
C451 C449 1.387 . S
C451 C453 1.390 . S
C451 H455 0.950 1_554 S
H452 C448 0.950 . S
C453 C451 1.390 . S
C453 C454 1.387 . S
C453 H456 0.950 . S
C454 C453 1.387 . S
C454 C457 1.387 . S
H455 C451 0.950 1_556 S
H456 C453 0.950 . S
C457 C448 1.390 . S
C457 H450 0.950 . S
C457 C454 1.387 . S
C458 C459 1.387 . S
C458 H462 0.950 . S
C458 C467 1.390 . S
C459 C458 1.387 . S
C459 C461 1.387 . S
H460 C467 0.950 . S
C461 C459 1.387 . S
C461 C463 1.390 . S
C461 H465 0.950 . S
H462 C458 0.950 . S
C463 C461 1.390 . S
C463 C464 1.387 . S
C463 H466 0.950 . S
C464 C463 1.387 . S
C464 C467 1.387 . S
H465 C461 0.950 . S
H466 C463 0.950 . S
C467 C458 1.390 . S
C467 H460 0.950 . S
C467 C464 1.387 . S
C468 C469 1.387 . S
C468 H472 0.950 . S
C468 C477 1.390 . S
C469 C468 1.387 . S
C469 C471 1.387 . S
H470 C477 0.950 . S
C471 C469 1.387 . S
C471 C473 1.390 . S
C471 H475 0.950 . S
H472 C468 0.950 . S
C473 C471 1.390 . S
C473 C474 1.387 . S
C473 H476 0.950 . S
C474 C473 1.387 . S
C474 C477 1.387 . S
H475 C471 0.950 . S
H476 C473 0.950 . S
C477 C468 1.390 . S
C477 H470 0.950 . S
C477 C474 1.387 . S
C478 C479 1.387 . S
C478 H482 0.950 . S
C478 C487 1.390 . S
C479 C478 1.387 . S
C479 C481 1.387 . S
H480 C487 0.950 . S
C481 C479 1.387 . S
C481 C483 1.390 . S
C481 H485 0.950 . S
H482 C478 0.950 . S
C483 C481 1.390 . S
C483 C484 1.387 . S
C483 H486 0.950 . S
C484 C483 1.387 . S
C484 C487 1.387 . S
H485 C481 0.950 . S
H486 C483 0.950 . S
C487 C478 1.390 . S
C487 H480 0.950 . S
C487 C484 1.387 . S
C488 C489 1.387 . S
C488 H492 0.950 . S
C488 C497 1.390 . S
C489 C488 1.387 . S
C489 C491 1.387 . S
H490 C497 0.950 . S
C491 C489 1.387 . S
C491 C493 1.390 . S
C491 H495 0.950 . S
H492 C488 0.950 . S
C493 C491 1.390 . S
C493 C494 1.387 . S
C493 H496 0.950 . S
C494 C493 1.387 . S
C494 C497 1.387 . S
H495 C491 0.950 . S
H496 C493 0.950 . S
C497 C488 1.390 . S
C497 H490 0.950 . S
C497 C494 1.387 . S
C498 C499 1.387 . S
C498 H502 0.950 . S
C498 C507 1.390 . S
C499 C498 1.387 . S
C499 C501 1.387 . S
H500 C507 0.950 . S
C501 C499 1.387 . S
C501 C503 1.390 . S
C501 H505 0.950 . S
H502 C498 0.950 . S
C503 C501 1.390 . S
C503 C504 1.387 . S
C503 H506 0.950 . S
C504 C503 1.387 . S
C504 C507 1.387 . S
H505 C501 0.950 . S
H506 C503 0.950 . S
C507 C498 1.390 . S
C507 H500 0.950 . S
C507 C504 1.387 . S
C508 C509 1.387 . S
C508 H512 0.950 . S
C508 C517 1.390 . S
C509 C508 1.387 . S
C509 C511 1.387 . S
H510 C517 0.950 . S
C511 C509 1.387 . S
C511 C513 1.390 . S
C511 H515 0.950 . S
H512 C508 0.950 . S
C513 C511 1.390 . S
C513 C514 1.387 . S
C513 H516 0.950 . S
C514 C513 1.387 . S
C514 C517 1.387 . S
H515 C511 0.950 . S
H516 C513 0.950 . S
C517 C508 1.390 . S
C517 H510 0.950 . S
C517 C514 1.387 . S
C518 C519 1.387 . S
C518 H522 0.950 . S
C518 C527 1.390 . S
C519 C518 1.387 . S
C519 C521 1.387 . S
H520 C527 0.950 . S
C521 C519 1.387 . S
C521 C523 1.390 . S
C521 H525 0.950 . S
H522 C518 0.950 . S
C523 C521 1.390 . S
C523 C524 1.387 . S
C523 H526 0.950 1_554 S
C524 C523 1.387 . S
C524 C527 1.387 . S
H525 C521 0.950 . S
H526 C523 0.950 1_556 S
C527 C518 1.390 . S
C527 H520 0.950 . S
C527 C524 1.387 . S
C209 C83 2.018 . S
C214 C5 2.018 . S
C219 C96 2.017 . S
C224 C18 2.017 . S
C229 C31 2.019 . S
C234 C57 2.018 1_556 S
C239 C44 2.018 . S
C244 C70 2.019 . S
C249 C109 2.017 . S
C254 C187 2.017 1_556 S
C259 C200 2.019 . S
C264 C122 2.018 . S
C269 C135 2.017 . S
C274 C161 2.017 . S
C279 C148 2.017 . S
C284 C174 2.017 . S
C289 C10 1.941 . S
C294 C140 1.941 . S
C299 C23 1.941 . S
C304 C153 1.941 . S
C309 C36 1.941 . S
C314 C114 1.941 . S
C319 C49 1.945 . S
C324 C127 1.945 . S
C329 C62 1.945 . S
C334 C192 1.945 . S
C339 C205 1.945 . S
C344 C75 1.945 . S
C349 C88 1.941 . S
C354 C166 1.941 . S
C359 C179 1.941 . S
C364 C101 1.941 . S
C369 C170 0.745 . S
C374 C1 0.745 . S
C379 C14 0.744 . S
C384 C183 0.745 . S
C389 C196 0.744 . S
C394 C27 0.744 1_554 S
C399 C157 0.744 . S
C404 C40 0.744 . S
C409 C144 0.746 . S
C414 C53 0.746 . S
C419 C66 0.745 . S
C424 C105 0.744 1_554 S
C429 C79 0.746 . S
C434 C118 0.745 . S
C439 C92 0.745 . S
C444 C131 0.745 . S
C449 C172 1.810 1_554 S
C454 C3 1.810 . S
C459 C16 1.811 . S
C464 C185 1.811 . S
C469 C29 1.811 . S
C474 C198 1.811 . S
C479 C159 1.812 . S
C484 C42 1.811 . S
C489 C146 1.811 . S
C494 C55 1.812 . S
C499 C107 1.810 . S
C504 C68 1.811 . S
C509 C81 1.811 . S
C514 C120 1.811 . S
C519 C133 1.810 . S
C524 C94 1.811 1_554 S
