# Generated by pormake.
# Topology uoy, (4)-cn, num edge types: 1
# Building blocks:
#     Node 0, Type 0, BuildingBlock: UXUYUI_clean_sbu_0, # of connection points: 4
#     Node 1, Type 0, BuildingBlock: UXUYUI_clean_sbu_0, # of connection points: 4
#     Node 2, Type 0, BuildingBlock: UXUYUI_clean_sbu_0, # of connection points: 4
#     Node 3, Type 0, BuildingBlock: UXUYUI_clean_sbu_0, # of connection points: 4
#     Node 4, Type 0, BuildingBlock: UXUYUI_clean_sbu_0, # of connection points: 4
#     Node 5, Type 0, BuildingBlock: UXUYUI_clean_sbu_0, # of connection points: 4
#     Node 6, Type 0, BuildingBlock: UXUYUI_clean_sbu_0, # of connection points: 4
#     Node 7, Type 0, BuildingBlock: UXUYUI_clean_sbu_0, # of connection points: 4
#     Node 8, Type 0, BuildingBlock: UXUYUI_clean_sbu_0, # of connection points: 4
#     Node 9, Type 0, BuildingBlock: UXUYUI_clean_sbu_0, # of connection points: 4
#     Node 10, Type 0, BuildingBlock: UXUYUI_clean_sbu_0, # of connection points: 4
#     Node 11, Type 0, BuildingBlock: UXUYUI_clean_sbu_0, # of connection points: 4
#     Node 12, Type 0, BuildingBlock: UXUYUI_clean_sbu_0, # of connection points: 4
#     Node 13, Type 0, BuildingBlock: UXUYUI_clean_sbu_0, # of connection points: 4
#     Node 14, Type 0, BuildingBlock: UXUYUI_clean_sbu_0, # of connection points: 4
#     Node 15, Type 0, BuildingBlock: UXUYUI_clean_sbu_0, # of connection points: 4
#     Edge 16, Type (0, 0), BuildingBlock: ZUJKAS_clean_linker_0, # of connection points: 2
#     Edge 17, Type (0, 0), BuildingBlock: ZUJKAS_clean_linker_0, # of connection points: 2
#     Edge 18, Type (0, 0), BuildingBlock: ZUJKAS_clean_linker_0, # of connection points: 2
#     Edge 19, Type (0, 0), BuildingBlock: ZUJKAS_clean_linker_0, # of connection points: 2
#     Edge 20, Type (0, 0), BuildingBlock: ZUJKAS_clean_linker_0, # of connection points: 2
#     Edge 21, Type (0, 0), BuildingBlock: ZUJKAS_clean_linker_0, # of connection points: 2
#     Edge 22, Type (0, 0), BuildingBlock: ZUJKAS_clean_linker_0, # of connection points: 2
#     Edge 23, Type (0, 0), BuildingBlock: ZUJKAS_clean_linker_0, # of connection points: 2
#     Edge 24, Type (0, 0), BuildingBlock: ZUJKAS_clean_linker_0, # of connection points: 2
#     Edge 25, Type (0, 0), BuildingBlock: ZUJKAS_clean_linker_0, # of connection points: 2
#     Edge 26, Type (0, 0), BuildingBlock: ZUJKAS_clean_linker_0, # of connection points: 2
#     Edge 27, Type (0, 0), BuildingBlock: ZUJKAS_clean_linker_0, # of connection points: 2
#     Edge 28, Type (0, 0), BuildingBlock: ZUJKAS_clean_linker_0, # of connection points: 2
#     Edge 29, Type (0, 0), BuildingBlock: ZUJKAS_clean_linker_0, # of connection points: 2
#     Edge 30, Type (0, 0), BuildingBlock: ZUJKAS_clean_linker_0, # of connection points: 2
#     Edge 31, Type (0, 0), BuildingBlock: ZUJKAS_clean_linker_0, # of connection points: 2
#     Edge 32, Type (0, 0), BuildingBlock: ZUJKAS_clean_linker_0, # of connection points: 2
#     Edge 33, Type (0, 0), BuildingBlock: ZUJKAS_clean_linker_0, # of connection points: 2
#     Edge 34, Type (0, 0), BuildingBlock: ZUJKAS_clean_linker_0, # of connection points: 2
#     Edge 35, Type (0, 0), BuildingBlock: ZUJKAS_clean_linker_0, # of connection points: 2
#     Edge 36, Type (0, 0), BuildingBlock: ZUJKAS_clean_linker_0, # of connection points: 2
#     Edge 37, Type (0, 0), BuildingBlock: ZUJKAS_clean_linker_0, # of connection points: 2
#     Edge 38, Type (0, 0), BuildingBlock: ZUJKAS_clean_linker_0, # of connection points: 2
#     Edge 39, Type (0, 0), BuildingBlock: ZUJKAS_clean_linker_0, # of connection points: 2
#     Edge 40, Type (0, 0), BuildingBlock: ZUJKAS_clean_linker_0, # of connection points: 2
#     Edge 41, Type (0, 0), BuildingBlock: ZUJKAS_clean_linker_0, # of connection points: 2
#     Edge 42, Type (0, 0), BuildingBlock: ZUJKAS_clean_linker_0, # of connection points: 2
#     Edge 43, Type (0, 0), BuildingBlock: ZUJKAS_clean_linker_0, # of connection points: 2
#     Edge 44, Type (0, 0), BuildingBlock: ZUJKAS_clean_linker_0, # of connection points: 2
#     Edge 45, Type (0, 0), BuildingBlock: ZUJKAS_clean_linker_0, # of connection points: 2
#     Edge 46, Type (0, 0), BuildingBlock: ZUJKAS_clean_linker_0, # of connection points: 2
#     Edge 47, Type (0, 0), BuildingBlock: ZUJKAS_clean_linker_0, # of connection points: 2
# Relax obj value: 0.195
# Max RMSD: 0.201
# Mean RMSD: 0.200
data_MOF--net-uoy--node1-UXUYUI_clean_sbu_0--edge1-ZUJKAS_clean_linker_0
_symmetry_space_group_name_H-M    P1
_symmetry_Int_Tables_number       1
_symmetry_cell_setting            triclinic
loop_
_symmetry_equiv_pos_as_xyz
'x, y, z'
_cell_length_a     47.82353
_cell_length_b     47.832341
_cell_length_c     186.93508
_cell_angle_alpha  89.967404
_cell_angle_beta   89.98976
_cell_angle_gamma 89.987169
loop_
_atom_site_label
_atom_site_type_symbol
_atom_site_fract_x
_atom_site_fract_y
_atom_site_fract_z
_atom_type_partial_charge
Li0 Li 0.27135 0.10018 0.18513 0.0
Li1 Li 0.24045 0.13563 0.19025 0.0
Li2 Li 0.22198 0.09779 0.18292 0.0
Li3 Li 0.24921 0.13549 0.17765 0.0
C4 C 0.2534 0.07817 0.19714 0.0
N5 N 0.28089 0.04459 0.20689 0.0
C6 C 0.26321 0.08946 0.20356 0.0
C7 C 0.25738 0.04978 0.1957 0.0
C8 C 0.27709 0.07213 0.20842 0.0
C9 C 0.27141 0.03316 0.20069 0.0
C10 C 0.29458 0.15939 0.18231 0.0
C11 C 0.30627 0.20593 0.17835 0.0
N12 N 0.32992 0.19579 0.17525 0.0
C13 C 0.31905 0.14944 0.17911 0.0
C14 C 0.28816 0.18786 0.18196 0.0
C15 C 0.33664 0.16819 0.17556 0.0
C16 C 0.31422 0.06116 0.18184 0.0
N17 N 0.3053 0.08052 0.18664 0.0
C18 C 0.34766 0.07629 0.19331 0.0
C19 C 0.32134 0.08821 0.19231 0.0
C20 C 0.35783 0.05666 0.18836 0.0
C21 C 0.34055 0.04887 0.18261 0.0
H22 H 0.30128 0.05593 0.1773 0.0
H23 H 0.31391 0.10411 0.19595 0.0
C24 C 0.21101 0.15043 0.20264 0.0
N25 N 0.23369 0.15697 0.19859 0.0
C26 C 0.20686 0.16334 0.20924 0.0
C27 C 0.24952 0.18949 0.20738 0.0
C28 C 0.25264 0.17632 0.20076 0.0
C29 C 0.22666 0.18264 0.21178 0.0
H30 H 0.19664 0.13447 0.20084 0.0
H31 H 0.27081 0.18062 0.1975 0.0
C32 C 0.2417 0.07635 0.17112 0.0
N33 N 0.21688 0.03912 0.16179 0.0
C34 C 0.22958 0.08597 0.16478 0.0
C35 C 0.24134 0.04778 0.1727 0.0
C36 C 0.21712 0.06681 0.16013 0.0
C37 C 0.22863 0.0293 0.16792 0.0
C38 C 0.19292 0.15516 0.18528 0.0
C39 C 0.16753 0.14406 0.18767 0.0
C40 C 0.19825 0.18371 0.18611 0.0
C41 C 0.14792 0.16174 0.19087 0.0
C42 C 0.17813 0.20068 0.18935 0.0
N43 N 0.1536 0.18943 0.19164 0.0
C44 C 0.18381 0.05495 0.18658 0.0
C45 C 0.17271 0.08062 0.1761 0.0
C46 C 0.15858 0.0404 0.18614 0.0
N47 N 0.19017 0.07478 0.18163 0.0
C48 C 0.14735 0.06648 0.17543 0.0
C49 C 0.13979 0.04644 0.18057 0.0
H50 H 0.19788 0.05111 0.19099 0.0
H51 H 0.178 0.09706 0.17236 0.0
C52 C 0.27472 0.14964 0.16467 0.0
N53 N 0.25409 0.1572 0.16928 0.0
C54 C 0.27809 0.16381 0.15821 0.0
C55 C 0.23905 0.19345 0.16139 0.0
C56 C 0.23645 0.17869 0.1678 0.0
C57 C 0.25988 0.18583 0.15646 0.0
H58 H 0.28815 0.13214 0.16596 0.0
H59 H 0.22003 0.18402 0.17152 0.0
O60 O 0.24014 0.09486 0.19226 0.0
O61 O 0.27675 0.14129 0.18567 0.0
O62 O 0.25358 0.09481 0.1758 0.0
O63 O 0.21252 0.13815 0.1822 0.0
H64 H 0.26041 0.11139 0.20476 0.0
H65 H 0.24998 0.04073 0.19075 0.0
H66 H 0.28491 0.0806 0.2134 0.0
H67 H 0.27479 0.01119 0.19963 0.0
H68 H 0.30148 0.22799 0.17799 0.0
H69 H 0.32426 0.12745 0.17929 0.0
H70 H 0.26926 0.19588 0.18439 0.0
H71 H 0.35558 0.16077 0.17303 0.0
H72 H 0.36004 0.0827 0.19788 0.0
H73 H 0.34766 0.03424 0.17858 0.0
H74 H 0.18878 0.15761 0.2124 0.0
H75 H 0.26563 0.20377 0.20916 0.0
H76 H 0.22948 0.10802 0.16349 0.0
H77 H 0.25055 0.04001 0.1776 0.0
H78 H 0.20754 0.07397 0.15522 0.0
H79 H 0.22807 0.00716 0.16909 0.0
H80 H 0.16307 0.12201 0.18712 0.0
H81 H 0.21787 0.19261 0.18435 0.0
H82 H 0.12824 0.15341 0.19276 0.0
H83 H 0.18206 0.22277 0.19006 0.0
H84 H 0.15358 0.02498 0.19019 0.0
H85 H 0.13327 0.07209 0.17112 0.0
H86 H 0.29414 0.15696 0.15452 0.0
H87 H 0.22474 0.21046 0.16029 0.0
Li88 Li 0.89605 0.772 0.43485 0.0
Li89 Li 0.85717 0.74515 0.43969 0.0
Li90 Li 0.89601 0.72216 0.43363 0.0
Li91 Li 0.86203 0.74968 0.42701 0.0
C92 C 0.91298 0.75701 0.44751 0.0
N93 N 0.94511 0.78671 0.45715 0.0
C94 C 0.90023 0.77136 0.45315 0.0
C95 C 0.94207 0.75761 0.4468 0.0
C96 C 0.91685 0.78628 0.45796 0.0
C97 C 0.95794 0.77281 0.45172 0.0
C98 C 0.83953 0.7977 0.43015 0.0
C99 C 0.79575 0.80966 0.42452 0.0
N100 N 0.80792 0.8327 0.4216 0.0
C101 C 0.8516 0.82151 0.4271 0.0
C102 C 0.81136 0.79174 0.42886 0.0
C103 C 0.83526 0.83895 0.4228 0.0
C104 C 0.94072 0.8102 0.4323 0.0
N105 N 0.91733 0.80506 0.43622 0.0
C106 C 0.91996 0.85018 0.44163 0.0
C107 C 0.90696 0.82427 0.44086 0.0
C108 C 0.94378 0.85644 0.43753 0.0
C109 C 0.95444 0.83588 0.4329 0.0
H110 H 0.94822 0.79472 0.42855 0.0
H111 H 0.88809 0.81971 0.44383 0.0
C112 C 0.8382 0.72298 0.45267 0.0
N113 N 0.83223 0.74216 0.44753 0.0
C114 C 0.82169 0.7212 0.4588 0.0
C115 C 0.79292 0.75865 0.45417 0.0
C116 C 0.80999 0.75968 0.44812 0.0
C117 C 0.79898 0.73952 0.45966 0.0
H118 H 0.8563 0.70961 0.45209 0.0
H119 H 0.80594 0.77493 0.44399 0.0
C120 C 0.92242 0.73706 0.42197 0.0
N121 N 0.96081 0.70757 0.4139 0.0
C122 C 0.91436 0.72488 0.41549 0.0
C123 C 0.95004 0.7344 0.42432 0.0
C124 C 0.93408 0.71003 0.41149 0.0
C125 C 0.96912 0.71935 0.42017 0.0
C126 C 0.83697 0.6974 0.43556 0.0
C127 C 0.84661 0.67391 0.43926 0.0
C128 C 0.80832 0.70319 0.43538 0.0
C129 C 0.8274 0.65663 0.44275 0.0
C130 C 0.78979 0.68544 0.43895 0.0
N131 N 0.79963 0.66272 0.44253 0.0
C132 C 0.93518 0.68103 0.43838 0.0
C133 C 0.9103 0.67097 0.42772 0.0
C134 C 0.94769 0.65462 0.43823 0.0
N135 N 0.91674 0.68848 0.43319 0.0
C136 C 0.92242 0.64455 0.42733 0.0
C137 C 0.94099 0.63582 0.43271 0.0
H138 H 0.93945 0.6952 0.44275 0.0
H139 H 0.89513 0.67733 0.42375 0.0
C140 C 0.85133 0.77258 0.41342 0.0
N141 N 0.84329 0.75247 0.41813 0.0
C142 C 0.83857 0.77447 0.40673 0.0
C143 C 0.8098 0.73469 0.40984 0.0
C144 C 0.82303 0.73367 0.41648 0.0
C145 C 0.81765 0.75522 0.40486 0.0
H146 H 0.86794 0.78688 0.41483 0.0
H147 H 0.8174 0.71763 0.42029 0.0
O148 O 0.89706 0.74278 0.44265 0.0
O149 O 0.85529 0.78008 0.43428 0.0
O150 O 0.90332 0.75127 0.42602 0.0
O151 O 0.85549 0.71494 0.43224 0.0
H152 H 0.87774 0.77128 0.45375 0.0
H153 H 0.95225 0.7467 0.44245 0.0
H154 H 0.90726 0.79761 0.46233 0.0
H155 H 0.98046 0.7736 0.45121 0.0
H156 H 0.77398 0.80519 0.42344 0.0
H157 H 0.87342 0.82634 0.42797 0.0
H158 H 0.80175 0.77322 0.4311 0.0
H159 H 0.84436 0.85738 0.42039 0.0
H160 H 0.91122 0.8653 0.44531 0.0
H161 H 0.97253 0.83998 0.42958 0.0
H162 H 0.82743 0.70651 0.46296 0.0
H163 H 0.77554 0.77306 0.45461 0.0
H164 H 0.89305 0.72659 0.41361 0.0
H165 H 0.95659 0.74357 0.42933 0.0
H166 H 0.9281 0.70038 0.40649 0.0
H167 H 0.99051 0.71697 0.42195 0.0
H168 H 0.8687 0.6692 0.43952 0.0
H169 H 0.8005 0.72145 0.43261 0.0
H170 H 0.83459 0.63845 0.44566 0.0
H171 H 0.76759 0.68978 0.43889 0.0
H172 H 0.9616 0.64863 0.44254 0.0
H173 H 0.91694 0.63095 0.42292 0.0
H174 H 0.84551 0.79034 0.40299 0.0
H175 H 0.79363 0.71958 0.40862 0.0
Li176 Li 0.22927 0.39584 0.68448 0.0
Li177 Li 0.26052 0.36243 0.69029 0.0
Li178 Li 0.27881 0.39975 0.68276 0.0
Li179 Li 0.25389 0.36017 0.67763 0.0
C180 C 0.24423 0.42037 0.69638 0.0
N181 N 0.2134 0.45427 0.70538 0.0
C182 C 0.23309 0.40956 0.70272 0.0
C183 C 0.23984 0.44844 0.69464 0.0
C184 C 0.21755 0.42704 0.7072 0.0
C185 C 0.22413 0.46523 0.69925 0.0
C186 C 0.20847 0.33526 0.68218 0.0
C187 C 0.19964 0.28784 0.67843 0.0
N188 N 0.17515 0.2962 0.67541 0.0
C189 C 0.18317 0.34338 0.67906 0.0
C190 C 0.21674 0.30725 0.6819 0.0
C191 C 0.16663 0.32332 0.67566 0.0
C192 C 0.18657 0.43366 0.68035 0.0
N193 N 0.19457 0.41478 0.68539 0.0
C194 C 0.15082 0.41934 0.69144 0.0
C195 C 0.17737 0.40746 0.69087 0.0
C196 C 0.14177 0.43858 0.68626 0.0
C197 C 0.16009 0.44589 0.68069 0.0
H198 H 0.20051 0.43874 0.67599 0.0
H199 H 0.18406 0.39186 0.69469 0.0
C200 C 0.28732 0.35164 0.70332 0.0
N201 N 0.26685 0.34239 0.69887 0.0
C202 C 0.29105 0.33933 0.71001 0.0
C203 C 0.25274 0.30797 0.70738 0.0
C204 C 0.24989 0.32079 0.70071 0.0
C205 C 0.2732 0.3176 0.71219 0.0
H206 H 0.30019 0.36918 0.70174 0.0
H207 H 0.23345 0.31424 0.69712 0.0
C208 C 0.26038 0.41814 0.67047 0.0
N209 N 0.28547 0.45415 0.66085 0.0
C210 C 0.27305 0.40766 0.66429 0.0
C211 C 0.26031 0.44694 0.67174 0.0
C212 C 0.28565 0.42621 0.65949 0.0
C213 C 0.27317 0.46479 0.66682 0.0
C214 C 0.30947 0.34426 0.68614 0.0
C215 C 0.33313 0.35721 0.68902 0.0
C216 C 0.30584 0.31544 0.68699 0.0
C217 C 0.35271 0.3411 0.69274 0.0
C218 C 0.32587 0.30008 0.69075 0.0
N219 N 0.3487 0.31312 0.69352 0.0
C220 C 0.31525 0.44443 0.68624 0.0
C221 C 0.32824 0.41734 0.67615 0.0
C222 C 0.34006 0.45971 0.68579 0.0
N223 N 0.31002 0.42359 0.68149 0.0
C224 C 0.35318 0.4322 0.67546 0.0
C225 C 0.35956 0.45337 0.6804 0.0
H226 H 0.30061 0.44857 0.69051 0.0
H227 H 0.32384 0.40012 0.67258 0.0
C228 C 0.22958 0.34073 0.66494 0.0
N229 N 0.25136 0.33682 0.6695 0.0
C230 C 0.22735 0.32466 0.65875 0.0
C231 C 0.27034 0.30119 0.662 0.0
C232 C 0.2716 0.31758 0.66816 0.0
C233 C 0.24804 0.30473 0.6572 0.0
H234 H 0.21415 0.35666 0.66608 0.0
H235 H 0.28892 0.31526 0.67182 0.0
O236 O 0.25908 0.40348 0.69187 0.0
O237 O 0.22521 0.35467 0.68542 0.0
O238 O 0.24835 0.4003 0.67529 0.0
O239 O 0.28982 0.35972 0.68259 0.0
H240 H 0.23615 0.38785 0.70414 0.0
H241 H 0.24823 0.4571 0.68974 0.0
H242 H 0.2087 0.41894 0.7121 0.0
H243 H 0.22042 0.48695 0.69795 0.0
H244 H 0.20587 0.26613 0.67813 0.0
H245 H 0.1765 0.36498 0.67919 0.0
H246 H 0.23631 0.30064 0.68425 0.0
H247 H 0.14707 0.32932 0.67319 0.0
H248 H 0.13718 0.41282 0.69576 0.0
H249 H 0.15395 0.46076 0.67661 0.0
H250 H 0.30722 0.34726 0.71352 0.0
H251 H 0.23817 0.29167 0.70888 0.0
H252 H 0.27342 0.38544 0.66323 0.0
H253 H 0.25069 0.45537 0.67651 0.0
H254 H 0.29565 0.41839 0.65471 0.0
H255 H 0.27343 0.4871 0.66776 0.0
H256 H 0.33623 0.3795 0.68847 0.0
H257 H 0.28757 0.30511 0.68484 0.0
H258 H 0.37106 0.35087 0.69502 0.0
H259 H 0.32323 0.2778 0.69148 0.0
H260 H 0.34419 0.47596 0.68968 0.0
H261 H 0.36785 0.42632 0.67131 0.0
H262 H 0.21009 0.32834 0.65512 0.0
H263 H 0.28664 0.28598 0.66099 0.0
Li264 Li 0.63839 0.74748 0.94113 0.0
Li265 Li 0.60063 0.7212 0.93585 0.0
Li266 Li 0.63334 0.74867 0.92852 0.0
Li267 Li 0.59939 0.77338 0.93571 0.0
C268 C 0.66223 0.69874 0.93685 0.0
N269 N 0.70497 0.66525 0.94193 0.0
C270 C 0.65636 0.67214 0.93958 0.0
C271 C 0.68988 0.70822 0.93668 0.0
C272 C 0.67825 0.65555 0.94212 0.0
C273 C 0.71118 0.69101 0.93929 0.0
C274 C 0.59759 0.73892 0.95105 0.0
C275 C 0.59212 0.7494 0.96359 0.0
N276 N 0.59756 0.72221 0.9652 0.0
C277 C 0.6031 0.71108 0.95283 0.0
C278 C 0.59204 0.75826 0.95647 0.0
C279 C 0.603 0.70304 0.96002 0.0
C280 C 0.67377 0.77495 0.95086 0.0
N281 N 0.66379 0.74931 0.94901 0.0
C282 C 0.68827 0.72809 0.95873 0.0
C283 C 0.67049 0.72613 0.95286 0.0
C284 C 0.69871 0.75427 0.96078 0.0
C285 C 0.69125 0.77797 0.9568 0.0
H286 H 0.66773 0.79314 0.94779 0.0
H287 H 0.66167 0.70612 0.95148 0.0
C288 C 0.58678 0.66788 0.93127 0.0
N289 N 0.57905 0.68801 0.93599 0.0
C290 C 0.57371 0.64185 0.93136 0.0
C291 C 0.54397 0.65822 0.94095 0.0
C292 C 0.55769 0.68399 0.94068 0.0
C293 C 0.55235 0.63657 0.93634 0.0
H294 H 0.60365 0.67188 0.92755 0.0
H295 H 0.55178 0.70054 0.94432 0.0
C296 C 0.65651 0.79727 0.9309 0.0
N297 N 0.69039 0.82962 0.92226 0.0
C298 C 0.64475 0.81752 0.92643 0.0
C299 C 0.6855 0.7937 0.93105 0.0
C300 C 0.66224 0.83361 0.92208 0.0
C301 C 0.70227 0.81019 0.92662 0.0
C302 C 0.56406 0.74526 0.92613 0.0
C303 C 0.55526 0.74136 0.91908 0.0
C304 C 0.54423 0.74706 0.93161 0.0
C305 C 0.52668 0.73939 0.91761 0.0
C306 C 0.51585 0.74497 0.92992 0.0
N307 N 0.50774 0.74121 0.92302 0.0
C308 C 0.67438 0.73452 0.91817 0.0
C309 C 0.63949 0.76644 0.91435 0.0
C310 C 0.68702 0.73532 0.91145 0.0
N311 N 0.65116 0.75004 0.91949 0.0
C312 C 0.65151 0.76797 0.90757 0.0
C313 C 0.67554 0.75216 0.90605 0.0
H314 H 0.68296 0.72133 0.9223 0.0
H315 H 0.62075 0.77823 0.91554 0.0
C316 C 0.58119 0.82289 0.9421 0.0
N317 N 0.57818 0.8068 0.93616 0.0
C318 C 0.56911 0.84942 0.94239 0.0
C319 C 0.55087 0.84222 0.93047 0.0
C320 C 0.56336 0.81586 0.9304 0.0
C321 C 0.55403 0.85955 0.93648 0.0
H322 H 0.59386 0.81551 0.94649 0.0
H323 H 0.5622 0.80317 0.92563 0.0
O324 O 0.64104 0.71526 0.93433 0.0
O325 O 0.5978 0.74724 0.94404 0.0
O326 O 0.6397 0.78087 0.93508 0.0
O327 O 0.592 0.74705 0.92763 0.0
H328 H 0.63513 0.66445 0.93979 0.0
H329 H 0.69481 0.72877 0.93464 0.0
H330 H 0.67398 0.63498 0.94427 0.0
H331 H 0.73263 0.69816 0.93922 0.0
H332 H 0.58785 0.76415 0.96784 0.0
H333 H 0.60787 0.69591 0.94873 0.0
H334 H 0.58765 0.77986 0.9552 0.0
H335 H 0.60738 0.68158 0.96147 0.0
H336 H 0.69303 0.70945 0.96179 0.0
H337 H 0.69874 0.79853 0.95828 0.0
H338 H 0.58043 0.62595 0.92762 0.0
H339 H 0.52765 0.655 0.94489 0.0
H340 H 0.62236 0.82055 0.92625 0.0
H341 H 0.69494 0.77836 0.93455 0.0
H342 H 0.65342 0.84921 0.91855 0.0
H343 H 0.72474 0.80757 0.92665 0.0
H344 H 0.57038 0.73989 0.91478 0.0
H345 H 0.5506 0.75011 0.9371 0.0
H346 H 0.51957 0.73639 0.91217 0.0
H347 H 0.50028 0.74634 0.9341 0.0
H348 H 0.70565 0.72297 0.91052 0.0
H349 H 0.64179 0.78092 0.90351 0.0
H350 H 0.57197 0.86207 0.94714 0.0
H351 H 0.53992 0.84944 0.92575 0.0
Li352 Li 0.25015 0.35934 0.06517 0.0
Li353 Li 0.22297 0.39503 0.05906 0.0
Li354 Li 0.24581 0.35769 0.05243 0.0
Li355 Li 0.27286 0.39509 0.05793 0.0
C356 C 0.19803 0.33666 0.05616 0.0
N357 N 0.16383 0.30121 0.04844 0.0
C358 C 0.17506 0.34731 0.05242 0.0
C359 C 0.20357 0.30796 0.05598 0.0
C360 C 0.15801 0.32904 0.04855 0.0
C361 C 0.18605 0.29039 0.05204 0.0
C362 C 0.23698 0.41801 0.07111 0.0
C363 C 0.21988 0.4642 0.07387 0.0
N364 N 0.20591 0.45362 0.07961 0.0
C365 C 0.22251 0.4076 0.07704 0.0
C366 C 0.23575 0.44654 0.06952 0.0
C367 C 0.20691 0.42595 0.08127 0.0
C368 C 0.27282 0.34743 0.07861 0.0
N369 N 0.2534 0.33881 0.07379 0.0
C370 C 0.23855 0.30221 0.08159 0.0
C371 C 0.23632 0.31676 0.07514 0.0
C372 C 0.25842 0.31063 0.08669 0.0
C373 C 0.27579 0.3335 0.08512 0.0
H374 H 0.28581 0.36534 0.07741 0.0
H375 H 0.22081 0.31062 0.07125 0.0
C376 C 0.18493 0.43883 0.05546 0.0
N377 N 0.18973 0.41643 0.05976 0.0
C378 C 0.15944 0.45301 0.05583 0.0
C379 C 0.14454 0.42085 0.06506 0.0
C380 C 0.17028 0.40738 0.06452 0.0
C381 C 0.13871 0.44386 0.06062 0.0
H382 H 0.20067 0.44538 0.05167 0.0
H383 H 0.17459 0.38922 0.0678 0.0
C384 C 0.29834 0.33783 0.06178 0.0
N385 N 0.3333 0.30489 0.07 0.0
C386 C 0.32209 0.34942 0.06497 0.0
C387 C 0.29243 0.30945 0.06275 0.0
C388 C 0.3395 0.33241 0.06911 0.0
C389 C 0.31033 0.29316 0.06694 0.0
C390 C 0.25823 0.41533 0.04551 0.0
C391 C 0.27095 0.40427 0.03941 0.0
C392 C 0.2605 0.44391 0.04696 0.0
C393 C 0.28587 0.42201 0.03485 0.0
C394 C 0.27565 0.46095 0.04228 0.0
N395 N 0.28791 0.44974 0.03638 0.0
C396 C 0.22416 0.34229 0.03908 0.0
C397 C 0.2588 0.31141 0.04354 0.0
C398 C 0.22172 0.32662 0.03282 0.0
N399 N 0.2426 0.33456 0.04424 0.0
C400 C 0.25699 0.29504 0.03738 0.0
C401 C 0.23851 0.30279 0.03187 0.0
H402 H 0.21174 0.361 0.03977 0.0
H403 H 0.2734 0.30586 0.0477 0.0
C404 C 0.31186 0.43695 0.06192 0.0
N405 N 0.306 0.41662 0.05707 0.0
C406 C 0.33743 0.451 0.06166 0.0
C407 C 0.35017 0.42321 0.05135 0.0
C408 C 0.32448 0.40956 0.05185 0.0
C409 C 0.35705 0.44398 0.05636 0.0
H410 H 0.29699 0.44175 0.06609 0.0
H411 H 0.31954 0.39277 0.04819 0.0
O412 O 0.21537 0.35428 0.05984 0.0
O413 O 0.2518 0.40029 0.0668 0.0
O414 O 0.28069 0.35426 0.05783 0.0
O415 O 0.2439 0.39824 0.0501 0.0
H416 H 0.17063 0.36947 0.05241 0.0
H417 H 0.2215 0.2994 0.05874 0.0
H418 H 0.14024 0.33701 0.04561 0.0
H419 H 0.19021 0.26818 0.05181 0.0
H420 H 0.2186 0.48629 0.07268 0.0
H421 H 0.22302 0.38555 0.07832 0.0
H422 H 0.24665 0.45491 0.06492 0.0
H423 H 0.1955 0.41817 0.08585 0.0
H424 H 0.22489 0.28456 0.08256 0.0
H425 H 0.29105 0.34099 0.08894 0.0
H426 H 0.15593 0.47081 0.05236 0.0
H427 H 0.12905 0.41274 0.06874 0.0
H428 H 0.32692 0.37135 0.06434 0.0
H429 H 0.27393 0.3002 0.06042 0.0
H430 H 0.35789 0.34113 0.07163 0.0
H431 H 0.30588 0.27124 0.06778 0.0
H432 H 0.26963 0.38218 0.03823 0.0
H433 H 0.25103 0.45278 0.0517 0.0
H434 H 0.29592 0.41372 0.03013 0.0
H435 H 0.27773 0.48307 0.04336 0.0
H436 H 0.20756 0.33366 0.02868 0.0
H437 H 0.27013 0.2767 0.0369 0.0
H438 H 0.34193 0.46696 0.0656 0.0
H439 H 0.3649 0.41685 0.04727 0.0
Li440 Li 0.64129 0.75084 0.31388 0.0
Li441 Li 0.60459 0.72545 0.30761 0.0
Li442 Li 0.64229 0.75095 0.30109 0.0
Li443 Li 0.60488 0.77707 0.30694 0.0
C444 C 0.66399 0.70143 0.31104 0.0
N445 N 0.70121 0.66845 0.31858 0.0
C446 C 0.65482 0.6769 0.31436 0.0
C447 C 0.69218 0.70896 0.31147 0.0
C448 C 0.67394 0.66055 0.31816 0.0
C449 C 0.71064 0.69209 0.31533 0.0
C450 C 0.57701 0.74972 0.31972 0.0
C451 C 0.52766 0.7566 0.32178 0.0
N452 N 0.53018 0.74415 0.32829 0.0
C453 C 0.57916 0.73743 0.32649 0.0
C454 C 0.5511 0.75976 0.3174 0.0
C455 C 0.55523 0.73462 0.33071 0.0
C456 C 0.6805 0.77314 0.32359 0.0
N457 N 0.66282 0.75144 0.32238 0.0
C458 C 0.67437 0.73098 0.33364 0.0
C459 C 0.65955 0.73053 0.32723 0.0
C460 C 0.69268 0.75324 0.33509 0.0
C461 C 0.69579 0.77444 0.32994 0.0
H462 H 0.68251 0.78961 0.31967 0.0
H463 H 0.64518 0.71363 0.32614 0.0
C464 C 0.5775 0.6805 0.30107 0.0
N465 N 0.58284 0.69225 0.30754 0.0
C466 C 0.56387 0.65478 0.30063 0.0
C467 C 0.56164 0.65361 0.31355 0.0
C468 C 0.57515 0.67946 0.31373 0.0
C469 C 0.5561 0.64077 0.30694 0.0
H470 H 0.58435 0.69087 0.29623 0.0
H471 H 0.58056 0.68869 0.3188 0.0
C472 C 0.66456 0.8001 0.30392 0.0
N473 N 0.70213 0.83237 0.2963 0.0
C474 C 0.65522 0.82323 0.30002 0.0
C475 C 0.69305 0.79362 0.30402 0.0
C476 C 0.67453 0.83923 0.29619 0.0
C477 C 0.7117 0.81011 0.30011 0.0
C478 C 0.57747 0.75223 0.29504 0.0
C479 C 0.57856 0.76132 0.28794 0.0
C480 C 0.55171 0.74497 0.29805 0.0
C481 C 0.55378 0.76365 0.28402 0.0
C482 C 0.52741 0.74755 0.29396 0.0
N483 N 0.52893 0.75681 0.28709 0.0
C484 C 0.68486 0.73047 0.29184 0.0
C485 C 0.65935 0.76972 0.28766 0.0
C486 C 0.70006 0.72936 0.28546 0.0
N487 N 0.66486 0.75035 0.29278 0.0
C488 C 0.6739 0.76933 0.28121 0.0
C489 C 0.69428 0.74871 0.28001 0.0
H490 H 0.68856 0.71509 0.29597 0.0
H491 H 0.64333 0.78527 0.28856 0.0
C492 C 0.57977 0.8238 0.31314 0.0
N493 N 0.58357 0.81057 0.30678 0.0
C494 C 0.5665 0.84976 0.31339 0.0
C495 C 0.56122 0.84798 0.30053 0.0
C496 C 0.57454 0.82201 0.30054 0.0
C497 C 0.55733 0.86235 0.30701 0.0
H498 H 0.58767 0.81443 0.31801 0.0
H499 H 0.57849 0.81149 0.29554 0.0
O500 O 0.64549 0.7179 0.30737 0.0
O501 O 0.60037 0.7529 0.31555 0.0
O502 O 0.64589 0.7839 0.30761 0.0
O503 O 0.6016 0.74981 0.29894 0.0
H504 H 0.63318 0.67058 0.31403 0.0
H505 H 0.69968 0.72774 0.3089 0.0
H506 H 0.66708 0.6416 0.32079 0.0
H507 H 0.73246 0.69781 0.31575 0.0
H508 H 0.50748 0.76419 0.32003 0.0
H509 H 0.59904 0.72994 0.32844 0.0
H510 H 0.54906 0.7702 0.3123 0.0
H511 H 0.5566 0.72491 0.33593 0.0
H512 H 0.67098 0.71442 0.3375 0.0
H513 H 0.70986 0.79185 0.33081 0.0
H514 H 0.55977 0.64584 0.29542 0.0
H515 H 0.55658 0.64333 0.31855 0.0
H516 H 0.6333 0.82867 0.2999 0.0
H517 H 0.70069 0.77598 0.30706 0.0
H518 H 0.66756 0.85708 0.29311 0.0
H519 H 0.73378 0.80521 0.3001 0.0
H520 H 0.59829 0.76664 0.28547 0.0
H521 H 0.5505 0.73697 0.30344 0.0
H522 H 0.55433 0.77085 0.27854 0.0
H523 H 0.50735 0.74203 0.29624 0.0
H524 H 0.71546 0.71301 0.28471 0.0
H525 H 0.6691 0.78487 0.27717 0.0
H526 H 0.56434 0.86029 0.31849 0.0
H527 H 0.55436 0.85687 0.2955 0.0
Li528 Li 0.24871 0.13552 0.56516 0.0
Li529 Li 0.27098 0.09941 0.55839 0.0
Li530 Li 0.24992 0.14064 0.55237 0.0
Li531 Li 0.22015 0.10431 0.5583 0.0
C532 C 0.3018 0.15871 0.56009 0.0
N533 N 0.3426 0.19864 0.56238 0.0
C534 C 0.32719 0.15127 0.56327 0.0
C535 C 0.29736 0.18639 0.55797 0.0
C536 C 0.3475 0.17178 0.56441 0.0
C537 C 0.31819 0.20628 0.5592 0.0
C538 C 0.25741 0.08468 0.57243 0.0
C539 C 0.25908 0.05322 0.5825 0.0
N540 N 0.28388 0.06466 0.58452 0.0
C541 C 0.28287 0.09616 0.57461 0.0
C542 C 0.24536 0.06308 0.5764 0.0
C543 C 0.29594 0.08575 0.58074 0.0
C544 C 0.22872 0.1451 0.5788 0.0
N545 N 0.24877 0.15413 0.5742 0.0
C546 C 0.26605 0.18628 0.58291 0.0
C547 C 0.26725 0.17439 0.5761 0.0
C548 C 0.24559 0.17727 0.58779 0.0
C549 C 0.22665 0.1565 0.58564 0.0
H550 H 0.21428 0.12895 0.57714 0.0
H551 H 0.28304 0.1813 0.5724 0.0
C552 C 0.3237 0.0847 0.55376 0.0
N553 N 0.3021 0.07513 0.55779 0.0
C554 C 0.34873 0.06985 0.55346 0.0
C555 C 0.32852 0.03502 0.5613 0.0
C556 C 0.30375 0.05052 0.56141 0.0
C557 C 0.35153 0.0449 0.55736 0.0
H558 H 0.32168 0.10434 0.55094 0.0
H559 H 0.28611 0.0432 0.5645 0.0
C560 C 0.20353 0.16517 0.56274 0.0
N561 N 0.17721 0.20401 0.57137 0.0
C562 C 0.17841 0.15845 0.56615 0.0
C563 C 0.21504 0.1918 0.56364 0.0
C564 C 0.16547 0.17834 0.57051 0.0
C565 C 0.20149 0.21109 0.56805 0.0
C566 C 0.24433 0.07358 0.54703 0.0
C567 C 0.24744 0.06972 0.53967 0.0
C568 C 0.2399 0.05046 0.55147 0.0
C569 C 0.24595 0.04271 0.53685 0.0
C570 C 0.23855 0.0238 0.54844 0.0
N571 N 0.24158 0.02051 0.54126 0.0
C572 C 0.27207 0.15711 0.53922 0.0
C573 C 0.23697 0.18737 0.54373 0.0
C574 C 0.27441 0.17314 0.53301 0.0
N575 N 0.25337 0.16432 0.54436 0.0
C576 C 0.23878 0.20414 0.53764 0.0
C577 C 0.25738 0.19686 0.53212 0.0
H578 H 0.28471 0.13853 0.53989 0.0
H579 H 0.22222 0.19251 0.54791 0.0
C580 C 0.17286 0.08015 0.5644 0.0
N581 N 0.18542 0.08548 0.55802 0.0
C582 C 0.14607 0.06866 0.56459 0.0
C583 C 0.14628 0.06696 0.55166 0.0
C584 C 0.17289 0.07901 0.55171 0.0
C585 C 0.13242 0.06217 0.55817 0.0
H586 H 0.18336 0.08567 0.56932 0.0
H587 H 0.18331 0.08373 0.54672 0.0
O588 O 0.28181 0.13882 0.55887 0.0
O589 O 0.24415 0.09451 0.56645 0.0
O590 O 0.21684 0.14573 0.55858 0.0
O591 O 0.24592 0.09989 0.54986 0.0
H592 H 0.33125 0.12987 0.56484 0.0
H593 H 0.27808 0.19251 0.55541 0.0
H594 H 0.36718 0.16633 0.5669 0.0
H595 H 0.31496 0.2278 0.55762 0.0
H596 H 0.25001 0.03647 0.58562 0.0
H597 H 0.29236 0.11298 0.57163 0.0
H598 H 0.22563 0.05399 0.57477 0.0
H599 H 0.31566 0.09446 0.58249 0.0
H600 H 0.28132 0.20198 0.58437 0.0
H601 H 0.21025 0.14922 0.58917 0.0
H602 H 0.36604 0.07838 0.55043 0.0
H603 H 0.32974 0.0157 0.5643 0.0
H604 H 0.16903 0.13809 0.56547 0.0
H605 H 0.23445 0.19739 0.56105 0.0
H606 H 0.1461 0.17334 0.57322 0.0
H607 H 0.21034 0.23167 0.56885 0.0
H608 H 0.25097 0.08742 0.53617 0.0
H609 H 0.23752 0.05302 0.55718 0.0
H610 H 0.2483 0.0394 0.53115 0.0
H611 H 0.23512 0.00572 0.55181 0.0
H612 H 0.2887 0.16644 0.52885 0.0
H613 H 0.2255 0.22242 0.53723 0.0
H614 H 0.13602 0.06509 0.56971 0.0
H615 H 0.13624 0.06236 0.5466 0.0
Li616 Li 0.89437 0.77259 0.80837 0.0
Li617 Li 0.85869 0.75003 0.81579 0.0
Li618 Li 0.89184 0.72285 0.80932 0.0
Li619 Li 0.85634 0.7467 0.80293 0.0
C620 C 0.92567 0.7414 0.81932 0.0
N621 N 0.97772 0.72231 0.82351 0.0
C622 C 0.92866 0.72633 0.82569 0.0
C623 C 0.94917 0.74674 0.81509 0.0
C624 C 0.95514 0.71686 0.82771 0.0
C625 C 0.9753 0.73694 0.8173 0.0
C626 C 0.84966 0.80658 0.81183 0.0
C627 C 0.83045 0.85318 0.81151 0.0
N628 N 0.84249 0.85865 0.81795 0.0
C629 C 0.86185 0.81267 0.81844 0.0
C630 C 0.83386 0.82697 0.80832 0.0
C631 C 0.85797 0.83911 0.82145 0.0
C632 C 0.91764 0.81776 0.80092 0.0
N633 N 0.91637 0.80514 0.80742 0.0
C634 C 0.94173 0.84252 0.81282 0.0
C635 C 0.92835 0.8167 0.8133 0.0
C636 C 0.9428 0.85652 0.80621 0.0
C637 C 0.93093 0.84357 0.80018 0.0
H638 H 0.90766 0.80808 0.79635 0.0
H639 H 0.92665 0.80631 0.81842 0.0
C640 C 0.84502 0.73365 0.82961 0.0
N641 N 0.83738 0.7516 0.82433 0.0
C642 C 0.83067 0.73342 0.8361 0.0
C643 C 0.80017 0.76955 0.83151 0.0
C644 C 0.81514 0.76906 0.8251 0.0
C645 C 0.80802 0.75167 0.83713 0.0
H646 H 0.86223 0.71943 0.82875 0.0
H647 H 0.80889 0.78252 0.82074 0.0
C648 C 0.90052 0.72859 0.79461 0.0
N649 N 0.90763 0.69527 0.78268 0.0
C650 C 0.88777 0.70232 0.79426 0.0
C651 C 0.91687 0.7379 0.7889 0.0
C652 C 0.89162 0.6858 0.78818 0.0
C653 C 0.92023 0.72075 0.78291 0.0
C654 C 0.82343 0.70962 0.81065 0.0
C655 C 0.81538 0.68199 0.81193 0.0
C656 C 0.80299 0.73038 0.81001 0.0
C657 C 0.78699 0.67558 0.81257 0.0
C658 C 0.77483 0.72313 0.81068 0.0
N659 N 0.76747 0.69611 0.81194 0.0
C660 C 0.9017 0.66858 0.814 0.0
C661 C 0.93753 0.68592 0.80644 0.0
C662 C 0.91519 0.64283 0.81455 0.0
N663 N 0.91287 0.6893 0.80994 0.0
C664 C 0.95182 0.6605 0.80685 0.0
C665 C 0.94052 0.63844 0.8109 0.0
H666 H 0.8821 0.672 0.81675 0.0
H667 H 0.946 0.70288 0.80328 0.0
C668 C 0.83025 0.77004 0.79094 0.0
N669 N 0.83291 0.74603 0.79477 0.0
C670 C 0.81534 0.77014 0.78452 0.0
C671 C 0.80567 0.72096 0.78622 0.0
C672 C 0.82078 0.7218 0.79259 0.0
C673 C 0.80324 0.74523 0.78203 0.0
H674 H 0.84046 0.78889 0.79277 0.0
H675 H 0.82345 0.70292 0.79569 0.0
O676 O 0.89981 0.75023 0.81714 0.0
O677 O 0.85353 0.78102 0.8087 0.0
O678 O 0.89698 0.74537 0.80047 0.0
O679 O 0.85124 0.71604 0.81005 0.0
H680 H 0.91077 0.72192 0.82903 0.0
H681 H 0.94721 0.75788 0.81008 0.0
H682 H 0.95775 0.70514 0.83261 0.0
H683 H 0.99362 0.74081 0.81405 0.0
H684 H 0.81828 0.86917 0.80885 0.0
H685 H 0.8742 0.79718 0.82123 0.0
H686 H 0.82435 0.82261 0.80319 0.0
H687 H 0.8673 0.84411 0.82656 0.0
H688 H 0.95016 0.85188 0.81763 0.0
H689 H 0.93156 0.85345 0.79497 0.0
H690 H 0.83751 0.71936 0.84029 0.0
H691 H 0.78247 0.78353 0.83203 0.0
H692 H 0.87503 0.69472 0.79862 0.0
H693 H 0.92685 0.75821 0.78908 0.0
H694 H 0.88187 0.66544 0.78784 0.0
H695 H 0.93282 0.7277 0.77844 0.0
H696 H 0.83093 0.66565 0.81243 0.0
H697 H 0.80869 0.75186 0.80899 0.0
H698 H 0.78048 0.65427 0.81357 0.0
H699 H 0.75881 0.739 0.8102 0.0
H700 H 0.90549 0.62635 0.81765 0.0
H701 H 0.97147 0.65817 0.80404 0.0
H702 H 0.81431 0.78921 0.7814 0.0
H703 H 0.79643 0.70138 0.78453 0.0
Li704 Li 0.75128 0.63677 0.68941 0.0
Li705 Li 0.77818 0.59775 0.68461 0.0
Li706 Li 0.75865 0.63361 0.67679 0.0
Li707 Li 0.72859 0.59961 0.68265 0.0
C708 C 0.80656 0.65383 0.68083 0.0
N709 N 0.84445 0.68505 0.67303 0.0
C710 C 0.83052 0.64121 0.67801 0.0
C711 C 0.80193 0.68236 0.6797 0.0
C712 C 0.84943 0.65736 0.67409 0.0
C713 C 0.8213 0.69776 0.67573 0.0
C714 C 0.75913 0.57931 0.6969 0.0
C715 C 0.7721 0.53313 0.70088 0.0
N716 N 0.78396 0.54442 0.70682 0.0
C717 C 0.77133 0.59046 0.70307 0.0
C718 C 0.75938 0.55042 0.69581 0.0
C719 C 0.78381 0.57247 0.70802 0.0
C720 C 0.72679 0.65472 0.70223 0.0
N721 N 0.74735 0.66058 0.69744 0.0
C722 C 0.76428 0.69774 0.70477 0.0
C723 C 0.76576 0.68176 0.69854 0.0
C724 C 0.74377 0.69166 0.70992 0.0
C725 C 0.72452 0.67016 0.70853 0.0
H726 H 0.71272 0.63744 0.70125 0.0
H727 H 0.78208 0.68573 0.69467 0.0
C728 C 0.81727 0.55484 0.68145 0.0
N729 N 0.81037 0.57535 0.68616 0.0
C730 C 0.84286 0.54097 0.68207 0.0
C731 C 0.85331 0.56906 0.69248 0.0
C732 C 0.82766 0.58253 0.69162 0.0
C733 C 0.86152 0.54838 0.68757 0.0
H734 H 0.80343 0.55006 0.67705 0.0
H735 H 0.82191 0.5994 0.69518 0.0
C736 C 0.7052 0.65911 0.68477 0.0
N737 N 0.67009 0.69651 0.69157 0.0
C738 C 0.68049 0.64974 0.68797 0.0
C739 C 0.712 0.68752 0.68501 0.0
C740 C 0.66301 0.66898 0.69138 0.0
C741 C 0.694 0.70608 0.68849 0.0
C742 C 0.74575 0.57409 0.67103 0.0
C743 C 0.73459 0.58327 0.66453 0.0
C744 C 0.74289 0.54608 0.67303 0.0
C745 C 0.72053 0.56424 0.66016 0.0
C746 C 0.72864 0.52772 0.66851 0.0
N747 N 0.71784 0.5371 0.66222 0.0
C748 C 0.78449 0.6438 0.66358 0.0
C749 C 0.74765 0.67511 0.6664 0.0
C750 C 0.78837 0.65665 0.65696 0.0
N751 N 0.76436 0.65317 0.66812 0.0
C752 C 0.7508 0.68861 0.65984 0.0
C753 C 0.77122 0.67922 0.65499 0.0
H754 H 0.79722 0.62604 0.66508 0.0
H755 H 0.73147 0.68175 0.67006 0.0
C756 C 0.68565 0.56124 0.68657 0.0
N757 N 0.69459 0.57981 0.68157 0.0
C758 C 0.65902 0.54941 0.68602 0.0
C759 C 0.65176 0.57558 0.67511 0.0
C760 C 0.67836 0.58703 0.6759 0.0
C761 C 0.64152 0.55689 0.68028 0.0
H762 H 0.69879 0.55637 0.69111 0.0
H763 H 0.68582 0.60234 0.67209 0.0
O764 O 0.7875 0.63828 0.68456 0.0
O765 O 0.74716 0.5966 0.69194 0.0
O766 O 0.72288 0.64053 0.68153 0.0
O767 O 0.75919 0.59248 0.67545 0.0
H768 H 0.83439 0.61915 0.67878 0.0
H769 H 0.78334 0.6924 0.68176 0.0
H770 H 0.86801 0.64784 0.67186 0.0
H771 H 0.81787 0.7198 0.67477 0.0
H772 H 0.77258 0.51073 0.70008 0.0
H773 H 0.77147 0.61278 0.70399 0.0
H774 H 0.75004 0.54146 0.69106 0.0
H775 H 0.79346 0.58081 0.71279 0.0
H776 H 0.77942 0.71424 0.70561 0.0
H777 H 0.7087 0.66445 0.71241 0.0
H778 H 0.84846 0.52553 0.67809 0.0
H779 H 0.86681 0.57525 0.69685 0.0
H780 H 0.67496 0.62783 0.68789 0.0
H781 H 0.73118 0.6951 0.68264 0.0
H782 H 0.64388 0.662 0.6939 0.0
H783 H 0.6991 0.72809 0.68876 0.0
H784 H 0.73647 0.6049 0.66292 0.0
H785 H 0.75138 0.53865 0.67805 0.0
H786 H 0.71166 0.57108 0.65513 0.0
H787 H 0.72613 0.50601 0.67001 0.0
H788 H 0.80448 0.6489 0.65341 0.0
H789 H 0.73682 0.70562 0.65848 0.0
H790 H 0.65185 0.53544 0.6902 0.0
H791 H 0.6392 0.58167 0.67055 0.0
Li792 Li 0.35682 0.2429 0.94111 0.0
Li793 Li 0.39316 0.27266 0.93606 0.0
Li794 Li 0.35937 0.24913 0.92843 0.0
Li795 Li 0.39601 0.22302 0.93452 0.0
C796 C 0.33447 0.2953 0.9322 0.0
N797 N 0.29933 0.32919 0.92429 0.0
C798 C 0.34471 0.31978 0.92906 0.0
C799 C 0.30633 0.28813 0.93135 0.0
C800 C 0.3266 0.33663 0.92508 0.0
C801 C 0.28892 0.3055 0.92731 0.0
C802 C 0.41277 0.25767 0.94847 0.0
C803 C 0.4571 0.27616 0.95239 0.0
N804 N 0.44415 0.28843 0.95806 0.0
C805 C 0.3999 0.27037 0.95435 0.0
C806 C 0.4416 0.26046 0.94749 0.0
C807 C 0.41613 0.28585 0.95913 0.0
C808 C 0.34131 0.21693 0.95388 0.0
N809 N 0.3337 0.23733 0.94921 0.0
C810 C 0.29598 0.25117 0.95678 0.0
C811 C 0.31141 0.25421 0.95049 0.0
C812 C 0.30372 0.23064 0.96179 0.0
C813 C 0.32642 0.21305 0.96021 0.0
H814 H 0.35939 0.20408 0.95274 0.0
H815 H 0.30616 0.27058 0.94674 0.0
C816 C 0.4349 0.31325 0.93314 0.0
N817 N 0.41276 0.30673 0.93738 0.0
C818 C 0.44765 0.33941 0.9337 0.0
C819 C 0.41476 0.35143 0.94304 0.0
C820 C 0.40266 0.32506 0.94229 0.0
C821 C 0.43734 0.35904 0.93864 0.0
H822 H 0.44213 0.29846 0.92919 0.0
H823 H 0.38474 0.31941 0.94551 0.0
C824 C 0.33858 0.19446 0.93667 0.0
N825 N 0.30379 0.15667 0.94345 0.0
C826 C 0.34971 0.17048 0.93987 0.0
C827 C 0.30974 0.19915 0.9369 0.0
C828 C 0.33177 0.15164 0.94327 0.0
C829 C 0.29251 0.17983 0.94036 0.0
C830 C 0.41955 0.24043 0.92271 0.0
C831 C 0.41114 0.22839 0.91625 0.0
C832 C 0.44763 0.23917 0.92475 0.0
C833 C 0.43101 0.21512 0.91195 0.0
C834 C 0.46685 0.22566 0.92031 0.0
N835 N 0.45821 0.21401 0.91405 0.0
C836 C 0.34639 0.27276 0.91512 0.0
C837 C 0.31918 0.23303 0.91814 0.0
C838 C 0.33307 0.27487 0.90851 0.0
N839 N 0.33924 0.25208 0.91976 0.0
C840 C 0.30534 0.23432 0.91158 0.0
C841 C 0.31239 0.25533 0.90664 0.0
H842 H 0.36275 0.28736 0.91653 0.0
H843 H 0.31434 0.21648 0.92187 0.0
C844 C 0.43764 0.18457 0.93906 0.0
N845 N 0.41892 0.19086 0.93383 0.0
C846 C 0.45184 0.15905 0.93893 0.0
C847 C 0.4277 0.14746 0.92796 0.0
C848 C 0.41387 0.17306 0.92833 0.0
C849 C 0.44655 0.13989 0.93339 0.0
H850 H 0.44076 0.19888 0.94346 0.0
H851 H 0.3984 0.17841 0.92434 0.0
O852 O 0.35197 0.27824 0.936 0.0
O853 O 0.39717 0.24291 0.94365 0.0
O854 O 0.35584 0.21344 0.93343 0.0
O855 O 0.40035 0.25318 0.92705 0.0
H856 H 0.36645 0.32556 0.92961 0.0
H857 H 0.29811 0.26916 0.93369 0.0
H858 H 0.33426 0.35556 0.92259 0.0
H859 H 0.26715 0.30011 0.92657 0.0
H860 H 0.4794 0.27865 0.95167 0.0
H861 H 0.37758 0.26858 0.95516 0.0
H862 H 0.45186 0.25086 0.94296 0.0
H863 H 0.40644 0.29591 0.96368 0.0
H864 H 0.27896 0.26551 0.95785 0.0
H865 H 0.33296 0.19682 0.96388 0.0
H866 H 0.46472 0.34455 0.93013 0.0
H867 H 0.40633 0.36581 0.94696 0.0
H868 H 0.37197 0.16657 0.9398 0.0
H869 H 0.30078 0.21771 0.93451 0.0
H870 H 0.34012 0.13306 0.94579 0.0
H871 H 0.27018 0.18329 0.94062 0.0
H872 H 0.38948 0.22901 0.91459 0.0
H873 H 0.45446 0.24821 0.92976 0.0
H874 H 0.42479 0.20561 0.90695 0.0
H875 H 0.48862 0.22437 0.92185 0.0
H876 H 0.33897 0.29154 0.90489 0.0
H877 H 0.28988 0.21854 0.91031 0.0
H878 H 0.46587 0.15393 0.94329 0.0
H879 H 0.42322 0.13352 0.92354 0.0
Li880 Li 0.74968 0.86128 0.18944 0.0
Li881 Li 0.72172 0.89906 0.18444 0.0
Li882 Li 0.74293 0.8637 0.17678 0.0
Li883 Li 0.7714 0.89899 0.18266 0.0
C884 C 0.69541 0.84207 0.18066 0.0
N885 N 0.65888 0.80972 0.17275 0.0
C886 C 0.67091 0.85381 0.1779 0.0
C887 C 0.70128 0.81385 0.17941 0.0
C888 C 0.65271 0.8371 0.17391 0.0
C889 C 0.68258 0.79786 0.17539 0.0
C890 C 0.73928 0.91877 0.1967 0.0
C891 C 0.72467 0.96473 0.20046 0.0
N892 N 0.7122 0.95329 0.20631 0.0
C893 C 0.72641 0.90746 0.20276 0.0
C894 C 0.73853 0.94763 0.19555 0.0
C895 C 0.7128 0.92527 0.20755 0.0
C896 C 0.7732 0.84564 0.20256 0.0
N897 N 0.75449 0.83769 0.19749 0.0
C898 C 0.74197 0.79734 0.20428 0.0
C899 C 0.73911 0.81399 0.1982 0.0
C900 C 0.7606 0.80538 0.20972 0.0
C901 C 0.77663 0.82972 0.20875 0.0
H902 H 0.78502 0.86473 0.20186 0.0
H903 H 0.72431 0.80824 0.19409 0.0
C904 C 0.68255 0.94181 0.18123 0.0
N905 N 0.68893 0.92078 0.18584 0.0
C906 C 0.65716 0.95603 0.18185 0.0
C907 C 0.64568 0.92699 0.19203 0.0
C908 C 0.67117 0.9132 0.19117 0.0
C909 C 0.63825 0.94846 0.18727 0.0
H910 H 0.69683 0.94705 0.17695 0.0
H911 H 0.67648 0.89587 0.19463 0.0
C912 C 0.7968 0.84066 0.18507 0.0
N913 N 0.83273 0.80517 0.19226 0.0
C914 C 0.82032 0.85135 0.18857 0.0
C915 C 0.79159 0.8119 0.18523 0.0
C916 C 0.83824 0.83306 0.19217 0.0
C917 C 0.80998 0.79432 0.1889 0.0
C918 C 0.75416 0.92326 0.17088 0.0
C919 C 0.76549 0.91415 0.16439 0.0
C920 C 0.75656 0.95136 0.17283 0.0
C921 C 0.77926 0.93332 0.15999 0.0
C922 C 0.77052 0.96986 0.16829 0.0
N923 N 0.78149 0.96054 0.16201 0.0
C924 C 0.71818 0.85128 0.16353 0.0
C925 C 0.75725 0.82302 0.1665 0.0
C926 C 0.71556 0.83799 0.15693 0.0
N927 N 0.73879 0.84362 0.16814 0.0
C928 C 0.75544 0.80919 0.15995 0.0
C929 C 0.73454 0.81682 0.15504 0.0
H930 H 0.70414 0.86814 0.16494 0.0
H931 H 0.77369 0.81769 0.17021 0.0
C932 C 0.81322 0.93882 0.18651 0.0
N933 N 0.80483 0.91973 0.18158 0.0
C934 C 0.83963 0.95115 0.18596 0.0
C935 C 0.84772 0.92443 0.17517 0.0
C936 C 0.82136 0.91249 0.17597 0.0
C937 C 0.85745 0.94362 0.18029 0.0
H938 H 0.79987 0.94368 0.19101 0.0
H939 H 0.81432 0.89677 0.17223 0.0
O940 O 0.71376 0.8582 0.18447 0.0
O941 O 0.75228 0.90166 0.19188 0.0
O942 O 0.7786 0.8583 0.18167 0.0
O943 O 0.741 0.90473 0.17532 0.0
H944 H 0.66608 0.87563 0.17875 0.0
H945 H 0.72035 0.80451 0.18141 0.0
H946 H 0.63372 0.84593 0.17173 0.0
H947 H 0.68698 0.77606 0.17434 0.0
H948 H 0.7238 0.98709 0.19962 0.0
H949 H 0.72659 0.88516 0.20371 0.0
H950 H 0.74835 0.9567 0.19088 0.0
H951 H 0.70262 0.9168 0.21225 0.0
H952 H 0.72941 0.7786 0.20477 0.0
H953 H 0.79089 0.837 0.21285 0.0
H954 H 0.65225 0.97255 0.1781 0.0
H955 H 0.6315 0.92019 0.1962 0.0
H956 H 0.82457 0.87355 0.18858 0.0
H957 H 0.77327 0.8033 0.18264 0.0
H958 H 0.85646 0.84106 0.19492 0.0
H959 H 0.80609 0.77205 0.1891 0.0
H960 H 0.76398 0.89246 0.16281 0.0
H961 H 0.74798 0.95873 0.17784 0.0
H962 H 0.78826 0.92654 0.15497 0.0
H963 H 0.77267 0.99163 0.16975 0.0
H964 H 0.69943 0.84481 0.15326 0.0
H965 H 0.77034 0.79282 0.15873 0.0
H966 H 0.84641 0.96552 0.19008 0.0
H967 H 0.86054 0.91828 0.17066 0.0
Li968 Li 0.10223 0.22205 0.43614 0.0
Li969 Li 0.13737 0.25171 0.44149 0.0
Li970 Li 0.09818 0.27167 0.4347 0.0
Li971 Li 0.13532 0.24774 0.42841 0.0
C972 C 0.07706 0.24089 0.44835 0.0
N973 N 0.03673 0.22049 0.45757 0.0
C974 C 0.084 0.23431 0.45542 0.0
C975 C 0.04955 0.23739 0.446 0.0
C976 C 0.06333 0.22395 0.45999 0.0
C977 C 0.02948 0.22697 0.45073 0.0
C978 C 0.1523 0.19467 0.43926 0.0
C979 C 0.17594 0.15014 0.43969 0.0
N980 N 0.16884 0.14756 0.44671 0.0
C981 C 0.1453 0.19157 0.44647 0.0
C982 C 0.16778 0.17381 0.43583 0.0
C983 C 0.15382 0.16762 0.45014 0.0
C984 C 0.07477 0.17538 0.43058 0.0
N985 N 0.08309 0.18708 0.43685 0.0
C986 C 0.06738 0.14701 0.44336 0.0
C987 C 0.07959 0.1735 0.44318 0.0
C988 C 0.05886 0.13426 0.43696 0.0
C989 C 0.06249 0.14891 0.43051 0.0
H990 H 0.07811 0.18644 0.42561 0.0
H991 H 0.08682 0.18282 0.4481 0.0
C992 C 0.15076 0.27616 0.45447 0.0
N993 N 0.16085 0.25823 0.44947 0.0
C994 C 0.16533 0.28044 0.46083 0.0
C995 C 0.20112 0.24872 0.45661 0.0
C996 C 0.18587 0.24514 0.45031 0.0
C997 C 0.19051 0.26606 0.46205 0.0
H998 H 0.13096 0.28653 0.45359 0.0
H999 H 0.19355 0.23125 0.4462 0.0
C1000 C 0.07364 0.25215 0.42291 0.0
N1001 N 0.03102 0.2722 0.41435 0.0
C1002 C 0.07969 0.26972 0.41714 0.0
C1003 C 0.04597 0.24436 0.42425 0.0
C1004 C 0.05784 0.27977 0.4129 0.0
C1005 C 0.0247 0.25482 0.41988 0.0
C1006 C 0.16462 0.29327 0.43392 0.0
C1007 C 0.1683 0.32223 0.43409 0.0
C1008 C 0.18795 0.27573 0.43348 0.0
C1009 C 0.19535 0.33322 0.43382 0.0
C1010 C 0.21465 0.28753 0.43323 0.0
N1011 N 0.21777 0.31579 0.4334 0.0
C1012 C 0.05499 0.30943 0.43894 0.0
C1013 C 0.08178 0.32241 0.42879 0.0
C1014 C 0.04063 0.33485 0.43872 0.0
N1015 N 0.07516 0.3038 0.43402 0.0
C1016 C 0.06781 0.34793 0.42834 0.0
C1017 C 0.0472 0.35456 0.43341 0.0
H1018 H 0.05066 0.29467 0.44316 0.0
H1019 H 0.09858 0.31775 0.42511 0.0
C1020 C 0.16422 0.22228 0.41702 0.0
N1021 N 0.15581 0.24716 0.41978 0.0
C1022 C 0.17849 0.22143 0.41051 0.0
C1023 C 0.17504 0.27182 0.40983 0.0
C1024 C 0.16092 0.27169 0.41636 0.0
C1025 C 0.18389 0.24643 0.40681 0.0
H1026 H 0.15943 0.20311 0.41983 0.0
H1027 H 0.1537 0.29114 0.41866 0.0
O1028 O 0.09707 0.25089 0.44379 0.0
O1029 O 0.14404 0.2179 0.43553 0.0
O1030 O 0.09474 0.24229 0.42716 0.0
O1031 O 0.13823 0.2823 0.43419 0.0
H1032 H 0.10513 0.23703 0.45736 0.0
H1033 H 0.04378 0.24268 0.44058 0.0
H1034 H 0.06843 0.21864 0.46547 0.0
H1035 H 0.00814 0.22405 0.44897 0.0
H1036 H 0.18791 0.13383 0.43711 0.0
H1037 H 0.13334 0.20746 0.4492 0.0
H1038 H 0.17347 0.17587 0.43026 0.0
H1039 H 0.14848 0.16497 0.45573 0.0
H1040 H 0.06539 0.13631 0.44845 0.0
H1041 H 0.05598 0.13998 0.42545 0.0
H1042 H 0.15666 0.29438 0.46482 0.0
H1043 H 0.22033 0.23709 0.45735 0.0
H1044 H 0.101 0.27576 0.41599 0.0
H1045 H 0.04097 0.23022 0.42858 0.0
H1046 H 0.0622 0.29359 0.40846 0.0
H1047 H 0.00318 0.24904 0.42087 0.0
H1048 H 0.15042 0.33606 0.43442 0.0
H1049 H 0.18554 0.25327 0.43333 0.0
H1050 H 0.19852 0.3556 0.43394 0.0
H1051 H 0.23289 0.27422 0.43289 0.0
H1052 H 0.02486 0.33921 0.44273 0.0
H1053 H 0.07387 0.36277 0.42424 0.0
H1054 H 0.18462 0.20139 0.40832 0.0
H1055 H 0.17902 0.29158 0.40719 0.0
Li1056 Li 0.71986 0.89649 0.55876 0.0
Li1057 Li 0.74697 0.86195 0.56514 0.0
Li1058 Li 0.77002 0.90048 0.55799 0.0
Li1059 Li 0.74634 0.86137 0.55188 0.0
C1060 C 0.73194 0.92168 0.57073 0.0
N1061 N 0.70067 0.95945 0.57852 0.0
C1062 C 0.71465 0.91233 0.57626 0.0
C1063 C 0.73361 0.95022 0.56921 0.0
C1064 C 0.69893 0.93176 0.58013 0.0
C1065 C 0.71756 0.969 0.57319 0.0
C1066 C 0.70584 0.828 0.55888 0.0
C1067 C 0.71566 0.77865 0.55806 0.0
N1068 N 0.68819 0.77302 0.55928 0.0
C1069 C 0.67768 0.82174 0.56009 0.0
C1070 C 0.72497 0.80631 0.55783 0.0
C1071 C 0.66918 0.79381 0.56029 0.0
C1072 C 0.67958 0.9383 0.55512 0.0
N1073 N 0.68514 0.91553 0.55923 0.0
C1074 C 0.63883 0.91604 0.564 0.0
C1075 C 0.66551 0.90438 0.56364 0.0
C1076 C 0.63226 0.93935 0.55975 0.0
C1077 C 0.65314 0.95067 0.55531 0.0
H1078 H 0.69544 0.94658 0.55161 0.0
H1079 H 0.67051 0.8861 0.5668 0.0
C1080 C 0.77554 0.83969 0.57683 0.0
N1081 N 0.75013 0.84064 0.5736 0.0
C1082 C 0.77899 0.82494 0.58321 0.0
C1083 C 0.72989 0.81288 0.58286 0.0
C1084 C 0.72741 0.82785 0.57649 0.0
C1085 C 0.75595 0.81132 0.58631 0.0
H1086 H 0.79308 0.8506 0.57447 0.0
H1087 H 0.70729 0.82954 0.5739 0.0
C1088 C 0.75109 0.92099 0.54506 0.0
N1089 N 0.76925 0.95943 0.53505 0.0
C1090 C 0.75982 0.91205 0.5383 0.0
C1091 C 0.75148 0.94948 0.54672 0.0
C1092 C 0.76895 0.93182 0.53332 0.0
C1093 C 0.76078 0.96858 0.54159 0.0
C1094 C 0.80231 0.84416 0.55748 0.0
C1095 C 0.82464 0.85443 0.55343 0.0
C1096 C 0.80445 0.81779 0.56067 0.0
C1097 C 0.84864 0.8381 0.5526 0.0
C1098 C 0.8288 0.8021 0.55972 0.0
N1099 N 0.8502 0.81248 0.55573 0.0
C1100 C 0.81304 0.9304 0.56447 0.0
C1101 C 0.81578 0.93126 0.55181 0.0
C1102 C 0.83835 0.9448 0.56502 0.0
N1103 N 0.80241 0.92376 0.55795 0.0
C1104 C 0.84085 0.94612 0.55211 0.0
C1105 C 0.85259 0.95265 0.55877 0.0
H1106 H 0.80222 0.92377 0.56927 0.0
H1107 H 0.80773 0.92476 0.54669 0.0
C1108 C 0.72115 0.83424 0.54026 0.0
N1109 N 0.7461 0.83869 0.54355 0.0
C1110 C 0.72001 0.81945 0.53382 0.0
C1111 C 0.77018 0.81363 0.5344 0.0
C1112 C 0.77033 0.82852 0.5408 0.0
C1113 C 0.74486 0.80935 0.53075 0.0
H1114 H 0.70223 0.84278 0.54255 0.0
H1115 H 0.78989 0.83248 0.54345 0.0
O1116 O 0.74695 0.90293 0.56677 0.0
O1117 O 0.71444 0.85527 0.55871 0.0
O1118 O 0.74204 0.90191 0.54999 0.0
O1119 O 0.77876 0.86005 0.55843 0.0
H1120 H 0.71315 0.89027 0.57749 0.0
H1121 H 0.74709 0.95776 0.56498 0.0
H1122 H 0.68529 0.92483 0.58439 0.0
H1123 H 0.71851 0.99115 0.57206 0.0
H1124 H 0.73026 0.76167 0.55726 0.0
H1125 H 0.66257 0.8383 0.56088 0.0
H1126 H 0.74669 0.81079 0.55679 0.0
H1127 H 0.64747 0.78866 0.56124 0.0
H1128 H 0.6233 0.90637 0.56742 0.0
H1129 H 0.64904 0.96878 0.552 0.0
H1130 H 0.79932 0.82472 0.58576 0.0
H1131 H 0.71163 0.80258 0.58505 0.0
H1132 H 0.75959 0.8901 0.53692 0.0
H1133 H 0.745 0.95673 0.55194 0.0
H1134 H 0.77582 0.92521 0.52807 0.0
H1135 H 0.76133 0.99068 0.54282 0.0
H1136 H 0.82331 0.87459 0.55086 0.0
H1137 H 0.78756 0.80949 0.56388 0.0
H1138 H 0.86599 0.84576 0.54945 0.0
H1139 H 0.83069 0.78167 0.56216 0.0
H1140 H 0.84685 0.94948 0.57025 0.0
H1141 H 0.85155 0.95137 0.54718 0.0
H1142 H 0.70009 0.81686 0.53115 0.0
H1143 H 0.78977 0.8059 0.53227 0.0
Li1144 Li 0.13316 0.24649 0.8159 0.0
Li1145 Li 0.09734 0.22161 0.80927 0.0
Li1146 Li 0.1354 0.24842 0.8031 0.0
Li1147 Li 0.09706 0.27324 0.80906 0.0
C1148 C 0.15727 0.19851 0.81278 0.0
N1149 N 0.19525 0.16661 0.82037 0.0
C1150 C 0.1485 0.1743 0.81632 0.0
C1151 C 0.18542 0.20628 0.81302 0.0
C1152 C 0.16801 0.15849 0.82014 0.0
C1153 C 0.20428 0.18995 0.81691 0.0
C1154 C 0.06754 0.24521 0.82109 0.0
C1155 C 0.01764 0.25183 0.82195 0.0
N1156 N 0.018 0.2405 0.82862 0.0
C1157 C 0.06747 0.23402 0.828 0.0
C1158 C 0.04247 0.25452 0.81807 0.0
C1159 C 0.0422 0.23164 0.8317 0.0
C1160 C 0.17251 0.2668 0.82587 0.0
N1161 N 0.15381 0.24608 0.82453 0.0
C1162 C 0.1625 0.22548 0.83595 0.0
C1163 C 0.14865 0.22558 0.82939 0.0
C1164 C 0.18173 0.24679 0.83752 0.0
C1165 C 0.18687 0.26751 0.83236 0.0
H1166 H 0.17586 0.28308 0.82196 0.0
H1167 H 0.13355 0.20944 0.82818 0.0
C1168 C 0.07042 0.17659 0.80251 0.0
N1169 N 0.07582 0.18838 0.80898 0.0
C1170 C 0.05681 0.15083 0.80211 0.0
C1171 C 0.05474 0.14979 0.81503 0.0
C1172 C 0.06823 0.17563 0.81518 0.0
C1173 C 0.04914 0.13694 0.80843 0.0
H1174 H 0.07734 0.18687 0.79767 0.0
H1175 H 0.07358 0.18499 0.82025 0.0
C1176 C 0.15616 0.29848 0.80682 0.0
N1177 N 0.19306 0.33489 0.80028 0.0
C1178 C 0.14635 0.32311 0.80366 0.0
C1179 C 0.18479 0.29257 0.80672 0.0
C1180 C 0.16533 0.34121 0.80037 0.0
C1181 C 0.20308 0.31117 0.80337 0.0
C1182 C 0.07259 0.24965 0.79628 0.0
C1183 C 0.07655 0.26033 0.78939 0.0
C1184 C 0.04589 0.24119 0.79842 0.0
C1185 C 0.05361 0.26293 0.78481 0.0
C1186 C 0.02349 0.24409 0.79368 0.0
N1187 N 0.02776 0.25485 0.78704 0.0
C1188 C 0.17759 0.22908 0.79354 0.0
C1189 C 0.1561 0.27222 0.79055 0.0
C1190 C 0.19462 0.23062 0.78747 0.0
N1191 N 0.15892 0.24981 0.79495 0.0
C1192 C 0.17288 0.27479 0.78451 0.0
C1193 C 0.19244 0.25383 0.78291 0.0
H1194 H 0.17913 0.21131 0.79709 0.0
H1195 H 0.14069 0.28808 0.79173 0.0
C1196 C 0.07599 0.32104 0.81544 0.0
N1197 N 0.07568 0.30668 0.80917 0.0
C1198 C 0.06327 0.34722 0.81592 0.0
C1199 C 0.04959 0.34307 0.80352 0.0
C1200 C 0.06272 0.31703 0.80327 0.0
C1201 C 0.05011 0.35874 0.80987 0.0
H1202 H 0.08683 0.31241 0.82001 0.0
H1203 H 0.06314 0.30555 0.79831 0.0
O1204 O 0.1384 0.21451 0.80911 0.0
O1205 O 0.0922 0.24787 0.81742 0.0
O1206 O 0.13785 0.28032 0.80999 0.0
O1207 O 0.09491 0.24694 0.80082 0.0
H1208 H 0.12686 0.16786 0.81616 0.0
H1209 H 0.1926 0.2248 0.81027 0.0
H1210 H 0.16148 0.1398 0.82294 0.0
H1211 H 0.22609 0.19584 0.81718 0.0
H1212 H 0.99809 0.25889 0.81966 0.0
H1213 H 0.08669 0.22708 0.83047 0.0
H1214 H 0.04215 0.26404 0.81284 0.0
H1215 H 0.04183 0.22281 0.83703 0.0
H1216 H 0.15816 0.20895 0.83975 0.0
H1217 H 0.20123 0.28453 0.8334 0.0
H1218 H 0.05328 0.14142 0.79692 0.0
H1219 H 0.04912 0.13979 0.82003 0.0
H1220 H 0.12431 0.32812 0.80369 0.0
H1221 H 0.19278 0.27373 0.80918 0.0
H1222 H 0.158 0.36025 0.79786 0.0
H1223 H 0.22526 0.30674 0.80321 0.0
H1224 H 0.09707 0.26666 0.7876 0.0
H1225 H 0.0425 0.23209 0.80363 0.0
H1226 H 0.05636 0.27133 0.77948 0.0
H1227 H 0.00272 0.23766 0.79528 0.0
H1228 H 0.20941 0.214 0.78638 0.0
H1229 H 0.17015 0.29272 0.78103 0.0
H1230 H 0.0646 0.35869 0.8209 0.0
H1231 H 0.03943 0.35097 0.79875 0.0
Li1232 Li 0.74681 0.63676 0.0647 0.0
Li1233 Li 0.77396 0.6003 0.05893 0.0
Li1234 Li 0.74995 0.63818 0.0519 0.0
Li1235 Li 0.72263 0.60043 0.05742 0.0
C1236 C 0.79582 0.66054 0.06267 0.0
N1237 N 0.82456 0.69938 0.07076 0.0
C1238 C 0.81832 0.65216 0.06693 0.0
C1239 C 0.78818 0.68873 0.06244 0.0
C1240 C 0.83253 0.6721 0.071 0.0
C1241 C 0.80289 0.70803 0.0666 0.0
C1242 C 0.74597 0.57108 0.07002 0.0
C1243 C 0.73979 0.52106 0.07046 0.0
N1244 N 0.74808 0.52105 0.07742 0.0
C1245 C 0.75407 0.57062 0.07721 0.0
C1246 C 0.73847 0.54614 0.06664 0.0
C1247 C 0.75515 0.54511 0.08084 0.0
C1248 C 0.72398 0.67776 0.0739 0.0
N1249 N 0.74432 0.65813 0.07318 0.0
C1250 C 0.76142 0.66768 0.08492 0.0
C1251 C 0.76282 0.65278 0.07852 0.0
C1252 C 0.74061 0.6881 0.08583 0.0
C1253 C 0.72175 0.69312 0.08022 0.0
H1254 H 0.70937 0.68134 0.06959 0.0
H1255 H 0.77856 0.6368 0.07782 0.0
C1256 C 0.82117 0.57314 0.0534 0.0
N1257 N 0.80712 0.57875 0.05955 0.0
C1258 C 0.8471 0.55979 0.05363 0.0
C1259 C 0.84367 0.5584 0.06653 0.0
C1260 C 0.81771 0.57161 0.06604 0.0
C1261 C 0.85883 0.55261 0.06027 0.0
H1262 H 0.81258 0.57974 0.04832 0.0
H1263 H 0.80655 0.57712 0.07086 0.0
C1264 C 0.69861 0.65935 0.05423 0.0
N1265 N 0.66461 0.69563 0.0467 0.0
C1266 C 0.67521 0.64923 0.05058 0.0
C1267 C 0.70452 0.68796 0.05412 0.0
C1268 C 0.65832 0.6679 0.04678 0.0
C1269 C 0.68714 0.70595 0.05026 0.0
C1270 C 0.75007 0.57559 0.04521 0.0
C1271 C 0.74053 0.58016 0.03824 0.0
C1272 C 0.75823 0.54871 0.04728 0.0
C1273 C 0.73877 0.55765 0.0335 0.0
C1274 C 0.75618 0.52675 0.04238 0.0
N1275 N 0.74654 0.53163 0.03566 0.0
C1276 C 0.77574 0.67758 0.0427 0.0
C1277 C 0.73202 0.66015 0.03872 0.0
C1278 C 0.77841 0.6938 0.03651 0.0
N1279 N 0.7528 0.66122 0.04366 0.0
C1280 C 0.73365 0.67623 0.03252 0.0
C1281 C 0.75714 0.6932 0.03134 0.0
H1282 H 0.79215 0.67772 0.04667 0.0
H1283 H 0.71436 0.64646 0.03953 0.0
C1284 C 0.67247 0.581 0.06277 0.0
N1285 N 0.68911 0.57917 0.0569 0.0
C1286 C 0.6462 0.56834 0.06282 0.0
C1287 C 0.65488 0.55161 0.05083 0.0
C1288 C 0.68096 0.56472 0.051 0.0
C1289 C 0.63695 0.55362 0.05676 0.0
H1290 H 0.6794 0.59294 0.06735 0.0
H1291 H 0.69428 0.56381 0.04635 0.0
O1292 O 0.7813 0.64124 0.05875 0.0
O1293 O 0.74469 0.59595 0.06641 0.0
O1294 O 0.71552 0.64135 0.05794 0.0
O1295 O 0.75203 0.59747 0.0499 0.0
H1296 H 0.82462 0.63047 0.06713 0.0
H1297 H 0.77098 0.6956 0.05913 0.0
H1298 H 0.84987 0.66587 0.07435 0.0
H1299 H 0.79707 0.72988 0.06651 0.0
H1300 H 0.73411 0.5016 0.06789 0.0
H1301 H 0.7596 0.58974 0.07995 0.0
H1302 H 0.73143 0.54612 0.06116 0.0
H1303 H 0.76158 0.54444 0.08639 0.0
H1304 H 0.77611 0.66285 0.08915 0.0
H1305 H 0.70552 0.70881 0.08069 0.0
H1306 H 0.85833 0.55614 0.04868 0.0
H1307 H 0.85197 0.55316 0.07175 0.0
H1308 H 0.67023 0.62719 0.05061 0.0
H1309 H 0.72242 0.69618 0.05695 0.0
H1310 H 0.64024 0.66034 0.0439 0.0
H1311 H 0.69159 0.72811 0.05009 0.0
H1312 H 0.7344 0.60082 0.0365 0.0
H1313 H 0.76638 0.54483 0.05258 0.0
H1314 H 0.73125 0.56088 0.0281 0.0
H1315 H 0.76237 0.50585 0.04393 0.0
H1316 H 0.79689 0.70657 0.03577 0.0
H1317 H 0.7171 0.67469 0.02859 0.0
H1318 H 0.63296 0.57085 0.06748 0.0
H1319 H 0.64877 0.54022 0.04607 0.0
Li1320 Li 0.36372 0.25313 0.31599 0.0
Li1321 Li 0.39701 0.27704 0.30841 0.0
Li1322 Li 0.35909 0.24981 0.30306 0.0
Li1323 Li 0.39826 0.22637 0.30894 0.0
C1324 C 0.33194 0.29756 0.31032 0.0
N1325 N 0.28255 0.32567 0.31296 0.0
C1326 C 0.33241 0.32584 0.31219 0.0
C1327 C 0.30637 0.28366 0.30972 0.0
C1328 C 0.30721 0.33966 0.31353 0.0
C1329 C 0.28162 0.29821 0.31109 0.0
C1330 C 0.41283 0.26892 0.32273 0.0
C1331 C 0.43934 0.27487 0.3336 0.0
N1332 N 0.42747 0.30045 0.33453 0.0
C1333 C 0.4009 0.29528 0.3238 0.0
C1334 C 0.43221 0.25861 0.32766 0.0
C1335 C 0.40856 0.31089 0.3298 0.0
C1336 C 0.34177 0.22809 0.32821 0.0
N1337 N 0.3444 0.25315 0.32486 0.0
C1338 C 0.32121 0.27636 0.33448 0.0
C1339 C 0.33459 0.2771 0.32786 0.0
C1340 C 0.31805 0.25074 0.33807 0.0
C1341 C 0.32851 0.22636 0.33485 0.0
H1342 H 0.3501 0.20943 0.32574 0.0
H1343 H 0.33755 0.29688 0.32519 0.0
C1344 C 0.40515 0.33061 0.30325 0.0
N1345 N 0.41765 0.31048 0.30725 0.0
C1346 C 0.41734 0.35695 0.30262 0.0
C1347 C 0.45552 0.34106 0.31006 0.0
C1348 C 0.44264 0.31492 0.31052 0.0
C1349 C 0.44259 0.36266 0.30617 0.0
H1350 H 0.38535 0.32632 0.30068 0.0
H1351 H 0.45216 0.29846 0.31365 0.0
C1352 C 0.33845 0.19898 0.30955 0.0
N1353 N 0.29887 0.15715 0.30832 0.0
C1354 C 0.34532 0.17363 0.30627 0.0
C1355 C 0.31159 0.20282 0.31233 0.0
C1356 C 0.32498 0.15282 0.30566 0.0
C1357 C 0.29184 0.18149 0.31163 0.0
C1358 C 0.4258 0.25098 0.29746 0.0
C1359 C 0.4298 0.25295 0.29007 0.0
C1360 C 0.44899 0.24977 0.302 0.0
C1361 C 0.45699 0.25367 0.28734 0.0
C1362 C 0.47584 0.25057 0.29907 0.0
N1363 N 0.47926 0.25248 0.29186 0.0
C1364 C 0.32309 0.27172 0.29245 0.0
C1365 C 0.32967 0.22264 0.29202 0.0
C1366 C 0.30613 0.27079 0.28637 0.0
N1367 N 0.3343 0.24781 0.29515 0.0
C1368 C 0.31275 0.22071 0.28597 0.0
C1369 C 0.30086 0.24502 0.28305 0.0
H1370 H 0.32777 0.2916 0.29492 0.0
H1371 H 0.33979 0.20416 0.29407 0.0
C1372 C 0.42793 0.18201 0.31518 0.0
N1373 N 0.41981 0.19328 0.30884 0.0
C1374 C 0.44147 0.15615 0.31533 0.0
C1375 C 0.43844 0.15437 0.30242 0.0
C1376 C 0.42497 0.18025 0.30252 0.0
C1377 C 0.44653 0.1418 0.3089 0.0
H1378 H 0.42328 0.19282 0.32012 0.0
H1379 H 0.4178 0.18954 0.29758 0.0
O1380 O 0.35648 0.28373 0.30904 0.0
O1381 O 0.40561 0.25312 0.31692 0.0
O1382 O 0.35825 0.21944 0.31027 0.0
O1383 O 0.39925 0.25031 0.30018 0.0
H1384 H 0.35205 0.33693 0.31266 0.0
H1385 H 0.30563 0.26198 0.30813 0.0
H1386 H 0.30726 0.3615 0.31502 0.0
H1387 H 0.26168 0.28769 0.31065 0.0
H1388 H 0.45432 0.26715 0.33746 0.0
H1389 H 0.38596 0.30366 0.32003 0.0
H1390 H 0.44164 0.23825 0.32691 0.0
H1391 H 0.39949 0.33132 0.33068 0.0
H1392 H 0.31395 0.29573 0.33684 0.0
H1393 H 0.32634 0.20615 0.3374 0.0
H1394 H 0.40692 0.37275 0.29943 0.0
H1395 H 0.47486 0.34457 0.31294 0.0
H1396 H 0.36608 0.17016 0.30416 0.0
H1397 H 0.30608 0.22191 0.31508 0.0
H1398 H 0.32996 0.1332 0.30308 0.0
H1399 H 0.27095 0.18422 0.31374 0.0
H1400 H 0.41204 0.2539 0.28649 0.0
H1401 H 0.44636 0.2482 0.30773 0.0
H1402 H 0.4604 0.25519 0.28164 0.0
H1403 H 0.49397 0.24965 0.30252 0.0
H1404 H 0.29746 0.29003 0.28427 0.0
H1405 H 0.30989 0.20052 0.28345 0.0
H1406 H 0.44763 0.14737 0.32044 0.0
H1407 H 0.44152 0.14387 0.29735 0.0
H1408 H 0.30579 0.29661 0.09411 0.0
H1409 H 0.30876 0.27426 0.10588 0.0
H1410 H 0.21878 0.26997 0.10687 0.0
H1411 H 0.21557 0.29254 0.09517 0.0
H1412 H 0.28529 0.2937 0.11888 0.0
H1413 H 0.24374 0.1895 0.11135 0.0
H1414 H 0.25619 0.21441 0.10482 0.0
H1415 H 0.22189 0.21816 0.10864 0.0
C1416 C 0.28664 0.29094 0.09684 0.0
C1417 C 0.26044 0.29622 0.0937 0.0
C1418 C 0.28839 0.27808 0.10354 0.0
C1419 C 0.26401 0.27013 0.10717 0.0
C1420 C 0.23785 0.2754 0.10406 0.0
H1421 H 0.21683 0.20089 0.14769 0.0
H1422 H 0.21971 0.22222 0.13584 0.0
C1423 C 0.23607 0.28826 0.09738 0.0
C1424 C 0.26573 0.25725 0.11435 0.0
H1425 H 0.24696 0.19925 0.12382 0.0
C1426 C 0.2772 0.27294 0.11997 0.0
C1427 C 0.25516 0.23018 0.11571 0.0
C1428 C 0.24378 0.21194 0.1098 0.0
C1429 C 0.27742 0.26263 0.127 0.0
C1430 C 0.26627 0.2358 0.12838 0.0
C1431 C 0.25536 0.21989 0.12273 0.0
C1432 C 0.2649 0.22407 0.13569 0.0
C1433 C 0.28869 0.28086 0.13292 0.0
C1434 C 0.2894 0.21809 0.13952 0.0
C1435 C 0.28783 0.2061 0.14633 0.0
C1436 C 0.26172 0.19979 0.14939 0.0
C1437 C 0.23724 0.20594 0.14553 0.0
C1438 C 0.23884 0.21791 0.13874 0.0
H1439 H 0.29074 0.30303 0.13122 0.0
H1440 H 0.27492 0.27991 0.1377 0.0
H1441 H 0.3097 0.27322 0.1345 0.0
H1442 H 0.30973 0.22233 0.1372 0.0
H1443 H 0.30705 0.20174 0.14918 0.0
H1444 H 0.79972 0.80105 0.39739 0.0
H1445 H 0.77849 0.80198 0.38545 0.0
H1446 H 0.78557 0.71223 0.38416 0.0
H1447 H 0.8067 0.71111 0.39606 0.0
H1448 H 0.80043 0.7832 0.37251 0.0
H1449 H 0.70338 0.72579 0.37947 0.0
H1450 H 0.72636 0.74031 0.38616 0.0
H1451 H 0.73475 0.70759 0.38194 0.0
C1452 C 0.79677 0.78154 0.39455 0.0
C1453 C 0.80464 0.75598 0.39767 0.0
C1454 C 0.78459 0.7821 0.38775 0.0
C1455 C 0.78005 0.75713 0.384 0.0
C1456 C 0.78826 0.73165 0.38706 0.0
H1457 H 0.71752 0.71043 0.34244 0.0
H1458 H 0.73963 0.71247 0.35422 0.0
C1459 C 0.80032 0.73105 0.39385 0.0
C1460 C 0.7673 0.75769 0.37679 0.0
H1461 H 0.71253 0.73239 0.36706 0.0
C1462 C 0.7811 0.77229 0.37132 0.0
C1463 C 0.74208 0.74345 0.37528 0.0
C1464 C 0.72561 0.72862 0.38104 0.0
C1465 C 0.77068 0.7724 0.3643 0.0
C1466 C 0.74573 0.75775 0.36278 0.0
C1467 C 0.73178 0.74342 0.36827 0.0
C1468 C 0.73363 0.757 0.35552 0.0
C1469 C 0.78672 0.78758 0.35854 0.0
C1470 C 0.72296 0.78139 0.35238 0.0
C1471 C 0.71012 0.78028 0.34568 0.0
C1472 C 0.70768 0.7547 0.34202 0.0
C1473 C 0.71876 0.73037 0.34516 0.0
C1474 C 0.73151 0.73151 0.35186 0.0
H1475 H 0.80835 0.79275 0.36026 0.0
H1476 H 0.78775 0.77482 0.35359 0.0
H1477 H 0.7758 0.80741 0.35723 0.0
H1478 H 0.72397 0.80116 0.3552 0.0
H1479 H 0.70139 0.7993 0.34347 0.0
H1480 H 0.23485 0.14971 0.60033 0.0
H1481 H 0.23219 0.1694 0.61236 0.0
H1482 H 0.25212 0.25097 0.60394 0.0
H1483 H 0.25346 0.23175 0.59184 0.0
H1484 H 0.27257 0.1949 0.62006 0.0
H1485 H 0.18375 0.2675 0.61597 0.0
H1486 H 0.19253 0.24045 0.60962 0.0
H1487 H 0.21148 0.27296 0.60966 0.0
C1488 C 0.23816 0.17194 0.60101 0.0
C1489 C 0.24417 0.1892 0.59511 0.0
C1490 C 0.23685 0.18311 0.6079 0.0
C1491 C 0.24151 0.21171 0.60903 0.0
C1492 C 0.24784 0.22895 0.60317 0.0
H1493 H 0.29063 0.29478 0.64785 0.0
H1494 H 0.28831 0.27018 0.63642 0.0
C1495 C 0.24899 0.21784 0.59627 0.0
C1496 C 0.24075 0.22332 0.61636 0.0
H1497 H 0.21069 0.27411 0.6266 0.0
C1498 C 0.25888 0.21207 0.62151 0.0
C1499 C 0.22252 0.24538 0.61827 0.0
C1500 C 0.20126 0.25709 0.61311 0.0
C1501 C 0.25989 0.22286 0.62848 0.0
C1502 C 0.24277 0.24592 0.63027 0.0
C1503 C 0.22402 0.25661 0.62519 0.0
C1504 C 0.2444 0.25975 0.63734 0.0
C1505 C 0.27913 0.20928 0.63386 0.0
C1506 C 0.22035 0.26258 0.64158 0.0
C1507 C 0.22157 0.27686 0.64809 0.0
C1508 C 0.24689 0.28855 0.65046 0.0
C1509 C 0.27097 0.28554 0.64622 0.0
C1510 C 0.26968 0.27144 0.6397 0.0
H1511 H 0.28387 0.18729 0.63238 0.0
H1512 H 0.29919 0.22091 0.63401 0.0
H1513 H 0.26988 0.20955 0.63931 0.0
H1514 H 0.2006 0.25381 0.63984 0.0
H1515 H 0.20273 0.27875 0.65127 0.0
H1516 H 0.78919 0.79736 0.8445 0.0
H1517 H 0.76574 0.79811 0.85614 0.0
H1518 H 0.7695 0.70811 0.85707 0.0
H1519 H 0.79259 0.70709 0.8454 0.0
H1520 H 0.71472 0.77074 0.86044 0.0
H1521 H 0.80733 0.73463 0.87585 0.0
H1522 H 0.80994 0.7482 0.86686 0.0
H1523 H 0.79803 0.71306 0.86835 0.0
C1524 C 0.78475 0.77771 0.84714 0.0
C1525 C 0.79291 0.75217 0.84405 0.0
C1526 C 0.7715 0.7782 0.8538 0.0
C1527 C 0.76634 0.7532 0.85749 0.0
C1528 C 0.77385 0.72765 0.85436 0.0
H1529 H 0.69507 0.70803 0.89825 0.0
H1530 H 0.71643 0.70912 0.88637 0.0
C1531 C 0.78706 0.72712 0.8477 0.0
C1532 C 0.7531 0.7538 0.86462 0.0
H1533 H 0.76443 0.73755 0.88215 0.0
C1534 C 0.72557 0.76363 0.86521 0.0
C1535 C 0.76742 0.74449 0.87079 0.0
C1536 C 0.7974 0.73471 0.87048 0.0
C1537 C 0.71166 0.76378 0.87181 0.0
C1538 C 0.72594 0.75434 0.87798 0.0
C1539 C 0.75356 0.74471 0.87739 0.0
C1540 C 0.71256 0.75393 0.88511 0.0
C1541 C 0.6816 0.77333 0.8721 0.0
C1542 C 0.70359 0.77882 0.88835 0.0
C1543 C 0.69142 0.77827 0.89514 0.0
C1544 C 0.68829 0.75284 0.89883 0.0
C1545 C 0.69749 0.72798 0.89558 0.0
C1546 C 0.70956 0.72854 0.88879 0.0
H1547 H 0.67169 0.77315 0.86673 0.0
H1548 H 0.66914 0.75987 0.87575 0.0
H1549 H 0.6808 0.79505 0.87417 0.0
H1550 H 0.70632 0.79869 0.88566 0.0
H1551 H 0.68492 0.79779 0.89756 0.0
H1552 H 0.79891 0.77725 0.59053 0.0
H1553 H 0.80406 0.75286 0.60197 0.0
H1554 H 0.72517 0.78668 0.60905 0.0
H1555 H 0.71997 0.81134 0.59767 0.0
H1556 H 0.8052 0.77632 0.61587 0.0
H1557 H 0.71717 0.7019 0.61246 0.0
H1558 H 0.73202 0.72127 0.60509 0.0
H1559 H 0.70779 0.73787 0.61109 0.0
C1560 C 0.78271 0.77958 0.59453 0.0
C1561 C 0.75896 0.79611 0.59318 0.0
C1562 C 0.78564 0.76555 0.60105 0.0
C1563 C 0.76481 0.7677 0.60629 0.0
C1564 C 0.74119 0.78431 0.60499 0.0
H1565 H 0.76905 0.73479 0.65155 0.0
H1566 H 0.76971 0.75557 0.63958 0.0
C1567 C 0.73824 0.79834 0.59849 0.0
C1568 C 0.76803 0.75313 0.61322 0.0
H1569 H 0.737 0.70509 0.62412 0.0
C1570 C 0.79044 0.76059 0.61767 0.0
C1571 C 0.74891 0.73241 0.61548 0.0
C1572 C 0.72525 0.72264 0.61076 0.0
C1573 C 0.79377 0.7484 0.62444 0.0
C1574 C 0.77395 0.72855 0.62682 0.0
C1575 C 0.75202 0.72051 0.62228 0.0
C1576 C 0.77519 0.71618 0.63406 0.0
C1577 C 0.81848 0.75677 0.62897 0.0
C1578 C 0.7777 0.68716 0.6349 0.0
C1579 C 0.77705 0.67522 0.64171 0.0
C1580 C 0.77368 0.69211 0.64781 0.0
C1581 C 0.77148 0.72123 0.64695 0.0
C1582 C 0.77216 0.73315 0.64013 0.0
H1583 H 0.83542 0.76618 0.62569 0.0
H1584 H 0.81167 0.77255 0.63296 0.0
H1585 H 0.82706 0.7385 0.63191 0.0
H1586 H 0.77981 0.67372 0.63027 0.0
H1587 H 0.77837 0.65269 0.64219 0.0
H1588 H 0.25725 0.24686 0.90337 0.0
H1589 H 0.2358 0.24594 0.89148 0.0
H1590 H 0.31547 0.26563 0.88192 0.0
H1591 H 0.33728 0.26566 0.89374 0.0
H1592 H 0.23345 0.28838 0.88105 0.0
H1593 H 0.29078 0.19492 0.87122 0.0
H1594 H 0.28947 0.20434 0.88057 0.0
H1595 H 0.31269 0.22242 0.87459 0.0
C1596 C 0.27025 0.25076 0.89873 0.0
C1597 C 0.299 0.25616 0.89949 0.0
C1598 C 0.25793 0.2504 0.89196 0.0
C1599 C 0.27417 0.25529 0.88584 0.0
C1600 C 0.30271 0.26132 0.88658 0.0
H1601 H 0.23653 0.25879 0.8404 0.0
H1602 H 0.25898 0.26192 0.85215 0.0
C1603 C 0.31505 0.26166 0.89334 0.0
C1604 C 0.26118 0.25416 0.87867 0.0
H1605 H 0.26291 0.21915 0.86277 0.0
C1606 C 0.2398 0.27322 0.87705 0.0
C1607 C 0.26962 0.23435 0.87349 0.0
C1608 C 0.29172 0.21266 0.87505 0.0
C1609 C 0.22679 0.2732 0.87033 0.0
C1610 C 0.23516 0.25332 0.86516 0.0
C1611 C 0.25664 0.23437 0.86676 0.0
C1612 C 0.22154 0.25155 0.85809 0.0
C1613 C 0.20449 0.29469 0.86877 0.0
C1614 C 0.19321 0.24431 0.85756 0.0
C1615 C 0.18035 0.24257 0.85088 0.0
C1616 C 0.19564 0.24795 0.8446 0.0
C1617 C 0.22414 0.25487 0.84515 0.0
C1618 C 0.237 0.25654 0.85184 0.0
H1619 H 0.2054 0.3125 0.87258 0.0
H1620 H 0.20658 0.3029 0.86324 0.0
H1621 H 0.18361 0.28478 0.86927 0.0
H1622 H 0.18107 0.23995 0.86232 0.0
H1623 H 0.15831 0.23744 0.85063 0.0
H1624 H 0.69307 0.70066 0.09329 0.0
H1625 H 0.68949 0.72486 0.10479 0.0
H1626 H 0.77921 0.73361 0.10544 0.0
H1627 H 0.78293 0.71014 0.09386 0.0
H1628 H 0.71413 0.70769 0.11775 0.0
H1629 H 0.75095 0.81303 0.10964 0.0
H1630 H 0.73958 0.7871 0.10325 0.0
H1631 H 0.77402 0.78516 0.10707 0.0
C1632 C 0.71199 0.70818 0.09583 0.0
C1633 C 0.73829 0.70358 0.09267 0.0
C1634 C 0.70991 0.72182 0.10241 0.0
C1635 C 0.73405 0.73129 0.1059 0.0
C1636 C 0.7603 0.72687 0.10276 0.0
H1637 H 0.77821 0.80432 0.14621 0.0
H1638 H 0.77632 0.78308 0.13434 0.0
C1639 C 0.76241 0.71319 0.09619 0.0
C1640 C 0.73197 0.74463 0.11301 0.0
H1641 H 0.74813 0.80414 0.12216 0.0
C1642 C 0.72127 0.72887 0.11872 0.0
C1643 C 0.74134 0.77225 0.11422 0.0
C1644 C 0.75188 0.7905 0.10821 0.0
C1645 C 0.72058 0.7397 0.12569 0.0
C1646 C 0.73045 0.76713 0.12692 0.0
C1647 C 0.74066 0.78307 0.12119 0.0
C1648 C 0.73124 0.77942 0.13417 0.0
C1649 C 0.71021 0.72142 0.13171 0.0
C1650 C 0.70647 0.78446 0.13797 0.0
C1651 C 0.70748 0.7964 0.14479 0.0
C1652 C 0.7333 0.80357 0.14788 0.0
C1653 C 0.75804 0.79858 0.14402 0.0
C1654 C 0.757 0.78666 0.13722 0.0
H1655 H 0.70916 0.69905 0.13013 0.0
H1656 H 0.72395 0.72335 0.13647 0.0
H1657 H 0.68887 0.7282 0.13327 0.0
H1658 H 0.68636 0.77936 0.13565 0.0
H1659 H 0.68809 0.79989 0.14764 0.0
H1660 H 0.17037 0.27645 0.39488 0.0
H1661 H 0.19385 0.27595 0.38326 0.0
H1662 H 0.25289 0.21521 0.39119 0.0
H1663 H 0.22953 0.21561 0.40284 0.0
H1664 H 0.2495 0.289 0.38021 0.0
H1665 H 0.22444 0.1795 0.37264 0.0
H1666 H 0.20676 0.19748 0.37983 0.0
H1667 H 0.24116 0.18331 0.38119 0.0
C1668 C 0.18844 0.26309 0.39416 0.0
C1669 C 0.19811 0.24604 0.39977 0.0
C1670 C 0.20173 0.26273 0.38751 0.0
C1671 C 0.22483 0.24527 0.38635 0.0
C1672 C 0.2347 0.22838 0.39194 0.0
H1673 H 0.33388 0.22018 0.34976 0.0
H1674 H 0.31151 0.2189 0.36154 0.0
C1675 C 0.22137 0.22865 0.39859 0.0
C1676 C 0.23898 0.24537 0.37932 0.0
H1677 H 0.25539 0.20418 0.36501 0.0
C1678 C 0.25074 0.27049 0.37687 0.0
C1679 C 0.24058 0.22114 0.375 0.0
C1680 C 0.22737 0.19387 0.37725 0.0
C1681 C 0.26432 0.272 0.37024 0.0
C1682 C 0.26576 0.24783 0.36591 0.0
C1683 C 0.25421 0.22265 0.36837 0.0
C1684 C 0.27894 0.24836 0.35876 0.0
C1685 C 0.27738 0.29932 0.36796 0.0
C1686 C 0.2677 0.265 0.35329 0.0
C1687 C 0.28031 0.26568 0.34656 0.0
C1688 C 0.30432 0.24958 0.34517 0.0
C1689 C 0.31525 0.23259 0.35064 0.0
C1690 C 0.30261 0.23194 0.35738 0.0
H1691 H 0.28053 0.31363 0.37257 0.0
H1692 H 0.29785 0.29575 0.36531 0.0
H1693 H 0.26338 0.30989 0.36408 0.0
H1694 H 0.24908 0.27737 0.35423 0.0
H1695 H 0.27111 0.27858 0.34242 0.0
H1696 H 0.20994 0.15422 0.22373 0.0
H1697 H 0.21303 0.16935 0.23612 0.0
H1698 H 0.24509 0.24928 0.22929 0.0
H1699 H 0.24066 0.23487 0.21679 0.0
H1700 H 0.26299 0.18159 0.24203 0.0
H1701 H 0.1916 0.27219 0.24514 0.0
H1702 H 0.18924 0.24823 0.2377 0.0
H1703 H 0.21528 0.27534 0.23773 0.0
C1704 C 0.21668 0.17541 0.22481 0.0
C1705 C 0.22511 0.19331 0.21924 0.0
C1706 C 0.21861 0.18395 0.23193 0.0
C1707 C 0.22909 0.21049 0.23363 0.0
C1708 C 0.23645 0.22889 0.22809 0.0
H1709 H 0.30467 0.27961 0.27144 0.0
H1710 H 0.28338 0.27278 0.25966 0.0
C1711 C 0.23431 0.22044 0.22095 0.0
C1712 C 0.23574 0.2173 0.24116 0.0
H1713 H 0.22495 0.26484 0.25452 0.0
C1714 C 0.25439 0.19961 0.24478 0.0
C1715 C 0.22471 0.24098 0.24471 0.0
C1716 C 0.2039 0.26016 0.24115 0.0
C1717 C 0.26271 0.20516 0.25182 0.0
C1718 C 0.25178 0.22885 0.25536 0.0
C1719 C 0.23311 0.24661 0.25177 0.0
C1720 C 0.2605 0.23568 0.26273 0.0
C1721 C 0.28373 0.18601 0.25534 0.0
C1722 C 0.25379 0.21762 0.26838 0.0
C1723 C 0.26591 0.22142 0.2751 0.0
C1724 C 0.28482 0.24344 0.27628 0.0
C1725 C 0.29005 0.26256 0.27071 0.0
C1726 C 0.27796 0.25868 0.26398 0.0
H1727 H 0.2943 0.17218 0.2514 0.0
H1728 H 0.29989 0.19829 0.25822 0.0
H1729 H 0.27286 0.17258 0.2593 0.0
H1730 H 0.24007 0.19992 0.26751 0.0
H1731 H 0.26112 0.20666 0.27933 0.0
H1732 H 0.78277 0.78582 0.46706 0.0
H1733 H 0.76374 0.78787 0.47914 0.0
H1734 H 0.76179 0.6978 0.48006 0.0
H1735 H 0.78096 0.69551 0.4679 0.0
H1736 H 0.71595 0.76632 0.4861 0.0
H1737 H 0.81522 0.71994 0.4963 0.0
H1738 H 0.81167 0.7321 0.48721 0.0
H1739 H 0.79579 0.69974 0.4899 0.0
C1740 C 0.77764 0.76641 0.46974 0.0
C1741 C 0.7836 0.74049 0.46655 0.0
C1742 C 0.76682 0.76763 0.47666 0.0
C1743 C 0.76175 0.743 0.48052 0.0
C1744 C 0.76602 0.71704 0.47721 0.0
H1745 H 0.70769 0.77079 0.5254 0.0
H1746 H 0.70794 0.74958 0.51343 0.0
C1747 C 0.77699 0.71578 0.47028 0.0
C1748 C 0.75474 0.74505 0.48821 0.0
H1749 H 0.78409 0.73799 0.50474 0.0
C1750 C 0.73049 0.75962 0.49021 0.0
C1751 C 0.77393 0.73637 0.49353 0.0
C1752 C 0.80072 0.72132 0.49167 0.0
C1753 C 0.72569 0.76715 0.49736 0.0
C1754 C 0.74557 0.75963 0.50261 0.0
C1755 C 0.76891 0.7436 0.50068 0.0
C1756 C 0.7449 0.77169 0.50988 0.0
C1757 C 0.70045 0.78467 0.49919 0.0
C1758 C 0.76571 0.79084 0.51184 0.0
C1759 C 0.76563 0.8029 0.51861 0.0
C1760 C 0.74477 0.79597 0.5236 0.0
C1761 C 0.72389 0.7767 0.52164 0.0
C1762 C 0.72401 0.76456 0.51483 0.0
H1763 H 0.68857 0.79112 0.49436 0.0
H1764 H 0.68626 0.77251 0.50271 0.0
H1765 H 0.70693 0.80371 0.50216 0.0
H1766 H 0.78191 0.79672 0.50807 0.0
H1767 H 0.78168 0.81806 0.51989 0.0
H1768 H 0.28066 0.34803 0.72437 0.0
H1769 H 0.2754 0.33228 0.73669 0.0
H1770 H 0.26017 0.24822 0.72935 0.0
H1771 H 0.26633 0.26363 0.71694 0.0
H1772 H 0.22353 0.30838 0.74086 0.0
H1773 H 0.31314 0.23794 0.7469 0.0
H1774 H 0.31427 0.26366 0.73982 0.0
H1775 H 0.29488 0.23191 0.73862 0.0
C1776 C 0.27715 0.32599 0.72536 0.0
C1777 C 0.27387 0.30708 0.71966 0.0
C1778 C 0.274 0.31707 0.73241 0.0
C1779 C 0.26759 0.2891 0.73392 0.0
C1780 C 0.26553 0.26983 0.72829 0.0
H1781 H 0.20119 0.21372 0.77274 0.0
H1782 H 0.22261 0.2203 0.76092 0.0
C1783 C 0.26872 0.27874 0.72121 0.0
C1784 C 0.25938 0.2812 0.74126 0.0
H1785 H 0.27759 0.24145 0.75571 0.0
C1786 C 0.2354 0.29381 0.74412 0.0
C1787 C 0.27474 0.2619 0.74543 0.0
C1788 C 0.30082 0.24813 0.74258 0.0
C1789 C 0.22637 0.28781 0.75106 0.0
C1790 C 0.24209 0.2691 0.75532 0.0
C1791 C 0.26579 0.25596 0.75243 0.0
C1792 C 0.23398 0.26345 0.7628 0.0
C1793 C 0.1999 0.30139 0.75377 0.0
C1794 C 0.23439 0.2852 0.76782 0.0
C1795 C 0.2221 0.28157 0.77452 0.0
C1796 C 0.20943 0.25603 0.77632 0.0
C1797 C 0.21088 0.23359 0.77148 0.0
C1798 C 0.22306 0.23731 0.76474 0.0
H1799 H 0.18687 0.30967 0.74933 0.0
H1800 H 0.18719 0.28632 0.75692 0.0
H1801 H 0.20544 0.31913 0.75732 0.0
H1802 H 0.24308 0.3054 0.76643 0.0
H1803 H 0.22164 0.29904 0.7782 0.0
H1804 H 0.71769 0.7252 0.02473 0.0
H1805 H 0.71934 0.74357 0.0125 0.0
H1806 H 0.80403 0.714 0.01027 0.0
H1807 H 0.80256 0.69544 0.0225 0.0
H1808 H 0.77044 0.77933 0.00398 0.0
H1809 H 0.7417 0.67045 0.99615 0.0
H1810 H 0.73136 0.68433 0.00473 0.0
H1811 H 0.7674 0.67656 0.00303 0.0
C1812 C 0.73685 0.72312 0.02168 0.0
C1813 C 0.7599 0.70866 0.02452 0.0
C1814 C 0.73783 0.73381 0.01474 0.0
C1815 C 0.7618 0.7301 0.01054 0.0
C1816 C 0.78547 0.71722 0.01349 0.0
H1817 H 0.74511 0.72442 0.96436 0.0
H1818 H 0.7678 0.72238 0.97608 0.0
C1819 C 0.78458 0.70666 0.02046 0.0
C1820 C 0.76027 0.73575 0.0028 0.0
H1821 H 0.74061 0.70465 0.98723 0.0
C1822 C 0.76434 0.76303 0.00026 0.0
C1823 C 0.7525 0.71431 -0.00198 0.0
C1824 C 0.74792 0.6847 0.00056 0.0
C1825 C 0.76004 0.76957 0.99301 0.0
C1826 C 0.75077 0.74837 0.98829 0.0
C1827 C 0.7478 0.7209 0.99083 0.0
C1828 C 0.74155 0.7542 0.98086 0.0
C1829 C 0.76534 0.79907 0.99051 0.0
C1830 C 0.71986 0.77339 0.97958 0.0
C1831 C 0.70717 0.77481 0.97286 0.0
C1832 C 0.7156 0.75667 0.96737 0.0
C1833 C 0.73821 0.73852 0.96853 0.0
C1834 C 0.75118 0.7374 0.97521 0.0
H1835 H 0.78159 0.80938 0.99384 0.0
H1836 H 0.77209 0.79963 0.98483 0.0
H1837 H 0.7458 0.81141 0.99105 0.0
H1838 H 0.7115 0.786 0.98389 0.0
H1839 H 0.68953 0.78872 0.97211 0.0
H1840 H 0.28318 0.28163 0.02457 0.0
H1841 H 0.28339 0.26036 0.01273 0.0
H1842 H 0.19372 0.26843 0.01155 0.0
H1843 H 0.19317 0.28943 0.02352 0.0
H1844 H 0.2534 0.21216 0.00681 0.0
H1845 H 0.22502 0.3142 0.99429 0.0
H1846 H 0.23753 0.31192 0.00338 0.0
H1847 H 0.2027 0.30081 0.00124 0.0
C1848 C 0.26339 0.27832 0.02189 0.0
C1849 C 0.23816 0.28738 0.02498 0.0
C1850 C 0.26358 0.26625 0.0151 0.0
C1851 C 0.23862 0.26311 0.01126 0.0
C1852 C 0.21323 0.27102 0.01442 0.0
H1853 H 0.24776 0.2359 0.96487 0.0
H1854 H 0.2261 0.2385 0.97674 0.0
C1855 C 0.21299 0.2831 0.02123 0.0
C1856 C 0.23988 0.25343 0.00377 0.0
H1857 H 0.23868 0.27803 0.98665 0.0
C1858 C 0.24969 0.22634 0.00238 0.0
C1859 C 0.23479 0.27195 -0.00198 0.0
C1860 C 0.22455 0.30142 -0.00075 0.0
C1861 C 0.25587 0.21771 0.99538 0.0
C1862 C 0.25272 0.23693 0.98969 0.0
C1863 C 0.24113 0.26337 0.99103 0.0
C1864 C 0.26471 0.23163 0.98252 0.0
C1865 C 0.26643 0.18837 0.99419 0.0
C1866 C 0.29354 0.22691 0.98184 0.0
C1867 C 0.30594 0.22561 0.9751 0.0
C1868 C 0.2898 0.2292 0.96888 0.0
C1869 C 0.26078 0.23326 0.96956 0.0
C1870 C 0.24835 0.23457 0.97633 0.0
H1871 H 0.25809 0.17383 -0.00169 0.0
H1872 H 0.26056 0.18047 0.98881 0.0
H1873 H 0.28957 0.18823 0.99463 0.0
H1874 H 0.30672 0.22549 0.98653 0.0
H1875 H 0.32841 0.22308 0.97479 0.0
H1876 H 0.75011 0.74085 0.27726 0.0
H1877 H 0.77312 0.74011 0.26549 0.0
H1878 H 0.69318 0.75172 0.25524 0.0
H1879 H 0.67015 0.75209 0.26689 0.0
H1880 H 0.73073 0.70894 0.24894 0.0
H1881 H 0.77983 0.81352 0.25312 0.0
H1882 H 0.78464 0.78669 0.25977 0.0
H1883 H 0.75075 0.80194 0.25852 0.0
C1884 C 0.7375 0.74293 0.27248 0.0
C1885 C 0.70841 0.74688 0.27298 0.0
C1886 C 0.75064 0.74261 0.26579 0.0
C1887 C 0.7348 0.74606 0.25954 0.0
C1888 C 0.70572 0.74907 0.26002 0.0
H1889 H 0.71683 0.78297 0.2171 0.0
H1890 H 0.71738 0.76227 0.22897 0.0
C1891 C 0.69264 0.74953 0.26668 0.0
C1892 C 0.74811 0.74815 0.25243 0.0
H1893 H 0.77938 0.79576 0.24147 0.0
C1894 C 0.74198 0.72759 0.24732 0.0
C1895 C 0.763 0.77237 0.25038 0.0
C1896 C 0.76998 0.79505 0.2557 0.0
C1897 C 0.74874 0.73152 0.24009 0.0
C1898 C 0.76136 0.75689 0.23794 0.0
C1899 C 0.76957 0.77638 0.24314 0.0
C1900 C 0.76221 0.76559 0.23034 0.0
C1901 C 0.74129 0.70895 0.23479 0.0
C1902 C 0.78724 0.77453 0.22717 0.0
C1903 C 0.787 0.78644 0.22033 0.0
C1904 C 0.76166 0.78986 0.2166 0.0
C1905 C 0.73678 0.78014 0.21974 0.0
C1906 C 0.73707 0.76821 0.22654 0.0
H1907 H 0.74184 0.68798 0.23735 0.0
H1908 H 0.71969 0.71251 0.23282 0.0
H1909 H 0.75573 0.70901 0.23014 0.0
H1910 H 0.80683 0.77291 0.23005 0.0
H1911 H 0.80656 0.79347 0.21803 0.0
H1912 H 0.24675 0.26898 0.46506 0.0
H1913 H 0.26889 0.2667 0.4769 0.0
H1914 H 0.18754 0.26336 0.48682 0.0
H1915 H 0.16538 0.26541 0.47511 0.0
H1916 H 0.22632 0.29925 0.49386 0.0
H1917 H 0.26982 0.19312 0.48844 0.0
H1918 H 0.27887 0.22076 0.48233 0.0
H1919 H 0.24341 0.20863 0.4828 0.0
C1920 C 0.23363 0.26786 0.46978 0.0
C1921 C 0.2043 0.26731 0.46915 0.0
C1922 C 0.2463 0.26661 0.47652 0.0
C1923 C 0.22982 0.26461 0.48271 0.0
C1924 C 0.20062 0.26504 0.4821 0.0
H1925 H 0.21263 0.2188 0.52499 0.0
H1926 H 0.21212 0.24086 0.51326 0.0
C1927 C 0.18798 0.26632 0.4754 0.0
C1928 C 0.24242 0.26024 0.48984 0.0
H1929 H 0.27225 0.20958 0.50019 0.0
C1930 C 0.23689 0.2799 0.49523 0.0
C1931 C 0.25635 0.23505 0.49159 0.0
C1932 C 0.26241 0.21302 0.48602 0.0
C1933 C 0.24348 0.27432 0.5024 0.0
C1934 C 0.25551 0.24827 0.50421 0.0
C1935 C 0.26294 0.22951 0.49876 0.0
C1936 C 0.25689 0.23837 0.5117 0.0
C1937 C 0.2366 0.29592 0.508 0.0
C1938 C 0.28225 0.22949 0.5147 0.0
C1939 C 0.28266 0.21691 0.52145 0.0
C1940 C 0.25763 0.2127 0.52527 0.0
C1941 C 0.23237 0.22222 0.52229 0.0
C1942 C 0.23203 0.23488 0.51557 0.0
H1943 H 0.2367 0.31734 0.5057 0.0
H1944 H 0.21532 0.29183 0.51013 0.0
H1945 H 0.25164 0.2951 0.51253 0.0
H1946 H 0.30163 0.23179 0.51175 0.0
H1947 H 0.3025 0.2101 0.52363 0.0
H1948 H 0.78926 0.70394 0.71809 0.0
H1949 H 0.78993 0.72154 0.73032 0.0
H1950 H 0.69999 0.72822 0.73012 0.0
H1951 H 0.69911 0.71049 0.71781 0.0
H1952 H 0.76992 0.77014 0.73697 0.0
H1953 H 0.71583 0.67414 0.74668 0.0
H1954 H 0.72982 0.67681 0.73775 0.0
H1955 H 0.69794 0.69455 0.74003 0.0
C1956 C 0.76963 0.70974 0.72057 0.0
C1957 C 0.74411 0.70567 0.717 0.0
C1958 C 0.77005 0.71972 0.72757 0.0
C1959 C 0.74499 0.7258 0.73115 0.0
C1960 C 0.71952 0.72316 0.72749 0.0
H1961 H 0.7679 0.78348 0.7758 0.0
H1962 H 0.74843 0.78205 0.76365 0.0
C1963 C 0.71906 0.71304 0.72047 0.0
C1964 C 0.74596 0.73278 0.73885 0.0
H1965 H 0.73339 0.70476 0.75533 0.0
C1966 C 0.76149 0.7562 0.74101 0.0
C1967 C 0.73504 0.71437 0.74408 0.0
C1968 C 0.71887 0.68844 0.74206 0.0
C1969 C 0.7677 0.76089 0.74824 0.0
C1970 C 0.75773 0.74184 0.75344 0.0
C1971 C 0.74088 0.71933 0.75132 0.0
C1972 C 0.76774 0.74257 0.76092 0.0
C1973 C 0.78638 0.7851 0.75023 0.0
C1974 C 0.78443 0.72056 0.76343 0.0
C1975 C 0.79547 0.72127 0.77032 0.0
C1976 C 0.78997 0.74401 0.77486 0.0
C1977 C 0.77275 0.76584 0.77239 0.0
C1978 C 0.76162 0.76507 0.76547 0.0
H1979 H 0.79559 0.79544 0.74546 0.0
H1980 H 0.77403 0.80089 0.75322 0.0
H1981 H 0.80364 0.77793 0.75376 0.0
H1982 H 0.7895 0.70307 0.75998 0.0
H1983 H 0.80902 0.70436 0.77201 0.0
H1984 H 0.10397 0.0386 0.19174 0.0
H1985 H 0.05653 0.01976 0.19136 0.0
H1986 H 0.06433 0.00652 0.16863 0.0
H1987 H 0.11187 0.02557 0.16895 0.0
H1988 H 0.01536 0.03263 0.17224 0.0
H1989 H 0.03152 0.93914 0.18928 0.0
H1990 H 0.04243 0.971 0.1935 0.0
H1991 H 0.06021 0.95899 0.18559 0.0
C1992 C 0.09578 0.0312 0.18668 0.0
C1993 C 0.11171 0.03336 0.18038 0.0
C1994 C 0.06867 0.02045 0.18648 0.0
C1995 C 0.05708 0.01135 0.17999 0.0
C1996 C 0.07295 0.01335 0.17369 0.0
H1997 H 0.90456 0.91481 0.17653 0.0
H1998 H 0.9525 0.93199 0.176 0.0
C1999 C 0.10005 0.02425 0.17389 0.0
C2000 C 0.02798 0.00083 0.17974 0.0
H2001 H 0.98426 0.95176 0.18683 0.0
C2002 C 0.00856 0.01483 0.17539 0.0
C2003 C 0.01928 0.97744 0.1838 0.0
C2004 C 0.03951 0.96058 0.18825 0.0
C2005 C 0.9805 0.00636 0.17509 0.0
C2006 C 0.97156 0.98366 0.17937 0.0
C2007 C 0.9911 0.96937 0.18362 0.0
C2008 C 0.94217 0.97394 0.17942 0.0
C2009 C 0.96081 0.02152 0.17011 0.0
C2010 C 0.92042 0.99182 0.18155 0.0
C2011 C 0.89283 0.98217 0.18176 0.0
C2012 C 0.88656 0.95437 0.1799 0.0
C2013 C 0.9085 0.93651 0.17783 0.0
C2014 C 0.93599 0.94621 0.17759 0.0
H2015 H 0.97231 0.03292 0.16585 0.0
H2016 H 0.94594 0.00676 0.16755 0.0
H2017 H 0.94857 0.03706 0.17321 0.0
H2018 H 0.92482 0.01315 0.18313 0.0
H2019 H 0.87644 0.99649 0.18335 0.0
H2020 H 0.0386 0.38911 0.4448 0.0
H2021 H 0.01959 0.43656 0.44467 0.0
H2022 H 0.00723 0.43087 0.42186 0.0
H2023 H 0.02661 0.38346 0.42194 0.0
H2024 H 0.03274 0.47928 0.42569 0.0
H2025 H 0.93929 0.4619 0.44267 0.0
H2026 H 0.97126 0.45113 0.44687 0.0
H2027 H 0.95936 0.43347 0.43894 0.0
C2028 C 0.03138 0.3978 0.43978 0.0
C2029 C 0.03392 0.38255 0.43339 0.0
C2030 C 0.02051 0.4249 0.43971 0.0
C2031 C 0.01161 0.43708 0.43327 0.0
C2032 C 0.01392 0.42181 0.42689 0.0
H2033 H 0.91315 0.58781 0.42927 0.0
H2034 H 0.93119 0.54014 0.42917 0.0
C2035 C 0.02499 0.39479 0.42694 0.0
C2036 C 0.00101 0.46618 0.43315 0.0
H2037 H 0.95129 0.50925 0.44021 0.0
C2038 C 0.01485 0.48584 0.42883 0.0
C2039 C 0.9775 0.47458 0.4372 0.0
C2040 C 0.96081 0.45412 0.44163 0.0
C2041 C 0.00601 0.51378 0.42853 0.0
C2042 C 0.98309 0.52238 0.43278 0.0
C2043 C 0.96906 0.50266 0.43703 0.0
C2044 C 0.9727 0.55155 0.43272 0.0
C2045 C 0.02091 0.53366 0.42355 0.0
C2046 C 0.99002 0.5738 0.4348 0.0
C2047 C 0.97987 0.60123 0.43476 0.0
C2048 C 0.95213 0.60682 0.43271 0.0
C2049 C 0.93478 0.58436 0.43073 0.0
C2050 C 0.94497 0.55704 0.43073 0.0
H2051 H 0.0328 0.52233 0.41935 0.0
H2052 H 0.00591 0.54808 0.42091 0.0
H2053 H 0.03599 0.54639 0.42667 0.0
H2054 H 0.01133 0.56995 0.43649 0.0
H2055 H 0.99379 0.61804 0.4363 0.0
H2056 H 0.39428 0.46405 0.69164 0.0
H2057 H 0.44139 0.48372 0.69125 0.0
H2058 H 0.43478 0.49333 0.66837 0.0
H2059 H 0.38761 0.47337 0.66871 0.0
H2060 H 0.48345 0.46837 0.6723 0.0
H2061 H 0.46652 0.56379 0.68852 0.0
H2062 H 0.45567 0.53251 0.69303 0.0
H2063 H 0.43799 0.54331 0.685 0.0
C2064 C 0.40264 0.47087 0.68654 0.0
C2065 C 0.38721 0.46733 0.68021 0.0
C2066 C 0.42956 0.48211 0.68633 0.0
C2067 C 0.44142 0.49037 0.6798 0.0
C2068 C 0.42596 0.48716 0.67347 0.0
H2069 H 0.5949 0.58597 0.67623 0.0
H2070 H 0.54678 0.56929 0.67564 0.0
C2071 C 0.39908 0.47574 0.67367 0.0
C2072 C 0.4705 0.50097 0.67953 0.0
H2073 H 0.51398 0.55073 0.68639 0.0
C2074 C 0.49011 0.48651 0.67534 0.0
C2075 C 0.47905 0.5248 0.68343 0.0
C2076 C 0.45865 0.54218 0.68769 0.0
C2077 C 0.51819 0.49491 0.67505 0.0
C2078 C 0.52698 0.51801 0.6792 0.0
C2079 C 0.50726 0.53281 0.68328 0.0
C2080 C 0.55646 0.52751 0.67932 0.0
C2081 C 0.53805 0.47922 0.67023 0.0
C2082 C 0.5779 0.50957 0.68162 0.0
C2083 C 0.60558 0.51892 0.68186 0.0
C2084 C 0.61227 0.54649 0.67988 0.0
C2085 C 0.59063 0.56444 0.67764 0.0
C2086 C 0.56305 0.55503 0.67737 0.0
H2087 H 0.52671 0.46762 0.66598 0.0
H2088 H 0.55324 0.49362 0.66766 0.0
H2089 H 0.54991 0.46376 0.67346 0.0
H2090 H 0.5732 0.48842 0.6833 0.0
H2091 H 0.62172 0.50452 0.68357 0.0
H2092 H 0.42157 0.09031 0.92994 0.0
H2093 H 0.44177 0.04349 0.93043 0.0
H2094 H 0.51991 0.07798 0.93778 0.0
H2095 H 0.50007 0.12517 0.93717 0.0
H2096 H 0.49191 0.02314 0.92326 0.0
H2097 H 0.4978 0.01753 0.95297 0.0
H2098 H 0.476 0.04257 0.94836 0.0
H2099 H 0.5131 0.04786 0.94884 0.0
C2100 C 0.44319 0.08807 0.93156 0.0
C2101 C 0.45923 0.11154 0.9335 0.0
C2102 C 0.45461 0.06126 0.93188 0.0
C2103 C 0.48217 0.05734 0.93421 0.0
C2104 C 0.49843 0.08063 0.93608 0.0
H2105 H 0.58012 0.90688 0.94121 0.0
H2106 H 0.56301 0.955 0.94059 0.0
C2107 C 0.48705 0.10753 0.93573 0.0
C2108 C 0.49376 0.02877 0.93467 0.0
H2109 H 0.51566 0.97908 0.94652 0.0
C2110 C 0.49715 0.01346 0.92834 0.0
C2111 C 0.50057 0.01636 0.94131 0.0
C2112 C 0.49655 0.03176 0.94828 0.0
C2113 C 0.50739 0.98598 0.92845 0.0
C2114 C 0.51376 0.97336 0.93511 0.0
C2115 C 0.51065 0.98881 0.94144 0.0
C2116 C 0.52367 0.94411 0.93561 0.0
C2117 C 0.51172 0.97089 0.92145 0.0
C2118 C 0.50694 0.92202 0.93314 0.0
C2119 C 0.51661 0.8945 0.93351 0.0
C2120 C 0.54308 0.88857 0.93641 0.0
C2121 C 0.55949 0.91072 0.93902 0.0
C2122 C 0.54984 0.93823 0.93864 0.0
H2123 H 0.5132 0.98571 0.91689 0.0
H2124 H 0.531 0.95796 0.92159 0.0
H2125 H 0.49368 0.95684 0.92046 0.0
H2126 H 0.48638 0.92608 0.93095 0.0
H2127 H 0.50333 0.87784 0.93155 0.0
H2128 H 0.10617 0.45529 0.07234 0.0
H2129 H 0.05855 0.47401 0.07247 0.0
H2130 H 0.06033 0.48179 0.0495 0.0
H2131 H 0.10768 0.46251 0.04928 0.0
H2132 H 0.03887 0.53012 0.05744 0.0
H2133 H 0.98899 0.4292 0.06495 0.0
H2134 H 0.0178 0.44027 0.07045 0.0
H2135 H 0.02384 0.43122 0.06126 0.0
C2136 C 0.0964 0.46084 0.06731 0.0
C2137 C 0.11069 0.45723 0.06079 0.0
C2138 C 0.06924 0.47158 0.0674 0.0
C2139 C 0.05592 0.47891 0.06099 0.0
C2140 C 0.07033 0.47617 0.0545 0.0
H2141 H 0.88131 0.51124 0.05196 0.0
H2142 H 0.92939 0.49346 0.05221 0.0
C2143 C 0.09745 0.46533 0.05439 0.0
C2144 C 0.02677 0.48912 0.06104 0.0
H2145 H 0.95958 0.46891 0.06439 0.0
C2146 C 0.02151 0.5168 0.05896 0.0
C2147 C 0.00425 0.4715 0.06296 0.0
C2148 C 0.00881 0.44131 0.06498 0.0
C2149 C 0.99419 0.52749 0.05885 0.0
C2150 C 0.97172 0.51002 0.06089 0.0
C2151 C 0.97695 0.48224 0.06288 0.0
C2152 C 0.94257 0.52019 0.06091 0.0
C2153 C 0.98946 0.55723 0.05644 0.0
C2154 C 0.93409 0.5407 0.0658 0.0
C2155 C 0.90671 0.55084 0.06568 0.0
C2156 C 0.88737 0.54062 0.06066 0.0
C2157 C 0.89584 0.51968 0.05584 0.0
C2158 C 0.9232 0.50945 0.056 0.0
H2159 H 0.00811 0.56604 0.05371 0.0
H2160 H 0.9713 0.55847 0.05275 0.0
H2161 H 0.98478 0.57043 0.06117 0.0
H2162 H 0.94873 0.549 0.06968 0.0
H2163 H 0.90089 0.56716 0.06941 0.0
H2164 H 0.5698 0.59785 0.29791 0.0
H2165 H 0.5498 0.55088 0.29756 0.0
H2166 H 0.49487 0.57189 0.31503 0.0
H2167 H 0.51423 0.61926 0.31533 0.0
H2168 H 0.5269 0.51963 0.31641 0.0
H2169 H 0.46903 0.52919 0.29071 0.0
H2170 H 0.50495 0.54033 0.29058 0.0
H2171 H 0.47992 0.55923 0.29586 0.0
C2172 C 0.55311 0.59271 0.3016 0.0
C2173 C 0.54349 0.61242 0.30662 0.0
C2174 C 0.54182 0.56582 0.30141 0.0
C2175 C 0.52075 0.55811 0.30623 0.0
C2176 C 0.51113 0.57756 0.31127 0.0
H2177 H 0.4146 0.41241 0.30694 0.0
H2178 H 0.43427 0.45951 0.30687 0.0
C2179 C 0.5223 0.60454 0.31145 0.0
C2180 C 0.50925 0.52946 0.30612 0.0
H2181 H 0.47086 0.48423 0.296 0.0
C2182 C 0.51463 0.51184 0.31196 0.0
C2183 C 0.49315 0.51957 0.30031 0.0
C2184 C 0.48616 0.53805 0.29402 0.0
C2185 C 0.50451 0.48432 0.31211 0.0
C2186 C 0.48879 0.47428 0.30625 0.0
C2187 C 0.48315 0.49201 0.30045 0.0
C2188 C 0.47721 0.44567 0.30615 0.0
C2189 C 0.5103 0.46628 0.31856 0.0
C2190 C 0.49493 0.42238 0.30567 0.0
C2191 C 0.48375 0.39537 0.30563 0.0
C2192 C 0.45466 0.39127 0.30605 0.0
C2193 C 0.43705 0.41479 0.30648 0.0
C2194 C 0.44823 0.44172 0.30649 0.0
H2195 H 0.51824 0.4787 0.32316 0.0
H2196 H 0.49107 0.45506 0.32025 0.0
H2197 H 0.52629 0.45038 0.31716 0.0
H2198 H 0.51737 0.42511 0.30531 0.0
H2199 H 0.49787 0.37775 0.30519 0.0
H2200 H 0.60183 0.95715 0.54823 0.0
H2201 H 0.55376 0.97451 0.54813 0.0
H2202 H 0.54894 0.96378 0.57101 0.0
H2203 H 0.59736 0.94731 0.5712 0.0
H2204 H 0.50609 0.94586 0.55263 0.0
H2205 H 0.52092 0.04377 0.56814 0.0
H2206 H 0.54979 0.02456 0.56433 0.0
H2207 H 0.53376 0.01285 0.57249 0.0
C2208 C 0.59075 0.959 0.55326 0.0
C2209 C 0.60348 0.95098 0.55973 0.0
C2210 C 0.56321 0.96869 0.55318 0.0
C2211 C 0.54793 0.97069 0.55957 0.0
C2212 C 0.56054 0.96282 0.56604 0.0
H2213 H 0.37777 0.02278 0.56904 0.0
H2214 H 0.42464 0.00229 0.5696 0.0
C2215 C 0.58811 0.95314 0.56612 0.0
C2216 C 0.51846 0.98011 0.5594 0.0
H2217 H 0.47423 0.03074 0.56551 0.0
C2218 C 0.4991 0.96446 0.55543 0.0
C2219 C 0.50947 0.00431 0.56308 0.0
C2220 C 0.52957 0.02253 0.5672 0.0
C2221 C 0.47086 0.97226 0.55508 0.0
C2222 C 0.46191 0.99653 0.55873 0.0
C2223 C 0.4812 0.01206 0.56275 0.0
C2224 C 0.43279 0.00676 0.55827 0.0
C2225 C 0.45076 0.95432 0.55089 0.0
C2226 C 0.42187 0.01585 0.55171 0.0
C2227 C 0.39511 0.02745 0.55137 0.0
C2228 C 0.37884 0.03024 0.55759 0.0
C2229 C 0.38964 0.02055 0.56414 0.0
C2230 C 0.41645 0.00903 0.56448 0.0
H2231 H 0.45923 0.93299 0.54997 0.0
H2232 H 0.43038 0.95252 0.5537 0.0
H2233 H 0.44694 0.9641 0.54559 0.0
H2234 H 0.43433 0.01465 0.54688 0.0
H2235 H 0.38728 0.03458 0.54625 0.0
H2236 H 0.00791 0.11784 0.79953 0.0
H2237 H 0.98863 0.07041 0.79892 0.0
H2238 H 0.04384 0.04456 0.81593 0.0
H2239 H 0.06299 0.09181 0.8166 0.0
H2240 H 0.01573 0.02109 0.79598 0.0
H2241 H 0.96866 0.01709 0.82306 0.0
H2242 H 0.98018 0.04933 0.819 0.0
H2243 H 0.00502 0.02628 0.82319 0.0
C2244 C 0.01584 0.10203 0.80315 0.0
C2245 C 0.03676 0.10857 0.80816 0.0
C2246 C 0.00479 0.07501 0.80281 0.0
C2247 C 0.01447 0.05413 0.80747 0.0
C2248 C 0.03554 0.06056 0.81242 0.0
H2249 H 0.9896 0.87678 0.8129 0.0
H2250 H 0.00707 0.92486 0.81283 0.0
C2251 C 0.04646 0.08756 0.8128 0.0
C2252 C 0.0033 0.02534 0.807 0.0
H2253 H 0.97261 0.97367 0.81686 0.0
C2254 C 0.00607 0.01078 0.80052 0.0
C2255 C 0.99067 0.012 0.81294 0.0
C2256 C 0.98568 0.02706 0.81992 0.0
C2257 C 0.99722 0.98293 0.79988 0.0
C2258 C 0.98518 0.96948 0.80586 0.0
C2259 C 0.9821 0.98409 0.81231 0.0
C2260 C 0.97548 0.94021 0.80554 0.0
C2261 C 0.00132 0.96783 0.79287 0.0
C2262 C 0.95198 0.93308 0.80146 0.0
C2263 C 0.94176 0.90573 0.80154 0.0
C2264 C 0.95489 0.88505 0.80572 0.0
C2265 C 0.97879 0.89226 0.8097 0.0
C2266 C 0.98889 0.91965 0.80964 0.0
H2267 H 0.01551 0.97941 0.78921 0.0
H2268 H 0.01002 0.94661 0.7938 0.0
H2269 H 0.98079 0.96539 0.79018 0.0
H2270 H 0.94112 0.94884 0.79835 0.0
H2271 H 0.92302 0.90105 0.79852 0.0
H2272 H 0.60223 0.95976 0.17633 0.0
H2273 H 0.55526 0.97963 0.17712 0.0
H2274 H 0.56393 0.98686 0.20001 0.0
H2275 H 0.61093 0.96663 0.19927 0.0
H2276 H 0.51423 0.96395 0.19628 0.0
H2277 H 0.53253 0.05996 0.18038 0.0
H2278 H 0.54205 0.0288 0.17563 0.0
H2279 H 0.56076 0.03835 0.18362 0.0
C2280 C 0.59431 0.966 0.18152 0.0
C2281 C 0.61032 0.96183 0.18774 0.0
C2282 C 0.56747 0.97738 0.18196 0.0
C2283 C 0.55628 0.98518 0.18861 0.0
C2284 C 0.57223 0.98109 0.19482 0.0
H2285 H 0.40499 0.08472 0.19254 0.0
H2286 H 0.45269 0.06692 0.19326 0.0
C2287 C 0.59902 0.9695 0.1944 0.0
C2288 C 0.52751 0.99657 0.18909 0.0
H2289 H 0.48487 0.04789 0.18261 0.0
C2290 C 0.50784 0.98244 0.19334 0.0
C2291 C 0.51931 0.02091 0.18533 0.0
C2292 C 0.53984 0.03806 0.18104 0.0
C2293 C 0.48 0.9916 0.19379 0.0
C2294 C 0.47149 0.01513 0.18975 0.0
C2295 C 0.49133 0.02965 0.18564 0.0
C2296 C 0.44216 0.0252 0.1897 0.0
C2297 C 0.46012 0.97617 0.19866 0.0
C2298 C 0.42033 0.00765 0.18746 0.0
C2299 C 0.39288 0.01763 0.18715 0.0
C2300 C 0.38677 0.0455 0.18899 0.0
C2301 C 0.40876 0.063 0.19122 0.0
C2302 C 0.43613 0.05294 0.19158 0.0
H2303 H 0.47149 0.96446 0.20289 0.0
H2304 H 0.44518 0.99075 0.20126 0.0
H2305 H 0.44799 0.96083 0.19547 0.0
H2306 H 0.42457 0.98633 0.18584 0.0
H2307 H 0.37647 0.00352 0.18546 0.0
H2308 H -0.00057 0.87036 0.43771 0.0
H2309 H 0.01982 0.91739 0.43772 0.0
H2310 H 0.93715 0.95338 0.43798 0.0
H2311 H 0.91663 0.90662 0.4378 0.0
H2312 H 0.97334 0.97657 0.42761 0.0
H2313 H 0.02202 0.97334 0.4546 0.0
H2314 H 0.03082 0.9447 0.4488 0.0
H2315 H 0.99542 0.94885 0.45182 0.0
C2316 C 0.98562 0.88831 0.43776 0.0
C2317 C 0.95642 0.88477 0.4378 0.0
C2318 C 0.99729 0.91512 0.43783 0.0
C2319 C 0.97996 0.9388 0.43794 0.0
C2320 C 0.95086 0.93534 0.43795 0.0
H2321 H 0.02137 0.11186 0.44644 0.0
H2322 H 0.00247 0.0643 0.44657 0.0
C2323 C 0.93919 0.9086 0.4379 0.0
C2324 C 0.99202 0.96729 0.43782 0.0
H2325 H 0.03178 0.01304 0.44745 0.0
C2326 C 0.98614 0.98458 0.43194 0.0
C2327 C 0.00842 0.97769 0.44352 0.0
C2328 C 0.01443 0.96033 0.45008 0.0
C2329 C 0.99642 0.01201 0.43158 0.0
C2330 C 0.01329 0.02224 0.43721 0.0
C2331 C 0.01899 0.00503 0.44312 0.0
C2332 C 0.02489 0.05092 0.43712 0.0
C2333 C 0.98869 0.02999 0.42525 0.0
C2334 C 0.04395 0.059 0.4318 0.0
C2335 C 0.05483 0.08611 0.43172 0.0
C2336 C 0.04696 0.10558 0.43699 0.0
C2337 C 0.02802 0.0973 0.44235 0.0
C2338 C 0.01715 0.07018 0.44241 0.0
H2339 H 0.97038 0.02149 0.42231 0.0
H2340 H 0.98385 0.05169 0.42696 0.0
H2341 H 0.00662 0.03083 0.42148 0.0
H2342 H 0.05062 0.04426 0.42775 0.0
H2343 H 0.06979 0.09164 0.42761 0.0
H2344 H 0.11343 0.45875 0.69788 0.0
H2345 H 0.06541 0.47646 0.69827 0.0
H2346 H 0.05694 0.46144 0.67562 0.0
H2347 H 0.105 0.44405 0.67518 0.0
H2348 H 0.03696 0.51208 0.67934 0.0
H2349 H 0.99395 0.43121 0.69753 0.0
H2350 H 0.0235 0.44931 0.7012 0.0
H2351 H 0.02782 0.42795 0.69336 0.0
C2352 C 0.10125 0.45909 0.693 0.0
C2353 C 0.11294 0.44998 0.6865 0.0
C2354 C 0.07379 0.46909 0.69323 0.0
C2355 C 0.05742 0.46977 0.687 0.0
C2356 C 0.06917 0.461 0.6805 0.0
H2357 H 0.87717 0.49408 0.68491 0.0
H2358 H 0.92463 0.47492 0.68465 0.0
C2359 C 0.09667 0.4512 0.68025 0.0
C2360 C 0.02827 0.4803 0.6872 0.0
H2361 H 0.96464 0.47036 0.69511 0.0
C2362 C 0.02112 0.50289 0.68277 0.0
C2363 C 0.00752 0.46799 0.69159 0.0
C2364 C 0.01345 0.4426 0.69614 0.0
C2365 C 0.99391 0.51384 0.68269 0.0
C2366 C 0.97346 0.5023 0.68731 0.0
C2367 C 0.98045 0.47938 0.69164 0.0
C2368 C 0.94468 0.51371 0.68767 0.0
C2369 C 0.98723 0.53734 0.67758 0.0
C2370 C 0.9402 0.54168 0.6896 0.0
C2371 C 0.9132 0.55277 0.68966 0.0
C2372 C 0.89003 0.53599 0.68789 0.0
C2373 C 0.89455 0.5077 0.68618 0.0
C2374 C 0.92163 0.49666 0.68609 0.0
H2375 H 0.0024 0.53819 0.67308 0.0
H2376 H 0.96585 0.53509 0.67534 0.0
H2377 H 0.98837 0.55755 0.68047 0.0
H2378 H 0.95764 0.55505 0.69099 0.0
H2379 H 0.91062 0.57471 0.69092 0.0
H2380 H 0.40893 0.40841 0.93992 0.0
H2381 H 0.42818 0.45576 0.93985 0.0
H2382 H 0.51145 0.42208 0.93786 0.0
H2383 H 0.49242 0.37457 0.93799 0.0
H2384 H 0.46811 0.48098 0.94901 0.0
H2385 H 0.5048 0.47643 0.92084 0.0
H2386 H 0.48049 0.45139 0.92452 0.0
H2387 H 0.51721 0.44847 0.92642 0.0
C2388 C 0.43138 0.41104 0.93956 0.0
C2389 C 0.44916 0.38772 0.93893 0.0
C2390 C 0.4423 0.43811 0.93948 0.0
C2391 C 0.47116 0.44238 0.93874 0.0
C2392 C 0.48905 0.4192 0.93829 0.0
H2393 H 0.57913 0.58625 0.93578 0.0
H2394 H 0.55856 0.53961 0.93655 0.0
C2395 C 0.47815 0.3921 0.93836 0.0
C2396 C 0.48249 0.47112 0.93839 0.0
H2397 H 0.5182 0.51617 0.92757 0.0
C2398 C 0.47897 0.48877 0.94432 0.0
C2399 C 0.49653 0.48116 0.93225 0.0
C2400 C 0.49982 0.46351 0.92561 0.0
C2401 C 0.48976 0.51606 0.94433 0.0
C2402 C 0.50399 0.52601 0.93821 0.0
C2403 C 0.50731 0.50842 0.93227 0.0
C2404 C 0.51614 0.55444 0.93788 0.0
C2405 C 0.48648 0.53376 0.95096 0.0
C2406 C 0.49904 0.57823 0.93832 0.0
C2407 C 0.51073 0.60497 0.93785 0.0
C2408 C 0.53969 0.60832 0.93687 0.0
C2409 C 0.5567 0.58439 0.93642 0.0
C2410 C 0.54502 0.55773 0.9369 0.0
H2411 H 0.48111 0.52092 0.95573 0.0
H2412 H 0.50595 0.54558 0.9521 0.0
H2413 H 0.46937 0.54906 0.95011 0.0
H2414 H 0.47661 0.57611 0.93893 0.0
H2415 H 0.49705 0.62299 0.93813 0.0
H2416 H 0.60032 0.5528 0.04549 0.0
H2417 H 0.55265 0.53432 0.04531 0.0
H2418 H 0.56074 0.50925 0.06736 0.0
H2419 H 0.60872 0.52698 0.06757 0.0
H2420 H 0.5341 0.47688 0.04908 0.0
H2421 H 0.48902 0.56042 0.06627 0.0
H2422 H 0.52182 0.56453 0.06159 0.0
H2423 H 0.52014 0.54361 0.06956 0.0
C2424 C 0.59217 0.54298 0.05028 0.0
C2425 C 0.60836 0.54144 0.05656 0.0
C2426 C 0.56486 0.53263 0.05017 0.0
C2427 C 0.55317 0.5208 0.05634 0.0
C2428 C 0.56932 0.51875 0.06258 0.0
H2429 H 0.39155 0.45351 0.06772 0.0
H2430 H 0.43904 0.47245 0.06752 0.0
C2431 C 0.59669 0.52896 0.06269 0.0
C2432 C 0.52404 0.51053 0.05626 0.0
H2433 H 0.45915 0.52305 0.06313 0.0
C2434 C 0.51763 0.48697 0.05212 0.0
C2435 C 0.50278 0.5238 0.06026 0.0
C2436 C 0.50858 0.54963 0.06464 0.0
C2437 C 0.49046 0.47588 0.05199 0.0
C2438 C 0.46908 0.48923 0.05596 0.0
C2439 C 0.47555 0.5129 0.06008 0.0
C2440 C 0.43998 0.47863 0.05605 0.0
C2441 C 0.48514 0.44954 0.04776 0.0
C2442 C 0.42454 0.47641 0.04969 0.0
C2443 C 0.39743 0.46552 0.04979 0.0
C2444 C 0.38515 0.45705 0.05627 0.0
C2445 C 0.40036 0.46011 0.06266 0.0
C2446 C 0.42752 0.4708 0.06254 0.0
H2447 H 0.50481 0.43792 0.04668 0.0
H2448 H 0.47049 0.43545 0.05064 0.0
H2449 H 0.47564 0.45513 0.04254 0.0
H2450 H 0.43348 0.48303 0.04464 0.0
H2451 H 0.38604 0.46377 0.0448 0.0
H2452 H 0.48562 0.12014 0.29972 0.0
H2453 H 0.50391 0.07234 0.29944 0.0
H2454 H 0.45445 0.05158 0.31799 0.0
H2455 H 0.43538 0.09897 0.31818 0.0
H2456 H 0.53338 0.04271 0.31005 0.0
H2457 H 0.43256 0.99115 0.30347 0.0
H2458 H 0.43781 0.02836 0.30257 0.0
H2459 H 0.43144 0.01326 0.31123 0.0
C2460 C 0.47848 0.10534 0.30371 0.0
C2461 C 0.45893 0.11333 0.30895 0.0
C2462 C 0.48906 0.07811 0.30357 0.0
C2463 C 0.48017 0.05835 0.30863 0.0
C2464 C 0.46118 0.0664 0.31396 0.0
H2465 H 0.51943 0.88389 0.31652 0.0
H2466 H 0.50113 0.9317 0.31696 0.0
C2467 C 0.45059 0.0936 0.31411 0.0
C2468 C 0.49091 0.02936 0.30835 0.0
H2469 H 0.47066 0.96138 0.30629 0.0
C2470 C 0.51972 0.02491 0.3092 0.0
C2471 C 0.47297 0.00624 0.30725 0.0
C2472 C 0.442 0.0099 0.30601 0.0
C2473 C 0.53105 0.99786 0.30909 0.0
C2474 C 0.51311 0.97476 0.30798 0.0
C2475 C 0.48431 0.97918 0.30715 0.0
C2476 C 0.5239 0.94581 0.30763 0.0
C2477 C 0.56204 0.99416 0.31029 0.0
C2478 C 0.54235 0.93786 0.30217 0.0
C2479 C 0.55288 0.91065 0.30191 0.0
C2480 C 0.54505 0.89085 0.3071 0.0
C2481 C 0.52612 0.89876 0.3125 0.0
C2482 C 0.51556 0.92599 0.31274 0.0
H2483 H 0.57159 0.01296 0.31278 0.0
H2484 H 0.56623 0.97578 0.31376 0.0
H2485 H 0.57247 0.99059 0.30507 0.0
H2486 H 0.54868 0.95276 0.29811 0.0
H2487 H 0.56763 0.90531 0.29773 0.0
H2488 H 0.89783 0.93514 0.56635 0.0
H2489 H 0.94478 0.95535 0.56639 0.0
H2490 H 0.91683 0.02082 0.55218 0.0
H2491 H 0.87007 -0.00014 0.55191 0.0
H2492 H 0.96446 0.00113 0.54775 0.0
H2493 H 0.97439 0.02155 0.57674 0.0
H2494 H 0.96707 0.98544 0.57503 0.0
H2495 H 0.94163 0.01171 0.57269 0.0
C2496 C 0.90167 0.95406 0.56332 0.0
C2497 C 0.88038 0.96611 0.55917 0.0
C2498 C 0.92846 0.96569 0.56337 0.0
C2499 C 0.93425 0.98998 0.55942 0.0
C2500 C 0.91285 0.00216 0.55531 0.0
H2501 H 0.08782 0.08488 0.56503 0.0
H2502 H 0.03944 0.06823 0.56503 0.0
C2503 C 0.88618 0.99023 0.55516 0.0
C2504 C 0.96292 0.00187 0.55927 0.0
H2505 H 0.01681 0.0229 0.56995 0.0
C2506 C 0.97581 0.00615 0.55261 0.0
C2507 C 0.97762 0.00883 0.5656 0.0
C2508 C 0.96433 0.00693 0.5729 0.0
C2509 C 0.0031 0.01672 0.55209 0.0
C2510 C 0.01837 0.02216 0.55843 0.0
C2511 C 0.0053 0.01835 0.56509 0.0
C2512 C 0.04771 0.03231 0.5583 0.0
C2513 C 0.01496 0.0225 0.54475 0.0
C2514 C 0.06855 0.01756 0.55457 0.0
C2515 C 0.09609 0.02736 0.55447 0.0
C2516 C 0.10338 0.05162 0.55825 0.0
C2517 C 0.0827 0.06602 0.56211 0.0
C2518 C 0.0551 0.05653 0.5621 0.0
H2519 H 0.9981 0.02593 0.54076 0.0
H2520 H 0.02878 0.04114 0.54478 0.0
H2521 H 0.02736 0.00417 0.54297 0.0
H2522 H 0.0636 0.99835 0.55179 0.0
H2523 H 0.11179 0.01576 0.55153 0.0
H2524 H 0.94582 0.60318 0.82239 0.0
H2525 H 0.96568 0.55604 0.82252 0.0
H2526 H 0.98675 0.56377 0.80019 0.0
H2527 H 0.96637 0.61063 0.79994 0.0
H2528 H 0.94739 0.51064 0.81319 0.0
H2529 H 0.06014 0.53639 0.81016 0.0
H2530 H 0.03467 0.56152 0.81327 0.0
H2531 H 0.03688 0.55313 0.80392 0.0
C2532 C 0.95464 0.59486 0.8175 0.0
C2533 C 0.95444 0.61068 0.81115 0.0
C2534 C 0.9661 0.56801 0.8176 0.0
C2535 C 0.97785 0.55662 0.81138 0.0
C2536 C 0.97817 0.57244 0.80507 0.0
H2537 H 0.05256 0.39914 0.79952 0.0
H2538 H 0.03379 0.44656 0.8 0.0
C2539 C 0.96659 0.59925 0.80495 0.0
C2540 C 0.98847 0.52761 0.8114 0.0
H2541 H 0.04759 0.48862 0.80924 0.0
C2542 C 0.96931 0.50575 0.81238 0.0
C2543 C 0.01703 0.52147 0.81029 0.0
C2544 C 0.03849 0.54432 0.8094 0.0
C2545 C 0.97788 0.47772 0.81211 0.0
C2546 C 0.00649 0.47151 0.811 0.0
C2547 C 0.02567 0.49345 0.81008 0.0
C2548 C 0.01696 0.4424 0.81069 0.0
C2549 C 0.95609 0.45505 0.8128 0.0
C2550 C 0.01377 0.42435 0.81656 0.0
C2551 C 0.02411 0.39704 0.81626 0.0
C2552 C 0.03812 0.38739 0.81012 0.0
C2553 C 0.0414 0.40565 0.80427 0.0
C2554 C 0.03092 0.43287 0.80456 0.0
H2555 H 0.93475 0.46305 0.81164 0.0
H2556 H 0.96059 0.43739 0.80912 0.0
H2557 H 0.95618 0.44691 0.81836 0.0
H2558 H 0.00354 0.43145 0.82139 0.0
H2559 H 0.02107 0.3835 0.82084 0.0
loop_
_geom_bond_atom_site_label_1
_geom_bond_atom_site_label_2
_geom_bond_distance
_geom_bond_site_symmetry_2
_ccdc_geom_bond_type
Li0 N17 1.990 . S
Li0 O60 1.956 . S
Li0 O61 1.970 . S
Li0 O62 1.961 . S
Li1 N25 1.990 . S
Li1 O60 1.970 . S
Li1 O61 1.956 . S
Li1 O63 1.961 . S
Li2 N47 1.990 . S
Li2 O60 1.961 . S
Li2 O62 1.956 . S
Li2 O63 1.970 . S
Li3 N53 1.990 . S
Li3 O61 1.961 . S
Li3 O62 1.970 . S
Li3 O63 1.956 . S
C4 C6 1.348 . S
C4 C7 1.356 . S
C4 O60 1.325 . S
N5 C8 1.314 . S
N5 C9 1.279 . S
C6 C4 1.348 . S
C6 C8 1.353 . S
C6 H64 0.929 . S
C7 C4 1.356 . S
C7 C9 1.358 . S
C7 H65 0.930 . S
C8 N5 1.314 . S
C8 C6 1.353 . S
C8 H66 0.930 . S
C9 N5 1.279 . S
C9 C7 1.358 . S
C9 H67 0.930 . S
C10 C13 1.348 . S
C10 C14 1.356 . S
C10 O61 1.325 . S
C11 N12 1.279 . S
C11 C14 1.358 . S
C11 H68 0.930 . S
N12 C11 1.279 . S
N12 C15 1.314 . S
C13 C10 1.348 . S
C13 C15 1.353 . S
C13 H69 0.929 . S
C14 C10 1.356 . S
C14 C11 1.358 . S
C14 H70 0.930 . S
C15 N12 1.314 . S
C15 C13 1.353 . S
C15 H71 0.930 . S
C16 N17 1.314 . S
C16 C21 1.353 . S
C16 H22 0.930 . S
N17 Li0 1.990 . S
N17 C16 1.314 . S
N17 C19 1.279 . S
C18 C19 1.358 . S
C18 C20 1.356 . S
C18 H72 0.930 . S
C19 N17 1.279 . S
C19 C18 1.358 . S
C19 H23 0.930 . S
C20 C18 1.356 . S
C20 C21 1.348 . S
C21 C16 1.353 . S
C21 C20 1.348 . S
C21 H73 0.929 . S
H22 C16 0.930 . S
H23 C19 0.930 . S
C24 N25 1.314 . S
C24 C26 1.353 . S
C24 H30 0.930 . S
N25 Li1 1.990 . S
N25 C24 1.314 . S
N25 C28 1.279 . S
C26 C24 1.353 . S
C26 C29 1.348 . S
C26 H74 0.929 . S
C27 C28 1.358 . S
C27 C29 1.356 . S
C27 H75 0.930 . S
C28 N25 1.279 . S
C28 C27 1.358 . S
C28 H31 0.930 . S
C29 C26 1.348 . S
C29 C27 1.356 . S
H30 C24 0.930 . S
H31 C28 0.930 . S
C32 C34 1.348 . S
C32 C35 1.356 . S
C32 O62 1.325 . S
N33 C36 1.314 . S
N33 C37 1.279 . S
C34 C32 1.348 . S
C34 C36 1.353 . S
C34 H76 0.929 . S
C35 C32 1.356 . S
C35 C37 1.358 . S
C35 H77 0.930 . S
C36 N33 1.314 . S
C36 C34 1.353 . S
C36 H78 0.930 . S
C37 N33 1.279 . S
C37 C35 1.358 . S
C37 H79 0.930 . S
C38 C39 1.348 . S
C38 C40 1.356 . S
C38 O63 1.325 . S
C39 C38 1.348 . S
C39 C41 1.353 . S
C39 H80 0.929 . S
C40 C38 1.356 . S
C40 C42 1.358 . S
C40 H81 0.930 . S
C41 C39 1.353 . S
C41 N43 1.314 . S
C41 H82 0.930 . S
C42 C40 1.358 . S
C42 N43 1.279 . S
C42 H83 0.930 . S
N43 C41 1.314 . S
N43 C42 1.279 . S
C44 C46 1.353 . S
C44 N47 1.314 . S
C44 H50 0.930 . S
C45 N47 1.279 . S
C45 C48 1.358 . S
C45 H51 0.930 . S
C46 C44 1.353 . S
C46 C49 1.348 . S
C46 H84 0.929 . S
N47 Li2 1.990 . S
N47 C44 1.314 . S
N47 C45 1.279 . S
C48 C45 1.358 . S
C48 C49 1.356 . S
C48 H85 0.930 . S
C49 C46 1.348 . S
C49 C48 1.356 . S
H50 C44 0.930 . S
H51 C45 0.930 . S
C52 N53 1.314 . S
C52 C54 1.353 . S
C52 H58 0.930 . S
N53 Li3 1.990 . S
N53 C52 1.314 . S
N53 C56 1.279 . S
C54 C52 1.353 . S
C54 C57 1.348 . S
C54 H86 0.929 . S
C55 C56 1.358 . S
C55 C57 1.356 . S
C55 H87 0.930 . S
C56 N53 1.279 . S
C56 C55 1.358 . S
C56 H59 0.930 . S
C57 C54 1.348 . S
C57 C55 1.356 . S
H58 C52 0.930 . S
H59 C56 0.930 . S
O60 Li0 1.956 . S
O60 Li1 1.970 . S
O60 Li2 1.961 . S
O60 C4 1.325 . S
O61 Li0 1.970 . S
O61 Li1 1.956 . S
O61 Li3 1.961 . S
O61 C10 1.325 . S
O62 Li0 1.961 . S
O62 Li2 1.956 . S
O62 Li3 1.970 . S
O62 C32 1.325 . S
O63 Li1 1.961 . S
O63 Li2 1.970 . S
O63 Li3 1.956 . S
O63 C38 1.325 . S
H64 C6 0.929 . S
H65 C7 0.930 . S
H66 C8 0.930 . S
H67 C9 0.930 . S
H68 C11 0.930 . S
H69 C13 0.929 . S
H70 C14 0.930 . S
H71 C15 0.930 . S
H72 C18 0.930 . S
H73 C21 0.929 . S
H74 C26 0.929 . S
H75 C27 0.930 . S
H76 C34 0.929 . S
H77 C35 0.930 . S
H78 C36 0.930 . S
H79 C37 0.930 . S
H80 C39 0.929 . S
H81 C40 0.930 . S
H82 C41 0.930 . S
H83 C42 0.930 . S
H84 C46 0.929 . S
H85 C48 0.930 . S
H86 C54 0.929 . S
H87 C55 0.930 . S
Li88 N105 1.990 . S
Li88 O148 1.956 . S
Li88 O149 1.970 . S
Li88 O150 1.961 . S
Li89 N113 1.990 . S
Li89 O148 1.970 . S
Li89 O149 1.956 . S
Li89 O151 1.961 . S
Li90 N135 1.990 . S
Li90 O148 1.961 . S
Li90 O150 1.956 . S
Li90 O151 1.970 . S
Li91 N141 1.990 . S
Li91 O149 1.961 . S
Li91 O150 1.970 . S
Li91 O151 1.956 . S
C92 C94 1.348 . S
C92 C95 1.356 . S
C92 O148 1.325 . S
N93 C96 1.314 . S
N93 C97 1.279 . S
C94 C92 1.348 . S
C94 C96 1.353 . S
C94 H152 0.929 . S
C95 C92 1.356 . S
C95 C97 1.358 . S
C95 H153 0.930 . S
C96 N93 1.314 . S
C96 C94 1.353 . S
C96 H154 0.930 . S
C97 N93 1.279 . S
C97 C95 1.358 . S
C97 H155 0.930 . S
C98 C101 1.348 . S
C98 C102 1.356 . S
C98 O149 1.325 . S
C99 N100 1.279 . S
C99 C102 1.358 . S
C99 H156 0.930 . S
N100 C99 1.279 . S
N100 C103 1.314 . S
C101 C98 1.348 . S
C101 C103 1.353 . S
C101 H157 0.929 . S
C102 C98 1.356 . S
C102 C99 1.358 . S
C102 H158 0.930 . S
C103 N100 1.314 . S
C103 C101 1.353 . S
C103 H159 0.930 . S
C104 N105 1.314 . S
C104 C109 1.353 . S
C104 H110 0.930 . S
N105 Li88 1.990 . S
N105 C104 1.314 . S
N105 C107 1.279 . S
C106 C107 1.358 . S
C106 C108 1.356 . S
C106 H160 0.930 . S
C107 N105 1.279 . S
C107 C106 1.358 . S
C107 H111 0.930 . S
C108 C106 1.356 . S
C108 C109 1.348 . S
C109 C104 1.353 . S
C109 C108 1.348 . S
C109 H161 0.929 . S
H110 C104 0.930 . S
H111 C107 0.930 . S
C112 N113 1.314 . S
C112 C114 1.353 . S
C112 H118 0.930 . S
N113 Li89 1.990 . S
N113 C112 1.314 . S
N113 C116 1.279 . S
C114 C112 1.353 . S
C114 C117 1.348 . S
C114 H162 0.929 . S
C115 C116 1.358 . S
C115 C117 1.356 . S
C115 H163 0.930 . S
C116 N113 1.279 . S
C116 C115 1.358 . S
C116 H119 0.930 . S
C117 C114 1.348 . S
C117 C115 1.356 . S
H118 C112 0.930 . S
H119 C116 0.930 . S
C120 C122 1.348 . S
C120 C123 1.356 . S
C120 O150 1.325 . S
N121 C124 1.314 . S
N121 C125 1.279 . S
C122 C120 1.348 . S
C122 C124 1.353 . S
C122 H164 0.929 . S
C123 C120 1.356 . S
C123 C125 1.358 . S
C123 H165 0.930 . S
C124 N121 1.314 . S
C124 C122 1.353 . S
C124 H166 0.930 . S
C125 N121 1.279 . S
C125 C123 1.358 . S
C125 H167 0.930 . S
C126 C127 1.348 . S
C126 C128 1.356 . S
C126 O151 1.325 . S
C127 C126 1.348 . S
C127 C129 1.353 . S
C127 H168 0.929 . S
C128 C126 1.356 . S
C128 C130 1.358 . S
C128 H169 0.930 . S
C129 C127 1.353 . S
C129 N131 1.314 . S
C129 H170 0.930 . S
C130 C128 1.358 . S
C130 N131 1.279 . S
C130 H171 0.930 . S
N131 C129 1.314 . S
N131 C130 1.279 . S
C132 C134 1.353 . S
C132 N135 1.314 . S
C132 H138 0.930 . S
C133 N135 1.279 . S
C133 C136 1.358 . S
C133 H139 0.930 . S
C134 C132 1.353 . S
C134 C137 1.348 . S
C134 H172 0.929 . S
N135 Li90 1.990 . S
N135 C132 1.314 . S
N135 C133 1.279 . S
C136 C133 1.358 . S
C136 C137 1.356 . S
C136 H173 0.930 . S
C137 C134 1.348 . S
C137 C136 1.356 . S
H138 C132 0.930 . S
H139 C133 0.930 . S
C140 N141 1.314 . S
C140 C142 1.353 . S
C140 H146 0.930 . S
N141 Li91 1.990 . S
N141 C140 1.314 . S
N141 C144 1.279 . S
C142 C140 1.353 . S
C142 C145 1.348 . S
C142 H174 0.929 . S
C143 C144 1.358 . S
C143 C145 1.356 . S
C143 H175 0.930 . S
C144 N141 1.279 . S
C144 C143 1.358 . S
C144 H147 0.930 . S
C145 C142 1.348 . S
C145 C143 1.356 . S
H146 C140 0.930 . S
H147 C144 0.930 . S
O148 Li88 1.956 . S
O148 Li89 1.970 . S
O148 Li90 1.961 . S
O148 C92 1.325 . S
O149 Li88 1.970 . S
O149 Li89 1.956 . S
O149 Li91 1.961 . S
O149 C98 1.325 . S
O150 Li88 1.961 . S
O150 Li90 1.956 . S
O150 Li91 1.970 . S
O150 C120 1.325 . S
O151 Li89 1.961 . S
O151 Li90 1.970 . S
O151 Li91 1.956 . S
O151 C126 1.325 . S
H152 C94 0.929 . S
H153 C95 0.930 . S
H154 C96 0.930 . S
H155 C97 0.930 . S
H156 C99 0.930 . S
H157 C101 0.929 . S
H158 C102 0.930 . S
H159 C103 0.930 . S
H160 C106 0.930 . S
H161 C109 0.929 . S
H162 C114 0.929 . S
H163 C115 0.930 . S
H164 C122 0.929 . S
H165 C123 0.930 . S
H166 C124 0.930 . S
H167 C125 0.930 . S
H168 C127 0.929 . S
H169 C128 0.930 . S
H170 C129 0.930 . S
H171 C130 0.930 . S
H172 C134 0.929 . S
H173 C136 0.930 . S
H174 C142 0.929 . S
H175 C143 0.930 . S
Li176 N193 1.990 . S
Li176 O236 1.956 . S
Li176 O237 1.970 . S
Li176 O238 1.961 . S
Li177 N201 1.990 . S
Li177 O236 1.970 . S
Li177 O237 1.956 . S
Li177 O239 1.961 . S
Li178 N223 1.990 . S
Li178 O236 1.961 . S
Li178 O238 1.956 . S
Li178 O239 1.970 . S
Li179 N229 1.990 . S
Li179 O237 1.961 . S
Li179 O238 1.970 . S
Li179 O239 1.956 . S
C180 C182 1.348 . S
C180 C183 1.356 . S
C180 O236 1.325 . S
N181 C184 1.314 . S
N181 C185 1.279 . S
C182 C180 1.348 . S
C182 C184 1.353 . S
C182 H240 0.929 . S
C183 C180 1.356 . S
C183 C185 1.358 . S
C183 H241 0.930 . S
C184 N181 1.314 . S
C184 C182 1.353 . S
C184 H242 0.930 . S
C185 N181 1.279 . S
C185 C183 1.358 . S
C185 H243 0.930 . S
C186 C189 1.348 . S
C186 C190 1.356 . S
C186 O237 1.325 . S
C187 N188 1.279 . S
C187 C190 1.358 . S
C187 H244 0.930 . S
N188 C187 1.279 . S
N188 C191 1.314 . S
C189 C186 1.348 . S
C189 C191 1.353 . S
C189 H245 0.929 . S
C190 C186 1.356 . S
C190 C187 1.358 . S
C190 H246 0.930 . S
C191 N188 1.314 . S
C191 C189 1.353 . S
C191 H247 0.930 . S
C192 N193 1.314 . S
C192 C197 1.353 . S
C192 H198 0.930 . S
N193 Li176 1.990 . S
N193 C192 1.314 . S
N193 C195 1.279 . S
C194 C195 1.358 . S
C194 C196 1.356 . S
C194 H248 0.930 . S
C195 N193 1.279 . S
C195 C194 1.358 . S
C195 H199 0.930 . S
C196 C194 1.356 . S
C196 C197 1.348 . S
C197 C192 1.353 . S
C197 C196 1.348 . S
C197 H249 0.929 . S
H198 C192 0.930 . S
H199 C195 0.930 . S
C200 N201 1.314 . S
C200 C202 1.353 . S
C200 H206 0.930 . S
N201 Li177 1.990 . S
N201 C200 1.314 . S
N201 C204 1.279 . S
C202 C200 1.353 . S
C202 C205 1.348 . S
C202 H250 0.929 . S
C203 C204 1.358 . S
C203 C205 1.356 . S
C203 H251 0.930 . S
C204 N201 1.279 . S
C204 C203 1.358 . S
C204 H207 0.930 . S
C205 C202 1.348 . S
C205 C203 1.356 . S
H206 C200 0.930 . S
H207 C204 0.930 . S
C208 C210 1.348 . S
C208 C211 1.356 . S
C208 O238 1.325 . S
N209 C212 1.314 . S
N209 C213 1.279 . S
C210 C208 1.348 . S
C210 C212 1.353 . S
C210 H252 0.929 . S
C211 C208 1.356 . S
C211 C213 1.358 . S
C211 H253 0.930 . S
C212 N209 1.314 . S
C212 C210 1.353 . S
C212 H254 0.930 . S
C213 N209 1.279 . S
C213 C211 1.358 . S
C213 H255 0.930 . S
C214 C215 1.348 . S
C214 C216 1.356 . S
C214 O239 1.325 . S
C215 C214 1.348 . S
C215 C217 1.353 . S
C215 H256 0.929 . S
C216 C214 1.356 . S
C216 C218 1.358 . S
C216 H257 0.930 . S
C217 C215 1.353 . S
C217 N219 1.314 . S
C217 H258 0.930 . S
C218 C216 1.358 . S
C218 N219 1.279 . S
C218 H259 0.930 . S
N219 C217 1.314 . S
N219 C218 1.279 . S
C220 C222 1.353 . S
C220 N223 1.314 . S
C220 H226 0.930 . S
C221 N223 1.279 . S
C221 C224 1.358 . S
C221 H227 0.930 . S
C222 C220 1.353 . S
C222 C225 1.348 . S
C222 H260 0.929 . S
N223 Li178 1.990 . S
N223 C220 1.314 . S
N223 C221 1.279 . S
C224 C221 1.358 . S
C224 C225 1.356 . S
C224 H261 0.930 . S
C225 C222 1.348 . S
C225 C224 1.356 . S
H226 C220 0.930 . S
H227 C221 0.930 . S
C228 N229 1.314 . S
C228 C230 1.353 . S
C228 H234 0.930 . S
N229 Li179 1.990 . S
N229 C228 1.314 . S
N229 C232 1.279 . S
C230 C228 1.353 . S
C230 C233 1.348 . S
C230 H262 0.929 . S
C231 C232 1.358 . S
C231 C233 1.356 . S
C231 H263 0.930 . S
C232 N229 1.279 . S
C232 C231 1.358 . S
C232 H235 0.930 . S
C233 C230 1.348 . S
C233 C231 1.356 . S
H234 C228 0.930 . S
H235 C232 0.930 . S
O236 Li176 1.956 . S
O236 Li177 1.970 . S
O236 Li178 1.961 . S
O236 C180 1.325 . S
O237 Li176 1.970 . S
O237 Li177 1.956 . S
O237 Li179 1.961 . S
O237 C186 1.325 . S
O238 Li176 1.961 . S
O238 Li178 1.956 . S
O238 Li179 1.970 . S
O238 C208 1.325 . S
O239 Li177 1.961 . S
O239 Li178 1.970 . S
O239 Li179 1.956 . S
O239 C214 1.325 . S
H240 C182 0.929 . S
H241 C183 0.930 . S
H242 C184 0.930 . S
H243 C185 0.930 . S
H244 C187 0.930 . S
H245 C189 0.929 . S
H246 C190 0.930 . S
H247 C191 0.930 . S
H248 C194 0.930 . S
H249 C197 0.929 . S
H250 C202 0.929 . S
H251 C203 0.930 . S
H252 C210 0.929 . S
H253 C211 0.930 . S
H254 C212 0.930 . S
H255 C213 0.930 . S
H256 C215 0.929 . S
H257 C216 0.930 . S
H258 C217 0.930 . S
H259 C218 0.930 . S
H260 C222 0.929 . S
H261 C224 0.930 . S
H262 C230 0.929 . S
H263 C231 0.930 . S
Li264 N281 1.990 . S
Li264 O324 1.956 . S
Li264 O325 1.970 . S
Li264 O326 1.961 . S
Li265 N289 1.990 . S
Li265 O324 1.970 . S
Li265 O325 1.956 . S
Li265 O327 1.961 . S
Li266 N311 1.990 . S
Li266 O324 1.961 . S
Li266 O326 1.956 . S
Li266 O327 1.970 . S
Li267 N317 1.990 . S
Li267 O325 1.961 . S
Li267 O326 1.970 . S
Li267 O327 1.956 . S
C268 C270 1.348 . S
C268 C271 1.356 . S
C268 O324 1.325 . S
N269 C272 1.314 . S
N269 C273 1.279 . S
C270 C268 1.348 . S
C270 C272 1.353 . S
C270 H328 0.929 . S
C271 C268 1.356 . S
C271 C273 1.358 . S
C271 H329 0.930 . S
C272 N269 1.314 . S
C272 C270 1.353 . S
C272 H330 0.930 . S
C273 N269 1.279 . S
C273 C271 1.358 . S
C273 H331 0.930 . S
C274 C277 1.348 . S
C274 C278 1.356 . S
C274 O325 1.325 . S
C275 N276 1.279 . S
C275 C278 1.358 . S
C275 H332 0.930 . S
N276 C275 1.279 . S
N276 C279 1.314 . S
C277 C274 1.348 . S
C277 C279 1.353 . S
C277 H333 0.929 . S
C278 C274 1.356 . S
C278 C275 1.358 . S
C278 H334 0.930 . S
C279 N276 1.314 . S
C279 C277 1.353 . S
C279 H335 0.930 . S
C280 N281 1.314 . S
C280 C285 1.353 . S
C280 H286 0.930 . S
N281 Li264 1.990 . S
N281 C280 1.314 . S
N281 C283 1.279 . S
C282 C283 1.358 . S
C282 C284 1.356 . S
C282 H336 0.930 . S
C283 N281 1.279 . S
C283 C282 1.358 . S
C283 H287 0.930 . S
C284 C282 1.356 . S
C284 C285 1.348 . S
C285 C280 1.353 . S
C285 C284 1.348 . S
C285 H337 0.929 . S
H286 C280 0.930 . S
H287 C283 0.930 . S
C288 N289 1.314 . S
C288 C290 1.353 . S
C288 H294 0.930 . S
N289 Li265 1.990 . S
N289 C288 1.314 . S
N289 C292 1.279 . S
C290 C288 1.353 . S
C290 C293 1.348 . S
C290 H338 0.929 . S
C291 C292 1.358 . S
C291 C293 1.356 . S
C291 H339 0.930 . S
C292 N289 1.279 . S
C292 C291 1.358 . S
C292 H295 0.930 . S
C293 C290 1.348 . S
C293 C291 1.356 . S
H294 C288 0.930 . S
H295 C292 0.930 . S
C296 C298 1.348 . S
C296 C299 1.356 . S
C296 O326 1.325 . S
N297 C300 1.314 . S
N297 C301 1.279 . S
C298 C296 1.348 . S
C298 C300 1.353 . S
C298 H340 0.929 . S
C299 C296 1.356 . S
C299 C301 1.358 . S
C299 H341 0.930 . S
C300 N297 1.314 . S
C300 C298 1.353 . S
C300 H342 0.930 . S
C301 N297 1.279 . S
C301 C299 1.358 . S
C301 H343 0.930 . S
C302 C303 1.348 . S
C302 C304 1.356 . S
C302 O327 1.325 . S
C303 C302 1.348 . S
C303 C305 1.353 . S
C303 H344 0.929 . S
C304 C302 1.356 . S
C304 C306 1.358 . S
C304 H345 0.930 . S
C305 C303 1.353 . S
C305 N307 1.314 . S
C305 H346 0.930 . S
C306 C304 1.358 . S
C306 N307 1.279 . S
C306 H347 0.930 . S
N307 C305 1.314 . S
N307 C306 1.279 . S
C308 C310 1.353 . S
C308 N311 1.314 . S
C308 H314 0.930 . S
C309 N311 1.279 . S
C309 C312 1.358 . S
C309 H315 0.930 . S
C310 C308 1.353 . S
C310 C313 1.348 . S
C310 H348 0.929 . S
N311 Li266 1.990 . S
N311 C308 1.314 . S
N311 C309 1.279 . S
C312 C309 1.358 . S
C312 C313 1.356 . S
C312 H349 0.930 . S
C313 C310 1.348 . S
C313 C312 1.356 . S
H314 C308 0.930 . S
H315 C309 0.930 . S
C316 N317 1.314 . S
C316 C318 1.353 . S
C316 H322 0.930 . S
N317 Li267 1.990 . S
N317 C316 1.314 . S
N317 C320 1.279 . S
C318 C316 1.353 . S
C318 C321 1.348 . S
C318 H350 0.929 . S
C319 C320 1.358 . S
C319 C321 1.356 . S
C319 H351 0.930 . S
C320 N317 1.279 . S
C320 C319 1.358 . S
C320 H323 0.930 . S
C321 C318 1.348 . S
C321 C319 1.356 . S
H322 C316 0.930 . S
H323 C320 0.930 . S
O324 Li264 1.956 . S
O324 Li265 1.970 . S
O324 Li266 1.961 . S
O324 C268 1.325 . S
O325 Li264 1.970 . S
O325 Li265 1.956 . S
O325 Li267 1.961 . S
O325 C274 1.325 . S
O326 Li264 1.961 . S
O326 Li266 1.956 . S
O326 Li267 1.970 . S
O326 C296 1.325 . S
O327 Li265 1.961 . S
O327 Li266 1.970 . S
O327 Li267 1.956 . S
O327 C302 1.325 . S
H328 C270 0.929 . S
H329 C271 0.930 . S
H330 C272 0.930 . S
H331 C273 0.930 . S
H332 C275 0.930 . S
H333 C277 0.929 . S
H334 C278 0.930 . S
H335 C279 0.930 . S
H336 C282 0.930 . S
H337 C285 0.929 . S
H338 C290 0.929 . S
H339 C291 0.930 . S
H340 C298 0.929 . S
H341 C299 0.930 . S
H342 C300 0.930 . S
H343 C301 0.930 . S
H344 C303 0.929 . S
H345 C304 0.930 . S
H346 C305 0.930 . S
H347 C306 0.930 . S
H348 C310 0.929 . S
H349 C312 0.930 . S
H350 C318 0.929 . S
H351 C319 0.930 . S
Li352 N369 1.990 . S
Li352 O412 1.956 . S
Li352 O413 1.970 . S
Li352 O414 1.961 . S
Li353 N377 1.990 . S
Li353 O412 1.970 . S
Li353 O413 1.956 . S
Li353 O415 1.961 . S
Li354 N399 1.990 . S
Li354 O412 1.961 . S
Li354 O414 1.956 . S
Li354 O415 1.970 . S
Li355 N405 1.990 . S
Li355 O413 1.961 . S
Li355 O414 1.970 . S
Li355 O415 1.956 . S
C356 C358 1.348 . S
C356 C359 1.356 . S
C356 O412 1.325 . S
N357 C360 1.314 . S
N357 C361 1.279 . S
C358 C356 1.348 . S
C358 C360 1.353 . S
C358 H416 0.929 . S
C359 C356 1.356 . S
C359 C361 1.358 . S
C359 H417 0.930 . S
C360 N357 1.314 . S
C360 C358 1.353 . S
C360 H418 0.930 . S
C361 N357 1.279 . S
C361 C359 1.358 . S
C361 H419 0.930 . S
C362 C365 1.348 . S
C362 C366 1.356 . S
C362 O413 1.325 . S
C363 N364 1.279 . S
C363 C366 1.358 . S
C363 H420 0.930 . S
N364 C363 1.279 . S
N364 C367 1.314 . S
C365 C362 1.348 . S
C365 C367 1.353 . S
C365 H421 0.929 . S
C366 C362 1.356 . S
C366 C363 1.358 . S
C366 H422 0.930 . S
C367 N364 1.314 . S
C367 C365 1.353 . S
C367 H423 0.930 . S
C368 N369 1.314 . S
C368 C373 1.353 . S
C368 H374 0.930 . S
N369 Li352 1.990 . S
N369 C368 1.314 . S
N369 C371 1.279 . S
C370 C371 1.358 . S
C370 C372 1.356 . S
C370 H424 0.930 . S
C371 N369 1.279 . S
C371 C370 1.358 . S
C371 H375 0.930 . S
C372 C370 1.356 . S
C372 C373 1.348 . S
C373 C368 1.353 . S
C373 C372 1.348 . S
C373 H425 0.929 . S
H374 C368 0.930 . S
H375 C371 0.930 . S
C376 N377 1.314 . S
C376 C378 1.353 . S
C376 H382 0.930 . S
N377 Li353 1.990 . S
N377 C376 1.314 . S
N377 C380 1.279 . S
C378 C376 1.353 . S
C378 C381 1.348 . S
C378 H426 0.929 . S
C379 C380 1.358 . S
C379 C381 1.356 . S
C379 H427 0.930 . S
C380 N377 1.279 . S
C380 C379 1.358 . S
C380 H383 0.930 . S
C381 C378 1.348 . S
C381 C379 1.356 . S
H382 C376 0.930 . S
H383 C380 0.930 . S
C384 C386 1.348 . S
C384 C387 1.356 . S
C384 O414 1.325 . S
N385 C388 1.314 . S
N385 C389 1.279 . S
C386 C384 1.348 . S
C386 C388 1.353 . S
C386 H428 0.929 . S
C387 C384 1.356 . S
C387 C389 1.358 . S
C387 H429 0.930 . S
C388 N385 1.314 . S
C388 C386 1.353 . S
C388 H430 0.930 . S
C389 N385 1.279 . S
C389 C387 1.358 . S
C389 H431 0.930 . S
C390 C391 1.348 . S
C390 C392 1.356 . S
C390 O415 1.325 . S
C391 C390 1.348 . S
C391 C393 1.353 . S
C391 H432 0.929 . S
C392 C390 1.356 . S
C392 C394 1.358 . S
C392 H433 0.930 . S
C393 C391 1.353 . S
C393 N395 1.314 . S
C393 H434 0.930 . S
C394 C392 1.358 . S
C394 N395 1.279 . S
C394 H435 0.930 . S
N395 C393 1.314 . S
N395 C394 1.279 . S
C396 C398 1.353 . S
C396 N399 1.314 . S
C396 H402 0.930 . S
C397 N399 1.279 . S
C397 C400 1.358 . S
C397 H403 0.930 . S
C398 C396 1.353 . S
C398 C401 1.348 . S
C398 H436 0.929 . S
N399 Li354 1.990 . S
N399 C396 1.314 . S
N399 C397 1.279 . S
C400 C397 1.358 . S
C400 C401 1.356 . S
C400 H437 0.930 . S
C401 C398 1.348 . S
C401 C400 1.356 . S
H402 C396 0.930 . S
H403 C397 0.930 . S
C404 N405 1.314 . S
C404 C406 1.353 . S
C404 H410 0.930 . S
N405 Li355 1.990 . S
N405 C404 1.314 . S
N405 C408 1.279 . S
C406 C404 1.353 . S
C406 C409 1.348 . S
C406 H438 0.929 . S
C407 C408 1.358 . S
C407 C409 1.356 . S
C407 H439 0.930 . S
C408 N405 1.279 . S
C408 C407 1.358 . S
C408 H411 0.930 . S
C409 C406 1.348 . S
C409 C407 1.356 . S
H410 C404 0.930 . S
H411 C408 0.930 . S
O412 Li352 1.956 . S
O412 Li353 1.970 . S
O412 Li354 1.961 . S
O412 C356 1.325 . S
O413 Li352 1.970 . S
O413 Li353 1.956 . S
O413 Li355 1.961 . S
O413 C362 1.325 . S
O414 Li352 1.961 . S
O414 Li354 1.956 . S
O414 Li355 1.970 . S
O414 C384 1.325 . S
O415 Li353 1.961 . S
O415 Li354 1.970 . S
O415 Li355 1.956 . S
O415 C390 1.325 . S
H416 C358 0.929 . S
H417 C359 0.930 . S
H418 C360 0.930 . S
H419 C361 0.930 . S
H420 C363 0.930 . S
H421 C365 0.929 . S
H422 C366 0.930 . S
H423 C367 0.930 . S
H424 C370 0.930 . S
H425 C373 0.929 . S
H426 C378 0.929 . S
H427 C379 0.930 . S
H428 C386 0.929 . S
H429 C387 0.930 . S
H430 C388 0.930 . S
H431 C389 0.930 . S
H432 C391 0.929 . S
H433 C392 0.930 . S
H434 C393 0.930 . S
H435 C394 0.930 . S
H436 C398 0.929 . S
H437 C400 0.930 . S
H438 C406 0.929 . S
H439 C407 0.930 . S
Li440 N457 1.990 . S
Li440 O500 1.956 . S
Li440 O501 1.970 . S
Li440 O502 1.961 . S
Li441 N465 1.990 . S
Li441 O500 1.970 . S
Li441 O501 1.956 . S
Li441 O503 1.961 . S
Li442 N487 1.990 . S
Li442 O500 1.961 . S
Li442 O502 1.956 . S
Li442 O503 1.970 . S
Li443 N493 1.990 . S
Li443 O501 1.961 . S
Li443 O502 1.970 . S
Li443 O503 1.956 . S
C444 C446 1.348 . S
C444 C447 1.356 . S
C444 O500 1.325 . S
N445 C448 1.314 . S
N445 C449 1.279 . S
C446 C444 1.348 . S
C446 C448 1.353 . S
C446 H504 0.929 . S
C447 C444 1.356 . S
C447 C449 1.358 . S
C447 H505 0.930 . S
C448 N445 1.314 . S
C448 C446 1.353 . S
C448 H506 0.930 . S
C449 N445 1.279 . S
C449 C447 1.358 . S
C449 H507 0.930 . S
C450 C453 1.348 . S
C450 C454 1.356 . S
C450 O501 1.325 . S
C451 N452 1.279 . S
C451 C454 1.358 . S
C451 H508 0.930 . S
N452 C451 1.279 . S
N452 C455 1.314 . S
C453 C450 1.348 . S
C453 C455 1.353 . S
C453 H509 0.929 . S
C454 C450 1.356 . S
C454 C451 1.358 . S
C454 H510 0.930 . S
C455 N452 1.314 . S
C455 C453 1.353 . S
C455 H511 0.930 . S
C456 N457 1.314 . S
C456 C461 1.353 . S
C456 H462 0.930 . S
N457 Li440 1.990 . S
N457 C456 1.314 . S
N457 C459 1.279 . S
C458 C459 1.358 . S
C458 C460 1.356 . S
C458 H512 0.930 . S
C459 N457 1.279 . S
C459 C458 1.358 . S
C459 H463 0.930 . S
C460 C458 1.356 . S
C460 C461 1.348 . S
C461 C456 1.353 . S
C461 C460 1.348 . S
C461 H513 0.929 . S
H462 C456 0.930 . S
H463 C459 0.930 . S
C464 N465 1.314 . S
C464 C466 1.353 . S
C464 H470 0.930 . S
N465 Li441 1.990 . S
N465 C464 1.314 . S
N465 C468 1.279 . S
C466 C464 1.353 . S
C466 C469 1.348 . S
C466 H514 0.929 . S
C467 C468 1.358 . S
C467 C469 1.356 . S
C467 H515 0.930 . S
C468 N465 1.279 . S
C468 C467 1.358 . S
C468 H471 0.930 . S
C469 C466 1.348 . S
C469 C467 1.356 . S
H470 C464 0.930 . S
H471 C468 0.930 . S
C472 C474 1.348 . S
C472 C475 1.356 . S
C472 O502 1.325 . S
N473 C476 1.314 . S
N473 C477 1.279 . S
C474 C472 1.348 . S
C474 C476 1.353 . S
C474 H516 0.929 . S
C475 C472 1.356 . S
C475 C477 1.358 . S
C475 H517 0.930 . S
C476 N473 1.314 . S
C476 C474 1.353 . S
C476 H518 0.930 . S
C477 N473 1.279 . S
C477 C475 1.358 . S
C477 H519 0.930 . S
C478 C479 1.348 . S
C478 C480 1.356 . S
C478 O503 1.325 . S
C479 C478 1.348 . S
C479 C481 1.353 . S
C479 H520 0.929 . S
C480 C478 1.356 . S
C480 C482 1.358 . S
C480 H521 0.930 . S
C481 C479 1.353 . S
C481 N483 1.314 . S
C481 H522 0.930 . S
C482 C480 1.358 . S
C482 N483 1.279 . S
C482 H523 0.930 . S
N483 C481 1.314 . S
N483 C482 1.279 . S
C484 C486 1.353 . S
C484 N487 1.314 . S
C484 H490 0.930 . S
C485 N487 1.279 . S
C485 C488 1.358 . S
C485 H491 0.930 . S
C486 C484 1.353 . S
C486 C489 1.348 . S
C486 H524 0.929 . S
N487 Li442 1.990 . S
N487 C484 1.314 . S
N487 C485 1.279 . S
C488 C485 1.358 . S
C488 C489 1.356 . S
C488 H525 0.930 . S
C489 C486 1.348 . S
C489 C488 1.356 . S
H490 C484 0.930 . S
H491 C485 0.930 . S
C492 N493 1.314 . S
C492 C494 1.353 . S
C492 H498 0.930 . S
N493 Li443 1.990 . S
N493 C492 1.314 . S
N493 C496 1.279 . S
C494 C492 1.353 . S
C494 C497 1.348 . S
C494 H526 0.929 . S
C495 C496 1.358 . S
C495 C497 1.356 . S
C495 H527 0.930 . S
C496 N493 1.279 . S
C496 C495 1.358 . S
C496 H499 0.930 . S
C497 C494 1.348 . S
C497 C495 1.356 . S
H498 C492 0.930 . S
H499 C496 0.930 . S
O500 Li440 1.956 . S
O500 Li441 1.970 . S
O500 Li442 1.961 . S
O500 C444 1.325 . S
O501 Li440 1.970 . S
O501 Li441 1.956 . S
O501 Li443 1.961 . S
O501 C450 1.325 . S
O502 Li440 1.961 . S
O502 Li442 1.956 . S
O502 Li443 1.970 . S
O502 C472 1.325 . S
O503 Li441 1.961 . S
O503 Li442 1.970 . S
O503 Li443 1.956 . S
O503 C478 1.325 . S
H504 C446 0.929 . S
H505 C447 0.930 . S
H506 C448 0.930 . S
H507 C449 0.930 . S
H508 C451 0.930 . S
H509 C453 0.929 . S
H510 C454 0.930 . S
H511 C455 0.930 . S
H512 C458 0.930 . S
H513 C461 0.929 . S
H514 C466 0.929 . S
H515 C467 0.930 . S
H516 C474 0.929 . S
H517 C475 0.930 . S
H518 C476 0.930 . S
H519 C477 0.930 . S
H520 C479 0.929 . S
H521 C480 0.930 . S
H522 C481 0.930 . S
H523 C482 0.930 . S
H524 C486 0.929 . S
H525 C488 0.930 . S
H526 C494 0.929 . S
H527 C495 0.930 . S
Li528 N545 1.990 . S
Li528 O588 1.956 . S
Li528 O589 1.970 . S
Li528 O590 1.961 . S
Li529 N553 1.990 . S
Li529 O588 1.970 . S
Li529 O589 1.956 . S
Li529 O591 1.961 . S
Li530 N575 1.990 . S
Li530 O588 1.961 . S
Li530 O590 1.956 . S
Li530 O591 1.970 . S
Li531 N581 1.990 . S
Li531 O589 1.961 . S
Li531 O590 1.970 . S
Li531 O591 1.956 . S
C532 C534 1.348 . S
C532 C535 1.356 . S
C532 O588 1.325 . S
N533 C536 1.314 . S
N533 C537 1.279 . S
C534 C532 1.348 . S
C534 C536 1.353 . S
C534 H592 0.929 . S
C535 C532 1.356 . S
C535 C537 1.358 . S
C535 H593 0.930 . S
C536 N533 1.314 . S
C536 C534 1.353 . S
C536 H594 0.930 . S
C537 N533 1.279 . S
C537 C535 1.358 . S
C537 H595 0.930 . S
C538 C541 1.348 . S
C538 C542 1.356 . S
C538 O589 1.325 . S
C539 N540 1.279 . S
C539 C542 1.358 . S
C539 H596 0.930 . S
N540 C539 1.279 . S
N540 C543 1.314 . S
C541 C538 1.348 . S
C541 C543 1.353 . S
C541 H597 0.929 . S
C542 C538 1.356 . S
C542 C539 1.358 . S
C542 H598 0.930 . S
C543 N540 1.314 . S
C543 C541 1.353 . S
C543 H599 0.930 . S
C544 N545 1.314 . S
C544 C549 1.353 . S
C544 H550 0.930 . S
N545 Li528 1.990 . S
N545 C544 1.314 . S
N545 C547 1.279 . S
C546 C547 1.358 . S
C546 C548 1.356 . S
C546 H600 0.930 . S
C547 N545 1.279 . S
C547 C546 1.358 . S
C547 H551 0.930 . S
C548 C546 1.356 . S
C548 C549 1.348 . S
C549 C544 1.353 . S
C549 C548 1.348 . S
C549 H601 0.929 . S
H550 C544 0.930 . S
H551 C547 0.930 . S
C552 N553 1.314 . S
C552 C554 1.353 . S
C552 H558 0.930 . S
N553 Li529 1.990 . S
N553 C552 1.314 . S
N553 C556 1.279 . S
C554 C552 1.353 . S
C554 C557 1.348 . S
C554 H602 0.929 . S
C555 C556 1.358 . S
C555 C557 1.356 . S
C555 H603 0.930 . S
C556 N553 1.279 . S
C556 C555 1.358 . S
C556 H559 0.930 . S
C557 C554 1.348 . S
C557 C555 1.356 . S
H558 C552 0.930 . S
H559 C556 0.930 . S
C560 C562 1.348 . S
C560 C563 1.356 . S
C560 O590 1.325 . S
N561 C564 1.314 . S
N561 C565 1.279 . S
C562 C560 1.348 . S
C562 C564 1.353 . S
C562 H604 0.929 . S
C563 C560 1.356 . S
C563 C565 1.358 . S
C563 H605 0.930 . S
C564 N561 1.314 . S
C564 C562 1.353 . S
C564 H606 0.930 . S
C565 N561 1.279 . S
C565 C563 1.358 . S
C565 H607 0.930 . S
C566 C567 1.348 . S
C566 C568 1.356 . S
C566 O591 1.325 . S
C567 C566 1.348 . S
C567 C569 1.353 . S
C567 H608 0.929 . S
C568 C566 1.356 . S
C568 C570 1.358 . S
C568 H609 0.930 . S
C569 C567 1.353 . S
C569 N571 1.314 . S
C569 H610 0.930 . S
C570 C568 1.358 . S
C570 N571 1.279 . S
C570 H611 0.930 . S
N571 C569 1.314 . S
N571 C570 1.279 . S
C572 C574 1.353 . S
C572 N575 1.314 . S
C572 H578 0.930 . S
C573 N575 1.279 . S
C573 C576 1.358 . S
C573 H579 0.930 . S
C574 C572 1.353 . S
C574 C577 1.348 . S
C574 H612 0.929 . S
N575 Li530 1.990 . S
N575 C572 1.314 . S
N575 C573 1.279 . S
C576 C573 1.358 . S
C576 C577 1.356 . S
C576 H613 0.930 . S
C577 C574 1.348 . S
C577 C576 1.356 . S
H578 C572 0.930 . S
H579 C573 0.930 . S
C580 N581 1.314 . S
C580 C582 1.353 . S
C580 H586 0.930 . S
N581 Li531 1.990 . S
N581 C580 1.314 . S
N581 C584 1.279 . S
C582 C580 1.353 . S
C582 C585 1.348 . S
C582 H614 0.929 . S
C583 C584 1.358 . S
C583 C585 1.356 . S
C583 H615 0.930 . S
C584 N581 1.279 . S
C584 C583 1.358 . S
C584 H587 0.930 . S
C585 C582 1.348 . S
C585 C583 1.356 . S
H586 C580 0.930 . S
H587 C584 0.930 . S
O588 Li528 1.956 . S
O588 Li529 1.970 . S
O588 Li530 1.961 . S
O588 C532 1.325 . S
O589 Li528 1.970 . S
O589 Li529 1.956 . S
O589 Li531 1.961 . S
O589 C538 1.325 . S
O590 Li528 1.961 . S
O590 Li530 1.956 . S
O590 Li531 1.970 . S
O590 C560 1.325 . S
O591 Li529 1.961 . S
O591 Li530 1.970 . S
O591 Li531 1.956 . S
O591 C566 1.325 . S
H592 C534 0.929 . S
H593 C535 0.930 . S
H594 C536 0.930 . S
H595 C537 0.930 . S
H596 C539 0.930 . S
H597 C541 0.929 . S
H598 C542 0.930 . S
H599 C543 0.930 . S
H600 C546 0.930 . S
H601 C549 0.929 . S
H602 C554 0.929 . S
H603 C555 0.930 . S
H604 C562 0.929 . S
H605 C563 0.930 . S
H606 C564 0.930 . S
H607 C565 0.930 . S
H608 C567 0.929 . S
H609 C568 0.930 . S
H610 C569 0.930 . S
H611 C570 0.930 . S
H612 C574 0.929 . S
H613 C576 0.930 . S
H614 C582 0.929 . S
H615 C583 0.930 . S
Li616 N633 1.990 . S
Li616 O676 1.956 . S
Li616 O677 1.970 . S
Li616 O678 1.961 . S
Li617 N641 1.990 . S
Li617 O676 1.970 . S
Li617 O677 1.956 . S
Li617 O679 1.961 . S
Li618 N663 1.990 . S
Li618 O676 1.961 . S
Li618 O678 1.956 . S
Li618 O679 1.970 . S
Li619 N669 1.990 . S
Li619 O677 1.961 . S
Li619 O678 1.970 . S
Li619 O679 1.956 . S
C620 C622 1.348 . S
C620 C623 1.356 . S
C620 O676 1.325 . S
N621 C624 1.314 . S
N621 C625 1.279 . S
C622 C620 1.348 . S
C622 C624 1.353 . S
C622 H680 0.929 . S
C623 C620 1.356 . S
C623 C625 1.358 . S
C623 H681 0.930 . S
C624 N621 1.314 . S
C624 C622 1.353 . S
C624 H682 0.930 . S
C625 N621 1.279 . S
C625 C623 1.358 . S
C625 H683 0.930 . S
C626 C629 1.348 . S
C626 C630 1.356 . S
C626 O677 1.325 . S
C627 N628 1.279 . S
C627 C630 1.358 . S
C627 H684 0.930 . S
N628 C627 1.279 . S
N628 C631 1.314 . S
C629 C626 1.348 . S
C629 C631 1.353 . S
C629 H685 0.929 . S
C630 C626 1.356 . S
C630 C627 1.358 . S
C630 H686 0.930 . S
C631 N628 1.314 . S
C631 C629 1.353 . S
C631 H687 0.930 . S
C632 N633 1.314 . S
C632 C637 1.353 . S
C632 H638 0.930 . S
N633 Li616 1.990 . S
N633 C632 1.314 . S
N633 C635 1.279 . S
C634 C635 1.358 . S
C634 C636 1.356 . S
C634 H688 0.930 . S
C635 N633 1.279 . S
C635 C634 1.358 . S
C635 H639 0.930 . S
C636 C634 1.356 . S
C636 C637 1.348 . S
C637 C632 1.353 . S
C637 C636 1.348 . S
C637 H689 0.929 . S
H638 C632 0.930 . S
H639 C635 0.930 . S
C640 N641 1.314 . S
C640 C642 1.353 . S
C640 H646 0.930 . S
N641 Li617 1.990 . S
N641 C640 1.314 . S
N641 C644 1.279 . S
C642 C640 1.353 . S
C642 C645 1.348 . S
C642 H690 0.929 . S
C643 C644 1.358 . S
C643 C645 1.356 . S
C643 H691 0.930 . S
C644 N641 1.279 . S
C644 C643 1.358 . S
C644 H647 0.930 . S
C645 C642 1.348 . S
C645 C643 1.356 . S
H646 C640 0.930 . S
H647 C644 0.930 . S
C648 C650 1.348 . S
C648 C651 1.356 . S
C648 O678 1.325 . S
N649 C652 1.314 . S
N649 C653 1.279 . S
C650 C648 1.348 . S
C650 C652 1.353 . S
C650 H692 0.929 . S
C651 C648 1.356 . S
C651 C653 1.358 . S
C651 H693 0.930 . S
C652 N649 1.314 . S
C652 C650 1.353 . S
C652 H694 0.930 . S
C653 N649 1.279 . S
C653 C651 1.358 . S
C653 H695 0.930 . S
C654 C655 1.348 . S
C654 C656 1.356 . S
C654 O679 1.325 . S
C655 C654 1.348 . S
C655 C657 1.353 . S
C655 H696 0.929 . S
C656 C654 1.356 . S
C656 C658 1.358 . S
C656 H697 0.930 . S
C657 C655 1.353 . S
C657 N659 1.314 . S
C657 H698 0.930 . S
C658 C656 1.358 . S
C658 N659 1.279 . S
C658 H699 0.930 . S
N659 C657 1.314 . S
N659 C658 1.279 . S
C660 C662 1.353 . S
C660 N663 1.314 . S
C660 H666 0.930 . S
C661 N663 1.279 . S
C661 C664 1.358 . S
C661 H667 0.930 . S
C662 C660 1.353 . S
C662 C665 1.348 . S
C662 H700 0.929 . S
N663 Li618 1.990 . S
N663 C660 1.314 . S
N663 C661 1.279 . S
C664 C661 1.358 . S
C664 C665 1.356 . S
C664 H701 0.930 . S
C665 C662 1.348 . S
C665 C664 1.356 . S
H666 C660 0.930 . S
H667 C661 0.930 . S
C668 N669 1.314 . S
C668 C670 1.353 . S
C668 H674 0.930 . S
N669 Li619 1.990 . S
N669 C668 1.314 . S
N669 C672 1.279 . S
C670 C668 1.353 . S
C670 C673 1.348 . S
C670 H702 0.929 . S
C671 C672 1.358 . S
C671 C673 1.356 . S
C671 H703 0.930 . S
C672 N669 1.279 . S
C672 C671 1.358 . S
C672 H675 0.930 . S
C673 C670 1.348 . S
C673 C671 1.356 . S
H674 C668 0.930 . S
H675 C672 0.930 . S
O676 Li616 1.956 . S
O676 Li617 1.970 . S
O676 Li618 1.961 . S
O676 C620 1.325 . S
O677 Li616 1.970 . S
O677 Li617 1.956 . S
O677 Li619 1.961 . S
O677 C626 1.325 . S
O678 Li616 1.961 . S
O678 Li618 1.956 . S
O678 Li619 1.970 . S
O678 C648 1.325 . S
O679 Li617 1.961 . S
O679 Li618 1.970 . S
O679 Li619 1.956 . S
O679 C654 1.325 . S
H680 C622 0.929 . S
H681 C623 0.930 . S
H682 C624 0.930 . S
H683 C625 0.930 . S
H684 C627 0.930 . S
H685 C629 0.929 . S
H686 C630 0.930 . S
H687 C631 0.930 . S
H688 C634 0.930 . S
H689 C637 0.929 . S
H690 C642 0.929 . S
H691 C643 0.930 . S
H692 C650 0.929 . S
H693 C651 0.930 . S
H694 C652 0.930 . S
H695 C653 0.930 . S
H696 C655 0.929 . S
H697 C656 0.930 . S
H698 C657 0.930 . S
H699 C658 0.930 . S
H700 C662 0.929 . S
H701 C664 0.930 . S
H702 C670 0.929 . S
H703 C671 0.930 . S
Li704 N721 1.990 . S
Li704 O764 1.956 . S
Li704 O765 1.970 . S
Li704 O766 1.961 . S
Li705 N729 1.990 . S
Li705 O764 1.970 . S
Li705 O765 1.956 . S
Li705 O767 1.961 . S
Li706 N751 1.990 . S
Li706 O764 1.961 . S
Li706 O766 1.956 . S
Li706 O767 1.970 . S
Li707 N757 1.990 . S
Li707 O765 1.961 . S
Li707 O766 1.970 . S
Li707 O767 1.956 . S
C708 C710 1.348 . S
C708 C711 1.356 . S
C708 O764 1.325 . S
N709 C712 1.314 . S
N709 C713 1.279 . S
C710 C708 1.348 . S
C710 C712 1.353 . S
C710 H768 0.929 . S
C711 C708 1.356 . S
C711 C713 1.358 . S
C711 H769 0.930 . S
C712 N709 1.314 . S
C712 C710 1.353 . S
C712 H770 0.930 . S
C713 N709 1.279 . S
C713 C711 1.358 . S
C713 H771 0.930 . S
C714 C717 1.348 . S
C714 C718 1.356 . S
C714 O765 1.325 . S
C715 N716 1.279 . S
C715 C718 1.358 . S
C715 H772 0.930 . S
N716 C715 1.279 . S
N716 C719 1.314 . S
C717 C714 1.348 . S
C717 C719 1.353 . S
C717 H773 0.929 . S
C718 C714 1.356 . S
C718 C715 1.358 . S
C718 H774 0.930 . S
C719 N716 1.314 . S
C719 C717 1.353 . S
C719 H775 0.930 . S
C720 N721 1.314 . S
C720 C725 1.353 . S
C720 H726 0.930 . S
N721 Li704 1.990 . S
N721 C720 1.314 . S
N721 C723 1.279 . S
C722 C723 1.358 . S
C722 C724 1.356 . S
C722 H776 0.930 . S
C723 N721 1.279 . S
C723 C722 1.358 . S
C723 H727 0.930 . S
C724 C722 1.356 . S
C724 C725 1.348 . S
C725 C720 1.353 . S
C725 C724 1.348 . S
C725 H777 0.929 . S
H726 C720 0.930 . S
H727 C723 0.930 . S
C728 N729 1.314 . S
C728 C730 1.353 . S
C728 H734 0.930 . S
N729 Li705 1.990 . S
N729 C728 1.314 . S
N729 C732 1.279 . S
C730 C728 1.353 . S
C730 C733 1.348 . S
C730 H778 0.929 . S
C731 C732 1.358 . S
C731 C733 1.356 . S
C731 H779 0.930 . S
C732 N729 1.279 . S
C732 C731 1.358 . S
C732 H735 0.930 . S
C733 C730 1.348 . S
C733 C731 1.356 . S
H734 C728 0.930 . S
H735 C732 0.930 . S
C736 C738 1.348 . S
C736 C739 1.356 . S
C736 O766 1.325 . S
N737 C740 1.314 . S
N737 C741 1.279 . S
C738 C736 1.348 . S
C738 C740 1.353 . S
C738 H780 0.929 . S
C739 C736 1.356 . S
C739 C741 1.358 . S
C739 H781 0.930 . S
C740 N737 1.314 . S
C740 C738 1.353 . S
C740 H782 0.930 . S
C741 N737 1.279 . S
C741 C739 1.358 . S
C741 H783 0.930 . S
C742 C743 1.348 . S
C742 C744 1.356 . S
C742 O767 1.325 . S
C743 C742 1.348 . S
C743 C745 1.353 . S
C743 H784 0.929 . S
C744 C742 1.356 . S
C744 C746 1.358 . S
C744 H785 0.930 . S
C745 C743 1.353 . S
C745 N747 1.314 . S
C745 H786 0.930 . S
C746 C744 1.358 . S
C746 N747 1.279 . S
C746 H787 0.930 . S
N747 C745 1.314 . S
N747 C746 1.279 . S
C748 C750 1.353 . S
C748 N751 1.314 . S
C748 H754 0.930 . S
C749 N751 1.279 . S
C749 C752 1.358 . S
C749 H755 0.930 . S
C750 C748 1.353 . S
C750 C753 1.348 . S
C750 H788 0.929 . S
N751 Li706 1.990 . S
N751 C748 1.314 . S
N751 C749 1.279 . S
C752 C749 1.358 . S
C752 C753 1.356 . S
C752 H789 0.930 . S
C753 C750 1.348 . S
C753 C752 1.356 . S
H754 C748 0.930 . S
H755 C749 0.930 . S
C756 N757 1.314 . S
C756 C758 1.353 . S
C756 H762 0.930 . S
N757 Li707 1.990 . S
N757 C756 1.314 . S
N757 C760 1.279 . S
C758 C756 1.353 . S
C758 C761 1.348 . S
C758 H790 0.929 . S
C759 C760 1.358 . S
C759 C761 1.356 . S
C759 H791 0.930 . S
C760 N757 1.279 . S
C760 C759 1.358 . S
C760 H763 0.930 . S
C761 C758 1.348 . S
C761 C759 1.356 . S
H762 C756 0.930 . S
H763 C760 0.930 . S
O764 Li704 1.956 . S
O764 Li705 1.970 . S
O764 Li706 1.961 . S
O764 C708 1.325 . S
O765 Li704 1.970 . S
O765 Li705 1.956 . S
O765 Li707 1.961 . S
O765 C714 1.325 . S
O766 Li704 1.961 . S
O766 Li706 1.956 . S
O766 Li707 1.970 . S
O766 C736 1.325 . S
O767 Li705 1.961 . S
O767 Li706 1.970 . S
O767 Li707 1.956 . S
O767 C742 1.325 . S
H768 C710 0.929 . S
H769 C711 0.930 . S
H770 C712 0.930 . S
H771 C713 0.930 . S
H772 C715 0.930 . S
H773 C717 0.929 . S
H774 C718 0.930 . S
H775 C719 0.930 . S
H776 C722 0.930 . S
H777 C725 0.929 . S
H778 C730 0.929 . S
H779 C731 0.930 . S
H780 C738 0.929 . S
H781 C739 0.930 . S
H782 C740 0.930 . S
H783 C741 0.930 . S
H784 C743 0.929 . S
H785 C744 0.930 . S
H786 C745 0.930 . S
H787 C746 0.930 . S
H788 C750 0.929 . S
H789 C752 0.930 . S
H790 C758 0.929 . S
H791 C759 0.930 . S
Li792 N809 1.990 . S
Li792 O852 1.956 . S
Li792 O853 1.970 . S
Li792 O854 1.961 . S
Li793 N817 1.990 . S
Li793 O852 1.970 . S
Li793 O853 1.956 . S
Li793 O855 1.961 . S
Li794 N839 1.990 . S
Li794 O852 1.961 . S
Li794 O854 1.956 . S
Li794 O855 1.970 . S
Li795 N845 1.990 . S
Li795 O853 1.961 . S
Li795 O854 1.970 . S
Li795 O855 1.956 . S
C796 C798 1.348 . S
C796 C799 1.356 . S
C796 O852 1.325 . S
N797 C800 1.314 . S
N797 C801 1.279 . S
C798 C796 1.348 . S
C798 C800 1.353 . S
C798 H856 0.929 . S
C799 C796 1.356 . S
C799 C801 1.358 . S
C799 H857 0.930 . S
C800 N797 1.314 . S
C800 C798 1.353 . S
C800 H858 0.930 . S
C801 N797 1.279 . S
C801 C799 1.358 . S
C801 H859 0.930 . S
C802 C805 1.348 . S
C802 C806 1.356 . S
C802 O853 1.325 . S
C803 N804 1.279 . S
C803 C806 1.358 . S
C803 H860 0.930 . S
N804 C803 1.279 . S
N804 C807 1.314 . S
C805 C802 1.348 . S
C805 C807 1.353 . S
C805 H861 0.929 . S
C806 C802 1.356 . S
C806 C803 1.358 . S
C806 H862 0.930 . S
C807 N804 1.314 . S
C807 C805 1.353 . S
C807 H863 0.930 . S
C808 N809 1.314 . S
C808 C813 1.353 . S
C808 H814 0.930 . S
N809 Li792 1.990 . S
N809 C808 1.314 . S
N809 C811 1.279 . S
C810 C811 1.358 . S
C810 C812 1.356 . S
C810 H864 0.930 . S
C811 N809 1.279 . S
C811 C810 1.358 . S
C811 H815 0.930 . S
C812 C810 1.356 . S
C812 C813 1.348 . S
C813 C808 1.353 . S
C813 C812 1.348 . S
C813 H865 0.929 . S
H814 C808 0.930 . S
H815 C811 0.930 . S
C816 N817 1.314 . S
C816 C818 1.353 . S
C816 H822 0.930 . S
N817 Li793 1.990 . S
N817 C816 1.314 . S
N817 C820 1.279 . S
C818 C816 1.353 . S
C818 C821 1.348 . S
C818 H866 0.929 . S
C819 C820 1.358 . S
C819 C821 1.356 . S
C819 H867 0.930 . S
C820 N817 1.279 . S
C820 C819 1.358 . S
C820 H823 0.930 . S
C821 C818 1.348 . S
C821 C819 1.356 . S
H822 C816 0.930 . S
H823 C820 0.930 . S
C824 C826 1.348 . S
C824 C827 1.356 . S
C824 O854 1.325 . S
N825 C828 1.314 . S
N825 C829 1.279 . S
C826 C824 1.348 . S
C826 C828 1.353 . S
C826 H868 0.929 . S
C827 C824 1.356 . S
C827 C829 1.358 . S
C827 H869 0.930 . S
C828 N825 1.314 . S
C828 C826 1.353 . S
C828 H870 0.930 . S
C829 N825 1.279 . S
C829 C827 1.358 . S
C829 H871 0.930 . S
C830 C831 1.348 . S
C830 C832 1.356 . S
C830 O855 1.325 . S
C831 C830 1.348 . S
C831 C833 1.353 . S
C831 H872 0.929 . S
C832 C830 1.356 . S
C832 C834 1.358 . S
C832 H873 0.930 . S
C833 C831 1.353 . S
C833 N835 1.314 . S
C833 H874 0.930 . S
C834 C832 1.358 . S
C834 N835 1.279 . S
C834 H875 0.930 . S
N835 C833 1.314 . S
N835 C834 1.279 . S
C836 C838 1.353 . S
C836 N839 1.314 . S
C836 H842 0.930 . S
C837 N839 1.279 . S
C837 C840 1.358 . S
C837 H843 0.930 . S
C838 C836 1.353 . S
C838 C841 1.348 . S
C838 H876 0.929 . S
N839 Li794 1.990 . S
N839 C836 1.314 . S
N839 C837 1.279 . S
C840 C837 1.358 . S
C840 C841 1.356 . S
C840 H877 0.930 . S
C841 C838 1.348 . S
C841 C840 1.356 . S
H842 C836 0.930 . S
H843 C837 0.930 . S
C844 N845 1.314 . S
C844 C846 1.353 . S
C844 H850 0.930 . S
N845 Li795 1.990 . S
N845 C844 1.314 . S
N845 C848 1.279 . S
C846 C844 1.353 . S
C846 C849 1.348 . S
C846 H878 0.929 . S
C847 C848 1.358 . S
C847 C849 1.356 . S
C847 H879 0.930 . S
C848 N845 1.279 . S
C848 C847 1.358 . S
C848 H851 0.930 . S
C849 C846 1.348 . S
C849 C847 1.356 . S
H850 C844 0.930 . S
H851 C848 0.930 . S
O852 Li792 1.956 . S
O852 Li793 1.970 . S
O852 Li794 1.961 . S
O852 C796 1.325 . S
O853 Li792 1.970 . S
O853 Li793 1.956 . S
O853 Li795 1.961 . S
O853 C802 1.325 . S
O854 Li792 1.961 . S
O854 Li794 1.956 . S
O854 Li795 1.970 . S
O854 C824 1.325 . S
O855 Li793 1.961 . S
O855 Li794 1.970 . S
O855 Li795 1.956 . S
O855 C830 1.325 . S
H856 C798 0.929 . S
H857 C799 0.930 . S
H858 C800 0.930 . S
H859 C801 0.930 . S
H860 C803 0.930 . S
H861 C805 0.929 . S
H862 C806 0.930 . S
H863 C807 0.930 . S
H864 C810 0.930 . S
H865 C813 0.929 . S
H866 C818 0.929 . S
H867 C819 0.930 . S
H868 C826 0.929 . S
H869 C827 0.930 . S
H870 C828 0.930 . S
H871 C829 0.930 . S
H872 C831 0.929 . S
H873 C832 0.930 . S
H874 C833 0.930 . S
H875 C834 0.930 . S
H876 C838 0.929 . S
H877 C840 0.930 . S
H878 C846 0.929 . S
H879 C847 0.930 . S
Li880 N897 1.990 . S
Li880 O940 1.956 . S
Li880 O941 1.970 . S
Li880 O942 1.961 . S
Li881 N905 1.990 . S
Li881 O940 1.970 . S
Li881 O941 1.956 . S
Li881 O943 1.961 . S
Li882 N927 1.990 . S
Li882 O940 1.961 . S
Li882 O942 1.956 . S
Li882 O943 1.970 . S
Li883 N933 1.990 . S
Li883 O941 1.961 . S
Li883 O942 1.970 . S
Li883 O943 1.956 . S
C884 C886 1.348 . S
C884 C887 1.356 . S
C884 O940 1.325 . S
N885 C888 1.314 . S
N885 C889 1.279 . S
C886 C884 1.348 . S
C886 C888 1.353 . S
C886 H944 0.929 . S
C887 C884 1.356 . S
C887 C889 1.358 . S
C887 H945 0.930 . S
C888 N885 1.314 . S
C888 C886 1.353 . S
C888 H946 0.930 . S
C889 N885 1.279 . S
C889 C887 1.358 . S
C889 H947 0.930 . S
C890 C893 1.348 . S
C890 C894 1.356 . S
C890 O941 1.325 . S
C891 N892 1.279 . S
C891 C894 1.358 . S
C891 H948 0.930 . S
N892 C891 1.279 . S
N892 C895 1.314 . S
C893 C890 1.348 . S
C893 C895 1.353 . S
C893 H949 0.929 . S
C894 C890 1.356 . S
C894 C891 1.358 . S
C894 H950 0.930 . S
C895 N892 1.314 . S
C895 C893 1.353 . S
C895 H951 0.930 . S
C896 N897 1.314 . S
C896 C901 1.353 . S
C896 H902 0.930 . S
N897 Li880 1.990 . S
N897 C896 1.314 . S
N897 C899 1.279 . S
C898 C899 1.358 . S
C898 C900 1.356 . S
C898 H952 0.930 . S
C899 N897 1.279 . S
C899 C898 1.358 . S
C899 H903 0.930 . S
C900 C898 1.356 . S
C900 C901 1.348 . S
C901 C896 1.353 . S
C901 C900 1.348 . S
C901 H953 0.929 . S
H902 C896 0.930 . S
H903 C899 0.930 . S
C904 N905 1.314 . S
C904 C906 1.353 . S
C904 H910 0.930 . S
N905 Li881 1.990 . S
N905 C904 1.314 . S
N905 C908 1.279 . S
C906 C904 1.353 . S
C906 C909 1.348 . S
C906 H954 0.929 . S
C907 C908 1.358 . S
C907 C909 1.356 . S
C907 H955 0.930 . S
C908 N905 1.279 . S
C908 C907 1.358 . S
C908 H911 0.930 . S
C909 C906 1.348 . S
C909 C907 1.356 . S
H910 C904 0.930 . S
H911 C908 0.930 . S
C912 C914 1.348 . S
C912 C915 1.356 . S
C912 O942 1.325 . S
N913 C916 1.314 . S
N913 C917 1.279 . S
C914 C912 1.348 . S
C914 C916 1.353 . S
C914 H956 0.929 . S
C915 C912 1.356 . S
C915 C917 1.358 . S
C915 H957 0.930 . S
C916 N913 1.314 . S
C916 C914 1.353 . S
C916 H958 0.930 . S
C917 N913 1.279 . S
C917 C915 1.358 . S
C917 H959 0.930 . S
C918 C919 1.348 . S
C918 C920 1.356 . S
C918 O943 1.325 . S
C919 C918 1.348 . S
C919 C921 1.353 . S
C919 H960 0.929 . S
C920 C918 1.356 . S
C920 C922 1.358 . S
C920 H961 0.930 . S
C921 C919 1.353 . S
C921 N923 1.314 . S
C921 H962 0.930 . S
C922 C920 1.358 . S
C922 N923 1.279 . S
C922 H963 0.930 . S
N923 C921 1.314 . S
N923 C922 1.279 . S
C924 C926 1.353 . S
C924 N927 1.314 . S
C924 H930 0.930 . S
C925 N927 1.279 . S
C925 C928 1.358 . S
C925 H931 0.930 . S
C926 C924 1.353 . S
C926 C929 1.348 . S
C926 H964 0.929 . S
N927 Li882 1.990 . S
N927 C924 1.314 . S
N927 C925 1.279 . S
C928 C925 1.358 . S
C928 C929 1.356 . S
C928 H965 0.930 . S
C929 C926 1.348 . S
C929 C928 1.356 . S
H930 C924 0.930 . S
H931 C925 0.930 . S
C932 N933 1.314 . S
C932 C934 1.353 . S
C932 H938 0.930 . S
N933 Li883 1.990 . S
N933 C932 1.314 . S
N933 C936 1.279 . S
C934 C932 1.353 . S
C934 C937 1.348 . S
C934 H966 0.929 . S
C935 C936 1.358 . S
C935 C937 1.356 . S
C935 H967 0.930 . S
C936 N933 1.279 . S
C936 C935 1.358 . S
C936 H939 0.930 . S
C937 C934 1.348 . S
C937 C935 1.356 . S
H938 C932 0.930 . S
H939 C936 0.930 . S
O940 Li880 1.956 . S
O940 Li881 1.970 . S
O940 Li882 1.961 . S
O940 C884 1.325 . S
O941 Li880 1.970 . S
O941 Li881 1.956 . S
O941 Li883 1.961 . S
O941 C890 1.325 . S
O942 Li880 1.961 . S
O942 Li882 1.956 . S
O942 Li883 1.970 . S
O942 C912 1.325 . S
O943 Li881 1.961 . S
O943 Li882 1.970 . S
O943 Li883 1.956 . S
O943 C918 1.325 . S
H944 C886 0.929 . S
H945 C887 0.930 . S
H946 C888 0.930 . S
H947 C889 0.930 . S
H948 C891 0.930 . S
H949 C893 0.929 . S
H950 C894 0.930 . S
H951 C895 0.930 . S
H952 C898 0.930 . S
H953 C901 0.929 . S
H954 C906 0.929 . S
H955 C907 0.930 . S
H956 C914 0.929 . S
H957 C915 0.930 . S
H958 C916 0.930 . S
H959 C917 0.930 . S
H960 C919 0.929 . S
H961 C920 0.930 . S
H962 C921 0.930 . S
H963 C922 0.930 . S
H964 C926 0.929 . S
H965 C928 0.930 . S
H966 C934 0.929 . S
H967 C935 0.930 . S
Li968 N985 1.990 . S
Li968 O1028 1.956 . S
Li968 O1029 1.970 . S
Li968 O1030 1.961 . S
Li969 N993 1.990 . S
Li969 O1028 1.970 . S
Li969 O1029 1.956 . S
Li969 O1031 1.961 . S
Li970 N1015 1.990 . S
Li970 O1028 1.961 . S
Li970 O1030 1.956 . S
Li970 O1031 1.970 . S
Li971 N1021 1.990 . S
Li971 O1029 1.961 . S
Li971 O1030 1.970 . S
Li971 O1031 1.956 . S
C972 C974 1.348 . S
C972 C975 1.356 . S
C972 O1028 1.325 . S
N973 C976 1.314 . S
N973 C977 1.279 . S
C974 C972 1.348 . S
C974 C976 1.353 . S
C974 H1032 0.929 . S
C975 C972 1.356 . S
C975 C977 1.358 . S
C975 H1033 0.930 . S
C976 N973 1.314 . S
C976 C974 1.353 . S
C976 H1034 0.930 . S
C977 N973 1.279 . S
C977 C975 1.358 . S
C977 H1035 0.930 . S
C978 C981 1.348 . S
C978 C982 1.356 . S
C978 O1029 1.325 . S
C979 N980 1.279 . S
C979 C982 1.358 . S
C979 H1036 0.930 . S
N980 C979 1.279 . S
N980 C983 1.314 . S
C981 C978 1.348 . S
C981 C983 1.353 . S
C981 H1037 0.929 . S
C982 C978 1.356 . S
C982 C979 1.358 . S
C982 H1038 0.930 . S
C983 N980 1.314 . S
C983 C981 1.353 . S
C983 H1039 0.930 . S
C984 N985 1.314 . S
C984 C989 1.353 . S
C984 H990 0.930 . S
N985 Li968 1.990 . S
N985 C984 1.314 . S
N985 C987 1.279 . S
C986 C987 1.358 . S
C986 C988 1.356 . S
C986 H1040 0.930 . S
C987 N985 1.279 . S
C987 C986 1.358 . S
C987 H991 0.930 . S
C988 C986 1.356 . S
C988 C989 1.348 . S
C989 C984 1.353 . S
C989 C988 1.348 . S
C989 H1041 0.929 . S
H990 C984 0.930 . S
H991 C987 0.930 . S
C992 N993 1.314 . S
C992 C994 1.353 . S
C992 H998 0.930 . S
N993 Li969 1.990 . S
N993 C992 1.314 . S
N993 C996 1.279 . S
C994 C992 1.353 . S
C994 C997 1.348 . S
C994 H1042 0.929 . S
C995 C996 1.358 . S
C995 C997 1.356 . S
C995 H1043 0.930 . S
C996 N993 1.279 . S
C996 C995 1.358 . S
C996 H999 0.930 . S
C997 C994 1.348 . S
C997 C995 1.356 . S
H998 C992 0.930 . S
H999 C996 0.930 . S
C1000 C1002 1.348 . S
C1000 C1003 1.356 . S
C1000 O1030 1.325 . S
N1001 C1004 1.314 . S
N1001 C1005 1.279 . S
C1002 C1000 1.348 . S
C1002 C1004 1.353 . S
C1002 H1044 0.929 . S
C1003 C1000 1.356 . S
C1003 C1005 1.358 . S
C1003 H1045 0.930 . S
C1004 N1001 1.314 . S
C1004 C1002 1.353 . S
C1004 H1046 0.930 . S
C1005 N1001 1.279 . S
C1005 C1003 1.358 . S
C1005 H1047 0.930 . S
C1006 C1007 1.348 . S
C1006 C1008 1.356 . S
C1006 O1031 1.325 . S
C1007 C1006 1.348 . S
C1007 C1009 1.353 . S
C1007 H1048 0.929 . S
C1008 C1006 1.356 . S
C1008 C1010 1.358 . S
C1008 H1049 0.930 . S
C1009 C1007 1.353 . S
C1009 N1011 1.314 . S
C1009 H1050 0.930 . S
C1010 C1008 1.358 . S
C1010 N1011 1.279 . S
C1010 H1051 0.930 . S
N1011 C1009 1.314 . S
N1011 C1010 1.279 . S
C1012 C1014 1.353 . S
C1012 N1015 1.314 . S
C1012 H1018 0.930 . S
C1013 N1015 1.279 . S
C1013 C1016 1.358 . S
C1013 H1019 0.930 . S
C1014 C1012 1.353 . S
C1014 C1017 1.348 . S
C1014 H1052 0.929 . S
N1015 Li970 1.990 . S
N1015 C1012 1.314 . S
N1015 C1013 1.279 . S
C1016 C1013 1.358 . S
C1016 C1017 1.356 . S
C1016 H1053 0.930 . S
C1017 C1014 1.348 . S
C1017 C1016 1.356 . S
H1018 C1012 0.930 . S
H1019 C1013 0.930 . S
C1020 N1021 1.314 . S
C1020 C1022 1.353 . S
C1020 H1026 0.930 . S
N1021 Li971 1.990 . S
N1021 C1020 1.314 . S
N1021 C1024 1.279 . S
C1022 C1020 1.353 . S
C1022 C1025 1.348 . S
C1022 H1054 0.929 . S
C1023 C1024 1.358 . S
C1023 C1025 1.356 . S
C1023 H1055 0.930 . S
C1024 N1021 1.279 . S
C1024 C1023 1.358 . S
C1024 H1027 0.930 . S
C1025 C1022 1.348 . S
C1025 C1023 1.356 . S
H1026 C1020 0.930 . S
H1027 C1024 0.930 . S
O1028 Li968 1.956 . S
O1028 Li969 1.970 . S
O1028 Li970 1.961 . S
O1028 C972 1.325 . S
O1029 Li968 1.970 . S
O1029 Li969 1.956 . S
O1029 Li971 1.961 . S
O1029 C978 1.325 . S
O1030 Li968 1.961 . S
O1030 Li970 1.956 . S
O1030 Li971 1.970 . S
O1030 C1000 1.325 . S
O1031 Li969 1.961 . S
O1031 Li970 1.970 . S
O1031 Li971 1.956 . S
O1031 C1006 1.325 . S
H1032 C974 0.929 . S
H1033 C975 0.930 . S
H1034 C976 0.930 . S
H1035 C977 0.930 . S
H1036 C979 0.930 . S
H1037 C981 0.929 . S
H1038 C982 0.930 . S
H1039 C983 0.930 . S
H1040 C986 0.930 . S
H1041 C989 0.929 . S
H1042 C994 0.929 . S
H1043 C995 0.930 . S
H1044 C1002 0.929 . S
H1045 C1003 0.930 . S
H1046 C1004 0.930 . S
H1047 C1005 0.930 . S
H1048 C1007 0.929 . S
H1049 C1008 0.930 . S
H1050 C1009 0.930 . S
H1051 C1010 0.930 . S
H1052 C1014 0.929 . S
H1053 C1016 0.930 . S
H1054 C1022 0.929 . S
H1055 C1023 0.930 . S
Li1056 N1073 1.990 . S
Li1056 O1116 1.956 . S
Li1056 O1117 1.970 . S
Li1056 O1118 1.961 . S
Li1057 N1081 1.990 . S
Li1057 O1116 1.970 . S
Li1057 O1117 1.956 . S
Li1057 O1119 1.961 . S
Li1058 N1103 1.990 . S
Li1058 O1116 1.961 . S
Li1058 O1118 1.956 . S
Li1058 O1119 1.970 . S
Li1059 N1109 1.990 . S
Li1059 O1117 1.961 . S
Li1059 O1118 1.970 . S
Li1059 O1119 1.956 . S
C1060 C1062 1.348 . S
C1060 C1063 1.356 . S
C1060 O1116 1.325 . S
N1061 C1064 1.314 . S
N1061 C1065 1.279 . S
C1062 C1060 1.348 . S
C1062 C1064 1.353 . S
C1062 H1120 0.929 . S
C1063 C1060 1.356 . S
C1063 C1065 1.358 . S
C1063 H1121 0.930 . S
C1064 N1061 1.314 . S
C1064 C1062 1.353 . S
C1064 H1122 0.930 . S
C1065 N1061 1.279 . S
C1065 C1063 1.358 . S
C1065 H1123 0.930 . S
C1066 C1069 1.348 . S
C1066 C1070 1.356 . S
C1066 O1117 1.325 . S
C1067 N1068 1.279 . S
C1067 C1070 1.358 . S
C1067 H1124 0.930 . S
N1068 C1067 1.279 . S
N1068 C1071 1.314 . S
C1069 C1066 1.348 . S
C1069 C1071 1.353 . S
C1069 H1125 0.929 . S
C1070 C1066 1.356 . S
C1070 C1067 1.358 . S
C1070 H1126 0.930 . S
C1071 N1068 1.314 . S
C1071 C1069 1.353 . S
C1071 H1127 0.930 . S
C1072 N1073 1.314 . S
C1072 C1077 1.353 . S
C1072 H1078 0.930 . S
N1073 Li1056 1.990 . S
N1073 C1072 1.314 . S
N1073 C1075 1.279 . S
C1074 C1075 1.358 . S
C1074 C1076 1.356 . S
C1074 H1128 0.930 . S
C1075 N1073 1.279 . S
C1075 C1074 1.358 . S
C1075 H1079 0.930 . S
C1076 C1074 1.356 . S
C1076 C1077 1.348 . S
C1077 C1072 1.353 . S
C1077 C1076 1.348 . S
C1077 H1129 0.929 . S
H1078 C1072 0.930 . S
H1079 C1075 0.930 . S
C1080 N1081 1.314 . S
C1080 C1082 1.353 . S
C1080 H1086 0.930 . S
N1081 Li1057 1.990 . S
N1081 C1080 1.314 . S
N1081 C1084 1.279 . S
C1082 C1080 1.353 . S
C1082 C1085 1.348 . S
C1082 H1130 0.929 . S
C1083 C1084 1.358 . S
C1083 C1085 1.356 . S
C1083 H1131 0.930 . S
C1084 N1081 1.279 . S
C1084 C1083 1.358 . S
C1084 H1087 0.930 . S
C1085 C1082 1.348 . S
C1085 C1083 1.356 . S
H1086 C1080 0.930 . S
H1087 C1084 0.930 . S
C1088 C1090 1.348 . S
C1088 C1091 1.356 . S
C1088 O1118 1.325 . S
N1089 C1092 1.314 . S
N1089 C1093 1.279 . S
C1090 C1088 1.348 . S
C1090 C1092 1.353 . S
C1090 H1132 0.929 . S
C1091 C1088 1.356 . S
C1091 C1093 1.358 . S
C1091 H1133 0.930 . S
C1092 N1089 1.314 . S
C1092 C1090 1.353 . S
C1092 H1134 0.930 . S
C1093 N1089 1.279 . S
C1093 C1091 1.358 . S
C1093 H1135 0.930 . S
C1094 C1095 1.348 . S
C1094 C1096 1.356 . S
C1094 O1119 1.325 . S
C1095 C1094 1.348 . S
C1095 C1097 1.353 . S
C1095 H1136 0.929 . S
C1096 C1094 1.356 . S
C1096 C1098 1.358 . S
C1096 H1137 0.930 . S
C1097 C1095 1.353 . S
C1097 N1099 1.314 . S
C1097 H1138 0.930 . S
C1098 C1096 1.358 . S
C1098 N1099 1.279 . S
C1098 H1139 0.930 . S
N1099 C1097 1.314 . S
N1099 C1098 1.279 . S
C1100 C1102 1.353 . S
C1100 N1103 1.314 . S
C1100 H1106 0.930 . S
C1101 N1103 1.279 . S
C1101 C1104 1.358 . S
C1101 H1107 0.930 . S
C1102 C1100 1.353 . S
C1102 C1105 1.348 . S
C1102 H1140 0.929 . S
N1103 Li1058 1.990 . S
N1103 C1100 1.314 . S
N1103 C1101 1.279 . S
C1104 C1101 1.358 . S
C1104 C1105 1.356 . S
C1104 H1141 0.930 . S
C1105 C1102 1.348 . S
C1105 C1104 1.356 . S
H1106 C1100 0.930 . S
H1107 C1101 0.930 . S
C1108 N1109 1.314 . S
C1108 C1110 1.353 . S
C1108 H1114 0.930 . S
N1109 Li1059 1.990 . S
N1109 C1108 1.314 . S
N1109 C1112 1.279 . S
C1110 C1108 1.353 . S
C1110 C1113 1.348 . S
C1110 H1142 0.929 . S
C1111 C1112 1.358 . S
C1111 C1113 1.356 . S
C1111 H1143 0.930 . S
C1112 N1109 1.279 . S
C1112 C1111 1.358 . S
C1112 H1115 0.930 . S
C1113 C1110 1.348 . S
C1113 C1111 1.356 . S
H1114 C1108 0.930 . S
H1115 C1112 0.930 . S
O1116 Li1056 1.956 . S
O1116 Li1057 1.970 . S
O1116 Li1058 1.961 . S
O1116 C1060 1.325 . S
O1117 Li1056 1.970 . S
O1117 Li1057 1.956 . S
O1117 Li1059 1.961 . S
O1117 C1066 1.325 . S
O1118 Li1056 1.961 . S
O1118 Li1058 1.956 . S
O1118 Li1059 1.970 . S
O1118 C1088 1.325 . S
O1119 Li1057 1.961 . S
O1119 Li1058 1.970 . S
O1119 Li1059 1.956 . S
O1119 C1094 1.325 . S
H1120 C1062 0.929 . S
H1121 C1063 0.930 . S
H1122 C1064 0.930 . S
H1123 C1065 0.930 . S
H1124 C1067 0.930 . S
H1125 C1069 0.929 . S
H1126 C1070 0.930 . S
H1127 C1071 0.930 . S
H1128 C1074 0.930 . S
H1129 C1077 0.929 . S
H1130 C1082 0.929 . S
H1131 C1083 0.930 . S
H1132 C1090 0.929 . S
H1133 C1091 0.930 . S
H1134 C1092 0.930 . S
H1135 C1093 0.930 . S
H1136 C1095 0.929 . S
H1137 C1096 0.930 . S
H1138 C1097 0.930 . S
H1139 C1098 0.930 . S
H1140 C1102 0.929 . S
H1141 C1104 0.930 . S
H1142 C1110 0.929 . S
H1143 C1111 0.930 . S
Li1144 N1161 1.990 . S
Li1144 O1204 1.956 . S
Li1144 O1205 1.970 . S
Li1144 O1206 1.961 . S
Li1145 N1169 1.990 . S
Li1145 O1204 1.970 . S
Li1145 O1205 1.956 . S
Li1145 O1207 1.961 . S
Li1146 N1191 1.990 . S
Li1146 O1204 1.961 . S
Li1146 O1206 1.956 . S
Li1146 O1207 1.970 . S
Li1147 N1197 1.990 . S
Li1147 O1205 1.961 . S
Li1147 O1206 1.970 . S
Li1147 O1207 1.956 . S
C1148 C1150 1.348 . S
C1148 C1151 1.356 . S
C1148 O1204 1.325 . S
N1149 C1152 1.314 . S
N1149 C1153 1.279 . S
C1150 C1148 1.348 . S
C1150 C1152 1.353 . S
C1150 H1208 0.929 . S
C1151 C1148 1.356 . S
C1151 C1153 1.358 . S
C1151 H1209 0.930 . S
C1152 N1149 1.314 . S
C1152 C1150 1.353 . S
C1152 H1210 0.930 . S
C1153 N1149 1.279 . S
C1153 C1151 1.358 . S
C1153 H1211 0.930 . S
C1154 C1157 1.348 . S
C1154 C1158 1.356 . S
C1154 O1205 1.325 . S
C1155 N1156 1.279 . S
C1155 C1158 1.358 . S
C1155 H1212 0.930 . S
N1156 C1155 1.279 . S
N1156 C1159 1.314 . S
C1157 C1154 1.348 . S
C1157 C1159 1.353 . S
C1157 H1213 0.929 . S
C1158 C1154 1.356 . S
C1158 C1155 1.358 . S
C1158 H1214 0.930 . S
C1159 N1156 1.314 . S
C1159 C1157 1.353 . S
C1159 H1215 0.930 . S
C1160 N1161 1.314 . S
C1160 C1165 1.353 . S
C1160 H1166 0.930 . S
N1161 Li1144 1.990 . S
N1161 C1160 1.314 . S
N1161 C1163 1.279 . S
C1162 C1163 1.358 . S
C1162 C1164 1.356 . S
C1162 H1216 0.930 . S
C1163 N1161 1.279 . S
C1163 C1162 1.358 . S
C1163 H1167 0.930 . S
C1164 C1162 1.356 . S
C1164 C1165 1.348 . S
C1165 C1160 1.353 . S
C1165 C1164 1.348 . S
C1165 H1217 0.929 . S
H1166 C1160 0.930 . S
H1167 C1163 0.930 . S
C1168 N1169 1.314 . S
C1168 C1170 1.353 . S
C1168 H1174 0.930 . S
N1169 Li1145 1.990 . S
N1169 C1168 1.314 . S
N1169 C1172 1.279 . S
C1170 C1168 1.353 . S
C1170 C1173 1.348 . S
C1170 H1218 0.929 . S
C1171 C1172 1.358 . S
C1171 C1173 1.356 . S
C1171 H1219 0.930 . S
C1172 N1169 1.279 . S
C1172 C1171 1.358 . S
C1172 H1175 0.930 . S
C1173 C1170 1.348 . S
C1173 C1171 1.356 . S
H1174 C1168 0.930 . S
H1175 C1172 0.930 . S
C1176 C1178 1.348 . S
C1176 C1179 1.356 . S
C1176 O1206 1.325 . S
N1177 C1180 1.314 . S
N1177 C1181 1.279 . S
C1178 C1176 1.348 . S
C1178 C1180 1.353 . S
C1178 H1220 0.929 . S
C1179 C1176 1.356 . S
C1179 C1181 1.358 . S
C1179 H1221 0.930 . S
C1180 N1177 1.314 . S
C1180 C1178 1.353 . S
C1180 H1222 0.930 . S
C1181 N1177 1.279 . S
C1181 C1179 1.358 . S
C1181 H1223 0.930 . S
C1182 C1183 1.348 . S
C1182 C1184 1.356 . S
C1182 O1207 1.325 . S
C1183 C1182 1.348 . S
C1183 C1185 1.353 . S
C1183 H1224 0.929 . S
C1184 C1182 1.356 . S
C1184 C1186 1.358 . S
C1184 H1225 0.930 . S
C1185 C1183 1.353 . S
C1185 N1187 1.314 . S
C1185 H1226 0.930 . S
C1186 C1184 1.358 . S
C1186 N1187 1.279 . S
C1186 H1227 0.930 . S
N1187 C1185 1.314 . S
N1187 C1186 1.279 . S
C1188 C1190 1.353 . S
C1188 N1191 1.314 . S
C1188 H1194 0.930 . S
C1189 N1191 1.279 . S
C1189 C1192 1.358 . S
C1189 H1195 0.930 . S
C1190 C1188 1.353 . S
C1190 C1193 1.348 . S
C1190 H1228 0.929 . S
N1191 Li1146 1.990 . S
N1191 C1188 1.314 . S
N1191 C1189 1.279 . S
C1192 C1189 1.358 . S
C1192 C1193 1.356 . S
C1192 H1229 0.930 . S
C1193 C1190 1.348 . S
C1193 C1192 1.356 . S
H1194 C1188 0.930 . S
H1195 C1189 0.930 . S
C1196 N1197 1.314 . S
C1196 C1198 1.353 . S
C1196 H1202 0.930 . S
N1197 Li1147 1.990 . S
N1197 C1196 1.314 . S
N1197 C1200 1.279 . S
C1198 C1196 1.353 . S
C1198 C1201 1.348 . S
C1198 H1230 0.929 . S
C1199 C1200 1.358 . S
C1199 C1201 1.356 . S
C1199 H1231 0.930 . S
C1200 N1197 1.279 . S
C1200 C1199 1.358 . S
C1200 H1203 0.930 . S
C1201 C1198 1.348 . S
C1201 C1199 1.356 . S
H1202 C1196 0.930 . S
H1203 C1200 0.930 . S
O1204 Li1144 1.956 . S
O1204 Li1145 1.970 . S
O1204 Li1146 1.961 . S
O1204 C1148 1.325 . S
O1205 Li1144 1.970 . S
O1205 Li1145 1.956 . S
O1205 Li1147 1.961 . S
O1205 C1154 1.325 . S
O1206 Li1144 1.961 . S
O1206 Li1146 1.956 . S
O1206 Li1147 1.970 . S
O1206 C1176 1.325 . S
O1207 Li1145 1.961 . S
O1207 Li1146 1.970 . S
O1207 Li1147 1.956 . S
O1207 C1182 1.325 . S
H1208 C1150 0.929 . S
H1209 C1151 0.930 . S
H1210 C1152 0.930 . S
H1211 C1153 0.930 . S
H1212 C1155 0.930 . S
H1213 C1157 0.929 . S
H1214 C1158 0.930 . S
H1215 C1159 0.930 . S
H1216 C1162 0.930 . S
H1217 C1165 0.929 . S
H1218 C1170 0.929 . S
H1219 C1171 0.930 . S
H1220 C1178 0.929 . S
H1221 C1179 0.930 . S
H1222 C1180 0.930 . S
H1223 C1181 0.930 . S
H1224 C1183 0.929 . S
H1225 C1184 0.930 . S
H1226 C1185 0.930 . S
H1227 C1186 0.930 . S
H1228 C1190 0.929 . S
H1229 C1192 0.930 . S
H1230 C1198 0.929 . S
H1231 C1199 0.930 . S
Li1232 N1249 1.990 . S
Li1232 O1292 1.956 . S
Li1232 O1293 1.970 . S
Li1232 O1294 1.961 . S
Li1233 N1257 1.990 . S
Li1233 O1292 1.970 . S
Li1233 O1293 1.956 . S
Li1233 O1295 1.961 . S
Li1234 N1279 1.990 . S
Li1234 O1292 1.961 . S
Li1234 O1294 1.956 . S
Li1234 O1295 1.970 . S
Li1235 N1285 1.990 . S
Li1235 O1293 1.961 . S
Li1235 O1294 1.970 . S
Li1235 O1295 1.956 . S
C1236 C1238 1.348 . S
C1236 C1239 1.356 . S
C1236 O1292 1.325 . S
N1237 C1240 1.314 . S
N1237 C1241 1.279 . S
C1238 C1236 1.348 . S
C1238 C1240 1.353 . S
C1238 H1296 0.929 . S
C1239 C1236 1.356 . S
C1239 C1241 1.358 . S
C1239 H1297 0.930 . S
C1240 N1237 1.314 . S
C1240 C1238 1.353 . S
C1240 H1298 0.930 . S
C1241 N1237 1.279 . S
C1241 C1239 1.358 . S
C1241 H1299 0.930 . S
C1242 C1245 1.348 . S
C1242 C1246 1.356 . S
C1242 O1293 1.325 . S
C1243 N1244 1.279 . S
C1243 C1246 1.358 . S
C1243 H1300 0.930 . S
N1244 C1243 1.279 . S
N1244 C1247 1.314 . S
C1245 C1242 1.348 . S
C1245 C1247 1.353 . S
C1245 H1301 0.929 . S
C1246 C1242 1.356 . S
C1246 C1243 1.358 . S
C1246 H1302 0.930 . S
C1247 N1244 1.314 . S
C1247 C1245 1.353 . S
C1247 H1303 0.930 . S
C1248 N1249 1.314 . S
C1248 C1253 1.353 . S
C1248 H1254 0.930 . S
N1249 Li1232 1.990 . S
N1249 C1248 1.314 . S
N1249 C1251 1.279 . S
C1250 C1251 1.358 . S
C1250 C1252 1.356 . S
C1250 H1304 0.930 . S
C1251 N1249 1.279 . S
C1251 C1250 1.358 . S
C1251 H1255 0.930 . S
C1252 C1250 1.356 . S
C1252 C1253 1.348 . S
C1253 C1248 1.353 . S
C1253 C1252 1.348 . S
C1253 H1305 0.929 . S
H1254 C1248 0.930 . S
H1255 C1251 0.930 . S
C1256 N1257 1.314 . S
C1256 C1258 1.353 . S
C1256 H1262 0.930 . S
N1257 Li1233 1.990 . S
N1257 C1256 1.314 . S
N1257 C1260 1.279 . S
C1258 C1256 1.353 . S
C1258 C1261 1.348 . S
C1258 H1306 0.929 . S
C1259 C1260 1.358 . S
C1259 C1261 1.356 . S
C1259 H1307 0.930 . S
C1260 N1257 1.279 . S
C1260 C1259 1.358 . S
C1260 H1263 0.930 . S
C1261 C1258 1.348 . S
C1261 C1259 1.356 . S
H1262 C1256 0.930 . S
H1263 C1260 0.930 . S
C1264 C1266 1.348 . S
C1264 C1267 1.356 . S
C1264 O1294 1.325 . S
N1265 C1268 1.314 . S
N1265 C1269 1.279 . S
C1266 C1264 1.348 . S
C1266 C1268 1.353 . S
C1266 H1308 0.929 . S
C1267 C1264 1.356 . S
C1267 C1269 1.358 . S
C1267 H1309 0.930 . S
C1268 N1265 1.314 . S
C1268 C1266 1.353 . S
C1268 H1310 0.930 . S
C1269 N1265 1.279 . S
C1269 C1267 1.358 . S
C1269 H1311 0.930 . S
C1270 C1271 1.348 . S
C1270 C1272 1.356 . S
C1270 O1295 1.325 . S
C1271 C1270 1.348 . S
C1271 C1273 1.353 . S
C1271 H1312 0.929 . S
C1272 C1270 1.356 . S
C1272 C1274 1.358 . S
C1272 H1313 0.930 . S
C1273 C1271 1.353 . S
C1273 N1275 1.314 . S
C1273 H1314 0.930 . S
C1274 C1272 1.358 . S
C1274 N1275 1.279 . S
C1274 H1315 0.930 . S
N1275 C1273 1.314 . S
N1275 C1274 1.279 . S
C1276 C1278 1.353 . S
C1276 N1279 1.314 . S
C1276 H1282 0.930 . S
C1277 N1279 1.279 . S
C1277 C1280 1.358 . S
C1277 H1283 0.930 . S
C1278 C1276 1.353 . S
C1278 C1281 1.348 . S
C1278 H1316 0.929 . S
N1279 Li1234 1.990 . S
N1279 C1276 1.314 . S
N1279 C1277 1.279 . S
C1280 C1277 1.358 . S
C1280 C1281 1.356 . S
C1280 H1317 0.930 . S
C1281 C1278 1.348 . S
C1281 C1280 1.356 . S
H1282 C1276 0.930 . S
H1283 C1277 0.930 . S
C1284 N1285 1.314 . S
C1284 C1286 1.353 . S
C1284 H1290 0.930 . S
N1285 Li1235 1.990 . S
N1285 C1284 1.314 . S
N1285 C1288 1.279 . S
C1286 C1284 1.353 . S
C1286 C1289 1.348 . S
C1286 H1318 0.929 . S
C1287 C1288 1.358 . S
C1287 C1289 1.356 . S
C1287 H1319 0.930 . S
C1288 N1285 1.279 . S
C1288 C1287 1.358 . S
C1288 H1291 0.930 . S
C1289 C1286 1.348 . S
C1289 C1287 1.356 . S
H1290 C1284 0.930 . S
H1291 C1288 0.930 . S
O1292 Li1232 1.956 . S
O1292 Li1233 1.970 . S
O1292 Li1234 1.961 . S
O1292 C1236 1.325 . S
O1293 Li1232 1.970 . S
O1293 Li1233 1.956 . S
O1293 Li1235 1.961 . S
O1293 C1242 1.325 . S
O1294 Li1232 1.961 . S
O1294 Li1234 1.956 . S
O1294 Li1235 1.970 . S
O1294 C1264 1.325 . S
O1295 Li1233 1.961 . S
O1295 Li1234 1.970 . S
O1295 Li1235 1.956 . S
O1295 C1270 1.325 . S
H1296 C1238 0.929 . S
H1297 C1239 0.930 . S
H1298 C1240 0.930 . S
H1299 C1241 0.930 . S
H1300 C1243 0.930 . S
H1301 C1245 0.929 . S
H1302 C1246 0.930 . S
H1303 C1247 0.930 . S
H1304 C1250 0.930 . S
H1305 C1253 0.929 . S
H1306 C1258 0.929 . S
H1307 C1259 0.930 . S
H1308 C1266 0.929 . S
H1309 C1267 0.930 . S
H1310 C1268 0.930 . S
H1311 C1269 0.930 . S
H1312 C1271 0.929 . S
H1313 C1272 0.930 . S
H1314 C1273 0.930 . S
H1315 C1274 0.930 . S
H1316 C1278 0.929 . S
H1317 C1280 0.930 . S
H1318 C1286 0.929 . S
H1319 C1287 0.930 . S
Li1320 N1337 1.990 . S
Li1320 O1380 1.956 . S
Li1320 O1381 1.970 . S
Li1320 O1382 1.961 . S
Li1321 N1345 1.990 . S
Li1321 O1380 1.970 . S
Li1321 O1381 1.956 . S
Li1321 O1383 1.961 . S
Li1322 N1367 1.990 . S
Li1322 O1380 1.961 . S
Li1322 O1382 1.956 . S
Li1322 O1383 1.970 . S
Li1323 N1373 1.990 . S
Li1323 O1381 1.961 . S
Li1323 O1382 1.970 . S
Li1323 O1383 1.956 . S
C1324 C1326 1.348 . S
C1324 C1327 1.356 . S
C1324 O1380 1.325 . S
N1325 C1328 1.314 . S
N1325 C1329 1.279 . S
C1326 C1324 1.348 . S
C1326 C1328 1.353 . S
C1326 H1384 0.929 . S
C1327 C1324 1.356 . S
C1327 C1329 1.358 . S
C1327 H1385 0.930 . S
C1328 N1325 1.314 . S
C1328 C1326 1.353 . S
C1328 H1386 0.930 . S
C1329 N1325 1.279 . S
C1329 C1327 1.358 . S
C1329 H1387 0.930 . S
C1330 C1333 1.348 . S
C1330 C1334 1.356 . S
C1330 O1381 1.325 . S
C1331 N1332 1.279 . S
C1331 C1334 1.358 . S
C1331 H1388 0.930 . S
N1332 C1331 1.279 . S
N1332 C1335 1.314 . S
C1333 C1330 1.348 . S
C1333 C1335 1.353 . S
C1333 H1389 0.929 . S
C1334 C1330 1.356 . S
C1334 C1331 1.358 . S
C1334 H1390 0.930 . S
C1335 N1332 1.314 . S
C1335 C1333 1.353 . S
C1335 H1391 0.930 . S
C1336 N1337 1.314 . S
C1336 C1341 1.353 . S
C1336 H1342 0.930 . S
N1337 Li1320 1.990 . S
N1337 C1336 1.314 . S
N1337 C1339 1.279 . S
C1338 C1339 1.358 . S
C1338 C1340 1.356 . S
C1338 H1392 0.930 . S
C1339 N1337 1.279 . S
C1339 C1338 1.358 . S
C1339 H1343 0.930 . S
C1340 C1338 1.356 . S
C1340 C1341 1.348 . S
C1341 C1336 1.353 . S
C1341 C1340 1.348 . S
C1341 H1393 0.929 . S
H1342 C1336 0.930 . S
H1343 C1339 0.930 . S
C1344 N1345 1.314 . S
C1344 C1346 1.353 . S
C1344 H1350 0.930 . S
N1345 Li1321 1.990 . S
N1345 C1344 1.314 . S
N1345 C1348 1.279 . S
C1346 C1344 1.353 . S
C1346 C1349 1.348 . S
C1346 H1394 0.929 . S
C1347 C1348 1.358 . S
C1347 C1349 1.356 . S
C1347 H1395 0.930 . S
C1348 N1345 1.279 . S
C1348 C1347 1.358 . S
C1348 H1351 0.930 . S
C1349 C1346 1.348 . S
C1349 C1347 1.356 . S
H1350 C1344 0.930 . S
H1351 C1348 0.930 . S
C1352 C1354 1.348 . S
C1352 C1355 1.356 . S
C1352 O1382 1.325 . S
N1353 C1356 1.314 . S
N1353 C1357 1.279 . S
C1354 C1352 1.348 . S
C1354 C1356 1.353 . S
C1354 H1396 0.929 . S
C1355 C1352 1.356 . S
C1355 C1357 1.358 . S
C1355 H1397 0.930 . S
C1356 N1353 1.314 . S
C1356 C1354 1.353 . S
C1356 H1398 0.930 . S
C1357 N1353 1.279 . S
C1357 C1355 1.358 . S
C1357 H1399 0.930 . S
C1358 C1359 1.348 . S
C1358 C1360 1.356 . S
C1358 O1383 1.325 . S
C1359 C1358 1.348 . S
C1359 C1361 1.353 . S
C1359 H1400 0.929 . S
C1360 C1358 1.356 . S
C1360 C1362 1.358 . S
C1360 H1401 0.930 . S
C1361 C1359 1.353 . S
C1361 N1363 1.314 . S
C1361 H1402 0.930 . S
C1362 C1360 1.358 . S
C1362 N1363 1.279 . S
C1362 H1403 0.930 . S
N1363 C1361 1.314 . S
N1363 C1362 1.279 . S
C1364 C1366 1.353 . S
C1364 N1367 1.314 . S
C1364 H1370 0.930 . S
C1365 N1367 1.279 . S
C1365 C1368 1.358 . S
C1365 H1371 0.930 . S
C1366 C1364 1.353 . S
C1366 C1369 1.348 . S
C1366 H1404 0.929 . S
N1367 Li1322 1.990 . S
N1367 C1364 1.314 . S
N1367 C1365 1.279 . S
C1368 C1365 1.358 . S
C1368 C1369 1.356 . S
C1368 H1405 0.930 . S
C1369 C1366 1.348 . S
C1369 C1368 1.356 . S
H1370 C1364 0.930 . S
H1371 C1365 0.930 . S
C1372 N1373 1.314 . S
C1372 C1374 1.353 . S
C1372 H1378 0.930 . S
N1373 Li1323 1.990 . S
N1373 C1372 1.314 . S
N1373 C1376 1.279 . S
C1374 C1372 1.353 . S
C1374 C1377 1.348 . S
C1374 H1406 0.929 . S
C1375 C1376 1.358 . S
C1375 C1377 1.356 . S
C1375 H1407 0.930 . S
C1376 N1373 1.279 . S
C1376 C1375 1.358 . S
C1376 H1379 0.930 . S
C1377 C1374 1.348 . S
C1377 C1375 1.356 . S
H1378 C1372 0.930 . S
H1379 C1376 0.930 . S
O1380 Li1320 1.956 . S
O1380 Li1321 1.970 . S
O1380 Li1322 1.961 . S
O1380 C1324 1.325 . S
O1381 Li1320 1.970 . S
O1381 Li1321 1.956 . S
O1381 Li1323 1.961 . S
O1381 C1330 1.325 . S
O1382 Li1320 1.961 . S
O1382 Li1322 1.956 . S
O1382 Li1323 1.970 . S
O1382 C1352 1.325 . S
O1383 Li1321 1.961 . S
O1383 Li1322 1.970 . S
O1383 Li1323 1.956 . S
O1383 C1358 1.325 . S
H1384 C1326 0.929 . S
H1385 C1327 0.930 . S
H1386 C1328 0.930 . S
H1387 C1329 0.930 . S
H1388 C1331 0.930 . S
H1389 C1333 0.929 . S
H1390 C1334 0.930 . S
H1391 C1335 0.930 . S
H1392 C1338 0.930 . S
H1393 C1341 0.929 . S
H1394 C1346 0.929 . S
H1395 C1347 0.930 . S
H1396 C1354 0.929 . S
H1397 C1355 0.930 . S
H1398 C1356 0.930 . S
H1399 C1357 0.930 . S
H1400 C1359 0.929 . S
H1401 C1360 0.930 . S
H1402 C1361 0.930 . S
H1403 C1362 0.930 . S
H1404 C1366 0.929 . S
H1405 C1368 0.930 . S
H1406 C1374 0.929 . S
H1407 C1375 0.930 . S
H1408 C1416 0.929 . S
H1409 C1418 0.930 . S
H1410 C1420 0.930 . S
H1411 C1423 0.929 . S
H1412 C1426 0.930 . S
H1413 C1428 0.960 . S
H1414 C1428 0.960 . S
H1415 C1428 0.960 . S
C1416 H1408 0.929 . S
C1416 C1417 1.377 . S
C1416 C1418 1.384 . S
C1417 C1416 1.377 . S
C1417 C1423 1.390 . S
C1418 H1409 0.930 . S
C1418 C1416 1.384 . S
C1418 C1419 1.372 . S
C1419 C1418 1.372 . S
C1419 C1420 1.400 . S
C1419 C1424 1.490 . S
C1420 H1410 0.930 . S
C1420 C1419 1.400 . S
C1420 C1423 1.386 . S
H1421 C1437 0.930 . S
H1422 C1438 0.931 . S
C1423 H1411 0.929 . S
C1423 C1417 1.390 . S
C1423 C1420 1.386 . S
C1424 C1419 1.490 . S
C1424 C1426 1.395 . S
C1424 C1427 1.403 . S
H1425 C1431 0.930 . S
C1426 H1412 0.930 . S
C1426 C1424 1.395 . S
C1426 C1429 1.403 . S
C1427 C1424 1.403 . S
C1427 C1428 1.524 . S
C1427 C1431 1.400 . S
C1428 H1413 0.960 . S
C1428 H1414 0.960 . S
C1428 H1415 0.960 . S
C1428 C1427 1.524 . S
C1429 C1426 1.403 . S
C1429 C1430 1.392 . S
C1429 C1433 1.495 . S
C1430 C1429 1.392 . S
C1430 C1431 1.385 . S
C1430 C1432 1.478 . S
C1431 H1425 0.930 . S
C1431 C1427 1.400 . S
C1431 C1430 1.385 . S
C1432 C1430 1.478 . S
C1432 C1434 1.381 . S
C1432 C1438 1.383 . S
C1433 C1429 1.495 . S
C1433 H1439 0.959 . S
C1433 H1440 0.961 . S
C1433 H1441 0.960 . S
C1434 C1432 1.381 . S
C1434 C1435 1.394 . S
C1434 H1442 0.930 . S
C1435 C1434 1.394 . S
C1435 C1436 1.383 . S
C1435 H1443 0.929 . S
C1436 C1435 1.383 . S
C1436 C1437 1.377 . S
C1437 H1421 0.930 . S
C1437 C1436 1.377 . S
C1437 C1438 1.379 . S
C1438 H1422 0.931 . S
C1438 C1432 1.383 . S
C1438 C1437 1.379 . S
H1439 C1433 0.959 . S
H1440 C1433 0.961 . S
H1441 C1433 0.960 . S
H1442 C1434 0.930 . S
H1443 C1435 0.929 . S
H1444 C1452 0.929 . S
H1445 C1454 0.930 . S
H1446 C1456 0.930 . S
H1447 C1459 0.929 . S
H1448 C1462 0.930 . S
H1449 C1464 0.960 . S
H1450 C1464 0.960 . S
H1451 C1464 0.960 . S
C1452 H1444 0.929 . S
C1452 C1453 1.377 . S
C1452 C1454 1.384 . S
C1453 C1452 1.377 . S
C1453 C1459 1.390 . S
C1454 H1445 0.930 . S
C1454 C1452 1.384 . S
C1454 C1455 1.372 . S
C1455 C1454 1.372 . S
C1455 C1456 1.400 . S
C1455 C1460 1.490 . S
C1456 H1446 0.930 . S
C1456 C1455 1.400 . S
C1456 C1459 1.386 . S
H1457 C1473 0.930 . S
H1458 C1474 0.931 . S
C1459 H1447 0.929 . S
C1459 C1453 1.390 . S
C1459 C1456 1.386 . S
C1460 C1455 1.490 . S
C1460 C1462 1.395 . S
C1460 C1463 1.403 . S
H1461 C1467 0.930 . S
C1462 H1448 0.930 . S
C1462 C1460 1.395 . S
C1462 C1465 1.403 . S
C1463 C1460 1.403 . S
C1463 C1464 1.524 . S
C1463 C1467 1.400 . S
C1464 H1449 0.960 . S
C1464 H1450 0.960 . S
C1464 H1451 0.960 . S
C1464 C1463 1.524 . S
C1465 C1462 1.403 . S
C1465 C1466 1.392 . S
C1465 C1469 1.495 . S
C1466 C1465 1.392 . S
C1466 C1467 1.385 . S
C1466 C1468 1.478 . S
C1467 H1461 0.930 . S
C1467 C1463 1.400 . S
C1467 C1466 1.385 . S
C1468 C1466 1.478 . S
C1468 C1470 1.381 . S
C1468 C1474 1.383 . S
C1469 C1465 1.495 . S
C1469 H1475 0.959 . S
C1469 H1476 0.961 . S
C1469 H1477 0.960 . S
C1470 C1468 1.381 . S
C1470 C1471 1.394 . S
C1470 H1478 0.930 . S
C1471 C1470 1.394 . S
C1471 C1472 1.383 . S
C1471 H1479 0.929 . S
C1472 C1471 1.383 . S
C1472 C1473 1.377 . S
C1473 H1457 0.930 . S
C1473 C1472 1.377 . S
C1473 C1474 1.379 . S
C1474 H1458 0.931 . S
C1474 C1468 1.383 . S
C1474 C1473 1.379 . S
H1475 C1469 0.959 . S
H1476 C1469 0.961 . S
H1477 C1469 0.960 . S
H1478 C1470 0.930 . S
H1479 C1471 0.929 . S
H1480 C1488 0.929 . S
H1481 C1490 0.930 . S
H1482 C1492 0.930 . S
H1483 C1495 0.929 . S
H1484 C1498 0.930 . S
H1485 C1500 0.960 . S
H1486 C1500 0.960 . S
H1487 C1500 0.960 . S
C1488 H1480 0.929 . S
C1488 C1489 1.377 . S
C1488 C1490 1.384 . S
C1489 C1488 1.377 . S
C1489 C1495 1.390 . S
C1490 H1481 0.930 . S
C1490 C1488 1.384 . S
C1490 C1491 1.372 . S
C1491 C1490 1.372 . S
C1491 C1492 1.400 . S
C1491 C1496 1.490 . S
C1492 H1482 0.930 . S
C1492 C1491 1.400 . S
C1492 C1495 1.386 . S
H1493 C1509 0.930 . S
H1494 C1510 0.931 . S
C1495 H1483 0.929 . S
C1495 C1489 1.390 . S
C1495 C1492 1.386 . S
C1496 C1491 1.490 . S
C1496 C1498 1.395 . S
C1496 C1499 1.403 . S
H1497 C1503 0.930 . S
C1498 H1484 0.930 . S
C1498 C1496 1.395 . S
C1498 C1501 1.403 . S
C1499 C1496 1.403 . S
C1499 C1500 1.524 . S
C1499 C1503 1.400 . S
C1500 H1485 0.960 . S
C1500 H1486 0.960 . S
C1500 H1487 0.960 . S
C1500 C1499 1.524 . S
C1501 C1498 1.403 . S
C1501 C1502 1.392 . S
C1501 C1505 1.495 . S
C1502 C1501 1.392 . S
C1502 C1503 1.385 . S
C1502 C1504 1.478 . S
C1503 H1497 0.930 . S
C1503 C1499 1.400 . S
C1503 C1502 1.385 . S
C1504 C1502 1.478 . S
C1504 C1506 1.381 . S
C1504 C1510 1.383 . S
C1505 C1501 1.495 . S
C1505 H1511 0.959 . S
C1505 H1512 0.961 . S
C1505 H1513 0.960 . S
C1506 C1504 1.381 . S
C1506 C1507 1.394 . S
C1506 H1514 0.930 . S
C1507 C1506 1.394 . S
C1507 C1508 1.383 . S
C1507 H1515 0.929 . S
C1508 C1507 1.383 . S
C1508 C1509 1.377 . S
C1509 H1493 0.930 . S
C1509 C1508 1.377 . S
C1509 C1510 1.379 . S
C1510 H1494 0.931 . S
C1510 C1504 1.383 . S
C1510 C1509 1.379 . S
H1511 C1505 0.959 . S
H1512 C1505 0.961 . S
H1513 C1505 0.960 . S
H1514 C1506 0.930 . S
H1515 C1507 0.929 . S
H1516 C1524 0.929 . S
H1517 C1526 0.930 . S
H1518 C1528 0.930 . S
H1519 C1531 0.929 . S
H1520 C1534 0.930 . S
H1521 C1536 0.960 . S
H1522 C1536 0.960 . S
H1523 C1536 0.960 . S
C1524 H1516 0.929 . S
C1524 C1525 1.377 . S
C1524 C1526 1.384 . S
C1525 C1524 1.377 . S
C1525 C1531 1.390 . S
C1526 H1517 0.930 . S
C1526 C1524 1.384 . S
C1526 C1527 1.372 . S
C1527 C1526 1.372 . S
C1527 C1528 1.400 . S
C1527 C1532 1.490 . S
C1528 H1518 0.930 . S
C1528 C1527 1.400 . S
C1528 C1531 1.386 . S
H1529 C1545 0.930 . S
H1530 C1546 0.931 . S
C1531 H1519 0.929 . S
C1531 C1525 1.390 . S
C1531 C1528 1.386 . S
C1532 C1527 1.490 . S
C1532 C1534 1.395 . S
C1532 C1535 1.403 . S
H1533 C1539 0.930 . S
C1534 H1520 0.930 . S
C1534 C1532 1.395 . S
C1534 C1537 1.403 . S
C1535 C1532 1.403 . S
C1535 C1536 1.524 . S
C1535 C1539 1.400 . S
C1536 H1521 0.960 . S
C1536 H1522 0.960 . S
C1536 H1523 0.960 . S
C1536 C1535 1.524 . S
C1537 C1534 1.403 . S
C1537 C1538 1.392 . S
C1537 C1541 1.495 . S
C1538 C1537 1.392 . S
C1538 C1539 1.385 . S
C1538 C1540 1.478 . S
C1539 H1533 0.930 . S
C1539 C1535 1.400 . S
C1539 C1538 1.385 . S
C1540 C1538 1.478 . S
C1540 C1542 1.381 . S
C1540 C1546 1.383 . S
C1541 C1537 1.495 . S
C1541 H1547 0.959 . S
C1541 H1548 0.961 . S
C1541 H1549 0.960 . S
C1542 C1540 1.381 . S
C1542 C1543 1.394 . S
C1542 H1550 0.930 . S
C1543 C1542 1.394 . S
C1543 C1544 1.383 . S
C1543 H1551 0.929 . S
C1544 C1543 1.383 . S
C1544 C1545 1.377 . S
C1545 H1529 0.930 . S
C1545 C1544 1.377 . S
C1545 C1546 1.379 . S
C1546 H1530 0.931 . S
C1546 C1540 1.383 . S
C1546 C1545 1.379 . S
H1547 C1541 0.959 . S
H1548 C1541 0.961 . S
H1549 C1541 0.960 . S
H1550 C1542 0.930 . S
H1551 C1543 0.929 . S
H1552 C1560 0.929 . S
H1553 C1562 0.930 . S
H1554 C1564 0.930 . S
H1555 C1567 0.929 . S
H1556 C1570 0.930 . S
H1557 C1572 0.960 . S
H1558 C1572 0.960 . S
H1559 C1572 0.960 . S
C1560 H1552 0.929 . S
C1560 C1561 1.377 . S
C1560 C1562 1.384 . S
C1561 C1560 1.377 . S
C1561 C1567 1.390 . S
C1562 H1553 0.930 . S
C1562 C1560 1.384 . S
C1562 C1563 1.372 . S
C1563 C1562 1.372 . S
C1563 C1564 1.400 . S
C1563 C1568 1.490 . S
C1564 H1554 0.930 . S
C1564 C1563 1.400 . S
C1564 C1567 1.386 . S
H1565 C1581 0.930 . S
H1566 C1582 0.931 . S
C1567 H1555 0.929 . S
C1567 C1561 1.390 . S
C1567 C1564 1.386 . S
C1568 C1563 1.490 . S
C1568 C1570 1.395 . S
C1568 C1571 1.403 . S
H1569 C1575 0.930 . S
C1570 H1556 0.930 . S
C1570 C1568 1.395 . S
C1570 C1573 1.403 . S
C1571 C1568 1.403 . S
C1571 C1572 1.524 . S
C1571 C1575 1.400 . S
C1572 H1557 0.960 . S
C1572 H1558 0.960 . S
C1572 H1559 0.960 . S
C1572 C1571 1.524 . S
C1573 C1570 1.403 . S
C1573 C1574 1.392 . S
C1573 C1577 1.495 . S
C1574 C1573 1.392 . S
C1574 C1575 1.385 . S
C1574 C1576 1.478 . S
C1575 H1569 0.930 . S
C1575 C1571 1.400 . S
C1575 C1574 1.385 . S
C1576 C1574 1.478 . S
C1576 C1578 1.381 . S
C1576 C1582 1.383 . S
C1577 C1573 1.495 . S
C1577 H1583 0.959 . S
C1577 H1584 0.961 . S
C1577 H1585 0.960 . S
C1578 C1576 1.381 . S
C1578 C1579 1.394 . S
C1578 H1586 0.930 . S
C1579 C1578 1.394 . S
C1579 C1580 1.383 . S
C1579 H1587 0.929 . S
C1580 C1579 1.383 . S
C1580 C1581 1.377 . S
C1581 H1565 0.930 . S
C1581 C1580 1.377 . S
C1581 C1582 1.379 . S
C1582 H1566 0.931 . S
C1582 C1576 1.383 . S
C1582 C1581 1.379 . S
H1583 C1577 0.959 . S
H1584 C1577 0.961 . S
H1585 C1577 0.960 . S
H1586 C1578 0.930 . S
H1587 C1579 0.929 . S
H1588 C1596 0.929 . S
H1589 C1598 0.930 . S
H1590 C1600 0.930 . S
H1591 C1603 0.929 . S
H1592 C1606 0.930 . S
H1593 C1608 0.960 . S
H1594 C1608 0.960 . S
H1595 C1608 0.960 . S
C1596 H1588 0.929 . S
C1596 C1597 1.377 . S
C1596 C1598 1.384 . S
C1597 C1596 1.377 . S
C1597 C1603 1.390 . S
C1598 H1589 0.930 . S
C1598 C1596 1.384 . S
C1598 C1599 1.372 . S
C1599 C1598 1.372 . S
C1599 C1600 1.400 . S
C1599 C1604 1.490 . S
C1600 H1590 0.930 . S
C1600 C1599 1.400 . S
C1600 C1603 1.386 . S
H1601 C1617 0.930 . S
H1602 C1618 0.931 . S
C1603 H1591 0.929 . S
C1603 C1597 1.390 . S
C1603 C1600 1.386 . S
C1604 C1599 1.490 . S
C1604 C1606 1.395 . S
C1604 C1607 1.403 . S
H1605 C1611 0.930 . S
C1606 H1592 0.930 . S
C1606 C1604 1.395 . S
C1606 C1609 1.403 . S
C1607 C1604 1.403 . S
C1607 C1608 1.524 . S
C1607 C1611 1.400 . S
C1608 H1593 0.960 . S
C1608 H1594 0.960 . S
C1608 H1595 0.960 . S
C1608 C1607 1.524 . S
C1609 C1606 1.403 . S
C1609 C1610 1.392 . S
C1609 C1613 1.495 . S
C1610 C1609 1.392 . S
C1610 C1611 1.385 . S
C1610 C1612 1.478 . S
C1611 H1605 0.930 . S
C1611 C1607 1.400 . S
C1611 C1610 1.385 . S
C1612 C1610 1.478 . S
C1612 C1614 1.381 . S
C1612 C1618 1.383 . S
C1613 C1609 1.495 . S
C1613 H1619 0.959 . S
C1613 H1620 0.961 . S
C1613 H1621 0.960 . S
C1614 C1612 1.381 . S
C1614 C1615 1.394 . S
C1614 H1622 0.930 . S
C1615 C1614 1.394 . S
C1615 C1616 1.383 . S
C1615 H1623 0.929 . S
C1616 C1615 1.383 . S
C1616 C1617 1.377 . S
C1617 H1601 0.930 . S
C1617 C1616 1.377 . S
C1617 C1618 1.379 . S
C1618 H1602 0.931 . S
C1618 C1612 1.383 . S
C1618 C1617 1.379 . S
H1619 C1613 0.959 . S
H1620 C1613 0.961 . S
H1621 C1613 0.960 . S
H1622 C1614 0.930 . S
H1623 C1615 0.929 . S
H1624 C1632 0.929 . S
H1625 C1634 0.930 . S
H1626 C1636 0.930 . S
H1627 C1639 0.929 . S
H1628 C1642 0.930 . S
H1629 C1644 0.960 . S
H1630 C1644 0.960 . S
H1631 C1644 0.960 . S
C1632 H1624 0.929 . S
C1632 C1633 1.377 . S
C1632 C1634 1.384 . S
C1633 C1632 1.377 . S
C1633 C1639 1.390 . S
C1634 H1625 0.930 . S
C1634 C1632 1.384 . S
C1634 C1635 1.372 . S
C1635 C1634 1.372 . S
C1635 C1636 1.400 . S
C1635 C1640 1.490 . S
C1636 H1626 0.930 . S
C1636 C1635 1.400 . S
C1636 C1639 1.386 . S
H1637 C1653 0.930 . S
H1638 C1654 0.931 . S
C1639 H1627 0.929 . S
C1639 C1633 1.390 . S
C1639 C1636 1.386 . S
C1640 C1635 1.490 . S
C1640 C1642 1.395 . S
C1640 C1643 1.403 . S
H1641 C1647 0.930 . S
C1642 H1628 0.930 . S
C1642 C1640 1.395 . S
C1642 C1645 1.403 . S
C1643 C1640 1.403 . S
C1643 C1644 1.524 . S
C1643 C1647 1.400 . S
C1644 H1629 0.960 . S
C1644 H1630 0.960 . S
C1644 H1631 0.960 . S
C1644 C1643 1.524 . S
C1645 C1642 1.403 . S
C1645 C1646 1.392 . S
C1645 C1649 1.495 . S
C1646 C1645 1.392 . S
C1646 C1647 1.385 . S
C1646 C1648 1.478 . S
C1647 H1641 0.930 . S
C1647 C1643 1.400 . S
C1647 C1646 1.385 . S
C1648 C1646 1.478 . S
C1648 C1650 1.381 . S
C1648 C1654 1.383 . S
C1649 C1645 1.495 . S
C1649 H1655 0.959 . S
C1649 H1656 0.961 . S
C1649 H1657 0.960 . S
C1650 C1648 1.381 . S
C1650 C1651 1.394 . S
C1650 H1658 0.930 . S
C1651 C1650 1.394 . S
C1651 C1652 1.383 . S
C1651 H1659 0.929 . S
C1652 C1651 1.383 . S
C1652 C1653 1.377 . S
C1653 H1637 0.930 . S
C1653 C1652 1.377 . S
C1653 C1654 1.379 . S
C1654 H1638 0.931 . S
C1654 C1648 1.383 . S
C1654 C1653 1.379 . S
H1655 C1649 0.959 . S
H1656 C1649 0.961 . S
H1657 C1649 0.960 . S
H1658 C1650 0.930 . S
H1659 C1651 0.929 . S
H1660 C1668 0.929 . S
H1661 C1670 0.930 . S
H1662 C1672 0.930 . S
H1663 C1675 0.929 . S
H1664 C1678 0.930 . S
H1665 C1680 0.960 . S
H1666 C1680 0.960 . S
H1667 C1680 0.960 . S
C1668 H1660 0.929 . S
C1668 C1669 1.377 . S
C1668 C1670 1.384 . S
C1669 C1668 1.377 . S
C1669 C1675 1.390 . S
C1670 H1661 0.930 . S
C1670 C1668 1.384 . S
C1670 C1671 1.372 . S
C1671 C1670 1.372 . S
C1671 C1672 1.400 . S
C1671 C1676 1.490 . S
C1672 H1662 0.930 . S
C1672 C1671 1.400 . S
C1672 C1675 1.386 . S
H1673 C1689 0.930 . S
H1674 C1690 0.931 . S
C1675 H1663 0.929 . S
C1675 C1669 1.390 . S
C1675 C1672 1.386 . S
C1676 C1671 1.490 . S
C1676 C1678 1.395 . S
C1676 C1679 1.403 . S
H1677 C1683 0.930 . S
C1678 H1664 0.930 . S
C1678 C1676 1.395 . S
C1678 C1681 1.403 . S
C1679 C1676 1.403 . S
C1679 C1680 1.524 . S
C1679 C1683 1.400 . S
C1680 H1665 0.960 . S
C1680 H1666 0.960 . S
C1680 H1667 0.960 . S
C1680 C1679 1.524 . S
C1681 C1678 1.403 . S
C1681 C1682 1.392 . S
C1681 C1685 1.495 . S
C1682 C1681 1.392 . S
C1682 C1683 1.385 . S
C1682 C1684 1.478 . S
C1683 H1677 0.930 . S
C1683 C1679 1.400 . S
C1683 C1682 1.385 . S
C1684 C1682 1.478 . S
C1684 C1686 1.381 . S
C1684 C1690 1.383 . S
C1685 C1681 1.495 . S
C1685 H1691 0.959 . S
C1685 H1692 0.961 . S
C1685 H1693 0.960 . S
C1686 C1684 1.381 . S
C1686 C1687 1.394 . S
C1686 H1694 0.930 . S
C1687 C1686 1.394 . S
C1687 C1688 1.383 . S
C1687 H1695 0.929 . S
C1688 C1687 1.383 . S
C1688 C1689 1.377 . S
C1689 H1673 0.930 . S
C1689 C1688 1.377 . S
C1689 C1690 1.379 . S
C1690 H1674 0.931 . S
C1690 C1684 1.383 . S
C1690 C1689 1.379 . S
H1691 C1685 0.959 . S
H1692 C1685 0.961 . S
H1693 C1685 0.960 . S
H1694 C1686 0.930 . S
H1695 C1687 0.929 . S
H1696 C1704 0.929 . S
H1697 C1706 0.930 . S
H1698 C1708 0.930 . S
H1699 C1711 0.929 . S
H1700 C1714 0.930 . S
H1701 C1716 0.960 . S
H1702 C1716 0.960 . S
H1703 C1716 0.960 . S
C1704 H1696 0.929 . S
C1704 C1705 1.377 . S
C1704 C1706 1.384 . S
C1705 C1704 1.377 . S
C1705 C1711 1.390 . S
C1706 H1697 0.930 . S
C1706 C1704 1.384 . S
C1706 C1707 1.372 . S
C1707 C1706 1.372 . S
C1707 C1708 1.400 . S
C1707 C1712 1.490 . S
C1708 H1698 0.930 . S
C1708 C1707 1.400 . S
C1708 C1711 1.386 . S
H1709 C1725 0.930 . S
H1710 C1726 0.931 . S
C1711 H1699 0.929 . S
C1711 C1705 1.390 . S
C1711 C1708 1.386 . S
C1712 C1707 1.490 . S
C1712 C1714 1.395 . S
C1712 C1715 1.403 . S
H1713 C1719 0.930 . S
C1714 H1700 0.930 . S
C1714 C1712 1.395 . S
C1714 C1717 1.403 . S
C1715 C1712 1.403 . S
C1715 C1716 1.524 . S
C1715 C1719 1.400 . S
C1716 H1701 0.960 . S
C1716 H1702 0.960 . S
C1716 H1703 0.960 . S
C1716 C1715 1.524 . S
C1717 C1714 1.403 . S
C1717 C1718 1.392 . S
C1717 C1721 1.495 . S
C1718 C1717 1.392 . S
C1718 C1719 1.385 . S
C1718 C1720 1.478 . S
C1719 H1713 0.930 . S
C1719 C1715 1.400 . S
C1719 C1718 1.385 . S
C1720 C1718 1.478 . S
C1720 C1722 1.381 . S
C1720 C1726 1.383 . S
C1721 C1717 1.495 . S
C1721 H1727 0.959 . S
C1721 H1728 0.961 . S
C1721 H1729 0.960 . S
C1722 C1720 1.381 . S
C1722 C1723 1.394 . S
C1722 H1730 0.930 . S
C1723 C1722 1.394 . S
C1723 C1724 1.383 . S
C1723 H1731 0.929 . S
C1724 C1723 1.383 . S
C1724 C1725 1.377 . S
C1725 H1709 0.930 . S
C1725 C1724 1.377 . S
C1725 C1726 1.379 . S
C1726 H1710 0.931 . S
C1726 C1720 1.383 . S
C1726 C1725 1.379 . S
H1727 C1721 0.959 . S
H1728 C1721 0.961 . S
H1729 C1721 0.960 . S
H1730 C1722 0.930 . S
H1731 C1723 0.929 . S
H1732 C1740 0.929 . S
H1733 C1742 0.930 . S
H1734 C1744 0.930 . S
H1735 C1747 0.929 . S
H1736 C1750 0.930 . S
H1737 C1752 0.960 . S
H1738 C1752 0.960 . S
H1739 C1752 0.960 . S
C1740 H1732 0.929 . S
C1740 C1741 1.377 . S
C1740 C1742 1.384 . S
C1741 C1740 1.377 . S
C1741 C1747 1.390 . S
C1742 H1733 0.930 . S
C1742 C1740 1.384 . S
C1742 C1743 1.372 . S
C1743 C1742 1.372 . S
C1743 C1744 1.400 . S
C1743 C1748 1.490 . S
C1744 H1734 0.930 . S
C1744 C1743 1.400 . S
C1744 C1747 1.386 . S
H1745 C1761 0.930 . S
H1746 C1762 0.931 . S
C1747 H1735 0.929 . S
C1747 C1741 1.390 . S
C1747 C1744 1.386 . S
C1748 C1743 1.490 . S
C1748 C1750 1.395 . S
C1748 C1751 1.403 . S
H1749 C1755 0.930 . S
C1750 H1736 0.930 . S
C1750 C1748 1.395 . S
C1750 C1753 1.403 . S
C1751 C1748 1.403 . S
C1751 C1752 1.524 . S
C1751 C1755 1.400 . S
C1752 H1737 0.960 . S
C1752 H1738 0.960 . S
C1752 H1739 0.960 . S
C1752 C1751 1.524 . S
C1753 C1750 1.403 . S
C1753 C1754 1.392 . S
C1753 C1757 1.495 . S
C1754 C1753 1.392 . S
C1754 C1755 1.385 . S
C1754 C1756 1.478 . S
C1755 H1749 0.930 . S
C1755 C1751 1.400 . S
C1755 C1754 1.385 . S
C1756 C1754 1.478 . S
C1756 C1758 1.381 . S
C1756 C1762 1.383 . S
C1757 C1753 1.495 . S
C1757 H1763 0.959 . S
C1757 H1764 0.961 . S
C1757 H1765 0.960 . S
C1758 C1756 1.381 . S
C1758 C1759 1.394 . S
C1758 H1766 0.930 . S
C1759 C1758 1.394 . S
C1759 C1760 1.383 . S
C1759 H1767 0.929 . S
C1760 C1759 1.383 . S
C1760 C1761 1.377 . S
C1761 H1745 0.930 . S
C1761 C1760 1.377 . S
C1761 C1762 1.379 . S
C1762 H1746 0.931 . S
C1762 C1756 1.383 . S
C1762 C1761 1.379 . S
H1763 C1757 0.959 . S
H1764 C1757 0.961 . S
H1765 C1757 0.960 . S
H1766 C1758 0.930 . S
H1767 C1759 0.929 . S
H1768 C1776 0.929 . S
H1769 C1778 0.930 . S
H1770 C1780 0.930 . S
H1771 C1783 0.929 . S
H1772 C1786 0.930 . S
H1773 C1788 0.960 . S
H1774 C1788 0.960 . S
H1775 C1788 0.960 . S
C1776 H1768 0.929 . S
C1776 C1777 1.377 . S
C1776 C1778 1.384 . S
C1777 C1776 1.377 . S
C1777 C1783 1.390 . S
C1778 H1769 0.930 . S
C1778 C1776 1.384 . S
C1778 C1779 1.372 . S
C1779 C1778 1.372 . S
C1779 C1780 1.400 . S
C1779 C1784 1.490 . S
C1780 H1770 0.930 . S
C1780 C1779 1.400 . S
C1780 C1783 1.386 . S
H1781 C1797 0.930 . S
H1782 C1798 0.931 . S
C1783 H1771 0.929 . S
C1783 C1777 1.390 . S
C1783 C1780 1.386 . S
C1784 C1779 1.490 . S
C1784 C1786 1.395 . S
C1784 C1787 1.403 . S
H1785 C1791 0.930 . S
C1786 H1772 0.930 . S
C1786 C1784 1.395 . S
C1786 C1789 1.403 . S
C1787 C1784 1.403 . S
C1787 C1788 1.524 . S
C1787 C1791 1.400 . S
C1788 H1773 0.960 . S
C1788 H1774 0.960 . S
C1788 H1775 0.960 . S
C1788 C1787 1.524 . S
C1789 C1786 1.403 . S
C1789 C1790 1.392 . S
C1789 C1793 1.495 . S
C1790 C1789 1.392 . S
C1790 C1791 1.385 . S
C1790 C1792 1.478 . S
C1791 H1785 0.930 . S
C1791 C1787 1.400 . S
C1791 C1790 1.385 . S
C1792 C1790 1.478 . S
C1792 C1794 1.381 . S
C1792 C1798 1.383 . S
C1793 C1789 1.495 . S
C1793 H1799 0.959 . S
C1793 H1800 0.961 . S
C1793 H1801 0.960 . S
C1794 C1792 1.381 . S
C1794 C1795 1.394 . S
C1794 H1802 0.930 . S
C1795 C1794 1.394 . S
C1795 C1796 1.383 . S
C1795 H1803 0.929 . S
C1796 C1795 1.383 . S
C1796 C1797 1.377 . S
C1797 H1781 0.930 . S
C1797 C1796 1.377 . S
C1797 C1798 1.379 . S
C1798 H1782 0.931 . S
C1798 C1792 1.383 . S
C1798 C1797 1.379 . S
H1799 C1793 0.959 . S
H1800 C1793 0.961 . S
H1801 C1793 0.960 . S
H1802 C1794 0.930 . S
H1803 C1795 0.929 . S
H1804 C1812 0.929 . S
H1805 C1814 0.930 . S
H1806 C1816 0.930 . S
H1807 C1819 0.929 . S
H1808 C1822 0.930 . S
H1809 C1824 0.960 . S
H1810 C1824 0.960 . S
H1811 C1824 0.960 . S
C1812 H1804 0.929 . S
C1812 C1813 1.377 . S
C1812 C1814 1.384 . S
C1813 C1812 1.377 . S
C1813 C1819 1.390 . S
C1814 H1805 0.930 . S
C1814 C1812 1.384 . S
C1814 C1815 1.372 . S
C1815 C1814 1.372 . S
C1815 C1816 1.400 . S
C1815 C1820 1.490 . S
C1816 H1806 0.930 . S
C1816 C1815 1.400 . S
C1816 C1819 1.386 . S
H1817 C1833 0.930 . S
H1818 C1834 0.931 . S
C1819 H1807 0.929 . S
C1819 C1813 1.390 . S
C1819 C1816 1.386 . S
C1820 C1815 1.490 . S
C1820 C1822 1.395 . S
C1820 C1823 1.403 . S
H1821 C1827 0.930 . S
C1822 H1808 0.930 . S
C1822 C1820 1.395 . S
C1822 C1825 1.403 1_554 S
C1823 C1820 1.403 . S
C1823 C1824 1.524 . S
C1823 C1827 1.400 1_554 S
C1824 H1809 0.960 . S
C1824 H1810 0.960 . S
C1824 H1811 0.960 . S
C1824 C1823 1.524 . S
C1825 C1822 1.403 1_556 S
C1825 C1826 1.392 . S
C1825 C1829 1.495 . S
C1826 C1825 1.392 . S
C1826 C1827 1.385 . S
C1826 C1828 1.478 . S
C1827 H1821 0.930 . S
C1827 C1823 1.400 1_556 S
C1827 C1826 1.385 . S
C1828 C1826 1.478 . S
C1828 C1830 1.381 . S
C1828 C1834 1.383 . S
C1829 C1825 1.495 . S
C1829 H1835 0.959 . S
C1829 H1836 0.961 . S
C1829 H1837 0.960 . S
C1830 C1828 1.381 . S
C1830 C1831 1.394 . S
C1830 H1838 0.930 . S
C1831 C1830 1.394 . S
C1831 C1832 1.383 . S
C1831 H1839 0.929 . S
C1832 C1831 1.383 . S
C1832 C1833 1.377 . S
C1833 H1817 0.930 . S
C1833 C1832 1.377 . S
C1833 C1834 1.379 . S
C1834 H1818 0.931 . S
C1834 C1828 1.383 . S
C1834 C1833 1.379 . S
H1835 C1829 0.959 . S
H1836 C1829 0.961 . S
H1837 C1829 0.960 . S
H1838 C1830 0.930 . S
H1839 C1831 0.929 . S
H1840 C1848 0.929 . S
H1841 C1850 0.930 . S
H1842 C1852 0.930 . S
H1843 C1855 0.929 . S
H1844 C1858 0.930 . S
H1845 C1860 1.014 . S
H1846 C1860 0.960 . S
H1847 C1860 0.960 . S
C1848 H1840 0.929 . S
C1848 C1849 1.377 . S
C1848 C1850 1.384 . S
C1849 C1848 1.377 . S
C1849 C1855 1.390 . S
C1850 H1841 0.930 . S
C1850 C1848 1.384 . S
C1850 C1851 1.372 . S
C1851 C1850 1.372 . S
C1851 C1852 1.400 . S
C1851 C1856 1.490 . S
C1852 H1842 0.930 . S
C1852 C1851 1.400 . S
C1852 C1855 1.386 . S
H1853 C1869 0.930 . S
H1854 C1870 0.931 . S
C1855 H1843 0.929 . S
C1855 C1849 1.390 . S
C1855 C1852 1.386 . S
C1856 C1851 1.490 . S
C1856 C1858 1.395 . S
C1856 C1859 1.403 . S
H1857 C1863 0.930 . S
C1858 H1844 0.930 . S
C1858 C1856 1.395 . S
C1858 C1861 1.403 1_554 S
C1859 C1856 1.403 . S
C1859 C1860 1.524 . S
C1859 C1863 1.400 1_554 S
C1860 H1845 1.014 . S
C1860 H1846 0.960 . S
C1860 H1847 0.960 . S
C1860 C1859 1.524 . S
C1861 C1858 1.403 1_556 S
C1861 C1862 1.392 . S
C1861 C1865 1.495 . S
C1862 C1861 1.392 . S
C1862 C1863 1.385 . S
C1862 C1864 1.478 . S
C1863 H1857 0.930 . S
C1863 C1859 1.400 1_556 S
C1863 C1862 1.385 . S
C1864 C1862 1.478 . S
C1864 C1866 1.381 . S
C1864 C1870 1.383 . S
C1865 C1861 1.495 . S
C1865 H1871 1.016 . S
C1865 H1872 0.961 . S
C1865 H1873 0.960 . S
C1866 C1864 1.381 . S
C1866 C1867 1.394 . S
C1866 H1874 0.930 . S
C1867 C1866 1.394 . S
C1867 C1868 1.383 . S
C1867 H1875 0.929 . S
C1868 C1867 1.383 . S
C1868 C1869 1.377 . S
C1869 H1853 0.930 . S
C1869 C1868 1.377 . S
C1869 C1870 1.379 . S
C1870 H1854 0.931 . S
C1870 C1864 1.383 . S
C1870 C1869 1.379 . S
H1871 C1865 1.016 . S
H1872 C1865 0.961 . S
H1873 C1865 0.960 . S
H1874 C1866 0.930 . S
H1875 C1867 0.929 . S
H1876 C1884 0.929 . S
H1877 C1886 0.930 . S
H1878 C1888 0.930 . S
H1879 C1891 0.929 . S
H1880 C1894 0.930 . S
H1881 C1896 0.960 . S
H1882 C1896 0.960 . S
H1883 C1896 0.960 . S
C1884 H1876 0.929 . S
C1884 C1885 1.377 . S
C1884 C1886 1.384 . S
C1885 C1884 1.377 . S
C1885 C1891 1.390 . S
C1886 H1877 0.930 . S
C1886 C1884 1.384 . S
C1886 C1887 1.372 . S
C1887 C1886 1.372 . S
C1887 C1888 1.400 . S
C1887 C1892 1.490 . S
C1888 H1878 0.930 . S
C1888 C1887 1.400 . S
C1888 C1891 1.386 . S
H1889 C1905 0.930 . S
H1890 C1906 0.931 . S
C1891 H1879 0.929 . S
C1891 C1885 1.390 . S
C1891 C1888 1.386 . S
C1892 C1887 1.490 . S
C1892 C1894 1.395 . S
C1892 C1895 1.403 . S
H1893 C1899 0.930 . S
C1894 H1880 0.930 . S
C1894 C1892 1.395 . S
C1894 C1897 1.403 . S
C1895 C1892 1.403 . S
C1895 C1896 1.524 . S
C1895 C1899 1.400 . S
C1896 H1881 0.960 . S
C1896 H1882 0.960 . S
C1896 H1883 0.960 . S
C1896 C1895 1.524 . S
C1897 C1894 1.403 . S
C1897 C1898 1.392 . S
C1897 C1901 1.495 . S
C1898 C1897 1.392 . S
C1898 C1899 1.385 . S
C1898 C1900 1.478 . S
C1899 H1893 0.930 . S
C1899 C1895 1.400 . S
C1899 C1898 1.385 . S
C1900 C1898 1.478 . S
C1900 C1902 1.381 . S
C1900 C1906 1.383 . S
C1901 C1897 1.495 . S
C1901 H1907 0.959 . S
C1901 H1908 0.961 . S
C1901 H1909 0.960 . S
C1902 C1900 1.381 . S
C1902 C1903 1.394 . S
C1902 H1910 0.930 . S
C1903 C1902 1.394 . S
C1903 C1904 1.383 . S
C1903 H1911 0.929 . S
C1904 C1903 1.383 . S
C1904 C1905 1.377 . S
C1905 H1889 0.930 . S
C1905 C1904 1.377 . S
C1905 C1906 1.379 . S
C1906 H1890 0.931 . S
C1906 C1900 1.383 . S
C1906 C1905 1.379 . S
H1907 C1901 0.959 . S
H1908 C1901 0.961 . S
H1909 C1901 0.960 . S
H1910 C1902 0.930 . S
H1911 C1903 0.929 . S
H1912 C1920 0.929 . S
H1913 C1922 0.930 . S
H1914 C1924 0.930 . S
H1915 C1927 0.929 . S
H1916 C1930 0.930 . S
H1917 C1932 0.960 . S
H1918 C1932 0.960 . S
H1919 C1932 0.960 . S
C1920 H1912 0.929 . S
C1920 C1921 1.377 . S
C1920 C1922 1.384 . S
C1921 C1920 1.377 . S
C1921 C1927 1.390 . S
C1922 H1913 0.930 . S
C1922 C1920 1.384 . S
C1922 C1923 1.372 . S
C1923 C1922 1.372 . S
C1923 C1924 1.400 . S
C1923 C1928 1.490 . S
C1924 H1914 0.930 . S
C1924 C1923 1.400 . S
C1924 C1927 1.386 . S
H1925 C1941 0.930 . S
H1926 C1942 0.931 . S
C1927 H1915 0.929 . S
C1927 C1921 1.390 . S
C1927 C1924 1.386 . S
C1928 C1923 1.490 . S
C1928 C1930 1.395 . S
C1928 C1931 1.403 . S
H1929 C1935 0.930 . S
C1930 H1916 0.930 . S
C1930 C1928 1.395 . S
C1930 C1933 1.403 . S
C1931 C1928 1.403 . S
C1931 C1932 1.524 . S
C1931 C1935 1.400 . S
C1932 H1917 0.960 . S
C1932 H1918 0.960 . S
C1932 H1919 0.960 . S
C1932 C1931 1.524 . S
C1933 C1930 1.403 . S
C1933 C1934 1.392 . S
C1933 C1937 1.495 . S
C1934 C1933 1.392 . S
C1934 C1935 1.385 . S
C1934 C1936 1.478 . S
C1935 H1929 0.930 . S
C1935 C1931 1.400 . S
C1935 C1934 1.385 . S
C1936 C1934 1.478 . S
C1936 C1938 1.381 . S
C1936 C1942 1.383 . S
C1937 C1933 1.495 . S
C1937 H1943 0.959 . S
C1937 H1944 0.961 . S
C1937 H1945 0.960 . S
C1938 C1936 1.381 . S
C1938 C1939 1.394 . S
C1938 H1946 0.930 . S
C1939 C1938 1.394 . S
C1939 C1940 1.383 . S
C1939 H1947 0.929 . S
C1940 C1939 1.383 . S
C1940 C1941 1.377 . S
C1941 H1925 0.930 . S
C1941 C1940 1.377 . S
C1941 C1942 1.379 . S
C1942 H1926 0.931 . S
C1942 C1936 1.383 . S
C1942 C1941 1.379 . S
H1943 C1937 0.959 . S
H1944 C1937 0.961 . S
H1945 C1937 0.960 . S
H1946 C1938 0.930 . S
H1947 C1939 0.929 . S
H1948 C1956 0.929 . S
H1949 C1958 0.930 . S
H1950 C1960 0.930 . S
H1951 C1963 0.929 . S
H1952 C1966 0.930 . S
H1953 C1968 0.960 . S
H1954 C1968 0.960 . S
H1955 C1968 0.960 . S
C1956 H1948 0.929 . S
C1956 C1957 1.377 . S
C1956 C1958 1.384 . S
C1957 C1956 1.377 . S
C1957 C1963 1.390 . S
C1958 H1949 0.930 . S
C1958 C1956 1.384 . S
C1958 C1959 1.372 . S
C1959 C1958 1.372 . S
C1959 C1960 1.400 . S
C1959 C1964 1.490 . S
C1960 H1950 0.930 . S
C1960 C1959 1.400 . S
C1960 C1963 1.386 . S
H1961 C1977 0.930 . S
H1962 C1978 0.931 . S
C1963 H1951 0.929 . S
C1963 C1957 1.390 . S
C1963 C1960 1.386 . S
C1964 C1959 1.490 . S
C1964 C1966 1.395 . S
C1964 C1967 1.403 . S
H1965 C1971 0.930 . S
C1966 H1952 0.930 . S
C1966 C1964 1.395 . S
C1966 C1969 1.403 . S
C1967 C1964 1.403 . S
C1967 C1968 1.524 . S
C1967 C1971 1.400 . S
C1968 H1953 0.960 . S
C1968 H1954 0.960 . S
C1968 H1955 0.960 . S
C1968 C1967 1.524 . S
C1969 C1966 1.403 . S
C1969 C1970 1.392 . S
C1969 C1973 1.495 . S
C1970 C1969 1.392 . S
C1970 C1971 1.385 . S
C1970 C1972 1.478 . S
C1971 H1965 0.930 . S
C1971 C1967 1.400 . S
C1971 C1970 1.385 . S
C1972 C1970 1.478 . S
C1972 C1974 1.381 . S
C1972 C1978 1.383 . S
C1973 C1969 1.495 . S
C1973 H1979 0.959 . S
C1973 H1980 0.961 . S
C1973 H1981 0.960 . S
C1974 C1972 1.381 . S
C1974 C1975 1.394 . S
C1974 H1982 0.930 . S
C1975 C1974 1.394 . S
C1975 C1976 1.383 . S
C1975 H1983 0.929 . S
C1976 C1975 1.383 . S
C1976 C1977 1.377 . S
C1977 H1961 0.930 . S
C1977 C1976 1.377 . S
C1977 C1978 1.379 . S
C1978 H1962 0.931 . S
C1978 C1972 1.383 . S
C1978 C1977 1.379 . S
H1979 C1973 0.959 . S
H1980 C1973 0.961 . S
H1981 C1973 0.960 . S
H1982 C1974 0.930 . S
H1983 C1975 0.929 . S
H1984 C1992 0.929 . S
H1985 C1994 0.930 . S
H1986 C1996 0.930 1_565 S
H1987 C1999 0.929 . S
H1988 C2002 0.930 . S
H1989 C2004 0.960 . S
H1990 C2004 0.960 . S
H1991 C2004 0.960 . S
C1992 H1984 0.929 . S
C1992 C1993 1.377 . S
C1992 C1994 1.384 . S
C1993 C1992 1.377 . S
C1993 C1999 1.390 . S
C1994 H1985 0.930 . S
C1994 C1992 1.384 . S
C1994 C1995 1.372 . S
C1995 C1994 1.372 . S
C1995 C1996 1.400 . S
C1995 C2000 1.490 . S
C1996 H1986 0.930 1_545 S
C1996 C1995 1.400 . S
C1996 C1999 1.386 . S
H1997 C2013 0.930 . S
H1998 C2014 0.931 . S
C1999 H1987 0.929 . S
C1999 C1993 1.390 . S
C1999 C1996 1.386 . S
C2000 C1995 1.490 . S
C2000 C2002 1.395 . S
C2000 C2003 1.403 1_545 S
H2001 C2007 0.930 . S
C2002 H1988 0.930 . S
C2002 C2000 1.395 . S
C2002 C2005 1.403 1_455 S
C2003 C2000 1.403 1_565 S
C2003 C2004 1.524 . S
C2003 C2007 1.400 1_455 S
C2004 H1989 0.960 . S
C2004 H1990 0.960 . S
C2004 H1991 0.960 . S
C2004 C2003 1.524 . S
C2005 C2002 1.403 1_655 S
C2005 C2006 1.392 1_545 S
C2005 C2009 1.495 . S
C2006 C2005 1.392 1_565 S
C2006 C2007 1.385 . S
C2006 C2008 1.478 . S
C2007 H2001 0.930 . S
C2007 C2003 1.400 1_655 S
C2007 C2006 1.385 . S
C2008 C2006 1.478 . S
C2008 C2010 1.381 . S
C2008 C2014 1.383 . S
C2009 C2005 1.495 . S
C2009 H2015 0.959 . S
C2009 H2016 0.961 . S
C2009 H2017 0.960 . S
C2010 C2008 1.381 . S
C2010 C2011 1.394 . S
C2010 H2018 0.930 1_565 S
C2011 C2010 1.394 . S
C2011 C2012 1.383 . S
C2011 H2019 0.929 . S
C2012 C2011 1.383 . S
C2012 C2013 1.377 . S
C2013 H1997 0.930 . S
C2013 C2012 1.377 . S
C2013 C2014 1.379 . S
C2014 H1998 0.931 . S
C2014 C2008 1.383 . S
C2014 C2013 1.379 . S
H2015 C2009 0.959 . S
H2016 C2009 0.961 . S
H2017 C2009 0.960 . S
H2018 C2010 0.930 1_545 S
H2019 C2011 0.929 . S
H2020 C2028 0.929 . S
H2021 C2030 0.930 . S
H2022 C2032 0.930 1_655 S
H2023 C2035 0.929 . S
H2024 C2038 0.930 . S
H2025 C2040 0.960 . S
H2026 C2040 0.960 . S
H2027 C2040 0.960 . S
C2028 H2020 0.929 . S
C2028 C2029 1.377 . S
C2028 C2030 1.384 . S
C2029 C2028 1.377 . S
C2029 C2035 1.390 . S
C2030 H2021 0.930 . S
C2030 C2028 1.384 . S
C2030 C2031 1.372 . S
C2031 C2030 1.372 . S
C2031 C2032 1.400 . S
C2031 C2036 1.490 . S
C2032 H2022 0.930 1_455 S
C2032 C2031 1.400 . S
C2032 C2035 1.386 . S
H2033 C2049 0.930 . S
H2034 C2050 0.931 . S
C2035 H2023 0.929 . S
C2035 C2029 1.390 . S
C2035 C2032 1.386 . S
C2036 C2031 1.490 . S
C2036 C2038 1.395 . S
C2036 C2039 1.403 1_455 S
H2037 C2043 0.930 . S
C2038 H2024 0.930 . S
C2038 C2036 1.395 . S
C2038 C2041 1.403 . S
C2039 C2036 1.403 1_655 S
C2039 C2040 1.524 . S
C2039 C2043 1.400 . S
C2040 H2025 0.960 . S
C2040 H2026 0.960 . S
C2040 H2027 0.960 . S
C2040 C2039 1.524 . S
C2041 C2038 1.403 . S
C2041 C2042 1.392 1_455 S
C2041 C2045 1.495 . S
C2042 C2041 1.392 1_655 S
C2042 C2043 1.385 . S
C2042 C2044 1.478 . S
C2043 H2037 0.930 . S
C2043 C2039 1.400 . S
C2043 C2042 1.385 . S
C2044 C2042 1.478 . S
C2044 C2046 1.381 . S
C2044 C2050 1.383 . S
C2045 C2041 1.495 . S
C2045 H2051 0.959 . S
C2045 H2052 0.961 . S
C2045 H2053 0.960 . S
C2046 C2044 1.381 . S
C2046 C2047 1.394 . S
C2046 H2054 0.930 1_655 S
C2047 C2046 1.394 . S
C2047 C2048 1.383 . S
C2047 H2055 0.929 . S
C2048 C2047 1.383 . S
C2048 C2049 1.377 . S
C2049 H2033 0.930 . S
C2049 C2048 1.377 . S
C2049 C2050 1.379 . S
C2050 H2034 0.931 . S
C2050 C2044 1.383 . S
C2050 C2049 1.379 . S
H2051 C2045 0.959 . S
H2052 C2045 0.961 . S
H2053 C2045 0.960 . S
H2054 C2046 0.930 1_455 S
H2055 C2047 0.929 . S
H2056 C2064 0.929 . S
H2057 C2066 0.930 . S
H2058 C2068 0.930 . S
H2059 C2071 0.929 . S
H2060 C2074 0.930 . S
H2061 C2076 0.960 . S
H2062 C2076 0.960 . S
H2063 C2076 0.960 . S
C2064 H2056 0.929 . S
C2064 C2065 1.377 . S
C2064 C2066 1.384 . S
C2065 C2064 1.377 . S
C2065 C2071 1.390 . S
C2066 H2057 0.930 . S
C2066 C2064 1.384 . S
C2066 C2067 1.372 . S
C2067 C2066 1.372 . S
C2067 C2068 1.400 . S
C2067 C2072 1.490 . S
C2068 H2058 0.930 . S
C2068 C2067 1.400 . S
C2068 C2071 1.386 . S
H2069 C2085 0.930 . S
H2070 C2086 0.931 . S
C2071 H2059 0.929 . S
C2071 C2065 1.390 . S
C2071 C2068 1.386 . S
C2072 C2067 1.490 . S
C2072 C2074 1.395 . S
C2072 C2075 1.403 . S
H2073 C2079 0.930 . S
C2074 H2060 0.930 . S
C2074 C2072 1.395 . S
C2074 C2077 1.403 . S
C2075 C2072 1.403 . S
C2075 C2076 1.524 . S
C2075 C2079 1.400 . S
C2076 H2061 0.960 . S
C2076 H2062 0.960 . S
C2076 H2063 0.960 . S
C2076 C2075 1.524 . S
C2077 C2074 1.403 . S
C2077 C2078 1.392 . S
C2077 C2081 1.495 . S
C2078 C2077 1.392 . S
C2078 C2079 1.385 . S
C2078 C2080 1.478 . S
C2079 H2073 0.930 . S
C2079 C2075 1.400 . S
C2079 C2078 1.385 . S
C2080 C2078 1.478 . S
C2080 C2082 1.381 . S
C2080 C2086 1.383 . S
C2081 C2077 1.495 . S
C2081 H2087 0.959 . S
C2081 H2088 0.961 . S
C2081 H2089 0.960 . S
C2082 C2080 1.381 . S
C2082 C2083 1.394 . S
C2082 H2090 0.930 . S
C2083 C2082 1.394 . S
C2083 C2084 1.383 . S
C2083 H2091 0.929 . S
C2084 C2083 1.383 . S
C2084 C2085 1.377 . S
C2085 H2069 0.930 . S
C2085 C2084 1.377 . S
C2085 C2086 1.379 . S
C2086 H2070 0.931 . S
C2086 C2080 1.383 . S
C2086 C2085 1.379 . S
H2087 C2081 0.959 . S
H2088 C2081 0.961 . S
H2089 C2081 0.960 . S
H2090 C2082 0.930 . S
H2091 C2083 0.929 . S
H2092 C2100 0.929 . S
H2093 C2102 0.930 . S
H2094 C2104 0.930 . S
H2095 C2107 0.929 . S
H2096 C2110 0.930 . S
H2097 C2112 0.960 . S
H2098 C2112 0.960 . S
H2099 C2112 0.960 . S
C2100 H2092 0.929 . S
C2100 C2101 1.377 . S
C2100 C2102 1.384 . S
C2101 C2100 1.377 . S
C2101 C2107 1.390 . S
C2102 H2093 0.930 . S
C2102 C2100 1.384 . S
C2102 C2103 1.372 . S
C2103 C2102 1.372 . S
C2103 C2104 1.400 . S
C2103 C2108 1.490 . S
C2104 H2094 0.930 . S
C2104 C2103 1.400 . S
C2104 C2107 1.386 . S
H2105 C2121 0.930 . S
H2106 C2122 0.931 . S
C2107 H2095 0.929 . S
C2107 C2101 1.390 . S
C2107 C2104 1.386 . S
C2108 C2103 1.490 . S
C2108 C2110 1.395 . S
C2108 C2111 1.403 . S
H2109 C2115 0.930 . S
C2110 H2096 0.930 . S
C2110 C2108 1.395 . S
C2110 C2113 1.403 1_545 S
C2111 C2108 1.403 . S
C2111 C2112 1.524 . S
C2111 C2115 1.400 1_545 S
C2112 H2097 0.960 . S
C2112 H2098 0.960 . S
C2112 H2099 0.960 . S
C2112 C2111 1.524 . S
C2113 C2110 1.403 1_565 S
C2113 C2114 1.392 . S
C2113 C2117 1.495 . S
C2114 C2113 1.392 . S
C2114 C2115 1.385 . S
C2114 C2116 1.478 . S
C2115 H2109 0.930 . S
C2115 C2111 1.400 1_565 S
C2115 C2114 1.385 . S
C2116 C2114 1.478 . S
C2116 C2118 1.381 . S
C2116 C2122 1.383 . S
C2117 C2113 1.495 . S
C2117 H2123 0.959 . S
C2117 H2124 0.961 . S
C2117 H2125 0.960 . S
C2118 C2116 1.381 . S
C2118 C2119 1.394 . S
C2118 H2126 0.930 . S
C2119 C2118 1.394 . S
C2119 C2120 1.383 . S
C2119 H2127 0.929 . S
C2120 C2119 1.383 . S
C2120 C2121 1.377 . S
C2121 H2105 0.930 . S
C2121 C2120 1.377 . S
C2121 C2122 1.379 . S
C2122 H2106 0.931 . S
C2122 C2116 1.383 . S
C2122 C2121 1.379 . S
H2123 C2117 0.959 . S
H2124 C2117 0.961 . S
H2125 C2117 0.960 . S
H2126 C2118 0.930 . S
H2127 C2119 0.929 . S
H2128 C2136 0.929 . S
H2129 C2138 0.930 . S
H2130 C2140 0.930 . S
H2131 C2143 0.929 . S
H2132 C2146 0.930 . S
H2133 C2148 0.960 1_655 S
H2134 C2148 0.960 . S
H2135 C2148 0.960 . S
C2136 H2128 0.929 . S
C2136 C2137 1.377 . S
C2136 C2138 1.384 . S
C2137 C2136 1.377 . S
C2137 C2143 1.390 . S
C2138 H2129 0.930 . S
C2138 C2136 1.384 . S
C2138 C2139 1.372 . S
C2139 C2138 1.372 . S
C2139 C2140 1.400 . S
C2139 C2144 1.490 . S
C2140 H2130 0.930 . S
C2140 C2139 1.400 . S
C2140 C2143 1.386 . S
H2141 C2157 0.930 . S
H2142 C2158 0.931 . S
C2143 H2131 0.929 . S
C2143 C2137 1.390 . S
C2143 C2140 1.386 . S
C2144 C2139 1.490 . S
C2144 C2146 1.395 . S
C2144 C2147 1.403 . S
H2145 C2151 0.930 . S
C2146 H2132 0.930 . S
C2146 C2144 1.395 . S
C2146 C2149 1.389 1_455 S
C2147 C2144 1.403 . S
C2147 C2148 1.524 . S
C2147 C2151 1.400 1_455 S
C2148 H2133 0.960 1_455 S
C2148 H2134 0.960 . S
C2148 H2135 0.960 . S
C2148 C2147 1.524 . S
C2149 C2146 1.389 1_655 S
C2149 C2150 1.406 . S
C2149 C2153 1.496 . S
C2150 C2149 1.406 . S
C2150 C2151 1.385 . S
C2150 C2152 1.478 . S
C2151 H2145 0.930 . S
C2151 C2147 1.400 1_655 S
C2151 C2150 1.385 . S
C2152 C2150 1.478 . S
C2152 C2154 1.381 . S
C2152 C2158 1.383 . S
C2153 C2149 1.496 . S
C2153 H2159 0.959 1_655 S
C2153 H2160 0.961 . S
C2153 H2161 0.960 . S
C2154 C2152 1.381 . S
C2154 C2155 1.394 . S
C2154 H2162 0.930 . S
C2155 C2154 1.394 . S
C2155 C2156 1.383 . S
C2155 H2163 0.929 . S
C2156 C2155 1.383 . S
C2156 C2157 1.377 . S
C2157 H2141 0.930 . S
C2157 C2156 1.377 . S
C2157 C2158 1.379 . S
C2158 H2142 0.931 . S
C2158 C2152 1.383 . S
C2158 C2157 1.379 . S
H2159 C2153 0.959 1_455 S
H2160 C2153 0.961 . S
H2161 C2153 0.960 . S
H2162 C2154 0.930 . S
H2163 C2155 0.929 . S
H2164 C2172 0.929 . S
H2165 C2174 0.930 . S
H2166 C2176 0.930 . S
H2167 C2179 0.929 . S
H2168 C2182 0.930 . S
H2169 C2184 0.960 . S
H2170 C2184 0.960 . S
H2171 C2184 0.960 . S
C2172 H2164 0.929 . S
C2172 C2173 1.377 . S
C2172 C2174 1.384 . S
C2173 C2172 1.377 . S
C2173 C2179 1.390 . S
C2174 H2165 0.930 . S
C2174 C2172 1.384 . S
C2174 C2175 1.372 . S
C2175 C2174 1.372 . S
C2175 C2176 1.400 . S
C2175 C2180 1.490 . S
C2176 H2166 0.930 . S
C2176 C2175 1.400 . S
C2176 C2179 1.386 . S
H2177 C2193 0.930 . S
H2178 C2194 0.931 . S
C2179 H2167 0.929 . S
C2179 C2173 1.390 . S
C2179 C2176 1.386 . S
C2180 C2175 1.490 . S
C2180 C2182 1.395 . S
C2180 C2183 1.403 . S
H2181 C2187 0.930 . S
C2182 H2168 0.930 . S
C2182 C2180 1.395 . S
C2182 C2185 1.403 . S
C2183 C2180 1.403 . S
C2183 C2184 1.524 . S
C2183 C2187 1.400 . S
C2184 H2169 0.960 . S
C2184 H2170 0.960 . S
C2184 H2171 0.960 . S
C2184 C2183 1.524 . S
C2185 C2182 1.403 . S
C2185 C2186 1.392 . S
C2185 C2189 1.495 . S
C2186 C2185 1.392 . S
C2186 C2187 1.385 . S
C2186 C2188 1.478 . S
C2187 H2181 0.930 . S
C2187 C2183 1.400 . S
C2187 C2186 1.385 . S
C2188 C2186 1.478 . S
C2188 C2190 1.381 . S
C2188 C2194 1.383 . S
C2189 C2185 1.495 . S
C2189 H2195 0.959 . S
C2189 H2196 0.961 . S
C2189 H2197 0.960 . S
C2190 C2188 1.381 . S
C2190 C2191 1.394 . S
C2190 H2198 0.930 . S
C2191 C2190 1.394 . S
C2191 C2192 1.383 . S
C2191 H2199 0.929 . S
C2192 C2191 1.383 . S
C2192 C2193 1.377 . S
C2193 H2177 0.930 . S
C2193 C2192 1.377 . S
C2193 C2194 1.379 . S
C2194 H2178 0.931 . S
C2194 C2188 1.383 . S
C2194 C2193 1.379 . S
H2195 C2189 0.959 . S
H2196 C2189 0.961 . S
H2197 C2189 0.960 . S
H2198 C2190 0.930 . S
H2199 C2191 0.929 . S
H2200 C2208 0.929 . S
H2201 C2210 0.930 . S
H2202 C2212 0.930 . S
H2203 C2215 0.929 . S
H2204 C2218 0.930 . S
H2205 C2220 0.960 . S
H2206 C2220 0.960 . S
H2207 C2220 0.960 . S
C2208 H2200 0.929 . S
C2208 C2209 1.377 . S
C2208 C2210 1.384 . S
C2209 C2208 1.377 . S
C2209 C2215 1.390 . S
C2210 H2201 0.930 . S
C2210 C2208 1.384 . S
C2210 C2211 1.372 . S
C2211 C2210 1.372 . S
C2211 C2212 1.400 . S
C2211 C2216 1.490 . S
C2212 H2202 0.930 . S
C2212 C2211 1.400 . S
C2212 C2215 1.386 . S
H2213 C2229 0.930 . S
H2214 C2230 0.931 . S
C2215 H2203 0.929 . S
C2215 C2209 1.390 . S
C2215 C2212 1.386 . S
C2216 C2211 1.490 . S
C2216 C2218 1.395 . S
C2216 C2219 1.403 1_565 S
H2217 C2223 0.930 . S
C2218 H2204 0.930 . S
C2218 C2216 1.395 . S
C2218 C2221 1.403 . S
C2219 C2216 1.403 1_545 S
C2219 C2220 1.524 . S
C2219 C2223 1.400 . S
C2220 H2205 0.960 . S
C2220 H2206 0.960 . S
C2220 H2207 0.960 . S
C2220 C2219 1.524 . S
C2221 C2218 1.403 . S
C2221 C2222 1.392 1_565 S
C2221 C2225 1.495 . S
C2222 C2221 1.392 1_545 S
C2222 C2223 1.385 . S
C2222 C2224 1.478 . S
C2223 H2217 0.930 . S
C2223 C2219 1.400 . S
C2223 C2222 1.385 . S
C2224 C2222 1.478 . S
C2224 C2226 1.381 . S
C2224 C2230 1.383 . S
C2225 C2221 1.495 . S
C2225 H2231 0.959 . S
C2225 H2232 0.961 . S
C2225 H2233 0.960 . S
C2226 C2224 1.381 . S
C2226 C2227 1.394 . S
C2226 H2234 0.930 . S
C2227 C2226 1.394 . S
C2227 C2228 1.383 . S
C2227 H2235 0.929 . S
C2228 C2227 1.383 . S
C2228 C2229 1.377 . S
C2229 H2213 0.930 . S
C2229 C2228 1.377 . S
C2229 C2230 1.379 . S
C2230 H2214 0.931 . S
C2230 C2224 1.383 . S
C2230 C2229 1.379 . S
H2231 C2225 0.959 . S
H2232 C2225 0.961 . S
H2233 C2225 0.960 . S
H2234 C2226 0.930 . S
H2235 C2227 0.929 . S
H2236 C2244 0.929 . S
H2237 C2246 0.930 1_655 S
H2238 C2248 0.930 . S
H2239 C2251 0.929 . S
H2240 C2254 0.930 . S
H2241 C2256 0.951 1_655 S
H2242 C2256 0.946 1_655 S
H2243 C2256 0.983 . S
C2244 H2236 0.929 . S
C2244 C2245 1.377 . S
C2244 C2246 1.384 . S
C2245 C2244 1.377 . S
C2245 C2251 1.390 . S
C2246 H2237 0.930 1_455 S
C2246 C2244 1.384 . S
C2246 C2247 1.372 . S
C2247 C2246 1.372 . S
C2247 C2248 1.400 . S
C2247 C2252 1.490 . S
C2248 H2238 0.930 . S
C2248 C2247 1.400 . S
C2248 C2251 1.386 . S
H2249 C2265 0.930 . S
H2250 C2266 0.931 1_455 S
C2251 H2239 0.929 . S
C2251 C2245 1.390 . S
C2251 C2248 1.386 . S
C2252 C2247 1.490 . S
C2252 C2254 1.395 . S
C2252 C2255 1.412 . S
H2253 C2259 0.930 . S
C2254 H2240 0.930 . S
C2254 C2252 1.395 . S
C2254 C2257 1.403 1_445 S
C2255 C2252 1.412 . S
C2255 C2256 1.524 . S
C2255 C2259 1.390 1_445 S
C2256 H2241 0.951 1_455 S
C2256 H2242 0.946 1_455 S
C2256 H2243 0.983 . S
C2256 C2255 1.524 . S
C2257 C2254 1.403 1_665 S
C2257 C2258 1.392 . S
C2257 C2261 1.495 . S
C2258 C2257 1.392 . S
C2258 C2259 1.385 . S
C2258 C2260 1.478 . S
C2259 H2253 0.930 . S
C2259 C2255 1.390 1_665 S
C2259 C2258 1.385 . S
C2260 C2258 1.478 . S
C2260 C2262 1.381 . S
C2260 C2266 1.383 . S
C2261 C2257 1.495 . S
C2261 H2267 0.959 1_655 S
C2261 H2268 0.961 1_655 S
C2261 H2269 0.960 . S
C2262 C2260 1.381 . S
C2262 C2263 1.394 . S
C2262 H2270 0.930 . S
C2263 C2262 1.394 . S
C2263 C2264 1.383 . S
C2263 H2271 0.929 . S
C2264 C2263 1.383 . S
C2264 C2265 1.377 . S
C2265 H2249 0.930 . S
C2265 C2264 1.377 . S
C2265 C2266 1.379 . S
C2266 H2250 0.931 1_655 S
C2266 C2260 1.383 . S
C2266 C2265 1.379 . S
H2267 C2261 0.959 1_455 S
H2268 C2261 0.961 1_455 S
H2269 C2261 0.960 . S
H2270 C2262 0.930 . S
H2271 C2263 0.929 . S
H2272 C2280 0.929 . S
H2273 C2282 0.930 . S
H2274 C2284 0.930 1_545 S
H2275 C2287 0.929 . S
H2276 C2290 0.930 . S
H2277 C2292 0.960 . S
H2278 C2292 0.960 . S
H2279 C2292 0.960 . S
C2280 H2272 0.929 . S
C2280 C2281 1.377 . S
C2280 C2282 1.384 . S
C2281 C2280 1.377 . S
C2281 C2287 1.390 . S
C2282 H2273 0.930 . S
C2282 C2280 1.384 . S
C2282 C2283 1.372 . S
C2283 C2282 1.372 . S
C2283 C2284 1.400 . S
C2283 C2288 1.490 . S
C2284 H2274 0.930 1_565 S
C2284 C2283 1.400 . S
C2284 C2287 1.386 . S
H2285 C2301 0.930 . S
H2286 C2302 0.931 . S
C2287 H2275 0.929 . S
C2287 C2281 1.390 . S
C2287 C2284 1.386 . S
C2288 C2283 1.490 . S
C2288 C2290 1.395 . S
C2288 C2291 1.403 1_565 S
H2289 C2295 0.930 . S
C2290 H2276 0.930 . S
C2290 C2288 1.395 . S
C2290 C2293 1.403 . S
C2291 C2288 1.403 1_545 S
C2291 C2292 1.524 . S
C2291 C2295 1.400 . S
C2292 H2277 0.960 . S
C2292 H2278 0.960 . S
C2292 H2279 0.960 . S
C2292 C2291 1.524 . S
C2293 C2290 1.403 . S
C2293 C2294 1.392 1_565 S
C2293 C2297 1.495 . S
C2294 C2293 1.392 1_545 S
C2294 C2295 1.385 . S
C2294 C2296 1.478 . S
C2295 H2289 0.930 . S
C2295 C2291 1.400 . S
C2295 C2294 1.385 . S
C2296 C2294 1.478 . S
C2296 C2298 1.381 . S
C2296 C2302 1.383 . S
C2297 C2293 1.495 . S
C2297 H2303 0.959 . S
C2297 H2304 0.961 . S
C2297 H2305 0.960 . S
C2298 C2296 1.381 . S
C2298 C2299 1.394 . S
C2298 H2306 0.930 1_545 S
C2299 C2298 1.394 . S
C2299 C2300 1.383 . S
C2299 H2307 0.929 . S
C2300 C2299 1.383 . S
C2300 C2301 1.377 . S
C2301 H2285 0.930 . S
C2301 C2300 1.377 . S
C2301 C2302 1.379 . S
C2302 H2286 0.931 . S
C2302 C2296 1.383 . S
C2302 C2301 1.379 . S
H2303 C2297 0.959 . S
H2304 C2297 0.961 . S
H2305 C2297 0.960 . S
H2306 C2298 0.930 1_565 S
H2307 C2299 0.929 . S
H2308 C2316 0.929 . S
H2309 C2318 0.930 1_455 S
H2310 C2320 0.930 . S
H2311 C2323 0.929 . S
H2312 C2326 0.930 . S
H2313 C2328 0.960 . S
H2314 C2328 0.960 1_455 S
H2315 C2328 0.960 . S
C2316 H2308 0.929 . S
C2316 C2317 1.377 . S
C2316 C2318 1.384 . S
C2317 C2316 1.377 . S
C2317 C2323 1.390 . S
C2318 H2309 0.930 1_655 S
C2318 C2316 1.384 . S
C2318 C2319 1.372 . S
C2319 C2318 1.372 . S
C2319 C2320 1.400 . S
C2319 C2324 1.490 . S
C2320 H2310 0.930 . S
C2320 C2319 1.400 . S
C2320 C2323 1.386 . S
H2321 C2337 0.932 . S
H2322 C2338 0.931 1_655 S
C2323 H2311 0.929 . S
C2323 C2317 1.390 . S
C2323 C2320 1.386 . S
C2324 C2319 1.490 . S
C2324 C2326 1.395 . S
C2324 C2327 1.403 . S
H2325 C2331 0.930 . S
C2326 H2312 0.930 . S
C2326 C2324 1.395 . S
C2326 C2329 1.403 1_665 S
C2327 C2324 1.403 . S
C2327 C2328 1.524 . S
C2327 C2331 1.400 1_665 S
C2328 H2313 0.960 . S
C2328 H2314 0.960 1_655 S
C2328 H2315 0.960 . S
C2328 C2327 1.524 . S
C2329 C2326 1.403 1_445 S
C2329 C2330 1.392 . S
C2329 C2333 1.495 . S
C2330 C2329 1.392 . S
C2330 C2331 1.385 . S
C2330 C2332 1.478 . S
C2331 H2325 0.930 . S
C2331 C2327 1.400 1_445 S
C2331 C2330 1.385 . S
C2332 C2330 1.478 . S
C2332 C2334 1.381 . S
C2332 C2338 1.383 . S
C2333 C2329 1.495 . S
C2333 H2339 0.959 . S
C2333 H2340 0.975 . S
C2333 H2341 0.960 . S
C2334 C2332 1.381 . S
C2334 C2335 1.394 . S
C2334 H2342 0.930 . S
C2335 C2334 1.394 . S
C2335 C2336 1.383 . S
C2335 H2343 0.929 . S
C2336 C2335 1.383 . S
C2336 C2337 1.377 . S
C2337 H2321 0.932 . S
C2337 C2336 1.377 . S
C2337 C2338 1.379 . S
C2338 H2322 0.931 1_455 S
C2338 C2332 1.383 . S
C2338 C2337 1.379 . S
H2339 C2333 0.959 . S
H2340 C2333 0.975 . S
H2341 C2333 0.960 . S
H2342 C2334 0.930 . S
H2343 C2335 0.929 . S
H2344 C2352 0.929 . S
H2345 C2354 0.930 . S
H2346 C2356 0.930 . S
H2347 C2359 0.929 . S
H2348 C2362 0.930 . S
H2349 C2364 0.960 1_655 S
H2350 C2364 0.960 . S
H2351 C2364 0.960 . S
C2352 H2344 0.929 . S
C2352 C2353 1.377 . S
C2352 C2354 1.384 . S
C2353 C2352 1.377 . S
C2353 C2359 1.390 . S
C2354 H2345 0.930 . S
C2354 C2352 1.384 . S
C2354 C2355 1.372 . S
C2355 C2354 1.372 . S
C2355 C2356 1.400 . S
C2355 C2360 1.490 . S
C2356 H2346 0.930 . S
C2356 C2355 1.400 . S
C2356 C2359 1.386 . S
H2357 C2373 0.930 . S
H2358 C2374 0.931 . S
C2359 H2347 0.929 . S
C2359 C2353 1.390 . S
C2359 C2356 1.386 . S
C2360 C2355 1.490 . S
C2360 C2362 1.395 . S
C2360 C2363 1.403 . S
H2361 C2367 0.930 . S
C2362 H2348 0.930 . S
C2362 C2360 1.395 . S
C2362 C2365 1.403 1_455 S
C2363 C2360 1.403 . S
C2363 C2364 1.524 . S
C2363 C2367 1.400 1_455 S
C2364 H2349 0.960 1_455 S
C2364 H2350 0.960 . S
C2364 H2351 0.960 . S
C2364 C2363 1.524 . S
C2365 C2362 1.403 1_655 S
C2365 C2366 1.392 . S
C2365 C2369 1.495 . S
C2366 C2365 1.392 . S
C2366 C2367 1.385 . S
C2366 C2368 1.478 . S
C2367 H2361 0.930 . S
C2367 C2363 1.400 1_655 S
C2367 C2366 1.385 . S
C2368 C2366 1.478 . S
C2368 C2370 1.381 . S
C2368 C2374 1.383 . S
C2369 C2365 1.495 . S
C2369 H2375 0.959 1_655 S
C2369 H2376 0.961 . S
C2369 H2377 0.960 . S
C2370 C2368 1.381 . S
C2370 C2371 1.394 . S
C2370 H2378 0.930 . S
C2371 C2370 1.394 . S
C2371 C2372 1.383 . S
C2371 H2379 0.929 . S
C2372 C2371 1.383 . S
C2372 C2373 1.377 . S
C2373 H2357 0.930 . S
C2373 C2372 1.377 . S
C2373 C2374 1.379 . S
C2374 H2358 0.931 . S
C2374 C2368 1.383 . S
C2374 C2373 1.379 . S
H2375 C2369 0.959 1_455 S
H2376 C2369 0.961 . S
H2377 C2369 0.960 . S
H2378 C2370 0.930 . S
H2379 C2371 0.929 . S
H2380 C2388 0.929 . S
H2381 C2390 0.930 . S
H2382 C2392 0.930 . S
H2383 C2395 0.929 . S
H2384 C2398 0.930 . S
H2385 C2400 0.960 . S
H2386 C2400 0.960 . S
H2387 C2400 0.960 . S
C2388 H2380 0.929 . S
C2388 C2389 1.377 . S
C2388 C2390 1.384 . S
C2389 C2388 1.377 . S
C2389 C2395 1.390 . S
C2390 H2381 0.930 . S
C2390 C2388 1.384 . S
C2390 C2391 1.372 . S
C2391 C2390 1.372 . S
C2391 C2392 1.400 . S
C2391 C2396 1.490 . S
C2392 H2382 0.930 . S
C2392 C2391 1.400 . S
C2392 C2395 1.386 . S
H2393 C2409 0.930 . S
H2394 C2410 0.931 . S
C2395 H2383 0.929 . S
C2395 C2389 1.390 . S
C2395 C2392 1.386 . S
C2396 C2391 1.490 . S
C2396 C2398 1.395 . S
C2396 C2399 1.403 . S
H2397 C2403 0.930 . S
C2398 H2384 0.930 . S
C2398 C2396 1.395 . S
C2398 C2401 1.403 . S
C2399 C2396 1.403 . S
C2399 C2400 1.524 . S
C2399 C2403 1.400 . S
C2400 H2385 0.960 . S
C2400 H2386 0.960 . S
C2400 H2387 0.960 . S
C2400 C2399 1.524 . S
C2401 C2398 1.403 . S
C2401 C2402 1.392 . S
C2401 C2405 1.495 . S
C2402 C2401 1.392 . S
C2402 C2403 1.385 . S
C2402 C2404 1.478 . S
C2403 H2397 0.930 . S
C2403 C2399 1.400 . S
C2403 C2402 1.385 . S
C2404 C2402 1.478 . S
C2404 C2406 1.381 . S
C2404 C2410 1.383 . S
C2405 C2401 1.495 . S
C2405 H2411 0.959 . S
C2405 H2412 0.961 . S
C2405 H2413 0.960 . S
C2406 C2404 1.381 . S
C2406 C2407 1.394 . S
C2406 H2414 0.930 . S
C2407 C2406 1.394 . S
C2407 C2408 1.383 . S
C2407 H2415 0.929 . S
C2408 C2407 1.383 . S
C2408 C2409 1.377 . S
C2409 H2393 0.930 . S
C2409 C2408 1.377 . S
C2409 C2410 1.379 . S
C2410 H2394 0.931 . S
C2410 C2404 1.383 . S
C2410 C2409 1.379 . S
H2411 C2405 0.959 . S
H2412 C2405 0.961 . S
H2413 C2405 0.960 . S
H2414 C2406 0.930 . S
H2415 C2407 0.929 . S
H2416 C2424 0.929 . S
H2417 C2426 0.930 . S
H2418 C2428 0.930 . S
H2419 C2431 0.929 . S
H2420 C2434 0.930 . S
H2421 C2436 0.960 . S
H2422 C2436 0.960 . S
H2423 C2436 0.960 . S
C2424 H2416 0.929 . S
C2424 C2425 1.377 . S
C2424 C2426 1.384 . S
C2425 C2424 1.377 . S
C2425 C2431 1.390 . S
C2426 H2417 0.930 . S
C2426 C2424 1.384 . S
C2426 C2427 1.372 . S
C2427 C2426 1.372 . S
C2427 C2428 1.400 . S
C2427 C2432 1.490 . S
C2428 H2418 0.930 . S
C2428 C2427 1.400 . S
C2428 C2431 1.386 . S
H2429 C2445 0.930 . S
H2430 C2446 0.931 . S
C2431 H2419 0.929 . S
C2431 C2425 1.390 . S
C2431 C2428 1.386 . S
C2432 C2427 1.490 . S
C2432 C2434 1.395 . S
C2432 C2435 1.403 . S
H2433 C2439 0.930 . S
C2434 H2420 0.930 . S
C2434 C2432 1.395 . S
C2434 C2437 1.403 . S
C2435 C2432 1.403 . S
C2435 C2436 1.524 . S
C2435 C2439 1.400 . S
C2436 H2421 0.960 . S
C2436 H2422 0.960 . S
C2436 H2423 0.960 . S
C2436 C2435 1.524 . S
C2437 C2434 1.403 . S
C2437 C2438 1.392 . S
C2437 C2441 1.495 . S
C2438 C2437 1.392 . S
C2438 C2439 1.385 . S
C2438 C2440 1.478 . S
C2439 H2433 0.930 . S
C2439 C2435 1.400 . S
C2439 C2438 1.385 . S
C2440 C2438 1.478 . S
C2440 C2442 1.381 . S
C2440 C2446 1.383 . S
C2441 C2437 1.495 . S
C2441 H2447 0.959 . S
C2441 H2448 0.961 . S
C2441 H2449 0.960 . S
C2442 C2440 1.381 . S
C2442 C2443 1.394 . S
C2442 H2450 0.930 . S
C2443 C2442 1.394 . S
C2443 C2444 1.383 . S
C2443 H2451 0.929 . S
C2444 C2443 1.383 . S
C2444 C2445 1.377 . S
C2445 H2429 0.930 . S
C2445 C2444 1.377 . S
C2445 C2446 1.379 . S
C2446 H2430 0.931 . S
C2446 C2440 1.383 . S
C2446 C2445 1.379 . S
H2447 C2441 0.959 . S
H2448 C2441 0.961 . S
H2449 C2441 0.960 . S
H2450 C2442 0.930 . S
H2451 C2443 0.929 . S
H2452 C2460 0.929 . S
H2453 C2462 0.930 . S
H2454 C2464 0.930 . S
H2455 C2467 0.929 . S
H2456 C2470 0.930 . S
H2457 C2472 0.960 1_565 S
H2458 C2472 0.960 . S
H2459 C2472 0.960 . S
C2460 H2452 0.929 . S
C2460 C2461 1.377 . S
C2460 C2462 1.384 . S
C2461 C2460 1.377 . S
C2461 C2467 1.390 . S
C2462 H2453 0.930 . S
C2462 C2460 1.384 . S
C2462 C2463 1.372 . S
C2463 C2462 1.372 . S
C2463 C2464 1.400 . S
C2463 C2468 1.490 . S
C2464 H2454 0.930 . S
C2464 C2463 1.400 . S
C2464 C2467 1.386 . S
H2465 C2481 0.930 . S
H2466 C2482 0.931 . S
C2467 H2455 0.929 . S
C2467 C2461 1.390 . S
C2467 C2464 1.386 . S
C2468 C2463 1.490 . S
C2468 C2470 1.395 . S
C2468 C2471 1.403 . S
H2469 C2475 0.930 . S
C2470 H2456 0.930 . S
C2470 C2468 1.395 . S
C2470 C2473 1.403 1_545 S
C2471 C2468 1.403 . S
C2471 C2472 1.524 . S
C2471 C2475 1.400 1_545 S
C2472 H2457 0.960 1_545 S
C2472 H2458 0.960 . S
C2472 H2459 0.960 . S
C2472 C2471 1.524 . S
C2473 C2470 1.403 1_565 S
C2473 C2474 1.392 . S
C2473 C2477 1.495 . S
C2474 C2473 1.392 . S
C2474 C2475 1.385 . S
C2474 C2476 1.478 . S
C2475 H2469 0.930 . S
C2475 C2471 1.400 1_565 S
C2475 C2474 1.385 . S
C2476 C2474 1.478 . S
C2476 C2478 1.381 . S
C2476 C2482 1.383 . S
C2477 C2473 1.495 . S
C2477 H2483 0.959 1_565 S
C2477 H2484 0.961 . S
C2477 H2485 0.960 . S
C2478 C2476 1.381 . S
C2478 C2479 1.394 . S
C2478 H2486 0.930 . S
C2479 C2478 1.394 . S
C2479 C2480 1.383 . S
C2479 H2487 0.929 . S
C2480 C2479 1.383 . S
C2480 C2481 1.377 . S
C2481 H2465 0.930 . S
C2481 C2480 1.377 . S
C2481 C2482 1.379 . S
C2482 H2466 0.931 . S
C2482 C2476 1.383 . S
C2482 C2481 1.379 . S
H2483 C2477 0.959 1_545 S
H2484 C2477 0.961 . S
H2485 C2477 0.960 . S
H2486 C2478 0.930 . S
H2487 C2479 0.929 . S
H2488 C2496 0.929 . S
H2489 C2498 0.930 . S
H2490 C2500 0.930 1_545 S
H2491 C2503 0.929 1_545 S
H2492 C2506 0.930 . S
H2493 C2508 0.960 . S
H2494 C2508 0.960 1_565 S
H2495 C2508 0.960 . S
C2496 H2488 0.929 . S
C2496 C2497 1.377 . S
C2496 C2498 1.384 . S
C2497 C2496 1.377 . S
C2497 C2503 1.390 . S
C2498 H2489 0.930 . S
C2498 C2496 1.384 . S
C2498 C2499 1.372 . S
C2499 C2498 1.372 . S
C2499 C2500 1.400 . S
C2499 C2504 1.490 . S
C2500 H2490 0.930 1_565 S
C2500 C2499 1.400 . S
C2500 C2503 1.386 . S
H2501 C2517 0.930 . S
H2502 C2518 0.931 . S
C2503 H2491 0.929 1_565 S
C2503 C2497 1.390 . S
C2503 C2500 1.386 . S
C2504 C2499 1.490 . S
C2504 C2506 1.395 . S
C2504 C2507 1.403 1_565 S
H2505 C2511 0.930 . S
C2506 H2492 0.930 . S
C2506 C2504 1.395 . S
C2506 C2509 1.403 1_655 S
C2507 C2504 1.403 1_545 S
C2507 C2508 1.524 . S
C2507 C2511 1.400 1_655 S
C2508 H2493 0.960 . S
C2508 H2494 0.960 1_545 S
C2508 H2495 0.960 . S
C2508 C2507 1.524 . S
C2509 C2506 1.403 1_455 S
C2509 C2510 1.392 1_565 S
C2509 C2513 1.495 . S
C2510 C2509 1.392 1_545 S
C2510 C2511 1.385 . S
C2510 C2512 1.478 . S
C2511 H2505 0.930 . S
C2511 C2507 1.400 1_455 S
C2511 C2510 1.385 . S
C2512 C2510 1.478 . S
C2512 C2514 1.373 1_545 S
C2512 C2518 1.383 . S
C2513 C2509 1.495 . S
C2513 H2519 0.959 . S
C2513 H2520 0.932 1_565 S
C2513 H2521 0.960 . S
C2514 C2512 1.373 1_565 S
C2514 C2515 1.389 1_565 S
C2514 H2522 0.944 . S
C2515 C2514 1.389 1_545 S
C2515 C2516 1.383 . S
C2515 H2523 0.929 1_545 S
C2516 C2515 1.383 . S
C2516 C2517 1.377 . S
C2517 H2501 0.930 . S
C2517 C2516 1.377 . S
C2517 C2518 1.379 . S
C2518 H2502 0.931 . S
C2518 C2512 1.383 . S
C2518 C2517 1.379 . S
H2519 C2513 0.959 . S
H2520 C2513 0.932 1_545 S
H2521 C2513 0.960 . S
H2522 C2514 0.944 . S
H2523 C2515 0.929 1_565 S
H2524 C2532 0.929 . S
H2525 C2534 0.930 . S
H2526 C2536 0.930 . S
H2527 C2539 0.929 . S
H2528 C2542 0.930 . S
H2529 C2544 0.960 . S
H2530 C2544 0.960 . S
H2531 C2544 0.960 . S
C2532 H2524 0.929 . S
C2532 C2533 1.377 . S
C2532 C2534 1.384 . S
C2533 C2532 1.377 . S
C2533 C2539 1.390 . S
C2534 H2525 0.930 . S
C2534 C2532 1.384 . S
C2534 C2535 1.372 . S
C2535 C2534 1.372 . S
C2535 C2536 1.400 . S
C2535 C2540 1.490 . S
C2536 H2526 0.930 . S
C2536 C2535 1.400 . S
C2536 C2539 1.386 . S
H2537 C2553 0.930 . S
H2538 C2554 0.931 . S
C2539 H2527 0.929 . S
C2539 C2533 1.390 . S
C2539 C2536 1.386 . S
C2540 C2535 1.490 . S
C2540 C2542 1.395 . S
C2540 C2543 1.403 1_655 S
H2541 C2547 0.930 . S
C2542 H2528 0.930 . S
C2542 C2540 1.395 . S
C2542 C2545 1.403 . S
C2543 C2540 1.403 1_455 S
C2543 C2544 1.524 . S
C2543 C2547 1.400 . S
C2544 H2529 0.960 . S
C2544 H2530 0.960 . S
C2544 H2531 0.960 . S
C2544 C2543 1.524 . S
C2545 C2542 1.403 . S
C2545 C2546 1.392 1_655 S
C2545 C2549 1.495 . S
C2546 C2545 1.392 1_455 S
C2546 C2547 1.385 . S
C2546 C2548 1.478 . S
C2547 H2541 0.930 . S
C2547 C2543 1.400 . S
C2547 C2546 1.385 . S
C2548 C2546 1.478 . S
C2548 C2550 1.381 . S
C2548 C2554 1.383 . S
C2549 C2545 1.495 . S
C2549 H2555 0.959 . S
C2549 H2556 0.961 . S
C2549 H2557 0.960 . S
C2550 C2548 1.381 . S
C2550 C2551 1.394 . S
C2550 H2558 0.930 . S
C2551 C2550 1.394 . S
C2551 C2552 1.383 . S
C2551 H2559 0.929 . S
C2552 C2551 1.383 . S
C2552 C2553 1.377 . S
C2553 H2537 0.930 . S
C2553 C2552 1.377 . S
C2553 C2554 1.379 . S
C2554 H2538 0.931 . S
C2554 C2548 1.383 . S
C2554 C2553 1.379 . S
H2555 C2549 0.959 . S
H2556 C2549 0.961 . S
H2557 C2549 0.960 . S
H2558 C2550 0.930 . S
H2559 C2551 0.929 . S
C1417 C372 0.837 . S
C1436 C57 0.866 . S
C1453 C145 0.838 . S
C1472 C460 0.860 . S
C1489 C548 0.827 . S
C1508 C233 0.864 . S
C1525 C645 0.820 . S
C1544 C313 0.791 . S
C1561 C1085 0.838 . S
C1580 C753 0.847 . S
C1597 C841 0.831 . S
C1616 C1164 0.792 . S
C1633 C1252 0.830 . S
C1652 C929 0.872 . S
C1669 C1025 0.819 . S
C1688 C1340 0.815 . S
C1705 C29 0.940 . S
C1724 C1369 0.928 . S
C1741 C117 0.931 . S
C1760 C1113 0.908 . S
C1777 C205 0.934 . S
C1796 C1193 0.908 . S
C1813 C1281 0.937 . S
C1832 C284 0.955 . S
C1849 C401 0.932 . S
C1868 C812 0.932 . S
C1885 C489 0.942 . S
C1904 C900 0.963 . S
C1921 C997 0.940 . S
C1940 C577 0.964 . S
C1957 C724 0.931 . S
C1976 C673 0.920 . S
C1993 C49 1.540 . S
C2012 C937 1.541 . S
C2029 C1017 1.540 . S
C2048 C137 1.541 . S
C2065 C225 1.540 . S
C2084 C761 1.542 . S
C2101 C849 1.539 . S
C2120 C321 1.537 . S
C2137 C381 1.539 . S
C2156 C1261 1.531 . S
C2173 C469 1.539 . S
C2192 C1349 1.537 . S
C2209 C1076 1.541 . S
C2228 C557 1.542 . S
C2245 C1173 1.541 . S
C2264 C636 1.539 . S
C2281 C909 1.625 . S
C2300 C20 1.628 . S
C2317 C108 1.626 . S
C2336 C988 1.627 . S
C2353 C196 1.622 . S
C2372 C733 1.609 . S
C2389 C821 1.623 . S
C2408 C293 1.617 . S
C2425 C1289 1.622 . S
C2444 C409 1.614 . S
C2461 C1377 1.623 . S
C2480 C497 1.613 . S
C2497 C1105 1.624 . S
C2516 C585 1.621 . S
C2533 C665 1.627 . S
C2552 C1201 1.634 . S
