# Generated by pormake.
# Topology lcy-a, (4)-cn, num edge types: 1
# Building blocks:
#     Node 0, Type 0, BuildingBlock: CEKHIL_clean_sbu_0, # of connection points: 4
#     Node 1, Type 0, BuildingBlock: CEKHIL_clean_sbu_0, # of connection points: 4
#     Node 2, Type 0, BuildingBlock: CEKHIL_clean_sbu_0, # of connection points: 4
#     Node 3, Type 0, BuildingBlock: CEKHIL_clean_sbu_0, # of connection points: 4
#     Node 4, Type 0, BuildingBlock: CEKHIL_clean_sbu_0, # of connection points: 4
#     Node 5, Type 0, BuildingBlock: CEKHIL_clean_sbu_0, # of connection points: 4
#     Node 6, Type 0, BuildingBlock: CEKHIL_clean_sbu_0, # of connection points: 4
#     Node 7, Type 0, BuildingBlock: CEKHIL_clean_sbu_0, # of connection points: 4
#     Node 8, Type 0, BuildingBlock: CEKHIL_clean_sbu_0, # of connection points: 4
#     Node 9, Type 0, BuildingBlock: CEKHIL_clean_sbu_0, # of connection points: 4
#     Node 10, Type 0, BuildingBlock: CEKHIL_clean_sbu_0, # of connection points: 4
#     Node 11, Type 0, BuildingBlock: CEKHIL_clean_sbu_0, # of connection points: 4
#     Node 12, Type 0, BuildingBlock: CEKHIL_clean_sbu_0, # of connection points: 4
#     Node 13, Type 0, BuildingBlock: CEKHIL_clean_sbu_0, # of connection points: 4
#     Node 14, Type 0, BuildingBlock: CEKHIL_clean_sbu_0, # of connection points: 4
#     Node 15, Type 0, BuildingBlock: CEKHIL_clean_sbu_0, # of connection points: 4
#     Node 16, Type 0, BuildingBlock: CEKHIL_clean_sbu_0, # of connection points: 4
#     Node 17, Type 0, BuildingBlock: CEKHIL_clean_sbu_0, # of connection points: 4
#     Node 18, Type 0, BuildingBlock: CEKHIL_clean_sbu_0, # of connection points: 4
#     Node 19, Type 0, BuildingBlock: CEKHIL_clean_sbu_0, # of connection points: 4
#     Node 20, Type 0, BuildingBlock: CEKHIL_clean_sbu_0, # of connection points: 4
#     Node 21, Type 0, BuildingBlock: CEKHIL_clean_sbu_0, # of connection points: 4
#     Node 22, Type 0, BuildingBlock: CEKHIL_clean_sbu_0, # of connection points: 4
#     Node 23, Type 0, BuildingBlock: CEKHIL_clean_sbu_0, # of connection points: 4
#     Edge 24, Type (0, 0), BuildingBlock: CIFDUS_clean_linker_0, # of connection points: 2
#     Edge 25, Type (0, 0), BuildingBlock: CIFDUS_clean_linker_0, # of connection points: 2
#     Edge 26, Type (0, 0), BuildingBlock: CIFDUS_clean_linker_0, # of connection points: 2
#     Edge 27, Type (0, 0), BuildingBlock: CIFDUS_clean_linker_0, # of connection points: 2
#     Edge 28, Type (0, 0), BuildingBlock: CIFDUS_clean_linker_0, # of connection points: 2
#     Edge 29, Type (0, 0), BuildingBlock: CIFDUS_clean_linker_0, # of connection points: 2
#     Edge 30, Type (0, 0), BuildingBlock: CIFDUS_clean_linker_0, # of connection points: 2
#     Edge 31, Type (0, 0), BuildingBlock: CIFDUS_clean_linker_0, # of connection points: 2
#     Edge 32, Type (0, 0), BuildingBlock: CIFDUS_clean_linker_0, # of connection points: 2
#     Edge 33, Type (0, 0), BuildingBlock: CIFDUS_clean_linker_0, # of connection points: 2
#     Edge 34, Type (0, 0), BuildingBlock: CIFDUS_clean_linker_0, # of connection points: 2
#     Edge 35, Type (0, 0), BuildingBlock: CIFDUS_clean_linker_0, # of connection points: 2
#     Edge 36, Type (0, 0), BuildingBlock: CIFDUS_clean_linker_0, # of connection points: 2
#     Edge 37, Type (0, 0), BuildingBlock: CIFDUS_clean_linker_0, # of connection points: 2
#     Edge 38, Type (0, 0), BuildingBlock: CIFDUS_clean_linker_0, # of connection points: 2
#     Edge 39, Type (0, 0), BuildingBlock: CIFDUS_clean_linker_0, # of connection points: 2
#     Edge 40, Type (0, 0), BuildingBlock: CIFDUS_clean_linker_0, # of connection points: 2
#     Edge 41, Type (0, 0), BuildingBlock: CIFDUS_clean_linker_0, # of connection points: 2
#     Edge 42, Type (0, 0), BuildingBlock: CIFDUS_clean_linker_0, # of connection points: 2
#     Edge 43, Type (0, 0), BuildingBlock: CIFDUS_clean_linker_0, # of connection points: 2
#     Edge 44, Type (0, 0), BuildingBlock: CIFDUS_clean_linker_0, # of connection points: 2
#     Edge 45, Type (0, 0), BuildingBlock: CIFDUS_clean_linker_0, # of connection points: 2
#     Edge 46, Type (0, 0), BuildingBlock: CIFDUS_clean_linker_0, # of connection points: 2
#     Edge 47, Type (0, 0), BuildingBlock: CIFDUS_clean_linker_0, # of connection points: 2
#     Edge 48, Type (0, 0), BuildingBlock: CIFDUS_clean_linker_0, # of connection points: 2
#     Edge 49, Type (0, 0), BuildingBlock: CIFDUS_clean_linker_0, # of connection points: 2
#     Edge 50, Type (0, 0), BuildingBlock: CIFDUS_clean_linker_0, # of connection points: 2
#     Edge 51, Type (0, 0), BuildingBlock: CIFDUS_clean_linker_0, # of connection points: 2
#     Edge 52, Type (0, 0), BuildingBlock: CIFDUS_clean_linker_0, # of connection points: 2
#     Edge 53, Type (0, 0), BuildingBlock: CIFDUS_clean_linker_0, # of connection points: 2
#     Edge 54, Type (0, 0), BuildingBlock: CIFDUS_clean_linker_0, # of connection points: 2
#     Edge 55, Type (0, 0), BuildingBlock: CIFDUS_clean_linker_0, # of connection points: 2
#     Edge 56, Type (0, 0), BuildingBlock: CIFDUS_clean_linker_0, # of connection points: 2
#     Edge 57, Type (0, 0), BuildingBlock: CIFDUS_clean_linker_0, # of connection points: 2
#     Edge 58, Type (0, 0), BuildingBlock: CIFDUS_clean_linker_0, # of connection points: 2
#     Edge 59, Type (0, 0), BuildingBlock: CIFDUS_clean_linker_0, # of connection points: 2
#     Edge 60, Type (0, 0), BuildingBlock: CIFDUS_clean_linker_0, # of connection points: 2
#     Edge 61, Type (0, 0), BuildingBlock: CIFDUS_clean_linker_0, # of connection points: 2
#     Edge 62, Type (0, 0), BuildingBlock: CIFDUS_clean_linker_0, # of connection points: 2
#     Edge 63, Type (0, 0), BuildingBlock: CIFDUS_clean_linker_0, # of connection points: 2
#     Edge 64, Type (0, 0), BuildingBlock: CIFDUS_clean_linker_0, # of connection points: 2
#     Edge 65, Type (0, 0), BuildingBlock: CIFDUS_clean_linker_0, # of connection points: 2
#     Edge 66, Type (0, 0), BuildingBlock: CIFDUS_clean_linker_0, # of connection points: 2
#     Edge 67, Type (0, 0), BuildingBlock: CIFDUS_clean_linker_0, # of connection points: 2
#     Edge 68, Type (0, 0), BuildingBlock: CIFDUS_clean_linker_0, # of connection points: 2
#     Edge 69, Type (0, 0), BuildingBlock: CIFDUS_clean_linker_0, # of connection points: 2
#     Edge 70, Type (0, 0), BuildingBlock: CIFDUS_clean_linker_0, # of connection points: 2
#     Edge 71, Type (0, 0), BuildingBlock: CIFDUS_clean_linker_0, # of connection points: 2
# Relax obj value: 0.421
# Max RMSD: 0.179
# Mean RMSD: 0.179
data_MOF--net-lcy-a--node1-CEKHIL_clean_sbu_0--edge1-CIFDUS_clean_linker_0
_symmetry_space_group_name_H-M    P1
_symmetry_Int_Tables_number       1
_symmetry_cell_setting            triclinic
loop_
_symmetry_equiv_pos_as_xyz
'x, y, z'
_cell_length_a     49.397733
_cell_length_b     49.329535
_cell_length_c     49.303768
_cell_angle_alpha  90.163856
_cell_angle_beta   89.971492
_cell_angle_gamma 89.809027
loop_
_atom_site_label
_atom_site_type_symbol
_atom_site_fract_x
_atom_site_fract_y
_atom_site_fract_z
_atom_type_partial_charge
Co0 Co 0.20968 0.27867 0.43118 0.0
O1 O 0.19033 0.2584 0.45767 0.0
O2 O 0.17276 0.2913 0.43237 0.0
C3 C 0.23043 0.24369 0.4105 0.0
O4 O 0.22333 0.30319 0.40113 0.0
Co5 Co 0.27234 0.27915 0.4321 0.0
O6 O 0.26774 0.2949 0.39517 0.0
C7 C 0.24193 0.3095 0.4735 0.0
C8 C 0.16949 0.27309 0.45112 0.0
C9 C 0.24541 0.30548 0.38752 0.0
O10 O 0.22015 0.30579 0.45979 0.0
O11 O 0.26455 0.29831 0.46733 0.0
O12 O 0.20559 0.24983 0.40434 0.0
O13 O 0.2404 0.25654 0.43104 0.0
Co14 Co 0.96631 0.97124 0.64817 0.0
O15 O 0.97735 0.96879 0.68565 0.0
O16 O 0.96153 0.93491 0.66053 0.0
C17 C 0.00238 -0.00435 0.63464 0.0
O18 O 0.95433 0.96411 0.60936 0.0
Co19 Co 0.95536 0.0244 0.61696 0.0
O20 O 0.95614 0.00149 0.58377 0.0
C21 C 0.91328 0.00165 0.65346 0.0
C22 C 0.97111 0.94327 0.68358 0.0
C23 C 0.9533 0.97598 0.58624 0.0
O24 O 0.92806 0.98088 0.65911 0.0
O25 O 0.92093 0.02114 0.63821 0.0
O26 O 0.0043 0.96942 0.63649 0.0
O27 O 0.97954 0.00605 0.64187 0.0
Co28 Co 0.25806 0.72295 0.93142 0.0
O29 O 0.2774 0.74217 0.95912 0.0
O30 O 0.29617 0.71582 0.9277 0.0
C31 C 0.23107 0.75703 0.91753 0.0
O32 O 0.24522 0.70139 0.89887 0.0
Co33 Co 0.19618 0.71344 0.93576 0.0
O34 O 0.19987 0.70447 0.8965 0.0
C35 C 0.23342 0.67968 0.96793 0.0
C36 C 0.29922 0.73226 0.94812 0.0
C37 C 0.22274 0.69829 0.88614 0.0
O38 O 0.25378 0.69022 0.95559 0.0
O39 O 0.20904 0.68797 0.96475 0.0
O40 O 0.25602 0.75558 0.90934 0.0
O41 O 0.22462 0.74033 0.93662 0.0
Co42 Co 0.51543 0.01465 0.17057 0.0
O43 O 0.49049 0.02756 0.1978 0.0
O44 O 0.51224 0.05321 0.168 0.0
C45 C 0.49136 0.97928 0.15462 0.0
O46 O 0.54108 0.00952 0.13893 0.0
Co47 Co 0.54225 0.95771 0.17381 0.0
O48 O 0.55476 0.96601 0.13635 0.0
C49 C 0.55913 0.00073 0.21112 0.0
C50 C 0.49529 0.05156 0.18806 0.0
C51 C 0.55324 0.98994 0.12682 0.0
O52 O 0.54694 0.01851 0.19646 0.0
O53 O 0.55648 0.97519 0.20757 0.0
O54 O 0.48551 0.0038 0.14687 0.0
O55 O 0.50852 0.97767 0.17425 0.0
Co56 Co 0.71703 0.20615 0.56927 0.0
O57 O 0.7147 0.22388 0.5345 0.0
O58 O 0.6826 0.19881 0.55346 0.0
C59 C 0.73479 0.24152 0.59209 0.0
O60 O 0.71007 0.18602 0.60438 0.0
Co61 Co 0.76961 0.1965 0.60179 0.0
O62 O 0.74471 0.19154 0.6331 0.0
C63 C 0.75462 0.15916 0.55684 0.0
C64 C 0.69043 0.21378 0.53334 0.0
C65 C 0.72034 0.18481 0.62823 0.0
O66 O 0.73269 0.17244 0.55207 0.0
O67 O 0.77191 0.16595 0.57496 0.0
O68 O 0.70881 0.24035 0.58797 0.0
O69 O 0.74897 0.22257 0.58092 0.0
Co70 Co 0.01159 0.47761 0.80392 0.0
O71 O 0.98689 0.46511 0.77668 0.0
O72 O 0.01319 0.43867 0.80184 0.0
C73 C 0.98353 0.50709 0.82475 0.0
O74 O 0.03859 0.48299 0.83451 0.0
Co75 Co 0.02926 0.53799 0.80595 0.0
O76 O 0.04294 0.5277 0.84258 0.0
C77 C 0.05204 0.50142 0.76437 0.0
C78 C -0.00521 0.44083 0.7831 0.0
C79 C 0.04703 0.50298 0.84896 0.0
O80 O 0.04149 0.48082 0.77627 0.0
O81 O 0.04705 0.52597 0.7713 0.0
O82 O 0.98225 0.4814 0.83036 0.0
O83 O -0.00094 0.51332 0.80471 0.0
Co84 Co 0.76428 0.74872 0.0709 0.0
O85 O 0.77787 0.72446 0.04368 0.0
O86 O 0.80276 0.74465 0.07527 0.0
C87 C 0.72804 0.72439 0.08394 0.0
O88 O 0.75727 0.77402 0.10271 0.0
Co89 Co 0.70754 0.7755 0.06443 0.0
O90 O 0.71311 0.78558 0.10317 0.0
C91 C 0.75336 0.79472 0.03183 0.0
C92 C 0.8015 0.72833 0.05455 0.0
C93 C 0.73649 0.78494 0.11408 0.0
O94 O 0.76996 0.78089 0.0464 0.0
O95 O 0.72762 0.79249 0.0336 0.0
O96 O 0.75198 0.71826 0.09308 0.0
O97 O 0.72772 0.74201 0.06469 0.0
Co98 Co 0.4725 0.51662 0.32136 0.0
O99 O 0.4965 0.53527 0.29747 0.0
O100 O 0.46829 0.55508 0.32656 0.0
C101 C 0.50153 0.48556 0.33756 0.0
O102 O 0.44601 0.50414 0.34995 0.0
Co103 Co 0.45805 0.4565 0.30986 0.0
O104 O 0.43887 0.45929 0.34527 0.0
C105 C 0.43248 0.49908 0.27739 0.0
C106 C 0.48689 0.55746 0.30805 0.0
C107 C 0.43554 0.48171 0.3578 0.0
O108 O 0.44278 0.51706 0.29322 0.0
O109 O 0.43868 0.47391 0.27866 0.0
O110 O 0.50158 0.51011 0.34716 0.0
O111 O 0.48719 0.48194 0.31595 0.0
Co112 Co 0.38857 0.20824 0.27025 0.0
O113 O 0.41712 0.19354 0.24838 0.0
O114 O 0.38626 0.16927 0.27018 0.0
C115 C 0.37524 0.24134 0.24166 0.0
O116 O 0.35576 0.21615 0.29374 0.0
Co117 Co 0.39037 0.26804 0.29083 0.0
O118 O 0.35138 0.26136 0.29853 0.0
C119 C 0.42572 0.22648 0.31527 0.0
C120 C 0.40753 0.16987 0.25463 0.0
C121 C 0.34222 0.23733 0.30065 0.0
O122 O 0.41265 0.20734 0.30336 0.0
O123 O 0.42175 0.25169 0.31064 0.0
O124 O 0.36677 0.21665 0.23792 0.0
O125 O 0.39347 0.24407 0.26007 0.0
Co126 Co 0.01583 0.16231 0.51228 0.0
O127 O 0.02625 0.19614 0.49641 0.0
O128 O 0.04948 0.17362 0.52773 0.0
C129 C 0.00411 0.14073 0.47373 0.0
O130 O 0.0127 0.12667 0.53243 0.0
Co131 Co 0.95717 0.14077 0.50842 0.0
O132 O 0.97438 0.1059 0.51956 0.0
C133 C 0.96986 0.1854 0.5461 0.0
C134 C 0.04755 0.19448 0.5118 0.0
C135 C -0.00254 0.10568 0.53113 0.0
O136 O -0.00471 0.18192 0.54169 0.0
O137 O 0.95135 0.17272 0.53309 0.0
O138 O 0.02944 0.14222 0.48073 0.0
O139 O 0.98766 0.15497 0.48834 0.0
Co140 Co 0.07143 0.79707 0.77852 0.0
O141 O 0.04215 0.81236 0.75841 0.0
O142 O 0.06955 0.83562 0.78546 0.0
C143 C 0.08922 0.77154 0.74488 0.0
O144 O 0.10403 0.78799 0.80183 0.0
Co145 Co 0.07396 0.73457 0.78733 0.0
O146 O 0.11156 0.74295 0.79931 0.0
C147 C 0.03498 0.76785 0.81825 0.0
C148 C 0.04894 0.83546 0.76903 0.0
C149 C 0.11863 0.76684 0.80619 0.0
O150 O 0.04652 0.78968 0.81004 0.0
O151 O 0.04096 0.74423 0.80914 0.0
O152 O 0.09509 0.79717 0.74645 0.0
O153 O 0.0707 0.76347 0.76135 0.0
Co154 Co 0.47241 0.81924 0.01701 0.0
O155 O 0.45344 0.79911 0.98952 0.0
O156 O 0.43433 0.82097 0.02406 0.0
C157 C 0.50112 0.84261 0.99058 0.0
O158 O 0.4843 0.8427 0.04849 0.0
Co159 Co 0.53344 0.80983 0.02764 0.0
O160 O 0.52908 0.83868 0.05572 0.0
C161 C 0.49457 0.76886 0.04493 0.0
C162 C 0.43156 0.80568 0.00275 0.0
C163 C 0.506 0.84897 0.06128 0.0
O164 O 0.47524 0.78568 0.0401 0.0
O165 O 0.51909 0.77329 0.0379 0.0
O166 O 0.47622 0.85077 -0.00651 0.0
O167 O 0.50654 0.819 0.00048 0.0
Co168 Co 0.89673 0.26794 0.73153 0.0
O169 O 0.9271 0.27754 0.75402 0.0
O170 O 0.90548 0.30531 0.72601 0.0
C171 C 0.87343 0.2452 0.76356 0.0
O172 O 0.86479 0.26656 0.70578 0.0
Co173 Co 0.88062 0.20824 0.71939 0.0
O174 O 0.84728 0.22465 0.70361 0.0
C175 C 0.92618 0.23364 0.68988 0.0
C176 C 0.92465 0.30164 0.74368 0.0
C177 C 0.84659 0.24982 0.69792 0.0
O178 O 0.92142 0.25683 0.7009 0.0
O179 O 0.91364 0.21184 0.69601 0.0
O180 O 0.87174 0.27148 0.76233 0.0
O181 O 0.89043 0.2341 0.74712 0.0
Co182 Co 0.98 0.65336 0.98455 0.0
O183 O 0.96895 0.67871 0.01228 0.0
O184 O 0.94155 0.65227 0.98832 0.0
C185 C 0.01507 0.63345 0.00585 0.0
O186 O 0.98314 0.62427 0.95565 0.0
Co187 Co 0.03624 0.65723 0.95675 0.0
O188 O 0.02585 0.62211 0.93976 0.0
C189 C -0.0056 0.69739 0.94441 0.0
C190 C 0.94443 0.67083 0.00682 0.0
C191 C 0.00173 0.61315 0.94121 0.0
O192 O 0.97652 0.68234 0.95582 0.0
O193 O 0.01983 0.69271 0.94588 0.0
O194 O 0.9904 0.62634 0.01168 0.0
O195 O 0.01716 0.65475 0.9909 0.0
Co196 Co 0.56588 0.72469 0.21866 0.0
O197 O 0.54478 0.70957 0.24781 0.0
O198 O 0.57014 0.68629 0.21862 0.0
C199 C 0.58623 0.75903 0.24059 0.0
O200 O 0.59091 0.73208 0.1872 0.0
Co201 Co 0.55393 0.78196 0.19623 0.0
O202 O 0.58379 0.77374 0.17022 0.0
C203 C 0.51611 0.7385 0.18536 0.0
C204 C 0.55389 0.68624 0.2393 0.0
C205 C 0.59617 0.75102 0.17027 0.0
O206 O 0.53422 0.72136 0.19294 0.0
O207 O 0.51826 0.76394 0.18981 0.0
O208 O 0.59503 0.73434 0.2435 0.0
O209 O 0.56319 0.76134 0.22835 0.0
Co210 Co 0.53732 0.32017 0.4664 0.0
O211 O 0.55747 0.29238 0.48414 0.0
O212 O 0.57301 0.31801 0.45052 0.0
C213 C 0.52017 0.34088 0.50336 0.0
O214 O 0.52241 0.35111 0.44382 0.0
Co215 Co 0.47467 0.32157 0.47172 0.0
O216 O 0.47908 0.35852 0.45608 0.0
C217 C 0.50051 0.28071 0.43664 0.0
C218 C 0.57706 0.29846 0.4677 0.0
C219 C 0.50059 0.36537 0.44355 0.0
O220 O 0.52333 0.29286 0.43947 0.0
O221 O 0.47921 0.28739 0.44992 0.0
O222 O 0.54474 0.34612 0.49553 0.0
O223 O 0.5087 0.32085 0.49105 0.0
Co224 Co 0.2532 0.41518 0.22306 0.0
O225 O 0.22641 0.43902 0.20778 0.0
O226 O 0.25264 0.41087 0.18431 0.0
C227 C 0.22842 0.39816 0.25745 0.0
O228 O 0.28203 0.38714 0.23122 0.0
Co229 Co 0.27495 0.42541 0.28131 0.0
O230 O 0.29778 0.39292 0.2737 0.0
C231 C 0.29341 0.45992 0.23697 0.0
C232 C 0.23371 0.42924 0.18437 0.0
C233 C 0.29766 0.38057 0.25093 0.0
O234 O 0.28213 0.44391 0.21971 0.0
O235 O 0.28938 0.45828 0.26254 0.0
O236 O 0.22571 0.38853 0.23304 0.0
O237 O 0.24301 0.4197 0.25941 0.0
Co238 Co 0.74546 0.08057 0.7666 0.0
O239 O 0.7287 0.04849 0.78068 0.0
O240 O 0.75977 0.07313 0.80189 0.0
C241 C 0.70733 0.10092 0.75155 0.0
O242 O 0.76626 0.1153 0.76023 0.0
Co243 Co 0.74315 0.09691 0.70609 0.0
O244 O 0.75528 0.13291 0.71978 0.0
C245 C 0.78059 0.05343 0.72377 0.0
C246 C 0.74324 0.05272 0.80226 0.0
C247 C 0.76622 0.13484 0.7431 0.0
O248 O 0.77509 0.05834 0.74886 0.0
O249 O 0.76835 0.06509 0.70407 0.0
O250 O 0.71391 0.10252 0.77703 0.0
O251 O 0.72233 0.08505 0.73709 0.0
Co252 Co 0.17247 0.49127 -0.00279 0.0
O253 O 0.19532 0.46317 0.01189 0.0
O254 O 0.17166 0.49296 0.03606 0.0
C255 C 0.14997 0.4668 0.96585 0.0
O256 O 0.14634 0.52206 0.99021 0.0
Co257 Co 0.1784 0.50972 0.93736 0.0
O258 O 0.14887 0.53572 0.94677 0.0
C259 C 0.2178 0.52839 0.97746 0.0
C260 C 0.18817 0.47241 0.03558 0.0
C261 C 0.13904 0.53751 0.97063 0.0
O262 O 0.20348 0.51794 -0.00344 0.0
O263 O 0.21323 0.52404 0.95229 0.0
O264 O 0.14287 0.46582 0.99121 0.0
O265 O 0.17249 0.47912 0.9611 0.0
Co266 Co 0.72649 0.91557 0.2572 0.0
O267 O 0.75242 0.93659 0.27687 0.0
O268 O 0.71669 0.91599 0.29492 0.0
C269 C 0.75498 0.89027 0.23216 0.0
O270 O 0.69611 0.89158 0.24397 0.0
Co271 Co 0.72119 0.92131 0.19489 0.0
O272 O 0.69366 0.8921 0.1984 0.0
C273 C 0.70034 0.96453 0.23002 0.0
C274 C 0.73799 0.93102 0.29819 0.0
C275 C 0.68583 0.88351 0.22147 0.0
O276 O 0.70394 0.94907 0.25067 0.0
O277 O 0.70896 0.95846 0.20628 0.0
O278 O 0.75005 0.88383 0.25722 0.0
O279 O 0.74579 0.91359 0.22454 0.0
Co280 Co 0.35003 0.47068 0.54072 0.0
O281 O 0.32355 0.49778 0.5496 0.0
O282 O 0.35216 0.47909 0.57883 0.0
C283 C 0.36588 0.49028 0.50267 0.0
O284 O 0.38053 0.44296 0.53869 0.0
Co285 Co 0.34484 0.43831 0.48641 0.0
O286 O 0.38059 0.42339 0.49724 0.0
C287 C 0.30746 0.4282 0.53143 0.0
C288 C 0.33252 0.49614 0.57428 0.0
C289 C 0.39082 0.42709 0.52069 0.0
O290 O 0.32307 0.44081 0.54806 0.0
O291 O 0.31058 0.42875 0.50568 0.0
O292 O 0.37466 0.49839 0.5262 0.0
O293 O 0.34616 0.47338 0.50345 0.0
Co294 Co 0.22102 0.60389 0.71009 0.0
O295 O 0.24954 0.57945 0.70029 0.0
O296 O 0.22669 0.60518 0.67135 0.0
C297 C 0.24171 0.62287 0.74605 0.0
O298 O 0.19092 0.63192 0.71342 0.0
Co299 Co 0.19326 0.59547 0.76624 0.0
O300 O 0.17043 0.62636 0.75399 0.0
C301 C 0.18226 0.55781 0.72198 0.0
C302 C 0.24546 0.58704 0.67546 0.0
C303 C 0.17282 0.63819 0.73113 0.0
O304 O 0.19315 0.57437 0.70513 0.0
O305 O 0.18444 0.56042 0.74771 0.0
O306 O 0.24713 0.6315 0.72178 0.0
O307 O 0.2268 0.60157 0.74728 0.0
Co308 Co 0.66749 0.97155 0.97391 0.0
O309 O 0.69237 -0.00592 0.95456 0.0
O310 O 0.66275 0.96595 0.93568 0.0
C311 C 0.65217 0.00237 0.00389 0.0
O312 O 0.63815 0.94598 0.98673 0.0
Co313 Co 0.67571 0.95852 0.03481 0.0
O314 O 0.63787 0.94465 0.03229 0.0
C315 C 0.71027 0.93203 -0.00613 0.0
C316 C 0.68209 0.98349 0.9327 0.0
C317 C 0.62728 0.93911 0.00937 0.0
O318 O 0.69508 0.94153 0.97499 0.0
O319 O 0.70757 0.93861 0.01888 0.0
O320 O 0.64243 0.00177 0.97939 0.0
O321 O 0.67296 0.98703 0.00805 0.0
Co322 Co 0.84662 -0.00203 0.45459 0.0
O323 O 0.81571 0.97692 0.44358 0.0
O324 O 0.83146 0.01336 0.42254 0.0
C325 C 0.8747 0.96269 0.46284 0.0
O326 O 0.87763 0.02432 0.45752 0.0
Co327 Co 0.87433 -0.00514 0.51076 0.0
O328 O 0.90386 0.0164 0.49371 0.0
C329 C 0.82248 0.02475 0.50434 0.0
C330 C 0.81408 -0.00628 0.42332 0.0
C331 C 0.89914 0.02841 0.47138 0.0
O332 O 0.82333 0.02196 0.47835 0.0
O333 O 0.8395 0.01346 0.52039 0.0
O334 O 0.87144 0.97134 0.43815 0.0
O335 O 0.85959 0.97416 0.48084 0.0
H336 H 0.0518 0.23567 0.47579 0.0
H337 H 0.0937 0.1963 0.54177 0.0
H338 H 0.13477 0.2213 0.53104 0.0
H339 H 0.16038 0.24806 0.49847 0.0
H340 H 0.11951 0.28594 0.43114 0.0
H341 H 0.07615 0.26814 0.44712 0.0
C342 C 0.06976 0.23299 0.48816 0.0
C343 C 0.07 0.21373 0.5091 0.0
C344 C 0.09348 0.2469 0.48145 0.0
C345 C 0.09321 0.21071 0.52524 0.0
C346 C 0.11671 0.22493 0.51908 0.0
C347 C 0.14189 0.25279 0.48756 0.0
C348 C 0.14303 0.26766 0.4634 0.0
C349 C 0.11735 0.24207 0.4965 0.0
C350 C 0.11901 0.27426 0.4497 0.0
C351 C 0.0943 0.26398 0.45874 0.0
H352 H 0.01049 0.94684 0.72178 0.0
H353 H 0.94622 0.89544 0.69259 0.0
H354 H 0.96287 0.85816 0.7204 0.0
H355 H -0.00053 0.83835 0.74676 0.0
H356 H 0.06573 0.88816 0.77404 0.0
H357 H 0.04439 0.9281 0.75354 0.0
C358 C -0.00024 0.92769 0.72216 0.0
C359 C 0.97741 0.92364 0.70502 0.0
C360 C 0.01007 0.90601 0.73744 0.0
C361 C 0.96366 0.89881 0.70547 0.0
C362 C 0.97322 0.87749 0.72125 0.0
C363 C 0.00908 0.85802 0.74855 0.0
C364 C 0.03434 0.86032 0.76132 0.0
C365 C -0.00294 0.88054 0.7363 0.0
C366 C 0.04633 0.88595 0.76405 0.0
C367 C 0.0342 0.90871 0.75225 0.0
H368 H 0.3106 0.77013 0.98611 0.0
H369 H 0.3484 0.7152 0.92915 0.0
H370 H 0.39286 0.73354 0.94065 0.0
H371 H 0.42075 0.76606 0.96605 0.0
H372 H 0.38254 0.8209 0.02284 0.0
H373 H 0.33836 0.80187 0.01196 0.0
C374 C 0.32857 0.76198 0.97637 0.0
C375 C 0.32624 0.74135 0.95683 0.0
C376 C 0.35393 0.77282 0.98279 0.0
C377 C 0.34969 0.73107 0.94432 0.0
C378 C 0.37509 0.74163 0.95077 0.0
C379 C 0.40273 0.77393 0.9759 0.0
C380 C 0.40486 0.79494 -0.00492 0.0
C381 C 0.3774 0.76272 0.96976 0.0
C382 C 0.3814 0.80478 0.00793 0.0
C383 C 0.35614 0.79387 0.0018 0.0
H384 H 0.45302 0.05423 0.22338 0.0
H385 H 0.50781 0.10387 0.17688 0.0
H386 H 0.48546 0.14472 0.19355 0.0
H387 H 0.45024 0.16634 0.22069 0.0
H388 H 0.39459 0.11737 0.26678 0.0
H389 H 0.41736 0.07618 0.2508 0.0
C390 C 0.46009 0.074 0.21701 0.0
C391 C 0.48199 0.07605 0.19894 0.0
C392 C 0.44696 0.09748 0.22647 0.0
C393 C 0.49091 0.10176 0.19072 0.0
C394 C 0.47816 0.12514 0.20023 0.0
C395 C 0.44305 0.14667 0.22726 0.0
C396 C 0.42078 0.14488 0.24484 0.0
C397 C 0.45612 0.12322 0.21798 0.0
C398 C 0.41169 0.11925 0.25316 0.0
C399 C 0.42472 0.09572 0.24408 0.0
H400 H 0.69156 0.25869 0.50159 0.0
H401 H 0.64525 0.18668 0.51863 0.0
H402 H 0.60648 0.20549 0.49461 0.0
H403 H 0.5833 0.24569 0.47762 0.0
H404 H 0.62814 0.31873 0.46197 0.0
H405 H 0.67016 0.29622 0.47622 0.0
C406 C 0.67327 0.24682 0.49922 0.0
C407 C 0.67092 0.22167 0.51232 0.0
C408 C 0.65071 0.25817 0.48614 0.0
C409 C 0.64725 0.20633 0.50908 0.0
C410 C 0.62505 0.2171 0.49547 0.0
C411 C 0.60243 0.25642 0.47676 0.0
C412 C 0.60283 0.28381 0.46946 0.0
C413 C 0.62612 0.24355 0.48535 0.0
C414 C 0.62756 0.29758 0.46778 0.0
C415 C 0.65147 0.28477 0.47607 0.0
H416 H 0.92395 0.35292 0.7246 0.0
H417 H 0.96481 0.30088 0.7818 0.0
H418 H 0.99173 0.33922 0.79783 0.0
H419 H 0.00153 0.38807 0.79742 0.0
H420 H 0.95955 0.43991 0.74078 0.0
H421 H 0.93532 0.40096 0.72255 0.0
C422 C 0.93885 0.3499 0.74047 0.0
C423 C 0.94224 0.32419 0.75216 0.0
C424 C 0.95401 0.37199 0.74971 0.0
C425 C 0.96174 0.32055 0.77257 0.0
C426 C 0.97712 0.34244 0.78175 0.0
C427 C 0.98728 0.39078 0.7809 0.0
C428 C 0.9822 0.41683 0.77058 0.0
C429 C 0.97312 0.36834 0.77074 0.0
C430 C 0.9637 0.42007 0.74919 0.0
C431 C 0.94981 0.39783 0.73876 0.0
H432 H 0.85388 0.73591 0.06973 0.0
H433 H 0.8034 0.69022 0.01474 0.0
H434 H 0.84324 0.66781 -0.00404 0.0
H435 H 0.89212 0.66176 -0.00553 0.0
H436 H 0.94333 0.7079 0.04827 0.0
H437 H 0.90336 0.72954 0.06835 0.0
C438 C 0.85163 0.721 0.05369 0.0
C439 C 0.82576 0.71474 0.04363 0.0
C440 C 0.87467 0.70829 0.04281 0.0
C441 C 0.82311 0.69544 0.0228 0.0
C442 C 0.84586 0.68259 0.01205 0.0
C443 C 0.89459 0.67644 0.0107 0.0
C444 C 0.92059 0.68321 0.01992 0.0
C445 C 0.87169 0.68893 0.02184 0.0
C446 C 0.92346 0.70236 0.04085 0.0
C447 C 0.90065 0.71474 0.0523 0.0
H448 H 0.51497 0.67823 0.2776 0.0
H449 H 0.57421 0.63635 0.22831 0.0
H450 H 0.55899 0.59299 0.24587 0.0
H451 H 0.52802 0.56686 0.27362 0.0
H452 H 0.46821 0.60769 0.32294 0.0
H453 H 0.48455 0.65166 0.30697 0.0
C454 C 0.52464 0.65961 0.27091 0.0
C455 C 0.54556 0.66046 0.25162 0.0
C456 C 0.51563 0.63461 0.28092 0.0
C457 C 0.55794 0.63622 0.24305 0.0
C458 C 0.54927 0.61139 0.25305 0.0
C459 C 0.51854 0.58536 0.28093 0.0
C460 C 0.49687 0.58409 0.29925 0.0
C461 C 0.52795 0.61035 0.27169 0.0
C462 C 0.48492 0.60821 0.30872 0.0
C463 C 0.49424 0.63332 0.29961 0.0
H464 H 0.24523 0.41262 0.13305 0.0
H465 H 0.19501 0.46828 0.17859 0.0
H466 H 0.17615 0.4861 0.13651 0.0
H467 H 0.17475 0.48671 0.08691 0.0
H468 H 0.22489 0.43124 0.04113 0.0
H469 H 0.24293 0.41245 0.08326 0.0
C470 C 0.23009 0.42858 0.13377 0.0
C471 C 0.2216 0.43917 0.15889 0.0
C472 C 0.21938 0.4388 0.10949 0.0
C473 C 0.20193 0.4598 0.1595 0.0
C474 C 0.19114 0.47003 0.13545 0.0
C475 C 0.18959 0.47047 0.08612 0.0
C476 C 0.19856 0.46046 0.06095 0.0
C477 C 0.19986 0.45982 0.11036 0.0
C478 C 0.2177 0.43933 0.06027 0.0
C479 C 0.22803 0.42859 0.08434 0.0
H480 H 0.72725 0.01191 0.92118 0.0
H481 H 0.65928 0.9718 0.88371 0.0
H482 H 0.67427 0.98714 0.8391 0.0
H483 H 0.70442 0.01521 0.8115 0.0
H484 H 0.77181 0.05602 0.84933 0.0
H485 H 0.75959 0.03662 0.89308 0.0
C486 C 0.71579 0.00643 0.90323 0.0
C487 C 0.69201 0.99114 0.90569 0.0
C488 C 0.72446 0.01534 0.87777 0.0
C489 C 0.67757 0.98377 0.88229 0.0
C490 C 0.68612 0.99251 0.8568 0.0
C491 C 0.71671 0.01948 0.82922 0.0
C492 C 0.73878 0.03723 0.8273 0.0
C493 C 0.70924 0.00874 0.85439 0.0
C494 C 0.75458 0.04254 0.85038 0.0
C495 C 0.74755 0.03157 0.87541 0.0
H496 H 0.7627 0.97813 0.30885 0.0
H497 H 0.73033 0.90683 0.34719 0.0
H498 H 0.74852 0.9217 0.39102 0.0
H499 H 0.77806 0.95257 0.41687 0.0
H500 H 0.8093 0.0243 0.37792 0.0
H501 H 0.78653 0.01198 0.33596 0.0
C502 C 0.75945 0.96602 0.3269 0.0
C503 C 0.7458 0.94128 0.32496 0.0
C504 C 0.7697 0.97478 0.35182 0.0
C505 C 0.74104 0.92593 0.34839 0.0
C506 C 0.75146 0.93438 0.37335 0.0
C507 C 0.77943 0.96574 0.39934 0.0
C508 C 0.79576 0.98898 0.4003 0.0
C509 C 0.76646 0.95843 0.37513 0.0
C510 C 0.79712 0.00608 0.37759 0.0
C511 C 0.78421 -0.00097 0.35353 0.0
H512 H 0.28724 0.55191 0.67988 0.0
H513 H 0.23784 0.5935 0.62087 0.0
H514 H 0.26124 0.5695 0.58417 0.0
H515 H 0.29426 0.53529 0.5692 0.0
H516 H 0.34336 0.49365 0.62846 0.0
H517 H 0.32145 0.51924 0.66488 0.0
C518 C 0.28166 0.55587 0.65898 0.0
C519 C 0.26075 0.57434 0.65307 0.0
C520 C 0.29504 0.54194 0.63812 0.0
C521 C 0.25388 0.57937 0.62592 0.0
C522 C 0.26718 0.5656 0.60496 0.0
C523 C 0.30025 0.53188 0.59008 0.0
C524 C 0.32029 0.5125 0.59617 0.0
C525 C 0.28755 0.54661 0.61088 0.0
C526 C 0.32796 0.50842 0.62328 0.0
C527 C 0.31542 0.52302 0.64409 0.0
H528 H 0.25413 0.42313 0.52163 0.0
H529 H 0.32178 0.3842 0.56047 0.0
H530 H 0.30296 0.33974 0.54989 0.0
H531 H 0.27552 0.31396 0.51702 0.0
H532 H 0.20867 0.35348 0.4768 0.0
H533 H 0.21844 0.3955 0.50084 0.0
C534 C 0.26377 0.40488 0.52926 0.0
C535 C 0.28951 0.40671 0.54114 0.0
C536 C 0.25348 0.37947 0.52185 0.0
C537 C 0.30193 0.38316 0.55119 0.0
C538 C 0.29146 0.3577 0.54456 0.0
C539 C 0.26257 0.33154 0.51424 0.0
C540 C 0.24212 0.33099 0.49442 0.0
C541 C 0.26855 0.35581 0.52786 0.0
C542 C 0.22491 0.35355 0.49156 0.0
C543 C 0.23055 0.37768 0.50523 0.0
H544 H 0.89617 0.00245 0.706 0.0
H545 H 0.86843 0.00551 0.6232 0.0
H546 H 0.8229 0.01743 0.63841 0.0
H547 H 0.79317 0.03322 0.6743 0.0
H548 H 0.82105 0.03452 0.75725 0.0
H549 H 0.86404 0.01402 0.74314 0.0
C550 C 0.87987 0.00503 0.6915 0.0
C551 C 0.88537 0.00315 0.6636 0.0
C552 C 0.85391 0.01294 0.7004 0.0
C553 C 0.86442 0.0069 0.64478 0.0
C554 C 0.83849 0.0138 0.65345 0.0
C555 C 0.80844 0.0287 0.68945 0.0
C556 C 0.80404 0.03591 0.71673 0.0
C557 C 0.8333 0.01787 0.6811 0.0
C558 C 0.82393 0.02938 0.73607 0.0
C559 C 0.84861 0.01781 0.72798 0.0
H560 H 0.2683 0.63915 0.95542 0.0
H561 H 0.20579 0.66184 0.01223 0.0
H562 H 0.20155 0.61473 0.02666 0.0
H563 H 0.20736 0.56698 0.01466 0.0
H564 H 0.26462 0.54416 0.95262 0.0
H565 H 0.28 0.59109 0.9494 0.0
C566 C 0.25454 0.63391 0.97172 0.0
C567 C 0.23717 0.65383 0.98256 0.0
C568 C 0.25108 0.60653 0.97871 0.0
C569 C 0.2192 0.64677 0.00346 0.0
C570 C 0.21668 0.6198 0.01159 0.0
C571 C 0.22411 0.57205 0.00137 0.0
C572 C 0.23472 0.55222 0.98374 0.0
C573 C 0.23132 0.59937 -0.00183 0.0
C574 C 0.25614 0.55913 0.96635 0.0
C575 C 0.26466 0.58604 0.96426 0.0
H576 H 0.6018 0.02985 0.19511 0.0
H577 H 0.56892 0.9871 0.26355 0.0
H578 H 0.61445 0.97908 0.28108 0.0
H579 H 0.66164 0.97129 0.2685 0.0
H580 H 0.69357 0.0076 0.19574 0.0
H581 H 0.65096 0.03166 0.18869 0.0
C582 C 0.60465 0.02017 0.21466 0.0
C583 C 0.58228 0.00877 0.22793 0.0
C584 C 0.63094 0.01363 0.22329 0.0
C585 C 0.586 -0.00403 0.25305 0.0
C586 C 0.61206 0.99101 0.26281 0.0
C587 C 0.6597 0.98533 0.25171 0.0
C588 C 0.68035 0.98687 0.23211 0.0
C589 C 0.63457 -0.0023 0.24684 0.0
C590 C 0.67768 0.0055 0.21073 0.0
C591 C 0.65323 0.01916 0.2066 0.0
H592 H 0.76785 0.11157 0.57868 0.0
H593 H 0.75359 0.15051 0.50193 0.0
H594 H 0.77022 0.10996 0.47792 0.0
H595 H 0.79444 0.06587 0.4796 0.0
H596 H 0.80762 0.02772 0.55731 0.0
H597 H 0.78525 0.0653 0.58008 0.0
C598 C 0.76802 0.11095 0.55666 0.0
C599 C 0.76004 0.13388 0.54197 0.0
C600 C 0.77748 0.08778 0.54324 0.0
C601 C 0.75981 0.13294 0.51353 0.0
C602 C 0.76941 0.10986 0.49989 0.0
C603 C 0.79179 0.06546 0.50143 0.0
C604 C 0.80323 0.04424 0.51673 0.0
C605 C 0.77909 0.08745 0.5146 0.0
C606 C 0.79947 0.04399 0.54502 0.0
C607 C 0.78672 0.06552 0.55814 0.0
H608 H 0.1714 0.5066 0.73838 0.0
H609 H 0.14283 0.57041 0.68611 0.0
H610 H 0.0968 0.55308 0.68931 0.0
H611 H 0.06435 0.52901 0.71854 0.0
H612 H 0.09291 0.46538 0.77107 0.0
H613 H 0.13919 0.47271 0.75559 0.0
C614 C 0.1553 0.51575 0.72653 0.0
C615 C 0.16023 0.54007 0.71265 0.0
C616 C 0.12874 0.50607 0.72906 0.0
C617 C 0.13944 0.55171 0.69707 0.0
C618 C 0.11299 0.54205 0.69925 0.0
C619 C 0.08057 0.51589 0.72553 0.0
C620 C 0.0755 0.49724 0.74639 0.0
C621 C 0.10722 0.52061 0.71693 0.0
C622 C 0.09643 0.48003 0.75513 0.0
C623 C 0.12299 0.48445 0.74653 0.0
H624 H 0.75539 0.91547 0.02085 0.0
H625 H 0.70413 0.89553 0.95287 0.0
H626 H 0.7207 0.84902 0.95346 0.0
H627 H 0.73838 0.81245 0.98226 0.0
H628 H 0.78861 0.83204 0.05091 0.0
H629 H 0.78475 0.88021 0.04053 0.0
C630 C 0.74866 0.90118 0.00553 0.0
C631 C 0.72782 0.90856 0.98758 0.0
C632 C 0.75786 0.87426 0.00634 0.0
C633 C 0.7198 0.89019 0.96728 0.0
C634 C 0.72912 0.86348 0.96772 0.0
C635 C 0.74967 0.82724 -0.00601 0.0
C636 C 0.76308 0.81898 0.01767 0.0
C637 C 0.74651 0.85492 0.98847 0.0
C638 C 0.77799 0.83804 0.03264 0.0
C639 C 0.77539 0.86565 0.02699 0.0
H640 H 0.31114 0.50789 0.25739 0.0
H641 H 0.33052 0.44573 0.19882 0.0
H642 H 0.37831 0.4575 0.20149 0.0
H643 H 0.41445 0.47585 0.23064 0.0
H644 H 0.39499 0.53773 0.28955 0.0
H645 H 0.3476 0.53627 0.27605 0.0
C646 C 0.32569 0.49786 0.24423 0.0
C647 C 0.31749 0.47547 0.22859 0.0
C648 C 0.35329 0.50423 0.24646 0.0
C649 C 0.33636 0.46289 0.21125 0.0
C650 C 0.36382 0.46934 0.21308 0.0
C651 C 0.4 0.48981 0.23969 0.0
C652 C 0.40801 0.5062 0.26164 0.0
C653 C 0.37261 0.48851 0.23218 0.0
C654 C 0.3893 0.52464 0.27283 0.0
C655 C 0.36206 0.52363 0.26531 0.0
H656 H 0.46335 0.24041 0.43166 0.0
H657 H 0.53029 0.27816 0.39024 0.0
H658 H 0.51609 0.25763 0.3476 0.0
H659 H 0.47821 0.23931 0.32102 0.0
H660 H 0.41093 0.20218 0.36196 0.0
H661 H 0.43198 0.21137 0.40593 0.0
C662 C 0.47529 0.24342 0.41345 0.0
C663 C 0.49727 0.26146 0.41388 0.0
C664 C 0.46678 0.23185 0.38887 0.0
C665 C 0.51303 0.26467 0.39037 0.0
C666 C 0.50482 0.25307 0.36589 0.0
C667 C 0.46893 0.23203 0.33958 0.0
C668 C 0.4431 0.22037 0.33853 0.0
C669 C 0.48079 0.23809 0.36467 0.0
C670 C 0.43097 0.21104 0.36246 0.0
C671 C 0.4428 0.2167 0.38758 0.0
H672 H -0.00295 0.19446 0.593 0.0
H673 H 0.9232 0.2144 0.5507 0.0
H674 H 0.90539 0.23642 0.5914 0.0
H675 H 0.90803 0.24364 0.64043 0.0
H676 H 0.97916 0.21878 0.68428 0.0
H677 H 0.00128 0.20554 0.64157 0.0
C678 C 0.97735 0.20424 0.59255 0.0
C679 C 0.96136 0.20273 0.56899 0.0
C680 C 0.9668 0.21586 0.61636 0.0
C681 C 0.93574 0.21516 0.5687 0.0
C682 C 0.92556 0.22771 0.59194 0.0
C683 C 0.92874 0.23618 0.64038 0.0
C684 C 0.94231 0.23254 0.66505 0.0
C685 C 0.94051 0.22732 0.61609 0.0
C686 C 0.96872 0.22213 0.66526 0.0
C687 C 0.98116 0.21434 0.64093 0.0
H688 H 0.01278 0.74845 0.9378 0.0
H689 H 0.95875 0.6891 0.90368 0.0
H690 H 0.96152 0.7112 0.85952 0.0
H691 H 0.98986 0.7388 0.82918 0.0
H692 H 0.0442 0.79792 0.86333 0.0
H693 H 0.03017 0.78522 0.90901 0.0
C694 C 0.00055 0.74127 0.92098 0.0
C695 C 0.98603 0.71701 0.92366 0.0
C696 C 0.00279 0.75372 0.89555 0.0
C697 C 0.97008 0.70779 0.90198 0.0
C698 C 0.97199 0.7202 0.87662 0.0
C699 C -0.00236 0.74971 0.84663 0.0
C700 C 0.01846 0.76871 0.84309 0.0
C701 C 0.98986 0.74192 0.87283 0.0
C702 C 0.02824 0.78308 0.86565 0.0
C703 C 0.02046 0.77559 0.8918 0.0
H704 H 0.52588 0.70441 0.14385 0.0
H705 H 0.46451 0.75684 0.17755 0.0
H706 H 0.44532 0.76381 0.13251 0.0
H707 H 0.45654 0.76782 0.08442 0.0
H708 H 0.52327 0.72181 0.05136 0.0
H709 H 0.52935 0.6989 0.09471 0.0
C710 C 0.50742 0.71616 0.14149 0.0
C711 C 0.49704 0.73074 0.16374 0.0
C712 C 0.49805 0.72196 0.11528 0.0
C713 C 0.47305 0.74577 0.16055 0.0
C714 C 0.46234 0.75007 0.13471 0.0
C715 C 0.4716 0.75188 0.08632 0.0
C716 C 0.49008 0.7472 0.06508 0.0
C717 C 0.47624 0.7403 0.11185 0.0
C718 C 0.50923 0.72623 0.06769 0.0
C719 C 0.51285 0.71328 0.09257 0.0
H720 H 0.21158 0.3465 0.37263 0.0
H721 H 0.27779 0.29702 0.34375 0.0
H722 H 0.27462 0.31807 0.29909 0.0
H723 H 0.25393 0.35153 0.26874 0.0
H724 H 0.19468 0.40761 0.30008 0.0
H725 H 0.19329 0.38256 0.34308 0.0
C726 C 0.22526 0.34035 0.35652 0.0
C727 C 0.24453 0.31984 0.36127 0.0
C728 C 0.22424 0.35355 0.33131 0.0
C729 C 0.26254 0.31247 0.34044 0.0
C730 C 0.26073 0.32449 0.31492 0.0
C731 C 0.24069 0.35816 0.28499 0.0
C732 C 0.2242 0.38106 0.28137 0.0
C733 C 0.2417 0.34507 0.31016 0.0
C734 C 0.2072 0.3897 0.30248 0.0
C735 C 0.20664 0.37557 0.32705 0.0
H736 H 0.87963 0.92393 0.50044 0.0
H737 H 0.92645 0.97542 0.4482 0.0
H738 H 0.9607 0.98053 0.48357 0.0
H739 H 0.96724 0.98339 0.53326 0.0
H740 H 0.91949 0.93275 0.58578 0.0
H741 H 0.89526 0.91471 0.54667 0.0
C742 C 0.89817 0.93494 0.49629 0.0
C743 C 0.90003 0.95034 0.47245 0.0
C744 C 0.91666 0.9393 0.51737 0.0
C745 C 0.92434 0.96382 0.46671 0.0
C746 C 0.94357 0.96738 0.48725 0.0
C747 C 0.95221 0.96778 0.53603 0.0
C748 C 0.94453 0.96011 0.56237 0.0
C749 C 0.93838 0.95743 0.5134 0.0
C750 C 0.92542 0.93935 0.5657 0.0
C751 C 0.91153 0.92901 0.54334 0.0
H752 H 0.20958 0.66279 0.76415 0.0
H753 H 0.28255 0.61868 0.78253 0.0
H754 H 0.28416 0.63985 0.82765 0.0
H755 H 0.26213 0.66742 0.86307 0.0
H756 H 0.18545 0.70608 0.84624 0.0
H757 H 0.1874 0.69004 0.79939 0.0
C758 C 0.22587 0.65801 0.77801 0.0
C759 C 0.24598 0.63946 0.77028 0.0
C760 C 0.2256 0.66886 0.80427 0.0
C761 C 0.26713 0.63332 0.78817 0.0
C762 C 0.26783 0.64515 0.81396 0.0
C763 C 0.2459 0.67239 0.8491 0.0
C764 C 0.22369 0.68792 0.85806 0.0
C765 C 0.24674 0.66236 0.82247 0.0
C766 C 0.20269 0.69403 0.83985 0.0
C767 C 0.20385 0.68498 0.81305 0.0
H768 H 0.60317 0.00991 0.1199 0.0
H769 H 0.53248 0.98306 0.07656 0.0
H770 H 0.5555 0.99074 0.03312 0.0
H771 H 0.59772 -0.00076 0.0082 0.0
H772 H 0.6697 0.02178 0.05209 0.0
H773 H 0.6442 0.02243 0.09461 0.0
C774 C 0.5929 0.00599 0.10083 0.0
C775 C 0.56652 -0.00429 0.10101 0.0
C776 C 0.60647 0.00984 0.07617 0.0
C777 C 0.553 0.99078 0.07653 0.0
C778 C 0.56608 -0.0047 0.05183 0.0
C779 C 0.60753 0.00527 0.02695 0.0
C780 C 0.63544 0.01063 0.02716 0.0
C781 C 0.59308 0.0041 0.05143 0.0
C782 C 0.64815 0.01776 0.05159 0.0
C783 C 0.63367 0.01781 0.07588 0.0
H784 H 0.71599 0.19868 0.68162 0.0
H785 H 0.6899 0.1399 0.62229 0.0
H786 H 0.67369 0.11029 0.65827 0.0
H787 H 0.67863 0.09673 0.70567 0.0
H788 H 0.7053 0.15482 0.76518 0.0
H789 H 0.70645 0.19015 0.73051 0.0
C790 C 0.70602 0.17974 0.67668 0.0
C791 C 0.70492 0.17092 0.64956 0.0
C792 C 0.69648 0.16287 0.6975 0.0
C793 C 0.69136 0.14678 0.64313 0.0
C794 C 0.68208 0.12985 0.66368 0.0
C795 C 0.68352 0.11746 0.71124 0.0
C796 C 0.69305 0.12299 0.73747 0.0
C797 C 0.68614 0.13698 0.69088 0.0
C798 C 0.69842 0.14995 0.74489 0.0
C799 C 0.69984 0.16998 0.72489 0.0
H800 H 0.10321 0.49427 0.96319 0.0
H801 H 0.15238 0.43653 0.91965 0.0
H802 H 0.12252 0.44047 0.88002 0.0
H803 H 0.08517 0.46409 0.85641 0.0
H804 H 0.04329 0.52924 0.89717 0.0
H805 H 0.06781 0.51946 0.93912 0.0
C806 C 0.10715 0.48236 0.94509 0.0
C807 C 0.12961 0.4649 0.94425 0.0
C808 C 0.09145 0.4866 0.92181 0.0
C809 C 0.13487 0.44978 0.92071 0.0
C810 C 0.118 0.45227 0.89804 0.0
C811 C 0.08133 0.47592 0.8746 0.0
C812 C 0.06214 0.49702 0.87401 0.0
C813 C 0.09668 0.4712 0.89812 0.0
C814 C 0.05771 0.5127 0.89739 0.0
C815 C 0.07172 0.50711 0.92131 0.0
H816 H 0.72971 0.84249 0.22756 0.0
H817 H 0.79083 0.89221 0.19045 0.0
H818 H 0.79315 0.86106 0.15162 0.0
H819 H 0.77365 0.82288 0.12599 0.0
H820 H 0.70669 0.77852 0.15978 0.0
H821 H 0.71027 0.80446 0.20213 0.0
C822 C 0.74394 0.84609 0.2112 0.0
C823 C 0.7604 0.86921 0.21181 0.0
C824 C 0.7436 0.82932 0.18822 0.0
C825 C 0.77829 0.87423 0.19036 0.0
C826 C 0.77941 0.8566 0.16815 0.0
C827 C 0.76022 0.8187 0.14288 0.0
C828 C 0.74011 0.79886 0.14014 0.0
C829 C 0.76156 0.83456 0.1665 0.0
C830 C 0.72232 0.79378 0.16171 0.0
C831 C 0.7244 0.80854 0.18582 0.0
H832 H 0.35406 0.46853 0.45407 0.0
H833 H 0.41088 0.52182 0.49367 0.0
H834 H 0.43695 0.52505 0.45138 0.0
H835 H 0.44452 0.51056 0.40379 0.0
H836 H 0.38988 0.45309 0.36712 0.0
H837 H 0.36212 0.45312 0.40812 0.0
C838 C 0.3722 0.48081 0.45367 0.0
C839 C 0.38065 0.49476 0.47706 0.0
C840 C 0.38753 0.48156 0.4299 0.0
C841 C 0.40398 0.51089 0.4759 0.0
C842 C 0.41892 0.51262 0.4518 0.0
C843 C 0.42644 0.49819 0.40485 0.0
C844 C 0.41905 0.48193 0.38258 0.0
C845 C 0.41105 0.49771 0.42879 0.0
C846 C 0.3959 0.46565 0.38413 0.0
C847 C 0.38003 0.46575 0.40747 0.0
H848 H 0.22951 0.2504 0.35632 0.0
H849 H 0.27308 0.21066 0.42071 0.0
H850 H 0.31044 0.20046 0.38967 0.0
H851 H 0.33383 0.21039 0.34691 0.0
H852 H 0.29322 0.257 0.28532 0.0
H853 H 0.2513 0.25654 0.31201 0.0
C854 C 0.24678 0.23864 0.3632 0.0
C855 C 0.24869 0.23112 0.39059 0.0
C856 C 0.26886 0.23456 0.34576 0.0
C857 C 0.27133 0.2165 0.39961 0.0
C858 C 0.29272 0.21091 0.38196 0.0
C859 C 0.31555 0.21991 0.33923 0.0
C860 C 0.31626 0.2337 0.31444 0.0
C861 C 0.29225 0.22102 0.35541 0.0
C862 C 0.29284 0.24634 0.30451 0.0
C863 C 0.269 0.24607 0.31975 0.0
H864 H 0.01012 0.99035 0.58114 0.0
H865 H 0.03185 0.03904 0.65018 0.0
H866 H 0.03779 0.0786 0.62106 0.0
H867 H 0.02411 0.10143 0.57888 0.0
H868 H 0.99081 0.05387 0.51361 0.0
H869 H 0.00254 0.01224 0.53733 0.0
C870 C 0.01731 0.00938 0.58948 0.0
C871 C 0.0202 0.01206 0.61762 0.0
C872 C 0.01741 0.03264 0.57318 0.0
C873 C 0.0296 0.03663 0.62845 0.0
C874 C 0.03234 0.05938 0.61188 0.0
C875 C 0.01974 0.08188 0.56979 0.0
C876 C 0.00658 0.08064 0.54456 0.0
C877 C 0.02415 0.05805 0.58469 0.0
C878 C 0.00088 0.0553 0.53297 0.0
C879 C 0.00732 0.03147 0.54668 0.0
H880 H 0.23168 0.75858 0.86291 0.0
H881 H 0.18258 0.77853 0.9325 0.0
H882 H 0.14376 0.78741 0.90288 0.0
H883 H 0.12241 0.78327 0.85794 0.0
H884 H 0.16992 0.75603 0.78978 0.0
H885 H 0.21092 0.75632 0.81784 0.0
C886 C 0.2127 0.7657 0.87147 0.0
C887 C 0.20993 0.76825 0.89974 0.0
C888 C 0.19015 0.76898 0.85452 0.0
C889 C 0.1851 0.77669 0.91074 0.0
C890 C 0.16291 0.78152 0.89385 0.0
C891 C 0.14192 0.77791 0.84927 0.0
C892 C 0.14351 0.76985 0.82201 0.0
C893 C 0.16496 0.77678 0.86584 0.0
C894 C 0.16853 0.7624 0.8108 0.0
C895 C 0.19185 0.76257 0.8268 0.0
H896 H 0.51145 0.92852 0.16076 0.0
H897 H 0.46049 0.97664 0.10844 0.0
H898 H 0.45904 0.93933 0.07558 0.0
H899 H 0.47568 0.89465 0.06009 0.0
H900 H 0.53213 0.8501 0.10975 0.0
H901 H 0.52884 0.88493 0.14509 0.0
C902 C 0.50005 0.93101 0.14218 0.0
C903 C 0.48641 0.95553 0.13691 0.0
C904 C 0.50075 0.91028 0.12274 0.0
C905 C 0.47122 0.95801 0.11297 0.0
C906 C 0.47058 0.93678 0.09409 0.0
C907 C 0.48712 0.89258 0.07875 0.0
C908 C 0.50407 0.86992 0.0825 0.0
C909 C 0.48584 0.91312 0.09847 0.0
C910 C 0.5191 0.8675 0.10649 0.0
C911 C 0.5171 0.8873 0.12668 0.0
H912 H 0.78187 0.26797 0.59182 0.0
H913 H 0.71547 0.24577 0.64372 0.0
H914 H 0.74481 0.24943 0.68355 0.0
H915 H 0.79175 0.24899 0.7014 0.0
H916 H 0.85771 0.27151 0.64925 0.0
H917 H 0.82626 0.27813 0.61154 0.0
C918 C 0.77356 0.2653 0.61202 0.0
C919 C 0.74684 0.25624 0.61498 0.0
C920 C 0.79071 0.26675 0.63457 0.0
C921 C 0.73603 0.25288 0.64108 0.0
C922 C 0.75295 0.25446 0.66378 0.0
C923 C 0.79896 0.25582 0.68194 0.0
C924 C 0.82682 0.25913 0.67775 0.0
C925 C 0.7807 0.2597 0.66047 0.0
C926 C 0.83623 0.26867 0.65271 0.0
C927 C 0.8183 0.27239 0.63119 0.0
H928 H 0.98626 0.50305 0.87945 0.0
H929 H 0.96738 0.55838 0.81458 0.0
H930 H 0.96879 0.59658 0.84621 0.0
H931 H 0.98214 0.61471 0.89068 0.0
H932 H 0.00477 0.56002 0.95471 0.0
H933 H -0.00492 0.52096 0.9253 0.0
C934 C 0.98147 0.52337 0.87252 0.0
C935 C 0.97659 0.52804 0.84485 0.0
C936 C 0.98368 0.54533 0.89057 0.0
C937 C 0.97106 0.55445 0.83588 0.0
C938 C 0.97215 0.57627 0.85387 0.0
C939 C 0.98466 0.59416 0.8981 0.0
C940 C -0.00565 0.58988 0.92442 0.0
C941 C 0.97962 0.57205 0.88095 0.0
C942 C -0.00252 0.56345 0.93428 0.0
C943 C 0.99185 0.54125 0.91754 0.0
H944 H 0.6411 0.72014 0.17635 0.0
H945 H 0.59854 0.77021 0.11867 0.0
H946 H 0.63371 0.76148 0.08481 0.0
H947 H 0.67751 0.74212 0.07279 0.0
H948 H 0.72341 0.69748 0.13236 0.0
H949 H 0.68523 0.70024 0.16393 0.0
C950 C 0.63951 0.72899 0.15629 0.0
C951 C 0.61741 0.74588 0.14995 0.0
C952 C 0.66014 0.72449 0.13725 0.0
C953 C 0.61557 0.75742 0.12404 0.0
C954 C 0.63553 0.75226 0.10466 0.0
C955 C 0.6792 0.73284 0.09262 0.0
C956 C 0.70346 0.72005 0.1004 0.0
C957 C 0.65804 0.73615 0.1112 0.0
C958 C 0.705 0.70755 0.12591 0.0
C959 C 0.6833 0.7094 0.14407 0.0
H960 H 0.48759 0.48017 0.38979 0.0
H961 H 0.52817 0.43908 0.32407 0.0
H962 H 0.53348 0.39846 0.35228 0.0
H963 H 0.52366 0.3739 0.39462 0.0
H964 H 0.47661 0.4131 0.45722 0.0
H965 H 0.47618 0.45525 0.43115 0.0
C966 C 0.49798 0.46243 0.38187 0.0
C967 C 0.50799 0.46255 0.35522 0.0
C968 C 0.4993 0.43881 0.3975 0.0
C969 C 0.52072 0.43935 0.34474 0.0
C970 C 0.52355 0.41617 0.36076 0.0
C971 C 0.51352 0.39178 0.40256 0.0
C972 C 0.50038 0.39064 0.4278 0.0
C973 C 0.51248 0.41553 0.387 0.0
C974 C 0.48684 0.41365 0.4378 0.0
C975 C 0.48668 0.43771 0.42297 0.0
H976 H 0.38971 0.29313 0.24882 0.0
H977 H 0.32498 0.24373 0.21734 0.0
H978 H 0.29552 0.28383 0.21507 0.0
H979 H 0.28676 0.33187 0.22764 0.0
H980 H 0.35022 0.37829 0.26559 0.0
H981 H 0.38154 0.3402 0.26046 0.0
C982 C 0.36924 0.2911 0.24113 0.0
C983 C 0.35944 0.26546 0.23352 0.0
C984 C 0.35207 0.31364 0.24171 0.0
C985 C 0.33303 0.26327 0.22324 0.0
C986 C 0.3161 0.28612 0.2223 0.0
C987 C 0.30753 0.33356 0.23453 0.0
C988 C 0.31632 0.35765 0.24704 0.0
C989 C 0.32514 0.3112 0.2324 0.0
C990 C 0.34309 0.35977 0.25617 0.0
C991 C 0.36098 0.3381 0.25309 0.0
H992 H 0.80903 0.14048 0.7769 0.0
H993 H 0.75417 0.18619 0.72656 0.0
H994 H 0.7775 0.22798 0.73851 0.0
H995 H 0.82014 0.24933 0.75303 0.0
H996 H 0.87925 0.20177 0.79612 0.0
H997 H 0.84832 0.1632 0.79705 0.0
C998 C 0.80221 0.15964 0.76854 0.0
C999 C 0.77999 0.16024 0.75075 0.0
C1000 C 0.81716 0.18327 0.77353 0.0
C1001 C 0.77131 0.18515 0.74013 0.0
C1002 C 0.78491 0.20904 0.74662 0.0
C1003 C 0.82564 0.23091 0.7637 0.0
C1004 C 0.85176 0.22823 0.77455 0.0
C1005 C 0.80871 0.20814 0.76204 0.0
C1006 C 0.85906 0.20419 0.78786 0.0
C1007 C 0.8416 0.18201 0.78792 0.0
H1008 H 0.06557 0.64026 0.98605 0.0
H1009 H 0.01564 0.58254 0.02837 0.0
H1010 H 0.05067 0.54773 0.02234 0.0
H1011 H 0.09376 0.53285 0.00128 0.0
H1012 H 0.13953 0.58944 0.95321 0.0
H1013 H 0.10722 0.62547 0.96424 0.0
C1014 C 0.0622 0.62009 -0.00604 0.0
C1015 C 0.03781 0.61392 0.00728 0.0
C1016 C 0.08143 0.59987 0.98878 0.0
C1017 C 0.03421 0.58782 0.018 0.0
C1018 C 0.0541 0.56785 0.01429 0.0
C1019 C 0.09654 0.55311 -0.00672 0.0
C1020 C 0.11881 0.55864 0.97642 0.0
C1021 C 0.07744 0.57347 -0.00095 0.0
C1022 C 0.1223 0.58479 0.96596 0.0
C1023 C 0.10399 0.60537 0.97244 0.0
H1024 H 0.68286 0.84073 0.25537 0.0
H1025 H 0.64069 0.8807 0.19011 0.0
H1026 H 0.60409 0.84748 0.193 0.0
H1027 H 0.58493 0.80683 0.21339 0.0
H1028 H 0.62994 0.76289 0.27403 0.0
H1029 H 0.66433 0.79857 0.27449 0.0
C1030 C 0.66557 0.84214 0.24188 0.0
C1031 C 0.66424 0.86309 0.22265 0.0
C1032 C 0.64511 0.82253 0.24311 0.0
C1033 C 0.64207 0.86461 0.20496 0.0
C1034 C 0.62114 0.84575 0.20673 0.0
C1035 C 0.60215 0.80496 0.22675 0.0
C1036 C 0.60488 0.78218 0.2436 0.0
C1037 C 0.62253 0.8246 0.22566 0.0
C1038 C 0.62738 0.78029 0.2609 0.0
C1039 C 0.6471 0.80056 0.26103 0.0
H1040 H 0.44391 0.43998 0.51693 0.0
H1041 H 0.38909 0.37616 0.53943 0.0
H1042 H 0.42674 0.34395 0.54199 0.0
H1043 H 0.47335 0.33258 0.52967 0.0
H1044 H 0.52819 0.39569 0.50505 0.0
H1045 H 0.49288 0.42977 0.51239 0.0
C1046 C 0.44053 0.4192 0.52319 0.0
C1047 C 0.41406 0.41018 0.52797 0.0
C1048 C 0.46224 0.40072 0.52409 0.0
C1049 C 0.40949 0.38329 0.53576 0.0
C1050 C 0.43095 0.36493 0.53712 0.0
C1051 C 0.4778 0.35392 0.52683 0.0
C1052 C 0.5031 0.36162 0.51654 0.0
C1053 C 0.45718 0.37318 0.53019 0.0
C1054 C 0.50883 0.38928 0.51307 0.0
C1055 C 0.48852 0.40875 0.51691 0.0
H1056 H 0.18461 0.69107 0.72182 0.0
H1057 H 0.11865 0.63459 0.72901 0.0
H1058 H 0.08601 0.67189 0.72819 0.0
H1059 H 0.07689 0.72017 0.73263 0.0
H1060 H 0.14253 0.77745 0.73013 0.0
H1061 H 0.17467 0.74049 0.72125 0.0
C1062 C 0.16304 0.68709 0.72246 0.0
C1063 C 0.15381 0.66034 0.72542 0.0
C1064 C 0.14445 0.70877 0.72306 0.0
C1065 C 0.12598 0.65514 0.72672 0.0
C1066 C 0.10739 0.67642 0.72633 0.0
C1067 C 0.09815 0.72463 0.72946 0.0
C1068 C 0.1074 0.75137 0.73224 0.0
C1069 C 0.11646 0.70329 0.72555 0.0
C1070 C 0.13493 0.75699 0.72795 0.0
C1071 C 0.15333 0.73582 0.72318 0.0
H1072 H 0.5115 0.88695 0.02039 0.0
H1073 H 0.54069 0.84038 0.95238 0.0
H1074 H 0.58189 0.86805 0.9508 0.0
H1075 H 0.61111 0.90278 0.97151 0.0
H1076 H 0.58575 0.94202 0.04556 0.0
H1077 H 0.54179 0.91942 0.04288 0.0
C1078 C 0.52685 0.88305 0.00515 0.0
C1079 C 0.52316 0.86201 0.98632 0.0
C1080 C 0.55129 0.89738 0.00595 0.0
C1081 C 0.54312 0.85684 0.96676 0.0
C1082 C 0.5667 0.87243 0.96609 0.0
C1083 C 0.59587 0.90643 0.98697 0.0
C1084 C 0.60135 0.9244 0.00844 0.0
C1085 C 0.57129 0.89228 0.98601 0.0
C1086 C 0.58177 0.92854 0.0287 0.0
C1087 C 0.55668 0.91565 0.02713 0.0
H1088 H 0.95445 0.0284 0.47036 0.0
H1089 H 0.88416 0.07671 0.45102 0.0
H1090 H 0.91283 0.11566 0.44158 0.0
H1091 H 0.95641 0.13782 0.44818 0.0
H1092 H 0.02692 0.09024 0.46799 0.0
H1093 H 0.0002 0.04868 0.46494 0.0
C1094 C 0.94558 0.04735 0.46363 0.0
C1095 C 0.9173 0.05009 0.46222 0.0
C1096 C 0.96226 0.06961 0.45774 0.0
C1097 C 0.90592 0.07439 0.45272 0.0
C1098 C 0.92227 0.09663 0.44722 0.0
C1099 C 0.96611 0.11823 0.45085 0.0
C1100 C -0.00679 0.11705 0.45924 0.0
C1101 C 0.9503 0.09478 0.45093 0.0
C1102 C 0.00591 0.09167 0.46186 0.0
C1103 C 0.99048 0.06794 0.46074 0.0
loop_
_geom_bond_atom_site_label_1
_geom_bond_atom_site_label_2
_geom_bond_distance
_geom_bond_site_symmetry_2
_ccdc_geom_bond_type
Co0 O1 2.216 . S
Co0 O2 2.091 . S
Co0 O4 2.004 . S
Co0 O10 2.021 . S
Co0 O12 2.137 . S
Co0 O13 2.244 . S
O1 Co0 2.216 . S
O1 C8 1.247 . S
O2 Co0 2.091 . S
O2 C8 1.261 . S
C3 O12 1.247 . S
C3 O13 1.272 . S
O4 Co0 2.004 . S
O4 C9 1.259 . S
Co5 O6 2.061 . S
Co5 O11 2.052 . S
Co5 O13 2.135 . S
O6 Co5 2.061 . S
O6 C9 1.235 . S
C7 O10 1.238 . S
C7 O11 1.241 . S
C8 O1 1.247 . S
C8 O2 1.261 . S
C9 O4 1.259 . S
C9 O6 1.235 . S
O10 Co0 2.021 . S
O10 C7 1.238 . S
O11 Co5 2.052 . S
O11 C7 1.241 . S
O12 Co0 2.137 . S
O12 C3 1.247 . S
O13 Co0 2.244 . S
O13 C3 1.272 . S
O13 Co5 2.135 . S
Co14 O15 2.216 . S
Co14 O16 2.091 . S
Co14 O18 2.004 . S
Co14 O24 2.021 . S
Co14 O26 2.137 . S
Co14 O27 2.244 . S
O15 Co14 2.216 . S
O15 C22 1.247 . S
O16 Co14 2.091 . S
O16 C22 1.261 . S
C17 O26 1.247 . S
C17 O27 1.272 . S
O18 Co14 2.004 . S
O18 C23 1.259 . S
Co19 O20 2.061 1_545 S
Co19 O25 2.052 1_545 S
Co19 O27 2.135 1_545 S
O20 Co19 2.061 1_565 S
O20 C23 1.235 . S
C21 O24 1.238 . S
C21 O25 1.241 . S
C22 O15 1.247 . S
C22 O16 1.261 . S
C23 O18 1.259 . S
C23 O20 1.235 . S
O24 Co14 2.021 . S
O24 C21 1.238 . S
O25 Co19 2.052 1_565 S
O25 C21 1.241 . S
O26 Co14 2.137 . S
O26 C17 1.247 . S
O27 Co14 2.244 . S
O27 C17 1.272 . S
O27 Co19 2.135 1_565 S
Co28 O29 2.216 . S
Co28 O30 2.091 . S
Co28 O32 2.004 . S
Co28 O38 2.021 . S
Co28 O40 2.137 . S
Co28 O41 2.244 . S
O29 Co28 2.216 . S
O29 C36 1.247 . S
O30 Co28 2.091 . S
O30 C36 1.261 . S
C31 O40 1.247 . S
C31 O41 1.272 . S
O32 Co28 2.004 . S
O32 C37 1.259 . S
Co33 O34 2.061 . S
Co33 O39 2.052 . S
Co33 O41 2.135 . S
O34 Co33 2.061 . S
O34 C37 1.235 . S
C35 O38 1.238 . S
C35 O39 1.241 . S
C36 O29 1.247 . S
C36 O30 1.261 . S
C37 O32 1.259 . S
C37 O34 1.235 . S
O38 Co28 2.021 . S
O38 C35 1.238 . S
O39 Co33 2.052 . S
O39 C35 1.241 . S
O40 Co28 2.137 . S
O40 C31 1.247 . S
O41 Co28 2.244 . S
O41 C31 1.272 . S
O41 Co33 2.135 . S
Co42 O43 2.216 . S
Co42 O44 2.091 . S
Co42 O46 2.004 . S
Co42 O52 2.021 . S
Co42 O54 2.137 . S
Co42 O55 2.244 . S
O43 Co42 2.216 . S
O43 C50 1.247 . S
O44 Co42 2.091 . S
O44 C50 1.261 . S
C45 O54 1.247 . S
C45 O55 1.272 . S
O46 Co42 2.004 . S
O46 C51 1.259 . S
Co47 O48 2.061 1_565 S
Co47 O53 2.052 1_565 S
Co47 O55 2.135 1_565 S
O48 Co47 2.061 1_545 S
O48 C51 1.235 . S
C49 O52 1.238 . S
C49 O53 1.241 . S
C50 O43 1.247 . S
C50 O44 1.261 . S
C51 O46 1.259 . S
C51 O48 1.235 . S
O52 Co42 2.021 . S
O52 C49 1.238 . S
O53 Co47 2.052 1_545 S
O53 C49 1.241 . S
O54 Co42 2.137 . S
O54 C45 1.247 . S
O55 Co42 2.244 . S
O55 C45 1.272 . S
O55 Co47 2.135 1_545 S
Co56 O57 2.216 . S
Co56 O58 2.091 . S
Co56 O60 2.004 . S
Co56 O66 2.021 . S
Co56 O68 2.137 . S
Co56 O69 2.244 . S
O57 Co56 2.216 . S
O57 C64 1.247 . S
O58 Co56 2.091 . S
O58 C64 1.261 . S
C59 O68 1.247 . S
C59 O69 1.272 . S
O60 Co56 2.004 . S
O60 C65 1.259 . S
Co61 O62 2.061 . S
Co61 O67 2.052 . S
Co61 O69 2.135 . S
O62 Co61 2.061 . S
O62 C65 1.235 . S
C63 O66 1.238 . S
C63 O67 1.241 . S
C64 O57 1.247 . S
C64 O58 1.261 . S
C65 O60 1.259 . S
C65 O62 1.235 . S
O66 Co56 2.021 . S
O66 C63 1.238 . S
O67 Co61 2.052 . S
O67 C63 1.241 . S
O68 Co56 2.137 . S
O68 C59 1.247 . S
O69 Co56 2.244 . S
O69 C59 1.272 . S
O69 Co61 2.135 . S
Co70 O71 2.216 . S
Co70 O72 2.091 . S
Co70 O74 2.004 . S
Co70 O80 2.021 . S
Co70 O82 2.137 . S
Co70 O83 2.244 . S
O71 Co70 2.216 . S
O71 C78 1.247 . S
O72 Co70 2.091 . S
O72 C78 1.261 . S
C73 O82 1.247 . S
C73 O83 1.272 . S
O74 Co70 2.004 . S
O74 C79 1.259 . S
Co75 O76 2.061 . S
Co75 O81 2.052 . S
Co75 O83 2.135 . S
O76 Co75 2.061 . S
O76 C79 1.235 . S
C77 O80 1.238 . S
C77 O81 1.241 . S
C78 O71 1.247 . S
C78 O72 1.261 . S
C79 O74 1.259 . S
C79 O76 1.235 . S
O80 Co70 2.021 . S
O80 C77 1.238 . S
O81 Co75 2.052 . S
O81 C77 1.241 . S
O82 Co70 2.137 . S
O82 C73 1.247 . S
O83 Co70 2.244 . S
O83 C73 1.272 . S
O83 Co75 2.135 . S
Co84 O85 2.216 . S
Co84 O86 2.091 . S
Co84 O88 2.004 . S
Co84 O94 2.021 . S
Co84 O96 2.137 . S
Co84 O97 2.244 . S
O85 Co84 2.216 . S
O85 C92 1.247 . S
O86 Co84 2.091 . S
O86 C92 1.261 . S
C87 O96 1.247 . S
C87 O97 1.272 . S
O88 Co84 2.004 . S
O88 C93 1.259 . S
Co89 O90 2.061 . S
Co89 O95 2.052 . S
Co89 O97 2.135 . S
O90 Co89 2.061 . S
O90 C93 1.235 . S
C91 O94 1.238 . S
C91 O95 1.241 . S
C92 O85 1.247 . S
C92 O86 1.261 . S
C93 O88 1.259 . S
C93 O90 1.235 . S
O94 Co84 2.021 . S
O94 C91 1.238 . S
O95 Co89 2.052 . S
O95 C91 1.241 . S
O96 Co84 2.137 . S
O96 C87 1.247 . S
O97 Co84 2.244 . S
O97 C87 1.272 . S
O97 Co89 2.135 . S
Co98 O99 2.216 . S
Co98 O100 2.091 . S
Co98 O102 2.004 . S
Co98 O108 2.021 . S
Co98 O110 2.137 . S
Co98 O111 2.244 . S
O99 Co98 2.216 . S
O99 C106 1.247 . S
O100 Co98 2.091 . S
O100 C106 1.261 . S
C101 O110 1.247 . S
C101 O111 1.272 . S
O102 Co98 2.004 . S
O102 C107 1.259 . S
Co103 O104 2.061 . S
Co103 O109 2.052 . S
Co103 O111 2.135 . S
O104 Co103 2.061 . S
O104 C107 1.235 . S
C105 O108 1.238 . S
C105 O109 1.241 . S
C106 O99 1.247 . S
C106 O100 1.261 . S
C107 O102 1.259 . S
C107 O104 1.235 . S
O108 Co98 2.021 . S
O108 C105 1.238 . S
O109 Co103 2.052 . S
O109 C105 1.241 . S
O110 Co98 2.137 . S
O110 C101 1.247 . S
O111 Co98 2.244 . S
O111 C101 1.272 . S
O111 Co103 2.135 . S
Co112 O113 2.216 . S
Co112 O114 2.091 . S
Co112 O116 2.004 . S
Co112 O122 2.021 . S
Co112 O124 2.137 . S
Co112 O125 2.244 . S
O113 Co112 2.216 . S
O113 C120 1.247 . S
O114 Co112 2.091 . S
O114 C120 1.261 . S
C115 O124 1.247 . S
C115 O125 1.272 . S
O116 Co112 2.004 . S
O116 C121 1.259 . S
Co117 O118 2.061 . S
Co117 O123 2.052 . S
Co117 O125 2.135 . S
O118 Co117 2.061 . S
O118 C121 1.235 . S
C119 O122 1.238 . S
C119 O123 1.241 . S
C120 O113 1.247 . S
C120 O114 1.261 . S
C121 O116 1.259 . S
C121 O118 1.235 . S
O122 Co112 2.021 . S
O122 C119 1.238 . S
O123 Co117 2.052 . S
O123 C119 1.241 . S
O124 Co112 2.137 . S
O124 C115 1.247 . S
O125 Co112 2.244 . S
O125 C115 1.272 . S
O125 Co117 2.135 . S
Co126 O127 2.216 . S
Co126 O128 2.091 . S
Co126 O130 2.004 . S
Co126 O136 2.021 . S
Co126 O138 2.137 . S
Co126 O139 2.244 . S
O127 Co126 2.216 . S
O127 C134 1.247 . S
O128 Co126 2.091 . S
O128 C134 1.261 . S
C129 O138 1.247 . S
C129 O139 1.272 . S
O130 Co126 2.004 . S
O130 C135 1.259 . S
Co131 O132 2.061 1_655 S
Co131 O137 2.052 1_655 S
Co131 O139 2.135 1_655 S
O132 Co131 2.061 1_455 S
O132 C135 1.235 . S
C133 O136 1.238 . S
C133 O137 1.241 . S
C134 O127 1.247 . S
C134 O128 1.261 . S
C135 O130 1.259 . S
C135 O132 1.235 . S
O136 Co126 2.021 . S
O136 C133 1.238 . S
O137 Co131 2.052 1_455 S
O137 C133 1.241 . S
O138 Co126 2.137 . S
O138 C129 1.247 . S
O139 Co126 2.244 . S
O139 C129 1.272 . S
O139 Co131 2.135 1_455 S
Co140 O141 2.216 . S
Co140 O142 2.091 . S
Co140 O144 2.004 . S
Co140 O150 2.021 . S
Co140 O152 2.137 . S
Co140 O153 2.244 . S
O141 Co140 2.216 . S
O141 C148 1.247 . S
O142 Co140 2.091 . S
O142 C148 1.261 . S
C143 O152 1.247 . S
C143 O153 1.272 . S
O144 Co140 2.004 . S
O144 C149 1.259 . S
Co145 O146 2.061 . S
Co145 O151 2.052 . S
Co145 O153 2.135 . S
O146 Co145 2.061 . S
O146 C149 1.235 . S
C147 O150 1.238 . S
C147 O151 1.241 . S
C148 O141 1.247 . S
C148 O142 1.261 . S
C149 O144 1.259 . S
C149 O146 1.235 . S
O150 Co140 2.021 . S
O150 C147 1.238 . S
O151 Co145 2.052 . S
O151 C147 1.241 . S
O152 Co140 2.137 . S
O152 C143 1.247 . S
O153 Co140 2.244 . S
O153 C143 1.272 . S
O153 Co145 2.135 . S
Co154 O155 2.216 . S
Co154 O156 2.091 . S
Co154 O158 2.004 . S
Co154 O164 2.021 . S
Co154 O166 2.137 . S
Co154 O167 2.244 . S
O155 Co154 2.216 . S
O155 C162 1.247 . S
O156 Co154 2.091 . S
O156 C162 1.261 . S
C157 O166 1.247 . S
C157 O167 1.272 . S
O158 Co154 2.004 . S
O158 C163 1.259 . S
Co159 O160 2.061 . S
Co159 O165 2.052 . S
Co159 O167 2.135 . S
O160 Co159 2.061 . S
O160 C163 1.235 . S
C161 O164 1.238 . S
C161 O165 1.241 . S
C162 O155 1.247 . S
C162 O156 1.261 . S
C163 O158 1.259 . S
C163 O160 1.235 . S
O164 Co154 2.021 . S
O164 C161 1.238 . S
O165 Co159 2.052 . S
O165 C161 1.241 . S
O166 Co154 2.137 . S
O166 C157 1.247 . S
O167 Co154 2.244 . S
O167 C157 1.272 . S
O167 Co159 2.135 . S
Co168 O169 2.216 . S
Co168 O170 2.091 . S
Co168 O172 2.004 . S
Co168 O178 2.021 . S
Co168 O180 2.137 . S
Co168 O181 2.244 . S
O169 Co168 2.216 . S
O169 C176 1.247 . S
O170 Co168 2.091 . S
O170 C176 1.261 . S
C171 O180 1.247 . S
C171 O181 1.272 . S
O172 Co168 2.004 . S
O172 C177 1.259 . S
Co173 O174 2.061 . S
Co173 O179 2.052 . S
Co173 O181 2.135 . S
O174 Co173 2.061 . S
O174 C177 1.235 . S
C175 O178 1.238 . S
C175 O179 1.241 . S
C176 O169 1.247 . S
C176 O170 1.261 . S
C177 O172 1.259 . S
C177 O174 1.235 . S
O178 Co168 2.021 . S
O178 C175 1.238 . S
O179 Co173 2.052 . S
O179 C175 1.241 . S
O180 Co168 2.137 . S
O180 C171 1.247 . S
O181 Co168 2.244 . S
O181 C171 1.272 . S
O181 Co173 2.135 . S
Co182 O183 2.216 . S
Co182 O184 2.091 . S
Co182 O186 2.004 . S
Co182 O192 2.021 . S
Co182 O194 2.137 . S
Co182 O195 2.244 . S
O183 Co182 2.216 . S
O183 C190 1.247 . S
O184 Co182 2.091 . S
O184 C190 1.261 . S
C185 O194 1.247 . S
C185 O195 1.272 . S
O186 Co182 2.004 . S
O186 C191 1.259 . S
Co187 O188 2.061 1_455 S
Co187 O193 2.052 1_455 S
Co187 O195 2.135 1_455 S
O188 Co187 2.061 1_655 S
O188 C191 1.235 . S
C189 O192 1.238 . S
C189 O193 1.241 . S
C190 O183 1.247 . S
C190 O184 1.261 . S
C191 O186 1.259 . S
C191 O188 1.235 . S
O192 Co182 2.021 . S
O192 C189 1.238 . S
O193 Co187 2.052 1_655 S
O193 C189 1.241 . S
O194 Co182 2.137 . S
O194 C185 1.247 . S
O195 Co182 2.244 . S
O195 C185 1.272 . S
O195 Co187 2.135 1_655 S
Co196 O197 2.216 . S
Co196 O198 2.091 . S
Co196 O200 2.004 . S
Co196 O206 2.021 . S
Co196 O208 2.137 . S
Co196 O209 2.244 . S
O197 Co196 2.216 . S
O197 C204 1.247 . S
O198 Co196 2.091 . S
O198 C204 1.261 . S
C199 O208 1.247 . S
C199 O209 1.272 . S
O200 Co196 2.004 . S
O200 C205 1.259 . S
Co201 O202 2.061 . S
Co201 O207 2.052 . S
Co201 O209 2.135 . S
O202 Co201 2.061 . S
O202 C205 1.235 . S
C203 O206 1.238 . S
C203 O207 1.241 . S
C204 O197 1.247 . S
C204 O198 1.261 . S
C205 O200 1.259 . S
C205 O202 1.235 . S
O206 Co196 2.021 . S
O206 C203 1.238 . S
O207 Co201 2.052 . S
O207 C203 1.241 . S
O208 Co196 2.137 . S
O208 C199 1.247 . S
O209 Co196 2.244 . S
O209 C199 1.272 . S
O209 Co201 2.135 . S
Co210 O211 2.216 . S
Co210 O212 2.091 . S
Co210 O214 2.004 . S
Co210 O220 2.021 . S
Co210 O222 2.137 . S
Co210 O223 2.244 . S
O211 Co210 2.216 . S
O211 C218 1.247 . S
O212 Co210 2.091 . S
O212 C218 1.261 . S
C213 O222 1.247 . S
C213 O223 1.272 . S
O214 Co210 2.004 . S
O214 C219 1.259 . S
Co215 O216 2.061 . S
Co215 O221 2.052 . S
Co215 O223 2.135 . S
O216 Co215 2.061 . S
O216 C219 1.235 . S
C217 O220 1.238 . S
C217 O221 1.241 . S
C218 O211 1.247 . S
C218 O212 1.261 . S
C219 O214 1.259 . S
C219 O216 1.235 . S
O220 Co210 2.021 . S
O220 C217 1.238 . S
O221 Co215 2.052 . S
O221 C217 1.241 . S
O222 Co210 2.137 . S
O222 C213 1.247 . S
O223 Co210 2.244 . S
O223 C213 1.272 . S
O223 Co215 2.135 . S
Co224 O225 2.216 . S
Co224 O226 2.091 . S
Co224 O228 2.004 . S
Co224 O234 2.021 . S
Co224 O236 2.137 . S
Co224 O237 2.244 . S
O225 Co224 2.216 . S
O225 C232 1.247 . S
O226 Co224 2.091 . S
O226 C232 1.261 . S
C227 O236 1.247 . S
C227 O237 1.272 . S
O228 Co224 2.004 . S
O228 C233 1.259 . S
Co229 O230 2.061 . S
Co229 O235 2.052 . S
Co229 O237 2.135 . S
O230 Co229 2.061 . S
O230 C233 1.235 . S
C231 O234 1.238 . S
C231 O235 1.241 . S
C232 O225 1.247 . S
C232 O226 1.261 . S
C233 O228 1.259 . S
C233 O230 1.235 . S
O234 Co224 2.021 . S
O234 C231 1.238 . S
O235 Co229 2.052 . S
O235 C231 1.241 . S
O236 Co224 2.137 . S
O236 C227 1.247 . S
O237 Co224 2.244 . S
O237 C227 1.272 . S
O237 Co229 2.135 . S
Co238 O239 2.216 . S
Co238 O240 2.091 . S
Co238 O242 2.004 . S
Co238 O248 2.021 . S
Co238 O250 2.137 . S
Co238 O251 2.244 . S
O239 Co238 2.216 . S
O239 C246 1.247 . S
O240 Co238 2.091 . S
O240 C246 1.261 . S
C241 O250 1.247 . S
C241 O251 1.272 . S
O242 Co238 2.004 . S
O242 C247 1.259 . S
Co243 O244 2.061 . S
Co243 O249 2.052 . S
Co243 O251 2.135 . S
O244 Co243 2.061 . S
O244 C247 1.235 . S
C245 O248 1.238 . S
C245 O249 1.241 . S
C246 O239 1.247 . S
C246 O240 1.261 . S
C247 O242 1.259 . S
C247 O244 1.235 . S
O248 Co238 2.021 . S
O248 C245 1.238 . S
O249 Co243 2.052 . S
O249 C245 1.241 . S
O250 Co238 2.137 . S
O250 C241 1.247 . S
O251 Co238 2.244 . S
O251 C241 1.272 . S
O251 Co243 2.135 . S
Co252 O253 2.216 . S
Co252 O254 2.091 . S
Co252 O256 2.004 . S
Co252 O262 2.021 . S
Co252 O264 2.137 . S
Co252 O265 2.244 . S
O253 Co252 2.216 . S
O253 C260 1.247 . S
O254 Co252 2.091 . S
O254 C260 1.261 . S
C255 O264 1.247 . S
C255 O265 1.272 . S
O256 Co252 2.004 . S
O256 C261 1.259 . S
Co257 O258 2.061 1_556 S
Co257 O263 2.052 1_556 S
Co257 O265 2.135 1_556 S
O258 Co257 2.061 1_554 S
O258 C261 1.235 . S
C259 O262 1.238 . S
C259 O263 1.241 . S
C260 O253 1.247 . S
C260 O254 1.261 . S
C261 O256 1.259 . S
C261 O258 1.235 . S
O262 Co252 2.021 . S
O262 C259 1.238 . S
O263 Co257 2.052 1_554 S
O263 C259 1.241 . S
O264 Co252 2.137 . S
O264 C255 1.247 . S
O265 Co252 2.244 . S
O265 C255 1.272 . S
O265 Co257 2.135 1_554 S
Co266 O267 2.216 . S
Co266 O268 2.091 . S
Co266 O270 2.004 . S
Co266 O276 2.021 . S
Co266 O278 2.137 . S
Co266 O279 2.244 . S
O267 Co266 2.216 . S
O267 C274 1.247 . S
O268 Co266 2.091 . S
O268 C274 1.261 . S
C269 O278 1.247 . S
C269 O279 1.272 . S
O270 Co266 2.004 . S
O270 C275 1.259 . S
Co271 O272 2.061 . S
Co271 O277 2.052 . S
Co271 O279 2.135 . S
O272 Co271 2.061 . S
O272 C275 1.235 . S
C273 O276 1.238 . S
C273 O277 1.241 . S
C274 O267 1.247 . S
C274 O268 1.261 . S
C275 O270 1.259 . S
C275 O272 1.235 . S
O276 Co266 2.021 . S
O276 C273 1.238 . S
O277 Co271 2.052 . S
O277 C273 1.241 . S
O278 Co266 2.137 . S
O278 C269 1.247 . S
O279 Co266 2.244 . S
O279 C269 1.272 . S
O279 Co271 2.135 . S
Co280 O281 2.216 . S
Co280 O282 2.091 . S
Co280 O284 2.004 . S
Co280 O290 2.021 . S
Co280 O292 2.137 . S
Co280 O293 2.244 . S
O281 Co280 2.216 . S
O281 C288 1.247 . S
O282 Co280 2.091 . S
O282 C288 1.261 . S
C283 O292 1.247 . S
C283 O293 1.272 . S
O284 Co280 2.004 . S
O284 C289 1.259 . S
Co285 O286 2.061 . S
Co285 O291 2.052 . S
Co285 O293 2.135 . S
O286 Co285 2.061 . S
O286 C289 1.235 . S
C287 O290 1.238 . S
C287 O291 1.241 . S
C288 O281 1.247 . S
C288 O282 1.261 . S
C289 O284 1.259 . S
C289 O286 1.235 . S
O290 Co280 2.021 . S
O290 C287 1.238 . S
O291 Co285 2.052 . S
O291 C287 1.241 . S
O292 Co280 2.137 . S
O292 C283 1.247 . S
O293 Co280 2.244 . S
O293 C283 1.272 . S
O293 Co285 2.135 . S
Co294 O295 2.216 . S
Co294 O296 2.091 . S
Co294 O298 2.004 . S
Co294 O304 2.021 . S
Co294 O306 2.137 . S
Co294 O307 2.244 . S
O295 Co294 2.216 . S
O295 C302 1.247 . S
O296 Co294 2.091 . S
O296 C302 1.261 . S
C297 O306 1.247 . S
C297 O307 1.272 . S
O298 Co294 2.004 . S
O298 C303 1.259 . S
Co299 O300 2.061 . S
Co299 O305 2.052 . S
Co299 O307 2.135 . S
O300 Co299 2.061 . S
O300 C303 1.235 . S
C301 O304 1.238 . S
C301 O305 1.241 . S
C302 O295 1.247 . S
C302 O296 1.261 . S
C303 O298 1.259 . S
C303 O300 1.235 . S
O304 Co294 2.021 . S
O304 C301 1.238 . S
O305 Co299 2.052 . S
O305 C301 1.241 . S
O306 Co294 2.137 . S
O306 C297 1.247 . S
O307 Co294 2.244 . S
O307 C297 1.272 . S
O307 Co299 2.135 . S
Co308 O309 2.216 . S
Co308 O310 2.091 . S
Co308 O312 2.004 . S
Co308 O318 2.021 . S
Co308 O320 2.137 . S
Co308 O321 2.244 . S
O309 Co308 2.216 . S
O309 C316 1.247 . S
O310 Co308 2.091 . S
O310 C316 1.261 . S
C311 O320 1.247 . S
C311 O321 1.272 . S
O312 Co308 2.004 . S
O312 C317 1.259 . S
Co313 O314 2.061 1_554 S
Co313 O319 2.052 1_554 S
Co313 O321 2.135 1_554 S
O314 Co313 2.061 1_556 S
O314 C317 1.235 . S
C315 O318 1.238 . S
C315 O319 1.241 . S
C316 O309 1.247 . S
C316 O310 1.261 . S
C317 O312 1.259 . S
C317 O314 1.235 . S
O318 Co308 2.021 . S
O318 C315 1.238 . S
O319 Co313 2.052 1_556 S
O319 C315 1.241 . S
O320 Co308 2.137 . S
O320 C311 1.247 . S
O321 Co308 2.244 . S
O321 C311 1.272 . S
O321 Co313 2.135 1_556 S
Co322 O323 2.216 . S
Co322 O324 2.091 . S
Co322 O326 2.004 . S
Co322 O332 2.021 . S
Co322 O334 2.137 . S
Co322 O335 2.244 . S
O323 Co322 2.216 . S
O323 C330 1.247 . S
O324 Co322 2.091 . S
O324 C330 1.261 . S
C325 O334 1.247 . S
C325 O335 1.272 . S
O326 Co322 2.004 . S
O326 C331 1.259 . S
Co327 O328 2.061 . S
Co327 O333 2.052 . S
Co327 O335 2.135 . S
O328 Co327 2.061 . S
O328 C331 1.235 . S
C329 O332 1.238 . S
C329 O333 1.241 . S
C330 O323 1.247 . S
C330 O324 1.261 . S
C331 O326 1.259 . S
C331 O328 1.235 . S
O332 Co322 2.021 . S
O332 C329 1.238 . S
O333 Co327 2.052 . S
O333 C329 1.241 . S
O334 Co322 2.137 . S
O334 C325 1.247 . S
O335 Co322 2.244 . S
O335 C325 1.272 . S
O335 Co327 2.135 . S
H336 C342 0.930 . S
H337 C345 0.930 . S
H338 C346 0.930 . S
H339 C347 0.930 . S
H340 C350 0.930 . S
H341 C351 0.930 . S
C342 H336 0.930 . S
C342 C343 1.355 . S
C342 C344 1.415 . S
C343 C342 1.355 . S
C343 C345 1.419 . S
C344 C342 1.415 . S
C344 C349 1.425 . S
C344 C351 1.409 . S
C345 H337 0.930 . S
C345 C343 1.419 . S
C345 C346 1.362 . S
C346 H338 0.930 . S
C346 C345 1.362 . S
C346 C349 1.409 . S
C347 H339 0.930 . S
C347 C348 1.355 . S
C347 C349 1.415 . S
C348 C347 1.355 . S
C348 C350 1.419 . S
C349 C344 1.425 . S
C349 C346 1.409 . S
C349 C347 1.415 . S
C350 H340 0.930 . S
C350 C348 1.419 . S
C350 C351 1.362 . S
C351 H341 0.930 . S
C351 C344 1.409 . S
C351 C350 1.362 . S
H352 C358 0.930 . S
H353 C361 0.930 . S
H354 C362 0.930 . S
H355 C363 0.930 . S
H356 C366 0.930 . S
H357 C367 0.930 . S
C358 H352 0.930 . S
C358 C359 1.355 1_455 S
C358 C360 1.415 . S
C359 C358 1.355 1_655 S
C359 C361 1.419 . S
C360 C358 1.415 . S
C360 C365 1.425 . S
C360 C367 1.409 . S
C361 H353 0.930 . S
C361 C359 1.419 . S
C361 C362 1.362 . S
C362 H354 0.930 . S
C362 C361 1.362 . S
C362 C365 1.409 1_655 S
C363 H355 0.930 . S
C363 C364 1.355 . S
C363 C365 1.415 . S
C364 C363 1.355 . S
C364 C366 1.419 . S
C365 C360 1.425 . S
C365 C362 1.409 1_455 S
C365 C363 1.415 . S
C366 H356 0.930 . S
C366 C364 1.419 . S
C366 C367 1.362 . S
C367 H357 0.930 . S
C367 C360 1.409 . S
C367 C366 1.362 . S
H368 C374 0.930 . S
H369 C377 0.930 . S
H370 C378 0.930 . S
H371 C379 0.930 . S
H372 C382 0.930 . S
H373 C383 0.930 . S
C374 H368 0.930 . S
C374 C375 1.355 . S
C374 C376 1.415 . S
C375 C374 1.355 . S
C375 C377 1.419 . S
C376 C374 1.415 . S
C376 C381 1.425 . S
C376 C383 1.409 . S
C377 H369 0.930 . S
C377 C375 1.419 . S
C377 C378 1.362 . S
C378 H370 0.930 . S
C378 C377 1.362 . S
C378 C381 1.409 . S
C379 H371 0.930 . S
C379 C380 1.355 . S
C379 C381 1.415 1_554 S
C380 C379 1.355 . S
C380 C382 1.419 1_554 S
C381 C376 1.425 . S
C381 C378 1.409 . S
C381 C379 1.415 1_556 S
C382 H372 0.930 . S
C382 C380 1.419 1_556 S
C382 C383 1.362 . S
C383 H373 0.930 . S
C383 C376 1.409 . S
C383 C382 1.362 . S
H384 C390 0.930 . S
H385 C393 0.930 . S
H386 C394 0.930 . S
H387 C395 0.930 . S
H388 C398 0.930 . S
H389 C399 0.930 . S
C390 H384 0.930 . S
C390 C391 1.355 . S
C390 C392 1.415 . S
C391 C390 1.355 . S
C391 C393 1.419 . S
C392 C390 1.415 . S
C392 C397 1.425 . S
C392 C399 1.409 . S
C393 H385 0.930 . S
C393 C391 1.419 . S
C393 C394 1.362 . S
C394 H386 0.930 . S
C394 C393 1.362 . S
C394 C397 1.409 . S
C395 H387 0.930 . S
C395 C396 1.355 . S
C395 C397 1.415 . S
C396 C395 1.355 . S
C396 C398 1.419 . S
C397 C392 1.425 . S
C397 C394 1.409 . S
C397 C395 1.415 . S
C398 H388 0.930 . S
C398 C396 1.419 . S
C398 C399 1.362 . S
C399 H389 0.930 . S
C399 C392 1.409 . S
C399 C398 1.362 . S
H400 C406 0.930 . S
H401 C409 0.930 . S
H402 C410 0.930 . S
H403 C411 0.930 . S
H404 C414 0.930 . S
H405 C415 0.930 . S
C406 H400 0.930 . S
C406 C407 1.355 . S
C406 C408 1.415 . S
C407 C406 1.355 . S
C407 C409 1.419 . S
C408 C406 1.415 . S
C408 C413 1.425 . S
C408 C415 1.409 . S
C409 H401 0.930 . S
C409 C407 1.419 . S
C409 C410 1.362 . S
C410 H402 0.930 . S
C410 C409 1.362 . S
C410 C413 1.409 . S
C411 H403 0.930 . S
C411 C412 1.355 . S
C411 C413 1.415 . S
C412 C411 1.355 . S
C412 C414 1.419 . S
C413 C408 1.425 . S
C413 C410 1.409 . S
C413 C411 1.415 . S
C414 H404 0.930 . S
C414 C412 1.419 . S
C414 C415 1.362 . S
C415 H405 0.930 . S
C415 C408 1.409 . S
C415 C414 1.362 . S
H416 C422 0.930 . S
H417 C425 0.930 . S
H418 C426 0.930 . S
H419 C427 0.930 . S
H420 C430 0.930 . S
H421 C431 0.930 . S
C422 H416 0.930 . S
C422 C423 1.355 . S
C422 C424 1.415 . S
C423 C422 1.355 . S
C423 C425 1.419 . S
C424 C422 1.415 . S
C424 C429 1.425 . S
C424 C431 1.409 . S
C425 H417 0.930 . S
C425 C423 1.419 . S
C425 C426 1.362 . S
C426 H418 0.930 . S
C426 C425 1.362 . S
C426 C429 1.409 . S
C427 H419 0.930 . S
C427 C428 1.355 1_655 S
C427 C429 1.415 . S
C428 C427 1.355 1_455 S
C428 C430 1.419 . S
C429 C424 1.425 . S
C429 C426 1.409 . S
C429 C427 1.415 . S
C430 H420 0.930 . S
C430 C428 1.419 . S
C430 C431 1.362 1_455 S
C431 H421 0.930 . S
C431 C424 1.409 . S
C431 C430 1.362 1_655 S
H432 C438 0.930 . S
H433 C441 0.930 . S
H434 C442 0.930 . S
H435 C443 0.930 1_556 S
H436 C446 0.918 1_556 S
H437 C447 0.930 . S
C438 H432 0.930 . S
C438 C439 1.355 . S
C438 C440 1.415 . S
C439 C438 1.355 . S
C439 C441 1.419 . S
C440 C438 1.415 . S
C440 C445 1.425 . S
C440 C447 1.409 . S
C441 H433 0.930 . S
C441 C439 1.419 . S
C441 C442 1.362 . S
C442 H434 0.930 . S
C442 C441 1.362 . S
C442 C445 1.409 . S
C443 H435 0.930 1_554 S
C443 C444 1.355 1_554 S
C443 C445 1.415 . S
C444 C443 1.355 1_556 S
C444 C446 1.409 1_556 S
C445 C440 1.425 . S
C445 C442 1.409 . S
C445 C443 1.415 . S
C446 H436 0.918 1_554 S
C446 C444 1.409 1_554 S
C446 C447 1.386 . S
C447 H437 0.930 . S
C447 C440 1.409 . S
C447 C446 1.386 . S
H448 C454 0.930 . S
H449 C457 0.930 . S
H450 C458 0.930 . S
H451 C459 0.930 . S
H452 C462 0.930 . S
H453 C463 0.930 . S
C454 H448 0.930 . S
C454 C455 1.355 . S
C454 C456 1.415 . S
C455 C454 1.355 . S
C455 C457 1.419 . S
C456 C454 1.415 . S
C456 C461 1.425 . S
C456 C463 1.409 . S
C457 H449 0.930 . S
C457 C455 1.419 . S
C457 C458 1.362 . S
C458 H450 0.930 . S
C458 C457 1.362 . S
C458 C461 1.409 . S
C459 H451 0.930 . S
C459 C460 1.355 . S
C459 C461 1.415 . S
C460 C459 1.355 . S
C460 C462 1.419 . S
C461 C456 1.425 . S
C461 C458 1.409 . S
C461 C459 1.415 . S
C462 H452 0.930 . S
C462 C460 1.419 . S
C462 C463 1.362 . S
C463 H453 0.930 . S
C463 C456 1.409 . S
C463 C462 1.362 . S
H464 C470 0.930 . S
H465 C473 0.930 . S
H466 C474 0.930 . S
H467 C475 0.930 . S
H468 C478 0.930 . S
H469 C479 0.930 . S
C470 H464 0.930 . S
C470 C471 1.355 . S
C470 C472 1.415 . S
C471 C470 1.355 . S
C471 C473 1.419 . S
C472 C470 1.415 . S
C472 C477 1.425 . S
C472 C479 1.409 . S
C473 H465 0.930 . S
C473 C471 1.419 . S
C473 C474 1.362 . S
C474 H466 0.930 . S
C474 C473 1.362 . S
C474 C477 1.409 . S
C475 H467 0.930 . S
C475 C476 1.355 . S
C475 C477 1.415 . S
C476 C475 1.355 . S
C476 C478 1.419 . S
C477 C472 1.425 . S
C477 C474 1.409 . S
C477 C475 1.415 . S
C478 H468 0.930 . S
C478 C476 1.419 . S
C478 C479 1.362 . S
C479 H469 0.930 . S
C479 C472 1.409 . S
C479 C478 1.362 . S
H480 C486 0.930 . S
H481 C489 0.930 . S
H482 C490 0.930 . S
H483 C491 0.930 . S
H484 C494 0.930 . S
H485 C495 0.930 1_565 S
C486 H480 0.930 . S
C486 C487 1.355 . S
C486 C488 1.415 1_565 S
C487 C486 1.355 . S
C487 C489 1.419 1_565 S
C488 C486 1.415 1_545 S
C488 C493 1.425 . S
C488 C495 1.409 . S
C489 H481 0.930 . S
C489 C487 1.419 1_545 S
C489 C490 1.362 . S
C490 H482 0.930 . S
C490 C489 1.362 . S
C490 C493 1.409 . S
C491 H483 0.930 . S
C491 C492 1.355 . S
C491 C493 1.415 . S
C492 C491 1.355 . S
C492 C494 1.419 . S
C493 C488 1.425 . S
C493 C490 1.409 . S
C493 C491 1.415 . S
C494 H484 0.930 . S
C494 C492 1.419 . S
C494 C495 1.362 . S
C495 H485 0.930 1_545 S
C495 C488 1.409 . S
C495 C494 1.362 . S
H496 C502 0.930 . S
H497 C505 0.930 . S
H498 C506 0.930 . S
H499 C507 0.930 . S
H500 C510 0.930 . S
H501 C511 0.930 . S
C502 H496 0.930 . S
C502 C503 1.355 . S
C502 C504 1.415 . S
C503 C502 1.355 . S
C503 C505 1.419 . S
C504 C502 1.415 . S
C504 C509 1.425 . S
C504 C511 1.409 1_565 S
C505 H497 0.930 . S
C505 C503 1.419 . S
C505 C506 1.362 . S
C506 H498 0.930 . S
C506 C505 1.362 . S
C506 C509 1.409 . S
C507 H499 0.930 . S
C507 C508 1.355 1_565 S
C507 C509 1.415 . S
C508 C507 1.355 1_545 S
C508 C510 1.419 . S
C509 C504 1.425 . S
C509 C506 1.409 . S
C509 C507 1.415 . S
C510 H500 0.930 . S
C510 C508 1.419 . S
C510 C511 1.362 . S
C511 H501 0.930 . S
C511 C504 1.409 1_545 S
C511 C510 1.362 . S
H512 C518 0.930 . S
H513 C521 0.930 . S
H514 C522 0.930 . S
H515 C523 0.930 . S
H516 C526 0.930 . S
H517 C527 0.930 . S
C518 H512 0.930 . S
C518 C519 1.355 . S
C518 C520 1.415 . S
C519 C518 1.355 . S
C519 C521 1.419 . S
C520 C518 1.415 . S
C520 C525 1.425 . S
C520 C527 1.409 . S
C521 H513 0.930 . S
C521 C519 1.419 . S
C521 C522 1.362 . S
C522 H514 0.930 . S
C522 C521 1.362 . S
C522 C525 1.409 . S
C523 H515 0.930 . S
C523 C524 1.355 . S
C523 C525 1.415 . S
C524 C523 1.355 . S
C524 C526 1.419 . S
C525 C520 1.425 . S
C525 C522 1.409 . S
C525 C523 1.415 . S
C526 H516 0.930 . S
C526 C524 1.419 . S
C526 C527 1.362 . S
C527 H517 0.930 . S
C527 C520 1.409 . S
C527 C526 1.362 . S
H528 C534 0.930 . S
H529 C537 0.930 . S
H530 C538 0.930 . S
H531 C539 0.930 . S
H532 C542 0.930 . S
H533 C543 0.930 . S
C534 H528 0.930 . S
C534 C535 1.355 . S
C534 C536 1.415 . S
C535 C534 1.355 . S
C535 C537 1.419 . S
C536 C534 1.415 . S
C536 C541 1.425 . S
C536 C543 1.409 . S
C537 H529 0.930 . S
C537 C535 1.419 . S
C537 C538 1.362 . S
C538 H530 0.930 . S
C538 C537 1.362 . S
C538 C541 1.409 . S
C539 H531 0.930 . S
C539 C540 1.355 . S
C539 C541 1.415 . S
C540 C539 1.355 . S
C540 C542 1.419 . S
C541 C536 1.425 . S
C541 C538 1.409 . S
C541 C539 1.415 . S
C542 H532 0.930 . S
C542 C540 1.419 . S
C542 C543 1.362 . S
C543 H533 0.930 . S
C543 C536 1.409 . S
C543 C542 1.362 . S
H544 C550 0.923 1_545 S
H545 C553 0.930 . S
H546 C554 0.930 . S
H547 C555 0.930 . S
H548 C558 0.930 . S
H549 C559 0.930 . S
C550 H544 0.923 1_565 S
C550 C551 1.355 . S
C550 C552 1.415 1_565 S
C551 C550 1.355 . S
C551 C553 1.419 . S
C552 C550 1.415 1_545 S
C552 C557 1.425 . S
C552 C559 1.409 . S
C553 H545 0.930 . S
C553 C551 1.419 . S
C553 C554 1.362 . S
C554 H546 0.930 . S
C554 C553 1.362 . S
C554 C557 1.409 1_565 S
C555 H547 0.930 . S
C555 C556 1.355 . S
C555 C557 1.415 . S
C556 C555 1.355 . S
C556 C558 1.419 . S
C557 C552 1.425 . S
C557 C554 1.409 1_545 S
C557 C555 1.415 . S
C558 H548 0.930 . S
C558 C556 1.419 . S
C558 C559 1.362 . S
C559 H549 0.930 . S
C559 C552 1.409 . S
C559 C558 1.362 . S
H560 C566 0.930 . S
H561 C569 0.930 . S
H562 C570 0.930 . S
H563 C571 0.930 . S
H564 C574 0.930 . S
H565 C575 0.930 . S
C566 H560 0.930 . S
C566 C567 1.355 . S
C566 C568 1.415 . S
C567 C566 1.355 . S
C567 C569 1.419 . S
C568 C566 1.415 . S
C568 C573 1.425 1_556 S
C568 C575 1.409 . S
C569 H561 0.930 . S
C569 C567 1.419 . S
C569 C570 1.362 1_556 S
C570 H562 0.930 . S
C570 C569 1.362 1_554 S
C570 C573 1.409 . S
C571 H563 0.930 . S
C571 C572 1.355 . S
C571 C573 1.415 . S
C572 C571 1.355 . S
C572 C574 1.419 1_554 S
C573 C568 1.425 1_554 S
C573 C570 1.409 . S
C573 C571 1.415 . S
C574 H564 0.930 . S
C574 C572 1.419 1_556 S
C574 C575 1.362 . S
C575 H565 0.930 . S
C575 C568 1.409 . S
C575 C574 1.362 . S
H576 C582 0.930 . S
H577 C585 0.930 . S
H578 C586 0.930 . S
H579 C587 0.930 . S
H580 C590 0.930 . S
H581 C591 0.930 . S
C582 H576 0.930 . S
C582 C583 1.355 . S
C582 C584 1.415 . S
C583 C582 1.355 . S
C583 C585 1.419 1_545 S
C584 C582 1.415 . S
C584 C589 1.425 1_545 S
C584 C591 1.409 . S
C585 H577 0.930 . S
C585 C583 1.419 1_565 S
C585 C586 1.362 . S
C586 H578 0.930 . S
C586 C585 1.362 . S
C586 C589 1.409 . S
C587 H579 0.930 . S
C587 C588 1.355 . S
C587 C589 1.415 . S
C588 C587 1.355 . S
C588 C590 1.419 . S
C589 C584 1.425 1_565 S
C589 C586 1.409 . S
C589 C587 1.415 . S
C590 H580 0.930 . S
C590 C588 1.419 . S
C590 C591 1.362 1_565 S
C591 H581 0.930 . S
C591 C584 1.409 . S
C591 C590 1.362 1_545 S
H592 C598 0.930 . S
H593 C601 0.930 . S
H594 C602 0.930 . S
H595 C603 0.930 . S
H596 C606 0.930 . S
H597 C607 0.930 . S
C598 H592 0.930 . S
C598 C599 1.355 . S
C598 C600 1.415 . S
C599 C598 1.355 . S
C599 C601 1.419 . S
C600 C598 1.415 . S
C600 C605 1.425 . S
C600 C607 1.409 . S
C601 H593 0.930 . S
C601 C599 1.419 . S
C601 C602 1.362 . S
C602 H594 0.930 . S
C602 C601 1.362 . S
C602 C605 1.409 . S
C603 H595 0.930 . S
C603 C604 1.355 . S
C603 C605 1.415 . S
C604 C603 1.355 . S
C604 C606 1.419 . S
C605 C600 1.425 . S
C605 C602 1.409 . S
C605 C603 1.415 . S
C606 H596 0.930 . S
C606 C604 1.419 . S
C606 C607 1.362 . S
C607 H597 0.930 . S
C607 C600 1.409 . S
C607 C606 1.362 . S
H608 C614 0.930 . S
H609 C617 0.930 . S
H610 C618 0.930 . S
H611 C619 0.930 . S
H612 C622 0.930 . S
H613 C623 0.930 . S
C614 H608 0.930 . S
C614 C615 1.355 . S
C614 C616 1.415 . S
C615 C614 1.355 . S
C615 C617 1.419 . S
C616 C614 1.415 . S
C616 C621 1.425 . S
C616 C623 1.409 . S
C617 H609 0.930 . S
C617 C615 1.419 . S
C617 C618 1.362 . S
C618 H610 0.930 . S
C618 C617 1.362 . S
C618 C621 1.409 . S
C619 H611 0.930 . S
C619 C620 1.355 . S
C619 C621 1.415 . S
C620 C619 1.355 . S
C620 C622 1.419 . S
C621 C616 1.425 . S
C621 C618 1.409 . S
C621 C619 1.415 . S
C622 H612 0.930 . S
C622 C620 1.419 . S
C622 C623 1.362 . S
C623 H613 0.930 . S
C623 C616 1.409 . S
C623 C622 1.362 . S
H624 C630 0.930 1_554 S
H625 C633 0.930 . S
H626 C634 0.930 . S
H627 C635 0.930 . S
H628 C638 0.930 . S
H629 C639 0.930 . S
C630 H624 0.930 1_556 S
C630 C631 1.355 . S
C630 C632 1.415 1_556 S
C631 C630 1.355 . S
C631 C633 1.419 . S
C632 C630 1.415 1_554 S
C632 C637 1.425 . S
C632 C639 1.409 . S
C633 H625 0.930 . S
C633 C631 1.419 . S
C633 C634 1.362 . S
C634 H626 0.930 . S
C634 C633 1.362 . S
C634 C637 1.409 1_556 S
C635 H627 0.930 . S
C635 C636 1.355 . S
C635 C637 1.415 . S
C636 C635 1.355 . S
C636 C638 1.419 . S
C637 C632 1.425 . S
C637 C634 1.409 1_554 S
C637 C635 1.415 . S
C638 H628 0.930 . S
C638 C636 1.419 . S
C638 C639 1.362 . S
C639 H629 0.930 . S
C639 C632 1.409 . S
C639 C638 1.362 . S
H640 C646 0.930 . S
H641 C649 0.930 . S
H642 C650 0.930 . S
H643 C651 0.930 . S
H644 C654 0.930 . S
H645 C655 0.930 . S
C646 H640 0.930 . S
C646 C647 1.355 . S
C646 C648 1.415 . S
C647 C646 1.355 . S
C647 C649 1.419 . S
C648 C646 1.415 . S
C648 C653 1.425 . S
C648 C655 1.409 . S
C649 H641 0.930 . S
C649 C647 1.419 . S
C649 C650 1.362 . S
C650 H642 0.930 . S
C650 C649 1.362 . S
C650 C653 1.409 . S
C651 H643 0.930 . S
C651 C652 1.355 . S
C651 C653 1.415 . S
C652 C651 1.355 . S
C652 C654 1.419 . S
C653 C648 1.425 . S
C653 C650 1.409 . S
C653 C651 1.415 . S
C654 H644 0.930 . S
C654 C652 1.419 . S
C654 C655 1.362 . S
C655 H645 0.930 . S
C655 C648 1.409 . S
C655 C654 1.362 . S
H656 C662 0.930 . S
H657 C665 0.930 . S
H658 C666 0.930 . S
H659 C667 0.930 . S
H660 C670 0.930 . S
H661 C671 0.930 . S
C662 H656 0.930 . S
C662 C663 1.355 . S
C662 C664 1.415 . S
C663 C662 1.355 . S
C663 C665 1.419 . S
C664 C662 1.415 . S
C664 C669 1.425 . S
C664 C671 1.409 . S
C665 H657 0.930 . S
C665 C663 1.419 . S
C665 C666 1.362 . S
C666 H658 0.930 . S
C666 C665 1.362 . S
C666 C669 1.409 . S
C667 H659 0.930 . S
C667 C668 1.355 . S
C667 C669 1.415 . S
C668 C667 1.355 . S
C668 C670 1.419 . S
C669 C664 1.425 . S
C669 C666 1.409 . S
C669 C667 1.415 . S
C670 H660 0.930 . S
C670 C668 1.419 . S
C670 C671 1.362 . S
C671 H661 0.930 . S
C671 C664 1.409 . S
C671 C670 1.362 . S
H672 C678 0.930 . S
H673 C681 0.930 . S
H674 C682 0.930 . S
H675 C683 0.930 . S
H676 C686 0.930 . S
H677 C687 0.930 . S
C678 H672 0.930 . S
C678 C679 1.355 . S
C678 C680 1.415 . S
C679 C678 1.355 . S
C679 C681 1.419 1_455 S
C680 C678 1.415 . S
C680 C685 1.425 1_455 S
C680 C687 1.409 . S
C681 H673 0.930 . S
C681 C679 1.419 1_655 S
C681 C682 1.362 . S
C682 H674 0.930 . S
C682 C681 1.362 . S
C682 C685 1.409 . S
C683 H675 0.930 . S
C683 C684 1.355 . S
C683 C685 1.415 . S
C684 C683 1.355 . S
C684 C686 1.419 . S
C685 C680 1.425 1_655 S
C685 C682 1.409 . S
C685 C683 1.415 . S
C686 H676 0.930 . S
C686 C684 1.419 . S
C686 C687 1.362 1_655 S
C687 H677 0.930 . S
C687 C680 1.409 . S
C687 C686 1.362 1_455 S
H688 C694 0.930 . S
H689 C697 0.930 . S
H690 C698 0.930 . S
H691 C699 0.930 . S
H692 C702 0.930 . S
H693 C703 0.944 . S
C694 H688 0.930 . S
C694 C695 1.355 . S
C694 C696 1.415 . S
C695 C694 1.355 . S
C695 C697 1.450 . S
C696 C694 1.415 . S
C696 C701 1.425 1_655 S
C696 C703 1.410 . S
C697 H689 0.930 . S
C697 C695 1.450 . S
C697 C698 1.333 1_655 S
C698 H690 0.930 . S
C698 C697 1.333 1_455 S
C698 C701 1.409 . S
C699 H691 0.930 . S
C699 C700 1.355 . S
C699 C701 1.415 . S
C700 C699 1.355 . S
C700 C702 1.419 . S
C701 C696 1.425 1_455 S
C701 C698 1.409 . S
C701 C699 1.415 . S
C702 H692 0.930 . S
C702 C700 1.419 . S
C702 C703 1.349 1_455 S
C703 H693 0.944 . S
C703 C696 1.410 . S
C703 C702 1.349 1_655 S
H704 C710 0.930 . S
H705 C713 0.930 . S
H706 C714 0.930 . S
H707 C715 0.930 . S
H708 C718 0.930 . S
H709 C719 0.930 . S
C710 H704 0.930 . S
C710 C711 1.355 . S
C710 C712 1.415 . S
C711 C710 1.355 . S
C711 C713 1.419 . S
C712 C710 1.415 . S
C712 C717 1.425 . S
C712 C719 1.409 . S
C713 H705 0.930 . S
C713 C711 1.419 . S
C713 C714 1.362 . S
C714 H706 0.930 . S
C714 C713 1.362 . S
C714 C717 1.409 . S
C715 H707 0.930 . S
C715 C716 1.355 . S
C715 C717 1.415 . S
C716 C715 1.355 . S
C716 C718 1.419 . S
C717 C712 1.425 . S
C717 C714 1.409 . S
C717 C715 1.415 . S
C718 H708 0.930 . S
C718 C716 1.419 . S
C718 C719 1.362 . S
C719 H709 0.930 . S
C719 C712 1.409 . S
C719 C718 1.362 . S
H720 C726 0.930 . S
H721 C729 0.930 . S
H722 C730 0.930 . S
H723 C731 0.930 . S
H724 C734 0.930 . S
H725 C735 0.930 . S
C726 H720 0.930 . S
C726 C727 1.355 . S
C726 C728 1.415 . S
C727 C726 1.355 . S
C727 C729 1.419 . S
C728 C726 1.415 . S
C728 C733 1.425 . S
C728 C735 1.409 . S
C729 H721 0.930 . S
C729 C727 1.419 . S
C729 C730 1.362 . S
C730 H722 0.930 . S
C730 C729 1.362 . S
C730 C733 1.409 . S
C731 H723 0.930 . S
C731 C732 1.355 . S
C731 C733 1.415 . S
C732 C731 1.355 . S
C732 C734 1.419 . S
C733 C728 1.425 . S
C733 C730 1.409 . S
C733 C731 1.415 . S
C734 H724 0.930 . S
C734 C732 1.419 . S
C734 C735 1.362 . S
C735 H725 0.930 . S
C735 C728 1.409 . S
C735 C734 1.362 . S
H736 C742 0.930 . S
H737 C745 0.930 . S
H738 C746 0.930 1_545 S
H739 C747 0.930 . S
H740 C750 0.930 . S
H741 C751 0.930 . S
C742 H736 0.930 . S
C742 C743 1.355 1_565 S
C742 C744 1.415 . S
C743 C742 1.355 1_545 S
C743 C745 1.419 . S
C744 C742 1.415 . S
C744 C749 1.425 . S
C744 C751 1.409 . S
C745 H737 0.930 . S
C745 C743 1.419 . S
C745 C746 1.362 1_545 S
C746 H738 0.930 1_565 S
C746 C745 1.362 1_565 S
C746 C749 1.409 . S
C747 H739 0.930 . S
C747 C748 1.355 . S
C747 C749 1.415 . S
C748 C747 1.355 . S
C748 C750 1.419 . S
C749 C744 1.425 . S
C749 C746 1.409 . S
C749 C747 1.415 . S
C750 H740 0.930 . S
C750 C748 1.419 . S
C750 C751 1.362 . S
C751 H741 0.930 . S
C751 C744 1.409 . S
C751 C750 1.362 . S
H752 C758 0.930 . S
H753 C761 0.930 . S
H754 C762 0.930 . S
H755 C763 0.930 . S
H756 C766 0.930 . S
H757 C767 0.930 . S
C758 H752 0.930 . S
C758 C759 1.355 . S
C758 C760 1.415 . S
C759 C758 1.355 . S
C759 C761 1.419 . S
C760 C758 1.415 . S
C760 C765 1.425 . S
C760 C767 1.409 . S
C761 H753 0.930 . S
C761 C759 1.419 . S
C761 C762 1.362 . S
C762 H754 0.930 . S
C762 C761 1.362 . S
C762 C765 1.409 . S
C763 H755 0.930 . S
C763 C764 1.355 . S
C763 C765 1.415 . S
C764 C763 1.355 . S
C764 C766 1.419 . S
C765 C760 1.425 . S
C765 C762 1.409 . S
C765 C763 1.415 . S
C766 H756 0.930 . S
C766 C764 1.419 . S
C766 C767 1.362 . S
C767 H757 0.930 . S
C767 C760 1.409 . S
C767 C766 1.362 . S
H768 C774 0.930 . S
H769 C777 0.930 . S
H770 C778 0.930 1_565 S
H771 C779 0.930 . S
H772 C782 0.930 . S
H773 C783 0.930 . S
C774 H768 0.930 . S
C774 C775 1.355 . S
C774 C776 1.415 . S
C775 C774 1.355 . S
C775 C777 1.419 . S
C776 C774 1.415 . S
C776 C781 1.425 . S
C776 C783 1.409 . S
C777 H769 0.930 . S
C777 C775 1.419 . S
C777 C778 1.362 . S
C778 H770 0.930 1_545 S
C778 C777 1.362 . S
C778 C781 1.409 . S
C779 H771 0.930 . S
C779 C780 1.355 1_564 S
C779 C781 1.415 1_565 S
C780 C779 1.355 1_546 S
C780 C782 1.419 . S
C781 C776 1.425 . S
C781 C778 1.409 . S
C781 C779 1.415 1_545 S
C782 H772 0.930 . S
C782 C780 1.419 . S
C782 C783 1.362 1_556 S
C783 H773 0.930 . S
C783 C776 1.409 . S
C783 C782 1.362 1_554 S
H784 C790 0.930 . S
H785 C793 0.930 . S
H786 C794 0.930 . S
H787 C795 0.930 . S
H788 C798 0.930 . S
H789 C799 0.930 . S
C790 H784 0.930 . S
C790 C791 1.355 . S
C790 C792 1.415 . S
C791 C790 1.355 . S
C791 C793 1.419 . S
C792 C790 1.415 . S
C792 C797 1.425 . S
C792 C799 1.409 . S
C793 H785 0.930 . S
C793 C791 1.419 . S
C793 C794 1.362 . S
C794 H786 0.930 . S
C794 C793 1.362 . S
C794 C797 1.409 . S
C795 H787 0.930 . S
C795 C796 1.355 . S
C795 C797 1.415 . S
C796 C795 1.355 . S
C796 C798 1.419 . S
C797 C792 1.425 . S
C797 C794 1.409 . S
C797 C795 1.415 . S
C798 H788 0.930 . S
C798 C796 1.419 . S
C798 C799 1.362 . S
C799 H789 0.930 . S
C799 C792 1.409 . S
C799 C798 1.362 . S
H800 C806 0.930 . S
H801 C809 0.930 . S
H802 C810 0.930 . S
H803 C811 0.930 . S
H804 C814 0.930 . S
H805 C815 0.930 . S
C806 H800 0.930 . S
C806 C807 1.355 . S
C806 C808 1.415 1_554 S
C807 C806 1.355 . S
C807 C809 1.419 1_554 S
C808 C806 1.415 1_556 S
C808 C813 1.425 . S
C808 C815 1.409 . S
C809 H801 0.930 . S
C809 C807 1.419 1_556 S
C809 C810 1.362 . S
C810 H802 0.930 . S
C810 C809 1.362 . S
C810 C813 1.409 . S
C811 H803 0.930 . S
C811 C812 1.355 . S
C811 C813 1.415 . S
C812 C811 1.355 . S
C812 C814 1.419 . S
C813 C808 1.425 . S
C813 C810 1.409 . S
C813 C811 1.415 . S
C814 H804 0.930 . S
C814 C812 1.419 . S
C814 C815 1.362 . S
C815 H805 0.930 . S
C815 C808 1.409 . S
C815 C814 1.362 . S
H816 C822 0.930 . S
H817 C825 0.930 . S
H818 C826 0.930 . S
H819 C827 0.930 . S
H820 C830 0.930 . S
H821 C831 0.930 . S
C822 H816 0.930 . S
C822 C823 1.355 . S
C822 C824 1.415 . S
C823 C822 1.355 . S
C823 C825 1.419 . S
C824 C822 1.415 . S
C824 C829 1.425 . S
C824 C831 1.409 . S
C825 H817 0.930 . S
C825 C823 1.419 . S
C825 C826 1.362 . S
C826 H818 0.930 . S
C826 C825 1.362 . S
C826 C829 1.409 . S
C827 H819 0.930 . S
C827 C828 1.355 . S
C827 C829 1.415 . S
C828 C827 1.355 . S
C828 C830 1.419 . S
C829 C824 1.425 . S
C829 C826 1.409 . S
C829 C827 1.415 . S
C830 H820 0.930 . S
C830 C828 1.419 . S
C830 C831 1.362 . S
C831 H821 0.930 . S
C831 C824 1.409 . S
C831 C830 1.362 . S
H832 C838 0.930 . S
H833 C841 0.930 . S
H834 C842 0.930 . S
H835 C843 0.930 . S
H836 C846 0.930 . S
H837 C847 0.930 . S
C838 H832 0.930 . S
C838 C839 1.355 . S
C838 C840 1.415 . S
C839 C838 1.355 . S
C839 C841 1.419 . S
C840 C838 1.415 . S
C840 C845 1.425 . S
C840 C847 1.409 . S
C841 H833 0.930 . S
C841 C839 1.419 . S
C841 C842 1.362 . S
C842 H834 0.930 . S
C842 C841 1.362 . S
C842 C845 1.409 . S
C843 H835 0.930 . S
C843 C844 1.355 . S
C843 C845 1.415 . S
C844 C843 1.355 . S
C844 C846 1.419 . S
C845 C840 1.425 . S
C845 C842 1.409 . S
C845 C843 1.415 . S
C846 H836 0.930 . S
C846 C844 1.419 . S
C846 C847 1.362 . S
C847 H837 0.930 . S
C847 C840 1.409 . S
C847 C846 1.362 . S
H848 C854 0.930 . S
H849 C857 0.930 . S
H850 C858 0.930 . S
H851 C859 0.930 . S
H852 C862 0.930 . S
H853 C863 0.930 . S
C854 H848 0.930 . S
C854 C855 1.355 . S
C854 C856 1.415 . S
C855 C854 1.355 . S
C855 C857 1.419 . S
C856 C854 1.415 . S
C856 C861 1.425 . S
C856 C863 1.409 . S
C857 H849 0.930 . S
C857 C855 1.419 . S
C857 C858 1.362 . S
C858 H850 0.930 . S
C858 C857 1.362 . S
C858 C861 1.409 . S
C859 H851 0.930 . S
C859 C860 1.355 . S
C859 C861 1.415 . S
C860 C859 1.355 . S
C860 C862 1.419 . S
C861 C856 1.425 . S
C861 C858 1.409 . S
C861 C859 1.415 . S
C862 H852 0.930 . S
C862 C860 1.419 . S
C862 C863 1.362 . S
C863 H853 0.930 . S
C863 C856 1.409 . S
C863 C862 1.362 . S
H864 C870 0.930 . S
H865 C873 0.930 . S
H866 C874 0.930 . S
H867 C875 0.930 . S
H868 C878 0.930 . S
H869 C879 0.930 1_655 S
C870 H864 0.930 . S
C870 C871 1.355 1_645 S
C870 C872 1.415 1_655 S
C871 C870 1.355 1_465 S
C871 C873 1.419 . S
C872 C870 1.415 1_455 S
C872 C877 1.425 . S
C872 C879 1.409 . S
C873 H865 0.930 . S
C873 C871 1.419 . S
C873 C874 1.362 1_565 S
C874 H866 0.930 . S
C874 C873 1.362 1_545 S
C874 C877 1.409 . S
C875 H867 0.930 . S
C875 C876 1.355 . S
C875 C877 1.415 . S
C876 C875 1.355 . S
C876 C878 1.419 . S
C877 C872 1.425 . S
C877 C874 1.409 . S
C877 C875 1.415 . S
C878 H868 0.930 . S
C878 C876 1.419 . S
C878 C879 1.362 . S
C879 H869 0.930 1_455 S
C879 C872 1.409 . S
C879 C878 1.362 . S
H880 C886 0.930 . S
H881 C889 0.930 . S
H882 C890 0.930 . S
H883 C891 0.930 . S
H884 C894 0.930 . S
H885 C895 0.930 . S
C886 H880 0.930 . S
C886 C887 1.355 . S
C886 C888 1.415 . S
C887 C886 1.355 . S
C887 C889 1.419 . S
C888 C886 1.415 . S
C888 C893 1.425 . S
C888 C895 1.409 . S
C889 H881 0.930 . S
C889 C887 1.419 . S
C889 C890 1.362 . S
C890 H882 0.930 . S
C890 C889 1.362 . S
C890 C893 1.409 . S
C891 H883 0.930 . S
C891 C892 1.355 . S
C891 C893 1.415 . S
C892 C891 1.355 . S
C892 C894 1.419 . S
C893 C888 1.425 . S
C893 C890 1.409 . S
C893 C891 1.415 . S
C894 H884 0.930 . S
C894 C892 1.419 . S
C894 C895 1.362 . S
C895 H885 0.930 . S
C895 C888 1.409 . S
C895 C894 1.362 . S
H896 C902 0.930 . S
H897 C905 0.930 . S
H898 C906 0.929 1_545 S
H899 C907 0.930 . S
H900 C910 0.930 . S
H901 C911 0.930 . S
C902 H896 0.930 . S
C902 C903 1.355 1_565 S
C902 C904 1.415 . S
C903 C902 1.355 1_545 S
C903 C905 1.419 . S
C904 C902 1.415 . S
C904 C909 1.425 . S
C904 C911 1.409 . S
C905 H897 0.930 . S
C905 C903 1.419 . S
C905 C906 1.362 1_545 S
C906 H898 0.929 1_565 S
C906 C905 1.362 1_565 S
C906 C909 1.409 . S
C907 H899 0.930 . S
C907 C908 1.355 . S
C907 C909 1.415 . S
C908 C907 1.355 . S
C908 C910 1.419 . S
C909 C904 1.425 . S
C909 C906 1.409 . S
C909 C907 1.415 . S
C910 H900 0.930 . S
C910 C908 1.419 . S
C910 C911 1.362 . S
C911 H901 0.930 . S
C911 C904 1.409 . S
C911 C910 1.362 . S
H912 C918 0.930 . S
H913 C921 0.930 . S
H914 C922 0.930 . S
H915 C923 0.930 . S
H916 C926 0.930 . S
H917 C927 0.930 . S
C918 H912 0.930 . S
C918 C919 1.355 . S
C918 C920 1.415 . S
C919 C918 1.355 . S
C919 C921 1.419 . S
C920 C918 1.415 . S
C920 C925 1.425 . S
C920 C927 1.409 . S
C921 H913 0.930 . S
C921 C919 1.419 . S
C921 C922 1.362 . S
C922 H914 0.930 . S
C922 C921 1.362 . S
C922 C925 1.409 . S
C923 H915 0.930 . S
C923 C924 1.355 . S
C923 C925 1.415 . S
C924 C923 1.355 . S
C924 C926 1.419 . S
C925 C920 1.425 . S
C925 C922 1.409 . S
C925 C923 1.415 . S
C926 H916 0.930 . S
C926 C924 1.419 . S
C926 C927 1.362 . S
C927 H917 0.930 . S
C927 C920 1.409 . S
C927 C926 1.362 . S
H928 C934 0.930 1_455 S
H929 C937 0.930 . S
H930 C938 0.930 . S
H931 C939 0.930 . S
H932 C942 0.930 . S
H933 C943 0.930 . S
C934 H928 0.930 1_655 S
C934 C935 1.355 . S
C934 C936 1.415 . S
C935 C934 1.355 . S
C935 C937 1.419 . S
C936 C934 1.415 . S
C936 C941 1.425 . S
C936 C943 1.409 . S
C937 H929 0.930 . S
C937 C935 1.419 . S
C937 C938 1.362 . S
C938 H930 0.930 . S
C938 C937 1.362 . S
C938 C941 1.409 . S
C939 H931 0.930 . S
C939 C940 1.355 . S
C939 C941 1.415 . S
C940 C939 1.355 . S
C940 C942 1.419 . S
C941 C936 1.425 . S
C941 C938 1.409 . S
C941 C939 1.415 . S
C942 H932 0.930 . S
C942 C940 1.419 . S
C942 C943 1.362 . S
C943 H933 0.930 . S
C943 C936 1.409 . S
C943 C942 1.362 . S
H944 C950 0.930 . S
H945 C953 0.930 . S
H946 C954 0.930 . S
H947 C955 0.930 . S
H948 C958 0.930 . S
H949 C959 0.930 . S
C950 H944 0.930 . S
C950 C951 1.355 . S
C950 C952 1.415 . S
C951 C950 1.355 . S
C951 C953 1.419 . S
C952 C950 1.415 . S
C952 C957 1.425 . S
C952 C959 1.409 . S
C953 H945 0.930 . S
C953 C951 1.419 . S
C953 C954 1.362 . S
C954 H946 0.930 . S
C954 C953 1.362 . S
C954 C957 1.409 . S
C955 H947 0.930 . S
C955 C956 1.355 . S
C955 C957 1.415 . S
C956 C955 1.355 . S
C956 C958 1.419 . S
C957 C952 1.425 . S
C957 C954 1.409 . S
C957 C955 1.415 . S
C958 H948 0.930 . S
C958 C956 1.419 . S
C958 C959 1.362 . S
C959 H949 0.930 . S
C959 C952 1.409 . S
C959 C958 1.362 . S
H960 C966 0.930 . S
H961 C969 0.930 . S
H962 C970 0.930 . S
H963 C971 0.930 . S
H964 C974 0.930 . S
H965 C975 0.930 . S
C966 H960 0.930 . S
C966 C967 1.355 . S
C966 C968 1.415 . S
C967 C966 1.355 . S
C967 C969 1.419 . S
C968 C966 1.415 . S
C968 C973 1.425 . S
C968 C975 1.409 . S
C969 H961 0.930 . S
C969 C967 1.419 . S
C969 C970 1.362 . S
C970 H962 0.930 . S
C970 C969 1.362 . S
C970 C973 1.409 . S
C971 H963 0.930 . S
C971 C972 1.355 . S
C971 C973 1.415 . S
C972 C971 1.355 . S
C972 C974 1.419 . S
C973 C968 1.425 . S
C973 C970 1.409 . S
C973 C971 1.415 . S
C974 H964 0.930 . S
C974 C972 1.419 . S
C974 C975 1.362 . S
C975 H965 0.930 . S
C975 C968 1.409 . S
C975 C974 1.362 . S
H976 C982 0.930 . S
H977 C985 0.930 . S
H978 C986 0.930 . S
H979 C987 0.930 . S
H980 C990 0.930 . S
H981 C991 0.930 . S
C982 H976 0.930 . S
C982 C983 1.355 . S
C982 C984 1.415 . S
C983 C982 1.355 . S
C983 C985 1.419 . S
C984 C982 1.415 . S
C984 C989 1.425 . S
C984 C991 1.409 . S
C985 H977 0.930 . S
C985 C983 1.419 . S
C985 C986 1.362 . S
C986 H978 0.930 . S
C986 C985 1.362 . S
C986 C989 1.409 . S
C987 H979 0.930 . S
C987 C988 1.355 . S
C987 C989 1.415 . S
C988 C987 1.355 . S
C988 C990 1.419 . S
C989 C984 1.425 . S
C989 C986 1.409 . S
C989 C987 1.415 . S
C990 H980 0.930 . S
C990 C988 1.419 . S
C990 C991 1.362 . S
C991 H981 0.930 . S
C991 C984 1.409 . S
C991 C990 1.362 . S
H992 C998 0.930 . S
H993 C1001 0.930 . S
H994 C1002 0.930 . S
H995 C1003 0.930 . S
H996 C1006 0.930 . S
H997 C1007 0.930 . S
C998 H992 0.930 . S
C998 C999 1.355 . S
C998 C1000 1.415 . S
C999 C998 1.355 . S
C999 C1001 1.419 . S
C1000 C998 1.415 . S
C1000 C1005 1.425 . S
C1000 C1007 1.409 . S
C1001 H993 0.930 . S
C1001 C999 1.419 . S
C1001 C1002 1.362 . S
C1002 H994 0.930 . S
C1002 C1001 1.362 . S
C1002 C1005 1.409 . S
C1003 H995 0.930 . S
C1003 C1004 1.355 . S
C1003 C1005 1.415 . S
C1004 C1003 1.355 . S
C1004 C1006 1.419 . S
C1005 C1000 1.425 . S
C1005 C1002 1.409 . S
C1005 C1003 1.415 . S
C1006 H996 0.930 . S
C1006 C1004 1.419 . S
C1006 C1007 1.362 . S
C1007 H997 0.930 . S
C1007 C1000 1.409 . S
C1007 C1006 1.362 . S
H1008 C1014 0.930 . S
H1009 C1017 0.930 . S
H1010 C1018 0.923 1_655 S
H1011 C1019 0.930 . S
H1012 C1022 0.930 . S
H1013 C1023 0.930 1_556 S
C1014 H1008 0.930 . S
C1014 C1015 1.355 1_456 S
C1014 C1016 1.415 1_556 S
C1015 C1014 1.355 1_654 S
C1015 C1017 1.419 . S
C1016 C1014 1.415 1_554 S
C1016 C1021 1.425 . S
C1016 C1023 1.409 . S
C1017 H1009 0.930 . S
C1017 C1015 1.419 . S
C1017 C1018 1.362 1_655 S
C1018 H1010 0.923 1_455 S
C1018 C1017 1.362 1_455 S
C1018 C1021 1.409 . S
C1019 H1011 0.930 . S
C1019 C1020 1.355 . S
C1019 C1021 1.415 . S
C1020 C1019 1.355 . S
C1020 C1022 1.419 . S
C1021 C1016 1.425 . S
C1021 C1018 1.409 . S
C1021 C1019 1.415 . S
C1022 H1012 0.930 . S
C1022 C1020 1.419 . S
C1022 C1023 1.362 . S
C1023 H1013 0.930 1_554 S
C1023 C1016 1.409 . S
C1023 C1022 1.362 . S
H1024 C1030 0.930 . S
H1025 C1033 0.930 . S
H1026 C1034 0.930 . S
H1027 C1035 0.930 . S
H1028 C1038 0.930 . S
H1029 C1039 0.930 . S
C1030 H1024 0.930 . S
C1030 C1031 1.355 . S
C1030 C1032 1.415 . S
C1031 C1030 1.355 . S
C1031 C1033 1.419 . S
C1032 C1030 1.415 . S
C1032 C1037 1.425 . S
C1032 C1039 1.409 . S
C1033 H1025 0.930 . S
C1033 C1031 1.419 . S
C1033 C1034 1.362 . S
C1034 H1026 0.930 . S
C1034 C1033 1.362 . S
C1034 C1037 1.409 . S
C1035 H1027 0.930 . S
C1035 C1036 1.355 . S
C1035 C1037 1.415 . S
C1036 C1035 1.355 . S
C1036 C1038 1.419 . S
C1037 C1032 1.425 . S
C1037 C1034 1.409 . S
C1037 C1035 1.415 . S
C1038 H1028 0.930 . S
C1038 C1036 1.419 . S
C1038 C1039 1.362 . S
C1039 H1029 0.930 . S
C1039 C1032 1.409 . S
C1039 C1038 1.362 . S
H1040 C1046 0.930 . S
H1041 C1049 0.930 . S
H1042 C1050 0.930 . S
H1043 C1051 0.930 . S
H1044 C1054 0.930 . S
H1045 C1055 0.930 . S
C1046 H1040 0.930 . S
C1046 C1047 1.355 . S
C1046 C1048 1.415 . S
C1047 C1046 1.355 . S
C1047 C1049 1.419 . S
C1048 C1046 1.415 . S
C1048 C1053 1.425 . S
C1048 C1055 1.409 . S
C1049 H1041 0.930 . S
C1049 C1047 1.419 . S
C1049 C1050 1.362 . S
C1050 H1042 0.930 . S
C1050 C1049 1.362 . S
C1050 C1053 1.409 . S
C1051 H1043 0.930 . S
C1051 C1052 1.355 . S
C1051 C1053 1.415 . S
C1052 C1051 1.355 . S
C1052 C1054 1.419 . S
C1053 C1048 1.425 . S
C1053 C1050 1.409 . S
C1053 C1051 1.415 . S
C1054 H1044 0.930 . S
C1054 C1052 1.419 . S
C1054 C1055 1.362 . S
C1055 H1045 0.930 . S
C1055 C1048 1.409 . S
C1055 C1054 1.362 . S
H1056 C1062 0.930 . S
H1057 C1065 0.930 . S
H1058 C1066 0.930 . S
H1059 C1067 0.930 . S
H1060 C1070 0.930 . S
H1061 C1071 0.930 . S
C1062 H1056 0.930 . S
C1062 C1063 1.355 . S
C1062 C1064 1.415 . S
C1063 C1062 1.355 . S
C1063 C1065 1.419 . S
C1064 C1062 1.415 . S
C1064 C1069 1.425 . S
C1064 C1071 1.409 . S
C1065 H1057 0.930 . S
C1065 C1063 1.419 . S
C1065 C1066 1.362 . S
C1066 H1058 0.930 . S
C1066 C1065 1.362 . S
C1066 C1069 1.409 . S
C1067 H1059 0.930 . S
C1067 C1068 1.355 . S
C1067 C1069 1.415 . S
C1068 C1067 1.355 . S
C1068 C1070 1.419 . S
C1069 C1064 1.425 . S
C1069 C1066 1.409 . S
C1069 C1067 1.415 . S
C1070 H1060 0.930 . S
C1070 C1068 1.419 . S
C1070 C1071 1.362 . S
C1071 H1061 0.930 . S
C1071 C1064 1.409 . S
C1071 C1070 1.362 . S
H1072 C1078 0.930 . S
H1073 C1081 0.930 . S
H1074 C1082 0.930 . S
H1075 C1083 0.930 . S
H1076 C1086 0.930 . S
H1077 C1087 0.930 1_554 S
C1078 H1072 0.930 . S
C1078 C1079 1.355 1_554 S
C1078 C1080 1.415 1_554 S
C1079 C1078 1.355 1_556 S
C1079 C1081 1.419 . S
C1080 C1078 1.415 1_556 S
C1080 C1085 1.425 . S
C1080 C1087 1.409 . S
C1081 H1073 0.930 . S
C1081 C1079 1.419 . S
C1081 C1082 1.362 . S
C1082 H1074 0.930 . S
C1082 C1081 1.362 . S
C1082 C1085 1.409 . S
C1083 H1075 0.930 . S
C1083 C1084 1.355 . S
C1083 C1085 1.415 . S
C1084 C1083 1.355 . S
C1084 C1086 1.419 . S
C1085 C1080 1.425 . S
C1085 C1082 1.409 . S
C1085 C1083 1.415 . S
C1086 H1076 0.930 . S
C1086 C1084 1.419 . S
C1086 C1087 1.362 . S
C1087 H1077 0.930 1_556 S
C1087 C1080 1.409 . S
C1087 C1086 1.362 . S
H1088 C1094 0.930 . S
H1089 C1097 0.930 . S
H1090 C1098 0.930 . S
H1091 C1099 0.930 1_455 S
H1092 C1102 0.930 1_455 S
H1093 C1103 0.930 . S
C1094 H1088 0.930 . S
C1094 C1095 1.355 . S
C1094 C1096 1.415 . S
C1095 C1094 1.355 . S
C1095 C1097 1.419 . S
C1096 C1094 1.415 . S
C1096 C1101 1.425 . S
C1096 C1103 1.409 . S
C1097 H1089 0.930 . S
C1097 C1095 1.419 . S
C1097 C1098 1.362 . S
C1098 H1090 0.930 . S
C1098 C1097 1.362 . S
C1098 C1101 1.409 . S
C1099 H1091 0.930 1_655 S
C1099 C1100 1.355 1_655 S
C1099 C1101 1.415 . S
C1100 C1099 1.355 1_455 S
C1100 C1102 1.419 1_455 S
C1101 C1096 1.425 . S
C1101 C1098 1.409 . S
C1101 C1099 1.415 . S
C1102 H1092 0.930 1_655 S
C1102 C1100 1.419 1_655 S
C1102 C1103 1.362 . S
C1103 H1093 0.930 . S
C1103 C1096 1.409 . S
C1103 C1102 1.362 . S
C343 C134 1.277 . S
C348 C8 1.267 . S
C359 C22 1.293 . S
C364 C148 1.285 . S
C375 C36 1.297 . S
C380 C162 1.293 . S
C391 C50 1.262 . S
C396 C120 1.251 . S
C407 C64 1.290 . S
C412 C218 1.282 . S
C423 C176 1.228 . S
C428 C78 1.229 . S
C439 C92 1.230 . S
C444 C190 1.228 . S
C455 C204 1.241 . S
C460 C106 1.251 . S
C471 C232 1.228 . S
C476 C260 1.232 . S
C487 C316 1.234 . S
C492 C246 1.242 . S
C503 C274 1.242 . S
C508 C330 1.252 . S
C519 C302 1.285 . S
C524 C288 1.292 . S
C535 C287 1.727 . S
C540 C7 1.703 . S
C551 C21 1.736 . S
C556 C245 1.685 . S
C567 C35 1.711 . S
C572 C259 1.655 . S
C583 C49 1.659 . S
C588 C273 1.737 . S
C599 C63 1.665 . S
C604 C329 1.692 . S
C615 C301 1.740 . S
C620 C77 1.669 . S
C631 C315 1.739 . S
C636 C91 1.677 . S
C647 C231 1.732 . S
C652 C105 1.655 . S
C663 C217 1.739 . S
C668 C119 1.677 . S
C679 C133 1.653 . S
C684 C175 1.728 . S
C695 C189 1.679 . S
C700 C147 1.739 . S
C711 C203 1.655 . S
C716 C161 1.713 . S
C727 C9 1.062 . S
C732 C227 1.255 . S
C743 C325 1.236 . S
C748 C23 1.200 . S
C759 C297 1.220 . S
C764 C37 1.121 . S
C775 C51 1.067 . S
C780 C311 1.242 1_545 S
C791 C65 1.194 . S
C796 C241 1.242 . S
C807 C255 1.224 . S
C812 C79 1.108 . S
C823 C269 1.226 . S
C828 C93 1.101 . S
C839 C283 1.265 . S
C844 C107 1.106 . S
C855 C3 1.237 . S
C860 C121 1.073 . S
C871 C17 1.263 1_455 S
C876 C135 1.076 . S
C887 C31 1.264 . S
C892 C149 1.087 . S
C903 C45 1.265 . S
C908 C163 1.096 . S
C919 C59 1.232 . S
C924 C177 1.202 . S
C935 C73 1.245 1_655 S
C940 C191 1.063 . S
C951 C205 1.201 . S
C956 C87 1.225 . S
C967 C101 1.265 . S
C972 C219 1.089 . S
C983 C115 1.226 . S
C988 C233 1.202 . S
C999 C247 1.106 . S
C1004 C171 1.224 . S
C1015 C185 1.265 1_554 S
C1020 C261 1.112 . S
C1031 C275 1.201 . S
C1036 C199 1.235 . S
C1047 C289 1.201 . S
C1052 C213 1.225 . S
C1063 C303 1.161 . S
C1068 C143 1.257 . S
C1079 C157 1.260 1_556 S
C1084 C317 1.067 . S
C1095 C331 1.184 . S
C1100 C129 1.248 . S
