# Generated by pormake.
# Topology tzs, (4)-cn, num edge types: 1
# Building blocks:
#     Node 0, Type 0, BuildingBlock: TATPOV_clean_sbu_0, # of connection points: 4
#     Node 1, Type 0, BuildingBlock: TATPOV_clean_sbu_0, # of connection points: 4
#     Node 2, Type 0, BuildingBlock: TATPOV_clean_sbu_0, # of connection points: 4
#     Node 3, Type 0, BuildingBlock: TATPOV_clean_sbu_0, # of connection points: 4
#     Node 4, Type 0, BuildingBlock: TATPOV_clean_sbu_0, # of connection points: 4
#     Node 5, Type 0, BuildingBlock: TATPOV_clean_sbu_0, # of connection points: 4
#     Node 6, Type 0, BuildingBlock: TATPOV_clean_sbu_0, # of connection points: 4
#     Node 7, Type 0, BuildingBlock: TATPOV_clean_sbu_0, # of connection points: 4
#     Node 8, Type 0, BuildingBlock: TATPOV_clean_sbu_0, # of connection points: 4
#     Node 9, Type 0, BuildingBlock: TATPOV_clean_sbu_0, # of connection points: 4
#     Node 10, Type 0, BuildingBlock: TATPOV_clean_sbu_0, # of connection points: 4
#     Node 11, Type 0, BuildingBlock: TATPOV_clean_sbu_0, # of connection points: 4
#     Node 12, Type 0, BuildingBlock: TATPOV_clean_sbu_0, # of connection points: 4
#     Node 13, Type 0, BuildingBlock: TATPOV_clean_sbu_0, # of connection points: 4
#     Node 14, Type 0, BuildingBlock: TATPOV_clean_sbu_0, # of connection points: 4
#     Node 15, Type 0, BuildingBlock: TATPOV_clean_sbu_0, # of connection points: 4
#     Edge 16, Type (0, 0), BuildingBlock: MIFKUJ_clean_linker_0, # of connection points: 2
#     Edge 17, Type (0, 0), BuildingBlock: MIFKUJ_clean_linker_0, # of connection points: 2
#     Edge 18, Type (0, 0), BuildingBlock: MIFKUJ_clean_linker_0, # of connection points: 2
#     Edge 19, Type (0, 0), BuildingBlock: MIFKUJ_clean_linker_0, # of connection points: 2
#     Edge 20, Type (0, 0), BuildingBlock: MIFKUJ_clean_linker_0, # of connection points: 2
#     Edge 21, Type (0, 0), BuildingBlock: MIFKUJ_clean_linker_0, # of connection points: 2
#     Edge 22, Type (0, 0), BuildingBlock: MIFKUJ_clean_linker_0, # of connection points: 2
#     Edge 23, Type (0, 0), BuildingBlock: MIFKUJ_clean_linker_0, # of connection points: 2
#     Edge 24, Type (0, 0), BuildingBlock: MIFKUJ_clean_linker_0, # of connection points: 2
#     Edge 25, Type (0, 0), BuildingBlock: MIFKUJ_clean_linker_0, # of connection points: 2
#     Edge 26, Type (0, 0), BuildingBlock: MIFKUJ_clean_linker_0, # of connection points: 2
#     Edge 27, Type (0, 0), BuildingBlock: MIFKUJ_clean_linker_0, # of connection points: 2
#     Edge 28, Type (0, 0), BuildingBlock: MIFKUJ_clean_linker_0, # of connection points: 2
#     Edge 29, Type (0, 0), BuildingBlock: MIFKUJ_clean_linker_0, # of connection points: 2
#     Edge 30, Type (0, 0), BuildingBlock: MIFKUJ_clean_linker_0, # of connection points: 2
#     Edge 31, Type (0, 0), BuildingBlock: MIFKUJ_clean_linker_0, # of connection points: 2
#     Edge 32, Type (0, 0), BuildingBlock: MIFKUJ_clean_linker_0, # of connection points: 2
#     Edge 33, Type (0, 0), BuildingBlock: MIFKUJ_clean_linker_0, # of connection points: 2
#     Edge 34, Type (0, 0), BuildingBlock: MIFKUJ_clean_linker_0, # of connection points: 2
#     Edge 35, Type (0, 0), BuildingBlock: MIFKUJ_clean_linker_0, # of connection points: 2
#     Edge 36, Type (0, 0), BuildingBlock: MIFKUJ_clean_linker_0, # of connection points: 2
#     Edge 37, Type (0, 0), BuildingBlock: MIFKUJ_clean_linker_0, # of connection points: 2
#     Edge 38, Type (0, 0), BuildingBlock: MIFKUJ_clean_linker_0, # of connection points: 2
#     Edge 39, Type (0, 0), BuildingBlock: MIFKUJ_clean_linker_0, # of connection points: 2
#     Edge 40, Type (0, 0), BuildingBlock: MIFKUJ_clean_linker_0, # of connection points: 2
#     Edge 41, Type (0, 0), BuildingBlock: MIFKUJ_clean_linker_0, # of connection points: 2
#     Edge 42, Type (0, 0), BuildingBlock: MIFKUJ_clean_linker_0, # of connection points: 2
#     Edge 43, Type (0, 0), BuildingBlock: MIFKUJ_clean_linker_0, # of connection points: 2
#     Edge 44, Type (0, 0), BuildingBlock: MIFKUJ_clean_linker_0, # of connection points: 2
#     Edge 45, Type (0, 0), BuildingBlock: MIFKUJ_clean_linker_0, # of connection points: 2
#     Edge 46, Type (0, 0), BuildingBlock: MIFKUJ_clean_linker_0, # of connection points: 2
#     Edge 47, Type (0, 0), BuildingBlock: MIFKUJ_clean_linker_0, # of connection points: 2
# Relax obj value: 0.048
# Max RMSD: 0.073
# Mean RMSD: 0.073
data_MOF--net-tzs--node1-TATPOV_clean_sbu_0--edge1-MIFKUJ_clean_linker_0
_symmetry_space_group_name_H-M    P1
_symmetry_Int_Tables_number       1
_symmetry_cell_setting            triclinic
loop_
_symmetry_equiv_pos_as_xyz
'x, y, z'
_cell_length_a     61.937267
_cell_length_b     61.915345
_cell_length_c     53.418618
_cell_angle_alpha  90.005318
_cell_angle_beta   89.978593
_cell_angle_gamma 89.970094
loop_
_atom_site_label
_atom_site_type_symbol
_atom_site_fract_x
_atom_site_fract_y
_atom_site_fract_z
_atom_type_partial_charge
Zn0 Zn 0.11989 0.3781 0.14765 0.0
Zn1 Zn 0.14331 0.35204 0.17649 0.0
O2 O 0.11232 0.3458 0.18888 0.0
O3 O 0.09338 0.36925 0.167 0.0
O4 O 0.16247 0.33229 0.19654 0.0
O5 O 0.12854 0.3615 0.11705 0.0
O6 O 0.15016 0.34194 0.14054 0.0
C7 C 0.09427 0.35457 0.18348 0.0
C8 C 0.15103 0.40113 0.17661 0.0
O9 O 0.15429 0.38244 0.1859 0.0
O10 O 0.13768 0.40359 0.1589 0.0
C11 C 0.15755 0.31263 0.2003 0.0
O12 O 0.13896 0.30531 0.19203 0.0
C13 C 0.14261 0.34678 0.11909 0.0
Zn14 Zn 0.61549 0.12719 0.1503 0.0
Zn15 Zn 0.64497 0.14818 0.17701 0.0
O16 O 0.65249 0.11641 0.18516 0.0
O17 O 0.62746 0.09923 0.16373 0.0
O18 O 0.66665 0.16597 0.19603 0.0
O19 O 0.62686 0.14002 0.11863 0.0
O20 O 0.65118 0.15765 0.14059 0.0
C21 C 0.64355 0.0988 0.17836 0.0
C22 C 0.59611 0.15506 0.18608 0.0
O23 O 0.6158 0.15844 0.19192 0.0
O24 O 0.5915 0.14242 0.16826 0.0
C25 C 0.6866 0.1612 0.19682 0.0
O26 O 0.69337 0.14347 0.18581 0.0
C27 C 0.64254 0.15307 0.11961 0.0
Zn28 Zn 0.88314 0.61304 0.15901 0.0
Zn29 Zn 0.85972 0.64368 0.18088 0.0
O30 O 0.89063 0.65112 0.19275 0.0
O31 O 0.90976 0.62506 0.17559 0.0
O32 O 0.84118 0.6675 0.19514 0.0
O33 O 0.87428 0.62279 0.12496 0.0
O34 O 0.85389 0.64745 0.14289 0.0
C35 C 0.90875 0.64182 0.18914 0.0
C36 C 0.85097 0.5957 0.19169 0.0
O37 O 0.84737 0.61556 0.19647 0.0
O38 O 0.86518 0.59037 0.17584 0.0
C39 C 0.83238 0.6671 0.21663 0.0
O40 O 0.83574 0.65048 0.2314 0.0
C41 C 0.8608 0.63806 0.12321 0.0
Zn42 Zn 0.37981 0.88483 0.14993 0.0
Zn43 Zn 0.35395 0.85924 0.17706 0.0
O44 O 0.3487 0.88935 0.19237 0.0
O45 O 0.37039 0.91042 0.17065 0.0
O46 O 0.33332 0.84027 0.19611 0.0
O47 O 0.36317 0.87785 0.11892 0.0
O48 O 0.34338 0.85501 0.14062 0.0
C49 C 0.35648 0.90799 0.1878 0.0
C50 C 0.40271 0.85113 0.17625 0.0
O51 O 0.38407 0.84693 0.18511 0.0
O52 O 0.4051 0.86608 0.1603 0.0
C53 C 0.33386 0.81988 0.19343 0.0
O54 O 0.34862 0.8113 0.17881 0.0
C55 C 0.34824 0.86394 0.11988 0.0
Zn56 Zn 0.13008 0.61465 0.34574 0.0
Zn57 Zn 0.1533 0.64262 0.31868 0.0
O58 O 0.12221 0.65158 0.30967 0.0
O59 O 0.10304 0.62862 0.33196 0.0
O60 O 0.17229 0.66292 0.29925 0.0
O61 O 0.14402 0.62542 0.37719 0.0
O62 O 0.16262 0.64896 0.35508 0.0
C63 C 0.10394 0.6442 0.3166 0.0
C64 C 0.15715 0.59339 0.31026 0.0
O65 O 0.16209 0.61278 0.30459 0.0
O66 O 0.14379 0.58969 0.32766 0.0
C67 C 0.17062 0.68328 0.30154 0.0
O68 O 0.15554 0.69125 0.31618 0.0
C69 C 0.15771 0.64056 0.37609 0.0
Zn70 Zn 0.37947 0.13071 0.35592 0.0
Zn71 Zn 0.3547 0.15307 0.32372 0.0
O72 O 0.34833 0.12156 0.31422 0.0
O73 O 0.36653 0.10298 0.34237 0.0
O74 O 0.33491 0.17054 0.30175 0.0
O75 O 0.366 0.14601 0.38498 0.0
O76 O 0.34438 0.16286 0.35872 0.0
C77 C 0.3539 0.10353 0.32372 0.0
C78 C 0.40398 0.15751 0.32205 0.0
O79 O 0.3854 0.16263 0.31362 0.0
O80 O 0.40573 0.14415 0.33989 0.0
C81 C 0.31489 0.16602 0.3019 0.0
O82 O 0.30817 0.14947 0.31518 0.0
C83 C 0.3507 0.1591 0.38098 0.0
Zn84 Zn 0.87374 0.37943 0.35274 0.0
Zn85 Zn 0.84974 0.35405 0.32336 0.0
O86 O 0.88082 0.34773 0.31125 0.0
O87 O 0.90032 0.37017 0.33381 0.0
O88 O 0.83112 0.33425 0.30266 0.0
O89 O 0.86453 0.3624 0.38288 0.0
O90 O 0.84254 0.34354 0.359 0.0
C91 C 0.8991 0.3558 0.317 0.0
C92 C 0.84298 0.40326 0.32353 0.0
O93 O 0.83903 0.38462 0.31443 0.0
O94 O 0.85662 0.40531 0.34102 0.0
C95 C 0.83638 0.3145 0.30041 0.0
O96 O 0.85441 0.3077 0.31071 0.0
C97 C 0.85025 0.34793 0.38049 0.0
Zn98 Zn 0.61365 0.87805 0.32694 0.0
Zn99 Zn 0.64394 0.85208 0.31053 0.0
O100 O 0.65292 0.88107 0.29423 0.0
O101 O 0.62465 0.90112 0.30367 0.0
O102 O 0.66667 0.83066 0.29975 0.0
O103 O 0.62444 0.87597 0.36211 0.0
O104 O 0.64718 0.85113 0.34909 0.0
C105 C 0.64251 0.89877 0.29247 0.0
C106 C 0.59572 0.8428 0.30062 0.0
O107 O 0.61561 0.83924 0.29589 0.0
O108 O 0.59041 0.85795 0.31527 0.0
C109 C 0.67653 0.83116 0.27888 0.0
O110 O 0.67195 0.8465 0.26274 0.0
C111 C 0.63885 0.86208 0.36685 0.0
Zn112 Zn 0.88895 0.62298 0.83576 0.0
Zn113 Zn 0.85866 0.64676 0.81382 0.0
O114 O 0.85227 0.61638 0.79955 0.0
O115 O 0.87861 0.59724 0.81608 0.0
O116 O 0.83515 0.6656 0.79961 0.0
O117 O 0.87646 0.62866 0.86967 0.0
O118 O 0.85297 0.65037 0.85175 0.0
C119 C 0.86215 0.59843 0.80209 0.0
C120 C 0.90678 0.65695 0.80593 0.0
O121 O 0.887 0.66009 0.80039 0.0
O122 O 0.9119 0.64252 0.82164 0.0
C123 C 0.8355 0.6745 0.77818 0.0
O124 O 0.85203 0.67113 0.76326 0.0
C125 C 0.86088 0.64179 0.87139 0.0
Zn126 Zn 0.38252 0.87937 0.84378 0.0
Zn127 Zn 0.35388 0.85673 0.8176 0.0
O128 O 0.38311 0.8432 0.80752 0.0
O129 O 0.40633 0.85936 0.83244 0.0
O130 O 0.33203 0.83879 0.79904 0.0
O131 O 0.3661 0.8735 0.87546 0.0
O132 O 0.34437 0.85214 0.85426 0.0
C133 C 0.40233 0.84551 0.81563 0.0
C134 C 0.35964 0.90516 0.80762 0.0
O135 O 0.34936 0.88761 0.80385 0.0
O136 O 0.37504 0.90563 0.8232 0.0
C137 C 0.33226 0.81841 0.80192 0.0
O138 O 0.34712 0.80972 0.8163 0.0
C139 C 0.35036 0.86049 0.87491 0.0
Zn140 Zn 0.11714 0.37414 0.85025 0.0
Zn141 Zn 0.14412 0.35117 0.82206 0.0
O142 O 0.15037 0.3822 0.80969 0.0
O143 O 0.12652 0.40072 0.83148 0.0
O144 O 0.16372 0.33196 0.80187 0.0
O145 O 0.13316 0.36539 0.88118 0.0
O146 O 0.15402 0.34454 0.85818 0.0
C147 C 0.14139 0.40013 0.81521 0.0
C148 C 0.09486 0.3434 0.82037 0.0
O149 O 0.11391 0.34014 0.81215 0.0
O150 O 0.09174 0.35677 0.83793 0.0
C151 C 0.1841 0.33275 0.80439 0.0
O152 O 0.19253 0.34719 0.81953 0.0
C153 C 0.14845 0.3519 0.87949 0.0
Zn154 Zn 0.61288 0.12893 0.849 0.0
Zn155 Zn 0.64342 0.14842 0.82192 0.0
O156 O 0.61494 0.15853 0.80539 0.0
O157 O 0.5898 0.14386 0.82907 0.0
O158 O 0.66622 0.16459 0.80282 0.0
O159 O 0.6238 0.14318 0.88017 0.0
O160 O 0.64897 0.15927 0.85789 0.0
C161 C 0.59508 0.15566 0.81072 0.0
C162 C 0.64117 0.09909 0.82319 0.0
O163 O 0.65041 0.11632 0.81573 0.0
O164 O 0.62484 0.10021 0.83743 0.0
C165 C 0.66484 0.18507 0.80226 0.0
O166 O 0.6484 0.19449 0.81336 0.0
C167 C 0.63976 0.15587 0.87885 0.0
Zn168 Zn 0.88404 0.37177 0.64721 0.0
Zn169 Zn 0.85517 0.35139 0.67616 0.0
O170 O 0.84844 0.3833 0.6835 0.0
O171 O 0.87255 0.40024 0.66044 0.0
O172 O 0.83334 0.33494 0.69642 0.0
O173 O 0.8715 0.3579 0.61664 0.0
O174 O 0.84786 0.34105 0.64042 0.0
C175 C 0.85702 0.40082 0.67588 0.0
C176 C 0.90392 0.34409 0.68341 0.0
O177 O 0.88447 0.34113 0.69042 0.0
O178 O 0.90807 0.35623 0.66496 0.0
C179 C 0.83482 0.31447 0.697 0.0
O180 O 0.85091 0.30507 0.68521 0.0
C181 C 0.85585 0.34492 0.61891 0.0
Zn182 Zn 0.61161 0.87921 0.66651 0.0
Zn183 Zn 0.64229 0.85397 0.68341 0.0
O184 O 0.61429 0.83942 0.69665 0.0
O185 O 0.58907 0.85777 0.6768 0.0
O186 O 0.66608 0.83398 0.69458 0.0
O187 O 0.62324 0.87795 0.63166 0.0
O188 O 0.64628 0.85349 0.6449 0.0
C189 C 0.5945 0.84237 0.69102 0.0
C190 C 0.63864 0.90042 0.70234 0.0
O191 O 0.64952 0.88299 0.70067 0.0
O192 O 0.62108 0.90245 0.69045 0.0
C193 C 0.66648 0.82496 0.71594 0.0
O194 O 0.65089 0.82893 0.73197 0.0
C195 C 0.638 0.86439 0.62707 0.0
Zn196 Zn 0.11928 0.62499 0.6463 0.0
Zn197 Zn 0.1462 0.64701 0.67525 0.0
O198 O 0.15107 0.61565 0.68724 0.0
O199 O 0.12628 0.59805 0.66589 0.0
O200 O 0.16698 0.66461 0.69581 0.0
O201 O 0.13695 0.63213 0.61599 0.0
O202 O 0.15685 0.65357 0.63938 0.0
C203 C 0.14124 0.59811 0.68206 0.0
C204 C 0.09761 0.65725 0.67507 0.0
O205 O 0.11629 0.65929 0.6848 0.0
O206 O 0.09473 0.64438 0.65696 0.0
C207 C 0.16639 0.68506 0.69377 0.0
O208 O 0.15178 0.69388 0.67915 0.0
C209 C 0.1521 0.64571 0.61806 0.0
Zn210 Zn 0.38064 0.12908 0.63856 0.0
Zn211 Zn 0.3556 0.15113 0.67057 0.0
O212 O 0.38664 0.16017 0.6802 0.0
O213 O 0.40713 0.14321 0.65278 0.0
O214 O 0.33724 0.16946 0.69325 0.0
O215 O 0.36601 0.14334 0.60952 0.0
O216 O 0.34502 0.16104 0.63575 0.0
C217 C 0.40524 0.15596 0.67117 0.0
C218 C 0.35538 0.10175 0.67156 0.0
O219 O 0.34838 0.1197 0.68001 0.0
O220 O 0.36906 0.10151 0.65391 0.0
C221 C 0.31678 0.16874 0.69174 0.0
O222 O 0.3078 0.15495 0.6762 0.0
C223 C 0.35095 0.15673 0.61348 0.0
H224 H 0.27169 0.15912 0.29551 0.0
H225 H 0.24515 0.1838 0.27739 0.0
H226 H 0.2956 0.22989 0.26186 0.0
H227 H 0.32231 0.20529 0.27997 0.0
H228 H 0.26031 0.24809 0.28575 0.0
H229 H 0.27397 0.20215 0.21488 0.0
H230 H 0.27714 0.16733 0.19277 0.0
H231 H 0.2105 0.15361 0.20818 0.0
H232 H 0.207 0.18823 0.2307 0.0
H233 H 0.20006 0.32037 0.21057 0.0
H234 H 0.22657 0.29518 0.22756 0.0
H235 H 0.17726 0.24627 0.23408 0.0
H236 H 0.15076 0.27122 0.21629 0.0
H237 H 0.21204 0.22922 0.21497 0.0
H238 H 0.19773 0.27407 0.28599 0.0
H239 H 0.19387 0.3082 0.30938 0.0
H240 H 0.26051 0.32316 0.2956 0.0
H241 H 0.2647 0.28925 0.27183 0.0
C242 C 0.27719 0.17442 0.28804 0.0
C243 C 0.29911 0.18025 0.2892 0.0
C244 C 0.262 0.18848 0.27764 0.0
C245 C 0.26843 0.20863 0.26821 0.0
C246 C 0.29032 0.2144 0.26905 0.0
C247 C 0.30556 0.20029 0.2793 0.0
C248 C 0.25219 0.22398 0.25829 0.0
C249 C 0.24995 0.24412 0.27004 0.0
C250 C 0.23825 0.21847 0.23832 0.0
C251 C 0.24029 0.19769 0.22468 0.0
C252 C 0.26003 0.19163 0.21373 0.0
C253 C 0.26188 0.17194 0.20109 0.0
C254 C 0.24405 0.15824 0.19913 0.0
C255 C 0.22431 0.16423 0.20974 0.0
C256 C 0.22238 0.18389 0.22242 0.0
C257 C 0.19479 0.30431 0.2158 0.0
C258 C 0.17328 0.29781 0.21213 0.0
C259 C 0.20997 0.28993 0.22561 0.0
C260 C 0.20388 0.26888 0.23242 0.0
C261 C 0.18235 0.26242 0.22897 0.0
C262 C 0.1672 0.27673 0.21889 0.0
C263 C 0.22011 0.25344 0.24241 0.0
C264 C 0.22236 0.23325 0.2307 0.0
C265 C 0.23393 0.25882 0.2626 0.0
C266 C 0.23147 0.27921 0.27693 0.0
C267 C 0.21152 0.28472 0.28779 0.0
C268 C 0.20928 0.30401 0.30114 0.0
C269 C 0.22692 0.31787 0.30392 0.0
C270 C 0.24685 0.31243 0.2934 0.0
C271 C 0.24918 0.29316 0.28001 0.0
H272 H 0.22515 0.33279 0.31426 0.0
H273 H 0.24551 0.143 0.18933 0.0
H274 H 0.84443 0.27232 0.28851 0.0
H275 H 0.81939 0.24614 0.27032 0.0
H276 H 0.77005 0.29519 0.26634 0.0
H277 H 0.79498 0.32152 0.2845 0.0
H278 H 0.75569 0.25695 0.28782 0.0
H279 H 0.79439 0.27954 0.21419 0.0
H280 H 0.82686 0.28647 0.18871 0.0
H281 H 0.84447 0.21952 0.19358 0.0
H282 H 0.81224 0.21224 0.2194 0.0
H283 H 0.67903 0.20225 0.21338 0.0
H284 H 0.705 0.22769 0.23086 0.0
H285 H 0.75527 0.17968 0.22487 0.0
H286 H 0.72944 0.15428 0.20658 0.0
H287 H 0.7698 0.21689 0.20905 0.0
H288 H 0.73188 0.19359 0.28212 0.0
H289 H 0.70015 0.18589 0.30855 0.0
H290 H 0.68203 0.25281 0.30629 0.0
H291 H 0.71351 0.26087 0.27956 0.0
C292 C 0.8283 0.2776 0.2836 0.0
C293 C 0.82169 0.29901 0.28796 0.0
C294 C 0.81404 0.26262 0.27315 0.0
C295 C 0.7929 0.26876 0.26692 0.0
C296 C 0.7863 0.29015 0.27105 0.0
C297 C 0.8006 0.30518 0.28132 0.0
C298 C 0.77747 0.2527 0.25679 0.0
C299 C 0.7586 0.24838 0.27042 0.0
C300 C 0.78167 0.24106 0.23453 0.0
C301 C 0.80102 0.2454 0.21895 0.0
C302 C 0.80528 0.26633 0.21001 0.0
C303 C 0.82363 0.27032 0.19547 0.0
C304 C 0.83775 0.25346 0.18959 0.0
C305 C 0.83353 0.23257 0.19818 0.0
C306 C 0.81522 0.2285 0.21275 0.0
C307 C 0.69557 0.19702 0.21592 0.0
C308 C 0.70215 0.1762 0.20865 0.0
C309 C 0.71041 0.21158 0.22603 0.0
C310 C 0.73205 0.20553 0.22952 0.0
C311 C 0.73865 0.18471 0.22238 0.0
C312 C 0.72385 0.17019 0.21201 0.0
C313 C 0.74787 0.22113 0.24001 0.0
C314 C 0.76685 0.22538 0.22648 0.0
C315 C 0.74388 0.23256 0.26252 0.0
C316 C 0.72495 0.22779 0.27865 0.0
C317 C 0.72104 0.20664 0.2871 0.0
C318 C 0.70312 0.20221 0.30216 0.0
C319 C 0.68906 0.21884 0.30904 0.0
C320 C 0.69293 0.23994 0.30092 0.0
C321 C 0.71082 0.24445 0.28584 0.0
H322 H 0.67519 0.21539 0.3207 0.0
H323 H 0.85194 0.25657 0.17832 0.0
H324 H 0.80863 0.67021 0.25976 0.0
H325 H 0.78293 0.69855 0.27122 0.0
H326 H 0.79666 0.732 0.2022 0.0
H327 H 0.82253 0.7039 0.19071 0.0
H328 H 0.79438 0.75979 0.24114 0.0
H329 H 0.75142 0.70193 0.20795 0.0
H330 H 0.73832 0.66444 0.20473 0.0
H331 H 0.71593 0.66703 0.28076 0.0
H332 H 0.72918 0.70447 0.28454 0.0
H333 H 0.7024 0.82864 0.23738 0.0
H334 H 0.72963 0.8012 0.22787 0.0
H335 H 0.71537 0.76888 0.29746 0.0
H336 H 0.68803 0.79611 0.30704 0.0
H337 H 0.71814 0.74057 0.25895 0.0
H338 H 0.76052 0.79885 0.29177 0.0
H339 H 0.77357 0.83638 0.29474 0.0
H340 H 0.79694 0.83307 0.21914 0.0
H341 H 0.78375 0.7956 0.2156 0.0
C342 C 0.80628 0.68365 0.24707 0.0
C343 C 0.81756 0.68472 0.22426 0.0
C344 C 0.79151 0.69979 0.25361 0.0
C345 C 0.78768 0.71725 0.23742 0.0
C346 C 0.79934 0.71865 0.21495 0.0
C347 C 0.81408 0.70252 0.20839 0.0
C348 C 0.77128 0.73389 0.24366 0.0
C349 C 0.77766 0.75562 0.24475 0.0
C350 C 0.74955 0.7284 0.24886 0.0
C351 C 0.7415 0.70592 0.24661 0.0
C352 C 0.74386 0.69445 0.22405 0.0
C353 C 0.73638 0.67321 0.22211 0.0
C354 C 0.72635 0.66333 0.24255 0.0
C355 C 0.72373 0.67469 0.26495 0.0
C356 C 0.73121 0.69592 0.267 0.0
C357 C 0.70506 0.81571 0.25068 0.0
C358 C 0.69306 0.81461 0.27299 0.0
C359 C 0.72069 0.80008 0.24526 0.0
C360 C 0.72467 0.7831 0.26207 0.0
C361 C 0.71258 0.78185 0.28424 0.0
C362 C 0.697 0.79748 0.2897 0.0
C363 C 0.74124 0.76647 0.25643 0.0
C364 C 0.73488 0.74474 0.25541 0.0
C365 C 0.76297 0.77197 0.25126 0.0
C366 C 0.77095 0.79449 0.25334 0.0
C367 C 0.76828 0.80619 0.27571 0.0
C368 C 0.77573 0.82744 0.2775 0.0
C369 C 0.78602 0.83712 0.25712 0.0
C370 C 0.78893 0.82556 0.23491 0.0
C371 C 0.78149 0.80431 0.233 0.0
H372 H 0.79179 0.85358 0.25855 0.0
H373 H 0.72057 0.64689 0.24101 0.0
H374 H 0.29791 0.83281 0.21918 0.0
H375 H 0.26979 0.81002 0.2373 0.0
H376 H 0.30429 0.75307 0.21343 0.0
H377 H 0.33223 0.77577 0.19469 0.0
H378 H 0.2628 0.74939 0.20273 0.0
H379 H 0.3036 0.76993 0.27555 0.0
H380 H 0.3209 0.79539 0.30483 0.0
H381 H 0.25947 0.82478 0.32001 0.0
H382 H 0.24184 0.79966 0.29056 0.0
H383 H 0.20655 0.67176 0.27497 0.0
H384 H 0.23353 0.69554 0.25637 0.0
H385 H 0.19739 0.75122 0.28103 0.0
H386 H 0.17052 0.72748 0.30027 0.0
H387 H 0.23898 0.75622 0.29105 0.0
H388 H 0.19803 0.73522 0.21887 0.0
H389 H 0.18071 0.70971 0.18968 0.0
H390 H 0.24232 0.6812 0.17327 0.0
H391 H 0.25999 0.70636 0.20263 0.0
C392 C 0.2996 0.81543 0.21791 0.0
C393 C 0.31734 0.8061 0.20552 0.0
C394 C 0.28353 0.80242 0.22836 0.0
C395 C 0.28503 0.77981 0.22697 0.0
C396 C 0.30278 0.77047 0.21473 0.0
C397 C 0.31878 0.78347 0.20409 0.0
C398 C 0.26784 0.7659 0.23774 0.0
C399 C 0.25779 0.75068 0.22214 0.0
C400 C 0.26087 0.768 0.26287 0.0
C401 C 0.27144 0.78305 0.28067 0.0
C402 C 0.29381 0.78192 0.285 0.0
C403 C 0.30367 0.79627 0.30165 0.0
C404 C 0.2913 0.81173 0.31423 0.0
C405 C 0.26903 0.81282 0.31023 0.0
C406 C 0.25909 0.79852 0.29358 0.0
C407 C 0.20423 0.68907 0.27631 0.0
C408 C 0.18635 0.69773 0.28908 0.0
C409 C 0.21965 0.70265 0.26556 0.0
C410 C 0.21737 0.72518 0.26703 0.0
C411 C 0.19947 0.73388 0.27964 0.0
C412 C 0.18409 0.72029 0.29056 0.0
C413 C 0.23401 0.73962 0.25607 0.0
C414 C 0.24395 0.75495 0.27163 0.0
C415 C 0.24088 0.73763 0.23089 0.0
C416 C 0.2303 0.72256 0.21312 0.0
C417 C 0.20787 0.72341 0.20917 0.0
C418 C 0.19799 0.70903 0.19257 0.0
C419 C 0.2104 0.69381 0.17967 0.0
C420 C 0.23272 0.69298 0.18329 0.0
C421 C 0.24268 0.70731 0.19989 0.0
H422 H 0.20272 0.68269 0.16683 0.0
H423 H 0.29896 0.82282 0.32711 0.0
H424 H 0.70157 0.81414 0.68747 0.0
H425 H 0.73023 0.78852 0.69765 0.0
H426 H 0.69986 0.77535 0.76872 0.0
H427 H 0.67128 0.80126 0.75886 0.0
H428 H 0.74257 0.78002 0.77406 0.0
H429 H 0.69567 0.73989 0.71977 0.0
H430 H 0.67466 0.73299 0.68139 0.0
H431 H 0.73272 0.73552 0.63753 0.0
H432 H 0.75405 0.74273 0.67562 0.0
H433 H 0.79926 0.68472 0.80485 0.0
H434 H 0.7708 0.71015 0.79351 0.0
H435 H 0.80313 0.72348 0.72368 0.0
H436 H 0.83165 0.69779 0.73474 0.0
H437 H 0.75984 0.71895 0.71729 0.0
H438 H 0.80674 0.75875 0.77184 0.0
H439 H 0.82764 0.76541 0.81035 0.0
H440 H 0.76937 0.76329 0.85387 0.0
H441 H 0.74815 0.75631 0.81563 0.0
C442 C 0.70097 0.80583 0.70529 0.0
C443 C 0.68407 0.8097 0.72232 0.0
C444 C 0.71733 0.7911 0.71103 0.0
C445 C 0.71703 0.77979 0.7338 0.0
C446 C 0.70038 0.78386 0.75101 0.0
C447 C 0.68403 0.79865 0.74532 0.0
C448 C 0.73417 0.76382 0.73974 0.0
C449 C 0.74615 0.7665 0.76181 0.0
C450 C 0.7392 0.74647 0.72345 0.0
C451 C 0.72642 0.74206 0.70052 0.0
C452 C 0.70394 0.73914 0.70191 0.0
C453 C 0.69197 0.73514 0.68022 0.0
C454 C 0.70234 0.73387 0.65703 0.0
C455 C 0.7247 0.73654 0.6555 0.0
C456 C 0.73674 0.74056 0.67714 0.0
C457 C 0.80033 0.69299 0.78703 0.0
C458 C 0.81782 0.6893 0.77075 0.0
C459 C 0.78407 0.7076 0.78063 0.0
C460 C 0.78501 0.71895 0.75792 0.0
C461 C 0.80214 0.71494 0.74134 0.0
C462 C 0.81844 0.70029 0.74772 0.0
C463 C 0.76816 0.73512 0.75164 0.0
C464 C 0.75627 0.73248 0.72951 0.0
C465 C 0.76318 0.75249 0.76789 0.0
C466 C 0.77589 0.75681 0.79089 0.0
C467 C 0.7984 0.75954 0.78964 0.0
C468 C 0.8103 0.7634 0.81142 0.0
C469 C 0.79985 0.76472 0.83455 0.0
C470 C 0.77746 0.76224 0.83594 0.0
C471 C 0.76548 0.75835 0.81422 0.0
H472 H 0.80909 0.76771 0.85139 0.0
H473 H 0.69305 0.73078 0.64025 0.0
H474 H 0.20167 0.67194 0.72067 0.0
H475 H 0.22953 0.69465 0.73953 0.0
H476 H 0.19576 0.75171 0.71466 0.0
H477 H 0.16808 0.72912 0.6953 0.0
H478 H 0.23748 0.75488 0.70448 0.0
H479 H 0.19543 0.73562 0.7767 0.0
H480 H 0.17733 0.71076 0.80604 0.0
H481 H 0.23813 0.68079 0.823 0.0
H482 H 0.25655 0.70529 0.7935 0.0
H483 H 0.29648 0.83146 0.77592 0.0
H484 H 0.2682 0.80874 0.75796 0.0
H485 H 0.30192 0.75172 0.78306 0.0
H486 H 0.33 0.77434 0.80158 0.0
H487 H 0.26019 0.74851 0.79321 0.0
H488 H 0.30222 0.76757 0.72093 0.0
H489 H 0.32039 0.79235 0.69155 0.0
H490 H 0.2597 0.82255 0.67465 0.0
H491 H 0.24121 0.79814 0.70418 0.0
C492 C 0.20008 0.68933 0.71937 0.0
C493 C 0.18265 0.69872 0.70649 0.0
C494 C 0.21599 0.7023 0.73024 0.0
C495 C 0.21464 0.72491 0.72871 0.0
C496 C 0.19715 0.73431 0.71606 0.0
C497 C 0.1813 0.72136 0.70507 0.0
C498 C 0.23178 0.73877 0.73962 0.0
C499 C 0.24223 0.7537 0.72398 0.0
C500 C 0.23838 0.73686 0.76489 0.0
C501 C 0.22734 0.72216 0.78271 0.0
C502 C 0.20492 0.72362 0.78654 0.0
C503 C 0.1946 0.70961 0.80323 0.0
C504 C 0.20657 0.69417 0.81632 0.0
C505 C 0.22888 0.69274 0.81282 0.0
C506 C 0.23927 0.7067 0.79614 0.0
C507 C 0.29794 0.81408 0.77752 0.0
C508 C 0.31552 0.80471 0.79014 0.0
C509 C 0.28179 0.8011 0.76716 0.0
C510 C 0.28304 0.7785 0.76892 0.0
C511 C 0.3006 0.76912 0.78148 0.0
C512 C 0.31668 0.78208 0.79198 0.0
C513 C 0.26587 0.76463 0.75808 0.0
C514 C 0.25543 0.7497 0.77372 0.0
C515 C 0.25929 0.76652 0.7328 0.0
C516 C 0.27037 0.78116 0.71495 0.0
C517 C 0.29278 0.7796 0.71108 0.0
C518 C 0.30313 0.79356 0.69438 0.0
C519 C 0.29122 0.80905 0.68129 0.0
C520 C 0.26891 0.81057 0.68483 0.0
C521 C 0.25849 0.79666 0.70152 0.0
H522 H 0.29926 0.81984 0.66837 0.0
H523 H 0.19855 0.68334 0.82923 0.0
H524 H 0.22823 0.33043 0.80464 0.0
H525 H 0.25097 0.3025 0.78585 0.0
H526 H 0.19431 0.27043 0.75725 0.0
H527 H 0.17142 0.29821 0.77607 0.0
H528 H 0.22185 0.24227 0.78002 0.0
H529 H 0.22622 0.29842 0.71836 0.0
H530 H 0.23276 0.33533 0.70281 0.0
H531 H 0.29857 0.33185 0.72774 0.0
H532 H 0.29234 0.295 0.74377 0.0
H533 H 0.27271 0.17109 0.69351 0.0
H534 H 0.25066 0.19873 0.71388 0.0
H535 H 0.30824 0.22984 0.74142 0.0
H536 H 0.33045 0.20234 0.72099 0.0
H537 H 0.28069 0.25851 0.71987 0.0
H538 H 0.27652 0.20211 0.7809 0.0
H539 H 0.26999 0.16518 0.79641 0.0
H540 H 0.20387 0.1691 0.77271 0.0
H541 H 0.21008 0.20596 0.75673 0.0
C542 C 0.2206 0.31752 0.79422 0.0
C543 C 0.19801 0.31657 0.79184 0.0
C544 C 0.23363 0.30159 0.78344 0.0
C545 C 0.22433 0.28444 0.77006 0.0
C546 C 0.2018 0.28351 0.76753 0.0
C547 C 0.18877 0.29947 0.77821 0.0
C548 C 0.23805 0.26722 0.75912 0.0
C549 C 0.23453 0.24578 0.76661 0.0
C550 C 0.25495 0.27188 0.74213 0.0
C551 C 0.25875 0.29404 0.73251 0.0
C552 C 0.24204 0.30559 0.72073 0.0
C553 C 0.2457 0.32649 0.71178 0.0
C554 C 0.26605 0.33596 0.71435 0.0
C555 C 0.2828 0.32451 0.7258 0.0
C556 C 0.27922 0.30362 0.73481 0.0
C557 C 0.2807 0.1837 0.70407 0.0
C558 C 0.30334 0.18451 0.7056 0.0
C559 C 0.26805 0.19945 0.71577 0.0
C560 C 0.27781 0.21628 0.72926 0.0
C561 C 0.30039 0.217 0.73108 0.0
C562 C 0.31305 0.20121 0.71947 0.0
C563 C 0.26446 0.23355 0.74072 0.0
C564 C 0.26804 0.25501 0.73332 0.0
C565 C 0.24762 0.22889 0.7578 0.0
C566 C 0.24383 0.20672 0.76739 0.0
C567 C 0.26063 0.19503 0.7788 0.0
C568 C 0.25698 0.17412 0.78771 0.0
C569 C 0.23654 0.16478 0.78549 0.0
C570 C 0.2197 0.17635 0.77439 0.0
C571 C 0.22327 0.19726 0.76542 0.0
H572 H 0.23375 0.14859 0.79241 0.0
H573 H 0.26886 0.35213 0.7074 0.0
H574 H 0.70291 0.17109 0.78181 0.0
H575 H 0.73188 0.19319 0.76417 0.0
H576 H 0.69474 0.2508 0.77869 0.0
H577 H 0.66564 0.22885 0.79619 0.0
H578 H 0.71325 0.25159 0.73244 0.0
H579 H 0.73534 0.23739 0.81691 0.0
H580 H 0.74366 0.21466 0.85356 0.0
H581 H 0.79355 0.18244 0.81203 0.0
H582 H 0.78531 0.20478 0.77498 0.0
H583 H 0.79719 0.32842 0.71852 0.0
H584 H 0.76852 0.30629 0.73673 0.0
H585 H 0.8055 0.24872 0.7215 0.0
H586 H 0.83431 0.2707 0.70338 0.0
H587 H 0.78713 0.24789 0.76815 0.0
H588 H 0.76493 0.26212 0.68365 0.0
H589 H 0.75661 0.28493 0.64707 0.0
H590 H 0.70687 0.31721 0.6888 0.0
H591 H 0.71512 0.29479 0.72577 0.0
C592 C 0.70085 0.18845 0.78115 0.0
C593 C 0.68201 0.19822 0.79051 0.0
C594 C 0.71746 0.20106 0.77116 0.0
C595 C 0.71555 0.22364 0.7704 0.0
C596 C 0.69655 0.2334 0.77916 0.0
C597 C 0.67996 0.22082 0.78922 0.0
C598 C 0.73343 0.23714 0.76068 0.0
C599 C 0.72934 0.251 0.74045 0.0
C600 C 0.75451 0.23602 0.77083 0.0
C601 C 0.75955 0.2226 0.79309 0.0
C602 C 0.74796 0.22533 0.81552 0.0
C603 C 0.75269 0.21254 0.83638 0.0
C604 C 0.76908 0.19707 0.8351 0.0
C605 C 0.78083 0.1944 0.81298 0.0
C606 C 0.77615 0.20714 0.79205 0.0
C607 C 0.7993 0.31106 0.71917 0.0
C608 C 0.81799 0.3013 0.70937 0.0
C609 C 0.78286 0.29844 0.7295 0.0
C610 C 0.78479 0.27585 0.73018 0.0
C611 C 0.80368 0.26612 0.72109 0.0
C612 C 0.8201 0.27871 0.71068 0.0
C613 C 0.76693 0.26234 0.73993 0.0
C614 C 0.77104 0.24849 0.76016 0.0
C615 C 0.74585 0.26347 0.72979 0.0
C616 C 0.7408 0.27692 0.70756 0.0
C617 C 0.75234 0.2742 0.6851 0.0
C618 C 0.74761 0.28704 0.66428 0.0
C619 C 0.73126 0.30255 0.66564 0.0
C620 C 0.71956 0.30521 0.68779 0.0
C621 C 0.72424 0.29243 0.70868 0.0
H622 H 0.72762 0.31248 0.6495 0.0
H623 H 0.77272 0.18719 0.85127 0.0
H624 H 0.17176 0.31466 0.88755 0.0
H625 H 0.1859 0.30165 0.92792 0.0
H626 H 0.16376 0.36027 0.96337 0.0
H627 H 0.14978 0.37315 0.92367 0.0
H628 H 0.20284 0.34729 0.98215 0.0
H629 H 0.13087 0.31542 0.96091 0.0
H630 H 0.10799 0.29218 0.93432 0.0
H631 H 0.15144 0.23902 0.94587 0.0
H632 H 0.17464 0.26206 0.97237 0.0
H633 H 0.12381 0.34686 0.0733 0.0
H634 H 0.13879 0.33365 0.03417 0.0
H635 H 0.19452 0.30908 0.07331 0.0
H636 H 0.17959 0.32259 0.11304 0.0
H637 H 0.15621 0.29001 0.01797 0.0
H638 H 0.22587 0.32496 0.04729 0.0
H639 H 0.24372 0.35172 0.07464 0.0
H640 H 0.2009 0.40115 0.04783 0.0
H641 H 0.18276 0.37459 0.02046 0.0
C642 C 0.17033 0.32486 0.90393 0.0
C643 C 0.15941 0.34477 0.90259 0.0
C644 C 0.17841 0.31744 0.9269 0.0
C645 C 0.17587 0.33 0.94862 0.0
C646 C 0.16608 0.35037 0.94684 0.0
C647 C 0.15787 0.35763 0.92415 0.0
C648 C 0.18058 0.32151 0.97393 0.0
C649 C 0.19338 0.33414 0.98991 0.0
C650 C 0.16848 0.30424 0.98408 0.0
C651 C 0.15454 0.29045 0.96831 0.0
C652 C 0.13555 0.29879 0.95765 0.0
C653 C 0.12254 0.28567 0.94263 0.0
C654 C 0.12829 0.26415 0.93835 0.0
C655 C 0.14704 0.2557 0.94915 0.0
C656 C 0.16012 0.26877 0.96416 0.0
C657 C 0.13913 0.33842 0.07376 0.0
C658 C 0.15067 0.33606 0.09621 0.0
C659 C 0.14759 0.3307 0.05138 0.0
C660 C 0.16778 0.3205 0.05087 0.0
C661 C 0.17894 0.31702 0.07336 0.0
C662 C 0.17038 0.32471 0.09598 0.0
C663 C 0.17763 0.31646 0.02612 0.0
C664 C 0.16732 0.30176 0.01014 0.0
C665 C 0.19198 0.33184 0.01593 0.0
C666 C 0.20299 0.34785 0.03199 0.0
C667 C 0.22029 0.34154 0.04731 0.0
C668 C 0.23043 0.35665 0.06279 0.0
C669 C 0.22343 0.37812 0.06299 0.0
C670 C 0.2063 0.38453 0.04766 0.0
C671 C 0.19611 0.36947 0.03215 0.0
H672 H 0.23129 0.38979 0.075 0.0
H673 H 0.1182 0.25402 0.92672 0.0
H674 H 0.67937 0.17453 0.88809 0.0
H675 H 0.69219 0.18927 0.92827 0.0
H676 H 0.62992 0.1761 0.96115 0.0
H677 H 0.61721 0.16152 0.9217 0.0
H678 H 0.64686 0.21547 0.97678 0.0
H679 H 0.6713 0.13826 0.96473 0.0
H680 H 0.69373 0.11182 0.94183 0.0
H681 H 0.74989 0.15104 0.95426 0.0
H682 H 0.7277 0.17774 0.97709 0.0
H683 H 0.6204 0.15628 0.07619 0.0
H684 H 0.63234 0.17166 0.03682 0.0
H685 H 0.69368 0.18827 0.06979 0.0
H686 H 0.68159 0.17288 0.11004 0.0
H687 H 0.69485 0.16439 0.02177 0.0
H688 H 0.66773 0.22979 0.05338 0.0
H689 H 0.64311 0.25336 0.07725 0.0
H690 H 0.59089 0.23642 0.02822 0.0
H691 H 0.61505 0.2125 0.00427 0.0
C692 C 0.6684 0.17512 0.90386 0.0
C693 C 0.64738 0.16663 0.90188 0.0
C694 C 0.67571 0.18356 0.92672 0.0
C695 C 0.66198 0.18381 0.94764 0.0
C696 C 0.64074 0.17626 0.9452 0.0
C697 C 0.63356 0.1677 0.92266 0.0
C698 C 0.66963 0.18942 0.97306 0.0
C699 C 0.65779 0.20476 0.98667 0.0
C700 C 0.68461 0.17611 0.98576 0.0
C701 C 0.69789 0.15999 0.97237 0.0
C702 C 0.68843 0.14122 0.9625 0.0
C703 C 0.70108 0.12621 0.94954 0.0
C704 C 0.72321 0.12978 0.94654 0.0
C705 C 0.73275 0.14832 0.95656 0.0
C706 C 0.72015 0.16338 0.9695 0.0
C707 C 0.6364 0.16329 0.07527 0.0
C708 C 0.65009 0.16329 0.0962 0.0
C709 C 0.64314 0.17224 0.05276 0.0
C710 C 0.66377 0.18135 0.05053 0.0
C711 C 0.67762 0.18148 0.07131 0.0
C712 C 0.6707 0.17272 0.09418 0.0
C713 C 0.67057 0.1891 0.02558 0.0
C714 C 0.6851 0.17627 0.012 0.0
C715 C 0.65798 0.20471 0.01292 0.0
C716 C 0.64331 0.21943 0.02689 0.0
C717 C 0.65099 0.23106 0.04768 0.0
C718 C 0.6371 0.24448 0.06125 0.0
C719 C 0.61546 0.24642 0.05422 0.0
C720 C 0.60768 0.23497 0.03358 0.0
C721 C 0.62149 0.22153 0.01994 0.0
H722 H 0.60472 0.25679 0.06478 0.0
H723 H 0.73298 0.11815 0.93649 0.0
H724 H 0.86383 0.61699 0.91294 0.0
H725 H 0.85086 0.62508 0.95485 0.0
H726 H 0.82495 0.68577 0.92895 0.0
H727 H 0.83777 0.67755 0.88629 0.0
H728 H 0.85244 0.68773 0.97347 0.0
H729 H 0.78882 0.65329 0.94665 0.0
H730 H 0.76656 0.62632 0.92463 0.0
H731 H 0.79257 0.57604 0.97105 0.0
H732 H 0.81525 0.60262 0.9931 0.0
H733 H 0.83966 0.67531 0.1089 0.0
H734 H 0.82733 0.68474 0.06641 0.0
H735 H 0.85101 0.62356 0.03916 0.0
H736 H 0.86339 0.61422 0.08086 0.0
H737 H 0.80947 0.63419 0.02132 0.0
H738 H 0.88168 0.66733 0.03374 0.0
H739 H 0.90598 0.69321 0.05471 0.0
H740 H 0.86368 0.74545 0.03482 0.0
H741 H 0.83903 0.71978 0.01396 0.0
C742 C 0.85525 0.63201 0.91601 0.0
C743 C 0.85188 0.64667 0.89636 0.0
C744 C 0.8477 0.63654 0.93995 0.0
C745 C 0.83677 0.65591 0.94489 0.0
C746 C 0.83322 0.67066 0.92538 0.0
C747 C 0.84051 0.66594 0.90112 0.0
C748 C 0.83063 0.66071 0.97105 0.0
C749 C 0.84236 0.67659 0.98392 0.0
C750 C 0.81747 0.64619 0.9846 0.0
C751 C 0.80373 0.63002 0.97158 0.0
C752 C 0.78987 0.63647 0.9521 0.0
C753 C 0.77717 0.62124 0.93961 0.0
C754 C 0.77813 0.59949 0.94645 0.0
C755 C 0.7918 0.59291 0.96581 0.0
C756 C 0.80454 0.60807 0.97836 0.0
C757 C 0.84208 0.66389 0.0938 0.0
C758 C 0.85264 0.6441 0.09817 0.0
C759 C 0.83501 0.66928 0.06964 0.0
C760 C 0.83816 0.65477 0.04975 0.0
C761 C 0.84825 0.6349 0.0543 0.0
C762 C 0.8555 0.62967 0.07815 0.0
C763 C 0.83244 0.66017 0.02362 0.0
C764 C 0.81852 0.64614 0.01081 0.0
C765 C 0.8436 0.67634 0.01014 0.0
C766 C 0.85841 0.69166 0.02263 0.0
C767 C 0.8775 0.68432 0.03403 0.0
C768 C 0.89135 0.69894 0.04585 0.0
C769 C 0.88634 0.72095 0.04618 0.0
C770 C 0.86751 0.72839 0.03461 0.0
C771 C 0.8536 0.71382 0.0228 0.0
H772 H 0.89708 0.73225 0.05533 0.0
H773 H 0.76829 0.58772 0.93675 0.0
H774 H 0.32753 0.82598 0.10794 0.0
H775 H 0.31278 0.81591 0.06673 0.0
H776 H 0.32858 0.87929 0.03859 0.0
H777 H 0.34327 0.88925 0.07912 0.0
H778 H 0.28929 0.86442 0.02045 0.0
H779 H 0.36457 0.83802 0.03322 0.0
H780 H 0.39098 0.8148 0.05499 0.0
H781 H 0.35279 0.75883 0.03786 0.0
H782 H 0.32606 0.78182 0.0162 0.0
H783 H 0.34669 0.8862 0.91554 0.0
H784 H 0.33093 0.87738 0.95597 0.0
H785 H 0.31318 0.81426 0.92869 0.0
H786 H 0.32875 0.82327 0.88749 0.0
H787 H 0.33784 0.81466 0.97424 0.0
H788 H 0.27265 0.84355 0.94471 0.0
H789 H 0.24869 0.86843 0.9218 0.0
H790 H 0.26817 0.92064 0.9696 0.0
H791 H 0.29251 0.8962 0.99257 0.0
C792 C 0.32743 0.83782 0.09302 0.0
C793 C 0.33678 0.85829 0.09657 0.0
C794 C 0.31901 0.83206 0.06957 0.0
C795 C 0.31962 0.84686 0.04963 0.0
C796 C 0.3278 0.86767 0.05373 0.0
C797 C 0.3364 0.87328 0.07687 0.0
C798 C 0.31442 0.84056 0.02359 0.0
C799 C 0.29955 0.85324 0.01028 0.0
C800 C 0.32719 0.82534 0.01052 0.0
C801 C 0.34325 0.8116 0.02342 0.0
C802 C 0.36178 0.82077 0.03425 0.0
C803 C 0.3768 0.80767 0.04654 0.0
C804 C 0.37353 0.78536 0.04788 0.0
C805 C 0.35527 0.77612 0.03687 0.0
C806 C 0.34018 0.78917 0.0246 0.0
C807 C 0.33918 0.87054 0.91797 0.0
C808 C 0.33904 0.85537 0.89847 0.0
C809 C 0.33001 0.86558 0.94103 0.0
C810 C 0.32067 0.84526 0.94521 0.0
C811 C 0.32011 0.83011 0.92568 0.0
C812 C 0.32898 0.83526 0.90226 0.0
C813 C 0.31389 0.83974 0.97098 0.0
C814 C 0.32654 0.82488 0.98429 0.0
C815 C 0.29914 0.85306 0.98402 0.0
C816 C 0.28439 0.86795 0.97045 0.0
C817 C 0.2719 0.86035 0.9503 0.0
C818 C 0.25824 0.87439 0.93728 0.0
C819 C 0.25689 0.8961 0.94426 0.0
C820 C 0.26919 0.90381 0.96426 0.0
C821 C 0.28288 0.88984 0.97734 0.0
H822 H 0.24631 0.90694 0.93415 0.0
H823 H 0.38518 0.77524 0.05739 0.0
H824 H 0.16053 0.62064 0.57797 0.0
H825 H 0.17676 0.6313 0.53842 0.0
H826 H 0.18654 0.69584 0.5667 0.0
H827 H 0.1705 0.68496 0.60705 0.0
H828 H 0.16331 0.69335 0.52074 0.0
H829 H 0.23074 0.67138 0.55069 0.0
H830 H 0.25719 0.64933 0.57382 0.0
H831 H 0.24385 0.59523 0.52601 0.0
H832 H 0.21707 0.61679 0.50283 0.0
H833 H 0.17491 0.68051 0.38674 0.0
H834 H 0.1886 0.69296 0.4276 0.0
H835 H 0.17747 0.62948 0.45832 0.0
H836 H 0.1637 0.6172 0.41819 0.0
H837 H 0.21647 0.64832 0.47485 0.0
H838 H 0.13858 0.66715 0.46283 0.0
H839 H 0.11001 0.6875 0.44088 0.0
H840 H 0.14335 0.74693 0.45579 0.0
H841 H 0.17221 0.72684 0.47763 0.0
C842 C 0.16647 0.63701 0.57597 0.0
C843 C 0.16416 0.65202 0.59545 0.0
C844 C 0.17593 0.64305 0.55344 0.0
C845 C 0.18308 0.6643 0.54973 0.0
C846 C 0.18133 0.67931 0.56935 0.0
C847 C 0.1722 0.67309 0.59228 0.0
C848 C 0.18962 0.67076 0.52418 0.0
C849 C 0.17558 0.68426 0.51077 0.0
C850 C 0.20569 0.65898 0.51121 0.0
C851 C 0.22191 0.64581 0.52491 0.0
C852 C 0.23337 0.65476 0.54514 0.0
C853 C 0.24844 0.64233 0.55828 0.0
C854 C 0.25222 0.62091 0.55136 0.0
C855 C 0.24095 0.61186 0.53129 0.0
C856 C 0.22586 0.6242 0.51809 0.0
C857 C 0.17575 0.66921 0.40219 0.0
C858 C 0.16802 0.64797 0.39945 0.0
C859 C 0.18358 0.67631 0.42541 0.0
C860 C 0.1841 0.6621 0.44591 0.0
C861 C 0.1774 0.64066 0.4427 0.0
C862 C 0.16931 0.63371 0.4198 0.0
C863 C 0.18904 0.66946 0.47162 0.0
C864 C 0.2052 0.65852 0.48496 0.0
C865 C 0.17493 0.68353 0.48455 0.0
C866 C 0.15761 0.69552 0.47154 0.0
C867 C 0.13985 0.68454 0.46127 0.0
C868 C 0.12361 0.69602 0.44888 0.0
C869 C 0.1249 0.71849 0.44687 0.0
C870 C 0.1424 0.72953 0.4573 0.0
C871 C 0.1587 0.71811 0.46968 0.0
H872 H 0.11231 0.72736 0.43728 0.0
H873 H 0.26388 0.61131 0.56156 0.0
H874 H 0.30881 0.16983 0.60737 0.0
H875 H 0.29259 0.18463 0.56879 0.0
H876 H 0.35516 0.18356 0.53327 0.0
H877 H 0.37109 0.16849 0.571 0.0
H878 H 0.32935 0.22154 0.52204 0.0
H879 H 0.3245 0.13963 0.52613 0.0
H880 H 0.30954 0.10725 0.54683 0.0
H881 H 0.24559 0.13361 0.54075 0.0
H882 H 0.26028 0.16619 0.52015 0.0
H883 H 0.37106 0.17254 0.42264 0.0
H884 H 0.35507 0.18717 0.46056 0.0
H885 H 0.29191 0.18487 0.42655 0.0
H886 H 0.30819 0.17048 0.38778 0.0
H887 H 0.29548 0.16264 0.47291 0.0
H888 H 0.30589 0.23316 0.4452 0.0
H889 H 0.32335 0.26363 0.42353 0.0
H890 H 0.37724 0.25989 0.47386 0.0
H891 H 0.36034 0.22918 0.49561 0.0
C892 C 0.31904 0.17315 0.59138 0.0
C893 C 0.34112 0.16782 0.59193 0.0
C894 C 0.30981 0.18164 0.56949 0.0
C895 C 0.32274 0.18533 0.54831 0.0
C896 C 0.34495 0.18108 0.5495 0.0
C897 C 0.354 0.17225 0.57097 0.0
C898 C 0.31354 0.19066 0.52355 0.0
C899 C 0.32138 0.20906 0.51121 0.0
C900 C 0.30224 0.17485 0.50974 0.0
C901 C 0.29344 0.15529 0.52183 0.0
C902 C 0.30726 0.13848 0.52928 0.0
C903 C 0.29884 0.12013 0.54099 0.0
C904 C 0.27663 0.11839 0.54514 0.0
C905 C 0.26279 0.13499 0.53755 0.0
C906 C 0.27114 0.1534 0.52588 0.0
C907 C 0.35382 0.17553 0.42302 0.0
C908 C 0.34082 0.17027 0.40244 0.0
C909 C 0.3447 0.18411 0.4446 0.0
C910 C 0.32233 0.18739 0.44625 0.0
C911 C 0.30925 0.18272 0.42547 0.0
C912 C 0.31852 0.17451 0.40346 0.0
C913 C 0.31315 0.19259 0.47111 0.0
C914 C 0.30192 0.17611 0.48355 0.0
C915 C 0.32132 0.21024 0.48497 0.0
C916 C 0.3317 0.22889 0.47219 0.0
C917 C 0.32149 0.23878 0.45163 0.0
C918 C 0.33131 0.25611 0.43931 0.0
C919 C 0.35137 0.26373 0.44735 0.0
C920 C 0.36166 0.25403 0.46772 0.0
C921 C 0.35191 0.23669 0.48012 0.0
H922 H 0.35895 0.27713 0.43777 0.0
H923 H 0.27013 0.10417 0.5542 0.0
H924 H 0.87413 0.33814 0.42113 0.0
H925 H 0.86196 0.32215 0.46024 0.0
H926 H 0.79756 0.31577 0.43035 0.0
H927 H 0.80997 0.3315 0.39043 0.0
H928 H 0.80071 0.33887 0.47669 0.0
H929 H 0.81856 0.27031 0.44687 0.0
H930 H 0.83894 0.24249 0.4238 0.0
H931 H 0.89359 0.25228 0.47189 0.0
H932 H 0.87373 0.2804 0.49501 0.0
H933 H 0.8149 0.32928 0.61043 0.0
H934 H 0.80078 0.31486 0.57065 0.0
H935 H 0.86393 0.32172 0.53746 0.0
H936 H 0.87786 0.33622 0.57649 0.0
H937 H 0.84246 0.28331 0.52287 0.0
H938 H 0.82842 0.36292 0.53271 0.0
H939 H 0.81004 0.39286 0.55462 0.0
H940 H 0.74882 0.36176 0.54344 0.0
H941 H 0.76694 0.33156 0.52164 0.0
C942 C 0.85746 0.333 0.42268 0.0
C943 C 0.84294 0.33616 0.40289 0.0
C944 C 0.85055 0.32367 0.44495 0.0
C945 C 0.82891 0.31754 0.44807 0.0
C946 C 0.81438 0.32017 0.42814 0.0
C947 C 0.82146 0.32914 0.40546 0.0
C948 C 0.82168 0.31123 0.47341 0.0
C949 C 0.80901 0.32609 0.48672 0.0
C950 C 0.83237 0.29448 0.48645 0.0
C951 C 0.84454 0.27744 0.47279 0.0
C952 C 0.83495 0.26659 0.4525 0.0
C953 C 0.84643 0.25077 0.43939 0.0
C954 C 0.86753 0.24559 0.44641 0.0
C955 C 0.87721 0.25625 0.46654 0.0
C956 C 0.86581 0.2721 0.47971 0.0
C957 C 0.82575 0.32734 0.59469 0.0
C958 C 0.84739 0.33412 0.59636 0.0
C959 C 0.8177 0.31906 0.57209 0.0
C960 C 0.83135 0.31716 0.55119 0.0
C961 C 0.85317 0.32285 0.55342 0.0
C962 C 0.86107 0.33137 0.57566 0.0
C963 C 0.82311 0.31205 0.52591 0.0
C964 C 0.8329 0.29508 0.5127 0.0
C965 C 0.80982 0.32684 0.51292 0.0
C966 C 0.79899 0.34497 0.52584 0.0
C967 C 0.81105 0.36247 0.53505 0.0
C968 C 0.80069 0.37946 0.54742 0.0
C969 C 0.77828 0.37918 0.55048 0.0
C970 C 0.76618 0.36193 0.54111 0.0
C971 C 0.77648 0.34488 0.52875 0.0
H972 H 0.77029 0.39235 0.56006 0.0
H973 H 0.87639 0.23334 0.43623 0.0
H974 H 0.66752 0.83504 0.60857 0.0
H975 H 0.6749 0.82699 0.56424 0.0
H976 H 0.62998 0.8767 0.54223 0.0
H977 H 0.62268 0.88493 0.58583 0.0
H978 H 0.62238 0.83483 0.52093 0.0
H979 H 0.68084 0.88667 0.53734 0.0
H980 H 0.71433 0.89803 0.55855 0.0
H981 H 0.74675 0.84134 0.53144 0.0
H982 H 0.71333 0.82951 0.51032 0.0
H983 H 0.625 0.88413 0.40776 0.0
H984 H 0.63217 0.87624 0.45149 0.0
H985 H 0.67385 0.82357 0.4302 0.0
H986 H 0.66668 0.83132 0.38575 0.0
H987 H 0.68852 0.85343 0.47311 0.0
H988 H 0.63149 0.8063 0.44864 0.0
H989 H 0.59794 0.79632 0.42667 0.0
H990 H 0.56277 0.84359 0.46909 0.0
H991 H 0.59616 0.85411 0.49103 0.0
C992 C 0.65943 0.84439 0.59424 0.0
C993 C 0.64437 0.8605 0.60075 0.0
C994 C 0.66366 0.83976 0.56899 0.0
C995 C 0.65281 0.85114 0.55009 0.0
C996 C 0.63836 0.86763 0.5566 0.0
C997 C 0.63425 0.87232 0.58159 0.0
C998 C 0.65532 0.8457 0.52333 0.0
C999 C 0.63692 0.83861 0.51047 0.0
C1000 C 0.67454 0.84991 0.5099 0.0
C1001 C 0.69453 0.85706 0.52258 0.0
C1002 C 0.69505 0.87652 0.53613 0.0
C1003 C 0.71403 0.88307 0.54808 0.0
C1004 C 0.73263 0.87037 0.54643 0.0
C1005 C 0.73231 0.85113 0.53276 0.0
C1006 C 0.71336 0.8445 0.5208 0.0
C1007 C 0.63585 0.87095 0.41219 0.0
C1008 C 0.64507 0.85819 0.39322 0.0
C1009 C 0.63996 0.86651 0.43724 0.0
C1010 C 0.65335 0.84922 0.44397 0.0
C1011 C 0.66345 0.83697 0.42525 0.0
C1012 C 0.65927 0.84138 0.39995 0.0
C1013 C 0.65521 0.84364 0.47076 0.0
C1014 C 0.6743 0.84868 0.48361 0.0
C1015 C 0.63663 0.83746 0.48433 0.0
C1016 C 0.61637 0.83101 0.47145 0.0
C1017 C 0.61663 0.81465 0.45319 0.0
C1018 C 0.59763 0.80889 0.44075 0.0
C1019 C 0.57824 0.81932 0.44647 0.0
C1020 C 0.5778 0.83551 0.46469 0.0
C1021 C 0.59675 0.84135 0.47718 0.0
H1022 H 0.56355 0.81484 0.43681 0.0
H1023 H 0.74731 0.87547 0.55569 0.0
H1024 H 0.17435 0.59382 0.26297 0.0
H1025 H 0.18343 0.56232 0.23713 0.0
H1026 H 0.16867 0.52015 0.29905 0.0
H1027 H 0.15943 0.55137 0.32483 0.0
H1028 H 0.20489 0.50631 0.26956 0.0
H1029 H 0.13011 0.5306 0.26031 0.0
H1030 H 0.10242 0.55796 0.25044 0.0
H1031 H 0.12932 0.56589 0.17691 0.0
H1032 H 0.15736 0.53876 0.18651 0.0
H1033 H 0.16409 0.40705 0.22491 0.0
H1034 H 0.17486 0.44104 0.24441 0.0
H1035 H 0.17262 0.4726 0.17236 0.0
H1036 H 0.1607 0.43888 0.1531 0.0
H1037 H 0.15091 0.49481 0.20231 0.0
H1038 H 0.22133 0.46514 0.208 0.0
H1039 H 0.24944 0.43812 0.21733 0.0
H1040 H 0.233 0.44054 0.29537 0.0
H1041 H 0.20457 0.46736 0.28649 0.0
C1042 C 0.1735 0.57786 0.27121 0.0
C1043 C 0.16589 0.57502 0.29579 0.0
C1044 C 0.1787 0.55991 0.25646 0.0
C1045 C 0.17657 0.53894 0.26619 0.0
C1046 C 0.17047 0.5362 0.29124 0.0
C1047 C 0.16503 0.55405 0.30587 0.0
C1048 C 0.17786 0.51979 0.24969 0.0
C1049 C 0.19318 0.50369 0.25477 0.0
C1050 C 0.16291 0.51674 0.23005 0.0
C1051 C 0.14596 0.53288 0.22423 0.0
C1052 C 0.13021 0.53831 0.24212 0.0
C1053 C 0.11444 0.55374 0.23656 0.0
C1054 C 0.11415 0.56371 0.21309 0.0
C1055 C 0.12959 0.5582 0.1951 0.0
C1056 C 0.14542 0.54279 0.20058 0.0
C1057 C 0.16637 0.42114 0.21318 0.0
C1058 C 0.16139 0.42041 0.18756 0.0
C1059 C 0.17268 0.44058 0.22431 0.0
C1060 C 0.17472 0.45948 0.20988 0.0
C1061 C 0.17107 0.45833 0.18396 0.0
C1062 C 0.16428 0.43904 0.17295 0.0
C1063 C 0.17788 0.48082 0.22217 0.0
C1064 C 0.16317 0.49741 0.21649 0.0
C1065 C 0.19359 0.48431 0.24104 0.0
C1066 C 0.2107 0.46819 0.24653 0.0
C1067 C 0.22359 0.45981 0.22713 0.0
C1068 C 0.23961 0.44454 0.23235 0.0
C1069 C 0.24298 0.43759 0.25692 0.0
C1070 C 0.23037 0.44594 0.27634 0.0
C1071 C 0.21432 0.4612 0.27123 0.0
H1072 H 0.25539 0.42577 0.26092 0.0
H1073 H 0.10193 0.57565 0.20882 0.0
H1074 H 0.59724 0.17008 0.23435 0.0
H1075 H 0.56611 0.18007 0.26035 0.0
H1076 H 0.52387 0.17157 0.19696 0.0
H1077 H 0.5547 0.16147 0.17102 0.0
H1078 H 0.51172 0.20665 0.22896 0.0
H1079 H 0.53121 0.13031 0.23261 0.0
H1080 H 0.55666 0.10037 0.24022 0.0
H1081 H 0.56601 0.1222 0.31575 0.0
H1082 H 0.54081 0.15247 0.30843 0.0
H1083 H 0.40989 0.1708 0.27369 0.0
H1084 H 0.44424 0.17939 0.25339 0.0
H1085 H 0.47707 0.17282 0.32428 0.0
H1086 H 0.44298 0.16324 0.34429 0.0
H1087 H 0.49676 0.15012 0.29243 0.0
H1088 H 0.47201 0.22282 0.29153 0.0
H1089 H 0.4468 0.25298 0.28415 0.0
H1090 H 0.44748 0.23966 0.20528 0.0
H1091 H 0.47246 0.20921 0.2122 0.0
C1092 C 0.58138 0.17085 0.22584 0.0
C1093 C 0.57833 0.16468 0.20078 0.0
C1094 C 0.56365 0.17656 0.24069 0.0
C1095 C 0.54271 0.17638 0.23057 0.0
C1096 C 0.53989 0.17185 0.20509 0.0
C1097 C 0.55751 0.1659 0.19036 0.0
C1098 C 0.52349 0.17787 0.24695 0.0
C1099 C 0.50836 0.19438 0.24291 0.0
C1100 C 0.51941 0.16207 0.26542 0.0
C1101 C 0.53436 0.14377 0.26989 0.0
C1102 C 0.53883 0.12881 0.25077 0.0
C1103 C 0.55318 0.11177 0.25504 0.0
C1104 C 0.563 0.10942 0.27843 0.0
C1105 C 0.55843 0.12407 0.29762 0.0
C1106 C 0.54412 0.14117 0.29343 0.0
C1107 C 0.42439 0.17162 0.28498 0.0
C1108 C 0.42383 0.16616 0.31049 0.0
C1109 C 0.44403 0.17667 0.27341 0.0
C1110 C 0.46333 0.17688 0.2873 0.0
C1111 C 0.46247 0.17266 0.31311 0.0
C1112 C 0.44297 0.16719 0.32453 0.0
C1113 C 0.4846 0.17895 0.27457 0.0
C1114 C 0.50014 0.16288 0.27907 0.0
C1115 C 0.48903 0.19529 0.25671 0.0
C1116 C 0.47401 0.21362 0.25242 0.0
C1117 C 0.46667 0.22621 0.27263 0.0
C1118 C 0.45244 0.24338 0.26852 0.0
C1119 C 0.44551 0.24821 0.24427 0.0
C1120 C 0.45285 0.2359 0.22406 0.0
C1121 C 0.46707 0.2187 0.22806 0.0
H1122 H 0.4345 0.26151 0.24113 0.0
H1123 H 0.57411 0.09622 0.2817 0.0
H1124 H 0.83527 0.55888 0.17172 0.0
H1125 H 0.82271 0.52694 0.19416 0.0
H1126 H 0.83012 0.5608 0.26433 0.0
H1127 H 0.84155 0.59325 0.2416 0.0
H1128 H 0.84721 0.50506 0.22191 0.0
H1129 H 0.80335 0.53561 0.31154 0.0
H1130 H 0.7779 0.56434 0.32392 0.0
H1131 H 0.75397 0.5678 0.2486 0.0
H1132 H 0.77904 0.53889 0.23583 0.0
H1133 H 0.8432 0.44426 0.34235 0.0
H1134 H 0.83403 0.47749 0.32016 0.0
H1135 H 0.81236 0.4402 0.25681 0.0
H1136 H 0.82151 0.40677 0.27886 0.0
H1137 H 0.798 0.49637 0.29449 0.0
H1138 H 0.83766 0.46253 0.20607 0.0
H1139 H 0.86314 0.43382 0.1935 0.0
H1140 H 0.89446 0.43787 0.26505 0.0
H1141 H 0.86938 0.4668 0.27786 0.0
C1142 C 0.83355 0.55967 0.19189 0.0
C1143 C 0.83943 0.57839 0.20501 0.0
C1144 C 0.82643 0.54141 0.20472 0.0
C1145 C 0.82555 0.54132 0.23098 0.0
C1146 C 0.83028 0.56049 0.24406 0.0
C1147 C 0.8369 0.57902 0.2311 0.0
C1148 C 0.82271 0.52048 0.24448 0.0
C1149 C 0.83598 0.50312 0.23735 0.0
C1150 C 0.80857 0.51796 0.26513 0.0
C1151 C 0.79324 0.53519 0.27269 0.0
C1152 C 0.79259 0.54243 0.29764 0.0
C1153 C 0.77824 0.55876 0.30472 0.0
C1154 C 0.76437 0.56793 0.28704 0.0
C1155 C 0.76478 0.56074 0.26226 0.0
C1156 C 0.77908 0.5444 0.25508 0.0
C1157 C 0.83603 0.44307 0.32391 0.0
C1158 C 0.83345 0.42288 0.31217 0.0
C1159 C 0.83063 0.4621 0.31135 0.0
C1160 C 0.82276 0.46128 0.28678 0.0
C1161 C 0.81853 0.44113 0.27576 0.0
C1162 C 0.8238 0.42205 0.28837 0.0
C1163 C 0.82226 0.48126 0.27156 0.0
C1164 C 0.8087 0.4984 0.27859 0.0
C1165 C 0.83603 0.48368 0.25066 0.0
C1166 C 0.85147 0.4666 0.243 0.0
C1167 C 0.85003 0.45732 0.21906 0.0
C1168 C 0.8644 0.44102 0.21191 0.0
C1169 C 0.88035 0.43397 0.2285 0.0
C1170 C 0.88205 0.44328 0.25225 0.0
C1171 C 0.86775 0.45961 0.25947 0.0
H1172 H 0.89144 0.42133 0.22294 0.0
H1173 H 0.75329 0.58059 0.29256 0.0
H1174 H 0.55514 0.83462 0.31724 0.0
H1175 H 0.52417 0.82364 0.29208 0.0
H1176 H 0.56576 0.81499 0.22807 0.0
H1177 H 0.59703 0.82574 0.25341 0.0
H1178 H 0.53326 0.84546 0.22143 0.0
H1179 H 0.53859 0.7725 0.24869 0.0
H1180 H 0.5426 0.74289 0.27918 0.0
H1181 H 0.48356 0.76191 0.31511 0.0
H1182 H 0.47933 0.79185 0.28508 0.0
H1183 H 0.43915 0.84104 0.15041 0.0
H1184 H 0.47329 0.82782 0.16751 0.0
H1185 H 0.44444 0.82416 0.24097 0.0
H1186 H 0.40989 0.83613 0.22354 0.0
H1187 H 0.47348 0.79396 0.23735 0.0
H1188 H 0.4724 0.87027 0.21926 0.0
H1189 H 0.46802 0.90258 0.19272 0.0
H1190 H 0.51875 0.88028 0.14435 0.0
H1191 H 0.52324 0.84769 0.17047 0.0
C1192 C 0.5578 0.8297 0.29802 0.0
C1193 C 0.57843 0.8312 0.28719 0.0
C1194 C 0.5401 0.8233 0.28369 0.0
C1195 C 0.54267 0.81849 0.25821 0.0
C1196 C 0.56349 0.81853 0.24776 0.0
C1197 C 0.58132 0.82461 0.26224 0.0
C1198 C 0.5233 0.81728 0.24199 0.0
C1199 C 0.52043 0.83378 0.22435 0.0
C1200 C 0.50629 0.80256 0.24657 0.0
C1201 C 0.50871 0.78451 0.26466 0.0
C1202 C 0.52653 0.77048 0.2632 0.0
C1203 C 0.52883 0.75361 0.28039 0.0
C1204 C 0.51336 0.75053 0.29909 0.0
C1205 C 0.49553 0.76431 0.30061 0.0
C1206 C 0.49316 0.78121 0.28347 0.0
C1207 C 0.44001 0.83693 0.1701 0.0
C1208 C 0.42203 0.83987 0.18576 0.0
C1209 C 0.45953 0.82946 0.17988 0.0
C1210 C 0.46167 0.82563 0.20569 0.0
C1211 C 0.44327 0.82712 0.22103 0.0
C1212 C 0.42354 0.83402 0.21109 0.0
C1213 C 0.48334 0.82238 0.21708 0.0
C1214 C 0.48655 0.80522 0.23391 0.0
C1215 C 0.5006 0.83685 0.2123 0.0
C1216 C 0.49796 0.85643 0.19661 0.0
C1217 C 0.48251 0.8722 0.20286 0.0
C1218 C 0.48002 0.89056 0.18792 0.0
C1219 C 0.49305 0.89344 0.16681 0.0
C1220 C 0.50864 0.87799 0.16067 0.0
C1221 C 0.51116 0.85958 0.17553 0.0
H1222 H 0.4911 0.90767 0.15527 0.0
H1223 H 0.51517 0.73747 0.31238 0.0
H1224 H 0.82706 0.5936 0.77082 0.0
H1225 H 0.8158 0.56065 0.74877 0.0
H1226 H 0.86981 0.52633 0.7807 0.0
H1227 H 0.88083 0.55866 0.80292 0.0
H1228 H 0.83533 0.53715 0.714 0.0
H1229 H 0.85867 0.47572 0.79287 0.0
H1230 H 0.85691 0.47351 0.83891 0.0
H1231 H 0.80564 0.5202 0.83977 0.0
H1232 H 0.80684 0.52246 0.79372 0.0
H1233 H 0.87555 0.44022 0.66838 0.0
H1234 H 0.86609 0.47436 0.68791 0.0
H1235 H 0.81248 0.44386 0.72551 0.0
H1236 H 0.82237 0.40921 0.70654 0.0
H1237 H 0.83319 0.46632 0.75737 0.0
H1238 H 0.80462 0.48277 0.67826 0.0
H1239 H 0.80268 0.48519 0.63226 0.0
H1240 H 0.85676 0.52854 0.63178 0.0
H1241 H 0.85926 0.52615 0.67775 0.0
C1242 C 0.83641 0.57897 0.77325 0.0
C1243 C 0.8548 0.57877 0.78874 0.0
C1244 C 0.82997 0.56018 0.76064 0.0
C1245 C 0.84173 0.54091 0.76344 0.0
C1246 C 0.86014 0.54082 0.77872 0.0
C1247 C 0.86652 0.55944 0.79132 0.0
C1248 C 0.83574 0.52097 0.74966 0.0
C1249 C 0.8346 0.52167 0.72345 0.0
C1250 C 0.83392 0.50083 0.76205 0.0
C1251 C 0.83291 0.49931 0.78979 0.0
C1252 C 0.8469 0.4854 0.80285 0.0
C1253 C 0.84604 0.48417 0.82896 0.0
C1254 C 0.8312 0.49673 0.84225 0.0
C1255 C 0.81716 0.51052 0.82945 0.0
C1256 C 0.81795 0.5118 0.80334 0.0
C1257 C 0.86156 0.44075 0.68053 0.0
C1258 C 0.84977 0.42192 0.68597 0.0
C1259 C 0.85603 0.46041 0.69155 0.0
C1260 C 0.83834 0.46185 0.70792 0.0
C1261 C 0.82615 0.44319 0.71287 0.0
C1262 C 0.83182 0.4234 0.70201 0.0
C1263 C 0.83415 0.48236 0.72159 0.0
C1264 C 0.83337 0.48179 0.74784 0.0
C1265 C 0.83358 0.5026 0.70921 0.0
C1266 C 0.83216 0.50421 0.68151 0.0
C1267 C 0.81619 0.49273 0.66835 0.0
C1268 C 0.81498 0.4941 0.64227 0.0
C1269 C 0.82959 0.507 0.6291 0.0
C1270 C 0.84543 0.51857 0.642 0.0
C1271 C 0.84673 0.51724 0.66809 0.0
H1272 H 0.82863 0.50804 0.60891 0.0
H1273 H 0.83056 0.49576 0.86247 0.0
H1274 H 0.55971 0.82505 0.66795 0.0
H1275 H 0.52649 0.81275 0.68812 0.0
H1276 H 0.5563 0.82061 0.76056 0.0
H1277 H 0.59003 0.83177 0.74023 0.0
H1278 H 0.52597 0.78963 0.76275 0.0
H1279 H 0.53016 0.86273 0.73229 0.0
H1280 H 0.53603 0.89108 0.70058 0.0
H1281 H 0.48421 0.86542 0.65627 0.0
H1282 H 0.47825 0.8367 0.68757 0.0
H1283 H 0.44283 0.83963 0.83442 0.0
H1284 H 0.47456 0.82649 0.812 0.0
H1285 H 0.43505 0.81228 0.74762 0.0
H1286 H 0.40308 0.82529 0.77005 0.0
H1287 H 0.46817 0.84097 0.73819 0.0
H1288 H 0.46023 0.77175 0.77595 0.0
H1289 H 0.45492 0.74587 0.81046 0.0
H1290 H 0.51392 0.7671 0.84468 0.0
H1291 H 0.51944 0.79336 0.81057 0.0
C1292 C 0.5594 0.82331 0.68813 0.0
C1293 C 0.57724 0.8295 0.70262 0.0
C1294 C 0.54041 0.81639 0.69965 0.0
C1295 C 0.5387 0.81643 0.72586 0.0
C1296 C 0.55721 0.82059 0.74031 0.0
C1297 C 0.57646 0.82696 0.72871 0.0
C1298 C 0.51711 0.81558 0.73795 0.0
C1299 C 0.51331 0.80085 0.75745 0.0
C1300 C 0.50049 0.8301 0.73086 0.0
C1301 C 0.50394 0.84743 0.7121 0.0
C1302 C 0.52012 0.86306 0.7157 0.0
C1303 C 0.52345 0.87919 0.69781 0.0
C1304 C 0.51054 0.88001 0.67639 0.0
C1305 C 0.49423 0.86473 0.67284 0.0
C1306 C 0.49086 0.84852 0.69064 0.0
C1307 C 0.44078 0.83321 0.81571 0.0
C1308 C 0.42049 0.83374 0.80388 0.0
C1309 C 0.45892 0.82555 0.80298 0.0
C1310 C 0.45715 0.81838 0.77817 0.0
C1311 C 0.43671 0.81766 0.76682 0.0
C1312 C 0.41847 0.82509 0.77966 0.0
C1313 C 0.47695 0.81507 0.76307 0.0
C1314 C 0.48055 0.8293 0.74311 0.0
C1315 C 0.49341 0.80044 0.77018 0.0
C1316 C 0.49018 0.78464 0.79075 0.0
C1317 C 0.47199 0.77104 0.79093 0.0
C1318 C 0.46896 0.75627 0.81041 0.0
C1319 C 0.48405 0.75487 0.82977 0.0
C1320 C 0.50224 0.76821 0.82967 0.0
C1321 C 0.50534 0.78302 0.81024 0.0
H1322 H 0.48168 0.74342 0.84483 0.0
H1323 H 0.51314 0.89252 0.66256 0.0
H1324 H 0.12241 0.4395 0.82014 0.0
H1325 H 0.13036 0.47248 0.79746 0.0
H1326 H 0.18249 0.44045 0.75873 0.0
H1327 H 0.17413 0.40681 0.78107 0.0
H1328 H 0.16268 0.49884 0.79437 0.0
H1329 H 0.18594 0.46229 0.69961 0.0
H1330 H 0.18092 0.42877 0.67524 0.0
H1331 H 0.12055 0.41732 0.7125 0.0
H1332 H 0.12512 0.45087 0.73686 0.0
H1333 H 0.17587 0.5897 0.71286 0.0
H1334 H 0.18409 0.55574 0.73452 0.0
H1335 H 0.12702 0.52682 0.70255 0.0
H1336 H 0.11915 0.56017 0.68043 0.0
H1337 H 0.15791 0.49865 0.7017 0.0
H1338 H 0.12878 0.54828 0.76359 0.0
H1339 H 0.12817 0.58192 0.78835 0.0
H1340 H 0.19109 0.56737 0.81762 0.0
H1341 H 0.19214 0.53374 0.79279 0.0
C1342 C 0.13567 0.43937 0.80691 0.0
C1343 C 0.14752 0.4204 0.80228 0.0
C1344 C 0.14029 0.45836 0.79404 0.0
C1345 C 0.15694 0.45898 0.77627 0.0
C1346 C 0.16938 0.44029 0.77214 0.0
C1347 C 0.16461 0.4211 0.78494 0.0
C1348 C 0.16011 0.47899 0.76135 0.0
C1349 C 0.16194 0.49877 0.77407 0.0
C1350 C 0.15904 0.47899 0.73488 0.0
C1351 C 0.15604 0.45889 0.72026 0.0
C1352 C 0.1716 0.45261 0.70255 0.0
C1353 C 0.16882 0.43362 0.68875 0.0
C1354 C 0.15047 0.42088 0.6924 0.0
C1355 C 0.1348 0.42715 0.70977 0.0
C1356 C 0.13748 0.44613 0.72359 0.0
C1357 C 0.16516 0.57604 0.71039 0.0
C1358 C 0.1468 0.57769 0.69501 0.0
C1359 C 0.16987 0.55665 0.72278 0.0
C1360 C 0.15609 0.53873 0.72032 0.0
C1361 C 0.138 0.54032 0.70464 0.0
C1362 C 0.13344 0.55951 0.69209 0.0
C1363 C 0.1596 0.51853 0.73478 0.0
C1364 C 0.15923 0.49872 0.72196 0.0
C1365 C 0.16127 0.51851 0.76121 0.0
C1366 C 0.16066 0.53868 0.77611 0.0
C1367 C 0.14254 0.55236 0.77517 0.0
C1368 C 0.14211 0.57139 0.78923 0.0
C1369 C 0.15961 0.57682 0.80448 0.0
C1370 C 0.17756 0.56317 0.80575 0.0
C1371 C 0.17809 0.54413 0.79169 0.0
H1372 H 0.15925 0.59156 0.81536 0.0
H1373 H 0.14836 0.40618 0.68171 0.0
H1374 H 0.44393 0.16335 0.64874 0.0
H1375 H 0.478 0.17278 0.66895 0.0
H1376 H 0.44548 0.17676 0.74027 0.0
H1377 H 0.4111 0.16826 0.71987 0.0
H1378 H 0.47697 0.20564 0.73855 0.0
H1379 H 0.47061 0.12965 0.72012 0.0
H1380 H 0.46502 0.09785 0.69308 0.0
H1381 H 0.52003 0.11575 0.64876 0.0
H1382 H 0.52577 0.14783 0.67538 0.0
H1383 H 0.55344 0.16349 0.82394 0.0
H1384 H 0.52358 0.17342 0.79652 0.0
H1385 H 0.56752 0.17802 0.73408 0.0
H1386 H 0.59771 0.16825 0.76163 0.0
H1387 H 0.53334 0.14958 0.72663 0.0
H1388 H 0.54284 0.22249 0.7525 0.0
H1389 H 0.54793 0.25237 0.78241 0.0
H1390 H 0.48663 0.23823 0.81617 0.0
H1391 H 0.48129 0.20805 0.78671 0.0
C1392 C 0.44399 0.16662 0.66866 0.0
C1393 C 0.42496 0.16476 0.68283 0.0
C1394 C 0.46347 0.17197 0.68019 0.0
C1395 C 0.46441 0.17491 0.70622 0.0
C1396 C 0.44517 0.17445 0.72017 0.0
C1397 C 0.42554 0.16954 0.70853 0.0
C1398 C 0.48557 0.17636 0.71917 0.0
C1399 C 0.48928 0.19336 0.73603 0.0
C1400 C 0.50184 0.16057 0.71551 0.0
C1401 C 0.49846 0.14126 0.69954 0.0
C1402 C 0.48141 0.12688 0.7045 0.0
C1403 C 0.47823 0.1088 0.68926 0.0
C1404 C 0.49212 0.10482 0.66916 0.0
C1405 C 0.50926 0.11888 0.6643 0.0
C1406 C 0.51249 0.13701 0.67945 0.0
C1407 C 0.55685 0.16704 0.80448 0.0
C1408 C 0.57787 0.1649 0.79486 0.0
C1409 C 0.53978 0.17288 0.78887 0.0
C1410 C 0.54336 0.17654 0.76331 0.0
C1411 C 0.56448 0.17536 0.75382 0.0
C1412 C 0.58168 0.16981 0.76955 0.0
C1413 C 0.52464 0.17867 0.74627 0.0
C1414 C 0.52129 0.16219 0.72872 0.0
C1415 C 0.50863 0.19471 0.7497 0.0
C1416 C 0.51173 0.21289 0.76745 0.0
C1417 C 0.53051 0.22563 0.76642 0.0
C1418 C 0.53343 0.24265 0.78328 0.0
C1419 C 0.51763 0.24718 0.8012 0.0
C1420 C 0.49886 0.23471 0.80228 0.0
C1421 C 0.49586 0.21766 0.78547 0.0
H1422 H 0.51992 0.26036 0.81423 0.0
H1423 H 0.48964 0.09081 0.65739 0.0
H1424 H 0.67811 0.08901 0.79696 0.0
H1425 H 0.68842 0.05362 0.78012 0.0
H1426 H 0.63062 0.02575 0.81166 0.0
H1427 H 0.62075 0.06054 0.82919 0.0
H1428 H 0.66146 0.99826 0.81649 0.0
H1429 H 0.63518 0.04359 0.74835 0.0
H1430 H 0.63591 0.07549 0.72068 0.0
H1431 H 0.70028 0.05933 0.69733 0.0
H1432 H 0.69999 0.02745 0.7251 0.0
H1433 H 0.61359 0.92944 0.72658 0.0
H1434 H 0.62511 0.9609 0.75066 0.0
H1435 H 0.69176 0.94451 0.73724 0.0
H1436 H 0.68029 0.91228 0.71357 0.0
H1437 H 0.66915 0.99239 0.72431 0.0
H1438 H 0.68926 0.9408 0.7877 0.0
H1439 H 0.68366 0.90832 0.8136 0.0
H1440 H 0.62594 0.93614 0.84439 0.0
H1441 H 0.63102 0.96865 0.81836 0.0
C1442 C 0.66776 0.07525 0.80051 0.0
C1443 C 0.64853 0.07765 0.81426 0.0
C1444 C 0.67364 0.05505 0.79082 0.0
C1445 C 0.66017 0.03702 0.79433 0.0
C1446 C 0.64137 0.03933 0.80875 0.0
C1447 C 0.63566 0.05934 0.81868 0.0
C1448 C 0.66453 0.01597 0.7819 0.0
C1449 C 0.66337 0.99703 0.79635 0.0
C1450 C 0.66749 0.01422 0.75567 0.0
C1451 C 0.66768 0.03335 0.73903 0.0
C1452 C 0.64954 0.04695 0.73744 0.0
C1453 C 0.64987 0.065 0.72173 0.0
C1454 C 0.66817 0.06948 0.70733 0.0
C1455 C 0.68615 0.05588 0.70855 0.0
C1456 C 0.68591 0.03782 0.72427 0.0
C1457 C 0.63072 0.93238 0.72893 0.0
C1458 C 0.64606 0.91848 0.71818 0.0
C1459 C 0.63725 0.9503 0.74271 0.0
C1460 C 0.65923 0.95492 0.74567 0.0
C1461 C 0.67472 0.94106 0.73518 0.0
C1462 C 0.66816 0.92271 0.72178 0.0
C1463 C 0.66536 0.97495 0.75885 0.0
C1464 C 0.66824 0.9937 0.74454 0.0
C1465 C 0.66352 0.97655 0.78511 0.0
C1466 C 0.66046 0.9571 0.80094 0.0
C1467 C 0.67527 0.93991 0.79982 0.0
C1468 C 0.67221 0.92151 0.81456 0.0
C1469 C 0.65444 0.92015 0.8306 0.0
C1470 C 0.63971 0.93721 0.83196 0.0
C1471 C 0.64269 0.95564 0.81724 0.0
H1472 H 0.6521 0.90589 0.842 0.0
H1473 H 0.66839 0.08346 0.69517 0.0
H1474 H 0.94799 0.66353 0.82168 0.0
H1475 H 0.97852 0.67571 0.79654 0.0
H1476 H 0.93585 0.68773 0.73429 0.0
H1477 H 0.90502 0.67569 0.75955 0.0
H1478 H 0.96857 0.65864 0.72399 0.0
H1479 H 0.96269 0.72923 0.75842 0.0
H1480 H 0.95877 0.75651 0.79173 0.0
H1481 H 0.01868 0.73594 0.82439 0.0
H1482 H 0.02283 0.70832 0.7915 0.0
H1483 H 0.06101 0.67017 0.65124 0.0
H1484 H 0.02722 0.68192 0.67058 0.0
H1485 H 0.05724 0.67915 0.74341 0.0
H1486 H 0.09141 0.66851 0.72394 0.0
H1487 H 0.02788 0.70975 0.74356 0.0
H1488 H 0.02966 0.63511 0.71747 0.0
H1489 H 0.03397 0.60517 0.68741 0.0
H1490 H 0.98201 0.63048 0.64299 0.0
H1491 H 0.97759 0.66073 0.67267 0.0
C1492 C 0.945 0.66931 0.80285 0.0
C1493 C 0.92416 0.66846 0.79247 0.0
C1494 C 0.96246 0.67642 0.78856 0.0
C1495 C 0.95945 0.68267 0.76357 0.0
C1496 C 0.93847 0.68307 0.7536 0.0
C1497 C 0.92089 0.67623 0.76805 0.0
C1498 C 0.97852 0.68531 0.74711 0.0
C1499 C 0.98127 0.67026 0.72778 0.0
C1500 C 0.99538 0.69995 0.7527 0.0
C1501 C 0.99301 0.7166 0.77252 0.0
C1502 C 0.97496 0.73041 0.7728 0.0
C1503 C 0.97271 0.74596 0.7916 0.0
C1504 C 0.98845 0.74794 0.81018 0.0
C1505 C 0.0065 0.73439 0.80998 0.0
C1506 C 0.00883 0.71881 0.79123 0.0
C1507 C 0.06051 0.67259 0.67132 0.0
C1508 C 0.07869 0.66814 0.68616 0.0
C1509 C 0.04119 0.67924 0.68236 0.0
C1510 C 0.03949 0.68079 0.70852 0.0
C1511 C 0.0581 0.67795 0.7232 0.0
C1512 C 0.07762 0.67182 0.71208 0.0
C1513 C 0.01801 0.68284 0.72072 0.0
C1514 C 0.0149 0.69858 0.73933 0.0
C1515 C 0.00088 0.6685 0.71491 0.0
C1516 C 0.00348 0.65031 0.69709 0.0
C1517 C 0.01926 0.63436 0.7012 0.0
C1518 C 0.02171 0.61733 0.68425 0.0
C1519 C 0.00832 0.61596 0.66326 0.0
C1520 C 0.99241 0.63159 0.65922 0.0
C1521 C 0.98992 0.64868 0.6761 0.0
H1522 H 0.01024 0.60276 0.65016 0.0
H1523 H 0.98667 0.75999 0.82472 0.0
H1524 H 0.32446 0.09486 0.70769 0.0
H1525 H 0.31686 0.06101 0.72978 0.0
H1526 H 0.36478 0.02844 0.68485 0.0
H1527 H 0.37184 0.06174 0.66226 0.0
H1528 H 0.33324 0.00201 0.69266 0.0
H1529 H 0.37592 0.05019 0.74454 0.0
H1530 H 0.38314 0.08403 0.76745 0.0
H1531 H 0.32608 0.07432 0.81174 0.0
H1532 H 0.31842 0.04052 0.78887 0.0
H1533 H 0.3831 0.94219 0.80505 0.0
H1534 H 0.37502 0.97486 0.78172 0.0
H1535 H 0.31534 0.94668 0.75583 0.0
H1536 H 0.32375 0.91335 0.7787 0.0
H1537 H 0.34521 0.00368 0.78444 0.0
H1538 H 0.30361 0.9679 0.69781 0.0
H1539 H 0.30206 0.9338 0.67392 0.0
H1540 H 0.36638 0.91803 0.69774 0.0
H1541 H 0.36837 0.95214 0.72152 0.0
C1542 C 0.33313 0.08039 0.7023 0.0
C1543 C 0.34893 0.08108 0.68339 0.0
C1544 C 0.32881 0.06107 0.71498 0.0
C1545 C 0.34049 0.04221 0.70927 0.0
C1546 C 0.35551 0.0427 0.68961 0.0
C1547 C 0.35963 0.06186 0.67677 0.0
C1548 C 0.33861 0.02237 0.7248 0.0
C1549 C 0.33559 0.0024 0.71279 0.0
C1550 C 0.34185 0.02276 0.75103 0.0
C1551 C 0.34646 0.04302 0.76481 0.0
C1552 C 0.36485 0.05537 0.75906 0.0
C1553 C 0.36903 0.07452 0.77204 0.0
C1554 C 0.35503 0.08136 0.79098 0.0
C1555 C 0.33687 0.06903 0.79702 0.0
C1556 C 0.3326 0.04988 0.78406 0.0
C1557 C 0.36821 0.94286 0.79445 0.0
C1558 C 0.35411 0.92509 0.79367 0.0
C1559 C 0.36355 0.96166 0.78118 0.0
C1560 C 0.3446 0.96328 0.76691 0.0
C1561 C 0.33021 0.94573 0.76644 0.0
C1562 C 0.33501 0.92671 0.77954 0.0
C1563 C 0.3406 0.98327 0.75219 0.0
C1564 C 0.34234 0.00329 0.7644 0.0
C1565 C 0.33694 0.98286 0.72603 0.0
C1566 C 0.336 0.9624 0.71169 0.0
C1567 C 0.31741 0.95715 0.69791 0.0
C1568 C 0.31647 0.93784 0.68439 0.0
C1569 C 0.33408 0.92372 0.6844 0.0
C1570 C 0.35272 0.92893 0.69784 0.0
C1571 C 0.35375 0.94824 0.71136 0.0
H1572 H 0.33331 0.90876 0.67395 0.0
H1573 H 0.35829 0.09619 0.80102 0.0
H1574 H 0.0535 0.34079 0.83777 0.0
H1575 H 0.02139 0.33047 0.8141 0.0
H1576 H 0.06128 0.31373 0.75082 0.0
H1577 H 0.09358 0.3239 0.77443 0.0
H1578 H 0.0305 0.34504 0.7408 0.0
H1579 H 0.03312 0.27507 0.77818 0.0
H1580 H 0.03566 0.24879 0.81272 0.0
H1581 H 0.97694 0.27355 0.84442 0.0
H1582 H 0.9742 0.30021 0.81026 0.0
H1583 H 0.94174 0.3297 0.66415 0.0
H1584 H 0.9742 0.31944 0.6872 0.0
H1585 H 0.94002 0.32775 0.75697 0.0
H1586 H 0.90707 0.33695 0.73377 0.0
H1587 H 0.96933 0.29658 0.7618 0.0
H1588 H 0.96932 0.36937 0.73052 0.0
H1589 H 0.96635 0.39786 0.69844 0.0
H1590 H 0.01999 0.37048 0.65854 0.0
H1591 H 0.02308 0.34164 0.69024 0.0
C1592 C 0.0555 0.33443 0.81902 0.0
C1593 C 0.07605 0.33341 0.80785 0.0
C1594 C 0.03714 0.32839 0.80559 0.0
C1595 C 0.03898 0.32133 0.78073 0.0
C1596 C 0.05956 0.31909 0.77003 0.0
C1597 C 0.07798 0.32489 0.78355 0.0
C1598 C 0.01942 0.31952 0.76496 0.0
C1599 C 0.01734 0.33404 0.745 0.0
C1600 C 0.00197 0.30578 0.77114 0.0
C1601 C 0.00355 0.28977 0.79173 0.0
C1602 C 0.02084 0.27505 0.79263 0.0
C1603 C 0.0223 0.26005 0.81212 0.0
C1604 C 0.00649 0.25953 0.83078 0.0
C1605 C 0.98917 0.27398 0.82995 0.0
C1606 C 0.98765 0.28902 0.81051 0.0
C1607 C 0.94104 0.32886 0.68439 0.0
C1608 C 0.92207 0.33442 0.69726 0.0
C1609 C 0.95959 0.32305 0.69755 0.0
C1610 C 0.95972 0.32346 0.72382 0.0
C1611 C 0.94033 0.32746 0.73669 0.0
C1612 C 0.92155 0.33276 0.72347 0.0
C1613 C 0.98047 0.32211 0.73764 0.0
C1614 C 0.98268 0.30723 0.75733 0.0
C1615 C 0.99802 0.33583 0.7316 0.0
C1616 C 0.99627 0.35322 0.71259 0.0
C1617 C 0.98038 0.36934 0.71481 0.0
C1618 C 0.97869 0.38556 0.69671 0.0
C1619 C 0.99293 0.38594 0.67643 0.0
C1620 C 0.00894 0.37014 0.67424 0.0
C1621 C 0.01067 0.35386 0.69227 0.0
H1622 H 0.9916 0.39851 0.66244 0.0
H1623 H 0.00765 0.2479 0.84585 0.0
H1624 H 0.34313 0.09655 0.27491 0.0
H1625 H 0.33673 0.06186 0.25457 0.0
H1626 H 0.34187 0.02963 0.32604 0.0
H1627 H 0.34957 0.06423 0.34615 0.0
H1628 H 0.36463 0.00912 0.29579 0.0
H1629 H 0.2924 0.03419 0.29058 0.0
H1630 H 0.2626 0.05948 0.28171 0.0
H1631 H 0.27915 0.05917 0.20365 0.0
H1632 H 0.30924 0.03411 0.21208 0.0
H1633 H 0.34026 0.9086 0.23551 0.0
H1634 H 0.33277 0.94057 0.26134 0.0
H1635 H 0.34985 0.98189 0.19947 0.0
H1636 H 0.3578 0.95019 0.1738 0.0
H1637 H 0.31119 0.99485 0.22866 0.0
H1638 H 0.38692 0.97354 0.23774 0.0
H1639 H 0.41558 0.94729 0.24788 0.0
H1640 H 0.38929 0.93932 0.3217 0.0
H1641 H 0.36027 0.96532 0.31183 0.0
C1642 C 0.34253 0.08209 0.28632 0.0
C1643 C 0.34694 0.08305 0.31208 0.0
C1644 C 0.33871 0.06223 0.27471 0.0
C1645 C 0.33854 0.04301 0.28875 0.0
C1646 C 0.34198 0.04415 0.31472 0.0
C1647 C 0.34633 0.06394 0.32623 0.0
C1648 C 0.33688 0.02166 0.27606 0.0
C1649 C 0.35254 0.00591 0.28158 0.0
C1650 C 0.32134 0.01735 0.25723 0.0
C1651 C 0.30319 0.03236 0.25201 0.0
C1652 C 0.28978 0.03962 0.27154 0.0
C1653 C 0.27282 0.0539 0.26659 0.0
C1654 C 0.26901 0.06096 0.24214 0.0
C1655 C 0.28212 0.0537 0.22258 0.0
C1656 C 0.29912 0.03943 0.22743 0.0
C1657 C 0.34212 0.92451 0.22735 0.0
C1658 C 0.3498 0.92694 0.20273 0.0
C1659 C 0.33783 0.9427 0.24209 0.0
C1660 C 0.34078 0.96352 0.23224 0.0
C1661 C 0.34739 0.96594 0.20732 0.0
C1662 C 0.35207 0.94782 0.19276 0.0
C1663 C 0.33896 0.98283 0.24839 0.0
C1664 C 0.32282 0.9981 0.24336 0.0
C1665 C 0.35377 0.98661 0.26799 0.0
C1666 C 0.37129 0.97114 0.27395 0.0
C1667 C 0.38714 0.96604 0.25605 0.0
C1668 C 0.40347 0.95124 0.26176 0.0
C1669 C 0.40421 0.94159 0.2854 0.0
C1670 C 0.38866 0.94677 0.30339 0.0
C1671 C 0.37228 0.96154 0.29775 0.0
H1672 H 0.41687 0.93014 0.28979 0.0
H1673 H 0.25588 0.07202 0.23835 0.0
H1674 H 0.90421 0.32274 0.28307 0.0
H1675 H 0.93743 0.31237 0.26108 0.0
H1676 H 0.97182 0.36348 0.29882 0.0
H1677 H 0.93918 0.37345 0.32116 0.0
H1678 H 0.96058 0.33293 0.22885 0.0
H1679 H 0.02295 0.35279 0.30821 0.0
H1680 H 0.02583 0.34859 0.35397 0.0
H1681 H 0.97937 0.29718 0.35204 0.0
H1682 H 0.97643 0.30083 0.30622 0.0
H1683 H 0.05539 0.37493 0.18193 0.0
H1684 H 0.02247 0.36553 0.204 0.0
H1685 H 0.05411 0.31012 0.23652 0.0
H1686 H 0.08769 0.31993 0.21489 0.0
H1687 H 0.03198 0.32939 0.27074 0.0
H1688 H 0.01446 0.30412 0.1904 0.0
H1689 H 0.01145 0.30423 0.14438 0.0
H1690 H 0.968 0.35819 0.14796 0.0
H1691 H 0.97099 0.35863 0.19397 0.0
C1692 C 0.91893 0.3316 0.28683 0.0
C1693 C 0.91904 0.34889 0.30392 0.0
C1694 C 0.93789 0.32565 0.27427 0.0
C1695 C 0.95725 0.33687 0.27861 0.0
C1696 C 0.95729 0.35414 0.29564 0.0
C1697 C 0.93849 0.35995 0.30828 0.0
C1698 C 0.97718 0.33184 0.26424 0.0
C1699 C 0.97617 0.33188 0.23801 0.0
C1700 C 0.99751 0.32961 0.27614 0.0
C1701 C 0.99941 0.32716 0.30373 0.0
C1702 C 0.01346 0.34048 0.3175 0.0
C1703 C 0.01507 0.33822 0.34347 0.0
C1704 C 0.00277 0.32265 0.35591 0.0
C1705 C 0.98885 0.30927 0.34239 0.0
C1706 C 0.98718 0.31145 0.31642 0.0
C1707 C 0.0554 0.36063 0.19361 0.0
C1708 C 0.07419 0.34814 0.19658 0.0
C1709 C 0.03644 0.35516 0.20609 0.0
C1710 C 0.03559 0.33682 0.2215 0.0
C1711 C 0.05432 0.32425 0.22457 0.0
C1712 C 0.07348 0.32987 0.21222 0.0
C1713 C 0.01541 0.33187 0.23542 0.0
C1714 C 0.01638 0.3299 0.26157 0.0
C1715 C 0.99502 0.33165 0.2234 0.0
C1716 C 0.99301 0.33143 0.19568 0.0
C1717 C 0.00435 0.31609 0.18138 0.0
C1718 C 0.00264 0.31604 0.15528 0.0
C1719 C 0.98955 0.33121 0.14325 0.0
C1720 C 0.97812 0.34644 0.1573 0.0
C1721 C 0.97978 0.34656 0.1834 0.0
H1722 H 0.98826 0.33116 0.12305 0.0
H1723 H 0.00403 0.32094 0.37602 0.0
H1724 H 0.68422 0.91318 0.28735 0.0
H1725 H 0.69608 0.94601 0.26499 0.0
H1726 H 0.6307 0.95696 0.2403 0.0
H1727 H 0.61877 0.92497 0.26312 0.0
H1728 H 0.6671 0.96182 0.20213 0.0
H1729 H 0.64225 0.98234 0.28761 0.0
H1730 H 0.6458 0.98023 0.33355 0.0
H1731 H 0.71196 0.00049 0.32826 0.0
H1732 H 0.70882 0.00243 0.28222 0.0
H1733 H 0.62376 0.05995 0.17324 0.0
H1734 H 0.63505 0.02524 0.18951 0.0
H1735 H 0.69222 0.05433 0.221 0.0
H1736 H 0.68052 0.08977 0.20523 0.0
H1737 H 0.67504 0.02801 0.25373 0.0
H1738 H 0.69602 0.01924 0.16993 0.0
H1739 H 0.69377 0.0214 0.12393 0.0
H1740 H 0.63935 0.97848 0.12436 0.0
H1741 H 0.64104 0.9763 0.17038 0.0
C1742 C 0.67254 0.92251 0.27683 0.0
C1743 C 0.65059 0.91671 0.27698 0.0
C1744 C 0.67929 0.94118 0.26416 0.0
C1745 C 0.66422 0.95378 0.25102 0.0
C1746 C 0.64255 0.94735 0.25026 0.0
C1747 C 0.63575 0.92916 0.26336 0.0
C1748 C 0.67014 0.97459 0.23937 0.0
C1749 C 0.6691 0.97634 0.21326 0.0
C1750 C 0.67362 0.99329 0.25395 0.0
C1751 C 0.67539 0.99224 0.28154 0.0
C1752 C 0.6576 0.98614 0.29625 0.0
C1753 C 0.65952 0.98502 0.3223 0.0
C1754 C 0.67912 0.99014 0.33382 0.0
C1755 C 0.69681 0.99647 0.31931 0.0
C1756 C 0.69496 0.99758 0.29326 0.0
C1757 C 0.63886 0.05907 0.18342 0.0
C1758 C 0.65129 0.07767 0.18781 0.0
C1759 C 0.64542 0.03908 0.19256 0.0
C1760 C 0.66481 0.03698 0.20593 0.0
C1761 C 0.67732 0.05551 0.21049 0.0
C1762 C 0.67062 0.07572 0.20148 0.0
C1763 C 0.67079 0.01552 0.21633 0.0
C1764 C 0.67401 0.01358 0.24226 0.0
C1765 C 0.66972 0.99658 0.20146 0.0
C1766 C 0.66867 0.99762 0.17368 0.0
C1767 C 0.68351 0.01033 0.16024 0.0
C1768 C 0.68233 0.01156 0.13415 0.0
C1769 C 0.66643 1.00008 0.12123 0.0
C1770 C 0.65169 0.98733 0.13439 0.0
C1771 C 0.65278 0.98605 0.16049 0.0
H1772 H 0.66554 0.00107 0.10103 0.0
H1773 H 0.68058 0.98927 0.35398 0.0
H1774 H 0.09864 0.67839 0.28424 0.0
H1775 H 0.06511 0.69 0.26386 0.0
H1776 H 0.03023 0.64007 0.30313 0.0
H1777 H 0.06319 0.62898 0.32399 0.0
H1778 H 0.04173 0.6699 0.23238 0.0
H1779 H 0.97924 0.65044 0.31205 0.0
H1780 H 0.97624 0.65529 0.35772 0.0
H1781 H 0.02258 0.70678 0.35491 0.0
H1782 H 0.02563 0.70249 0.30917 0.0
H1783 H 0.94866 0.62348 0.18771 0.0
H1784 H 0.98123 0.63515 0.20888 0.0
H1785 H 0.9474 0.69031 0.23892 0.0
H1786 H 0.91416 0.67827 0.21811 0.0
H1787 H 0.97021 0.67272 0.27411 0.0
H1788 H 0.98702 0.69689 0.19335 0.0
H1789 H 0.99009 0.69623 0.14735 0.0
H1790 H 0.0352 0.64371 0.15194 0.0
H1791 H 0.03217 0.64381 0.19795 0.0
C1792 C 0.08373 0.67017 0.28884 0.0
C1793 C 0.08363 0.65273 0.30572 0.0
C1794 C 0.06458 0.67681 0.27716 0.0
C1795 C 0.04502 0.66613 0.28217 0.0
C1796 C 0.04491 0.64901 0.2994 0.0
C1797 C 0.0639 0.64253 0.31119 0.0
C1798 C 0.02507 0.67113 0.26776 0.0
C1799 C 0.02612 0.67083 0.24152 0.0
C1800 C 0.00469 0.67325 0.27959 0.0
C1801 C 0.00271 0.67608 0.30712 0.0
C1802 C 0.98867 0.66291 0.32112 0.0
C1803 C 0.987 0.66554 0.34704 0.0
C1804 C 0.99923 0.68131 0.35921 0.0
C1805 C 0.01315 0.69453 0.34547 0.0
C1806 C 0.01488 0.69199 0.31954 0.0
C1807 C 0.94806 0.63822 0.19861 0.0
C1808 C 0.92874 0.64995 0.20117 0.0
C1809 C 0.96684 0.645 0.21058 0.0
C1810 C 0.96696 0.66387 0.22511 0.0
C1811 C 0.94775 0.67578 0.22764 0.0
C1812 C 0.92878 0.66889 0.21573 0.0
C1813 C 0.98691 0.66996 0.23889 0.0
C1814 C 0.98585 0.67239 0.26498 0.0
C1815 C 0.0073 0.67049 0.22689 0.0
C1816 C 0.00932 0.67035 0.19916 0.0
C1817 C 0.99751 0.68512 0.18456 0.0
C1818 C 0.99925 0.68485 0.15847 0.0
C1819 C 0.01282 0.66993 0.14673 0.0
C1820 C 0.02471 0.65527 0.16106 0.0
C1821 C 0.02302 0.65546 0.18716 0.0
H1822 H 0.01414 0.66974 0.12653 0.0
H1823 H 0.99792 0.6833 0.37928 0.0
loop_
_geom_bond_atom_site_label_1
_geom_bond_atom_site_label_2
_geom_bond_distance
_geom_bond_site_symmetry_2
_ccdc_geom_bond_type
Zn0 O3 2.031 . S
Zn0 O5 2.049 . S
Zn0 O10 2.067 . S
Zn1 O2 1.962 . S
Zn1 O4 1.986 . S
Zn1 O6 1.996 . S
Zn1 O9 1.943 . S
O2 Zn1 1.962 . S
O2 C7 1.254 . S
O3 Zn0 2.031 . S
O3 C7 1.269 . S
O4 Zn1 1.986 . S
O4 C11 1.262 . S
O5 Zn0 2.049 . S
O5 C13 1.260 . S
O6 Zn1 1.996 . S
O6 C13 1.257 . S
C7 O2 1.254 . S
C7 O3 1.269 . S
C8 O9 1.249 . S
C8 O10 1.270 . S
O9 Zn1 1.943 . S
O9 C8 1.249 . S
O10 Zn0 2.067 . S
O10 C8 1.270 . S
C11 O4 1.262 . S
C11 O12 1.232 . S
O12 C11 1.232 . S
C13 O5 1.260 . S
C13 O6 1.257 . S
Zn14 O17 2.031 . S
Zn14 O19 2.049 . S
Zn14 O24 2.067 . S
Zn15 O16 1.962 . S
Zn15 O18 1.986 . S
Zn15 O20 1.996 . S
Zn15 O23 1.943 . S
O16 Zn15 1.962 . S
O16 C21 1.254 . S
O17 Zn14 2.031 . S
O17 C21 1.269 . S
O18 Zn15 1.986 . S
O18 C25 1.262 . S
O19 Zn14 2.049 . S
O19 C27 1.260 . S
O20 Zn15 1.996 . S
O20 C27 1.257 . S
C21 O16 1.254 . S
C21 O17 1.269 . S
C22 O23 1.249 . S
C22 O24 1.270 . S
O23 Zn15 1.943 . S
O23 C22 1.249 . S
O24 Zn14 2.067 . S
O24 C22 1.270 . S
C25 O18 1.262 . S
C25 O26 1.232 . S
O26 C25 1.232 . S
C27 O19 1.260 . S
C27 O20 1.257 . S
Zn28 O31 2.031 . S
Zn28 O33 2.049 . S
Zn28 O38 2.067 . S
Zn29 O30 1.962 . S
Zn29 O32 1.986 . S
Zn29 O34 1.996 . S
Zn29 O37 1.943 . S
O30 Zn29 1.962 . S
O30 C35 1.254 . S
O31 Zn28 2.031 . S
O31 C35 1.269 . S
O32 Zn29 1.986 . S
O32 C39 1.262 . S
O33 Zn28 2.049 . S
O33 C41 1.260 . S
O34 Zn29 1.996 . S
O34 C41 1.257 . S
C35 O30 1.254 . S
C35 O31 1.269 . S
C36 O37 1.249 . S
C36 O38 1.270 . S
O37 Zn29 1.943 . S
O37 C36 1.249 . S
O38 Zn28 2.067 . S
O38 C36 1.270 . S
C39 O32 1.262 . S
C39 O40 1.232 . S
O40 C39 1.232 . S
C41 O33 1.260 . S
C41 O34 1.257 . S
Zn42 O45 2.031 . S
Zn42 O47 2.049 . S
Zn42 O52 2.067 . S
Zn43 O44 1.962 . S
Zn43 O46 1.986 . S
Zn43 O48 1.996 . S
Zn43 O51 1.943 . S
O44 Zn43 1.962 . S
O44 C49 1.254 . S
O45 Zn42 2.031 . S
O45 C49 1.269 . S
O46 Zn43 1.986 . S
O46 C53 1.262 . S
O47 Zn42 2.049 . S
O47 C55 1.260 . S
O48 Zn43 1.996 . S
O48 C55 1.257 . S
C49 O44 1.254 . S
C49 O45 1.269 . S
C50 O51 1.249 . S
C50 O52 1.270 . S
O51 Zn43 1.943 . S
O51 C50 1.249 . S
O52 Zn42 2.067 . S
O52 C50 1.270 . S
C53 O46 1.262 . S
C53 O54 1.232 . S
O54 C53 1.232 . S
C55 O47 1.260 . S
C55 O48 1.257 . S
Zn56 O59 2.031 . S
Zn56 O61 2.049 . S
Zn56 O66 2.067 . S
Zn57 O58 1.962 . S
Zn57 O60 1.986 . S
Zn57 O62 1.996 . S
Zn57 O65 1.943 . S
O58 Zn57 1.962 . S
O58 C63 1.254 . S
O59 Zn56 2.031 . S
O59 C63 1.269 . S
O60 Zn57 1.986 . S
O60 C67 1.262 . S
O61 Zn56 2.049 . S
O61 C69 1.260 . S
O62 Zn57 1.996 . S
O62 C69 1.257 . S
C63 O58 1.254 . S
C63 O59 1.269 . S
C64 O65 1.249 . S
C64 O66 1.270 . S
O65 Zn57 1.943 . S
O65 C64 1.249 . S
O66 Zn56 2.067 . S
O66 C64 1.270 . S
C67 O60 1.262 . S
C67 O68 1.232 . S
O68 C67 1.232 . S
C69 O61 1.260 . S
C69 O62 1.257 . S
Zn70 O73 2.031 . S
Zn70 O75 2.049 . S
Zn70 O80 2.067 . S
Zn71 O72 1.962 . S
Zn71 O74 1.986 . S
Zn71 O76 1.996 . S
Zn71 O79 1.943 . S
O72 Zn71 1.962 . S
O72 C77 1.254 . S
O73 Zn70 2.031 . S
O73 C77 1.269 . S
O74 Zn71 1.986 . S
O74 C81 1.262 . S
O75 Zn70 2.049 . S
O75 C83 1.260 . S
O76 Zn71 1.996 . S
O76 C83 1.257 . S
C77 O72 1.254 . S
C77 O73 1.269 . S
C78 O79 1.249 . S
C78 O80 1.270 . S
O79 Zn71 1.943 . S
O79 C78 1.249 . S
O80 Zn70 2.067 . S
O80 C78 1.270 . S
C81 O74 1.262 . S
C81 O82 1.232 . S
O82 C81 1.232 . S
C83 O75 1.260 . S
C83 O76 1.257 . S
Zn84 O87 2.031 . S
Zn84 O89 2.049 . S
Zn84 O94 2.067 . S
Zn85 O86 1.962 . S
Zn85 O88 1.986 . S
Zn85 O90 1.996 . S
Zn85 O93 1.943 . S
O86 Zn85 1.962 . S
O86 C91 1.254 . S
O87 Zn84 2.031 . S
O87 C91 1.269 . S
O88 Zn85 1.986 . S
O88 C95 1.262 . S
O89 Zn84 2.049 . S
O89 C97 1.260 . S
O90 Zn85 1.996 . S
O90 C97 1.257 . S
C91 O86 1.254 . S
C91 O87 1.269 . S
C92 O93 1.249 . S
C92 O94 1.270 . S
O93 Zn85 1.943 . S
O93 C92 1.249 . S
O94 Zn84 2.067 . S
O94 C92 1.270 . S
C95 O88 1.262 . S
C95 O96 1.232 . S
O96 C95 1.232 . S
C97 O89 1.260 . S
C97 O90 1.257 . S
Zn98 O101 2.031 . S
Zn98 O103 2.049 . S
Zn98 O108 2.067 . S
Zn99 O100 1.962 . S
Zn99 O102 1.986 . S
Zn99 O104 1.996 . S
Zn99 O107 1.943 . S
O100 Zn99 1.962 . S
O100 C105 1.254 . S
O101 Zn98 2.031 . S
O101 C105 1.269 . S
O102 Zn99 1.986 . S
O102 C109 1.262 . S
O103 Zn98 2.049 . S
O103 C111 1.260 . S
O104 Zn99 1.996 . S
O104 C111 1.257 . S
C105 O100 1.254 . S
C105 O101 1.269 . S
C106 O107 1.249 . S
C106 O108 1.270 . S
O107 Zn99 1.943 . S
O107 C106 1.249 . S
O108 Zn98 2.067 . S
O108 C106 1.270 . S
C109 O102 1.262 . S
C109 O110 1.232 . S
O110 C109 1.232 . S
C111 O103 1.260 . S
C111 O104 1.257 . S
Zn112 O115 2.031 . S
Zn112 O117 2.049 . S
Zn112 O122 2.067 . S
Zn113 O114 1.962 . S
Zn113 O116 1.986 . S
Zn113 O118 1.996 . S
Zn113 O121 1.943 . S
O114 Zn113 1.962 . S
O114 C119 1.254 . S
O115 Zn112 2.031 . S
O115 C119 1.269 . S
O116 Zn113 1.986 . S
O116 C123 1.262 . S
O117 Zn112 2.049 . S
O117 C125 1.260 . S
O118 Zn113 1.996 . S
O118 C125 1.257 . S
C119 O114 1.254 . S
C119 O115 1.269 . S
C120 O121 1.249 . S
C120 O122 1.270 . S
O121 Zn113 1.943 . S
O121 C120 1.249 . S
O122 Zn112 2.067 . S
O122 C120 1.270 . S
C123 O116 1.262 . S
C123 O124 1.232 . S
O124 C123 1.232 . S
C125 O117 1.260 . S
C125 O118 1.257 . S
Zn126 O129 2.031 . S
Zn126 O131 2.049 . S
Zn126 O136 2.067 . S
Zn127 O128 1.962 . S
Zn127 O130 1.986 . S
Zn127 O132 1.996 . S
Zn127 O135 1.943 . S
O128 Zn127 1.962 . S
O128 C133 1.254 . S
O129 Zn126 2.031 . S
O129 C133 1.269 . S
O130 Zn127 1.986 . S
O130 C137 1.262 . S
O131 Zn126 2.049 . S
O131 C139 1.260 . S
O132 Zn127 1.996 . S
O132 C139 1.257 . S
C133 O128 1.254 . S
C133 O129 1.269 . S
C134 O135 1.249 . S
C134 O136 1.270 . S
O135 Zn127 1.943 . S
O135 C134 1.249 . S
O136 Zn126 2.067 . S
O136 C134 1.270 . S
C137 O130 1.262 . S
C137 O138 1.232 . S
O138 C137 1.232 . S
C139 O131 1.260 . S
C139 O132 1.257 . S
Zn140 O143 2.031 . S
Zn140 O145 2.049 . S
Zn140 O150 2.067 . S
Zn141 O142 1.962 . S
Zn141 O144 1.986 . S
Zn141 O146 1.996 . S
Zn141 O149 1.943 . S
O142 Zn141 1.962 . S
O142 C147 1.254 . S
O143 Zn140 2.031 . S
O143 C147 1.269 . S
O144 Zn141 1.986 . S
O144 C151 1.262 . S
O145 Zn140 2.049 . S
O145 C153 1.260 . S
O146 Zn141 1.996 . S
O146 C153 1.257 . S
C147 O142 1.254 . S
C147 O143 1.269 . S
C148 O149 1.249 . S
C148 O150 1.270 . S
O149 Zn141 1.943 . S
O149 C148 1.249 . S
O150 Zn140 2.067 . S
O150 C148 1.270 . S
C151 O144 1.262 . S
C151 O152 1.232 . S
O152 C151 1.232 . S
C153 O145 1.260 . S
C153 O146 1.257 . S
Zn154 O157 2.031 . S
Zn154 O159 2.049 . S
Zn154 O164 2.067 . S
Zn155 O156 1.962 . S
Zn155 O158 1.986 . S
Zn155 O160 1.996 . S
Zn155 O163 1.943 . S
O156 Zn155 1.962 . S
O156 C161 1.254 . S
O157 Zn154 2.031 . S
O157 C161 1.269 . S
O158 Zn155 1.986 . S
O158 C165 1.262 . S
O159 Zn154 2.049 . S
O159 C167 1.260 . S
O160 Zn155 1.996 . S
O160 C167 1.257 . S
C161 O156 1.254 . S
C161 O157 1.269 . S
C162 O163 1.249 . S
C162 O164 1.270 . S
O163 Zn155 1.943 . S
O163 C162 1.249 . S
O164 Zn154 2.067 . S
O164 C162 1.270 . S
C165 O158 1.262 . S
C165 O166 1.232 . S
O166 C165 1.232 . S
C167 O159 1.260 . S
C167 O160 1.257 . S
Zn168 O171 2.031 . S
Zn168 O173 2.049 . S
Zn168 O178 2.067 . S
Zn169 O170 1.962 . S
Zn169 O172 1.986 . S
Zn169 O174 1.996 . S
Zn169 O177 1.943 . S
O170 Zn169 1.962 . S
O170 C175 1.254 . S
O171 Zn168 2.031 . S
O171 C175 1.269 . S
O172 Zn169 1.986 . S
O172 C179 1.262 . S
O173 Zn168 2.049 . S
O173 C181 1.260 . S
O174 Zn169 1.996 . S
O174 C181 1.257 . S
C175 O170 1.254 . S
C175 O171 1.269 . S
C176 O177 1.249 . S
C176 O178 1.270 . S
O177 Zn169 1.943 . S
O177 C176 1.249 . S
O178 Zn168 2.067 . S
O178 C176 1.270 . S
C179 O172 1.262 . S
C179 O180 1.232 . S
O180 C179 1.232 . S
C181 O173 1.260 . S
C181 O174 1.257 . S
Zn182 O185 2.031 . S
Zn182 O187 2.049 . S
Zn182 O192 2.067 . S
Zn183 O184 1.962 . S
Zn183 O186 1.986 . S
Zn183 O188 1.996 . S
Zn183 O191 1.943 . S
O184 Zn183 1.962 . S
O184 C189 1.254 . S
O185 Zn182 2.031 . S
O185 C189 1.269 . S
O186 Zn183 1.986 . S
O186 C193 1.262 . S
O187 Zn182 2.049 . S
O187 C195 1.260 . S
O188 Zn183 1.996 . S
O188 C195 1.257 . S
C189 O184 1.254 . S
C189 O185 1.269 . S
C190 O191 1.249 . S
C190 O192 1.270 . S
O191 Zn183 1.943 . S
O191 C190 1.249 . S
O192 Zn182 2.067 . S
O192 C190 1.270 . S
C193 O186 1.262 . S
C193 O194 1.232 . S
O194 C193 1.232 . S
C195 O187 1.260 . S
C195 O188 1.257 . S
Zn196 O199 2.031 . S
Zn196 O201 2.049 . S
Zn196 O206 2.067 . S
Zn197 O198 1.962 . S
Zn197 O200 1.986 . S
Zn197 O202 1.996 . S
Zn197 O205 1.943 . S
O198 Zn197 1.962 . S
O198 C203 1.254 . S
O199 Zn196 2.031 . S
O199 C203 1.269 . S
O200 Zn197 1.986 . S
O200 C207 1.262 . S
O201 Zn196 2.049 . S
O201 C209 1.260 . S
O202 Zn197 1.996 . S
O202 C209 1.257 . S
C203 O198 1.254 . S
C203 O199 1.269 . S
C204 O205 1.249 . S
C204 O206 1.270 . S
O205 Zn197 1.943 . S
O205 C204 1.249 . S
O206 Zn196 2.067 . S
O206 C204 1.270 . S
C207 O200 1.262 . S
C207 O208 1.232 . S
O208 C207 1.232 . S
C209 O201 1.260 . S
C209 O202 1.257 . S
Zn210 O213 2.031 . S
Zn210 O215 2.049 . S
Zn210 O220 2.067 . S
Zn211 O212 1.962 . S
Zn211 O214 1.986 . S
Zn211 O216 1.996 . S
Zn211 O219 1.943 . S
O212 Zn211 1.962 . S
O212 C217 1.254 . S
O213 Zn210 2.031 . S
O213 C217 1.269 . S
O214 Zn211 1.986 . S
O214 C221 1.262 . S
O215 Zn210 2.049 . S
O215 C223 1.260 . S
O216 Zn211 1.996 . S
O216 C223 1.257 . S
C217 O212 1.254 . S
C217 O213 1.269 . S
C218 O219 1.249 . S
C218 O220 1.270 . S
O219 Zn211 1.943 . S
O219 C218 1.249 . S
O220 Zn210 2.067 . S
O220 C218 1.270 . S
C221 O214 1.262 . S
C221 O222 1.232 . S
O222 C221 1.232 . S
C223 O215 1.260 . S
C223 O216 1.257 . S
H224 C242 0.951 . S
H225 C244 0.951 . S
H226 C246 0.950 . S
H227 C247 0.950 . S
H228 C249 0.950 . S
H229 C252 0.950 . S
H230 C253 0.950 . S
H231 C255 0.950 . S
H232 C256 0.950 . S
H233 C257 0.951 . S
H234 C259 0.951 . S
H235 C261 0.950 . S
H236 C262 0.950 . S
H237 C264 0.950 . S
H238 C267 0.950 . S
H239 C268 0.950 . S
H240 C270 0.950 . S
H241 C271 0.950 . S
C242 H224 0.951 . S
C242 C243 1.366 . S
C242 C244 1.388 . S
C243 C242 1.366 . S
C243 C247 1.385 . S
C244 H225 0.951 . S
C244 C242 1.388 . S
C244 C245 1.366 . S
C245 C244 1.366 . S
C245 C246 1.414 . S
C245 C248 1.499 . S
C246 H226 0.950 . S
C246 C245 1.414 . S
C246 C247 1.374 . S
C247 H227 0.950 . S
C247 C243 1.385 . S
C247 C246 1.374 . S
C248 C245 1.499 . S
C248 C249 1.373 . S
C248 C250 1.389 . S
C249 H228 0.950 . S
C249 C248 1.373 . S
C249 C265 1.377 . S
C250 C248 1.389 . S
C250 C251 1.524 . S
C250 C264 1.377 . S
C251 C250 1.524 . S
C251 C252 1.397 . S
C251 C256 1.363 . S
C252 H229 0.950 . S
C252 C251 1.397 . S
C252 C253 1.334 . S
C253 H230 0.950 . S
C253 C252 1.334 . S
C253 C254 1.287 . S
C254 C253 1.287 . S
C254 C255 1.524 . S
C254 H273 0.913 . S
C255 H231 0.950 . S
C255 C254 1.524 . S
C255 C256 1.415 . S
C256 H232 0.950 . S
C256 C251 1.363 . S
C256 C255 1.415 . S
C257 H233 0.951 . S
C257 C258 1.366 . S
C257 C259 1.388 . S
C258 C257 1.366 . S
C258 C262 1.385 . S
C259 H234 0.951 . S
C259 C257 1.388 . S
C259 C260 1.366 . S
C260 C259 1.366 . S
C260 C261 1.414 . S
C260 C263 1.499 . S
C261 H235 0.950 . S
C261 C260 1.414 . S
C261 C262 1.374 . S
C262 H236 0.950 . S
C262 C258 1.385 . S
C262 C261 1.374 . S
C263 C260 1.499 . S
C263 C264 1.373 . S
C263 C265 1.389 . S
C264 H237 0.950 . S
C264 C250 1.377 . S
C264 C263 1.373 . S
C265 C249 1.377 . S
C265 C263 1.389 . S
C265 C266 1.524 . S
C266 C265 1.524 . S
C266 C267 1.397 . S
C266 C271 1.363 . S
C267 H238 0.950 . S
C267 C266 1.397 . S
C267 C268 1.334 . S
C268 H239 0.950 . S
C268 C267 1.334 . S
C268 C269 1.287 . S
C269 C268 1.287 . S
C269 C270 1.524 . S
C269 H272 0.999 . S
C270 H240 0.950 . S
C270 C269 1.524 . S
C270 C271 1.415 . S
C271 H241 0.950 . S
C271 C266 1.363 . S
C271 C270 1.415 . S
H272 C269 0.999 . S
H273 C254 0.913 . S
H274 C292 0.951 . S
H275 C294 0.951 . S
H276 C296 0.950 . S
H277 C297 0.950 . S
H278 C299 0.950 . S
H279 C302 0.950 . S
H280 C303 0.950 . S
H281 C305 0.950 . S
H282 C306 0.950 . S
H283 C307 0.951 . S
H284 C309 0.951 . S
H285 C311 0.950 . S
H286 C312 0.950 . S
H287 C314 0.950 . S
H288 C317 0.950 . S
H289 C318 0.950 . S
H290 C320 0.950 . S
H291 C321 0.950 . S
C292 H274 0.951 . S
C292 C293 1.366 . S
C292 C294 1.388 . S
C293 C292 1.366 . S
C293 C297 1.385 . S
C294 H275 0.951 . S
C294 C292 1.388 . S
C294 C295 1.366 . S
C295 C294 1.366 . S
C295 C296 1.414 . S
C295 C298 1.499 . S
C296 H276 0.950 . S
C296 C295 1.414 . S
C296 C297 1.374 . S
C297 H277 0.950 . S
C297 C293 1.385 . S
C297 C296 1.374 . S
C298 C295 1.499 . S
C298 C299 1.373 . S
C298 C300 1.389 . S
C299 H278 0.950 . S
C299 C298 1.373 . S
C299 C315 1.377 . S
C300 C298 1.389 . S
C300 C301 1.524 . S
C300 C314 1.377 . S
C301 C300 1.524 . S
C301 C302 1.397 . S
C301 C306 1.363 . S
C302 H279 0.950 . S
C302 C301 1.397 . S
C302 C303 1.334 . S
C303 H280 0.950 . S
C303 C302 1.334 . S
C303 C304 1.287 . S
C304 C303 1.287 . S
C304 C305 1.524 . S
C304 H323 0.913 . S
C305 H281 0.950 . S
C305 C304 1.524 . S
C305 C306 1.415 . S
C306 H282 0.950 . S
C306 C301 1.363 . S
C306 C305 1.415 . S
C307 H283 0.951 . S
C307 C308 1.366 . S
C307 C309 1.388 . S
C308 C307 1.366 . S
C308 C312 1.385 . S
C309 H284 0.951 . S
C309 C307 1.388 . S
C309 C310 1.366 . S
C310 C309 1.366 . S
C310 C311 1.414 . S
C310 C313 1.499 . S
C311 H285 0.950 . S
C311 C310 1.414 . S
C311 C312 1.374 . S
C312 H286 0.950 . S
C312 C308 1.385 . S
C312 C311 1.374 . S
C313 C310 1.499 . S
C313 C314 1.373 . S
C313 C315 1.389 . S
C314 H287 0.950 . S
C314 C300 1.377 . S
C314 C313 1.373 . S
C315 C299 1.377 . S
C315 C313 1.389 . S
C315 C316 1.524 . S
C316 C315 1.524 . S
C316 C317 1.397 . S
C316 C321 1.363 . S
C317 H288 0.950 . S
C317 C316 1.397 . S
C317 C318 1.334 . S
C318 H289 0.950 . S
C318 C317 1.334 . S
C318 C319 1.287 . S
C319 C318 1.287 . S
C319 C320 1.524 . S
C319 H322 0.999 . S
C320 H290 0.950 . S
C320 C319 1.524 . S
C320 C321 1.415 . S
C321 H291 0.950 . S
C321 C316 1.363 . S
C321 C320 1.415 . S
H322 C319 0.999 . S
H323 C304 0.913 . S
H324 C342 0.951 . S
H325 C344 0.951 . S
H326 C346 0.950 . S
H327 C347 0.950 . S
H328 C349 0.950 . S
H329 C352 0.950 . S
H330 C353 0.950 . S
H331 C355 0.950 . S
H332 C356 0.950 . S
H333 C357 0.951 . S
H334 C359 0.951 . S
H335 C361 0.950 . S
H336 C362 0.950 . S
H337 C364 0.950 . S
H338 C367 0.950 . S
H339 C368 0.950 . S
H340 C370 0.950 . S
H341 C371 0.950 . S
C342 H324 0.951 . S
C342 C343 1.366 . S
C342 C344 1.388 . S
C343 C342 1.366 . S
C343 C347 1.385 . S
C344 H325 0.951 . S
C344 C342 1.388 . S
C344 C345 1.366 . S
C345 C344 1.366 . S
C345 C346 1.414 . S
C345 C348 1.499 . S
C346 H326 0.950 . S
C346 C345 1.414 . S
C346 C347 1.374 . S
C347 H327 0.950 . S
C347 C343 1.385 . S
C347 C346 1.374 . S
C348 C345 1.499 . S
C348 C349 1.373 . S
C348 C350 1.389 . S
C349 H328 0.950 . S
C349 C348 1.373 . S
C349 C365 1.377 . S
C350 C348 1.389 . S
C350 C351 1.524 . S
C350 C364 1.377 . S
C351 C350 1.524 . S
C351 C352 1.397 . S
C351 C356 1.363 . S
C352 H329 0.950 . S
C352 C351 1.397 . S
C352 C353 1.334 . S
C353 H330 0.950 . S
C353 C352 1.334 . S
C353 C354 1.287 . S
C354 C353 1.287 . S
C354 C355 1.524 . S
C354 H373 0.913 . S
C355 H331 0.950 . S
C355 C354 1.524 . S
C355 C356 1.415 . S
C356 H332 0.950 . S
C356 C351 1.363 . S
C356 C355 1.415 . S
C357 H333 0.951 . S
C357 C358 1.366 . S
C357 C359 1.388 . S
C358 C357 1.366 . S
C358 C362 1.385 . S
C359 H334 0.951 . S
C359 C357 1.388 . S
C359 C360 1.366 . S
C360 C359 1.366 . S
C360 C361 1.414 . S
C360 C363 1.499 . S
C361 H335 0.950 . S
C361 C360 1.414 . S
C361 C362 1.374 . S
C362 H336 0.950 . S
C362 C358 1.385 . S
C362 C361 1.374 . S
C363 C360 1.499 . S
C363 C364 1.373 . S
C363 C365 1.389 . S
C364 H337 0.950 . S
C364 C350 1.377 . S
C364 C363 1.373 . S
C365 C349 1.377 . S
C365 C363 1.389 . S
C365 C366 1.524 . S
C366 C365 1.524 . S
C366 C367 1.397 . S
C366 C371 1.363 . S
C367 H338 0.950 . S
C367 C366 1.397 . S
C367 C368 1.334 . S
C368 H339 0.950 . S
C368 C367 1.334 . S
C368 C369 1.287 . S
C369 C368 1.287 . S
C369 C370 1.524 . S
C369 H372 0.999 . S
C370 H340 0.950 . S
C370 C369 1.524 . S
C370 C371 1.415 . S
C371 H341 0.950 . S
C371 C366 1.363 . S
C371 C370 1.415 . S
H372 C369 0.999 . S
H373 C354 0.913 . S
H374 C392 0.951 . S
H375 C394 0.951 . S
H376 C396 0.950 . S
H377 C397 0.950 . S
H378 C399 0.950 . S
H379 C402 0.950 . S
H380 C403 0.950 . S
H381 C405 0.950 . S
H382 C406 0.950 . S
H383 C407 0.951 . S
H384 C409 0.951 . S
H385 C411 0.950 . S
H386 C412 0.950 . S
H387 C414 0.950 . S
H388 C417 0.950 . S
H389 C418 0.950 . S
H390 C420 0.950 . S
H391 C421 0.950 . S
C392 H374 0.951 . S
C392 C393 1.366 . S
C392 C394 1.388 . S
C393 C392 1.366 . S
C393 C397 1.385 . S
C394 H375 0.951 . S
C394 C392 1.388 . S
C394 C395 1.366 . S
C395 C394 1.366 . S
C395 C396 1.414 . S
C395 C398 1.499 . S
C396 H376 0.950 . S
C396 C395 1.414 . S
C396 C397 1.374 . S
C397 H377 0.950 . S
C397 C393 1.385 . S
C397 C396 1.374 . S
C398 C395 1.499 . S
C398 C399 1.373 . S
C398 C400 1.389 . S
C399 H378 0.950 . S
C399 C398 1.373 . S
C399 C415 1.377 . S
C400 C398 1.389 . S
C400 C401 1.524 . S
C400 C414 1.377 . S
C401 C400 1.524 . S
C401 C402 1.397 . S
C401 C406 1.363 . S
C402 H379 0.950 . S
C402 C401 1.397 . S
C402 C403 1.334 . S
C403 H380 0.950 . S
C403 C402 1.334 . S
C403 C404 1.287 . S
C404 C403 1.287 . S
C404 C405 1.524 . S
C404 H423 0.913 . S
C405 H381 0.950 . S
C405 C404 1.524 . S
C405 C406 1.415 . S
C406 H382 0.950 . S
C406 C401 1.363 . S
C406 C405 1.415 . S
C407 H383 0.951 . S
C407 C408 1.366 . S
C407 C409 1.388 . S
C408 C407 1.366 . S
C408 C412 1.385 . S
C409 H384 0.951 . S
C409 C407 1.388 . S
C409 C410 1.366 . S
C410 C409 1.366 . S
C410 C411 1.414 . S
C410 C413 1.499 . S
C411 H385 0.950 . S
C411 C410 1.414 . S
C411 C412 1.374 . S
C412 H386 0.950 . S
C412 C408 1.385 . S
C412 C411 1.374 . S
C413 C410 1.499 . S
C413 C414 1.373 . S
C413 C415 1.389 . S
C414 H387 0.950 . S
C414 C400 1.377 . S
C414 C413 1.373 . S
C415 C399 1.377 . S
C415 C413 1.389 . S
C415 C416 1.524 . S
C416 C415 1.524 . S
C416 C417 1.397 . S
C416 C421 1.363 . S
C417 H388 0.950 . S
C417 C416 1.397 . S
C417 C418 1.334 . S
C418 H389 0.950 . S
C418 C417 1.334 . S
C418 C419 1.287 . S
C419 C418 1.287 . S
C419 C420 1.524 . S
C419 H422 0.999 . S
C420 H390 0.950 . S
C420 C419 1.524 . S
C420 C421 1.415 . S
C421 H391 0.950 . S
C421 C416 1.363 . S
C421 C420 1.415 . S
H422 C419 0.999 . S
H423 C404 0.913 . S
H424 C442 0.951 . S
H425 C444 0.951 . S
H426 C446 0.950 . S
H427 C447 0.950 . S
H428 C449 0.950 . S
H429 C452 0.950 . S
H430 C453 0.950 . S
H431 C455 0.950 . S
H432 C456 0.950 . S
H433 C457 0.951 . S
H434 C459 0.951 . S
H435 C461 0.950 . S
H436 C462 0.950 . S
H437 C464 0.950 . S
H438 C467 0.950 . S
H439 C468 0.950 . S
H440 C470 0.950 . S
H441 C471 0.950 . S
C442 H424 0.951 . S
C442 C443 1.366 . S
C442 C444 1.388 . S
C443 C442 1.366 . S
C443 C447 1.385 . S
C444 H425 0.951 . S
C444 C442 1.388 . S
C444 C445 1.366 . S
C445 C444 1.366 . S
C445 C446 1.414 . S
C445 C448 1.499 . S
C446 H426 0.950 . S
C446 C445 1.414 . S
C446 C447 1.374 . S
C447 H427 0.950 . S
C447 C443 1.385 . S
C447 C446 1.374 . S
C448 C445 1.499 . S
C448 C449 1.373 . S
C448 C450 1.389 . S
C449 H428 0.950 . S
C449 C448 1.373 . S
C449 C465 1.377 . S
C450 C448 1.389 . S
C450 C451 1.524 . S
C450 C464 1.377 . S
C451 C450 1.524 . S
C451 C452 1.397 . S
C451 C456 1.363 . S
C452 H429 0.950 . S
C452 C451 1.397 . S
C452 C453 1.334 . S
C453 H430 0.950 . S
C453 C452 1.334 . S
C453 C454 1.287 . S
C454 C453 1.287 . S
C454 C455 1.524 . S
C454 H473 0.913 . S
C455 H431 0.950 . S
C455 C454 1.524 . S
C455 C456 1.415 . S
C456 H432 0.950 . S
C456 C451 1.363 . S
C456 C455 1.415 . S
C457 H433 0.951 . S
C457 C458 1.366 . S
C457 C459 1.388 . S
C458 C457 1.366 . S
C458 C462 1.385 . S
C459 H434 0.951 . S
C459 C457 1.388 . S
C459 C460 1.366 . S
C460 C459 1.366 . S
C460 C461 1.414 . S
C460 C463 1.499 . S
C461 H435 0.950 . S
C461 C460 1.414 . S
C461 C462 1.374 . S
C462 H436 0.950 . S
C462 C458 1.385 . S
C462 C461 1.374 . S
C463 C460 1.499 . S
C463 C464 1.373 . S
C463 C465 1.389 . S
C464 H437 0.950 . S
C464 C450 1.377 . S
C464 C463 1.373 . S
C465 C449 1.377 . S
C465 C463 1.389 . S
C465 C466 1.524 . S
C466 C465 1.524 . S
C466 C467 1.397 . S
C466 C471 1.363 . S
C467 H438 0.950 . S
C467 C466 1.397 . S
C467 C468 1.334 . S
C468 H439 0.950 . S
C468 C467 1.334 . S
C468 C469 1.287 . S
C469 C468 1.287 . S
C469 C470 1.524 . S
C469 H472 0.999 . S
C470 H440 0.950 . S
C470 C469 1.524 . S
C470 C471 1.415 . S
C471 H441 0.950 . S
C471 C466 1.363 . S
C471 C470 1.415 . S
H472 C469 0.999 . S
H473 C454 0.913 . S
H474 C492 0.951 . S
H475 C494 0.951 . S
H476 C496 0.950 . S
H477 C497 0.950 . S
H478 C499 0.950 . S
H479 C502 0.950 . S
H480 C503 0.950 . S
H481 C505 0.950 . S
H482 C506 0.950 . S
H483 C507 0.951 . S
H484 C509 0.951 . S
H485 C511 0.950 . S
H486 C512 0.950 . S
H487 C514 0.950 . S
H488 C517 0.950 . S
H489 C518 0.950 . S
H490 C520 0.950 . S
H491 C521 0.950 . S
C492 H474 0.951 . S
C492 C493 1.366 . S
C492 C494 1.388 . S
C493 C492 1.366 . S
C493 C497 1.385 . S
C494 H475 0.951 . S
C494 C492 1.388 . S
C494 C495 1.366 . S
C495 C494 1.366 . S
C495 C496 1.414 . S
C495 C498 1.499 . S
C496 H476 0.950 . S
C496 C495 1.414 . S
C496 C497 1.374 . S
C497 H477 0.950 . S
C497 C493 1.385 . S
C497 C496 1.374 . S
C498 C495 1.499 . S
C498 C499 1.373 . S
C498 C500 1.389 . S
C499 H478 0.950 . S
C499 C498 1.373 . S
C499 C515 1.377 . S
C500 C498 1.389 . S
C500 C501 1.524 . S
C500 C514 1.377 . S
C501 C500 1.524 . S
C501 C502 1.397 . S
C501 C506 1.363 . S
C502 H479 0.950 . S
C502 C501 1.397 . S
C502 C503 1.334 . S
C503 H480 0.950 . S
C503 C502 1.334 . S
C503 C504 1.287 . S
C504 C503 1.287 . S
C504 C505 1.524 . S
C504 H523 0.913 . S
C505 H481 0.950 . S
C505 C504 1.524 . S
C505 C506 1.415 . S
C506 H482 0.950 . S
C506 C501 1.363 . S
C506 C505 1.415 . S
C507 H483 0.951 . S
C507 C508 1.366 . S
C507 C509 1.388 . S
C508 C507 1.366 . S
C508 C512 1.385 . S
C509 H484 0.951 . S
C509 C507 1.388 . S
C509 C510 1.366 . S
C510 C509 1.366 . S
C510 C511 1.414 . S
C510 C513 1.499 . S
C511 H485 0.950 . S
C511 C510 1.414 . S
C511 C512 1.374 . S
C512 H486 0.950 . S
C512 C508 1.385 . S
C512 C511 1.374 . S
C513 C510 1.499 . S
C513 C514 1.373 . S
C513 C515 1.389 . S
C514 H487 0.950 . S
C514 C500 1.377 . S
C514 C513 1.373 . S
C515 C499 1.377 . S
C515 C513 1.389 . S
C515 C516 1.524 . S
C516 C515 1.524 . S
C516 C517 1.397 . S
C516 C521 1.363 . S
C517 H488 0.950 . S
C517 C516 1.397 . S
C517 C518 1.334 . S
C518 H489 0.950 . S
C518 C517 1.334 . S
C518 C519 1.287 . S
C519 C518 1.287 . S
C519 C520 1.524 . S
C519 H522 0.999 . S
C520 H490 0.950 . S
C520 C519 1.524 . S
C520 C521 1.415 . S
C521 H491 0.950 . S
C521 C516 1.363 . S
C521 C520 1.415 . S
H522 C519 0.999 . S
H523 C504 0.913 . S
H524 C542 0.951 . S
H525 C544 0.951 . S
H526 C546 0.950 . S
H527 C547 0.950 . S
H528 C549 0.950 . S
H529 C552 0.950 . S
H530 C553 0.950 . S
H531 C555 0.950 . S
H532 C556 0.950 . S
H533 C557 0.951 . S
H534 C559 0.951 . S
H535 C561 0.950 . S
H536 C562 0.950 . S
H537 C564 0.950 . S
H538 C567 0.950 . S
H539 C568 0.950 . S
H540 C570 0.950 . S
H541 C571 0.950 . S
C542 H524 0.951 . S
C542 C543 1.366 . S
C542 C544 1.388 . S
C543 C542 1.366 . S
C543 C547 1.385 . S
C544 H525 0.951 . S
C544 C542 1.388 . S
C544 C545 1.366 . S
C545 C544 1.366 . S
C545 C546 1.414 . S
C545 C548 1.499 . S
C546 H526 0.950 . S
C546 C545 1.414 . S
C546 C547 1.374 . S
C547 H527 0.950 . S
C547 C543 1.385 . S
C547 C546 1.374 . S
C548 C545 1.499 . S
C548 C549 1.373 . S
C548 C550 1.389 . S
C549 H528 0.950 . S
C549 C548 1.373 . S
C549 C565 1.377 . S
C550 C548 1.389 . S
C550 C551 1.524 . S
C550 C564 1.377 . S
C551 C550 1.524 . S
C551 C552 1.397 . S
C551 C556 1.363 . S
C552 H529 0.950 . S
C552 C551 1.397 . S
C552 C553 1.334 . S
C553 H530 0.950 . S
C553 C552 1.334 . S
C553 C554 1.287 . S
C554 C553 1.287 . S
C554 C555 1.524 . S
C554 H573 0.913 . S
C555 H531 0.950 . S
C555 C554 1.524 . S
C555 C556 1.415 . S
C556 H532 0.950 . S
C556 C551 1.363 . S
C556 C555 1.415 . S
C557 H533 0.951 . S
C557 C558 1.366 . S
C557 C559 1.388 . S
C558 C557 1.366 . S
C558 C562 1.385 . S
C559 H534 0.951 . S
C559 C557 1.388 . S
C559 C560 1.366 . S
C560 C559 1.366 . S
C560 C561 1.414 . S
C560 C563 1.499 . S
C561 H535 0.950 . S
C561 C560 1.414 . S
C561 C562 1.374 . S
C562 H536 0.950 . S
C562 C558 1.385 . S
C562 C561 1.374 . S
C563 C560 1.499 . S
C563 C564 1.373 . S
C563 C565 1.389 . S
C564 H537 0.950 . S
C564 C550 1.377 . S
C564 C563 1.373 . S
C565 C549 1.377 . S
C565 C563 1.389 . S
C565 C566 1.524 . S
C566 C565 1.524 . S
C566 C567 1.397 . S
C566 C571 1.363 . S
C567 H538 0.950 . S
C567 C566 1.397 . S
C567 C568 1.334 . S
C568 H539 0.950 . S
C568 C567 1.334 . S
C568 C569 1.287 . S
C569 C568 1.287 . S
C569 C570 1.524 . S
C569 H572 0.999 . S
C570 H540 0.950 . S
C570 C569 1.524 . S
C570 C571 1.415 . S
C571 H541 0.950 . S
C571 C566 1.363 . S
C571 C570 1.415 . S
H572 C569 0.999 . S
H573 C554 0.913 . S
H574 C592 0.951 . S
H575 C594 0.951 . S
H576 C596 0.950 . S
H577 C597 0.950 . S
H578 C599 0.950 . S
H579 C602 0.950 . S
H580 C603 0.950 . S
H581 C605 0.950 . S
H582 C606 0.950 . S
H583 C607 0.951 . S
H584 C609 0.951 . S
H585 C611 0.950 . S
H586 C612 0.950 . S
H587 C614 0.950 . S
H588 C617 0.950 . S
H589 C618 0.950 . S
H590 C620 0.950 . S
H591 C621 0.950 . S
C592 H574 0.951 . S
C592 C593 1.366 . S
C592 C594 1.388 . S
C593 C592 1.366 . S
C593 C597 1.385 . S
C594 H575 0.951 . S
C594 C592 1.388 . S
C594 C595 1.366 . S
C595 C594 1.366 . S
C595 C596 1.414 . S
C595 C598 1.499 . S
C596 H576 0.950 . S
C596 C595 1.414 . S
C596 C597 1.374 . S
C597 H577 0.950 . S
C597 C593 1.385 . S
C597 C596 1.374 . S
C598 C595 1.499 . S
C598 C599 1.373 . S
C598 C600 1.389 . S
C599 H578 0.950 . S
C599 C598 1.373 . S
C599 C615 1.377 . S
C600 C598 1.389 . S
C600 C601 1.524 . S
C600 C614 1.377 . S
C601 C600 1.524 . S
C601 C602 1.397 . S
C601 C606 1.363 . S
C602 H579 0.950 . S
C602 C601 1.397 . S
C602 C603 1.334 . S
C603 H580 0.950 . S
C603 C602 1.334 . S
C603 C604 1.287 . S
C604 C603 1.287 . S
C604 C605 1.524 . S
C604 H623 0.913 . S
C605 H581 0.950 . S
C605 C604 1.524 . S
C605 C606 1.415 . S
C606 H582 0.950 . S
C606 C601 1.363 . S
C606 C605 1.415 . S
C607 H583 0.951 . S
C607 C608 1.366 . S
C607 C609 1.388 . S
C608 C607 1.366 . S
C608 C612 1.385 . S
C609 H584 0.951 . S
C609 C607 1.388 . S
C609 C610 1.366 . S
C610 C609 1.366 . S
C610 C611 1.414 . S
C610 C613 1.499 . S
C611 H585 0.950 . S
C611 C610 1.414 . S
C611 C612 1.374 . S
C612 H586 0.950 . S
C612 C608 1.385 . S
C612 C611 1.374 . S
C613 C610 1.499 . S
C613 C614 1.373 . S
C613 C615 1.389 . S
C614 H587 0.950 . S
C614 C600 1.377 . S
C614 C613 1.373 . S
C615 C599 1.377 . S
C615 C613 1.389 . S
C615 C616 1.524 . S
C616 C615 1.524 . S
C616 C617 1.397 . S
C616 C621 1.363 . S
C617 H588 0.950 . S
C617 C616 1.397 . S
C617 C618 1.334 . S
C618 H589 0.950 . S
C618 C617 1.334 . S
C618 C619 1.287 . S
C619 C618 1.287 . S
C619 C620 1.524 . S
C619 H622 0.999 . S
C620 H590 0.950 . S
C620 C619 1.524 . S
C620 C621 1.415 . S
C621 H591 0.950 . S
C621 C616 1.363 . S
C621 C620 1.415 . S
H622 C619 0.999 . S
H623 C604 0.913 . S
H624 C642 0.951 . S
H625 C644 0.951 . S
H626 C646 0.950 . S
H627 C647 0.950 . S
H628 C649 0.950 . S
H629 C652 0.950 . S
H630 C653 0.950 . S
H631 C655 0.950 . S
H632 C656 0.950 . S
H633 C657 0.951 . S
H634 C659 0.951 . S
H635 C661 0.950 . S
H636 C662 0.950 . S
H637 C664 0.950 . S
H638 C667 0.950 . S
H639 C668 0.950 . S
H640 C670 0.950 . S
H641 C671 0.950 . S
C642 H624 0.951 . S
C642 C643 1.366 . S
C642 C644 1.388 . S
C643 C642 1.366 . S
C643 C647 1.385 . S
C644 H625 0.951 . S
C644 C642 1.388 . S
C644 C645 1.366 . S
C645 C644 1.366 . S
C645 C646 1.414 . S
C645 C648 1.499 . S
C646 H626 0.950 . S
C646 C645 1.414 . S
C646 C647 1.374 . S
C647 H627 0.950 . S
C647 C643 1.385 . S
C647 C646 1.374 . S
C648 C645 1.499 . S
C648 C649 1.373 . S
C648 C650 1.389 . S
C649 H628 0.950 . S
C649 C648 1.373 . S
C649 C665 1.377 1_556 S
C650 C648 1.389 . S
C650 C651 1.524 . S
C650 C664 1.377 1_556 S
C651 C650 1.524 . S
C651 C652 1.397 . S
C651 C656 1.363 . S
C652 H629 0.950 . S
C652 C651 1.397 . S
C652 C653 1.334 . S
C653 H630 0.950 . S
C653 C652 1.334 . S
C653 C654 1.287 . S
C654 C653 1.287 . S
C654 C655 1.524 . S
C654 H673 0.913 . S
C655 H631 0.950 . S
C655 C654 1.524 . S
C655 C656 1.415 . S
C656 H632 0.950 . S
C656 C651 1.363 . S
C656 C655 1.415 . S
C657 H633 0.951 . S
C657 C658 1.366 . S
C657 C659 1.388 . S
C658 C657 1.366 . S
C658 C662 1.385 . S
C659 H634 0.951 . S
C659 C657 1.388 . S
C659 C660 1.366 . S
C660 C659 1.366 . S
C660 C661 1.414 . S
C660 C663 1.499 . S
C661 H635 0.950 . S
C661 C660 1.414 . S
C661 C662 1.374 . S
C662 H636 0.950 . S
C662 C658 1.385 . S
C662 C661 1.374 . S
C663 C660 1.499 . S
C663 C664 1.373 . S
C663 C665 1.389 . S
C664 H637 0.950 . S
C664 C650 1.377 1_554 S
C664 C663 1.373 . S
C665 C649 1.377 1_554 S
C665 C663 1.389 . S
C665 C666 1.524 . S
C666 C665 1.524 . S
C666 C667 1.397 . S
C666 C671 1.363 . S
C667 H638 0.950 . S
C667 C666 1.397 . S
C667 C668 1.334 . S
C668 H639 0.950 . S
C668 C667 1.334 . S
C668 C669 1.287 . S
C669 C668 1.287 . S
C669 C670 1.524 . S
C669 H672 0.999 . S
C670 H640 0.950 . S
C670 C669 1.524 . S
C670 C671 1.415 . S
C671 H641 0.950 . S
C671 C666 1.363 . S
C671 C670 1.415 . S
H672 C669 0.999 . S
H673 C654 0.913 . S
H674 C692 0.951 . S
H675 C694 0.951 . S
H676 C696 0.950 . S
H677 C697 0.950 . S
H678 C699 0.950 . S
H679 C702 0.950 . S
H680 C703 0.950 . S
H681 C705 0.950 . S
H682 C706 0.950 . S
H683 C707 0.951 . S
H684 C709 0.951 . S
H685 C711 0.950 . S
H686 C712 0.950 . S
H687 C714 0.950 . S
H688 C717 0.950 . S
H689 C718 0.950 . S
H690 C720 0.950 . S
H691 C721 0.950 . S
C692 H674 0.951 . S
C692 C693 1.366 . S
C692 C694 1.388 . S
C693 C692 1.366 . S
C693 C697 1.385 . S
C694 H675 0.951 . S
C694 C692 1.388 . S
C694 C695 1.366 . S
C695 C694 1.366 . S
C695 C696 1.414 . S
C695 C698 1.499 . S
C696 H676 0.950 . S
C696 C695 1.414 . S
C696 C697 1.374 . S
C697 H677 0.950 . S
C697 C693 1.385 . S
C697 C696 1.374 . S
C698 C695 1.499 . S
C698 C699 1.373 . S
C698 C700 1.389 . S
C699 H678 0.950 . S
C699 C698 1.373 . S
C699 C715 1.377 1_556 S
C700 C698 1.389 . S
C700 C701 1.524 . S
C700 C714 1.377 1_556 S
C701 C700 1.524 . S
C701 C702 1.397 . S
C701 C706 1.363 . S
C702 H679 0.950 . S
C702 C701 1.397 . S
C702 C703 1.334 . S
C703 H680 0.950 . S
C703 C702 1.334 . S
C703 C704 1.287 . S
C704 C703 1.287 . S
C704 C705 1.524 . S
C704 H723 0.913 . S
C705 H681 0.950 . S
C705 C704 1.524 . S
C705 C706 1.415 . S
C706 H682 0.950 . S
C706 C701 1.363 . S
C706 C705 1.415 . S
C707 H683 0.951 . S
C707 C708 1.366 . S
C707 C709 1.388 . S
C708 C707 1.366 . S
C708 C712 1.385 . S
C709 H684 0.951 . S
C709 C707 1.388 . S
C709 C710 1.366 . S
C710 C709 1.366 . S
C710 C711 1.414 . S
C710 C713 1.499 . S
C711 H685 0.950 . S
C711 C710 1.414 . S
C711 C712 1.374 . S
C712 H686 0.950 . S
C712 C708 1.385 . S
C712 C711 1.374 . S
C713 C710 1.499 . S
C713 C714 1.373 . S
C713 C715 1.389 . S
C714 H687 0.950 . S
C714 C700 1.377 1_554 S
C714 C713 1.373 . S
C715 C699 1.377 1_554 S
C715 C713 1.389 . S
C715 C716 1.524 . S
C716 C715 1.524 . S
C716 C717 1.397 . S
C716 C721 1.363 . S
C717 H688 0.950 . S
C717 C716 1.397 . S
C717 C718 1.334 . S
C718 H689 0.950 . S
C718 C717 1.334 . S
C718 C719 1.287 . S
C719 C718 1.287 . S
C719 C720 1.524 . S
C719 H722 0.999 . S
C720 H690 0.950 . S
C720 C719 1.524 . S
C720 C721 1.415 . S
C721 H691 0.950 . S
C721 C716 1.363 . S
C721 C720 1.415 . S
H722 C719 0.999 . S
H723 C704 0.913 . S
H724 C742 0.951 . S
H725 C744 0.951 . S
H726 C746 0.950 . S
H727 C747 0.950 . S
H728 C749 0.950 . S
H729 C752 0.950 . S
H730 C753 0.950 . S
H731 C755 0.950 . S
H732 C756 0.950 . S
H733 C757 0.951 . S
H734 C759 0.951 . S
H735 C761 0.950 . S
H736 C762 0.950 . S
H737 C764 0.950 . S
H738 C767 0.950 . S
H739 C768 0.950 . S
H740 C770 0.950 . S
H741 C771 0.950 . S
C742 H724 0.951 . S
C742 C743 1.366 . S
C742 C744 1.388 . S
C743 C742 1.366 . S
C743 C747 1.385 . S
C744 H725 0.951 . S
C744 C742 1.388 . S
C744 C745 1.366 . S
C745 C744 1.366 . S
C745 C746 1.414 . S
C745 C748 1.499 . S
C746 H726 0.950 . S
C746 C745 1.414 . S
C746 C747 1.374 . S
C747 H727 0.950 . S
C747 C743 1.385 . S
C747 C746 1.374 . S
C748 C745 1.499 . S
C748 C749 1.373 . S
C748 C750 1.389 . S
C749 H728 0.950 . S
C749 C748 1.373 . S
C749 C765 1.377 1_556 S
C750 C748 1.389 . S
C750 C751 1.524 . S
C750 C764 1.377 1_556 S
C751 C750 1.524 . S
C751 C752 1.397 . S
C751 C756 1.363 . S
C752 H729 0.950 . S
C752 C751 1.397 . S
C752 C753 1.334 . S
C753 H730 0.950 . S
C753 C752 1.334 . S
C753 C754 1.287 . S
C754 C753 1.287 . S
C754 C755 1.524 . S
C754 H773 0.913 . S
C755 H731 0.950 . S
C755 C754 1.524 . S
C755 C756 1.415 . S
C756 H732 0.950 . S
C756 C751 1.363 . S
C756 C755 1.415 . S
C757 H733 0.951 . S
C757 C758 1.366 . S
C757 C759 1.388 . S
C758 C757 1.366 . S
C758 C762 1.385 . S
C759 H734 0.951 . S
C759 C757 1.388 . S
C759 C760 1.366 . S
C760 C759 1.366 . S
C760 C761 1.414 . S
C760 C763 1.499 . S
C761 H735 0.950 . S
C761 C760 1.414 . S
C761 C762 1.374 . S
C762 H736 0.950 . S
C762 C758 1.385 . S
C762 C761 1.374 . S
C763 C760 1.499 . S
C763 C764 1.373 . S
C763 C765 1.389 . S
C764 H737 0.950 . S
C764 C750 1.377 1_554 S
C764 C763 1.373 . S
C765 C749 1.377 1_554 S
C765 C763 1.389 . S
C765 C766 1.524 . S
C766 C765 1.524 . S
C766 C767 1.397 . S
C766 C771 1.363 . S
C767 H738 0.950 . S
C767 C766 1.397 . S
C767 C768 1.334 . S
C768 H739 0.950 . S
C768 C767 1.334 . S
C768 C769 1.287 . S
C769 C768 1.287 . S
C769 C770 1.524 . S
C769 H772 0.999 . S
C770 H740 0.950 . S
C770 C769 1.524 . S
C770 C771 1.415 . S
C771 H741 0.950 . S
C771 C766 1.363 . S
C771 C770 1.415 . S
H772 C769 0.999 . S
H773 C754 0.913 . S
H774 C792 0.951 . S
H775 C794 0.951 . S
H776 C796 0.950 . S
H777 C797 0.950 . S
H778 C799 0.950 . S
H779 C802 0.950 . S
H780 C803 0.950 . S
H781 C805 0.950 . S
H782 C806 0.950 . S
H783 C807 0.951 . S
H784 C809 0.951 . S
H785 C811 0.950 . S
H786 C812 0.950 . S
H787 C814 0.950 . S
H788 C817 0.950 . S
H789 C818 0.950 . S
H790 C820 0.950 . S
H791 C821 0.950 . S
C792 H774 0.951 . S
C792 C793 1.366 . S
C792 C794 1.388 . S
C793 C792 1.366 . S
C793 C797 1.385 . S
C794 H775 0.951 . S
C794 C792 1.388 . S
C794 C795 1.366 . S
C795 C794 1.366 . S
C795 C796 1.414 . S
C795 C798 1.499 . S
C796 H776 0.950 . S
C796 C795 1.414 . S
C796 C797 1.374 . S
C797 H777 0.950 . S
C797 C793 1.385 . S
C797 C796 1.374 . S
C798 C795 1.499 . S
C798 C799 1.373 . S
C798 C800 1.389 . S
C799 H778 0.950 . S
C799 C798 1.373 . S
C799 C815 1.377 1_554 S
C800 C798 1.389 . S
C800 C801 1.524 . S
C800 C814 1.377 1_554 S
C801 C800 1.524 . S
C801 C802 1.397 . S
C801 C806 1.363 . S
C802 H779 0.950 . S
C802 C801 1.397 . S
C802 C803 1.334 . S
C803 H780 0.950 . S
C803 C802 1.334 . S
C803 C804 1.287 . S
C804 C803 1.287 . S
C804 C805 1.524 . S
C804 H823 0.913 . S
C805 H781 0.950 . S
C805 C804 1.524 . S
C805 C806 1.415 . S
C806 H782 0.950 . S
C806 C801 1.363 . S
C806 C805 1.415 . S
C807 H783 0.951 . S
C807 C808 1.366 . S
C807 C809 1.388 . S
C808 C807 1.366 . S
C808 C812 1.385 . S
C809 H784 0.951 . S
C809 C807 1.388 . S
C809 C810 1.366 . S
C810 C809 1.366 . S
C810 C811 1.414 . S
C810 C813 1.499 . S
C811 H785 0.950 . S
C811 C810 1.414 . S
C811 C812 1.374 . S
C812 H786 0.950 . S
C812 C808 1.385 . S
C812 C811 1.374 . S
C813 C810 1.499 . S
C813 C814 1.373 . S
C813 C815 1.389 . S
C814 H787 0.950 . S
C814 C800 1.377 1_556 S
C814 C813 1.373 . S
C815 C799 1.377 1_556 S
C815 C813 1.389 . S
C815 C816 1.524 . S
C816 C815 1.524 . S
C816 C817 1.397 . S
C816 C821 1.363 . S
C817 H788 0.950 . S
C817 C816 1.397 . S
C817 C818 1.334 . S
C818 H789 0.950 . S
C818 C817 1.334 . S
C818 C819 1.287 . S
C819 C818 1.287 . S
C819 C820 1.524 . S
C819 H822 0.999 . S
C820 H790 0.950 . S
C820 C819 1.524 . S
C820 C821 1.415 . S
C821 H791 0.950 . S
C821 C816 1.363 . S
C821 C820 1.415 . S
H822 C819 0.999 . S
H823 C804 0.913 . S
H824 C842 0.951 . S
H825 C844 0.951 . S
H826 C846 0.950 . S
H827 C847 0.950 . S
H828 C849 0.950 . S
H829 C852 0.950 . S
H830 C853 0.950 . S
H831 C855 0.950 . S
H832 C856 0.950 . S
H833 C857 0.951 . S
H834 C859 0.951 . S
H835 C861 0.950 . S
H836 C862 0.950 . S
H837 C864 0.950 . S
H838 C867 0.950 . S
H839 C868 0.950 . S
H840 C870 0.950 . S
H841 C871 0.950 . S
C842 H824 0.951 . S
C842 C843 1.366 . S
C842 C844 1.388 . S
C843 C842 1.366 . S
C843 C847 1.385 . S
C844 H825 0.951 . S
C844 C842 1.388 . S
C844 C845 1.366 . S
C845 C844 1.366 . S
C845 C846 1.414 . S
C845 C848 1.499 . S
C846 H826 0.950 . S
C846 C845 1.414 . S
C846 C847 1.374 . S
C847 H827 0.950 . S
C847 C843 1.385 . S
C847 C846 1.374 . S
C848 C845 1.499 . S
C848 C849 1.373 . S
C848 C850 1.389 . S
C849 H828 0.950 . S
C849 C848 1.373 . S
C849 C865 1.377 . S
C850 C848 1.389 . S
C850 C851 1.524 . S
C850 C864 1.377 . S
C851 C850 1.524 . S
C851 C852 1.397 . S
C851 C856 1.363 . S
C852 H829 0.950 . S
C852 C851 1.397 . S
C852 C853 1.334 . S
C853 H830 0.950 . S
C853 C852 1.334 . S
C853 C854 1.287 . S
C854 C853 1.287 . S
C854 C855 1.524 . S
C854 H873 0.913 . S
C855 H831 0.950 . S
C855 C854 1.524 . S
C855 C856 1.415 . S
C856 H832 0.950 . S
C856 C851 1.363 . S
C856 C855 1.415 . S
C857 H833 0.951 . S
C857 C858 1.366 . S
C857 C859 1.388 . S
C858 C857 1.366 . S
C858 C862 1.385 . S
C859 H834 0.951 . S
C859 C857 1.388 . S
C859 C860 1.366 . S
C860 C859 1.366 . S
C860 C861 1.414 . S
C860 C863 1.499 . S
C861 H835 0.950 . S
C861 C860 1.414 . S
C861 C862 1.374 . S
C862 H836 0.950 . S
C862 C858 1.385 . S
C862 C861 1.374 . S
C863 C860 1.499 . S
C863 C864 1.373 . S
C863 C865 1.389 . S
C864 H837 0.950 . S
C864 C850 1.377 . S
C864 C863 1.373 . S
C865 C849 1.377 . S
C865 C863 1.389 . S
C865 C866 1.524 . S
C866 C865 1.524 . S
C866 C867 1.397 . S
C866 C871 1.363 . S
C867 H838 0.950 . S
C867 C866 1.397 . S
C867 C868 1.334 . S
C868 H839 0.950 . S
C868 C867 1.334 . S
C868 C869 1.287 . S
C869 C868 1.287 . S
C869 C870 1.524 . S
C869 H872 0.999 . S
C870 H840 0.950 . S
C870 C869 1.524 . S
C870 C871 1.415 . S
C871 H841 0.950 . S
C871 C866 1.363 . S
C871 C870 1.415 . S
H872 C869 0.999 . S
H873 C854 0.913 . S
H874 C892 0.951 . S
H875 C894 0.951 . S
H876 C896 0.950 . S
H877 C897 0.950 . S
H878 C899 0.950 . S
H879 C902 0.950 . S
H880 C903 0.950 . S
H881 C905 0.950 . S
H882 C906 0.950 . S
H883 C907 0.951 . S
H884 C909 0.951 . S
H885 C911 0.950 . S
H886 C912 0.950 . S
H887 C914 0.950 . S
H888 C917 0.950 . S
H889 C918 0.950 . S
H890 C920 0.950 . S
H891 C921 0.950 . S
C892 H874 0.951 . S
C892 C893 1.366 . S
C892 C894 1.388 . S
C893 C892 1.366 . S
C893 C897 1.385 . S
C894 H875 0.951 . S
C894 C892 1.388 . S
C894 C895 1.366 . S
C895 C894 1.366 . S
C895 C896 1.414 . S
C895 C898 1.499 . S
C896 H876 0.950 . S
C896 C895 1.414 . S
C896 C897 1.374 . S
C897 H877 0.950 . S
C897 C893 1.385 . S
C897 C896 1.374 . S
C898 C895 1.499 . S
C898 C899 1.373 . S
C898 C900 1.389 . S
C899 H878 0.950 . S
C899 C898 1.373 . S
C899 C915 1.377 . S
C900 C898 1.389 . S
C900 C901 1.524 . S
C900 C914 1.377 . S
C901 C900 1.524 . S
C901 C902 1.397 . S
C901 C906 1.363 . S
C902 H879 0.950 . S
C902 C901 1.397 . S
C902 C903 1.334 . S
C903 H880 0.950 . S
C903 C902 1.334 . S
C903 C904 1.287 . S
C904 C903 1.287 . S
C904 C905 1.524 . S
C904 H923 0.913 . S
C905 H881 0.950 . S
C905 C904 1.524 . S
C905 C906 1.415 . S
C906 H882 0.950 . S
C906 C901 1.363 . S
C906 C905 1.415 . S
C907 H883 0.951 . S
C907 C908 1.366 . S
C907 C909 1.388 . S
C908 C907 1.366 . S
C908 C912 1.385 . S
C909 H884 0.951 . S
C909 C907 1.388 . S
C909 C910 1.366 . S
C910 C909 1.366 . S
C910 C911 1.414 . S
C910 C913 1.499 . S
C911 H885 0.950 . S
C911 C910 1.414 . S
C911 C912 1.374 . S
C912 H886 0.950 . S
C912 C908 1.385 . S
C912 C911 1.374 . S
C913 C910 1.499 . S
C913 C914 1.373 . S
C913 C915 1.389 . S
C914 H887 0.950 . S
C914 C900 1.377 . S
C914 C913 1.373 . S
C915 C899 1.377 . S
C915 C913 1.389 . S
C915 C916 1.524 . S
C916 C915 1.524 . S
C916 C917 1.397 . S
C916 C921 1.363 . S
C917 H888 0.950 . S
C917 C916 1.397 . S
C917 C918 1.334 . S
C918 H889 0.950 . S
C918 C917 1.334 . S
C918 C919 1.287 . S
C919 C918 1.287 . S
C919 C920 1.524 . S
C919 H922 0.999 . S
C920 H890 0.950 . S
C920 C919 1.524 . S
C920 C921 1.415 . S
C921 H891 0.950 . S
C921 C916 1.363 . S
C921 C920 1.415 . S
H922 C919 0.999 . S
H923 C904 0.913 . S
H924 C942 0.951 . S
H925 C944 0.951 . S
H926 C946 0.950 . S
H927 C947 0.950 . S
H928 C949 0.950 . S
H929 C952 0.950 . S
H930 C953 0.950 . S
H931 C955 0.950 . S
H932 C956 0.950 . S
H933 C957 0.951 . S
H934 C959 0.951 . S
H935 C961 0.950 . S
H936 C962 0.950 . S
H937 C964 0.950 . S
H938 C967 0.950 . S
H939 C968 0.950 . S
H940 C970 0.950 . S
H941 C971 0.950 . S
C942 H924 0.951 . S
C942 C943 1.366 . S
C942 C944 1.388 . S
C943 C942 1.366 . S
C943 C947 1.385 . S
C944 H925 0.951 . S
C944 C942 1.388 . S
C944 C945 1.366 . S
C945 C944 1.366 . S
C945 C946 1.414 . S
C945 C948 1.499 . S
C946 H926 0.950 . S
C946 C945 1.414 . S
C946 C947 1.374 . S
C947 H927 0.950 . S
C947 C943 1.385 . S
C947 C946 1.374 . S
C948 C945 1.499 . S
C948 C949 1.373 . S
C948 C950 1.389 . S
C949 H928 0.950 . S
C949 C948 1.373 . S
C949 C965 1.377 . S
C950 C948 1.389 . S
C950 C951 1.524 . S
C950 C964 1.377 . S
C951 C950 1.524 . S
C951 C952 1.397 . S
C951 C956 1.363 . S
C952 H929 0.950 . S
C952 C951 1.397 . S
C952 C953 1.334 . S
C953 H930 0.950 . S
C953 C952 1.334 . S
C953 C954 1.287 . S
C954 C953 1.287 . S
C954 C955 1.524 . S
C954 H973 0.913 . S
C955 H931 0.950 . S
C955 C954 1.524 . S
C955 C956 1.415 . S
C956 H932 0.950 . S
C956 C951 1.363 . S
C956 C955 1.415 . S
C957 H933 0.951 . S
C957 C958 1.366 . S
C957 C959 1.388 . S
C958 C957 1.366 . S
C958 C962 1.385 . S
C959 H934 0.951 . S
C959 C957 1.388 . S
C959 C960 1.366 . S
C960 C959 1.366 . S
C960 C961 1.414 . S
C960 C963 1.499 . S
C961 H935 0.950 . S
C961 C960 1.414 . S
C961 C962 1.374 . S
C962 H936 0.950 . S
C962 C958 1.385 . S
C962 C961 1.374 . S
C963 C960 1.499 . S
C963 C964 1.373 . S
C963 C965 1.389 . S
C964 H937 0.950 . S
C964 C950 1.377 . S
C964 C963 1.373 . S
C965 C949 1.377 . S
C965 C963 1.389 . S
C965 C966 1.524 . S
C966 C965 1.524 . S
C966 C967 1.397 . S
C966 C971 1.363 . S
C967 H938 0.950 . S
C967 C966 1.397 . S
C967 C968 1.334 . S
C968 H939 0.950 . S
C968 C967 1.334 . S
C968 C969 1.287 . S
C969 C968 1.287 . S
C969 C970 1.524 . S
C969 H972 0.999 . S
C970 H940 0.950 . S
C970 C969 1.524 . S
C970 C971 1.415 . S
C971 H941 0.950 . S
C971 C966 1.363 . S
C971 C970 1.415 . S
H972 C969 0.999 . S
H973 C954 0.913 . S
H974 C992 0.951 . S
H975 C994 0.951 . S
H976 C996 0.950 . S
H977 C997 0.950 . S
H978 C999 0.950 . S
H979 C1002 0.950 . S
H980 C1003 0.950 . S
H981 C1005 0.950 . S
H982 C1006 0.950 . S
H983 C1007 0.951 . S
H984 C1009 0.951 . S
H985 C1011 0.950 . S
H986 C1012 0.950 . S
H987 C1014 0.950 . S
H988 C1017 0.950 . S
H989 C1018 0.950 . S
H990 C1020 0.950 . S
H991 C1021 0.950 . S
C992 H974 0.951 . S
C992 C993 1.366 . S
C992 C994 1.388 . S
C993 C992 1.366 . S
C993 C997 1.385 . S
C994 H975 0.951 . S
C994 C992 1.388 . S
C994 C995 1.366 . S
C995 C994 1.366 . S
C995 C996 1.414 . S
C995 C998 1.499 . S
C996 H976 0.950 . S
C996 C995 1.414 . S
C996 C997 1.374 . S
C997 H977 0.950 . S
C997 C993 1.385 . S
C997 C996 1.374 . S
C998 C995 1.499 . S
C998 C999 1.373 . S
C998 C1000 1.389 . S
C999 H978 0.950 . S
C999 C998 1.373 . S
C999 C1015 1.377 . S
C1000 C998 1.389 . S
C1000 C1001 1.524 . S
C1000 C1014 1.377 . S
C1001 C1000 1.524 . S
C1001 C1002 1.397 . S
C1001 C1006 1.363 . S
C1002 H979 0.950 . S
C1002 C1001 1.397 . S
C1002 C1003 1.334 . S
C1003 H980 0.950 . S
C1003 C1002 1.334 . S
C1003 C1004 1.287 . S
C1004 C1003 1.287 . S
C1004 C1005 1.524 . S
C1004 H1023 0.913 . S
C1005 H981 0.950 . S
C1005 C1004 1.524 . S
C1005 C1006 1.415 . S
C1006 H982 0.950 . S
C1006 C1001 1.363 . S
C1006 C1005 1.415 . S
C1007 H983 0.951 . S
C1007 C1008 1.366 . S
C1007 C1009 1.388 . S
C1008 C1007 1.366 . S
C1008 C1012 1.385 . S
C1009 H984 0.951 . S
C1009 C1007 1.388 . S
C1009 C1010 1.366 . S
C1010 C1009 1.366 . S
C1010 C1011 1.414 . S
C1010 C1013 1.499 . S
C1011 H985 0.950 . S
C1011 C1010 1.414 . S
C1011 C1012 1.374 . S
C1012 H986 0.950 . S
C1012 C1008 1.385 . S
C1012 C1011 1.374 . S
C1013 C1010 1.499 . S
C1013 C1014 1.373 . S
C1013 C1015 1.389 . S
C1014 H987 0.950 . S
C1014 C1000 1.377 . S
C1014 C1013 1.373 . S
C1015 C999 1.377 . S
C1015 C1013 1.389 . S
C1015 C1016 1.524 . S
C1016 C1015 1.524 . S
C1016 C1017 1.397 . S
C1016 C1021 1.363 . S
C1017 H988 0.950 . S
C1017 C1016 1.397 . S
C1017 C1018 1.334 . S
C1018 H989 0.950 . S
C1018 C1017 1.334 . S
C1018 C1019 1.287 . S
C1019 C1018 1.287 . S
C1019 C1020 1.524 . S
C1019 H1022 0.999 . S
C1020 H990 0.950 . S
C1020 C1019 1.524 . S
C1020 C1021 1.415 . S
C1021 H991 0.950 . S
C1021 C1016 1.363 . S
C1021 C1020 1.415 . S
H1022 C1019 0.999 . S
H1023 C1004 0.913 . S
H1024 C1042 0.951 . S
H1025 C1044 0.951 . S
H1026 C1046 0.950 . S
H1027 C1047 0.950 . S
H1028 C1049 0.950 . S
H1029 C1052 0.950 . S
H1030 C1053 0.950 . S
H1031 C1055 0.950 . S
H1032 C1056 0.950 . S
H1033 C1057 0.951 . S
H1034 C1059 0.951 . S
H1035 C1061 0.950 . S
H1036 C1062 0.950 . S
H1037 C1064 0.950 . S
H1038 C1067 0.950 . S
H1039 C1068 0.950 . S
H1040 C1070 0.950 . S
H1041 C1071 0.950 . S
C1042 H1024 0.951 . S
C1042 C1043 1.366 . S
C1042 C1044 1.388 . S
C1043 C1042 1.366 . S
C1043 C1047 1.385 . S
C1044 H1025 0.951 . S
C1044 C1042 1.388 . S
C1044 C1045 1.366 . S
C1045 C1044 1.366 . S
C1045 C1046 1.414 . S
C1045 C1048 1.499 . S
C1046 H1026 0.950 . S
C1046 C1045 1.414 . S
C1046 C1047 1.374 . S
C1047 H1027 0.950 . S
C1047 C1043 1.385 . S
C1047 C1046 1.374 . S
C1048 C1045 1.499 . S
C1048 C1049 1.373 . S
C1048 C1050 1.389 . S
C1049 H1028 0.950 . S
C1049 C1048 1.373 . S
C1049 C1065 1.377 . S
C1050 C1048 1.389 . S
C1050 C1051 1.524 . S
C1050 C1064 1.377 . S
C1051 C1050 1.524 . S
C1051 C1052 1.397 . S
C1051 C1056 1.363 . S
C1052 H1029 0.950 . S
C1052 C1051 1.397 . S
C1052 C1053 1.334 . S
C1053 H1030 0.950 . S
C1053 C1052 1.334 . S
C1053 C1054 1.287 . S
C1054 C1053 1.287 . S
C1054 C1055 1.524 . S
C1054 H1073 0.913 . S
C1055 H1031 0.950 . S
C1055 C1054 1.524 . S
C1055 C1056 1.415 . S
C1056 H1032 0.950 . S
C1056 C1051 1.363 . S
C1056 C1055 1.415 . S
C1057 H1033 0.951 . S
C1057 C1058 1.366 . S
C1057 C1059 1.388 . S
C1058 C1057 1.366 . S
C1058 C1062 1.385 . S
C1059 H1034 0.951 . S
C1059 C1057 1.388 . S
C1059 C1060 1.366 . S
C1060 C1059 1.366 . S
C1060 C1061 1.414 . S
C1060 C1063 1.499 . S
C1061 H1035 0.950 . S
C1061 C1060 1.414 . S
C1061 C1062 1.374 . S
C1062 H1036 0.950 . S
C1062 C1058 1.385 . S
C1062 C1061 1.374 . S
C1063 C1060 1.499 . S
C1063 C1064 1.373 . S
C1063 C1065 1.389 . S
C1064 H1037 0.950 . S
C1064 C1050 1.377 . S
C1064 C1063 1.373 . S
C1065 C1049 1.377 . S
C1065 C1063 1.389 . S
C1065 C1066 1.524 . S
C1066 C1065 1.524 . S
C1066 C1067 1.397 . S
C1066 C1071 1.363 . S
C1067 H1038 0.950 . S
C1067 C1066 1.397 . S
C1067 C1068 1.334 . S
C1068 H1039 0.950 . S
C1068 C1067 1.334 . S
C1068 C1069 1.287 . S
C1069 C1068 1.287 . S
C1069 C1070 1.524 . S
C1069 H1072 0.999 . S
C1070 H1040 0.950 . S
C1070 C1069 1.524 . S
C1070 C1071 1.415 . S
C1071 H1041 0.950 . S
C1071 C1066 1.363 . S
C1071 C1070 1.415 . S
H1072 C1069 0.999 . S
H1073 C1054 0.913 . S
H1074 C1092 0.951 . S
H1075 C1094 0.951 . S
H1076 C1096 0.950 . S
H1077 C1097 0.950 . S
H1078 C1099 0.950 . S
H1079 C1102 0.950 . S
H1080 C1103 0.950 . S
H1081 C1105 0.950 . S
H1082 C1106 0.950 . S
H1083 C1107 0.951 . S
H1084 C1109 0.951 . S
H1085 C1111 0.950 . S
H1086 C1112 0.950 . S
H1087 C1114 0.950 . S
H1088 C1117 0.950 . S
H1089 C1118 0.950 . S
H1090 C1120 0.950 . S
H1091 C1121 0.950 . S
C1092 H1074 0.951 . S
C1092 C1093 1.366 . S
C1092 C1094 1.388 . S
C1093 C1092 1.366 . S
C1093 C1097 1.385 . S
C1094 H1075 0.951 . S
C1094 C1092 1.388 . S
C1094 C1095 1.366 . S
C1095 C1094 1.366 . S
C1095 C1096 1.414 . S
C1095 C1098 1.499 . S
C1096 H1076 0.950 . S
C1096 C1095 1.414 . S
C1096 C1097 1.374 . S
C1097 H1077 0.950 . S
C1097 C1093 1.385 . S
C1097 C1096 1.374 . S
C1098 C1095 1.499 . S
C1098 C1099 1.373 . S
C1098 C1100 1.389 . S
C1099 H1078 0.950 . S
C1099 C1098 1.373 . S
C1099 C1115 1.377 . S
C1100 C1098 1.389 . S
C1100 C1101 1.524 . S
C1100 C1114 1.377 . S
C1101 C1100 1.524 . S
C1101 C1102 1.397 . S
C1101 C1106 1.363 . S
C1102 H1079 0.950 . S
C1102 C1101 1.397 . S
C1102 C1103 1.334 . S
C1103 H1080 0.950 . S
C1103 C1102 1.334 . S
C1103 C1104 1.287 . S
C1104 C1103 1.287 . S
C1104 C1105 1.524 . S
C1104 H1123 0.913 . S
C1105 H1081 0.950 . S
C1105 C1104 1.524 . S
C1105 C1106 1.415 . S
C1106 H1082 0.950 . S
C1106 C1101 1.363 . S
C1106 C1105 1.415 . S
C1107 H1083 0.951 . S
C1107 C1108 1.366 . S
C1107 C1109 1.388 . S
C1108 C1107 1.366 . S
C1108 C1112 1.385 . S
C1109 H1084 0.951 . S
C1109 C1107 1.388 . S
C1109 C1110 1.366 . S
C1110 C1109 1.366 . S
C1110 C1111 1.414 . S
C1110 C1113 1.499 . S
C1111 H1085 0.950 . S
C1111 C1110 1.414 . S
C1111 C1112 1.374 . S
C1112 H1086 0.950 . S
C1112 C1108 1.385 . S
C1112 C1111 1.374 . S
C1113 C1110 1.499 . S
C1113 C1114 1.373 . S
C1113 C1115 1.389 . S
C1114 H1087 0.950 . S
C1114 C1100 1.377 . S
C1114 C1113 1.373 . S
C1115 C1099 1.377 . S
C1115 C1113 1.389 . S
C1115 C1116 1.524 . S
C1116 C1115 1.524 . S
C1116 C1117 1.397 . S
C1116 C1121 1.363 . S
C1117 H1088 0.950 . S
C1117 C1116 1.397 . S
C1117 C1118 1.334 . S
C1118 H1089 0.950 . S
C1118 C1117 1.334 . S
C1118 C1119 1.287 . S
C1119 C1118 1.287 . S
C1119 C1120 1.524 . S
C1119 H1122 0.999 . S
C1120 H1090 0.950 . S
C1120 C1119 1.524 . S
C1120 C1121 1.415 . S
C1121 H1091 0.950 . S
C1121 C1116 1.363 . S
C1121 C1120 1.415 . S
H1122 C1119 0.999 . S
H1123 C1104 0.913 . S
H1124 C1142 0.951 . S
H1125 C1144 0.951 . S
H1126 C1146 0.950 . S
H1127 C1147 0.950 . S
H1128 C1149 0.950 . S
H1129 C1152 0.950 . S
H1130 C1153 0.950 . S
H1131 C1155 0.950 . S
H1132 C1156 0.950 . S
H1133 C1157 0.951 . S
H1134 C1159 0.951 . S
H1135 C1161 0.950 . S
H1136 C1162 0.950 . S
H1137 C1164 0.950 . S
H1138 C1167 0.950 . S
H1139 C1168 0.950 . S
H1140 C1170 0.950 . S
H1141 C1171 0.950 . S
C1142 H1124 0.951 . S
C1142 C1143 1.366 . S
C1142 C1144 1.388 . S
C1143 C1142 1.366 . S
C1143 C1147 1.385 . S
C1144 H1125 0.951 . S
C1144 C1142 1.388 . S
C1144 C1145 1.366 . S
C1145 C1144 1.366 . S
C1145 C1146 1.414 . S
C1145 C1148 1.499 . S
C1146 H1126 0.950 . S
C1146 C1145 1.414 . S
C1146 C1147 1.374 . S
C1147 H1127 0.950 . S
C1147 C1143 1.385 . S
C1147 C1146 1.374 . S
C1148 C1145 1.499 . S
C1148 C1149 1.373 . S
C1148 C1150 1.389 . S
C1149 H1128 0.950 . S
C1149 C1148 1.373 . S
C1149 C1165 1.377 . S
C1150 C1148 1.389 . S
C1150 C1151 1.524 . S
C1150 C1164 1.377 . S
C1151 C1150 1.524 . S
C1151 C1152 1.397 . S
C1151 C1156 1.363 . S
C1152 H1129 0.950 . S
C1152 C1151 1.397 . S
C1152 C1153 1.334 . S
C1153 H1130 0.950 . S
C1153 C1152 1.334 . S
C1153 C1154 1.287 . S
C1154 C1153 1.287 . S
C1154 C1155 1.524 . S
C1154 H1173 0.913 . S
C1155 H1131 0.950 . S
C1155 C1154 1.524 . S
C1155 C1156 1.415 . S
C1156 H1132 0.950 . S
C1156 C1151 1.363 . S
C1156 C1155 1.415 . S
C1157 H1133 0.951 . S
C1157 C1158 1.366 . S
C1157 C1159 1.388 . S
C1158 C1157 1.366 . S
C1158 C1162 1.385 . S
C1159 H1134 0.951 . S
C1159 C1157 1.388 . S
C1159 C1160 1.366 . S
C1160 C1159 1.366 . S
C1160 C1161 1.414 . S
C1160 C1163 1.499 . S
C1161 H1135 0.950 . S
C1161 C1160 1.414 . S
C1161 C1162 1.374 . S
C1162 H1136 0.950 . S
C1162 C1158 1.385 . S
C1162 C1161 1.374 . S
C1163 C1160 1.499 . S
C1163 C1164 1.373 . S
C1163 C1165 1.389 . S
C1164 H1137 0.950 . S
C1164 C1150 1.377 . S
C1164 C1163 1.373 . S
C1165 C1149 1.377 . S
C1165 C1163 1.389 . S
C1165 C1166 1.524 . S
C1166 C1165 1.524 . S
C1166 C1167 1.397 . S
C1166 C1171 1.363 . S
C1167 H1138 0.950 . S
C1167 C1166 1.397 . S
C1167 C1168 1.334 . S
C1168 H1139 0.950 . S
C1168 C1167 1.334 . S
C1168 C1169 1.287 . S
C1169 C1168 1.287 . S
C1169 C1170 1.524 . S
C1169 H1172 0.999 . S
C1170 H1140 0.950 . S
C1170 C1169 1.524 . S
C1170 C1171 1.415 . S
C1171 H1141 0.950 . S
C1171 C1166 1.363 . S
C1171 C1170 1.415 . S
H1172 C1169 0.999 . S
H1173 C1154 0.913 . S
H1174 C1192 0.951 . S
H1175 C1194 0.951 . S
H1176 C1196 0.950 . S
H1177 C1197 0.950 . S
H1178 C1199 0.950 . S
H1179 C1202 0.950 . S
H1180 C1203 0.950 . S
H1181 C1205 0.950 . S
H1182 C1206 0.950 . S
H1183 C1207 0.951 . S
H1184 C1209 0.951 . S
H1185 C1211 0.950 . S
H1186 C1212 0.950 . S
H1187 C1214 0.950 . S
H1188 C1217 0.950 . S
H1189 C1218 0.950 . S
H1190 C1220 0.950 . S
H1191 C1221 0.950 . S
C1192 H1174 0.951 . S
C1192 C1193 1.366 . S
C1192 C1194 1.388 . S
C1193 C1192 1.366 . S
C1193 C1197 1.385 . S
C1194 H1175 0.951 . S
C1194 C1192 1.388 . S
C1194 C1195 1.366 . S
C1195 C1194 1.366 . S
C1195 C1196 1.414 . S
C1195 C1198 1.499 . S
C1196 H1176 0.950 . S
C1196 C1195 1.414 . S
C1196 C1197 1.374 . S
C1197 H1177 0.950 . S
C1197 C1193 1.385 . S
C1197 C1196 1.374 . S
C1198 C1195 1.499 . S
C1198 C1199 1.373 . S
C1198 C1200 1.389 . S
C1199 H1178 0.950 . S
C1199 C1198 1.373 . S
C1199 C1215 1.377 . S
C1200 C1198 1.389 . S
C1200 C1201 1.524 . S
C1200 C1214 1.377 . S
C1201 C1200 1.524 . S
C1201 C1202 1.397 . S
C1201 C1206 1.363 . S
C1202 H1179 0.950 . S
C1202 C1201 1.397 . S
C1202 C1203 1.334 . S
C1203 H1180 0.950 . S
C1203 C1202 1.334 . S
C1203 C1204 1.287 . S
C1204 C1203 1.287 . S
C1204 C1205 1.524 . S
C1204 H1223 0.913 . S
C1205 H1181 0.950 . S
C1205 C1204 1.524 . S
C1205 C1206 1.415 . S
C1206 H1182 0.950 . S
C1206 C1201 1.363 . S
C1206 C1205 1.415 . S
C1207 H1183 0.951 . S
C1207 C1208 1.366 . S
C1207 C1209 1.388 . S
C1208 C1207 1.366 . S
C1208 C1212 1.385 . S
C1209 H1184 0.951 . S
C1209 C1207 1.388 . S
C1209 C1210 1.366 . S
C1210 C1209 1.366 . S
C1210 C1211 1.414 . S
C1210 C1213 1.499 . S
C1211 H1185 0.950 . S
C1211 C1210 1.414 . S
C1211 C1212 1.374 . S
C1212 H1186 0.950 . S
C1212 C1208 1.385 . S
C1212 C1211 1.374 . S
C1213 C1210 1.499 . S
C1213 C1214 1.373 . S
C1213 C1215 1.389 . S
C1214 H1187 0.950 . S
C1214 C1200 1.377 . S
C1214 C1213 1.373 . S
C1215 C1199 1.377 . S
C1215 C1213 1.389 . S
C1215 C1216 1.524 . S
C1216 C1215 1.524 . S
C1216 C1217 1.397 . S
C1216 C1221 1.363 . S
C1217 H1188 0.950 . S
C1217 C1216 1.397 . S
C1217 C1218 1.334 . S
C1218 H1189 0.950 . S
C1218 C1217 1.334 . S
C1218 C1219 1.287 . S
C1219 C1218 1.287 . S
C1219 C1220 1.524 . S
C1219 H1222 0.999 . S
C1220 H1190 0.950 . S
C1220 C1219 1.524 . S
C1220 C1221 1.415 . S
C1221 H1191 0.950 . S
C1221 C1216 1.363 . S
C1221 C1220 1.415 . S
H1222 C1219 0.999 . S
H1223 C1204 0.913 . S
H1224 C1242 0.951 . S
H1225 C1244 0.951 . S
H1226 C1246 0.950 . S
H1227 C1247 0.950 . S
H1228 C1249 0.950 . S
H1229 C1252 0.950 . S
H1230 C1253 0.950 . S
H1231 C1255 0.950 . S
H1232 C1256 0.950 . S
H1233 C1257 0.951 . S
H1234 C1259 0.951 . S
H1235 C1261 0.950 . S
H1236 C1262 0.950 . S
H1237 C1264 0.950 . S
H1238 C1267 0.950 . S
H1239 C1268 0.950 . S
H1240 C1270 0.950 . S
H1241 C1271 0.950 . S
C1242 H1224 0.951 . S
C1242 C1243 1.366 . S
C1242 C1244 1.388 . S
C1243 C1242 1.366 . S
C1243 C1247 1.385 . S
C1244 H1225 0.951 . S
C1244 C1242 1.388 . S
C1244 C1245 1.366 . S
C1245 C1244 1.366 . S
C1245 C1246 1.414 . S
C1245 C1248 1.499 . S
C1246 H1226 0.950 . S
C1246 C1245 1.414 . S
C1246 C1247 1.374 . S
C1247 H1227 0.950 . S
C1247 C1243 1.385 . S
C1247 C1246 1.374 . S
C1248 C1245 1.499 . S
C1248 C1249 1.373 . S
C1248 C1250 1.389 . S
C1249 H1228 0.950 . S
C1249 C1248 1.373 . S
C1249 C1265 1.377 . S
C1250 C1248 1.389 . S
C1250 C1251 1.524 . S
C1250 C1264 1.377 . S
C1251 C1250 1.524 . S
C1251 C1252 1.397 . S
C1251 C1256 1.363 . S
C1252 H1229 0.950 . S
C1252 C1251 1.397 . S
C1252 C1253 1.334 . S
C1253 H1230 0.950 . S
C1253 C1252 1.334 . S
C1253 C1254 1.287 . S
C1254 C1253 1.287 . S
C1254 C1255 1.524 . S
C1254 H1273 0.913 . S
C1255 H1231 0.950 . S
C1255 C1254 1.524 . S
C1255 C1256 1.415 . S
C1256 H1232 0.950 . S
C1256 C1251 1.363 . S
C1256 C1255 1.415 . S
C1257 H1233 0.951 . S
C1257 C1258 1.366 . S
C1257 C1259 1.388 . S
C1258 C1257 1.366 . S
C1258 C1262 1.385 . S
C1259 H1234 0.951 . S
C1259 C1257 1.388 . S
C1259 C1260 1.366 . S
C1260 C1259 1.366 . S
C1260 C1261 1.414 . S
C1260 C1263 1.499 . S
C1261 H1235 0.950 . S
C1261 C1260 1.414 . S
C1261 C1262 1.374 . S
C1262 H1236 0.950 . S
C1262 C1258 1.385 . S
C1262 C1261 1.374 . S
C1263 C1260 1.499 . S
C1263 C1264 1.373 . S
C1263 C1265 1.389 . S
C1264 H1237 0.950 . S
C1264 C1250 1.377 . S
C1264 C1263 1.373 . S
C1265 C1249 1.377 . S
C1265 C1263 1.389 . S
C1265 C1266 1.524 . S
C1266 C1265 1.524 . S
C1266 C1267 1.397 . S
C1266 C1271 1.363 . S
C1267 H1238 0.950 . S
C1267 C1266 1.397 . S
C1267 C1268 1.334 . S
C1268 H1239 0.950 . S
C1268 C1267 1.334 . S
C1268 C1269 1.287 . S
C1269 C1268 1.287 . S
C1269 C1270 1.524 . S
C1269 H1272 0.999 . S
C1270 H1240 0.950 . S
C1270 C1269 1.524 . S
C1270 C1271 1.415 . S
C1271 H1241 0.950 . S
C1271 C1266 1.363 . S
C1271 C1270 1.415 . S
H1272 C1269 0.999 . S
H1273 C1254 0.913 . S
H1274 C1292 0.951 . S
H1275 C1294 0.951 . S
H1276 C1296 0.950 . S
H1277 C1297 0.950 . S
H1278 C1299 0.950 . S
H1279 C1302 0.950 . S
H1280 C1303 0.950 . S
H1281 C1305 0.950 . S
H1282 C1306 0.950 . S
H1283 C1307 0.951 . S
H1284 C1309 0.951 . S
H1285 C1311 0.950 . S
H1286 C1312 0.950 . S
H1287 C1314 0.950 . S
H1288 C1317 0.950 . S
H1289 C1318 0.950 . S
H1290 C1320 0.950 . S
H1291 C1321 0.950 . S
C1292 H1274 0.951 . S
C1292 C1293 1.366 . S
C1292 C1294 1.388 . S
C1293 C1292 1.366 . S
C1293 C1297 1.385 . S
C1294 H1275 0.951 . S
C1294 C1292 1.388 . S
C1294 C1295 1.366 . S
C1295 C1294 1.366 . S
C1295 C1296 1.414 . S
C1295 C1298 1.499 . S
C1296 H1276 0.950 . S
C1296 C1295 1.414 . S
C1296 C1297 1.374 . S
C1297 H1277 0.950 . S
C1297 C1293 1.385 . S
C1297 C1296 1.374 . S
C1298 C1295 1.499 . S
C1298 C1299 1.373 . S
C1298 C1300 1.389 . S
C1299 H1278 0.950 . S
C1299 C1298 1.373 . S
C1299 C1315 1.377 . S
C1300 C1298 1.389 . S
C1300 C1301 1.524 . S
C1300 C1314 1.377 . S
C1301 C1300 1.524 . S
C1301 C1302 1.397 . S
C1301 C1306 1.363 . S
C1302 H1279 0.950 . S
C1302 C1301 1.397 . S
C1302 C1303 1.334 . S
C1303 H1280 0.950 . S
C1303 C1302 1.334 . S
C1303 C1304 1.287 . S
C1304 C1303 1.287 . S
C1304 C1305 1.524 . S
C1304 H1323 0.913 . S
C1305 H1281 0.950 . S
C1305 C1304 1.524 . S
C1305 C1306 1.415 . S
C1306 H1282 0.950 . S
C1306 C1301 1.363 . S
C1306 C1305 1.415 . S
C1307 H1283 0.951 . S
C1307 C1308 1.366 . S
C1307 C1309 1.388 . S
C1308 C1307 1.366 . S
C1308 C1312 1.385 . S
C1309 H1284 0.951 . S
C1309 C1307 1.388 . S
C1309 C1310 1.366 . S
C1310 C1309 1.366 . S
C1310 C1311 1.414 . S
C1310 C1313 1.499 . S
C1311 H1285 0.950 . S
C1311 C1310 1.414 . S
C1311 C1312 1.374 . S
C1312 H1286 0.950 . S
C1312 C1308 1.385 . S
C1312 C1311 1.374 . S
C1313 C1310 1.499 . S
C1313 C1314 1.373 . S
C1313 C1315 1.389 . S
C1314 H1287 0.950 . S
C1314 C1300 1.377 . S
C1314 C1313 1.373 . S
C1315 C1299 1.377 . S
C1315 C1313 1.389 . S
C1315 C1316 1.524 . S
C1316 C1315 1.524 . S
C1316 C1317 1.397 . S
C1316 C1321 1.363 . S
C1317 H1288 0.950 . S
C1317 C1316 1.397 . S
C1317 C1318 1.334 . S
C1318 H1289 0.950 . S
C1318 C1317 1.334 . S
C1318 C1319 1.287 . S
C1319 C1318 1.287 . S
C1319 C1320 1.524 . S
C1319 H1322 0.999 . S
C1320 H1290 0.950 . S
C1320 C1319 1.524 . S
C1320 C1321 1.415 . S
C1321 H1291 0.950 . S
C1321 C1316 1.363 . S
C1321 C1320 1.415 . S
H1322 C1319 0.999 . S
H1323 C1304 0.913 . S
H1324 C1342 0.951 . S
H1325 C1344 0.951 . S
H1326 C1346 0.950 . S
H1327 C1347 0.950 . S
H1328 C1349 0.950 . S
H1329 C1352 0.950 . S
H1330 C1353 0.950 . S
H1331 C1355 0.950 . S
H1332 C1356 0.950 . S
H1333 C1357 0.951 . S
H1334 C1359 0.951 . S
H1335 C1361 0.950 . S
H1336 C1362 0.950 . S
H1337 C1364 0.950 . S
H1338 C1367 0.950 . S
H1339 C1368 0.950 . S
H1340 C1370 0.950 . S
H1341 C1371 0.950 . S
C1342 H1324 0.951 . S
C1342 C1343 1.366 . S
C1342 C1344 1.388 . S
C1343 C1342 1.366 . S
C1343 C1347 1.385 . S
C1344 H1325 0.951 . S
C1344 C1342 1.388 . S
C1344 C1345 1.366 . S
C1345 C1344 1.366 . S
C1345 C1346 1.414 . S
C1345 C1348 1.499 . S
C1346 H1326 0.950 . S
C1346 C1345 1.414 . S
C1346 C1347 1.374 . S
C1347 H1327 0.950 . S
C1347 C1343 1.385 . S
C1347 C1346 1.374 . S
C1348 C1345 1.499 . S
C1348 C1349 1.373 . S
C1348 C1350 1.389 . S
C1349 H1328 0.950 . S
C1349 C1348 1.373 . S
C1349 C1365 1.377 . S
C1350 C1348 1.389 . S
C1350 C1351 1.524 . S
C1350 C1364 1.377 . S
C1351 C1350 1.524 . S
C1351 C1352 1.397 . S
C1351 C1356 1.363 . S
C1352 H1329 0.950 . S
C1352 C1351 1.397 . S
C1352 C1353 1.334 . S
C1353 H1330 0.950 . S
C1353 C1352 1.334 . S
C1353 C1354 1.287 . S
C1354 C1353 1.287 . S
C1354 C1355 1.524 . S
C1354 H1373 0.913 . S
C1355 H1331 0.950 . S
C1355 C1354 1.524 . S
C1355 C1356 1.415 . S
C1356 H1332 0.950 . S
C1356 C1351 1.363 . S
C1356 C1355 1.415 . S
C1357 H1333 0.951 . S
C1357 C1358 1.366 . S
C1357 C1359 1.388 . S
C1358 C1357 1.366 . S
C1358 C1362 1.385 . S
C1359 H1334 0.951 . S
C1359 C1357 1.388 . S
C1359 C1360 1.366 . S
C1360 C1359 1.366 . S
C1360 C1361 1.414 . S
C1360 C1363 1.499 . S
C1361 H1335 0.950 . S
C1361 C1360 1.414 . S
C1361 C1362 1.374 . S
C1362 H1336 0.950 . S
C1362 C1358 1.385 . S
C1362 C1361 1.374 . S
C1363 C1360 1.499 . S
C1363 C1364 1.373 . S
C1363 C1365 1.389 . S
C1364 H1337 0.950 . S
C1364 C1350 1.377 . S
C1364 C1363 1.373 . S
C1365 C1349 1.377 . S
C1365 C1363 1.389 . S
C1365 C1366 1.524 . S
C1366 C1365 1.524 . S
C1366 C1367 1.397 . S
C1366 C1371 1.363 . S
C1367 H1338 0.950 . S
C1367 C1366 1.397 . S
C1367 C1368 1.334 . S
C1368 H1339 0.950 . S
C1368 C1367 1.334 . S
C1368 C1369 1.287 . S
C1369 C1368 1.287 . S
C1369 C1370 1.524 . S
C1369 H1372 0.999 . S
C1370 H1340 0.950 . S
C1370 C1369 1.524 . S
C1370 C1371 1.415 . S
C1371 H1341 0.950 . S
C1371 C1366 1.363 . S
C1371 C1370 1.415 . S
H1372 C1369 0.999 . S
H1373 C1354 0.913 . S
H1374 C1392 0.951 . S
H1375 C1394 0.951 . S
H1376 C1396 0.950 . S
H1377 C1397 0.950 . S
H1378 C1399 0.950 . S
H1379 C1402 0.950 . S
H1380 C1403 0.950 . S
H1381 C1405 0.950 . S
H1382 C1406 0.950 . S
H1383 C1407 0.951 . S
H1384 C1409 0.951 . S
H1385 C1411 0.950 . S
H1386 C1412 0.950 . S
H1387 C1414 0.950 . S
H1388 C1417 0.950 . S
H1389 C1418 0.950 . S
H1390 C1420 0.950 . S
H1391 C1421 0.950 . S
C1392 H1374 0.951 . S
C1392 C1393 1.366 . S
C1392 C1394 1.388 . S
C1393 C1392 1.366 . S
C1393 C1397 1.385 . S
C1394 H1375 0.951 . S
C1394 C1392 1.388 . S
C1394 C1395 1.366 . S
C1395 C1394 1.366 . S
C1395 C1396 1.414 . S
C1395 C1398 1.499 . S
C1396 H1376 0.950 . S
C1396 C1395 1.414 . S
C1396 C1397 1.374 . S
C1397 H1377 0.950 . S
C1397 C1393 1.385 . S
C1397 C1396 1.374 . S
C1398 C1395 1.499 . S
C1398 C1399 1.373 . S
C1398 C1400 1.389 . S
C1399 H1378 0.950 . S
C1399 C1398 1.373 . S
C1399 C1415 1.377 . S
C1400 C1398 1.389 . S
C1400 C1401 1.524 . S
C1400 C1414 1.377 . S
C1401 C1400 1.524 . S
C1401 C1402 1.397 . S
C1401 C1406 1.363 . S
C1402 H1379 0.950 . S
C1402 C1401 1.397 . S
C1402 C1403 1.334 . S
C1403 H1380 0.950 . S
C1403 C1402 1.334 . S
C1403 C1404 1.287 . S
C1404 C1403 1.287 . S
C1404 C1405 1.524 . S
C1404 H1423 0.913 . S
C1405 H1381 0.950 . S
C1405 C1404 1.524 . S
C1405 C1406 1.415 . S
C1406 H1382 0.950 . S
C1406 C1401 1.363 . S
C1406 C1405 1.415 . S
C1407 H1383 0.951 . S
C1407 C1408 1.366 . S
C1407 C1409 1.388 . S
C1408 C1407 1.366 . S
C1408 C1412 1.385 . S
C1409 H1384 0.951 . S
C1409 C1407 1.388 . S
C1409 C1410 1.366 . S
C1410 C1409 1.366 . S
C1410 C1411 1.414 . S
C1410 C1413 1.499 . S
C1411 H1385 0.950 . S
C1411 C1410 1.414 . S
C1411 C1412 1.374 . S
C1412 H1386 0.950 . S
C1412 C1408 1.385 . S
C1412 C1411 1.374 . S
C1413 C1410 1.499 . S
C1413 C1414 1.373 . S
C1413 C1415 1.389 . S
C1414 H1387 0.950 . S
C1414 C1400 1.377 . S
C1414 C1413 1.373 . S
C1415 C1399 1.377 . S
C1415 C1413 1.389 . S
C1415 C1416 1.524 . S
C1416 C1415 1.524 . S
C1416 C1417 1.397 . S
C1416 C1421 1.363 . S
C1417 H1388 0.950 . S
C1417 C1416 1.397 . S
C1417 C1418 1.334 . S
C1418 H1389 0.950 . S
C1418 C1417 1.334 . S
C1418 C1419 1.287 . S
C1419 C1418 1.287 . S
C1419 C1420 1.524 . S
C1419 H1422 0.999 . S
C1420 H1390 0.950 . S
C1420 C1419 1.524 . S
C1420 C1421 1.415 . S
C1421 H1391 0.950 . S
C1421 C1416 1.363 . S
C1421 C1420 1.415 . S
H1422 C1419 0.999 . S
H1423 C1404 0.913 . S
H1424 C1442 0.951 . S
H1425 C1444 0.951 . S
H1426 C1446 0.950 . S
H1427 C1447 0.950 . S
H1428 C1449 0.950 . S
H1429 C1452 0.950 . S
H1430 C1453 0.950 . S
H1431 C1455 0.950 . S
H1432 C1456 0.950 . S
H1433 C1457 0.951 . S
H1434 C1459 0.951 . S
H1435 C1461 0.950 . S
H1436 C1462 0.950 . S
H1437 C1464 0.950 . S
H1438 C1467 0.950 . S
H1439 C1468 0.950 . S
H1440 C1470 0.950 . S
H1441 C1471 0.950 . S
C1442 H1424 0.951 . S
C1442 C1443 1.366 . S
C1442 C1444 1.388 . S
C1443 C1442 1.366 . S
C1443 C1447 1.385 . S
C1444 H1425 0.951 . S
C1444 C1442 1.388 . S
C1444 C1445 1.366 . S
C1445 C1444 1.366 . S
C1445 C1446 1.414 . S
C1445 C1448 1.499 . S
C1446 H1426 0.950 . S
C1446 C1445 1.414 . S
C1446 C1447 1.374 . S
C1447 H1427 0.950 . S
C1447 C1443 1.385 . S
C1447 C1446 1.374 . S
C1448 C1445 1.499 . S
C1448 C1449 1.373 . S
C1448 C1450 1.389 . S
C1449 H1428 0.950 . S
C1449 C1448 1.373 . S
C1449 C1465 1.377 1_545 S
C1450 C1448 1.389 . S
C1450 C1451 1.524 . S
C1450 C1464 1.377 1_545 S
C1451 C1450 1.524 . S
C1451 C1452 1.397 . S
C1451 C1456 1.363 . S
C1452 H1429 0.950 . S
C1452 C1451 1.397 . S
C1452 C1453 1.334 . S
C1453 H1430 0.950 . S
C1453 C1452 1.334 . S
C1453 C1454 1.287 . S
C1454 C1453 1.287 . S
C1454 C1455 1.524 . S
C1454 H1473 0.913 . S
C1455 H1431 0.950 . S
C1455 C1454 1.524 . S
C1455 C1456 1.415 . S
C1456 H1432 0.950 . S
C1456 C1451 1.363 . S
C1456 C1455 1.415 . S
C1457 H1433 0.951 . S
C1457 C1458 1.366 . S
C1457 C1459 1.388 . S
C1458 C1457 1.366 . S
C1458 C1462 1.385 . S
C1459 H1434 0.951 . S
C1459 C1457 1.388 . S
C1459 C1460 1.366 . S
C1460 C1459 1.366 . S
C1460 C1461 1.414 . S
C1460 C1463 1.499 . S
C1461 H1435 0.950 . S
C1461 C1460 1.414 . S
C1461 C1462 1.374 . S
C1462 H1436 0.950 . S
C1462 C1458 1.385 . S
C1462 C1461 1.374 . S
C1463 C1460 1.499 . S
C1463 C1464 1.373 . S
C1463 C1465 1.389 . S
C1464 H1437 0.950 . S
C1464 C1450 1.377 1_565 S
C1464 C1463 1.373 . S
C1465 C1449 1.377 1_565 S
C1465 C1463 1.389 . S
C1465 C1466 1.524 . S
C1466 C1465 1.524 . S
C1466 C1467 1.397 . S
C1466 C1471 1.363 . S
C1467 H1438 0.950 . S
C1467 C1466 1.397 . S
C1467 C1468 1.334 . S
C1468 H1439 0.950 . S
C1468 C1467 1.334 . S
C1468 C1469 1.287 . S
C1469 C1468 1.287 . S
C1469 C1470 1.524 . S
C1469 H1472 0.999 . S
C1470 H1440 0.950 . S
C1470 C1469 1.524 . S
C1470 C1471 1.415 . S
C1471 H1441 0.950 . S
C1471 C1466 1.363 . S
C1471 C1470 1.415 . S
H1472 C1469 0.999 . S
H1473 C1454 0.913 . S
H1474 C1492 0.951 . S
H1475 C1494 0.951 . S
H1476 C1496 0.950 . S
H1477 C1497 0.950 . S
H1478 C1499 0.950 . S
H1479 C1502 0.950 . S
H1480 C1503 0.950 . S
H1481 C1505 0.950 . S
H1482 C1506 0.950 . S
H1483 C1507 0.951 . S
H1484 C1509 0.951 . S
H1485 C1511 0.950 . S
H1486 C1512 0.950 . S
H1487 C1514 0.950 . S
H1488 C1517 0.950 . S
H1489 C1518 0.950 . S
H1490 C1520 0.950 . S
H1491 C1521 0.950 . S
C1492 H1474 0.951 . S
C1492 C1493 1.366 . S
C1492 C1494 1.388 . S
C1493 C1492 1.366 . S
C1493 C1497 1.385 . S
C1494 H1475 0.951 . S
C1494 C1492 1.388 . S
C1494 C1495 1.366 . S
C1495 C1494 1.366 . S
C1495 C1496 1.414 . S
C1495 C1498 1.499 . S
C1496 H1476 0.950 . S
C1496 C1495 1.414 . S
C1496 C1497 1.374 . S
C1497 H1477 0.950 . S
C1497 C1493 1.385 . S
C1497 C1496 1.374 . S
C1498 C1495 1.499 . S
C1498 C1499 1.373 . S
C1498 C1500 1.389 . S
C1499 H1478 0.950 . S
C1499 C1498 1.373 . S
C1499 C1515 1.377 1_655 S
C1500 C1498 1.389 . S
C1500 C1501 1.524 . S
C1500 C1514 1.377 1_655 S
C1501 C1500 1.524 . S
C1501 C1502 1.397 . S
C1501 C1506 1.363 1_655 S
C1502 H1479 0.950 . S
C1502 C1501 1.397 . S
C1502 C1503 1.334 . S
C1503 H1480 0.950 . S
C1503 C1502 1.334 . S
C1503 C1504 1.287 . S
C1504 C1503 1.287 . S
C1504 C1505 1.524 1_655 S
C1504 H1523 0.913 . S
C1505 H1481 0.950 . S
C1505 C1504 1.524 1_455 S
C1505 C1506 1.415 . S
C1506 H1482 0.950 . S
C1506 C1501 1.363 1_455 S
C1506 C1505 1.415 . S
C1507 H1483 0.951 . S
C1507 C1508 1.366 . S
C1507 C1509 1.388 . S
C1508 C1507 1.366 . S
C1508 C1512 1.385 . S
C1509 H1484 0.951 . S
C1509 C1507 1.388 . S
C1509 C1510 1.366 . S
C1510 C1509 1.366 . S
C1510 C1511 1.414 . S
C1510 C1513 1.499 . S
C1511 H1485 0.950 . S
C1511 C1510 1.414 . S
C1511 C1512 1.374 . S
C1512 H1486 0.950 . S
C1512 C1508 1.385 . S
C1512 C1511 1.374 . S
C1513 C1510 1.499 . S
C1513 C1514 1.373 . S
C1513 C1515 1.389 . S
C1514 H1487 0.950 . S
C1514 C1500 1.377 1_455 S
C1514 C1513 1.373 . S
C1515 C1499 1.377 1_455 S
C1515 C1513 1.389 . S
C1515 C1516 1.524 . S
C1516 C1515 1.524 . S
C1516 C1517 1.397 . S
C1516 C1521 1.363 1_455 S
C1517 H1488 0.950 . S
C1517 C1516 1.397 . S
C1517 C1518 1.334 . S
C1518 H1489 0.950 . S
C1518 C1517 1.334 . S
C1518 C1519 1.287 . S
C1519 C1518 1.287 . S
C1519 C1520 1.524 1_455 S
C1519 H1522 0.999 . S
C1520 H1490 0.950 . S
C1520 C1519 1.524 1_655 S
C1520 C1521 1.415 . S
C1521 H1491 0.950 . S
C1521 C1516 1.363 1_655 S
C1521 C1520 1.415 . S
H1522 C1519 0.999 . S
H1523 C1504 0.913 . S
H1524 C1542 0.951 . S
H1525 C1544 0.951 . S
H1526 C1546 0.950 . S
H1527 C1547 0.950 . S
H1528 C1549 0.950 . S
H1529 C1552 0.950 . S
H1530 C1553 0.950 . S
H1531 C1555 0.950 . S
H1532 C1556 0.950 . S
H1533 C1557 0.951 . S
H1534 C1559 0.951 . S
H1535 C1561 0.950 . S
H1536 C1562 0.950 . S
H1537 C1564 0.950 . S
H1538 C1567 0.950 . S
H1539 C1568 0.950 . S
H1540 C1570 0.950 . S
H1541 C1571 0.950 . S
C1542 H1524 0.951 . S
C1542 C1543 1.366 . S
C1542 C1544 1.388 . S
C1543 C1542 1.366 . S
C1543 C1547 1.385 . S
C1544 H1525 0.951 . S
C1544 C1542 1.388 . S
C1544 C1545 1.366 . S
C1545 C1544 1.366 . S
C1545 C1546 1.414 . S
C1545 C1548 1.499 . S
C1546 H1526 0.950 . S
C1546 C1545 1.414 . S
C1546 C1547 1.374 . S
C1547 H1527 0.950 . S
C1547 C1543 1.385 . S
C1547 C1546 1.374 . S
C1548 C1545 1.499 . S
C1548 C1549 1.373 . S
C1548 C1550 1.389 . S
C1549 H1528 0.950 . S
C1549 C1548 1.373 . S
C1549 C1565 1.377 1_545 S
C1550 C1548 1.389 . S
C1550 C1551 1.524 . S
C1550 C1564 1.377 1_545 S
C1551 C1550 1.524 . S
C1551 C1552 1.397 . S
C1551 C1556 1.363 . S
C1552 H1529 0.950 . S
C1552 C1551 1.397 . S
C1552 C1553 1.334 . S
C1553 H1530 0.950 . S
C1553 C1552 1.334 . S
C1553 C1554 1.287 . S
C1554 C1553 1.287 . S
C1554 C1555 1.524 . S
C1554 H1573 0.913 . S
C1555 H1531 0.950 . S
C1555 C1554 1.524 . S
C1555 C1556 1.415 . S
C1556 H1532 0.950 . S
C1556 C1551 1.363 . S
C1556 C1555 1.415 . S
C1557 H1533 0.951 . S
C1557 C1558 1.366 . S
C1557 C1559 1.388 . S
C1558 C1557 1.366 . S
C1558 C1562 1.385 . S
C1559 H1534 0.951 . S
C1559 C1557 1.388 . S
C1559 C1560 1.366 . S
C1560 C1559 1.366 . S
C1560 C1561 1.414 . S
C1560 C1563 1.499 . S
C1561 H1535 0.950 . S
C1561 C1560 1.414 . S
C1561 C1562 1.374 . S
C1562 H1536 0.950 . S
C1562 C1558 1.385 . S
C1562 C1561 1.374 . S
C1563 C1560 1.499 . S
C1563 C1564 1.373 . S
C1563 C1565 1.389 . S
C1564 H1537 0.950 . S
C1564 C1550 1.377 1_565 S
C1564 C1563 1.373 . S
C1565 C1549 1.377 1_565 S
C1565 C1563 1.389 . S
C1565 C1566 1.524 . S
C1566 C1565 1.524 . S
C1566 C1567 1.397 . S
C1566 C1571 1.363 . S
C1567 H1538 0.950 . S
C1567 C1566 1.397 . S
C1567 C1568 1.334 . S
C1568 H1539 0.950 . S
C1568 C1567 1.334 . S
C1568 C1569 1.287 . S
C1569 C1568 1.287 . S
C1569 C1570 1.524 . S
C1569 H1572 0.999 . S
C1570 H1540 0.950 . S
C1570 C1569 1.524 . S
C1570 C1571 1.415 . S
C1571 H1541 0.950 . S
C1571 C1566 1.363 . S
C1571 C1570 1.415 . S
H1572 C1569 0.999 . S
H1573 C1554 0.913 . S
H1574 C1592 0.951 . S
H1575 C1594 0.951 . S
H1576 C1596 0.950 . S
H1577 C1597 0.950 . S
H1578 C1599 0.950 . S
H1579 C1602 0.950 . S
H1580 C1603 0.950 . S
H1581 C1605 0.950 . S
H1582 C1606 0.950 1_655 S
H1583 C1607 0.951 . S
H1584 C1609 0.951 . S
H1585 C1611 0.950 . S
H1586 C1612 0.950 . S
H1587 C1614 0.950 . S
H1588 C1617 0.950 . S
H1589 C1618 0.950 . S
H1590 C1620 0.950 . S
H1591 C1621 0.950 1_455 S
C1592 H1574 0.951 . S
C1592 C1593 1.366 . S
C1592 C1594 1.388 . S
C1593 C1592 1.366 . S
C1593 C1597 1.385 . S
C1594 H1575 0.951 . S
C1594 C1592 1.388 . S
C1594 C1595 1.366 . S
C1595 C1594 1.366 . S
C1595 C1596 1.414 . S
C1595 C1598 1.499 . S
C1596 H1576 0.950 . S
C1596 C1595 1.414 . S
C1596 C1597 1.374 . S
C1597 H1577 0.950 . S
C1597 C1593 1.385 . S
C1597 C1596 1.374 . S
C1598 C1595 1.499 . S
C1598 C1599 1.373 . S
C1598 C1600 1.389 . S
C1599 H1578 0.950 . S
C1599 C1598 1.373 . S
C1599 C1615 1.377 1_455 S
C1600 C1598 1.389 . S
C1600 C1601 1.524 . S
C1600 C1614 1.377 1_455 S
C1601 C1600 1.524 . S
C1601 C1602 1.397 . S
C1601 C1606 1.363 . S
C1602 H1579 0.950 . S
C1602 C1601 1.397 . S
C1602 C1603 1.334 . S
C1603 H1580 0.950 . S
C1603 C1602 1.334 . S
C1603 C1604 1.287 . S
C1604 C1603 1.287 . S
C1604 C1605 1.524 . S
C1604 H1623 0.913 . S
C1605 H1581 0.950 . S
C1605 C1604 1.524 . S
C1605 C1606 1.415 . S
C1606 H1582 0.950 1_455 S
C1606 C1601 1.363 . S
C1606 C1605 1.415 . S
C1607 H1583 0.951 . S
C1607 C1608 1.366 . S
C1607 C1609 1.388 . S
C1608 C1607 1.366 . S
C1608 C1612 1.385 . S
C1609 H1584 0.951 . S
C1609 C1607 1.388 . S
C1609 C1610 1.366 . S
C1610 C1609 1.366 . S
C1610 C1611 1.414 . S
C1610 C1613 1.499 . S
C1611 H1585 0.950 . S
C1611 C1610 1.414 . S
C1611 C1612 1.374 . S
C1612 H1586 0.950 . S
C1612 C1608 1.385 . S
C1612 C1611 1.374 . S
C1613 C1610 1.499 . S
C1613 C1614 1.373 . S
C1613 C1615 1.389 . S
C1614 H1587 0.950 . S
C1614 C1600 1.377 1_655 S
C1614 C1613 1.373 . S
C1615 C1599 1.377 1_655 S
C1615 C1613 1.389 . S
C1615 C1616 1.524 . S
C1616 C1615 1.524 . S
C1616 C1617 1.397 . S
C1616 C1621 1.363 . S
C1617 H1588 0.950 . S
C1617 C1616 1.397 . S
C1617 C1618 1.334 . S
C1618 H1589 0.950 . S
C1618 C1617 1.334 . S
C1618 C1619 1.287 . S
C1619 C1618 1.287 . S
C1619 C1620 1.524 . S
C1619 H1622 0.999 . S
C1620 H1590 0.950 . S
C1620 C1619 1.524 . S
C1620 C1621 1.415 . S
C1621 H1591 0.950 1_655 S
C1621 C1616 1.363 . S
C1621 C1620 1.415 . S
H1622 C1619 0.999 . S
H1623 C1604 0.913 . S
H1624 C1642 0.951 . S
H1625 C1644 0.951 . S
H1626 C1646 0.950 . S
H1627 C1647 0.950 . S
H1628 C1649 0.950 . S
H1629 C1652 0.950 . S
H1630 C1653 0.950 . S
H1631 C1655 0.950 . S
H1632 C1656 0.950 . S
H1633 C1657 0.951 . S
H1634 C1659 0.951 . S
H1635 C1661 0.950 . S
H1636 C1662 0.950 . S
H1637 C1664 0.950 . S
H1638 C1667 0.950 . S
H1639 C1668 0.950 . S
H1640 C1670 0.950 . S
H1641 C1671 0.950 . S
C1642 H1624 0.951 . S
C1642 C1643 1.366 . S
C1642 C1644 1.388 . S
C1643 C1642 1.366 . S
C1643 C1647 1.385 . S
C1644 H1625 0.951 . S
C1644 C1642 1.388 . S
C1644 C1645 1.366 . S
C1645 C1644 1.366 . S
C1645 C1646 1.414 . S
C1645 C1648 1.499 . S
C1646 H1626 0.950 . S
C1646 C1645 1.414 . S
C1646 C1647 1.374 . S
C1647 H1627 0.950 . S
C1647 C1643 1.385 . S
C1647 C1646 1.374 . S
C1648 C1645 1.499 . S
C1648 C1649 1.373 . S
C1648 C1650 1.389 . S
C1649 H1628 0.950 . S
C1649 C1648 1.373 . S
C1649 C1665 1.377 1_545 S
C1650 C1648 1.389 . S
C1650 C1651 1.524 . S
C1650 C1664 1.377 1_545 S
C1651 C1650 1.524 . S
C1651 C1652 1.397 . S
C1651 C1656 1.363 . S
C1652 H1629 0.950 . S
C1652 C1651 1.397 . S
C1652 C1653 1.334 . S
C1653 H1630 0.950 . S
C1653 C1652 1.334 . S
C1653 C1654 1.287 . S
C1654 C1653 1.287 . S
C1654 C1655 1.524 . S
C1654 H1673 0.913 . S
C1655 H1631 0.950 . S
C1655 C1654 1.524 . S
C1655 C1656 1.415 . S
C1656 H1632 0.950 . S
C1656 C1651 1.363 . S
C1656 C1655 1.415 . S
C1657 H1633 0.951 . S
C1657 C1658 1.366 . S
C1657 C1659 1.388 . S
C1658 C1657 1.366 . S
C1658 C1662 1.385 . S
C1659 H1634 0.951 . S
C1659 C1657 1.388 . S
C1659 C1660 1.366 . S
C1660 C1659 1.366 . S
C1660 C1661 1.414 . S
C1660 C1663 1.499 . S
C1661 H1635 0.950 . S
C1661 C1660 1.414 . S
C1661 C1662 1.374 . S
C1662 H1636 0.950 . S
C1662 C1658 1.385 . S
C1662 C1661 1.374 . S
C1663 C1660 1.499 . S
C1663 C1664 1.373 . S
C1663 C1665 1.389 . S
C1664 H1637 0.950 . S
C1664 C1650 1.377 1_565 S
C1664 C1663 1.373 . S
C1665 C1649 1.377 1_565 S
C1665 C1663 1.389 . S
C1665 C1666 1.524 . S
C1666 C1665 1.524 . S
C1666 C1667 1.397 . S
C1666 C1671 1.363 . S
C1667 H1638 0.950 . S
C1667 C1666 1.397 . S
C1667 C1668 1.334 . S
C1668 H1639 0.950 . S
C1668 C1667 1.334 . S
C1668 C1669 1.287 . S
C1669 C1668 1.287 . S
C1669 C1670 1.524 . S
C1669 H1672 0.999 . S
C1670 H1640 0.950 . S
C1670 C1669 1.524 . S
C1670 C1671 1.415 . S
C1671 H1641 0.950 . S
C1671 C1666 1.363 . S
C1671 C1670 1.415 . S
H1672 C1669 0.999 . S
H1673 C1654 0.913 . S
H1674 C1692 0.951 . S
H1675 C1694 0.951 . S
H1676 C1696 0.950 . S
H1677 C1697 0.950 . S
H1678 C1699 0.950 . S
H1679 C1702 0.950 . S
H1680 C1703 0.950 . S
H1681 C1705 0.950 . S
H1682 C1706 0.950 . S
H1683 C1707 0.951 . S
H1684 C1709 0.951 . S
H1685 C1711 0.950 . S
H1686 C1712 0.950 . S
H1687 C1714 0.950 . S
H1688 C1717 0.950 . S
H1689 C1718 0.950 . S
H1690 C1720 0.950 . S
H1691 C1721 0.950 . S
C1692 H1674 0.951 . S
C1692 C1693 1.366 . S
C1692 C1694 1.388 . S
C1693 C1692 1.366 . S
C1693 C1697 1.385 . S
C1694 H1675 0.951 . S
C1694 C1692 1.388 . S
C1694 C1695 1.366 . S
C1695 C1694 1.366 . S
C1695 C1696 1.414 . S
C1695 C1698 1.499 . S
C1696 H1676 0.950 . S
C1696 C1695 1.414 . S
C1696 C1697 1.374 . S
C1697 H1677 0.950 . S
C1697 C1693 1.385 . S
C1697 C1696 1.374 . S
C1698 C1695 1.499 . S
C1698 C1699 1.373 . S
C1698 C1700 1.389 . S
C1699 H1678 0.950 . S
C1699 C1698 1.373 . S
C1699 C1715 1.377 1_655 S
C1700 C1698 1.389 . S
C1700 C1701 1.524 . S
C1700 C1714 1.377 1_655 S
C1701 C1700 1.524 . S
C1701 C1702 1.397 . S
C1701 C1706 1.363 . S
C1702 H1679 0.950 . S
C1702 C1701 1.397 . S
C1702 C1703 1.334 . S
C1703 H1680 0.950 . S
C1703 C1702 1.334 . S
C1703 C1704 1.287 . S
C1704 C1703 1.287 . S
C1704 C1705 1.524 . S
C1704 H1723 0.913 . S
C1705 H1681 0.950 . S
C1705 C1704 1.524 . S
C1705 C1706 1.415 . S
C1706 H1682 0.950 . S
C1706 C1701 1.363 . S
C1706 C1705 1.415 . S
C1707 H1683 0.951 . S
C1707 C1708 1.366 . S
C1707 C1709 1.388 . S
C1708 C1707 1.366 . S
C1708 C1712 1.385 . S
C1709 H1684 0.951 . S
C1709 C1707 1.388 . S
C1709 C1710 1.366 . S
C1710 C1709 1.366 . S
C1710 C1711 1.414 . S
C1710 C1713 1.499 . S
C1711 H1685 0.950 . S
C1711 C1710 1.414 . S
C1711 C1712 1.374 . S
C1712 H1686 0.950 . S
C1712 C1708 1.385 . S
C1712 C1711 1.374 . S
C1713 C1710 1.499 . S
C1713 C1714 1.373 . S
C1713 C1715 1.389 . S
C1714 H1687 0.950 . S
C1714 C1700 1.377 1_455 S
C1714 C1713 1.373 . S
C1715 C1699 1.377 1_455 S
C1715 C1713 1.389 . S
C1715 C1716 1.524 . S
C1716 C1715 1.524 . S
C1716 C1717 1.397 . S
C1716 C1721 1.363 . S
C1717 H1688 0.950 . S
C1717 C1716 1.397 . S
C1717 C1718 1.334 . S
C1718 H1689 0.950 . S
C1718 C1717 1.334 . S
C1718 C1719 1.287 . S
C1719 C1718 1.287 . S
C1719 C1720 1.524 . S
C1719 H1722 0.999 . S
C1720 H1690 0.950 . S
C1720 C1719 1.524 . S
C1720 C1721 1.415 . S
C1721 H1691 0.950 . S
C1721 C1716 1.363 . S
C1721 C1720 1.415 . S
H1722 C1719 0.999 . S
H1723 C1704 0.913 . S
H1724 C1742 0.951 . S
H1725 C1744 0.951 . S
H1726 C1746 0.950 . S
H1727 C1747 0.950 . S
H1728 C1749 0.950 . S
H1729 C1752 0.950 . S
H1730 C1753 0.950 . S
H1731 C1755 0.950 . S
H1732 C1756 0.950 . S
H1733 C1757 0.951 . S
H1734 C1759 0.951 . S
H1735 C1761 0.950 . S
H1736 C1762 0.950 . S
H1737 C1764 0.950 . S
H1738 C1767 0.950 . S
H1739 C1768 0.950 . S
H1740 C1770 0.950 . S
H1741 C1771 0.950 . S
C1742 H1724 0.951 . S
C1742 C1743 1.366 . S
C1742 C1744 1.388 . S
C1743 C1742 1.366 . S
C1743 C1747 1.385 . S
C1744 H1725 0.951 . S
C1744 C1742 1.388 . S
C1744 C1745 1.366 . S
C1745 C1744 1.366 . S
C1745 C1746 1.414 . S
C1745 C1748 1.499 . S
C1746 H1726 0.950 . S
C1746 C1745 1.414 . S
C1746 C1747 1.374 . S
C1747 H1727 0.950 . S
C1747 C1743 1.385 . S
C1747 C1746 1.374 . S
C1748 C1745 1.499 . S
C1748 C1749 1.373 . S
C1748 C1750 1.389 . S
C1749 H1728 0.950 . S
C1749 C1748 1.373 . S
C1749 C1765 1.377 1_565 S
C1750 C1748 1.389 . S
C1750 C1751 1.524 . S
C1750 C1764 1.377 1_565 S
C1751 C1750 1.524 . S
C1751 C1752 1.397 . S
C1751 C1756 1.363 . S
C1752 H1729 0.950 . S
C1752 C1751 1.397 . S
C1752 C1753 1.334 . S
C1753 H1730 0.950 . S
C1753 C1752 1.334 . S
C1753 C1754 1.287 . S
C1754 C1753 1.287 . S
C1754 C1755 1.524 . S
C1754 H1773 0.913 . S
C1755 H1731 0.950 . S
C1755 C1754 1.524 . S
C1755 C1756 1.415 . S
C1756 H1732 0.950 . S
C1756 C1751 1.363 . S
C1756 C1755 1.415 . S
C1757 H1733 0.951 . S
C1757 C1758 1.366 . S
C1757 C1759 1.388 . S
C1758 C1757 1.366 . S
C1758 C1762 1.385 . S
C1759 H1734 0.951 . S
C1759 C1757 1.388 . S
C1759 C1760 1.366 . S
C1760 C1759 1.366 . S
C1760 C1761 1.414 . S
C1760 C1763 1.499 . S
C1761 H1735 0.950 . S
C1761 C1760 1.414 . S
C1761 C1762 1.374 . S
C1762 H1736 0.950 . S
C1762 C1758 1.385 . S
C1762 C1761 1.374 . S
C1763 C1760 1.499 . S
C1763 C1764 1.373 . S
C1763 C1765 1.389 . S
C1764 H1737 0.950 . S
C1764 C1750 1.377 1_545 S
C1764 C1763 1.373 . S
C1765 C1749 1.377 1_545 S
C1765 C1763 1.389 . S
C1765 C1766 1.524 . S
C1766 C1765 1.524 . S
C1766 C1767 1.397 . S
C1766 C1771 1.363 . S
C1767 H1738 0.950 . S
C1767 C1766 1.397 . S
C1767 C1768 1.334 . S
C1768 H1739 0.950 . S
C1768 C1767 1.334 . S
C1768 C1769 1.287 . S
C1769 C1768 1.287 . S
C1769 C1770 1.524 . S
C1769 H1772 0.999 . S
C1770 H1740 0.950 . S
C1770 C1769 1.524 . S
C1770 C1771 1.415 . S
C1771 H1741 0.950 . S
C1771 C1766 1.363 . S
C1771 C1770 1.415 . S
H1772 C1769 0.999 . S
H1773 C1754 0.913 . S
H1774 C1792 0.951 . S
H1775 C1794 0.951 . S
H1776 C1796 0.950 . S
H1777 C1797 0.950 . S
H1778 C1799 0.950 . S
H1779 C1802 0.950 . S
H1780 C1803 0.950 . S
H1781 C1805 0.950 1_655 S
H1782 C1806 0.949 1_655 S
H1783 C1807 0.951 . S
H1784 C1809 0.951 . S
H1785 C1811 0.950 . S
H1786 C1812 0.950 . S
H1787 C1814 0.950 . S
H1788 C1817 0.950 . S
H1789 C1818 0.950 . S
H1790 C1820 0.950 1_455 S
H1791 C1821 0.949 1_455 S
C1792 H1774 0.951 . S
C1792 C1793 1.366 . S
C1792 C1794 1.388 . S
C1793 C1792 1.366 . S
C1793 C1797 1.385 . S
C1794 H1775 0.951 . S
C1794 C1792 1.388 . S
C1794 C1795 1.366 . S
C1795 C1794 1.366 . S
C1795 C1796 1.414 . S
C1795 C1798 1.499 . S
C1796 H1776 0.950 . S
C1796 C1795 1.414 . S
C1796 C1797 1.374 . S
C1797 H1777 0.950 . S
C1797 C1793 1.385 . S
C1797 C1796 1.374 . S
C1798 C1795 1.499 . S
C1798 C1799 1.373 . S
C1798 C1800 1.389 . S
C1799 H1778 0.950 . S
C1799 C1798 1.373 . S
C1799 C1815 1.377 1_455 S
C1800 C1798 1.389 . S
C1800 C1801 1.524 . S
C1800 C1814 1.377 1_455 S
C1801 C1800 1.524 . S
C1801 C1802 1.397 . S
C1801 C1806 1.364 . S
C1802 H1779 0.950 . S
C1802 C1801 1.397 . S
C1802 C1803 1.334 . S
C1803 H1780 0.950 . S
C1803 C1802 1.334 . S
C1803 C1804 1.287 . S
C1804 C1803 1.287 . S
C1804 C1805 1.524 . S
C1804 H1823 0.913 . S
C1805 H1781 0.950 1_455 S
C1805 C1804 1.524 . S
C1805 C1806 1.415 . S
C1806 H1782 0.949 1_455 S
C1806 C1801 1.364 . S
C1806 C1805 1.415 . S
C1807 H1783 0.951 . S
C1807 C1808 1.366 . S
C1807 C1809 1.388 . S
C1808 C1807 1.366 . S
C1808 C1812 1.385 . S
C1809 H1784 0.951 . S
C1809 C1807 1.388 . S
C1809 C1810 1.366 . S
C1810 C1809 1.366 . S
C1810 C1811 1.414 . S
C1810 C1813 1.499 . S
C1811 H1785 0.950 . S
C1811 C1810 1.414 . S
C1811 C1812 1.374 . S
C1812 H1786 0.950 . S
C1812 C1808 1.385 . S
C1812 C1811 1.374 . S
C1813 C1810 1.499 . S
C1813 C1814 1.373 . S
C1813 C1815 1.389 . S
C1814 H1787 0.950 . S
C1814 C1800 1.377 1_655 S
C1814 C1813 1.373 . S
C1815 C1799 1.377 1_655 S
C1815 C1813 1.389 . S
C1815 C1816 1.524 . S
C1816 C1815 1.524 . S
C1816 C1817 1.397 . S
C1816 C1821 1.364 . S
C1817 H1788 0.950 . S
C1817 C1816 1.397 . S
C1817 C1818 1.334 . S
C1818 H1789 0.950 . S
C1818 C1817 1.334 . S
C1818 C1819 1.287 . S
C1819 C1818 1.287 . S
C1819 C1820 1.524 . S
C1819 H1822 0.999 . S
C1820 H1790 0.950 1_655 S
C1820 C1819 1.524 . S
C1820 C1821 1.415 . S
C1821 H1791 0.949 1_655 S
C1821 C1816 1.364 . S
C1821 C1820 1.415 . S
H1822 C1819 0.999 . S
H1823 C1804 0.913 . S
C243 C81 1.255 . S
C258 C11 1.255 . S
C293 C95 1.255 . S
C308 C25 1.255 . S
C343 C39 1.254 . S
C358 C109 1.255 . S
C393 C53 1.255 . S
C408 C67 1.255 . S
C443 C193 1.255 . S
C458 C123 1.254 . S
C493 C207 1.255 . S
C508 C137 1.255 . S
C543 C151 1.255 . S
C558 C221 1.255 . S
C593 C165 1.255 . S
C608 C179 1.254 . S
C643 C153 1.394 . S
C658 C13 1.395 . S
C693 C167 1.394 . S
C708 C27 1.395 . S
C743 C125 1.395 . S
C758 C41 1.394 . S
C793 C55 1.394 . S
C808 C139 1.394 . S
C843 C209 1.394 . S
C858 C69 1.395 . S
C893 C223 1.395 . S
C908 C83 1.394 . S
C943 C97 1.394 . S
C958 C181 1.395 . S
C993 C195 1.394 . S
C1008 C111 1.395 . S
C1043 C64 1.587 . S
C1058 C8 1.587 . S
C1093 C22 1.587 . S
C1108 C78 1.587 . S
C1143 C36 1.587 . S
C1158 C92 1.587 . S
C1193 C106 1.587 . S
C1208 C50 1.588 . S
C1243 C119 1.152 . S
C1258 C175 1.152 . S
C1293 C189 1.152 . S
C1308 C133 1.151 . S
C1343 C147 1.152 . S
C1358 C203 1.152 . S
C1393 C217 1.152 . S
C1408 C161 1.152 . S
C1443 C162 1.587 . S
C1458 C190 1.587 . S
C1493 C120 1.587 . S
C1508 C204 1.588 . S
C1543 C218 1.587 . S
C1558 C134 1.587 . S
C1593 C148 1.587 . S
C1608 C176 1.587 . S
C1643 C77 1.151 . S
C1658 C49 1.152 . S
C1693 C91 1.152 . S
C1708 C7 1.152 . S
C1743 C105 1.152 . S
C1758 C21 1.152 . S
C1793 C63 1.152 . S
C1808 C35 1.152 . S
