# Generated by pormake.
# Topology smd, (6)-cn, num edge types: 1
# Building blocks:
#     Node 0, Type 0, BuildingBlock: BETDIP_clean_sbu_0, # of connection points: 6
#     Node 1, Type 0, BuildingBlock: BETDIP_clean_sbu_0, # of connection points: 6
#     Node 2, Type 0, BuildingBlock: BETDIP_clean_sbu_0, # of connection points: 6
#     Node 3, Type 0, BuildingBlock: BETDIP_clean_sbu_0, # of connection points: 6
#     Node 4, Type 0, BuildingBlock: BETDIP_clean_sbu_0, # of connection points: 6
#     Node 5, Type 0, BuildingBlock: BETDIP_clean_sbu_0, # of connection points: 6
#     Node 6, Type 0, BuildingBlock: BETDIP_clean_sbu_0, # of connection points: 6
#     Node 7, Type 0, BuildingBlock: BETDIP_clean_sbu_0, # of connection points: 6
#     Node 8, Type 0, BuildingBlock: BETDIP_clean_sbu_0, # of connection points: 6
#     Node 9, Type 0, BuildingBlock: BETDIP_clean_sbu_0, # of connection points: 6
#     Node 10, Type 0, BuildingBlock: BETDIP_clean_sbu_0, # of connection points: 6
#     Node 11, Type 0, BuildingBlock: BETDIP_clean_sbu_0, # of connection points: 6
#     Node 12, Type 0, BuildingBlock: BETDIP_clean_sbu_0, # of connection points: 6
#     Node 13, Type 0, BuildingBlock: BETDIP_clean_sbu_0, # of connection points: 6
#     Node 14, Type 0, BuildingBlock: BETDIP_clean_sbu_0, # of connection points: 6
#     Node 15, Type 0, BuildingBlock: BETDIP_clean_sbu_0, # of connection points: 6
#     Node 16, Type 0, BuildingBlock: BETDIP_clean_sbu_0, # of connection points: 6
#     Node 17, Type 0, BuildingBlock: BETDIP_clean_sbu_0, # of connection points: 6
#     Edge 18, Type (0, 0), None
#     Edge 19, Type (0, 0), None
#     Edge 20, Type (0, 0), None
#     Edge 21, Type (0, 0), None
#     Edge 22, Type (0, 0), None
#     Edge 23, Type (0, 0), None
#     Edge 24, Type (0, 0), None
#     Edge 25, Type (0, 0), None
#     Edge 26, Type (0, 0), None
#     Edge 27, Type (0, 0), None
#     Edge 28, Type (0, 0), None
#     Edge 29, Type (0, 0), None
#     Edge 30, Type (0, 0), None
#     Edge 31, Type (0, 0), None
#     Edge 32, Type (0, 0), None
#     Edge 33, Type (0, 0), None
#     Edge 34, Type (0, 0), None
#     Edge 35, Type (0, 0), None
#     Edge 36, Type (0, 0), None
#     Edge 37, Type (0, 0), None
#     Edge 38, Type (0, 0), None
#     Edge 39, Type (0, 0), None
#     Edge 40, Type (0, 0), None
#     Edge 41, Type (0, 0), None
#     Edge 42, Type (0, 0), None
#     Edge 43, Type (0, 0), None
#     Edge 44, Type (0, 0), None
#     Edge 45, Type (0, 0), None
#     Edge 46, Type (0, 0), None
#     Edge 47, Type (0, 0), None
#     Edge 48, Type (0, 0), None
#     Edge 49, Type (0, 0), None
#     Edge 50, Type (0, 0), None
#     Edge 51, Type (0, 0), None
#     Edge 52, Type (0, 0), None
#     Edge 53, Type (0, 0), None
#     Edge 54, Type (0, 0), None
#     Edge 55, Type (0, 0), None
#     Edge 56, Type (0, 0), None
#     Edge 57, Type (0, 0), None
#     Edge 58, Type (0, 0), None
#     Edge 59, Type (0, 0), None
#     Edge 60, Type (0, 0), None
#     Edge 61, Type (0, 0), None
#     Edge 62, Type (0, 0), None
#     Edge 63, Type (0, 0), None
#     Edge 64, Type (0, 0), None
#     Edge 65, Type (0, 0), None
#     Edge 66, Type (0, 0), None
#     Edge 67, Type (0, 0), None
#     Edge 68, Type (0, 0), None
#     Edge 69, Type (0, 0), None
#     Edge 70, Type (0, 0), None
#     Edge 71, Type (0, 0), None
# Relax obj value: 0.402
# Max RMSD: 0.459
# Mean RMSD: 0.430
data_MOF--net-smd--node1-BETDIP_clean_sbu_0--edge1-none
_symmetry_space_group_name_H-M    P1
_symmetry_Int_Tables_number       1
_symmetry_cell_setting            triclinic
loop_
_symmetry_equiv_pos_as_xyz
'x, y, z'
_cell_length_a     28.476503
_cell_length_b     28.802306
_cell_length_c     15.058805
_cell_angle_alpha  93.108825
_cell_angle_beta   92.700747
_cell_angle_gamma 119.94979
loop_
_atom_site_label
_atom_site_type_symbol
_atom_site_fract_x
_atom_site_fract_y
_atom_site_fract_z
_atom_type_partial_charge
Tb0 Tb 0.01951 0.24472 0.63724 0.0
Tb1 Tb 0.9671 0.22354 0.52013 0.0
C2 C 0.0657 0.26943 0.79545 0.0
C3 C 0.04011 0.25053 0.88027 0.0
C4 C 0.98334 0.22063 0.8798 0.0
C5 C 0.9579 0.20098 0.95709 0.0
C6 C 0.98851 0.21211 1.03937 0.0
C7 C 0.0458 0.24091 1.03986 0.0
C8 C 0.07113 0.25898 0.96109 0.0
C9 C 0.05568 0.19043 0.53963 0.0
C10 C 0.91479 0.12889 0.62045 0.0
C11 C 0.9056 0.20434 0.3829 0.0
C12 C 0.9202 0.19536 0.29317 0.0
C13 C 0.96526 0.18829 0.2839 0.0
C14 C 0.98644 0.19121 0.20107 0.0
C15 C 0.96113 0.19821 0.12459 0.0
C16 C 0.91075 0.19565 0.13254 0.0
C17 C 0.89165 0.19628 0.21621 0.0
C18 C 0.9265 0.2559 0.69926 0.0
C19 C 0.06387 0.31516 0.45875 0.0
O20 O 0.05235 0.29958 0.75254 0.0
O21 O 0.06337 0.23238 0.7403 0.0
O22 O 0.04741 0.22743 0.51672 0.0
O23 O 0.02805 0.17398 0.60797 0.0
O24 O 0.94148 0.17311 0.67378 0.0
O25 O 0.92853 0.13799 0.54002 0.0
O26 O 0.89726 0.16772 0.43791 0.0
O27 O 0.93743 0.25296 0.4207 0.0
O28 O 0.95934 0.26987 0.63561 0.0
O29 O 0.96078 0.27257 0.63578 0.0
O30 O 0.02276 0.27086 0.42554 0.0
O31 O 0.0706 0.31764 0.54967 0.0
H32 H 0.95795 0.21221 0.81977 0.0
H33 H 0.91397 0.17732 0.95144 0.0
H34 H 0.0715 0.25117 0.10133 0.0
H35 H 0.11498 0.28018 0.96465 0.0
H36 H 0.98556 0.18264 0.34135 0.0
H37 H 0.02305 0.1888 0.19763 0.0
H38 H 0.88685 0.19565 1.07493 0.0
H39 H 0.85422 0.19656 0.22077 0.0
Tb40 Tb 0.78007 0.75217 0.56218 0.0
Tb41 Tb 0.75818 0.78116 0.67269 0.0
C42 C 0.78142 0.71119 0.41325 0.0
C43 C 0.78215 0.73536 0.3289 0.0
C44 C 0.74208 0.70584 0.25881 0.0
C45 C 0.74497 0.72753 0.17739 0.0
C46 C 0.78611 0.77993 0.16607 0.0
C47 C 0.82323 0.81156 0.23835 0.0
C48 C 0.82159 0.78928 0.31914 0.0
C49 C 0.87396 0.79623 0.65921 0.0
C50 C 0.80885 0.87476 0.56361 0.0
C51 C 0.74642 0.82145 0.81451 0.0
C52 C 0.77059 0.82111 0.90391 0.0
C53 C 0.78976 0.78538 0.91818 0.0
C54 C 0.79747 0.77367 1.00442 0.0
C55 C 0.78962 0.80027 1.07779 0.0
C56 C 0.78005 0.84264 1.06432 0.0
C57 C 0.77152 0.85333 0.97739 0.0
C58 C 0.69202 0.77642 0.49071 0.0
C59 C 0.73791 0.67822 0.73851 0.0
O60 O 0.73713 0.69282 0.45421 0.0
O61 O 0.82445 0.73766 0.46838 0.0
O62 O 0.8271 0.76659 0.68592 0.0
O63 O 0.86764 0.81004 0.58113 0.0
O64 O 0.79673 0.83163 0.51063 0.0
O65 O 0.80705 0.86545 0.64664 0.0
O66 O 0.78081 0.85054 0.75852 0.0
O67 O 0.70972 0.77403 0.77667 0.0
O68 O 0.70111 0.75002 0.55128 0.0
O69 O 0.6992 0.74772 0.55009 0.0
O70 O 0.72429 0.71385 0.75602 0.0
O71 O 0.76082 0.68414 0.65975 0.0
H72 H 0.70897 0.66579 0.26637 0.0
H73 H 0.71494 0.70348 0.12268 0.0
H74 H 0.85471 0.85251 0.23121 0.0
H75 H 0.85196 0.81404 0.37312 0.0
H76 H 0.79754 0.76534 0.86341 0.0
H77 H 0.80771 0.74261 1.01372 0.0
H78 H 0.77604 0.86516 0.12045 0.0
H79 H 0.76327 0.88488 0.96746 0.0
Tb80 Tb 0.21769 0.00439 0.67753 0.0
Tb81 Tb 0.26179 0.05428 0.58463 0.0
C82 C 0.19062 0.95401 0.81538 0.0
C83 C 0.20302 0.97351 0.91089 0.0
C84 C 0.25666 -0.00045 0.94978 0.0
C85 C 0.26878 0.02204 1.03781 0.0
C86 C 0.22726 0.01742 0.08971 0.0
C87 C 0.17312 0.98907 1.05245 0.0
C88 C 0.16116 0.96766 0.96331 0.0
C89 C 0.13214 0.95779 0.56625 0.0
C90 C 0.19479 0.0959 0.64587 0.0
C91 C 0.29856 0.10749 0.45379 0.0
C92 C 0.27725 0.08633 0.36046 0.0
C93 C 0.23216 0.03421 0.34117 0.0
C94 C 0.2146 0.0119 0.25294 0.0
C95 C 0.24125 0.04197 0.18268 0.0
C96 C 0.28346 0.09535 0.20194 0.0
C97 C 0.30146 0.1171 0.29021 0.0
C98 C 0.32177 0.09643 0.75663 0.0
C99 C 0.25925 0.96229 0.49455 0.0
O100 O 0.23059 0.95973 0.77001 0.0
O101 O 0.16046 0.96815 0.77156 0.0
O102 O 0.18149 0.97241 0.54946 0.0
O103 O 0.13591 0.98654 0.63778 0.0
O104 O 0.21116 0.07946 0.7142 0.0
O105 O 0.19929 0.07478 0.57155 0.0
O106 O 0.26486 0.11261 0.50349 0.0
O107 O 0.32159 0.08398 0.49379 0.0
O108 O 0.30235 0.05042 0.7154 0.0
O109 O 0.30898 0.12073 0.6986 0.0
O110 O 0.29133 0.01312 0.4998 0.0
O111 O 0.2252 0.94784 0.56181 0.0
H112 H 0.28921 0.00222 0.91219 0.0
H113 H 0.31057 0.04204 1.06608 0.0
H114 H 0.14037 0.98471 0.09145 0.0
H115 H 0.11936 0.94735 0.93486 0.0
H116 H 0.21108 0.01033 0.3943 0.0
H117 H 0.18141 0.97078 0.23985 0.0
H118 H 0.30236 0.12009 0.14833 0.0
H119 H 0.33329 0.15808 0.30388 0.0
Tb120 Tb 0.03704 0.79795 0.65296 0.0
Tb121 Tb 0.98772 0.78112 0.54302 0.0
C122 C 0.09312 0.81179 0.79486 0.0
C123 C 0.07728 0.82159 0.88369 0.0
C124 C 0.03621 0.83509 0.89033 0.0
C125 C 0.01418 0.83492 0.97215 0.0
C126 C 0.03362 0.82229 1.04952 0.0
C127 C 0.07598 0.81097 1.04262 0.0
C128 C 0.09648 0.80948 0.9609 0.0
C129 C 0.07445 0.77746 0.45833 0.0
C130 C 0.94442 0.69706 0.70078 0.0
C131 C 0.93985 0.77629 0.39152 0.0
C132 C 0.96305 0.79246 0.30358 0.0
C133 C 0.01951 0.81913 0.29845 0.0
C134 C 0.04224 0.83206 0.21709 0.0
C135 C 0.00912 0.81783 0.13679 0.0
C136 C 0.9526 0.79483 0.1417 0.0
C137 C 0.93008 0.78342 0.2245 0.0
C138 C 0.92251 0.79098 0.68745 0.0
C139 C 0.09043 0.89918 0.57279 0.0
O140 O 0.10617 0.84929 0.73981 0.0
O141 O 0.05978 0.76413 0.75508 0.0
O142 O 0.05099 0.76042 0.53141 0.0
O143 O 0.0503 0.7572 0.53214 0.0
O144 O 0.98334 0.74101 0.73963 0.0
O145 O 0.93766 0.69985 0.61137 0.0
O146 O 0.95735 0.81549 0.45311 0.0
O147 O 0.9406 0.73583 0.4246 0.0
O148 O 0.96851 0.81642 0.65169 0.0
O149 O 0.9689 0.81812 0.65349 0.0
O150 O 0.06084 0.8607 0.50919 0.0
O151 O 0.08106 0.88336 0.6513 0.0
H152 H 0.01983 0.84397 0.83156 0.0
H153 H 0.98185 0.84429 0.9746 0.0
H154 H 0.09196 0.80104 0.10024 0.0
H155 H 0.12645 0.79754 0.95822 0.0
H156 H 0.04679 0.83001 0.35693 0.0
H157 H 0.08612 0.85215 0.21723 0.0
H158 H 0.92548 0.78337 1.08155 0.0
H159 H 0.88649 0.76414 0.22549 0.0
Tb160 Tb 0.22501 0.21296 0.50191 0.0
Tb161 Tb 0.20971 0.26228 0.62676 0.0
C162 C 0.2332 0.16917 0.35934 0.0
C163 C 0.2258 0.18187 0.2673 0.0
C164 C 0.19079 0.14251 0.19895 0.0
C165 C 0.18282 0.15787 0.11443 0.0
C166 C 0.20808 0.21288 0.09934 0.0
C167 C 0.24017 0.25098 0.17019 0.0
C168 C 0.25143 0.23583 0.24945 0.0
C169 C 0.30797 0.25504 0.64768 0.0
C170 C 0.23979 0.31682 0.43179 0.0
C171 C 0.21143 0.30855 0.77034 0.0
C172 C 0.20572 0.28315 0.85452 0.0
C173 C 0.25132 0.30581 0.9153 0.0
C174 C 0.25143 0.28125 0.99116 0.0
C175 C 0.20615 0.23313 1.01083 0.0
C176 C 0.16101 0.20782 0.9472 0.0
C177 C 0.16132 0.23225 0.86847 0.0
C178 C 0.11168 0.19717 0.55054 0.0
C179 C 0.1813 0.13995 0.63829 0.0
O180 O 0.18973 0.14685 0.40293 0.0
O181 O 0.27435 0.20759 0.40974 0.0
O182 O 0.28628 0.27683 0.60446 0.0
O183 O 0.286 0.20825 0.60262 0.0
O184 O 0.22866 0.26871 0.40704 0.0
O185 O 0.23771 0.32581 0.52071 0.0
O186 O 0.2557 0.31919 0.73364 0.0
O187 O 0.16959 0.28886 0.71189 0.0
O188 O 0.15407 0.22686 0.50978 0.0
O189 O 0.128 0.1973 0.63167 0.0
O190 O 0.20641 0.18802 0.6851 0.0
O191 O 0.16698 0.14163 0.55649 0.0
H192 H 0.17032 0.1003 0.21052 0.0
H193 H 0.15775 0.12705 1.06145 0.0
H194 H 0.25876 0.29359 0.16442 0.0
H195 H 0.28126 0.2677 0.29655 0.0
H196 H 0.28812 0.34217 0.90312 0.0
H197 H 0.2876 0.30126 1.03581 0.0
H198 H 0.12558 0.17001 0.95842 0.0
H199 H 0.12727 0.21099 0.81888 0.0
Tb200 Tb 0.74287 0.97012 0.60109 0.0
Tb201 Tb 0.77228 0.01667 0.5394 0.0
C202 C 0.72094 0.91861 0.73522 0.0
C203 C 0.73491 0.93965 0.82841 0.0
C204 C 0.78593 0.98453 0.85823 0.0
C205 C 0.79869 0.00213 0.94883 0.0
C206 C 0.76036 0.97526 1.0104 0.0
C207 C 0.70952 0.93192 0.978 0.0
C208 C 0.69673 0.91457 0.88812 0.0
C209 C 0.67338 0.93317 0.44089 0.0
C210 C 0.7312 0.05477 0.71047 0.0
C211 C 0.80753 0.03935 0.38677 0.0
C212 C 0.79321 0.0212 0.29199 0.0
C213 C 0.75755 0.96739 0.26136 0.0
C214 C 0.74795 0.95195 0.17002 0.0
C215 C 0.77305 0.99045 0.10784 0.0
C216 C 0.81004 0.04382 0.14003 0.0
C217 C 0.82105 0.05803 0.23114 0.0
C218 C 0.85652 0.08841 0.63085 0.0
C219 C 0.79244 0.91525 0.53614 0.0
O220 O 0.7629 0.92915 0.69199 0.0
O221 O 0.68576 0.92734 0.69132 0.0
O222 O 0.68667 0.97397 0.49579 0.0
O223 O 0.70081 0.91346 0.47668 0.0
O224 O 0.71386 0.00404 0.70849 0.0
O225 O 0.75597 0.07257 0.63654 0.0
O226 O 0.81349 0.00692 0.43544 0.0
O227 O 0.78188 0.05991 0.42648 0.0
O228 O 0.83565 0.03664 0.62971 0.0
O229 O 0.8219 0.09878 0.59127 0.0
O230 O 0.81831 0.96797 0.55866 0.0
O231 O 0.74203 0.90017 0.5351 0.0
H232 H 0.81619 0.00538 0.812 0.0
H233 H 0.83903 0.03523 0.97012 0.0
H234 H 0.68102 0.90834 1.02234 0.0
H235 H 0.65775 0.88003 0.86514 0.0
H236 H 0.73854 0.93711 0.30754 0.0
H237 H 0.72146 0.90969 0.14915 0.0
H238 H 0.83035 0.07494 0.09558 0.0
H239 H 0.85128 0.09799 0.25501 0.0
Tb240 Tb 0.63219 0.54852 0.86705 0.0
Tb241 Tb 0.68562 0.56801 0.98227 0.0
C242 C 0.58437 0.53794 0.71247 0.0
C243 C 0.60662 0.53788 0.62381 0.0
C244 C 0.66043 0.54926 0.62123 0.0
C245 C 0.68228 0.54704 0.54136 0.0
C246 C 0.65146 0.5349 0.45927 0.0
C247 C 0.59711 0.52273 0.46034 0.0
C248 C 0.57512 0.52418 0.5415 0.0
C249 C 0.58299 0.4563 0.95065 0.0
C250 C 0.72657 0.51841 0.86061 0.0
C251 C 0.74553 0.59254 0.12311 0.0
C252 C 0.72568 0.57105 0.20964 0.0
C253 C 0.67564 0.52309 0.2134 0.0
C254 C 0.65133 0.50978 0.29446 0.0
C255 C 0.67836 0.5424 0.37407 0.0
C256 C 0.73084 0.58645 0.37059 0.0
C257 C 0.75251 0.60211 0.28914 0.0
C258 C 0.73357 0.63784 0.8096 0.0
C259 C 0.60413 0.58822 1.06236 0.0
O260 O 0.60849 0.58245 0.76432 0.0
O261 O 0.5765 0.49864 0.75879 0.0
O262 O 0.60064 0.50431 0.98117 0.0
O263 O 0.60435 0.46206 0.87538 0.0
O264 O 0.70173 0.539 0.81659 0.0
O265 O 0.7096 0.51014 0.93902 0.0
O266 O 0.74232 0.55768 1.06009 0.0
O267 O 0.72811 0.62343 0.09323 0.0
O268 O 0.70575 0.62753 0.87994 0.0
O269 O 0.70514 0.63001 0.88124 0.0
O270 O 0.63496 0.56962 1.08535 0.0
O271 O 0.60017 0.58952 0.97179 0.0
H272 H 0.68673 0.56113 0.68055 0.0
H273 H 0.7241 0.55623 0.54434 0.0
H274 H 0.57215 0.51427 0.39845 0.0
H275 H 0.53412 0.51606 0.53788 0.0
H276 H 0.65367 0.49774 0.1529 0.0
H277 H 0.61125 0.47468 0.29457 0.0
H278 H 0.75374 0.61148 0.43051 0.0
H279 H 0.78844 0.64078 0.28782 0.0
Tb280 Tb 0.44262 0.09266 0.89407 0.0
Tb281 Tb 0.4401 0.13933 1.01603 0.0
C282 C 0.43647 0.04544 0.74528 0.0
C283 C 0.45074 0.07209 0.66062 0.0
C284 C 0.41205 0.05173 0.58703 0.0
C285 C 0.42259 0.0777 0.50836 0.0
C286 C 0.47116 0.12581 0.50218 0.0
C287 C 0.50971 0.14771 0.57631 0.0
C288 C 0.49942 0.12124 0.65507 0.0
C289 C 0.54573 0.14825 0.96252 0.0
C290 C 0.47751 0.2168 0.87769 0.0
C291 C 0.43557 0.1841 0.16086 0.0
C292 C 0.45961 0.18419 0.25161 0.0
C293 C 0.49388 0.16234 0.26383 0.0
C294 C 0.50151 0.14649 0.34761 0.0
C295 C 0.47712 0.1547 0.42116 0.0
C296 C 0.44958 0.18325 0.41147 0.0
C297 C 0.44182 0.19835 0.32788 0.0
C298 C 0.35645 0.123 0.8499 0.0
C299 C 0.41377 0.03491 1.08651 0.0
O300 O 0.39437 0.04284 0.77935 0.0
O301 O 0.47544 0.05852 0.80696 0.0
O302 O 0.50456 0.1185 1.00369 0.0
O303 O 0.52676 0.15561 0.88881 0.0
O304 O 0.4581 0.16909 0.83293 0.0
O305 O 0.48633 0.21709 0.96313 0.0
O306 O 0.46952 0.21034 0.10194 0.0
O307 O 0.39666 0.13703 0.1259 0.0
O308 O 0.37129 0.10043 0.91002 0.0
O309 O 0.36953 0.09819 0.90975 0.0
O310 O 0.43607 0.08481 0.1137 0.0
O311 O 0.40714 0.02608 0.99601 0.0
H312 H 0.37306 0.01605 0.59105 0.0
H313 H 0.39235 0.0605 0.45179 0.0
H314 H 0.54692 0.18576 0.57412 0.0
H315 H 0.52881 0.14036 0.71222 0.0
H316 H 0.51235 0.1547 0.208 0.0
H317 H 0.52371 0.1252 0.3536 0.0
H318 H 0.43099 0.19085 0.46738 0.0
H319 H 0.41917 0.21832 0.32251 0.0
Tb320 Tb 0.89586 0.36011 0.87308 0.0
Tb321 Tb 0.89068 0.3249 0.96299 0.0
C322 C 0.9248 0.4082 0.73512 0.0
C323 C 0.9125 0.38809 0.64218 0.0
C324 C 0.88192 0.33301 0.6154 0.0
C325 C 0.86783 0.31559 0.52514 0.0
C326 C 0.88128 0.35344 0.46171 0.0
C327 C 0.90763 0.40844 0.49073 0.0
C328 C 0.92329 0.42504 0.58046 0.0
C329 C 0.87001 0.424 0.96403 0.0
C330 C 0.77886 0.2685 0.88678 0.0
C331 C 0.86383 0.27477 0.09905 0.0
C332 C 0.86382 0.29716 0.18869 0.0
C333 C 0.90392 0.34945 0.21923 0.0
C334 C 0.90891 0.36843 0.30733 0.0
C335 C 0.87143 0.33614 0.3658 0.0
C336 C 0.82649 0.28654 0.33192 0.0
C337 C 0.82263 0.26788 0.24317 0.0
C338 C 0.93466 0.29444 0.78386 0.0
C339 C -0.00878 0.39914 1.04467 0.0
O340 O 0.95637 0.39715 0.78373 0.0
O341 O 0.88173 0.39941 0.77299 0.0
O342 O 0.90401 0.40902 0.98791 0.0
O343 O 0.83931 0.38968 0.89783 0.0
O344 O 0.81298 0.28533 0.82564 0.0
O345 O 0.8037 0.29601 0.9615 0.0
O346 O 0.8287 0.27398 1.04048 0.0
O347 O 0.91147 0.29227 1.06847 0.0
O348 O 0.8977 0.28506 0.83938 0.0
O349 O 0.8951 0.28134 0.83753 0.0
O350 O 0.96605 0.34818 1.03989 0.0
O351 O 0.97006 0.4157 0.98044 0.0
H352 H 0.86788 0.30369 0.66382 0.0
H353 H 0.84707 0.2728 0.50551 0.0
H354 H 0.91633 0.43867 0.44453 0.0
H355 H 0.94243 0.46646 0.60414 0.0
H356 H 0.93147 0.37577 0.17548 0.0
H357 H 0.94327 0.40768 0.32939 0.0
H358 H 0.79491 0.26194 0.37372 0.0
H359 H 0.7882 0.23068 0.21704 0.0
Tb360 Tb 0.68518 0.11251 0.97969 0.0
Tb361 Tb 0.63276 0.09189 0.86367 0.0
C362 C 0.74202 0.1256 0.12018 0.0
C363 C 0.72471 0.13228 0.20999 0.0
C364 C 0.68251 0.14422 0.21825 0.0
C365 C 0.65875 0.14029 0.29922 0.0
C366 C 0.67926 0.12813 0.37556 0.0
C367 C 0.72577 0.12325 0.36943 0.0
C368 C 0.74754 0.12423 0.2876 0.0
C369 C 0.7271 0.09005 0.79213 0.0
C370 C 0.59111 0.0219 1.04339 0.0
C371 C 0.58123 0.06245 0.70859 0.0
C372 C 0.60402 0.08343 0.62318 0.0
C373 C 0.66023 0.11777 0.6221 0.0
C374 C 0.684 0.13517 0.54279 0.0
C375 C 0.65217 0.11842 0.46094 0.0
C376 C 0.59507 0.08759 0.46218 0.0
C377 C 0.57118 0.07027 0.54284 0.0
C378 C 0.5978 0.14712 0.95927 0.0
C379 C 0.73241 0.21188 0.89315 0.0
O380 O 0.75363 0.1643 1.06782 0.0
O381 O 0.71072 0.07824 1.07731 0.0
O382 O 0.697 0.0718 0.85898 0.0
O383 O 0.69585 0.06875 0.85905 0.0
O384 O 0.62999 0.06724 1.07511 0.0
O385 O 0.58482 0.01872 0.95267 0.0
O386 O 0.60051 0.03625 0.74898 0.0
O387 O 0.581 0.09728 0.76546 0.0
O388 O 0.60531 0.10968 0.9838 0.0
O389 O 0.6216 0.16103 0.88692 0.0
O390 O 0.70712 0.17118 0.83092 0.0
O391 O 0.72063 0.19754 0.97209 0.0
H392 H 0.66646 0.1548 0.16113 0.0
H393 H 0.62444 0.14668 0.30197 0.0
H394 H 0.74424 0.11691 0.42805 0.0
H395 H 0.78197 0.11856 0.28526 0.0
H396 H 0.68646 0.1304 0.68238 0.0
H397 H 0.72779 0.16064 0.5456 0.0
H398 H 0.56909 0.0741 0.40044 0.0
H399 H 0.52745 0.04496 0.54185 0.0
Tb400 Tb 0.89183 0.59679 0.9484 0.0
Tb401 Tb 0.91006 0.56063 0.85053 0.0
C402 C 0.8825 0.64159 1.08694 0.0
C403 C 0.87066 0.61623 0.17262 0.0
C404 C 0.85498 0.56156 0.17601 0.0
C405 C 0.85016 0.53955 0.25833 0.0
C406 C 0.85783 0.57104 0.33818 0.0
C407 C 0.86921 0.62372 0.3337 0.0
C408 C 0.87721 0.64649 0.25225 0.0
C409 C 0.91163 0.65019 0.76139 0.0
C410 C 0.9869 0.59742 1.03716 0.0
C411 C 0.91608 0.53373 0.68924 0.0
C412 C 0.8984 0.54257 0.60008 0.0
C413 C 0.85493 0.55237 0.58679 0.0
C414 C 0.83929 0.55939 0.50067 0.0
C415 C 0.8652 0.5542 0.42636 0.0
C416 C 0.90692 0.54276 0.43983 0.0
C417 C 0.924 0.53871 0.52537 0.0
C418 C 0.89058 0.48342 0.95344 0.0
C419 C 0.78729 0.544 0.85829 0.0
O420 O 0.84366 0.61754 1.02226 0.0
O421 O 0.93013 0.65425 1.05956 0.0
O422 O 0.93162 0.64464 0.83774 0.0
O423 O 0.93479 0.64701 0.83837 0.0
O424 O 0.94247 0.59406 1.05733 0.0
O425 O 0.98809 0.59039 0.94829 0.0
O426 O 0.87764 0.50435 0.73806 0.0
O427 O 0.9557 0.57479 0.73713 0.0
O428 O 0.86196 0.50697 0.94453 0.0
O429 O 0.93384 0.50846 0.9112 0.0
O430 O 0.81613 0.52258 0.82779 0.0
O431 O 0.81457 0.58552 0.91253 0.0
H432 H 0.84843 0.53638 0.1154 0.0
H433 H 0.84179 0.49856 0.25986 0.0
H434 H 0.87173 0.64691 0.39411 0.0
H435 H 0.88592 0.68685 0.25144 0.0
H436 H 0.83384 0.55555 0.6427 0.0
H437 H 0.8078 0.5697 0.49215 0.0
H438 H 0.9287 0.54008 0.38448 0.0
H439 H 0.95776 0.53287 0.53166 0.0
Tb440 Tb 0.40587 0.30395 0.90827 0.0
Tb441 Tb 0.44202 0.35724 0.84326 0.0
C442 C 0.37947 0.25289 1.04382 0.0
C443 C 0.39599 0.27684 0.13702 0.0
C444 C 0.44461 0.32629 0.15956 0.0
C445 C 0.45952 0.34913 0.24813 0.0
C446 C 0.42617 0.32272 0.31575 0.0
C447 C 0.37809 0.27385 0.29187 0.0
C448 C 0.36323 0.2509 0.20389 0.0
C449 C 0.34073 0.27282 0.74358 0.0
C450 C 0.40141 0.39342 1.0187 0.0
C451 C 0.48267 0.38291 0.69376 0.0
C452 C 0.4688 0.37281 0.59676 0.0
C453 C 0.4154 0.3521 0.56064 0.0
C454 C 0.40169 0.33635 0.46951 0.0
C455 C 0.44184 0.34323 0.41177 0.0
C456 C 0.49611 0.36672 0.44789 0.0
C457 C 0.50933 0.38092 0.5398 0.0
C458 C 0.52328 0.41819 0.94848 0.0
C459 C 0.46065 0.25559 0.84599 0.0
O460 O 0.41964 0.25849 0.99936 0.0
O461 O 0.34669 0.26397 0.9978 0.0
O462 O 0.35689 0.31472 0.79809 0.0
O463 O 0.36224 0.24808 0.78237 0.0
O464 O 0.38052 0.34202 1.01415 0.0
O465 O 0.42602 0.4118 0.94432 0.0
O466 O 0.46536 0.40947 0.7408 0.0
O467 O 0.47605 0.34152 0.73295 0.0
O468 O 0.49897 0.36591 0.93967 0.0
O469 O 0.49397 0.43505 0.90855 0.0
O470 O 0.48565 0.30801 0.8696 0.0
O471 O 0.40972 0.23831 0.83919 0.0
H472 H 0.471 0.3474 0.10867 0.0
H473 H 0.49692 0.38719 0.26346 0.0
H474 H 0.35451 0.25092 0.34299 0.0
H475 H 0.32673 0.21234 0.18808 0.0
H476 H 0.38477 0.34903 0.60315 0.0
H477 H 0.35967 0.31964 0.44401 0.0
H478 H 0.52801 0.3721 0.40594 0.0
H479 H 0.55109 0.39727 0.5667 0.0
Tb480 Tb 0.34945 0.92325 0.33107 0.0
Tb481 Tb 0.29186 0.89691 0.22284 0.0
C482 C 0.40284 0.93662 0.48154 0.0
C483 C 0.38106 0.9259 0.57192 0.0
C484 C 0.32485 0.90039 0.57708 0.0
C485 C 0.30071 0.88277 0.65563 0.0
C486 C 0.33202 0.89319 0.73671 0.0
C487 C 0.3893 0.91885 0.73327 0.0
C488 C 0.41344 0.93448 0.65155 0.0
C489 C 0.39801 0.88997 0.18526 0.0
C490 C 0.24025 0.80974 0.33409 0.0
C491 C 0.23857 0.88177 1.0773 0.0
C492 C 0.25777 0.875 0.98923 0.0
C493 C 0.30352 0.86846 0.98257 0.0
C494 C 0.32804 0.87399 0.90159 0.0
C495 C 0.30451 0.88131 0.8231 0.0
C496 C 0.25375 0.87845 0.8286 0.0
C497 C 0.2325 0.8782 0.91047 0.0
C498 C 0.25475 0.92591 0.40835 0.0
C499 C 0.38826 0.99165 0.15636 0.0
O500 O 0.40368 0.97555 0.44022 0.0
O501 O 0.38202 0.89404 0.42647 0.0
O502 O 0.35576 0.87281 0.23051 0.0
O503 O 0.35513 0.87092 0.22945 0.0
O504 O 0.27978 0.85115 0.38296 0.0
O505 O 0.23794 0.81489 0.24992 0.0
O506 O 0.22607 0.84371 0.13106 0.0
O507 O 0.26829 0.92938 0.11998 0.0
O508 O 0.28489 0.94285 0.34098 0.0
O509 O 0.28595 0.94537 0.34094 0.0
O510 O 0.3483 0.94548 0.12794 0.0
O511 O 0.39616 -0.00265 0.24669 0.0
H512 H 0.29836 0.89342 0.52017 0.0
H513 H 0.2568 0.86083 0.65091 0.0
H514 H 0.41575 0.92844 0.79362 0.0
H515 H 0.45724 0.95428 0.65128 0.0
H516 H 0.32158 0.86091 1.04055 0.0
H517 H 0.36504 0.87211 0.90076 0.0
H518 H 0.23026 0.87795 0.77028 0.0
H519 H 0.19534 0.87912 0.91207 0.0
Tb520 Tb 0.12079 0.42581 0.21024 0.0
Tb521 Tb 0.09944 0.44906 0.31839 0.0
C522 C 0.12922 0.388 1.05962 0.0
C523 C 0.12663 0.40864 0.97316 0.0
C524 C 0.1159 0.45105 0.96673 0.0
C525 C 0.11045 0.46814 0.88375 0.0
C526 C 0.11838 0.44467 0.80653 0.0
C527 C 0.13401 0.40603 0.81373 0.0
C528 C 0.13613 0.38696 0.89621 0.0
C529 C 0.21912 0.48088 0.29267 0.0
C530 C 0.14517 0.54662 0.23803 0.0
C531 C 0.05369 0.46021 0.4481 0.0
C532 C 0.06859 0.4607 0.54348 0.0
C533 C 0.11817 0.50206 0.5871 0.0
C534 C 0.13395 0.4984 0.67468 0.0
C535 C 0.10118 0.45266 0.71816 0.0
C536 C 0.05222 0.41158 0.67477 0.0
C537 C 0.03589 0.41559 0.58853 0.0
C538 C 0.02963 0.43315 0.12891 0.0
C539 C 0.09401 0.35914 0.39354 0.0
O540 O 0.08502 0.36665 0.09979 0.0
O541 O 0.16989 0.42054 0.11484 0.0
O542 O 0.17626 0.44414 0.32346 0.0
O543 O 0.20308 0.49413 0.22213 0.0
O544 O 0.12638 0.50601 0.17631 0.0
O545 O 0.15116 0.53313 0.31532 0.0
O546 O 0.08803 0.50056 0.40586 0.0
O547 O 0.03617 0.41396 0.40222 0.0
O548 O 0.0402 0.41266 0.19676 0.0
O549 O 0.03819 0.40977 0.1972 0.0
O550 O 0.11579 0.40839 0.42196 0.0
O551 O 0.08607 0.35362 0.30318 0.0
H552 H 0.11025 0.47012 1.02493 0.0
H553 H 0.0982 0.49805 0.87959 0.0
H554 H 0.1416 0.38843 0.75461 0.0
H555 H 0.14527 0.35515 0.89997 0.0
H556 H 0.14496 0.53689 0.55345 0.0
H557 H 0.17224 0.53025 0.70727 0.0
H558 H 0.02712 0.37583 0.70741 0.0
H559 H -0.00131 0.38227 0.55561 0.0
Tb560 Tb 0.55433 0.65883 0.32831 0.0
Tb561 Tb 0.59032 0.71126 0.23079 0.0
C562 C 0.53822 0.61419 0.47349 0.0
C563 C 0.5443 0.63976 0.56435 0.0
C564 C 0.56206 0.69488 0.57851 0.0
C565 C 0.56703 0.71876 0.66466 0.0
C566 C 0.55438 0.68788 0.73868 0.0
C567 C 0.53478 0.63237 0.72309 0.0
C568 C 0.52975 0.60895 0.63714 0.0
C569 C 0.46412 0.6119 0.22837 0.0
C570 C 0.52054 0.74655 0.29726 0.0
C571 C 0.62704 0.76933 0.10583 0.0
C572 C 0.60348 0.75285 1.01253 0.0
C573 C 0.55448 0.70417 0.9908 0.0
C574 C 0.53634 0.68431 0.90161 0.0
C575 C 0.56635 0.71333 0.83226 0.0
C576 C 0.61179 0.7648 0.855 0.0
C577 C 0.63093 0.78341 0.94426 0.0
C578 C 0.65632 0.75243 0.39822 0.0
C579 C 0.59147 0.62004 0.13704 0.0
O580 O 0.58222 0.63009 0.43306 0.0
O581 O 0.5005 0.61275 0.42079 0.0
O582 O 0.51204 0.62679 0.20282 0.0
O583 O 0.47095 0.63833 0.30417 0.0
O584 O 0.54181 0.73183 0.36289 0.0
O585 O 0.52356 0.72607 0.22137 0.0
O586 O 0.59613 0.77483 0.16181 0.0
O587 O 0.64826 0.74171 0.13674 0.0
O588 O 0.63877 0.70828 0.35225 0.0
O589 O 0.63839 0.77607 0.34764 0.0
O590 O 0.60869 0.66957 0.128 0.0
O591 O 0.56998 0.60531 0.21755 0.0
H592 H 0.57226 0.71956 0.52307 0.0
H593 H 0.58102 0.76138 0.67293 0.0
H594 H 0.5252 0.60689 0.77752 0.0
H595 H 0.51537 0.56682 0.62828 0.0
H596 H 0.53136 0.68037 1.04278 0.0
H597 H 0.49956 0.64563 0.88738 0.0
H598 H 0.63423 0.78988 0.80407 0.0
H599 H 0.66758 0.8212 0.96053 0.0
Tb600 Tb 0.3627 0.45156 0.29797 0.0
Tb601 Tb 0.31583 0.43831 0.18927 0.0
C602 C 0.42388 0.46859 0.43512 0.0
C603 C 0.41097 0.48064 0.52582 0.0
C604 C 0.37015 0.49434 0.53512 0.0
C605 C 0.34998 0.49501 0.61853 0.0
C606 C 0.37251 0.48528 0.69559 0.0
C607 C 0.4166 0.47713 0.68721 0.0
C608 C 0.43357 0.47202 0.60328 0.0
C609 C 0.40008 0.42875 0.10361 0.0
C610 C 0.26928 0.3615 0.36548 0.0
C611 C 0.27171 0.4222 1.03034 0.0
C612 C 0.29829 0.44135 0.94542 0.0
C613 C 0.3543 0.47825 0.94509 0.0
C614 C 0.3784 0.49499 0.86475 0.0
C615 C 0.34678 0.47639 0.78217 0.0
C616 C 0.29052 0.44237 0.78295 0.0
C617 C 0.26722 0.42502 0.86322 0.0
C618 C 0.27378 0.4847 0.29153 0.0
C619 C 0.41747 0.55435 0.22678 0.0
O620 O 0.43479 0.50481 0.37815 0.0
O621 O 0.38966 0.42032 0.39799 0.0
O622 O 0.37383 0.41117 0.1747 0.0
O623 O 0.37282 0.40789 0.17512 0.0
O624 O 0.31192 0.4042 0.39779 0.0
O625 O 0.26259 0.36216 0.27448 0.0
O626 O 0.27832 0.3867 1.07016 0.0
O627 O 0.27852 0.45996 1.08848 0.0
O628 O 0.2823 0.44705 0.30839 0.0
O629 O 0.30119 0.50486 0.22432 0.0
O630 O 0.39603 0.51471 0.16375 0.0
O631 O 0.39737 0.53756 0.30061 0.0
H632 H 0.35163 0.50154 0.47702 0.0
H633 H 0.31617 0.50211 0.62242 0.0
H634 H 0.43607 0.47214 0.746 0.0
H635 H 0.46453 0.46142 0.59966 0.0
H636 H 0.38001 0.49386 1.00626 0.0
H637 H 0.42198 0.52182 0.86721 0.0
H638 H 0.26475 0.42625 0.72096 0.0
H639 H 0.22521 0.39628 0.85984 0.0
Tb640 Tb 0.55024 0.8808 0.18423 0.0
Tb641 Tb 0.53353 0.91282 0.29404 0.0
C642 C 0.57796 0.84967 1.05 0.0
C643 C 0.56618 0.85729 0.95638 0.0
C644 C 0.53014 0.81448 0.89362 0.0
C645 C 0.51962 0.82465 0.80638 0.0
C646 C 0.54406 0.87791 0.78209 0.0
C647 C 0.57764 0.91987 0.84692 0.0
C648 C 0.58928 0.90986 0.93097 0.0
C649 C 0.62992 0.90291 0.35944 0.0
C650 C 0.56572 0.97783 0.10975 0.0
C651 C 0.52607 0.953 0.44064 0.0
C652 C 0.52846 0.93234 0.52733 0.0
C653 C 0.57755 0.95706 0.57993 0.0
C654 C 0.58205 0.93677 0.6589 0.0
C655 C 0.53789 0.89205 0.69017 0.0
C656 C 0.48873 0.86535 0.63595 0.0
C657 C 0.48422 0.88504 0.55449 0.0
C658 C 0.43882 0.87241 0.19868 0.0
C659 C 0.5078 0.79199 0.2933 0.0
O660 O 0.53689 0.8161 0.09206 0.0
O661 O 0.60972 0.89399 0.10045 0.0
O662 O 0.61443 0.9235 0.29755 0.0
O663 O 0.61598 0.92594 0.29755 0.0
O664 O 0.54378 0.92818 1.08183 0.0
O665 O 0.5711 0.98437 0.2004 0.0
O666 O 0.57039 0.97453 0.39977 0.0
O667 O 0.48481 0.92108 0.3859 0.0
O668 O 0.48539 0.90038 0.17267 0.0
O669 O 0.44539 0.85565 0.27341 0.0
O670 O 0.5291 0.83666 0.34639 0.0
O671 O 0.49554 0.79981 0.21456 0.0
H672 H 0.5106 0.7735 0.91169 0.0
H673 H 0.49334 0.79112 0.75814 0.0
H674 H 0.59632 0.96138 0.83302 0.0
H675 H 0.61761 0.94434 0.97583 0.0
H676 H 0.61276 0.99253 0.56049 0.0
H677 H 0.61999 0.95824 0.69821 0.0
H678 H 0.45359 0.8306 0.65732 0.0
H679 H 0.44598 0.86351 0.51366 0.0
Tb680 Tb 0.08769 0.64689 0.31801 0.0
Tb681 Tb 0.11946 0.69146 0.21985 0.0
C682 C 0.04773 0.58704 0.43956 0.0
C683 C 0.0775 0.59782 0.5288 0.0
C684 C 0.12541 0.64726 0.55115 0.0
C685 C 0.14561 0.66499 0.6403 0.0
C686 C 0.11745 0.63422 0.7098 0.0
C687 C 0.07347 0.58184 0.68578 0.0
C688 C 0.05514 0.56372 0.59612 0.0
C689 C 0.03045 0.60733 0.11335 0.0
C690 C 0.08366 0.74134 0.38845 0.0
C691 C 0.16081 0.73003 1.07723 0.0
C692 C 0.14992 0.70441 0.98429 0.0
C693 C 0.12538 0.64843 0.96537 0.0
C694 C 0.11646 0.6255 0.87726 0.0
C695 C 0.13134 0.65799 0.80516 0.0
C696 C 0.15747 0.71411 0.82536 0.0
C697 C 0.16787 0.73638 0.91345 0.0
C698 C 0.19909 0.76178 0.37543 0.0
C699 C 0.14193 0.59682 0.23876 0.0
O700 O 0.06748 0.57427 0.37196 0.0
O701 O 0.03571 0.62396 0.4214 0.0
O702 O 0.03497 0.63057 0.19235 0.0
O703 O 0.03233 0.63111 0.19329 0.0
O704 O 0.08367 0.70056 0.41704 0.0
O705 O 0.09307 0.74631 0.30062 0.0
O706 O 0.12325 0.73687 0.11169 0.0
O707 O 0.18126 0.71136 0.13378 0.0
O708 O 0.17518 0.71395 0.33305 0.0
O709 O 0.17624 0.71413 0.33469 0.0
O710 O 0.12034 0.61355 0.17874 0.0
O711 O 0.1435 0.61742 0.31656 0.0
H712 H 0.14597 0.67348 0.50012 0.0
H713 H 0.18213 0.70383 0.65403 0.0
H714 H 0.05128 0.55513 0.73528 0.0
H715 H 0.02315 0.52318 0.57946 0.0
H716 H 0.11373 0.62208 1.01816 0.0
H717 H 0.09804 0.58233 0.86661 0.0
H718 H 0.16938 0.74159 0.77377 0.0
H719 H 0.18987 0.77885 0.92612 0.0
loop_
_geom_bond_atom_site_label_1
_geom_bond_atom_site_label_2
_geom_bond_distance
_geom_bond_site_symmetry_2
_ccdc_geom_bond_type
Tb0 C2 2.809 . S
Tb0 O20 2.484 . S
Tb0 O21 2.440 . S
Tb0 O22 2.658 . S
Tb0 O23 2.409 . S
Tb0 O24 2.378 . S
Tb0 O28 2.325 1_455 S
Tb0 O31 2.341 . S
Tb1 C11 2.809 . S
Tb1 O22 2.325 1_655 S
Tb1 O25 2.341 . S
Tb1 O26 2.484 1_655 S
Tb1 O27 2.440 . S
Tb1 O28 2.658 . S
Tb1 O29 2.409 . S
Tb1 O30 2.378 1_655 S
C2 Tb0 2.809 . S
C2 C3 1.514 . S
C2 O20 1.248 . S
C2 O21 1.266 . S
C3 C2 1.514 . S
C3 C4 1.339 1_455 S
C3 C8 1.348 . S
C4 C3 1.339 1_655 S
C4 C5 1.381 . S
C4 H32 0.948 . S
C5 C4 1.381 . S
C5 C6 1.347 1_655 S
C5 H33 0.931 . S
C6 C5 1.347 1_455 S
C6 C7 1.369 . S
C7 C6 1.369 . S
C7 C8 1.408 . S
C7 H34 0.930 . S
C8 C3 1.348 . S
C8 C7 1.408 . S
C8 H35 0.930 . S
C9 O22 1.281 . S
C9 O23 1.254 . S
C10 O24 1.236 1_655 S
C10 O25 1.266 . S
C11 Tb1 2.809 . S
C11 C12 1.514 . S
C11 O26 1.248 1_655 S
C11 O27 1.266 . S
C12 C11 1.514 . S
C12 C13 1.359 1_655 S
C12 C17 1.348 . S
C13 C12 1.359 1_455 S
C13 C14 1.380 . S
C13 H36 0.929 . S
C14 C13 1.380 . S
C14 C15 1.347 1_455 S
C14 H37 0.931 . S
C15 C14 1.347 1_655 S
C15 C16 1.369 . S
C16 C15 1.369 . S
C16 C17 1.408 . S
C16 H38 0.930 . S
C17 C12 1.348 . S
C17 C16 1.408 . S
C17 H39 0.930 . S
C18 O28 1.281 . S
C18 O29 1.254 . S
C19 O30 1.236 . S
C19 O31 1.266 . S
O20 Tb0 2.484 . S
O20 C2 1.248 . S
O21 Tb0 2.440 . S
O21 C2 1.266 . S
O22 Tb0 2.658 . S
O22 Tb1 2.325 1_455 S
O22 C9 1.281 . S
O23 Tb0 2.409 . S
O23 C9 1.254 . S
O24 Tb0 2.378 . S
O24 C10 1.236 1_455 S
O25 Tb1 2.341 . S
O25 C10 1.266 . S
O26 Tb1 2.484 1_455 S
O26 C11 1.248 1_455 S
O27 Tb1 2.440 . S
O27 C11 1.266 . S
O28 Tb0 2.325 1_655 S
O28 Tb1 2.658 . S
O28 C18 1.281 . S
O29 Tb1 2.409 . S
O29 C18 1.254 . S
O30 Tb1 2.378 1_455 S
O30 C19 1.236 . S
O31 Tb0 2.341 . S
O31 C19 1.266 . S
H32 C4 0.948 . S
H33 C5 0.931 . S
H34 C7 0.930 . S
H35 C8 0.930 . S
H36 C13 0.929 . S
H37 C14 0.931 . S
H38 C16 0.930 . S
H39 C17 0.930 . S
Tb40 C42 2.809 . S
Tb40 O60 2.484 . S
Tb40 O61 2.440 . S
Tb40 O62 2.658 . S
Tb40 O63 2.409 . S
Tb40 O64 2.378 . S
Tb40 O68 2.325 . S
Tb40 O71 2.341 . S
Tb41 C51 2.809 . S
Tb41 O62 2.325 . S
Tb41 O65 2.341 . S
Tb41 O66 2.484 . S
Tb41 O67 2.440 . S
Tb41 O68 2.658 . S
Tb41 O69 2.409 . S
Tb41 O70 2.378 . S
C42 Tb40 2.809 . S
C42 C43 1.514 . S
C42 O60 1.248 . S
C42 O61 1.266 . S
C43 C42 1.514 . S
C43 C44 1.359 . S
C43 C48 1.348 . S
C44 C43 1.359 . S
C44 C45 1.380 . S
C44 H72 0.929 . S
C45 C44 1.380 . S
C45 C46 1.347 . S
C45 H73 0.931 . S
C46 C45 1.347 . S
C46 C47 1.369 . S
C47 C46 1.369 . S
C47 C48 1.408 . S
C47 H74 0.930 . S
C48 C43 1.348 . S
C48 C47 1.408 . S
C48 H75 0.930 . S
C49 O62 1.281 . S
C49 O63 1.254 . S
C50 O64 1.236 . S
C50 O65 1.266 . S
C51 Tb41 2.809 . S
C51 C52 1.514 . S
C51 O66 1.248 . S
C51 O67 1.266 . S
C52 C51 1.514 . S
C52 C53 1.359 . S
C52 C57 1.348 . S
C53 C52 1.359 . S
C53 C54 1.380 . S
C53 H76 0.929 . S
C54 C53 1.380 . S
C54 C55 1.347 . S
C54 H77 0.931 . S
C55 C54 1.347 . S
C55 C56 1.369 . S
C56 C55 1.369 . S
C56 C57 1.408 . S
C56 H78 0.930 . S
C57 C52 1.348 . S
C57 C56 1.408 . S
C57 H79 0.930 . S
C58 O68 1.281 . S
C58 O69 1.254 . S
C59 O70 1.236 . S
C59 O71 1.266 . S
O60 Tb40 2.484 . S
O60 C42 1.248 . S
O61 Tb40 2.440 . S
O61 C42 1.266 . S
O62 Tb40 2.658 . S
O62 Tb41 2.325 . S
O62 C49 1.281 . S
O63 Tb40 2.409 . S
O63 C49 1.254 . S
O64 Tb40 2.378 . S
O64 C50 1.236 . S
O65 Tb41 2.341 . S
O65 C50 1.266 . S
O66 Tb41 2.484 . S
O66 C51 1.248 . S
O67 Tb41 2.440 . S
O67 C51 1.266 . S
O68 Tb40 2.325 . S
O68 Tb41 2.658 . S
O68 C58 1.281 . S
O69 Tb41 2.409 . S
O69 C58 1.254 . S
O70 Tb41 2.378 . S
O70 C59 1.236 . S
O71 Tb40 2.341 . S
O71 C59 1.266 . S
H72 C44 0.929 . S
H73 C45 0.931 . S
H74 C47 0.930 . S
H75 C48 0.930 . S
H76 C53 0.929 . S
H77 C54 0.931 . S
H78 C56 0.930 . S
H79 C57 0.930 . S
Tb80 C82 2.809 . S
Tb80 O100 2.484 1_565 S
Tb80 O101 2.440 . S
Tb80 O102 2.658 . S
Tb80 O103 2.409 . S
Tb80 O104 2.378 1_565 S
Tb80 O108 2.325 1_565 S
Tb80 O111 2.341 . S
Tb81 C91 2.809 . S
Tb81 O102 2.325 1_545 S
Tb81 O105 2.341 . S
Tb81 O106 2.484 1_545 S
Tb81 O107 2.440 . S
Tb81 O108 2.658 . S
Tb81 O109 2.409 . S
Tb81 O110 2.378 1_545 S
C82 Tb80 2.809 . S
C82 C83 1.514 . S
C82 O100 1.248 1_565 S
C82 O101 1.266 . S
C83 C82 1.514 . S
C83 C84 1.359 1_565 S
C83 C88 1.348 . S
C84 C83 1.359 1_545 S
C84 C85 1.380 . S
C84 H112 0.929 . S
C85 C84 1.380 . S
C85 C86 1.347 . S
C85 H113 0.931 . S
C86 C85 1.347 . S
C86 C87 1.369 1_545 S
C87 C86 1.369 1_565 S
C87 C88 1.408 . S
C87 H114 0.930 . S
C88 C83 1.348 . S
C88 C87 1.408 . S
C88 H115 0.930 . S
C89 O102 1.281 . S
C89 O103 1.254 . S
C90 O104 1.236 . S
C90 O105 1.266 . S
C91 Tb81 2.809 . S
C91 C92 1.514 . S
C91 O106 1.248 1_545 S
C91 O107 1.266 . S
C92 C91 1.514 . S
C92 C93 1.359 1_545 S
C92 C97 1.348 . S
C93 C92 1.359 1_565 S
C93 C94 1.380 . S
C93 H116 0.929 . S
C94 C93 1.380 . S
C94 C95 1.347 1_565 S
C94 H117 0.931 . S
C95 C94 1.347 1_545 S
C95 C96 1.369 . S
C96 C95 1.369 . S
C96 C97 1.408 . S
C96 H118 0.930 . S
C97 C92 1.348 . S
C97 C96 1.408 . S
C97 H119 0.930 . S
C98 O108 1.281 . S
C98 O109 1.254 . S
C99 O110 1.236 . S
C99 O111 1.266 . S
O100 Tb80 2.484 1_545 S
O100 C82 1.248 1_545 S
O101 Tb80 2.440 . S
O101 C82 1.266 . S
O102 Tb80 2.658 . S
O102 Tb81 2.325 1_565 S
O102 C89 1.281 . S
O103 Tb80 2.409 . S
O103 C89 1.254 . S
O104 Tb80 2.378 1_545 S
O104 C90 1.236 . S
O105 Tb81 2.341 . S
O105 C90 1.266 . S
O106 Tb81 2.484 1_565 S
O106 C91 1.248 1_565 S
O107 Tb81 2.440 . S
O107 C91 1.266 . S
O108 Tb80 2.325 1_545 S
O108 Tb81 2.658 . S
O108 C98 1.281 . S
O109 Tb81 2.409 . S
O109 C98 1.254 . S
O110 Tb81 2.378 1_565 S
O110 C99 1.236 . S
O111 Tb80 2.341 . S
O111 C99 1.266 . S
H112 C84 0.929 . S
H113 C85 0.931 . S
H114 C87 0.930 . S
H115 C88 0.930 . S
H116 C93 0.929 . S
H117 C94 0.931 . S
H118 C96 0.930 . S
H119 C97 0.930 . S
Tb120 C122 2.809 . S
Tb120 O140 2.484 . S
Tb120 O141 2.440 . S
Tb120 O142 2.658 . S
Tb120 O143 2.409 . S
Tb120 O144 2.378 . S
Tb120 O148 2.325 1_455 S
Tb120 O151 2.341 . S
Tb121 C131 2.809 . S
Tb121 O142 2.325 1_655 S
Tb121 O145 2.341 . S
Tb121 O146 2.484 1_655 S
Tb121 O147 2.440 . S
Tb121 O148 2.658 . S
Tb121 O149 2.409 . S
Tb121 O150 2.378 1_655 S
C122 Tb120 2.809 . S
C122 C123 1.514 . S
C122 O140 1.248 . S
C122 O141 1.266 . S
C123 C122 1.514 . S
C123 C124 1.359 1_455 S
C123 C128 1.348 . S
C124 C123 1.359 1_655 S
C124 C125 1.380 . S
C124 H152 0.929 . S
C125 C124 1.380 . S
C125 C126 1.347 1_656 S
C125 H153 0.931 . S
C126 C125 1.347 1_454 S
C126 C127 1.369 1_554 S
C127 C126 1.369 1_556 S
C127 C128 1.408 . S
C127 H154 0.930 . S
C128 C123 1.348 . S
C128 C127 1.408 . S
C128 H155 0.930 . S
C129 O142 1.281 . S
C129 O143 1.254 . S
C130 O144 1.236 1_655 S
C130 O145 1.266 . S
C131 Tb121 2.809 . S
C131 C132 1.514 . S
C131 O146 1.248 1_655 S
C131 O147 1.266 . S
C132 C131 1.514 . S
C132 C133 1.359 1_655 S
C132 C137 1.348 . S
C133 C132 1.359 1_455 S
C133 C134 1.380 . S
C133 H156 0.929 . S
C134 C133 1.380 . S
C134 C135 1.347 1_455 S
C134 H157 0.931 . S
C135 C134 1.347 1_655 S
C135 C136 1.369 . S
C136 C135 1.369 . S
C136 C137 1.408 . S
C136 H158 0.930 . S
C137 C132 1.348 . S
C137 C136 1.408 . S
C137 H159 0.930 . S
C138 O148 1.281 . S
C138 O149 1.254 . S
C139 O150 1.236 . S
C139 O151 1.266 . S
O140 Tb120 2.484 . S
O140 C122 1.248 . S
O141 Tb120 2.440 . S
O141 C122 1.266 . S
O142 Tb120 2.658 . S
O142 Tb121 2.325 1_455 S
O142 C129 1.281 . S
O143 Tb120 2.409 . S
O143 C129 1.254 . S
O144 Tb120 2.378 . S
O144 C130 1.236 1_455 S
O145 Tb121 2.341 . S
O145 C130 1.266 . S
O146 Tb121 2.484 1_455 S
O146 C131 1.248 1_455 S
O147 Tb121 2.440 . S
O147 C131 1.266 . S
O148 Tb120 2.325 1_655 S
O148 Tb121 2.658 . S
O148 C138 1.281 . S
O149 Tb121 2.409 . S
O149 C138 1.254 . S
O150 Tb121 2.378 1_455 S
O150 C139 1.236 . S
O151 Tb120 2.341 . S
O151 C139 1.266 . S
H152 C124 0.929 . S
H153 C125 0.931 . S
H154 C127 0.930 . S
H155 C128 0.930 . S
H156 C133 0.929 . S
H157 C134 0.931 . S
H158 C136 0.930 . S
H159 C137 0.930 . S
Tb160 C162 2.809 . S
Tb160 O180 2.484 . S
Tb160 O181 2.440 . S
Tb160 O182 2.658 . S
Tb160 O183 2.409 . S
Tb160 O184 2.378 . S
Tb160 O188 2.325 . S
Tb160 O191 2.341 . S
Tb161 C171 2.809 . S
Tb161 O182 2.325 . S
Tb161 O185 2.341 . S
Tb161 O186 2.484 . S
Tb161 O187 2.440 . S
Tb161 O188 2.658 . S
Tb161 O189 2.409 . S
Tb161 O190 2.378 . S
C162 Tb160 2.809 . S
C162 C163 1.514 . S
C162 O180 1.248 . S
C162 O181 1.266 . S
C163 C162 1.514 . S
C163 C164 1.359 . S
C163 C168 1.348 . S
C164 C163 1.359 . S
C164 C165 1.380 . S
C164 H192 0.929 . S
C165 C164 1.380 . S
C165 C166 1.347 . S
C165 H193 0.931 . S
C166 C165 1.347 . S
C166 C167 1.369 . S
C167 C166 1.369 . S
C167 C168 1.408 . S
C167 H194 0.930 . S
C168 C163 1.348 . S
C168 C167 1.408 . S
C168 H195 0.930 . S
C169 O182 1.281 . S
C169 O183 1.254 . S
C170 O184 1.236 . S
C170 O185 1.266 . S
C171 Tb161 2.809 . S
C171 C172 1.514 . S
C171 O186 1.248 . S
C171 O187 1.266 . S
C172 C171 1.514 . S
C172 C173 1.359 . S
C172 C177 1.348 . S
C173 C172 1.359 . S
C173 C174 1.380 . S
C173 H196 0.929 . S
C174 C173 1.380 . S
C174 C175 1.347 1_556 S
C174 H197 0.931 1_556 S
C175 C174 1.347 1_554 S
C175 C176 1.369 1_554 S
C176 C175 1.369 1_556 S
C176 C177 1.408 . S
C176 H198 0.930 . S
C177 C172 1.348 . S
C177 C176 1.408 . S
C177 H199 0.930 . S
C178 O188 1.281 . S
C178 O189 1.254 . S
C179 O190 1.236 . S
C179 O191 1.266 . S
O180 Tb160 2.484 . S
O180 C162 1.248 . S
O181 Tb160 2.440 . S
O181 C162 1.266 . S
O182 Tb160 2.658 . S
O182 Tb161 2.325 . S
O182 C169 1.281 . S
O183 Tb160 2.409 . S
O183 C169 1.254 . S
O184 Tb160 2.378 . S
O184 C170 1.236 . S
O185 Tb161 2.341 . S
O185 C170 1.266 . S
O186 Tb161 2.484 . S
O186 C171 1.248 . S
O187 Tb161 2.440 . S
O187 C171 1.266 . S
O188 Tb160 2.325 . S
O188 Tb161 2.658 . S
O188 C178 1.281 . S
O189 Tb161 2.409 . S
O189 C178 1.254 . S
O190 Tb161 2.378 . S
O190 C179 1.236 . S
O191 Tb160 2.341 . S
O191 C179 1.266 . S
H192 C164 0.929 . S
H193 C165 0.931 . S
H194 C167 0.930 . S
H195 C168 0.930 . S
H196 C173 0.929 . S
H197 C174 0.931 1_554 S
H198 C176 0.930 . S
H199 C177 0.930 . S
Tb200 C202 2.809 . S
Tb200 O220 2.484 1_565 S
Tb200 O221 2.440 . S
Tb200 O222 2.658 . S
Tb200 O223 2.409 . S
Tb200 O224 2.378 1_565 S
Tb200 O228 2.325 1_565 S
Tb200 O231 2.341 . S
Tb201 C211 2.809 . S
Tb201 O222 2.325 1_545 S
Tb201 O225 2.341 . S
Tb201 O226 2.484 . S
Tb201 O227 2.440 . S
Tb201 O228 2.658 . S
Tb201 O229 2.409 . S
Tb201 O230 2.368 1_545 S
C202 Tb200 2.809 . S
C202 C203 1.514 . S
C202 O220 1.248 1_565 S
C202 O221 1.266 . S
C203 C202 1.514 . S
C203 C204 1.359 1_565 S
C203 C208 1.348 . S
C204 C203 1.359 1_545 S
C204 C205 1.380 . S
C204 H232 0.929 . S
C205 C204 1.380 . S
C205 C206 1.347 . S
C205 H233 0.931 . S
C206 C205 1.347 . S
C206 C207 1.369 1_545 S
C207 C206 1.369 1_565 S
C207 C208 1.408 . S
C207 H234 0.930 . S
C208 C203 1.348 . S
C208 C207 1.408 . S
C208 H235 0.930 . S
C209 O222 1.281 . S
C209 O223 1.254 . S
C210 O224 1.236 . S
C210 O225 1.266 . S
C211 Tb201 2.809 . S
C211 C212 1.514 . S
C211 O226 1.248 . S
C211 O227 1.266 . S
C212 C211 1.514 . S
C212 C213 1.359 1_545 S
C212 C217 1.348 . S
C213 C212 1.359 1_565 S
C213 C214 1.380 . S
C213 H236 0.929 . S
C214 C213 1.380 . S
C214 C215 1.347 1_565 S
C214 H237 0.931 . S
C215 C214 1.347 1_545 S
C215 C216 1.369 . S
C216 C215 1.369 . S
C216 C217 1.408 . S
C216 H238 0.930 . S
C217 C212 1.348 . S
C217 C216 1.408 . S
C217 H239 0.930 . S
C218 O228 1.281 . S
C218 O229 1.254 . S
C219 O230 1.246 . S
C219 O231 1.266 . S
O220 Tb200 2.484 1_545 S
O220 C202 1.248 1_545 S
O221 Tb200 2.440 . S
O221 C202 1.266 . S
O222 Tb200 2.658 . S
O222 Tb201 2.325 1_565 S
O222 C209 1.281 . S
O223 Tb200 2.409 . S
O223 C209 1.254 . S
O224 Tb200 2.378 1_545 S
O224 C210 1.236 . S
O225 Tb201 2.341 . S
O225 C210 1.266 . S
O226 Tb201 2.484 . S
O226 C211 1.248 . S
O227 Tb201 2.440 . S
O227 C211 1.266 . S
O228 Tb200 2.325 1_545 S
O228 Tb201 2.658 . S
O228 C218 1.281 . S
O229 Tb201 2.409 . S
O229 C218 1.254 . S
O230 Tb201 2.368 1_565 S
O230 C219 1.246 . S
O231 Tb200 2.341 . S
O231 C219 1.266 . S
H232 C204 0.929 . S
H233 C205 0.931 . S
H234 C207 0.930 . S
H235 C208 0.930 . S
H236 C213 0.929 . S
H237 C214 0.931 . S
H238 C216 0.930 . S
H239 C217 0.930 . S
Tb240 C242 2.809 . S
Tb240 O260 2.484 . S
Tb240 O261 2.440 . S
Tb240 O262 2.658 . S
Tb240 O263 2.409 . S
Tb240 O264 2.378 . S
Tb240 O268 2.325 . S
Tb240 O271 2.341 . S
Tb241 C251 2.809 1_556 S
Tb241 O262 2.325 . S
Tb241 O265 2.341 . S
Tb241 O266 2.484 1_556 S
Tb241 O267 2.440 1_556 S
Tb241 O268 2.658 . S
Tb241 O269 2.409 . S
Tb241 O270 2.378 . S
C242 Tb240 2.809 . S
C242 C243 1.514 . S
C242 O260 1.248 . S
C242 O261 1.266 . S
C243 C242 1.514 . S
C243 C244 1.359 . S
C243 C248 1.348 . S
C244 C243 1.359 . S
C244 C245 1.380 . S
C244 H272 0.929 . S
C245 C244 1.380 . S
C245 C246 1.347 . S
C245 H273 0.931 . S
C246 C245 1.347 . S
C246 C247 1.369 . S
C247 C246 1.369 . S
C247 C248 1.408 . S
C247 H274 0.930 . S
C248 C243 1.348 . S
C248 C247 1.408 . S
C248 H275 0.930 . S
C249 O262 1.281 . S
C249 O263 1.254 . S
C250 O264 1.236 . S
C250 O265 1.266 . S
C251 Tb241 2.809 1_554 S
C251 C252 1.514 . S
C251 O266 1.248 . S
C251 O267 1.266 . S
C252 C251 1.514 . S
C252 C253 1.359 . S
C252 C257 1.348 . S
C253 C252 1.359 . S
C253 C254 1.380 . S
C253 H276 0.929 . S
C254 C253 1.380 . S
C254 C255 1.347 . S
C254 H277 0.931 . S
C255 C254 1.347 . S
C255 C256 1.369 . S
C256 C255 1.369 . S
C256 C257 1.408 . S
C256 H278 0.930 . S
C257 C252 1.348 . S
C257 C256 1.408 . S
C257 H279 0.930 . S
C258 O268 1.281 . S
C258 O269 1.254 . S
C259 O270 1.236 . S
C259 O271 1.266 . S
O260 Tb240 2.484 . S
O260 C242 1.248 . S
O261 Tb240 2.440 . S
O261 C242 1.266 . S
O262 Tb240 2.658 . S
O262 Tb241 2.325 . S
O262 C249 1.281 . S
O263 Tb240 2.409 . S
O263 C249 1.254 . S
O264 Tb240 2.378 . S
O264 C250 1.236 . S
O265 Tb241 2.341 . S
O265 C250 1.266 . S
O266 Tb241 2.484 1_554 S
O266 C251 1.248 . S
O267 Tb241 2.440 1_554 S
O267 C251 1.266 . S
O268 Tb240 2.325 . S
O268 Tb241 2.658 . S
O268 C258 1.281 . S
O269 Tb241 2.409 . S
O269 C258 1.254 . S
O270 Tb241 2.378 . S
O270 C259 1.236 . S
O271 Tb240 2.341 . S
O271 C259 1.266 . S
H272 C244 0.929 . S
H273 C245 0.931 . S
H274 C247 0.930 . S
H275 C248 0.930 . S
H276 C253 0.929 . S
H277 C254 0.931 . S
H278 C256 0.930 . S
H279 C257 0.930 . S
Tb280 C282 2.809 . S
Tb280 O300 2.484 . S
Tb280 O301 2.440 . S
Tb280 O302 2.658 . S
Tb280 O303 2.409 . S
Tb280 O304 2.378 . S
Tb280 O308 2.325 . S
Tb280 O311 2.341 . S
Tb281 C291 2.809 1_556 S
Tb281 O302 2.325 . S
Tb281 O305 2.341 . S
Tb281 O306 2.484 . S
Tb281 O307 2.440 . S
Tb281 O308 2.658 . S
Tb281 O309 2.409 . S
Tb281 O310 2.378 . S
C282 Tb280 2.809 . S
C282 C283 1.514 . S
C282 O300 1.248 . S
C282 O301 1.266 . S
C283 C282 1.514 . S
C283 C284 1.359 . S
C283 C288 1.348 . S
C284 C283 1.359 . S
C284 C285 1.380 . S
C284 H312 0.929 . S
C285 C284 1.380 . S
C285 C286 1.347 . S
C285 H313 0.931 . S
C286 C285 1.347 . S
C286 C287 1.369 . S
C287 C286 1.369 . S
C287 C288 1.408 . S
C287 H314 0.930 . S
C288 C283 1.348 . S
C288 C287 1.408 . S
C288 H315 0.930 . S
C289 O302 1.281 . S
C289 O303 1.254 . S
C290 O304 1.236 . S
C290 O305 1.266 . S
C291 Tb281 2.809 1_554 S
C291 C292 1.514 . S
C291 O306 1.248 1_554 S
C291 O307 1.266 1_554 S
C292 C291 1.514 . S
C292 C293 1.359 . S
C292 C297 1.348 . S
C293 C292 1.359 . S
C293 C294 1.380 . S
C293 H316 0.929 . S
C294 C293 1.380 . S
C294 C295 1.347 . S
C294 H317 0.931 . S
C295 C294 1.347 . S
C295 C296 1.369 . S
C296 C295 1.369 . S
C296 C297 1.408 . S
C296 H318 0.930 . S
C297 C292 1.348 . S
C297 C296 1.408 . S
C297 H319 0.930 . S
C298 O308 1.281 . S
C298 O309 1.254 . S
C299 O310 1.236 . S
C299 O311 1.266 . S
O300 Tb280 2.484 . S
O300 C282 1.248 . S
O301 Tb280 2.440 . S
O301 C282 1.266 . S
O302 Tb280 2.658 . S
O302 Tb281 2.325 . S
O302 C289 1.281 . S
O303 Tb280 2.409 . S
O303 C289 1.254 . S
O304 Tb280 2.378 . S
O304 C290 1.236 . S
O305 Tb281 2.341 . S
O305 C290 1.266 . S
O306 Tb281 2.484 . S
O306 C291 1.248 1_556 S
O307 Tb281 2.440 . S
O307 C291 1.266 1_556 S
O308 Tb280 2.325 . S
O308 Tb281 2.658 . S
O308 C298 1.281 . S
O309 Tb281 2.409 . S
O309 C298 1.254 . S
O310 Tb281 2.378 . S
O310 C299 1.236 . S
O311 Tb280 2.341 . S
O311 C299 1.266 . S
H312 C284 0.929 . S
H313 C285 0.931 . S
H314 C287 0.930 . S
H315 C288 0.930 . S
H316 C293 0.929 . S
H317 C294 0.931 . S
H318 C296 0.930 . S
H319 C297 0.930 . S
Tb320 C322 2.809 . S
Tb320 O340 2.484 . S
Tb320 O341 2.440 . S
Tb320 O342 2.658 . S
Tb320 O343 2.409 . S
Tb320 O344 2.378 . S
Tb320 O348 2.325 . S
Tb320 O351 2.341 1_655 S
Tb321 C331 2.809 1_556 S
Tb321 O342 2.325 . S
Tb321 O345 2.341 . S
Tb321 O346 2.484 1_556 S
Tb321 O347 2.440 1_556 S
Tb321 O348 2.658 . S
Tb321 O349 2.409 . S
Tb321 O350 2.378 . S
C322 Tb320 2.809 . S
C322 C323 1.514 . S
C322 O340 1.248 . S
C322 O341 1.266 . S
C323 C322 1.514 . S
C323 C324 1.359 . S
C323 C328 1.348 . S
C324 C323 1.359 . S
C324 C325 1.380 . S
C324 H352 0.929 . S
C325 C324 1.380 . S
C325 C326 1.347 . S
C325 H353 0.931 . S
C326 C325 1.347 . S
C326 C327 1.369 . S
C327 C326 1.369 . S
C327 C328 1.408 . S
C327 H354 0.930 . S
C328 C323 1.348 . S
C328 C327 1.408 . S
C328 H355 0.930 . S
C329 O342 1.281 . S
C329 O343 1.254 . S
C330 O344 1.236 . S
C330 O345 1.266 . S
C331 Tb321 2.809 1_554 S
C331 C332 1.514 . S
C331 O346 1.248 . S
C331 O347 1.266 . S
C332 C331 1.514 . S
C332 C333 1.359 . S
C332 C337 1.348 . S
C333 C332 1.359 . S
C333 C334 1.380 . S
C333 H356 0.929 . S
C334 C333 1.380 . S
C334 C335 1.347 . S
C334 H357 0.931 . S
C335 C334 1.347 . S
C335 C336 1.369 . S
C336 C335 1.369 . S
C336 C337 1.408 . S
C336 H358 0.930 . S
C337 C332 1.348 . S
C337 C336 1.408 . S
C337 H359 0.930 . S
C338 O348 1.281 . S
C338 O349 1.254 . S
C339 O350 1.236 1_455 S
C339 O351 1.266 . S
O340 Tb320 2.484 . S
O340 C322 1.248 . S
O341 Tb320 2.440 . S
O341 C322 1.266 . S
O342 Tb320 2.658 . S
O342 Tb321 2.325 . S
O342 C329 1.281 . S
O343 Tb320 2.409 . S
O343 C329 1.254 . S
O344 Tb320 2.378 . S
O344 C330 1.236 . S
O345 Tb321 2.341 . S
O345 C330 1.266 . S
O346 Tb321 2.484 1_554 S
O346 C331 1.248 . S
O347 Tb321 2.440 1_554 S
O347 C331 1.266 . S
O348 Tb320 2.325 . S
O348 Tb321 2.658 . S
O348 C338 1.281 . S
O349 Tb321 2.409 . S
O349 C338 1.254 . S
O350 Tb321 2.378 . S
O350 C339 1.236 1_655 S
O351 Tb320 2.341 1_455 S
O351 C339 1.266 . S
H352 C324 0.929 . S
H353 C325 0.931 . S
H354 C327 0.930 . S
H355 C328 0.930 . S
H356 C333 0.929 . S
H357 C334 0.931 . S
H358 C336 0.930 . S
H359 C337 0.930 . S
Tb360 C362 2.809 1_556 S
Tb360 O380 2.484 1_556 S
Tb360 O381 2.440 1_556 S
Tb360 O382 2.658 . S
Tb360 O383 2.409 . S
Tb360 O384 2.378 . S
Tb360 O388 2.325 . S
Tb360 O391 2.341 . S
Tb361 C371 2.809 . S
Tb361 O382 2.325 . S
Tb361 O385 2.341 . S
Tb361 O386 2.484 . S
Tb361 O387 2.440 . S
Tb361 O388 2.658 . S
Tb361 O389 2.409 . S
Tb361 O390 2.378 . S
C362 Tb360 2.809 1_554 S
C362 C363 1.514 . S
C362 O380 1.248 . S
C362 O381 1.266 . S
C363 C362 1.514 . S
C363 C364 1.359 . S
C363 C368 1.348 . S
C364 C363 1.359 . S
C364 C365 1.380 . S
C364 H392 0.929 . S
C365 C364 1.380 . S
C365 C366 1.347 . S
C365 H393 0.931 . S
C366 C365 1.347 . S
C366 C367 1.369 . S
C367 C366 1.369 . S
C367 C368 1.408 . S
C367 H394 0.930 . S
C368 C363 1.348 . S
C368 C367 1.408 . S
C368 H395 0.930 . S
C369 O382 1.281 . S
C369 O383 1.254 . S
C370 O384 1.236 . S
C370 O385 1.266 . S
C371 Tb361 2.809 . S
C371 C372 1.514 . S
C371 O386 1.248 . S
C371 O387 1.266 . S
C372 C371 1.514 . S
C372 C373 1.359 . S
C372 C377 1.348 . S
C373 C372 1.359 . S
C373 C374 1.380 . S
C373 H396 0.929 . S
C374 C373 1.380 . S
C374 C375 1.347 . S
C374 H397 0.931 . S
C375 C374 1.347 . S
C375 C376 1.369 . S
C376 C375 1.369 . S
C376 C377 1.408 . S
C376 H398 0.930 . S
C377 C372 1.348 . S
C377 C376 1.408 . S
C377 H399 0.930 . S
C378 O388 1.281 . S
C378 O389 1.254 . S
C379 O390 1.236 . S
C379 O391 1.266 . S
O380 Tb360 2.484 1_554 S
O380 C362 1.248 . S
O381 Tb360 2.440 1_554 S
O381 C362 1.266 . S
O382 Tb360 2.658 . S
O382 Tb361 2.325 . S
O382 C369 1.281 . S
O383 Tb360 2.409 . S
O383 C369 1.254 . S
O384 Tb360 2.378 . S
O384 C370 1.236 . S
O385 Tb361 2.341 . S
O385 C370 1.266 . S
O386 Tb361 2.484 . S
O386 C371 1.248 . S
O387 Tb361 2.440 . S
O387 C371 1.266 . S
O388 Tb360 2.325 . S
O388 Tb361 2.658 . S
O388 C378 1.281 . S
O389 Tb361 2.409 . S
O389 C378 1.254 . S
O390 Tb361 2.378 . S
O390 C379 1.236 . S
O391 Tb360 2.341 . S
O391 C379 1.266 . S
H392 C364 0.929 . S
H393 C365 0.931 . S
H394 C367 0.930 . S
H395 C368 0.930 . S
H396 C373 0.929 . S
H397 C374 0.931 . S
H398 C376 0.930 . S
H399 C377 0.930 . S
Tb400 C402 2.809 1_556 S
Tb400 O420 2.484 1_556 S
Tb400 O421 2.440 1_556 S
Tb400 O422 2.658 . S
Tb400 O423 2.409 . S
Tb400 O424 2.378 . S
Tb400 O428 2.325 . S
Tb400 O431 2.341 . S
Tb401 C411 2.809 . S
Tb401 O422 2.325 . S
Tb401 O425 2.341 1_655 S
Tb401 O426 2.484 . S
Tb401 O427 2.440 . S
Tb401 O428 2.658 . S
Tb401 O429 2.409 . S
Tb401 O430 2.378 . S
C402 Tb400 2.809 1_554 S
C402 C403 1.514 . S
C402 O420 1.248 . S
C402 O421 1.266 . S
C403 C402 1.514 . S
C403 C404 1.359 . S
C403 C408 1.348 . S
C404 C403 1.359 . S
C404 C405 1.380 . S
C404 H432 0.929 . S
C405 C404 1.380 . S
C405 C406 1.347 . S
C405 H433 0.931 . S
C406 C405 1.347 . S
C406 C407 1.369 . S
C407 C406 1.369 . S
C407 C408 1.408 . S
C407 H434 0.930 . S
C408 C403 1.348 . S
C408 C407 1.408 . S
C408 H435 0.930 . S
C409 O422 1.281 . S
C409 O423 1.254 . S
C410 O424 1.236 1_455 S
C410 O425 1.266 . S
C411 Tb401 2.809 . S
C411 C412 1.514 . S
C411 O426 1.248 . S
C411 O427 1.266 . S
C412 C411 1.514 . S
C412 C413 1.359 . S
C412 C417 1.348 . S
C413 C412 1.359 . S
C413 C414 1.380 . S
C413 H436 0.929 . S
C414 C413 1.380 . S
C414 C415 1.347 . S
C414 H437 0.931 . S
C415 C414 1.347 . S
C415 C416 1.369 . S
C416 C415 1.369 . S
C416 C417 1.408 . S
C416 H438 0.930 . S
C417 C412 1.348 . S
C417 C416 1.408 . S
C417 H439 0.930 . S
C418 O428 1.281 . S
C418 O429 1.254 . S
C419 O430 1.236 . S
C419 O431 1.266 . S
O420 Tb400 2.484 1_554 S
O420 C402 1.248 . S
O421 Tb400 2.440 1_554 S
O421 C402 1.266 . S
O422 Tb400 2.658 . S
O422 Tb401 2.325 . S
O422 C409 1.281 . S
O423 Tb400 2.409 . S
O423 C409 1.254 . S
O424 Tb400 2.378 . S
O424 C410 1.236 1_655 S
O425 Tb401 2.341 1_455 S
O425 C410 1.266 . S
O426 Tb401 2.484 . S
O426 C411 1.248 . S
O427 Tb401 2.440 . S
O427 C411 1.266 . S
O428 Tb400 2.325 . S
O428 Tb401 2.658 . S
O428 C418 1.281 . S
O429 Tb401 2.409 . S
O429 C418 1.254 . S
O430 Tb401 2.378 . S
O430 C419 1.236 . S
O431 Tb400 2.341 . S
O431 C419 1.266 . S
H432 C404 0.929 . S
H433 C405 0.931 . S
H434 C407 0.930 . S
H435 C408 0.930 . S
H436 C413 0.929 . S
H437 C414 0.931 . S
H438 C416 0.930 . S
H439 C417 0.930 . S
Tb440 C442 2.809 1_556 S
Tb440 O460 2.484 1_556 S
Tb440 O461 2.440 1_556 S
Tb440 O462 2.658 . S
Tb440 O463 2.409 . S
Tb440 O464 2.378 . S
Tb440 O468 2.325 . S
Tb440 O471 2.341 . S
Tb441 C451 2.809 . S
Tb441 O462 2.325 . S
Tb441 O465 2.341 . S
Tb441 O466 2.484 . S
Tb441 O467 2.440 . S
Tb441 O468 2.658 . S
Tb441 O469 2.409 . S
Tb441 O470 2.378 . S
C442 Tb440 2.809 1_554 S
C442 C443 1.514 . S
C442 O460 1.248 . S
C442 O461 1.266 . S
C443 C442 1.514 . S
C443 C444 1.359 . S
C443 C448 1.348 . S
C444 C443 1.359 . S
C444 C445 1.380 . S
C444 H472 0.929 . S
C445 C444 1.380 . S
C445 C446 1.347 . S
C445 H473 0.931 . S
C446 C445 1.347 . S
C446 C447 1.369 . S
C447 C446 1.369 . S
C447 C448 1.408 . S
C447 H474 0.930 . S
C448 C443 1.348 . S
C448 C447 1.408 . S
C448 H475 0.930 . S
C449 O462 1.281 . S
C449 O463 1.254 . S
C450 O464 1.236 . S
C450 O465 1.266 . S
C451 Tb441 2.809 . S
C451 C452 1.514 . S
C451 O466 1.248 . S
C451 O467 1.266 . S
C452 C451 1.514 . S
C452 C453 1.359 . S
C452 C457 1.348 . S
C453 C452 1.359 . S
C453 C454 1.380 . S
C453 H476 0.929 . S
C454 C453 1.380 . S
C454 C455 1.347 . S
C454 H477 0.931 . S
C455 C454 1.347 . S
C455 C456 1.369 . S
C456 C455 1.369 . S
C456 C457 1.408 . S
C456 H478 0.930 . S
C457 C452 1.348 . S
C457 C456 1.408 . S
C457 H479 0.930 . S
C458 O468 1.281 . S
C458 O469 1.254 . S
C459 O470 1.236 . S
C459 O471 1.266 . S
O460 Tb440 2.484 1_554 S
O460 C442 1.248 . S
O461 Tb440 2.440 1_554 S
O461 C442 1.266 . S
O462 Tb440 2.658 . S
O462 Tb441 2.325 . S
O462 C449 1.281 . S
O463 Tb440 2.409 . S
O463 C449 1.254 . S
O464 Tb440 2.378 . S
O464 C450 1.236 . S
O465 Tb441 2.341 . S
O465 C450 1.266 . S
O466 Tb441 2.484 . S
O466 C451 1.248 . S
O467 Tb441 2.440 . S
O467 C451 1.266 . S
O468 Tb440 2.325 . S
O468 Tb441 2.658 . S
O468 C458 1.281 . S
O469 Tb441 2.409 . S
O469 C458 1.254 . S
O470 Tb441 2.378 . S
O470 C459 1.236 . S
O471 Tb440 2.341 . S
O471 C459 1.266 . S
H472 C444 0.929 . S
H473 C445 0.931 . S
H474 C447 0.930 . S
H475 C448 0.930 . S
H476 C453 0.929 . S
H477 C454 0.931 . S
H478 C456 0.930 . S
H479 C457 0.930 . S
Tb480 C482 2.809 . S
Tb480 O500 2.484 . S
Tb480 O501 2.440 . S
Tb480 O502 2.658 . S
Tb480 O503 2.409 . S
Tb480 O504 2.378 . S
Tb480 O508 2.325 . S
Tb480 O511 2.341 1_565 S
Tb481 C491 2.809 1_554 S
Tb481 O502 2.325 . S
Tb481 O505 2.341 . S
Tb481 O506 2.484 1_554 S
Tb481 O507 2.440 1_554 S
Tb481 O508 2.658 . S
Tb481 O509 2.409 . S
Tb481 O510 2.378 . S
C482 Tb480 2.809 . S
C482 C483 1.514 . S
C482 O500 1.248 . S
C482 O501 1.266 . S
C483 C482 1.514 . S
C483 C484 1.359 . S
C483 C488 1.348 . S
C484 C483 1.359 . S
C484 C485 1.380 . S
C484 H512 0.929 . S
C485 C484 1.380 . S
C485 C486 1.347 . S
C485 H513 0.931 . S
C486 C485 1.347 . S
C486 C487 1.369 . S
C487 C486 1.369 . S
C487 C488 1.408 . S
C487 H514 0.930 . S
C488 C483 1.348 . S
C488 C487 1.408 . S
C488 H515 0.930 . S
C489 O502 1.281 . S
C489 O503 1.254 . S
C490 O504 1.236 . S
C490 O505 1.266 . S
C491 Tb481 2.809 1_556 S
C491 C492 1.514 . S
C491 O506 1.248 . S
C491 O507 1.266 . S
C492 C491 1.514 . S
C492 C493 1.359 . S
C492 C497 1.348 . S
C493 C492 1.359 . S
C493 C494 1.380 . S
C493 H516 0.929 . S
C494 C493 1.380 . S
C494 C495 1.347 . S
C494 H517 0.931 . S
C495 C494 1.347 . S
C495 C496 1.369 . S
C496 C495 1.369 . S
C496 C497 1.408 . S
C496 H518 0.930 . S
C497 C492 1.348 . S
C497 C496 1.408 . S
C497 H519 0.930 . S
C498 O508 1.281 . S
C498 O509 1.254 . S
C499 O510 1.236 1_545 S
C499 O511 1.266 . S
O500 Tb480 2.484 . S
O500 C482 1.248 . S
O501 Tb480 2.440 . S
O501 C482 1.266 . S
O502 Tb480 2.658 . S
O502 Tb481 2.325 . S
O502 C489 1.281 . S
O503 Tb480 2.409 . S
O503 C489 1.254 . S
O504 Tb480 2.378 . S
O504 C490 1.236 . S
O505 Tb481 2.341 . S
O505 C490 1.266 . S
O506 Tb481 2.484 1_556 S
O506 C491 1.248 . S
O507 Tb481 2.440 1_556 S
O507 C491 1.266 . S
O508 Tb480 2.325 . S
O508 Tb481 2.658 . S
O508 C498 1.281 . S
O509 Tb481 2.409 . S
O509 C498 1.254 . S
O510 Tb481 2.378 . S
O510 C499 1.236 1_565 S
O511 Tb480 2.341 1_545 S
O511 C499 1.266 . S
H512 C484 0.929 . S
H513 C485 0.931 . S
H514 C487 0.930 . S
H515 C488 0.930 . S
H516 C493 0.929 . S
H517 C494 0.931 . S
H518 C496 0.930 . S
H519 C497 0.930 . S
Tb520 C522 2.809 1_554 S
Tb520 O540 2.484 1_554 S
Tb520 O541 2.440 1_554 S
Tb520 O542 2.658 . S
Tb520 O543 2.409 . S
Tb520 O544 2.378 . S
Tb520 O548 2.325 . S
Tb520 O551 2.341 . S
Tb521 C531 2.809 . S
Tb521 O542 2.325 . S
Tb521 O545 2.341 . S
Tb521 O546 2.484 . S
Tb521 O547 2.440 . S
Tb521 O548 2.658 . S
Tb521 O549 2.409 . S
Tb521 O550 2.378 . S
C522 Tb520 2.809 1_556 S
C522 C523 1.514 . S
C522 O540 1.248 . S
C522 O541 1.266 . S
C523 C522 1.514 . S
C523 C524 1.359 . S
C523 C528 1.348 . S
C524 C523 1.359 . S
C524 C525 1.380 . S
C524 H552 0.929 . S
C525 C524 1.380 . S
C525 C526 1.347 . S
C525 H553 0.931 . S
C526 C525 1.347 . S
C526 C527 1.369 . S
C527 C526 1.369 . S
C527 C528 1.408 . S
C527 H554 0.930 . S
C528 C523 1.348 . S
C528 C527 1.408 . S
C528 H555 0.930 . S
C529 O542 1.281 . S
C529 O543 1.254 . S
C530 O544 1.236 . S
C530 O545 1.266 . S
C531 Tb521 2.809 . S
C531 C532 1.514 . S
C531 O546 1.248 . S
C531 O547 1.266 . S
C532 C531 1.514 . S
C532 C533 1.359 . S
C532 C537 1.348 . S
C533 C532 1.359 . S
C533 C534 1.380 . S
C533 H556 0.929 . S
C534 C533 1.380 . S
C534 C535 1.347 . S
C534 H557 0.931 . S
C535 C534 1.347 . S
C535 C536 1.369 . S
C536 C535 1.369 . S
C536 C537 1.408 . S
C536 H558 0.930 1_455 S
C537 C532 1.348 . S
C537 C536 1.408 . S
C537 H559 0.930 . S
C538 O548 1.281 . S
C538 O549 1.254 . S
C539 O550 1.236 . S
C539 O551 1.266 . S
O540 Tb520 2.484 1_556 S
O540 C522 1.248 . S
O541 Tb520 2.440 1_556 S
O541 C522 1.266 . S
O542 Tb520 2.658 . S
O542 Tb521 2.325 . S
O542 C529 1.281 . S
O543 Tb520 2.409 . S
O543 C529 1.254 . S
O544 Tb520 2.378 . S
O544 C530 1.236 . S
O545 Tb521 2.341 . S
O545 C530 1.266 . S
O546 Tb521 2.484 . S
O546 C531 1.248 . S
O547 Tb521 2.440 . S
O547 C531 1.266 . S
O548 Tb520 2.325 . S
O548 Tb521 2.658 . S
O548 C538 1.281 . S
O549 Tb521 2.409 . S
O549 C538 1.254 . S
O550 Tb521 2.378 . S
O550 C539 1.236 . S
O551 Tb520 2.341 . S
O551 C539 1.266 . S
H552 C524 0.929 . S
H553 C525 0.931 . S
H554 C527 0.930 . S
H555 C528 0.930 . S
H556 C533 0.929 . S
H557 C534 0.931 . S
H558 C536 0.930 1_655 S
H559 C537 0.930 . S
Tb560 C562 2.809 . S
Tb560 O580 2.484 . S
Tb560 O581 2.440 . S
Tb560 O582 2.658 . S
Tb560 O583 2.409 . S
Tb560 O584 2.378 . S
Tb560 O588 2.325 . S
Tb560 O591 2.341 . S
Tb561 C571 2.809 1_554 S
Tb561 O582 2.325 . S
Tb561 O585 2.341 . S
Tb561 O586 2.484 1_554 S
Tb561 O587 2.440 1_554 S
Tb561 O588 2.658 . S
Tb561 O589 2.409 . S
Tb561 O590 2.378 . S
C562 Tb560 2.809 . S
C562 C563 1.514 . S
C562 O580 1.248 . S
C562 O581 1.266 . S
C563 C562 1.514 . S
C563 C564 1.359 . S
C563 C568 1.348 . S
C564 C563 1.359 . S
C564 C565 1.380 . S
C564 H592 0.929 . S
C565 C564 1.380 . S
C565 C566 1.347 . S
C565 H593 0.931 . S
C566 C565 1.347 . S
C566 C567 1.369 . S
C567 C566 1.369 . S
C567 C568 1.408 . S
C567 H594 0.930 . S
C568 C563 1.348 . S
C568 C567 1.408 . S
C568 H595 0.930 . S
C569 O582 1.281 . S
C569 O583 1.254 . S
C570 O584 1.236 . S
C570 O585 1.266 . S
C571 Tb561 2.809 1_556 S
C571 C572 1.514 . S
C571 O586 1.248 . S
C571 O587 1.266 . S
C572 C571 1.514 . S
C572 C573 1.359 . S
C572 C577 1.348 . S
C573 C572 1.359 . S
C573 C574 1.380 . S
C573 H596 0.929 . S
C574 C573 1.380 . S
C574 C575 1.347 . S
C574 H597 0.931 . S
C575 C574 1.347 . S
C575 C576 1.369 . S
C576 C575 1.369 . S
C576 C577 1.408 . S
C576 H598 0.930 . S
C577 C572 1.348 . S
C577 C576 1.408 . S
C577 H599 0.930 . S
C578 O588 1.281 . S
C578 O589 1.254 . S
C579 O590 1.236 . S
C579 O591 1.266 . S
O580 Tb560 2.484 . S
O580 C562 1.248 . S
O581 Tb560 2.440 . S
O581 C562 1.266 . S
O582 Tb560 2.658 . S
O582 Tb561 2.325 . S
O582 C569 1.281 . S
O583 Tb560 2.409 . S
O583 C569 1.254 . S
O584 Tb560 2.378 . S
O584 C570 1.236 . S
O585 Tb561 2.341 . S
O585 C570 1.266 . S
O586 Tb561 2.484 1_556 S
O586 C571 1.248 . S
O587 Tb561 2.440 1_556 S
O587 C571 1.266 . S
O588 Tb560 2.325 . S
O588 Tb561 2.658 . S
O588 C578 1.281 . S
O589 Tb561 2.409 . S
O589 C578 1.254 . S
O590 Tb561 2.378 . S
O590 C579 1.236 . S
O591 Tb560 2.341 . S
O591 C579 1.266 . S
H592 C564 0.929 . S
H593 C565 0.931 . S
H594 C567 0.930 . S
H595 C568 0.930 . S
H596 C573 0.929 . S
H597 C574 0.931 . S
H598 C576 0.930 . S
H599 C577 0.930 . S
Tb600 C602 2.809 . S
Tb600 O620 2.484 . S
Tb600 O621 2.440 . S
Tb600 O622 2.658 . S
Tb600 O623 2.409 . S
Tb600 O624 2.378 . S
Tb600 O628 2.325 . S
Tb600 O631 2.341 . S
Tb601 C611 2.809 1_554 S
Tb601 O622 2.325 . S
Tb601 O625 2.341 . S
Tb601 O626 2.484 1_554 S
Tb601 O627 2.440 1_554 S
Tb601 O628 2.658 . S
Tb601 O629 2.409 . S
Tb601 O630 2.378 . S
C602 Tb600 2.809 . S
C602 C603 1.514 . S
C602 O620 1.248 . S
C602 O621 1.266 . S
C603 C602 1.514 . S
C603 C604 1.359 . S
C603 C608 1.348 . S
C604 C603 1.359 . S
C604 C605 1.380 . S
C604 H632 0.929 . S
C605 C604 1.380 . S
C605 C606 1.347 . S
C605 H633 0.931 . S
C606 C605 1.347 . S
C606 C607 1.369 . S
C607 C606 1.369 . S
C607 C608 1.408 . S
C607 H634 0.930 . S
C608 C603 1.348 . S
C608 C607 1.408 . S
C608 H635 0.930 . S
C609 O622 1.281 . S
C609 O623 1.254 . S
C610 O624 1.236 . S
C610 O625 1.266 . S
C611 Tb601 2.809 1_556 S
C611 C612 1.514 . S
C611 O626 1.248 . S
C611 O627 1.266 . S
C612 C611 1.514 . S
C612 C613 1.359 . S
C612 C617 1.348 . S
C613 C612 1.359 . S
C613 C614 1.380 . S
C613 H636 0.929 . S
C614 C613 1.380 . S
C614 C615 1.347 . S
C614 H637 0.931 . S
C615 C614 1.347 . S
C615 C616 1.369 . S
C616 C615 1.369 . S
C616 C617 1.408 . S
C616 H638 0.930 . S
C617 C612 1.348 . S
C617 C616 1.408 . S
C617 H639 0.930 . S
C618 O628 1.281 . S
C618 O629 1.254 . S
C619 O630 1.236 . S
C619 O631 1.266 . S
O620 Tb600 2.484 . S
O620 C602 1.248 . S
O621 Tb600 2.440 . S
O621 C602 1.266 . S
O622 Tb600 2.658 . S
O622 Tb601 2.325 . S
O622 C609 1.281 . S
O623 Tb600 2.409 . S
O623 C609 1.254 . S
O624 Tb600 2.378 . S
O624 C610 1.236 . S
O625 Tb601 2.341 . S
O625 C610 1.266 . S
O626 Tb601 2.484 1_556 S
O626 C611 1.248 . S
O627 Tb601 2.440 1_556 S
O627 C611 1.266 . S
O628 Tb600 2.325 . S
O628 Tb601 2.658 . S
O628 C618 1.281 . S
O629 Tb601 2.409 . S
O629 C618 1.254 . S
O630 Tb601 2.378 . S
O630 C619 1.236 . S
O631 Tb600 2.341 . S
O631 C619 1.266 . S
H632 C604 0.929 . S
H633 C605 0.931 . S
H634 C607 0.930 . S
H635 C608 0.930 . S
H636 C613 0.929 . S
H637 C614 0.931 . S
H638 C616 0.930 . S
H639 C617 0.930 . S
Tb640 C642 2.809 1_554 S
Tb640 O660 2.484 1_554 S
Tb640 O661 2.440 . S
Tb640 O662 2.658 . S
Tb640 O663 2.409 . S
Tb640 O664 2.378 . S
Tb640 O668 2.325 . S
Tb640 O671 2.341 . S
Tb641 C651 2.809 . S
Tb641 O662 2.325 . S
Tb641 O665 2.341 1_565 S
Tb641 O666 2.484 . S
Tb641 O667 2.440 . S
Tb641 O668 2.658 . S
Tb641 O669 2.409 . S
Tb641 O670 2.378 . S
C642 Tb640 2.809 1_556 S
C642 C643 1.514 . S
C642 O660 1.248 . S
C642 O661 1.266 1_556 S
C643 C642 1.514 . S
C643 C644 1.359 . S
C643 C648 1.348 . S
C644 C643 1.359 . S
C644 C645 1.380 . S
C644 H672 0.929 . S
C645 C644 1.380 . S
C645 C646 1.347 . S
C645 H673 0.931 . S
C646 C645 1.347 . S
C646 C647 1.369 . S
C647 C646 1.369 . S
C647 C648 1.408 . S
C647 H674 0.930 . S
C648 C643 1.348 . S
C648 C647 1.408 . S
C648 H675 0.930 . S
C649 O662 1.281 . S
C649 O663 1.254 . S
C650 O664 1.236 1_545 S
C650 O665 1.266 . S
C651 Tb641 2.809 . S
C651 C652 1.514 . S
C651 O666 1.248 . S
C651 O667 1.266 . S
C652 C651 1.514 . S
C652 C653 1.359 . S
C652 C657 1.348 . S
C653 C652 1.359 . S
C653 C654 1.380 . S
C653 H676 0.929 . S
C654 C653 1.380 . S
C654 C655 1.347 . S
C654 H677 0.931 . S
C655 C654 1.347 . S
C655 C656 1.369 . S
C656 C655 1.369 . S
C656 C657 1.408 . S
C656 H678 0.930 . S
C657 C652 1.348 . S
C657 C656 1.408 . S
C657 H679 0.930 . S
C658 O668 1.281 . S
C658 O669 1.254 . S
C659 O670 1.236 . S
C659 O671 1.266 . S
O660 Tb640 2.484 1_556 S
O660 C642 1.248 . S
O661 Tb640 2.440 . S
O661 C642 1.266 1_554 S
O662 Tb640 2.658 . S
O662 Tb641 2.325 . S
O662 C649 1.281 . S
O663 Tb640 2.409 . S
O663 C649 1.254 . S
O664 Tb640 2.378 . S
O664 C650 1.236 1_565 S
O665 Tb641 2.341 1_545 S
O665 C650 1.266 . S
O666 Tb641 2.484 . S
O666 C651 1.248 . S
O667 Tb641 2.440 . S
O667 C651 1.266 . S
O668 Tb640 2.325 . S
O668 Tb641 2.658 . S
O668 C658 1.281 . S
O669 Tb641 2.409 . S
O669 C658 1.254 . S
O670 Tb641 2.378 . S
O670 C659 1.236 . S
O671 Tb640 2.341 . S
O671 C659 1.266 . S
H672 C644 0.929 . S
H673 C645 0.931 . S
H674 C647 0.930 . S
H675 C648 0.930 . S
H676 C653 0.929 . S
H677 C654 0.931 . S
H678 C656 0.930 . S
H679 C657 0.930 . S
Tb680 C682 2.809 . S
Tb680 O700 2.484 . S
Tb680 O701 2.440 . S
Tb680 O702 2.658 . S
Tb680 O703 2.409 . S
Tb680 O704 2.378 . S
Tb680 O708 2.325 . S
Tb680 O711 2.341 . S
Tb681 C691 2.809 1_554 S
Tb681 O702 2.325 . S
Tb681 O705 2.341 . S
Tb681 O706 2.484 1_554 S
Tb681 O707 2.440 1_554 S
Tb681 O708 2.658 . S
Tb681 O709 2.409 . S
Tb681 O710 2.378 . S
C682 Tb680 2.809 . S
C682 C683 1.514 . S
C682 O700 1.248 . S
C682 O701 1.266 . S
C683 C682 1.514 . S
C683 C684 1.359 . S
C683 C688 1.348 . S
C684 C683 1.359 . S
C684 C685 1.380 . S
C684 H712 0.929 . S
C685 C684 1.380 . S
C685 C686 1.347 . S
C685 H713 0.931 . S
C686 C685 1.347 . S
C686 C687 1.369 . S
C687 C686 1.369 . S
C687 C688 1.408 . S
C687 H714 0.930 . S
C688 C683 1.348 . S
C688 C687 1.408 . S
C688 H715 0.930 . S
C689 O702 1.281 . S
C689 O703 1.254 . S
C690 O704 1.236 . S
C690 O705 1.266 . S
C691 Tb681 2.809 1_556 S
C691 C692 1.514 . S
C691 O706 1.248 . S
C691 O707 1.266 . S
C692 C691 1.514 . S
C692 C693 1.359 . S
C692 C697 1.348 . S
C693 C692 1.359 . S
C693 C694 1.380 . S
C693 H716 0.929 . S
C694 C693 1.380 . S
C694 C695 1.347 . S
C694 H717 0.931 . S
C695 C694 1.347 . S
C695 C696 1.369 . S
C696 C695 1.369 . S
C696 C697 1.408 . S
C696 H718 0.930 . S
C697 C692 1.348 . S
C697 C696 1.408 . S
C697 H719 0.930 . S
C698 O708 1.281 . S
C698 O709 1.254 . S
C699 O710 1.236 . S
C699 O711 1.266 . S
O700 Tb680 2.484 . S
O700 C682 1.248 . S
O701 Tb680 2.440 . S
O701 C682 1.266 . S
O702 Tb680 2.658 . S
O702 Tb681 2.325 . S
O702 C689 1.281 . S
O703 Tb680 2.409 . S
O703 C689 1.254 . S
O704 Tb680 2.378 . S
O704 C690 1.236 . S
O705 Tb681 2.341 . S
O705 C690 1.266 . S
O706 Tb681 2.484 1_556 S
O706 C691 1.248 . S
O707 Tb681 2.440 1_556 S
O707 C691 1.266 . S
O708 Tb680 2.325 . S
O708 Tb681 2.658 . S
O708 C698 1.281 . S
O709 Tb681 2.409 . S
O709 C698 1.254 . S
O710 Tb681 2.378 . S
O710 C699 1.236 . S
O711 Tb680 2.341 . S
O711 C699 1.266 . S
H712 C684 0.929 . S
H713 C685 0.931 . S
H714 C687 0.930 . S
H715 C688 0.930 . S
H716 C693 0.929 . S
H717 C694 0.931 . S
H718 C696 0.930 . S
H719 C697 0.930 . S
C539 C19 4.330 . S
C58 C578 4.276 . S
C99 C498 4.273 . S
C98 C298 4.060 . S
C338 C18 4.464 . S
C59 C258 4.423 . S
C130 C409 4.246 . S
C169 C449 3.824 . S
C369 C210 3.783 . S
C649 C209 4.296 . S
C129 C690 4.301 . S
C610 C170 4.344 . S
C339 C538 4.130 1_556 S
C259 C579 4.140 1_556 S
C299 C499 4.563 1_556 S
C370 C650 4.781 1_556 S
C689 C410 4.398 1_554 S
C609 C450 4.768 1_554 S
C9 C178 1.290 . S
C219 C50 2.442 . S
C139 C89 1.770 . S
C179 C90 2.514 . S
C218 C10 2.032 . S
C138 C49 1.513 . S
C419 C250 2.505 . S
C459 C290 2.663 . S
C379 C330 2.630 . S
C418 C329 1.433 . S
C458 C249 1.497 . S
C378 C289 1.309 . S
C658 C489 1.452 . S
C699 C530 2.464 . S
C569 C619 1.983 . S
C570 C659 2.694 . S
C490 C698 1.985 . S
C618 C529 1.438 . S
C15 C6 2.224 1_654 S
C46 C55 2.583 1_554 S
C95 C86 1.851 1_554 S
C126 C135 2.575 1_455 S
C166 C175 1.989 . S
C215 C206 2.586 1_554 S
C255 C246 3.388 . S
C286 C295 1.963 . S
C335 C326 3.135 . S
C366 C375 2.100 . S
C406 C415 3.080 . S
C446 C455 1.773 . S
C486 C495 2.198 . S
C526 C535 2.460 . S
C575 C566 2.028 . S
C615 C606 2.736 . S
C646 C655 2.095 . S
C686 C695 2.278 . S
