# Generated by pormake.
# Topology rkf, (6)-cn, num edge types: 1
# Building blocks:
#     Node 0, Type 0, BuildingBlock: BETFEN_clean_sbu_0, # of connection points: 6
#     Node 1, Type 0, BuildingBlock: BETFEN_clean_sbu_0, # of connection points: 6
#     Node 2, Type 0, BuildingBlock: BETFEN_clean_sbu_0, # of connection points: 6
#     Node 3, Type 0, BuildingBlock: BETFEN_clean_sbu_0, # of connection points: 6
#     Node 4, Type 0, BuildingBlock: BETFEN_clean_sbu_0, # of connection points: 6
#     Node 5, Type 0, BuildingBlock: BETFEN_clean_sbu_0, # of connection points: 6
#     Edge 6, Type (0, 0), BuildingBlock: CIFDUS_clean_linker_0, # of connection points: 2
#     Edge 7, Type (0, 0), BuildingBlock: CIFDUS_clean_linker_0, # of connection points: 2
#     Edge 8, Type (0, 0), BuildingBlock: CIFDUS_clean_linker_0, # of connection points: 2
#     Edge 9, Type (0, 0), BuildingBlock: CIFDUS_clean_linker_0, # of connection points: 2
#     Edge 10, Type (0, 0), BuildingBlock: CIFDUS_clean_linker_0, # of connection points: 2
#     Edge 11, Type (0, 0), BuildingBlock: CIFDUS_clean_linker_0, # of connection points: 2
#     Edge 12, Type (0, 0), BuildingBlock: CIFDUS_clean_linker_0, # of connection points: 2
#     Edge 13, Type (0, 0), BuildingBlock: CIFDUS_clean_linker_0, # of connection points: 2
#     Edge 14, Type (0, 0), BuildingBlock: CIFDUS_clean_linker_0, # of connection points: 2
#     Edge 15, Type (0, 0), BuildingBlock: CIFDUS_clean_linker_0, # of connection points: 2
#     Edge 16, Type (0, 0), BuildingBlock: CIFDUS_clean_linker_0, # of connection points: 2
#     Edge 17, Type (0, 0), BuildingBlock: CIFDUS_clean_linker_0, # of connection points: 2
#     Edge 18, Type (0, 0), BuildingBlock: CIFDUS_clean_linker_0, # of connection points: 2
#     Edge 19, Type (0, 0), BuildingBlock: CIFDUS_clean_linker_0, # of connection points: 2
#     Edge 20, Type (0, 0), BuildingBlock: CIFDUS_clean_linker_0, # of connection points: 2
#     Edge 21, Type (0, 0), BuildingBlock: CIFDUS_clean_linker_0, # of connection points: 2
#     Edge 22, Type (0, 0), BuildingBlock: CIFDUS_clean_linker_0, # of connection points: 2
#     Edge 23, Type (0, 0), BuildingBlock: CIFDUS_clean_linker_0, # of connection points: 2
# Relax obj value: 0.840
# Max RMSD: 0.249
# Mean RMSD: 0.249
data_MOF--net-rkf--node1-BETFEN_clean_sbu_0--edge1-CIFDUS_clean_linker_0
_symmetry_space_group_name_H-M    P1
_symmetry_Int_Tables_number       1
_symmetry_cell_setting            triclinic
loop_
_symmetry_equiv_pos_as_xyz
'x, y, z'
_cell_length_a     22.401646
_cell_length_b     22.546409
_cell_length_c     40.771592
_cell_angle_alpha  90.546417
_cell_angle_beta   89.762736
_cell_angle_gamma 120.1128
loop_
_atom_site_label
_atom_site_type_symbol
_atom_site_fract_x
_atom_site_fract_y
_atom_site_fract_z
_atom_type_partial_charge
Pr0 Pr 0.24962 0.95251 0.16854 0.0
Pr1 Pr 0.31206 0.09843 1.14819 0.0
C2 C 0.2174 0.82114 0.17664 0.0
C3 C 0.17139 0.76476 0.19829 0.0
C4 C 0.10687 0.75601 0.20699 0.0
C5 C 0.06605 0.70725 0.23005 0.0
C6 C 0.08908 0.66653 0.24521 0.0
C7 C 0.15224 0.67296 0.23524 0.0
C8 C 0.1931 0.72176 0.21185 0.0
C9 C 0.16345 0.0033 0.18131 0.0
C10 C 0.29577 0.06862 0.23115 0.0
C11 C 0.35911 0.23356 1.14089 0.0
C12 C 0.40726 0.29491 1.12278 0.0
C13 C 0.46848 0.30284 1.10922 0.0
C14 C 0.50951 0.35918 1.08929 0.0
C15 C 0.48928 0.40772 1.08243 0.0
C16 C 0.42943 0.40065 1.09759 0.0
C17 C 0.38909 0.34495 1.1176 0.0
C18 C 0.40383 0.0475 1.14145 0.0
C19 C 0.22714 -0.01411 1.08735 0.0
O20 O 0.27125 0.8728 0.19043 0.0
O21 O 0.18704 0.84032 0.15542 0.0
O22 O 0.20004 0.015 0.15594 0.0
O23 O 0.16321 0.95597 0.19939 0.0
O24 O 0.30648 0.11179 0.20686 0.0
O25 O 0.2777 0.00373 0.22358 0.0
O26 O 0.30683 0.18608 1.1244 0.0
O27 O 0.38508 0.2092 0.16184 0.0
O28 O 0.3635 0.03709 0.16511 0.0
O29 O 0.3973 0.08565 1.11979 0.0
O30 O 0.22374 0.94002 1.10909 0.0
O31 O 0.25642 0.05116 1.09683 0.0
H32 H 0.08911 0.78886 0.19704 0.0
H33 H 0.01862 0.7051 0.23765 0.0
H34 H 0.17133 0.64241 0.24656 0.0
H35 H 0.24272 0.72772 0.20529 0.0
H36 H 0.48331 0.26451 1.11315 0.0
H37 H 0.55546 0.36327 1.07826 0.0
H38 H 0.41084 0.43559 1.09243 0.0
H39 H 0.3419 0.33942 1.12794 0.0
Pr40 Pr 0.39346 0.28372 0.49597 0.0
Pr41 Pr 0.25952 0.27873 0.48574 0.0
C42 C 0.52556 0.32468 0.51138 0.0
C43 C 0.56129 0.32409 0.54155 0.0
C44 C 0.59474 0.28553 0.54237 0.0
C45 C 0.6133 0.26976 0.57235 0.0
C46 C 0.59881 0.29258 0.60192 0.0
C47 C 0.57254 0.33762 0.60067 0.0
C48 C 0.55365 0.35298 0.57079 0.0
C49 C 0.28466 0.15458 0.50554 0.0
C50 C 0.3017 0.29476 0.56442 0.0
C51 C 0.13373 0.26071 0.47205 0.0
C52 C 0.10206 0.29319 0.45337 0.0
C53 C 0.13602 0.3646 0.44936 0.0
C54 C 0.10497 0.39448 0.43144 0.0
C55 C 0.03967 0.35341 0.41704 0.0
C56 C 0.00572 0.2819 0.42152 0.0
C57 C 0.03659 0.25221 0.43961 0.0
C58 C 0.37766 0.40796 0.47469 0.0
C59 C 0.31777 0.22239 0.42166 0.0
O60 O 0.501 0.36655 0.51071 0.0
O61 O 0.48292 0.26425 0.49899 0.0
O62 O 0.28748 0.20927 0.51508 0.0
O63 O 0.3403 0.16437 0.49082 0.0
O64 O 0.24945 0.27084 0.54361 0.0
O65 O 0.36383 0.30929 0.55221 0.0
O66 O 0.16148 0.23106 0.45522 0.0
O67 O 0.17018 0.29459 0.49763 0.0
O68 O 0.36794 0.35096 0.46494 0.0
O69 O 0.32401 0.40047 0.49038 0.0
O70 O 0.3784 0.2525 0.43752 0.0
O71 O 0.26386 0.2205 0.43666 0.0
H72 H 0.60174 0.26329 0.52004 0.0
H73 H 0.63402 0.23547 0.57256 0.0
H74 H 0.55999 0.35564 0.62293 0.0
H75 H 0.52828 0.38315 0.57099 0.0
H76 H 0.1867 0.3972 0.45988 0.0
H77 H 0.13238 0.44963 0.42859 0.0
H78 H 0.95619 0.24843 0.41016 0.0
H79 H 0.00964 0.19706 0.44247 0.0
Pr80 Pr 0.22775 0.41624 0.83578 0.0
Pr81 Pr 0.08944 0.29358 0.82037 0.0
C82 C 0.33291 0.54013 0.85406 0.0
C83 C 0.37876 0.57054 0.88266 0.0
C84 C 0.44935 0.59269 0.87947 0.0
C85 C 0.49112 0.60902 0.90727 0.0
C86 C 0.46298 0.60413 0.93863 0.0
C87 C 0.39401 0.58847 0.9415 0.0
C88 C 0.35213 0.57152 0.91377 0.0
C89 C 0.22651 0.29445 0.84178 0.0
C90 C 0.11398 0.33113 0.90099 0.0
C91 C -0.02601 0.17618 0.80382 0.0
C92 C 0.90712 0.15903 0.78978 0.0
C93 C 0.88575 0.20786 0.78938 0.0
C94 C 0.82362 0.19251 0.77438 0.0
C95 C 0.78212 0.12818 0.75942 0.0
C96 C 0.80278 0.07861 0.76107 0.0
C97 C 0.86479 0.09398 0.77616 0.0
C98 C 0.09331 0.41954 0.81391 0.0
C99 C 0.20967 0.3519 0.75834 0.0
O100 O 0.2679 0.52233 0.85764 0.0
O101 O 0.34129 0.4952 0.83725 0.0
O102 O 0.17996 0.3061 0.85103 0.0
O103 O 0.27974 0.34806 0.82985 0.0
O104 O 0.0785 0.28207 0.87903 0.0
O105 O 0.16945 0.3891 0.89025 0.0
O106 O 0.02737 0.20671 0.78439 0.0
O107 O -0.01405 0.20302 0.83319 0.0
O108 O 0.13923 0.40685 0.80461 0.0
O109 O 0.04042 0.365 0.82525 0.0
O110 O 0.24338 0.40785 0.77731 0.0
O111 O 0.15276 0.29844 0.77047 0.0
H112 H 0.47122 0.59321 0.85564 0.0
H113 H 0.54417 0.62114 0.90442 0.0
H114 H 0.37065 0.58348 0.96539 0.0
H115 H 0.29804 0.55519 0.91703 0.0
H116 H 0.91785 0.25836 0.8 0.0
H117 H 0.80911 0.23164 0.77359 0.0
H118 H 0.77298 0.02908 0.74917 0.0
H119 H 0.88063 0.05577 0.77636 0.0
Pr120 Pr 0.89486 0.2169 0.16923 0.0
Pr121 Pr 0.90707 0.0968 1.15489 0.0
C122 C 0.85349 0.30931 0.17665 0.0
C123 C 0.82842 0.32658 0.20657 0.0
C124 C 0.85529 0.39551 0.21552 0.0
C125 C 0.85362 0.41325 0.24832 0.0
C126 C 0.8262 0.36238 0.27254 0.0
C127 C 0.79069 0.29315 0.26262 0.0
C128 C 0.79197 0.27539 0.2299 0.0
C129 C 0.02217 0.23854 0.18706 0.0
C130 C 0.87933 0.11729 0.23488 0.0
C131 C 0.91846 -0.0163 1.1512 0.0
C132 C 0.88446 0.92286 1.13004 0.0
C133 C 0.86327 0.85774 1.14288 0.0
C134 C 0.8218 0.79881 1.12416 0.0
C135 C 0.80074 0.80456 1.09249 0.0
C136 C 0.82359 0.8702 1.07962 0.0
C137 C 0.86455 0.92867 1.09827 0.0
C138 C 0.77692 0.0799 1.13981 0.0
C139 C 0.95382 0.20226 1.09094 0.0
O140 O 0.81363 0.24812 0.16415 0.0
O141 O 0.91827 0.32565 0.178 0.0
O142 O -0.00883 0.21003 0.16073 0.0
O143 O -0.01313 0.25592 0.20618 0.0
O144 O 0.90784 0.09294 0.21416 0.0
O145 O 0.86212 0.16194 0.22302 0.0
O146 O 0.96234 0.04144 1.13717 0.0
O147 O 0.87682 -0.00985 0.17142 0.0
O148 O 0.81038 0.1051 0.16579 0.0
O149 O 0.81061 0.0623 1.11985 0.0
O150 O 0.93111 0.23558 1.11038 0.0
O151 O 0.95246 0.14707 1.1029 0.0
H152 H 0.88353 0.43578 0.19787 0.0
H153 H 0.87988 0.46677 0.25521 0.0
H154 H 0.76913 0.25242 0.28051 0.0
H155 H 0.77085 0.2217 0.22366 0.0
H156 H 0.87725 0.85249 0.16765 0.0
H157 H 0.80521 0.74895 1.13463 0.0
H158 H 0.8101 0.87661 1.05494 0.0
H159 H 0.87937 0.97842 1.08809 0.0
Pr160 Pr 0.76934 0.9295 0.50165 0.0
Pr161 Pr 0.86257 0.87294 0.48943 0.0
C162 C 0.66521 0.95159 0.51819 0.0
C163 C 0.62651 0.94829 0.54783 0.0
C164 C 0.59882 -0.00835 0.55125 0.0
C165 C 0.57385 -0.00129 0.58167 0.0
C166 C 0.57686 0.96279 0.60905 0.0
C167 C 0.59885 0.91467 0.60455 0.0
C168 C 0.62378 0.90775 0.57424 0.0
C169 C 0.90827 0.02396 0.50396 0.0
C170 C 0.83801 0.88632 0.56886 0.0
C171 C 0.95905 0.83899 0.47498 0.0
C172 C 0.96703 0.79005 0.45414 0.0
C173 C 0.93961 0.77433 0.42237 0.0
C174 C 0.949 0.72867 0.40275 0.0
C175 C -0.01461 0.69728 0.41464 0.0
C176 C 0.01008 0.71101 0.44706 0.0
C177 C 0.00103 0.75714 0.46661 0.0
C178 C 0.72271 0.7713 0.48876 0.0
C179 C 0.83228 0.95285 0.42415 0.0
O180 O 0.65561 0.89323 0.50654 0.0
O181 O 0.73 -5e-05 0.51803 0.0
O182 O 0.87769 0.96664 0.5172 0.0
O183 O 0.86613 0.03589 0.48726 0.0
O184 O 0.88314 0.88877 0.54708 0.0
O185 O 0.78496 0.89285 0.55743 0.0
O186 O 0.95617 0.88923 0.46057 0.0
O187 O 0.91527 0.81193 0.49905 0.0
O188 O 0.7467 0.8294 0.47563 0.0
O189 O 0.77158 0.76283 0.50016 0.0
O190 O 0.78531 0.95559 0.4434 0.0
O191 O 0.86911 0.92636 0.43658 0.0
H192 H 0.60033 0.02307 0.53097 0.0
H193 H 0.55689 0.03584 0.58433 0.0
H194 H 0.60304 0.88689 0.62511 0.0
H195 H 0.64506 0.87405 0.57204 0.0
H196 H 0.91226 0.79842 0.41245 0.0
H197 H 0.93052 0.72069 0.37769 0.0
H198 H 0.03788 0.68746 0.45702 0.0
H199 H 0.02148 0.76792 0.49136 0.0
Pr200 Pr 0.94025 0.78328 0.83297 0.0
Pr201 Pr 0.08693 0.89182 0.82015 0.0
C202 C 0.82419 0.66757 0.85027 0.0
C203 C 0.79857 0.62868 0.88069 0.0
C204 C 0.84542 0.63274 0.90452 0.0
C205 C 0.82275 0.60949 0.93615 0.0
C206 C 0.7529 0.58247 0.94457 0.0
C207 C 0.70502 0.57123 0.9196 0.0
C208 C 0.72789 0.59476 0.88786 0.0
C209 C 0.96783 0.91628 0.84036 0.0
C210 C 0.05553 0.85627 0.89952 0.0
C211 C 0.21005 0.00139 0.80553 0.0
C212 C 0.26752 0.02119 0.78259 0.0
C213 C 0.33537 0.05826 0.79445 0.0
C214 C 0.39115 0.07713 0.77331 0.0
C215 C 0.37993 0.05945 0.73985 0.0
C216 C 0.31157 0.02087 0.72825 0.0
C217 C 0.25587 0.00162 0.74946 0.0
C218 C 0.06627 0.7591 0.81426 0.0
C219 C 0.96877 0.85028 0.75662 0.0
O220 O 0.8776 0.66808 0.83699 0.0
O221 O 0.82923 0.72792 0.85045 0.0
O222 O 0.00219 0.89087 0.85093 0.0
O223 O 0.91421 0.87145 0.82382 0.0
O224 O 0.0944 0.90473 0.87837 0.0
O225 O -0.00244 0.80125 0.88781 0.0
O226 O 0.15163 -0.00751 0.79386 0.0
O227 O 0.20206 0.95565 0.82713 0.0
O228 O 0.025 0.77727 0.80363 0.0
O229 O 0.12145 0.81065 0.82625 0.0
O230 O 0.92293 0.80018 0.77575 0.0
O231 O 0.03231 0.89183 0.76846 0.0
H232 H 0.90027 0.6586 0.89942 0.0
H233 H 0.86132 0.61972 0.95469 0.0
H234 H 0.65081 0.54994 0.92531 0.0
H235 H 0.69102 0.59079 0.86959 0.0
H236 H 0.3452 0.07293 0.82011 0.0
H237 H 0.44301 0.10629 0.78308 0.0
H238 H 0.30092 0.00751 0.70251 0.0
H239 H 0.20384 0.97223 0.73988 0.0
H240 H 0.03113 0.16882 0.23801 0.0
H241 H 0.1448 0.29684 0.15672 0.0
H242 H 0.20766 0.23522 1.15035 0.0
H243 H 0.20173 0.12585 0.15678 0.0
H244 H 0.08209 -0.01062 0.23441 0.0
H245 H 0.04506 0.07032 0.25219 0.0
C246 C 0.07174 0.18465 0.21988 0.0
C247 C 0.08228 0.23505 0.19706 0.0
C248 C 0.10237 0.14459 0.21437 0.0
C249 C 0.13602 0.25741 0.17426 0.0
C250 C 0.17049 0.22111 0.17009 0.0
C251 C 0.16903 0.11459 0.17801 0.0
C252 C 0.14319 0.05164 0.19373 0.0
C253 C 0.14936 0.16125 0.18809 0.0
C254 C 0.10098 0.03723 0.22145 0.0
C255 C 0.08057 0.08368 0.23179 0.0
H256 H -0.00182 0.03333 0.54746 0.0
H257 H -0.02332 0.07015 0.44581 0.0
H258 H 0.09133 0.08589 0.43403 0.0
H259 H 0.19997 0.0977 0.45448 0.0
H260 H 0.22311 0.07368 0.55731 0.0
H261 H 0.10119 0.03424 0.56644 0.0
C262 C 0.01951 0.04637 0.52286 0.0
C263 C -0.01878 0.05318 0.49769 0.0
C264 C 0.08327 0.05289 0.51634 0.0
C265 C 0.00732 0.06781 0.4657 0.0
C266 C 0.07155 0.0746 0.45886 0.0
C267 C 0.17731 0.08172 0.47858 0.0
C268 C 0.21973 0.09099 0.50548 0.0
C269 C 0.11006 0.06778 0.48413 0.0
C270 C 0.19057 0.0671 0.53639 0.0
C271 C 0.12182 0.04721 0.54178 0.0
H272 H 0.04941 0.00613 0.884 0.0
H273 H -0.02785 -0.01249 0.78552 0.0
H274 H 0.06721 0.10321 0.77316 0.0
H275 H 0.17215 0.20781 0.79113 0.0
H276 H 0.24446 0.22566 0.8903 0.0
H277 H 0.15657 0.10667 0.90058 0.0
C278 C 0.05255 0.02835 0.86007 0.0
C279 C 0.00397 -0.01015 0.83581 0.0
C280 C 0.10894 0.09175 0.85273 0.0
C281 C 0.00823 0.01769 0.80475 0.0
C282 C 0.06355 0.08257 0.79746 0.0
C283 C 0.16953 0.1848 0.81461 0.0
C284 C 0.21308 0.22488 0.84018 0.0
C285 C 0.11474 0.11932 0.82116 0.0
C286 C 0.21148 0.19483 0.87027 0.0
C287 C 0.15977 0.12798 0.87648 0.0
H288 H 0.51048 0.53801 1.07952 0.0
H289 H 0.54144 0.39111 1.02436 0.0
H290 H 0.55489 0.45406 0.9743 0.0
H291 H 0.52542 0.52952 0.94485 0.0
H292 H 0.47756 0.66605 0.9986 0.0
H293 H 0.50158 0.62781 1.05034 0.0
C294 C 0.52116 0.52031 1.0566 0.0
C295 C 0.52205 0.4583 1.05561 0.0
C296 C 0.52346 0.55367 1.02742 0.0
C297 C 0.53949 0.43805 1.02603 0.0
C298 C 0.54604 0.47343 0.99715 0.0
C299 C 0.52288 0.55294 0.96779 0.0
C300 C 0.49891 0.59979 0.96806 0.0
C301 C 0.5332 0.52817 0.9973 0.0
C302 C 0.49526 0.6293 0.99795 0.0
C303 C 0.5085 0.6071 1.02747 0.0
H304 H 0.90463 0.31924 0.41148 0.0
H305 H 0.10733 0.45534 0.37221 0.0
H306 H 0.05634 0.48561 0.32751 0.0
H307 H 0.95558 0.45157 0.2931 0.0
H308 H 0.75237 0.3081 0.32923 0.0
H309 H 0.80212 0.30273 0.38162 0.0
C310 C 0.93767 0.35619 0.39336 0.0
C311 C 0.00959 0.38341 0.39475 0.0
C312 C 0.90787 0.37124 0.36684 0.0
C313 C 0.05182 0.43314 0.37176 0.0
C314 C 0.02265 0.45012 0.34594 0.0
C315 C 0.92159 0.42149 0.31287 0.0
C316 C 0.85042 0.37919 0.30702 0.0
C317 C 0.95079 0.41649 0.34228 0.0
C318 C 0.80746 0.34026 0.33296 0.0
C319 C 0.83597 0.33679 0.36281 0.0
H320 H 0.65685 0.01142 0.75311 0.0
H321 H 0.77696 0.21758 0.71642 0.0
H322 H 0.70314 0.18636 0.66836 0.0
H323 H 0.63247 0.09396 0.63017 0.0
H324 H 0.51835 0.88533 0.66414 0.0
H325 H 0.56119 0.92401 0.71978 0.0
C326 C 0.66564 0.04987 0.73497 0.0
C327 C 0.72393 0.11586 0.73769 0.0
C328 C 0.6252 0.03068 0.70645 0.0
C329 C 0.73318 0.16603 0.71477 0.0
C330 C 0.69136 0.14803 0.68699 0.0
C331 C 0.61414 0.05709 0.64993 0.0
C332 C 0.57457 -0.01345 0.64283 0.0
C333 C 0.64116 0.07936 0.68144 0.0
C334 C 0.55057 0.93979 0.6689 0.0
C335 C 0.57542 0.96185 0.70066 0.0
H336 H 0.81357 0.69112 1.08516 0.0
H337 H 0.69325 0.78073 1.05278 0.0
H338 H 0.65255 0.70335 1.0057 0.0
H339 H 0.67518 0.63329 0.96807 0.0
H340 H 0.79494 0.54252 0.99937 0.0
H341 H 0.80892 0.59498 1.05365 0.0
C342 C 0.77605 0.69166 1.06864 0.0
C343 C 0.75884 0.74351 1.07155 0.0
C344 C 0.75284 0.64698 1.04147 0.0
C345 C 0.70942 0.74298 1.05022 0.0
C346 C 0.68578 0.69851 1.0234 0.0
C347 C 0.7012 0.62163 0.98716 0.0
C348 C 0.73555 0.58558 0.97942 0.0
C349 C 0.71065 0.65346 1.01777 0.0
C350 C 0.76926 0.57142 1.00458 0.0
C351 C 0.77769 0.60184 1.03553 0.0
H352 H 0.90817 0.6074 0.36613 0.0
H353 H 0.11002 0.70274 0.41084 0.0
H354 H 0.15673 0.67771 0.36224 0.0
H355 H 0.14801 0.66491 0.30271 0.0
H356 H 0.95035 0.58682 0.25565 0.0
H357 H 0.89427 0.56786 0.30901 0.0
C358 C 0.96204 0.62119 0.36549 0.0
C359 C 0.00604 0.65953 0.39148 0.0
C360 C -0.01024 0.61104 0.33654 0.0
C361 C 0.07496 0.67423 0.39102 0.0
C362 C 0.10208 0.66064 0.36297 0.0
C363 C 0.09227 0.64069 0.30411 0.0
C364 C 0.05348 0.62884 0.27531 0.0
C365 C 0.06123 0.63444 0.33476 0.0
C366 C -0.0187 0.59728 0.27758 0.0
C367 C 0.94937 0.58722 0.30808 0.0
H368 H 0.49353 0.18691 0.73986 0.0
H369 H 0.39762 -0.00539 0.68663 0.0
H370 H 0.47358 0.04999 0.64006 0.0
H371 H 0.54616 0.15668 0.61095 0.0
H372 H 0.63852 0.34967 0.66341 0.0
H373 H 0.58769 0.28949 0.71454 0.0
C374 C 0.49094 0.15634 0.71865 0.0
C375 C 0.43829 0.08725 0.71626 0.0
C376 C 0.53407 0.18874 0.69178 0.0
C377 C 0.43605 0.04851 0.68858 0.0
C378 C 0.47963 0.08008 0.66198 0.0
C379 C 0.55784 0.18557 0.63375 0.0
C380 C 0.59431 0.2577 0.63326 0.0
C381 C 0.5259 0.15092 0.66266 0.0
C382 C 0.60921 0.29413 0.6631 0.0
C383 C 0.5797 0.25977 0.69227 0.0
H384 H 0.49536 0.05666 1.09397 0.0
H385 H 0.45893 0.0348 0.19832 0.0
H386 H 0.57071 0.04368 0.20694 0.0
H387 H 0.68137 0.06242 0.18539 0.0
H388 H 0.71569 0.07414 1.08103 0.0
H389 H 0.60281 0.06438 1.0718 0.0
C390 C 0.51175 0.05318 1.11851 0.0
C391 C 0.46886 0.04558 1.14545 0.0
C392 C 0.57603 0.05689 1.12333 0.0
C393 C 0.49064 0.04058 0.17711 0.0
C394 C 0.55484 0.04596 0.18212 0.0
C395 C 0.66391 0.06244 0.16061 0.0
C396 C 0.70695 0.06954 1.13393 0.0
C397 C 0.59833 0.05492 0.15551 0.0
C398 C 0.6834 0.06869 1.10195 0.0
C399 C 0.61893 0.06328 1.0967 0.0
H400 H 0.40899 0.53828 0.49201 0.0
H401 H 0.49711 0.42254 0.45057 0.0
H402 H 0.61101 0.52507 0.45027 0.0
H403 H 0.68729 0.64631 0.46471 0.0
H404 H 0.60027 0.76501 0.50287 0.0
H405 H 0.48455 0.66362 0.50114 0.0
C406 C 0.4531 0.53582 0.48268 0.0
C407 C 0.44477 0.47255 0.47193 0.0
C408 C 0.51871 0.59566 0.48192 0.0
C409 C 0.5022 0.47032 0.45943 0.0
C410 C 0.56747 0.52899 0.45921 0.0
C411 C 0.64274 0.65003 0.47221 0.0
C412 C 0.65205 0.71302 0.48375 0.0
C413 C 0.57655 0.59166 0.47084 0.0
C414 C 0.59418 0.71744 0.49336 0.0
C415 C 0.52808 0.65919 0.49266 0.0
H416 H -0.0115 0.44793 0.81035 0.0
H417 H 0.21016 0.54297 0.80882 0.0
H418 H 0.22154 0.65645 0.80953 0.0
H419 H 0.16842 0.72865 0.81299 0.0
H420 H 0.94801 0.63556 0.80353 0.0
H421 H 0.93566 0.52136 0.80439 0.0
C422 C 0.03918 0.4936 0.81008 0.0
C423 C 0.09855 0.4873 0.81093 0.0
C424 C 0.04532 0.55886 0.80859 0.0
C425 C 0.16385 0.54663 0.80939 0.0
C426 C 0.17037 0.61153 0.80953 0.0
C427 C 0.11765 0.68337 0.81094 0.0
C428 C 0.05878 0.6904 0.80974 0.0
C429 C 0.11147 0.61826 0.80963 0.0
C430 C -0.00629 0.63144 0.80591 0.0
C431 C -0.01322 0.56611 0.80612 0.0
H432 H 0.20444 0.05041 0.28404 0.0
H433 H 0.42052 0.15692 0.25994 0.0
H434 H 0.44833 0.21143 0.31441 0.0
H435 H 0.41227 0.23271 0.37043 0.0
H436 H 0.19484 0.13021 0.39259 0.0
H437 H 0.16844 0.07263 0.33937 0.0
C438 C 0.25786 0.08472 0.29069 0.0
C439 C 0.3102 0.0972 0.267 0.0
C440 C 0.27395 0.11809 0.32265 0.0
C441 C 0.37859 0.14424 0.27694 0.0
C442 C 0.39472 0.17614 0.3085 0.0
C443 C 0.35896 0.19765 0.36392 0.0
C444 C 0.30609 0.18712 0.38709 0.0
C445 C 0.34307 0.1641 0.3319 0.0
C446 C 0.23767 0.14101 0.37654 0.0
C447 C 0.22208 0.10729 0.34553 0.0
H448 H 0.36753 0.39561 0.61673 0.0
H449 H 0.19082 0.19647 0.59752 0.0
H450 H 0.14753 0.1944 0.65274 0.0
H451 H 0.15504 0.24918 0.70779 0.0
H452 H 0.32892 0.44992 0.72719 0.0
H453 H 0.37551 0.45047 0.6727 0.0
C454 C 0.32016 0.351 0.6246 0.0
C455 C 0.28396 0.29543 0.60164 0.0
C456 C 0.29344 0.35045 0.65736 0.0
C457 C 0.22139 0.23996 0.61353 0.0
C458 C 0.19589 0.23875 0.64562 0.0
C459 C 0.20325 0.2934 0.7004 0.0
C460 C 0.23727 0.34971 0.72309 0.0
C461 C 0.23062 0.29381 0.66798 0.0
C462 C 0.30003 0.4055 0.7115 0.0
C463 C 0.32732 0.40587 0.67976 0.0
H464 H 0.02141 0.20943 0.93457 0.0
H465 H 0.15286 0.42549 0.95319 0.0
H466 H 0.11473 0.40871 1.01071 0.0
H467 H 0.0431 0.33155 1.05807 0.0
H468 H 0.91918 0.1146 1.03872 0.0
H469 H 0.95427 0.13314 0.98126 0.0
C470 C 0.04221 0.25343 0.95095 0.0
C471 C 0.09091 0.31944 0.93799 0.0
C472 C 0.02047 0.24309 0.98501 0.0
C473 C 0.11602 0.37412 0.9611 0.0
C474 C 0.09368 0.36436 0.99456 0.0
C475 C 0.02285 0.28809 1.04138 0.0
C476 C -0.02373 0.22088 1.05414 0.0
C477 C 0.04556 0.29899 1.00722 0.0
C478 C 0.95377 0.16671 1.03092 0.0
C479 C -0.0257 0.17738 0.99747 0.0
H480 H 0.91909 0.0348 0.27066 0.0
H481 H 0.80847 0.1438 0.28409 0.0
H482 H 0.78324 0.10431 0.34102 0.0
H483 H 0.7906 0.0366 0.38892 0.0
H484 H 0.90595 0.93224 0.37531 0.0
H485 H 0.92996 0.97121 0.31859 0.0
C486 C 0.88948 0.05043 0.28582 0.0
C487 C 0.86602 0.09322 0.27156 0.0
C488 C 0.8752 0.02749 0.31957 0.0
C489 C 0.82791 0.1116 0.29303 0.0
C490 C 0.81311 0.08853 0.32615 0.0
C491 C 0.82088 0.02187 0.37373 0.0
C492 C 0.84542 0.97972 0.38788 0.0
C493 C 0.83603 0.04598 0.34004 0.0
C494 C 0.88536 0.96354 0.3665 0.0
C495 C 0.89942 -0.0138 0.33344 0.0
H496 H 0.95957 0.91304 0.60144 0.0
H497 H 0.74505 0.83961 0.62186 0.0
H498 H 0.76336 0.81946 0.67925 0.0
H499 H 0.84107 0.82071 0.72537 0.0
H500 H 0.05728 0.90396 0.70438 0.0
H501 H 0.03734 0.92127 0.64734 0.0
C502 C 0.91629 0.89277 0.61825 0.0
C503 C 0.85018 0.87789 0.60592 0.0
C504 C 0.92769 0.88239 0.6521 0.0
C505 C 0.7964 0.85218 0.6294 0.0
C506 C 0.80705 0.84026 0.66271 0.0
C507 C 0.88413 0.84251 0.70846 0.0
C508 C 0.95142 0.85994 0.72053 0.0
C509 C 0.87251 0.85468 0.67467 0.0
C510 C 0.00519 0.88931 0.69711 0.0
C511 C -0.00633 0.8994 0.66392 0.0
H512 H 0.15707 0.97428 0.9318 0.0
H513 H 0.00577 0.76457 0.95266 0.0
H514 H 0.04433 0.78252 1.01025 0.0
H515 H 0.1231 0.85912 1.05663 0.0
H516 H 0.26894 0.07009 1.03405 0.0
H517 H 0.23122 0.04991 0.9771 0.0
C518 C 0.13196 0.93188 0.94869 0.0
C519 C 0.07771 0.86736 0.93647 0.0
C520 C 0.15423 0.94296 0.98252 0.0
C521 C 0.0471 0.81472 0.96009 0.0
C522 C 0.06965 0.82517 0.99353 0.0
C523 C 0.14721 0.90089 1.03937 0.0
C524 C 0.20055 0.9669 1.0511 0.0
C525 C 0.12361 0.88918 1.0054 0.0
C526 C 0.22865 0.01902 1.02715 0.0
C527 C 0.20677 0.00741 0.99397 0.0
loop_
_geom_bond_atom_site_label_1
_geom_bond_atom_site_label_2
_geom_bond_distance
_geom_bond_site_symmetry_2
_ccdc_geom_bond_type
Pr0 C2 2.880 . S
Pr0 O20 2.562 . S
Pr0 O21 2.490 . S
Pr0 O22 2.695 . S
Pr0 O23 2.512 . S
Pr0 O25 2.437 . S
Pr0 O28 2.436 . S
Pr0 O30 2.438 1_554 S
Pr1 C11 2.880 . S
Pr1 O22 2.436 1_556 S
Pr1 O24 2.438 1_556 S
Pr1 O26 2.562 . S
Pr1 O27 2.490 . S
Pr1 O28 2.695 1_556 S
Pr1 O29 2.512 . S
Pr1 O31 2.437 . S
C2 Pr0 2.880 . S
C2 C3 1.491 . S
C2 O20 1.254 . S
C2 O21 1.225 . S
C3 C2 1.491 . S
C3 C4 1.392 . S
C3 C8 1.356 . S
C4 C3 1.392 . S
C4 C5 1.368 1_545 S
C4 H32 0.929 1_545 S
C5 C4 1.368 1_565 S
C5 C6 1.385 . S
C5 H33 0.929 . S
C6 C5 1.385 . S
C6 C7 1.372 1_565 S
C7 C6 1.372 1_545 S
C7 C8 1.409 . S
C7 H34 0.931 . S
C8 C3 1.356 . S
C8 C7 1.409 . S
C8 H35 0.930 . S
C9 O22 1.270 . S
C9 O23 1.248 . S
C10 O24 1.267 . S
C10 O25 1.278 . S
C11 Pr1 2.880 . S
C11 C12 1.491 . S
C11 O26 1.254 . S
C11 O27 1.225 . S
C12 C11 1.491 . S
C12 C13 1.392 . S
C12 C17 1.356 . S
C13 C12 1.392 . S
C13 C14 1.368 . S
C13 H36 0.929 . S
C14 C13 1.368 . S
C14 C15 1.386 . S
C14 H37 0.929 . S
C15 C14 1.386 . S
C15 C16 1.373 . S
C16 C15 1.373 . S
C16 C17 1.409 . S
C16 H38 0.931 . S
C17 C12 1.356 . S
C17 C16 1.409 . S
C17 H39 0.930 . S
C18 O28 1.270 . S
C18 O29 1.248 1_554 S
C19 O30 1.267 . S
C19 O31 1.278 . S
O20 Pr0 2.562 . S
O20 C2 1.254 . S
O21 Pr0 2.490 . S
O21 C2 1.225 . S
O22 Pr0 2.695 . S
O22 Pr1 2.436 1_554 S
O22 C9 1.270 . S
O23 Pr0 2.512 . S
O23 C9 1.248 . S
O24 Pr1 2.438 1_554 S
O24 C10 1.267 . S
O25 Pr0 2.437 . S
O25 C10 1.278 . S
O26 Pr1 2.562 . S
O26 C11 1.254 . S
O27 Pr1 2.490 . S
O27 C11 1.225 . S
O28 Pr0 2.436 . S
O28 Pr1 2.695 1_554 S
O28 C18 1.270 . S
O29 Pr1 2.512 . S
O29 C18 1.248 1_556 S
O30 Pr0 2.438 1_556 S
O30 C19 1.267 . S
O31 Pr1 2.437 . S
O31 C19 1.278 . S
H32 C4 0.929 1_565 S
H33 C5 0.929 . S
H34 C7 0.931 . S
H35 C8 0.930 . S
H36 C13 0.929 . S
H37 C14 0.929 . S
H38 C16 0.931 . S
H39 C17 0.930 . S
Pr40 C42 2.880 . S
Pr40 O60 2.562 . S
Pr40 O61 2.490 . S
Pr40 O62 2.695 . S
Pr40 O63 2.512 . S
Pr40 O65 2.437 . S
Pr40 O68 2.436 . S
Pr40 O70 2.438 . S
Pr41 C51 2.880 . S
Pr41 O62 2.436 . S
Pr41 O64 2.438 . S
Pr41 O66 2.562 . S
Pr41 O67 2.490 . S
Pr41 O68 2.695 . S
Pr41 O69 2.512 . S
Pr41 O71 2.437 . S
C42 Pr40 2.880 . S
C42 C43 1.491 . S
C42 O60 1.254 . S
C42 O61 1.225 . S
C43 C42 1.491 . S
C43 C44 1.392 . S
C43 C48 1.356 . S
C44 C43 1.392 . S
C44 C45 1.368 . S
C44 H72 0.929 . S
C45 C44 1.368 . S
C45 C46 1.386 . S
C45 H73 0.929 . S
C46 C45 1.386 . S
C46 C47 1.373 . S
C47 C46 1.373 . S
C47 C48 1.409 . S
C47 H74 0.931 . S
C48 C43 1.356 . S
C48 C47 1.409 . S
C48 H75 0.930 . S
C49 O62 1.270 . S
C49 O63 1.248 . S
C50 O64 1.267 . S
C50 O65 1.278 . S
C51 Pr41 2.880 . S
C51 C52 1.491 . S
C51 O66 1.254 . S
C51 O67 1.225 . S
C52 C51 1.491 . S
C52 C53 1.392 . S
C52 C57 1.356 . S
C53 C52 1.392 . S
C53 C54 1.368 . S
C53 H76 0.929 . S
C54 C53 1.368 . S
C54 C55 1.386 . S
C54 H77 0.929 . S
C55 C54 1.386 . S
C55 C56 1.373 . S
C56 C55 1.373 . S
C56 C57 1.409 . S
C56 H78 0.931 . S
C57 C52 1.356 . S
C57 C56 1.409 . S
C57 H79 0.930 . S
C58 O68 1.270 . S
C58 O69 1.248 . S
C59 O70 1.267 . S
C59 O71 1.278 . S
O60 Pr40 2.562 . S
O60 C42 1.254 . S
O61 Pr40 2.490 . S
O61 C42 1.225 . S
O62 Pr40 2.695 . S
O62 Pr41 2.436 . S
O62 C49 1.270 . S
O63 Pr40 2.512 . S
O63 C49 1.248 . S
O64 Pr41 2.438 . S
O64 C50 1.267 . S
O65 Pr40 2.437 . S
O65 C50 1.278 . S
O66 Pr41 2.562 . S
O66 C51 1.254 . S
O67 Pr41 2.490 . S
O67 C51 1.225 . S
O68 Pr40 2.436 . S
O68 Pr41 2.695 . S
O68 C58 1.270 . S
O69 Pr41 2.512 . S
O69 C58 1.248 . S
O70 Pr40 2.438 . S
O70 C59 1.267 . S
O71 Pr41 2.437 . S
O71 C59 1.278 . S
H72 C44 0.929 . S
H73 C45 0.929 . S
H74 C47 0.931 . S
H75 C48 0.930 . S
H76 C53 0.929 . S
H77 C54 0.929 . S
H78 C56 0.931 . S
H79 C57 0.930 . S
Pr80 C82 2.880 . S
Pr80 O100 2.562 . S
Pr80 O101 2.490 . S
Pr80 O102 2.695 . S
Pr80 O103 2.512 . S
Pr80 O105 2.437 1_455 S
Pr80 O108 2.436 . S
Pr80 O110 2.438 . S
Pr81 C91 2.880 . S
Pr81 O102 2.436 1_655 S
Pr81 O104 2.438 . S
Pr81 O106 2.562 . S
Pr81 O107 2.490 . S
Pr81 O108 2.695 1_655 S
Pr81 O109 2.512 . S
Pr81 O111 2.437 1_655 S
C82 Pr80 2.880 . S
C82 C83 1.491 . S
C82 O100 1.254 . S
C82 O101 1.225 . S
C83 C82 1.491 . S
C83 C84 1.392 . S
C83 C88 1.356 . S
C84 C83 1.392 . S
C84 C85 1.368 . S
C84 H112 0.929 . S
C85 C84 1.368 . S
C85 C86 1.386 . S
C85 H113 0.929 . S
C86 C85 1.386 . S
C86 C87 1.373 . S
C87 C86 1.373 . S
C87 C88 1.409 . S
C87 H114 0.931 . S
C88 C83 1.356 . S
C88 C87 1.409 . S
C88 H115 0.930 . S
C89 O102 1.270 . S
C89 O103 1.248 . S
C90 O104 1.267 . S
C90 O105 1.278 . S
C91 Pr81 2.880 . S
C91 C92 1.491 . S
C91 O106 1.254 . S
C91 O107 1.225 . S
C92 C91 1.491 . S
C92 C93 1.392 . S
C92 C97 1.356 . S
C93 C92 1.392 . S
C93 C94 1.368 . S
C93 H116 0.929 . S
C94 C93 1.368 . S
C94 C95 1.386 . S
C94 H117 0.929 . S
C95 C94 1.386 . S
C95 C96 1.373 . S
C96 C95 1.373 . S
C96 C97 1.409 . S
C96 H118 0.931 . S
C97 C92 1.356 . S
C97 C96 1.409 . S
C97 H119 0.930 . S
C98 O108 1.270 1_655 S
C98 O109 1.248 . S
C99 O110 1.267 . S
C99 O111 1.278 . S
O100 Pr80 2.562 . S
O100 C82 1.254 . S
O101 Pr80 2.490 . S
O101 C82 1.225 . S
O102 Pr80 2.695 . S
O102 Pr81 2.436 1_455 S
O102 C89 1.270 . S
O103 Pr80 2.512 . S
O103 C89 1.248 . S
O104 Pr81 2.438 . S
O104 C90 1.267 . S
O105 Pr80 2.437 1_655 S
O105 C90 1.278 . S
O106 Pr81 2.562 . S
O106 C91 1.254 . S
O107 Pr81 2.490 . S
O107 C91 1.225 . S
O108 Pr80 2.436 . S
O108 Pr81 2.695 1_455 S
O108 C98 1.270 1_455 S
O109 Pr81 2.512 . S
O109 C98 1.248 . S
O110 Pr80 2.438 . S
O110 C99 1.267 . S
O111 Pr81 2.437 1_455 S
O111 C99 1.278 . S
H112 C84 0.929 . S
H113 C85 0.929 . S
H114 C87 0.931 . S
H115 C88 0.930 . S
H116 C93 0.929 . S
H117 C94 0.929 . S
H118 C96 0.931 . S
H119 C97 0.930 . S
Pr120 C122 2.880 . S
Pr120 O140 2.562 . S
Pr120 O141 2.490 . S
Pr120 O142 2.695 . S
Pr120 O143 2.512 . S
Pr120 O145 2.437 1_545 S
Pr120 O148 2.434 1_545 S
Pr120 O150 2.438 1_554 S
Pr121 C131 2.880 . S
Pr121 O142 2.436 1_566 S
Pr121 O144 2.438 1_556 S
Pr121 O146 2.562 . S
Pr121 O147 2.490 . S
Pr121 O148 2.700 1_556 S
Pr121 O149 2.512 . S
Pr121 O151 2.437 1_565 S
C122 Pr120 2.880 . S
C122 C123 1.491 . S
C122 O140 1.254 . S
C122 O141 1.225 . S
C123 C122 1.491 . S
C123 C124 1.392 . S
C123 C128 1.356 . S
C124 C123 1.392 . S
C124 C125 1.368 . S
C124 H152 0.929 . S
C125 C124 1.368 . S
C125 C126 1.386 . S
C125 H153 0.929 . S
C126 C125 1.386 . S
C126 C127 1.373 . S
C127 C126 1.373 . S
C127 C128 1.409 . S
C127 H154 0.931 . S
C128 C123 1.356 . S
C128 C127 1.409 . S
C128 H155 0.930 . S
C129 O142 1.270 . S
C129 O143 1.248 . S
C130 O144 1.267 . S
C130 O145 1.278 . S
C131 Pr121 2.880 . S
C131 C132 1.491 . S
C131 O146 1.254 . S
C131 O147 1.225 . S
C132 C131 1.491 . S
C132 C133 1.392 . S
C132 C137 1.356 . S
C133 C132 1.392 . S
C133 C134 1.368 . S
C133 H156 0.929 . S
C134 C133 1.368 . S
C134 C135 1.386 . S
C134 H157 0.929 . S
C135 C134 1.386 . S
C135 C136 1.373 . S
C136 C135 1.373 . S
C136 C137 1.409 . S
C136 H158 0.931 . S
C137 C132 1.356 . S
C137 C136 1.409 . S
C137 H159 0.930 . S
C138 O148 1.270 . S
C138 O149 1.248 1_554 S
C139 O150 1.267 . S
C139 O151 1.278 . S
O140 Pr120 2.562 . S
O140 C122 1.254 . S
O141 Pr120 2.490 . S
O141 C122 1.225 . S
O142 Pr120 2.695 . S
O142 Pr121 2.436 1_544 S
O142 C129 1.270 . S
O143 Pr120 2.512 . S
O143 C129 1.248 . S
O144 Pr121 2.438 1_554 S
O144 C130 1.267 . S
O145 Pr120 2.437 1_565 S
O145 C130 1.278 . S
O146 Pr121 2.562 . S
O146 C131 1.254 . S
O147 Pr121 2.490 . S
O147 C131 1.225 . S
O148 Pr120 2.434 1_565 S
O148 Pr121 2.700 1_554 S
O148 C138 1.270 . S
O149 Pr121 2.512 . S
O149 C138 1.248 1_556 S
O150 Pr120 2.438 1_556 S
O150 C139 1.267 . S
O151 Pr121 2.437 1_545 S
O151 C139 1.278 . S
H152 C124 0.929 . S
H153 C125 0.929 . S
H154 C127 0.931 . S
H155 C128 0.930 . S
H156 C133 0.929 . S
H157 C134 0.929 . S
H158 C136 0.931 . S
H159 C137 0.930 . S
Pr160 C162 2.880 . S
Pr160 O180 2.562 . S
Pr160 O181 2.490 . S
Pr160 O182 2.695 . S
Pr160 O183 2.512 . S
Pr160 O185 2.437 . S
Pr160 O188 2.436 . S
Pr160 O190 2.438 . S
Pr161 C171 2.880 1_655 S
Pr161 O182 2.436 . S
Pr161 O184 2.438 . S
Pr161 O186 2.562 1_655 S
Pr161 O187 2.490 . S
Pr161 O188 2.695 . S
Pr161 O189 2.512 . S
Pr161 O191 2.437 . S
C162 Pr160 2.880 . S
C162 C163 1.491 . S
C162 O180 1.254 . S
C162 O181 1.225 . S
C163 C162 1.491 . S
C163 C164 1.392 . S
C163 C168 1.356 . S
C164 C163 1.392 . S
C164 C165 1.368 . S
C164 H192 0.929 . S
C165 C164 1.368 . S
C165 C166 1.386 . S
C165 H193 0.929 . S
C166 C165 1.386 . S
C166 C167 1.373 . S
C167 C166 1.373 . S
C167 C168 1.409 . S
C167 H194 0.931 . S
C168 C163 1.356 . S
C168 C167 1.409 . S
C168 H195 0.930 . S
C169 O182 1.270 1_455 S
C169 O183 1.248 1_455 S
C170 O184 1.267 . S
C170 O185 1.278 . S
C171 Pr161 2.880 1_455 S
C171 C172 1.491 . S
C171 O186 1.254 . S
C171 O187 1.225 1_455 S
C172 C171 1.491 . S
C172 C173 1.392 1_455 S
C172 C177 1.356 . S
C173 C172 1.392 1_655 S
C173 C174 1.368 1_655 S
C173 H196 0.929 . S
C174 C173 1.368 1_455 S
C174 C175 1.386 . S
C174 H197 0.929 . S
C175 C174 1.386 . S
C175 C176 1.373 . S
C176 C175 1.373 . S
C176 C177 1.409 . S
C176 H198 0.931 . S
C177 C172 1.356 . S
C177 C176 1.409 . S
C177 H199 0.930 . S
C178 O188 1.270 . S
C178 O189 1.248 . S
C179 O190 1.267 . S
C179 O191 1.278 . S
O180 Pr160 2.562 . S
O180 C162 1.254 . S
O181 Pr160 2.490 . S
O181 C162 1.225 . S
O182 Pr160 2.695 . S
O182 Pr161 2.436 . S
O182 C169 1.270 1_655 S
O183 Pr160 2.512 . S
O183 C169 1.248 1_655 S
O184 Pr161 2.438 . S
O184 C170 1.267 . S
O185 Pr160 2.437 . S
O185 C170 1.278 . S
O186 Pr161 2.562 1_455 S
O186 C171 1.254 . S
O187 Pr161 2.490 . S
O187 C171 1.225 1_655 S
O188 Pr160 2.436 . S
O188 Pr161 2.695 . S
O188 C178 1.270 . S
O189 Pr161 2.512 . S
O189 C178 1.248 . S
O190 Pr160 2.438 . S
O190 C179 1.267 . S
O191 Pr161 2.437 . S
O191 C179 1.278 . S
H192 C164 0.929 . S
H193 C165 0.929 . S
H194 C167 0.931 . S
H195 C168 0.930 . S
H196 C173 0.929 . S
H197 C174 0.929 . S
H198 C176 0.931 . S
H199 C177 0.930 . S
Pr200 C202 2.880 . S
Pr200 O220 2.562 . S
Pr200 O221 2.490 . S
Pr200 O222 2.695 . S
Pr200 O223 2.512 . S
Pr200 O225 2.437 . S
Pr200 O228 2.436 . S
Pr200 O230 2.438 . S
Pr201 C211 2.878 1_565 S
Pr201 O222 2.436 . S
Pr201 O224 2.438 . S
Pr201 O226 2.562 1_565 S
Pr201 O227 2.490 . S
Pr201 O228 2.695 . S
Pr201 O229 2.512 . S
Pr201 O231 2.437 . S
C202 Pr200 2.880 . S
C202 C203 1.491 . S
C202 O220 1.254 . S
C202 O221 1.225 . S
C203 C202 1.491 . S
C203 C204 1.392 . S
C203 C208 1.356 . S
C204 C203 1.392 . S
C204 C205 1.368 1_455 S
C204 H232 0.929 1_455 S
C205 C204 1.368 1_655 S
C205 C206 1.386 1_655 S
C205 H233 0.929 . S
C206 C205 1.386 1_455 S
C206 C207 1.373 . S
C207 C206 1.373 . S
C207 C208 1.409 . S
C207 H234 0.931 . S
C208 C203 1.356 . S
C208 C207 1.409 . S
C208 H235 0.930 . S
C209 O222 1.270 1_545 S
C209 O223 1.248 1_545 S
C210 O224 1.267 . S
C210 O225 1.278 . S
C211 Pr201 2.878 1_545 S
C211 C212 1.493 . S
C211 O226 1.267 . S
C211 O227 1.210 1_545 S
C212 C211 1.493 . S
C212 C213 1.392 1_545 S
C212 C217 1.356 . S
C213 C212 1.392 1_565 S
C213 C214 1.368 1_565 S
C213 H236 0.929 . S
C214 C213 1.368 1_545 S
C214 C215 1.386 . S
C214 H237 0.929 . S
C215 C214 1.386 . S
C215 C216 1.373 . S
C216 C215 1.373 . S
C216 C217 1.409 . S
C216 H238 0.931 . S
C217 C212 1.356 . S
C217 C216 1.409 . S
C217 H239 0.930 . S
C218 O228 1.270 . S
C218 O229 1.248 . S
C219 O230 1.267 . S
C219 O231 1.278 . S
O220 Pr200 2.562 . S
O220 C202 1.254 . S
O221 Pr200 2.490 . S
O221 C202 1.225 . S
O222 Pr200 2.695 . S
O222 Pr201 2.436 . S
O222 C209 1.270 1_565 S
O223 Pr200 2.512 . S
O223 C209 1.248 1_565 S
O224 Pr201 2.438 . S
O224 C210 1.267 . S
O225 Pr200 2.437 . S
O225 C210 1.278 . S
O226 Pr201 2.562 1_545 S
O226 C211 1.267 . S
O227 Pr201 2.490 . S
O227 C211 1.210 1_565 S
O228 Pr200 2.436 . S
O228 Pr201 2.695 . S
O228 C218 1.270 . S
O229 Pr201 2.512 . S
O229 C218 1.248 . S
O230 Pr200 2.438 . S
O230 C219 1.267 . S
O231 Pr201 2.437 . S
O231 C219 1.278 . S
H232 C204 0.929 1_655 S
H233 C205 0.929 . S
H234 C207 0.931 . S
H235 C208 0.930 . S
H236 C213 0.929 . S
H237 C214 0.929 . S
H238 C216 0.931 . S
H239 C217 0.930 . S
H240 C246 0.930 1_655 S
H241 C249 0.930 1_655 S
H242 C250 0.930 1_565 S
H243 C251 0.930 1_556 S
H244 C254 0.930 . S
H245 C255 0.930 . S
C246 H240 0.930 1_455 S
C246 C247 1.355 1_455 S
C246 C248 1.415 . S
C247 C246 1.355 1_655 S
C247 C249 1.419 1_644 S
C248 C246 1.415 . S
C248 C253 1.425 . S
C248 C255 1.409 . S
C249 H241 0.930 1_455 S
C249 C247 1.419 1_466 S
C249 C250 1.362 1_565 S
C250 H242 0.930 1_545 S
C250 C249 1.362 1_545 S
C250 C253 1.409 1_556 S
C251 H243 0.930 1_554 S
C251 C252 1.355 . S
C251 C253 1.415 . S
C252 C251 1.355 . S
C252 C254 1.419 . S
C253 C248 1.425 . S
C253 C250 1.409 1_554 S
C253 C251 1.415 . S
C254 H244 0.930 . S
C254 C252 1.419 . S
C254 C255 1.362 . S
C255 H245 0.930 . S
C255 C248 1.409 . S
C255 C254 1.362 . S
H256 C262 0.930 . S
H257 C265 0.930 . S
H258 C266 0.930 . S
H259 C267 0.930 . S
H260 C270 0.930 . S
H261 C271 0.930 . S
C262 H256 0.930 . S
C262 C263 1.355 1_545 S
C262 C264 1.415 . S
C263 C262 1.355 1_565 S
C263 C265 1.419 . S
C264 C262 1.415 . S
C264 C269 1.425 . S
C264 C271 1.409 . S
C265 H257 0.930 . S
C265 C263 1.419 . S
C265 C266 1.362 1_565 S
C266 H258 0.930 . S
C266 C265 1.362 1_545 S
C266 C269 1.409 . S
C267 H259 0.930 . S
C267 C268 1.355 . S
C267 C269 1.415 . S
C268 C267 1.355 . S
C268 C270 1.419 . S
C269 C264 1.425 . S
C269 C266 1.409 . S
C269 C267 1.415 . S
C270 H260 0.930 . S
C270 C268 1.419 . S
C270 C271 1.362 . S
C271 H261 0.930 . S
C271 C264 1.409 . S
C271 C270 1.362 . S
H272 C278 0.930 . S
H273 C281 0.930 . S
H274 C282 0.930 . S
H275 C283 0.930 . S
H276 C286 0.930 . S
H277 C287 0.930 . S
C278 H272 0.930 . S
C278 C279 1.355 . S
C278 C280 1.415 . S
C279 C278 1.355 . S
C279 C281 1.419 . S
C280 C278 1.415 . S
C280 C285 1.425 . S
C280 C287 1.409 . S
C281 H273 0.930 . S
C281 C279 1.419 . S
C281 C282 1.362 . S
C282 H274 0.930 . S
C282 C281 1.362 . S
C282 C285 1.409 . S
C283 H275 0.930 . S
C283 C284 1.355 . S
C283 C285 1.415 . S
C284 C283 1.355 . S
C284 C286 1.419 . S
C285 C280 1.425 . S
C285 C282 1.409 . S
C285 C283 1.415 . S
C286 H276 0.930 . S
C286 C284 1.419 . S
C286 C287 1.362 . S
C287 H277 0.930 . S
C287 C280 1.409 . S
C287 C286 1.362 . S
H288 C294 0.930 . S
H289 C297 0.930 . S
H290 C298 0.930 . S
H291 C299 0.930 . S
H292 C302 0.930 . S
H293 C303 0.930 . S
C294 H288 0.930 . S
C294 C295 1.355 . S
C294 C296 1.415 . S
C295 C294 1.355 . S
C295 C297 1.419 . S
C296 C294 1.415 . S
C296 C301 1.425 . S
C296 C303 1.409 . S
C297 H289 0.930 . S
C297 C295 1.419 . S
C297 C298 1.362 . S
C298 H290 0.930 . S
C298 C297 1.362 . S
C298 C301 1.409 . S
C299 H291 0.930 . S
C299 C300 1.355 . S
C299 C301 1.415 . S
C300 C299 1.355 . S
C300 C302 1.419 . S
C301 C296 1.425 . S
C301 C298 1.409 . S
C301 C299 1.415 . S
C302 H292 0.930 . S
C302 C300 1.419 . S
C302 C303 1.362 . S
C303 H293 0.930 . S
C303 C296 1.409 . S
C303 C302 1.362 . S
H304 C310 0.930 . S
H305 C313 0.930 . S
H306 C314 0.930 . S
H307 C315 0.930 . S
H308 C318 0.930 . S
H309 C319 0.930 . S
C310 H304 0.930 . S
C310 C311 1.355 . S
C310 C312 1.415 . S
C311 C310 1.355 . S
C311 C313 1.419 . S
C312 C310 1.415 . S
C312 C317 1.425 . S
C312 C319 1.409 1_455 S
C313 H305 0.930 . S
C313 C311 1.419 . S
C313 C314 1.362 . S
C314 H306 0.930 . S
C314 C313 1.362 . S
C314 C317 1.409 . S
C315 H307 0.930 . S
C315 C316 1.355 . S
C315 C317 1.415 1_655 S
C316 C315 1.355 . S
C316 C318 1.419 . S
C317 C312 1.425 . S
C317 C314 1.409 . S
C317 C315 1.415 1_455 S
C318 H308 0.930 . S
C318 C316 1.419 . S
C318 C319 1.362 . S
C319 H309 0.930 . S
C319 C312 1.409 1_655 S
C319 C318 1.362 . S
H320 C326 0.930 . S
H321 C329 0.930 . S
H322 C330 0.930 . S
H323 C331 0.930 . S
H324 C334 0.930 . S
H325 C335 0.930 . S
C326 H320 0.930 . S
C326 C327 1.355 . S
C326 C328 1.415 . S
C327 C326 1.355 . S
C327 C329 1.419 . S
C328 C326 1.415 . S
C328 C333 1.425 . S
C328 C335 1.409 1_545 S
C329 H321 0.930 . S
C329 C327 1.419 . S
C329 C330 1.362 . S
C330 H322 0.930 . S
C330 C329 1.362 . S
C330 C333 1.409 . S
C331 H323 0.930 . S
C331 C332 1.355 . S
C331 C333 1.415 1_565 S
C332 C331 1.355 . S
C332 C334 1.419 . S
C333 C328 1.425 . S
C333 C330 1.409 . S
C333 C331 1.415 1_545 S
C334 H324 0.930 . S
C334 C332 1.419 . S
C334 C335 1.362 . S
C335 H325 0.930 . S
C335 C328 1.409 1_565 S
C335 C334 1.362 . S
H336 C342 0.930 . S
H337 C345 0.930 . S
H338 C346 0.930 . S
H339 C347 0.930 . S
H340 C350 0.930 . S
H341 C351 0.930 . S
C342 H336 0.930 . S
C342 C343 1.355 . S
C342 C344 1.415 . S
C343 C342 1.355 . S
C343 C345 1.419 . S
C344 C342 1.415 . S
C344 C349 1.425 . S
C344 C351 1.409 . S
C345 H337 0.930 . S
C345 C343 1.419 . S
C345 C346 1.362 . S
C346 H338 0.930 . S
C346 C345 1.362 . S
C346 C349 1.409 . S
C347 H339 0.930 . S
C347 C348 1.355 . S
C347 C349 1.415 . S
C348 C347 1.355 . S
C348 C350 1.419 . S
C349 C344 1.425 . S
C349 C346 1.409 . S
C349 C347 1.415 . S
C350 H340 0.930 . S
C350 C348 1.419 . S
C350 C351 1.362 . S
C351 H341 0.930 . S
C351 C344 1.409 . S
C351 C350 1.362 . S
H352 C358 0.930 . S
H353 C361 0.930 . S
H354 C362 0.930 . S
H355 C363 0.930 . S
H356 C366 0.930 . S
H357 C367 0.930 . S
C358 H352 0.930 . S
C358 C359 1.355 . S
C358 C360 1.415 . S
C359 C358 1.355 . S
C359 C361 1.419 . S
C360 C358 1.415 . S
C360 C365 1.425 . S
C360 C367 1.409 . S
C361 H353 0.930 . S
C361 C359 1.419 . S
C361 C362 1.362 . S
C362 H354 0.930 . S
C362 C361 1.362 . S
C362 C365 1.409 . S
C363 H355 0.930 . S
C363 C364 1.355 . S
C363 C365 1.415 . S
C364 C363 1.355 . S
C364 C366 1.419 . S
C365 C360 1.425 . S
C365 C362 1.409 . S
C365 C363 1.415 . S
C366 H356 0.930 . S
C366 C364 1.419 . S
C366 C367 1.362 . S
C367 H357 0.930 . S
C367 C360 1.409 . S
C367 C366 1.362 . S
H368 C374 0.930 . S
H369 C377 0.930 . S
H370 C378 0.930 . S
H371 C379 0.930 . S
H372 C382 0.930 . S
H373 C383 0.930 . S
C374 H368 0.930 . S
C374 C375 1.355 . S
C374 C376 1.415 . S
C375 C374 1.355 . S
C375 C377 1.419 . S
C376 C374 1.415 . S
C376 C381 1.425 . S
C376 C383 1.409 . S
C377 H369 0.930 . S
C377 C375 1.419 . S
C377 C378 1.362 . S
C378 H370 0.930 . S
C378 C377 1.362 . S
C378 C381 1.409 . S
C379 H371 0.930 . S
C379 C380 1.355 . S
C379 C381 1.415 . S
C380 C379 1.355 . S
C380 C382 1.419 . S
C381 C376 1.425 . S
C381 C378 1.409 . S
C381 C379 1.415 . S
C382 H372 0.930 . S
C382 C380 1.419 . S
C382 C383 1.362 . S
C383 H373 0.930 . S
C383 C376 1.409 . S
C383 C382 1.362 . S
H384 C390 0.930 . S
H385 C393 0.930 . S
H386 C394 0.930 . S
H387 C395 0.930 1_565 S
H388 C398 0.930 . S
H389 C399 0.930 . S
C390 H384 0.930 . S
C390 C391 1.355 . S
C390 C392 1.415 . S
C391 C390 1.355 . S
C391 C393 1.419 . S
C392 C390 1.415 . S
C392 C397 1.425 . S
C392 C399 1.409 . S
C393 H385 0.930 . S
C393 C391 1.419 . S
C393 C394 1.362 . S
C394 H386 0.930 . S
C394 C393 1.362 . S
C394 C397 1.409 . S
C395 H387 0.930 1_545 S
C395 C396 1.355 . S
C395 C397 1.415 . S
C396 C395 1.355 . S
C396 C398 1.419 . S
C397 C392 1.425 . S
C397 C394 1.409 . S
C397 C395 1.415 . S
C398 H388 0.930 . S
C398 C396 1.419 . S
C398 C399 1.362 . S
C399 H389 0.930 . S
C399 C392 1.409 . S
C399 C398 1.362 . S
H400 C406 0.930 . S
H401 C409 0.930 . S
H402 C410 0.930 . S
H403 C411 0.930 . S
H404 C414 0.930 . S
H405 C415 0.930 . S
C406 H400 0.930 . S
C406 C407 1.355 . S
C406 C408 1.415 . S
C407 C406 1.355 . S
C407 C409 1.419 . S
C408 C406 1.415 . S
C408 C413 1.425 . S
C408 C415 1.409 . S
C409 H401 0.930 . S
C409 C407 1.419 . S
C409 C410 1.362 . S
C410 H402 0.930 . S
C410 C409 1.362 . S
C410 C413 1.409 . S
C411 H403 0.930 . S
C411 C412 1.355 . S
C411 C413 1.415 . S
C412 C411 1.355 . S
C412 C414 1.419 . S
C413 C408 1.425 . S
C413 C410 1.409 . S
C413 C411 1.415 . S
C414 H404 0.930 . S
C414 C412 1.419 . S
C414 C415 1.362 . S
C415 H405 0.930 . S
C415 C408 1.409 . S
C415 C414 1.362 . S
H416 C422 0.937 . S
H417 C425 0.930 . S
H418 C426 0.930 . S
H419 C427 0.930 . S
H420 C430 0.930 . S
H421 C431 0.930 . S
C422 H416 0.937 . S
C422 C423 1.355 . S
C422 C424 1.415 . S
C423 C422 1.355 . S
C423 C425 1.419 . S
C424 C422 1.415 . S
C424 C429 1.425 . S
C424 C431 1.409 . S
C425 H417 0.930 . S
C425 C423 1.419 . S
C425 C426 1.362 . S
C426 H418 0.930 . S
C426 C425 1.362 . S
C426 C429 1.409 . S
C427 H419 0.930 . S
C427 C428 1.355 . S
C427 C429 1.415 . S
C428 C427 1.355 . S
C428 C430 1.419 . S
C429 C424 1.425 . S
C429 C426 1.409 . S
C429 C427 1.415 . S
C430 H420 0.930 . S
C430 C428 1.419 . S
C430 C431 1.362 . S
C431 H421 0.930 . S
C431 C424 1.409 . S
C431 C430 1.362 . S
H432 C438 0.930 . S
H433 C441 0.930 . S
H434 C442 0.930 . S
H435 C443 0.930 . S
H436 C446 0.930 . S
H437 C447 0.930 . S
C438 H432 0.930 . S
C438 C439 1.355 . S
C438 C440 1.415 . S
C439 C438 1.355 . S
C439 C441 1.419 . S
C440 C438 1.415 . S
C440 C445 1.425 . S
C440 C447 1.409 . S
C441 H433 0.930 . S
C441 C439 1.419 . S
C441 C442 1.362 . S
C442 H434 0.930 . S
C442 C441 1.362 . S
C442 C445 1.409 . S
C443 H435 0.930 . S
C443 C444 1.355 . S
C443 C445 1.415 . S
C444 C443 1.355 . S
C444 C446 1.419 . S
C445 C440 1.425 . S
C445 C442 1.409 . S
C445 C443 1.415 . S
C446 H436 0.930 . S
C446 C444 1.419 . S
C446 C447 1.362 . S
C447 H437 0.930 . S
C447 C440 1.409 . S
C447 C446 1.362 . S
H448 C454 0.930 . S
H449 C457 0.930 . S
H450 C458 0.930 . S
H451 C459 0.930 . S
H452 C462 0.930 . S
H453 C463 0.930 . S
C454 H448 0.930 . S
C454 C455 1.355 . S
C454 C456 1.415 . S
C455 C454 1.355 . S
C455 C457 1.419 . S
C456 C454 1.415 . S
C456 C461 1.425 . S
C456 C463 1.409 . S
C457 H449 0.930 . S
C457 C455 1.419 . S
C457 C458 1.362 . S
C458 H450 0.930 . S
C458 C457 1.362 . S
C458 C461 1.409 . S
C459 H451 0.930 . S
C459 C460 1.355 . S
C459 C461 1.415 . S
C460 C459 1.355 . S
C460 C462 1.419 . S
C461 C456 1.425 . S
C461 C458 1.409 . S
C461 C459 1.415 . S
C462 H452 0.930 . S
C462 C460 1.419 . S
C462 C463 1.362 . S
C463 H453 0.930 . S
C463 C456 1.409 . S
C463 C462 1.362 . S
H464 C470 0.930 . S
H465 C473 0.930 . S
H466 C474 0.930 . S
H467 C475 0.930 . S
H468 C478 0.930 . S
H469 C479 0.930 . S
C470 H464 0.930 . S
C470 C471 1.355 . S
C470 C472 1.415 . S
C471 C470 1.355 . S
C471 C473 1.419 . S
C472 C470 1.415 . S
C472 C477 1.425 . S
C472 C479 1.409 . S
C473 H465 0.930 . S
C473 C471 1.419 . S
C473 C474 1.362 . S
C474 H466 0.930 . S
C474 C473 1.362 . S
C474 C477 1.409 . S
C475 H467 0.930 . S
C475 C476 1.355 . S
C475 C477 1.415 . S
C476 C475 1.355 . S
C476 C478 1.419 . S
C477 C472 1.425 . S
C477 C474 1.409 . S
C477 C475 1.415 . S
C478 H468 0.930 . S
C478 C476 1.419 . S
C478 C479 1.362 . S
C479 H469 0.930 . S
C479 C472 1.409 . S
C479 C478 1.362 . S
H480 C486 0.930 . S
H481 C489 0.930 . S
H482 C490 0.930 . S
H483 C491 0.930 . S
H484 C494 0.930 . S
H485 C495 0.930 . S
C486 H480 0.930 . S
C486 C487 1.355 . S
C486 C488 1.415 . S
C487 C486 1.355 . S
C487 C489 1.419 . S
C488 C486 1.415 . S
C488 C493 1.425 . S
C488 C495 1.409 . S
C489 H481 0.930 . S
C489 C487 1.419 . S
C489 C490 1.362 . S
C490 H482 0.930 . S
C490 C489 1.362 . S
C490 C493 1.409 . S
C491 H483 0.930 . S
C491 C492 1.355 . S
C491 C493 1.415 . S
C492 C491 1.355 . S
C492 C494 1.419 . S
C493 C488 1.425 . S
C493 C490 1.409 . S
C493 C491 1.415 . S
C494 H484 0.930 . S
C494 C492 1.419 . S
C494 C495 1.362 . S
C495 H485 0.930 . S
C495 C488 1.409 . S
C495 C494 1.362 . S
H496 C502 0.930 . S
H497 C505 0.930 . S
H498 C506 0.930 . S
H499 C507 0.930 . S
H500 C510 0.930 . S
H501 C511 0.930 1_655 S
C502 H496 0.930 . S
C502 C503 1.355 1_655 S
C502 C504 1.415 1_655 S
C503 C502 1.355 1_455 S
C503 C505 1.419 . S
C504 C502 1.415 1_455 S
C504 C509 1.425 . S
C504 C511 1.409 . S
C505 H497 0.930 . S
C505 C503 1.419 . S
C505 C506 1.362 . S
C506 H498 0.930 . S
C506 C505 1.362 . S
C506 C509 1.409 . S
C507 H499 0.930 . S
C507 C508 1.355 . S
C507 C509 1.415 . S
C508 C507 1.355 . S
C508 C510 1.419 . S
C509 C504 1.425 . S
C509 C506 1.409 . S
C509 C507 1.415 . S
C510 H500 0.930 . S
C510 C508 1.419 . S
C510 C511 1.362 . S
C511 H501 0.930 1_455 S
C511 C504 1.409 . S
C511 C510 1.362 . S
H512 C518 0.930 . S
H513 C521 0.930 . S
H514 C522 0.930 . S
H515 C523 0.930 . S
H516 C526 0.930 . S
H517 C527 0.930 1_565 S
C518 H512 0.930 . S
C518 C519 1.355 1_565 S
C518 C520 1.415 1_565 S
C519 C518 1.355 1_545 S
C519 C521 1.419 . S
C520 C518 1.415 1_545 S
C520 C525 1.425 . S
C520 C527 1.409 . S
C521 H513 0.930 . S
C521 C519 1.419 . S
C521 C522 1.362 . S
C522 H514 0.930 . S
C522 C521 1.362 . S
C522 C525 1.409 . S
C523 H515 0.930 . S
C523 C524 1.355 . S
C523 C525 1.415 . S
C524 C523 1.355 . S
C524 C526 1.419 . S
C525 C520 1.425 . S
C525 C522 1.409 . S
C525 C523 1.415 . S
C526 H516 0.930 . S
C526 C524 1.419 . S
C526 C527 1.362 . S
C527 H517 0.930 1_545 S
C527 C520 1.409 . S
C527 C526 1.362 . S
C247 C129 0.933 . S
C252 C9 0.893 . S
C263 C169 0.819 . S
C268 C49 0.757 . S
C279 C209 0.816 . S
C284 C89 0.756 . S
C295 C15 0.817 . S
C300 C86 0.935 . S
C311 C55 0.814 . S
C316 C126 0.932 . S
C327 C95 0.821 . S
C332 C166 0.941 . S
C343 C135 0.922 . S
C348 C206 1.019 1_655 S
C359 C175 0.794 . S
C364 C6 0.907 . S
C375 C215 0.897 . S
C380 C46 1.005 . S
C391 C18 1.346 . S
C396 C138 1.362 1_545 S
C407 C58 1.394 . S
C412 C178 1.419 . S
C423 C98 1.372 1_455 S
C428 C218 1.347 . S
C439 C10 4.138 . S
C444 C59 4.185 . S
C455 C50 4.117 . S
C460 C99 4.183 . S
C471 C90 4.138 . S
C476 C139 4.185 . S
C487 C130 4.138 . S
C492 C179 4.188 . S
C503 C170 4.116 1_455 S
C508 C219 4.181 . S
C519 C210 4.116 1_545 S
C524 C19 4.180 . S
