# Generated by pormake.
# Topology unr, (4)-cn, num edge types: 1
# Building blocks:
#     Node 0, Type 0, BuildingBlock: AZAVOO_clean_sbu_0, # of connection points: 4
#     Node 1, Type 0, BuildingBlock: AZAVOO_clean_sbu_0, # of connection points: 4
#     Node 2, Type 0, BuildingBlock: AZAVOO_clean_sbu_0, # of connection points: 4
#     Node 3, Type 0, BuildingBlock: AZAVOO_clean_sbu_0, # of connection points: 4
#     Node 4, Type 0, BuildingBlock: AZAVOO_clean_sbu_0, # of connection points: 4
#     Node 5, Type 0, BuildingBlock: AZAVOO_clean_sbu_0, # of connection points: 4
#     Node 6, Type 0, BuildingBlock: AZAVOO_clean_sbu_0, # of connection points: 4
#     Node 7, Type 0, BuildingBlock: AZAVOO_clean_sbu_0, # of connection points: 4
#     Node 8, Type 0, BuildingBlock: AZAVOO_clean_sbu_0, # of connection points: 4
#     Node 9, Type 0, BuildingBlock: AZAVOO_clean_sbu_0, # of connection points: 4
#     Node 10, Type 0, BuildingBlock: AZAVOO_clean_sbu_0, # of connection points: 4
#     Node 11, Type 0, BuildingBlock: AZAVOO_clean_sbu_0, # of connection points: 4
#     Node 12, Type 0, BuildingBlock: AZAVOO_clean_sbu_0, # of connection points: 4
#     Node 13, Type 0, BuildingBlock: AZAVOO_clean_sbu_0, # of connection points: 4
#     Node 14, Type 0, BuildingBlock: AZAVOO_clean_sbu_0, # of connection points: 4
#     Node 15, Type 0, BuildingBlock: AZAVOO_clean_sbu_0, # of connection points: 4
#     Node 16, Type 0, BuildingBlock: AZAVOO_clean_sbu_0, # of connection points: 4
#     Node 17, Type 0, BuildingBlock: AZAVOO_clean_sbu_0, # of connection points: 4
#     Node 18, Type 0, BuildingBlock: AZAVOO_clean_sbu_0, # of connection points: 4
#     Node 19, Type 0, BuildingBlock: AZAVOO_clean_sbu_0, # of connection points: 4
#     Node 20, Type 0, BuildingBlock: AZAVOO_clean_sbu_0, # of connection points: 4
#     Node 21, Type 0, BuildingBlock: AZAVOO_clean_sbu_0, # of connection points: 4
#     Node 22, Type 0, BuildingBlock: AZAVOO_clean_sbu_0, # of connection points: 4
#     Node 23, Type 0, BuildingBlock: AZAVOO_clean_sbu_0, # of connection points: 4
#     Node 24, Type 0, BuildingBlock: AZAVOO_clean_sbu_0, # of connection points: 4
#     Node 25, Type 0, BuildingBlock: AZAVOO_clean_sbu_0, # of connection points: 4
#     Node 26, Type 0, BuildingBlock: AZAVOO_clean_sbu_0, # of connection points: 4
#     Node 27, Type 0, BuildingBlock: AZAVOO_clean_sbu_0, # of connection points: 4
#     Node 28, Type 0, BuildingBlock: AZAVOO_clean_sbu_0, # of connection points: 4
#     Node 29, Type 0, BuildingBlock: AZAVOO_clean_sbu_0, # of connection points: 4
#     Node 30, Type 0, BuildingBlock: AZAVOO_clean_sbu_0, # of connection points: 4
#     Node 31, Type 0, BuildingBlock: AZAVOO_clean_sbu_0, # of connection points: 4
#     Node 32, Type 0, BuildingBlock: AZAVOO_clean_sbu_0, # of connection points: 4
#     Node 33, Type 0, BuildingBlock: AZAVOO_clean_sbu_0, # of connection points: 4
#     Node 34, Type 0, BuildingBlock: AZAVOO_clean_sbu_0, # of connection points: 4
#     Node 35, Type 0, BuildingBlock: AZAVOO_clean_sbu_0, # of connection points: 4
#     Edge 36, Type (0, 0), BuildingBlock: CIFDUS_clean_linker_0, # of connection points: 2
#     Edge 37, Type (0, 0), BuildingBlock: CIFDUS_clean_linker_0, # of connection points: 2
#     Edge 38, Type (0, 0), BuildingBlock: CIFDUS_clean_linker_0, # of connection points: 2
#     Edge 39, Type (0, 0), BuildingBlock: CIFDUS_clean_linker_0, # of connection points: 2
#     Edge 40, Type (0, 0), BuildingBlock: CIFDUS_clean_linker_0, # of connection points: 2
#     Edge 41, Type (0, 0), BuildingBlock: CIFDUS_clean_linker_0, # of connection points: 2
#     Edge 42, Type (0, 0), BuildingBlock: CIFDUS_clean_linker_0, # of connection points: 2
#     Edge 43, Type (0, 0), BuildingBlock: CIFDUS_clean_linker_0, # of connection points: 2
#     Edge 44, Type (0, 0), BuildingBlock: CIFDUS_clean_linker_0, # of connection points: 2
#     Edge 45, Type (0, 0), BuildingBlock: CIFDUS_clean_linker_0, # of connection points: 2
#     Edge 46, Type (0, 0), BuildingBlock: CIFDUS_clean_linker_0, # of connection points: 2
#     Edge 47, Type (0, 0), BuildingBlock: CIFDUS_clean_linker_0, # of connection points: 2
#     Edge 48, Type (0, 0), BuildingBlock: CIFDUS_clean_linker_0, # of connection points: 2
#     Edge 49, Type (0, 0), BuildingBlock: CIFDUS_clean_linker_0, # of connection points: 2
#     Edge 50, Type (0, 0), BuildingBlock: CIFDUS_clean_linker_0, # of connection points: 2
#     Edge 51, Type (0, 0), BuildingBlock: CIFDUS_clean_linker_0, # of connection points: 2
#     Edge 52, Type (0, 0), BuildingBlock: CIFDUS_clean_linker_0, # of connection points: 2
#     Edge 53, Type (0, 0), BuildingBlock: CIFDUS_clean_linker_0, # of connection points: 2
#     Edge 54, Type (0, 0), BuildingBlock: CIFDUS_clean_linker_0, # of connection points: 2
#     Edge 55, Type (0, 0), BuildingBlock: CIFDUS_clean_linker_0, # of connection points: 2
#     Edge 56, Type (0, 0), BuildingBlock: CIFDUS_clean_linker_0, # of connection points: 2
#     Edge 57, Type (0, 0), BuildingBlock: CIFDUS_clean_linker_0, # of connection points: 2
#     Edge 58, Type (0, 0), BuildingBlock: CIFDUS_clean_linker_0, # of connection points: 2
#     Edge 59, Type (0, 0), BuildingBlock: CIFDUS_clean_linker_0, # of connection points: 2
#     Edge 60, Type (0, 0), BuildingBlock: CIFDUS_clean_linker_0, # of connection points: 2
#     Edge 61, Type (0, 0), BuildingBlock: CIFDUS_clean_linker_0, # of connection points: 2
#     Edge 62, Type (0, 0), BuildingBlock: CIFDUS_clean_linker_0, # of connection points: 2
#     Edge 63, Type (0, 0), BuildingBlock: CIFDUS_clean_linker_0, # of connection points: 2
#     Edge 64, Type (0, 0), BuildingBlock: CIFDUS_clean_linker_0, # of connection points: 2
#     Edge 65, Type (0, 0), BuildingBlock: CIFDUS_clean_linker_0, # of connection points: 2
#     Edge 66, Type (0, 0), BuildingBlock: CIFDUS_clean_linker_0, # of connection points: 2
#     Edge 67, Type (0, 0), BuildingBlock: CIFDUS_clean_linker_0, # of connection points: 2
#     Edge 68, Type (0, 0), BuildingBlock: CIFDUS_clean_linker_0, # of connection points: 2
#     Edge 69, Type (0, 0), BuildingBlock: CIFDUS_clean_linker_0, # of connection points: 2
#     Edge 70, Type (0, 0), BuildingBlock: CIFDUS_clean_linker_0, # of connection points: 2
#     Edge 71, Type (0, 0), BuildingBlock: CIFDUS_clean_linker_0, # of connection points: 2
#     Edge 72, Type (0, 0), BuildingBlock: CIFDUS_clean_linker_0, # of connection points: 2
#     Edge 73, Type (0, 0), BuildingBlock: CIFDUS_clean_linker_0, # of connection points: 2
#     Edge 74, Type (0, 0), BuildingBlock: CIFDUS_clean_linker_0, # of connection points: 2
#     Edge 75, Type (0, 0), BuildingBlock: CIFDUS_clean_linker_0, # of connection points: 2
#     Edge 76, Type (0, 0), BuildingBlock: CIFDUS_clean_linker_0, # of connection points: 2
#     Edge 77, Type (0, 0), BuildingBlock: CIFDUS_clean_linker_0, # of connection points: 2
#     Edge 78, Type (0, 0), BuildingBlock: CIFDUS_clean_linker_0, # of connection points: 2
#     Edge 79, Type (0, 0), BuildingBlock: CIFDUS_clean_linker_0, # of connection points: 2
#     Edge 80, Type (0, 0), BuildingBlock: CIFDUS_clean_linker_0, # of connection points: 2
#     Edge 81, Type (0, 0), BuildingBlock: CIFDUS_clean_linker_0, # of connection points: 2
#     Edge 82, Type (0, 0), BuildingBlock: CIFDUS_clean_linker_0, # of connection points: 2
#     Edge 83, Type (0, 0), BuildingBlock: CIFDUS_clean_linker_0, # of connection points: 2
#     Edge 84, Type (0, 0), BuildingBlock: CIFDUS_clean_linker_0, # of connection points: 2
#     Edge 85, Type (0, 0), BuildingBlock: CIFDUS_clean_linker_0, # of connection points: 2
#     Edge 86, Type (0, 0), BuildingBlock: CIFDUS_clean_linker_0, # of connection points: 2
#     Edge 87, Type (0, 0), BuildingBlock: CIFDUS_clean_linker_0, # of connection points: 2
#     Edge 88, Type (0, 0), BuildingBlock: CIFDUS_clean_linker_0, # of connection points: 2
#     Edge 89, Type (0, 0), BuildingBlock: CIFDUS_clean_linker_0, # of connection points: 2
#     Edge 90, Type (0, 0), BuildingBlock: CIFDUS_clean_linker_0, # of connection points: 2
#     Edge 91, Type (0, 0), BuildingBlock: CIFDUS_clean_linker_0, # of connection points: 2
#     Edge 92, Type (0, 0), BuildingBlock: CIFDUS_clean_linker_0, # of connection points: 2
#     Edge 93, Type (0, 0), BuildingBlock: CIFDUS_clean_linker_0, # of connection points: 2
#     Edge 94, Type (0, 0), BuildingBlock: CIFDUS_clean_linker_0, # of connection points: 2
#     Edge 95, Type (0, 0), BuildingBlock: CIFDUS_clean_linker_0, # of connection points: 2
#     Edge 96, Type (0, 0), BuildingBlock: CIFDUS_clean_linker_0, # of connection points: 2
#     Edge 97, Type (0, 0), BuildingBlock: CIFDUS_clean_linker_0, # of connection points: 2
#     Edge 98, Type (0, 0), BuildingBlock: CIFDUS_clean_linker_0, # of connection points: 2
#     Edge 99, Type (0, 0), BuildingBlock: CIFDUS_clean_linker_0, # of connection points: 2
#     Edge 100, Type (0, 0), BuildingBlock: CIFDUS_clean_linker_0, # of connection points: 2
#     Edge 101, Type (0, 0), BuildingBlock: CIFDUS_clean_linker_0, # of connection points: 2
#     Edge 102, Type (0, 0), BuildingBlock: CIFDUS_clean_linker_0, # of connection points: 2
#     Edge 103, Type (0, 0), BuildingBlock: CIFDUS_clean_linker_0, # of connection points: 2
#     Edge 104, Type (0, 0), BuildingBlock: CIFDUS_clean_linker_0, # of connection points: 2
#     Edge 105, Type (0, 0), BuildingBlock: CIFDUS_clean_linker_0, # of connection points: 2
#     Edge 106, Type (0, 0), BuildingBlock: CIFDUS_clean_linker_0, # of connection points: 2
#     Edge 107, Type (0, 0), BuildingBlock: CIFDUS_clean_linker_0, # of connection points: 2
# Relax obj value: 0.378
# Max RMSD: 0.233
# Mean RMSD: 0.233
data_MOF--net-unr--node1-AZAVOO_clean_sbu_0--edge1-CIFDUS_clean_linker_0
_symmetry_space_group_name_H-M    P1
_symmetry_Int_Tables_number       1
_symmetry_cell_setting            triclinic
loop_
_symmetry_equiv_pos_as_xyz
'x, y, z'
_cell_length_a     38.366349
_cell_length_b     38.354992
_cell_length_c     119.01725
_cell_angle_alpha  90.019335
_cell_angle_beta   90.052985
_cell_angle_gamma 119.97656
loop_
_atom_site_label
_atom_site_type_symbol
_atom_site_fract_x
_atom_site_fract_y
_atom_site_fract_z
_atom_type_partial_charge
Mg0 Mg 0.20005 0.19083 0.1927 0.0
O1 O 0.16691 0.12054 0.19326 0.0
O2 O 0.10348 0.09843 0.19891 0.0
Mg3 Mg 0.11269 0.14875 0.21074 0.0
C4 C 0.12991 0.09293 0.19397 0.0
C5 C 0.24685 0.16506 0.17645 0.0
O6 O 0.2105 0.14564 0.17212 0.0
O7 O 0.22763 0.20302 0.21064 0.0
O8 O 0.17075 0.15021 0.21486 0.0
O9 O 0.15594 0.18154 0.17889 0.0
O10 O 0.14573 0.19014 0.19666 0.0
C11 C 0.20235 0.18144 0.21811 0.0
C12 C 0.13192 0.18112 0.18661 0.0
O13 O 0.25322 0.18801 0.18487 0.0
Mg14 Mg 0.80657 0.99406 0.19318 0.0
O15 O 0.87399 0.03595 0.19584 0.0
O16 O 0.89954 0.00155 0.20432 0.0
Mg17 Mg 0.84674 0.93873 0.20861 0.0
C18 C 0.9036 0.03343 0.19972 0.0
C19 C 0.82431 0.07104 0.17977 0.0
O20 O 0.84851 0.06103 0.17473 0.0
O21 O 0.79406 0.00144 0.21172 0.0
O22 O 0.81756 0.96476 0.21994 0.0
O23 O 0.82441 0.97304 0.17769 0.0
O24 O 0.81383 0.9437 0.19427 0.0
C25 C 0.80027 0.98576 0.22044 0.0
C26 C 0.82713 0.94746 0.1842 0.0
O27 O 0.80231 0.04914 0.18778 0.0
Mg28 Mg 0.01116 0.806 0.18916 0.0
O29 O 0.97596 0.83837 0.19138 0.0
O30 O 0.01261 0.89747 0.20002 0.0
Mg31 Mg 0.07106 0.89869 0.20548 0.0
C32 C 0.98045 0.87141 0.1951 0.0
C33 C 0.92979 0.71959 0.18621 0.0
O34 O 0.94095 0.70867 0.19537 0.0
O35 O 0.99645 0.78409 0.2075 0.0
O36 O 0.03608 0.84254 0.21632 0.0
O37 O 0.041 0.84641 0.17424 0.0
O38 O 0.06596 0.85954 0.19141 0.0
C39 C 0.01137 0.80469 0.21647 0.0
C40 C 0.06778 0.87118 0.18124 0.0
O41 O 0.95229 0.75447 0.18215 0.0
Mg42 Mg 0.19752 0.19129 0.30904 0.0
O43 O 0.13145 0.17473 0.30792 0.0
O44 O 0.09738 0.12101 0.29688 0.0
Mg45 Mg 0.1427 0.10298 0.29064 0.0
C46 C 0.09897 0.14839 0.3033 0.0
C47 C 0.1864 0.24968 0.32489 0.0
O48 O 0.15943 0.21456 0.32894 0.0
O49 O 0.21154 0.21872 0.29116 0.0
O50 O 0.17708 0.1619 0.28118 0.0
O51 O 0.1791 0.14546 0.32311 0.0
O52 O 0.182 0.13199 0.30524 0.0
C53 C 0.19977 0.19996 0.2818 0.0
C54 C 0.1728 0.11929 0.31535 0.0
O55 O 0.20911 0.25076 0.31694 0.0
Mg56 Mg 0.81265 0.00915 0.31247 0.0
O57 O 0.8485 0.97629 0.31186 0.0
O58 O 0.90715 0.01563 0.30329 0.0
Mg59 Mg 0.90445 0.06989 0.29603 0.0
C60 C 0.8833 0.98378 0.30872 0.0
C61 C 0.74782 0.9478 0.32929 0.0
O62 O 0.76386 0.97999 0.33571 0.0
O63 O 0.7912 0.99104 0.29422 0.0
O64 O 0.84899 0.03152 0.2853 0.0
O65 O 0.85175 0.04256 0.32734 0.0
O66 O 0.86479 0.06483 0.30992 0.0
C67 C 0.81153 0.00557 0.28522 0.0
C68 C 0.87665 0.06816 0.32014 0.0
O69 O 0.76047 0.95058 0.31928 0.0
Mg70 Mg 0.98939 0.80231 0.30846 0.0
O71 O 0.02063 0.87011 0.30533 0.0
O72 O 0.97647 0.88313 0.29681 0.0
Mg73 Mg 0.91935 0.82327 0.29286 0.0
C74 C 0.01076 0.89487 0.30137 0.0
C75 C 0.07308 0.83427 0.3209 0.0
O76 O 0.06174 0.85761 0.32585 0.0
O77 O 0.99888 0.79099 0.29003 0.0
O78 O 0.9538 0.80284 0.28153 0.0
O79 O 0.9648 0.81588 0.32394 0.0
O80 O 0.93293 0.79837 0.30766 0.0
C81 C 0.98056 0.79239 0.28121 0.0
C82 C 0.93584 0.81259 0.3176 0.0
O83 O 0.05023 0.80917 0.31353 0.0
Mg84 Mg 0.8208 0.80069 0.80919 0.0
O85 O 0.85015 0.86826 0.80542 0.0
O86 O 0.90868 0.88645 0.79691 0.0
Mg87 Mg 0.91278 0.83005 0.79306 0.0
C88 C 0.88384 0.89521 0.80145 0.0
C89 C 0.7636 0.82569 0.82134 0.0
O90 O 0.79796 0.85213 0.82593 0.0
O91 O 0.798 0.78389 0.79103 0.0
O92 O 0.85605 0.80156 0.78231 0.0
O93 O 0.86086 0.82099 0.82438 0.0
O94 O 0.87712 0.8042 0.80829 0.0
C95 C 0.81795 0.78636 0.78218 0.0
C96 C 0.88824 0.82133 0.81794 0.0
O97 O 0.76322 0.80064 0.81426 0.0
Mg98 Mg 0.20824 0.02512 0.80518 0.0
O99 O 0.14084 0.98195 0.80378 0.0
O100 O 0.11035 0.01305 0.79627 0.0
Mg101 Mg 0.1612 0.07432 0.7899 0.0
C102 C 0.10919 0.98257 0.80095 0.0
C103 C 0.19017 0.94962 0.81922 0.0
O104 O 0.1664 0.96073 0.824 0.0
O105 O 0.21727 0.0142 0.78662 0.0
O106 O 0.18928 0.04712 0.77855 0.0
O107 O 0.19366 0.05009 0.82054 0.0
O108 O 0.20004 0.07489 0.80348 0.0
C109 C 0.20791 0.02741 0.77793 0.0
C110 C 0.18967 0.07421 0.81374 0.0
O111 O 0.213 0.97088 0.81124 0.0
Mg112 Mg 0.97984 0.1862 0.8074 0.0
O113 O 0.02618 0.16609 0.80529 0.0
O114 O 0.99977 0.10893 0.79545 0.0
Mg115 Mg 0.93573 0.09382 0.79024 0.0
C116 C 0.02865 0.13711 0.80096 0.0
C117 C 0.04868 0.24112 0.82356 0.0
O118 O 0.03321 0.20538 0.82821 0.0
O119 O 0.9901 0.21065 0.78911 0.0
O120 O 0.95848 0.15139 0.78009 0.0
O121 O 0.95411 0.14203 0.82197 0.0
O122 O 0.93169 0.12722 0.80464 0.0
C123 C 0.97657 0.18977 0.7801 0.0
C124 C 0.93058 0.11545 0.81475 0.0
O125 O 0.03242 0.24486 0.81464 0.0
Mg126 Mg 0.79659 0.80635 0.6918 0.0
O127 O 0.86343 0.82729 0.69126 0.0
O128 O 0.89767 0.88235 0.70183 0.0
Mg129 Mg 0.85064 0.89207 0.71107 0.0
C130 C 0.89632 0.85609 0.695 0.0
C131 C 0.78581 0.74808 0.67165 0.0
O132 O 0.7837 0.77615 0.66587 0.0
O133 O 0.79024 0.77567 0.70894 0.0
O134 O 0.82254 0.83107 0.71961 0.0
O135 O 0.80903 0.8549 0.67889 0.0
O136 O 0.80821 0.8632 0.69716 0.0
C137 C 0.80249 0.79293 0.71848 0.0
C138 C 0.81546 0.87874 0.68732 0.0
O139 O 0.78857 0.75095 0.6823 0.0
Mg140 Mg 0.18031 0.97291 0.68877 0.0
O141 O 0.14447 0.00485 0.69185 0.0
O142 O 0.08471 0.96126 0.69917 0.0
Mg143 Mg 0.08522 0.90261 0.7027 0.0
C144 C 0.10943 0.99594 0.6952 0.0
C145 C 0.24131 0.04304 0.67398 0.0
O146 O 0.21979 0.015 0.66658 0.0
O147 O 0.19808 0.97856 0.7075 0.0
O148 O 0.13852 0.93308 0.71463 0.0
O149 O 0.14497 0.9519 0.67275 0.0
O150 O 0.12652 0.91692 0.68848 0.0
C151 C 0.17589 0.95838 0.71578 0.0
C152 C 0.11724 0.92278 0.67855 0.0
O153 O 0.23411 0.03487 0.68438 0.0
Mg154 Mg 0.02123 0.19884 0.6911 0.0
O155 O 0.97736 0.1331 0.6949 0.0
O156 O 0.0066 0.10796 0.70593 0.0
Mg157 Mg 0.07161 0.15907 0.70905 0.0
C158 C 0.97647 0.10419 0.70035 0.0
C159 C 0.94823 0.17726 0.67591 0.0
O160 O 0.96253 0.15487 0.67201 0.0
O161 O 0.01413 0.21818 0.70911 0.0
O162 O 0.04979 0.19591 0.71853 0.0
O163 O 0.04298 0.1761 0.67676 0.0
O164 O 0.0703 0.18962 0.69364 0.0
C165 C 0.03039 0.21486 0.71816 0.0
C166 C 0.06789 0.17479 0.68384 0.0
O167 O 0.96655 0.20122 0.68403 0.0
Mg168 Mg 0.86297 0.54853 0.52647 0.0
O169 O 0.83719 0.48073 0.52757 0.0
O170 O 0.77588 0.45133 0.53524 0.0
Mg171 Mg 0.76709 0.50311 0.54175 0.0
C172 C 0.80465 0.44946 0.53044 0.0
C173 C 0.9207 0.53007 0.51258 0.0
O174 O 0.88622 0.50606 0.50763 0.0
O175 O 0.88258 0.55522 0.54495 0.0
O176 O 0.82216 0.52808 0.55324 0.0
O177 O 0.82406 0.53589 0.51108 0.0
O178 O 0.8058 0.54173 0.52824 0.0
C179 C 0.86048 0.54554 0.55373 0.0
C180 C 0.79615 0.53214 0.51792 0.0
O181 O 0.9216 0.55279 0.52051 0.0
Mg182 Mg 0.47356 0.32703 0.52689 0.0
O183 O 0.54057 0.37329 0.528 0.0
O184 O 0.57333 0.34904 0.53782 0.0
Mg185 Mg 0.52461 0.28814 0.54476 0.0
C186 C 0.5729 0.37651 0.5319 0.0
C187 C 0.48861 0.3938 0.51 0.0
O188 O 0.50735 0.37663 0.50538 0.0
O189 O 0.4622 0.34255 0.54476 0.0
O190 O 0.49563 0.3183 0.55444 0.0
O191 O 0.48918 0.29739 0.51284 0.0
O192 O 0.48407 0.27954 0.53062 0.0
C193 C 0.47479 0.33581 0.55401 0.0
C194 C 0.49302 0.27566 0.52051 0.0
O195 O 0.46836 0.3786 0.51892 0.0
Mg196 Mg 0.69125 0.16023 0.5286 0.0
O197 O 0.65675 0.19369 0.5316 0.0
O198 O 0.7001 0.25444 0.5385 0.0
Mg199 Mg 0.76004 0.25706 0.5421 0.0
C200 C 0.66538 0.22896 0.53469 0.0
C201 C 0.62703 0.09083 0.5142 0.0
O202 O 0.6584 0.10777 0.50751 0.0
O203 O 0.68756 0.14346 0.54747 0.0
O204 O 0.73218 0.20418 0.55417 0.0
O205 O 0.70993 0.195 0.51245 0.0
O206 O 0.74596 0.21551 0.528 0.0
C207 C 0.7081 0.16667 0.55557 0.0
C208 C 0.73878 0.22381 0.51809 0.0
O209 O 0.6307 0.10423 0.52418 0.0
Mg210 Mg 0.86192 0.51624 0.64528 0.0
O211 O 0.79423 0.48002 0.64201 0.0
O212 O 0.78128 0.42493 0.63232 0.0
Mg213 Mg 0.84145 0.42948 0.62761 0.0
C214 C 0.76955 0.44645 0.63749 0.0
C215 C 0.83282 0.58076 0.64787 0.0
O216 O 0.81715 0.56765 0.63787 0.0
O217 O 0.87273 0.54216 0.62737 0.0
O218 O 0.86132 0.4873 0.61773 0.0
O219 O 0.84957 0.47432 0.65979 0.0
O220 O 0.86694 0.4646 0.64291 0.0
C221 C 0.87145 0.52441 0.61815 0.0
C222 C 0.85333 0.45072 0.65274 0.0
O223 O 0.85287 0.56652 0.65255 0.0
Mg224 Mg 0.47198 0.32895 0.64359 0.0
O225 O 0.49164 0.28052 0.64323 0.0
O226 O 0.55357 0.30622 0.63598 0.0
Mg227 Mg 0.5582 0.35801 0.6255 0.0
C228 C 0.52353 0.2788 0.64133 0.0
C229 C 0.41204 0.27015 0.66166 0.0
O230 O 0.44255 0.29307 0.66824 0.0
O231 O 0.44477 0.31821 0.6256 0.0
O232 O 0.49494 0.30984 0.62113 0.0
O233 O 0.51825 0.35887 0.65744 0.0
O234 O 0.53118 0.37525 0.63956 0.0
C235 C 0.46714 0.31633 0.61804 0.0
C236 C 0.54383 0.38019 0.64973 0.0
O237 O 0.41378 0.27912 0.6513 0.0
Mg238 Mg 0.65962 0.13167 0.6462 0.0
O239 O 0.69142 0.20021 0.64517 0.0
O240 O 0.64815 0.2186 0.63889 0.0
Mg241 Mg 0.5913 0.16106 0.63304 0.0
C242 C 0.68235 0.22715 0.64294 0.0
C243 C 0.73851 0.1624 0.65964 0.0
O244 O 0.72042 0.17929 0.66478 0.0
O245 O 0.66925 0.12668 0.62715 0.0
O246 O 0.62438 0.14282 0.62061 0.0
O247 O 0.63279 0.13815 0.66242 0.0
O248 O 0.60274 0.12747 0.64598 0.0
C249 C 0.65005 0.13143 0.61904 0.0
C250 C 0.6041 0.13683 0.65638 0.0
O251 O 0.72103 0.13941 0.65128 0.0
Mg252 Mg 0.49087 0.12911 0.1436 0.0
O253 O 0.50835 0.19326 0.13926 0.0
O254 O 0.55721 0.21823 0.1264 0.0
Mg255 Mg 0.57392 0.16903 0.12319 0.0
C256 C 0.53238 0.2215 0.13283 0.0
C257 C 0.44109 0.15016 0.15966 0.0
O258 O 0.47827 0.17421 0.16298 0.0
O259 O 0.45892 0.10688 0.12644 0.0
O260 O 0.51272 0.129 0.11522 0.0
O261 O 0.53947 0.15528 0.15685 0.0
O262 O 0.54919 0.14127 0.13957 0.0
C263 C 0.47479 0.10922 0.1168 0.0
C264 C 0.56408 0.15737 0.14911 0.0
O265 O 0.43478 0.12506 0.15181 0.0
Mg266 Mg 0.87948 0.36023 0.14322 0.0
O267 O 0.81141 0.32693 0.14025 0.0
O268 O 0.79506 0.36943 0.13221 0.0
Mg269 Mg 0.85363 0.42852 0.12866 0.0
C270 C 0.78519 0.33511 0.13646 0.0
C271 C 0.85089 0.27724 0.15528 0.0
O272 O 0.82773 0.28826 0.16048 0.0
O273 O 0.89002 0.35262 0.12461 0.0
O274 O 0.87499 0.39644 0.11673 0.0
O275 O 0.86601 0.38266 0.15913 0.0
O276 O 0.88111 0.41553 0.14301 0.0
C277 C 0.88687 0.37081 0.116 0.0
C278 C 0.86777 0.41158 0.15309 0.0
O279 O 0.87506 0.30016 0.14777 0.0
Mg280 Mg 0.65687 0.51502 0.14231 0.0
O281 O 0.69408 0.48309 0.14338 0.0
O282 O 0.66261 0.42319 0.13469 0.0
Mg283 Mg 0.61378 0.42295 0.12355 0.0
C284 C 0.69065 0.44906 0.14098 0.0
C285 C 0.7266 0.60197 0.15042 0.0
O286 O 0.7155 0.61473 0.14162 0.0
O287 O 0.68855 0.54822 0.12569 0.0
O288 O 0.6546 0.48627 0.11994 0.0
O289 O 0.61446 0.46826 0.15478 0.0
O290 O 0.60524 0.45936 0.13657 0.0
C291 C 0.67813 0.5227 0.11779 0.0
C292 C 0.59517 0.44476 0.14646 0.0
O293 O 0.70733 0.56474 0.15288 0.0
Mg294 Mg 0.45375 0.12875 0.02695 0.0
O295 O 0.52175 0.16045 0.02874 0.0
O296 O 0.54347 0.21252 0.04053 0.0
Mg297 Mg 0.48691 0.21378 0.04658 0.0
C298 C 0.54994 0.19045 0.03381 0.0
C299 C 0.47931 0.06396 0.02252 0.0
O300 O 0.49512 0.07676 0.03251 0.0
O301 O 0.44498 0.09923 0.04446 0.0
O302 O 0.46269 0.15335 0.05531 0.0
O303 O 0.464 0.17502 0.01363 0.0
O304 O 0.45351 0.18129 0.03152 0.0
C305 C 0.44908 0.11568 0.0541 0.0
C306 C 0.46295 0.19706 0.02172 0.0
O307 O 0.45879 0.07814 0.01806 0.0
Mg308 Mg 0.84581 0.32065 0.0249 0.0
O309 O 0.81559 0.35892 0.02525 0.0
O310 O 0.75887 0.3256 0.03518 0.0
Mg311 Mg 0.75864 0.27193 0.04376 0.0
C312 C 0.78248 0.35476 0.02883 0.0
C313 C 0.89378 0.39055 0.00787 0.0
O314 O 0.85756 0.37443 0.00348 0.0
O315 O 0.87363 0.34326 0.04238 0.0
O316 O 0.81807 0.31028 0.05285 0.0
O317 O 0.80106 0.28576 0.01119 0.0
O318 O 0.79136 0.26881 0.02909 0.0
C319 C 0.85593 0.33354 0.0519 0.0
C320 C 0.77679 0.2642 0.01914 0.0
O321 O 0.89926 0.37434 0.01651 0.0
Mg322 Mg 0.67165 0.52316 0.02493 0.0
O323 O 0.6294 0.45466 0.02382 0.0
O324 O 0.66254 0.42429 0.02996 0.0
Mg325 Mg 0.7241 0.47287 0.03658 0.0
C326 C 0.63145 0.42305 0.02568 0.0
C327 C 0.59697 0.51165 0.01153 0.0
O328 O 0.60926 0.49157 0.00532 0.0
O329 O 0.66102 0.52375 0.04411 0.0
O330 O 0.69593 0.49435 0.04951 0.0
O331 O 0.69987 0.51848 0.00853 0.0
O332 O 0.72318 0.51743 0.02532 0.0
C333 C 0.6754 0.51124 0.05183 0.0
C334 C 0.72543 0.51445 0.01469 0.0
O335 O 0.61687 0.52943 0.02032 0.0
Mg336 Mg 0.52293 0.86745 0.85957 0.0
O337 O 0.49084 0.79824 0.85922 0.0
O338 O 0.43117 0.77576 0.86754 0.0
Mg339 Mg 0.42944 0.82908 0.87577 0.0
C340 C 0.45606 0.7697 0.86196 0.0
C341 C 0.57988 0.84708 0.845 0.0
O342 O 0.54573 0.82208 0.84005 0.0
O343 O 0.54386 0.87017 0.87783 0.0
O344 O 0.48509 0.84866 0.88664 0.0
O345 O 0.48391 0.86135 0.8446 0.0
O346 O 0.46836 0.86627 0.86213 0.0
C347 C 0.52299 0.86246 0.8868 0.0
C348 C 0.45746 0.85883 0.85181 0.0
O349 O 0.57989 0.86929 0.85295 0.0
Mg350 Mg 0.13293 0.66305 0.85763 0.0
O351 O 0.20034 0.70625 0.85968 0.0
O352 O 0.22835 0.67604 0.86906 0.0
Mg353 Mg 0.1771 0.61198 0.87333 0.0
C354 C 0.23084 0.70642 0.86393 0.0
C355 C 0.15196 0.73927 0.84385 0.0
O356 O 0.17606 0.72839 0.83917 0.0
O357 O 0.12214 0.67252 0.87622 0.0
O358 O 0.14654 0.63672 0.88455 0.0
O359 O 0.14786 0.63833 0.84223 0.0
O360 O 0.1407 0.613 0.85923 0.0
C361 C 0.12871 0.65724 0.88498 0.0
C362 C 0.15029 0.61307 0.84893 0.0
O363 O 0.12862 0.71764 0.8517 0.0
Mg364 Mg 0.33475 0.48162 0.85535 0.0
O365 O 0.30402 0.51862 0.85797 0.0
O366 O 0.34552 0.57421 0.86754 0.0
Mg367 Mg 0.40072 0.5695 0.8728 0.0
C368 C 0.31268 0.5525 0.86221 0.0
C369 C 0.25787 0.43683 0.83999 0.0
O370 O 0.27618 0.47225 0.8351 0.0
O371 O 0.31894 0.45716 0.87346 0.0
O372 O 0.36237 0.51254 0.88293 0.0
O373 O 0.36628 0.52361 0.84081 0.0
O374 O 0.39174 0.5328 0.85786 0.0
C375 C 0.33525 0.47547 0.88265 0.0
C376 C 0.39354 0.54669 0.84796 0.0
O377 O 0.27437 0.43082 0.8485 0.0
Mg378 Mg 0.52535 0.84408 0.97841 0.0
O379 O 0.45868 0.82211 0.97627 0.0
O380 O 0.42994 0.76801 0.96515 0.0
Mg381 Mg 0.4801 0.75403 0.96041 0.0
C382 C 0.42816 0.79452 0.97122 0.0
C383 C 0.51258 0.91841 0.9812 0.0
O384 O 0.49688 0.90602 0.97117 0.0
O385 O 0.53865 0.87006 0.96036 0.0
O386 O 0.51337 0.81242 0.95061 0.0
O387 O 0.50767 0.79947 0.99271 0.0
O388 O 0.51598 0.78619 0.97524 0.0
C389 C 0.53231 0.85076 0.9511 0.0
C390 C 0.505 0.77358 0.98529 0.0
O391 O 0.52925 0.90095 0.9861 0.0
Mg392 Mg 0.13918 0.67328 0.97696 0.0
O393 O 0.17185 0.6371 0.97646 0.0
O394 O 0.23142 0.67436 0.96814 0.0
Mg395 Mg 0.23211 0.72997 0.96063 0.0
C396 C 0.20631 0.64301 0.97353 0.0
C397 C 0.08972 0.59965 0.99239 0.0
O398 O 0.1252 0.61678 0.99727 0.0
O399 O 0.11747 0.65623 0.95869 0.0
O400 O 0.1761 0.69428 0.94988 0.0
O401 O 0.1785 0.70486 0.99192 0.0
O402 O 0.19348 0.72734 0.97455 0.0
C403 C 0.13823 0.67007 0.94972 0.0
C404 C 0.20476 0.72946 0.9848 0.0
O405 O 0.08473 0.61629 0.98376 0.0
Mg406 Mg 0.30883 0.46027 0.97459 0.0
O407 O 0.34328 0.52856 0.97251 0.0
O408 O 0.30248 0.54643 0.96413 0.0
Mg409 Mg 0.24409 0.48901 0.95918 0.0
C410 C 0.33582 0.55544 0.9689 0.0
C411 C 0.39013 0.48645 0.98781 0.0
O412 O 0.37869 0.50875 0.9933 0.0
O413 O 0.31972 0.45161 0.95603 0.0
O414 O 0.27748 0.46792 0.94771 0.0
O415 O 0.28279 0.47223 0.99013 0.0
O416 O 0.25366 0.45896 0.97348 0.0
C417 C 0.30281 0.45563 0.94725 0.0
C418 C 0.25504 0.47082 0.98363 0.0
O419 O 0.36802 0.46378 0.9799 0.0
Mg420 Mg 0.15407 0.47109 0.47819 0.0
O421 O 0.18095 0.53897 0.4761 0.0
O422 O 0.24371 0.56596 0.46956 0.0
Mg423 Mg 0.25274 0.51295 0.46452 0.0
C424 C 0.21458 0.56936 0.47347 0.0
C425 C 0.09566 0.49201 0.49046 0.0
O426 O 0.12978 0.5155 0.49565 0.0
O427 O 0.13757 0.4602 0.45939 0.0
O428 O 0.19969 0.48489 0.45239 0.0
O429 O 0.19033 0.48601 0.49426 0.0
O430 O 0.21107 0.47673 0.47785 0.0
C431 C 0.1616 0.46739 0.45114 0.0
C432 C 0.21909 0.48795 0.48812 0.0
O433 O 0.09494 0.46853 0.48279 0.0
Mg434 Mg 0.54262 0.68319 0.48022 0.0
O435 O 0.47512 0.64138 0.47927 0.0
O436 O 0.44576 0.66988 0.46975 0.0
Mg437 Mg 0.49745 0.73103 0.46348 0.0
C438 C 0.44397 0.64082 0.47544 0.0
C439 C 0.52296 0.61292 0.49629 0.0
O440 O 0.50567 0.63113 0.50116 0.0
O441 O 0.54921 0.66678 0.46199 0.0
O442 O 0.52379 0.70031 0.45288 0.0
O443 O 0.53123 0.71395 0.49488 0.0
O444 O 0.53669 0.734 0.47732 0.0
C445 C 0.54075 0.67894 0.45292 0.0
C446 C 0.52878 0.73755 0.48756 0.0
O447 O 0.5437 0.62838 0.48745 0.0
Mg448 Mg 0.33782 0.86248 0.48104 0.0
O449 O 0.37253 0.82949 0.47785 0.0
O450 O 0.33134 0.7722 0.46885 0.0
Mg451 Mg 0.27363 0.77254 0.46408 0.0
C452 C 0.36462 0.79554 0.4738 0.0
C453 C 0.40058 0.92647 0.49769 0.0
O454 O 0.36904 0.90812 0.50429 0.0
O455 O 0.34936 0.88687 0.46285 0.0
O456 O 0.30734 0.82988 0.45383 0.0
O457 O 0.31248 0.82105 0.49587 0.0
O458 O 0.2827 0.80794 0.47932 0.0
C459 C 0.33237 0.86755 0.45385 0.0
C460 C 0.28574 0.7952 0.48905 0.0
O461 O 0.39719 0.91573 0.48744 0.0
Mg462 Mg 0.13005 0.48342 0.36111 0.0
O463 O 0.19733 0.50937 0.3637 0.0
O464 O 0.22465 0.57104 0.37111 0.0
Mg465 Mg 0.17156 0.57991 0.37617 0.0
C466 C 0.22775 0.54216 0.36685 0.0
C467 C 0.15277 0.42608 0.3485 0.0
O468 O 0.17831 0.46088 0.34397 0.0
O469 O 0.11799 0.46395 0.37968 0.0
O470 O 0.14296 0.52492 0.38758 0.0
O471 O 0.14675 0.52266 0.34561 0.0
O472 O 0.13626 0.54074 0.36227 0.0
C473 C 0.12519 0.48664 0.38827 0.0
C474 C 0.14846 0.55049 0.35214 0.0
O475 O 0.12768 0.42475 0.35573 0.0
Mg476 Mg 0.5191 0.6587 0.36123 0.0
O477 O 0.48644 0.69413 0.36393 0.0
O478 O 0.42845 0.65372 0.37267 0.0
Mg479 Mg 0.42797 0.59568 0.37764 0.0
C480 C 0.45238 0.68679 0.36774 0.0
C481 C 0.58672 0.72063 0.34544 0.0
O482 O 0.57065 0.68871 0.33892 0.0
O483 O 0.54196 0.66986 0.37948 0.0
O484 O 0.48452 0.62871 0.38838 0.0
O485 O 0.47956 0.63415 0.34607 0.0
O486 O 0.46434 0.60414 0.36262 0.0
C487 C 0.52229 0.65338 0.38845 0.0
C488 C 0.4528 0.60761 0.35274 0.0
O489 O 0.57316 0.71765 0.35535 0.0
Mg490 Mg 0.3499 0.87438 0.36193 0.0
O491 O 0.3038 0.80717 0.36263 0.0
O492 O 0.32997 0.77523 0.37203 0.0
Mg493 Mg 0.39257 0.82356 0.37844 0.0
C494 C 0.30159 0.77508 0.36638 0.0
C495 C 0.2787 0.86264 0.34657 0.0
O496 O 0.28875 0.83811 0.34175 0.0
O497 O 0.33587 0.8829 0.38027 0.0
O498 O 0.36654 0.85417 0.38923 0.0
O499 O 0.37821 0.86042 0.3471 0.0
O500 O 0.39776 0.86367 0.36465 0.0
C501 C 0.34759 0.87364 0.38929 0.0
C502 C 0.40071 0.8558 0.35436 0.0
O503 O 0.29901 0.88333 0.35499 0.0
H504 H 0.07724 0.18425 0.20012 0.0
H505 H 0.08732 0.12672 0.17013 0.0
H506 H 0.01563 0.07661 0.17126 0.0
H507 H 0.95279 0.04382 0.18236 0.0
H508 H 0.94435 0.09924 0.21292 0.0
H509 H 0.01325 0.15511 0.21023 0.0
C510 C 0.06358 0.1612 0.1937 0.0
C511 C 0.08768 0.15889 0.18514 0.0
C512 C 0.02304 0.13146 0.19473 0.0
C513 C 0.06946 0.1293 0.17678 0.0
C514 C 0.0286 0.10027 0.17752 0.0
C515 C 0.96614 0.06831 0.18836 0.0
C516 C 0.94424 0.0675 0.19791 0.0
C517 C 0.00562 0.10008 0.18673 0.0
C518 C 0.96119 0.09936 0.2056 0.0
C519 C 1.00035 0.13123 0.20402 0.0
H520 H 0.82054 0.87804 0.19134 0.0
H521 H 0.89809 0.98564 0.1727 0.0
H522 H 0.9541 0.97257 0.17492 0.0
H523 H 0.98228 0.93374 0.18401 0.0
H524 H 0.90351 0.82474 0.2018 0.0
H525 H 0.84652 0.83528 0.19833 0.0
C526 C 0.84939 0.89789 0.18746 0.0
C527 C 0.8554 0.93285 0.18194 0.0
C528 C 0.88137 0.89054 0.18896 0.0
C529 C 0.89278 0.95841 0.17693 0.0
C530 C 0.92493 0.95128 0.17836 0.0
C531 C 0.95267 0.91265 0.18712 0.0
C532 C 0.94706 0.87924 0.19338 0.0
C533 C 0.91989 0.91822 0.18472 0.0
C534 C 0.90842 0.85109 0.19715 0.0
C535 C 0.87589 0.85693 0.19509 0.0
H536 H 0.17069 0.05198 0.19248 0.0
H537 H 0.06009 0.0471 0.18277 0.0
H538 H 0.03599 0.98101 0.17432 0.0
H539 H 0.03974 0.91873 0.17366 0.0
H540 H 0.14683 0.92062 0.18542 0.0
H541 H 0.17856 0.99279 0.18923 0.0
C542 C 0.14131 0.0363 0.18851 0.0
C543 C 0.11677 0.05385 0.18846 0.0
C544 C 0.12653 0.99713 0.18429 0.0
C545 C 0.07901 0.03363 0.18317 0.0
C546 C 0.06509 0.99571 0.17841 0.0
C547 C 0.0707 0.93544 0.17655 0.0
C548 C 0.09121 0.91473 0.17914 0.0
C549 C 0.08768 0.97631 0.17941 0.0
C550 C 0.13082 0.93627 0.18322 0.0
C551 C 0.14868 0.97735 0.18558 0.0
H552 H 0.09328 0.07921 0.31301 0.0
H553 H 0.19358 0.06254 0.32034 0.0
H554 H 0.1514 0.98986 0.31683 0.0
H555 H 0.08773 0.93281 0.30965 0.0
H556 H 0.9932 0.95491 0.29852 0.0
H557 H 0.03216 0.02445 0.30478 0.0
C558 C 0.10573 0.05962 0.31387 0.0
C559 C 0.14609 0.0759 0.317 0.0
C560 C 0.08272 0.0192 0.31071 0.0
C561 C 0.16213 0.05031 0.31822 0.0
C562 C 0.13828 0.00902 0.31597 0.0
C563 C 0.07577 0.9529 0.3085 0.0
C564 C 0.0373 0.93837 0.3037 0.0
C565 C 0.0989 0.99341 0.31182 0.0
C566 C 0.0226 0.96507 0.30218 0.0
C567 C 0.04469 0.00483 0.30585 0.0
H568 H 0.9308 0.13524 0.30944 0.0
H569 H 0.9207 0.0501 0.33468 0.0
H570 H 0.99201 0.0716 0.33238 0.0
H571 H 0.05326 0.10553 0.32072 0.0
H572 H 0.06061 0.18483 0.29406 0.0
H573 H 0.99408 0.17437 0.29918 0.0
C574 C 0.94461 0.12234 0.31469 0.0
C575 C 0.92051 0.09088 0.32213 0.0
C576 C 0.98473 0.1329 0.31276 0.0
C577 C 0.93864 0.07455 0.32896 0.0
C578 C 0.97925 0.08631 0.32748 0.0
C579 C 0.0403 0.12074 0.31613 0.0
C580 C 0.06109 0.14542 0.30695 0.0
C581 C 0.00188 0.11386 0.319 0.0
C582 C 0.04465 0.16546 0.30109 0.0
C583 C 0.00681 0.15954 0.30404 0.0
H584 H 0.84048 0.90221 0.30945 0.0
H585 H 0.95746 0.00387 0.31662 0.0
H586 H 0.98088 0.95861 0.3232 0.0
H587 H 0.97129 0.89027 0.32413 0.0
H588 H 0.85718 0.78901 0.31455 0.0
H589 H 0.82929 0.8335 0.31176 0.0
C590 C 0.87115 0.91433 0.31241 0.0
C591 C 0.89748 0.95616 0.31236 0.0
C592 C 0.88495 0.88809 0.31568 0.0
C593 C 0.93699 0.97167 0.31633 0.0
C594 C 0.9503 0.94584 0.32014 0.0
C595 C 0.93988 0.87787 0.32186 0.0
C596 C 0.91604 0.83643 0.31971 0.0
C597 C 0.925 0.90398 0.31951 0.0
C598 C 0.87578 0.82077 0.31642 0.0
C599 C 0.86008 0.84628 0.31465 0.0
H600 H 0.95206 0.81733 0.81011 0.0
H601 H 0.92029 0.89477 0.82823 0.0
H602 H 0.9869 0.95256 0.82448 0.0
H603 H 0.05056 0.98251 0.81365 0.0
H604 H 0.08243 0.90453 0.79588 0.0
H605 H 0.01879 0.84565 0.80148 0.0
C606 C 0.96018 0.84669 0.81351 0.0
C607 C 0.93122 0.85182 0.81935 0.0
C608 C 0.99785 0.87994 0.81093 0.0
C609 C 0.94215 0.88989 0.8238 0.0
C610 C 0.97999 0.92312 0.82147 0.0
C611 C 0.04328 0.95256 0.81098 0.0
C612 C 0.07024 0.94766 0.80407 0.0
C613 C 0.00729 0.91879 0.81457 0.0
C614 C 0.06149 0.90882 0.80098 0.0
C615 C 0.02537 0.87524 0.80427 0.0
H616 H 0.03558 0.08822 0.81605 0.0
H617 H 0.10297 0.18172 0.79193 0.0
H618 H 0.16295 0.17633 0.79581 0.0
H619 H 0.19326 0.13977 0.80451 0.0
H620 H 0.1241 0.04283 0.82761 0.0
H621 H 0.06781 0.0556 0.82604 0.0
C622 C 0.06321 0.10705 0.81156 0.0
C623 C 0.06472 0.13432 0.80342 0.0
C624 C 0.09725 0.10362 0.81384 0.0
C625 C 0.10116 0.15993 0.79804 0.0
C626 C 0.13536 0.15699 0.80031 0.0
C627 C 0.16627 0.12228 0.80947 0.0
C628 C 0.16271 0.09035 0.81613 0.0
C629 C 0.13345 0.12837 0.80803 0.0
C630 C 0.12775 0.06788 0.82254 0.0
C631 C 0.0953 0.07469 0.82146 0.0
H632 H 0.83832 0.92953 0.8071 0.0
H633 H 0.96096 0.95706 0.802 0.0
H634 H 0.98562 0.02504 0.80877 0.0
H635 H 0.97276 0.07808 0.81546 0.0
H636 H 0.85186 0.0565 0.81651 0.0
H637 H 0.82568 0.98455 0.8128 0.0
C638 C 0.87042 0.95057 0.80739 0.0
C639 C 0.89768 0.93798 0.80407 0.0
C640 C 0.88462 0.99048 0.81096 0.0
C641 C 0.93919 0.96575 0.80445 0.0
C642 C 0.95345 0.0047 0.80845 0.0
C643 C 0.94081 0.05732 0.81507 0.0
C644 C 0.91436 0.07211 0.81648 0.0
C645 C 0.9265 0.01739 0.81172 0.0
C646 C 0.87275 0.04538 0.81578 0.0
C647 C 0.85791 0.00452 0.81342 0.0
H648 H 0.95216 0.05873 0.68158 0.0
H649 H 0.92127 0.0608 0.71628 0.0
H650 H 0.86248 0.99324 0.71427 0.0
H651 H 0.82356 0.93249 0.70313 0.0
H652 H 0.86184 0.9249 0.66959 0.0
H653 H 0.91307 0.99655 0.67038 0.0
C654 C 0.93251 0.04421 0.68868 0.0
C655 C 0.94084 0.06415 0.6991 0.0
C656 C 0.90002 0.00479 0.68758 0.0
C657 C 0.9153 0.04557 0.70825 0.0
C658 C 0.88177 0.00718 0.70707 0.0
C659 C 0.84315 0.94639 0.69597 0.0
C660 C 0.83951 0.92315 0.68641 0.0
C661 C 0.87435 0.98631 0.69684 0.0
C662 C 0.86406 0.94204 0.67706 0.0
C663 C 0.89368 0.98285 0.67757 0.0
H664 H 0.05405 0.85134 0.68461 0.0
H665 H 0.08452 0.963 0.6681 0.0
H666 H 0.01674 0.95131 0.67147 0.0
H667 H 0.95299 0.91518 0.68213 0.0
H668 H 0.92239 0.8033 0.69849 0.0
H669 H 0.98641 0.80962 0.69248 0.0
C670 C 0.0453 0.87232 0.68139 0.0
C671 C 0.07431 0.90816 0.67626 0.0
C672 C 0.00685 0.86619 0.68378 0.0
C673 C 0.06268 0.93504 0.67202 0.0
C674 C 0.02413 0.92877 0.67416 0.0
C675 C 0.96048 0.89221 0.6843 0.0
C676 C 0.93399 0.85942 0.69097 0.0
C677 C 0.9968 0.8956 0.68058 0.0
C678 C 0.94301 0.82912 0.69352 0.0
C679 C 0.97936 0.83262 0.69003 0.0
H680 H 0.02305 0.09466 0.68341 0.0
H681 H 0.14549 0.19187 0.68263 0.0
H682 H 0.16966 0.14434 0.68591 0.0
H683 H 0.1553 0.07603 0.69074 0.0
H684 H 0.03192 0.98077 0.69428 0.0
H685 H 0.00847 0.02675 0.68865 0.0
C686 C 0.05495 0.10508 0.68371 0.0
C687 C 0.08253 0.14627 0.68251 0.0
C688 C 0.06826 0.07813 0.68649 0.0
C689 C 0.12388 0.16 0.68321 0.0
C690 C 0.13757 0.13296 0.68528 0.0
C691 C 0.12327 0.06534 0.69033 0.0
C692 C 0.09545 0.02497 0.69296 0.0
C693 C 0.10996 0.09213 0.68727 0.0
C694 C 0.05404 0.01172 0.69241 0.0
C695 C 0.04057 0.03789 0.68908 0.0
H696 H 0.62707 0.37998 0.51678 0.0
H697 H 0.60301 0.45272 0.53954 0.0
H698 H 0.66849 0.51146 0.53504 0.0
H699 H 0.73531 0.53907 0.52651 0.0
H700 H 0.76088 0.46513 0.50462 0.0
H701 H 0.69146 0.40995 0.50655 0.0
C702 C 0.63633 0.40862 0.52078 0.0
C703 C 0.61118 0.41202 0.52875 0.0
C704 C 0.67387 0.44198 0.51815 0.0
C705 C 0.62252 0.44955 0.53355 0.0
C706 C 0.65973 0.48301 0.53094 0.0
C707 C 0.72518 0.51133 0.52184 0.0
C708 C 0.75302 0.50605 0.51545 0.0
C709 C 0.68599 0.47927 0.52346 0.0
C710 C 0.73983 0.47007 0.50946 0.0
C711 C 0.70036 0.43827 0.51075 0.0
H712 H 0.57243 0.31631 0.51835 0.0
H713 H 0.47153 0.19643 0.52067 0.0
H714 H 0.51684 0.17031 0.52503 0.0
H715 H 0.58471 0.18342 0.5304 0.0
H716 H 0.68239 0.30634 0.53216 0.0
H717 H 0.639 0.32998 0.52471 0.0
C718 C 0.56073 0.28449 0.51963 0.0
C719 C 0.51915 0.25827 0.51901 0.0
C720 C 0.58632 0.27064 0.52336 0.0
C721 C 0.50372 0.21697 0.52079 0.0
C722 C 0.52952 0.20225 0.52353 0.0
C723 C 0.59635 0.2154 0.52923 0.0
C724 C 0.63688 0.243 0.53179 0.0
C725 C 0.57073 0.22908 0.52527 0.0
C726 C 0.65138 0.28436 0.5303 0.0
C727 C 0.62664 0.29797 0.5259 0.0
H728 H 0.80894 0.28895 0.52417 0.0
H729 H 0.69722 0.25405 0.50702 0.0
H730 H 0.70813 0.32219 0.50918 0.0
H731 H 0.7442 0.38854 0.5187 0.0
H732 H 0.85656 0.42351 0.53548 0.0
H733 H 0.84999 0.3581 0.53111 0.0
C734 C 0.7876 0.29664 0.52061 0.0
C735 C 0.75215 0.26642 0.51557 0.0
C736 C 0.7933 0.33537 0.52228 0.0
C737 C 0.72491 0.2768 0.51088 0.0
C738 C 0.73076 0.3156 0.51231 0.0
C739 C 0.76711 0.38163 0.52138 0.0
C740 C 0.8002 0.41001 0.52769 0.0
C741 C 0.76376 0.34446 0.51852 0.0
C742 C 0.83048 0.40158 0.53081 0.0
C743 C 0.82687 0.3644 0.52825 0.0
H744 H 0.7774 0.40599 0.66037 0.0
H745 H 0.8771 0.39739 0.64699 0.0
H746 H 0.83289 0.3254 0.64345 0.0
H747 H 0.76407 0.26722 0.64183 0.0
H748 H 0.66369 0.27966 0.65264 0.0
H749 H 0.70965 0.34667 0.66004 0.0
C750 C 0.78967 0.38794 0.65711 0.0
C751 C 0.83047 0.40666 0.65409 0.0
C752 C 0.7636 0.34727 0.65442 0.0
C753 C 0.84584 0.38333 0.64951 0.0
C754 C 0.82046 0.34236 0.64734 0.0
C755 C 0.75238 0.28489 0.6457 0.0
C756 C 0.71056 0.26879 0.64657 0.0
C757 C 0.77897 0.32447 0.64929 0.0
C758 C 0.69571 0.29162 0.65175 0.0
C759 C 0.72201 0.32991 0.656 0.0
H760 H 0.58858 0.34541 0.65236 0.0
H761 H 0.59664 0.46094 0.65041 0.0
H762 H 0.66952 0.49316 0.64709 0.0
H763 H 0.72905 0.4865 0.64236 0.0
H764 H 0.71235 0.36753 0.63774 0.0
H765 H 0.64397 0.33764 0.64501 0.0
C766 C 0.60625 0.37746 0.65105 0.0
C767 C 0.5875 0.40067 0.65157 0.0
C768 C 0.64629 0.39469 0.64754 0.0
C769 C 0.61079 0.44257 0.65027 0.0
C770 C 0.65216 0.46078 0.64812 0.0
C771 C 0.71029 0.45404 0.64287 0.0
C772 C 0.7262 0.42922 0.63989 0.0
C773 C 0.66991 0.43688 0.64629 0.0
C774 C 0.70118 0.38725 0.64028 0.0
C775 C 0.66213 0.37014 0.64447 0.0
H776 H 0.53101 0.12172 0.64943 0.0
H777 H 0.63209 0.20324 0.66984 0.0
H778 H 0.61236 0.25451 0.66798 0.0
H779 H 0.57644 0.28087 0.65675 0.0
H780 H 0.47621 0.20003 0.636 0.0
H781 H 0.48636 0.14402 0.6414 0.0
C782 C 0.54782 0.15023 0.65381 0.0
C783 C 0.58335 0.15901 0.65957 0.0
C784 C 0.53771 0.1803 0.65213 0.0
C785 C 0.60464 0.19573 0.66535 0.0
C786 C 0.59386 0.22539 0.66407 0.0
C787 C 0.55652 0.25086 0.65355 0.0
C788 C 0.5263 0.24448 0.64577 0.0
C789 C 0.56225 0.2189 0.65682 0.0
C790 C 0.49998 0.20545 0.64188 0.0
C791 C 0.50574 0.17354 0.64499 0.0
H792 H 0.7519 0.25774 0.14411 0.0
H793 H 0.72096 0.34606 0.13293 0.0
H794 H 0.65089 0.30095 0.13794 0.0
H795 H 0.59827 0.23631 0.14529 0.0
H796 H 0.62597 0.14363 0.15345 0.0
H797 H 0.69793 0.19107 0.15039 0.0
C798 C 0.72983 0.26707 0.14269 0.0
C799 C 0.74196 0.30557 0.13826 0.0
C800 C 0.68923 0.2405 0.14532 0.0
C801 C 0.7127 0.31679 0.13636 0.0
C802 C 0.67259 0.2911 0.13929 0.0
C803 C 0.62012 0.22664 0.14642 0.0
C804 C 0.60723 0.18695 0.14971 0.0
C805 C 0.6606 0.25302 0.14381 0.0
C806 C 0.63559 0.17446 0.15116 0.0
C807 C 0.67651 0.20138 0.14925 0.0
H808 H 0.79027 0.37229 0.15954 0.0
H809 H 0.88809 0.4898 0.15101 0.0
H810 H 0.84067 0.51385 0.14775 0.0
H811 H 0.77099 0.4976 0.14393 0.0
H812 H 0.67353 0.37704 0.14981 0.0
H813 H 0.72069 0.35808 0.15767 0.0
C814 C 0.80121 0.40361 0.15746 0.0
C815 C 0.84251 0.42944 0.15562 0.0
C816 C 0.77357 0.41621 0.15474 0.0
C817 C 0.85639 0.46965 0.15261 0.0
C818 C 0.82923 0.48315 0.15056 0.0
C819 C 0.7602 0.46727 0.147 0.0
C820 C 0.71912 0.4385 0.14612 0.0
C821 C 0.78769 0.45607 0.151 0.0
C822 C 0.70524 0.39938 0.15018 0.0
C823 C 0.73213 0.38861 0.15472 0.0
H824 H 0.55315 0.26599 0.15162 0.0
H825 H 0.51852 0.2646 0.11711 0.0
H826 H 0.52503 0.33119 0.11954 0.0
H827 H 0.54575 0.39129 0.13103 0.0
H828 H 0.59473 0.39843 0.16414 0.0
H829 H 0.57467 0.32703 0.16312 0.0
C830 C 0.54681 0.28034 0.14469 0.0
C831 C 0.53538 0.26089 0.13421 0.0
C832 C 0.55244 0.31917 0.14603 0.0
C833 C 0.52752 0.27943 0.1252 0.0
C834 C 0.53103 0.31723 0.12663 0.0
C835 C 0.55191 0.37718 0.13807 0.0
C836 C 0.57258 0.40038 0.14755 0.0
C837 C 0.54413 0.33759 0.13695 0.0
C838 C 0.57897 0.38136 0.15674 0.0
C839 C 0.56815 0.34072 0.15607 0.0
H840 H 0.55692 0.37857 0.03468 0.0
H841 H 0.63147 0.38123 0.00735 0.0
H842 H 0.58289 0.31182 0.0025 0.0
H843 H 0.5231 0.24756 0.00765 0.0
H844 H 0.44668 0.24557 0.03447 0.0
H845 H 0.49076 0.31753 0.03759 0.0
C846 C 0.56203 0.36399 0.02757 0.0
C847 C 0.59856 0.384 0.02174 0.0
C848 C 0.53332 0.3242 0.02467 0.0
C849 C 0.60465 0.36545 0.01237 0.0
C850 C 0.57651 0.32594 0.00947 0.0
C851 C 0.51535 0.26319 0.01389 0.0
C852 C 0.48205 0.24126 0.02091 0.0
C853 C 0.54132 0.30451 0.0158 0.0
C854 C 0.47247 0.26187 0.02902 0.0
C855 C 0.49783 0.30296 0.03088 0.0
H856 H 0.72101 0.20678 0.03245 0.0
H857 H 0.73347 0.28031 0.00366 0.0
H858 H 0.66291 0.26279 0.00548 0.0
H859 H 0.59986 0.23265 0.01672 0.0
H860 H 0.59087 0.16487 0.04651 0.0
H861 H 0.65838 0.17518 0.04315 0.0
C862 C 0.70811 0.21852 0.02646 0.0
C863 C 0.73253 0.24506 0.018 0.0
C864 C 0.66853 0.21038 0.028 0.0
C865 C 0.71527 0.25952 0.0102 0.0
C866 C 0.6751 0.25005 0.01136 0.0
C867 C 0.61301 0.22041 0.02246 0.0
C868 C 0.5912 0.19874 0.03196 0.0
C869 C 0.65194 0.22675 0.02049 0.0
C870 C 0.60776 0.1823 0.03928 0.0
C871 C 0.64607 0.18788 0.0373 0.0
H872 H 0.82598 0.43503 0.024 0.0
H873 H 0.70687 0.33129 0.02209 0.0
H874 H 0.68203 0.37136 0.0131 0.0
H875 H 0.69148 0.43805 0.00835 0.0
H876 H 0.80606 0.5435 0.01415 0.0
H877 H 0.83616 0.50163 0.01824 0.0
C878 C 0.79456 0.42146 0.02163 0.0
C879 C 0.76805 0.38052 0.02392 0.0
C880 C 0.7799 0.4453 0.01689 0.0
C881 C 0.72757 0.36302 0.02069 0.0
C882 C 0.71339 0.38593 0.01543 0.0
C883 C 0.72328 0.45151 0.01008 0.0
C884 C 0.74647 0.49346 0.01089 0.0
C885 C 0.73892 0.42729 0.01376 0.0
C886 C 0.78776 0.51114 0.01325 0.0
C887 C 0.80466 0.48717 0.01591 0.0
H888 H 0.28259 0.71608 0.84718 0.0
H889 H 0.2671 0.77608 0.87573 0.0
H890 H 0.33438 0.83425 0.87265 0.0
H891 H 0.39963 0.86406 0.86315 0.0
H892 H 0.41736 0.80104 0.83574 0.0
H893 H 0.34631 0.74884 0.8366 0.0
C894 C 0.29402 0.74182 0.85274 0.0
C895 C 0.27066 0.74165 0.86186 0.0
C896 C 0.33269 0.77479 0.85094 0.0
C897 C 0.28513 0.77556 0.8688 0.0
C898 C 0.32336 0.80876 0.86699 0.0
C899 C 0.38767 0.83934 0.85718 0.0
C900 C 0.41377 0.8361 0.84949 0.0
C901 C 0.34768 0.80826 0.85824 0.0
C902 C 0.39788 0.80437 0.8417 0.0
C903 C 0.35742 0.77413 0.84233 0.0
H904 H 0.22975 0.65256 0.84875 0.0
H905 H 0.12738 0.53439 0.84491 0.0
H906 H 0.17007 0.50435 0.84816 0.0
H907 H 0.23497 0.51225 0.85465 0.0
H908 H 0.33122 0.63073 0.86362 0.0
H909 H 0.29238 0.66048 0.85657 0.0
C910 C 0.2172 0.62039 0.84848 0.0
C911 C 0.176 0.59582 0.84645 0.0
C912 C 0.24065 0.60358 0.85178 0.0
C913 C 0.15942 0.55391 0.84615 0.0
C914 C 0.18362 0.53682 0.84828 0.0
C915 C 0.24736 0.54457 0.85511 0.0
C916 C 0.2864 0.56935 0.85945 0.0
C917 C 0.22394 0.56137 0.85158 0.0
C918 C 0.3016 0.61104 0.86018 0.0
C919 C 0.27947 0.62813 0.85609 0.0
H920 H 0.36525 0.59519 0.84141 0.0
H921 H 0.4723 0.59629 0.85282 0.0
H922 H 0.50358 0.66801 0.85732 0.0
H923 H 0.49608 0.72762 0.86075 0.0
H924 H 0.38471 0.72235 0.85178 0.0
H925 H 0.36023 0.65629 0.84322 0.0
C926 C 0.39606 0.61162 0.84442 0.0
C927 C 0.41675 0.59078 0.84662 0.0
C928 C 0.41264 0.65206 0.84774 0.0
C929 C 0.45614 0.61202 0.85089 0.0
C930 C 0.47373 0.65283 0.85365 0.0
C931 C 0.46639 0.71176 0.85697 0.0
C932 C 0.44188 0.72937 0.85708 0.0
C933 C 0.4515 0.67265 0.85262 0.0
C934 C 0.40372 0.70894 0.85201 0.0
C935 C 0.38974 0.67121 0.8471 0.0
H936 H 0.41349 0.5887 0.97646 0.0
H937 H 0.32168 0.6182 0.96807 0.0
H938 H 0.36283 0.68534 0.97588 0.0
H939 H 0.42554 0.7363 0.98457 0.0
H940 H 0.52427 0.71438 0.98795 0.0
H941 H 0.47939 0.64278 0.98352 0.0
C942 C 0.40261 0.60992 0.97626 0.0
C943 C 0.36402 0.59799 0.97191 0.0
C944 C 0.42735 0.64936 0.98026 0.0
C945 C 0.35088 0.62623 0.97151 0.0
C946 C 0.3743 0.66461 0.97604 0.0
C947 C 0.43693 0.71568 0.98441 0.0
C948 C 0.47765 0.7302 0.98671 0.0
C949 C 0.41243 0.67638 0.98048 0.0
C950 C 0.49258 0.70345 0.98651 0.0
C951 C 0.46716 0.66285 0.98372 0.0
H952 H 0.26368 0.7923 0.97363 0.0
H953 H 0.24379 0.70843 1.00034 0.0
H954 H 0.3137 0.72387 0.99891 0.0
H955 H 0.37658 0.75274 0.98796 0.0
H956 H 0.39356 0.83059 0.9599 0.0
H957 H 0.32806 0.82501 0.96364 0.0
C958 C 0.27496 0.77808 0.97931 0.0
C959 C 0.24848 0.74881 0.98695 0.0
C960 C 0.31409 0.78482 0.97786 0.0
C961 C 0.26355 0.73116 0.99441 0.0
C962 C 0.30333 0.73942 0.99344 0.0
C963 C 0.36579 0.76829 0.98265 0.0
C964 C 0.389 0.79115 0.97348 0.0
C965 C 0.3281 0.76454 0.98481 0.0
C966 C 0.37549 0.81216 0.96684 0.0
C967 C 0.33834 0.80921 0.96904 0.0
H968 H 0.16199 0.56138 0.9744 0.0
H969 H 0.27857 0.66195 0.98254 0.0
H970 H 0.29979 0.61613 0.99004 0.0
H971 H 0.28982 0.54765 0.99087 0.0
H972 H 0.17658 0.44731 0.98033 0.0
H973 H 0.14951 0.49227 0.97713 0.0
C974 C 0.19214 0.57311 0.97774 0.0
C975 C 0.21904 0.61482 0.97768 0.0
C976 C 0.20493 0.54649 0.98146 0.0
C977 C 0.25774 0.62985 0.98222 0.0
C978 C 0.26984 0.60369 0.98653 0.0
C979 C 0.25868 0.53552 0.98834 0.0
C980 C 0.23498 0.49425 0.98597 0.0
C981 C 0.24435 0.56192 0.98576 0.0
C982 C 0.19508 0.47895 0.98237 0.0
C983 C 0.17987 0.50475 0.98035 0.0
H984 H 0.28022 0.47955 0.48059 0.0
H985 H 0.2537 0.55531 0.50142 0.0
H986 H 0.32371 0.60972 0.4999 0.0
H987 H 0.38934 0.63843 0.49027 0.0
H988 H 0.41276 0.56472 0.46775 0.0
H989 H 0.34696 0.5065 0.47221 0.0
C990 C 0.29016 0.50759 0.4851 0.0
C991 C 0.26192 0.51359 0.49105 0.0
C992 C 0.32944 0.5394 0.48352 0.0
C993 C 0.27498 0.54984 0.49689 0.0
C994 C 0.3148 0.58121 0.49582 0.0
C995 C 0.37956 0.60991 0.48616 0.0
C996 C 0.40469 0.60607 0.47828 0.0
C997 C 0.34161 0.57693 0.48868 0.0
C998 C 0.39314 0.56833 0.47359 0.0
C999 C 0.35577 0.53514 0.4762 0.0
H1000 H 0.44946 0.70011 0.48992 0.0
H1001 H 0.55416 0.81776 0.48823 0.0
H1002 H 0.51165 0.84744 0.48423 0.0
H1003 H 0.44506 0.83804 0.47873 0.0
H1004 H 0.3441 0.71729 0.47587 0.0
H1005 H 0.38443 0.69028 0.48331 0.0
C1006 C 0.46265 0.73224 0.48884 0.0
C1007 C 0.50449 0.75677 0.48952 0.0
C1008 C 0.43869 0.74814 0.48521 0.0
C1009 C 0.52176 0.79847 0.48805 0.0
C1010 C 0.49755 0.81523 0.4855 0.0
C1011 C 0.43211 0.80579 0.47969 0.0
C1012 C 0.39151 0.77975 0.4768 0.0
C1013 C 0.45613 0.79009 0.48359 0.0
C1014 C 0.37521 0.73804 0.478 0.0
C1015 C 0.39824 0.7225 0.48239 0.0
H1016 H 0.21822 0.73415 0.47986 0.0
H1017 H 0.32021 0.75848 0.50057 0.0
H1018 H 0.30716 0.68996 0.49748 0.0
H1019 H 0.27211 0.62613 0.48678 0.0
H1020 H 0.16898 0.60113 0.46656 0.0
H1021 H 0.17792 0.66741 0.47119 0.0
C1022 C 0.23696 0.72407 0.48393 0.0
C1023 C 0.27032 0.75148 0.49035 0.0
C1024 C 0.23006 0.68509 0.48181 0.0
C1025 C 0.29412 0.73795 0.49567 0.0
C1026 C 0.28708 0.69894 0.49374 0.0
C1027 C 0.25179 0.63543 0.48338 0.0
C1028 C 0.2207 0.6096 0.47607 0.0
C1029 C 0.25628 0.67292 0.48641 0.0
C1030 C 0.19361 0.62109 0.472 0.0
C1031 C 0.19854 0.65875 0.47472 0.0
H1032 H 0.29933 0.721 0.35138 0.0
H1033 H 0.22476 0.74385 0.3737 0.0
H1034 H 0.16684 0.67788 0.36904 0.0
H1035 H 0.14039 0.61114 0.36047 0.0
H1036 H 0.21676 0.58649 0.33933 0.0
H1037 H 0.27107 0.65632 0.34136 0.0
C1038 C 0.27061 0.71132 0.35532 0.0
C1039 C 0.26647 0.73634 0.3632 0.0
C1040 C 0.23781 0.67343 0.35264 0.0
C1041 C 0.22859 0.72449 0.3678 0.0
C1042 C 0.19559 0.68697 0.3651 0.0
C1043 C 0.16855 0.62148 0.35602 0.0
C1044 C 0.17469 0.59377 0.3498 0.0
C1045 C 0.20016 0.66087 0.35774 0.0
C1046 C 0.21114 0.60735 0.34405 0.0
C1047 C 0.24244 0.64708 0.34539 0.0
H1048 H 0.28613 0.59906 0.35382 0.0
H1049 H 0.25723 0.49519 0.37416 0.0
H1050 H 0.32288 0.50208 0.36991 0.0
H1051 H 0.39015 0.54077 0.36155 0.0
H1052 H 0.41867 0.64377 0.34081 0.0
H1053 H 0.35071 0.63273 0.34348 0.0
C1054 C 0.2945 0.57818 0.35734 0.0
C1055 C 0.26778 0.54746 0.36458 0.0
C1056 C 0.33166 0.58152 0.35454 0.0
C1057 C 0.27797 0.51958 0.36879 0.0
C1058 C 0.31524 0.52332 0.36628 0.0
C1059 C 0.38109 0.56014 0.35737 0.0
C1060 C 0.40948 0.5932 0.35108 0.0
C1061 C 0.34248 0.55445 0.35927 0.0
C1062 C 0.39732 0.61786 0.34561 0.0
C1063 C 0.35865 0.612 0.34731 0.0
H1064 H 0.36076 0.77647 0.3522 0.0
H1065 H 0.48017 0.87842 0.35315 0.0
H1066 H 0.50786 0.83405 0.35694 0.0
H1067 H 0.49651 0.76686 0.36251 0.0
H1068 H 0.37458 0.66833 0.36568 0.0
H1069 H 0.34904 0.71038 0.35848 0.0
C1070 C 0.39278 0.78854 0.35302 0.0
C1071 C 0.41837 0.83019 0.35221 0.0
C1072 C 0.4077 0.76351 0.35646 0.0
C1073 C 0.46001 0.84617 0.35342 0.0
C1074 C 0.47567 0.8209 0.35585 0.0
C1075 C 0.46434 0.75476 0.36166 0.0
C1076 C 0.43752 0.71443 0.36463 0.0
C1077 C 0.44959 0.77971 0.35785 0.0
C1078 C 0.39593 0.69925 0.36354 0.0
C1079 C 0.38123 0.72324 0.35928 0.0
H1080 H 0.15572 0.20871 0.26594 0.0
H1081 H 0.27534 0.23234 0.2733 0.0
H1082 H 0.28995 0.23502 0.25316 0.0
H1083 H 0.26262 0.21504 0.23376 0.0
H1084 H 0.14086 0.18725 0.22718 0.0
H1085 H 0.13316 0.20203 0.24652 0.0
C1086 C 0.18564 0.21654 0.26309 0.0
C1087 C 0.2145 0.22063 0.271 0.0
C1088 C 0.19292 0.21588 0.25158 0.0
C1089 C 0.25294 0.22987 0.2673 0.0
C1090 C 0.26097 0.23056 0.25579 0.0
C1091 C 0.23489 0.21331 0.23654 0.0
C1092 C 0.20197 0.19895 0.22914 0.0
C1093 C 0.23032 0.22117 0.24787 0.0
C1094 C 0.16622 0.197 0.23278 0.0
C1095 C 0.16182 0.20572 0.24386 0.0
H1096 H 0.76703 0.93236 0.2373 0.0
H1097 H 0.8125 0.05705 0.22892 0.0
H1098 H 0.81378 0.07339 0.24888 0.0
H1099 H 0.81389 0.05383 0.26859 0.0
H1100 H 0.76848 0.92924 0.277 0.0
H1101 H 0.75443 0.91075 0.25709 0.0
C1102 C 0.77609 0.96289 0.23986 0.0
C1103 C 0.79018 0.99365 0.23174 0.0
C1104 C 0.77713 0.97197 0.25131 0.0
C1105 C 0.80149 0.03299 0.23505 0.0
C1106 C 0.80258 0.04234 0.24645 0.0
C1107 C 0.79973 0.02249 0.26605 0.0
C1108 C 0.79246 0.99284 0.27412 0.0
C1109 C 0.79223 0.01236 0.25464 0.0
C1110 C 0.77406 0.95236 0.27088 0.0
C1111 C 0.76644 0.94194 0.25951 0.0
H1112 H 0.93147 0.75534 0.26356 0.0
H1113 H 0.05596 0.81451 0.27376 0.0
H1114 H 0.0766 0.81788 0.25414 0.0
H1115 H 0.05938 0.81448 0.23408 0.0
H1116 H 0.93501 0.75466 0.22384 0.0
H1117 H 0.91386 0.74019 0.24353 0.0
C1118 C 0.96306 0.76806 0.26148 0.0
C1119 C 0.99228 0.78525 0.27002 0.0
C1120 C 0.97458 0.77001 0.25021 0.0
C1121 C 0.03302 0.80115 0.26731 0.0
C1122 C 0.0448 0.80335 0.2561 0.0
C1123 C 0.02765 0.79722 0.23618 0.0
C1124 C 0.99868 0.78594 0.22762 0.0
C1125 C 0.01591 0.78942 0.24747 0.0
C1126 C 0.95771 0.76342 0.23033 0.0
C1127 C 0.94569 0.75556 0.24158 0.0
H1128 H 0.75258 0.78915 0.73469 0.0
H1129 H 0.8355 0.74892 0.72579 0.0
H1130 H 0.84233 0.73618 0.74562 0.0
H1131 H 0.83621 0.7513 0.76534 0.0
H1132 H 0.75542 0.79435 0.77429 0.0
H1133 H 0.7354 0.79052 0.75457 0.0
C1134 C 0.77058 0.77574 0.7371 0.0
C1135 C 0.79339 0.76969 0.7289 0.0
C1136 C 0.7754 0.77003 0.74851 0.0
C1137 C 0.81724 0.75308 0.732 0.0
C1138 C 0.8216 0.74647 0.74334 0.0
C1139 C 0.8134 0.7588 0.76299 0.0
C1140 C 0.79785 0.77389 0.77116 0.0
C1141 C 0.80264 0.7571 0.75166 0.0
C1142 C 0.76788 0.78287 0.76812 0.0
C1143 C 0.75668 0.78093 0.75684 0.0
H1144 H 0.18891 0.95656 0.76791 0.0
H1145 H 0.24948 0.08462 0.76251 0.0
H1146 H 0.25247 0.07485 0.74232 0.0
H1147 H 0.22634 0.02945 0.72602 0.0
H1148 H 0.15973 0.90127 0.73141 0.0
H1149 H 0.17114 0.91117 0.75163 0.0
C1150 C 0.20399 0.9822 0.76232 0.0
C1151 C 0.21898 0.02115 0.76659 0.0
C1152 C 0.20391 0.97623 0.75066 0.0
C1153 C 0.23779 0.05432 0.75931 0.0
C1154 C 0.23928 0.04875 0.74778 0.0
C1155 C 0.21559 0.00379 0.73161 0.0
C1156 C 0.19209 0.96479 0.7273 0.0
C1157 C 0.22076 0.00979 0.74329 0.0
C1158 C 0.17774 0.93165 0.73461 0.0
C1159 C 0.18407 0.93727 0.74617 0.0
H1160 H 0.96184 0.20018 0.72884 0.0
H1161 H 0.09092 0.26428 0.73187 0.0
H1162 H 0.08592 0.27088 0.75212 0.0
H1163 H 0.04472 0.24379 0.76921 0.0
H1164 H 0.91571 0.17531 0.76616 0.0
H1165 H 0.92046 0.18574 0.74587 0.0
C1166 C 0.98873 0.21723 0.73389 0.0
C1167 C 0.02662 0.23162 0.72894 0.0
C1168 C 0.98556 0.21936 0.74563 0.0
C1169 C 0.0614 0.25302 0.73556 0.0
C1170 C 0.05855 0.25644 0.74716 0.0
C1171 C 0.01775 0.23284 0.76413 0.0
C1172 C 0.98 0.20877 0.7691 0.0
C1173 C 0.0208 0.2376 0.75237 0.0
C1174 C 0.94513 0.19399 0.76245 0.0
C1175 C 0.94782 0.19963 0.75083 0.0
H1176 H 0.84275 0.57736 0.57145 0.0
H1177 H 0.91731 0.52838 0.56122 0.0
H1178 H 0.93315 0.52364 0.58092 0.0
H1179 H 0.91545 0.52213 0.60088 0.0
H1180 H 0.8414 0.57171 0.61112 0.0
H1181 H 0.83631 0.58857 0.59155 0.0
C1182 C 0.86338 0.56673 0.57357 0.0
C1183 C 0.87852 0.55271 0.56501 0.0
C1184 C 0.87207 0.56397 0.58487 0.0
C1185 C 0.90545 0.53934 0.56772 0.0
C1186 C 0.91419 0.53634 0.57897 0.0
C1187 C 0.89928 0.5378 0.59883 0.0
C1188 C 0.87843 0.54535 0.60732 0.0
C1189 C 0.89621 0.54692 0.5876 0.0
C1190 C 0.85776 0.56582 0.60468 0.0
C1191 C 0.85452 0.57503 0.5935 0.0
H1192 H 0.52355 0.38417 0.57005 0.0
H1193 H 0.39901 0.30214 0.56254 0.0
H1194 H 0.3832 0.293 0.58267 0.0
H1195 H 0.40847 0.29738 0.60222 0.0
H1196 H 0.5344 0.37736 0.60902 0.0
H1197 H 0.54605 0.39868 0.58951 0.0
C1198 C 0.49265 0.36583 0.57285 0.0
C1199 C 0.46246 0.34401 0.56492 0.0
C1200 C 0.48431 0.35948 0.58436 0.0
C1201 C 0.42259 0.31974 0.56855 0.0
C1202 C 0.41373 0.31396 0.58006 0.0
C1203 C 0.4381 0.32029 0.59944 0.0
C1204 C 0.47074 0.33507 0.60695 0.0
C1205 C 0.44482 0.33194 0.58804 0.0
C1206 C 0.50903 0.3648 0.60332 0.0
C1207 C 0.51573 0.37716 0.59216 0.0
H1208 H 0.63982 0.11428 0.56679 0.0
H1209 H 0.76846 0.18692 0.57043 0.0
H1210 H 0.7628 0.17642 0.59071 0.0
H1211 H 0.72036 0.15634 0.60769 0.0
H1212 H 0.59145 0.08836 0.60405 0.0
H1213 H 0.59794 0.08653 0.5837 0.0
C1214 C 0.66658 0.12664 0.57201 0.0
C1215 C 0.70439 0.15147 0.56717 0.0
C1216 C 0.66298 0.12177 0.58376 0.0
C1217 C 0.73892 0.16786 0.57402 0.0
C1218 C 0.73573 0.16203 0.58563 0.0
C1219 C 0.69389 0.14011 0.60244 0.0
C1220 C 0.65556 0.12271 0.6073 0.0
C1221 C 0.6978 0.1405 0.59066 0.0
C1222 C 0.62132 0.10219 0.60043 0.0
C1223 C 0.62497 0.10125 0.58879 0.0
H1224 H 0.40258 0.11362 0.0712 0.0
H1225 H 0.47968 0.06826 0.06049 0.0
H1226 H 0.4873 0.05288 0.08001 0.0
H1227 H 0.48526 0.06849 0.09999 0.0
H1228 H 0.41032 0.1165 0.11066 0.0
H1229 H 0.38744 0.11368 0.0913 0.0
C1230 C 0.41961 0.09874 0.07314 0.0
C1231 C 0.4409 0.09234 0.06453 0.0
C1232 C 0.42466 0.09115 0.08437 0.0
C1233 C 0.46292 0.07316 0.06701 0.0
C1234 C 0.46765 0.0649 0.07818 0.0
C1235 C 0.46265 0.07676 0.09811 0.0
C1236 C 0.44983 0.09321 0.10664 0.0
C1237 C 0.45064 0.07609 0.08694 0.0
C1238 C 0.42045 0.10367 0.10421 0.0
C1239 C 0.40781 0.10253 0.09312 0.0
H1240 H 0.8574 0.28929 0.06909 0.0
H1241 H 0.90305 0.41167 0.05828 0.0
H1242 H 0.92303 0.4354 0.07764 0.0
H1243 H 0.91576 0.41935 0.09785 0.0
H1244 H 0.86982 0.29667 0.10859 0.0
H1245 H 0.86247 0.27485 0.08898 0.0
C1246 C 0.87298 0.32127 0.07096 0.0
C1247 C 0.87868 0.34884 0.0624 0.0
C1248 C 0.88376 0.3344 0.08207 0.0
C1249 C 0.89874 0.39013 0.06479 0.0
C1250 C 0.90971 0.40355 0.07585 0.0
C1251 C 0.90512 0.388 0.09587 0.0
C1252 C 0.89266 0.35948 0.1046 0.0
C1253 C 0.90064 0.37572 0.08461 0.0
C1254 C 0.8795 0.31909 0.102 0.0
C1255 C 0.87499 0.30659 0.0908 0.0
H1256 H 0.65108 0.5536 0.10176 0.0
H1257 H 0.73037 0.50642 0.10793 0.0
H1258 H 0.73453 0.49682 0.08785 0.0
H1259 H 0.71225 0.49719 0.06902 0.0
H1260 H 0.63326 0.54436 0.06188 0.0
H1261 H 0.63217 0.55867 0.08198 0.0
C1262 C 0.6708 0.54319 0.09859 0.0
C1263 C 0.69188 0.53234 0.1062 0.0
C1264 C 0.67216 0.53675 0.08698 0.0
C1265 C 0.7155 0.51664 0.10215 0.0
C1266 C 0.71717 0.51038 0.09071 0.0
C1267 C 0.69466 0.51067 0.07174 0.0
C1268 C 0.67251 0.51931 0.0639 0.0
C1269 C 0.69495 0.51949 0.08312 0.0
C1270 C 0.65029 0.53705 0.06772 0.0
C1271 C 0.64991 0.54547 0.0792 0.0
H1272 H 0.57257 0.83865 0.93456 0.0
H1273 H 0.51582 0.90761 0.94324 0.0
H1274 H 0.51387 0.9232 0.92336 0.0
H1275 H 0.51567 0.90499 0.90359 0.0
H1276 H 0.57164 0.83532 0.89489 0.0
H1277 H 0.58728 0.83252 0.91475 0.0
C1278 C 0.56121 0.85837 0.93209 0.0
C1279 C 0.54408 0.87182 0.94025 0.0
C1280 C 0.55944 0.86632 0.92067 0.0
C1281 C 0.5294 0.89728 0.93707 0.0
C1282 C 0.52782 0.90568 0.92571 0.0
C1283 C 0.53238 0.89026 0.90605 0.0
C1284 C 0.54214 0.86992 0.89792 0.0
C1285 C 0.54081 0.88856 0.91744 0.0
C1286 C 0.56397 0.85115 0.90106 0.0
C1287 C 0.57258 0.84933 0.9124 0.0
H1288 H 0.14321 0.72109 0.93359 0.0
H1289 H 0.09245 0.59493 0.94092 0.0
H1290 H 0.07811 0.57882 0.9209 0.0
H1291 H 0.09216 0.60243 0.90129 0.0
H1292 H 0.14338 0.7287 0.89397 0.0
H1293 H 0.1446 0.74325 0.91408 0.0
C1294 C 0.12782 0.68999 0.9308 0.0
C1295 C 0.1191 0.65914 0.93859 0.0
C1296 C 0.12022 0.68122 0.91932 0.0
C1297 C 0.09916 0.61897 0.93502 0.0
C1298 C 0.09136 0.60989 0.92358 0.0
C1299 C 0.10236 0.63295 0.90411 0.0
C1300 C 0.11807 0.6646 0.89626 0.0
C1301 C 0.10348 0.64097 0.91564 0.0
C1302 C 0.13102 0.70397 0.8999 0.0
C1303 C 0.13211 0.71227 0.91139 0.0
H1304 H 0.38187 0.47997 0.9001 0.0
H1305 H 0.25804 0.4272 0.88973 0.0
H1306 H 0.23621 0.41059 0.90931 0.0
H1307 H 0.25365 0.42237 0.92942 0.0
H1308 H 0.37756 0.47506 0.93977 0.0
H1309 H 0.39829 0.47984 0.9201 0.0
C1310 C 0.35005 0.46376 0.90213 0.0
C1311 C 0.32151 0.45516 0.89358 0.0
C1312 C 0.33794 0.45484 0.91337 0.0
C1313 C 0.28041 0.43393 0.8962 0.0
C1314 C 0.26802 0.42485 0.9074 0.0
C1315 C 0.28509 0.43395 0.92735 0.0
C1316 C 0.3142 0.44897 0.93596 0.0
C1317 C 0.29667 0.43684 0.91606 0.0
C1318 C 0.35472 0.46339 0.93327 0.0
C1319 C 0.36655 0.46641 0.92203 0.0
H1320 H 0.1053 0.47766 0.44002 0.0
H1321 H 0.18515 0.42975 0.4365 0.0
H1322 H 0.17326 0.42247 0.41628 0.0
H1323 H 0.15077 0.44214 0.39933 0.0
H1324 H 0.07672 0.49659 0.40267 0.0
H1325 H 0.07467 0.4881 0.42306 0.0
C1326 C 0.11896 0.46447 0.43484 0.0
C1327 C 0.14625 0.45458 0.43965 0.0
C1328 C 0.11327 0.46191 0.42312 0.0
C1329 C 0.16426 0.4379 0.43289 0.0
C1330 C 0.15757 0.43382 0.42133 0.0
C1331 C 0.1329 0.45053 0.40453 0.0
C1332 C 0.11374 0.46966 0.39961 0.0
C1333 C 0.13364 0.44747 0.41628 0.0
C1334 C 0.09143 0.48149 0.40637 0.0
C1335 C 0.09059 0.47701 0.41802 0.0
H1336 H 0.51126 0.60288 0.40553 0.0
H1337 H 0.57673 0.72809 0.39614 0.0
H1338 H 0.59493 0.74717 0.41585 0.0
H1339 H 0.58088 0.72835 0.43581 0.0
H1340 H 0.51549 0.60322 0.44521 0.0
H1341 H 0.5092 0.58358 0.42538 0.0
C1342 C 0.53047 0.63426 0.4078 0.0
C1343 C 0.54223 0.66419 0.3995 0.0
C1344 C 0.54045 0.64485 0.41911 0.0
C1345 C 0.56742 0.70467 0.40242 0.0
C1346 C 0.5775 0.71553 0.41368 0.0
C1347 C 0.56655 0.6968 0.43349 0.0
C1348 C 0.54844 0.66715 0.44185 0.0
C1349 C 0.56262 0.68595 0.42212 0.0
C1350 C 0.52987 0.62639 0.43887 0.0
C1351 C 0.52589 0.61526 0.42754 0.0
H1352 H 0.28103 0.86078 0.43747 0.0
H1353 H 0.40732 0.91637 0.44534 0.0
H1354 H 0.42392 0.92973 0.42534 0.0
H1355 H 0.40122 0.91289 0.40569 0.0
H1356 H 0.27493 0.85684 0.39781 0.0
H1357 H 0.2593 0.85689 0.41779 0.0
C1358 C 0.31224 0.87709 0.4348 0.0
C1359 C 0.34299 0.88731 0.44278 0.0
C1360 C 0.32134 0.88396 0.42332 0.0
C1361 C 0.38329 0.90849 0.43933 0.0
C1362 C 0.39268 0.91566 0.4279 0.0
C1363 C 0.37042 0.90195 0.40835 0.0
C1364 C 0.33913 0.88456 0.4004 0.0
C1365 C 0.36182 0.9017 0.41982 0.0
C1366 C 0.29937 0.87051 0.40383 0.0
C1367 C 0.29049 0.8702 0.41524 0.0
H1368 H 0.32371 0.19627 0.1842 0.0
H1369 H 0.24229 0.11817 0.15861 0.0
H1370 H 0.29434 0.10532 0.15141 0.0
H1371 H 0.3634 0.11664 0.15223 0.0
H1372 H 0.44474 0.19524 0.17777 0.0
H1373 H 0.39233 0.20713 0.18513 0.0
C1374 C 0.31735 0.17652 0.17703 0.0
C1375 C 0.27911 0.15837 0.17195 0.0
C1376 C 0.34741 0.16911 0.17293 0.0
C1377 C 0.27144 0.1327 0.16268 0.0
C1378 C 0.3012 0.12522 0.15856 0.0
C1379 C 0.36956 0.13612 0.15946 0.0
C1380 C 0.408 0.15493 0.16443 0.0
C1381 C 0.33931 0.14323 0.16361 0.0
C1382 C 0.41548 0.18033 0.17375 0.0
C1383 C 0.38552 0.18726 0.17797 0.0
H1384 H 0.86853 0.12399 0.16334 0.0
H1385 H 0.77829 0.10082 0.18843 0.0
H1386 H 0.77803 0.16206 0.18293 0.0
H1387 H 0.80418 0.22276 0.17119 0.0
H1388 H 0.89476 0.24588 0.14621 0.0
H1389 H 0.89397 0.18402 0.15147 0.0
C1390 C 0.84871 0.13222 0.16761 0.0
C1391 C 0.82351 0.10778 0.1763 0.0
C1392 C 0.84878 0.16753 0.16443 0.0
C1393 C 0.79804 0.11903 0.18172 0.0
C1394 C 0.79787 0.15408 0.17858 0.0
C1395 C 0.82371 0.21427 0.16688 0.0
C1396 C 0.84957 0.23909 0.15833 0.0
C1397 C 0.82323 0.17865 0.16997 0.0
C1398 C 0.8746 0.22747 0.15283 0.0
C1399 C 0.87419 0.19207 0.15584 0.0
H1400 H 0.89243 0.73826 0.16983 0.0
H1401 H 0.87832 0.6398 0.1906 0.0
H1402 H 0.81345 0.59519 0.18171 0.0
H1403 H 0.76149 0.58382 0.16774 0.0
H1404 H 0.77581 0.68271 0.1471 0.0
H1405 H 0.83968 0.7275 0.15634 0.0
C1406 C 0.87527 0.70702 0.17241 0.0
C1407 C 0.89044 0.69236 0.18083 0.0
C1408 C 0.8379 0.68163 0.16732 0.0
C1409 C 0.86748 0.65188 0.18413 0.0
C1410 C 0.83034 0.62634 0.17905 0.0
C1411 C 0.77839 0.61524 0.16531 0.0
C1412 C 0.76378 0.62976 0.15669 0.0
C1413 C 0.81532 0.64086 0.17061 0.0
C1414 C 0.78622 0.6706 0.15367 0.0
C1415 C 0.82287 0.69627 0.15894 0.0
H1416 H 0.20595 0.42061 0.33452 0.0
H1417 H 0.10291 0.34877 0.35558 0.0
H1418 H 0.10538 0.28834 0.35048 0.0
H1419 H 0.13592 0.25571 0.33979 0.0
H1420 H 0.2386 0.32744 0.3186 0.0
H1421 H 0.23727 0.38814 0.32409 0.0
C1422 C 0.18397 0.39176 0.338 0.0
C1423 C 0.15415 0.3893 0.34539 0.0
C1424 C 0.18558 0.35711 0.33504 0.0
C1425 C 0.1261 0.35161 0.34985 0.0
C1426 C 0.12752 0.317 0.34695 0.0
C1427 C 0.15823 0.28463 0.33642 0.0
C1428 C 0.18734 0.28692 0.32878 0.0
C1429 C 0.15705 0.31938 0.33953 0.0
C1430 C 0.21587 0.32472 0.32449 0.0
C1431 C 0.21506 0.35947 0.32761 0.0
H1432 H 0.61805 0.79415 0.3555 0.0
H1433 H 0.62621 0.73574 0.32541 0.0
H1434 H 0.6762 0.80071 0.31772 0.0
H1435 H 0.71715 0.87416 0.31941 0.0
H1436 H 0.7091 0.93271 0.34949 0.0
H1437 H 0.65937 0.86768 0.35724 0.0
C1438 C 0.6309 0.79557 0.34728 0.0
C1439 C 0.61836 0.76003 0.34105 0.0
C1440 C 0.65949 0.83312 0.34286 0.0
C1441 C 0.63523 0.76255 0.33039 0.0
C1442 C 0.66381 0.79973 0.32597 0.0
C1443 C 0.70443 0.87276 0.32765 0.0
C1444 C 0.71682 0.90835 0.33384 0.0
C1445 C 0.67601 0.83523 0.3321 0.0
C1446 C 0.70016 0.90585 0.34453 0.0
C1447 C 0.67172 0.86864 0.34898 0.0
H1448 H 0.12741 0.88251 0.33673 0.0
H1449 H 0.10535 0.79065 0.31222 0.0
H1450 H 0.16744 0.79241 0.31775 0.0
H1451 H 0.22705 0.81857 0.32983 0.0
H1452 H 0.24907 0.90979 0.35453 0.0
H1453 H 0.18806 0.90977 0.34859 0.0
C1454 C 0.1362 0.86293 0.33257 0.0
C1455 C 0.11154 0.83638 0.32409 0.0
C1456 C 0.17196 0.86394 0.33583 0.0
C1457 C 0.12357 0.81132 0.31879 0.0
C1458 C 0.15913 0.81229 0.32195 0.0
C1459 C 0.2187 0.83864 0.33389 0.0
C1460 C 0.2427 0.86411 0.34263 0.0
C1461 C 0.18342 0.83828 0.3305 0.0
C1462 C 0.23123 0.88984 0.34779 0.0
C1463 C 0.19627 0.88981 0.34441 0.0
H1464 H 0.75411 0.87374 0.83641 0.0
H1465 H 0.68787 0.77598 0.81315 0.0
H1466 H 0.6255 0.77441 0.81828 0.0
H1467 H 0.58954 0.80028 0.82949 0.0
H1468 H 0.65581 0.89763 0.85287 0.0
H1469 H 0.71826 0.89981 0.84754 0.0
C1470 C 0.72606 0.85208 0.83245 0.0
C1471 C 0.72578 0.82499 0.82442 0.0
C1472 C 0.69022 0.85124 0.83545 0.0
C1473 C 0.68906 0.79717 0.81937 0.0
C1474 C 0.65332 0.79624 0.8223 0.0
C1475 C 0.61763 0.82206 0.83341 0.0
C1476 C 0.61786 0.84875 0.84157 0.0
C1477 C 0.65352 0.82307 0.83034 0.0
C1478 C 0.65463 0.87669 0.84657 0.0
C1479 C 0.69043 0.87798 0.84353 0.0
H1480 H 0.20176 0.79344 0.82839 0.0
H1481 H 0.10599 0.77056 0.85151 0.0
H1482 H 0.10987 0.83378 0.84602 0.0
H1483 H 0.14046 0.89552 0.83471 0.0
H1484 H 0.23619 0.91837 0.81158 0.0
H1485 H 0.23236 0.85518 0.81708 0.0
C1486 C 0.18162 0.80216 0.83222 0.0
C1487 C 0.15356 0.77715 0.84034 0.0
C1488 C 0.18411 0.83863 0.82906 0.0
C1489 C 0.12783 0.78912 0.84523 0.0
C1490 C 0.13007 0.82533 0.84211 0.0
C1491 C 0.16062 0.88681 0.83089 0.0
C1492 C 0.18865 0.91179 0.82275 0.0
C1493 C 0.15814 0.85034 0.83405 0.0
C1494 C 0.21437 0.89982 0.81786 0.0
C1495 C 0.21216 0.86364 0.821 0.0
H1496 H 0.20799 0.36321 0.84925 0.0
H1497 H 0.21914 0.43791 0.82083 0.0
H1498 H 0.15504 0.38497 0.81339 0.0
H1499 H 0.09611 0.31654 0.81472 0.0
H1500 H 0.08544 0.24231 0.84324 0.0
H1501 H 0.14854 0.29587 0.85084 0.0
C1502 C 0.19644 0.36795 0.84143 0.0
C1503 C 0.21859 0.40452 0.8356 0.0
C1504 C 0.1594 0.33738 0.83719 0.0
C1505 C 0.20288 0.41011 0.82551 0.0
C1506 C 0.16613 0.3798 0.82123 0.0
C1507 C 0.10745 0.3122 0.82263 0.0
C1508 C 0.08593 0.27529 0.82835 0.0
C1509 C 0.14414 0.34321 0.82698 0.0
C1510 C 0.10126 0.27026 0.8386 0.0
C1511 C 0.13749 0.30092 0.84297 0.0
H1512 H 0.80065 0.62481 0.63952 0.0
H1513 H 0.84906 0.60361 0.66985 0.0
H1514 H 0.83671 0.65166 0.67997 0.0
H1515 H 0.81328 0.70056 0.68021 0.0
H1516 H 0.7675 0.72422 0.64977 0.0
H1517 H 0.77744 0.6742 0.63974 0.0
C1518 C 0.80847 0.63067 0.64834 0.0
C1519 C 0.8258 0.61059 0.65389 0.0
C1520 C 0.80163 0.65871 0.65412 0.0
C1521 C 0.83588 0.61872 0.66533 0.0
C1522 C 0.82871 0.64614 0.67116 0.0
C1523 C 0.80509 0.69452 0.67141 0.0
C1524 C 0.78943 0.71595 0.66577 0.0
C1525 C 0.81167 0.66635 0.66564 0.0
C1526 C 0.77954 0.70811 0.65432 0.0
C1527 C 0.78529 0.67956 0.64857 0.0
H1528 H 0.35995 0.20537 0.6493 0.0
H1529 H 0.39105 0.24696 0.68349 0.0
H1530 H 0.34084 0.18048 0.69042 0.0
H1531 H 0.2895 0.10966 0.68672 0.0
H1532 H 0.26092 0.06844 0.65238 0.0
H1533 H 0.3089 0.13542 0.64561 0.0
C1534 C 0.35544 0.20009 0.65827 0.0
C1535 C 0.37908 0.23117 0.66586 0.0
C1536 C 0.32725 0.16162 0.66219 0.0
C1537 C 0.37319 0.22357 0.67746 0.0
C1538 C 0.34458 0.18551 0.68143 0.0
C1539 C 0.29384 0.11532 0.67776 0.0
C1540 C 0.27161 0.08389 0.67009 0.0
C1541 C 0.32174 0.15412 0.67387 0.0
C1542 C 0.2776 0.09189 0.65851 0.0
C1543 C 0.30501 0.1303 0.6546 0.0
H1544 H 0.78436 0.13174 0.65151 0.0
H1545 H 0.78272 0.21125 0.67692 0.0
H1546 H 0.84771 0.22404 0.68397 0.0
H1547 H 0.90469 0.21161 0.68326 0.0
H1548 H 0.90598 0.13165 0.65794 0.0
H1549 H 0.84194 0.1204 0.65056 0.0
C1550 C 0.79824 0.15192 0.65857 0.0
C1551 C 0.77846 0.17031 0.66368 0.0
C1552 C 0.83575 0.15917 0.66264 0.0
C1553 C 0.79705 0.19648 0.67282 0.0
C1554 C 0.83434 0.2039 0.67688 0.0
C1555 C 0.89109 0.19192 0.67609 0.0
C1556 C 0.91023 0.17252 0.6712 0.0
C1557 C 0.85392 0.18527 0.6719 0.0
C1558 C 0.892 0.14699 0.66192 0.0
C1559 C 0.85526 0.14045 0.65767 0.0
H1560 H 0.08946 0.54223 0.50539 0.0
H1561 H 0.01965 0.44645 0.48188 0.0
H1562 H 0.95969 0.45044 0.4865 0.0
H1563 H 0.92703 0.48078 0.49728 0.0
H1564 H 0.99698 0.57645 0.52081 0.0
H1565 H 0.05699 0.57288 0.51605 0.0
C1566 C 0.06114 0.52213 0.50128 0.0
C1567 C 0.0591 0.494 0.49332 0.0
C1568 C 0.02682 0.52464 0.50394 0.0
C1569 C 0.02212 0.46835 0.48805 0.0
C1570 C 0.9878 0.47063 0.49068 0.0
C1571 C 0.95541 0.501 0.50134 0.0
C1572 C 0.95743 0.52888 0.50939 0.0
C1573 C 0.98981 0.49866 0.49861 0.0
C1574 C 0.9945 0.55472 0.51458 0.0
C1575 C 0.02886 0.55266 0.51188 0.0
H1576 H 0.46948 0.44619 0.51992 0.0
H1577 H 0.524 0.42962 0.4902 0.0
H1578 H 0.54055 0.49621 0.48348 0.0
H1579 H 0.54058 0.55978 0.48613 0.0
H1580 H 0.4862 0.57636 0.51588 0.0
H1581 H 0.46901 0.5095 0.5225 0.0
C1582 C 0.48464 0.45697 0.51192 0.0
C1583 C 0.49536 0.43283 0.50558 0.0
C1584 C 0.49455 0.49558 0.50815 0.0
C1585 C 0.51533 0.4475 0.49527 0.0
C1586 C 0.52496 0.48569 0.49142 0.0
C1587 C 0.52522 0.54889 0.4941 0.0
C1588 C 0.51489 0.57321 0.50051 0.0
C1589 C 0.51505 0.51016 0.49783 0.0
C1590 C 0.49463 0.55839 0.51077 0.0
C1591 C 0.48464 0.52005 0.51456 0.0
H1592 H 0.55362 0.05518 0.52466 0.0
H1593 H 0.6118 0.05463 0.49368 0.0
H1594 H 0.54729 0.0047 0.48579 0.0
H1595 H 0.47408 0.96147 0.4875 0.0
H1596 H 0.41558 0.96135 0.51847 0.0
H1597 H 0.48019 0.01117 0.52645 0.0
C1598 C 0.55223 0.04397 0.51621 0.0
C1599 C 0.58767 0.05876 0.5098 0.0
C1600 C 0.51482 0.01522 0.51165 0.0
C1601 C 0.58514 0.04391 0.49883 0.0
C1602 C 0.54817 0.01534 0.49428 0.0
C1603 C 0.4754 0.97245 0.49598 0.0
C1604 C 0.43989 0.9577 0.50234 0.0
C1605 C 0.51277 0.00093 0.50058 0.0
C1606 C 0.44235 0.97212 0.51335 0.0
C1607 C 0.47936 0.00063 0.51795 0.0
H1608 H 0.46405 0.04191 1.00045 0.0
H1609 H 0.51427 0.02227 0.03064 0.0
H1610 H 0.53063 0.97711 0.02048 0.0
H1611 H 0.53022 0.94252 0.00306 0.0
H1612 H 0.48018 0.96223 0.97284 0.0
H1613 H 0.46471 0.0082 0.98293 0.0
C1614 C 0.47839 0.02761 0.00482 0.0
C1615 C 0.4877 0.03539 0.01631 0.0
C1616 C 0.48809 0.00184 0.99889 0.0
C1617 C 0.50665 0.01683 0.02181 0.0
C1618 C 0.51613 0.99101 0.01599 0.0
C1619 C 0.51625 0.95712 0.99865 0.0
C1620 C 0.50644 0.94886 0.9872 0.0
C1621 C 0.50705 0.98332 0.00453 0.0
C1622 C 0.48812 0.96797 0.98165 0.0
C1623 C 0.47911 0.99421 0.98743 0.0
H1624 H 0.96974 0.43562 0.01619 0.0
H1625 H 0.89221 0.43155 0.9893 0.0
H1626 H 0.94565 0.49585 0.98217 0.0
H1627 H 0.01423 0.55378 0.98369 0.0
H1628 H 0.09142 0.55776 0.01068 0.0
H1629 H 0.03826 0.49317 0.01764 0.0
C1630 C 0.96455 0.44866 0.00874 0.0
C1631 C 0.92698 0.42867 0.00329 0.0
C1632 C 0.99532 0.48582 0.00472 0.0
C1633 C 0.92082 0.44619 0.99366 0.0
C1634 C 0.95136 0.48305 0.98959 0.0
C1635 C 0.01941 0.54058 0.99111 0.0
C1636 C 0.05679 0.56075 0.99666 0.0
C1637 C 0.98868 0.50325 0.99508 0.0
C1638 C 0.06297 0.54304 0.00624 0.0
C1639 C 0.03257 0.506 0.01023 0.0
H1640 H 0.44234 0.52857 0.00479 0.0
H1641 H 0.42391 0.44687 0.97749 0.0
H1642 H 0.48631 0.44815 0.98233 0.0
H1643 H 0.54571 0.47173 0.99434 0.0
H1644 H 0.56427 0.55269 0.02183 0.0
H1645 H 0.50226 0.55241 0.01686 0.0
C1646 C 0.45196 0.51106 0.99988 0.0
C1647 C 0.4283 0.48761 0.99079 0.0
C1648 C 0.48793 0.51177 0.00274 0.0
C1649 C 0.44135 0.46513 0.98454 0.0
C1650 C 0.4771 0.46584 0.9873 0.0
C1651 C 0.53634 0.48945 0.99925 0.0
C1652 C 0.55974 0.51224 0.00845 0.0
C1653 C 0.50057 0.48897 0.99639 0.0
C1654 C 0.54691 0.53487 0.01471 0.0
C1655 C 0.51141 0.53471 0.01187 0.0
loop_
_geom_bond_atom_site_label_1
_geom_bond_atom_site_label_2
_geom_bond_distance
_geom_bond_site_symmetry_2
_ccdc_geom_bond_type
Mg0 O1 2.028 . S
Mg0 O7 1.986 . S
Mg0 O9 2.114 . S
Mg0 O10 2.251 . S
Mg0 O13 2.010 . S
O1 Mg0 2.028 . S
O1 C4 1.250 . S
O2 Mg3 2.028 . S
O2 C4 1.248 . S
Mg3 O2 2.028 . S
Mg3 O8 2.032 . S
Mg3 O10 2.079 . S
C4 O1 1.250 . S
C4 O2 1.248 . S
C5 O6 1.264 . S
C5 O13 1.249 . S
O6 C5 1.264 . S
O7 Mg0 1.986 . S
O7 C11 1.246 . S
O8 Mg3 2.032 . S
O8 C11 1.259 . S
O9 Mg0 2.114 . S
O9 C12 1.252 . S
O10 Mg0 2.251 . S
O10 Mg3 2.079 . S
O10 C12 1.273 . S
C11 O7 1.246 . S
C11 O8 1.259 . S
C12 O9 1.252 . S
C12 O10 1.273 . S
O13 Mg0 2.010 . S
O13 C5 1.249 . S
Mg14 O15 2.020 1_565 S
Mg14 O21 1.977 1_565 S
Mg14 O23 2.133 . S
Mg14 O24 2.279 . S
Mg14 O27 1.987 1_565 S
O15 Mg14 2.020 1_545 S
O15 C18 1.250 . S
O16 Mg17 2.028 1_545 S
O16 C18 1.248 . S
Mg17 O16 2.028 1_565 S
Mg17 O22 2.032 . S
Mg17 O24 2.079 . S
C18 O15 1.250 . S
C18 O16 1.248 . S
C19 O20 1.264 . S
C19 O27 1.249 . S
O20 C19 1.264 . S
O21 Mg14 1.977 1_545 S
O21 C25 1.246 . S
O22 Mg17 2.032 . S
O22 C25 1.259 1_565 S
O23 Mg14 2.133 . S
O23 C26 1.252 . S
O24 Mg14 2.279 . S
O24 Mg17 2.079 . S
O24 C26 1.273 . S
C25 O21 1.246 . S
C25 O22 1.259 1_545 S
C26 O23 1.252 . S
C26 O24 1.273 . S
O27 Mg14 1.987 1_545 S
O27 C19 1.249 . S
Mg28 O29 2.002 1_455 S
Mg28 O35 1.984 1_455 S
Mg28 O37 2.122 . S
Mg28 O38 2.259 . S
Mg28 O41 2.009 1_455 S
O29 Mg28 2.002 1_655 S
O29 C32 1.250 . S
O30 Mg31 2.028 1_655 S
O30 C32 1.248 . S
Mg31 O30 2.028 1_455 S
Mg31 O36 2.032 . S
Mg31 O38 2.079 . S
C32 O29 1.250 . S
C32 O30 1.248 . S
C33 O34 1.264 . S
C33 O41 1.249 . S
O34 C33 1.264 . S
O35 Mg28 1.984 1_655 S
O35 C39 1.246 . S
O36 Mg31 2.032 . S
O36 C39 1.259 1_455 S
O37 Mg28 2.122 . S
O37 C40 1.252 . S
O38 Mg28 2.259 . S
O38 Mg31 2.079 . S
O38 C40 1.273 . S
C39 O35 1.246 . S
C39 O36 1.259 1_655 S
C40 O37 1.252 . S
C40 O38 1.273 . S
O41 Mg28 2.009 1_655 S
O41 C33 1.249 . S
Mg42 O43 2.028 . S
Mg42 O49 1.986 . S
Mg42 O51 2.114 . S
Mg42 O52 2.251 . S
Mg42 O55 2.010 . S
O43 Mg42 2.028 . S
O43 C46 1.250 . S
O44 Mg45 2.028 . S
O44 C46 1.248 . S
Mg45 O44 2.028 . S
Mg45 O50 2.032 . S
Mg45 O52 2.079 . S
C46 O43 1.250 . S
C46 O44 1.248 . S
C47 O48 1.264 . S
C47 O55 1.249 . S
O48 C47 1.264 . S
O49 Mg42 1.986 . S
O49 C53 1.246 . S
O50 Mg45 2.032 . S
O50 C53 1.259 . S
O51 Mg42 2.114 . S
O51 C54 1.252 . S
O52 Mg42 2.251 . S
O52 Mg45 2.079 . S
O52 C54 1.273 . S
C53 O49 1.246 . S
C53 O50 1.259 . S
C54 O51 1.252 . S
C54 O52 1.273 . S
O55 Mg42 2.010 . S
O55 C47 1.249 . S
Mg56 O57 2.000 1_545 S
Mg56 O63 1.984 1_545 S
Mg56 O65 2.123 . S
Mg56 O66 2.259 . S
Mg56 O69 2.009 1_545 S
O57 Mg56 2.000 1_565 S
O57 C60 1.250 . S
O58 Mg59 2.028 1_565 S
O58 C60 1.248 . S
Mg59 O58 2.028 1_545 S
Mg59 O64 2.032 . S
Mg59 O66 2.079 . S
C60 O57 1.250 . S
C60 O58 1.248 . S
C61 O62 1.264 . S
C61 O69 1.249 . S
O62 C61 1.264 . S
O63 Mg56 1.984 1_565 S
O63 C67 1.246 . S
O64 Mg59 2.032 . S
O64 C67 1.259 1_545 S
O65 Mg56 2.123 . S
O65 C68 1.252 . S
O66 Mg56 2.259 . S
O66 Mg59 2.079 . S
O66 C68 1.273 . S
C67 O63 1.246 . S
C67 O64 1.259 1_565 S
C68 O65 1.252 . S
C68 O66 1.273 . S
O69 Mg56 2.009 1_565 S
O69 C61 1.249 . S
Mg70 O71 2.021 1_655 S
Mg70 O77 1.978 1_655 S
Mg70 O79 2.131 . S
Mg70 O80 2.277 . S
Mg70 O83 1.989 1_655 S
O71 Mg70 2.021 1_455 S
O71 C74 1.250 . S
O72 Mg73 2.028 1_455 S
O72 C74 1.248 . S
Mg73 O72 2.028 1_655 S
Mg73 O78 2.032 . S
Mg73 O80 2.079 . S
C74 O71 1.250 . S
C74 O72 1.248 . S
C75 O76 1.264 . S
C75 O83 1.249 . S
O76 C75 1.264 . S
O77 Mg70 1.978 1_455 S
O77 C81 1.246 . S
O78 Mg73 2.032 . S
O78 C81 1.259 1_655 S
O79 Mg70 2.131 . S
O79 C82 1.252 . S
O80 Mg70 2.277 . S
O80 Mg73 2.079 . S
O80 C82 1.273 . S
C81 O77 1.246 . S
C81 O78 1.259 1_455 S
C82 O79 1.252 . S
C82 O80 1.273 . S
O83 Mg70 1.989 1_455 S
O83 C75 1.249 . S
Mg84 O85 2.028 . S
Mg84 O91 1.986 . S
Mg84 O93 2.114 . S
Mg84 O94 2.251 . S
Mg84 O97 2.010 . S
O85 Mg84 2.028 . S
O85 C88 1.250 . S
O86 Mg87 2.028 . S
O86 C88 1.248 . S
Mg87 O86 2.028 . S
Mg87 O92 2.032 . S
Mg87 O94 2.079 . S
C88 O85 1.250 . S
C88 O86 1.248 . S
C89 O90 1.264 . S
C89 O97 1.249 . S
O90 C89 1.264 . S
O91 Mg84 1.986 . S
O91 C95 1.246 . S
O92 Mg87 2.032 . S
O92 C95 1.259 . S
O93 Mg84 2.114 . S
O93 C96 1.252 . S
O94 Mg84 2.251 . S
O94 Mg87 2.079 . S
O94 C96 1.273 . S
C95 O91 1.246 . S
C95 O92 1.259 . S
C96 O93 1.252 . S
C96 O94 1.273 . S
O97 Mg84 2.010 . S
O97 C89 1.249 . S
Mg98 O99 2.020 1_545 S
Mg98 O105 1.977 1_545 S
Mg98 O107 2.133 . S
Mg98 O108 2.279 . S
Mg98 O111 1.987 1_545 S
O99 Mg98 2.020 1_565 S
O99 C102 1.250 . S
O100 Mg101 2.028 1_565 S
O100 C102 1.248 . S
Mg101 O100 2.028 1_545 S
Mg101 O106 2.032 . S
Mg101 O108 2.079 . S
C102 O99 1.250 . S
C102 O100 1.248 . S
C103 O104 1.264 . S
C103 O111 1.249 . S
O104 C103 1.264 . S
O105 Mg98 1.977 1_565 S
O105 C109 1.246 . S
O106 Mg101 2.032 . S
O106 C109 1.259 1_545 S
O107 Mg98 2.133 . S
O107 C110 1.252 . S
O108 Mg98 2.279 . S
O108 Mg101 2.079 . S
O108 C110 1.273 . S
C109 O105 1.246 . S
C109 O106 1.259 1_565 S
C110 O107 1.252 . S
C110 O108 1.273 . S
O111 Mg98 1.987 1_565 S
O111 C103 1.249 . S
Mg112 O113 2.002 1_655 S
Mg112 O119 1.984 1_655 S
Mg112 O121 2.122 . S
Mg112 O122 2.259 . S
Mg112 O125 2.009 1_655 S
O113 Mg112 2.002 1_455 S
O113 C116 1.250 . S
O114 Mg115 2.028 1_455 S
O114 C116 1.248 . S
Mg115 O114 2.028 1_655 S
Mg115 O120 2.032 . S
Mg115 O122 2.079 . S
C116 O113 1.250 . S
C116 O114 1.248 . S
C117 O118 1.264 . S
C117 O125 1.249 . S
O118 C117 1.264 . S
O119 Mg112 1.984 1_455 S
O119 C123 1.246 . S
O120 Mg115 2.032 . S
O120 C123 1.259 1_655 S
O121 Mg112 2.122 . S
O121 C124 1.252 . S
O122 Mg112 2.259 . S
O122 Mg115 2.079 . S
O122 C124 1.273 . S
C123 O119 1.246 . S
C123 O120 1.259 1_455 S
C124 O121 1.252 . S
C124 O122 1.273 . S
O125 Mg112 2.009 1_455 S
O125 C117 1.249 . S
Mg126 O127 2.028 . S
Mg126 O133 1.986 . S
Mg126 O135 2.114 . S
Mg126 O136 2.251 . S
Mg126 O139 2.010 . S
O127 Mg126 2.028 . S
O127 C130 1.250 . S
O128 Mg129 2.028 . S
O128 C130 1.248 . S
Mg129 O128 2.028 . S
Mg129 O134 2.032 . S
Mg129 O136 2.079 . S
C130 O127 1.250 . S
C130 O128 1.248 . S
C131 O132 1.264 . S
C131 O139 1.249 . S
O132 C131 1.264 . S
O133 Mg126 1.986 . S
O133 C137 1.246 . S
O134 Mg129 2.032 . S
O134 C137 1.259 . S
O135 Mg126 2.114 . S
O135 C138 1.252 . S
O136 Mg126 2.251 . S
O136 Mg129 2.079 . S
O136 C138 1.273 . S
C137 O133 1.246 . S
C137 O134 1.259 . S
C138 O135 1.252 . S
C138 O136 1.273 . S
O139 Mg126 2.010 . S
O139 C131 1.249 . S
Mg140 O141 2.000 1_565 S
Mg140 O147 1.984 1_565 S
Mg140 O149 2.123 . S
Mg140 O150 2.259 . S
Mg140 O153 2.009 1_565 S
O141 Mg140 2.000 1_545 S
O141 C144 1.250 . S
O142 Mg143 2.028 1_545 S
O142 C144 1.248 . S
Mg143 O142 2.028 1_565 S
Mg143 O148 2.032 . S
Mg143 O150 2.079 . S
C144 O141 1.250 . S
C144 O142 1.248 . S
C145 O146 1.264 . S
C145 O153 1.249 . S
O146 C145 1.264 . S
O147 Mg140 1.984 1_545 S
O147 C151 1.246 . S
O148 Mg143 2.032 . S
O148 C151 1.259 1_565 S
O149 Mg140 2.123 . S
O149 C152 1.252 . S
O150 Mg140 2.259 . S
O150 Mg143 2.079 . S
O150 C152 1.273 . S
C151 O147 1.246 . S
C151 O148 1.259 1_545 S
C152 O149 1.252 . S
C152 O150 1.273 . S
O153 Mg140 2.009 1_545 S
O153 C145 1.249 . S
Mg154 O155 2.021 1_455 S
Mg154 O161 1.978 1_455 S
Mg154 O163 2.131 . S
Mg154 O164 2.277 . S
Mg154 O167 1.989 1_455 S
O155 Mg154 2.021 1_655 S
O155 C158 1.250 . S
O156 Mg157 2.028 1_655 S
O156 C158 1.248 . S
Mg157 O156 2.028 1_455 S
Mg157 O162 2.032 . S
Mg157 O164 2.079 . S
C158 O155 1.250 . S
C158 O156 1.248 . S
C159 O160 1.264 . S
C159 O167 1.249 . S
O160 C159 1.264 . S
O161 Mg154 1.978 1_655 S
O161 C165 1.246 . S
O162 Mg157 2.032 . S
O162 C165 1.259 1_455 S
O163 Mg154 2.131 . S
O163 C166 1.252 . S
O164 Mg154 2.277 . S
O164 Mg157 2.079 . S
O164 C166 1.273 . S
C165 O161 1.246 . S
C165 O162 1.259 1_655 S
C166 O163 1.252 . S
C166 O164 1.273 . S
O167 Mg154 1.989 1_655 S
O167 C159 1.249 . S
Mg168 O169 2.028 . S
Mg168 O175 1.986 . S
Mg168 O177 2.114 . S
Mg168 O178 2.251 . S
Mg168 O181 2.010 . S
O169 Mg168 2.028 . S
O169 C172 1.250 . S
O170 Mg171 2.028 . S
O170 C172 1.248 . S
Mg171 O170 2.028 . S
Mg171 O176 2.032 . S
Mg171 O178 2.079 . S
C172 O169 1.250 . S
C172 O170 1.248 . S
C173 O174 1.264 . S
C173 O181 1.249 . S
O174 C173 1.264 . S
O175 Mg168 1.986 . S
O175 C179 1.246 . S
O176 Mg171 2.032 . S
O176 C179 1.259 . S
O177 Mg168 2.114 . S
O177 C180 1.252 . S
O178 Mg168 2.251 . S
O178 Mg171 2.079 . S
O178 C180 1.273 . S
C179 O175 1.246 . S
C179 O176 1.259 . S
C180 O177 1.252 . S
C180 O178 1.273 . S
O181 Mg168 2.010 . S
O181 C173 1.249 . S
Mg182 O183 2.028 . S
Mg182 O189 1.986 . S
Mg182 O191 2.114 . S
Mg182 O192 2.251 . S
Mg182 O195 2.010 . S
O183 Mg182 2.028 . S
O183 C186 1.250 . S
O184 Mg185 2.028 . S
O184 C186 1.248 . S
Mg185 O184 2.028 . S
Mg185 O190 2.032 . S
Mg185 O192 2.079 . S
C186 O183 1.250 . S
C186 O184 1.248 . S
C187 O188 1.264 . S
C187 O195 1.249 . S
O188 C187 1.264 . S
O189 Mg182 1.986 . S
O189 C193 1.246 . S
O190 Mg185 2.032 . S
O190 C193 1.259 . S
O191 Mg182 2.114 . S
O191 C194 1.252 . S
O192 Mg182 2.251 . S
O192 Mg185 2.079 . S
O192 C194 1.273 . S
C193 O189 1.246 . S
C193 O190 1.259 . S
C194 O191 1.252 . S
C194 O192 1.273 . S
O195 Mg182 2.010 . S
O195 C187 1.249 . S
Mg196 O197 2.028 . S
Mg196 O203 1.986 . S
Mg196 O205 2.114 . S
Mg196 O206 2.251 . S
Mg196 O209 2.010 . S
O197 Mg196 2.028 . S
O197 C200 1.250 . S
O198 Mg199 2.028 . S
O198 C200 1.248 . S
Mg199 O198 2.028 . S
Mg199 O204 2.032 . S
Mg199 O206 2.079 . S
C200 O197 1.250 . S
C200 O198 1.248 . S
C201 O202 1.264 . S
C201 O209 1.249 . S
O202 C201 1.264 . S
O203 Mg196 1.986 . S
O203 C207 1.246 . S
O204 Mg199 2.032 . S
O204 C207 1.259 . S
O205 Mg196 2.114 . S
O205 C208 1.252 . S
O206 Mg196 2.251 . S
O206 Mg199 2.079 . S
O206 C208 1.273 . S
C207 O203 1.246 . S
C207 O204 1.259 . S
C208 O205 1.252 . S
C208 O206 1.273 . S
O209 Mg196 2.010 . S
O209 C201 1.249 . S
Mg210 O211 2.028 . S
Mg210 O217 1.986 . S
Mg210 O219 2.114 . S
Mg210 O220 2.251 . S
Mg210 O223 2.010 . S
O211 Mg210 2.028 . S
O211 C214 1.250 . S
O212 Mg213 2.028 . S
O212 C214 1.248 . S
Mg213 O212 2.028 . S
Mg213 O218 2.032 . S
Mg213 O220 2.079 . S
C214 O211 1.250 . S
C214 O212 1.248 . S
C215 O216 1.264 . S
C215 O223 1.249 . S
O216 C215 1.264 . S
O217 Mg210 1.986 . S
O217 C221 1.246 . S
O218 Mg213 2.032 . S
O218 C221 1.259 . S
O219 Mg210 2.114 . S
O219 C222 1.252 . S
O220 Mg210 2.251 . S
O220 Mg213 2.079 . S
O220 C222 1.273 . S
C221 O217 1.246 . S
C221 O218 1.259 . S
C222 O219 1.252 . S
C222 O220 1.273 . S
O223 Mg210 2.010 . S
O223 C215 1.249 . S
Mg224 O225 2.028 . S
Mg224 O231 1.986 . S
Mg224 O233 2.114 . S
Mg224 O234 2.251 . S
Mg224 O237 2.010 . S
O225 Mg224 2.028 . S
O225 C228 1.250 . S
O226 Mg227 2.028 . S
O226 C228 1.248 . S
Mg227 O226 2.028 . S
Mg227 O232 2.032 . S
Mg227 O234 2.079 . S
C228 O225 1.250 . S
C228 O226 1.248 . S
C229 O230 1.264 . S
C229 O237 1.249 . S
O230 C229 1.264 . S
O231 Mg224 1.986 . S
O231 C235 1.246 . S
O232 Mg227 2.032 . S
O232 C235 1.259 . S
O233 Mg224 2.114 . S
O233 C236 1.252 . S
O234 Mg224 2.251 . S
O234 Mg227 2.079 . S
O234 C236 1.273 . S
C235 O231 1.246 . S
C235 O232 1.259 . S
C236 O233 1.252 . S
C236 O234 1.273 . S
O237 Mg224 2.010 . S
O237 C229 1.249 . S
Mg238 O239 2.028 . S
Mg238 O245 1.986 . S
Mg238 O247 2.114 . S
Mg238 O248 2.251 . S
Mg238 O251 2.010 . S
O239 Mg238 2.028 . S
O239 C242 1.250 . S
O240 Mg241 2.028 . S
O240 C242 1.248 . S
Mg241 O240 2.028 . S
Mg241 O246 2.032 . S
Mg241 O248 2.079 . S
C242 O239 1.250 . S
C242 O240 1.248 . S
C243 O244 1.264 . S
C243 O251 1.249 . S
O244 C243 1.264 . S
O245 Mg238 1.986 . S
O245 C249 1.246 . S
O246 Mg241 2.032 . S
O246 C249 1.259 . S
O247 Mg238 2.114 . S
O247 C250 1.252 . S
O248 Mg238 2.251 . S
O248 Mg241 2.079 . S
O248 C250 1.273 . S
C249 O245 1.246 . S
C249 O246 1.259 . S
C250 O247 1.252 . S
C250 O248 1.273 . S
O251 Mg238 2.010 . S
O251 C243 1.249 . S
Mg252 O253 2.028 . S
Mg252 O259 1.986 . S
Mg252 O261 2.114 . S
Mg252 O262 2.251 . S
Mg252 O265 2.010 . S
O253 Mg252 2.028 . S
O253 C256 1.250 . S
O254 Mg255 2.028 . S
O254 C256 1.248 . S
Mg255 O254 2.028 . S
Mg255 O260 2.032 . S
Mg255 O262 2.079 . S
C256 O253 1.250 . S
C256 O254 1.248 . S
C257 O258 1.264 . S
C257 O265 1.249 . S
O258 C257 1.264 . S
O259 Mg252 1.986 . S
O259 C263 1.246 . S
O260 Mg255 2.032 . S
O260 C263 1.259 . S
O261 Mg252 2.114 . S
O261 C264 1.252 . S
O262 Mg252 2.251 . S
O262 Mg255 2.079 . S
O262 C264 1.273 . S
C263 O259 1.246 . S
C263 O260 1.259 . S
C264 O261 1.252 . S
C264 O262 1.273 . S
O265 Mg252 2.010 . S
O265 C257 1.249 . S
Mg266 O267 2.028 . S
Mg266 O273 1.986 . S
Mg266 O275 2.114 . S
Mg266 O276 2.251 . S
Mg266 O279 2.010 . S
O267 Mg266 2.028 . S
O267 C270 1.250 . S
O268 Mg269 2.028 . S
O268 C270 1.248 . S
Mg269 O268 2.028 . S
Mg269 O274 2.032 . S
Mg269 O276 2.079 . S
C270 O267 1.250 . S
C270 O268 1.248 . S
C271 O272 1.264 . S
C271 O279 1.249 . S
O272 C271 1.264 . S
O273 Mg266 1.986 . S
O273 C277 1.246 . S
O274 Mg269 2.032 . S
O274 C277 1.259 . S
O275 Mg266 2.114 . S
O275 C278 1.252 . S
O276 Mg266 2.251 . S
O276 Mg269 2.079 . S
O276 C278 1.273 . S
C277 O273 1.246 . S
C277 O274 1.259 . S
C278 O275 1.252 . S
C278 O276 1.273 . S
O279 Mg266 2.010 . S
O279 C271 1.249 . S
Mg280 O281 2.028 . S
Mg280 O287 1.986 . S
Mg280 O289 2.114 . S
Mg280 O290 2.251 . S
Mg280 O293 2.010 . S
O281 Mg280 2.028 . S
O281 C284 1.250 . S
O282 Mg283 2.028 . S
O282 C284 1.248 . S
Mg283 O282 2.028 . S
Mg283 O288 2.032 . S
Mg283 O290 2.079 . S
C284 O281 1.250 . S
C284 O282 1.248 . S
C285 O286 1.264 . S
C285 O293 1.249 . S
O286 C285 1.264 . S
O287 Mg280 1.986 . S
O287 C291 1.246 . S
O288 Mg283 2.032 . S
O288 C291 1.259 . S
O289 Mg280 2.114 . S
O289 C292 1.252 . S
O290 Mg280 2.251 . S
O290 Mg283 2.079 . S
O290 C292 1.273 . S
C291 O287 1.246 . S
C291 O288 1.259 . S
C292 O289 1.252 . S
C292 O290 1.273 . S
O293 Mg280 2.010 . S
O293 C285 1.249 . S
Mg294 O295 2.028 . S
Mg294 O301 1.986 . S
Mg294 O303 2.114 . S
Mg294 O304 2.251 . S
Mg294 O307 2.010 . S
O295 Mg294 2.028 . S
O295 C298 1.250 . S
O296 Mg297 2.028 . S
O296 C298 1.248 . S
Mg297 O296 2.028 . S
Mg297 O302 2.032 . S
Mg297 O304 2.079 . S
C298 O295 1.250 . S
C298 O296 1.248 . S
C299 O300 1.264 . S
C299 O307 1.249 . S
O300 C299 1.264 . S
O301 Mg294 1.986 . S
O301 C305 1.246 . S
O302 Mg297 2.032 . S
O302 C305 1.259 . S
O303 Mg294 2.114 . S
O303 C306 1.252 . S
O304 Mg294 2.251 . S
O304 Mg297 2.079 . S
O304 C306 1.273 . S
C305 O301 1.246 . S
C305 O302 1.259 . S
C306 O303 1.252 . S
C306 O304 1.273 . S
O307 Mg294 2.010 . S
O307 C299 1.249 . S
Mg308 O309 2.028 . S
Mg308 O315 1.986 . S
Mg308 O317 2.114 . S
Mg308 O318 2.251 . S
Mg308 O321 2.010 . S
O309 Mg308 2.028 . S
O309 C312 1.250 . S
O310 Mg311 2.028 . S
O310 C312 1.248 . S
Mg311 O310 2.028 . S
Mg311 O316 2.032 . S
Mg311 O318 2.079 . S
C312 O309 1.250 . S
C312 O310 1.248 . S
C313 O314 1.264 . S
C313 O321 1.249 . S
O314 C313 1.264 . S
O315 Mg308 1.986 . S
O315 C319 1.246 . S
O316 Mg311 2.032 . S
O316 C319 1.259 . S
O317 Mg308 2.114 . S
O317 C320 1.252 . S
O318 Mg308 2.251 . S
O318 Mg311 2.079 . S
O318 C320 1.273 . S
C319 O315 1.246 . S
C319 O316 1.259 . S
C320 O317 1.252 . S
C320 O318 1.273 . S
O321 Mg308 2.010 . S
O321 C313 1.249 . S
Mg322 O323 2.028 . S
Mg322 O329 1.986 . S
Mg322 O331 2.114 . S
Mg322 O332 2.251 . S
Mg322 O335 2.010 . S
O323 Mg322 2.028 . S
O323 C326 1.250 . S
O324 Mg325 2.028 . S
O324 C326 1.248 . S
Mg325 O324 2.028 . S
Mg325 O330 2.032 . S
Mg325 O332 2.079 . S
C326 O323 1.250 . S
C326 O324 1.248 . S
C327 O328 1.264 . S
C327 O335 1.249 . S
O328 C327 1.264 . S
O329 Mg322 1.986 . S
O329 C333 1.246 . S
O330 Mg325 2.032 . S
O330 C333 1.259 . S
O331 Mg322 2.114 . S
O331 C334 1.252 . S
O332 Mg322 2.251 . S
O332 Mg325 2.079 . S
O332 C334 1.273 . S
C333 O329 1.246 . S
C333 O330 1.259 . S
C334 O331 1.252 . S
C334 O332 1.273 . S
O335 Mg322 2.010 . S
O335 C327 1.249 . S
Mg336 O337 2.028 . S
Mg336 O343 1.986 . S
Mg336 O345 2.114 . S
Mg336 O346 2.251 . S
Mg336 O349 2.010 . S
O337 Mg336 2.028 . S
O337 C340 1.250 . S
O338 Mg339 2.028 . S
O338 C340 1.248 . S
Mg339 O338 2.028 . S
Mg339 O344 2.032 . S
Mg339 O346 2.079 . S
C340 O337 1.250 . S
C340 O338 1.248 . S
C341 O342 1.264 . S
C341 O349 1.249 . S
O342 C341 1.264 . S
O343 Mg336 1.986 . S
O343 C347 1.246 . S
O344 Mg339 2.032 . S
O344 C347 1.259 . S
O345 Mg336 2.114 . S
O345 C348 1.252 . S
O346 Mg336 2.251 . S
O346 Mg339 2.079 . S
O346 C348 1.273 . S
C347 O343 1.246 . S
C347 O344 1.259 . S
C348 O345 1.252 . S
C348 O346 1.273 . S
O349 Mg336 2.010 . S
O349 C341 1.249 . S
Mg350 O351 2.028 . S
Mg350 O357 1.986 . S
Mg350 O359 2.114 . S
Mg350 O360 2.251 . S
Mg350 O363 2.010 . S
O351 Mg350 2.028 . S
O351 C354 1.250 . S
O352 Mg353 2.028 . S
O352 C354 1.248 . S
Mg353 O352 2.028 . S
Mg353 O358 2.032 . S
Mg353 O360 2.079 . S
C354 O351 1.250 . S
C354 O352 1.248 . S
C355 O356 1.264 . S
C355 O363 1.249 . S
O356 C355 1.264 . S
O357 Mg350 1.986 . S
O357 C361 1.246 . S
O358 Mg353 2.032 . S
O358 C361 1.259 . S
O359 Mg350 2.114 . S
O359 C362 1.252 . S
O360 Mg350 2.251 . S
O360 Mg353 2.079 . S
O360 C362 1.273 . S
C361 O357 1.246 . S
C361 O358 1.259 . S
C362 O359 1.252 . S
C362 O360 1.273 . S
O363 Mg350 2.010 . S
O363 C355 1.249 . S
Mg364 O365 2.028 . S
Mg364 O371 1.986 . S
Mg364 O373 2.114 . S
Mg364 O374 2.251 . S
Mg364 O377 2.010 . S
O365 Mg364 2.028 . S
O365 C368 1.250 . S
O366 Mg367 2.028 . S
O366 C368 1.248 . S
Mg367 O366 2.028 . S
Mg367 O372 2.032 . S
Mg367 O374 2.079 . S
C368 O365 1.250 . S
C368 O366 1.248 . S
C369 O370 1.264 . S
C369 O377 1.249 . S
O370 C369 1.264 . S
O371 Mg364 1.986 . S
O371 C375 1.246 . S
O372 Mg367 2.032 . S
O372 C375 1.259 . S
O373 Mg364 2.114 . S
O373 C376 1.252 . S
O374 Mg364 2.251 . S
O374 Mg367 2.079 . S
O374 C376 1.273 . S
C375 O371 1.246 . S
C375 O372 1.259 . S
C376 O373 1.252 . S
C376 O374 1.273 . S
O377 Mg364 2.010 . S
O377 C369 1.249 . S
Mg378 O379 2.028 . S
Mg378 O385 1.986 . S
Mg378 O387 2.114 . S
Mg378 O388 2.251 . S
Mg378 O391 2.010 . S
O379 Mg378 2.028 . S
O379 C382 1.250 . S
O380 Mg381 2.028 . S
O380 C382 1.248 . S
Mg381 O380 2.028 . S
Mg381 O386 2.032 . S
Mg381 O388 2.079 . S
C382 O379 1.250 . S
C382 O380 1.248 . S
C383 O384 1.264 . S
C383 O391 1.249 . S
O384 C383 1.264 . S
O385 Mg378 1.986 . S
O385 C389 1.246 . S
O386 Mg381 2.032 . S
O386 C389 1.259 . S
O387 Mg378 2.114 . S
O387 C390 1.252 . S
O388 Mg378 2.251 . S
O388 Mg381 2.079 . S
O388 C390 1.273 . S
C389 O385 1.246 . S
C389 O386 1.259 . S
C390 O387 1.252 . S
C390 O388 1.273 . S
O391 Mg378 2.010 . S
O391 C383 1.249 . S
Mg392 O393 2.028 . S
Mg392 O399 1.986 . S
Mg392 O401 2.114 . S
Mg392 O402 2.251 . S
Mg392 O405 2.010 . S
O393 Mg392 2.028 . S
O393 C396 1.250 . S
O394 Mg395 2.028 . S
O394 C396 1.248 . S
Mg395 O394 2.028 . S
Mg395 O400 2.032 . S
Mg395 O402 2.079 . S
C396 O393 1.250 . S
C396 O394 1.248 . S
C397 O398 1.264 . S
C397 O405 1.249 . S
O398 C397 1.264 . S
O399 Mg392 1.986 . S
O399 C403 1.246 . S
O400 Mg395 2.032 . S
O400 C403 1.259 . S
O401 Mg392 2.114 . S
O401 C404 1.252 . S
O402 Mg392 2.251 . S
O402 Mg395 2.079 . S
O402 C404 1.273 . S
C403 O399 1.246 . S
C403 O400 1.259 . S
C404 O401 1.252 . S
C404 O402 1.273 . S
O405 Mg392 2.010 . S
O405 C397 1.249 . S
Mg406 O407 2.028 . S
Mg406 O413 1.986 . S
Mg406 O415 2.114 . S
Mg406 O416 2.251 . S
Mg406 O419 2.010 . S
O407 Mg406 2.028 . S
O407 C410 1.250 . S
O408 Mg409 2.028 . S
O408 C410 1.248 . S
Mg409 O408 2.028 . S
Mg409 O414 2.032 . S
Mg409 O416 2.079 . S
C410 O407 1.250 . S
C410 O408 1.248 . S
C411 O412 1.264 . S
C411 O419 1.249 . S
O412 C411 1.264 . S
O413 Mg406 1.986 . S
O413 C417 1.246 . S
O414 Mg409 2.032 . S
O414 C417 1.259 . S
O415 Mg406 2.114 . S
O415 C418 1.252 . S
O416 Mg406 2.251 . S
O416 Mg409 2.079 . S
O416 C418 1.273 . S
C417 O413 1.246 . S
C417 O414 1.259 . S
C418 O415 1.252 . S
C418 O416 1.273 . S
O419 Mg406 2.010 . S
O419 C411 1.249 . S
Mg420 O421 2.028 . S
Mg420 O427 1.986 . S
Mg420 O429 2.114 . S
Mg420 O430 2.251 . S
Mg420 O433 2.010 . S
O421 Mg420 2.028 . S
O421 C424 1.250 . S
O422 Mg423 2.028 . S
O422 C424 1.248 . S
Mg423 O422 2.028 . S
Mg423 O428 2.032 . S
Mg423 O430 2.079 . S
C424 O421 1.250 . S
C424 O422 1.248 . S
C425 O426 1.264 . S
C425 O433 1.249 . S
O426 C425 1.264 . S
O427 Mg420 1.986 . S
O427 C431 1.246 . S
O428 Mg423 2.032 . S
O428 C431 1.259 . S
O429 Mg420 2.114 . S
O429 C432 1.252 . S
O430 Mg420 2.251 . S
O430 Mg423 2.079 . S
O430 C432 1.273 . S
C431 O427 1.246 . S
C431 O428 1.259 . S
C432 O429 1.252 . S
C432 O430 1.273 . S
O433 Mg420 2.010 . S
O433 C425 1.249 . S
Mg434 O435 2.028 . S
Mg434 O441 1.986 . S
Mg434 O443 2.114 . S
Mg434 O444 2.251 . S
Mg434 O447 2.010 . S
O435 Mg434 2.028 . S
O435 C438 1.250 . S
O436 Mg437 2.028 . S
O436 C438 1.248 . S
Mg437 O436 2.028 . S
Mg437 O442 2.032 . S
Mg437 O444 2.079 . S
C438 O435 1.250 . S
C438 O436 1.248 . S
C439 O440 1.264 . S
C439 O447 1.249 . S
O440 C439 1.264 . S
O441 Mg434 1.986 . S
O441 C445 1.246 . S
O442 Mg437 2.032 . S
O442 C445 1.259 . S
O443 Mg434 2.114 . S
O443 C446 1.252 . S
O444 Mg434 2.251 . S
O444 Mg437 2.079 . S
O444 C446 1.273 . S
C445 O441 1.246 . S
C445 O442 1.259 . S
C446 O443 1.252 . S
C446 O444 1.273 . S
O447 Mg434 2.010 . S
O447 C439 1.249 . S
Mg448 O449 2.028 . S
Mg448 O455 1.986 . S
Mg448 O457 2.114 . S
Mg448 O458 2.251 . S
Mg448 O461 2.010 . S
O449 Mg448 2.028 . S
O449 C452 1.250 . S
O450 Mg451 2.028 . S
O450 C452 1.248 . S
Mg451 O450 2.028 . S
Mg451 O456 2.032 . S
Mg451 O458 2.079 . S
C452 O449 1.250 . S
C452 O450 1.248 . S
C453 O454 1.264 . S
C453 O461 1.249 . S
O454 C453 1.264 . S
O455 Mg448 1.986 . S
O455 C459 1.246 . S
O456 Mg451 2.032 . S
O456 C459 1.259 . S
O457 Mg448 2.114 . S
O457 C460 1.252 . S
O458 Mg448 2.251 . S
O458 Mg451 2.079 . S
O458 C460 1.273 . S
C459 O455 1.246 . S
C459 O456 1.259 . S
C460 O457 1.252 . S
C460 O458 1.273 . S
O461 Mg448 2.010 . S
O461 C453 1.249 . S
Mg462 O463 2.028 . S
Mg462 O469 1.986 . S
Mg462 O471 2.114 . S
Mg462 O472 2.251 . S
Mg462 O475 2.010 . S
O463 Mg462 2.028 . S
O463 C466 1.250 . S
O464 Mg465 2.028 . S
O464 C466 1.248 . S
Mg465 O464 2.028 . S
Mg465 O470 2.032 . S
Mg465 O472 2.079 . S
C466 O463 1.250 . S
C466 O464 1.248 . S
C467 O468 1.264 . S
C467 O475 1.249 . S
O468 C467 1.264 . S
O469 Mg462 1.986 . S
O469 C473 1.246 . S
O470 Mg465 2.032 . S
O470 C473 1.259 . S
O471 Mg462 2.114 . S
O471 C474 1.252 . S
O472 Mg462 2.251 . S
O472 Mg465 2.079 . S
O472 C474 1.273 . S
C473 O469 1.246 . S
C473 O470 1.259 . S
C474 O471 1.252 . S
C474 O472 1.273 . S
O475 Mg462 2.010 . S
O475 C467 1.249 . S
Mg476 O477 2.028 . S
Mg476 O483 1.986 . S
Mg476 O485 2.114 . S
Mg476 O486 2.251 . S
Mg476 O489 2.010 . S
O477 Mg476 2.028 . S
O477 C480 1.250 . S
O478 Mg479 2.028 . S
O478 C480 1.248 . S
Mg479 O478 2.028 . S
Mg479 O484 2.032 . S
Mg479 O486 2.079 . S
C480 O477 1.250 . S
C480 O478 1.248 . S
C481 O482 1.264 . S
C481 O489 1.249 . S
O482 C481 1.264 . S
O483 Mg476 1.986 . S
O483 C487 1.246 . S
O484 Mg479 2.032 . S
O484 C487 1.259 . S
O485 Mg476 2.114 . S
O485 C488 1.252 . S
O486 Mg476 2.251 . S
O486 Mg479 2.079 . S
O486 C488 1.273 . S
C487 O483 1.246 . S
C487 O484 1.259 . S
C488 O485 1.252 . S
C488 O486 1.273 . S
O489 Mg476 2.010 . S
O489 C481 1.249 . S
Mg490 O491 2.028 . S
Mg490 O497 1.986 . S
Mg490 O499 2.114 . S
Mg490 O500 2.251 . S
Mg490 O503 2.010 . S
O491 Mg490 2.028 . S
O491 C494 1.250 . S
O492 Mg493 2.028 . S
O492 C494 1.248 . S
Mg493 O492 2.028 . S
Mg493 O498 2.032 . S
Mg493 O500 2.079 . S
C494 O491 1.250 . S
C494 O492 1.248 . S
C495 O496 1.264 . S
C495 O503 1.249 . S
O496 C495 1.264 . S
O497 Mg490 1.986 . S
O497 C501 1.246 . S
O498 Mg493 2.032 . S
O498 C501 1.259 . S
O499 Mg490 2.114 . S
O499 C502 1.252 . S
O500 Mg490 2.251 . S
O500 Mg493 2.079 . S
O500 C502 1.273 . S
C501 O497 1.246 . S
C501 O498 1.259 . S
C502 O499 1.252 . S
C502 O500 1.273 . S
O503 Mg490 2.010 . S
O503 C495 1.249 . S
H504 C510 0.930 . S
H505 C513 0.930 . S
H506 C514 0.930 . S
H507 C515 0.930 . S
H508 C518 0.930 . S
H509 C519 0.930 . S
C510 H504 0.930 . S
C510 C511 1.355 . S
C510 C512 1.415 . S
C511 C510 1.355 . S
C511 C513 1.419 . S
C512 C510 1.415 . S
C512 C517 1.425 . S
C512 C519 1.409 . S
C513 H505 0.930 . S
C513 C511 1.419 . S
C513 C514 1.362 . S
C514 H506 0.930 . S
C514 C513 1.362 . S
C514 C517 1.409 . S
C515 H507 0.930 . S
C515 C516 1.355 . S
C515 C517 1.415 1_655 S
C516 C515 1.355 . S
C516 C518 1.419 . S
C517 C512 1.425 . S
C517 C514 1.409 . S
C517 C515 1.415 1_455 S
C518 H508 0.930 . S
C518 C516 1.419 . S
C518 C519 1.362 1_655 S
C519 H509 0.930 . S
C519 C512 1.409 . S
C519 C518 1.362 1_455 S
H520 C526 0.930 . S
H521 C529 0.930 . S
H522 C530 0.930 . S
H523 C531 0.930 . S
H524 C534 0.930 . S
H525 C535 0.930 . S
C526 H520 0.930 . S
C526 C527 1.355 . S
C526 C528 1.415 . S
C527 C526 1.355 . S
C527 C529 1.419 . S
C528 C526 1.415 . S
C528 C533 1.425 . S
C528 C535 1.409 . S
C529 H521 0.930 . S
C529 C527 1.419 . S
C529 C530 1.362 . S
C530 H522 0.930 . S
C530 C529 1.362 . S
C530 C533 1.409 . S
C531 H523 0.930 . S
C531 C532 1.355 . S
C531 C533 1.415 . S
C532 C531 1.355 . S
C532 C534 1.419 . S
C533 C528 1.425 . S
C533 C530 1.409 . S
C533 C531 1.415 . S
C534 H524 0.930 . S
C534 C532 1.419 . S
C534 C535 1.362 . S
C535 H525 0.930 . S
C535 C528 1.409 . S
C535 C534 1.362 . S
H536 C542 0.930 . S
H537 C545 0.930 . S
H538 C546 0.930 . S
H539 C547 0.930 . S
H540 C550 0.930 . S
H541 C551 0.930 . S
C542 H536 0.930 . S
C542 C543 1.355 . S
C542 C544 1.415 1_545 S
C543 C542 1.355 . S
C543 C545 1.419 . S
C544 C542 1.415 1_565 S
C544 C549 1.425 . S
C544 C551 1.409 . S
C545 H537 0.930 . S
C545 C543 1.419 . S
C545 C546 1.362 1_545 S
C546 H538 0.930 . S
C546 C545 1.362 1_565 S
C546 C549 1.409 . S
C547 H539 0.930 . S
C547 C548 1.355 . S
C547 C549 1.415 . S
C548 C547 1.355 . S
C548 C550 1.419 . S
C549 C544 1.425 . S
C549 C546 1.409 . S
C549 C547 1.415 . S
C550 H540 0.930 . S
C550 C548 1.419 . S
C550 C551 1.362 . S
C551 H541 0.930 . S
C551 C544 1.409 . S
C551 C550 1.362 . S
H552 C558 0.930 . S
H553 C561 0.930 . S
H554 C562 0.930 . S
H555 C563 0.930 . S
H556 C566 0.930 . S
H557 C567 0.930 . S
C558 H552 0.930 . S
C558 C559 1.355 . S
C558 C560 1.415 . S
C559 C558 1.355 . S
C559 C561 1.419 . S
C560 C558 1.415 . S
C560 C565 1.425 . S
C560 C567 1.409 . S
C561 H553 0.930 . S
C561 C559 1.419 . S
C561 C562 1.362 . S
C562 H554 0.930 . S
C562 C561 1.362 . S
C562 C565 1.409 . S
C563 H555 0.930 . S
C563 C564 1.355 . S
C563 C565 1.415 1_565 S
C564 C563 1.355 . S
C564 C566 1.419 . S
C565 C560 1.425 . S
C565 C562 1.409 . S
C565 C563 1.415 1_545 S
C566 H556 0.930 . S
C566 C564 1.419 . S
C566 C567 1.362 1_565 S
C567 H557 0.930 . S
C567 C560 1.409 . S
C567 C566 1.362 1_545 S
H568 C574 0.930 . S
H569 C577 0.930 . S
H570 C578 0.930 . S
H571 C579 0.930 . S
H572 C582 0.930 . S
H573 C583 0.930 . S
C574 H568 0.930 . S
C574 C575 1.355 . S
C574 C576 1.415 . S
C575 C574 1.355 . S
C575 C577 1.419 . S
C576 C574 1.415 . S
C576 C581 1.425 . S
C576 C583 1.409 1_655 S
C577 H569 0.930 . S
C577 C575 1.419 . S
C577 C578 1.362 . S
C578 H570 0.930 . S
C578 C577 1.362 . S
C578 C581 1.409 . S
C579 H571 0.930 . S
C579 C580 1.355 . S
C579 C581 1.415 1_455 S
C580 C579 1.355 . S
C580 C582 1.419 . S
C581 C576 1.425 . S
C581 C578 1.409 . S
C581 C579 1.415 1_655 S
C582 H572 0.930 . S
C582 C580 1.419 . S
C582 C583 1.362 . S
C583 H573 0.930 . S
C583 C576 1.409 1_455 S
C583 C582 1.362 . S
H584 C590 0.930 . S
H585 C593 0.930 . S
H586 C594 0.930 . S
H587 C595 0.930 . S
H588 C598 0.930 . S
H589 C599 0.930 . S
C590 H584 0.930 . S
C590 C591 1.355 . S
C590 C592 1.415 . S
C591 C590 1.355 . S
C591 C593 1.419 . S
C592 C590 1.415 . S
C592 C597 1.425 . S
C592 C599 1.409 . S
C593 H585 0.930 . S
C593 C591 1.419 . S
C593 C594 1.362 . S
C594 H586 0.930 . S
C594 C593 1.362 . S
C594 C597 1.409 . S
C595 H587 0.930 . S
C595 C596 1.355 . S
C595 C597 1.415 . S
C596 C595 1.355 . S
C596 C598 1.419 . S
C597 C592 1.425 . S
C597 C594 1.409 . S
C597 C595 1.415 . S
C598 H588 0.930 . S
C598 C596 1.419 . S
C598 C599 1.362 . S
C599 H589 0.930 . S
C599 C592 1.409 . S
C599 C598 1.362 . S
H600 C606 0.930 . S
H601 C609 0.930 . S
H602 C610 0.930 . S
H603 C611 0.930 . S
H604 C614 0.930 . S
H605 C615 0.930 . S
C606 H600 0.930 . S
C606 C607 1.355 . S
C606 C608 1.415 . S
C607 C606 1.355 . S
C607 C609 1.419 . S
C608 C606 1.415 . S
C608 C613 1.425 . S
C608 C615 1.409 . S
C609 H601 0.930 . S
C609 C607 1.419 . S
C609 C610 1.362 . S
C610 H602 0.930 . S
C610 C609 1.362 . S
C610 C613 1.409 . S
C611 H603 0.930 . S
C611 C612 1.355 . S
C611 C613 1.415 1_455 S
C612 C611 1.355 . S
C612 C614 1.419 . S
C613 C608 1.425 . S
C613 C610 1.409 . S
C613 C611 1.415 1_655 S
C614 H604 0.930 . S
C614 C612 1.419 . S
C614 C615 1.362 1_455 S
C615 H605 0.930 . S
C615 C608 1.409 . S
C615 C614 1.362 1_655 S
H616 C622 0.930 . S
H617 C625 0.930 . S
H618 C626 0.930 . S
H619 C627 0.930 . S
H620 C630 0.930 . S
H621 C631 0.930 . S
C622 H616 0.930 . S
C622 C623 1.355 . S
C622 C624 1.415 . S
C623 C622 1.355 . S
C623 C625 1.419 . S
C624 C622 1.415 . S
C624 C629 1.425 . S
C624 C631 1.409 . S
C625 H617 0.930 . S
C625 C623 1.419 . S
C625 C626 1.362 . S
C626 H618 0.930 . S
C626 C625 1.362 . S
C626 C629 1.409 . S
C627 H619 0.930 . S
C627 C628 1.355 . S
C627 C629 1.415 . S
C628 C627 1.355 . S
C628 C630 1.419 . S
C629 C624 1.425 . S
C629 C626 1.409 . S
C629 C627 1.415 . S
C630 H620 0.930 . S
C630 C628 1.419 . S
C630 C631 1.362 . S
C631 H621 0.930 . S
C631 C624 1.409 . S
C631 C630 1.362 . S
H632 C638 0.930 . S
H633 C641 0.930 . S
H634 C642 0.930 . S
H635 C643 0.930 . S
H636 C646 0.930 . S
H637 C647 0.930 . S
C638 H632 0.930 . S
C638 C639 1.355 . S
C638 C640 1.415 1_565 S
C639 C638 1.355 . S
C639 C641 1.419 . S
C640 C638 1.415 1_545 S
C640 C645 1.425 . S
C640 C647 1.409 . S
C641 H633 0.930 . S
C641 C639 1.419 . S
C641 C642 1.362 1_565 S
C642 H634 0.930 . S
C642 C641 1.362 1_545 S
C642 C645 1.409 . S
C643 H635 0.930 . S
C643 C644 1.355 . S
C643 C645 1.415 . S
C644 C643 1.355 . S
C644 C646 1.419 . S
C645 C640 1.425 . S
C645 C642 1.409 . S
C645 C643 1.415 . S
C646 H636 0.930 . S
C646 C644 1.419 . S
C646 C647 1.362 . S
C647 H637 0.930 . S
C647 C640 1.409 . S
C647 C646 1.362 . S
H648 C654 0.930 . S
H649 C657 0.930 . S
H650 C658 0.930 . S
H651 C659 0.930 . S
H652 C662 0.930 . S
H653 C663 0.930 . S
C654 H648 0.930 . S
C654 C655 1.355 . S
C654 C656 1.415 1_545 S
C655 C654 1.355 . S
C655 C657 1.419 . S
C656 C654 1.415 1_565 S
C656 C661 1.425 . S
C656 C663 1.409 . S
C657 H649 0.930 . S
C657 C655 1.419 . S
C657 C658 1.362 . S
C658 H650 0.930 . S
C658 C657 1.362 . S
C658 C661 1.409 1_545 S
C659 H651 0.930 . S
C659 C660 1.355 . S
C659 C661 1.415 . S
C660 C659 1.355 . S
C660 C662 1.419 . S
C661 C656 1.425 . S
C661 C658 1.409 1_565 S
C661 C659 1.415 . S
C662 H652 0.930 . S
C662 C660 1.419 . S
C662 C663 1.362 . S
C663 H653 0.930 . S
C663 C656 1.409 . S
C663 C662 1.362 . S
H664 C670 0.930 . S
H665 C673 0.930 . S
H666 C674 0.930 . S
H667 C675 0.930 . S
H668 C678 0.930 . S
H669 C679 0.930 . S
C670 H664 0.930 . S
C670 C671 1.355 . S
C670 C672 1.415 . S
C671 C670 1.355 . S
C671 C673 1.419 . S
C672 C670 1.415 . S
C672 C677 1.425 . S
C672 C679 1.409 1_455 S
C673 H665 0.930 . S
C673 C671 1.419 . S
C673 C674 1.362 . S
C674 H666 0.930 . S
C674 C673 1.362 . S
C674 C677 1.409 . S
C675 H667 0.930 . S
C675 C676 1.355 . S
C675 C677 1.415 1_655 S
C676 C675 1.355 . S
C676 C678 1.419 . S
C677 C672 1.425 . S
C677 C674 1.409 . S
C677 C675 1.415 1_455 S
C678 H668 0.930 . S
C678 C676 1.419 . S
C678 C679 1.362 . S
C679 H669 0.930 . S
C679 C672 1.409 1_655 S
C679 C678 1.362 . S
H680 C686 0.930 . S
H681 C689 0.930 . S
H682 C690 0.930 . S
H683 C691 0.930 . S
H684 C694 0.930 . S
H685 C695 0.930 . S
C686 H680 0.930 . S
C686 C687 1.355 . S
C686 C688 1.415 . S
C687 C686 1.355 . S
C687 C689 1.419 . S
C688 C686 1.415 . S
C688 C693 1.425 . S
C688 C695 1.409 . S
C689 H681 0.930 . S
C689 C687 1.419 . S
C689 C690 1.362 . S
C690 H682 0.930 . S
C690 C689 1.362 . S
C690 C693 1.409 . S
C691 H683 0.930 . S
C691 C692 1.355 . S
C691 C693 1.415 . S
C692 C691 1.355 . S
C692 C694 1.419 . S
C693 C688 1.425 . S
C693 C690 1.409 . S
C693 C691 1.415 . S
C694 H684 0.930 . S
C694 C692 1.419 . S
C694 C695 1.362 . S
C695 H685 0.930 . S
C695 C688 1.409 . S
C695 C694 1.362 . S
H696 C702 0.930 . S
H697 C705 0.930 . S
H698 C706 0.930 . S
H699 C707 0.930 . S
H700 C710 0.930 . S
H701 C711 0.930 . S
C702 H696 0.930 . S
C702 C703 1.355 . S
C702 C704 1.415 . S
C703 C702 1.355 . S
C703 C705 1.419 . S
C704 C702 1.415 . S
C704 C709 1.425 . S
C704 C711 1.409 . S
C705 H697 0.930 . S
C705 C703 1.419 . S
C705 C706 1.362 . S
C706 H698 0.930 . S
C706 C705 1.362 . S
C706 C709 1.409 . S
C707 H699 0.930 . S
C707 C708 1.355 . S
C707 C709 1.415 . S
C708 C707 1.355 . S
C708 C710 1.419 . S
C709 C704 1.425 . S
C709 C706 1.409 . S
C709 C707 1.415 . S
C710 H700 0.930 . S
C710 C708 1.419 . S
C710 C711 1.362 . S
C711 H701 0.930 . S
C711 C704 1.409 . S
C711 C710 1.362 . S
H712 C718 0.930 . S
H713 C721 0.930 . S
H714 C722 0.930 . S
H715 C723 0.930 . S
H716 C726 0.930 . S
H717 C727 0.930 . S
C718 H712 0.930 . S
C718 C719 1.355 . S
C718 C720 1.415 . S
C719 C718 1.355 . S
C719 C721 1.419 . S
C720 C718 1.415 . S
C720 C725 1.425 . S
C720 C727 1.409 . S
C721 H713 0.930 . S
C721 C719 1.419 . S
C721 C722 1.362 . S
C722 H714 0.930 . S
C722 C721 1.362 . S
C722 C725 1.409 . S
C723 H715 0.930 . S
C723 C724 1.355 . S
C723 C725 1.415 . S
C724 C723 1.355 . S
C724 C726 1.419 . S
C725 C720 1.425 . S
C725 C722 1.409 . S
C725 C723 1.415 . S
C726 H716 0.930 . S
C726 C724 1.419 . S
C726 C727 1.362 . S
C727 H717 0.930 . S
C727 C720 1.409 . S
C727 C726 1.362 . S
H728 C734 0.930 . S
H729 C737 0.930 . S
H730 C738 0.930 . S
H731 C739 0.930 . S
H732 C742 0.930 . S
H733 C743 0.930 . S
C734 H728 0.930 . S
C734 C735 1.355 . S
C734 C736 1.415 . S
C735 C734 1.355 . S
C735 C737 1.419 . S
C736 C734 1.415 . S
C736 C741 1.425 . S
C736 C743 1.409 . S
C737 H729 0.930 . S
C737 C735 1.419 . S
C737 C738 1.362 . S
C738 H730 0.930 . S
C738 C737 1.362 . S
C738 C741 1.409 . S
C739 H731 0.930 . S
C739 C740 1.355 . S
C739 C741 1.415 . S
C740 C739 1.355 . S
C740 C742 1.419 . S
C741 C736 1.425 . S
C741 C738 1.409 . S
C741 C739 1.415 . S
C742 H732 0.930 . S
C742 C740 1.419 . S
C742 C743 1.362 . S
C743 H733 0.930 . S
C743 C736 1.409 . S
C743 C742 1.362 . S
H744 C750 0.930 . S
H745 C753 0.930 . S
H746 C754 0.930 . S
H747 C755 0.930 . S
H748 C758 0.930 . S
H749 C759 0.930 . S
C750 H744 0.930 . S
C750 C751 1.355 . S
C750 C752 1.415 . S
C751 C750 1.355 . S
C751 C753 1.419 . S
C752 C750 1.415 . S
C752 C757 1.425 . S
C752 C759 1.409 . S
C753 H745 0.930 . S
C753 C751 1.419 . S
C753 C754 1.362 . S
C754 H746 0.930 . S
C754 C753 1.362 . S
C754 C757 1.409 . S
C755 H747 0.930 . S
C755 C756 1.355 . S
C755 C757 1.415 . S
C756 C755 1.355 . S
C756 C758 1.419 . S
C757 C752 1.425 . S
C757 C754 1.409 . S
C757 C755 1.415 . S
C758 H748 0.930 . S
C758 C756 1.419 . S
C758 C759 1.362 . S
C759 H749 0.930 . S
C759 C752 1.409 . S
C759 C758 1.362 . S
H760 C766 0.930 . S
H761 C769 0.930 . S
H762 C770 0.930 . S
H763 C771 0.930 . S
H764 C774 0.930 . S
H765 C775 0.930 . S
C766 H760 0.930 . S
C766 C767 1.355 . S
C766 C768 1.415 . S
C767 C766 1.355 . S
C767 C769 1.419 . S
C768 C766 1.415 . S
C768 C773 1.425 . S
C768 C775 1.409 . S
C769 H761 0.930 . S
C769 C767 1.419 . S
C769 C770 1.362 . S
C770 H762 0.930 . S
C770 C769 1.362 . S
C770 C773 1.409 . S
C771 H763 0.930 . S
C771 C772 1.355 . S
C771 C773 1.415 . S
C772 C771 1.355 . S
C772 C774 1.419 . S
C773 C768 1.425 . S
C773 C770 1.409 . S
C773 C771 1.415 . S
C774 H764 0.930 . S
C774 C772 1.419 . S
C774 C775 1.362 . S
C775 H765 0.930 . S
C775 C768 1.409 . S
C775 C774 1.362 . S
H776 C782 0.930 . S
H777 C785 0.930 . S
H778 C786 0.930 . S
H779 C787 0.930 . S
H780 C790 0.930 . S
H781 C791 0.930 . S
C782 H776 0.930 . S
C782 C783 1.355 . S
C782 C784 1.415 . S
C783 C782 1.355 . S
C783 C785 1.419 . S
C784 C782 1.415 . S
C784 C789 1.425 . S
C784 C791 1.409 . S
C785 H777 0.930 . S
C785 C783 1.419 . S
C785 C786 1.362 . S
C786 H778 0.930 . S
C786 C785 1.362 . S
C786 C789 1.409 . S
C787 H779 0.930 . S
C787 C788 1.355 . S
C787 C789 1.415 . S
C788 C787 1.355 . S
C788 C790 1.419 . S
C789 C784 1.425 . S
C789 C786 1.409 . S
C789 C787 1.415 . S
C790 H780 0.930 . S
C790 C788 1.419 . S
C790 C791 1.362 . S
C791 H781 0.930 . S
C791 C784 1.409 . S
C791 C790 1.362 . S
H792 C798 0.930 . S
H793 C801 0.930 . S
H794 C802 0.930 . S
H795 C803 0.930 . S
H796 C806 0.930 . S
H797 C807 0.930 . S
C798 H792 0.930 . S
C798 C799 1.355 . S
C798 C800 1.415 . S
C799 C798 1.355 . S
C799 C801 1.419 . S
C800 C798 1.415 . S
C800 C805 1.425 . S
C800 C807 1.409 . S
C801 H793 0.930 . S
C801 C799 1.419 . S
C801 C802 1.362 . S
C802 H794 0.930 . S
C802 C801 1.362 . S
C802 C805 1.409 . S
C803 H795 0.930 . S
C803 C804 1.355 . S
C803 C805 1.415 . S
C804 C803 1.355 . S
C804 C806 1.419 . S
C805 C800 1.425 . S
C805 C802 1.409 . S
C805 C803 1.415 . S
C806 H796 0.930 . S
C806 C804 1.419 . S
C806 C807 1.362 . S
C807 H797 0.930 . S
C807 C800 1.409 . S
C807 C806 1.362 . S
H808 C814 0.930 . S
H809 C817 0.930 . S
H810 C818 0.930 . S
H811 C819 0.930 . S
H812 C822 0.930 . S
H813 C823 0.930 . S
C814 H808 0.930 . S
C814 C815 1.355 . S
C814 C816 1.415 . S
C815 C814 1.355 . S
C815 C817 1.419 . S
C816 C814 1.415 . S
C816 C821 1.425 . S
C816 C823 1.409 . S
C817 H809 0.930 . S
C817 C815 1.419 . S
C817 C818 1.362 . S
C818 H810 0.930 . S
C818 C817 1.362 . S
C818 C821 1.409 . S
C819 H811 0.930 . S
C819 C820 1.355 . S
C819 C821 1.415 . S
C820 C819 1.355 . S
C820 C822 1.419 . S
C821 C816 1.425 . S
C821 C818 1.409 . S
C821 C819 1.415 . S
C822 H812 0.930 . S
C822 C820 1.419 . S
C822 C823 1.362 . S
C823 H813 0.930 . S
C823 C816 1.409 . S
C823 C822 1.362 . S
H824 C830 0.930 . S
H825 C833 0.930 . S
H826 C834 0.930 . S
H827 C835 0.930 . S
H828 C838 0.930 . S
H829 C839 0.930 . S
C830 H824 0.930 . S
C830 C831 1.355 . S
C830 C832 1.415 . S
C831 C830 1.355 . S
C831 C833 1.419 . S
C832 C830 1.415 . S
C832 C837 1.425 . S
C832 C839 1.409 . S
C833 H825 0.930 . S
C833 C831 1.419 . S
C833 C834 1.362 . S
C834 H826 0.930 . S
C834 C833 1.362 . S
C834 C837 1.409 . S
C835 H827 0.930 . S
C835 C836 1.355 . S
C835 C837 1.415 . S
C836 C835 1.355 . S
C836 C838 1.419 . S
C837 C832 1.425 . S
C837 C834 1.409 . S
C837 C835 1.415 . S
C838 H828 0.930 . S
C838 C836 1.419 . S
C838 C839 1.362 . S
C839 H829 0.930 . S
C839 C832 1.409 . S
C839 C838 1.362 . S
H840 C846 0.930 . S
H841 C849 0.930 . S
H842 C850 0.930 . S
H843 C851 0.930 . S
H844 C854 0.930 . S
H845 C855 0.930 . S
C846 H840 0.930 . S
C846 C847 1.355 . S
C846 C848 1.415 . S
C847 C846 1.355 . S
C847 C849 1.419 . S
C848 C846 1.415 . S
C848 C853 1.425 . S
C848 C855 1.409 . S
C849 H841 0.930 . S
C849 C847 1.419 . S
C849 C850 1.362 . S
C850 H842 0.930 . S
C850 C849 1.362 . S
C850 C853 1.409 . S
C851 H843 0.930 . S
C851 C852 1.355 . S
C851 C853 1.415 . S
C852 C851 1.355 . S
C852 C854 1.419 . S
C853 C848 1.425 . S
C853 C850 1.409 . S
C853 C851 1.415 . S
C854 H844 0.930 . S
C854 C852 1.419 . S
C854 C855 1.362 . S
C855 H845 0.930 . S
C855 C848 1.409 . S
C855 C854 1.362 . S
H856 C862 0.930 . S
H857 C865 0.930 . S
H858 C866 0.930 . S
H859 C867 0.930 . S
H860 C870 0.930 . S
H861 C871 0.930 . S
C862 H856 0.930 . S
C862 C863 1.355 . S
C862 C864 1.415 . S
C863 C862 1.355 . S
C863 C865 1.419 . S
C864 C862 1.415 . S
C864 C869 1.425 . S
C864 C871 1.409 . S
C865 H857 0.930 . S
C865 C863 1.419 . S
C865 C866 1.362 . S
C866 H858 0.930 . S
C866 C865 1.362 . S
C866 C869 1.409 . S
C867 H859 0.930 . S
C867 C868 1.355 . S
C867 C869 1.415 . S
C868 C867 1.355 . S
C868 C870 1.419 . S
C869 C864 1.425 . S
C869 C866 1.409 . S
C869 C867 1.415 . S
C870 H860 0.930 . S
C870 C868 1.419 . S
C870 C871 1.362 . S
C871 H861 0.930 . S
C871 C864 1.409 . S
C871 C870 1.362 . S
H872 C878 0.930 . S
H873 C881 0.930 . S
H874 C882 0.930 . S
H875 C883 0.930 . S
H876 C886 0.930 . S
H877 C887 0.930 . S
C878 H872 0.930 . S
C878 C879 1.355 . S
C878 C880 1.415 . S
C879 C878 1.355 . S
C879 C881 1.419 . S
C880 C878 1.415 . S
C880 C885 1.425 . S
C880 C887 1.409 . S
C881 H873 0.930 . S
C881 C879 1.419 . S
C881 C882 1.362 . S
C882 H874 0.930 . S
C882 C881 1.362 . S
C882 C885 1.409 . S
C883 H875 0.930 . S
C883 C884 1.355 . S
C883 C885 1.415 . S
C884 C883 1.355 . S
C884 C886 1.419 . S
C885 C880 1.425 . S
C885 C882 1.409 . S
C885 C883 1.415 . S
C886 H876 0.930 . S
C886 C884 1.419 . S
C886 C887 1.362 . S
C887 H877 0.930 . S
C887 C880 1.409 . S
C887 C886 1.362 . S
H888 C894 0.930 . S
H889 C897 0.930 . S
H890 C898 0.930 . S
H891 C899 0.930 . S
H892 C902 0.930 . S
H893 C903 0.930 . S
C894 H888 0.930 . S
C894 C895 1.355 . S
C894 C896 1.415 . S
C895 C894 1.355 . S
C895 C897 1.419 . S
C896 C894 1.415 . S
C896 C901 1.425 . S
C896 C903 1.409 . S
C897 H889 0.930 . S
C897 C895 1.419 . S
C897 C898 1.362 . S
C898 H890 0.930 . S
C898 C897 1.362 . S
C898 C901 1.409 . S
C899 H891 0.930 . S
C899 C900 1.355 . S
C899 C901 1.415 . S
C900 C899 1.355 . S
C900 C902 1.419 . S
C901 C896 1.425 . S
C901 C898 1.409 . S
C901 C899 1.415 . S
C902 H892 0.930 . S
C902 C900 1.419 . S
C902 C903 1.362 . S
C903 H893 0.930 . S
C903 C896 1.409 . S
C903 C902 1.362 . S
H904 C910 0.930 . S
H905 C913 0.930 . S
H906 C914 0.930 . S
H907 C915 0.930 . S
H908 C918 0.930 . S
H909 C919 0.930 . S
C910 H904 0.930 . S
C910 C911 1.355 . S
C910 C912 1.415 . S
C911 C910 1.355 . S
C911 C913 1.419 . S
C912 C910 1.415 . S
C912 C917 1.425 . S
C912 C919 1.409 . S
C913 H905 0.930 . S
C913 C911 1.419 . S
C913 C914 1.362 . S
C914 H906 0.930 . S
C914 C913 1.362 . S
C914 C917 1.409 . S
C915 H907 0.930 . S
C915 C916 1.355 . S
C915 C917 1.415 . S
C916 C915 1.355 . S
C916 C918 1.419 . S
C917 C912 1.425 . S
C917 C914 1.409 . S
C917 C915 1.415 . S
C918 H908 0.930 . S
C918 C916 1.419 . S
C918 C919 1.362 . S
C919 H909 0.930 . S
C919 C912 1.409 . S
C919 C918 1.362 . S
H920 C926 0.930 . S
H921 C929 0.930 . S
H922 C930 0.930 . S
H923 C931 0.930 . S
H924 C934 0.930 . S
H925 C935 0.930 . S
C926 H920 0.930 . S
C926 C927 1.355 . S
C926 C928 1.415 . S
C927 C926 1.355 . S
C927 C929 1.419 . S
C928 C926 1.415 . S
C928 C933 1.425 . S
C928 C935 1.409 . S
C929 H921 0.930 . S
C929 C927 1.419 . S
C929 C930 1.362 . S
C930 H922 0.930 . S
C930 C929 1.362 . S
C930 C933 1.409 . S
C931 H923 0.930 . S
C931 C932 1.355 . S
C931 C933 1.415 . S
C932 C931 1.355 . S
C932 C934 1.419 . S
C933 C928 1.425 . S
C933 C930 1.409 . S
C933 C931 1.415 . S
C934 H924 0.930 . S
C934 C932 1.419 . S
C934 C935 1.362 . S
C935 H925 0.930 . S
C935 C928 1.409 . S
C935 C934 1.362 . S
H936 C942 0.930 . S
H937 C945 0.930 . S
H938 C946 0.930 . S
H939 C947 0.930 . S
H940 C950 0.930 . S
H941 C951 0.930 . S
C942 H936 0.930 . S
C942 C943 1.355 . S
C942 C944 1.415 . S
C943 C942 1.355 . S
C943 C945 1.419 . S
C944 C942 1.415 . S
C944 C949 1.425 . S
C944 C951 1.409 . S
C945 H937 0.930 . S
C945 C943 1.419 . S
C945 C946 1.362 . S
C946 H938 0.930 . S
C946 C945 1.362 . S
C946 C949 1.409 . S
C947 H939 0.930 . S
C947 C948 1.355 . S
C947 C949 1.415 . S
C948 C947 1.355 . S
C948 C950 1.419 . S
C949 C944 1.425 . S
C949 C946 1.409 . S
C949 C947 1.415 . S
C950 H940 0.930 . S
C950 C948 1.419 . S
C950 C951 1.362 . S
C951 H941 0.930 . S
C951 C944 1.409 . S
C951 C950 1.362 . S
H952 C958 0.930 . S
H953 C961 0.919 1_554 S
H954 C962 0.874 1_554 S
H955 C963 0.930 . S
H956 C966 0.930 . S
H957 C967 0.930 . S
C958 H952 0.930 . S
C958 C959 1.355 . S
C958 C960 1.415 . S
C959 C958 1.355 . S
C959 C961 1.419 . S
C960 C958 1.415 . S
C960 C965 1.425 . S
C960 C967 1.409 . S
C961 H953 0.919 1_556 S
C961 C959 1.419 . S
C961 C962 1.362 . S
C962 H954 0.874 1_556 S
C962 C961 1.362 . S
C962 C965 1.409 . S
C963 H955 0.930 . S
C963 C964 1.355 . S
C963 C965 1.415 . S
C964 C963 1.355 . S
C964 C966 1.419 . S
C965 C960 1.425 . S
C965 C962 1.409 . S
C965 C963 1.415 . S
C966 H956 0.930 . S
C966 C964 1.419 . S
C966 C967 1.362 . S
C967 H957 0.930 . S
C967 C960 1.409 . S
C967 C966 1.362 . S
H968 C974 0.930 . S
H969 C977 0.930 . S
H970 C978 0.930 . S
H971 C979 0.930 . S
H972 C982 0.930 . S
H973 C983 0.930 . S
C974 H968 0.930 . S
C974 C975 1.355 . S
C974 C976 1.415 . S
C975 C974 1.355 . S
C975 C977 1.419 . S
C976 C974 1.415 . S
C976 C981 1.425 . S
C976 C983 1.409 . S
C977 H969 0.930 . S
C977 C975 1.419 . S
C977 C978 1.362 . S
C978 H970 0.930 . S
C978 C977 1.362 . S
C978 C981 1.409 . S
C979 H971 0.930 . S
C979 C980 1.355 . S
C979 C981 1.415 . S
C980 C979 1.355 . S
C980 C982 1.419 . S
C981 C976 1.425 . S
C981 C978 1.409 . S
C981 C979 1.415 . S
C982 H972 0.930 . S
C982 C980 1.419 . S
C982 C983 1.362 . S
C983 H973 0.930 . S
C983 C976 1.409 . S
C983 C982 1.362 . S
H984 C990 0.930 . S
H985 C993 0.930 . S
H986 C994 0.930 . S
H987 C995 0.930 . S
H988 C998 0.930 . S
H989 C999 0.930 . S
C990 H984 0.930 . S
C990 C991 1.355 . S
C990 C992 1.415 . S
C991 C990 1.355 . S
C991 C993 1.419 . S
C992 C990 1.415 . S
C992 C997 1.425 . S
C992 C999 1.409 . S
C993 H985 0.930 . S
C993 C991 1.419 . S
C993 C994 1.362 . S
C994 H986 0.930 . S
C994 C993 1.362 . S
C994 C997 1.409 . S
C995 H987 0.930 . S
C995 C996 1.355 . S
C995 C997 1.415 . S
C996 C995 1.355 . S
C996 C998 1.419 . S
C997 C992 1.425 . S
C997 C994 1.409 . S
C997 C995 1.415 . S
C998 H988 0.930 . S
C998 C996 1.419 . S
C998 C999 1.362 . S
C999 H989 0.930 . S
C999 C992 1.409 . S
C999 C998 1.362 . S
H1000 C1006 0.930 . S
H1001 C1009 0.930 . S
H1002 C1010 0.930 . S
H1003 C1011 0.930 . S
H1004 C1014 0.930 . S
H1005 C1015 0.930 . S
C1006 H1000 0.930 . S
C1006 C1007 1.355 . S
C1006 C1008 1.415 . S
C1007 C1006 1.355 . S
C1007 C1009 1.419 . S
C1008 C1006 1.415 . S
C1008 C1013 1.425 . S
C1008 C1015 1.409 . S
C1009 H1001 0.930 . S
C1009 C1007 1.419 . S
C1009 C1010 1.362 . S
C1010 H1002 0.930 . S
C1010 C1009 1.362 . S
C1010 C1013 1.409 . S
C1011 H1003 0.930 . S
C1011 C1012 1.355 . S
C1011 C1013 1.415 . S
C1012 C1011 1.355 . S
C1012 C1014 1.419 . S
C1013 C1008 1.425 . S
C1013 C1010 1.409 . S
C1013 C1011 1.415 . S
C1014 H1004 0.930 . S
C1014 C1012 1.419 . S
C1014 C1015 1.362 . S
C1015 H1005 0.930 . S
C1015 C1008 1.409 . S
C1015 C1014 1.362 . S
H1016 C1022 0.930 . S
H1017 C1025 0.930 . S
H1018 C1026 0.930 . S
H1019 C1027 0.930 . S
H1020 C1030 0.930 . S
H1021 C1031 0.930 . S
C1022 H1016 0.930 . S
C1022 C1023 1.355 . S
C1022 C1024 1.415 . S
C1023 C1022 1.355 . S
C1023 C1025 1.419 . S
C1024 C1022 1.415 . S
C1024 C1029 1.425 . S
C1024 C1031 1.409 . S
C1025 H1017 0.930 . S
C1025 C1023 1.419 . S
C1025 C1026 1.362 . S
C1026 H1018 0.930 . S
C1026 C1025 1.362 . S
C1026 C1029 1.409 . S
C1027 H1019 0.930 . S
C1027 C1028 1.355 . S
C1027 C1029 1.415 . S
C1028 C1027 1.355 . S
C1028 C1030 1.419 . S
C1029 C1024 1.425 . S
C1029 C1026 1.409 . S
C1029 C1027 1.415 . S
C1030 H1020 0.930 . S
C1030 C1028 1.419 . S
C1030 C1031 1.362 . S
C1031 H1021 0.930 . S
C1031 C1024 1.409 . S
C1031 C1030 1.362 . S
H1032 C1038 0.930 . S
H1033 C1041 0.930 . S
H1034 C1042 0.930 . S
H1035 C1043 0.930 . S
H1036 C1046 0.930 . S
H1037 C1047 0.930 . S
C1038 H1032 0.930 . S
C1038 C1039 1.355 . S
C1038 C1040 1.415 . S
C1039 C1038 1.355 . S
C1039 C1041 1.419 . S
C1040 C1038 1.415 . S
C1040 C1045 1.425 . S
C1040 C1047 1.409 . S
C1041 H1033 0.930 . S
C1041 C1039 1.419 . S
C1041 C1042 1.362 . S
C1042 H1034 0.930 . S
C1042 C1041 1.362 . S
C1042 C1045 1.409 . S
C1043 H1035 0.930 . S
C1043 C1044 1.355 . S
C1043 C1045 1.415 . S
C1044 C1043 1.355 . S
C1044 C1046 1.419 . S
C1045 C1040 1.425 . S
C1045 C1042 1.409 . S
C1045 C1043 1.415 . S
C1046 H1036 0.930 . S
C1046 C1044 1.419 . S
C1046 C1047 1.362 . S
C1047 H1037 0.930 . S
C1047 C1040 1.409 . S
C1047 C1046 1.362 . S
H1048 C1054 0.930 . S
H1049 C1057 0.930 . S
H1050 C1058 0.930 . S
H1051 C1059 0.930 . S
H1052 C1062 0.930 . S
H1053 C1063 0.930 . S
C1054 H1048 0.930 . S
C1054 C1055 1.355 . S
C1054 C1056 1.415 . S
C1055 C1054 1.355 . S
C1055 C1057 1.419 . S
C1056 C1054 1.415 . S
C1056 C1061 1.425 . S
C1056 C1063 1.409 . S
C1057 H1049 0.930 . S
C1057 C1055 1.419 . S
C1057 C1058 1.362 . S
C1058 H1050 0.930 . S
C1058 C1057 1.362 . S
C1058 C1061 1.409 . S
C1059 H1051 0.930 . S
C1059 C1060 1.355 . S
C1059 C1061 1.415 . S
C1060 C1059 1.355 . S
C1060 C1062 1.419 . S
C1061 C1056 1.425 . S
C1061 C1058 1.409 . S
C1061 C1059 1.415 . S
C1062 H1052 0.930 . S
C1062 C1060 1.419 . S
C1062 C1063 1.362 . S
C1063 H1053 0.930 . S
C1063 C1056 1.409 . S
C1063 C1062 1.362 . S
H1064 C1070 0.930 . S
H1065 C1073 0.930 . S
H1066 C1074 0.930 . S
H1067 C1075 0.930 . S
H1068 C1078 0.930 . S
H1069 C1079 0.930 . S
C1070 H1064 0.930 . S
C1070 C1071 1.355 . S
C1070 C1072 1.415 . S
C1071 C1070 1.355 . S
C1071 C1073 1.419 . S
C1072 C1070 1.415 . S
C1072 C1077 1.425 . S
C1072 C1079 1.409 . S
C1073 H1065 0.930 . S
C1073 C1071 1.419 . S
C1073 C1074 1.362 . S
C1074 H1066 0.930 . S
C1074 C1073 1.362 . S
C1074 C1077 1.409 . S
C1075 H1067 0.930 . S
C1075 C1076 1.355 . S
C1075 C1077 1.415 . S
C1076 C1075 1.355 . S
C1076 C1078 1.419 . S
C1077 C1072 1.425 . S
C1077 C1074 1.409 . S
C1077 C1075 1.415 . S
C1078 H1068 0.930 . S
C1078 C1076 1.419 . S
C1078 C1079 1.362 . S
C1079 H1069 0.930 . S
C1079 C1072 1.409 . S
C1079 C1078 1.362 . S
H1080 C1086 0.930 . S
H1081 C1089 0.930 . S
H1082 C1090 0.930 . S
H1083 C1091 0.930 . S
H1084 C1094 0.930 . S
H1085 C1095 0.930 . S
C1086 H1080 0.930 . S
C1086 C1087 1.355 . S
C1086 C1088 1.415 . S
C1087 C1086 1.355 . S
C1087 C1089 1.419 . S
C1088 C1086 1.415 . S
C1088 C1093 1.425 . S
C1088 C1095 1.409 . S
C1089 H1081 0.930 . S
C1089 C1087 1.419 . S
C1089 C1090 1.362 . S
C1090 H1082 0.930 . S
C1090 C1089 1.362 . S
C1090 C1093 1.409 . S
C1091 H1083 0.930 . S
C1091 C1092 1.355 . S
C1091 C1093 1.415 . S
C1092 C1091 1.355 . S
C1092 C1094 1.419 . S
C1093 C1088 1.425 . S
C1093 C1090 1.409 . S
C1093 C1091 1.415 . S
C1094 H1084 0.930 . S
C1094 C1092 1.419 . S
C1094 C1095 1.362 . S
C1095 H1085 0.930 . S
C1095 C1088 1.409 . S
C1095 C1094 1.362 . S
H1096 C1102 0.930 . S
H1097 C1105 0.930 . S
H1098 C1106 0.930 . S
H1099 C1107 0.930 . S
H1100 C1110 0.930 . S
H1101 C1111 0.930 . S
C1102 H1096 0.930 . S
C1102 C1103 1.355 1_565 S
C1102 C1104 1.415 . S
C1103 C1102 1.355 1_545 S
C1103 C1105 1.419 . S
C1104 C1102 1.415 . S
C1104 C1109 1.425 1_565 S
C1104 C1111 1.409 . S
C1105 H1097 0.930 . S
C1105 C1103 1.419 . S
C1105 C1106 1.362 . S
C1106 H1098 0.930 . S
C1106 C1105 1.362 . S
C1106 C1109 1.409 . S
C1107 H1099 0.930 . S
C1107 C1108 1.355 1_545 S
C1107 C1109 1.415 . S
C1108 C1107 1.355 1_565 S
C1108 C1110 1.419 . S
C1109 C1104 1.425 1_545 S
C1109 C1106 1.409 . S
C1109 C1107 1.415 . S
C1110 H1100 0.930 . S
C1110 C1108 1.419 . S
C1110 C1111 1.362 . S
C1111 H1101 0.930 . S
C1111 C1104 1.409 . S
C1111 C1110 1.362 . S
H1112 C1118 0.930 . S
H1113 C1121 0.930 . S
H1114 C1122 0.930 . S
H1115 C1123 0.930 . S
H1116 C1126 0.930 . S
H1117 C1127 0.930 . S
C1118 H1112 0.930 . S
C1118 C1119 1.355 1_655 S
C1118 C1120 1.415 . S
C1119 C1118 1.355 1_455 S
C1119 C1121 1.419 . S
C1120 C1118 1.415 . S
C1120 C1125 1.425 1_655 S
C1120 C1127 1.409 . S
C1121 H1113 0.930 . S
C1121 C1119 1.419 . S
C1121 C1122 1.362 . S
C1122 H1114 0.930 . S
C1122 C1121 1.362 . S
C1122 C1125 1.409 . S
C1123 H1115 0.930 . S
C1123 C1124 1.355 1_455 S
C1123 C1125 1.415 . S
C1124 C1123 1.355 1_655 S
C1124 C1126 1.419 . S
C1125 C1120 1.425 1_455 S
C1125 C1122 1.409 . S
C1125 C1123 1.415 . S
C1126 H1116 0.930 . S
C1126 C1124 1.419 . S
C1126 C1127 1.362 . S
C1127 H1117 0.930 . S
C1127 C1120 1.409 . S
C1127 C1126 1.362 . S
H1128 C1134 0.930 . S
H1129 C1137 0.930 . S
H1130 C1138 0.930 . S
H1131 C1139 0.930 . S
H1132 C1142 0.930 . S
H1133 C1143 0.930 . S
C1134 H1128 0.930 . S
C1134 C1135 1.355 . S
C1134 C1136 1.415 . S
C1135 C1134 1.355 . S
C1135 C1137 1.419 . S
C1136 C1134 1.415 . S
C1136 C1141 1.425 . S
C1136 C1143 1.409 . S
C1137 H1129 0.930 . S
C1137 C1135 1.419 . S
C1137 C1138 1.362 . S
C1138 H1130 0.930 . S
C1138 C1137 1.362 . S
C1138 C1141 1.409 . S
C1139 H1131 0.930 . S
C1139 C1140 1.355 . S
C1139 C1141 1.415 . S
C1140 C1139 1.355 . S
C1140 C1142 1.419 . S
C1141 C1136 1.425 . S
C1141 C1138 1.409 . S
C1141 C1139 1.415 . S
C1142 H1132 0.930 . S
C1142 C1140 1.419 . S
C1142 C1143 1.362 . S
C1143 H1133 0.930 . S
C1143 C1136 1.409 . S
C1143 C1142 1.362 . S
H1144 C1150 0.930 . S
H1145 C1153 0.930 . S
H1146 C1154 0.930 . S
H1147 C1155 0.930 . S
H1148 C1158 0.930 . S
H1149 C1159 0.930 . S
C1150 H1144 0.930 . S
C1150 C1151 1.361 . S
C1150 C1152 1.415 . S
C1151 C1150 1.361 . S
C1151 C1153 1.411 1_565 S
C1152 C1150 1.415 . S
C1152 C1157 1.425 1_565 S
C1152 C1159 1.409 . S
C1153 H1145 0.930 . S
C1153 C1151 1.411 1_545 S
C1153 C1154 1.362 . S
C1154 H1146 0.930 . S
C1154 C1153 1.362 . S
C1154 C1157 1.409 . S
C1155 H1147 0.930 . S
C1155 C1156 1.361 . S
C1155 C1157 1.415 . S
C1156 C1155 1.361 . S
C1156 C1158 1.411 1_545 S
C1157 C1152 1.425 1_545 S
C1157 C1154 1.409 . S
C1157 C1155 1.415 . S
C1158 H1148 0.930 . S
C1158 C1156 1.411 1_565 S
C1158 C1159 1.362 . S
C1159 H1149 0.930 . S
C1159 C1152 1.409 . S
C1159 C1158 1.362 . S
H1160 C1166 0.930 . S
H1161 C1169 0.930 . S
H1162 C1170 0.930 . S
H1163 C1171 0.930 . S
H1164 C1174 0.930 . S
H1165 C1175 0.930 . S
C1166 H1160 0.930 . S
C1166 C1167 1.364 . S
C1166 C1168 1.415 . S
C1167 C1166 1.364 . S
C1167 C1169 1.407 1_655 S
C1168 C1166 1.415 . S
C1168 C1173 1.425 1_655 S
C1168 C1175 1.409 . S
C1169 H1161 0.930 . S
C1169 C1167 1.407 1_455 S
C1169 C1170 1.362 . S
C1170 H1162 0.930 . S
C1170 C1169 1.362 . S
C1170 C1173 1.409 . S
C1171 H1163 0.930 . S
C1171 C1172 1.363 . S
C1171 C1173 1.415 . S
C1172 C1171 1.363 . S
C1172 C1174 1.407 1_455 S
C1173 C1168 1.425 1_455 S
C1173 C1170 1.409 . S
C1173 C1171 1.415 . S
C1174 H1164 0.930 . S
C1174 C1172 1.407 1_655 S
C1174 C1175 1.362 . S
C1175 H1165 0.930 . S
C1175 C1168 1.409 . S
C1175 C1174 1.362 . S
H1176 C1182 0.930 . S
H1177 C1185 0.930 . S
H1178 C1186 0.930 . S
H1179 C1187 0.930 . S
H1180 C1190 0.930 . S
H1181 C1191 0.930 . S
C1182 H1176 0.930 . S
C1182 C1183 1.355 . S
C1182 C1184 1.415 . S
C1183 C1182 1.355 . S
C1183 C1185 1.419 . S
C1184 C1182 1.415 . S
C1184 C1189 1.425 . S
C1184 C1191 1.409 . S
C1185 H1177 0.930 . S
C1185 C1183 1.419 . S
C1185 C1186 1.362 . S
C1186 H1178 0.930 . S
C1186 C1185 1.362 . S
C1186 C1189 1.409 . S
C1187 H1179 0.930 . S
C1187 C1188 1.355 . S
C1187 C1189 1.415 . S
C1188 C1187 1.355 . S
C1188 C1190 1.419 . S
C1189 C1184 1.425 . S
C1189 C1186 1.409 . S
C1189 C1187 1.415 . S
C1190 H1180 0.930 . S
C1190 C1188 1.419 . S
C1190 C1191 1.362 . S
C1191 H1181 0.930 . S
C1191 C1184 1.409 . S
C1191 C1190 1.362 . S
H1192 C1198 0.930 . S
H1193 C1201 0.930 . S
H1194 C1202 0.930 . S
H1195 C1203 0.930 . S
H1196 C1206 0.930 . S
H1197 C1207 0.930 . S
C1198 H1192 0.930 . S
C1198 C1199 1.355 . S
C1198 C1200 1.415 . S
C1199 C1198 1.355 . S
C1199 C1201 1.419 . S
C1200 C1198 1.415 . S
C1200 C1205 1.425 . S
C1200 C1207 1.409 . S
C1201 H1193 0.930 . S
C1201 C1199 1.419 . S
C1201 C1202 1.362 . S
C1202 H1194 0.930 . S
C1202 C1201 1.362 . S
C1202 C1205 1.409 . S
C1203 H1195 0.930 . S
C1203 C1204 1.355 . S
C1203 C1205 1.415 . S
C1204 C1203 1.355 . S
C1204 C1206 1.419 . S
C1205 C1200 1.425 . S
C1205 C1202 1.409 . S
C1205 C1203 1.415 . S
C1206 H1196 0.930 . S
C1206 C1204 1.419 . S
C1206 C1207 1.362 . S
C1207 H1197 0.930 . S
C1207 C1200 1.409 . S
C1207 C1206 1.362 . S
H1208 C1214 0.930 . S
H1209 C1217 0.930 . S
H1210 C1218 0.930 . S
H1211 C1219 0.930 . S
H1212 C1222 0.930 . S
H1213 C1223 0.930 . S
C1214 H1208 0.930 . S
C1214 C1215 1.355 . S
C1214 C1216 1.415 . S
C1215 C1214 1.355 . S
C1215 C1217 1.419 . S
C1216 C1214 1.415 . S
C1216 C1221 1.425 . S
C1216 C1223 1.409 . S
C1217 H1209 0.930 . S
C1217 C1215 1.419 . S
C1217 C1218 1.362 . S
C1218 H1210 0.930 . S
C1218 C1217 1.362 . S
C1218 C1221 1.409 . S
C1219 H1211 0.930 . S
C1219 C1220 1.355 . S
C1219 C1221 1.415 . S
C1220 C1219 1.355 . S
C1220 C1222 1.419 . S
C1221 C1216 1.425 . S
C1221 C1218 1.409 . S
C1221 C1219 1.415 . S
C1222 H1212 0.930 . S
C1222 C1220 1.419 . S
C1222 C1223 1.362 . S
C1223 H1213 0.930 . S
C1223 C1216 1.409 . S
C1223 C1222 1.362 . S
H1224 C1230 0.930 . S
H1225 C1233 0.930 . S
H1226 C1234 0.930 . S
H1227 C1235 0.930 . S
H1228 C1238 0.930 . S
H1229 C1239 0.930 . S
C1230 H1224 0.930 . S
C1230 C1231 1.355 . S
C1230 C1232 1.415 . S
C1231 C1230 1.355 . S
C1231 C1233 1.419 . S
C1232 C1230 1.415 . S
C1232 C1237 1.425 . S
C1232 C1239 1.409 . S
C1233 H1225 0.930 . S
C1233 C1231 1.419 . S
C1233 C1234 1.362 . S
C1234 H1226 0.930 . S
C1234 C1233 1.362 . S
C1234 C1237 1.409 . S
C1235 H1227 0.930 . S
C1235 C1236 1.355 . S
C1235 C1237 1.415 . S
C1236 C1235 1.355 . S
C1236 C1238 1.419 . S
C1237 C1232 1.425 . S
C1237 C1234 1.409 . S
C1237 C1235 1.415 . S
C1238 H1228 0.930 . S
C1238 C1236 1.419 . S
C1238 C1239 1.362 . S
C1239 H1229 0.930 . S
C1239 C1232 1.409 . S
C1239 C1238 1.362 . S
H1240 C1246 0.930 . S
H1241 C1249 0.930 . S
H1242 C1250 0.930 . S
H1243 C1251 0.930 . S
H1244 C1254 0.930 . S
H1245 C1255 0.930 . S
C1246 H1240 0.930 . S
C1246 C1247 1.355 . S
C1246 C1248 1.415 . S
C1247 C1246 1.355 . S
C1247 C1249 1.419 . S
C1248 C1246 1.415 . S
C1248 C1253 1.425 . S
C1248 C1255 1.409 . S
C1249 H1241 0.930 . S
C1249 C1247 1.419 . S
C1249 C1250 1.362 . S
C1250 H1242 0.930 . S
C1250 C1249 1.362 . S
C1250 C1253 1.409 . S
C1251 H1243 0.930 . S
C1251 C1252 1.355 . S
C1251 C1253 1.415 . S
C1252 C1251 1.355 . S
C1252 C1254 1.419 . S
C1253 C1248 1.425 . S
C1253 C1250 1.409 . S
C1253 C1251 1.415 . S
C1254 H1244 0.930 . S
C1254 C1252 1.419 . S
C1254 C1255 1.362 . S
C1255 H1245 0.930 . S
C1255 C1248 1.409 . S
C1255 C1254 1.362 . S
H1256 C1262 0.930 . S
H1257 C1265 0.930 . S
H1258 C1266 0.930 . S
H1259 C1267 0.930 . S
H1260 C1270 0.930 . S
H1261 C1271 0.930 . S
C1262 H1256 0.930 . S
C1262 C1263 1.355 . S
C1262 C1264 1.415 . S
C1263 C1262 1.355 . S
C1263 C1265 1.419 . S
C1264 C1262 1.415 . S
C1264 C1269 1.425 . S
C1264 C1271 1.409 . S
C1265 H1257 0.930 . S
C1265 C1263 1.419 . S
C1265 C1266 1.362 . S
C1266 H1258 0.930 . S
C1266 C1265 1.362 . S
C1266 C1269 1.409 . S
C1267 H1259 0.930 . S
C1267 C1268 1.355 . S
C1267 C1269 1.415 . S
C1268 C1267 1.355 . S
C1268 C1270 1.419 . S
C1269 C1264 1.425 . S
C1269 C1266 1.409 . S
C1269 C1267 1.415 . S
C1270 H1260 0.930 . S
C1270 C1268 1.419 . S
C1270 C1271 1.362 . S
C1271 H1261 0.930 . S
C1271 C1264 1.409 . S
C1271 C1270 1.362 . S
H1272 C1278 0.930 . S
H1273 C1281 0.930 . S
H1274 C1282 0.930 . S
H1275 C1283 0.930 . S
H1276 C1286 0.930 . S
H1277 C1287 0.930 . S
C1278 H1272 0.930 . S
C1278 C1279 1.355 . S
C1278 C1280 1.415 . S
C1279 C1278 1.355 . S
C1279 C1281 1.419 . S
C1280 C1278 1.415 . S
C1280 C1285 1.425 . S
C1280 C1287 1.409 . S
C1281 H1273 0.930 . S
C1281 C1279 1.419 . S
C1281 C1282 1.362 . S
C1282 H1274 0.930 . S
C1282 C1281 1.362 . S
C1282 C1285 1.409 . S
C1283 H1275 0.930 . S
C1283 C1284 1.355 . S
C1283 C1285 1.415 . S
C1284 C1283 1.355 . S
C1284 C1286 1.419 . S
C1285 C1280 1.425 . S
C1285 C1282 1.409 . S
C1285 C1283 1.415 . S
C1286 H1276 0.930 . S
C1286 C1284 1.419 . S
C1286 C1287 1.362 . S
C1287 H1277 0.930 . S
C1287 C1280 1.409 . S
C1287 C1286 1.362 . S
H1288 C1294 0.930 . S
H1289 C1297 0.930 . S
H1290 C1298 0.930 . S
H1291 C1299 0.930 . S
H1292 C1302 0.930 . S
H1293 C1303 0.930 . S
C1294 H1288 0.930 . S
C1294 C1295 1.355 . S
C1294 C1296 1.415 . S
C1295 C1294 1.355 . S
C1295 C1297 1.419 . S
C1296 C1294 1.415 . S
C1296 C1301 1.425 . S
C1296 C1303 1.409 . S
C1297 H1289 0.930 . S
C1297 C1295 1.419 . S
C1297 C1298 1.362 . S
C1298 H1290 0.930 . S
C1298 C1297 1.362 . S
C1298 C1301 1.409 . S
C1299 H1291 0.930 . S
C1299 C1300 1.355 . S
C1299 C1301 1.415 . S
C1300 C1299 1.355 . S
C1300 C1302 1.419 . S
C1301 C1296 1.425 . S
C1301 C1298 1.409 . S
C1301 C1299 1.415 . S
C1302 H1292 0.930 . S
C1302 C1300 1.419 . S
C1302 C1303 1.362 . S
C1303 H1293 0.930 . S
C1303 C1296 1.409 . S
C1303 C1302 1.362 . S
H1304 C1310 0.930 . S
H1305 C1313 0.930 . S
H1306 C1314 0.930 . S
H1307 C1315 0.930 . S
H1308 C1318 0.930 . S
H1309 C1319 0.930 . S
C1310 H1304 0.930 . S
C1310 C1311 1.355 . S
C1310 C1312 1.415 . S
C1311 C1310 1.355 . S
C1311 C1313 1.419 . S
C1312 C1310 1.415 . S
C1312 C1317 1.425 . S
C1312 C1319 1.409 . S
C1313 H1305 0.930 . S
C1313 C1311 1.419 . S
C1313 C1314 1.362 . S
C1314 H1306 0.930 . S
C1314 C1313 1.362 . S
C1314 C1317 1.409 . S
C1315 H1307 0.930 . S
C1315 C1316 1.355 . S
C1315 C1317 1.415 . S
C1316 C1315 1.355 . S
C1316 C1318 1.419 . S
C1317 C1312 1.425 . S
C1317 C1314 1.409 . S
C1317 C1315 1.415 . S
C1318 H1308 0.930 . S
C1318 C1316 1.419 . S
C1318 C1319 1.362 . S
C1319 H1309 0.930 . S
C1319 C1312 1.409 . S
C1319 C1318 1.362 . S
H1320 C1326 0.930 . S
H1321 C1329 0.930 . S
H1322 C1330 0.930 . S
H1323 C1331 0.930 . S
H1324 C1334 0.930 . S
H1325 C1335 0.930 . S
C1326 H1320 0.930 . S
C1326 C1327 1.355 . S
C1326 C1328 1.415 . S
C1327 C1326 1.355 . S
C1327 C1329 1.419 . S
C1328 C1326 1.415 . S
C1328 C1333 1.425 . S
C1328 C1335 1.409 . S
C1329 H1321 0.930 . S
C1329 C1327 1.419 . S
C1329 C1330 1.362 . S
C1330 H1322 0.930 . S
C1330 C1329 1.362 . S
C1330 C1333 1.409 . S
C1331 H1323 0.930 . S
C1331 C1332 1.355 . S
C1331 C1333 1.415 . S
C1332 C1331 1.355 . S
C1332 C1334 1.419 . S
C1333 C1328 1.425 . S
C1333 C1330 1.409 . S
C1333 C1331 1.415 . S
C1334 H1324 0.930 . S
C1334 C1332 1.419 . S
C1334 C1335 1.362 . S
C1335 H1325 0.930 . S
C1335 C1328 1.409 . S
C1335 C1334 1.362 . S
H1336 C1342 0.930 . S
H1337 C1345 0.930 . S
H1338 C1346 0.930 . S
H1339 C1347 0.930 . S
H1340 C1350 0.930 . S
H1341 C1351 0.930 . S
C1342 H1336 0.930 . S
C1342 C1343 1.355 . S
C1342 C1344 1.415 . S
C1343 C1342 1.355 . S
C1343 C1345 1.419 . S
C1344 C1342 1.415 . S
C1344 C1349 1.425 . S
C1344 C1351 1.409 . S
C1345 H1337 0.930 . S
C1345 C1343 1.419 . S
C1345 C1346 1.362 . S
C1346 H1338 0.930 . S
C1346 C1345 1.362 . S
C1346 C1349 1.409 . S
C1347 H1339 0.930 . S
C1347 C1348 1.355 . S
C1347 C1349 1.415 . S
C1348 C1347 1.355 . S
C1348 C1350 1.419 . S
C1349 C1344 1.425 . S
C1349 C1346 1.409 . S
C1349 C1347 1.415 . S
C1350 H1340 0.930 . S
C1350 C1348 1.419 . S
C1350 C1351 1.362 . S
C1351 H1341 0.930 . S
C1351 C1344 1.409 . S
C1351 C1350 1.362 . S
H1352 C1358 0.930 . S
H1353 C1361 0.930 . S
H1354 C1362 0.930 . S
H1355 C1363 0.930 . S
H1356 C1366 0.930 . S
H1357 C1367 0.930 . S
C1358 H1352 0.930 . S
C1358 C1359 1.355 . S
C1358 C1360 1.415 . S
C1359 C1358 1.355 . S
C1359 C1361 1.419 . S
C1360 C1358 1.415 . S
C1360 C1365 1.425 . S
C1360 C1367 1.409 . S
C1361 H1353 0.930 . S
C1361 C1359 1.419 . S
C1361 C1362 1.362 . S
C1362 H1354 0.930 . S
C1362 C1361 1.362 . S
C1362 C1365 1.409 . S
C1363 H1355 0.930 . S
C1363 C1364 1.355 . S
C1363 C1365 1.415 . S
C1364 C1363 1.355 . S
C1364 C1366 1.419 . S
C1365 C1360 1.425 . S
C1365 C1362 1.409 . S
C1365 C1363 1.415 . S
C1366 H1356 0.930 . S
C1366 C1364 1.419 . S
C1366 C1367 1.362 . S
C1367 H1357 0.930 . S
C1367 C1360 1.409 . S
C1367 C1366 1.362 . S
H1368 C1374 0.930 . S
H1369 C1377 0.930 . S
H1370 C1378 0.930 . S
H1371 C1379 0.930 . S
H1372 C1382 0.930 . S
H1373 C1383 0.930 . S
C1374 H1368 0.930 . S
C1374 C1375 1.355 . S
C1374 C1376 1.415 . S
C1375 C1374 1.355 . S
C1375 C1377 1.419 . S
C1376 C1374 1.415 . S
C1376 C1381 1.425 . S
C1376 C1383 1.409 . S
C1377 H1369 0.930 . S
C1377 C1375 1.419 . S
C1377 C1378 1.362 . S
C1378 H1370 0.930 . S
C1378 C1377 1.362 . S
C1378 C1381 1.409 . S
C1379 H1371 0.930 . S
C1379 C1380 1.355 . S
C1379 C1381 1.415 . S
C1380 C1379 1.355 . S
C1380 C1382 1.419 . S
C1381 C1376 1.425 . S
C1381 C1378 1.409 . S
C1381 C1379 1.415 . S
C1382 H1372 0.930 . S
C1382 C1380 1.419 . S
C1382 C1383 1.362 . S
C1383 H1373 0.930 . S
C1383 C1376 1.409 . S
C1383 C1382 1.362 . S
H1384 C1390 0.930 . S
H1385 C1393 0.930 . S
H1386 C1394 0.930 . S
H1387 C1395 0.930 . S
H1388 C1398 0.930 . S
H1389 C1399 0.930 . S
C1390 H1384 0.930 . S
C1390 C1391 1.355 . S
C1390 C1392 1.415 . S
C1391 C1390 1.355 . S
C1391 C1393 1.419 . S
C1392 C1390 1.415 . S
C1392 C1397 1.425 . S
C1392 C1399 1.409 . S
C1393 H1385 0.930 . S
C1393 C1391 1.419 . S
C1393 C1394 1.362 . S
C1394 H1386 0.930 . S
C1394 C1393 1.362 . S
C1394 C1397 1.409 . S
C1395 H1387 0.930 . S
C1395 C1396 1.355 . S
C1395 C1397 1.415 . S
C1396 C1395 1.355 . S
C1396 C1398 1.419 . S
C1397 C1392 1.425 . S
C1397 C1394 1.409 . S
C1397 C1395 1.415 . S
C1398 H1388 0.930 . S
C1398 C1396 1.419 . S
C1398 C1399 1.362 . S
C1399 H1389 0.930 . S
C1399 C1392 1.409 . S
C1399 C1398 1.362 . S
H1400 C1406 0.930 . S
H1401 C1409 0.930 . S
H1402 C1410 0.930 . S
H1403 C1411 0.930 . S
H1404 C1414 0.930 . S
H1405 C1415 0.930 . S
C1406 H1400 0.930 . S
C1406 C1407 1.355 . S
C1406 C1408 1.415 . S
C1407 C1406 1.355 . S
C1407 C1409 1.419 . S
C1408 C1406 1.415 . S
C1408 C1413 1.425 . S
C1408 C1415 1.409 . S
C1409 H1401 0.930 . S
C1409 C1407 1.419 . S
C1409 C1410 1.362 . S
C1410 H1402 0.930 . S
C1410 C1409 1.362 . S
C1410 C1413 1.409 . S
C1411 H1403 0.930 . S
C1411 C1412 1.355 . S
C1411 C1413 1.415 . S
C1412 C1411 1.355 . S
C1412 C1414 1.419 . S
C1413 C1408 1.425 . S
C1413 C1410 1.409 . S
C1413 C1411 1.415 . S
C1414 H1404 0.930 . S
C1414 C1412 1.419 . S
C1414 C1415 1.362 . S
C1415 H1405 0.930 . S
C1415 C1408 1.409 . S
C1415 C1414 1.362 . S
H1416 C1422 0.930 . S
H1417 C1425 0.930 . S
H1418 C1426 0.930 . S
H1419 C1427 0.930 . S
H1420 C1430 0.930 . S
H1421 C1431 0.930 . S
C1422 H1416 0.930 . S
C1422 C1423 1.355 . S
C1422 C1424 1.415 . S
C1423 C1422 1.355 . S
C1423 C1425 1.419 . S
C1424 C1422 1.415 . S
C1424 C1429 1.425 . S
C1424 C1431 1.409 . S
C1425 H1417 0.930 . S
C1425 C1423 1.419 . S
C1425 C1426 1.362 . S
C1426 H1418 0.930 . S
C1426 C1425 1.362 . S
C1426 C1429 1.409 . S
C1427 H1419 0.930 . S
C1427 C1428 1.355 . S
C1427 C1429 1.415 . S
C1428 C1427 1.355 . S
C1428 C1430 1.419 . S
C1429 C1424 1.425 . S
C1429 C1426 1.409 . S
C1429 C1427 1.415 . S
C1430 H1420 0.930 . S
C1430 C1428 1.419 . S
C1430 C1431 1.362 . S
C1431 H1421 0.930 . S
C1431 C1424 1.409 . S
C1431 C1430 1.362 . S
H1432 C1438 0.930 . S
H1433 C1441 0.930 . S
H1434 C1442 0.930 . S
H1435 C1443 0.930 . S
H1436 C1446 0.930 . S
H1437 C1447 0.930 . S
C1438 H1432 0.930 . S
C1438 C1439 1.355 . S
C1438 C1440 1.415 . S
C1439 C1438 1.355 . S
C1439 C1441 1.419 . S
C1440 C1438 1.415 . S
C1440 C1445 1.425 . S
C1440 C1447 1.409 . S
C1441 H1433 0.930 . S
C1441 C1439 1.419 . S
C1441 C1442 1.362 . S
C1442 H1434 0.930 . S
C1442 C1441 1.362 . S
C1442 C1445 1.409 . S
C1443 H1435 0.930 . S
C1443 C1444 1.355 . S
C1443 C1445 1.415 . S
C1444 C1443 1.355 . S
C1444 C1446 1.419 . S
C1445 C1440 1.425 . S
C1445 C1442 1.409 . S
C1445 C1443 1.415 . S
C1446 H1436 0.930 . S
C1446 C1444 1.419 . S
C1446 C1447 1.362 . S
C1447 H1437 0.930 . S
C1447 C1440 1.409 . S
C1447 C1446 1.362 . S
H1448 C1454 0.930 . S
H1449 C1457 0.930 . S
H1450 C1458 0.930 . S
H1451 C1459 0.930 . S
H1452 C1462 0.930 . S
H1453 C1463 0.930 . S
C1454 H1448 0.930 . S
C1454 C1455 1.355 . S
C1454 C1456 1.415 . S
C1455 C1454 1.355 . S
C1455 C1457 1.419 . S
C1456 C1454 1.415 . S
C1456 C1461 1.425 . S
C1456 C1463 1.409 . S
C1457 H1449 0.930 . S
C1457 C1455 1.419 . S
C1457 C1458 1.362 . S
C1458 H1450 0.930 . S
C1458 C1457 1.362 . S
C1458 C1461 1.409 . S
C1459 H1451 0.930 . S
C1459 C1460 1.355 . S
C1459 C1461 1.415 . S
C1460 C1459 1.355 . S
C1460 C1462 1.419 . S
C1461 C1456 1.425 . S
C1461 C1458 1.409 . S
C1461 C1459 1.415 . S
C1462 H1452 0.930 . S
C1462 C1460 1.419 . S
C1462 C1463 1.362 . S
C1463 H1453 0.930 . S
C1463 C1456 1.409 . S
C1463 C1462 1.362 . S
H1464 C1470 0.930 . S
H1465 C1473 0.930 . S
H1466 C1474 0.930 . S
H1467 C1475 0.930 . S
H1468 C1478 0.930 . S
H1469 C1479 0.930 . S
C1470 H1464 0.930 . S
C1470 C1471 1.355 . S
C1470 C1472 1.415 . S
C1471 C1470 1.355 . S
C1471 C1473 1.419 . S
C1472 C1470 1.415 . S
C1472 C1477 1.425 . S
C1472 C1479 1.409 . S
C1473 H1465 0.930 . S
C1473 C1471 1.419 . S
C1473 C1474 1.362 . S
C1474 H1466 0.930 . S
C1474 C1473 1.362 . S
C1474 C1477 1.409 . S
C1475 H1467 0.930 . S
C1475 C1476 1.355 . S
C1475 C1477 1.415 . S
C1476 C1475 1.355 . S
C1476 C1478 1.419 . S
C1477 C1472 1.425 . S
C1477 C1474 1.409 . S
C1477 C1475 1.415 . S
C1478 H1468 0.930 . S
C1478 C1476 1.419 . S
C1478 C1479 1.362 . S
C1479 H1469 0.930 . S
C1479 C1472 1.409 . S
C1479 C1478 1.362 . S
H1480 C1486 0.930 . S
H1481 C1489 0.930 . S
H1482 C1490 0.930 . S
H1483 C1491 0.930 . S
H1484 C1494 0.930 . S
H1485 C1495 0.930 . S
C1486 H1480 0.930 . S
C1486 C1487 1.355 . S
C1486 C1488 1.415 . S
C1487 C1486 1.355 . S
C1487 C1489 1.419 . S
C1488 C1486 1.415 . S
C1488 C1493 1.425 . S
C1488 C1495 1.409 . S
C1489 H1481 0.930 . S
C1489 C1487 1.419 . S
C1489 C1490 1.362 . S
C1490 H1482 0.930 . S
C1490 C1489 1.362 . S
C1490 C1493 1.409 . S
C1491 H1483 0.930 . S
C1491 C1492 1.355 . S
C1491 C1493 1.415 . S
C1492 C1491 1.355 . S
C1492 C1494 1.419 . S
C1493 C1488 1.425 . S
C1493 C1490 1.409 . S
C1493 C1491 1.415 . S
C1494 H1484 0.930 . S
C1494 C1492 1.419 . S
C1494 C1495 1.362 . S
C1495 H1485 0.930 . S
C1495 C1488 1.409 . S
C1495 C1494 1.362 . S
H1496 C1502 0.930 . S
H1497 C1505 0.930 . S
H1498 C1506 0.930 . S
H1499 C1507 0.930 . S
H1500 C1510 0.930 . S
H1501 C1511 0.930 . S
C1502 H1496 0.930 . S
C1502 C1503 1.355 . S
C1502 C1504 1.415 . S
C1503 C1502 1.355 . S
C1503 C1505 1.419 . S
C1504 C1502 1.415 . S
C1504 C1509 1.425 . S
C1504 C1511 1.409 . S
C1505 H1497 0.930 . S
C1505 C1503 1.419 . S
C1505 C1506 1.362 . S
C1506 H1498 0.930 . S
C1506 C1505 1.362 . S
C1506 C1509 1.409 . S
C1507 H1499 0.930 . S
C1507 C1508 1.355 . S
C1507 C1509 1.415 . S
C1508 C1507 1.355 . S
C1508 C1510 1.419 . S
C1509 C1504 1.425 . S
C1509 C1506 1.409 . S
C1509 C1507 1.415 . S
C1510 H1500 0.930 . S
C1510 C1508 1.419 . S
C1510 C1511 1.362 . S
C1511 H1501 0.930 . S
C1511 C1504 1.409 . S
C1511 C1510 1.362 . S
H1512 C1518 0.930 . S
H1513 C1521 0.930 . S
H1514 C1522 0.930 . S
H1515 C1523 0.930 . S
H1516 C1526 0.930 . S
H1517 C1527 0.930 . S
C1518 H1512 0.930 . S
C1518 C1519 1.355 . S
C1518 C1520 1.415 . S
C1519 C1518 1.355 . S
C1519 C1521 1.419 . S
C1520 C1518 1.415 . S
C1520 C1525 1.425 . S
C1520 C1527 1.409 . S
C1521 H1513 0.930 . S
C1521 C1519 1.419 . S
C1521 C1522 1.362 . S
C1522 H1514 0.930 . S
C1522 C1521 1.362 . S
C1522 C1525 1.409 . S
C1523 H1515 0.930 . S
C1523 C1524 1.355 . S
C1523 C1525 1.415 . S
C1524 C1523 1.355 . S
C1524 C1526 1.419 . S
C1525 C1520 1.425 . S
C1525 C1522 1.409 . S
C1525 C1523 1.415 . S
C1526 H1516 0.930 . S
C1526 C1524 1.419 . S
C1526 C1527 1.362 . S
C1527 H1517 0.930 . S
C1527 C1520 1.409 . S
C1527 C1526 1.362 . S
H1528 C1534 0.930 . S
H1529 C1537 0.930 . S
H1530 C1538 0.930 . S
H1531 C1539 0.930 . S
H1532 C1542 0.930 . S
H1533 C1543 0.930 . S
C1534 H1528 0.930 . S
C1534 C1535 1.355 . S
C1534 C1536 1.415 . S
C1535 C1534 1.355 . S
C1535 C1537 1.419 . S
C1536 C1534 1.415 . S
C1536 C1541 1.425 . S
C1536 C1543 1.409 . S
C1537 H1529 0.930 . S
C1537 C1535 1.419 . S
C1537 C1538 1.362 . S
C1538 H1530 0.930 . S
C1538 C1537 1.362 . S
C1538 C1541 1.409 . S
C1539 H1531 0.930 . S
C1539 C1540 1.355 . S
C1539 C1541 1.415 . S
C1540 C1539 1.355 . S
C1540 C1542 1.419 . S
C1541 C1536 1.425 . S
C1541 C1538 1.409 . S
C1541 C1539 1.415 . S
C1542 H1532 0.930 . S
C1542 C1540 1.419 . S
C1542 C1543 1.362 . S
C1543 H1533 0.930 . S
C1543 C1536 1.409 . S
C1543 C1542 1.362 . S
H1544 C1550 0.930 . S
H1545 C1553 0.930 . S
H1546 C1554 0.930 . S
H1547 C1555 0.930 . S
H1548 C1558 0.930 . S
H1549 C1559 0.930 . S
C1550 H1544 0.930 . S
C1550 C1551 1.355 . S
C1550 C1552 1.415 . S
C1551 C1550 1.355 . S
C1551 C1553 1.419 . S
C1552 C1550 1.415 . S
C1552 C1557 1.425 . S
C1552 C1559 1.409 . S
C1553 H1545 0.930 . S
C1553 C1551 1.419 . S
C1553 C1554 1.362 . S
C1554 H1546 0.930 . S
C1554 C1553 1.362 . S
C1554 C1557 1.409 . S
C1555 H1547 0.930 . S
C1555 C1556 1.355 . S
C1555 C1557 1.415 . S
C1556 C1555 1.355 . S
C1556 C1558 1.419 . S
C1557 C1552 1.425 . S
C1557 C1554 1.409 . S
C1557 C1555 1.415 . S
C1558 H1548 0.930 . S
C1558 C1556 1.419 . S
C1558 C1559 1.362 . S
C1559 H1549 0.930 . S
C1559 C1552 1.409 . S
C1559 C1558 1.362 . S
H1560 C1566 0.930 . S
H1561 C1569 0.930 . S
H1562 C1570 0.930 . S
H1563 C1571 0.930 . S
H1564 C1574 0.930 . S
H1565 C1575 0.930 . S
C1566 H1560 0.930 . S
C1566 C1567 1.355 . S
C1566 C1568 1.415 . S
C1567 C1566 1.355 . S
C1567 C1569 1.419 . S
C1568 C1566 1.415 . S
C1568 C1573 1.425 1_455 S
C1568 C1575 1.409 . S
C1569 H1561 0.930 . S
C1569 C1567 1.419 . S
C1569 C1570 1.362 1_455 S
C1570 H1562 0.930 . S
C1570 C1569 1.362 1_655 S
C1570 C1573 1.409 . S
C1571 H1563 0.930 . S
C1571 C1572 1.355 . S
C1571 C1573 1.415 . S
C1572 C1571 1.355 . S
C1572 C1574 1.419 . S
C1573 C1568 1.425 1_655 S
C1573 C1570 1.409 . S
C1573 C1571 1.415 . S
C1574 H1564 0.930 . S
C1574 C1572 1.419 . S
C1574 C1575 1.362 1_655 S
C1575 H1565 0.930 . S
C1575 C1568 1.409 . S
C1575 C1574 1.362 1_455 S
H1576 C1582 0.930 . S
H1577 C1585 0.930 . S
H1578 C1586 0.930 . S
H1579 C1587 0.930 . S
H1580 C1590 0.930 . S
H1581 C1591 0.930 . S
C1582 H1576 0.930 . S
C1582 C1583 1.355 . S
C1582 C1584 1.415 . S
C1583 C1582 1.355 . S
C1583 C1585 1.419 . S
C1584 C1582 1.415 . S
C1584 C1589 1.425 . S
C1584 C1591 1.409 . S
C1585 H1577 0.930 . S
C1585 C1583 1.419 . S
C1585 C1586 1.362 . S
C1586 H1578 0.930 . S
C1586 C1585 1.362 . S
C1586 C1589 1.409 . S
C1587 H1579 0.930 . S
C1587 C1588 1.355 . S
C1587 C1589 1.415 . S
C1588 C1587 1.355 . S
C1588 C1590 1.419 . S
C1589 C1584 1.425 . S
C1589 C1586 1.409 . S
C1589 C1587 1.415 . S
C1590 H1580 0.930 . S
C1590 C1588 1.419 . S
C1590 C1591 1.362 . S
C1591 H1581 0.930 . S
C1591 C1584 1.409 . S
C1591 C1590 1.362 . S
H1592 C1598 0.930 . S
H1593 C1601 0.930 . S
H1594 C1602 0.930 . S
H1595 C1603 0.930 . S
H1596 C1606 0.930 . S
H1597 C1607 0.930 . S
C1598 H1592 0.930 . S
C1598 C1599 1.355 . S
C1598 C1600 1.415 . S
C1599 C1598 1.355 . S
C1599 C1601 1.419 . S
C1600 C1598 1.415 . S
C1600 C1605 1.425 1_545 S
C1600 C1607 1.409 . S
C1601 H1593 0.930 . S
C1601 C1599 1.419 . S
C1601 C1602 1.362 1_545 S
C1602 H1594 0.930 . S
C1602 C1601 1.362 1_565 S
C1602 C1605 1.409 . S
C1603 H1595 0.930 . S
C1603 C1604 1.355 . S
C1603 C1605 1.415 . S
C1604 C1603 1.355 . S
C1604 C1606 1.419 . S
C1605 C1600 1.425 1_565 S
C1605 C1602 1.409 . S
C1605 C1603 1.415 . S
C1606 H1596 0.930 . S
C1606 C1604 1.419 . S
C1606 C1607 1.362 1_565 S
C1607 H1597 0.930 . S
C1607 C1600 1.409 . S
C1607 C1606 1.362 1_545 S
H1608 C1614 0.943 . S
H1609 C1617 0.930 1_565 S
H1610 C1618 0.930 . S
H1611 C1619 0.943 . S
H1612 C1622 0.930 1_545 S
H1613 C1623 0.930 . S
C1614 H1608 0.943 . S
C1614 C1615 1.355 . S
C1614 C1616 1.403 1_554 S
C1615 C1614 1.355 . S
C1615 C1617 1.419 . S
C1616 C1614 1.403 1_556 S
C1616 C1621 1.418 1_546 S
C1616 C1623 1.429 . S
C1617 H1609 0.930 1_545 S
C1617 C1615 1.419 . S
C1617 C1618 1.362 1_545 S
C1618 H1610 0.930 . S
C1618 C1617 1.362 1_565 S
C1618 C1621 1.429 . S
C1619 H1611 0.943 . S
C1619 C1620 1.355 . S
C1619 C1621 1.403 1_556 S
C1620 C1619 1.355 . S
C1620 C1622 1.419 . S
C1621 C1616 1.418 1_564 S
C1621 C1618 1.429 . S
C1621 C1619 1.403 1_554 S
C1622 H1612 0.930 1_565 S
C1622 C1620 1.419 . S
C1622 C1623 1.362 1_565 S
C1623 H1613 0.930 . S
C1623 C1616 1.429 . S
C1623 C1622 1.362 1_545 S
H1624 C1630 0.930 1_455 S
H1625 C1633 0.936 . S
H1626 C1634 0.930 . S
H1627 C1635 0.930 1_655 S
H1628 C1638 0.936 . S
H1629 C1639 0.930 . S
C1630 H1624 0.930 1_655 S
C1630 C1631 1.355 . S
C1630 C1632 1.415 1_655 S
C1631 C1630 1.355 . S
C1631 C1633 1.401 1_554 S
C1632 C1630 1.415 1_455 S
C1632 C1637 1.425 1_454 S
C1632 C1639 1.409 . S
C1633 H1625 0.936 . S
C1633 C1631 1.401 1_556 S
C1633 C1634 1.376 . S
C1634 H1626 0.930 . S
C1634 C1633 1.376 . S
C1634 C1637 1.409 . S
C1635 H1627 0.930 1_455 S
C1635 C1636 1.355 . S
C1635 C1637 1.415 1_455 S
C1636 C1635 1.355 . S
C1636 C1638 1.401 1_556 S
C1637 C1632 1.425 1_656 S
C1637 C1634 1.409 . S
C1637 C1635 1.415 1_655 S
C1638 H1628 0.936 . S
C1638 C1636 1.401 1_554 S
C1638 C1639 1.376 . S
C1639 H1629 0.930 . S
C1639 C1632 1.409 . S
C1639 C1638 1.376 . S
H1640 C1646 0.931 1_554 S
H1641 C1649 0.930 . S
H1642 C1650 0.930 . S
H1643 C1651 0.931 1_556 S
H1644 C1654 0.930 . S
H1645 C1655 0.930 . S
C1646 H1640 0.931 1_556 S
C1646 C1647 1.353 . S
C1646 C1648 1.415 1_556 S
C1647 C1646 1.353 . S
C1647 C1649 1.419 . S
C1648 C1646 1.415 1_554 S
C1648 C1653 1.425 1_554 S
C1648 C1655 1.409 . S
C1649 H1641 0.930 . S
C1649 C1647 1.419 . S
C1649 C1650 1.362 . S
C1650 H1642 0.930 . S
C1650 C1649 1.362 . S
C1650 C1653 1.409 . S
C1651 H1643 0.931 1_554 S
C1651 C1652 1.353 . S
C1651 C1653 1.415 1_554 S
C1652 C1651 1.353 . S
C1652 C1654 1.419 . S
C1653 C1648 1.425 1_556 S
C1653 C1650 1.409 . S
C1653 C1651 1.415 1_556 S
C1654 H1644 0.930 . S
C1654 C1652 1.419 . S
C1654 C1655 1.362 . S
C1655 H1645 0.930 . S
C1655 C1648 1.409 . S
C1655 C1654 1.362 . S
C511 C12 1.162 . S
C516 C18 1.201 . S
C527 C26 1.137 . S
C532 C32 1.212 . S
C543 C4 1.203 . S
C548 C40 1.153 . S
C559 C54 1.152 . S
C564 C74 1.205 . S
C575 C68 1.028 . S
C580 C46 1.250 . S
C591 C60 1.214 . S
C596 C82 1.124 . S
C607 C96 1.177 . S
C612 C102 1.195 . S
C623 C116 1.250 . S
C628 C110 1.025 . S
C639 C88 1.198 . S
C644 C124 1.172 . S
C655 C158 1.244 . S
C660 C138 1.040 . S
C671 C152 1.073 . S
C676 C130 1.235 . S
C687 C166 1.128 . S
C692 C144 1.212 . S
C703 C186 1.247 . S
C708 C180 1.035 . S
C719 C194 1.060 . S
C724 C200 1.237 . S
C735 C208 1.039 . S
C740 C172 1.246 . S
C751 C222 1.152 . S
C756 C242 1.203 . S
C767 C236 1.132 . S
C772 C214 1.212 . S
C783 C250 1.029 . S
C788 C228 1.248 . S
C799 C270 1.237 . S
C804 C264 1.060 . S
C815 C278 1.099 . S
C820 C284 1.223 . S
C831 C256 1.241 . S
C836 C292 1.049 . S
C847 C326 1.237 . S
C852 C306 1.059 . S
C863 C320 1.025 . S
C868 C298 1.250 . S
C879 C312 1.195 . S
C884 C334 1.178 . S
C895 C354 1.215 . S
C900 C348 1.126 . S
C911 C362 1.166 . S
C916 C368 1.200 . S
C927 C376 1.177 . S
C932 C340 1.195 . S
C943 C410 1.220 . S
C948 C390 1.106 . S
C959 C404 1.109 . S
C964 C382 1.222 . S
C975 C396 1.216 . S
C980 C418 1.120 . S
C991 C432 1.038 . S
C996 C438 1.246 . S
C1007 C446 1.098 . S
C1012 C452 1.223 . S
C1023 C460 1.071 . S
C1028 C424 1.236 . S
C1039 C494 1.250 . S
C1044 C474 1.025 . S
C1055 C466 1.244 . S
C1060 C488 1.048 . S
C1071 C502 1.073 . S
C1076 C480 1.233 . S
C1087 C53 1.507 . S
C1092 C11 1.455 . S
C1103 C25 1.525 . S
C1108 C67 1.447 . S
C1119 C81 1.494 . S
C1124 C39 1.492 . S
C1135 C137 1.447 . S
C1140 C95 1.524 . S
C1151 C109 1.456 . S
C1156 C151 1.508 . S
C1167 C165 1.507 . S
C1172 C123 1.458 . S
C1183 C179 1.524 . S
C1188 C221 1.447 . S
C1199 C193 1.483 . S
C1204 C235 1.477 . S
C1215 C207 1.456 . S
C1220 C249 1.507 . S
C1231 C305 1.476 . S
C1236 C263 1.508 . S
C1247 C319 1.525 . S
C1252 C277 1.450 . S
C1263 C291 1.448 . S
C1268 C333 1.520 . S
C1279 C389 1.490 . S
C1284 C347 1.495 . S
C1295 C403 1.522 . S
C1300 C361 1.447 . S
C1311 C375 1.482 . S
C1316 C417 1.504 . S
C1327 C431 1.494 . S
C1332 C473 1.466 . S
C1343 C487 1.450 . S
C1348 C445 1.515 . S
C1359 C459 1.521 . S
C1364 C501 1.459 . S
C1375 C5 1.799 . S
C1380 C257 1.799 . S
C1391 C19 1.784 . S
C1396 C271 1.784 . S
C1407 C33 1.773 . S
C1412 C285 1.773 . S
C1423 C467 1.796 . S
C1428 C47 1.796 . S
C1439 C481 1.774 . S
C1444 C61 1.774 . S
C1455 C75 1.777 . S
C1460 C495 1.777 . S
C1471 C89 1.818 . S
C1476 C341 1.818 . S
C1487 C355 1.821 . S
C1492 C103 1.821 . S
C1503 C369 1.773 . S
C1508 C117 1.773 . S
C1519 C215 1.821 . S
C1524 C131 1.821 . S
C1535 C229 1.775 . S
C1540 C145 1.775 . S
C1551 C243 1.813 . S
C1556 C159 1.813 . S
C1567 C425 1.775 . S
C1572 C173 1.775 . S
C1583 C187 1.786 . S
C1588 C439 1.786 . S
C1599 C201 1.776 . S
C1604 C453 1.776 . S
C1615 C299 1.774 . S
C1620 C383 1.774 . S
C1631 C313 1.823 . S
C1636 C397 1.823 . S
C1647 C411 1.820 . S
C1652 C327 1.820 . S
