# Generated by pormake.
# Topology smm, (6)-cn, num edge types: 1
# Building blocks:
#     Node 0, Type 0, BuildingBlock: MIFKUJ_clean_sbu_0, # of connection points: 6
#     Node 1, Type 0, BuildingBlock: MIFKUJ_clean_sbu_0, # of connection points: 6
#     Node 2, Type 0, BuildingBlock: MIFKUJ_clean_sbu_0, # of connection points: 6
#     Node 3, Type 0, BuildingBlock: MIFKUJ_clean_sbu_0, # of connection points: 6
#     Node 4, Type 0, BuildingBlock: MIFKUJ_clean_sbu_0, # of connection points: 6
#     Node 5, Type 0, BuildingBlock: MIFKUJ_clean_sbu_0, # of connection points: 6
#     Node 6, Type 0, BuildingBlock: MIFKUJ_clean_sbu_0, # of connection points: 6
#     Node 7, Type 0, BuildingBlock: MIFKUJ_clean_sbu_0, # of connection points: 6
#     Node 8, Type 0, BuildingBlock: MIFKUJ_clean_sbu_0, # of connection points: 6
#     Edge 9, Type (0, 0), BuildingBlock: ZUJKAS_clean_linker_0, # of connection points: 2
#     Edge 10, Type (0, 0), BuildingBlock: ZUJKAS_clean_linker_0, # of connection points: 2
#     Edge 11, Type (0, 0), BuildingBlock: ZUJKAS_clean_linker_0, # of connection points: 2
#     Edge 12, Type (0, 0), BuildingBlock: ZUJKAS_clean_linker_0, # of connection points: 2
#     Edge 13, Type (0, 0), BuildingBlock: ZUJKAS_clean_linker_0, # of connection points: 2
#     Edge 14, Type (0, 0), BuildingBlock: ZUJKAS_clean_linker_0, # of connection points: 2
#     Edge 15, Type (0, 0), BuildingBlock: ZUJKAS_clean_linker_0, # of connection points: 2
#     Edge 16, Type (0, 0), BuildingBlock: ZUJKAS_clean_linker_0, # of connection points: 2
#     Edge 17, Type (0, 0), BuildingBlock: ZUJKAS_clean_linker_0, # of connection points: 2
#     Edge 18, Type (0, 0), BuildingBlock: ZUJKAS_clean_linker_0, # of connection points: 2
#     Edge 19, Type (0, 0), BuildingBlock: ZUJKAS_clean_linker_0, # of connection points: 2
#     Edge 20, Type (0, 0), BuildingBlock: ZUJKAS_clean_linker_0, # of connection points: 2
#     Edge 21, Type (0, 0), BuildingBlock: ZUJKAS_clean_linker_0, # of connection points: 2
#     Edge 22, Type (0, 0), BuildingBlock: ZUJKAS_clean_linker_0, # of connection points: 2
#     Edge 23, Type (0, 0), BuildingBlock: ZUJKAS_clean_linker_0, # of connection points: 2
#     Edge 24, Type (0, 0), BuildingBlock: ZUJKAS_clean_linker_0, # of connection points: 2
#     Edge 25, Type (0, 0), BuildingBlock: ZUJKAS_clean_linker_0, # of connection points: 2
#     Edge 26, Type (0, 0), BuildingBlock: ZUJKAS_clean_linker_0, # of connection points: 2
#     Edge 27, Type (0, 0), BuildingBlock: ZUJKAS_clean_linker_0, # of connection points: 2
#     Edge 28, Type (0, 0), BuildingBlock: ZUJKAS_clean_linker_0, # of connection points: 2
#     Edge 29, Type (0, 0), BuildingBlock: ZUJKAS_clean_linker_0, # of connection points: 2
#     Edge 30, Type (0, 0), BuildingBlock: ZUJKAS_clean_linker_0, # of connection points: 2
#     Edge 31, Type (0, 0), BuildingBlock: ZUJKAS_clean_linker_0, # of connection points: 2
#     Edge 32, Type (0, 0), BuildingBlock: ZUJKAS_clean_linker_0, # of connection points: 2
#     Edge 33, Type (0, 0), BuildingBlock: ZUJKAS_clean_linker_0, # of connection points: 2
#     Edge 34, Type (0, 0), BuildingBlock: ZUJKAS_clean_linker_0, # of connection points: 2
#     Edge 35, Type (0, 0), BuildingBlock: ZUJKAS_clean_linker_0, # of connection points: 2
# Relax obj value: 0.042
# Max RMSD: 0.133
# Mean RMSD: 0.118
data_MOF--net-smm--node1-MIFKUJ_clean_sbu_0--edge1-ZUJKAS_clean_linker_0
_symmetry_space_group_name_H-M    P1
_symmetry_Int_Tables_number       1
_symmetry_cell_setting            triclinic
loop_
_symmetry_equiv_pos_as_xyz
'x, y, z'
_cell_length_a     76.054609
_cell_length_b     77.135825
_cell_length_c     17.985375
_cell_angle_alpha  92.003814
_cell_angle_beta   92.263254
_cell_angle_gamma 120.0289
loop_
_atom_site_label
_atom_site_type_symbol
_atom_site_fract_x
_atom_site_fract_y
_atom_site_fract_z
_atom_type_partial_charge
Zn0 Zn 0.99688 0.14932 0.0518 0.0
Zn1 Zn 0.01982 0.20086 0.01248 0.0
C2 C 0.02327 0.13571 -0.00158 0.0
O3 O 0.00743 0.12508 0.95123 0.0
C4 C 0.99728 0.21649 0.0728 0.0
O5 O 0.01574 0.22789 0.104 0.0
O6 O 0.97502 0.12156 0.07565 0.0
O7 O 0.0012 0.16941 0.13367 0.0
O8 O 0.0298 0.19709 0.11 0.0
C9 C 0.97851 0.11009 0.11501 0.0
O10 O 0.9967 0.1171 0.14823 0.0
O11 O 0.0228 0.14817 0.04527 0.0
C12 C 0.03551 0.23583 0.928 0.0
O13 O 0.01688 0.22603 0.89692 0.0
O14 O 0.04059 0.22783 0.97887 0.0
O15 O 0.01636 0.18054 0.93496 0.0
O16 O 0.98721 0.15358 0.95389 0.0
O17 O 0.9941 0.20212 0.02691 0.0
C18 C 0.01845 0.18446 0.15459 0.0
C19 C 0.99865 0.16695 0.91205 0.0
Zn20 Zn 0.86445 0.86263 0.0039 0.0
Zn21 Zn 0.81529 0.80348 0.03821 0.0
C22 C 0.90147 0.86071 0.02824 0.0
O23 O 0.89276 0.85037 0.08571 0.0
C24 C 0.7837 0.81108 0.98254 0.0
O25 O 0.79755 0.82291 0.9385 0.0
O26 O 0.86354 0.8874 0.97293 0.0
O27 O 0.84383 0.83514 0.96548 0.0
O28 O 0.82313 0.80404 0.93111 0.0
C29 C 0.87843 0.90005 0.93792 0.0
O30 O 0.89061 0.89457 0.90895 0.0
O31 O 0.8919 0.86658 0.98651 0.0
C32 C 0.79414 0.76448 0.09629 0.0
O33 O 0.7789 0.76752 0.08131 0.0
O34 O 0.81208 0.77822 0.08436 0.0
O35 O 0.83585 0.82958 0.09648 0.0
O36 O 0.86096 0.86087 0.11382 0.0
O37 O 0.78835 0.80231 0.03141 0.0
C38 C 0.83668 0.82134 0.91439 0.0
C39 C 0.84766 0.84467 0.14029 0.0
Zn40 Zn 0.15481 0.01685 0.00904 0.0
Zn41 Zn 0.20086 0.00234 0.97903 0.0
C42 C 0.11329 0.99071 0.97829 0.0
O43 O 0.11752 0.00406 0.92835 0.0
C44 C 0.23802 0.03043 0.06351 0.0
O45 O 0.22853 0.01919 0.11808 0.0
O46 O 0.15394 0.04195 0.03684 0.0
O47 O 0.17794 0.01449 0.05185 0.0
O48 O 0.18819 0.99356 0.07589 0.0
C49 C 0.14222 0.04205 0.08516 0.0
O50 O 0.13254 0.02634 0.12475 0.0
O51 O 0.12756 0.99266 0.02333 0.0
C52 C 0.21639 0.98404 0.88313 0.0
O53 O 0.22705 0.00259 0.8635 0.0
O54 O 0.20336 0.97998 0.93136 0.0
O55 O 0.1831 0.00906 0.9131 0.0
O56 O 0.15917 0.01716 0.89972 0.0
O57 O 0.22898 0.02638 -0.0011 0.0
C58 C 0.17738 0.00117 0.09254 0.0
C59 C 0.17201 0.01326 0.8715 0.0
Zn60 Zn 0.69004 0.48881 0.27148 0.0
Zn61 Zn 0.66765 0.52455 0.30639 0.0
C62 C 0.66362 0.44842 0.3011 0.0
O63 O 0.67955 0.45296 0.34626 0.0
C64 C 0.69023 0.56323 0.26184 0.0
O65 O 0.67186 0.55653 0.2307 0.0
O66 O 0.71295 0.48465 0.24157 0.0
O67 O 0.68754 0.50992 0.21423 0.0
O68 O 0.66052 0.51315 0.2016 0.0
C69 C 0.71006 0.47055 0.19504 0.0
O70 O 0.6922 0.45992 0.15847 0.0
O71 O 0.66396 0.46197 0.26191 0.0
C72 C 0.65143 0.54329 0.39568 0.0
O73 O 0.67079 0.55379 0.41823 0.0
O74 O 0.64552 0.52847 0.34851 0.0
O75 O 0.67154 0.50385 0.35382 0.0
O76 O 0.69655 0.49886 0.37908 0.0
O77 O 0.69333 0.55163 0.30198 0.0
C78 C 0.67181 0.50691 0.17511 0.0
C79 C 0.68615 0.50672 0.3983 0.0
Zn80 Zn 0.52052 0.19893 0.23844 0.0
Zn81 Zn 0.48844 0.14298 0.24741 0.0
C82 C 0.56285 0.21479 0.27559 0.0
O83 O 0.55915 0.22638 0.31963 0.0
C84 C 0.4526 0.13856 0.17304 0.0
O85 O 0.46074 0.13452 0.11677 0.0
O86 O 0.52432 0.22622 0.21803 0.0
O87 O 0.49982 0.17647 0.17328 0.0
O88 O 0.5028 0.15006 0.15404 0.0
C89 C 0.53799 0.23704 0.17495 0.0
O90 O 0.5471 0.22913 0.13793 0.0
O91 O 0.54819 0.20085 0.23466 0.0
C92 C 0.48396 0.11008 0.33381 0.0
O93 O 0.49476 0.12455 0.38512 0.0
O94 O 0.48001 0.11444 0.27001 0.0
O95 O 0.50732 0.16131 0.33265 0.0
O96 O 0.51114 0.19193 0.33955 0.0
O97 O 0.46221 0.14363 0.23678 0.0
C98 C 0.50666 0.16725 0.13576 0.0
C99 C 0.50797 0.17601 0.36949 0.0
Zn100 Zn 0.8149 0.32581 0.25461 0.0
Zn101 Zn 0.87604 0.34052 0.29952 0.0
C102 C 0.81852 0.36539 0.27529 0.0
O103 O 0.82876 0.36703 0.33823 0.0
C104 C 0.89612 0.32032 0.25155 0.0
O105 O 0.90928 0.33905 0.23947 0.0
O106 O 0.78761 0.30071 0.22586 0.0
O107 O 0.84001 0.32761 0.21796 0.0
O108 O 0.87145 0.34916 0.20042 0.0
C109 C 0.77498 0.30226 0.18193 0.0
O110 O 0.78129 0.31881 0.14685 0.0
O111 O 0.81243 0.34994 0.23123 0.0
C112 C 0.91063 0.35844 0.40322 0.0
O113 O 0.90194 0.33981 0.42268 0.0
O114 O 0.90199 0.36285 0.35139 0.0
O115 O 0.85225 0.33458 0.3636 0.0
O116 O 0.81987 0.32649 0.3652 0.0
O117 O 0.87945 0.31639 0.27909 0.0
C118 C 0.85278 0.34123 0.17952 0.0
C119 C 0.83667 0.33065 0.39943 0.0
Zn120 Zn 0.33726 0.81678 0.68182 0.0
Zn121 Zn 0.34984 0.87633 0.64434 0.0
C122 C 0.37485 0.81677 0.671 0.0
O123 O 0.37636 0.82677 0.61166 0.0
C124 C 0.32885 0.89447 0.69222 0.0
O125 O 0.3476 0.90675 0.71925 0.0
O126 O 0.31043 0.79289 0.70349 0.0
O127 O 0.34531 0.84439 0.71702 0.0
O128 O 0.3581 0.87554 0.75215 0.0
C129 C 0.30943 0.77995 0.74775 0.0
O130 O 0.3252 0.78432 0.79333 0.0
O131 O 0.35959 0.81131 0.70992 0.0
C132 C 0.36683 0.90864 0.54757 0.0
O133 O 0.34783 0.89943 0.52014 0.0
O134 O 0.37174 0.90108 0.60053 0.0
O135 O 0.34309 0.85052 0.58323 0.0
O136 O 0.33587 0.81895 0.57144 0.0
O137 O 0.3252 0.87907 0.65171 0.0
C138 C 0.35314 0.85795 0.76895 0.0
C139 C 0.33899 0.835 0.54211 0.0
Zn140 Zn 0.19906 0.53488 0.65947 0.0
Zn141 Zn 0.15535 0.47637 0.70325 0.0
C142 C 0.24107 0.5549 0.70264 0.0
O143 O 0.23585 0.56598 0.7427 0.0
C144 C 0.11596 0.46017 0.65466 0.0
O145 O 0.12219 0.44808 0.6296 0.0
O146 O 0.19697 0.55742 0.61516 0.0
O147 O 0.18118 0.50699 0.61842 0.0
O148 O 0.16114 0.47521 0.59372 0.0
C149 C 0.21101 0.5699 0.57689 0.0
O150 O 0.22438 0.56544 0.55213 0.0
O151 O 0.22758 0.54034 0.66081 0.0
C152 C 0.13698 0.44282 0.79504 0.0
O153 O 0.12616 0.45121 0.81182 0.0
O154 O 0.1512 0.4513 0.75106 0.0
O155 O 0.17959 0.50171 0.75486 0.0
O156 O 0.19137 0.534 0.76483 0.0
O157 O 0.1284 0.47569 0.69573 0.0
C158 C 0.17311 0.49233 0.57071 0.0
C159 C 0.18121 0.51692 0.7915 0.0
Zn160 Zn 0.49294 0.68465 0.71361 0.0
Zn161 Zn 0.53898 0.67179 0.6641 0.0
C162 C 0.45165 0.66061 0.694 0.0
O163 O 0.4558 0.67601 0.6541 0.0
C164 C 0.57702 0.69291 0.73666 0.0
O165 O 0.56917 0.6751 0.76361 0.0
O166 O 0.49152 0.70943 0.74114 0.0
O167 O 0.51749 0.68431 0.76312 0.0
O168 O 0.52796 0.66247 0.76179 0.0
C169 C 0.47981 0.70977 0.78894 0.0
O170 O 0.47043 0.69442 0.83044 0.0
O171 O 0.46615 0.66032 0.73042 0.0
C172 C 0.55473 0.65413 0.56409 0.0
O173 O 0.56718 0.67304 0.55202 0.0
O174 O 0.5406 0.64984 0.6078 0.0
O175 O 0.51869 0.67786 0.62145 0.0
O176 O 0.49439 0.68426 0.60155 0.0
O177 O 0.56668 0.69589 0.68676 0.0
C178 C 0.51791 0.66963 0.79186 0.0
C179 C 0.50724 0.68023 0.57565 0.0
H180 H 0.02763 0.25916 0.83708 0.0
H181 H 0.05028 0.29452 0.81528 0.0
H182 H 0.09808 0.295 0.95386 0.0
H183 H 0.07559 0.25957 0.97599 0.0
H184 H 0.08464 0.32542 -0.0097 0.0
H185 H 0.10541 0.32288 0.69853 0.0
H186 H 0.07933 0.30614 0.71803 0.0
H187 H 0.09909 0.30262 0.75913 0.0
C188 C 0.04306 0.26666 0.862 0.0
C189 C 0.04977 0.25659 0.90875 0.0
C190 C 0.05598 0.28684 0.84927 0.0
C191 C 0.07581 0.29724 0.88276 0.0
C192 C 0.0828 0.28713 0.92749 0.0
H193 H 0.15779 0.42236 0.78506 0.0
H194 H 0.14576 0.38758 0.8154 0.0
C195 C 0.06992 0.26693 0.94015 0.0
C196 C 0.08849 0.3191 0.87651 0.0
H197 H 0.11292 0.35456 0.75199 0.0
C198 C 0.09108 0.33186 0.93857 0.0
C199 C 0.09702 0.32733 0.80926 0.0
C200 C 0.09527 0.31412 0.7423 0.0
C201 C 0.10129 0.35274 0.9342 0.0
C202 C 0.10881 0.361 0.86552 0.0
C203 C 0.10705 0.34822 0.80448 0.0
C204 C 0.11707 0.38259 0.854 0.0
C205 C 0.1037 0.36569 0.00308 0.0
C206 C 0.10501 0.39133 0.86604 0.0
C207 C 0.11192 0.41117 0.84968 0.0
C208 C 0.13087 0.42258 0.81941 0.0
C209 C 0.1431 0.41393 0.80827 0.0
C210 C 0.13625 0.39408 0.82549 0.0
H211 H 0.10384 0.3582 0.05461 0.0
H212 H 0.11793 0.38047 0.00429 0.0
H213 H 0.09059 0.36825 0.00377 0.0
H214 H 0.08993 0.38261 0.88587 0.0
H215 H 0.10202 0.41729 0.85822 0.0
H216 H 0.76732 0.82278 0.87051 0.0
H217 H 0.7312 0.80859 0.83371 0.0
H218 H 0.71533 0.77113 0.02058 0.0
H219 H 0.75125 0.78546 0.05864 0.0
H220 H 0.70688 0.76885 0.79323 0.0
H221 H 0.67428 0.78986 0.02601 0.0
H222 H 0.70131 0.80241 0.0143 0.0
H223 H 0.68888 0.77872 0.05672 0.0
C224 C 0.75613 0.81192 0.90493 0.0
C225 C 0.76214 0.80518 0.96729 0.0
C226 C 0.73551 0.80382 0.88377 0.0
C227 C 0.72061 0.78898 0.92485 0.0
C228 C 0.72655 0.7829 -0.01095 0.0
H229 H 0.59928 0.69264 0.85805 0.0
H230 H 0.63371 0.71833 0.90251 0.0
C231 C 0.74713 0.79102 0.01038 0.0
C232 C 0.69911 0.77797 0.89554 0.0
H233 H 0.65054 0.76185 0.94307 0.0
C234 C 0.69457 0.76766 0.82526 0.0
C235 C 0.68312 0.77627 0.93797 0.0
C236 C 0.68714 0.78757 0.01265 0.0
C237 C 0.67441 0.75505 0.79744 0.0
C238 C 0.65844 0.75298 0.84061 0.0
C239 C 0.66291 0.76363 0.9101 0.0
C240 C 0.63704 0.73853 0.81675 0.0
C241 C 0.67029 0.74326 0.72374 0.0
C242 C 0.62749 0.74163 0.75446 0.0
C243 C 0.60776 0.72696 0.72875 0.0
C244 C 0.59744 0.70898 0.76491 0.0
C245 C 0.60692 0.70624 0.8285 0.0
C246 C 0.62652 0.72093 0.85433 0.0
H247 H 0.6843 0.7443 0.70272 0.0
H248 H 0.65892 0.7272 0.72903 0.0
H249 H 0.66387 0.74914 0.68169 0.0
H250 H 0.63543 0.75523 0.72514 0.0
H251 H 0.60079 0.72951 0.67985 0.0
H252 H 0.24547 0.98871 0.78907 0.0
H253 H 0.25581 0.96438 0.75502 0.0
H254 H 0.20883 0.92036 0.88232 0.0
H255 H 0.19822 0.94463 0.91675 0.0
H256 H 0.25131 0.92968 0.91715 0.0
H257 H 0.22651 0.91082 0.61674 0.0
H258 H 0.23755 0.93699 0.64507 0.0
H259 H 0.21407 0.91892 0.68161 0.0
C260 C 0.23705 0.97376 0.80875 0.0
C261 C 0.22107 0.96862 0.8558 0.0
C262 C 0.24293 0.95986 0.78897 0.0
C263 C 0.23291 0.94059 0.81562 0.0
C264 C 0.2166 0.93516 0.86092 0.0
H265 H 0.28771 0.86953 0.66524 0.0
H266 H 0.26062 0.87589 0.7022 0.0
C267 C 0.21062 0.94905 0.8805 0.0
C268 C 0.24109 0.92712 0.80176 0.0
H269 H 0.25436 0.90657 0.65951 0.0
C270 C 0.25157 0.92413 0.86118 0.0
C271 C 0.24108 0.91966 0.72899 0.0
C272 C 0.22904 0.92156 0.66438 0.0
C273 C 0.26359 0.91541 0.84848 0.0
C274 C 0.26526 0.90984 0.77448 0.0
C275 C 0.25326 0.91112 0.71608 0.0
C276 C 0.28126 0.90525 0.7554 0.0
C277 C 0.27509 0.91306 0.91398 0.0
C278 C 0.30174 0.91983 0.77189 0.0
C279 C 0.31714 0.91629 0.75088 0.0
C280 C 0.31236 0.89818 0.71219 0.0
C281 C 0.29183 0.88365 0.69485 0.0
C282 C 0.27636 0.88719 0.71619 0.0
H283 H 0.26703 0.91122 0.96589 0.0
H284 H 0.27724 0.89998 0.90408 0.0
H285 H 0.29029 0.92678 0.92298 0.0
H286 H 0.30583 0.93412 0.80008 0.0
H287 H 0.33281 0.92785 0.76459 0.0
H288 H 0.43116 0.13494 0.0432 0.0
H289 H 0.3947 0.12246 0.02496 0.0
H290 H 0.38938 0.11907 0.26263 0.0
H291 H 0.42602 0.1321 0.28144 0.0
H292 H 0.36723 0.08562 0.0614 0.0
H293 H 0.35263 0.14115 0.20783 0.0
H294 H 0.37782 0.14688 0.18499 0.0
H295 H 0.36669 0.13311 0.26536 0.0
C296 C 0.42232 0.132 0.09174 0.0
C297 C 0.43142 0.13438 0.16371 0.0
C298 C 0.40149 0.12488 0.08122 0.0
C299 C 0.38931 0.11992 0.14238 0.0
C300 C 0.39852 0.12319 0.21469 0.0
H301 H 0.26149 0.04292 0.19458 0.0
H302 H 0.2981 0.0665 0.21211 0.0
C303 C 0.41946 0.13055 0.22535 0.0
C304 C 0.36684 0.10895 0.12953 0.0
H305 H 0.32353 0.10879 0.1746 0.0
C306 C 0.35771 0.09084 0.08537 0.0
C307 C 0.35443 0.11569 0.16144 0.0
C308 C 0.36339 0.13537 0.20699 0.0
C309 C 0.33653 0.07909 0.07338 0.0
C310 C 0.32413 0.08572 0.10575 0.0
C311 C 0.33316 0.10384 0.1497 0.0
C312 C 0.30171 0.0735 0.09638 0.0
C313 C 0.32754 0.05935 0.02793 0.0
C314 C 0.29162 0.0701 0.02581 0.0
C315 C 0.27072 0.05661 0.01547 0.0
C316 C 0.2596 0.04632 0.07566 0.0
C317 C 0.26964 0.0505 0.14698 0.0
C318 C 0.29053 0.06402 0.15723 0.0
H319 H 0.33895 0.05462 0.01924 0.0
H320 H 0.31457 0.04734 0.05553 0.0
H321 H 0.32171 0.06086 0.97243 0.0
H322 H 0.30003 0.07746 0.97835 0.0
H323 H 0.26343 0.05381 0.95993 0.0
H324 H 0.93343 0.32514 0.23089 0.0
H325 H 0.94191 0.29944 0.19632 0.0
H326 H 0.87868 0.25378 0.19589 0.0
H327 H 0.86994 0.27959 0.23101 0.0
H328 H 0.91678 0.25112 0.28327 0.0
H329 H 0.91809 0.26228 0.97918 0.0
H330 H 0.92737 0.28425 0.04197 0.0
H331 H 0.90096 0.26536 0.03801 0.0
C332 C 0.92127 0.30966 0.22338 0.0
C333 C 0.90099 0.3044 0.23336 0.0
C334 C 0.92616 0.29501 0.20369 0.0
C335 C 0.9109 0.27482 0.19306 0.0
C336 C 0.89063 0.26934 0.20384 0.0
H337 H 0.95828 0.19963 0.00738 0.0
H338 H 0.93246 0.20881 0.03567 0.0
C339 C 0.8857 0.28406 0.22402 0.0
C340 C 0.91665 0.25978 0.17092 0.0
H341 H 0.9358 0.24635 0.02566 0.0
C342 C 0.92047 0.24962 0.22663 0.0
C343 C 0.92118 0.25768 0.09691 0.0
C344 C 0.91661 0.26784 0.0351 0.0
C345 C 0.93017 0.23859 0.21113 0.0
C346 C 0.93652 0.2381 0.13848 0.0
C347 C 0.93112 0.24687 0.08148 0.0
C348 C 0.95123 0.23126 0.12343 0.0
C349 C 0.93426 0.22824 0.27348 0.0
C350 C 0.97037 0.24099 0.16254 0.0
C351 C 0.98503 0.23587 0.14649 0.0
C352 C 0.98101 0.22095 0.09046 0.0
C353 C 0.96179 0.2111 0.05119 0.0
C354 C 0.94705 0.21632 0.06725 0.0
H355 H 0.92259 0.2238 0.31522 0.0
H356 H 0.93449 0.21468 0.25206 0.0
H357 H 0.94928 0.23875 0.30254 0.0
H358 H 0.97417 0.25295 0.20462 0.0
H359 H 0.99966 0.24385 0.17769 0.0
H360 H 0.82104 0.75101 0.12781 0.0
H361 H 0.81234 0.717 0.16131 0.0
H362 H 0.74887 0.69956 0.15443 0.0
H363 H 0.75719 0.733 0.1218 0.0
H364 H 0.78068 0.6915 0.29272 0.0
H365 H 0.76111 0.66148 -0.0026 0.0
H366 H 0.77994 0.6873 0.02421 0.0
H367 H 0.75332 0.67916 0.02497 0.0
C368 C 0.80527 0.73995 0.13414 0.0
C369 C 0.78981 0.74471 0.12169 0.0
C370 C 0.80035 0.72059 0.1533 0.0
C371 C 0.77996 0.70585 0.15988 0.0
C372 C 0.76468 0.71076 0.1494 0.0
H373 H 0.6858 0.59226 0.19783 0.0
H374 H 0.712 0.62626 0.17589 0.0
C375 C 0.76952 0.72993 0.13065 0.0
C376 C 0.77386 0.68489 0.17451 0.0
H377 H 0.74592 0.63786 0.09025 0.0
C378 C 0.77362 0.67968 0.24855 0.0
C379 C 0.76467 0.66964 0.11657 0.0
C380 C 0.76483 0.67458 0.03611 0.0
C381 C 0.76289 0.65949 0.26662 0.0
C382 C 0.75231 0.64429 0.20891 0.0
C383 C 0.75398 0.64952 0.13447 0.0
C384 C 0.73689 0.62348 0.22446 0.0
C385 C 0.76161 0.65466 0.34745 0.0
C386 C 0.74214 0.61055 0.25951 0.0
C387 C 0.72703 0.59094 0.27273 0.0
C388 C 0.70651 0.58398 0.25044 0.0
C389 C 0.70143 0.59704 0.21544 0.0
C390 C 0.71642 0.61652 0.20272 0.0
H391 H 0.76891 0.66838 0.38577 0.0
H392 H 0.74547 0.64527 0.3606 0.0
H393 H 0.76936 0.64595 0.35822 0.0
H394 H 0.75789 0.61553 0.27587 0.0
H395 H 0.73142 0.58118 0.29946 0.0
H396 H 0.08722 0.42756 0.57133 0.0
H397 H 0.0525 0.41877 0.53556 0.0
H398 H 0.06157 0.47233 0.65508 0.0
H399 H 0.09696 0.48157 0.69136 0.0
H400 H 0.02394 0.42885 0.68108 0.0
H401 H 0.03426 0.45173 0.38927 0.0
H402 H 0.04869 0.44049 0.42204 0.0
H403 H 0.05404 0.46427 0.46347 0.0
C404 C 0.08202 0.43763 0.58998 0.0
C405 C 0.09489 0.4553 0.63428 0.0
C406 C 0.06215 0.43257 0.56914 0.0
C407 C 0.05464 0.44501 0.59205 0.0
C408 C 0.06726 0.46265 0.63659 0.0
H409 H 0.93062 0.39926 0.39296 0.0
H410 H 0.96486 0.42388 0.44592 0.0
C411 C 0.08737 0.46785 0.65734 0.0
C412 C 0.03318 0.43851 0.57141 0.0
H413 H 0.00078 0.42663 0.41725 0.0
C414 C 0.01879 0.42883 0.62394 0.0
C415 C 0.02662 0.43862 0.497 0.0
C416 C 0.04167 0.44946 0.43952 0.0
C417 C 0.99792 0.41792 0.6026 0.0
C418 C 0.99141 0.41646 0.52659 0.0
C419 C 0.00576 0.42755 0.47534 0.0
C420 C 0.97026 0.40194 0.49795 0.0
C421 C 0.98313 0.40748 0.6613 0.0
C422 C 0.96205 0.38145 0.50881 0.0
C423 C 0.94253 0.36744 0.47938 0.0
C424 C 0.93091 0.37358 0.43713 0.0
C425 C 0.93918 0.39409 0.42555 0.0
C426 C 0.95872 0.40816 0.45576 0.0
H427 H 0.98917 0.41558 0.71691 0.0
H428 H 0.96816 0.40622 0.64739 0.0
H429 H 0.9808 0.39216 0.66547 0.0
H430 H 0.97093 0.37619 0.53889 0.0
H431 H 0.93675 0.35173 0.4883 0.0
H432 H 0.53396 0.61412 0.58923 0.0
H433 H 0.54437 0.5894 0.56032 0.0
H434 H 0.59566 0.63382 0.45045 0.0
H435 H 0.58551 0.65866 0.47892 0.0
H436 H 0.56273 0.58361 0.38856 0.0
H437 H 0.60883 0.60715 0.66 0.0
H438 H 0.58495 0.60683 0.64906 0.0
H439 H 0.6069 0.6257 0.60746 0.0
C440 C 0.54725 0.61855 0.55769 0.0
C441 C 0.55904 0.63842 0.53693 0.0
C442 C 0.55312 0.60439 0.54122 0.0
C443 C 0.57076 0.60991 0.50359 0.0
C444 C 0.58195 0.62937 0.47944 0.0
H445 H 0.6617 0.58114 0.44181 0.0
H446 H 0.63915 0.59395 0.47034 0.0
C447 C 0.57614 0.64353 0.49586 0.0
C448 C 0.57876 0.59611 0.49535 0.0
H449 H 0.61368 0.58608 0.57615 0.0
C450 C 0.57367 0.58382 0.42972 0.0
C451 C 0.59291 0.59656 0.5496 0.0
C452 C 0.59879 0.60969 0.62082 0.0
C453 C 0.5833 0.57268 0.41492 0.0
C454 C 0.59817 0.57376 0.468 0.0
C455 C 0.60235 0.58529 0.53545 0.0
C456 C 0.61138 0.56522 0.45155 0.0
C457 C 0.5783 0.56083 0.34096 0.0
C458 C 0.60333 0.54471 0.43199 0.0
C459 C 0.61629 0.53738 0.41404 0.0
C460 C 0.63748 0.55037 0.41748 0.0
C461 C 0.64546 0.57072 0.4393 0.0
C462 C 0.63256 0.57807 0.45559 0.0
H463 H 0.56979 0.56499 0.30067 0.0
H464 H 0.59236 0.56314 0.31585 0.0
H465 H 0.56864 0.54462 0.34968 0.0
H466 H 0.58709 0.5344 0.43043 0.0
H467 H 0.60978 0.52159 0.39788 0.0
H468 H 0.49347 0.09572 0.45639 0.0
H469 H 0.47729 0.06094 0.49124 0.0
H470 H 0.43746 0.04209 0.29108 0.0
H471 H 0.45398 0.07669 0.2547 0.0
H472 H 0.43887 0.03698 0.52158 0.0
H473 H 0.45586 0.00172 0.28325 0.0
H474 H 0.4683 0.02858 0.30083 0.0
H475 H 0.44342 0.015 0.25289 0.0
C476 C 0.48147 0.08412 0.41922 0.0
C477 C 0.4751 0.08893 0.35247 0.0
C478 C 0.47222 0.06425 0.43929 0.0
C479 C 0.45641 0.04883 0.39315 0.0
C480 C 0.45004 0.05362 0.32648 0.0
H481 H 0.36127 0.92832 0.43395 0.0
H482 H 0.38482 0.96223 0.39829 0.0
C483 C 0.45943 0.07344 0.30594 0.0
C484 C 0.44568 0.02795 0.41687 0.0
H485 H 0.42897 0.97931 0.35748 0.0
C486 C 0.43698 0.02441 0.48618 0.0
C487 C 0.44328 0.01154 0.37082 0.0
C488 C 0.4534 0.01442 0.29819 0.0
C489 C 0.42526 0.00485 0.50922 0.0
C490 C 0.42221 0.98847 0.46175 0.0
C491 C 0.43129 0.99197 0.39341 0.0
C492 C 0.40874 0.96754 0.48071 0.0
C493 C 0.41563 0.00173 0.58298 0.0
C494 C 0.41463 0.95924 0.5379 0.0
C495 C 0.40125 0.93983 0.55832 0.0
C496 C 0.38173 0.92846 0.52194 0.0
C497 C 0.37615 0.93668 0.46323 0.0
C498 C 0.38958 0.95603 0.44268 0.0
H499 H 0.41752 0.01586 0.60924 0.0
H500 H 0.39913 0.9905 0.57541 0.0
H501 H 0.42274 0.99577 0.62176 0.0
H502 H 0.42946 0.9679 0.5674 0.0
H503 H 0.40603 0.93392 0.60368 0.0
H504 H 0.12548 0.05254 0.19706 0.0
H505 H 0.11005 0.07375 0.18919 0.0
H506 H 0.12864 0.08659 0.96473 0.0
H507 H 0.14481 0.06612 0.97338 0.0
H508 H 0.13092 0.11918 0.03991 0.0
H509 H 0.05605 0.05109 0.07162 0.0
H510 H 0.07421 0.0571 0.14886 0.0
H511 H 0.07881 0.04991 0.05865 0.0
C512 C 0.12663 0.06023 0.14664 0.0
C513 C 0.13617 0.05752 0.08563 0.0
C514 C 0.1177 0.07222 0.142 0.0
C515 C 0.11768 0.08128 0.07559 0.0
C516 C 0.12836 0.07965 0.01637 0.0
H517 H 0.02872 0.11011 0.90653 0.0
H518 H 0.05361 0.09915 0.92409 0.0
C519 C 0.13762 0.06796 0.02146 0.0
C520 C 0.10521 0.09102 0.06541 0.0
H521 H 0.05626 0.08163 0.0632 0.0
C522 C 0.11461 0.11102 0.04537 0.0
C523 C 0.08385 0.08022 0.07114 0.0
C524 C 0.07257 0.05835 0.08802 0.0
C525 C 0.10322 0.12052 0.03155 0.0
C526 C 0.08198 0.10978 0.03851 0.0
C527 C 0.0726 0.08984 0.05844 0.0
C528 C 0.06888 0.11856 0.02314 0.0
C529 C 0.11379 0.14175 0.00762 0.0
C530 C 0.06945 0.13336 0.07248 0.0
C531 C 0.05517 0.13964 0.06276 0.0
C532 C 0.04004 0.13115 0.00364 0.0
C533 C 0.04009 0.11692 0.95275 0.0
C534 C 0.05432 0.11064 0.96261 0.0
H535 H 0.12984 0.14708 -0.00482 0.0
H536 H 0.10554 0.14287 0.95732 0.0
H537 H 0.11367 0.15188 0.05275 0.0
H538 H 0.08041 0.13945 0.12013 0.0
H539 H 0.05552 0.15058 0.10317 0.0
H540 H 0.85539 0.91808 0.95912 0.0
H541 H 0.86805 0.95411 0.98496 0.0
H542 H 0.92969 0.96623 0.97178 0.0
H543 H 0.91719 0.93092 0.94157 0.0
H544 H 0.89063 0.97847 0.09707 0.0
H545 H 0.93331 0.00854 0.84746 0.0
H546 H 0.91613 0.98204 0.85364 0.0
H547 H 0.94205 0.99371 0.89283 0.0
C548 C 0.87159 0.92858 0.96 0.0
C549 C 0.88524 0.92171 0.94692 0.0
C550 C 0.87883 0.94912 0.97511 0.0
C551 C 0.89985 0.96306 0.97856 0.0
C552 C 0.9134 0.95605 0.96635 0.0
H553 H 0.98377 0.08007 0.16836 0.0
H554 H 0.96152 0.04392 0.14137 0.0
C555 C 0.90619 0.93573 0.9494 0.0
C556 C 0.90795 0.98473 -0.00054 0.0
H557 H 0.94368 0.03182 0.95566 0.0
C558 C 0.90196 0.99012 0.06533 0.0
C559 C 0.92264 1.00009 0.95792 0.0
C560 C 0.9287 0.99576 0.88366 0.0
C561 C 0.911 0.01029 0.09243 0.0
C562 C 0.92653 0.02532 0.05325 0.0
C563 C 0.93195 0.02012 0.98611 0.0
C564 C 0.93788 0.0466 0.08139 0.0
C565 C 0.90436 0.01552 0.16348 0.0
C566 C 0.93165 0.05995 0.05811 0.0
C567 C 0.94433 0.08062 0.07322 0.0
C568 C 0.96353 0.08828 0.11146 0.0
C569 C 0.96913 0.07472 0.13869 0.0
C570 C 0.95643 0.05405 0.12341 0.0
H571 H 0.89151 0.00217 0.18613 0.0
H572 H 0.91737 0.02244 0.20604 0.0
H573 H 0.89964 0.02677 0.15313 0.0
H574 H 0.91739 0.05442 0.02533 0.0
H575 H 0.93949 0.09063 0.05188 0.0
H576 H 0.9229 0.88059 0.91158 0.0
H577 H 0.95978 0.89863 0.90524 0.0
H578 H 0.96643 0.87682 0.11588 0.0
H579 H 0.92937 0.85866 0.12316 0.0
H580 H 0.98451 0.92831 0.0373 0.0
H581 H 0.00639 0.8711 0.96425 0.0
H582 H 0.98179 0.86767 0.93464 0.0
H583 H 0.98733 0.86558 0.03053 0.0
C584 C 0.93213 0.87927 0.95597 0.0
C585 C 0.92325 0.86839 0.01838 0.0
C586 C 0.95318 0.88955 0.95208 0.0
C587 C 0.96568 0.88898 0.01005 0.0
C588 C 0.9569 0.87722 0.07036 0.0
H589 H 0.09835 0.96176 0.0801 0.0
H590 H 0.06263 0.93611 0.09162 0.0
C591 C 0.93577 0.86691 0.07442 0.0
C592 C 0.98782 0.90269 0.01136 0.0
H593 H 0.03288 0.90489 0.9813 0.0
C594 C 0.99513 0.92323 0.02547 0.0
C595 C 0.00148 0.89584 -0.00349 0.0
C596 C 0.994 0.87386 0.98033 0.0
C597 C 0.01587 0.93726 0.02397 0.0
C598 C 0.02953 0.93055 0.00655 0.0
C599 C 0.02229 0.90992 -0.00554 0.0
C600 C 0.05117 0.94495 -0.00295 0.0
C601 C 0.023 0.95919 0.04078 0.0
C602 C 0.05645 0.95801 0.93912 0.0
C603 C 0.07669 0.97261 0.93245 0.0
C604 C 0.09208 0.97438 0.9835 0.0
C605 C 0.08682 0.96082 0.04014 0.0
C606 C 0.06648 0.94616 0.04673 0.0
H607 H 0.01174 0.96128 0.07158 0.0
H608 H 0.0378 0.96676 0.07417 0.0
H609 H 0.0251 0.96667 0.98761 0.0
H610 H 0.04483 0.95707 0.89962 0.0
H611 H 0.08021 0.98268 0.88779 0.0
H612 H 0.70744 0.43889 0.11165 0.0
H613 H 0.73017 0.42509 0.12177 0.0
H614 H 0.76953 0.47299 0.28367 0.0
H615 H 0.74689 0.48689 0.27435 0.0
H616 H 0.77395 0.44327 0.10432 0.0
H617 H 0.75184 0.4202 0.39148 0.0
H618 H 0.73718 0.42676 0.32924 0.0
H619 H 0.76066 0.44606 0.37507 0.0
C620 C 0.72108 0.44668 0.14862 0.0
C621 C 0.72525 0.46391 0.19263 0.0
C622 C 0.73404 0.43875 0.15435 0.0
C623 C 0.75131 0.44785 0.20434 0.0
C624 C 0.75608 0.46559 0.24562 0.0
H625 H 0.82881 0.4004 0.35564 0.0
H626 H 0.81492 0.42263 0.33633 0.0
C627 C 0.74317 0.47356 0.23986 0.0
C628 C 0.76378 0.43822 0.21558 0.0
H629 H 0.77578 0.41304 0.34146 0.0
C630 C 0.77446 0.43674 0.15623 0.0
C631 C 0.76446 0.42983 0.28355 0.0
C632 C 0.75284 0.4306 0.3485 0.0
C633 C 0.78579 0.42698 0.1629 0.0
C634 C 0.78598 0.41802 0.23011 0.0
C635 C 0.77565 0.41992 0.29003 0.0
C636 C 0.79575 0.40561 0.23816 0.0
C637 C 0.79755 0.42648 0.09801 0.0
C638 C 0.78964 0.3887 0.18936 0.0
C639 C 0.79767 0.37611 0.19978 0.0
C640 C 0.81176 0.37997 0.26008 0.0
C641 C 0.81806 0.39705 0.30849 0.0
C642 C 0.8101 0.40974 0.29764 0.0
H643 H 0.80145 0.43929 0.06261 0.0
H644 H 0.81182 0.4269 0.11723 0.0
H645 H 0.78802 0.41245 0.06269 0.0
H646 H 0.77817 0.38486 0.14437 0.0
H647 H 0.79231 0.36298 0.16188 0.0
H648 H 0.66132 0.41555 0.36209 0.0
H649 H 0.63494 0.38055 0.33735 0.0
H650 H 0.60065 0.39846 0.19486 0.0
H651 H 0.62741 0.43368 0.21765 0.0
H652 H 0.59485 0.35946 0.35953 0.0
H653 H 0.60652 0.35952 0.05638 0.0
H654 H 0.62364 0.38002 0.1213 0.0
H655 H 0.59966 0.37741 0.08963 0.0
C656 C 0.64815 0.41212 0.32571 0.0
C657 C 0.6466 0.42741 0.2911 0.0
C658 C 0.63303 0.39206 0.31175 0.0
C659 C 0.61599 0.38682 0.26314 0.0
C660 C 0.61391 0.4021 0.23111 0.0
H661 H 0.5209 0.25844 0.23047 0.0
H662 H 0.53684 0.29504 0.24715 0.0
C663 C 0.62916 0.42223 0.24455 0.0
C664 C 0.60097 0.36527 0.24451 0.0
H665 H 0.58173 0.32916 0.10118 0.0
C666 C 0.59181 0.35282 0.30297 0.0
C667 C 0.5972 0.35663 0.17072 0.0
C668 C 0.60737 0.36901 0.10587 0.0
C669 C 0.57956 0.33192 0.29016 0.0
C670 C 0.57585 0.32326 0.21635 0.0
C671 C 0.58445 0.33581 0.15761 0.0
C672 C 0.56496 0.30116 0.19966 0.0
C673 C 0.57166 0.31929 0.35637 0.0
C674 C 0.57495 0.29243 0.1636 0.0
C675 C 0.5657 0.27162 0.15234 0.0
C676 C 0.5463 0.25902 0.17757 0.0
C677 C 0.53593 0.26776 0.21098 0.0
C678 C 0.5451 0.28866 0.22118 0.0
H679 H 0.5798 0.3278 0.40963 0.0
H680 H 0.55529 0.31434 0.35991 0.0
H681 H 0.5732 0.30574 0.35067 0.0
H682 H 0.59025 0.30172 0.14625 0.0
H683 H 0.57417 0.26542 0.12665 0.0
H684 H 0.59767 0.24797 0.33246 0.0
H685 H 0.63273 0.25687 0.31452 0.0
H686 H 0.61157 0.20058 0.1885 0.0
H687 H 0.57622 0.19186 0.20389 0.0
H688 H 0.65548 0.24098 0.35233 0.0
H689 H 0.6473 0.23918 0.04343 0.0
H690 H 0.62779 0.23739 0.10173 0.0
H691 H 0.63054 0.21585 0.08251 0.0
C692 C 0.60041 0.23741 0.30104 0.0
C693 C 0.5841 0.21927 0.26897 0.0
C694 C 0.62052 0.24252 0.29094 0.0
C695 C 0.62488 0.22959 0.24895 0.0
C696 C 0.60864 0.21107 0.21939 0.0
H697 H 0.75559 0.26633 0.24908 0.0
H698 H 0.71892 0.24525 0.26235 0.0
C699 C 0.58843 0.20604 0.22866 0.0
C700 C 0.64643 0.236 0.23509 0.0
H701 H 0.67943 0.24739 0.09694 0.0
C702 C 0.66071 0.24224 0.29647 0.0
C703 C 0.6533 0.2378 0.16215 0.0
C704 C 0.639 0.23238 0.09362 0.0
C705 C 0.68166 0.25085 0.28711 0.0
C706 C 0.68853 0.25273 0.21412 0.0
C707 C 0.67417 0.24582 0.15282 0.0
C708 C 0.71058 0.26385 0.19985 0.0
C709 C 0.69627 0.25884 0.35548 0.0
C710 C 0.71803 0.28063 0.15669 0.0
C711 C 0.73885 0.29239 0.14761 0.0
C712 C 0.75281 0.28777 0.18199 0.0
C713 C 0.74527 0.27039 0.22229 0.0
C714 C 0.72432 0.25845 0.23059 0.0
H715 H 0.68891 0.26036 0.40551 0.0
H716 H 0.70183 0.24832 0.36734 0.0
H717 H 0.70962 0.27372 0.34661 0.0
H718 H 0.70779 0.2851 0.13206 0.0
H719 H 0.74403 0.30562 0.11614 0.0
H720 H 0.45424 0.71462 0.87931 0.0
H721 H 0.44005 0.73668 0.86236 0.0
H722 H 0.47638 0.76113 0.67452 0.0
H723 H 0.49074 0.73927 0.6909 0.0
H724 H 0.4615 0.78173 0.8503 0.0
H725 H 0.41441 0.73577 0.59694 0.0
H726 H 0.42495 0.72623 0.66507 0.0
H727 H 0.44105 0.74355 0.60044 0.0
C728 C 0.45948 0.72492 0.83518 0.0
C729 C 0.47357 0.72512 0.78632 0.0
C730 C 0.45134 0.73748 0.82557 0.0
C731 C 0.45704 0.7503 0.76673 0.0
C732 C 0.47171 0.75118 0.71986 0.0
H733 H 0.40467 0.81889 0.58528 0.0
H734 H 0.42691 0.80502 0.61032 0.0
C735 C 0.47995 0.73874 0.72964 0.0
C736 C 0.4469 0.76202 0.75209 0.0
H737 H 0.41266 0.76455 0.6312 0.0
C738 C 0.45086 0.77806 0.80237 0.0
C739 C 0.43309 0.75714 0.68936 0.0
C740 C 0.42793 0.73966 0.6349 0.0
C741 C 0.44135 0.78944 0.79135 0.0
C742 C 0.42728 0.78434 0.72927 0.0
C743 C 0.42354 0.76846 0.67853 0.0
C744 C 0.41542 0.79454 0.7177 0.0
C745 C 0.44653 0.80691 0.84581 0.0
C746 C 0.40171 0.7933 0.77002 0.0
C747 C 0.38898 0.80114 0.75584 0.0
C748 C 0.38969 0.81028 0.6889 0.0
C749 C 0.40383 0.812 0.63746 0.0
C750 C 0.41651 0.80407 0.65159 0.0
H751 H 0.4615 0.81237 0.87665 0.0
H752 H 0.44687 0.81955 0.8169 0.0
H753 H 0.43476 0.80206 0.88716 0.0
H754 H 0.40037 0.78567 0.82072 0.0
H755 H 0.37824 0.79959 0.79659 0.0
H756 H 0.24081 0.60117 0.50743 0.0
H757 H 0.25319 0.63693 0.53399 0.0
H758 H 0.2049 0.62236 0.68074 0.0
H759 H 0.19227 0.58658 0.65449 0.0
H760 H 0.22385 0.65931 0.544 0.0
H761 H 0.26941 0.65775 0.79169 0.0
H762 H 0.26415 0.64124 0.70978 0.0
H763 H 0.244 0.63715 0.76783 0.0
C764 C 0.2325 0.60552 0.54394 0.0
C765 C 0.21565 0.591 0.57928 0.0
C766 C 0.23964 0.62595 0.55914 0.0
C767 C 0.23003 0.63215 0.60981 0.0
C768 C 0.21248 0.61777 0.64158 0.0
H769 H 0.28663 0.75115 0.84249 0.0
H770 H 0.26463 0.71499 0.81041 0.0
C771 C 0.20527 0.59734 0.6262 0.0
C772 C 0.23931 0.65358 0.63394 0.0
H773 H 0.27348 0.68898 0.76361 0.0
C774 C 0.23461 0.66587 0.59221 0.0
C775 C 0.25304 0.66186 0.69749 0.0
C776 C 0.25808 0.64894 0.74472 0.0
C777 C 0.24355 0.68647 0.61194 0.0
C778 C 0.25813 0.69508 0.67362 0.0
C779 C 0.26239 0.68253 0.71631 0.0
C780 C 0.26991 0.71711 0.6926 0.0
C781 C 0.23694 0.6986 0.56684 0.0
C782 C 0.28018 0.73038 0.63748 0.0
C783 C 0.29195 0.75096 0.65527 0.0
C784 C 0.29441 0.75868 0.72915 0.0
C785 C 0.28457 0.74552 0.7849 0.0
C786 C 0.27217 0.7249 0.76659 0.0
H787 H 0.22105 0.68914 0.54276 0.0
H788 H 0.23794 0.71137 0.60097 0.0
H789 H 0.24684 0.70454 0.51958 0.0
H790 H 0.27962 0.7248 0.58086 0.0
H791 H 0.30002 0.76075 0.61177 0.0
H792 H 0.41777 0.66157 0.64937 0.0
H793 H 0.38254 0.63488 0.65019 0.0
H794 H 0.40192 0.59561 0.74073 0.0
H795 H 0.43758 0.62273 0.74209 0.0
H796 H 0.36327 0.59733 0.57766 0.0
H797 H 0.36086 0.59261 0.88619 0.0
H798 H 0.38173 0.61308 0.84419 0.0
H799 H 0.37942 0.58873 0.84117 0.0
C800 C 0.41461 0.64729 0.6696 0.0
C801 C 0.43042 0.64424 0.69592 0.0
C802 C 0.39445 0.63201 0.66976 0.0
C803 C 0.38962 0.61331 0.69571 0.0
C804 C 0.40534 0.61005 0.72144 0.0
H805 H 0.2563 0.53318 0.63608 0.0
H806 H 0.29203 0.54204 0.63506 0.0
C807 C 0.42565 0.6255 0.7221 0.0
C808 C 0.36794 0.59776 0.69668 0.0
H809 H 0.32984 0.57616 0.81524 0.0
C810 C 0.35592 0.59227 0.62934 0.0
C811 C 0.35852 0.59117 0.7643 0.0
C812 C 0.37069 0.59671 0.83829 0.0
C813 C 0.33463 0.58193 0.62842 0.0
C814 C 0.32522 0.57655 0.69667 0.0
C815 C 0.33721 0.58045 0.76321 0.0
C816 C 0.30344 0.56991 0.70168 0.0
C817 C 0.32248 0.57835 0.55533 0.0
C818 C 0.29806 0.58238 0.74126 0.0
C819 C 0.27774 0.57732 0.74256 0.0
C820 C 0.26244 0.5597 0.70404 0.0
C821 C 0.2678 0.54696 0.66581 0.0
C822 C 0.28818 0.55199 0.66498 0.0
H823 H 0.33233 0.58609 0.50944 0.0
H824 H 0.31381 0.56203 0.53936 0.0
H825 H 0.31139 0.58362 0.56081 0.0
H826 H 0.30967 0.59633 0.76975 0.0
H827 H 0.2741 0.58742 0.77254 0.0
H828 H 0.98607 0.18817 0.835 0.0
H829 H 0.98783 0.19174 0.70022 0.0
H830 H 0.00419 0.1457 0.67979 0.0
H831 H 0.00193 0.14185 0.81409 0.0
H832 H 0.02469 0.20423 0.64094 0.0
H833 H 0.96501 0.13236 0.49903 0.0
H834 H 0.96437 0.13919 0.59555 0.0
H835 H 0.98019 0.12904 0.56971 0.0
C836 C 0.98908 0.17823 0.80067 0.0
C837 C 0.99353 0.16453 0.83301 0.0
C838 C 0.99021 0.18035 0.7244 0.0
C839 C 0.99597 0.16886 0.6807 0.0
C840 C 0.99923 0.1543 0.71268 0.0
H841 H 0.03175 0.16573 0.24287 0.0
H842 H 0.03086 0.16581 0.37876 0.0
C843 C 0.9979 0.15206 0.78889 0.0
C844 C 0.00146 0.17403 0.60442 0.0
H845 H 0.99234 0.1541 0.42637 0.0
C846 C 0.01751 0.19339 0.59364 0.0
C847 C 0.99207 0.15973 0.54379 0.0
C848 C 0.97433 0.13898 0.55242 0.0
C849 C 0.02486 0.19868 0.52317 0.0
C850 C 0.01575 0.18421 0.46296 0.0
C851 C 0.99945 0.165 0.47354 0.0
C852 C 0.0222 0.18859 0.38722 0.0
C853 C 0.04248 0.21945 0.51385 0.0
C854 C 0.01859 0.2021 0.34867 0.0
C855 C 0.01942 0.20226 0.27161 0.0
C856 C 0.02364 0.18877 0.23353 0.0
C857 C 0.02875 0.17638 0.27241 0.0
C858 C 0.0282 0.17641 0.34939 0.0
H859 H 0.05096 0.22692 0.56796 0.0
H860 H 0.0532 0.21892 0.47491 0.0
H861 H 0.03659 0.22878 0.49008 0.0
H862 H 0.01349 0.21124 0.37713 0.0
H863 H 0.01504 0.21158 0.24145 0.0
H864 H 0.85765 0.85748 0.85497 0.0
H865 H 0.86331 0.86344 0.72316 0.0
H866 H 0.83671 0.79985 0.67188 0.0
H867 H 0.83096 0.79373 0.80367 0.0
H868 H 0.87336 0.82814 0.59036 0.0
H869 H 0.80849 0.8426 0.58643 0.0
H870 H 0.8289 0.85677 0.6564 0.0
H871 H 0.81344 0.83008 0.66043 0.0
C872 C 0.85354 0.84485 0.81592 0.0
C873 C 0.84363 0.82514 0.83889 0.0
C874 C 0.85672 0.84827 0.74091 0.0
C875 C 0.85013 0.83202 0.68862 0.0
C876 C 0.84176 0.81249 0.71206 0.0
H877 H 0.82678 0.81088 0.21526 0.0
H878 H 0.82713 0.80842 0.3505 0.0
C879 C 0.83843 0.80904 0.78699 0.0
C880 C 0.84969 0.83506 0.60894 0.0
H881 H 0.82427 0.84543 0.47357 0.0
C882 C 0.86275 0.83202 0.56465 0.0
C883 C 0.83555 0.83984 0.57638 0.0
C884 C 0.82065 0.84239 0.62201 0.0
C885 C 0.86212 0.83383 0.48767 0.0
C886 C 0.84804 0.83867 0.45537 0.0
C887 C 0.83504 0.84178 0.49952 0.0
C888 C 0.84657 0.84035 0.37513 0.0
C889 C 0.87632 0.83049 0.44091 0.0
C890 C 0.85708 0.85919 0.3458 0.0
C891 C 0.85704 0.86068 0.26896 0.0
C892 C 0.84635 0.8433 0.22104 0.0
C893 C 0.83516 0.8245 0.25103 0.0
C894 C 0.83534 0.82304 0.32789 0.0
H895 H 0.88746 0.82838 0.47546 0.0
H896 H 0.86731 0.81696 0.40247 0.0
H897 H 0.88474 0.84345 0.4062 0.0
H898 H 0.86571 0.87264 0.3823 0.0
H899 H 0.86564 0.87536 0.24717 0.0
H900 H 0.15635 0.02812 0.76999 0.0
H901 H 0.15614 0.02488 0.63422 0.0
H902 H 0.19056 0.99451 0.65376 0.0
H903 H 0.19093 0.99767 0.78991 0.0
H904 H 0.19814 0.03352 0.53806 0.0
H905 H 0.12686 0.959 0.53007 0.0
H906 H 0.13169 0.97828 0.60114 0.0
H907 H 0.1468 0.96644 0.60285 0.0
C908 C 0.16403 0.0209 0.74549 0.0
C909 C 0.17348 0.01296 0.79034 0.0
C910 C 0.16395 0.01916 0.66821 0.0
C911 C 0.17321 0.00938 0.63501 0.0
C912 C 0.18336 0.0021 0.6792 0.0
H913 H 0.16978 0.97046 0.18005 0.0
H914 H 0.16558 0.97075 0.31382 0.0
C915 C 0.18355 0.00393 0.75665 0.0
C916 C 0.17098 0.00562 0.55396 0.0
H917 H 0.13886 0.97237 0.41474 0.0
C918 C 0.18525 0.02019 0.51076 0.0
C919 C 0.15424 0.98806 0.5197 0.0
C920 C 0.13893 0.97193 0.56539 0.0
C921 C 0.18305 0.01771 0.4329 0.0
C922 C 0.16577 1.00052 0.39828 0.0
C923 C 0.15178 0.98571 0.44181 0.0
C924 C 0.16277 0.99732 0.31668 0.0
C925 C 0.19941 0.03331 0.38846 0.0
C926 C 0.16099 0.01128 0.27387 0.0
C927 C 0.16358 0.01127 0.19763 0.0
C928 C 0.16771 0.99715 0.16372 0.0
C929 C 0.16683 0.98165 0.20516 0.0
C930 C 0.16443 0.98178 0.28147 0.0
H931 H 0.21377 0.04281 0.42325 0.0
H932 H 0.20273 0.02614 0.34062 0.0
H933 H 0.19412 0.04327 0.36614 0.0
H934 H 0.1593 0.02314 0.30039 0.0
H935 H 0.16438 0.02346 0.16714 0.0
H936 H 0.71672 0.51631 0.50412 0.0
H937 H 0.71465 0.51951 0.63879 0.0
H938 H 0.65683 0.5166 0.60264 0.0
H939 H 0.6586 0.51317 0.46811 0.0
H940 H 0.70346 0.54516 0.74424 0.0
H941 H 0.64877 0.46294 0.70218 0.0
H942 H 0.66691 0.4768 0.63484 0.0
H943 H 0.64479 0.47919 0.643 0.0
C944 C 0.70386 0.51696 0.5248 0.0
C945 C 0.68764 0.51413 0.47593 0.0
C946 C 0.70276 0.51886 0.60153 0.0
C947 C 0.68545 0.51796 0.6298 0.0
C948 C 0.67023 0.51722 0.58116 0.0
H949 H 0.64283 0.50368 0.07196 0.0
H950 H 0.64522 0.50457 0.93683 0.0
C951 C 0.67132 0.51533 0.50444 0.0
C952 C 0.68183 0.51448 0.70875 0.0
H953 H 0.655 0.47736 0.82495 0.0
C954 C 0.69285 0.53041 0.76214 0.0
C955 C 0.6681 0.49509 0.73104 0.0
C956 C 0.6565 0.47742 0.67506 0.0
C957 C 0.69027 0.52742 0.83817 0.0
C958 C 0.67654 0.50804 0.86034 0.0
C959 C 0.66549 0.49214 0.807 0.0
C960 C 0.67347 0.50421 0.93927 0.0
C961 C 0.70211 0.54491 0.89459 0.0
C962 C 0.68811 0.50273 0.98381 0.0
C963 C 0.68678 0.50212 0.06077 0.0
C964 C 0.67089 0.50322 0.09386 0.0
C965 C 0.6554 0.50312 0.04812 0.0
C966 C 0.65671 0.50362 0.97112 0.0
H967 H 0.71047 0.55939 0.86785 0.0
H968 H 0.6917 0.54589 0.9339 0.0
H969 H 0.71329 0.54255 0.9277 0.0
H970 H 0.70102 0.50296 0.95934 0.0
H971 H 0.6988 0.50191 0.09445 0.0
H972 H 0.52732 0.161 0.45018 0.0
H973 H 0.53141 0.16204 0.58561 0.0
H974 H 0.49729 0.19276 0.6054 0.0
H975 H 0.49344 0.1921 0.46889 0.0
H976 H 0.53545 0.21087 0.68925 0.0
H977 H 0.48811 0.1293 0.73015 0.0
H978 H 0.50665 0.13552 0.66199 0.0
H979 H 0.48602 0.14026 0.64555 0.0
C980 C 0.52052 0.16778 0.48351 0.0
C981 C 0.51009 0.1765 0.45014 0.0
C982 C 0.52281 0.1683 0.56045 0.0
C983 C 0.51441 0.17724 0.6045 0.0
C984 C 0.5038 0.1858 0.57144 0.0
H985 H 0.50471 0.19557 0.05741 0.0
H986 H 0.51291 0.20208 0.9288 0.0
C987 C 0.5017 0.18549 0.49418 0.0
C988 C 0.51776 0.17858 0.6853 0.0
H989 H 0.50805 0.15024 0.83475 0.0
C990 C 0.52953 0.19767 0.72149 0.0
C991 C 0.51009 0.16123 0.72589 0.0
C992 C 0.49687 0.14042 0.68913 0.0
C993 C 0.53391 0.19993 0.79847 0.0
C994 C 0.52601 0.1826 0.83947 0.0
C995 C 0.51444 0.16348 0.80275 0.0
C996 C 0.52699 0.18367 0.92108 0.0
C997 C 0.54684 0.22079 0.83481 0.0
C998 C 0.53273 0.17163 0.95983 0.0
C999 C 0.5274 0.16732 0.03275 0.0
C1000 C 0.51658 0.17529 0.06741 0.0
C1001 C 0.51297 0.18916 0.03149 0.0
C1002 C 0.5179 0.19312 0.95822 0.0
H1003 H 0.55781 0.23104 0.79594 0.0
H1004 H 0.53686 0.22689 0.84957 0.0
H1005 H 0.55541 0.22083 0.8863 0.0
H1006 H 0.53976 0.16424 0.93164 0.0
H1007 H 0.53059 0.15681 0.06017 0.0
H1008 H 0.8711 0.35158 0.49197 0.0
H1009 H 0.87305 0.35601 0.6285 0.0
H1010 H 0.80802 0.31737 0.62781 0.0
H1011 H 0.80582 0.31303 0.49173 0.0
H1012 H 0.84061 0.36765 0.71091 0.0
H1013 H 0.8448 0.29991 0.78122 0.0
H1014 H 0.85572 0.31335 0.69948 0.0
H1015 H 0.82864 0.29815 0.70166 0.0
C1016 C 0.85726 0.34388 0.52105 0.0
C1017 C 0.83828 0.33205 0.48145 0.0
C1018 C 0.8584 0.34651 0.59869 0.0
C1019 C 0.84064 0.3371 0.63733 0.0
C1020 C 0.82181 0.32481 0.5983 0.0
H1021 H 0.81669 0.31942 0.09743 0.0
H1022 H 0.81133 0.32133 0.96379 0.0
C1023 C 0.82061 0.32236 0.52084 0.0
C1024 C 0.84149 0.3403 0.71864 0.0
H1025 H 0.84123 0.31849 0.88005 0.0
C1026 C 0.84082 0.35701 0.74827 0.0
C1027 C 0.84171 0.32629 0.76623 0.0
C1028 C 0.84283 0.30839 0.7361 0.0
C1029 C 0.84009 0.35992 0.82529 0.0
C1030 C 0.84004 0.34573 0.87293 0.0
C1031 C 0.8409 0.32914 0.84298 0.0
C1032 C 0.84043 0.34819 0.95471 0.0
C1033 C 0.83907 0.37788 0.8551 0.0
C1034 C 0.85805 0.36333 -0.00591 0.0
C1035 C 0.86114 0.36228 0.07033 0.0
C1036 C 0.84669 0.34599 0.10784 0.0
C1037 C 0.82807 0.33212 0.06995 0.0
C1038 C 0.82502 0.33315 -0.00642 0.0
H1039 H 0.83457 0.38476 0.81042 0.0
H1040 H 0.8281 0.37365 0.89933 0.0
H1041 H 0.85429 0.38936 0.88012 0.0
H1042 H 0.87018 0.37494 0.96489 0.0
H1043 H 0.87557 0.37327 0.09842 0.0
H1044 H 0.32603 0.80373 0.43855 0.0
H1045 H 0.32889 0.80561 0.30373 0.0
H1046 H 0.35455 0.86976 0.32738 0.0
H1047 H 0.35181 0.86812 0.46222 0.0
H1048 H 0.31399 0.82851 0.19685 0.0
H1049 H 0.39684 0.8542 0.22689 0.0
H1050 H 0.3795 0.83986 0.29588 0.0
H1051 H 0.38705 0.86576 0.28874 0.0
C1052 C 0.33212 0.81822 0.41501 0.0
C1053 C 0.33888 0.83582 0.46077 0.0
C1054 C 0.33368 0.81922 0.33826 0.0
C1055 C 0.3421 0.83782 0.30679 0.0
C1056 C 0.34813 0.85532 0.35159 0.0
H1057 H 0.3756 0.88487 0.88435 0.0
H1058 H 0.37454 0.87797 0.01616 0.0
C1059 C 0.3465 0.85434 0.42829 0.0
C1060 C 0.34552 0.83909 0.2273 0.0
H1061 H 0.38286 0.853 0.10582 0.0
C1062 C 0.32896 0.83369 0.17648 0.0
C1063 C 0.36514 0.84593 0.20224 0.0
C1064 C 0.38322 0.85171 0.25598 0.0
C1065 C 0.33164 0.83551 0.10014 0.0
C1066 C 0.35131 0.84237 0.07481 0.0
C1067 C 0.36782 0.84752 0.12584 0.0
C1068 C 0.35519 0.84584 -0.00401 0.0
C1069 C 0.3136 0.83083 0.04764 0.0
C1070 C 0.34555 0.82989 0.94171 0.0
C1071 C 0.34608 0.8338 0.86664 0.0
C1072 C 0.35632 0.85364 0.84534 0.0
C1073 C 0.36742 0.86943 0.89953 0.0
C1074 C 0.36688 0.86553 0.97461 0.0
H1075 H 0.30075 0.82998 0.07782 0.0
H1076 H 0.31792 0.84239 0.0061 0.0
H1077 H 0.30817 0.81612 0.01699 0.0
H1078 H 0.3367 0.81457 0.9576 0.0
H1079 H 0.33736 0.82146 0.82582 0.0
H1080 H 0.2007 0.54761 0.8983 0.0
H1081 H 0.20113 0.54483 0.03292 0.0
H1082 H 0.15608 0.48191 0.00169 0.0
H1083 H 0.15632 0.48445 0.86644 0.0
H1084 H 0.17328 0.53351 0.13602 0.0
H1085 H 0.20226 0.48048 0.11434 0.0
H1086 H 0.20101 0.49409 0.03665 0.0
H1087 H 0.17863 0.47166 0.06076 0.0
C1088 C 0.19065 0.53322 0.92006 0.0
C1089 C 0.17861 0.51607 0.87204 0.0
C1090 C 0.19098 0.53168 -0.00303 0.0
C1091 C 0.1791 0.51305 0.02682 0.0
C1092 C 0.16586 0.49628 0.97933 0.0
H1093 H 0.15307 0.46547 0.45267 0.0
H1094 H 0.15722 0.47189 0.32057 0.0
C1095 C 0.16583 0.49774 0.90234 0.0
C1096 C 0.18114 0.511 0.10733 0.0
H1097 H 0.19121 0.48446 0.23276 0.0
C1098 C 0.17735 0.52292 0.15738 0.0
C1099 C 0.18685 0.49743 0.13467 0.0
C1100 C 0.19264 0.48535 0.08384 0.0
C1101 C 0.17812 0.52088 0.23431 0.0
C1102 C 0.18295 0.50666 0.26124 0.0
C1103 C 0.18738 0.49522 0.21143 0.0
C1104 C 0.18209 0.50244 0.34049 0.0
C1105 C 0.17308 0.53343 0.28583 0.0
C1106 C 0.19523 0.5173 0.3947 0.0
C1107 C 0.19284 0.51371 0.47003 0.0
C1108 C 0.17741 0.49515 0.49185 0.0
C1109 C 0.16506 0.47991 0.43729 0.0
C1110 C 0.16739 0.48356 0.36201 0.0
H1111 H 0.16588 0.54076 0.25503 0.0
H1112 H 0.16267 0.52412 0.32799 0.0
H1113 H 0.18729 0.54537 0.31589 0.0
H1114 H 0.20696 0.53181 0.37879 0.0
H1115 H 0.20273 0.52559 0.51114 0.0
H1116 H 0.53828 0.68211 0.4995 0.0
H1117 H 0.53831 0.67635 0.36446 0.0
H1118 H 0.47597 0.66282 0.33822 0.0
H1119 H 0.47601 0.66902 0.47232 0.0
H1120 H 0.5122 0.64244 0.26375 0.0
H1121 H 0.50705 0.71021 0.20752 0.0
H1122 H 0.5136 0.7055 0.29919 0.0
H1123 H 0.48751 0.69272 0.26281 0.0
C1124 C 0.52462 0.67786 0.46468 0.0
C1125 C 0.50728 0.67635 0.49553 0.0
C1126 C 0.52463 0.67451 0.38801 0.0
C1127 C 0.50724 0.66951 0.34193 0.0
C1128 C 0.48964 0.6671 0.37315 0.0
H1129 H 0.48538 0.66556 0.86447 0.0
H1130 H 0.48086 0.66209 -0.00142 0.0
C1131 C 0.48971 0.67071 0.44943 0.0
C1132 C 0.50775 0.66786 0.26065 0.0
H1133 H 0.50403 0.6893 0.10318 0.0
C1134 C 0.5104 0.65262 0.22829 0.0
C1135 C 0.50546 0.68128 0.21535 0.0
C1136 C 0.50343 0.69847 0.24787 0.0
C1137 C 0.5104 0.65015 0.15077 0.0
C1138 C 0.50807 0.66358 0.10533 0.0
C1139 C 0.5055 0.67886 0.13813 0.0
C1140 C 0.50945 0.66302 0.02393 0.0
C1141 C 0.51263 0.63305 0.11865 0.0
C1142 C 0.52692 0.66466 -0.00576 0.0
C1143 C 0.52919 0.66606 0.91808 0.0
C1144 C 0.51431 0.66651 0.87072 0.0
C1145 C 0.4969 0.66506 0.90014 0.0
C1146 C 0.49435 0.66309 0.97637 0.0
H1147 H 0.5072 0.62058 0.15667 0.0
H1148 H 0.50409 0.62709 0.06358 0.0
H1149 H 0.52897 0.63848 0.11146 0.0
H1150 H 0.53915 0.66553 0.03015 0.0
H1151 H 0.54301 0.66766 0.89666 0.0
loop_
_geom_bond_atom_site_label_1
_geom_bond_atom_site_label_2
_geom_bond_distance
_geom_bond_site_symmetry_2
_ccdc_geom_bond_type
Zn0 O6 1.969 1_455 S
Zn0 O7 1.985 . S
Zn0 O11 2.024 . S
Zn0 O16 1.969 1_554 S
Zn1 O8 1.969 . S
Zn1 O14 1.969 . S
Zn1 O15 1.965 1_554 S
Zn1 O17 2.024 1_455 S
C2 O3 1.229 1_554 S
C2 O11 1.058 . S
O3 C2 1.229 1_556 S
C4 O5 1.229 . S
C4 O17 1.058 . S
O5 C4 1.229 . S
O6 Zn0 1.969 1_655 S
O6 C9 1.267 . S
O7 Zn0 1.985 . S
O7 C18 1.262 . S
O8 Zn1 1.969 . S
O8 C18 1.258 . S
C9 O6 1.267 . S
C9 O10 1.228 . S
O10 C9 1.228 . S
O11 Zn0 2.024 . S
O11 C2 1.058 . S
C12 O13 1.228 1_554 S
C12 O14 1.267 . S
O13 C12 1.228 1_556 S
O14 Zn1 1.969 . S
O14 C12 1.267 . S
O15 Zn1 1.965 1_556 S
O15 C19 1.260 . S
O16 Zn0 1.969 1_556 S
O16 C19 1.258 . S
O17 Zn1 2.024 1_655 S
O17 C4 1.058 . S
C18 O7 1.262 . S
C18 O8 1.258 . S
C19 O15 1.260 . S
C19 O16 1.258 . S
Zn20 O26 1.969 . S
Zn20 O27 1.965 1_554 S
Zn20 O31 2.024 . S
Zn20 O36 1.969 . S
Zn21 O28 1.969 1_554 S
Zn21 O34 1.969 . S
Zn21 O35 1.965 . S
Zn21 O37 2.024 . S
C22 O23 1.229 . S
C22 O31 1.058 . S
O23 C22 1.229 . S
C24 O25 1.229 1_554 S
C24 O37 1.058 . S
O25 C24 1.229 1_556 S
O26 Zn20 1.969 . S
O26 C29 1.267 . S
O27 Zn20 1.965 1_556 S
O27 C38 1.260 . S
O28 Zn21 1.969 1_556 S
O28 C38 1.258 . S
C29 O26 1.267 . S
C29 O30 1.228 1_554 S
O30 C29 1.228 1_556 S
O31 Zn20 2.024 . S
O31 C22 1.058 . S
C32 O33 1.228 . S
C32 O34 1.267 . S
O33 C32 1.228 . S
O34 Zn21 1.969 . S
O34 C32 1.267 . S
O35 Zn21 1.965 . S
O35 C39 1.260 . S
O36 Zn20 1.969 . S
O36 C39 1.258 . S
O37 Zn21 2.024 . S
O37 C24 1.058 . S
C38 O27 1.260 . S
C38 O28 1.258 . S
C39 O35 1.260 . S
C39 O36 1.258 . S
Zn40 O46 1.969 . S
Zn40 O47 1.965 1_556 S
Zn40 O51 2.024 1_546 S
Zn40 O56 1.969 . S
Zn41 O48 1.969 . S
Zn41 O54 1.969 1_545 S
Zn41 O55 1.965 1_544 S
Zn41 O57 2.024 1_554 S
C42 O43 1.229 . S
C42 O51 1.058 1_556 S
O43 C42 1.229 . S
C44 O45 1.229 . S
C44 O57 1.058 1_554 S
O45 C44 1.229 . S
O46 Zn40 1.969 . S
O46 C49 1.267 1_556 S
O47 Zn40 1.965 1_554 S
O47 C58 1.260 . S
O48 Zn41 1.969 . S
O48 C58 1.258 . S
C49 O46 1.267 1_554 S
C49 O50 1.228 . S
O50 C49 1.228 . S
O51 Zn40 2.024 1_564 S
O51 C42 1.058 1_554 S
C52 O53 1.228 . S
C52 O54 1.267 1_556 S
O53 C52 1.228 . S
O54 Zn41 1.969 1_565 S
O54 C52 1.267 1_554 S
O55 Zn41 1.965 1_566 S
O55 C59 1.260 1_565 S
O56 Zn40 1.969 . S
O56 C59 1.258 . S
O57 Zn41 2.024 1_556 S
O57 C44 1.058 1_556 S
C58 O47 1.260 . S
C58 O48 1.258 . S
C59 O55 1.260 1_545 S
C59 O56 1.258 . S
Zn60 O66 1.969 . S
Zn60 O67 1.965 . S
Zn60 O71 2.024 . S
Zn60 O76 1.969 . S
Zn61 O68 1.969 . S
Zn61 O74 1.969 . S
Zn61 O75 1.965 . S
Zn61 O77 2.024 . S
C62 O63 1.229 . S
C62 O71 1.058 . S
O63 C62 1.229 . S
C64 O65 1.229 . S
C64 O77 1.058 . S
O65 C64 1.229 . S
O66 Zn60 1.969 . S
O66 C69 1.267 . S
O67 Zn60 1.965 . S
O67 C78 1.260 . S
O68 Zn61 1.969 . S
O68 C78 1.258 . S
C69 O66 1.267 . S
C69 O70 1.228 . S
O70 C69 1.228 . S
O71 Zn60 2.024 . S
O71 C62 1.058 . S
C72 O73 1.228 . S
C72 O74 1.267 . S
O73 C72 1.228 . S
O74 Zn61 1.969 . S
O74 C72 1.267 . S
O75 Zn61 1.965 . S
O75 C79 1.260 . S
O76 Zn60 1.969 . S
O76 C79 1.258 . S
O77 Zn61 2.024 . S
O77 C64 1.058 . S
C78 O67 1.260 . S
C78 O68 1.258 . S
C79 O75 1.260 . S
C79 O76 1.258 . S
Zn80 O86 1.969 . S
Zn80 O87 1.965 . S
Zn80 O91 2.024 . S
Zn80 O96 1.969 . S
Zn81 O88 1.969 . S
Zn81 O94 1.969 . S
Zn81 O95 1.965 . S
Zn81 O97 2.024 . S
C82 O83 1.229 . S
C82 O91 1.058 . S
O83 C82 1.229 . S
C84 O85 1.229 . S
C84 O97 1.058 . S
O85 C84 1.229 . S
O86 Zn80 1.969 . S
O86 C89 1.267 . S
O87 Zn80 1.965 . S
O87 C98 1.260 . S
O88 Zn81 1.969 . S
O88 C98 1.258 . S
C89 O86 1.267 . S
C89 O90 1.228 . S
O90 C89 1.228 . S
O91 Zn80 2.024 . S
O91 C82 1.058 . S
C92 O93 1.228 . S
C92 O94 1.267 . S
O93 C92 1.228 . S
O94 Zn81 1.969 . S
O94 C92 1.267 . S
O95 Zn81 1.965 . S
O95 C99 1.260 . S
O96 Zn80 1.969 . S
O96 C99 1.258 . S
O97 Zn81 2.024 . S
O97 C84 1.058 . S
C98 O87 1.260 . S
C98 O88 1.258 . S
C99 O95 1.260 . S
C99 O96 1.258 . S
Zn100 O106 1.969 . S
Zn100 O107 1.965 . S
Zn100 O111 2.024 . S
Zn100 O116 1.969 . S
Zn101 O108 1.969 . S
Zn101 O114 1.969 . S
Zn101 O115 1.965 . S
Zn101 O117 2.024 . S
C102 O103 1.229 . S
C102 O111 1.058 . S
O103 C102 1.229 . S
C104 O105 1.229 . S
C104 O117 1.058 . S
O105 C104 1.229 . S
O106 Zn100 1.969 . S
O106 C109 1.267 . S
O107 Zn100 1.965 . S
O107 C118 1.260 . S
O108 Zn101 1.969 . S
O108 C118 1.258 . S
C109 O106 1.267 . S
C109 O110 1.228 . S
O110 C109 1.228 . S
O111 Zn100 2.024 . S
O111 C102 1.058 . S
C112 O113 1.228 . S
C112 O114 1.267 . S
O113 C112 1.228 . S
O114 Zn101 1.969 . S
O114 C112 1.267 . S
O115 Zn101 1.965 . S
O115 C119 1.260 . S
O116 Zn100 1.969 . S
O116 C119 1.258 . S
O117 Zn101 2.024 . S
O117 C104 1.058 . S
C118 O107 1.260 . S
C118 O108 1.258 . S
C119 O115 1.260 . S
C119 O116 1.258 . S
Zn120 O126 1.969 . S
Zn120 O127 1.965 . S
Zn120 O131 2.024 . S
Zn120 O136 1.969 . S
Zn121 O128 1.969 . S
Zn121 O134 1.969 . S
Zn121 O135 1.965 . S
Zn121 O137 2.024 . S
C122 O123 1.229 . S
C122 O131 1.058 . S
O123 C122 1.229 . S
C124 O125 1.229 . S
C124 O137 1.058 . S
O125 C124 1.229 . S
O126 Zn120 1.969 . S
O126 C129 1.267 . S
O127 Zn120 1.965 . S
O127 C138 1.260 . S
O128 Zn121 1.969 . S
O128 C138 1.258 . S
C129 O126 1.267 . S
C129 O130 1.228 . S
O130 C129 1.228 . S
O131 Zn120 2.024 . S
O131 C122 1.058 . S
C132 O133 1.228 . S
C132 O134 1.267 . S
O133 C132 1.228 . S
O134 Zn121 1.969 . S
O134 C132 1.267 . S
O135 Zn121 1.965 . S
O135 C139 1.260 . S
O136 Zn120 1.969 . S
O136 C139 1.258 . S
O137 Zn121 2.024 . S
O137 C124 1.058 . S
C138 O127 1.260 . S
C138 O128 1.258 . S
C139 O135 1.260 . S
C139 O136 1.258 . S
Zn140 O146 1.969 . S
Zn140 O147 1.965 . S
Zn140 O151 2.024 . S
Zn140 O156 1.969 . S
Zn141 O148 1.969 . S
Zn141 O154 1.969 . S
Zn141 O155 1.965 . S
Zn141 O157 2.024 . S
C142 O143 1.229 . S
C142 O151 1.058 . S
O143 C142 1.229 . S
C144 O145 1.229 . S
C144 O157 1.058 . S
O145 C144 1.229 . S
O146 Zn140 1.969 . S
O146 C149 1.267 . S
O147 Zn140 1.965 . S
O147 C158 1.260 . S
O148 Zn141 1.969 . S
O148 C158 1.258 . S
C149 O146 1.267 . S
C149 O150 1.228 . S
O150 C149 1.228 . S
O151 Zn140 2.024 . S
O151 C142 1.058 . S
C152 O153 1.228 . S
C152 O154 1.267 . S
O153 C152 1.228 . S
O154 Zn141 1.969 . S
O154 C152 1.267 . S
O155 Zn141 1.965 . S
O155 C159 1.260 . S
O156 Zn140 1.969 . S
O156 C159 1.258 . S
O157 Zn141 2.024 . S
O157 C144 1.058 . S
C158 O147 1.260 . S
C158 O148 1.258 . S
C159 O155 1.260 . S
C159 O156 1.258 . S
Zn160 O166 1.969 . S
Zn160 O167 1.965 . S
Zn160 O171 2.024 . S
Zn160 O176 1.969 . S
Zn161 O168 1.969 . S
Zn161 O174 1.969 . S
Zn161 O175 1.965 . S
Zn161 O177 2.024 . S
C162 O163 1.229 . S
C162 O171 1.058 . S
O163 C162 1.229 . S
C164 O165 1.229 . S
C164 O177 1.058 . S
O165 C164 1.229 . S
O166 Zn160 1.969 . S
O166 C169 1.267 . S
O167 Zn160 1.965 . S
O167 C178 1.260 . S
O168 Zn161 1.969 . S
O168 C178 1.258 . S
C169 O166 1.267 . S
C169 O170 1.228 . S
O170 C169 1.228 . S
O171 Zn160 2.024 . S
O171 C162 1.058 . S
C172 O173 1.228 . S
C172 O174 1.267 . S
O173 C172 1.228 . S
O174 Zn161 1.969 . S
O174 C172 1.267 . S
O175 Zn161 1.965 . S
O175 C179 1.260 . S
O176 Zn160 1.969 . S
O176 C179 1.258 . S
O177 Zn161 2.024 . S
O177 C164 1.058 . S
C178 O167 1.260 . S
C178 O168 1.258 . S
C179 O175 1.260 . S
C179 O176 1.258 . S
H180 C188 0.929 . S
H181 C190 0.930 . S
H182 C192 0.930 . S
H183 C195 0.929 . S
H184 C198 0.930 . S
H185 C200 0.960 . S
H186 C200 0.960 . S
H187 C200 0.960 . S
C188 H180 0.929 . S
C188 C189 1.377 . S
C188 C190 1.384 . S
C189 C188 1.377 . S
C189 C195 1.390 . S
C190 H181 0.930 . S
C190 C188 1.384 . S
C190 C191 1.372 . S
C191 C190 1.372 . S
C191 C192 1.400 . S
C191 C196 1.490 . S
C192 H182 0.930 . S
C192 C191 1.400 . S
C192 C195 1.386 . S
H193 C209 0.930 . S
H194 C210 0.931 . S
C195 H183 0.929 . S
C195 C189 1.390 . S
C195 C192 1.386 . S
C196 C191 1.490 . S
C196 C198 1.395 . S
C196 C199 1.403 . S
H197 C203 0.930 . S
C198 H184 0.930 . S
C198 C196 1.395 . S
C198 C201 1.403 . S
C199 C196 1.403 . S
C199 C200 1.524 . S
C199 C203 1.400 . S
C200 H185 0.960 . S
C200 H186 0.960 . S
C200 H187 0.960 . S
C200 C199 1.524 . S
C201 C198 1.403 . S
C201 C202 1.392 . S
C201 C205 1.495 . S
C202 C201 1.392 . S
C202 C203 1.385 . S
C202 C204 1.478 . S
C203 H197 0.930 . S
C203 C199 1.400 . S
C203 C202 1.385 . S
C204 C202 1.478 . S
C204 C206 1.381 . S
C204 C210 1.383 . S
C205 C201 1.495 . S
C205 H211 0.959 1_556 S
C205 H212 0.961 . S
C205 H213 0.960 . S
C206 C204 1.381 . S
C206 C207 1.394 . S
C206 H214 0.930 . S
C207 C206 1.394 . S
C207 C208 1.383 . S
C207 H215 0.929 . S
C208 C207 1.383 . S
C208 C209 1.377 . S
C209 H193 0.930 . S
C209 C208 1.377 . S
C209 C210 1.379 . S
C210 H194 0.931 . S
C210 C204 1.383 . S
C210 C209 1.379 . S
H211 C205 0.959 1_554 S
H212 C205 0.961 . S
H213 C205 0.960 . S
H214 C206 0.930 . S
H215 C207 0.929 . S
H216 C224 0.929 . S
H217 C226 0.930 . S
H218 C228 0.924 1_554 S
H219 C231 0.929 . S
H220 C234 0.930 . S
H221 C236 0.960 . S
H222 C236 0.960 . S
H223 C236 0.960 . S
C224 H216 0.929 . S
C224 C225 1.377 . S
C224 C226 1.384 . S
C225 C224 1.377 . S
C225 C231 1.390 1_556 S
C226 H217 0.930 . S
C226 C224 1.384 . S
C226 C227 1.372 . S
C227 C226 1.372 . S
C227 C228 1.409 . S
C227 C232 1.490 . S
C228 H218 0.924 1_556 S
C228 C227 1.409 . S
C228 C231 1.382 1_556 S
H229 C245 0.930 . S
H230 C246 0.931 . S
C231 H219 0.929 . S
C231 C225 1.390 1_554 S
C231 C228 1.382 1_554 S
C232 C227 1.490 . S
C232 C234 1.395 . S
C232 C235 1.403 . S
H233 C239 0.930 . S
C234 H220 0.930 . S
C234 C232 1.395 . S
C234 C237 1.403 . S
C235 C232 1.403 . S
C235 C236 1.524 1_556 S
C235 C239 1.400 . S
C236 H221 0.960 . S
C236 H222 0.960 . S
C236 H223 0.960 . S
C236 C235 1.524 1_554 S
C237 C234 1.403 . S
C237 C238 1.392 . S
C237 C241 1.495 . S
C238 C237 1.392 . S
C238 C239 1.385 . S
C238 C240 1.478 . S
C239 H233 0.930 . S
C239 C235 1.400 . S
C239 C238 1.385 . S
C240 C238 1.478 . S
C240 C242 1.381 . S
C240 C246 1.383 . S
C241 C237 1.495 . S
C241 H247 0.959 . S
C241 H248 0.961 . S
C241 H249 0.960 . S
C242 C240 1.381 . S
C242 C243 1.394 . S
C242 H250 0.930 . S
C243 C242 1.394 . S
C243 C244 1.383 . S
C243 H251 0.929 . S
C244 C243 1.383 . S
C244 C245 1.377 . S
C245 H229 0.930 . S
C245 C244 1.377 . S
C245 C246 1.379 . S
C246 H230 0.931 . S
C246 C240 1.383 . S
C246 C245 1.379 . S
H247 C241 0.959 . S
H248 C241 0.961 . S
H249 C241 0.960 . S
H250 C242 0.930 . S
H251 C243 0.929 . S
H252 C260 0.929 . S
H253 C262 0.930 . S
H254 C264 0.930 . S
H255 C267 0.929 . S
H256 C270 0.930 . S
H257 C272 0.960 . S
H258 C272 0.960 . S
H259 C272 0.960 . S
C260 H252 0.929 . S
C260 C261 1.377 . S
C260 C262 1.384 . S
C261 C260 1.377 . S
C261 C267 1.390 . S
C262 H253 0.930 . S
C262 C260 1.384 . S
C262 C263 1.372 . S
C263 C262 1.372 . S
C263 C264 1.400 . S
C263 C268 1.490 . S
C264 H254 0.930 . S
C264 C263 1.400 . S
C264 C267 1.386 . S
H265 C281 0.930 . S
H266 C282 0.931 . S
C267 H255 0.929 . S
C267 C261 1.390 . S
C267 C264 1.386 . S
C268 C263 1.490 . S
C268 C270 1.395 . S
C268 C271 1.403 . S
H269 C275 0.930 . S
C270 H256 0.930 . S
C270 C268 1.395 . S
C270 C273 1.403 . S
C271 C268 1.403 . S
C271 C272 1.524 . S
C271 C275 1.400 . S
C272 H257 0.960 . S
C272 H258 0.960 . S
C272 H259 0.960 . S
C272 C271 1.524 . S
C273 C270 1.403 . S
C273 C274 1.392 . S
C273 C277 1.495 . S
C274 C273 1.392 . S
C274 C275 1.385 . S
C274 C276 1.478 . S
C275 H269 0.930 . S
C275 C271 1.400 . S
C275 C274 1.385 . S
C276 C274 1.478 . S
C276 C278 1.381 . S
C276 C282 1.383 . S
C277 C273 1.495 . S
C277 H283 0.959 . S
C277 H284 0.961 . S
C277 H285 0.960 . S
C278 C276 1.381 . S
C278 C279 1.394 . S
C278 H286 0.930 . S
C279 C278 1.394 . S
C279 C280 1.383 . S
C279 H287 0.929 . S
C280 C279 1.383 . S
C280 C281 1.377 . S
C281 H265 0.930 . S
C281 C280 1.377 . S
C281 C282 1.379 . S
C282 H266 0.931 . S
C282 C276 1.383 . S
C282 C281 1.379 . S
H283 C277 0.959 . S
H284 C277 0.961 . S
H285 C277 0.960 . S
H286 C278 0.930 . S
H287 C279 0.929 . S
H288 C296 0.929 . S
H289 C298 0.930 . S
H290 C300 0.930 . S
H291 C303 0.929 . S
H292 C306 0.930 . S
H293 C308 0.960 . S
H294 C308 0.960 . S
H295 C308 0.960 . S
C296 H288 0.929 . S
C296 C297 1.377 . S
C296 C298 1.384 . S
C297 C296 1.377 . S
C297 C303 1.390 . S
C298 H289 0.930 . S
C298 C296 1.384 . S
C298 C299 1.372 . S
C299 C298 1.372 . S
C299 C300 1.400 . S
C299 C304 1.490 . S
C300 H290 0.930 . S
C300 C299 1.400 . S
C300 C303 1.386 . S
H301 C317 0.930 . S
H302 C318 0.931 . S
C303 H291 0.929 . S
C303 C297 1.390 . S
C303 C300 1.386 . S
C304 C299 1.490 . S
C304 C306 1.395 . S
C304 C307 1.403 . S
H305 C311 0.930 . S
C306 H292 0.930 . S
C306 C304 1.395 . S
C306 C309 1.403 . S
C307 C304 1.403 . S
C307 C308 1.524 . S
C307 C311 1.400 . S
C308 H293 0.960 . S
C308 H294 0.960 . S
C308 H295 0.960 . S
C308 C307 1.524 . S
C309 C306 1.403 . S
C309 C310 1.392 . S
C309 C313 1.495 . S
C310 C309 1.392 . S
C310 C311 1.385 . S
C310 C312 1.478 . S
C311 H305 0.930 . S
C311 C307 1.400 . S
C311 C310 1.385 . S
C312 C310 1.478 . S
C312 C314 1.381 1_554 S
C312 C318 1.383 . S
C313 C309 1.495 . S
C313 H319 0.959 . S
C313 H320 0.961 . S
C313 H321 0.960 1_554 S
C314 C312 1.381 1_556 S
C314 C315 1.394 . S
C314 H322 0.930 . S
C315 C314 1.394 . S
C315 C316 1.383 1_556 S
C315 H323 0.929 . S
C316 C315 1.383 1_554 S
C316 C317 1.377 . S
C317 H301 0.930 . S
C317 C316 1.377 . S
C317 C318 1.379 . S
C318 H302 0.931 . S
C318 C312 1.383 . S
C318 C317 1.379 . S
H319 C313 0.959 . S
H320 C313 0.961 . S
H321 C313 0.960 1_556 S
H322 C314 0.930 . S
H323 C315 0.929 . S
H324 C332 0.929 . S
H325 C334 0.930 . S
H326 C336 0.930 . S
H327 C339 0.929 . S
H328 C342 0.930 . S
H329 C344 0.960 . S
H330 C344 0.960 . S
H331 C344 0.960 . S
C332 H324 0.929 . S
C332 C333 1.377 . S
C332 C334 1.384 . S
C333 C332 1.377 . S
C333 C339 1.390 . S
C334 H325 0.930 . S
C334 C332 1.384 . S
C334 C335 1.372 . S
C335 C334 1.372 . S
C335 C336 1.400 . S
C335 C340 1.490 . S
C336 H326 0.930 . S
C336 C335 1.400 . S
C336 C339 1.386 . S
H337 C353 0.930 . S
H338 C354 0.931 . S
C339 H327 0.929 . S
C339 C333 1.390 . S
C339 C336 1.386 . S
C340 C335 1.490 . S
C340 C342 1.395 . S
C340 C343 1.403 . S
H341 C347 0.930 . S
C342 H328 0.930 . S
C342 C340 1.395 . S
C342 C345 1.403 . S
C343 C340 1.403 . S
C343 C344 1.524 . S
C343 C347 1.400 . S
C344 H329 0.960 . S
C344 H330 0.960 . S
C344 H331 0.960 . S
C344 C343 1.524 . S
C345 C342 1.403 . S
C345 C346 1.392 . S
C345 C349 1.495 . S
C346 C345 1.392 . S
C346 C347 1.385 . S
C346 C348 1.478 . S
C347 H341 0.930 . S
C347 C343 1.400 . S
C347 C346 1.385 . S
C348 C346 1.478 . S
C348 C350 1.381 . S
C348 C354 1.383 . S
C349 C345 1.495 . S
C349 H355 0.959 . S
C349 H356 0.961 . S
C349 H357 0.960 . S
C350 C348 1.381 . S
C350 C351 1.394 . S
C350 H358 0.930 . S
C351 C350 1.394 . S
C351 C352 1.383 . S
C351 H359 0.929 . S
C352 C351 1.383 . S
C352 C353 1.377 . S
C353 H337 0.930 . S
C353 C352 1.377 . S
C353 C354 1.379 . S
C354 H338 0.931 . S
C354 C348 1.383 . S
C354 C353 1.379 . S
H355 C349 0.959 . S
H356 C349 0.961 . S
H357 C349 0.960 . S
H358 C350 0.930 . S
H359 C351 0.929 . S
H360 C368 0.929 . S
H361 C370 0.930 . S
H362 C372 0.930 . S
H363 C375 0.929 . S
H364 C378 0.930 . S
H365 C380 0.960 . S
H366 C380 0.960 . S
H367 C380 0.960 . S
C368 H360 0.929 . S
C368 C369 1.377 . S
C368 C370 1.384 . S
C369 C368 1.377 . S
C369 C375 1.390 . S
C370 H361 0.930 . S
C370 C368 1.384 . S
C370 C371 1.372 . S
C371 C370 1.372 . S
C371 C372 1.400 . S
C371 C376 1.490 . S
C372 H362 0.930 . S
C372 C371 1.400 . S
C372 C375 1.386 . S
H373 C389 0.930 . S
H374 C390 0.931 . S
C375 H363 0.929 . S
C375 C369 1.390 . S
C375 C372 1.386 . S
C376 C371 1.490 . S
C376 C378 1.395 . S
C376 C379 1.403 . S
H377 C383 0.930 . S
C378 H364 0.930 . S
C378 C376 1.395 . S
C378 C381 1.403 . S
C379 C376 1.403 . S
C379 C380 1.524 . S
C379 C383 1.400 . S
C380 H365 0.960 . S
C380 H366 0.960 . S
C380 H367 0.960 . S
C380 C379 1.524 . S
C381 C378 1.403 . S
C381 C382 1.392 . S
C381 C385 1.495 . S
C382 C381 1.392 . S
C382 C383 1.385 . S
C382 C384 1.478 . S
C383 H377 0.930 . S
C383 C379 1.400 . S
C383 C382 1.385 . S
C384 C382 1.478 . S
C384 C386 1.381 . S
C384 C390 1.383 . S
C385 C381 1.495 . S
C385 H391 0.959 . S
C385 H392 0.961 . S
C385 H393 0.960 . S
C386 C384 1.381 . S
C386 C387 1.394 . S
C386 H394 0.930 . S
C387 C386 1.394 . S
C387 C388 1.383 . S
C387 H395 0.929 . S
C388 C387 1.383 . S
C388 C389 1.377 . S
C389 H373 0.930 . S
C389 C388 1.377 . S
C389 C390 1.379 . S
C390 H374 0.931 . S
C390 C384 1.383 . S
C390 C389 1.379 . S
H391 C385 0.959 . S
H392 C385 0.961 . S
H393 C385 0.960 . S
H394 C386 0.930 . S
H395 C387 0.929 . S
H396 C404 0.929 . S
H397 C406 0.930 . S
H398 C408 0.930 . S
H399 C411 0.929 . S
H400 C414 0.930 . S
H401 C416 0.960 . S
H402 C416 0.960 . S
H403 C416 0.960 . S
C404 H396 0.929 . S
C404 C405 1.377 . S
C404 C406 1.384 . S
C405 C404 1.377 . S
C405 C411 1.390 . S
C406 H397 0.930 . S
C406 C404 1.384 . S
C406 C407 1.372 . S
C407 C406 1.372 . S
C407 C408 1.400 . S
C407 C412 1.490 . S
C408 H398 0.930 . S
C408 C407 1.400 . S
C408 C411 1.386 . S
H409 C425 0.930 . S
H410 C426 0.931 . S
C411 H399 0.929 . S
C411 C405 1.390 . S
C411 C408 1.386 . S
C412 C407 1.490 . S
C412 C414 1.395 . S
C412 C415 1.403 . S
H413 C419 0.930 . S
C414 H400 0.930 . S
C414 C412 1.395 . S
C414 C417 1.378 1_455 S
C415 C412 1.403 . S
C415 C416 1.524 . S
C415 C419 1.400 . S
C416 H401 0.960 . S
C416 H402 0.960 . S
C416 H403 0.960 . S
C416 C415 1.524 . S
C417 C414 1.378 1_655 S
C417 C418 1.404 . S
C417 C421 1.509 . S
C418 C417 1.404 . S
C418 C419 1.385 1_655 S
C418 C420 1.478 . S
C419 H413 0.930 . S
C419 C415 1.400 . S
C419 C418 1.385 1_455 S
C420 C418 1.478 . S
C420 C422 1.381 . S
C420 C426 1.383 . S
C421 C417 1.509 . S
C421 H427 0.959 . S
C421 H428 0.961 . S
C421 H429 0.960 . S
C422 C420 1.381 . S
C422 C423 1.394 . S
C422 H430 0.930 . S
C423 C422 1.394 . S
C423 C424 1.383 . S
C423 H431 0.929 . S
C424 C423 1.383 . S
C424 C425 1.377 . S
C425 H409 0.930 . S
C425 C424 1.377 . S
C425 C426 1.379 . S
C426 H410 0.931 . S
C426 C420 1.383 . S
C426 C425 1.379 . S
H427 C421 0.959 . S
H428 C421 0.961 . S
H429 C421 0.960 . S
H430 C422 0.930 . S
H431 C423 0.929 . S
H432 C440 0.929 . S
H433 C442 0.930 . S
H434 C444 0.930 . S
H435 C447 0.929 . S
H436 C450 0.930 . S
H437 C452 0.960 . S
H438 C452 0.960 . S
H439 C452 0.960 . S
C440 H432 0.929 . S
C440 C441 1.377 . S
C440 C442 1.384 . S
C441 C440 1.377 . S
C441 C447 1.390 . S
C442 H433 0.930 . S
C442 C440 1.384 . S
C442 C443 1.372 . S
C443 C442 1.372 . S
C443 C444 1.400 . S
C443 C448 1.490 . S
C444 H434 0.930 . S
C444 C443 1.400 . S
C444 C447 1.386 . S
H445 C461 0.930 . S
H446 C462 0.931 . S
C447 H435 0.929 . S
C447 C441 1.390 . S
C447 C444 1.386 . S
C448 C443 1.490 . S
C448 C450 1.395 . S
C448 C451 1.403 . S
H449 C455 0.930 . S
C450 H436 0.930 . S
C450 C448 1.395 . S
C450 C453 1.403 . S
C451 C448 1.403 . S
C451 C452 1.524 . S
C451 C455 1.400 . S
C452 H437 0.960 . S
C452 H438 0.960 . S
C452 H439 0.960 . S
C452 C451 1.524 . S
C453 C450 1.403 . S
C453 C454 1.392 . S
C453 C457 1.495 . S
C454 C453 1.392 . S
C454 C455 1.385 . S
C454 C456 1.478 . S
C455 H449 0.930 . S
C455 C451 1.400 . S
C455 C454 1.385 . S
C456 C454 1.478 . S
C456 C458 1.381 . S
C456 C462 1.383 . S
C457 C453 1.495 . S
C457 H463 0.959 . S
C457 H464 0.961 . S
C457 H465 0.960 . S
C458 C456 1.381 . S
C458 C459 1.394 . S
C458 H466 0.930 . S
C459 C458 1.394 . S
C459 C460 1.383 . S
C459 H467 0.929 . S
C460 C459 1.383 . S
C460 C461 1.377 . S
C461 H445 0.930 . S
C461 C460 1.377 . S
C461 C462 1.379 . S
C462 H446 0.931 . S
C462 C456 1.383 . S
C462 C461 1.379 . S
H463 C457 0.959 . S
H464 C457 0.961 . S
H465 C457 0.960 . S
H466 C458 0.930 . S
H467 C459 0.929 . S
H468 C476 0.929 . S
H469 C478 0.930 . S
H470 C480 0.930 . S
H471 C483 0.929 . S
H472 C486 0.930 . S
H473 C488 0.960 1_565 S
H474 C488 0.960 . S
H475 C488 0.960 . S
C476 H468 0.929 . S
C476 C477 1.377 . S
C476 C478 1.384 . S
C477 C476 1.377 . S
C477 C483 1.390 . S
C478 H469 0.930 . S
C478 C476 1.384 . S
C478 C479 1.372 . S
C479 C478 1.372 . S
C479 C480 1.400 . S
C479 C484 1.490 . S
C480 H470 0.930 . S
C480 C479 1.400 . S
C480 C483 1.386 . S
H481 C497 0.930 . S
H482 C498 0.931 . S
C483 H471 0.929 . S
C483 C477 1.390 . S
C483 C480 1.386 . S
C484 C479 1.490 . S
C484 C486 1.395 . S
C484 C487 1.403 . S
H485 C491 0.930 . S
C486 H472 0.930 . S
C486 C484 1.395 . S
C486 C489 1.403 . S
C487 C484 1.403 . S
C487 C488 1.524 . S
C487 C491 1.400 1_545 S
C488 H473 0.960 1_545 S
C488 H474 0.960 . S
C488 H475 0.960 . S
C488 C487 1.524 . S
C489 C486 1.403 . S
C489 C490 1.392 1_545 S
C489 C493 1.495 . S
C490 C489 1.392 1_565 S
C490 C491 1.385 . S
C490 C492 1.478 . S
C491 H485 0.930 . S
C491 C487 1.400 1_565 S
C491 C490 1.385 . S
C492 C490 1.478 . S
C492 C494 1.381 . S
C492 C498 1.383 . S
C493 C489 1.495 . S
C493 H499 0.959 . S
C493 H500 0.961 . S
C493 H501 0.960 . S
C494 C492 1.381 . S
C494 C495 1.394 . S
C494 H502 0.930 . S
C495 C494 1.394 . S
C495 C496 1.383 . S
C495 H503 0.929 . S
C496 C495 1.383 . S
C496 C497 1.377 . S
C497 H481 0.930 . S
C497 C496 1.377 . S
C497 C498 1.379 . S
C498 H482 0.931 . S
C498 C492 1.383 . S
C498 C497 1.379 . S
H499 C493 0.959 . S
H500 C493 0.961 . S
H501 C493 0.960 . S
H502 C494 0.930 . S
H503 C495 0.929 . S
H504 C512 0.929 . S
H505 C514 0.930 . S
H506 C516 0.934 . S
H507 C519 0.926 1_556 S
H508 C522 0.930 . S
H509 C524 0.960 . S
H510 C524 0.960 . S
H511 C524 0.960 . S
C512 H504 0.929 . S
C512 C513 1.377 . S
C512 C514 1.384 . S
C513 C512 1.377 . S
C513 C519 1.393 . S
C514 H505 0.930 . S
C514 C512 1.384 . S
C514 C515 1.372 . S
C515 C514 1.372 . S
C515 C516 1.396 1_554 S
C515 C520 1.490 . S
C516 H506 0.934 . S
C516 C515 1.396 1_556 S
C516 C519 1.385 1_556 S
H517 C533 0.930 . S
H518 C534 0.931 . S
C519 H507 0.926 1_554 S
C519 C513 1.393 . S
C519 C516 1.385 1_554 S
C520 C515 1.490 . S
C520 C522 1.395 . S
C520 C523 1.403 . S
H521 C527 0.930 . S
C522 H508 0.930 . S
C522 C520 1.395 . S
C522 C525 1.403 . S
C523 C520 1.403 . S
C523 C524 1.524 . S
C523 C527 1.400 . S
C524 H509 0.960 . S
C524 H510 0.960 . S
C524 H511 0.960 . S
C524 C523 1.524 . S
C525 C522 1.403 . S
C525 C526 1.392 . S
C525 C529 1.495 1_554 S
C526 C525 1.392 . S
C526 C527 1.385 . S
C526 C528 1.478 . S
C527 H521 0.930 . S
C527 C523 1.400 . S
C527 C526 1.385 . S
C528 C526 1.478 . S
C528 C530 1.381 . S
C528 C534 1.383 1_554 S
C529 C525 1.495 1_556 S
C529 H535 0.959 . S
C529 H536 0.961 . S
C529 H537 0.960 1_556 S
C530 C528 1.381 . S
C530 C531 1.394 . S
C530 H538 0.930 . S
C531 C530 1.394 . S
C531 C532 1.383 . S
C531 H539 0.929 . S
C532 C531 1.383 . S
C532 C533 1.377 1_554 S
C533 H517 0.930 . S
C533 C532 1.377 1_556 S
C533 C534 1.379 . S
C534 H518 0.931 . S
C534 C528 1.383 1_556 S
C534 C533 1.379 . S
H535 C529 0.959 . S
H536 C529 0.961 . S
H537 C529 0.960 1_554 S
H538 C530 0.930 . S
H539 C531 0.929 . S
H540 C548 0.929 . S
H541 C550 0.930 . S
H542 C552 0.930 . S
H543 C555 0.929 . S
H544 C558 0.930 . S
H545 C560 0.981 . S
H546 C560 0.960 . S
H547 C560 0.960 . S
C548 H540 0.929 . S
C548 C549 1.377 1_556 S
C548 C550 1.384 . S
C549 C548 1.377 1_554 S
C549 C555 1.390 . S
C550 H541 0.930 . S
C550 C548 1.384 . S
C550 C551 1.372 1_556 S
C551 C550 1.372 1_554 S
C551 C552 1.400 . S
C551 C556 1.490 . S
C552 H542 0.930 . S
C552 C551 1.400 . S
C552 C555 1.386 . S
H553 C569 0.930 . S
H554 C570 0.931 . S
C555 H543 0.929 . S
C555 C549 1.390 . S
C555 C552 1.386 . S
C556 C551 1.490 . S
C556 C558 1.395 . S
C556 C559 1.403 1_554 S
H557 C563 0.930 1_556 S
C558 H544 0.930 . S
C558 C556 1.395 . S
C558 C561 1.403 1_565 S
C559 C556 1.403 1_556 S
C559 C560 1.524 . S
C559 C563 1.400 1_566 S
C560 H545 0.981 . S
C560 H546 0.960 . S
C560 H547 0.960 . S
C560 C559 1.524 . S
C561 C558 1.403 1_545 S
C561 C562 1.392 . S
C561 C565 1.495 . S
C562 C561 1.392 . S
C562 C563 1.385 . S
C562 C564 1.478 . S
C563 H557 0.930 1_554 S
C563 C559 1.400 1_544 S
C563 C562 1.385 . S
C564 C562 1.478 . S
C564 C566 1.381 . S
C564 C570 1.383 . S
C565 C561 1.495 . S
C565 H571 0.959 . S
C565 H572 0.961 . S
C565 H573 0.960 . S
C566 C564 1.381 . S
C566 C567 1.394 . S
C566 H574 0.930 . S
C567 C566 1.394 . S
C567 C568 1.383 . S
C567 H575 0.929 . S
C568 C567 1.383 . S
C568 C569 1.377 . S
C569 H553 0.930 . S
C569 C568 1.377 . S
C569 C570 1.379 . S
C570 H554 0.931 . S
C570 C564 1.383 . S
C570 C569 1.379 . S
H571 C565 0.959 . S
H572 C565 0.961 . S
H573 C565 0.960 . S
H574 C566 0.930 . S
H575 C567 0.929 . S
H576 C584 0.929 1_556 S
H577 C586 0.930 . S
H578 C588 0.930 . S
H579 C591 0.929 . S
H580 C594 0.930 . S
H581 C596 1.010 . S
H582 C596 0.960 . S
H583 C596 0.960 1_554 S
C584 H576 0.929 1_554 S
C584 C585 1.377 . S
C584 C586 1.384 1_554 S
C585 C584 1.377 . S
C585 C591 1.390 . S
C586 H577 0.930 . S
C586 C584 1.384 1_556 S
C586 C587 1.372 1_556 S
C587 C586 1.372 1_554 S
C587 C588 1.400 . S
C587 C592 1.490 . S
C588 H578 0.930 . S
C588 C587 1.400 . S
C588 C591 1.386 . S
H589 C605 0.930 . S
H590 C606 0.931 . S
C591 H579 0.929 . S
C591 C585 1.390 . S
C591 C588 1.386 . S
C592 C587 1.490 . S
C592 C594 1.395 . S
C592 C595 1.403 . S
H593 C599 0.930 . S
C594 H580 0.930 . S
C594 C592 1.395 . S
C594 C597 1.403 1_655 S
C595 C592 1.403 . S
C595 C596 1.524 1_554 S
C595 C599 1.400 1_654 S
C596 H581 1.010 . S
C596 H582 0.960 . S
C596 H583 0.960 1_556 S
C596 C595 1.524 1_556 S
C597 C594 1.403 1_455 S
C597 C598 1.392 . S
C597 C601 1.495 . S
C598 C597 1.392 . S
C598 C599 1.385 1_554 S
C598 C600 1.478 . S
C599 H593 0.930 . S
C599 C595 1.400 1_456 S
C599 C598 1.385 1_556 S
C600 C598 1.478 . S
C600 C602 1.381 1_554 S
C600 C606 1.383 . S
C601 C597 1.495 . S
C601 H607 0.959 . S
C601 H608 0.961 . S
C601 H609 0.960 . S
C602 C600 1.381 1_556 S
C602 C603 1.394 . S
C602 H610 0.930 . S
C603 C602 1.394 . S
C603 C604 1.383 . S
C603 H611 0.929 . S
C604 C603 1.383 . S
C604 C605 1.377 1_556 S
C605 H589 0.930 . S
C605 C604 1.377 1_554 S
C605 C606 1.379 . S
C606 H590 0.931 . S
C606 C600 1.383 . S
C606 C605 1.379 . S
H607 C601 0.959 . S
H608 C601 0.961 . S
H609 C601 0.960 . S
H610 C602 0.930 . S
H611 C603 0.929 . S
H612 C620 0.929 . S
H613 C622 0.930 . S
H614 C624 0.930 . S
H615 C627 0.929 . S
H616 C630 0.930 . S
H617 C632 0.960 . S
H618 C632 0.960 . S
H619 C632 0.960 . S
C620 H612 0.929 . S
C620 C621 1.377 . S
C620 C622 1.384 . S
C621 C620 1.377 . S
C621 C627 1.390 . S
C622 H613 0.930 . S
C622 C620 1.384 . S
C622 C623 1.372 . S
C623 C622 1.372 . S
C623 C624 1.400 . S
C623 C628 1.490 . S
C624 H614 0.930 . S
C624 C623 1.400 . S
C624 C627 1.386 . S
H625 C641 0.930 . S
H626 C642 0.931 . S
C627 H615 0.929 . S
C627 C621 1.390 . S
C627 C624 1.386 . S
C628 C623 1.490 . S
C628 C630 1.395 . S
C628 C631 1.403 . S
H629 C635 0.930 . S
C630 H616 0.930 . S
C630 C628 1.395 . S
C630 C633 1.403 . S
C631 C628 1.403 . S
C631 C632 1.524 . S
C631 C635 1.400 . S
C632 H617 0.960 . S
C632 H618 0.960 . S
C632 H619 0.960 . S
C632 C631 1.524 . S
C633 C630 1.403 . S
C633 C634 1.392 . S
C633 C637 1.495 . S
C634 C633 1.392 . S
C634 C635 1.385 . S
C634 C636 1.478 . S
C635 H629 0.930 . S
C635 C631 1.400 . S
C635 C634 1.385 . S
C636 C634 1.478 . S
C636 C638 1.381 . S
C636 C642 1.383 . S
C637 C633 1.495 . S
C637 H643 0.959 . S
C637 H644 0.961 . S
C637 H645 0.960 . S
C638 C636 1.381 . S
C638 C639 1.394 . S
C638 H646 0.930 . S
C639 C638 1.394 . S
C639 C640 1.383 . S
C639 H647 0.929 . S
C640 C639 1.383 . S
C640 C641 1.377 . S
C641 H625 0.930 . S
C641 C640 1.377 . S
C641 C642 1.379 . S
C642 H626 0.931 . S
C642 C636 1.383 . S
C642 C641 1.379 . S
H643 C637 0.959 . S
H644 C637 0.961 . S
H645 C637 0.960 . S
H646 C638 0.930 . S
H647 C639 0.929 . S
H648 C656 0.929 . S
H649 C658 0.930 . S
H650 C660 0.930 . S
H651 C663 0.929 . S
H652 C666 0.930 . S
H653 C668 0.960 . S
H654 C668 0.960 . S
H655 C668 0.960 . S
C656 H648 0.929 . S
C656 C657 1.377 . S
C656 C658 1.384 . S
C657 C656 1.377 . S
C657 C663 1.390 . S
C658 H649 0.930 . S
C658 C656 1.384 . S
C658 C659 1.372 . S
C659 C658 1.372 . S
C659 C660 1.400 . S
C659 C664 1.490 . S
C660 H650 0.930 . S
C660 C659 1.400 . S
C660 C663 1.386 . S
H661 C677 0.930 . S
H662 C678 0.931 . S
C663 H651 0.929 . S
C663 C657 1.390 . S
C663 C660 1.386 . S
C664 C659 1.490 . S
C664 C666 1.395 . S
C664 C667 1.403 . S
H665 C671 0.930 . S
C666 H652 0.930 . S
C666 C664 1.395 . S
C666 C669 1.403 . S
C667 C664 1.403 . S
C667 C668 1.524 . S
C667 C671 1.400 . S
C668 H653 0.960 . S
C668 H654 0.960 . S
C668 H655 0.960 . S
C668 C667 1.524 . S
C669 C666 1.403 . S
C669 C670 1.392 . S
C669 C673 1.495 . S
C670 C669 1.392 . S
C670 C671 1.385 . S
C670 C672 1.478 . S
C671 H665 0.930 . S
C671 C667 1.400 . S
C671 C670 1.385 . S
C672 C670 1.478 . S
C672 C674 1.381 . S
C672 C678 1.383 . S
C673 C669 1.495 . S
C673 H679 0.959 . S
C673 H680 0.961 . S
C673 H681 0.960 . S
C674 C672 1.381 . S
C674 C675 1.394 . S
C674 H682 0.930 . S
C675 C674 1.394 . S
C675 C676 1.383 . S
C675 H683 0.929 . S
C676 C675 1.383 . S
C676 C677 1.377 . S
C677 H661 0.930 . S
C677 C676 1.377 . S
C677 C678 1.379 . S
C678 H662 0.931 . S
C678 C672 1.383 . S
C678 C677 1.379 . S
H679 C673 0.959 . S
H680 C673 0.961 . S
H681 C673 0.960 . S
H682 C674 0.930 . S
H683 C675 0.929 . S
H684 C692 0.929 . S
H685 C694 0.930 . S
H686 C696 0.930 . S
H687 C699 0.929 . S
H688 C702 0.930 . S
H689 C704 0.960 . S
H690 C704 0.960 . S
H691 C704 0.960 . S
C692 H684 0.929 . S
C692 C693 1.377 . S
C692 C694 1.384 . S
C693 C692 1.377 . S
C693 C699 1.390 . S
C694 H685 0.930 . S
C694 C692 1.384 . S
C694 C695 1.372 . S
C695 C694 1.372 . S
C695 C696 1.400 . S
C695 C700 1.490 . S
C696 H686 0.930 . S
C696 C695 1.400 . S
C696 C699 1.386 . S
H697 C713 0.930 . S
H698 C714 0.931 . S
C699 H687 0.929 . S
C699 C693 1.390 . S
C699 C696 1.386 . S
C700 C695 1.490 . S
C700 C702 1.395 . S
C700 C703 1.403 . S
H701 C707 0.930 . S
C702 H688 0.930 . S
C702 C700 1.395 . S
C702 C705 1.403 . S
C703 C700 1.403 . S
C703 C704 1.524 . S
C703 C707 1.400 . S
C704 H689 0.960 . S
C704 H690 0.960 . S
C704 H691 0.960 . S
C704 C703 1.524 . S
C705 C702 1.403 . S
C705 C706 1.392 . S
C705 C709 1.495 . S
C706 C705 1.392 . S
C706 C707 1.385 . S
C706 C708 1.478 . S
C707 H701 0.930 . S
C707 C703 1.400 . S
C707 C706 1.385 . S
C708 C706 1.478 . S
C708 C710 1.381 . S
C708 C714 1.383 . S
C709 C705 1.495 . S
C709 H715 0.959 . S
C709 H716 0.961 . S
C709 H717 0.960 . S
C710 C708 1.381 . S
C710 C711 1.394 . S
C710 H718 0.930 . S
C711 C710 1.394 . S
C711 C712 1.383 . S
C711 H719 0.929 . S
C712 C711 1.383 . S
C712 C713 1.377 . S
C713 H697 0.930 . S
C713 C712 1.377 . S
C713 C714 1.379 . S
C714 H698 0.931 . S
C714 C708 1.383 . S
C714 C713 1.379 . S
H715 C709 0.959 . S
H716 C709 0.961 . S
H717 C709 0.960 . S
H718 C710 0.930 . S
H719 C711 0.929 . S
H720 C728 0.929 . S
H721 C730 0.930 . S
H722 C732 0.930 . S
H723 C735 0.929 . S
H724 C738 0.930 . S
H725 C740 0.960 . S
H726 C740 0.960 . S
H727 C740 0.960 . S
C728 H720 0.929 . S
C728 C729 1.377 . S
C728 C730 1.384 . S
C729 C728 1.377 . S
C729 C735 1.390 . S
C730 H721 0.930 . S
C730 C728 1.384 . S
C730 C731 1.372 . S
C731 C730 1.372 . S
C731 C732 1.400 . S
C731 C736 1.490 . S
C732 H722 0.930 . S
C732 C731 1.400 . S
C732 C735 1.386 . S
H733 C749 0.930 . S
H734 C750 0.931 . S
C735 H723 0.929 . S
C735 C729 1.390 . S
C735 C732 1.386 . S
C736 C731 1.490 . S
C736 C738 1.395 . S
C736 C739 1.403 . S
H737 C743 0.930 . S
C738 H724 0.930 . S
C738 C736 1.395 . S
C738 C741 1.403 . S
C739 C736 1.403 . S
C739 C740 1.524 . S
C739 C743 1.400 . S
C740 H725 0.960 . S
C740 H726 0.960 . S
C740 H727 0.960 . S
C740 C739 1.524 . S
C741 C738 1.403 . S
C741 C742 1.392 . S
C741 C745 1.495 . S
C742 C741 1.392 . S
C742 C743 1.385 . S
C742 C744 1.478 . S
C743 H737 0.930 . S
C743 C739 1.400 . S
C743 C742 1.385 . S
C744 C742 1.478 . S
C744 C746 1.381 . S
C744 C750 1.383 . S
C745 C741 1.495 . S
C745 H751 0.959 . S
C745 H752 0.961 . S
C745 H753 0.960 . S
C746 C744 1.381 . S
C746 C747 1.394 . S
C746 H754 0.930 . S
C747 C746 1.394 . S
C747 C748 1.383 . S
C747 H755 0.929 . S
C748 C747 1.383 . S
C748 C749 1.377 . S
C749 H733 0.930 . S
C749 C748 1.377 . S
C749 C750 1.379 . S
C750 H734 0.931 . S
C750 C744 1.383 . S
C750 C749 1.379 . S
H751 C745 0.959 . S
H752 C745 0.961 . S
H753 C745 0.960 . S
H754 C746 0.930 . S
H755 C747 0.929 . S
H756 C764 0.929 . S
H757 C766 0.930 . S
H758 C768 0.930 . S
H759 C771 0.929 . S
H760 C774 0.930 . S
H761 C776 0.960 . S
H762 C776 0.960 . S
H763 C776 0.960 . S
C764 H756 0.929 . S
C764 C765 1.377 . S
C764 C766 1.384 . S
C765 C764 1.377 . S
C765 C771 1.390 . S
C766 H757 0.930 . S
C766 C764 1.384 . S
C766 C767 1.372 . S
C767 C766 1.372 . S
C767 C768 1.400 . S
C767 C772 1.490 . S
C768 H758 0.930 . S
C768 C767 1.400 . S
C768 C771 1.386 . S
H769 C785 0.930 . S
H770 C786 0.931 . S
C771 H759 0.929 . S
C771 C765 1.390 . S
C771 C768 1.386 . S
C772 C767 1.490 . S
C772 C774 1.395 . S
C772 C775 1.403 . S
H773 C779 0.930 . S
C774 H760 0.930 . S
C774 C772 1.395 . S
C774 C777 1.403 . S
C775 C772 1.403 . S
C775 C776 1.524 . S
C775 C779 1.400 . S
C776 H761 0.960 . S
C776 H762 0.960 . S
C776 H763 0.960 . S
C776 C775 1.524 . S
C777 C774 1.403 . S
C777 C778 1.392 . S
C777 C781 1.495 . S
C778 C777 1.392 . S
C778 C779 1.385 . S
C778 C780 1.478 . S
C779 H773 0.930 . S
C779 C775 1.400 . S
C779 C778 1.385 . S
C780 C778 1.478 . S
C780 C782 1.381 . S
C780 C786 1.383 . S
C781 C777 1.495 . S
C781 H787 0.959 . S
C781 H788 0.961 . S
C781 H789 0.960 . S
C782 C780 1.381 . S
C782 C783 1.394 . S
C782 H790 0.930 . S
C783 C782 1.394 . S
C783 C784 1.383 . S
C783 H791 0.929 . S
C784 C783 1.383 . S
C784 C785 1.377 . S
C785 H769 0.930 . S
C785 C784 1.377 . S
C785 C786 1.379 . S
C786 H770 0.931 . S
C786 C780 1.383 . S
C786 C785 1.379 . S
H787 C781 0.959 . S
H788 C781 0.961 . S
H789 C781 0.960 . S
H790 C782 0.930 . S
H791 C783 0.929 . S
H792 C800 0.929 . S
H793 C802 0.930 . S
H794 C804 0.930 . S
H795 C807 0.929 . S
H796 C810 0.930 . S
H797 C812 0.960 . S
H798 C812 0.960 . S
H799 C812 0.960 . S
C800 H792 0.929 . S
C800 C801 1.377 . S
C800 C802 1.384 . S
C801 C800 1.377 . S
C801 C807 1.390 . S
C802 H793 0.930 . S
C802 C800 1.384 . S
C802 C803 1.372 . S
C803 C802 1.372 . S
C803 C804 1.400 . S
C803 C808 1.490 . S
C804 H794 0.930 . S
C804 C803 1.400 . S
C804 C807 1.386 . S
H805 C821 0.930 . S
H806 C822 0.931 . S
C807 H795 0.929 . S
C807 C801 1.390 . S
C807 C804 1.386 . S
C808 C803 1.490 . S
C808 C810 1.395 . S
C808 C811 1.403 . S
H809 C815 0.930 . S
C810 H796 0.930 . S
C810 C808 1.395 . S
C810 C813 1.403 . S
C811 C808 1.403 . S
C811 C812 1.524 . S
C811 C815 1.400 . S
C812 H797 0.960 . S
C812 H798 0.960 . S
C812 H799 0.960 . S
C812 C811 1.524 . S
C813 C810 1.403 . S
C813 C814 1.392 . S
C813 C817 1.495 . S
C814 C813 1.392 . S
C814 C815 1.385 . S
C814 C816 1.478 . S
C815 H809 0.930 . S
C815 C811 1.400 . S
C815 C814 1.385 . S
C816 C814 1.478 . S
C816 C818 1.381 . S
C816 C822 1.383 . S
C817 C813 1.495 . S
C817 H823 0.959 . S
C817 H824 0.961 . S
C817 H825 0.960 . S
C818 C816 1.381 . S
C818 C819 1.394 . S
C818 H826 0.930 . S
C819 C818 1.394 . S
C819 C820 1.383 . S
C819 H827 0.929 . S
C820 C819 1.383 . S
C820 C821 1.377 . S
C821 H805 0.930 . S
C821 C820 1.377 . S
C821 C822 1.379 . S
C822 H806 0.931 . S
C822 C816 1.383 . S
C822 C821 1.379 . S
H823 C817 0.959 . S
H824 C817 0.961 . S
H825 C817 0.960 . S
H826 C818 0.930 . S
H827 C819 0.929 . S
H828 C836 0.909 1_655 S
H829 C838 0.890 1_655 S
H830 C840 0.930 . S
H831 C843 0.929 . S
H832 C846 0.930 . S
H833 C848 0.960 . S
H834 C848 0.960 . S
H835 C848 0.960 . S
C836 H828 0.909 1_455 S
C836 C837 1.396 . S
C836 C838 1.382 . S
C837 C836 1.396 . S
C837 C843 1.390 . S
C838 H829 0.890 1_455 S
C838 C836 1.382 . S
C838 C839 1.417 . S
C839 C838 1.417 . S
C839 C840 1.400 . S
C839 C844 1.490 . S
C840 H830 0.930 . S
C840 C839 1.400 . S
C840 C843 1.386 . S
H841 C857 0.930 . S
H842 C858 0.931 . S
C843 H831 0.929 . S
C843 C837 1.390 . S
C843 C840 1.386 . S
C844 C839 1.490 . S
C844 C846 1.395 . S
C844 C847 1.403 1_455 S
H845 C851 0.929 1_655 S
C846 H832 0.930 . S
C846 C844 1.395 . S
C846 C849 1.403 . S
C847 C844 1.403 1_655 S
C847 C848 1.524 . S
C847 C851 1.397 1_655 S
C848 H833 0.960 . S
C848 H834 0.960 . S
C848 H835 0.960 . S
C848 C847 1.524 . S
C849 C846 1.403 . S
C849 C850 1.392 . S
C849 C853 1.495 . S
C850 C849 1.392 . S
C850 C851 1.389 . S
C850 C852 1.478 . S
C851 H845 0.929 1_455 S
C851 C847 1.397 1_455 S
C851 C850 1.389 . S
C852 C850 1.478 . S
C852 C854 1.381 . S
C852 C858 1.383 . S
C853 C849 1.495 . S
C853 H859 0.959 . S
C853 H860 0.961 . S
C853 H861 0.960 . S
C854 C852 1.381 . S
C854 C855 1.394 . S
C854 H862 0.930 1_455 S
C855 C854 1.394 . S
C855 C856 1.383 . S
C855 H863 0.929 1_455 S
C856 C855 1.383 . S
C856 C857 1.377 . S
C857 H841 0.930 . S
C857 C856 1.377 . S
C857 C858 1.379 . S
C858 H842 0.931 . S
C858 C852 1.383 . S
C858 C857 1.379 . S
H859 C853 0.959 . S
H860 C853 0.961 . S
H861 C853 0.960 . S
H862 C854 0.930 1_655 S
H863 C855 0.929 1_655 S
H864 C872 0.929 . S
H865 C874 0.930 . S
H866 C876 0.930 . S
H867 C879 0.929 . S
H868 C882 0.930 . S
H869 C884 0.960 . S
H870 C884 0.960 . S
H871 C884 0.960 . S
C872 H864 0.929 . S
C872 C873 1.377 . S
C872 C874 1.384 . S
C873 C872 1.377 . S
C873 C879 1.390 . S
C874 H865 0.930 . S
C874 C872 1.384 . S
C874 C875 1.372 . S
C875 C874 1.372 . S
C875 C876 1.400 . S
C875 C880 1.490 . S
C876 H866 0.930 . S
C876 C875 1.400 . S
C876 C879 1.386 . S
H877 C893 0.930 . S
H878 C894 0.931 . S
C879 H867 0.929 . S
C879 C873 1.390 . S
C879 C876 1.386 . S
C880 C875 1.490 . S
C880 C882 1.395 . S
C880 C883 1.403 . S
H881 C887 0.930 . S
C882 H868 0.930 . S
C882 C880 1.395 . S
C882 C885 1.403 . S
C883 C880 1.403 . S
C883 C884 1.524 . S
C883 C887 1.400 . S
C884 H869 0.960 . S
C884 H870 0.960 . S
C884 H871 0.960 . S
C884 C883 1.524 . S
C885 C882 1.403 . S
C885 C886 1.392 . S
C885 C889 1.495 . S
C886 C885 1.392 . S
C886 C887 1.385 . S
C886 C888 1.478 . S
C887 H881 0.930 . S
C887 C883 1.400 . S
C887 C886 1.385 . S
C888 C886 1.478 . S
C888 C890 1.381 . S
C888 C894 1.383 . S
C889 C885 1.495 . S
C889 H895 0.959 . S
C889 H896 0.961 . S
C889 H897 0.960 . S
C890 C888 1.381 . S
C890 C891 1.394 . S
C890 H898 0.930 . S
C891 C890 1.394 . S
C891 C892 1.383 . S
C891 H899 0.929 . S
C892 C891 1.383 . S
C892 C893 1.377 . S
C893 H877 0.930 . S
C893 C892 1.377 . S
C893 C894 1.379 . S
C894 H878 0.931 . S
C894 C888 1.383 . S
C894 C893 1.379 . S
H895 C889 0.959 . S
H896 C889 0.961 . S
H897 C889 0.960 . S
H898 C890 0.930 . S
H899 C891 0.929 . S
H900 C908 0.929 . S
H901 C910 0.930 . S
H902 C912 0.930 . S
H903 C915 0.929 . S
H904 C918 0.930 . S
H905 C920 0.960 . S
H906 C920 0.960 . S
H907 C920 0.960 . S
C908 H900 0.929 . S
C908 C909 1.377 . S
C908 C910 1.384 . S
C909 C908 1.377 . S
C909 C915 1.390 1_545 S
C910 H901 0.930 . S
C910 C908 1.384 . S
C910 C911 1.372 . S
C911 C910 1.372 . S
C911 C912 1.400 1_545 S
C911 C916 1.490 . S
C912 H902 0.930 . S
C912 C911 1.400 1_565 S
C912 C915 1.386 . S
H913 C929 0.930 . S
H914 C930 0.931 . S
C915 H903 0.929 . S
C915 C909 1.390 1_565 S
C915 C912 1.386 . S
C916 C911 1.490 . S
C916 C918 1.395 . S
C916 C919 1.403 1_545 S
H917 C923 0.930 . S
C918 H904 0.930 . S
C918 C916 1.395 . S
C918 C921 1.403 . S
C919 C916 1.403 1_565 S
C919 C920 1.524 . S
C919 C923 1.400 . S
C920 H905 0.960 . S
C920 H906 0.960 . S
C920 H907 0.960 . S
C920 C919 1.524 . S
C921 C918 1.403 . S
C921 C922 1.392 . S
C921 C925 1.495 . S
C922 C921 1.392 . S
C922 C923 1.385 1_545 S
C922 C924 1.478 . S
C923 H917 0.930 . S
C923 C919 1.400 . S
C923 C922 1.385 1_565 S
C924 C922 1.478 . S
C924 C926 1.381 . S
C924 C930 1.383 1_545 S
C925 C921 1.495 . S
C925 H931 0.959 . S
C925 H932 0.961 . S
C925 H933 0.960 . S
C926 C924 1.381 . S
C926 C927 1.394 . S
C926 H934 0.930 . S
C927 C926 1.394 . S
C927 C928 1.383 . S
C927 H935 0.929 . S
C928 C927 1.383 . S
C928 C929 1.377 1_545 S
C929 H913 0.930 . S
C929 C928 1.377 1_565 S
C929 C930 1.379 . S
C930 H914 0.931 . S
C930 C924 1.383 1_565 S
C930 C929 1.379 . S
H931 C925 0.959 . S
H932 C925 0.961 . S
H933 C925 0.960 . S
H934 C926 0.930 . S
H935 C927 0.929 . S
H936 C944 0.929 . S
H937 C946 0.930 . S
H938 C948 0.930 . S
H939 C951 0.929 . S
H940 C954 0.930 . S
H941 C956 0.960 . S
H942 C956 0.960 . S
H943 C956 0.960 . S
C944 H936 0.929 . S
C944 C945 1.377 . S
C944 C946 1.384 . S
C945 C944 1.377 . S
C945 C951 1.390 . S
C946 H937 0.930 . S
C946 C944 1.384 . S
C946 C947 1.372 . S
C947 C946 1.372 . S
C947 C948 1.400 . S
C947 C952 1.490 . S
C948 H938 0.930 . S
C948 C947 1.400 . S
C948 C951 1.386 . S
H949 C965 0.930 . S
H950 C966 0.931 . S
C951 H939 0.929 . S
C951 C945 1.390 . S
C951 C948 1.386 . S
C952 C947 1.490 . S
C952 C954 1.395 . S
C952 C955 1.403 . S
H953 C959 0.930 . S
C954 H940 0.930 . S
C954 C952 1.395 . S
C954 C957 1.403 . S
C955 C952 1.403 . S
C955 C956 1.524 . S
C955 C959 1.400 . S
C956 H941 0.960 . S
C956 H942 0.960 . S
C956 H943 0.960 . S
C956 C955 1.524 . S
C957 C954 1.403 . S
C957 C958 1.392 . S
C957 C961 1.495 . S
C958 C957 1.392 . S
C958 C959 1.385 . S
C958 C960 1.478 . S
C959 H953 0.930 . S
C959 C955 1.400 . S
C959 C958 1.385 . S
C960 C958 1.478 . S
C960 C962 1.381 1_556 S
C960 C966 1.383 . S
C961 C957 1.495 . S
C961 H967 0.959 . S
C961 H968 0.961 . S
C961 H969 0.960 . S
C962 C960 1.381 1_554 S
C962 C963 1.394 . S
C962 H970 0.930 1_554 S
C963 C962 1.394 . S
C963 C964 1.383 . S
C963 H971 0.929 . S
C964 C963 1.383 . S
C964 C965 1.377 . S
C965 H949 0.930 . S
C965 C964 1.377 . S
C965 C966 1.379 1_554 S
C966 H950 0.931 . S
C966 C960 1.383 . S
C966 C965 1.379 1_556 S
H967 C961 0.959 . S
H968 C961 0.961 . S
H969 C961 0.960 . S
H970 C962 0.930 1_556 S
H971 C963 0.929 . S
H972 C980 0.929 . S
H973 C982 0.930 . S
H974 C984 0.930 . S
H975 C987 0.929 . S
H976 C990 0.930 . S
H977 C992 0.960 . S
H978 C992 0.960 . S
H979 C992 0.960 . S
C980 H972 0.929 . S
C980 C981 1.377 . S
C980 C982 1.384 . S
C981 C980 1.377 . S
C981 C987 1.390 . S
C982 H973 0.930 . S
C982 C980 1.384 . S
C982 C983 1.372 . S
C983 C982 1.372 . S
C983 C984 1.400 . S
C983 C988 1.490 . S
C984 H974 0.930 . S
C984 C983 1.400 . S
C984 C987 1.386 . S
H985 C1001 0.930 . S
H986 C1002 0.931 . S
C987 H975 0.929 . S
C987 C981 1.390 . S
C987 C984 1.386 . S
C988 C983 1.490 . S
C988 C990 1.395 . S
C988 C991 1.403 . S
H989 C995 0.930 . S
C990 H976 0.930 . S
C990 C988 1.395 . S
C990 C993 1.403 . S
C991 C988 1.403 . S
C991 C992 1.524 . S
C991 C995 1.400 . S
C992 H977 0.960 . S
C992 H978 0.960 . S
C992 H979 0.960 . S
C992 C991 1.524 . S
C993 C990 1.403 . S
C993 C994 1.392 . S
C993 C997 1.495 . S
C994 C993 1.392 . S
C994 C995 1.385 . S
C994 C996 1.478 . S
C995 H989 0.930 . S
C995 C991 1.400 . S
C995 C994 1.385 . S
C996 C994 1.478 . S
C996 C998 1.381 . S
C996 C1002 1.383 . S
C997 C993 1.495 . S
C997 H1003 0.959 . S
C997 H1004 0.961 . S
C997 H1005 0.960 . S
C998 C996 1.381 . S
C998 C999 1.394 1_556 S
C998 H1006 0.930 . S
C999 C998 1.394 1_554 S
C999 C1000 1.383 . S
C999 H1007 0.929 . S
C1000 C999 1.383 . S
C1000 C1001 1.377 . S
C1001 H985 0.930 . S
C1001 C1000 1.377 . S
C1001 C1002 1.379 1_554 S
C1002 H986 0.931 . S
C1002 C996 1.383 . S
C1002 C1001 1.379 1_556 S
H1003 C997 0.959 . S
H1004 C997 0.961 . S
H1005 C997 0.960 . S
H1006 C998 0.930 . S
H1007 C999 0.929 . S
H1008 C1016 0.929 . S
H1009 C1018 0.930 . S
H1010 C1020 0.930 . S
H1011 C1023 0.929 . S
H1012 C1026 0.930 . S
H1013 C1028 0.960 . S
H1014 C1028 0.960 . S
H1015 C1028 0.960 . S
C1016 H1008 0.929 . S
C1016 C1017 1.377 . S
C1016 C1018 1.384 . S
C1017 C1016 1.377 . S
C1017 C1023 1.390 . S
C1018 H1009 0.930 . S
C1018 C1016 1.384 . S
C1018 C1019 1.372 . S
C1019 C1018 1.372 . S
C1019 C1020 1.400 . S
C1019 C1024 1.490 . S
C1020 H1010 0.930 . S
C1020 C1019 1.400 . S
C1020 C1023 1.386 . S
H1021 C1037 0.930 . S
H1022 C1038 0.931 . S
C1023 H1011 0.929 . S
C1023 C1017 1.390 . S
C1023 C1020 1.386 . S
C1024 C1019 1.490 . S
C1024 C1026 1.395 . S
C1024 C1027 1.403 . S
H1025 C1031 0.930 . S
C1026 H1012 0.930 . S
C1026 C1024 1.395 . S
C1026 C1029 1.403 . S
C1027 C1024 1.403 . S
C1027 C1028 1.524 . S
C1027 C1031 1.400 . S
C1028 H1013 0.960 . S
C1028 H1014 0.960 . S
C1028 H1015 0.960 . S
C1028 C1027 1.524 . S
C1029 C1026 1.403 . S
C1029 C1030 1.392 . S
C1029 C1033 1.495 . S
C1030 C1029 1.392 . S
C1030 C1031 1.385 . S
C1030 C1032 1.478 . S
C1031 H1025 0.930 . S
C1031 C1027 1.400 . S
C1031 C1030 1.385 . S
C1032 C1030 1.478 . S
C1032 C1034 1.381 1_556 S
C1032 C1038 1.383 . S
C1033 C1029 1.495 . S
C1033 H1039 0.959 . S
C1033 H1040 0.961 . S
C1033 H1041 0.960 . S
C1034 C1032 1.381 1_554 S
C1034 C1035 1.394 . S
C1034 H1042 0.930 1_554 S
C1035 C1034 1.394 . S
C1035 C1036 1.383 . S
C1035 H1043 0.929 . S
C1036 C1035 1.383 . S
C1036 C1037 1.377 . S
C1037 H1021 0.930 . S
C1037 C1036 1.377 . S
C1037 C1038 1.379 1_554 S
C1038 H1022 0.931 . S
C1038 C1032 1.383 . S
C1038 C1037 1.379 1_556 S
H1039 C1033 0.959 . S
H1040 C1033 0.961 . S
H1041 C1033 0.960 . S
H1042 C1034 0.930 1_556 S
H1043 C1035 0.929 . S
H1044 C1052 0.929 . S
H1045 C1054 0.930 . S
H1046 C1056 0.930 . S
H1047 C1059 0.929 . S
H1048 C1062 0.930 . S
H1049 C1064 0.960 . S
H1050 C1064 0.960 . S
H1051 C1064 0.960 . S
C1052 H1044 0.929 . S
C1052 C1053 1.377 . S
C1052 C1054 1.384 . S
C1053 C1052 1.377 . S
C1053 C1059 1.390 . S
C1054 H1045 0.930 . S
C1054 C1052 1.384 . S
C1054 C1055 1.372 . S
C1055 C1054 1.372 . S
C1055 C1056 1.400 . S
C1055 C1060 1.490 . S
C1056 H1046 0.930 . S
C1056 C1055 1.400 . S
C1056 C1059 1.386 . S
H1057 C1073 0.930 . S
H1058 C1074 0.931 . S
C1059 H1047 0.929 . S
C1059 C1053 1.390 . S
C1059 C1056 1.386 . S
C1060 C1055 1.490 . S
C1060 C1062 1.395 . S
C1060 C1063 1.403 . S
H1061 C1067 0.930 . S
C1062 H1048 0.930 . S
C1062 C1060 1.395 . S
C1062 C1065 1.403 . S
C1063 C1060 1.403 . S
C1063 C1064 1.524 . S
C1063 C1067 1.400 . S
C1064 H1049 0.960 . S
C1064 H1050 0.960 . S
C1064 H1051 0.960 . S
C1064 C1063 1.524 . S
C1065 C1062 1.403 . S
C1065 C1066 1.392 . S
C1065 C1069 1.495 . S
C1066 C1065 1.392 . S
C1066 C1067 1.385 . S
C1066 C1068 1.478 . S
C1067 H1061 0.930 . S
C1067 C1063 1.400 . S
C1067 C1066 1.385 . S
C1068 C1066 1.478 . S
C1068 C1070 1.381 1_554 S
C1068 C1074 1.383 1_554 S
C1069 C1065 1.495 . S
C1069 H1075 0.959 . S
C1069 H1076 0.961 . S
C1069 H1077 0.960 . S
C1070 C1068 1.381 1_556 S
C1070 C1071 1.394 . S
C1070 H1078 0.930 . S
C1071 C1070 1.394 . S
C1071 C1072 1.383 . S
C1071 H1079 0.929 . S
C1072 C1071 1.383 . S
C1072 C1073 1.377 . S
C1073 H1057 0.930 . S
C1073 C1072 1.377 . S
C1073 C1074 1.379 . S
C1074 H1058 0.931 . S
C1074 C1068 1.383 1_556 S
C1074 C1073 1.379 . S
H1075 C1069 0.959 . S
H1076 C1069 0.961 . S
H1077 C1069 0.960 . S
H1078 C1070 0.930 . S
H1079 C1071 0.929 . S
H1080 C1088 0.929 . S
H1081 C1090 0.930 . S
H1082 C1092 0.930 1_554 S
H1083 C1095 0.929 . S
H1084 C1098 0.930 . S
H1085 C1100 0.960 . S
H1086 C1100 0.960 . S
H1087 C1100 0.960 . S
C1088 H1080 0.929 . S
C1088 C1089 1.377 . S
C1088 C1090 1.384 1_556 S
C1089 C1088 1.377 . S
C1089 C1095 1.390 . S
C1090 H1081 0.930 . S
C1090 C1088 1.384 1_554 S
C1090 C1091 1.372 . S
C1091 C1090 1.372 . S
C1091 C1092 1.400 1_554 S
C1091 C1096 1.490 . S
C1092 H1082 0.930 1_556 S
C1092 C1091 1.400 1_556 S
C1092 C1095 1.386 . S
H1093 C1109 0.930 . S
H1094 C1110 0.931 . S
C1095 H1083 0.929 . S
C1095 C1089 1.390 . S
C1095 C1092 1.386 . S
C1096 C1091 1.490 . S
C1096 C1098 1.395 . S
C1096 C1099 1.403 . S
H1097 C1103 0.930 . S
C1098 H1084 0.930 . S
C1098 C1096 1.395 . S
C1098 C1101 1.403 . S
C1099 C1096 1.403 . S
C1099 C1100 1.524 . S
C1099 C1103 1.400 . S
C1100 H1085 0.960 . S
C1100 H1086 0.960 . S
C1100 H1087 0.960 . S
C1100 C1099 1.524 . S
C1101 C1098 1.403 . S
C1101 C1102 1.392 . S
C1101 C1105 1.495 . S
C1102 C1101 1.392 . S
C1102 C1103 1.385 . S
C1102 C1104 1.478 . S
C1103 H1097 0.930 . S
C1103 C1099 1.400 . S
C1103 C1102 1.385 . S
C1104 C1102 1.478 . S
C1104 C1106 1.381 . S
C1104 C1110 1.383 . S
C1105 C1101 1.495 . S
C1105 H1111 0.959 . S
C1105 H1112 0.961 . S
C1105 H1113 0.960 . S
C1106 C1104 1.381 . S
C1106 C1107 1.394 . S
C1106 H1114 0.930 . S
C1107 C1106 1.394 . S
C1107 C1108 1.383 . S
C1107 H1115 0.929 . S
C1108 C1107 1.383 . S
C1108 C1109 1.377 . S
C1109 H1093 0.930 . S
C1109 C1108 1.377 . S
C1109 C1110 1.379 . S
C1110 H1094 0.931 . S
C1110 C1104 1.383 . S
C1110 C1109 1.379 . S
H1111 C1105 0.959 . S
H1112 C1105 0.961 . S
H1113 C1105 0.960 . S
H1114 C1106 0.930 . S
H1115 C1107 0.929 . S
H1116 C1124 0.929 . S
H1117 C1126 0.930 . S
H1118 C1128 0.930 . S
H1119 C1131 0.929 . S
H1120 C1134 0.930 . S
H1121 C1136 0.960 . S
H1122 C1136 0.960 . S
H1123 C1136 0.960 . S
C1124 H1116 0.929 . S
C1124 C1125 1.377 . S
C1124 C1126 1.384 . S
C1125 C1124 1.377 . S
C1125 C1131 1.390 . S
C1126 H1117 0.930 . S
C1126 C1124 1.384 . S
C1126 C1127 1.372 . S
C1127 C1126 1.372 . S
C1127 C1128 1.400 . S
C1127 C1132 1.490 . S
C1128 H1118 0.930 . S
C1128 C1127 1.400 . S
C1128 C1131 1.386 . S
H1129 C1145 0.930 . S
H1130 C1146 0.931 1_554 S
C1131 H1119 0.929 . S
C1131 C1125 1.390 . S
C1131 C1128 1.386 . S
C1132 C1127 1.490 . S
C1132 C1134 1.395 . S
C1132 C1135 1.403 . S
H1133 C1139 0.930 . S
C1134 H1120 0.930 . S
C1134 C1132 1.395 . S
C1134 C1137 1.403 . S
C1135 C1132 1.403 . S
C1135 C1136 1.524 . S
C1135 C1139 1.400 . S
C1136 H1121 0.960 . S
C1136 H1122 0.960 . S
C1136 H1123 0.960 . S
C1136 C1135 1.524 . S
C1137 C1134 1.403 . S
C1137 C1138 1.392 . S
C1137 C1141 1.495 . S
C1138 C1137 1.392 . S
C1138 C1139 1.385 . S
C1138 C1140 1.478 . S
C1139 H1133 0.930 . S
C1139 C1135 1.400 . S
C1139 C1138 1.385 . S
C1140 C1138 1.478 . S
C1140 C1142 1.383 . S
C1140 C1146 1.383 1_554 S
C1141 C1137 1.495 . S
C1141 H1147 0.959 . S
C1141 H1148 0.961 . S
C1141 H1149 0.960 . S
C1142 C1140 1.383 . S
C1142 C1143 1.391 1_554 S
C1142 H1150 0.932 . S
C1143 C1142 1.391 1_556 S
C1143 C1144 1.383 . S
C1143 H1151 0.929 . S
C1144 C1143 1.383 . S
C1144 C1145 1.377 . S
C1145 H1129 0.930 . S
C1145 C1144 1.377 . S
C1145 C1146 1.379 . S
C1146 H1130 0.931 1_556 S
C1146 C1140 1.383 1_556 S
C1146 C1145 1.379 . S
H1147 C1141 0.959 . S
H1148 C1141 0.961 . S
H1149 C1141 0.960 . S
H1150 C1142 0.932 . S
H1151 C1143 0.929 . S
C189 C12 1.558 1_556 S
C208 C152 1.533 . S
C225 C24 1.547 1_556 S
C244 C164 1.524 . S
C261 C52 1.567 . S
C280 C124 1.500 . S
C297 C84 1.430 . S
C316 C44 1.393 . S
C333 C104 1.482 . S
C352 C4 1.483 . S
C369 C32 1.603 . S
C388 C64 1.556 . S
C405 C144 1.507 . S
C424 C112 1.543 . S
C441 C172 1.621 . S
C460 C72 1.639 . S
C477 C92 1.699 . S
C496 C132 1.698 . S
C513 C49 1.389 . S
C532 C2 1.364 . S
C549 C29 1.383 . S
C568 C9 1.391 . S
C585 C22 1.484 . S
C604 C42 1.460 . S
C621 C69 1.429 . S
C640 C102 1.396 . S
C657 C62 1.408 . S
C676 C89 1.458 . S
C693 C82 1.370 . S
C712 C109 1.411 . S
C729 C169 1.492 . S
C748 C122 1.455 . S
C765 C149 1.317 . S
C784 C129 1.329 . S
C801 C162 1.427 . S
C820 C142 1.410 . S
C837 C19 1.079 . S
C856 C18 1.068 . S
C873 C38 1.073 . S
C892 C39 1.050 . S
C909 C59 1.069 . S
C928 C58 1.050 . S
C945 C79 1.073 . S
C964 C78 1.044 . S
C981 C99 1.070 . S
C1000 C98 1.079 . S
C1017 C119 1.079 . S
C1036 C118 1.099 . S
C1053 C139 1.070 . S
C1072 C138 1.054 . S
C1089 C159 1.068 . S
C1108 C158 1.065 . S
C1125 C179 1.077 . S
C1144 C178 1.065 . S
