# Generated by pormake.
# Topology ukj, (4)-cn, num edge types: 1
# Building blocks:
#     Node 0, Type 0, BuildingBlock: QUQFOY_clean_sbu_1, # of connection points: 4
#     Node 1, Type 0, BuildingBlock: QUQFOY_clean_sbu_1, # of connection points: 4
#     Node 2, Type 0, BuildingBlock: QUQFOY_clean_sbu_1, # of connection points: 4
#     Node 3, Type 0, BuildingBlock: QUQFOY_clean_sbu_1, # of connection points: 4
#     Node 4, Type 0, BuildingBlock: QUQFOY_clean_sbu_1, # of connection points: 4
#     Node 5, Type 0, BuildingBlock: QUQFOY_clean_sbu_1, # of connection points: 4
#     Node 6, Type 0, BuildingBlock: QUQFOY_clean_sbu_1, # of connection points: 4
#     Node 7, Type 0, BuildingBlock: QUQFOY_clean_sbu_1, # of connection points: 4
#     Node 8, Type 0, BuildingBlock: QUQFOY_clean_sbu_1, # of connection points: 4
#     Node 9, Type 0, BuildingBlock: QUQFOY_clean_sbu_1, # of connection points: 4
#     Node 10, Type 0, BuildingBlock: QUQFOY_clean_sbu_1, # of connection points: 4
#     Node 11, Type 0, BuildingBlock: QUQFOY_clean_sbu_1, # of connection points: 4
#     Node 12, Type 0, BuildingBlock: QUQFOY_clean_sbu_1, # of connection points: 4
#     Node 13, Type 0, BuildingBlock: QUQFOY_clean_sbu_1, # of connection points: 4
#     Node 14, Type 0, BuildingBlock: QUQFOY_clean_sbu_1, # of connection points: 4
#     Node 15, Type 0, BuildingBlock: QUQFOY_clean_sbu_1, # of connection points: 4
#     Node 16, Type 0, BuildingBlock: QUQFOY_clean_sbu_1, # of connection points: 4
#     Node 17, Type 0, BuildingBlock: QUQFOY_clean_sbu_1, # of connection points: 4
#     Node 18, Type 0, BuildingBlock: QUQFOY_clean_sbu_1, # of connection points: 4
#     Node 19, Type 0, BuildingBlock: QUQFOY_clean_sbu_1, # of connection points: 4
#     Node 20, Type 0, BuildingBlock: QUQFOY_clean_sbu_1, # of connection points: 4
#     Node 21, Type 0, BuildingBlock: QUQFOY_clean_sbu_1, # of connection points: 4
#     Node 22, Type 0, BuildingBlock: QUQFOY_clean_sbu_1, # of connection points: 4
#     Node 23, Type 0, BuildingBlock: QUQFOY_clean_sbu_1, # of connection points: 4
#     Node 24, Type 0, BuildingBlock: QUQFOY_clean_sbu_1, # of connection points: 4
#     Node 25, Type 0, BuildingBlock: QUQFOY_clean_sbu_1, # of connection points: 4
#     Node 26, Type 0, BuildingBlock: QUQFOY_clean_sbu_1, # of connection points: 4
#     Node 27, Type 0, BuildingBlock: QUQFOY_clean_sbu_1, # of connection points: 4
#     Node 28, Type 0, BuildingBlock: QUQFOY_clean_sbu_1, # of connection points: 4
#     Node 29, Type 0, BuildingBlock: QUQFOY_clean_sbu_1, # of connection points: 4
#     Node 30, Type 0, BuildingBlock: QUQFOY_clean_sbu_1, # of connection points: 4
#     Node 31, Type 0, BuildingBlock: QUQFOY_clean_sbu_1, # of connection points: 4
#     Edge 32, Type (0, 0), BuildingBlock: XIVTED_clean_linker_0, # of connection points: 2
#     Edge 33, Type (0, 0), BuildingBlock: XIVTED_clean_linker_0, # of connection points: 2
#     Edge 34, Type (0, 0), BuildingBlock: XIVTED_clean_linker_0, # of connection points: 2
#     Edge 35, Type (0, 0), BuildingBlock: XIVTED_clean_linker_0, # of connection points: 2
#     Edge 36, Type (0, 0), BuildingBlock: XIVTED_clean_linker_0, # of connection points: 2
#     Edge 37, Type (0, 0), BuildingBlock: XIVTED_clean_linker_0, # of connection points: 2
#     Edge 38, Type (0, 0), BuildingBlock: XIVTED_clean_linker_0, # of connection points: 2
#     Edge 39, Type (0, 0), BuildingBlock: XIVTED_clean_linker_0, # of connection points: 2
#     Edge 40, Type (0, 0), BuildingBlock: XIVTED_clean_linker_0, # of connection points: 2
#     Edge 41, Type (0, 0), BuildingBlock: XIVTED_clean_linker_0, # of connection points: 2
#     Edge 42, Type (0, 0), BuildingBlock: XIVTED_clean_linker_0, # of connection points: 2
#     Edge 43, Type (0, 0), BuildingBlock: XIVTED_clean_linker_0, # of connection points: 2
#     Edge 44, Type (0, 0), BuildingBlock: XIVTED_clean_linker_0, # of connection points: 2
#     Edge 45, Type (0, 0), BuildingBlock: XIVTED_clean_linker_0, # of connection points: 2
#     Edge 46, Type (0, 0), BuildingBlock: XIVTED_clean_linker_0, # of connection points: 2
#     Edge 47, Type (0, 0), BuildingBlock: XIVTED_clean_linker_0, # of connection points: 2
#     Edge 48, Type (0, 0), BuildingBlock: XIVTED_clean_linker_0, # of connection points: 2
#     Edge 49, Type (0, 0), BuildingBlock: XIVTED_clean_linker_0, # of connection points: 2
#     Edge 50, Type (0, 0), BuildingBlock: XIVTED_clean_linker_0, # of connection points: 2
#     Edge 51, Type (0, 0), BuildingBlock: XIVTED_clean_linker_0, # of connection points: 2
#     Edge 52, Type (0, 0), BuildingBlock: XIVTED_clean_linker_0, # of connection points: 2
#     Edge 53, Type (0, 0), BuildingBlock: XIVTED_clean_linker_0, # of connection points: 2
#     Edge 54, Type (0, 0), BuildingBlock: XIVTED_clean_linker_0, # of connection points: 2
#     Edge 55, Type (0, 0), BuildingBlock: XIVTED_clean_linker_0, # of connection points: 2
#     Edge 56, Type (0, 0), BuildingBlock: XIVTED_clean_linker_0, # of connection points: 2
#     Edge 57, Type (0, 0), BuildingBlock: XIVTED_clean_linker_0, # of connection points: 2
#     Edge 58, Type (0, 0), BuildingBlock: XIVTED_clean_linker_0, # of connection points: 2
#     Edge 59, Type (0, 0), BuildingBlock: XIVTED_clean_linker_0, # of connection points: 2
#     Edge 60, Type (0, 0), BuildingBlock: XIVTED_clean_linker_0, # of connection points: 2
#     Edge 61, Type (0, 0), BuildingBlock: XIVTED_clean_linker_0, # of connection points: 2
#     Edge 62, Type (0, 0), BuildingBlock: XIVTED_clean_linker_0, # of connection points: 2
#     Edge 63, Type (0, 0), BuildingBlock: XIVTED_clean_linker_0, # of connection points: 2
#     Edge 64, Type (0, 0), BuildingBlock: XIVTED_clean_linker_0, # of connection points: 2
#     Edge 65, Type (0, 0), BuildingBlock: XIVTED_clean_linker_0, # of connection points: 2
#     Edge 66, Type (0, 0), BuildingBlock: XIVTED_clean_linker_0, # of connection points: 2
#     Edge 67, Type (0, 0), BuildingBlock: XIVTED_clean_linker_0, # of connection points: 2
#     Edge 68, Type (0, 0), BuildingBlock: XIVTED_clean_linker_0, # of connection points: 2
#     Edge 69, Type (0, 0), BuildingBlock: XIVTED_clean_linker_0, # of connection points: 2
#     Edge 70, Type (0, 0), BuildingBlock: XIVTED_clean_linker_0, # of connection points: 2
#     Edge 71, Type (0, 0), BuildingBlock: XIVTED_clean_linker_0, # of connection points: 2
#     Edge 72, Type (0, 0), BuildingBlock: XIVTED_clean_linker_0, # of connection points: 2
#     Edge 73, Type (0, 0), BuildingBlock: XIVTED_clean_linker_0, # of connection points: 2
#     Edge 74, Type (0, 0), BuildingBlock: XIVTED_clean_linker_0, # of connection points: 2
#     Edge 75, Type (0, 0), BuildingBlock: XIVTED_clean_linker_0, # of connection points: 2
#     Edge 76, Type (0, 0), BuildingBlock: XIVTED_clean_linker_0, # of connection points: 2
#     Edge 77, Type (0, 0), BuildingBlock: XIVTED_clean_linker_0, # of connection points: 2
#     Edge 78, Type (0, 0), BuildingBlock: XIVTED_clean_linker_0, # of connection points: 2
#     Edge 79, Type (0, 0), BuildingBlock: XIVTED_clean_linker_0, # of connection points: 2
#     Edge 80, Type (0, 0), BuildingBlock: XIVTED_clean_linker_0, # of connection points: 2
#     Edge 81, Type (0, 0), BuildingBlock: XIVTED_clean_linker_0, # of connection points: 2
#     Edge 82, Type (0, 0), BuildingBlock: XIVTED_clean_linker_0, # of connection points: 2
#     Edge 83, Type (0, 0), BuildingBlock: XIVTED_clean_linker_0, # of connection points: 2
#     Edge 84, Type (0, 0), BuildingBlock: XIVTED_clean_linker_0, # of connection points: 2
#     Edge 85, Type (0, 0), BuildingBlock: XIVTED_clean_linker_0, # of connection points: 2
#     Edge 86, Type (0, 0), BuildingBlock: XIVTED_clean_linker_0, # of connection points: 2
#     Edge 87, Type (0, 0), BuildingBlock: XIVTED_clean_linker_0, # of connection points: 2
#     Edge 88, Type (0, 0), BuildingBlock: XIVTED_clean_linker_0, # of connection points: 2
#     Edge 89, Type (0, 0), BuildingBlock: XIVTED_clean_linker_0, # of connection points: 2
#     Edge 90, Type (0, 0), BuildingBlock: XIVTED_clean_linker_0, # of connection points: 2
#     Edge 91, Type (0, 0), BuildingBlock: XIVTED_clean_linker_0, # of connection points: 2
#     Edge 92, Type (0, 0), BuildingBlock: XIVTED_clean_linker_0, # of connection points: 2
#     Edge 93, Type (0, 0), BuildingBlock: XIVTED_clean_linker_0, # of connection points: 2
#     Edge 94, Type (0, 0), BuildingBlock: XIVTED_clean_linker_0, # of connection points: 2
#     Edge 95, Type (0, 0), BuildingBlock: XIVTED_clean_linker_0, # of connection points: 2
# Relax obj value: 0.041
# Max RMSD: 0.112
# Mean RMSD: 0.110
data_MOF--net-ukj--node1-QUQFOY_clean_sbu_1--edge1-XIVTED_clean_linker_0
_symmetry_space_group_name_H-M    P1
_symmetry_Int_Tables_number       1
_symmetry_cell_setting            triclinic
loop_
_symmetry_equiv_pos_as_xyz
'x, y, z'
_cell_length_a     25.982134
_cell_length_b     84.383644
_cell_length_c     56.844905
_cell_angle_alpha  90.034475
_cell_angle_beta   90.009858
_cell_angle_gamma 90.014392
loop_
_atom_site_label
_atom_site_type_symbol
_atom_site_fract_x
_atom_site_fract_y
_atom_site_fract_z
_atom_type_partial_charge
O0 O 0.11925 0.35093 0.23834 0.0
Cd1 Cd 0.12537 0.3441 0.27287 0.0
Cd2 Cd 0.08613 0.37331 0.27734 0.0
O3 O 0.07114 0.37238 0.24141 0.0
O4 O 0.13429 0.32058 0.26999 0.0
O5 O 0.06535 0.3316 0.28576 0.0
C6 C 0.08852 0.31897 0.27844 0.0
C7 C 0.03117 0.37858 0.30879 0.0
C8 C 0.09399 0.36209 0.22877 0.0
C9 C 0.19586 0.36852 0.2922 0.0
O10 O 0.16113 0.37817 0.28573 0.0
O11 O 0.18793 0.35362 0.29106 0.0
O12 O 0.0449 0.38966 0.29441 0.0
O13 O 0.04437 0.36418 0.30377 0.0
O14 O 0.11975 0.93482 0.23743 0.0
Cd15 Cd 0.11413 0.94129 0.27213 0.0
Cd16 Cd 0.15449 0.91219 0.27586 0.0
O17 O 0.16865 0.9135 0.23986 0.0
O18 O 0.10521 0.96484 0.26993 0.0
O19 O 0.17449 0.95361 0.28506 0.0
C20 C 0.15123 0.96632 0.27816 0.0
C21 C 0.21011 0.907 0.30709 0.0
C22 C 0.14525 0.92384 0.22754 0.0
C23 C 0.04503 0.91647 0.29137 0.0
O24 O 0.07993 0.90699 0.28452 0.0
O25 O 0.05233 0.9314 0.29044 0.0
O26 O 0.19679 0.89594 0.29257 0.0
O27 O 0.19619 0.92136 0.30228 0.0
O28 O 0.12475 0.93485 0.04261 0.0
Cd29 Cd 0.12886 0.94166 1.00801 0.0
Cd30 Cd 0.08853 0.91266 1.00404 0.0
O31 O 0.07502 0.91371 0.04011 0.0
O32 O 0.13755 0.9652 1.0106 0.0
O33 O 0.06789 0.95399 0.99578 0.0
C34 C 0.09124 0.96669 1.00272 0.0
C35 C 0.03254 0.9077 0.97287 0.0
C36 C 0.09928 0.92386 0.05248 0.0
C37 C 0.19763 0.91708 0.98808 0.0
O38 O 0.163 0.90756 0.99508 0.0
O39 O 0.19013 0.932 0.98909 0.0
O40 O 0.04616 0.89652 0.9871 0.0
O41 O 0.04635 0.92204 0.97797 0.0
O42 O 0.1143 0.35073 0.04346 0.0
Cd43 Cd 0.11127 0.34424 1.00871 0.0
Cd44 Cd 0.15121 0.37332 1.00557 0.0
O45 O 0.16386 0.37194 0.04168 0.0
O46 O 0.10244 0.32068 1.01077 0.0
O47 O 0.17272 0.33198 0.99676 0.0
C48 C 0.14907 0.31924 1.00328 0.0
C49 C 0.20797 0.37854 0.97482 0.0
C50 C 0.13945 0.36166 0.0537 0.0
C51 C 0.04279 0.3689 0.98878 0.0
O52 O 0.07696 0.37842 0.99626 0.0
O53 O 0.05055 0.35399 0.98953 0.0
O54 O 0.19405 0.3896 0.98923 0.0
O55 O 0.19398 0.36416 0.97952 0.0
O56 O 0.86775 0.68417 0.79493 0.0
Cd57 Cd 0.86463 0.69084 0.76025 0.0
Cd58 Cd 0.90518 0.66186 0.75673 0.0
O59 O 0.91759 0.66305 0.79288 0.0
O60 O 0.85612 0.71441 0.76245 0.0
O61 O 0.92598 0.70305 0.74812 0.0
C62 C 0.90257 0.71582 0.75472 0.0
C63 C 0.96197 0.65668 0.72595 0.0
C64 C 0.89292 0.67321 0.80505 0.0
C65 C 0.79655 0.66617 0.74005 0.0
O66 O 0.83102 0.65668 0.7473 0.0
O67 O 0.80388 0.6811 0.74108 0.0
O68 O 0.94804 0.6456 0.7403 0.0
O69 O 0.94805 0.67105 0.73074 0.0
O70 O 0.875 0.10126 0.794 0.0
Cd71 Cd 0.87967 0.09453 0.75939 0.0
Cd72 Cd 0.8394 0.12356 0.7554 0.0
O73 O 0.82571 0.12249 0.79144 0.0
O74 O 0.88815 0.07097 0.76187 0.0
O75 O 0.81883 0.08224 0.74685 0.0
C76 C 0.84197 0.06952 0.75382 0.0
C77 C 0.78339 0.12873 0.72432 0.0
C78 C 0.84959 0.11229 0.80384 0.0
C79 C 0.94869 0.11912 0.73963 0.0
O80 O 0.91392 0.12865 0.74646 0.0
O81 O 0.94129 0.1042 0.74074 0.0
O82 O 0.79715 0.13983 0.73869 0.0
O83 O 0.79711 0.11436 0.72919 0.0
O84 O 0.87001 0.10096 0.98885 0.0
Cd85 Cd 0.86525 0.09442 0.02354 0.0
Cd86 Cd 0.90528 0.12353 0.02718 0.0
O87 O 0.91903 0.12227 0.99116 0.0
O88 O 0.85637 0.07087 0.0212 0.0
O89 O 0.92596 0.08209 0.03607 0.0
C90 C 0.90259 0.06939 0.02918 0.0
C91 C 0.96132 0.12863 0.05828 0.0
C92 C 0.89534 0.11195 0.97889 0.0
C93 C 0.79615 0.11913 0.04306 0.0
O94 O 0.83076 0.12864 0.03604 0.0
O95 O 0.80375 0.1042 0.04217 0.0
O96 O 0.94777 0.13974 0.04391 0.0
O97 O 0.94733 0.11428 0.05339 0.0
O98 O 0.87039 0.68442 0.98961 0.0
Cd99 Cd 0.87694 0.6911 0.02418 0.0
Cd100 Cd 0.83758 0.66182 0.02851 0.0
O101 O 0.82285 0.66282 0.99254 0.0
O102 O 0.88562 0.71464 0.02154 0.0
O103 O 0.81687 0.70348 0.03727 0.0
C104 C 0.83984 0.71616 0.03002 0.0
C105 C 0.78244 0.65651 0.05988 0.0
C106 C 0.8453 0.67324 0.97999 0.0
C107 C 0.9473 0.66659 0.04345 0.0
O108 O 0.91245 0.65696 0.03704 0.0
O109 O 0.9396 0.6815 0.04222 0.0
O110 O 0.79621 0.64545 0.04545 0.0
O111 O 0.79567 0.67091 0.05493 0.0
O112 O 0.12045 0.8506 0.73709 0.0
Cd113 Cd 0.12682 0.84418 0.77179 0.0
Cd114 Cd 0.08709 0.87338 0.77553 0.0
O115 O 0.07232 0.87209 0.7396 0.0
O116 O 0.13599 0.82063 0.76955 0.0
O117 O 0.06692 0.83178 0.78499 0.0
C118 C 0.0902 0.81909 0.77801 0.0
C119 C 0.03191 0.87834 0.807 0.0
C120 C 0.09516 0.86164 0.72724 0.0
C121 C 0.19672 0.86898 0.79067 0.0
O122 O 0.16187 0.8785 0.78392 0.0
O123 O 0.18907 0.85406 0.78984 0.0
O124 O 0.04507 0.88952 0.79266 0.0
O125 O 0.0458 0.86401 0.8019 0.0
O126 O 0.12152 0.43502 0.73891 0.0
Cd127 Cd 0.11545 0.44164 0.77354 0.0
Cd128 Cd 0.15508 0.41245 0.77759 0.0
O129 O 0.16989 0.41359 0.74166 0.0
O130 O 0.1058 0.46514 0.77097 0.0
O131 O 0.17537 0.45425 0.78634 0.0
C132 C 0.15172 0.46683 0.77921 0.0
C133 C 0.2103 0.40731 0.80897 0.0
C134 C 0.14693 0.42395 0.72919 0.0
C135 C 0.04552 0.41698 0.79271 0.0
O136 O 0.08027 0.40741 0.786 0.0
O137 O 0.0533 0.4319 0.79177 0.0
O138 O 0.19693 0.39621 0.79454 0.0
O139 O 0.19659 0.42168 0.80404 0.0
O140 O 0.12687 0.43456 0.54411 0.0
Cd141 Cd 0.13027 0.44126 0.50945 0.0
Cd142 Cd 0.09005 0.41227 0.50583 0.0
O143 O 0.07686 0.41348 0.5419 0.0
O144 O 0.13885 0.46482 0.51185 0.0
O145 O 0.06899 0.45353 0.49737 0.0
C146 C 0.09238 0.46626 0.50415 0.0
C147 C 0.03368 0.40716 0.47486 0.0
C148 C 0.10142 0.42363 0.55414 0.0
C149 C 0.19888 0.41665 0.48953 0.0
O150 O 0.16446 0.40714 0.49676 0.0
O151 O 0.19123 0.43157 0.49037 0.0
O152 O 0.04739 0.39605 0.48921 0.0
O153 O 0.04769 0.42151 0.47971 0.0
O154 O 0.11674 0.85003 0.54234 0.0
Cd155 Cd 0.1132 0.84314 0.50776 0.0
Cd156 Cd 0.15282 0.87225 0.50377 0.0
O157 O 0.16593 0.87128 0.53988 0.0
O158 O 0.10521 0.81957 0.51041 0.0
O159 O 0.17466 0.83094 0.49568 0.0
C160 C 0.15162 0.81819 0.50262 0.0
C161 C 0.209 0.87772 0.47286 0.0
C162 C 0.14179 0.86111 0.55224 0.0
C163 C 0.04391 0.86747 0.48763 0.0
O164 O 0.07827 0.87709 0.49462 0.0
O165 O 0.05174 0.85257 0.48873 0.0
O166 O 0.19458 0.88872 0.48725 0.0
O167 O 0.19587 0.86328 0.47764 0.0
O168 O 0.86963 0.18408 0.29402 0.0
Cd169 Cd 0.86466 0.19067 0.25937 0.0
Cd170 Cd 0.90563 0.16174 0.25554 0.0
O171 O 0.91956 0.16299 0.29156 0.0
O172 O 0.8554 0.21421 0.2617 0.0
O173 O 0.92504 0.2031 0.24672 0.0
C174 C 0.9015 0.21577 0.25361 0.0
C175 C 0.96161 0.15681 0.22437 0.0
C176 C 0.89543 0.17317 0.30391 0.0
C177 C 0.79619 0.16581 0.23987 0.0
O178 O 0.8312 0.15639 0.24677 0.0
O179 O 0.80329 0.18075 0.24081 0.0
O180 O 0.94847 0.14565 0.23875 0.0
O181 O 0.94726 0.17112 0.22928 0.0
O182 O 0.87917 0.60026 0.29478 0.0
Cd183 Cd 0.88187 0.59357 0.26008 0.0
Cd184 Cd 0.84178 0.62255 0.25659 0.0
O185 O 0.82925 0.62136 0.29273 0.0
O186 O 0.89045 0.57 0.26223 0.0
O187 O 0.82032 0.58134 0.24815 0.0
C188 C 0.84387 0.56859 0.25465 0.0
C189 C 0.78503 0.62771 0.22579 0.0
C190 C 0.85399 0.61122 0.30489 0.0
C191 C 0.95025 0.61813 0.23989 0.0
O192 O 0.91603 0.62767 0.24726 0.0
O193 O 0.94253 0.60322 0.24078 0.0
O194 O 0.79898 0.6388 0.24015 0.0
O195 O 0.79897 0.61334 0.23057 0.0
O196 O 0.87428 0.60067 0.48958 0.0
Cd197 Cd 0.86745 0.59416 0.5242 0.0
Cd198 Cd 0.90796 0.62325 0.52838 0.0
O199 O 0.92297 0.62203 0.49245 0.0
O200 O 0.85815 0.57063 0.52174 0.0
O201 O 0.92723 0.58169 0.53735 0.0
C202 C 0.90394 0.56904 0.53018 0.0
C203 C 0.96315 0.62825 0.55986 0.0
C204 C 0.90004 0.61168 0.47993 0.0
C205 C 0.798 0.61901 0.54321 0.0
O206 O 0.83323 0.62848 0.53672 0.0
O207 O 0.80518 0.60407 0.54216 0.0
O208 O 0.95018 0.63939 0.54543 0.0
O209 O 0.94905 0.61393 0.55487 0.0
O210 O 0.87579 0.18486 0.48891 0.0
Cd211 Cd 0.88054 0.19147 0.52358 0.0
Cd212 Cd 0.84062 0.16235 0.52733 0.0
O213 O 0.82686 0.16354 0.49131 0.0
O214 O 0.88928 0.21502 0.52116 0.0
O215 O 0.81977 0.20379 0.53607 0.0
C216 C 0.84304 0.21649 0.52913 0.0
C217 C 0.78453 0.15724 0.55839 0.0
C218 C 0.85048 0.17384 0.479 0.0
C219 C 0.94973 0.16685 0.54322 0.0
O220 O 0.91516 0.15729 0.53623 0.0
O221 O 0.94208 0.18177 0.54226 0.0
O222 O 0.79821 0.14613 0.54403 0.0
O223 O 0.79843 0.17159 0.55352 0.0
O224 O 0.62504 0.35112 0.73699 0.0
Cd225 Cd 0.62871 0.34442 0.77165 0.0
Cd226 Cd 0.58923 0.37357 0.77531 0.0
O227 O 0.57611 0.37244 0.73922 0.0
O228 O 0.63711 0.32085 0.76926 0.0
O229 O 0.56754 0.33217 0.78395 0.0
C230 C 0.5908 0.31943 0.77716 0.0
C231 C 0.53294 0.37897 0.8062 0.0
C232 C 0.60013 0.36218 0.72698 0.0
C233 C 0.69807 0.3689 0.79152 0.0
O234 O 0.66378 0.37849 0.78442 0.0
O235 O 0.69013 0.35399 0.79058 0.0
O236 O 0.5472 0.38999 0.79181 0.0
O237 O 0.54633 0.36455 0.80143 0.0
O238 O 0.62305 0.93496 0.73835 0.0
Cd239 Cd 0.61561 0.94169 0.77287 0.0
Cd240 Cd 0.6547 0.91239 0.77745 0.0
O241 O 0.67021 0.9133 0.74156 0.0
O242 O 0.6068 0.96522 0.77004 0.0
O243 O 0.67524 0.95417 0.78621 0.0
C244 C 0.65235 0.96681 0.77876 0.0
C245 C 0.70939 0.9073 0.80906 0.0
C246 C 0.64821 0.92373 0.72888 0.0
C247 C 0.54466 0.91722 0.79183 0.0
O248 O 0.57961 0.90756 0.78562 0.0
O249 O 0.55252 0.93212 0.79062 0.0
O250 O 0.69577 0.89614 0.79478 0.0
O251 O 0.6962 0.92167 0.80386 0.0
O252 O 0.6281 0.9345 0.54369 0.0
Cd253 Cd 0.63088 0.94119 0.50901 0.0
Cd254 Cd 0.58988 0.91231 0.50563 0.0
O255 O 0.57737 0.91357 0.54175 0.0
O256 O 0.64029 0.96474 0.51126 0.0
O257 O 0.56967 0.95364 0.49724 0.0
C258 C 0.59369 0.96631 0.50379 0.0
C259 C 0.53304 0.90744 0.47478 0.0
C260 C 0.60255 0.92365 0.55386 0.0
C261 C 0.69843 0.91639 0.48885 0.0
O262 O 0.66398 0.90698 0.49631 0.0
O263 O 0.69113 0.93133 0.48964 0.0
O264 O 0.5466 0.89625 0.48901 0.0
O265 O 0.5474 0.92175 0.47973 0.0
O266 O 0.62231 0.3508 0.54236 0.0
Cd267 Cd 0.61631 0.34403 0.5078 0.0
Cd268 Cd 0.65543 0.37329 0.50354 0.0
O269 O 0.6701 0.37235 0.53951 0.0
O270 O 0.6076 0.32051 0.51061 0.0
O271 O 0.67659 0.33161 0.49501 0.0
C272 C 0.65352 0.31896 0.5023 0.0
C273 C 0.71058 0.37831 0.4721 0.0
C274 C 0.64739 0.36197 0.55203 0.0
C275 C 0.54594 0.36845 0.48838 0.0
O276 O 0.58055 0.37811 0.49497 0.0
O277 O 0.55389 0.35355 0.48951 0.0
O278 O 0.69689 0.3895 0.48632 0.0
O279 O 0.69728 0.36395 0.47732 0.0
O280 O 0.3688 0.68432 0.29383 0.0
Cd281 Cd 0.36514 0.69113 0.25923 0.0
Cd282 Cd 0.40523 0.6621 0.25539 0.0
O283 O 0.41841 0.66316 0.29147 0.0
O284 O 0.35559 0.71464 0.26187 0.0
O285 O 0.4259 0.70372 0.24726 0.0
C286 C 0.40193 0.71632 0.25414 0.0
C287 C 0.46159 0.65696 0.22444 0.0
C288 C 0.39407 0.67332 0.30378 0.0
C289 C 0.29641 0.66658 0.23914 0.0
O290 O 0.33081 0.65703 0.24626 0.0
O291 O 0.3041 0.6815 0.24014 0.0
O292 O 0.44768 0.64585 0.23874 0.0
O293 O 0.44781 0.67133 0.22934 0.0
O294 O 0.37148 0.10087 0.29428 0.0
Cd295 Cd 0.37736 0.09427 0.25964 0.0
Cd296 Cd 0.33775 0.1235 0.25566 0.0
O297 O 0.3235 0.12239 0.29167 0.0
O298 O 0.38608 0.07072 0.26211 0.0
O299 O 0.31704 0.08192 0.24671 0.0
C300 C 0.34015 0.06922 0.25378 0.0
C301 C 0.28241 0.12862 0.22431 0.0
C302 C 0.34639 0.11198 0.30407 0.0
C303 C 0.44717 0.11887 0.24026 0.0
O304 O 0.41245 0.12845 0.24696 0.0
O305 O 0.43955 0.10395 0.24137 0.0
O306 O 0.29605 0.13976 0.23865 0.0
O307 O 0.29579 0.11425 0.22938 0.0
O308 O 0.36893 0.10066 0.48897 0.0
Cd309 Cd 0.36523 0.09386 0.52359 0.0
Cd310 Cd 0.4052 0.12293 0.52744 0.0
O311 O 0.41839 0.12186 0.49135 0.0
O312 O 0.356 0.07033 0.52105 0.0
O313 O 0.42613 0.08138 0.53565 0.0
C314 C 0.40235 0.06873 0.52881 0.0
C315 C 0.46138 0.1282 0.55845 0.0
C316 C 0.39411 0.11169 0.47903 0.0
C317 C 0.29628 0.1184 0.54356 0.0
O318 O 0.33071 0.12796 0.53649 0.0
O319 O 0.30402 0.10348 0.54258 0.0
O320 O 0.44743 0.13926 0.54407 0.0
O321 O 0.44777 0.1138 0.5536 0.0
O322 O 0.37349 0.68422 0.4886 0.0
Cd323 Cd 0.37935 0.69078 0.52324 0.0
Cd324 Cd 0.33913 0.66164 0.52718 0.0
O325 O 0.32486 0.66283 0.4912 0.0
O326 O 0.38814 0.71433 0.52085 0.0
O327 O 0.31899 0.70311 0.53612 0.0
C328 C 0.34212 0.71582 0.52907 0.0
C329 C 0.28336 0.65651 0.55837 0.0
C330 C 0.34804 0.67318 0.4788 0.0
C331 C 0.44872 0.66604 0.54255 0.0
O332 O 0.41376 0.65653 0.53587 0.0
O333 O 0.44138 0.68098 0.5415 0.0
O334 O 0.29689 0.64541 0.54397 0.0
O335 O 0.29725 0.67087 0.5535 0.0
O336 O 0.6199 0.8509 0.23872 0.0
Cd337 Cd 0.6269 0.84433 0.27332 0.0
Cd338 Cd 0.58621 0.87342 0.27752 0.0
O339 O 0.57126 0.87227 0.24159 0.0
O340 O 0.63729 0.82086 0.27071 0.0
O341 O 0.56766 0.83154 0.28635 0.0
C342 C 0.59159 0.81903 0.27913 0.0
C343 C 0.53098 0.87822 0.30901 0.0
C344 C 0.59419 0.86192 0.22907 0.0
C345 C 0.69613 0.86924 0.29241 0.0
O346 O 0.66088 0.87869 0.28592 0.0
O347 O 0.68903 0.85429 0.29132 0.0
O348 O 0.54394 0.88945 0.29472 0.0
O349 O 0.5451 0.86393 0.30385 0.0
O350 O 0.61825 0.43498 0.23671 0.0
Cd351 Cd 0.61299 0.44138 0.27147 0.0
Cd352 Cd 0.65276 0.41223 0.27493 0.0
O353 O 0.66682 0.41358 0.23895 0.0
O354 O 0.60379 0.46492 0.26944 0.0
O355 O 0.67342 0.45373 0.28427 0.0
C356 C 0.64989 0.46644 0.27755 0.0
C357 C 0.70858 0.40738 0.30618 0.0
C358 C 0.6435 0.42398 0.22672 0.0
C359 C 0.54359 0.41659 0.29065 0.0
O360 O 0.57819 0.40707 0.28362 0.0
O361 O 0.55131 0.43151 0.28988 0.0
O362 O 0.69533 0.39617 0.29191 0.0
O363 O 0.69441 0.42168 0.30112 0.0
O364 O 0.62399 0.43527 0.04179 0.0
Cd365 Cd 0.62812 0.44213 1.00722 0.0
Cd366 Cd 0.58775 0.41314 1.00314 0.0
O367 O 0.57403 0.4142 0.03918 0.0
O368 O 0.63776 0.46563 1.00997 0.0
O369 O 0.5675 0.45475 0.9952 0.0
C370 C 0.59145 0.46733 1.00221 0.0
C371 C 0.53182 0.40802 0.972 0.0
C372 C 0.59836 0.4243 0.05161 0.0
C373 C 0.69686 0.41755 0.98726 0.0
O374 O 0.66227 0.40802 0.99426 0.0
O375 O 0.68929 0.43247 0.98825 0.0
O376 O 0.54541 0.39692 0.98637 0.0
O377 O 0.54566 0.42238 0.97691 0.0
O378 O 0.61474 0.85051 0.04404 0.0
Cd379 Cd 0.61164 0.84366 1.00943 0.0
Cd380 Cd 0.65186 0.87265 1.0057 0.0
O381 O 0.66466 0.87161 0.04182 0.0
O382 O 0.60341 0.82009 1.01191 0.0
O383 O 0.67316 0.83146 0.99747 0.0
C384 C 0.64992 0.81871 1.00424 0.0
C385 C 0.70831 0.8777 0.97477 0.0
C386 C 0.64001 0.8615 0.05406 0.0
C387 C 0.54318 0.86817 0.98918 0.0
O388 O 0.57754 0.8777 0.99642 0.0
O389 O 0.55077 0.85325 0.99017 0.0
O390 O 0.69434 0.88886 0.98899 0.0
O391 O 0.69462 0.86335 0.97976 0.0
O392 O 0.37055 0.18468 0.79394 0.0
Cd393 Cd 0.36573 0.1912 0.75924 0.0
Cd394 Cd 0.40657 0.16223 0.75555 0.0
O395 O 0.42035 0.16355 0.79159 0.0
O396 O 0.35675 0.21476 0.76139 0.0
O397 O 0.42632 0.20352 0.74655 0.0
C398 C 0.4029 0.21625 0.75331 0.0
C399 C 0.46243 0.1571 0.72439 0.0
C400 C 0.39623 0.17376 0.80389 0.0
C401 C 0.29722 0.16633 0.73977 0.0
O402 O 0.33214 0.15691 0.74676 0.0
O403 O 0.30438 0.18128 0.74066 0.0
O404 O 0.4492 0.14602 0.73888 0.0
O405 O 0.44831 0.17145 0.7292 0.0
O406 O 0.37685 0.60103 0.79377 0.0
Cd407 Cd 0.38062 0.59424 0.75916 0.0
Cd408 Cd 0.33973 0.62315 0.75529 0.0
O409 O 0.32665 0.62205 0.79138 0.0
O410 O 0.38999 0.57072 0.76165 0.0
O411 O 0.31975 0.58174 0.74712 0.0
C412 C 0.34358 0.5691 0.75394 0.0
C413 C 0.28325 0.62815 0.72433 0.0
C414 C 0.35125 0.61198 0.8037 0.0
C415 C 0.4487 0.61893 0.73907 0.0
O416 O 0.41398 0.6284 0.74612 0.0
O417 O 0.4415 0.604 0.74013 0.0
O418 O 0.29685 0.63929 0.73867 0.0
O419 O 0.29738 0.61381 0.72921 0.0
O420 O 0.37108 0.60146 0.98859 0.0
Cd421 Cd 0.36542 0.59496 0.02326 0.0
Cd422 Cd 0.40637 0.62397 0.02704 0.0
O423 O 0.42069 0.62263 0.99107 0.0
O424 O 0.35515 0.57147 0.02085 0.0
O425 O 0.42531 0.58227 0.03585 0.0
C426 C 0.40124 0.56972 0.02887 0.0
C427 C 0.46213 0.62881 0.05833 0.0
C428 C 0.39697 0.61236 0.97873 0.0
C429 C 0.29689 0.61994 0.04255 0.0
O430 O 0.33191 0.62935 0.03565 0.0
O431 O 0.30402 0.60499 0.04168 0.0
O432 O 0.44929 0.63999 0.04394 0.0
O433 O 0.44759 0.61453 0.05338 0.0
O434 O 0.37578 0.18576 0.98886 0.0
Cd435 Cd 0.3806 0.19242 0.02351 0.0
Cd436 Cd 0.34066 0.1633 0.02737 0.0
O437 O 0.3269 0.16443 0.99133 0.0
O438 O 0.38967 0.21595 0.02109 0.0
O439 O 0.31991 0.20483 0.03592 0.0
C440 C 0.34343 0.2175 0.02902 0.0
C441 C 0.28478 0.15832 0.05857 0.0
C442 C 0.3505 0.17472 0.97898 0.0
C443 C 0.44982 0.1678 0.04317 0.0
O444 O 0.41521 0.15825 0.03623 0.0
O445 O 0.44218 0.18272 0.04219 0.0
O446 O 0.29838 0.14714 0.0443 0.0
O447 O 0.29858 0.17265 0.05352 0.0
H448 H 0.08686 0.3885 0.20014 0.0
H449 H 0.12527 0.33695 0.08321 0.0
H450 H 0.10391 0.33766 0.19833 0.0
H451 H 0.14716 0.38763 0.08328 0.0
H452 H 0.11086 0.33767 0.12535 0.0
H453 H 0.10022 0.38917 0.15715 0.0
C454 C 0.09254 0.3775 0.19067 0.0
C455 C 0.09432 0.363 0.20278 0.0
C456 C 0.11913 0.34868 0.11632 0.0
C457 C 0.11007 0.36369 0.15402 0.0
C458 C 0.12749 0.34826 0.09219 0.0
C459 C 0.13752 0.36225 0.0797 0.0
C460 C 0.12018 0.36323 0.12829 0.0
C461 C 0.13999 0.37656 0.09231 0.0
C462 C 0.10073 0.3779 0.16625 0.0
C463 C 0.10247 0.34911 0.18976 0.0
N464 N 0.13093 0.37671 0.11598 0.0
N465 N 0.11003 0.34981 0.1662 0.0
H466 H 0.08837 0.89765 0.08136 0.0
H467 H 0.13801 0.94871 0.19786 0.0
H468 H 0.11585 0.94807 0.08274 0.0
H469 H 0.14908 0.89771 0.19818 0.0
H470 H 0.12458 0.94815 0.15562 0.0
H471 H 0.10288 0.89684 0.12426 0.0
C472 C 0.09668 0.90854 0.09071 0.0
C473 C 0.10094 0.92295 0.07848 0.0
C474 C 0.13032 0.93703 0.16475 0.0
C475 C 0.118 0.92209 0.12717 0.0
C476 C 0.13816 0.93736 0.18893 0.0
C477 C 0.14479 0.92324 0.20154 0.0
C478 C 0.12836 0.92245 0.15289 0.0
C479 C 0.14461 0.90887 0.18903 0.0
C480 C 0.1055 0.90805 0.11508 0.0
C481 C 0.1124 0.93669 0.09138 0.0
N482 N 0.13598 0.90881 0.16533 0.0
N483 N 0.12048 0.9359 0.11489 0.0
H484 H 0.90587 0.6472 0.83417 0.0
H485 H 0.84749 0.69803 0.95004 0.0
H486 H 0.87228 0.69728 0.83509 0.0
H487 H 0.84519 0.64693 0.95096 0.0
H488 H 0.86068 0.69747 0.90777 0.0
H489 H 0.89041 0.64634 0.87699 0.0
C490 C 0.89597 0.65802 0.84339 0.0
C491 C 0.89034 0.67233 0.83105 0.0
C492 C 0.8569 0.68632 0.91704 0.0
C493 C 0.87215 0.6714 0.87965 0.0
C494 C 0.84917 0.68665 0.94122 0.0
C495 C 0.84513 0.67251 0.95401 0.0
C496 C 0.86141 0.67173 0.90535 0.0
C497 C 0.84763 0.6581 0.94166 0.0
C498 C 0.88662 0.65748 0.86772 0.0
C499 C 0.87685 0.68596 0.84379 0.0
N500 N 0.85617 0.65806 0.91796 0.0
N501 N 0.86828 0.68514 0.86726 0.0
H502 H 0.88598 0.08715 0.94915 0.0
H503 H 0.83975 0.13852 0.83276 0.0
H504 H 0.90034 0.13807 0.94959 0.0
H505 H 0.86421 0.08795 0.83404 0.0
H506 H 0.85388 0.13923 0.8757 0.0
H507 H 0.87226 0.08781 0.90694 0.0
C508 C 0.88675 0.0985 0.94026 0.0
C509 C 0.89441 0.11257 0.9529 0.0
C510 C 0.8559 0.12801 0.86648 0.0
C511 C 0.87773 0.11348 0.90427 0.0
C512 C 0.84729 0.12758 0.84209 0.0
C513 C 0.85085 0.11316 0.82984 0.0
C514 C 0.86747 0.1139 0.87855 0.0
C515 C 0.86134 0.09935 0.84271 0.0
C516 C 0.87876 0.09888 0.9161 0.0
C517 C 0.89505 0.12694 0.94043 0.0
N518 N 0.86924 0.10008 0.86623 0.0
N519 N 0.8863 0.12706 0.91674 0.0
H520 H 0.10054 0.8367 0.69758 0.0
H521 H 0.15273 0.88739 0.58104 0.0
H522 H 0.09249 0.88775 0.69787 0.0
H523 H 0.12434 0.83701 0.58257 0.0
H524 H 0.13779 0.88834 0.6239 0.0
H525 H 0.11384 0.83713 0.65533 0.0
C526 C 0.10101 0.84804 0.68864 0.0
C527 C 0.0953 0.8622 0.70125 0.0
C528 C 0.13505 0.87711 0.61475 0.0
C529 C 0.11163 0.86285 0.65258 0.0
C530 C 0.14411 0.87653 0.5904 0.0
C531 C 0.13975 0.8621 0.57823 0.0
C532 C 0.12217 0.86313 0.62687 0.0
C533 C 0.12788 0.84842 0.59116 0.0
C534 C 0.10879 0.84829 0.66446 0.0
C535 C 0.09625 0.87655 0.68872 0.0
N536 N 0.11956 0.84929 0.61464 0.0
N537 N 0.10482 0.87654 0.66502 0.0
H538 H 0.08905 0.3976 0.58324 0.0
H539 H 0.14196 0.44875 0.69931 0.0
H540 H 0.12021 0.44783 0.58418 0.0
H541 H 0.14945 0.3977 0.70007 0.0
H542 H 0.12899 0.44812 0.65703 0.0
H543 H 0.1037 0.39685 0.62613 0.0
C544 C 0.09823 0.40847 0.59248 0.0
C545 C 0.10344 0.4228 0.58014 0.0
C546 C 0.13386 0.43701 0.66628 0.0
C547 C 0.12066 0.422 0.62881 0.0
C548 C 0.14143 0.43737 0.69047 0.0
C549 C 0.1469 0.42326 0.70321 0.0
C550 C 0.13095 0.42239 0.65453 0.0
C551 C 0.14588 0.40885 0.69082 0.0
C552 C 0.10713 0.408 0.61685 0.0
C553 C 0.116 0.4365 0.5929 0.0
N554 N 0.13749 0.40876 0.6671 0.0
N555 N 0.12412 0.43574 0.61641 0.0
H556 H 0.90633 0.14706 0.33296 0.0
H557 H 0.85932 0.1986 0.44918 0.0
H558 H 0.87998 0.19754 0.33399 0.0
H559 H 0.84578 0.14765 0.44978 0.0
H560 H 0.87284 0.19787 0.40696 0.0
H561 H 0.89241 0.14644 0.3759 0.0
C562 C 0.89841 0.15801 0.34224 0.0
C563 C 0.89427 0.17238 0.32991 0.0
C564 C 0.86655 0.1868 0.41616 0.0
C565 C 0.87789 0.17173 0.37864 0.0
C566 C 0.85868 0.18722 0.44032 0.0
C567 C 0.85131 0.17317 0.453 0.0
C568 C 0.86777 0.17219 0.40437 0.0
C569 C 0.85085 0.15877 0.44057 0.0
C570 C 0.88992 0.15762 0.36664 0.0
C571 C 0.88331 0.18618 0.34272 0.0
N572 N 0.85948 0.15862 0.41688 0.0
N573 N 0.87555 0.1855 0.36626 0.0
H574 H 0.84059 0.63726 0.33395 0.0
H575 H 0.89717 0.58677 0.45017 0.0
H576 H 0.87512 0.58724 0.33499 0.0
H577 H 0.90146 0.63785 0.45071 0.0
H578 H 0.88452 0.5872 0.40785 0.0
H579 H 0.85576 0.63822 0.37678 0.0
C580 C 0.85066 0.62648 0.3432 0.0
C581 C 0.8566 0.61215 0.33089 0.0
C582 C 0.88864 0.59837 0.41705 0.0
C583 C 0.87443 0.61319 0.37952 0.0
C584 C 0.89604 0.59811 0.44126 0.0
C585 C 0.9005 0.61229 0.45394 0.0
C586 C 0.88484 0.61293 0.40524 0.0
C587 C 0.8987 0.62666 0.44149 0.0
C588 C 0.85984 0.62707 0.36754 0.0
C589 C 0.87029 0.59857 0.34368 0.0
N590 N 0.89044 0.62663 0.41776 0.0
N591 N 0.87866 0.59944 0.36716 0.0
H592 H 0.64361 0.33719 0.58197 0.0
H593 H 0.58871 0.3883 0.69795 0.0
H594 H 0.64859 0.38828 0.58108 0.0
H595 H 0.61837 0.33799 0.69685 0.0
H596 H 0.60387 0.3891 0.65511 0.0
H597 H 0.63023 0.33781 0.62421 0.0
C598 C 0.64246 0.34858 0.59078 0.0
C599 C 0.64731 0.3627 0.57801 0.0
C600 C 0.60684 0.37792 0.66434 0.0
C601 C 0.63087 0.36355 0.62666 0.0
C602 C 0.59766 0.37743 0.68868 0.0
C603 C 0.60231 0.36306 0.70098 0.0
C604 C 0.62017 0.36392 0.65235 0.0
C605 C 0.61459 0.34935 0.68817 0.0
C606 C 0.63463 0.34894 0.61495 0.0
C607 C 0.64551 0.37712 0.59036 0.0
N608 N 0.62305 0.35014 0.6647 0.0
N609 N 0.63689 0.3772 0.61406 0.0
H610 H 0.64789 0.94849 0.69886 0.0
H611 H 0.58783 0.89778 0.58309 0.0
H612 H 0.64767 0.89739 0.69996 0.0
H613 H 0.62503 0.94762 0.5838 0.0
H614 H 0.603 0.89691 0.62594 0.0
H615 H 0.63543 0.94792 0.65654 0.0
C616 C 0.64583 0.93711 0.69007 0.0
C617 C 0.64894 0.92297 0.70291 0.0
C618 C 0.60767 0.908 0.61661 0.0
C619 C 0.63346 0.92218 0.65421 0.0
C620 C 0.5985 0.90854 0.59227 0.0
C621 C 0.60519 0.92279 0.57986 0.0
C622 C 0.62303 0.92185 0.62849 0.0
C623 C 0.61962 0.93635 0.59255 0.0
C624 C 0.63852 0.93677 0.66586 0.0
C625 C 0.64597 0.90855 0.69062 0.0
N626 N 0.62798 0.93553 0.61604 0.0
N627 N 0.63781 0.90851 0.66688 0.0
H628 H 0.40575 0.64716 0.33269 0.0
H629 H 0.35347 0.69805 0.44907 0.0
H630 H 0.37603 0.69746 0.334 0.0
H631 H 0.34536 0.647 0.44953 0.0
H632 H 0.36665 0.69752 0.40681 0.0
H633 H 0.39102 0.64629 0.37557 0.0
C634 C 0.39688 0.65801 0.34201 0.0
C635 C 0.39208 0.6724 0.32977 0.0
C636 C 0.36161 0.68638 0.41598 0.0
C637 C 0.37476 0.67147 0.37843 0.0
C638 C 0.35391 0.68669 0.44016 0.0
C639 C 0.34821 0.67255 0.45281 0.0
C640 C 0.36438 0.6718 0.40415 0.0
C641 C 0.34912 0.65818 0.44034 0.0
C642 C 0.38793 0.65748 0.36637 0.0
C643 C 0.37991 0.68608 0.34264 0.0
N644 N 0.35761 0.65814 0.41663 0.0
N645 N 0.37172 0.68527 0.36614 0.0
H646 H 0.40556 0.13789 0.45017 0.0
H647 H 0.35098 0.08711 0.33382 0.0
H648 H 0.37595 0.08758 0.44876 0.0
H649 H 0.34487 0.13818 0.33335 0.0
H650 H 0.36458 0.0876 0.37605 0.0
H651 H 0.39038 0.13881 0.40732 0.0
C652 C 0.39662 0.12704 0.44083 0.0
C653 C 0.39198 0.11263 0.45303 0.0
C654 C 0.35989 0.09875 0.36689 0.0
C655 C 0.37411 0.11362 0.40441 0.0
C656 C 0.35194 0.09846 0.34272 0.0
C657 C 0.34668 0.11262 0.33007 0.0
C658 C 0.36337 0.11333 0.37871 0.0
C659 C 0.34826 0.127 0.34253 0.0
C660 C 0.38742 0.1276 0.41648 0.0
C661 C 0.37972 0.09896 0.44015 0.0
N662 N 0.357 0.12701 0.36623 0.0
N663 N 0.37126 0.09981 0.41667 0.0
H664 H 0.59727 0.83703 0.1993 0.0
H665 H 0.65281 0.88762 0.08303 0.0
H666 H 0.59264 0.88811 0.19988 0.0
H667 H 0.62002 0.83749 0.08424 0.0
H668 H 0.63777 0.88858 0.12588 0.0
H669 H 0.61002 0.83748 0.157 0.0
C670 C 0.59835 0.84838 0.1904 0.0
C671 C 0.59378 0.86255 0.20309 0.0
C672 C 0.63406 0.8774 0.11666 0.0
C673 C 0.60954 0.86321 0.1544 0.0
C674 C 0.64317 0.87681 0.09232 0.0
C675 C 0.63764 0.86245 0.08006 0.0
C676 C 0.61996 0.86349 0.12869 0.0
C677 C 0.6245 0.84884 0.09289 0.0
C678 C 0.60582 0.84865 0.1662 0.0
C679 C 0.5955 0.87692 0.19065 0.0
N680 N 0.61617 0.84971 0.11637 0.0
N681 N 0.6038 0.87691 0.16693 0.0
H682 H 0.58705 0.39807 0.08039 0.0
H683 H 0.6357 0.44891 0.19715 0.0
H684 H 0.61493 0.44847 0.08195 0.0
H685 H 0.64763 0.39793 0.19722 0.0
H686 H 0.62238 0.44842 0.1549 0.0
H687 H 0.6012 0.39719 0.12331 0.0
C688 C 0.59537 0.40894 0.08978 0.0
C689 C 0.59985 0.42336 0.0776 0.0
C690 C 0.62828 0.4373 0.16399 0.0
C691 C 0.61649 0.42242 0.12631 0.0
C692 C 0.63604 0.43758 0.18817 0.0
C693 C 0.64289 0.42344 0.20071 0.0
C694 C 0.62662 0.42274 0.15204 0.0
C695 C 0.64297 0.4091 0.18813 0.0
C696 C 0.60399 0.40841 0.11416 0.0
C697 C 0.61133 0.43707 0.09055 0.0
N698 N 0.63442 0.40909 0.16442 0.0
N699 N 0.61919 0.43625 0.11407 0.0
H700 H 0.40698 0.14771 0.83305 0.0
H701 H 0.35929 0.19942 0.94906 0.0
H702 H 0.38063 0.19818 0.83389 0.0
H703 H 0.34602 0.14847 0.94984 0.0
H704 H 0.37298 0.19863 0.90685 0.0
H705 H 0.39285 0.14715 0.87599 0.0
C706 C 0.39902 0.15866 0.84229 0.0
C707 C 0.39494 0.17301 0.8299 0.0
C708 C 0.36672 0.18758 0.91608 0.0
C709 C 0.37831 0.17244 0.87863 0.0
C710 C 0.35874 0.18803 0.94025 0.0
C711 C 0.35139 0.174 0.95298 0.0
C712 C 0.36806 0.17294 0.90435 0.0
C713 C 0.35106 0.15958 0.9406 0.0
C714 C 0.3904 0.15831 0.86668 0.0
C715 C 0.38392 0.18684 0.84266 0.0
N716 N 0.3598 0.15939 0.91691 0.0
N717 N 0.37603 0.18619 0.86619 0.0
H718 H 0.33942 0.63816 0.83258 0.0
H719 H 0.39044 0.58743 0.94911 0.0
H720 H 0.36923 0.58786 0.83393 0.0
H721 H 0.40061 0.63844 0.94935 0.0
H722 H 0.37727 0.58789 0.90684 0.0
H723 H 0.35403 0.63907 0.87547 0.0
C724 C 0.34829 0.62731 0.84191 0.0
C725 C 0.35314 0.61291 0.82969 0.0
C726 C 0.38277 0.59903 0.91597 0.0
C727 C 0.37031 0.61389 0.87836 0.0
C728 C 0.39045 0.59876 0.94015 0.0
C729 C 0.39674 0.61291 0.95274 0.0
C730 C 0.3806 0.61359 0.90408 0.0
C731 C 0.3964 0.62726 0.94021 0.0
C732 C 0.35717 0.62787 0.86628 0.0
C733 C 0.36531 0.59924 0.84257 0.0
N734 N 0.3879 0.62726 0.9165 0.0
N735 N 0.37341 0.60008 0.86607 0.0
H736 H 0.00129 0.22279 0.24138 0.0
H737 H 0.98881 0.31193 0.29083 0.0
H738 H 0.8635 0.24413 0.26953 0.0
H739 H 0.1263 0.29067 0.26224 0.0
H740 H 0.94264 0.28707 0.28382 0.0
H741 H 0.04739 0.24766 0.24834 0.0
C742 C 0.98052 0.23275 0.24874 0.0
C743 C 0.92834 0.23132 0.25483 0.0
C744 C 0.98299 0.28781 0.2792 0.0
C745 C 0.98123 0.25983 0.26324 0.0
C746 C 0.00951 0.30199 0.28336 0.0
C747 C 0.06162 0.30343 0.27717 0.0
C748 C 0.00865 0.27494 0.26871 0.0
C749 C 0.08621 0.29014 0.26736 0.0
C750 C 0.00698 0.24694 0.25287 0.0
C751 C 0.90364 0.24465 0.26449 0.0
N752 N 0.05953 0.27652 0.26336 0.0
N753 N 0.93029 0.25828 0.26848 0.0
H754 H 0.25111 0.97317 0.29051 0.0
H755 H 0.24025 0.06238 0.24145 0.0
H756 H 0.11376 0.99476 0.26237 0.0
H757 H 0.3775 0.04081 0.26973 0.0
H758 H 0.19362 0.0376 0.24837 0.0
H759 H 0.29769 0.99796 0.28364 0.0
C760 C 0.23053 0.98317 0.28317 0.0
C761 C 0.17833 0.98184 0.27705 0.0
C762 C 0.23402 0.03825 0.25294 0.0
C763 C 0.23178 1.01026 0.26875 0.0
C764 C 0.2608 0.05239 0.24883 0.0
C765 C 0.31299 0.05372 0.25496 0.0
C766 C 0.25949 0.02532 0.26333 0.0
C767 C 0.33737 0.04036 0.26466 0.0
C768 C 0.25727 0.99731 0.27909 0.0
C769 C 0.1539 0.99521 0.26742 0.0
N770 N 0.31043 0.02678 0.26862 0.0
N771 N 0.18082 1.0088 0.26349 0.0
H772 H 0.99088 0.97348 0.9912 0.0
H773 H 0.0029 0.06258 0.04081 0.0
H774 H 0.129 0.99509 0.0186 0.0
H775 H 0.86477 0.04096 1.01345 0.0
H776 H 0.04938 0.03784 0.03345 0.0
H777 H 0.94436 0.99821 0.99864 0.0
C778 C 0.01163 0.98347 0.9985 0.0
C779 C 0.06403 0.98216 1.00423 0.0
C780 C 0.00882 0.03847 0.02918 0.0
C781 C 0.01068 1.01051 1.01319 0.0
C782 C 0.98213 0.05258 0.03355 0.0
C783 C 0.92974 0.0539 0.02779 0.0
C784 C 0.98306 0.02553 0.01892 0.0
C785 C 0.90507 0.04053 0.01823 0.0
C786 C 0.98492 0.99758 1.00291 0.0
C787 C 0.08869 0.99552 1.01384 0.0
N788 N 0.93193 0.02697 1.01401 0.0
N789 N 0.06181 1.00907 0.01809 0.0
H790 H 0.38256 0.24604 1.01455 0.0
H791 H 0.10997 0.29063 0.01748 0.0
H792 H 0.24232 0.22426 0.03919 0.0
H793 H 0.25048 0.3126 0.99353 0.0
H794 H 0.15743 0.26614 0.02484 0.0
H795 H 0.33519 0.27057 1.00727 0.0
C796 C 0.34191 0.24645 0.01872 0.0
C797 C 0.31648 0.23302 0.02755 0.0
C798 C 0.17789 0.27627 0.01784 0.0
C799 C 0.26163 0.26111 0.01885 0.0
C800 C 0.15071 0.29027 1.01348 0.0
C801 C 0.17618 0.30375 1.00482 0.0
C802 C 0.23112 0.27568 1.01359 0.0
C803 C 0.22912 0.30253 1.00012 0.0
C804 C 0.31478 0.26047 1.0144 0.0
C805 C 0.26364 0.2343 0.03247 0.0
N806 N 0.25482 0.28879 1.00466 0.0
N807 N 0.23799 0.24805 0.02795 0.0
H808 H 0.00286 0.72256 0.74297 0.0
H809 H 0.99052 0.81216 0.79054 0.0
H810 H 0.86481 0.74434 0.77009 0.0
H811 H 0.12808 0.79062 0.76251 0.0
H812 H 0.94436 0.78724 0.78405 0.0
H813 H 0.04921 0.74742 0.74968 0.0
C814 C 0.98209 0.73261 0.75007 0.0
C815 C 0.92975 0.73131 0.75592 0.0
C816 C 0.98473 0.78793 0.77945 0.0
C817 C 0.98292 0.75982 0.76404 0.0
C818 C 0.01124 0.80214 0.78331 0.0
C819 C 0.06337 0.80353 0.77711 0.0
C820 C 0.0104 0.77496 0.76925 0.0
C821 C 0.08799 0.79013 0.76762 0.0
C822 C 0.00871 0.74679 0.75405 0.0
C823 C 0.90507 0.74475 0.76524 0.0
N824 N 0.0613 0.77647 0.76391 0.0
N825 N 0.93186 0.75838 0.76909 0.0
H826 H 0.75183 0.97376 0.79164 0.0
H827 H 0.74198 0.06274 0.74157 0.0
H828 H 0.61527 0.99512 0.76232 0.0
H829 H 0.87904 0.04113 0.76999 0.0
H830 H 0.69513 0.03802 0.74865 0.0
H831 H 0.79855 0.99852 0.78468 0.0
C832 C 0.73144 0.98371 0.78402 0.0
C833 C 0.67944 0.98232 0.7776 0.0
C834 C 0.73554 0.03865 0.75322 0.0
C835 C 0.73305 1.0107 0.76919 0.0
C836 C 0.76243 0.05275 0.74902 0.0
C837 C 0.81464 0.05406 0.75514 0.0
C838 C 0.76089 0.02572 0.7637 0.0
C839 C 0.83891 0.0407 0.76492 0.0
C840 C 0.75827 0.99783 0.77989 0.0
C841 C 0.65526 0.99562 0.76761 0.0
N842 N 0.81184 0.02716 0.76898 0.0
N843 N 0.68225 1.00918 0.76364 0.0
H844 H 0.75037 0.81206 0.99269 0.0
H845 H 0.73993 0.72298 0.04233 0.0
H846 H 0.61268 0.79027 0.02016 0.0
H847 H 0.87712 0.74456 1.01397 0.0
H848 H 0.69318 0.74771 0.03521 0.0
H849 H 0.79726 0.78739 1.00002 0.0
C850 C 0.7298 0.80204 0.99999 0.0
C851 C 0.67739 0.80328 1.00576 0.0
C852 C 0.7336 0.74707 0.03067 0.0
C853 C 0.73118 0.775 1.01459 0.0
C854 C 0.76044 0.73297 0.03489 0.0
C855 C 0.81264 0.73165 0.02878 0.0
C856 C 0.759 0.75999 0.0202 0.0
C857 C 0.83698 0.745 0.01902 0.0
C858 C 0.75671 0.78797 1.00433 0.0
C859 C 0.65297 0.78989 1.01536 0.0
N860 N 0.80997 0.75854 1.01496 0.0
N861 N 0.68005 0.77637 0.01955 0.0
H862 H 0.38316 0.54069 0.76867 0.0
H863 H 0.11211 0.49523 0.76441 0.0
H864 H 0.24264 0.56211 0.74369 0.0
H865 H 0.25234 0.47392 0.78995 0.0
H866 H 0.1589 0.51988 0.75729 0.0
H867 H 0.33629 0.51606 0.77594 0.0
C868 C 0.34255 0.54018 0.76443 0.0
C869 C 0.3169 0.55354 0.75549 0.0
C870 C 0.17943 0.50986 0.76459 0.0
C871 C 0.26262 0.52533 0.76417 0.0
C872 C 0.15263 0.49577 0.76881 0.0
C873 C 0.17824 0.48243 0.77785 0.0
C874 C 0.23244 0.51068 0.76933 0.0
C875 C 0.23089 0.48389 0.78306 0.0
C876 C 0.3157 0.52611 0.76874 0.0
C877 C 0.26413 0.55213 0.7505 0.0
N878 N 0.25624 0.49771 0.77863 0.0
N879 N 0.23876 0.53833 0.75499 0.0
H880 H 0.00377 0.56208 0.54243 0.0
H881 H 0.99194 0.47301 0.49269 0.0
H882 H 0.86613 0.54067 0.5142 0.0
H883 H 0.13006 0.49467 0.51999 0.0
H884 H 0.94537 0.49773 0.50011 0.0
H885 H 0.05014 0.5373 0.53524 0.0
C886 C 0.98308 0.55212 0.53502 0.0
C887 C 0.93087 0.55351 0.52896 0.0
C888 C 0.98594 0.49711 0.50436 0.0
C889 C 0.98407 0.5251 0.52028 0.0
C890 C 0.01268 0.48301 0.49997 0.0
C891 C 0.06511 0.48172 0.50567 0.0
C892 C 0.01169 0.51006 0.51461 0.0
C893 C 0.08974 0.49509 0.51524 0.0
C894 C 0.00971 0.53798 0.53074 0.0
C895 C 0.90629 0.54018 0.51922 0.0
N896 N 0.06283 0.50864 0.51948 0.0
N897 N 0.93309 0.5266 0.5151 0.0
H898 H 0.24202 0.72258 0.5411 0.0
H899 H 0.2522 0.8116 0.49118 0.0
H900 H 0.37943 0.74424 0.51311 0.0
H901 H 0.11455 0.78975 0.5186 0.0
H902 H 0.29925 0.78697 0.49868 0.0
H903 H 0.19517 0.74726 0.5338 0.0
C904 C 0.26256 0.73258 0.53371 0.0
C905 C 0.31485 0.73129 0.52776 0.0
C906 C 0.25868 0.78753 0.50294 0.0
C907 C 0.2611 0.75959 0.51896 0.0
C908 C 0.23167 0.80157 0.4985 0.0
C909 C 0.17922 0.80279 0.50421 0.0
C910 C 0.2332 0.77456 0.51324 0.0
C911 C 0.15487 0.7894 0.51384 0.0
C912 C 0.23566 0.74666 0.52938 0.0
C913 C 0.33922 0.74466 0.51805 0.0
N914 N 0.18203 0.77591 0.51812 0.0
N915 N 0.31215 0.75818 0.51387 0.0
H916 H 0.88282 0.53993 0.2687 0.0
H917 H 0.61078 0.49507 0.26348 0.0
H918 H 0.74266 0.56196 0.24444 0.0
H919 H 0.75068 0.47321 0.28836 0.0
H920 H 0.65804 0.51973 0.25697 0.0
H921 H 0.83541 0.51533 0.27539 0.0
C922 C 0.84217 0.53956 0.2645 0.0
C923 C 0.81678 0.55308 0.25593 0.0
C924 C 0.6784 0.50958 0.26399 0.0
C925 C 0.7619 0.52489 0.26394 0.0
C926 C 0.65133 0.49549 0.26786 0.0
C927 C 0.6767 0.482 0.27653 0.0
C928 C 0.73143 0.51025 0.26873 0.0
C929 C 0.7294 0.4833 0.28174 0.0
C930 C 0.81502 0.52551 0.26849 0.0
C931 C 0.76395 0.55185 0.25098 0.0
N932 N 0.755 0.49712 0.27766 0.0
N933 N 0.73828 0.53805 0.25513 0.0
H934 H 0.75355 0.3121 0.49027 0.0
H935 H 0.74283 0.22329 0.54093 0.0
H936 H 0.61617 0.29065 0.51864 0.0
H937 H 0.8805 0.24486 0.51305 0.0
H938 H 0.69609 0.24796 0.53343 0.0
H939 H 0.8003 0.28742 0.49778 0.0
C940 C 0.733 0.30215 0.49779 0.0
C941 C 0.68074 0.30349 0.50378 0.0
C942 C 0.7366 0.24733 0.52908 0.0
C943 C 0.73437 0.27521 0.51282 0.0
C944 C 0.76344 0.23326 0.53352 0.0
C945 C 0.81578 0.23196 0.52766 0.0
C946 C 0.76215 0.26023 0.51862 0.0
C947 C 0.84025 0.24529 0.51792 0.0
C948 C 0.75984 0.28808 0.50224 0.0
C949 C 0.65635 0.29019 0.51366 0.0
N950 N 0.81324 0.2588 0.51363 0.0
N951 N 0.68335 0.27667 0.51795 0.0
H952 H 0.50291 0.22309 0.74125 0.0
H953 H 0.49048 0.31268 0.78888 0.0
H954 H 0.36496 0.24475 0.76867 0.0
H955 H 0.62853 0.29092 0.76174 0.0
H956 H 0.44409 0.28784 0.78208 0.0
H957 H 0.54914 0.24798 0.74791 0.0
C958 C 0.48213 0.23313 0.74839 0.0
C959 C 0.42986 0.23178 0.75436 0.0
C960 C 0.48461 0.28846 0.77772 0.0
C961 C 0.4829 0.26032 0.76242 0.0
C962 C 0.51124 0.30264 0.78176 0.0
C963 C 0.5636 0.30393 0.77593 0.0
C964 C 0.51039 0.27545 0.76771 0.0
C965 C 0.58827 0.2905 0.76657 0.0
C966 C 0.50868 0.24732 0.75235 0.0
C967 C 0.40516 0.2452 0.76373 0.0
N968 N 0.56147 0.27689 0.76268 0.0
N969 N 0.43189 0.25884 0.76755 0.0
H970 H 0.3625 0.04024 0.51449 0.0
H971 H 0.63366 0.99483 0.51799 0.0
H972 H 0.50342 0.06178 0.53885 0.0
H973 H 0.49256 0.97325 0.49392 0.0
H974 H 0.58701 0.01951 0.52511 0.0
H975 H 0.40917 1.01556 0.5074 0.0
C976 C 0.40317 0.03974 0.51863 0.0
C977 C 0.42898 0.05316 0.52734 0.0
C978 C 0.56625 1.00942 0.51814 0.0
C979 C 0.48303 0.02487 0.51887 0.0
C980 C 0.59296 0.99531 0.51392 0.0
C981 C 0.56708 0.98189 0.50528 0.0
C982 C 0.51308 1.01018 0.51378 0.0
C983 C 0.51422 0.98327 0.5005 0.0
C984 C 0.42989 0.02564 0.51442 0.0
C985 C 0.48181 0.05176 0.53222 0.0
N986 N 0.48899 0.99712 0.50489 0.0
N987 N 0.50707 0.03792 0.52782 0.0
H988 H 0.6318 0.79074 0.26416 0.0
H989 H 0.36194 0.74465 0.269 0.0
H990 H 0.49141 0.81165 0.29024 0.0
H991 H 0.50271 0.72348 0.24381 0.0
H992 H 0.40836 0.76936 0.27624 0.0
H993 H 0.58559 0.76596 0.25715 0.0
C994 C 0.59138 0.79008 0.2687 0.0
C995 C 0.56554 0.80335 0.27786 0.0
C996 C 0.4291 0.75935 0.26901 0.0
C997 C 0.51201 0.77496 0.26947 0.0
C998 C 0.40251 0.74523 0.26472 0.0
C999 C 0.42837 0.73192 0.25572 0.0
C1000 C 0.48213 0.76024 0.26436 0.0
C1001 C 0.48108 0.73343 0.25067 0.0
C1002 C 0.56491 0.77592 0.26454 0.0
C1003 C 0.51303 0.80175 0.28326 0.0
N1004 N 0.5062 0.74728 0.25514 0.0
N1005 N 0.48801 0.78786 0.27888 0.0
H1006 H 0.63152 0.49565 0.01711 0.0
H1007 H 0.36095 0.54139 1.01409 0.0
H1008 H 0.49049 0.47446 0.99222 0.0
H1009 H 0.50192 0.56249 0.03924 0.0
H1010 H 0.40732 0.5167 1.00662 0.0
H1011 H 0.58503 0.52029 0.02474 0.0
C1012 C 0.59088 0.49622 1.01296 0.0
C1013 C 0.56497 0.48291 1.00395 0.0
C1014 C 0.4281 0.52668 1.01391 0.0
C1015 C 0.51112 0.51115 1.01304 0.0
C1016 C 0.40155 0.54079 0.01834 0.0
C1017 C 0.42748 0.55408 0.02736 0.0
C1018 C 0.48119 0.5258 0.01844 0.0
C1019 C 0.48021 0.55256 0.03236 0.0
C1020 C 0.56425 0.51029 0.01748 0.0
C1021 C 0.51217 0.48439 0.99908 0.0
N1022 N 0.50531 0.53873 0.02774 0.0
N1023 N 0.48701 0.4982 1.00378 0.0
H1024 H 0.00477 0.37792 0.45839 0.0
H1025 H 0.00354 0.40788 0.32544 0.0
H1026 H 0.01157 0.42713 0.43808 0.0
H1027 H 0.00961 0.35864 0.3457 0.0
H1028 H 0.9865 0.41504 0.36635 0.0
H1029 H 0.98654 0.37079 0.41756 0.0
C1030 C 0.00129 0.38728 0.44547 0.0
C1031 C 0.01048 0.40315 0.4517 0.0
C1032 C 0.99065 0.40264 0.36181 0.0
C1033 C 0.99033 0.395 0.40469 0.0
C1034 C 0.00016 0.39852 0.33837 0.0
C1035 C 0.00878 0.38263 0.33209 0.0
C1036 C 0.98999 0.39081 0.3792 0.0
C1037 C 0.00367 0.37105 0.34969 0.0
C1038 C 0.99111 0.38318 0.42208 0.0
C1039 C 0.00522 0.41474 0.43412 0.0
N1040 N 0.99543 0.37539 0.37246 0.0
N1041 N 0.99631 0.41042 0.41139 0.0
H1042 H 0.23891 0.87773 0.3234 0.0
H1043 H 0.23657 0.90714 0.45668 0.0
H1044 H 0.23105 0.92685 0.3442 0.0
H1045 H 0.23192 0.85798 0.43587 0.0
H1046 H 0.25443 0.9145 0.41593 0.0
H1047 H 0.25624 0.87046 0.36424 0.0
C1048 C 0.24196 0.88704 0.33644 0.0
C1049 C 0.23275 0.90293 0.33033 0.0
C1050 C 0.25042 0.90207 0.42032 0.0
C1051 C 0.25187 0.89461 0.37735 0.0
C1052 C 0.24045 0.89784 0.44366 0.0
C1053 C 0.23198 0.88191 0.44973 0.0
C1054 C 0.25171 0.89032 0.40281 0.0
C1055 C 0.23773 0.87041 0.43203 0.0
C1056 C 0.25163 0.88286 0.35983 0.0
C1057 C 0.23745 0.91445 0.34806 0.0
N1058 N 0.24642 0.87486 0.40935 0.0
N1059 N 0.24587 0.91005 0.37078 0.0
H1060 H 0.00765 0.85799 0.84305 0.0
H1061 H 0.00779 0.92805 0.93689 0.0
H1062 H 0.00671 0.90759 0.82462 0.0
H1063 H 0.00715 0.87845 0.95531 0.0
H1064 H 0.99008 0.92084 0.89602 0.0
H1065 H 0.99019 0.8652 0.88394 0.0
C1066 C 0.00262 0.87039 0.84746 0.0
C1067 C 0.0094 0.8822 0.83035 0.0
C1068 C 0.99288 0.91153 0.90906 0.0
C1069 C 0.99025 0.89058 0.87736 0.0
C1070 C 0.00276 0.91565 0.93248 0.0
C1071 C 0.00971 0.90384 0.94958 0.0
C1072 C 0.9903 0.89546 0.90259 0.0
C1073 C 0.00262 0.88798 0.94273 0.0
C1074 C 0.99288 0.87451 0.87089 0.0
C1075 C 0.00231 0.89806 0.8372 0.0
N1076 N 0.99416 0.88425 0.91976 0.0
N1077 N 0.99397 0.90179 0.86019 0.0
H1078 H 0.23895 0.37808 0.82547 0.0
H1079 H 0.23645 0.40786 0.95856 0.0
H1080 H 0.23123 0.42727 0.84598 0.0
H1081 H 0.23082 0.35866 0.93799 0.0
H1082 H 0.25475 0.41508 0.9178 0.0
H1083 H 0.25617 0.37092 0.86636 0.0
C1084 C 0.242 0.38743 0.83846 0.0
C1085 C 0.23286 0.4033 0.83226 0.0
C1086 C 0.25043 0.40268 0.92225 0.0
C1087 C 0.25186 0.39511 0.87932 0.0
C1088 C 0.24022 0.39852 0.9456 0.0
C1089 C 0.23132 0.38262 0.95173 0.0
C1090 C 0.25154 0.39088 0.9048 0.0
C1091 C 0.23694 0.37107 0.9341 0.0
C1092 C 0.25162 0.38331 0.86188 0.0
C1093 C 0.23757 0.41487 0.84991 0.0
N1094 N 0.24587 0.37544 0.91141 0.0
N1095 N 0.24593 0.41053 0.87267 0.0
H1096 H 0.9901 0.62738 0.70947 0.0
H1097 H 0.99221 0.65742 0.57654 0.0
H1098 H 0.98481 0.67662 0.68922 0.0
H1099 H 0.98376 0.60821 0.59675 0.0
H1100 H 0.00968 0.66448 0.61746 0.0
H1101 H 0.00801 0.62022 0.66863 0.0
C1102 C 0.99386 0.63674 0.69656 0.0
C1103 C 0.98517 0.65263 0.70281 0.0
C1104 C 0.0049 0.65211 0.61291 0.0
C1105 C 0.00495 0.64445 0.65579 0.0
C1106 C 0.99515 0.64804 0.58947 0.0
C1107 C 0.98574 0.6322 0.58317 0.0
C1108 C 0.00504 0.64027 0.63028 0.0
C1109 C 0.9903 0.62059 0.60076 0.0
C1110 C 0.00385 0.63262 0.67317 0.0
C1111 C 0.99077 0.66421 0.68524 0.0
N1112 N -0.00118 0.62488 0.62353 0.0
N1113 N -0.00051 0.65988 0.66251 0.0
H1114 H 0.75516 0.15801 0.70781 0.0
H1115 H 0.75565 0.12801 0.57484 0.0
H1116 H 0.76136 0.10877 0.68747 0.0
H1117 H 0.76256 0.17723 0.59521 0.0
H1118 H 0.73755 0.12089 0.61567 0.0
H1119 H 0.73765 0.16515 0.66694 0.0
C1120 C 0.75169 0.14864 0.69487 0.0
C1121 C 0.76052 0.13276 0.70111 0.0
C1122 C 0.74211 0.13328 0.61116 0.0
C1123 C 0.7412 0.14093 0.65405 0.0
C1124 C 0.75223 0.13738 0.58778 0.0
C1125 C 0.76141 0.15324 0.58156 0.0
C1126 C 0.7414 0.14511 0.62857 0.0
C1127 C 0.75621 0.16484 0.59916 0.0
C1128 C 0.74192 0.15275 0.67146 0.0
C1129 C 0.75529 0.12118 0.6835 0.0
N1130 N 0.74737 0.16052 0.62188 0.0
N1131 N 0.74679 0.12551 0.66075 0.0
H1132 H 0.99082 0.12765 0.20772 0.0
H1133 H 0.98977 0.15787 0.07489 0.0
H1134 H 0.98289 0.17689 0.18762 0.0
H1135 H 0.9835 0.10861 0.095 0.0
H1136 H 0.00764 0.16495 0.11577 0.0
H1137 H 0.00855 0.12063 0.16681 0.0
C1138 C 0.99395 0.13704 0.19482 0.0
C1139 C 0.98457 0.15288 0.20114 0.0
C1140 C 0.00327 0.15256 0.11119 0.0
C1141 C 0.00416 0.14486 0.15405 0.0
C1142 C 0.99329 0.14849 0.08778 0.0
C1143 C 0.98434 0.13262 0.08148 0.0
C1144 C 0.00411 0.14071 0.12854 0.0
C1145 C 0.98966 0.12101 0.09902 0.0
C1146 C 0.00384 0.133 0.17139 0.0
C1147 C 0.98939 0.16451 0.18359 0.0
N1148 N -0.00162 0.1253 0.12177 0.0
N1149 N -0.00197 0.16025 0.16082 0.0
H1150 H 0.75479 0.62718 0.07639 0.0
H1151 H 0.75617 0.65698 0.20948 0.0
H1152 H 0.76084 0.67639 0.09687 0.0
H1153 H 0.76264 0.60778 0.18895 0.0
H1154 H 0.73791 0.66416 0.16869 0.0
H1155 H 0.73773 0.61997 0.11727 0.0
C1156 C 0.7514 0.63652 0.08937 0.0
C1157 C 0.76002 0.65242 0.08316 0.0
C1158 C 0.74241 0.65176 0.17315 0.0
C1159 C 0.7412 0.64418 0.13023 0.0
C1160 C 0.7526 0.64763 0.19652 0.0
C1161 C 0.76172 0.63175 0.20267 0.0
C1162 C 0.74154 0.63995 0.15571 0.0
C1163 C 0.75635 0.62018 0.18505 0.0
C1164 C 0.74188 0.63237 0.11279 0.0
C1165 C 0.7549 0.66398 0.10081 0.0
N1166 N 0.74743 0.62453 0.16234 0.0
N1167 N 0.74664 0.65961 0.12356 0.0
H1168 H 0.50268 0.37879 0.95558 0.0
H1169 H 0.50518 0.40837 0.82246 0.0
H1170 H 0.51078 0.42794 0.93501 0.0
H1171 H 0.50985 0.35918 0.84308 0.0
H1172 H 0.48714 0.41568 0.86322 0.0
H1173 H 0.48518 0.37158 0.91472 0.0
C1174 C 0.49964 0.38813 0.94259 0.0
C1175 C 0.50898 0.404 0.94876 0.0
C1176 C 0.49119 0.40326 0.85879 0.0
C1177 C 0.48969 0.39576 0.90172 0.0
C1178 C 0.50127 0.39905 0.83543 0.0
C1179 C 0.50981 0.38313 0.82931 0.0
C1180 C 0.48987 0.39149 0.87625 0.0
C1181 C 0.504 0.37161 0.84696 0.0
C1182 C 0.48988 0.38398 0.91919 0.0
C1183 C 0.50429 0.41555 0.93109 0.0
N1184 N 0.49522 0.37603 0.86965 0.0
N1185 N 0.49579 0.41118 0.90836 0.0
H1186 H 0.73361 0.85743 0.93875 0.0
H1187 H 0.7337 0.9276 0.8452 0.0
H1188 H 0.73356 0.90701 0.95738 0.0
H1189 H 0.73426 0.87802 0.8266 0.0
H1190 H 0.75112 0.92035 0.88607 0.0
H1191 H 0.75141 0.8647 0.89793 0.0
C1192 C 0.73852 0.86983 0.9344 0.0
C1193 C 0.73132 0.88162 0.95154 0.0
C1194 C 0.74835 0.91106 0.87299 0.0
C1195 C 0.75084 0.89007 0.90461 0.0
C1196 C 0.73864 0.91521 0.84957 0.0
C1197 C 0.73176 0.9034 0.83242 0.0
C1198 C 0.75088 0.89498 0.8794 0.0
C1199 C 0.73873 0.88753 0.83922 0.0
C1200 C 0.74844 0.87399 0.91101 0.0
C1201 C 0.73827 0.8975 0.94477 0.0
N1202 N 0.74706 0.88379 0.86219 0.0
N1203 N 0.74678 0.90126 0.92182 0.0
H1204 H 0.50765 0.9278 0.43891 0.0
H1205 H 0.50728 0.85781 0.34506 0.0
H1206 H 0.50714 0.87819 0.45732 0.0
H1207 H 0.50513 0.90741 0.32668 0.0
H1208 H 0.48992 0.86496 0.38598 0.0
H1209 H 0.48936 0.92059 0.39809 0.0
C1210 C 0.50252 0.9154 0.43451 0.0
C1211 C 0.50971 0.90358 0.45158 0.0
C1212 C 0.49231 0.87428 0.37294 0.0
C1213 C 0.48965 0.89521 0.40466 0.0
C1214 C 0.502 0.87018 0.34949 0.0
C1215 C 0.50844 0.88202 0.33238 0.0
C1216 C 0.48941 0.89034 0.37942 0.0
C1217 C 0.50102 0.89787 0.33925 0.0
C1218 C 0.49231 0.91128 0.41112 0.0
C1219 C 0.50245 0.88772 0.44476 0.0
N1220 N 0.49276 0.90156 0.36225 0.0
N1221 N 0.49369 0.884 0.42181 0.0
H1222 H 0.7352 0.35793 0.4361 0.0
H1223 H 0.73323 0.42781 0.3421 0.0
H1224 H 0.73518 0.40757 0.45438 0.0
H1225 H 0.73438 0.37818 0.32378 0.0
H1226 H 0.75134 0.4207 0.38296 0.0
H1227 H 0.75231 0.36509 0.39517 0.0
C1228 C 0.73995 0.37032 0.43165 0.0
C1229 C 0.73299 0.38216 0.44873 0.0
C1230 C 0.74856 0.41137 0.36994 0.0
C1231 C 0.75173 0.39048 0.40168 0.0
C1232 C 0.73845 0.41544 0.34653 0.0
C1233 C 0.73152 0.40358 0.32946 0.0
C1234 C 0.75142 0.39531 0.37643 0.0
C1235 C 0.73888 0.38774 0.33633 0.0
C1236 C 0.74949 0.37442 0.40819 0.0
C1237 C 0.73973 0.39802 0.44183 0.0
N1238 N 0.74757 0.38406 0.3593 0.0
N1239 N 0.74787 0.40172 0.41882 0.0
H1240 H 0.48976 0.62769 0.20786 0.0
H1241 H 0.49178 0.65792 0.07503 0.0
H1242 H 0.48426 0.67696 0.18775 0.0
H1243 H 0.4828 0.6087 0.09512 0.0
H1244 H 0.50948 0.66492 0.11596 0.0
H1245 H 0.50767 0.6206 0.167 0.0
C1246 C 0.49347 0.63707 0.19497 0.0
C1247 C 0.48471 0.65295 0.20127 0.0
C1248 C 0.50455 0.65255 0.11137 0.0
C1249 C 0.50451 0.64484 0.15423 0.0
C1250 C 0.49467 0.64852 0.08793 0.0
C1251 C 0.48501 0.6327 0.08161 0.0
C1252 C 0.50457 0.6407 0.12872 0.0
C1253 C 0.48952 0.62106 0.09916 0.0
C1254 C 0.50347 0.63299 0.17157 0.0
C1255 C 0.49027 0.66456 0.18374 0.0
N1256 N 0.49816 0.62532 0.12193 0.0
N1257 N 0.49899 0.66026 0.16099 0.0
H1258 H 0.25778 0.1084 0.18813 0.0
H1259 H 0.26015 0.17862 0.09465 0.0
H1260 H 0.25801 0.15797 0.20681 0.0
H1261 H 0.25903 0.12906 0.07597 0.0
H1262 H 0.24204 0.17137 0.13545 0.0
H1263 H 0.24086 0.11571 0.14724 0.0
C1264 C 0.25311 0.12081 0.18377 0.0
C1265 C 0.26007 0.13258 0.20096 0.0
C1266 C 0.24483 0.16208 0.12237 0.0
C1267 C 0.24156 0.14108 0.15395 0.0
C1268 C 0.25494 0.16623 0.09898 0.0
C1269 C 0.26186 0.15443 0.08183 0.0
C1270 C 0.24196 0.146 0.12874 0.0
C1271 C 0.25453 0.13857 0.08858 0.0
C1272 C 0.24369 0.12499 0.16034 0.0
C1273 C 0.25345 0.14847 0.19418 0.0
N1274 N 0.24583 0.13481 0.11152 0.0
N1275 N 0.24542 0.15225 0.17119 0.0
H1276 H 0.49114 0.12784 0.70794 0.0
H1277 H 0.48964 0.15752 0.57482 0.0
H1278 H 0.48366 0.17701 0.68741 0.0
H1279 H 0.48368 0.10833 0.59535 0.0
H1280 H 0.50755 0.16476 0.61563 0.0
H1281 H 0.50852 0.12063 0.66707 0.0
C1282 C 0.4943 0.13718 0.69496 0.0
C1283 C 0.48516 0.15306 0.70115 0.0
C1284 C 0.50323 0.15235 0.61117 0.0
C1285 C 0.50434 0.14482 0.65409 0.0
C1286 C 0.49324 0.14818 0.58779 0.0
C1287 C 0.48439 0.13229 0.58162 0.0
C1288 C 0.50417 0.14057 0.62861 0.0
C1289 C 0.48978 0.12075 0.59926 0.0
C1290 C 0.50399 0.13303 0.67155 0.0
C1291 C 0.48998 0.16461 0.68348 0.0
N1292 N 0.49851 0.12513 0.62198 0.0
N1293 N 0.49843 0.16024 0.66074 0.0
H1294 H 0.25418 0.65734 0.70782 0.0
H1295 H 0.25488 0.62725 0.57488 0.0
H1296 H 0.26152 0.60811 0.68753 0.0
H1297 H 0.26137 0.67649 0.59519 0.0
H1298 H 0.23698 0.62014 0.61573 0.0
H1299 H 0.23642 0.66442 0.66695 0.0
C1300 C 0.25091 0.64796 0.69489 0.0
C1301 C 0.26014 0.63211 0.70114 0.0
C1302 C 0.24141 0.63253 0.61121 0.0
C1303 C 0.24053 0.6402 0.65409 0.0
C1304 C 0.25141 0.63663 0.58781 0.0
C1305 C 0.26042 0.6525 0.58157 0.0
C1306 C 0.24062 0.64437 0.6286 0.0
C1307 C 0.25517 0.6641 0.59916 0.0
C1308 C 0.241 0.65204 0.67148 0.0
C1309 C 0.25513 0.6205 0.68356 0.0
N1310 N 0.24643 0.65978 0.62189 0.0
N1311 N 0.24649 0.62479 0.66081 0.0
H1312 H 0.28718 0.35251 0.29878 0.0
H1313 H 0.45274 0.43244 0.29919 0.0
H1314 H 0.22095 0.39941 0.30072 0.0
H1315 H 0.519 0.38553 0.29803 0.0
H1316 H 0.36778 0.42055 0.30528 0.0
H1317 H 0.37257 0.36429 0.30406 0.0
C1318 C 0.29045 0.36524 0.30068 0.0
C1319 C 0.24685 0.37498 0.29897 0.0
C1320 C 0.40104 0.41287 0.30396 0.0
C1321 C 0.34445 0.38857 0.30479 0.0
C1322 C 0.44959 0.41968 0.30055 0.0
C1323 C 0.49303 0.40999 0.29776 0.0
C1324 C 0.39591 0.39627 0.30452 0.0
C1325 C 0.48655 0.39349 0.29975 0.0
C1326 C 0.33924 0.37198 0.30361 0.0
C1327 C 0.2535 0.39143 0.3016 0.0
N1328 N 0.43895 0.38717 0.30275 0.0
N1329 N 0.30132 0.3977 0.30411 0.0
H1330 H 0.71911 0.90021 0.30151 0.0
H1331 H 0.02223 0.8855 0.30052 0.0
H1332 H 0.78866 0.8538 0.29852 0.0
H1333 H 0.95272 0.93194 0.29807 0.0
H1334 H 0.93746 0.87384 0.30635 0.0
H1335 H 0.80405 0.9119 0.30682 0.0
C1336 C 0.75221 0.89243 0.30223 0.0
C1337 C 0.7467 0.87597 0.29923 0.0
C1338 C 0.9407 0.88659 0.3048 0.0
C1339 C 0.84447 0.88939 0.3052 0.0
C1340 C 0.98918 0.8933 0.30147 0.0
C1341 C 0.99463 0.90975 0.29847 0.0
C1342 C 0.89703 0.89635 0.30504 0.0
C1343 C 0.95038 0.91921 0.30016 0.0
C1344 C 0.80078 0.89915 0.30526 0.0
C1345 C 0.79103 0.86652 0.30062 0.0
N1346 N 0.90336 0.91235 0.30305 0.0
N1347 N 0.83811 0.87339 0.30323 0.0
H1348 H 0.28911 0.9328 0.9804 0.0
H1349 H 0.45193 0.85242 0.981 0.0
H1350 H 0.22131 0.88608 0.97967 0.0
H1351 H 0.51968 0.89915 0.98057 0.0
H1352 H 0.36729 0.86447 0.97468 0.0
H1353 H 0.3739 0.92073 0.97463 0.0
C1354 C 0.29189 0.92004 0.97866 0.0
C1355 C 0.24807 0.91045 0.98088 0.0
C1356 C 0.40081 0.87207 0.97568 0.0
C1357 C 0.34498 0.89653 0.97451 0.0
C1358 C 0.44918 0.86517 0.97921 0.0
C1359 C 0.49292 0.87478 0.98168 0.0
C1360 C 0.39619 0.88868 0.97468 0.0
C1361 C 0.48697 0.89126 0.97914 0.0
C1362 C 0.34035 0.91314 0.97544 0.0
C1363 C 0.25408 0.89396 0.97841 0.0
N1364 N 0.43954 0.89768 0.97606 0.0
N1365 N 0.30159 0.88753 0.97564 0.0
H1366 H 0.95184 0.35311 0.98017 0.0
H1367 H 0.78819 0.43334 0.9796 0.0
H1368 H 0.01904 0.39991 0.9805 0.0
H1369 H 0.72088 0.38656 0.97892 0.0
H1370 H 0.87312 0.42136 0.97392 0.0
H1371 H 0.86714 0.3651 0.97372 0.0
C1372 C 0.94896 0.36587 0.97852 0.0
C1373 C 0.99255 0.37551 0.98124 0.0
C1374 C 0.83965 0.41373 0.97472 0.0
C1375 C 0.89576 0.38933 0.97408 0.0
C1376 C 0.79111 0.42059 0.97788 0.0
C1377 C 0.74738 0.41095 0.9801 0.0
C1378 C 0.84446 0.39713 0.97383 0.0
C1379 C 0.75357 0.39447 0.97767 0.0
C1380 C 0.90056 0.37273 0.97492 0.0
C1381 C 0.98644 0.39199 0.97888 0.0
N1382 N 0.80116 0.38809 0.97495 0.0
N1383 N 0.93898 0.39837 0.97571 0.0
H1384 H 0.77421 0.63526 0.73024 0.0
H1385 H 0.47119 0.64987 0.72951 0.0
H1386 H 0.70444 0.68165 0.73295 0.0
H1387 H 0.54097 0.60348 0.73229 0.0
H1388 H 0.55596 0.66157 0.72376 0.0
H1389 H 0.68958 0.62357 0.724 0.0
C1390 C 0.74114 0.64304 0.72924 0.0
C1391 C 0.74644 0.65948 0.73248 0.0
C1392 C 0.55278 0.64882 0.72535 0.0
C1393 C 0.64903 0.64606 0.72545 0.0
C1394 C 0.5043 0.64209 0.72862 0.0
C1395 C 0.49894 0.62564 0.73175 0.0
C1396 C 0.5965 0.63908 0.72529 0.0
C1397 C 0.54324 0.6162 0.73012 0.0
C1398 C 0.69274 0.63632 0.72568 0.0
C1399 C 0.70219 0.66893 0.73069 0.0
N1400 N 0.59024 0.62308 0.72731 0.0
N1401 N 0.65525 0.66206 0.72759 0.0
H1402 H 0.97152 0.14999 0.72981 0.0
H1403 H 0.27459 0.1353 0.7309 0.0
H1404 H 0.04104 0.10359 0.73343 0.0
H1405 H 0.20496 0.18173 0.73268 0.0
H1406 H 0.18987 0.12358 0.72511 0.0
H1407 H 0.05641 0.16162 0.72411 0.0
C1408 C 0.00461 0.14219 0.72913 0.0
C1409 C -0.00088 0.12577 0.73245 0.0
C1410 C 0.19307 0.13634 0.7265 0.0
C1411 C 0.09683 0.13913 0.72605 0.0
C1412 C 0.24153 0.14308 0.7298 0.0
C1413 C 0.24692 0.15956 0.73262 0.0
C1414 C 0.14939 0.14609 0.7261 0.0
C1415 C 0.20266 0.16899 0.73074 0.0
C1416 C 0.05315 0.14888 0.72589 0.0
C1417 C 0.0434 0.1163 0.73109 0.0
N1418 N 0.15568 0.1621 0.72788 0.0
N1419 N 0.09048 0.12314 0.72829 0.0
H1420 H 0.54116 0.18361 0.05082 0.0
H1421 H 0.70486 0.10336 0.051 0.0
H1422 H 0.47387 0.13682 0.05151 0.0
H1423 H 0.77218 0.15015 0.05115 0.0
H1424 H 0.62002 0.11537 0.05692 0.0
H1425 H 0.62607 0.17163 0.05668 0.0
C1426 C 0.54408 0.17086 0.05257 0.0
C1427 C 0.50036 0.16122 0.05032 0.0
C1428 C 0.65348 0.12299 0.05593 0.0
C1429 C 0.5974 0.1474 0.0568 0.0
C1430 C 0.70196 0.11612 0.05263 0.0
C1431 C 0.74566 0.12575 0.05023 0.0
C1432 C 0.6487 0.1396 0.05677 0.0
C1433 C 0.73951 0.14224 0.05255 0.0
C1434 C 0.5926 0.164 0.05583 0.0
C1435 C 0.50654 0.14474 0.05279 0.0
N1436 N 0.69198 0.14863 0.05543 0.0
N1437 N 0.55411 0.13836 0.05562 0.0
H1438 H 0.27385 0.65102 0.05082 0.0
H1439 H 0.971 0.63583 0.05355 0.0
H1440 H 0.20489 0.60446 0.05006 0.0
H1441 H 0.03961 0.68232 0.04876 0.0
H1442 H 0.05624 0.62439 0.05891 0.0
H1443 H 0.18903 0.66265 0.05665 0.0
C1444 C 0.24093 0.64319 0.05214 0.0
C1445 C 0.24654 0.6267 0.04961 0.0
C1446 C 0.05272 0.63711 0.05694 0.0
C1447 C 0.14889 0.64007 0.05619 0.0
C1448 C 0.00397 0.64369 0.05389 0.0
C1449 C -0.0019 0.66008 0.05036 0.0
C1450 C 0.09622 0.64694 0.05637 0.0
C1451 C 0.04226 0.66963 0.05128 0.0
C1452 C 0.19241 0.64988 0.05546 0.0
C1453 C 0.20243 0.61722 0.05177 0.0
N1454 N 0.08953 0.6629 0.05392 0.0
N1455 N 0.15539 0.62405 0.05466 0.0
H1456 H 0.45314 0.93319 0.79813 0.0
H1457 H 0.28788 0.85317 0.79872 0.0
H1458 H 0.5196 0.88632 0.80028 0.0
H1459 H 0.22134 0.90005 0.79799 0.0
H1460 H 0.37289 0.86511 0.80453 0.0
H1461 H 0.36777 0.92137 0.80333 0.0
C1462 C 0.44992 0.92046 0.80005 0.0
C1463 C 0.49359 0.91074 0.79844 0.0
C1464 C 0.33956 0.87277 0.80336 0.0
C1465 C 0.39603 0.8971 0.80417 0.0
C1466 C 0.29098 0.86594 0.80012 0.0
C1467 C 0.24743 0.87561 0.79754 0.0
C1468 C 0.34461 0.88937 0.80398 0.0
C1469 C 0.25386 0.89211 0.79956 0.0
C1470 C 0.40115 0.91369 0.80294 0.0
C1471 C 0.48701 0.89429 0.80108 0.0
N1472 N 0.30149 0.89845 0.8024 0.0
N1473 N 0.43922 0.888 0.80356 0.0
H1474 H 0.78897 0.35294 0.79947 0.0
H1475 H 0.95435 0.43289 0.80019 0.0
H1476 H 0.72265 0.39985 0.79986 0.0
H1477 H 0.02071 0.38599 0.80057 0.0
H1478 H 0.86915 0.42104 0.80572 0.0
H1479 H 0.87405 0.36477 0.80555 0.0
C1480 C 0.79213 0.36569 0.8012 0.0
C1481 C 0.74865 0.3754 0.79881 0.0
C1482 C 0.90247 0.41336 0.80487 0.0
C1483 C 0.84588 0.38905 0.80553 0.0
C1484 C 0.95116 0.42014 0.80179 0.0
C1485 C 0.99472 0.41044 0.79958 0.0
C1486 C 0.89734 0.39676 0.80568 0.0
C1487 C 0.98819 0.39396 0.80184 0.0
C1488 C 0.84075 0.37246 0.80458 0.0
C1489 C 0.75514 0.39187 0.80124 0.0
N1490 N 0.94046 0.38765 0.8045 0.0
N1491 N 0.8028 0.39817 0.8042 0.0
H1492 H 0.28976 0.43246 0.48085 0.0
H1493 H 0.45461 0.35245 0.4816 0.0
H1494 H 0.22308 0.3856 0.48184 0.0
H1495 H 0.52119 0.39931 0.47959 0.0
H1496 H 0.36936 0.36426 0.47602 0.0
H1497 H 0.37461 0.42052 0.47471 0.0
C1498 C 0.29279 0.4197 0.47942 0.0
C1499 C 0.24928 0.41003 0.48221 0.0
C1500 C 0.40274 0.37194 0.47652 0.0
C1501 C 0.34627 0.39626 0.47541 0.0
C1502 C 0.45145 0.36518 0.47962 0.0
C1503 C 0.49509 0.3749 0.48141 0.0
C1504 C 0.39767 0.38853 0.47525 0.0
C1505 C 0.4886 0.39134 0.47867 0.0
C1506 C 0.34128 0.41286 0.47599 0.0
C1507 C 0.2556 0.39354 0.48013 0.0
N1508 N 0.44086 0.39763 0.476 0.0
N1509 N 0.30315 0.38718 0.47713 0.0
H1510 H 0.95237 0.85162 0.48068 0.0
H1511 H 0.78949 0.93198 0.4797 0.0
H1512 H 0.02 0.89833 0.47833 0.0
H1513 H 0.72171 0.88527 0.48116 0.0
H1514 H 0.87394 0.91983 0.47329 0.0
H1515 H 0.86741 0.86359 0.47493 0.0
C1516 C 0.94951 0.86434 0.47857 0.0
C1517 C 0.99334 0.87398 0.48035 0.0
C1518 C 0.84045 0.91225 0.47472 0.0
C1519 C 0.89626 0.88779 0.47401 0.0
C1520 C 0.79219 0.91921 0.47831 0.0
C1521 C 0.74851 0.90965 0.48133 0.0
C1522 C 0.84504 0.89563 0.47422 0.0
C1523 C 0.75438 0.89313 0.47929 0.0
C1524 C 0.90096 0.87119 0.47537 0.0
C1525 C 0.98724 0.89042 0.47744 0.0
N1526 N 0.80173 0.88666 0.47614 0.0
N1527 N 0.93965 0.8968 0.47469 0.0
H1528 H 0.47035 0.14968 0.23028 0.0
H1529 H 0.77332 0.13476 0.23125 0.0
H1530 H 0.53943 0.10323 0.23429 0.0
H1531 H 0.704 0.18124 0.23276 0.0
H1532 H 0.68847 0.12307 0.22567 0.0
H1533 H 0.55533 0.16121 0.22448 0.0
C1534 C 0.50336 0.14185 0.22968 0.0
C1535 C 0.49772 0.12544 0.23312 0.0
C1536 C 0.69178 0.13583 0.22695 0.0
C1537 C 0.59555 0.13869 0.22659 0.0
C1538 C 0.7403 0.14256 0.23013 0.0
C1539 C 0.74583 0.15904 0.23282 0.0
C1540 C 0.64816 0.14561 0.22653 0.0
C1541 C 0.70161 0.16849 0.23093 0.0
C1542 C 0.55196 0.14848 0.22637 0.0
C1543 C 0.54192 0.11593 0.23185 0.0
N1544 N 0.65457 0.16163 0.22818 0.0
N1545 N 0.58905 0.12272 0.22897 0.0
H1546 H 0.04113 0.6023 0.23139 0.0
H1547 H 0.2053 0.68244 0.23128 0.0
H1548 H 0.97421 0.64913 0.23161 0.0
H1549 H 0.27226 0.63562 0.23066 0.0
H1550 H 0.12034 0.67051 0.22536 0.0
H1551 H 0.12593 0.61425 0.22509 0.0
C1552 C 0.04409 0.61505 0.22974 0.0
C1553 C 0.00055 0.62471 0.23239 0.0
C1554 C 0.15375 0.66286 0.22623 0.0
C1555 C 0.09747 0.63849 0.22541 0.0
C1556 C 0.2023 0.66969 0.22952 0.0
C1557 C 0.24593 0.66002 0.23183 0.0
C1558 C 0.14882 0.64626 0.22528 0.0
C1559 C 0.23965 0.64355 0.22935 0.0
C1560 C 0.09256 0.62189 0.22622 0.0
C1561 C 0.00677 0.6412 0.23003 0.0
N1562 N 0.19204 0.6372 0.22649 0.0
N1563 N 0.0543 0.64755 0.22695 0.0
H1564 H 0.77488 0.64999 0.55214 0.0
H1565 H 0.47176 0.63512 0.55187 0.0
H1566 H 0.70554 0.60353 0.54945 0.0
H1567 H 0.54107 0.68158 0.54892 0.0
H1568 H 0.55666 0.62351 0.55753 0.0
H1569 H 0.68993 0.66164 0.5575 0.0
C1570 C 0.74182 0.64219 0.55294 0.0
C1571 C 0.7474 0.62573 0.55001 0.0
C1572 C 0.55336 0.63625 0.5559 0.0
C1573 C 0.6496 0.63911 0.55604 0.0
C1574 C 0.5048 0.64293 0.55268 0.0
C1575 C 0.49924 0.65937 0.54958 0.0
C1576 C 0.59699 0.64604 0.55596 0.0
C1577 C 0.54349 0.66886 0.55109 0.0
C1578 C 0.69324 0.64889 0.55599 0.0
C1579 C 0.70312 0.61626 0.55149 0.0
N1580 N 0.59057 0.66203 0.5539 0.0
N1581 N 0.65602 0.62311 0.55413 0.0
H1582 H 0.04089 0.18268 0.55123 0.0
H1583 H 0.20509 0.10254 0.55129 0.0
H1584 H 0.9739 0.13585 0.55136 0.0
H1585 H 0.2721 0.14937 0.55197 0.0
H1586 H 0.12011 0.11447 0.55711 0.0
H1587 H 0.12578 0.17074 0.55726 0.0
C1588 C 0.04387 0.16993 0.55288 0.0
C1589 C 0.00024 0.16026 0.55043 0.0
C1590 C 0.15353 0.12212 0.55627 0.0
C1591 C 0.09727 0.14649 0.55712 0.0
C1592 C 0.20209 0.11529 0.55303 0.0
C1593 C 0.24575 0.12496 0.55078 0.0
C1594 C 0.14862 0.13872 0.55721 0.0
C1595 C 0.23947 0.14143 0.55324 0.0
C1596 C 0.09238 0.16309 0.55625 0.0
C1597 C 0.0065 0.14378 0.55279 0.0
N1598 N 0.19186 0.14778 0.55605 0.0
N1599 N 0.05406 0.13743 0.55573 0.0
loop_
_geom_bond_atom_site_label_1
_geom_bond_atom_site_label_2
_geom_bond_distance
_geom_bond_site_symmetry_2
_ccdc_geom_bond_type
O0 Cd1 2.223 . S
O0 C8 1.315 . S
Cd1 O0 2.223 . S
Cd1 O4 2.297 . S
Cd1 O5 2.439 . S
Cd1 O11 2.240 . S
Cd2 O3 2.240 . S
Cd2 O10 2.223 . S
Cd2 O12 2.297 . S
Cd2 O13 2.439 . S
O3 Cd2 2.240 . S
O3 C8 1.279 . S
O4 Cd1 2.297 . S
O4 C6 1.247 . S
O5 Cd1 2.439 . S
O5 C6 1.208 . S
C6 O4 1.247 . S
C6 O5 1.208 . S
C7 O12 1.247 . S
C7 O13 1.208 . S
C8 O0 1.315 . S
C8 O3 1.279 . S
C9 O10 1.315 . S
C9 O11 1.279 . S
O10 Cd2 2.223 . S
O10 C9 1.315 . S
O11 Cd1 2.240 . S
O11 C9 1.279 . S
O12 Cd2 2.297 . S
O12 C7 1.247 . S
O13 Cd2 2.439 . S
O13 C7 1.208 . S
O14 Cd15 2.223 . S
O14 C22 1.315 . S
Cd15 O14 2.223 . S
Cd15 O18 2.297 . S
Cd15 O19 2.439 . S
Cd15 O25 2.240 . S
Cd16 O17 2.240 . S
Cd16 O24 2.223 . S
Cd16 O26 2.297 . S
Cd16 O27 2.439 . S
O17 Cd16 2.240 . S
O17 C22 1.279 . S
O18 Cd15 2.297 . S
O18 C20 1.247 . S
O19 Cd15 2.439 . S
O19 C20 1.208 . S
C20 O18 1.247 . S
C20 O19 1.208 . S
C21 O26 1.247 . S
C21 O27 1.208 . S
C22 O14 1.315 . S
C22 O17 1.279 . S
C23 O24 1.315 . S
C23 O25 1.279 . S
O24 Cd16 2.223 . S
O24 C23 1.315 . S
O25 Cd15 2.240 . S
O25 C23 1.279 . S
O26 Cd16 2.297 . S
O26 C21 1.247 . S
O27 Cd16 2.439 . S
O27 C21 1.208 . S
O28 Cd29 2.223 . S
O28 C36 1.315 . S
Cd29 O28 2.223 . S
Cd29 O32 2.297 . S
Cd29 O33 2.439 1_554 S
Cd29 O39 2.240 1_554 S
Cd30 O31 2.240 1_556 S
Cd30 O38 2.223 1_556 S
Cd30 O40 2.297 . S
Cd30 O41 2.439 . S
O31 Cd30 2.240 1_554 S
O31 C36 1.279 . S
O32 Cd29 2.297 . S
O32 C34 1.247 . S
O33 Cd29 2.439 1_556 S
O33 C34 1.208 1_556 S
C34 O32 1.247 . S
C34 O33 1.208 1_554 S
C35 O40 1.247 . S
C35 O41 1.208 . S
C36 O28 1.315 . S
C36 O31 1.279 . S
C37 O38 1.315 . S
C37 O39 1.279 1_554 S
O38 Cd30 2.223 1_554 S
O38 C37 1.315 . S
O39 Cd29 2.240 1_556 S
O39 C37 1.279 1_556 S
O40 Cd30 2.297 . S
O40 C35 1.247 . S
O41 Cd30 2.439 . S
O41 C35 1.208 . S
O42 Cd43 2.223 . S
O42 C50 1.315 . S
Cd43 O42 2.223 . S
Cd43 O46 2.297 . S
Cd43 O47 2.439 1_554 S
Cd43 O53 2.240 1_554 S
Cd44 O45 2.240 1_556 S
Cd44 O52 2.223 1_556 S
Cd44 O54 2.297 . S
Cd44 O55 2.439 . S
O45 Cd44 2.240 1_554 S
O45 C50 1.279 . S
O46 Cd43 2.297 . S
O46 C48 1.247 . S
O47 Cd43 2.439 1_556 S
O47 C48 1.208 1_556 S
C48 O46 1.247 . S
C48 O47 1.208 1_554 S
C49 O54 1.247 . S
C49 O55 1.208 . S
C50 O42 1.315 . S
C50 O45 1.279 . S
C51 O52 1.315 . S
C51 O53 1.279 1_554 S
O52 Cd44 2.223 1_554 S
O52 C51 1.315 . S
O53 Cd43 2.240 1_556 S
O53 C51 1.279 1_556 S
O54 Cd44 2.297 . S
O54 C49 1.247 . S
O55 Cd44 2.439 . S
O55 C49 1.208 . S
O56 Cd57 2.223 . S
O56 C64 1.315 . S
Cd57 O56 2.223 . S
Cd57 O60 2.297 . S
Cd57 O61 2.439 . S
Cd57 O67 2.240 . S
Cd58 O59 2.240 . S
Cd58 O66 2.223 . S
Cd58 O68 2.297 . S
Cd58 O69 2.439 . S
O59 Cd58 2.240 . S
O59 C64 1.279 . S
O60 Cd57 2.297 . S
O60 C62 1.247 . S
O61 Cd57 2.439 . S
O61 C62 1.208 . S
C62 O60 1.247 . S
C62 O61 1.208 . S
C63 O68 1.247 . S
C63 O69 1.208 . S
C64 O56 1.315 . S
C64 O59 1.279 . S
C65 O66 1.315 . S
C65 O67 1.279 . S
O66 Cd58 2.223 . S
O66 C65 1.315 . S
O67 Cd57 2.240 . S
O67 C65 1.279 . S
O68 Cd58 2.297 . S
O68 C63 1.247 . S
O69 Cd58 2.439 . S
O69 C63 1.208 . S
O70 Cd71 2.223 . S
O70 C78 1.315 . S
Cd71 O70 2.223 . S
Cd71 O74 2.297 . S
Cd71 O75 2.439 . S
Cd71 O81 2.240 . S
Cd72 O73 2.240 . S
Cd72 O80 2.223 . S
Cd72 O82 2.297 . S
Cd72 O83 2.439 . S
O73 Cd72 2.240 . S
O73 C78 1.279 . S
O74 Cd71 2.297 . S
O74 C76 1.247 . S
O75 Cd71 2.439 . S
O75 C76 1.208 . S
C76 O74 1.247 . S
C76 O75 1.208 . S
C77 O82 1.247 . S
C77 O83 1.208 . S
C78 O70 1.315 . S
C78 O73 1.279 . S
C79 O80 1.315 . S
C79 O81 1.279 . S
O80 Cd72 2.223 . S
O80 C79 1.315 . S
O81 Cd71 2.240 . S
O81 C79 1.279 . S
O82 Cd72 2.297 . S
O82 C77 1.247 . S
O83 Cd72 2.439 . S
O83 C77 1.208 . S
O84 Cd85 2.223 . S
O84 C92 1.315 . S
Cd85 O84 2.223 . S
Cd85 O88 2.297 . S
Cd85 O89 2.439 1_556 S
Cd85 O95 2.240 1_556 S
Cd86 O87 2.240 1_554 S
Cd86 O94 2.223 1_554 S
Cd86 O96 2.297 . S
Cd86 O97 2.439 . S
O87 Cd86 2.240 1_556 S
O87 C92 1.279 . S
O88 Cd85 2.297 . S
O88 C90 1.247 . S
O89 Cd85 2.439 1_554 S
O89 C90 1.208 1_554 S
C90 O88 1.247 . S
C90 O89 1.208 1_556 S
C91 O96 1.247 . S
C91 O97 1.208 . S
C92 O84 1.315 . S
C92 O87 1.279 . S
C93 O94 1.315 . S
C93 O95 1.279 1_556 S
O94 Cd86 2.223 1_556 S
O94 C93 1.315 . S
O95 Cd85 2.240 1_554 S
O95 C93 1.279 1_554 S
O96 Cd86 2.297 . S
O96 C91 1.247 . S
O97 Cd86 2.439 . S
O97 C91 1.208 . S
O98 Cd99 2.223 . S
O98 C106 1.315 . S
Cd99 O98 2.223 . S
Cd99 O102 2.297 . S
Cd99 O103 2.439 1_556 S
Cd99 O109 2.240 1_556 S
Cd100 O101 2.240 1_554 S
Cd100 O108 2.223 1_554 S
Cd100 O110 2.297 . S
Cd100 O111 2.439 . S
O101 Cd100 2.240 1_556 S
O101 C106 1.279 . S
O102 Cd99 2.297 . S
O102 C104 1.247 . S
O103 Cd99 2.439 1_554 S
O103 C104 1.208 1_554 S
C104 O102 1.247 . S
C104 O103 1.208 1_556 S
C105 O110 1.247 . S
C105 O111 1.208 . S
C106 O98 1.315 . S
C106 O101 1.279 . S
C107 O108 1.315 . S
C107 O109 1.279 1_556 S
O108 Cd100 2.223 1_556 S
O108 C107 1.315 . S
O109 Cd99 2.240 1_554 S
O109 C107 1.279 1_554 S
O110 Cd100 2.297 . S
O110 C105 1.247 . S
O111 Cd100 2.439 . S
O111 C105 1.208 . S
O112 Cd113 2.223 . S
O112 C120 1.315 . S
Cd113 O112 2.223 . S
Cd113 O116 2.297 . S
Cd113 O117 2.439 . S
Cd113 O123 2.240 . S
Cd114 O115 2.240 . S
Cd114 O122 2.223 . S
Cd114 O124 2.297 . S
Cd114 O125 2.439 . S
O115 Cd114 2.240 . S
O115 C120 1.279 . S
O116 Cd113 2.297 . S
O116 C118 1.247 . S
O117 Cd113 2.439 . S
O117 C118 1.208 . S
C118 O116 1.247 . S
C118 O117 1.208 . S
C119 O124 1.247 . S
C119 O125 1.208 . S
C120 O112 1.315 . S
C120 O115 1.279 . S
C121 O122 1.315 . S
C121 O123 1.279 . S
O122 Cd114 2.223 . S
O122 C121 1.315 . S
O123 Cd113 2.240 . S
O123 C121 1.279 . S
O124 Cd114 2.297 . S
O124 C119 1.247 . S
O125 Cd114 2.439 . S
O125 C119 1.208 . S
O126 Cd127 2.223 . S
O126 C134 1.315 . S
Cd127 O126 2.223 . S
Cd127 O130 2.297 . S
Cd127 O131 2.439 . S
Cd127 O137 2.240 . S
Cd128 O129 2.240 . S
Cd128 O136 2.223 . S
Cd128 O138 2.297 . S
Cd128 O139 2.439 . S
O129 Cd128 2.240 . S
O129 C134 1.279 . S
O130 Cd127 2.297 . S
O130 C132 1.247 . S
O131 Cd127 2.439 . S
O131 C132 1.208 . S
C132 O130 1.247 . S
C132 O131 1.208 . S
C133 O138 1.247 . S
C133 O139 1.208 . S
C134 O126 1.315 . S
C134 O129 1.279 . S
C135 O136 1.315 . S
C135 O137 1.279 . S
O136 Cd128 2.223 . S
O136 C135 1.315 . S
O137 Cd127 2.240 . S
O137 C135 1.279 . S
O138 Cd128 2.297 . S
O138 C133 1.247 . S
O139 Cd128 2.439 . S
O139 C133 1.208 . S
O140 Cd141 2.223 . S
O140 C148 1.315 . S
Cd141 O140 2.223 . S
Cd141 O144 2.297 . S
Cd141 O145 2.439 . S
Cd141 O151 2.240 . S
Cd142 O143 2.240 . S
Cd142 O150 2.223 . S
Cd142 O152 2.297 . S
Cd142 O153 2.439 . S
O143 Cd142 2.240 . S
O143 C148 1.279 . S
O144 Cd141 2.297 . S
O144 C146 1.247 . S
O145 Cd141 2.439 . S
O145 C146 1.208 . S
C146 O144 1.247 . S
C146 O145 1.208 . S
C147 O152 1.247 . S
C147 O153 1.208 . S
C148 O140 1.315 . S
C148 O143 1.279 . S
C149 O150 1.315 . S
C149 O151 1.279 . S
O150 Cd142 2.223 . S
O150 C149 1.315 . S
O151 Cd141 2.240 . S
O151 C149 1.279 . S
O152 Cd142 2.297 . S
O152 C147 1.247 . S
O153 Cd142 2.439 . S
O153 C147 1.208 . S
O154 Cd155 2.223 . S
O154 C162 1.315 . S
Cd155 O154 2.223 . S
Cd155 O158 2.297 . S
Cd155 O159 2.439 . S
Cd155 O165 2.240 . S
Cd156 O157 2.240 . S
Cd156 O164 2.223 . S
Cd156 O166 2.297 . S
Cd156 O167 2.439 . S
O157 Cd156 2.240 . S
O157 C162 1.279 . S
O158 Cd155 2.297 . S
O158 C160 1.247 . S
O159 Cd155 2.439 . S
O159 C160 1.208 . S
C160 O158 1.247 . S
C160 O159 1.208 . S
C161 O166 1.247 . S
C161 O167 1.208 . S
C162 O154 1.315 . S
C162 O157 1.279 . S
C163 O164 1.315 . S
C163 O165 1.279 . S
O164 Cd156 2.223 . S
O164 C163 1.315 . S
O165 Cd155 2.240 . S
O165 C163 1.279 . S
O166 Cd156 2.297 . S
O166 C161 1.247 . S
O167 Cd156 2.439 . S
O167 C161 1.208 . S
O168 Cd169 2.223 . S
O168 C176 1.315 . S
Cd169 O168 2.223 . S
Cd169 O172 2.297 . S
Cd169 O173 2.439 . S
Cd169 O179 2.240 . S
Cd170 O171 2.240 . S
Cd170 O178 2.223 . S
Cd170 O180 2.297 . S
Cd170 O181 2.439 . S
O171 Cd170 2.240 . S
O171 C176 1.279 . S
O172 Cd169 2.297 . S
O172 C174 1.247 . S
O173 Cd169 2.439 . S
O173 C174 1.208 . S
C174 O172 1.247 . S
C174 O173 1.208 . S
C175 O180 1.247 . S
C175 O181 1.208 . S
C176 O168 1.315 . S
C176 O171 1.279 . S
C177 O178 1.315 . S
C177 O179 1.279 . S
O178 Cd170 2.223 . S
O178 C177 1.315 . S
O179 Cd169 2.240 . S
O179 C177 1.279 . S
O180 Cd170 2.297 . S
O180 C175 1.247 . S
O181 Cd170 2.439 . S
O181 C175 1.208 . S
O182 Cd183 2.223 . S
O182 C190 1.315 . S
Cd183 O182 2.223 . S
Cd183 O186 2.297 . S
Cd183 O187 2.439 . S
Cd183 O193 2.240 . S
Cd184 O185 2.240 . S
Cd184 O192 2.223 . S
Cd184 O194 2.297 . S
Cd184 O195 2.439 . S
O185 Cd184 2.240 . S
O185 C190 1.279 . S
O186 Cd183 2.297 . S
O186 C188 1.247 . S
O187 Cd183 2.439 . S
O187 C188 1.208 . S
C188 O186 1.247 . S
C188 O187 1.208 . S
C189 O194 1.247 . S
C189 O195 1.208 . S
C190 O182 1.315 . S
C190 O185 1.279 . S
C191 O192 1.315 . S
C191 O193 1.279 . S
O192 Cd184 2.223 . S
O192 C191 1.315 . S
O193 Cd183 2.240 . S
O193 C191 1.279 . S
O194 Cd184 2.297 . S
O194 C189 1.247 . S
O195 Cd184 2.439 . S
O195 C189 1.208 . S
O196 Cd197 2.223 . S
O196 C204 1.315 . S
Cd197 O196 2.223 . S
Cd197 O200 2.297 . S
Cd197 O201 2.439 . S
Cd197 O207 2.240 . S
Cd198 O199 2.240 . S
Cd198 O206 2.223 . S
Cd198 O208 2.297 . S
Cd198 O209 2.439 . S
O199 Cd198 2.240 . S
O199 C204 1.279 . S
O200 Cd197 2.297 . S
O200 C202 1.247 . S
O201 Cd197 2.439 . S
O201 C202 1.208 . S
C202 O200 1.247 . S
C202 O201 1.208 . S
C203 O208 1.247 . S
C203 O209 1.208 . S
C204 O196 1.315 . S
C204 O199 1.279 . S
C205 O206 1.315 . S
C205 O207 1.279 . S
O206 Cd198 2.223 . S
O206 C205 1.315 . S
O207 Cd197 2.240 . S
O207 C205 1.279 . S
O208 Cd198 2.297 . S
O208 C203 1.247 . S
O209 Cd198 2.439 . S
O209 C203 1.208 . S
O210 Cd211 2.223 . S
O210 C218 1.315 . S
Cd211 O210 2.223 . S
Cd211 O214 2.297 . S
Cd211 O215 2.439 . S
Cd211 O221 2.240 . S
Cd212 O213 2.240 . S
Cd212 O220 2.223 . S
Cd212 O222 2.297 . S
Cd212 O223 2.439 . S
O213 Cd212 2.240 . S
O213 C218 1.279 . S
O214 Cd211 2.297 . S
O214 C216 1.247 . S
O215 Cd211 2.439 . S
O215 C216 1.208 . S
C216 O214 1.247 . S
C216 O215 1.208 . S
C217 O222 1.247 . S
C217 O223 1.208 . S
C218 O210 1.315 . S
C218 O213 1.279 . S
C219 O220 1.315 . S
C219 O221 1.279 . S
O220 Cd212 2.223 . S
O220 C219 1.315 . S
O221 Cd211 2.240 . S
O221 C219 1.279 . S
O222 Cd212 2.297 . S
O222 C217 1.247 . S
O223 Cd212 2.439 . S
O223 C217 1.208 . S
O224 Cd225 2.223 . S
O224 C232 1.315 . S
Cd225 O224 2.223 . S
Cd225 O228 2.297 . S
Cd225 O229 2.439 . S
Cd225 O235 2.240 . S
Cd226 O227 2.240 . S
Cd226 O234 2.223 . S
Cd226 O236 2.297 . S
Cd226 O237 2.439 . S
O227 Cd226 2.240 . S
O227 C232 1.279 . S
O228 Cd225 2.297 . S
O228 C230 1.247 . S
O229 Cd225 2.439 . S
O229 C230 1.208 . S
C230 O228 1.247 . S
C230 O229 1.208 . S
C231 O236 1.247 . S
C231 O237 1.208 . S
C232 O224 1.315 . S
C232 O227 1.279 . S
C233 O234 1.315 . S
C233 O235 1.279 . S
O234 Cd226 2.223 . S
O234 C233 1.315 . S
O235 Cd225 2.240 . S
O235 C233 1.279 . S
O236 Cd226 2.297 . S
O236 C231 1.247 . S
O237 Cd226 2.439 . S
O237 C231 1.208 . S
O238 Cd239 2.223 . S
O238 C246 1.315 . S
Cd239 O238 2.223 . S
Cd239 O242 2.297 . S
Cd239 O243 2.439 . S
Cd239 O249 2.240 . S
Cd240 O241 2.240 . S
Cd240 O248 2.223 . S
Cd240 O250 2.297 . S
Cd240 O251 2.439 . S
O241 Cd240 2.240 . S
O241 C246 1.279 . S
O242 Cd239 2.297 . S
O242 C244 1.247 . S
O243 Cd239 2.439 . S
O243 C244 1.208 . S
C244 O242 1.247 . S
C244 O243 1.208 . S
C245 O250 1.247 . S
C245 O251 1.208 . S
C246 O238 1.315 . S
C246 O241 1.279 . S
C247 O248 1.315 . S
C247 O249 1.279 . S
O248 Cd240 2.223 . S
O248 C247 1.315 . S
O249 Cd239 2.240 . S
O249 C247 1.279 . S
O250 Cd240 2.297 . S
O250 C245 1.247 . S
O251 Cd240 2.439 . S
O251 C245 1.208 . S
O252 Cd253 2.223 . S
O252 C260 1.315 . S
Cd253 O252 2.223 . S
Cd253 O256 2.297 . S
Cd253 O257 2.439 . S
Cd253 O263 2.240 . S
Cd254 O255 2.240 . S
Cd254 O262 2.223 . S
Cd254 O264 2.297 . S
Cd254 O265 2.439 . S
O255 Cd254 2.240 . S
O255 C260 1.279 . S
O256 Cd253 2.297 . S
O256 C258 1.247 . S
O257 Cd253 2.439 . S
O257 C258 1.208 . S
C258 O256 1.247 . S
C258 O257 1.208 . S
C259 O264 1.247 . S
C259 O265 1.208 . S
C260 O252 1.315 . S
C260 O255 1.279 . S
C261 O262 1.315 . S
C261 O263 1.279 . S
O262 Cd254 2.223 . S
O262 C261 1.315 . S
O263 Cd253 2.240 . S
O263 C261 1.279 . S
O264 Cd254 2.297 . S
O264 C259 1.247 . S
O265 Cd254 2.439 . S
O265 C259 1.208 . S
O266 Cd267 2.223 . S
O266 C274 1.315 . S
Cd267 O266 2.223 . S
Cd267 O270 2.297 . S
Cd267 O271 2.439 . S
Cd267 O277 2.240 . S
Cd268 O269 2.240 . S
Cd268 O276 2.223 . S
Cd268 O278 2.297 . S
Cd268 O279 2.439 . S
O269 Cd268 2.240 . S
O269 C274 1.279 . S
O270 Cd267 2.297 . S
O270 C272 1.247 . S
O271 Cd267 2.439 . S
O271 C272 1.208 . S
C272 O270 1.247 . S
C272 O271 1.208 . S
C273 O278 1.247 . S
C273 O279 1.208 . S
C274 O266 1.315 . S
C274 O269 1.279 . S
C275 O276 1.315 . S
C275 O277 1.279 . S
O276 Cd268 2.223 . S
O276 C275 1.315 . S
O277 Cd267 2.240 . S
O277 C275 1.279 . S
O278 Cd268 2.297 . S
O278 C273 1.247 . S
O279 Cd268 2.439 . S
O279 C273 1.208 . S
O280 Cd281 2.223 . S
O280 C288 1.315 . S
Cd281 O280 2.223 . S
Cd281 O284 2.297 . S
Cd281 O285 2.439 . S
Cd281 O291 2.240 . S
Cd282 O283 2.240 . S
Cd282 O290 2.223 . S
Cd282 O292 2.297 . S
Cd282 O293 2.439 . S
O283 Cd282 2.240 . S
O283 C288 1.279 . S
O284 Cd281 2.297 . S
O284 C286 1.247 . S
O285 Cd281 2.439 . S
O285 C286 1.208 . S
C286 O284 1.247 . S
C286 O285 1.208 . S
C287 O292 1.247 . S
C287 O293 1.208 . S
C288 O280 1.315 . S
C288 O283 1.279 . S
C289 O290 1.315 . S
C289 O291 1.279 . S
O290 Cd282 2.223 . S
O290 C289 1.315 . S
O291 Cd281 2.240 . S
O291 C289 1.279 . S
O292 Cd282 2.297 . S
O292 C287 1.247 . S
O293 Cd282 2.439 . S
O293 C287 1.208 . S
O294 Cd295 2.223 . S
O294 C302 1.315 . S
Cd295 O294 2.223 . S
Cd295 O298 2.297 . S
Cd295 O299 2.439 . S
Cd295 O305 2.240 . S
Cd296 O297 2.240 . S
Cd296 O304 2.223 . S
Cd296 O306 2.297 . S
Cd296 O307 2.439 . S
O297 Cd296 2.240 . S
O297 C302 1.279 . S
O298 Cd295 2.297 . S
O298 C300 1.247 . S
O299 Cd295 2.439 . S
O299 C300 1.208 . S
C300 O298 1.247 . S
C300 O299 1.208 . S
C301 O306 1.247 . S
C301 O307 1.208 . S
C302 O294 1.315 . S
C302 O297 1.279 . S
C303 O304 1.315 . S
C303 O305 1.279 . S
O304 Cd296 2.223 . S
O304 C303 1.315 . S
O305 Cd295 2.240 . S
O305 C303 1.279 . S
O306 Cd296 2.297 . S
O306 C301 1.247 . S
O307 Cd296 2.439 . S
O307 C301 1.208 . S
O308 Cd309 2.223 . S
O308 C316 1.315 . S
Cd309 O308 2.223 . S
Cd309 O312 2.297 . S
Cd309 O313 2.439 . S
Cd309 O319 2.240 . S
Cd310 O311 2.240 . S
Cd310 O318 2.223 . S
Cd310 O320 2.297 . S
Cd310 O321 2.439 . S
O311 Cd310 2.240 . S
O311 C316 1.279 . S
O312 Cd309 2.297 . S
O312 C314 1.247 . S
O313 Cd309 2.439 . S
O313 C314 1.208 . S
C314 O312 1.247 . S
C314 O313 1.208 . S
C315 O320 1.247 . S
C315 O321 1.208 . S
C316 O308 1.315 . S
C316 O311 1.279 . S
C317 O318 1.315 . S
C317 O319 1.279 . S
O318 Cd310 2.223 . S
O318 C317 1.315 . S
O319 Cd309 2.240 . S
O319 C317 1.279 . S
O320 Cd310 2.297 . S
O320 C315 1.247 . S
O321 Cd310 2.439 . S
O321 C315 1.208 . S
O322 Cd323 2.223 . S
O322 C330 1.315 . S
Cd323 O322 2.223 . S
Cd323 O326 2.297 . S
Cd323 O327 2.439 . S
Cd323 O333 2.240 . S
Cd324 O325 2.240 . S
Cd324 O332 2.223 . S
Cd324 O334 2.297 . S
Cd324 O335 2.439 . S
O325 Cd324 2.240 . S
O325 C330 1.279 . S
O326 Cd323 2.297 . S
O326 C328 1.247 . S
O327 Cd323 2.439 . S
O327 C328 1.208 . S
C328 O326 1.247 . S
C328 O327 1.208 . S
C329 O334 1.247 . S
C329 O335 1.208 . S
C330 O322 1.315 . S
C330 O325 1.279 . S
C331 O332 1.315 . S
C331 O333 1.279 . S
O332 Cd324 2.223 . S
O332 C331 1.315 . S
O333 Cd323 2.240 . S
O333 C331 1.279 . S
O334 Cd324 2.297 . S
O334 C329 1.247 . S
O335 Cd324 2.439 . S
O335 C329 1.208 . S
O336 Cd337 2.223 . S
O336 C344 1.315 . S
Cd337 O336 2.223 . S
Cd337 O340 2.297 . S
Cd337 O341 2.439 . S
Cd337 O347 2.240 . S
Cd338 O339 2.240 . S
Cd338 O346 2.223 . S
Cd338 O348 2.297 . S
Cd338 O349 2.439 . S
O339 Cd338 2.240 . S
O339 C344 1.279 . S
O340 Cd337 2.297 . S
O340 C342 1.247 . S
O341 Cd337 2.439 . S
O341 C342 1.208 . S
C342 O340 1.247 . S
C342 O341 1.208 . S
C343 O348 1.247 . S
C343 O349 1.208 . S
C344 O336 1.315 . S
C344 O339 1.279 . S
C345 O346 1.315 . S
C345 O347 1.279 . S
O346 Cd338 2.223 . S
O346 C345 1.315 . S
O347 Cd337 2.240 . S
O347 C345 1.279 . S
O348 Cd338 2.297 . S
O348 C343 1.247 . S
O349 Cd338 2.439 . S
O349 C343 1.208 . S
O350 Cd351 2.223 . S
O350 C358 1.315 . S
Cd351 O350 2.223 . S
Cd351 O354 2.297 . S
Cd351 O355 2.439 . S
Cd351 O361 2.240 . S
Cd352 O353 2.240 . S
Cd352 O360 2.223 . S
Cd352 O362 2.297 . S
Cd352 O363 2.439 . S
O353 Cd352 2.240 . S
O353 C358 1.279 . S
O354 Cd351 2.297 . S
O354 C356 1.247 . S
O355 Cd351 2.439 . S
O355 C356 1.208 . S
C356 O354 1.247 . S
C356 O355 1.208 . S
C357 O362 1.247 . S
C357 O363 1.208 . S
C358 O350 1.315 . S
C358 O353 1.279 . S
C359 O360 1.315 . S
C359 O361 1.279 . S
O360 Cd352 2.223 . S
O360 C359 1.315 . S
O361 Cd351 2.240 . S
O361 C359 1.279 . S
O362 Cd352 2.297 . S
O362 C357 1.247 . S
O363 Cd352 2.439 . S
O363 C357 1.208 . S
O364 Cd365 2.223 . S
O364 C372 1.315 . S
Cd365 O364 2.223 . S
Cd365 O368 2.297 . S
Cd365 O369 2.439 1_554 S
Cd365 O375 2.240 1_554 S
Cd366 O367 2.240 1_556 S
Cd366 O374 2.223 1_556 S
Cd366 O376 2.297 . S
Cd366 O377 2.439 . S
O367 Cd366 2.240 1_554 S
O367 C372 1.279 . S
O368 Cd365 2.297 . S
O368 C370 1.247 . S
O369 Cd365 2.439 1_556 S
O369 C370 1.208 1_556 S
C370 O368 1.247 . S
C370 O369 1.208 1_554 S
C371 O376 1.247 . S
C371 O377 1.208 . S
C372 O364 1.315 . S
C372 O367 1.279 . S
C373 O374 1.315 . S
C373 O375 1.279 1_554 S
O374 Cd366 2.223 1_554 S
O374 C373 1.315 . S
O375 Cd365 2.240 1_556 S
O375 C373 1.279 1_556 S
O376 Cd366 2.297 . S
O376 C371 1.247 . S
O377 Cd366 2.439 . S
O377 C371 1.208 . S
O378 Cd379 2.223 . S
O378 C386 1.315 . S
Cd379 O378 2.223 . S
Cd379 O382 2.297 . S
Cd379 O383 2.439 1_554 S
Cd379 O389 2.240 1_554 S
Cd380 O381 2.240 1_556 S
Cd380 O388 2.223 1_556 S
Cd380 O390 2.297 . S
Cd380 O391 2.439 . S
O381 Cd380 2.240 1_554 S
O381 C386 1.279 . S
O382 Cd379 2.297 . S
O382 C384 1.247 . S
O383 Cd379 2.439 1_556 S
O383 C384 1.208 1_556 S
C384 O382 1.247 . S
C384 O383 1.208 1_554 S
C385 O390 1.247 . S
C385 O391 1.208 . S
C386 O378 1.315 . S
C386 O381 1.279 . S
C387 O388 1.315 . S
C387 O389 1.279 1_554 S
O388 Cd380 2.223 1_554 S
O388 C387 1.315 . S
O389 Cd379 2.240 1_556 S
O389 C387 1.279 1_556 S
O390 Cd380 2.297 . S
O390 C385 1.247 . S
O391 Cd380 2.439 . S
O391 C385 1.208 . S
O392 Cd393 2.223 . S
O392 C400 1.315 . S
Cd393 O392 2.223 . S
Cd393 O396 2.297 . S
Cd393 O397 2.439 . S
Cd393 O403 2.240 . S
Cd394 O395 2.240 . S
Cd394 O402 2.223 . S
Cd394 O404 2.297 . S
Cd394 O405 2.439 . S
O395 Cd394 2.240 . S
O395 C400 1.279 . S
O396 Cd393 2.297 . S
O396 C398 1.247 . S
O397 Cd393 2.439 . S
O397 C398 1.208 . S
C398 O396 1.247 . S
C398 O397 1.208 . S
C399 O404 1.247 . S
C399 O405 1.208 . S
C400 O392 1.315 . S
C400 O395 1.279 . S
C401 O402 1.315 . S
C401 O403 1.279 . S
O402 Cd394 2.223 . S
O402 C401 1.315 . S
O403 Cd393 2.240 . S
O403 C401 1.279 . S
O404 Cd394 2.297 . S
O404 C399 1.247 . S
O405 Cd394 2.439 . S
O405 C399 1.208 . S
O406 Cd407 2.223 . S
O406 C414 1.315 . S
Cd407 O406 2.223 . S
Cd407 O410 2.297 . S
Cd407 O411 2.439 . S
Cd407 O417 2.240 . S
Cd408 O409 2.240 . S
Cd408 O416 2.223 . S
Cd408 O418 2.297 . S
Cd408 O419 2.439 . S
O409 Cd408 2.240 . S
O409 C414 1.279 . S
O410 Cd407 2.297 . S
O410 C412 1.247 . S
O411 Cd407 2.439 . S
O411 C412 1.208 . S
C412 O410 1.247 . S
C412 O411 1.208 . S
C413 O418 1.247 . S
C413 O419 1.208 . S
C414 O406 1.315 . S
C414 O409 1.279 . S
C415 O416 1.315 . S
C415 O417 1.279 . S
O416 Cd408 2.223 . S
O416 C415 1.315 . S
O417 Cd407 2.240 . S
O417 C415 1.279 . S
O418 Cd408 2.297 . S
O418 C413 1.247 . S
O419 Cd408 2.439 . S
O419 C413 1.208 . S
O420 Cd421 2.223 . S
O420 C428 1.315 . S
Cd421 O420 2.223 . S
Cd421 O424 2.297 . S
Cd421 O425 2.439 1_556 S
Cd421 O431 2.240 1_556 S
Cd422 O423 2.240 1_554 S
Cd422 O430 2.223 1_554 S
Cd422 O432 2.297 . S
Cd422 O433 2.439 . S
O423 Cd422 2.240 1_556 S
O423 C428 1.279 . S
O424 Cd421 2.297 . S
O424 C426 1.247 . S
O425 Cd421 2.439 1_554 S
O425 C426 1.208 1_554 S
C426 O424 1.247 . S
C426 O425 1.208 1_556 S
C427 O432 1.247 . S
C427 O433 1.208 . S
C428 O420 1.315 . S
C428 O423 1.279 . S
C429 O430 1.315 . S
C429 O431 1.279 1_556 S
O430 Cd422 2.223 1_556 S
O430 C429 1.315 . S
O431 Cd421 2.240 1_554 S
O431 C429 1.279 1_554 S
O432 Cd422 2.297 . S
O432 C427 1.247 . S
O433 Cd422 2.439 . S
O433 C427 1.208 . S
O434 Cd435 2.223 . S
O434 C442 1.315 . S
Cd435 O434 2.223 . S
Cd435 O438 2.297 . S
Cd435 O439 2.439 1_556 S
Cd435 O445 2.240 1_556 S
Cd436 O437 2.240 1_554 S
Cd436 O444 2.223 1_554 S
Cd436 O446 2.297 . S
Cd436 O447 2.439 . S
O437 Cd436 2.240 1_556 S
O437 C442 1.279 . S
O438 Cd435 2.297 . S
O438 C440 1.247 . S
O439 Cd435 2.439 1_554 S
O439 C440 1.208 1_554 S
C440 O438 1.247 . S
C440 O439 1.208 1_556 S
C441 O446 1.247 . S
C441 O447 1.208 . S
C442 O434 1.315 . S
C442 O437 1.279 . S
C443 O444 1.315 . S
C443 O445 1.279 1_556 S
O444 Cd436 2.223 1_556 S
O444 C443 1.315 . S
O445 Cd435 2.240 1_554 S
O445 C443 1.279 1_554 S
O446 Cd436 2.297 . S
O446 C441 1.247 . S
O447 Cd436 2.439 . S
O447 C441 1.208 . S
H448 C454 0.930 . S
H449 C458 0.930 . S
H450 C463 0.929 . S
H451 C461 0.929 . S
H452 C456 0.929 . S
H453 C462 0.929 . S
C454 H448 0.930 . S
C454 C455 1.367 . S
C454 C462 1.378 . S
C455 C454 1.367 . S
C455 C463 1.433 . S
C456 H452 0.929 . S
C456 C458 1.378 . S
C456 C460 1.350 . S
C457 C460 1.463 . S
C457 C462 1.350 . S
C457 N465 1.427 . S
C458 H449 0.930 . S
C458 C456 1.378 . S
C458 C459 1.367 . S
C459 C458 1.367 . S
C459 C461 1.433 . S
C460 C456 1.350 . S
C460 C457 1.463 . S
C460 N464 1.427 . S
C461 H451 0.929 . S
C461 C459 1.433 . S
C461 N464 1.384 . S
C462 H453 0.929 . S
C462 C454 1.378 . S
C462 C457 1.350 . S
C463 H450 0.929 . S
C463 C455 1.433 . S
C463 N465 1.384 . S
N464 C460 1.427 . S
N464 C461 1.384 . S
N465 C457 1.427 . S
N465 C463 1.384 . S
H466 C472 0.930 . S
H467 C476 0.930 . S
H468 C481 0.929 . S
H469 C479 0.929 . S
H470 C474 0.929 . S
H471 C480 0.929 . S
C472 H466 0.930 . S
C472 C473 1.367 . S
C472 C480 1.378 . S
C473 C472 1.367 . S
C473 C481 1.433 . S
C474 H470 0.929 . S
C474 C476 1.378 . S
C474 C478 1.350 . S
C475 C478 1.463 . S
C475 C480 1.350 . S
C475 N483 1.427 . S
C476 H467 0.930 . S
C476 C474 1.378 . S
C476 C477 1.367 . S
C477 C476 1.367 . S
C477 C479 1.433 . S
C478 C474 1.350 . S
C478 C475 1.463 . S
C478 N482 1.427 . S
C479 H469 0.929 . S
C479 C477 1.433 . S
C479 N482 1.384 . S
C480 H471 0.929 . S
C480 C472 1.378 . S
C480 C475 1.350 . S
C481 H468 0.929 . S
C481 C473 1.433 . S
C481 N483 1.384 . S
N482 C478 1.427 . S
N482 C479 1.384 . S
N483 C475 1.427 . S
N483 C481 1.384 . S
H484 C490 0.930 . S
H485 C494 0.930 . S
H486 C499 0.929 . S
H487 C497 0.929 . S
H488 C492 0.929 . S
H489 C498 0.929 . S
C490 H484 0.930 . S
C490 C491 1.367 . S
C490 C498 1.378 . S
C491 C490 1.367 . S
C491 C499 1.433 . S
C492 H488 0.929 . S
C492 C494 1.378 . S
C492 C496 1.350 . S
C493 C496 1.463 . S
C493 C498 1.350 . S
C493 N501 1.427 . S
C494 H485 0.930 . S
C494 C492 1.378 . S
C494 C495 1.367 . S
C495 C494 1.367 . S
C495 C497 1.433 . S
C496 C492 1.350 . S
C496 C493 1.463 . S
C496 N500 1.427 . S
C497 H487 0.929 . S
C497 C495 1.433 . S
C497 N500 1.384 . S
C498 H489 0.929 . S
C498 C490 1.378 . S
C498 C493 1.350 . S
C499 H486 0.929 . S
C499 C491 1.433 . S
C499 N501 1.384 . S
N500 C496 1.427 . S
N500 C497 1.384 . S
N501 C493 1.427 . S
N501 C499 1.384 . S
H502 C508 0.930 . S
H503 C512 0.930 . S
H504 C517 0.929 . S
H505 C515 0.929 . S
H506 C510 0.929 . S
H507 C516 0.929 . S
C508 H502 0.930 . S
C508 C509 1.367 . S
C508 C516 1.378 . S
C509 C508 1.367 . S
C509 C517 1.433 . S
C510 H506 0.929 . S
C510 C512 1.378 . S
C510 C514 1.350 . S
C511 C514 1.463 . S
C511 C516 1.350 . S
C511 N519 1.427 . S
C512 H503 0.930 . S
C512 C510 1.378 . S
C512 C513 1.367 . S
C513 C512 1.367 . S
C513 C515 1.433 . S
C514 C510 1.350 . S
C514 C511 1.463 . S
C514 N518 1.427 . S
C515 H505 0.929 . S
C515 C513 1.433 . S
C515 N518 1.384 . S
C516 H507 0.929 . S
C516 C508 1.378 . S
C516 C511 1.350 . S
C517 H504 0.929 . S
C517 C509 1.433 . S
C517 N519 1.384 . S
N518 C514 1.427 . S
N518 C515 1.384 . S
N519 C511 1.427 . S
N519 C517 1.384 . S
H520 C526 0.930 . S
H521 C530 0.930 . S
H522 C535 0.929 . S
H523 C533 0.929 . S
H524 C528 0.929 . S
H525 C534 0.929 . S
C526 H520 0.930 . S
C526 C527 1.367 . S
C526 C534 1.378 . S
C527 C526 1.367 . S
C527 C535 1.433 . S
C528 H524 0.929 . S
C528 C530 1.378 . S
C528 C532 1.350 . S
C529 C532 1.463 . S
C529 C534 1.350 . S
C529 N537 1.427 . S
C530 H521 0.930 . S
C530 C528 1.378 . S
C530 C531 1.367 . S
C531 C530 1.367 . S
C531 C533 1.433 . S
C532 C528 1.350 . S
C532 C529 1.463 . S
C532 N536 1.427 . S
C533 H523 0.929 . S
C533 C531 1.433 . S
C533 N536 1.384 . S
C534 H525 0.929 . S
C534 C526 1.378 . S
C534 C529 1.350 . S
C535 H522 0.929 . S
C535 C527 1.433 . S
C535 N537 1.384 . S
N536 C532 1.427 . S
N536 C533 1.384 . S
N537 C529 1.427 . S
N537 C535 1.384 . S
H538 C544 0.930 . S
H539 C548 0.930 . S
H540 C553 0.929 . S
H541 C551 0.929 . S
H542 C546 0.929 . S
H543 C552 0.929 . S
C544 H538 0.930 . S
C544 C545 1.367 . S
C544 C552 1.378 . S
C545 C544 1.367 . S
C545 C553 1.433 . S
C546 H542 0.929 . S
C546 C548 1.378 . S
C546 C550 1.350 . S
C547 C550 1.463 . S
C547 C552 1.350 . S
C547 N555 1.427 . S
C548 H539 0.930 . S
C548 C546 1.378 . S
C548 C549 1.367 . S
C549 C548 1.367 . S
C549 C551 1.433 . S
C550 C546 1.350 . S
C550 C547 1.463 . S
C550 N554 1.427 . S
C551 H541 0.929 . S
C551 C549 1.433 . S
C551 N554 1.384 . S
C552 H543 0.929 . S
C552 C544 1.378 . S
C552 C547 1.350 . S
C553 H540 0.929 . S
C553 C545 1.433 . S
C553 N555 1.384 . S
N554 C550 1.427 . S
N554 C551 1.384 . S
N555 C547 1.427 . S
N555 C553 1.384 . S
H556 C562 0.930 . S
H557 C566 0.930 . S
H558 C571 0.929 . S
H559 C569 0.929 . S
H560 C564 0.929 . S
H561 C570 0.929 . S
C562 H556 0.930 . S
C562 C563 1.367 . S
C562 C570 1.378 . S
C563 C562 1.367 . S
C563 C571 1.433 . S
C564 H560 0.929 . S
C564 C566 1.378 . S
C564 C568 1.350 . S
C565 C568 1.463 . S
C565 C570 1.350 . S
C565 N573 1.427 . S
C566 H557 0.930 . S
C566 C564 1.378 . S
C566 C567 1.367 . S
C567 C566 1.367 . S
C567 C569 1.433 . S
C568 C564 1.350 . S
C568 C565 1.463 . S
C568 N572 1.427 . S
C569 H559 0.929 . S
C569 C567 1.433 . S
C569 N572 1.384 . S
C570 H561 0.929 . S
C570 C562 1.378 . S
C570 C565 1.350 . S
C571 H558 0.929 . S
C571 C563 1.433 . S
C571 N573 1.384 . S
N572 C568 1.427 . S
N572 C569 1.384 . S
N573 C565 1.427 . S
N573 C571 1.384 . S
H574 C580 0.930 . S
H575 C584 0.930 . S
H576 C589 0.929 . S
H577 C587 0.929 . S
H578 C582 0.929 . S
H579 C588 0.929 . S
C580 H574 0.930 . S
C580 C581 1.367 . S
C580 C588 1.378 . S
C581 C580 1.367 . S
C581 C589 1.433 . S
C582 H578 0.929 . S
C582 C584 1.378 . S
C582 C586 1.350 . S
C583 C586 1.463 . S
C583 C588 1.350 . S
C583 N591 1.427 . S
C584 H575 0.930 . S
C584 C582 1.378 . S
C584 C585 1.367 . S
C585 C584 1.367 . S
C585 C587 1.433 . S
C586 C582 1.350 . S
C586 C583 1.463 . S
C586 N590 1.427 . S
C587 H577 0.929 . S
C587 C585 1.433 . S
C587 N590 1.384 . S
C588 H579 0.929 . S
C588 C580 1.378 . S
C588 C583 1.350 . S
C589 H576 0.929 . S
C589 C581 1.433 . S
C589 N591 1.384 . S
N590 C586 1.427 . S
N590 C587 1.384 . S
N591 C583 1.427 . S
N591 C589 1.384 . S
H592 C598 0.930 . S
H593 C602 0.930 . S
H594 C607 0.929 . S
H595 C605 0.929 . S
H596 C600 0.929 . S
H597 C606 0.929 . S
C598 H592 0.930 . S
C598 C599 1.367 . S
C598 C606 1.378 . S
C599 C598 1.367 . S
C599 C607 1.433 . S
C600 H596 0.929 . S
C600 C602 1.378 . S
C600 C604 1.350 . S
C601 C604 1.463 . S
C601 C606 1.350 . S
C601 N609 1.427 . S
C602 H593 0.930 . S
C602 C600 1.378 . S
C602 C603 1.367 . S
C603 C602 1.367 . S
C603 C605 1.433 . S
C604 C600 1.350 . S
C604 C601 1.463 . S
C604 N608 1.427 . S
C605 H595 0.929 . S
C605 C603 1.433 . S
C605 N608 1.384 . S
C606 H597 0.929 . S
C606 C598 1.378 . S
C606 C601 1.350 . S
C607 H594 0.929 . S
C607 C599 1.433 . S
C607 N609 1.384 . S
N608 C604 1.427 . S
N608 C605 1.384 . S
N609 C601 1.427 . S
N609 C607 1.384 . S
H610 C616 0.930 . S
H611 C620 0.930 . S
H612 C625 0.929 . S
H613 C623 0.929 . S
H614 C618 0.929 . S
H615 C624 0.929 . S
C616 H610 0.930 . S
C616 C617 1.367 . S
C616 C624 1.378 . S
C617 C616 1.367 . S
C617 C625 1.433 . S
C618 H614 0.929 . S
C618 C620 1.378 . S
C618 C622 1.350 . S
C619 C622 1.463 . S
C619 C624 1.350 . S
C619 N627 1.427 . S
C620 H611 0.930 . S
C620 C618 1.378 . S
C620 C621 1.367 . S
C621 C620 1.367 . S
C621 C623 1.433 . S
C622 C618 1.350 . S
C622 C619 1.463 . S
C622 N626 1.427 . S
C623 H613 0.929 . S
C623 C621 1.433 . S
C623 N626 1.384 . S
C624 H615 0.929 . S
C624 C616 1.378 . S
C624 C619 1.350 . S
C625 H612 0.929 . S
C625 C617 1.433 . S
C625 N627 1.384 . S
N626 C622 1.427 . S
N626 C623 1.384 . S
N627 C619 1.427 . S
N627 C625 1.384 . S
H628 C634 0.930 . S
H629 C638 0.930 . S
H630 C643 0.929 . S
H631 C641 0.929 . S
H632 C636 0.929 . S
H633 C642 0.929 . S
C634 H628 0.930 . S
C634 C635 1.367 . S
C634 C642 1.378 . S
C635 C634 1.367 . S
C635 C643 1.433 . S
C636 H632 0.929 . S
C636 C638 1.378 . S
C636 C640 1.350 . S
C637 C640 1.463 . S
C637 C642 1.350 . S
C637 N645 1.427 . S
C638 H629 0.930 . S
C638 C636 1.378 . S
C638 C639 1.367 . S
C639 C638 1.367 . S
C639 C641 1.433 . S
C640 C636 1.350 . S
C640 C637 1.463 . S
C640 N644 1.427 . S
C641 H631 0.929 . S
C641 C639 1.433 . S
C641 N644 1.384 . S
C642 H633 0.929 . S
C642 C634 1.378 . S
C642 C637 1.350 . S
C643 H630 0.929 . S
C643 C635 1.433 . S
C643 N645 1.384 . S
N644 C640 1.427 . S
N644 C641 1.384 . S
N645 C637 1.427 . S
N645 C643 1.384 . S
H646 C652 0.930 . S
H647 C656 0.930 . S
H648 C661 0.929 . S
H649 C659 0.929 . S
H650 C654 0.929 . S
H651 C660 0.929 . S
C652 H646 0.930 . S
C652 C653 1.367 . S
C652 C660 1.378 . S
C653 C652 1.367 . S
C653 C661 1.433 . S
C654 H650 0.929 . S
C654 C656 1.378 . S
C654 C658 1.350 . S
C655 C658 1.463 . S
C655 C660 1.350 . S
C655 N663 1.427 . S
C656 H647 0.930 . S
C656 C654 1.378 . S
C656 C657 1.367 . S
C657 C656 1.367 . S
C657 C659 1.433 . S
C658 C654 1.350 . S
C658 C655 1.463 . S
C658 N662 1.427 . S
C659 H649 0.929 . S
C659 C657 1.433 . S
C659 N662 1.384 . S
C660 H651 0.929 . S
C660 C652 1.378 . S
C660 C655 1.350 . S
C661 H648 0.929 . S
C661 C653 1.433 . S
C661 N663 1.384 . S
N662 C658 1.427 . S
N662 C659 1.384 . S
N663 C655 1.427 . S
N663 C661 1.384 . S
H664 C670 0.930 . S
H665 C674 0.930 . S
H666 C679 0.929 . S
H667 C677 0.929 . S
H668 C672 0.929 . S
H669 C678 0.929 . S
C670 H664 0.930 . S
C670 C671 1.367 . S
C670 C678 1.378 . S
C671 C670 1.367 . S
C671 C679 1.433 . S
C672 H668 0.929 . S
C672 C674 1.378 . S
C672 C676 1.350 . S
C673 C676 1.463 . S
C673 C678 1.350 . S
C673 N681 1.427 . S
C674 H665 0.930 . S
C674 C672 1.378 . S
C674 C675 1.367 . S
C675 C674 1.367 . S
C675 C677 1.433 . S
C676 C672 1.350 . S
C676 C673 1.463 . S
C676 N680 1.427 . S
C677 H667 0.929 . S
C677 C675 1.433 . S
C677 N680 1.384 . S
C678 H669 0.929 . S
C678 C670 1.378 . S
C678 C673 1.350 . S
C679 H666 0.929 . S
C679 C671 1.433 . S
C679 N681 1.384 . S
N680 C676 1.427 . S
N680 C677 1.384 . S
N681 C673 1.427 . S
N681 C679 1.384 . S
H682 C688 0.930 . S
H683 C692 0.930 . S
H684 C697 0.929 . S
H685 C695 0.929 . S
H686 C690 0.929 . S
H687 C696 0.929 . S
C688 H682 0.930 . S
C688 C689 1.367 . S
C688 C696 1.378 . S
C689 C688 1.367 . S
C689 C697 1.433 . S
C690 H686 0.929 . S
C690 C692 1.378 . S
C690 C694 1.350 . S
C691 C694 1.463 . S
C691 C696 1.350 . S
C691 N699 1.427 . S
C692 H683 0.930 . S
C692 C690 1.378 . S
C692 C693 1.367 . S
C693 C692 1.367 . S
C693 C695 1.433 . S
C694 C690 1.350 . S
C694 C691 1.463 . S
C694 N698 1.427 . S
C695 H685 0.929 . S
C695 C693 1.433 . S
C695 N698 1.384 . S
C696 H687 0.929 . S
C696 C688 1.378 . S
C696 C691 1.350 . S
C697 H684 0.929 . S
C697 C689 1.433 . S
C697 N699 1.384 . S
N698 C694 1.427 . S
N698 C695 1.384 . S
N699 C691 1.427 . S
N699 C697 1.384 . S
H700 C706 0.930 . S
H701 C710 0.930 . S
H702 C715 0.929 . S
H703 C713 0.929 . S
H704 C708 0.929 . S
H705 C714 0.929 . S
C706 H700 0.930 . S
C706 C707 1.367 . S
C706 C714 1.378 . S
C707 C706 1.367 . S
C707 C715 1.433 . S
C708 H704 0.929 . S
C708 C710 1.378 . S
C708 C712 1.350 . S
C709 C712 1.463 . S
C709 C714 1.350 . S
C709 N717 1.427 . S
C710 H701 0.930 . S
C710 C708 1.378 . S
C710 C711 1.367 . S
C711 C710 1.367 . S
C711 C713 1.433 . S
C712 C708 1.350 . S
C712 C709 1.463 . S
C712 N716 1.427 . S
C713 H703 0.929 . S
C713 C711 1.433 . S
C713 N716 1.384 . S
C714 H705 0.929 . S
C714 C706 1.378 . S
C714 C709 1.350 . S
C715 H702 0.929 . S
C715 C707 1.433 . S
C715 N717 1.384 . S
N716 C712 1.427 . S
N716 C713 1.384 . S
N717 C709 1.427 . S
N717 C715 1.384 . S
H718 C724 0.930 . S
H719 C728 0.930 . S
H720 C733 0.929 . S
H721 C731 0.929 . S
H722 C726 0.929 . S
H723 C732 0.929 . S
C724 H718 0.930 . S
C724 C725 1.367 . S
C724 C732 1.378 . S
C725 C724 1.367 . S
C725 C733 1.433 . S
C726 H722 0.929 . S
C726 C728 1.378 . S
C726 C730 1.350 . S
C727 C730 1.463 . S
C727 C732 1.350 . S
C727 N735 1.427 . S
C728 H719 0.930 . S
C728 C726 1.378 . S
C728 C729 1.367 . S
C729 C728 1.367 . S
C729 C731 1.433 . S
C730 C726 1.350 . S
C730 C727 1.463 . S
C730 N734 1.427 . S
C731 H721 0.929 . S
C731 C729 1.433 . S
C731 N734 1.384 . S
C732 H723 0.929 . S
C732 C724 1.378 . S
C732 C727 1.350 . S
C733 H720 0.929 . S
C733 C725 1.433 . S
C733 N735 1.384 . S
N734 C730 1.427 . S
N734 C731 1.384 . S
N735 C727 1.427 . S
N735 C733 1.384 . S
H736 C742 0.930 . S
H737 C746 0.930 . S
H738 C751 0.929 1_455 S
H739 C749 0.929 1_655 S
H740 C744 0.929 . S
H741 C750 0.929 . S
C742 H736 0.930 . S
C742 C743 1.367 . S
C742 C750 1.378 . S
C743 C742 1.367 . S
C743 C751 1.433 . S
C744 H740 0.929 . S
C744 C746 1.378 . S
C744 C748 1.350 . S
C745 C748 1.463 1_655 S
C745 C750 1.350 . S
C745 N753 1.427 1_655 S
C746 H737 0.930 . S
C746 C744 1.378 . S
C746 C747 1.367 . S
C747 C746 1.367 . S
C747 C749 1.433 . S
C748 C744 1.350 . S
C748 C745 1.463 1_455 S
C748 N752 1.427 1_455 S
C749 H739 0.929 1_455 S
C749 C747 1.433 . S
C749 N752 1.384 1_455 S
C750 H741 0.929 . S
C750 C742 1.378 . S
C750 C745 1.350 . S
C751 H738 0.929 1_655 S
C751 C743 1.433 . S
C751 N753 1.384 1_655 S
N752 C748 1.427 1_655 S
N752 C749 1.384 1_655 S
N753 C745 1.427 1_455 S
N753 C751 1.384 1_455 S
H754 C760 0.930 . S
H755 C764 0.930 . S
H756 C769 0.929 . S
H757 C767 0.929 . S
H758 C762 0.929 . S
H759 C768 0.929 . S
C760 H754 0.930 . S
C760 C761 1.367 . S
C760 C768 1.378 . S
C761 C760 1.367 . S
C761 C769 1.433 . S
C762 H758 0.929 . S
C762 C764 1.378 . S
C762 C766 1.350 . S
C763 C766 1.463 1_565 S
C763 C768 1.350 . S
C763 N771 1.427 . S
C764 H755 0.930 . S
C764 C762 1.378 . S
C764 C765 1.367 . S
C765 C764 1.367 . S
C765 C767 1.433 . S
C766 C762 1.350 . S
C766 C763 1.463 1_545 S
C766 N770 1.427 . S
C767 H757 0.929 . S
C767 C765 1.433 . S
C767 N770 1.384 . S
C768 H759 0.929 . S
C768 C760 1.378 . S
C768 C763 1.350 . S
C769 H756 0.929 . S
C769 C761 1.433 . S
C769 N771 1.384 . S
N770 C766 1.427 . S
N770 C767 1.384 . S
N771 C763 1.427 . S
N771 C769 1.384 . S
H772 C778 0.930 . S
H773 C782 0.930 . S
H774 C787 0.929 . S
H775 C785 0.929 . S
H776 C780 0.929 . S
H777 C786 0.929 . S
C778 H772 0.930 . S
C778 C779 1.367 1_656 S
C778 C786 1.378 . S
C779 C778 1.367 1_454 S
C779 C787 1.433 . S
C780 H776 0.929 . S
C780 C782 1.378 . S
C780 C784 1.348 1_454 S
C781 C784 1.462 1_465 S
C781 C786 1.348 1_455 S
C781 N789 1.429 1_556 S
C782 H773 0.930 . S
C782 C780 1.378 . S
C782 C783 1.367 1_454 S
C783 C782 1.367 1_656 S
C783 C785 1.433 . S
C784 C780 1.348 1_656 S
C784 C781 1.462 1_645 S
C784 N788 1.429 . S
C785 H775 0.929 . S
C785 C783 1.433 . S
C785 N788 1.384 . S
C786 H777 0.929 . S
C786 C778 1.378 . S
C786 C781 1.348 1_655 S
C787 H774 0.929 . S
C787 C779 1.433 . S
C787 N789 1.384 . S
N788 C784 1.429 . S
N788 C785 1.384 . S
N789 C781 1.429 1_554 S
N789 C787 1.384 . S
H790 C796 0.930 . S
H791 C800 0.930 . S
H792 C805 0.929 . S
H793 C803 0.929 . S
H794 C798 0.929 . S
H795 C804 0.929 . S
C796 H790 0.930 . S
C796 C797 1.367 1_554 S
C796 C804 1.378 . S
C797 C796 1.367 1_556 S
C797 C805 1.433 . S
C798 H794 0.929 . S
C798 C800 1.378 . S
C798 C802 1.349 . S
C799 C802 1.462 1_554 S
C799 C804 1.357 . S
C799 N807 1.420 1_554 S
C800 H791 0.930 . S
C800 C798 1.378 . S
C800 C801 1.367 1_556 S
C801 C800 1.367 1_554 S
C801 C803 1.433 . S
C802 C798 1.349 . S
C802 C799 1.462 1_556 S
C802 N806 1.429 1_556 S
C803 H793 0.929 . S
C803 C801 1.433 . S
C803 N806 1.384 . S
C804 H795 0.929 . S
C804 C796 1.378 . S
C804 C799 1.357 . S
C805 H792 0.929 . S
C805 C797 1.433 . S
C805 N807 1.384 . S
N806 C802 1.429 1_554 S
N806 C803 1.384 . S
N807 C799 1.420 1_556 S
N807 C805 1.384 . S
H808 C814 0.930 . S
H809 C818 0.930 . S
H810 C823 0.929 . S
H811 C821 0.929 . S
H812 C816 0.929 . S
H813 C822 0.929 . S
C814 H808 0.930 . S
C814 C815 1.367 1_455 S
C814 C822 1.378 . S
C815 C814 1.367 1_655 S
C815 C823 1.433 . S
C816 H812 0.929 . S
C816 C818 1.378 . S
C816 C820 1.350 1_655 S
C817 C820 1.463 1_655 S
C817 C822 1.350 1_655 S
C817 N825 1.427 . S
C818 H809 0.930 . S
C818 C816 1.378 . S
C818 C819 1.367 1_655 S
C819 C818 1.367 1_455 S
C819 C821 1.433 . S
C820 C816 1.350 1_455 S
C820 C817 1.463 1_455 S
C820 N824 1.427 . S
C821 H811 0.929 . S
C821 C819 1.433 . S
C821 N824 1.384 . S
C822 H813 0.929 . S
C822 C814 1.378 . S
C822 C817 1.350 1_455 S
C823 H810 0.929 . S
C823 C815 1.433 . S
C823 N825 1.384 . S
N824 C820 1.427 . S
N824 C821 1.384 . S
N825 C817 1.427 . S
N825 C823 1.384 . S
H826 C832 0.930 . S
H827 C836 0.930 . S
H828 C841 0.929 . S
H829 C839 0.929 . S
H830 C834 0.929 . S
H831 C840 0.929 . S
C832 H826 0.930 . S
C832 C833 1.367 . S
C832 C840 1.378 . S
C833 C832 1.367 . S
C833 C841 1.433 . S
C834 H830 0.929 . S
C834 C836 1.378 . S
C834 C838 1.350 . S
C835 C838 1.463 1_565 S
C835 C840 1.350 . S
C835 N843 1.427 . S
C836 H827 0.930 . S
C836 C834 1.378 . S
C836 C837 1.367 . S
C837 C836 1.367 . S
C837 C839 1.433 . S
C838 C834 1.350 . S
C838 C835 1.463 1_545 S
C838 N842 1.427 . S
C839 H829 0.929 . S
C839 C837 1.433 . S
C839 N842 1.384 . S
C840 H831 0.929 . S
C840 C832 1.378 . S
C840 C835 1.350 . S
C841 H828 0.929 . S
C841 C833 1.433 . S
C841 N843 1.384 . S
N842 C838 1.427 . S
N842 C839 1.384 . S
N843 C835 1.427 . S
N843 C841 1.384 . S
H844 C850 0.930 . S
H845 C854 0.930 . S
H846 C859 0.929 . S
H847 C857 0.929 . S
H848 C852 0.929 . S
H849 C858 0.929 . S
C850 H844 0.930 . S
C850 C851 1.367 1_556 S
C850 C858 1.378 . S
C851 C850 1.367 1_554 S
C851 C859 1.433 . S
C852 H848 0.929 . S
C852 C854 1.378 . S
C852 C856 1.348 1_554 S
C853 C856 1.462 1_554 S
C853 C858 1.349 1_554 S
C853 N861 1.428 . S
C854 H845 0.930 . S
C854 C852 1.378 . S
C854 C855 1.367 1_554 S
C855 C854 1.367 1_556 S
C855 C857 1.433 . S
C856 C852 1.348 1_556 S
C856 C853 1.462 1_556 S
C856 N860 1.430 . S
C857 H847 0.929 . S
C857 C855 1.433 . S
C857 N860 1.384 . S
C858 H849 0.929 . S
C858 C850 1.378 . S
C858 C853 1.349 1_556 S
C859 H846 0.929 . S
C859 C851 1.433 . S
C859 N861 1.384 . S
N860 C856 1.430 . S
N860 C857 1.384 . S
N861 C853 1.428 . S
N861 C859 1.384 . S
H862 C868 0.930 . S
H863 C872 0.930 . S
H864 C877 0.929 . S
H865 C875 0.929 . S
H866 C870 0.929 . S
H867 C876 0.929 . S
C868 H862 0.930 . S
C868 C869 1.367 . S
C868 C876 1.378 . S
C869 C868 1.367 . S
C869 C877 1.433 . S
C870 H866 0.929 . S
C870 C872 1.378 . S
C870 C874 1.350 . S
C871 C874 1.463 . S
C871 C876 1.350 . S
C871 N879 1.427 . S
C872 H863 0.930 . S
C872 C870 1.378 . S
C872 C873 1.367 . S
C873 C872 1.367 . S
C873 C875 1.433 . S
C874 C870 1.350 . S
C874 C871 1.463 . S
C874 N878 1.427 . S
C875 H865 0.929 . S
C875 C873 1.433 . S
C875 N878 1.384 . S
C876 H867 0.929 . S
C876 C868 1.378 . S
C876 C871 1.350 . S
C877 H864 0.929 . S
C877 C869 1.433 . S
C877 N879 1.384 . S
N878 C874 1.427 . S
N878 C875 1.384 . S
N879 C871 1.427 . S
N879 C877 1.384 . S
H880 C886 0.930 1_455 S
H881 C890 0.930 1_655 S
H882 C895 0.929 . S
H883 C893 0.929 . S
H884 C888 0.929 . S
H885 C894 0.929 . S
C886 H880 0.930 1_655 S
C886 C887 1.367 . S
C886 C894 1.378 1_655 S
C887 C886 1.367 . S
C887 C895 1.433 . S
C888 H884 0.929 . S
C888 C890 1.378 1_655 S
C888 C892 1.350 1_655 S
C889 C892 1.463 1_655 S
C889 C894 1.350 1_655 S
C889 N897 1.427 . S
C890 H881 0.930 1_455 S
C890 C888 1.378 1_455 S
C890 C891 1.367 . S
C891 C890 1.367 . S
C891 C893 1.433 . S
C892 C888 1.350 1_455 S
C892 C889 1.463 1_455 S
C892 N896 1.427 . S
C893 H883 0.929 . S
C893 C891 1.433 . S
C893 N896 1.384 . S
C894 H885 0.929 . S
C894 C886 1.378 1_455 S
C894 C889 1.350 1_455 S
C895 H882 0.929 . S
C895 C887 1.433 . S
C895 N897 1.384 . S
N896 C892 1.427 . S
N896 C893 1.384 . S
N897 C889 1.427 . S
N897 C895 1.384 . S
H898 C904 0.930 . S
H899 C908 0.930 . S
H900 C913 0.929 . S
H901 C911 0.929 . S
H902 C906 0.929 . S
H903 C912 0.929 . S
C904 H898 0.930 . S
C904 C905 1.367 . S
C904 C912 1.378 . S
C905 C904 1.367 . S
C905 C913 1.433 . S
C906 H902 0.929 . S
C906 C908 1.378 . S
C906 C910 1.350 . S
C907 C910 1.463 . S
C907 C912 1.350 . S
C907 N915 1.427 . S
C908 H899 0.930 . S
C908 C906 1.378 . S
C908 C909 1.367 . S
C909 C908 1.367 . S
C909 C911 1.433 . S
C910 C906 1.350 . S
C910 C907 1.463 . S
C910 N914 1.427 . S
C911 H901 0.929 . S
C911 C909 1.433 . S
C911 N914 1.384 . S
C912 H903 0.929 . S
C912 C904 1.378 . S
C912 C907 1.350 . S
C913 H900 0.929 . S
C913 C905 1.433 . S
C913 N915 1.384 . S
N914 C910 1.427 . S
N914 C911 1.384 . S
N915 C907 1.427 . S
N915 C913 1.384 . S
H916 C922 0.930 . S
H917 C926 0.930 . S
H918 C931 0.929 . S
H919 C929 0.929 . S
H920 C924 0.929 . S
H921 C930 0.929 . S
C922 H916 0.930 . S
C922 C923 1.367 . S
C922 C930 1.378 . S
C923 C922 1.367 . S
C923 C931 1.433 . S
C924 H920 0.929 . S
C924 C926 1.378 . S
C924 C928 1.350 . S
C925 C928 1.463 . S
C925 C930 1.350 . S
C925 N933 1.427 . S
C926 H917 0.930 . S
C926 C924 1.378 . S
C926 C927 1.367 . S
C927 C926 1.367 . S
C927 C929 1.433 . S
C928 C924 1.350 . S
C928 C925 1.463 . S
C928 N932 1.427 . S
C929 H919 0.929 . S
C929 C927 1.433 . S
C929 N932 1.384 . S
C930 H921 0.929 . S
C930 C922 1.378 . S
C930 C925 1.350 . S
C931 H918 0.929 . S
C931 C923 1.433 . S
C931 N933 1.384 . S
N932 C928 1.427 . S
N932 C929 1.384 . S
N933 C925 1.427 . S
N933 C931 1.384 . S
H934 C940 0.930 . S
H935 C944 0.930 . S
H936 C949 0.929 . S
H937 C947 0.929 . S
H938 C942 0.929 . S
H939 C948 0.929 . S
C940 H934 0.930 . S
C940 C941 1.367 . S
C940 C948 1.378 . S
C941 C940 1.367 . S
C941 C949 1.433 . S
C942 H938 0.929 . S
C942 C944 1.378 . S
C942 C946 1.350 . S
C943 C946 1.463 . S
C943 C948 1.350 . S
C943 N951 1.427 . S
C944 H935 0.930 . S
C944 C942 1.378 . S
C944 C945 1.367 . S
C945 C944 1.367 . S
C945 C947 1.433 . S
C946 C942 1.350 . S
C946 C943 1.463 . S
C946 N950 1.427 . S
C947 H937 0.929 . S
C947 C945 1.433 . S
C947 N950 1.384 . S
C948 H939 0.929 . S
C948 C940 1.378 . S
C948 C943 1.350 . S
C949 H936 0.929 . S
C949 C941 1.433 . S
C949 N951 1.384 . S
N950 C946 1.427 . S
N950 C947 1.384 . S
N951 C943 1.427 . S
N951 C949 1.384 . S
H952 C958 0.930 . S
H953 C962 0.930 . S
H954 C967 0.929 . S
H955 C965 0.929 . S
H956 C960 0.929 . S
H957 C966 0.929 . S
C958 H952 0.930 . S
C958 C959 1.367 . S
C958 C966 1.378 . S
C959 C958 1.367 . S
C959 C967 1.433 . S
C960 H956 0.929 . S
C960 C962 1.378 . S
C960 C964 1.350 . S
C961 C964 1.463 . S
C961 C966 1.350 . S
C961 N969 1.427 . S
C962 H953 0.930 . S
C962 C960 1.378 . S
C962 C963 1.367 . S
C963 C962 1.367 . S
C963 C965 1.433 . S
C964 C960 1.350 . S
C964 C961 1.463 . S
C964 N968 1.427 . S
C965 H955 0.929 . S
C965 C963 1.433 . S
C965 N968 1.384 . S
C966 H957 0.929 . S
C966 C958 1.378 . S
C966 C961 1.350 . S
C967 H954 0.929 . S
C967 C959 1.433 . S
C967 N969 1.384 . S
N968 C964 1.427 . S
N968 C965 1.384 . S
N969 C961 1.427 . S
N969 C967 1.384 . S
H970 C976 0.930 . S
H971 C980 0.930 . S
H972 C985 0.929 . S
H973 C983 0.929 . S
H974 C978 0.929 . S
H975 C984 0.929 . S
C976 H970 0.930 . S
C976 C977 1.367 . S
C976 C984 1.378 . S
C977 C976 1.367 . S
C977 C985 1.433 . S
C978 H974 0.929 . S
C978 C980 1.378 . S
C978 C982 1.350 . S
C979 C982 1.463 1_545 S
C979 C984 1.350 . S
C979 N987 1.427 . S
C980 H971 0.930 . S
C980 C978 1.378 . S
C980 C981 1.367 . S
C981 C980 1.367 . S
C981 C983 1.433 . S
C982 C978 1.350 . S
C982 C979 1.463 1_565 S
C982 N986 1.427 . S
C983 H973 0.929 . S
C983 C981 1.433 . S
C983 N986 1.384 . S
C984 H975 0.929 . S
C984 C976 1.378 . S
C984 C979 1.350 . S
C985 H972 0.929 . S
C985 C977 1.433 . S
C985 N987 1.384 . S
N986 C982 1.427 . S
N986 C983 1.384 . S
N987 C979 1.427 . S
N987 C985 1.384 . S
H988 C994 0.930 . S
H989 C998 0.930 . S
H990 C1003 0.929 . S
H991 C1001 0.929 . S
H992 C996 0.929 . S
H993 C1002 0.929 . S
C994 H988 0.930 . S
C994 C995 1.367 . S
C994 C1002 1.378 . S
C995 C994 1.367 . S
C995 C1003 1.433 . S
C996 H992 0.929 . S
C996 C998 1.378 . S
C996 C1000 1.350 . S
C997 C1000 1.463 . S
C997 C1002 1.350 . S
C997 N1005 1.427 . S
C998 H989 0.930 . S
C998 C996 1.378 . S
C998 C999 1.367 . S
C999 C998 1.367 . S
C999 C1001 1.433 . S
C1000 C996 1.350 . S
C1000 C997 1.463 . S
C1000 N1004 1.427 . S
C1001 H991 0.929 . S
C1001 C999 1.433 . S
C1001 N1004 1.384 . S
C1002 H993 0.929 . S
C1002 C994 1.378 . S
C1002 C997 1.350 . S
C1003 H990 0.929 . S
C1003 C995 1.433 . S
C1003 N1005 1.384 . S
N1004 C1000 1.427 . S
N1004 C1001 1.384 . S
N1005 C997 1.427 . S
N1005 C1003 1.384 . S
H1006 C1012 0.930 . S
H1007 C1016 0.930 . S
H1008 C1021 0.929 . S
H1009 C1019 0.929 . S
H1010 C1014 0.929 . S
H1011 C1020 0.929 . S
C1012 H1006 0.930 . S
C1012 C1013 1.367 . S
C1012 C1020 1.378 . S
C1013 C1012 1.367 . S
C1013 C1021 1.433 1_554 S
C1014 H1010 0.929 . S
C1014 C1016 1.378 . S
C1014 C1018 1.370 . S
C1015 C1018 1.460 1_554 S
C1015 C1020 1.364 . S
C1015 N1023 1.414 1_554 S
C1016 H1007 0.930 . S
C1016 C1014 1.378 . S
C1016 C1017 1.367 . S
C1017 C1016 1.367 . S
C1017 C1019 1.433 1_556 S
C1018 C1014 1.370 . S
C1018 C1015 1.460 1_556 S
C1018 N1022 1.410 1_556 S
C1019 H1009 0.929 . S
C1019 C1017 1.433 1_554 S
C1019 N1022 1.384 . S
C1020 H1011 0.929 . S
C1020 C1012 1.378 . S
C1020 C1015 1.364 . S
C1021 H1008 0.929 . S
C1021 C1013 1.433 1_556 S
C1021 N1023 1.384 . S
N1022 C1018 1.410 1_554 S
N1022 C1019 1.384 . S
N1023 C1015 1.414 1_556 S
N1023 C1021 1.384 . S
H1024 C1030 0.930 . S
H1025 C1034 0.930 . S
H1026 C1039 0.929 . S
H1027 C1037 0.929 . S
H1028 C1032 0.929 . S
H1029 C1038 0.929 . S
C1030 H1024 0.930 . S
C1030 C1031 1.367 . S
C1030 C1038 1.378 . S
C1031 C1030 1.367 . S
C1031 C1039 1.433 . S
C1032 H1028 0.929 . S
C1032 C1034 1.378 . S
C1032 C1036 1.350 . S
C1033 C1036 1.463 . S
C1033 C1038 1.350 . S
C1033 N1041 1.427 . S
C1034 H1025 0.930 . S
C1034 C1032 1.378 . S
C1034 C1035 1.367 . S
C1035 C1034 1.367 . S
C1035 C1037 1.433 . S
C1036 C1032 1.350 . S
C1036 C1033 1.463 . S
C1036 N1040 1.427 . S
C1037 H1027 0.929 . S
C1037 C1035 1.433 . S
C1037 N1040 1.384 . S
C1038 H1029 0.929 . S
C1038 C1030 1.378 . S
C1038 C1033 1.350 . S
C1039 H1026 0.929 . S
C1039 C1031 1.433 . S
C1039 N1041 1.384 . S
N1040 C1036 1.427 . S
N1040 C1037 1.384 . S
N1041 C1033 1.427 . S
N1041 C1039 1.384 . S
H1042 C1048 0.930 . S
H1043 C1052 0.930 . S
H1044 C1057 0.929 . S
H1045 C1055 0.929 . S
H1046 C1050 0.929 . S
H1047 C1056 0.929 . S
C1048 H1042 0.930 . S
C1048 C1049 1.367 . S
C1048 C1056 1.378 . S
C1049 C1048 1.367 . S
C1049 C1057 1.433 . S
C1050 H1046 0.929 . S
C1050 C1052 1.378 . S
C1050 C1054 1.350 . S
C1051 C1054 1.463 . S
C1051 C1056 1.350 . S
C1051 N1059 1.427 . S
C1052 H1043 0.930 . S
C1052 C1050 1.378 . S
C1052 C1053 1.367 . S
C1053 C1052 1.367 . S
C1053 C1055 1.433 . S
C1054 C1050 1.350 . S
C1054 C1051 1.463 . S
C1054 N1058 1.427 . S
C1055 H1045 0.929 . S
C1055 C1053 1.433 . S
C1055 N1058 1.384 . S
C1056 H1047 0.929 . S
C1056 C1048 1.378 . S
C1056 C1051 1.350 . S
C1057 H1044 0.929 . S
C1057 C1049 1.433 . S
C1057 N1059 1.384 . S
N1058 C1054 1.427 . S
N1058 C1055 1.384 . S
N1059 C1051 1.427 . S
N1059 C1057 1.384 . S
H1060 C1066 0.930 . S
H1061 C1070 0.930 . S
H1062 C1075 0.929 . S
H1063 C1073 0.929 . S
H1064 C1068 0.929 . S
H1065 C1074 0.929 . S
C1066 H1060 0.930 . S
C1066 C1067 1.367 . S
C1066 C1074 1.378 . S
C1067 C1066 1.367 . S
C1067 C1075 1.433 . S
C1068 H1064 0.929 . S
C1068 C1070 1.378 . S
C1068 C1072 1.350 . S
C1069 C1072 1.463 . S
C1069 C1074 1.350 . S
C1069 N1077 1.427 . S
C1070 H1061 0.930 . S
C1070 C1068 1.378 . S
C1070 C1071 1.367 . S
C1071 C1070 1.367 . S
C1071 C1073 1.433 . S
C1072 C1068 1.350 . S
C1072 C1069 1.463 . S
C1072 N1076 1.427 . S
C1073 H1063 0.929 . S
C1073 C1071 1.433 . S
C1073 N1076 1.384 . S
C1074 H1065 0.929 . S
C1074 C1066 1.378 . S
C1074 C1069 1.350 . S
C1075 H1062 0.929 . S
C1075 C1067 1.433 . S
C1075 N1077 1.384 . S
N1076 C1072 1.427 . S
N1076 C1073 1.384 . S
N1077 C1069 1.427 . S
N1077 C1075 1.384 . S
H1078 C1084 0.930 . S
H1079 C1088 0.930 . S
H1080 C1093 0.929 . S
H1081 C1091 0.929 . S
H1082 C1086 0.929 . S
H1083 C1092 0.929 . S
C1084 H1078 0.930 . S
C1084 C1085 1.367 . S
C1084 C1092 1.378 . S
C1085 C1084 1.367 . S
C1085 C1093 1.433 . S
C1086 H1082 0.929 . S
C1086 C1088 1.378 . S
C1086 C1090 1.350 . S
C1087 C1090 1.463 . S
C1087 C1092 1.350 . S
C1087 N1095 1.427 . S
C1088 H1079 0.930 . S
C1088 C1086 1.378 . S
C1088 C1089 1.367 . S
C1089 C1088 1.367 . S
C1089 C1091 1.433 . S
C1090 C1086 1.350 . S
C1090 C1087 1.463 . S
C1090 N1094 1.427 . S
C1091 H1081 0.929 . S
C1091 C1089 1.433 . S
C1091 N1094 1.384 . S
C1092 H1083 0.929 . S
C1092 C1084 1.378 . S
C1092 C1087 1.350 . S
C1093 H1080 0.929 . S
C1093 C1085 1.433 . S
C1093 N1095 1.384 . S
N1094 C1090 1.427 . S
N1094 C1091 1.384 . S
N1095 C1087 1.427 . S
N1095 C1093 1.384 . S
H1096 C1102 0.930 . S
H1097 C1106 0.930 . S
H1098 C1111 0.929 . S
H1099 C1109 0.929 . S
H1100 C1104 0.929 . S
H1101 C1110 0.929 . S
C1102 H1096 0.930 . S
C1102 C1103 1.367 . S
C1102 C1110 1.378 . S
C1103 C1102 1.367 . S
C1103 C1111 1.433 . S
C1104 H1100 0.929 . S
C1104 C1106 1.378 . S
C1104 C1108 1.350 . S
C1105 C1108 1.463 . S
C1105 C1110 1.350 . S
C1105 N1113 1.427 . S
C1106 H1097 0.930 . S
C1106 C1104 1.378 . S
C1106 C1107 1.367 . S
C1107 C1106 1.367 . S
C1107 C1109 1.433 . S
C1108 C1104 1.350 . S
C1108 C1105 1.463 . S
C1108 N1112 1.427 . S
C1109 H1099 0.929 . S
C1109 C1107 1.433 . S
C1109 N1112 1.384 . S
C1110 H1101 0.929 . S
C1110 C1102 1.378 . S
C1110 C1105 1.350 . S
C1111 H1098 0.929 . S
C1111 C1103 1.433 . S
C1111 N1113 1.384 . S
N1112 C1108 1.427 . S
N1112 C1109 1.384 . S
N1113 C1105 1.427 . S
N1113 C1111 1.384 . S
H1114 C1120 0.930 . S
H1115 C1124 0.930 . S
H1116 C1129 0.929 . S
H1117 C1127 0.929 . S
H1118 C1122 0.929 . S
H1119 C1128 0.929 . S
C1120 H1114 0.930 . S
C1120 C1121 1.367 . S
C1120 C1128 1.378 . S
C1121 C1120 1.367 . S
C1121 C1129 1.433 . S
C1122 H1118 0.929 . S
C1122 C1124 1.378 . S
C1122 C1126 1.350 . S
C1123 C1126 1.463 . S
C1123 C1128 1.350 . S
C1123 N1131 1.427 . S
C1124 H1115 0.930 . S
C1124 C1122 1.378 . S
C1124 C1125 1.367 . S
C1125 C1124 1.367 . S
C1125 C1127 1.433 . S
C1126 C1122 1.350 . S
C1126 C1123 1.463 . S
C1126 N1130 1.427 . S
C1127 H1117 0.929 . S
C1127 C1125 1.433 . S
C1127 N1130 1.384 . S
C1128 H1119 0.929 . S
C1128 C1120 1.378 . S
C1128 C1123 1.350 . S
C1129 H1116 0.929 . S
C1129 C1121 1.433 . S
C1129 N1131 1.384 . S
N1130 C1126 1.427 . S
N1130 C1127 1.384 . S
N1131 C1123 1.427 . S
N1131 C1129 1.384 . S
H1132 C1138 0.930 . S
H1133 C1142 0.930 . S
H1134 C1147 0.929 . S
H1135 C1145 0.929 . S
H1136 C1140 0.929 . S
H1137 C1146 0.929 . S
C1138 H1132 0.930 . S
C1138 C1139 1.367 . S
C1138 C1146 1.378 . S
C1139 C1138 1.367 . S
C1139 C1147 1.433 . S
C1140 H1136 0.929 . S
C1140 C1142 1.378 . S
C1140 C1144 1.350 . S
C1141 C1144 1.463 . S
C1141 C1146 1.350 . S
C1141 N1149 1.427 . S
C1142 H1133 0.930 . S
C1142 C1140 1.378 . S
C1142 C1143 1.367 . S
C1143 C1142 1.367 . S
C1143 C1145 1.433 . S
C1144 C1140 1.350 . S
C1144 C1141 1.463 . S
C1144 N1148 1.427 . S
C1145 H1135 0.929 . S
C1145 C1143 1.433 . S
C1145 N1148 1.384 . S
C1146 H1137 0.929 . S
C1146 C1138 1.378 . S
C1146 C1141 1.350 . S
C1147 H1134 0.929 . S
C1147 C1139 1.433 . S
C1147 N1149 1.384 . S
N1148 C1144 1.427 . S
N1148 C1145 1.384 . S
N1149 C1141 1.427 . S
N1149 C1147 1.384 . S
H1150 C1156 0.930 . S
H1151 C1160 0.930 . S
H1152 C1165 0.929 . S
H1153 C1163 0.929 . S
H1154 C1158 0.929 . S
H1155 C1164 0.929 . S
C1156 H1150 0.930 . S
C1156 C1157 1.367 . S
C1156 C1164 1.378 . S
C1157 C1156 1.367 . S
C1157 C1165 1.433 . S
C1158 H1154 0.929 . S
C1158 C1160 1.378 . S
C1158 C1162 1.350 . S
C1159 C1162 1.463 . S
C1159 C1164 1.350 . S
C1159 N1167 1.427 . S
C1160 H1151 0.930 . S
C1160 C1158 1.378 . S
C1160 C1161 1.367 . S
C1161 C1160 1.367 . S
C1161 C1163 1.433 . S
C1162 C1158 1.350 . S
C1162 C1159 1.463 . S
C1162 N1166 1.427 . S
C1163 H1153 0.929 . S
C1163 C1161 1.433 . S
C1163 N1166 1.384 . S
C1164 H1155 0.929 . S
C1164 C1156 1.378 . S
C1164 C1159 1.350 . S
C1165 H1152 0.929 . S
C1165 C1157 1.433 . S
C1165 N1167 1.384 . S
N1166 C1162 1.427 . S
N1166 C1163 1.384 . S
N1167 C1159 1.427 . S
N1167 C1165 1.384 . S
H1168 C1174 0.930 . S
H1169 C1178 0.930 . S
H1170 C1183 0.929 . S
H1171 C1181 0.929 . S
H1172 C1176 0.929 . S
H1173 C1182 0.929 . S
C1174 H1168 0.930 . S
C1174 C1175 1.367 . S
C1174 C1182 1.378 . S
C1175 C1174 1.367 . S
C1175 C1183 1.433 . S
C1176 H1172 0.929 . S
C1176 C1178 1.378 . S
C1176 C1180 1.350 . S
C1177 C1180 1.463 . S
C1177 C1182 1.350 . S
C1177 N1185 1.427 . S
C1178 H1169 0.930 . S
C1178 C1176 1.378 . S
C1178 C1179 1.367 . S
C1179 C1178 1.367 . S
C1179 C1181 1.433 . S
C1180 C1176 1.350 . S
C1180 C1177 1.463 . S
C1180 N1184 1.427 . S
C1181 H1171 0.929 . S
C1181 C1179 1.433 . S
C1181 N1184 1.384 . S
C1182 H1173 0.929 . S
C1182 C1174 1.378 . S
C1182 C1177 1.350 . S
C1183 H1170 0.929 . S
C1183 C1175 1.433 . S
C1183 N1185 1.384 . S
N1184 C1180 1.427 . S
N1184 C1181 1.384 . S
N1185 C1177 1.427 . S
N1185 C1183 1.384 . S
H1186 C1192 0.930 . S
H1187 C1196 0.930 . S
H1188 C1201 0.929 . S
H1189 C1199 0.929 . S
H1190 C1194 0.929 . S
H1191 C1200 0.929 . S
C1192 H1186 0.930 . S
C1192 C1193 1.367 . S
C1192 C1200 1.378 . S
C1193 C1192 1.367 . S
C1193 C1201 1.433 . S
C1194 H1190 0.929 . S
C1194 C1196 1.378 . S
C1194 C1198 1.350 . S
C1195 C1198 1.463 . S
C1195 C1200 1.350 . S
C1195 N1203 1.427 . S
C1196 H1187 0.930 . S
C1196 C1194 1.378 . S
C1196 C1197 1.367 . S
C1197 C1196 1.367 . S
C1197 C1199 1.433 . S
C1198 C1194 1.350 . S
C1198 C1195 1.463 . S
C1198 N1202 1.427 . S
C1199 H1189 0.929 . S
C1199 C1197 1.433 . S
C1199 N1202 1.384 . S
C1200 H1191 0.929 . S
C1200 C1192 1.378 . S
C1200 C1195 1.350 . S
C1201 H1188 0.929 . S
C1201 C1193 1.433 . S
C1201 N1203 1.384 . S
N1202 C1198 1.427 . S
N1202 C1199 1.384 . S
N1203 C1195 1.427 . S
N1203 C1201 1.384 . S
H1204 C1210 0.930 . S
H1205 C1214 0.930 . S
H1206 C1219 0.929 . S
H1207 C1217 0.929 . S
H1208 C1212 0.929 . S
H1209 C1218 0.929 . S
C1210 H1204 0.930 . S
C1210 C1211 1.367 . S
C1210 C1218 1.378 . S
C1211 C1210 1.367 . S
C1211 C1219 1.433 . S
C1212 H1208 0.929 . S
C1212 C1214 1.378 . S
C1212 C1216 1.350 . S
C1213 C1216 1.463 . S
C1213 C1218 1.350 . S
C1213 N1221 1.427 . S
C1214 H1205 0.930 . S
C1214 C1212 1.378 . S
C1214 C1215 1.367 . S
C1215 C1214 1.367 . S
C1215 C1217 1.433 . S
C1216 C1212 1.350 . S
C1216 C1213 1.463 . S
C1216 N1220 1.427 . S
C1217 H1207 0.929 . S
C1217 C1215 1.433 . S
C1217 N1220 1.384 . S
C1218 H1209 0.929 . S
C1218 C1210 1.378 . S
C1218 C1213 1.350 . S
C1219 H1206 0.929 . S
C1219 C1211 1.433 . S
C1219 N1221 1.384 . S
N1220 C1216 1.427 . S
N1220 C1217 1.384 . S
N1221 C1213 1.427 . S
N1221 C1219 1.384 . S
H1222 C1228 0.930 . S
H1223 C1232 0.930 . S
H1224 C1237 0.929 . S
H1225 C1235 0.929 . S
H1226 C1230 0.929 . S
H1227 C1236 0.929 . S
C1228 H1222 0.930 . S
C1228 C1229 1.367 . S
C1228 C1236 1.378 . S
C1229 C1228 1.367 . S
C1229 C1237 1.433 . S
C1230 H1226 0.929 . S
C1230 C1232 1.378 . S
C1230 C1234 1.350 . S
C1231 C1234 1.463 . S
C1231 C1236 1.350 . S
C1231 N1239 1.427 . S
C1232 H1223 0.930 . S
C1232 C1230 1.378 . S
C1232 C1233 1.367 . S
C1233 C1232 1.367 . S
C1233 C1235 1.433 . S
C1234 C1230 1.350 . S
C1234 C1231 1.463 . S
C1234 N1238 1.427 . S
C1235 H1225 0.929 . S
C1235 C1233 1.433 . S
C1235 N1238 1.384 . S
C1236 H1227 0.929 . S
C1236 C1228 1.378 . S
C1236 C1231 1.350 . S
C1237 H1224 0.929 . S
C1237 C1229 1.433 . S
C1237 N1239 1.384 . S
N1238 C1234 1.427 . S
N1238 C1235 1.384 . S
N1239 C1231 1.427 . S
N1239 C1237 1.384 . S
H1240 C1246 0.930 . S
H1241 C1250 0.930 . S
H1242 C1255 0.929 . S
H1243 C1253 0.929 . S
H1244 C1248 0.929 . S
H1245 C1254 0.929 . S
C1246 H1240 0.930 . S
C1246 C1247 1.367 . S
C1246 C1254 1.378 . S
C1247 C1246 1.367 . S
C1247 C1255 1.433 . S
C1248 H1244 0.929 . S
C1248 C1250 1.378 . S
C1248 C1252 1.350 . S
C1249 C1252 1.463 . S
C1249 C1254 1.350 . S
C1249 N1257 1.427 . S
C1250 H1241 0.930 . S
C1250 C1248 1.378 . S
C1250 C1251 1.367 . S
C1251 C1250 1.367 . S
C1251 C1253 1.433 . S
C1252 C1248 1.350 . S
C1252 C1249 1.463 . S
C1252 N1256 1.427 . S
C1253 H1243 0.929 . S
C1253 C1251 1.433 . S
C1253 N1256 1.384 . S
C1254 H1245 0.929 . S
C1254 C1246 1.378 . S
C1254 C1249 1.350 . S
C1255 H1242 0.929 . S
C1255 C1247 1.433 . S
C1255 N1257 1.384 . S
N1256 C1252 1.427 . S
N1256 C1253 1.384 . S
N1257 C1249 1.427 . S
N1257 C1255 1.384 . S
H1258 C1264 0.930 . S
H1259 C1268 0.930 . S
H1260 C1273 0.929 . S
H1261 C1271 0.929 . S
H1262 C1266 0.929 . S
H1263 C1272 0.929 . S
C1264 H1258 0.930 . S
C1264 C1265 1.367 . S
C1264 C1272 1.378 . S
C1265 C1264 1.367 . S
C1265 C1273 1.433 . S
C1266 H1262 0.929 . S
C1266 C1268 1.378 . S
C1266 C1270 1.350 . S
C1267 C1270 1.463 . S
C1267 C1272 1.350 . S
C1267 N1275 1.427 . S
C1268 H1259 0.930 . S
C1268 C1266 1.378 . S
C1268 C1269 1.367 . S
C1269 C1268 1.367 . S
C1269 C1271 1.433 . S
C1270 C1266 1.350 . S
C1270 C1267 1.463 . S
C1270 N1274 1.427 . S
C1271 H1261 0.929 . S
C1271 C1269 1.433 . S
C1271 N1274 1.384 . S
C1272 H1263 0.929 . S
C1272 C1264 1.378 . S
C1272 C1267 1.350 . S
C1273 H1260 0.929 . S
C1273 C1265 1.433 . S
C1273 N1275 1.384 . S
N1274 C1270 1.427 . S
N1274 C1271 1.384 . S
N1275 C1267 1.427 . S
N1275 C1273 1.384 . S
H1276 C1282 0.930 . S
H1277 C1286 0.930 . S
H1278 C1291 0.929 . S
H1279 C1289 0.929 . S
H1280 C1284 0.929 . S
H1281 C1290 0.929 . S
C1282 H1276 0.930 . S
C1282 C1283 1.367 . S
C1282 C1290 1.378 . S
C1283 C1282 1.367 . S
C1283 C1291 1.433 . S
C1284 H1280 0.929 . S
C1284 C1286 1.378 . S
C1284 C1288 1.350 . S
C1285 C1288 1.463 . S
C1285 C1290 1.350 . S
C1285 N1293 1.427 . S
C1286 H1277 0.930 . S
C1286 C1284 1.378 . S
C1286 C1287 1.367 . S
C1287 C1286 1.367 . S
C1287 C1289 1.433 . S
C1288 C1284 1.350 . S
C1288 C1285 1.463 . S
C1288 N1292 1.427 . S
C1289 H1279 0.929 . S
C1289 C1287 1.433 . S
C1289 N1292 1.384 . S
C1290 H1281 0.929 . S
C1290 C1282 1.378 . S
C1290 C1285 1.350 . S
C1291 H1278 0.929 . S
C1291 C1283 1.433 . S
C1291 N1293 1.384 . S
N1292 C1288 1.427 . S
N1292 C1289 1.384 . S
N1293 C1285 1.427 . S
N1293 C1291 1.384 . S
H1294 C1300 0.930 . S
H1295 C1304 0.930 . S
H1296 C1309 0.929 . S
H1297 C1307 0.929 . S
H1298 C1302 0.929 . S
H1299 C1308 0.929 . S
C1300 H1294 0.930 . S
C1300 C1301 1.367 . S
C1300 C1308 1.378 . S
C1301 C1300 1.367 . S
C1301 C1309 1.433 . S
C1302 H1298 0.929 . S
C1302 C1304 1.378 . S
C1302 C1306 1.350 . S
C1303 C1306 1.463 . S
C1303 C1308 1.350 . S
C1303 N1311 1.427 . S
C1304 H1295 0.930 . S
C1304 C1302 1.378 . S
C1304 C1305 1.367 . S
C1305 C1304 1.367 . S
C1305 C1307 1.433 . S
C1306 C1302 1.350 . S
C1306 C1303 1.463 . S
C1306 N1310 1.427 . S
C1307 H1297 0.929 . S
C1307 C1305 1.433 . S
C1307 N1310 1.384 . S
C1308 H1299 0.929 . S
C1308 C1300 1.378 . S
C1308 C1303 1.350 . S
C1309 H1296 0.929 . S
C1309 C1301 1.433 . S
C1309 N1311 1.384 . S
N1310 C1306 1.427 . S
N1310 C1307 1.384 . S
N1311 C1303 1.427 . S
N1311 C1309 1.384 . S
H1312 C1318 0.930 . S
H1313 C1322 0.930 . S
H1314 C1327 0.929 . S
H1315 C1325 0.929 . S
H1316 C1320 0.929 . S
H1317 C1326 0.929 . S
C1318 H1312 0.930 . S
C1318 C1319 1.367 . S
C1318 C1326 1.378 . S
C1319 C1318 1.367 . S
C1319 C1327 1.433 . S
C1320 H1316 0.929 . S
C1320 C1322 1.378 . S
C1320 C1324 1.350 . S
C1321 C1324 1.463 . S
C1321 C1326 1.350 . S
C1321 N1329 1.427 . S
C1322 H1313 0.930 . S
C1322 C1320 1.378 . S
C1322 C1323 1.367 . S
C1323 C1322 1.367 . S
C1323 C1325 1.433 . S
C1324 C1320 1.350 . S
C1324 C1321 1.463 . S
C1324 N1328 1.427 . S
C1325 H1315 0.929 . S
C1325 C1323 1.433 . S
C1325 N1328 1.384 . S
C1326 H1317 0.929 . S
C1326 C1318 1.378 . S
C1326 C1321 1.350 . S
C1327 H1314 0.929 . S
C1327 C1319 1.433 . S
C1327 N1329 1.384 . S
N1328 C1324 1.427 . S
N1328 C1325 1.384 . S
N1329 C1321 1.427 . S
N1329 C1327 1.384 . S
H1330 C1336 0.930 . S
H1331 C1340 0.930 1_455 S
H1332 C1345 0.929 . S
H1333 C1343 0.929 . S
H1334 C1338 0.929 . S
H1335 C1344 0.929 . S
C1336 H1330 0.930 . S
C1336 C1337 1.367 . S
C1336 C1344 1.378 . S
C1337 C1336 1.367 . S
C1337 C1345 1.433 . S
C1338 H1334 0.929 . S
C1338 C1340 1.378 . S
C1338 C1342 1.350 . S
C1339 C1342 1.463 . S
C1339 C1344 1.350 . S
C1339 N1347 1.427 . S
C1340 H1331 0.930 1_655 S
C1340 C1338 1.378 . S
C1340 C1341 1.368 . S
C1341 C1340 1.368 . S
C1341 C1343 1.442 . S
C1342 C1338 1.350 . S
C1342 C1339 1.463 . S
C1342 N1346 1.427 . S
C1343 H1333 0.929 . S
C1343 C1341 1.442 . S
C1343 N1346 1.384 . S
C1344 H1335 0.929 . S
C1344 C1336 1.378 . S
C1344 C1339 1.350 . S
C1345 H1332 0.929 . S
C1345 C1337 1.433 . S
C1345 N1347 1.384 . S
N1346 C1342 1.427 . S
N1346 C1343 1.384 . S
N1347 C1339 1.427 . S
N1347 C1345 1.384 . S
H1348 C1354 0.930 . S
H1349 C1358 0.930 . S
H1350 C1363 0.929 . S
H1351 C1361 0.929 . S
H1352 C1356 0.929 . S
H1353 C1362 0.929 . S
C1354 H1348 0.930 . S
C1354 C1355 1.367 1_556 S
C1354 C1362 1.378 . S
C1355 C1354 1.367 1_554 S
C1355 C1363 1.433 . S
C1356 H1352 0.929 . S
C1356 C1358 1.378 . S
C1356 C1360 1.350 . S
C1357 C1360 1.463 . S
C1357 C1362 1.350 1_554 S
C1357 N1365 1.427 . S
C1358 H1349 0.930 . S
C1358 C1356 1.378 . S
C1358 C1359 1.367 . S
C1359 C1358 1.367 . S
C1359 C1361 1.433 1_554 S
C1360 C1356 1.350 . S
C1360 C1357 1.463 . S
C1360 N1364 1.427 1_554 S
C1361 H1351 0.929 . S
C1361 C1359 1.433 1_556 S
C1361 N1364 1.384 . S
C1362 H1353 0.929 . S
C1362 C1354 1.378 . S
C1362 C1357 1.350 1_556 S
C1363 H1350 0.929 . S
C1363 C1355 1.433 . S
C1363 N1365 1.384 . S
N1364 C1360 1.427 1_556 S
N1364 C1361 1.384 . S
N1365 C1357 1.427 . S
N1365 C1363 1.384 . S
H1366 C1372 0.930 . S
H1367 C1376 0.930 . S
H1368 C1381 0.929 1_455 S
H1369 C1379 0.929 . S
H1370 C1374 0.929 . S
H1371 C1380 0.929 . S
C1372 H1366 0.930 . S
C1372 C1373 1.367 . S
C1372 C1380 1.378 . S
C1373 C1372 1.367 . S
C1373 C1381 1.433 1_554 S
C1374 H1370 0.929 . S
C1374 C1376 1.378 . S
C1374 C1378 1.350 1_556 S
C1375 C1378 1.463 . S
C1375 C1380 1.350 . S
C1375 N1383 1.427 1_554 S
C1376 H1367 0.930 . S
C1376 C1374 1.378 . S
C1376 C1377 1.367 1_556 S
C1377 C1376 1.367 1_554 S
C1377 C1379 1.433 . S
C1378 C1374 1.350 1_554 S
C1378 C1375 1.463 . S
C1378 N1382 1.427 . S
C1379 H1369 0.929 . S
C1379 C1377 1.433 . S
C1379 N1382 1.384 . S
C1380 H1371 0.929 . S
C1380 C1372 1.378 . S
C1380 C1375 1.350 . S
C1381 H1368 0.929 1_655 S
C1381 C1373 1.433 1_556 S
C1381 N1383 1.384 . S
N1382 C1378 1.427 . S
N1382 C1379 1.384 . S
N1383 C1375 1.427 1_556 S
N1383 C1381 1.384 . S
H1384 C1390 0.930 . S
H1385 C1394 0.930 . S
H1386 C1399 0.929 . S
H1387 C1397 0.929 . S
H1388 C1392 0.929 . S
H1389 C1398 0.929 . S
C1390 H1384 0.930 . S
C1390 C1391 1.367 . S
C1390 C1398 1.378 . S
C1391 C1390 1.367 . S
C1391 C1399 1.433 . S
C1392 H1388 0.929 . S
C1392 C1394 1.378 . S
C1392 C1396 1.350 . S
C1393 C1396 1.463 . S
C1393 C1398 1.350 . S
C1393 N1401 1.427 . S
C1394 H1385 0.930 . S
C1394 C1392 1.378 . S
C1394 C1395 1.367 . S
C1395 C1394 1.367 . S
C1395 C1397 1.433 . S
C1396 C1392 1.350 . S
C1396 C1393 1.463 . S
C1396 N1400 1.427 . S
C1397 H1387 0.929 . S
C1397 C1395 1.433 . S
C1397 N1400 1.384 . S
C1398 H1389 0.929 . S
C1398 C1390 1.378 . S
C1398 C1393 1.350 . S
C1399 H1386 0.929 . S
C1399 C1391 1.433 . S
C1399 N1401 1.384 . S
N1400 C1396 1.427 . S
N1400 C1397 1.384 . S
N1401 C1393 1.427 . S
N1401 C1399 1.384 . S
H1402 C1408 0.930 1_655 S
H1403 C1412 0.930 . S
H1404 C1417 0.929 . S
H1405 C1415 0.929 . S
H1406 C1410 0.929 . S
H1407 C1416 0.929 . S
C1408 H1402 0.930 1_455 S
C1408 C1409 1.372 . S
C1408 C1416 1.378 . S
C1409 C1408 1.372 . S
C1409 C1417 1.443 . S
C1410 H1406 0.929 . S
C1410 C1412 1.378 . S
C1410 C1414 1.350 . S
C1411 C1414 1.463 . S
C1411 C1416 1.350 . S
C1411 N1419 1.427 . S
C1412 H1403 0.930 . S
C1412 C1410 1.378 . S
C1412 C1413 1.367 . S
C1413 C1412 1.367 . S
C1413 C1415 1.433 . S
C1414 C1410 1.350 . S
C1414 C1411 1.463 . S
C1414 N1418 1.427 . S
C1415 H1405 0.929 . S
C1415 C1413 1.433 . S
C1415 N1418 1.384 . S
C1416 H1407 0.929 . S
C1416 C1408 1.378 . S
C1416 C1411 1.350 . S
C1417 H1404 0.929 . S
C1417 C1409 1.443 . S
C1417 N1419 1.384 . S
N1418 C1414 1.427 . S
N1418 C1415 1.384 . S
N1419 C1411 1.427 . S
N1419 C1417 1.384 . S
H1420 C1426 0.930 . S
H1421 C1430 0.934 . S
H1422 C1435 0.934 . S
H1423 C1433 0.929 . S
H1424 C1428 0.932 . S
H1425 C1434 0.929 . S
C1426 H1420 0.930 . S
C1426 C1427 1.367 . S
C1426 C1434 1.378 . S
C1427 C1426 1.367 . S
C1427 C1435 1.428 1_556 S
C1428 H1424 0.932 . S
C1428 C1430 1.378 . S
C1428 C1432 1.346 1_554 S
C1429 C1432 1.463 . S
C1429 C1434 1.350 . S
C1429 N1437 1.423 1_556 S
C1430 H1421 0.934 . S
C1430 C1428 1.378 . S
C1430 C1431 1.363 1_554 S
C1431 C1430 1.363 1_556 S
C1431 C1433 1.433 . S
C1432 C1428 1.346 1_556 S
C1432 C1429 1.463 . S
C1432 N1436 1.427 . S
C1433 H1423 0.929 . S
C1433 C1431 1.433 . S
C1433 N1436 1.384 . S
C1434 H1425 0.929 . S
C1434 C1426 1.378 . S
C1434 C1429 1.350 . S
C1435 H1422 0.934 . S
C1435 C1427 1.428 1_554 S
C1435 N1437 1.384 . S
N1436 C1432 1.427 . S
N1436 C1433 1.384 . S
N1437 C1429 1.423 1_554 S
N1437 C1435 1.384 . S
H1438 C1444 0.930 . S
H1439 C1448 0.930 1_655 S
H1440 C1453 0.929 . S
H1441 C1451 0.929 . S
H1442 C1446 0.929 . S
H1443 C1452 0.929 . S
C1444 H1438 0.930 . S
C1444 C1445 1.367 . S
C1444 C1452 1.378 . S
C1445 C1444 1.367 . S
C1445 C1453 1.433 1_556 S
C1446 H1442 0.929 . S
C1446 C1448 1.378 . S
C1446 C1450 1.350 1_554 S
C1447 C1450 1.463 . S
C1447 C1452 1.350 . S
C1447 N1455 1.427 1_556 S
C1448 H1439 0.930 1_455 S
C1448 C1446 1.378 . S
C1448 C1449 1.367 1_554 S
C1449 C1448 1.367 1_556 S
C1449 C1451 1.433 . S
C1450 C1446 1.350 1_556 S
C1450 C1447 1.463 . S
C1450 N1454 1.427 . S
C1451 H1441 0.929 . S
C1451 C1449 1.433 . S
C1451 N1454 1.384 . S
C1452 H1443 0.929 . S
C1452 C1444 1.378 . S
C1452 C1447 1.350 . S
C1453 H1440 0.929 . S
C1453 C1445 1.433 1_554 S
C1453 N1455 1.384 . S
N1454 C1450 1.427 . S
N1454 C1451 1.384 . S
N1455 C1447 1.427 1_554 S
N1455 C1453 1.384 . S
H1456 C1462 0.930 . S
H1457 C1466 0.930 . S
H1458 C1471 0.929 . S
H1459 C1469 0.929 . S
H1460 C1464 0.929 . S
H1461 C1470 0.929 . S
C1462 H1456 0.930 . S
C1462 C1463 1.367 . S
C1462 C1470 1.378 . S
C1463 C1462 1.367 . S
C1463 C1471 1.433 . S
C1464 H1460 0.929 . S
C1464 C1466 1.378 . S
C1464 C1468 1.350 . S
C1465 C1468 1.463 . S
C1465 C1470 1.350 . S
C1465 N1473 1.427 . S
C1466 H1457 0.930 . S
C1466 C1464 1.378 . S
C1466 C1467 1.367 . S
C1467 C1466 1.367 . S
C1467 C1469 1.433 . S
C1468 C1464 1.350 . S
C1468 C1465 1.463 . S
C1468 N1472 1.427 . S
C1469 H1459 0.929 . S
C1469 C1467 1.433 . S
C1469 N1472 1.384 . S
C1470 H1461 0.929 . S
C1470 C1462 1.378 . S
C1470 C1465 1.350 . S
C1471 H1458 0.929 . S
C1471 C1463 1.433 . S
C1471 N1473 1.384 . S
N1472 C1468 1.427 . S
N1472 C1469 1.384 . S
N1473 C1465 1.427 . S
N1473 C1471 1.384 . S
H1474 C1480 0.930 . S
H1475 C1484 0.930 . S
H1476 C1489 0.929 . S
H1477 C1487 0.929 . S
H1478 C1482 0.929 . S
H1479 C1488 0.929 . S
C1480 H1474 0.930 . S
C1480 C1481 1.367 . S
C1480 C1488 1.378 . S
C1481 C1480 1.367 . S
C1481 C1489 1.433 . S
C1482 H1478 0.929 . S
C1482 C1484 1.378 . S
C1482 C1486 1.350 . S
C1483 C1486 1.463 . S
C1483 C1488 1.350 . S
C1483 N1491 1.427 . S
C1484 H1475 0.930 . S
C1484 C1482 1.378 . S
C1484 C1485 1.367 . S
C1485 C1484 1.367 . S
C1485 C1487 1.433 . S
C1486 C1482 1.350 . S
C1486 C1483 1.463 . S
C1486 N1490 1.427 . S
C1487 H1477 0.929 . S
C1487 C1485 1.433 . S
C1487 N1490 1.384 . S
C1488 H1479 0.929 . S
C1488 C1480 1.378 . S
C1488 C1483 1.350 . S
C1489 H1476 0.929 . S
C1489 C1481 1.433 . S
C1489 N1491 1.384 . S
N1490 C1486 1.427 . S
N1490 C1487 1.384 . S
N1491 C1483 1.427 . S
N1491 C1489 1.384 . S
H1492 C1498 0.930 . S
H1493 C1502 0.930 . S
H1494 C1507 0.929 . S
H1495 C1505 0.929 . S
H1496 C1500 0.929 . S
H1497 C1506 0.929 . S
C1498 H1492 0.930 . S
C1498 C1499 1.367 . S
C1498 C1506 1.378 . S
C1499 C1498 1.367 . S
C1499 C1507 1.433 . S
C1500 H1496 0.929 . S
C1500 C1502 1.378 . S
C1500 C1504 1.350 . S
C1501 C1504 1.463 . S
C1501 C1506 1.350 . S
C1501 N1509 1.427 . S
C1502 H1493 0.930 . S
C1502 C1500 1.378 . S
C1502 C1503 1.367 . S
C1503 C1502 1.367 . S
C1503 C1505 1.433 . S
C1504 C1500 1.350 . S
C1504 C1501 1.463 . S
C1504 N1508 1.427 . S
C1505 H1495 0.929 . S
C1505 C1503 1.433 . S
C1505 N1508 1.384 . S
C1506 H1497 0.929 . S
C1506 C1498 1.378 . S
C1506 C1501 1.350 . S
C1507 H1494 0.929 . S
C1507 C1499 1.433 . S
C1507 N1509 1.384 . S
N1508 C1504 1.427 . S
N1508 C1505 1.384 . S
N1509 C1501 1.427 . S
N1509 C1507 1.384 . S
H1510 C1516 0.930 . S
H1511 C1520 0.930 . S
H1512 C1525 0.929 . S
H1513 C1523 0.929 . S
H1514 C1518 0.929 . S
H1515 C1524 0.929 . S
C1516 H1510 0.930 . S
C1516 C1517 1.367 . S
C1516 C1524 1.378 . S
C1517 C1516 1.367 . S
C1517 C1525 1.433 . S
C1518 H1514 0.929 . S
C1518 C1520 1.378 . S
C1518 C1522 1.350 . S
C1519 C1522 1.463 . S
C1519 C1524 1.350 . S
C1519 N1527 1.427 . S
C1520 H1511 0.930 . S
C1520 C1518 1.378 . S
C1520 C1521 1.367 . S
C1521 C1520 1.367 . S
C1521 C1523 1.433 . S
C1522 C1518 1.350 . S
C1522 C1519 1.463 . S
C1522 N1526 1.427 . S
C1523 H1513 0.929 . S
C1523 C1521 1.433 . S
C1523 N1526 1.384 . S
C1524 H1515 0.929 . S
C1524 C1516 1.378 . S
C1524 C1519 1.350 . S
C1525 H1512 0.929 . S
C1525 C1517 1.433 . S
C1525 N1527 1.384 . S
N1526 C1522 1.427 . S
N1526 C1523 1.384 . S
N1527 C1519 1.427 . S
N1527 C1525 1.384 . S
H1528 C1534 0.930 . S
H1529 C1538 0.930 . S
H1530 C1543 0.929 . S
H1531 C1541 0.929 . S
H1532 C1536 0.929 . S
H1533 C1542 0.929 . S
C1534 H1528 0.930 . S
C1534 C1535 1.367 . S
C1534 C1542 1.378 . S
C1535 C1534 1.367 . S
C1535 C1543 1.433 . S
C1536 H1532 0.929 . S
C1536 C1538 1.378 . S
C1536 C1540 1.350 . S
C1537 C1540 1.463 . S
C1537 C1542 1.350 . S
C1537 N1545 1.427 . S
C1538 H1529 0.930 . S
C1538 C1536 1.378 . S
C1538 C1539 1.367 . S
C1539 C1538 1.367 . S
C1539 C1541 1.433 . S
C1540 C1536 1.350 . S
C1540 C1537 1.463 . S
C1540 N1544 1.427 . S
C1541 H1531 0.929 . S
C1541 C1539 1.433 . S
C1541 N1544 1.384 . S
C1542 H1533 0.929 . S
C1542 C1534 1.378 . S
C1542 C1537 1.350 . S
C1543 H1530 0.929 . S
C1543 C1535 1.433 . S
C1543 N1545 1.384 . S
N1544 C1540 1.427 . S
N1544 C1541 1.384 . S
N1545 C1537 1.427 . S
N1545 C1543 1.384 . S
H1546 C1552 0.930 . S
H1547 C1556 0.930 . S
H1548 C1561 0.929 1_655 S
H1549 C1559 0.929 . S
H1550 C1554 0.929 . S
H1551 C1560 0.929 . S
C1552 H1546 0.930 . S
C1552 C1553 1.367 . S
C1552 C1560 1.378 . S
C1553 C1552 1.367 . S
C1553 C1561 1.433 . S
C1554 H1550 0.929 . S
C1554 C1556 1.378 . S
C1554 C1558 1.350 . S
C1555 C1558 1.463 . S
C1555 C1560 1.350 . S
C1555 N1563 1.427 . S
C1556 H1547 0.930 . S
C1556 C1554 1.378 . S
C1556 C1557 1.367 . S
C1557 C1556 1.367 . S
C1557 C1559 1.433 . S
C1558 C1554 1.350 . S
C1558 C1555 1.463 . S
C1558 N1562 1.427 . S
C1559 H1549 0.929 . S
C1559 C1557 1.433 . S
C1559 N1562 1.384 . S
C1560 H1551 0.929 . S
C1560 C1552 1.378 . S
C1560 C1555 1.350 . S
C1561 H1548 0.929 1_455 S
C1561 C1553 1.433 . S
C1561 N1563 1.384 . S
N1562 C1558 1.427 . S
N1562 C1559 1.384 . S
N1563 C1555 1.427 . S
N1563 C1561 1.384 . S
H1564 C1570 0.930 . S
H1565 C1574 0.930 . S
H1566 C1579 0.929 . S
H1567 C1577 0.929 . S
H1568 C1572 0.929 . S
H1569 C1578 0.929 . S
C1570 H1564 0.930 . S
C1570 C1571 1.367 . S
C1570 C1578 1.378 . S
C1571 C1570 1.367 . S
C1571 C1579 1.433 . S
C1572 H1568 0.929 . S
C1572 C1574 1.378 . S
C1572 C1576 1.350 . S
C1573 C1576 1.463 . S
C1573 C1578 1.350 . S
C1573 N1581 1.427 . S
C1574 H1565 0.930 . S
C1574 C1572 1.378 . S
C1574 C1575 1.367 . S
C1575 C1574 1.367 . S
C1575 C1577 1.433 . S
C1576 C1572 1.350 . S
C1576 C1573 1.463 . S
C1576 N1580 1.427 . S
C1577 H1567 0.929 . S
C1577 C1575 1.433 . S
C1577 N1580 1.384 . S
C1578 H1569 0.929 . S
C1578 C1570 1.378 . S
C1578 C1573 1.350 . S
C1579 H1566 0.929 . S
C1579 C1571 1.433 . S
C1579 N1581 1.384 . S
N1580 C1576 1.427 . S
N1580 C1577 1.384 . S
N1581 C1573 1.427 . S
N1581 C1579 1.384 . S
H1582 C1588 0.930 . S
H1583 C1592 0.930 . S
H1584 C1597 0.929 1_655 S
H1585 C1595 0.929 . S
H1586 C1590 0.929 . S
H1587 C1596 0.929 . S
C1588 H1582 0.930 . S
C1588 C1589 1.367 . S
C1588 C1596 1.378 . S
C1589 C1588 1.367 . S
C1589 C1597 1.433 . S
C1590 H1586 0.929 . S
C1590 C1592 1.378 . S
C1590 C1594 1.350 . S
C1591 C1594 1.463 . S
C1591 C1596 1.350 . S
C1591 N1599 1.427 . S
C1592 H1583 0.930 . S
C1592 C1590 1.378 . S
C1592 C1593 1.367 . S
C1593 C1592 1.367 . S
C1593 C1595 1.433 . S
C1594 C1590 1.350 . S
C1594 C1591 1.463 . S
C1594 N1598 1.427 . S
C1595 H1585 0.929 . S
C1595 C1593 1.433 . S
C1595 N1598 1.384 . S
C1596 H1587 0.929 . S
C1596 C1588 1.378 . S
C1596 C1591 1.350 . S
C1597 H1584 0.929 1_455 S
C1597 C1589 1.433 . S
C1597 N1599 1.384 . S
N1598 C1594 1.427 . S
N1598 C1595 1.384 . S
N1599 C1591 1.427 . S
N1599 C1597 1.384 . S
C455 C8 1.341 . S
C459 C50 1.339 . S
C473 C36 1.350 . S
C477 C22 1.340 . S
C491 C64 1.351 . S
C495 C106 1.349 . S
C509 C92 1.333 . S
C513 C78 1.347 . S
C527 C120 1.285 . S
C531 C162 1.298 . S
C545 C148 1.298 . S
C549 C134 1.286 . S
C563 C176 1.299 . S
C567 C218 1.286 . S
C581 C190 1.299 . S
C585 C204 1.289 . S
C599 C274 1.284 . S
C603 C232 1.299 . S
C617 C246 1.291 . S
C621 C260 1.298 . S
C635 C288 1.299 . S
C639 C330 1.285 . S
C653 C316 1.298 . S
C657 C302 1.288 . S
C671 C344 1.340 . S
C675 C386 1.358 . S
C689 C372 1.349 . S
C693 C358 1.339 . S
C707 C400 1.349 . S
C711 C442 1.340 . S
C725 C414 1.351 . S
C729 C428 1.343 . S
C743 C174 1.582 . S
C747 C6 1.582 . S
C761 C20 1.588 . S
C765 C300 1.588 . S
C779 C34 1.529 . S
C783 C90 1.528 . S
C797 C440 1.521 . S
C801 C48 1.520 . S
C815 C62 1.589 . S
C819 C118 1.589 . S
C833 C244 1.589 . S
C837 C76 1.589 . S
C851 C384 1.529 . S
C855 C104 1.528 . S
C869 C412 1.585 . S
C873 C132 1.585 . S
C887 C202 1.542 . S
C891 C146 1.542 . S
C905 C328 1.543 . S
C909 C160 1.543 . S
C923 C188 1.579 . S
C927 C356 1.579 . S
C941 C272 1.540 . S
C945 C216 1.540 . S
C959 C398 1.587 . S
C963 C230 1.587 . S
C977 C314 1.535 . S
C981 C258 1.535 . S
C995 C342 1.582 . S
C999 C286 1.582 . S
C1013 C370 1.517 . S
C1017 C426 1.516 . S
C1031 C147 1.392 . S
C1035 C7 1.389 . S
C1049 C21 1.391 . S
C1053 C161 1.390 . S
C1067 C119 1.338 . S
C1071 C35 1.335 . S
C1085 C133 1.337 . S
C1089 C49 1.330 . S
C1103 C63 1.389 . S
C1107 C203 1.393 . S
C1121 C77 1.389 . S
C1125 C217 1.392 . S
C1139 C175 1.336 . S
C1143 C91 1.332 . S
C1157 C105 1.335 . S
C1161 C189 1.334 . S
C1175 C371 1.339 . S
C1179 C231 1.330 . S
C1193 C385 1.337 . S
C1197 C245 1.335 . S
C1211 C259 1.394 . S
C1215 C343 1.392 . S
C1229 C273 1.394 . S
C1233 C357 1.393 . S
C1247 C287 1.335 . S
C1251 C427 1.333 . S
C1265 C301 1.341 . S
C1269 C441 1.332 . S
C1283 C399 1.390 . S
C1287 C315 1.391 . S
C1301 C413 1.389 . S
C1305 C329 1.392 . S
C1319 C9 1.567 . S
C1323 C359 1.568 . S
C1337 C345 1.559 . S
C1341 C23 1.549 1_655 S
C1355 C37 1.533 . S
C1359 C387 1.538 . S
C1373 C51 1.538 1_655 S
C1377 C373 1.534 . S
C1391 C65 1.559 . S
C1395 C415 1.561 . S
C1409 C79 1.543 1_455 S
C1413 C401 1.564 . S
C1427 C443 1.539 . S
C1431 C93 1.538 . S
C1445 C429 1.534 . S
C1449 C107 1.530 1_455 S
C1463 C247 1.567 . S
C1467 C121 1.564 . S
C1481 C233 1.566 . S
C1485 C135 1.561 1_655 S
C1499 C149 1.541 . S
C1503 C275 1.545 . S
C1517 C163 1.544 1_655 S
C1521 C261 1.539 . S
C1535 C303 1.558 . S
C1539 C177 1.562 . S
C1553 C191 1.567 1_455 S
C1557 C289 1.566 . S
C1571 C205 1.541 . S
C1575 C331 1.537 . S
C1589 C219 1.543 1_455 S
C1593 C317 1.546 . S
