# Generated by pormake.
# Topology umh, (4)-cn, num edge types: 1
# Building blocks:
#     Node 0, Type 0, BuildingBlock: KOZSID_clean_sbu_0, # of connection points: 4
#     Node 1, Type 0, BuildingBlock: KOZSID_clean_sbu_0, # of connection points: 4
#     Node 2, Type 0, BuildingBlock: KOZSID_clean_sbu_0, # of connection points: 4
#     Node 3, Type 0, BuildingBlock: KOZSID_clean_sbu_0, # of connection points: 4
#     Node 4, Type 0, BuildingBlock: KOZSID_clean_sbu_0, # of connection points: 4
#     Node 5, Type 0, BuildingBlock: KOZSID_clean_sbu_0, # of connection points: 4
#     Node 6, Type 0, BuildingBlock: KOZSID_clean_sbu_0, # of connection points: 4
#     Node 7, Type 0, BuildingBlock: KOZSID_clean_sbu_0, # of connection points: 4
#     Node 8, Type 0, BuildingBlock: KOZSID_clean_sbu_0, # of connection points: 4
#     Node 9, Type 0, BuildingBlock: KOZSID_clean_sbu_0, # of connection points: 4
#     Node 10, Type 0, BuildingBlock: KOZSID_clean_sbu_0, # of connection points: 4
#     Node 11, Type 0, BuildingBlock: KOZSID_clean_sbu_0, # of connection points: 4
#     Node 12, Type 0, BuildingBlock: KOZSID_clean_sbu_0, # of connection points: 4
#     Node 13, Type 0, BuildingBlock: KOZSID_clean_sbu_0, # of connection points: 4
#     Node 14, Type 0, BuildingBlock: KOZSID_clean_sbu_0, # of connection points: 4
#     Node 15, Type 0, BuildingBlock: KOZSID_clean_sbu_0, # of connection points: 4
#     Edge 16, Type (0, 0), BuildingBlock: CIFDUS_clean_linker_0, # of connection points: 2
#     Edge 17, Type (0, 0), BuildingBlock: CIFDUS_clean_linker_0, # of connection points: 2
#     Edge 18, Type (0, 0), BuildingBlock: CIFDUS_clean_linker_0, # of connection points: 2
#     Edge 19, Type (0, 0), BuildingBlock: CIFDUS_clean_linker_0, # of connection points: 2
#     Edge 20, Type (0, 0), BuildingBlock: CIFDUS_clean_linker_0, # of connection points: 2
#     Edge 21, Type (0, 0), BuildingBlock: CIFDUS_clean_linker_0, # of connection points: 2
#     Edge 22, Type (0, 0), BuildingBlock: CIFDUS_clean_linker_0, # of connection points: 2
#     Edge 23, Type (0, 0), BuildingBlock: CIFDUS_clean_linker_0, # of connection points: 2
#     Edge 24, Type (0, 0), BuildingBlock: CIFDUS_clean_linker_0, # of connection points: 2
#     Edge 25, Type (0, 0), BuildingBlock: CIFDUS_clean_linker_0, # of connection points: 2
#     Edge 26, Type (0, 0), BuildingBlock: CIFDUS_clean_linker_0, # of connection points: 2
#     Edge 27, Type (0, 0), BuildingBlock: CIFDUS_clean_linker_0, # of connection points: 2
#     Edge 28, Type (0, 0), BuildingBlock: CIFDUS_clean_linker_0, # of connection points: 2
#     Edge 29, Type (0, 0), BuildingBlock: CIFDUS_clean_linker_0, # of connection points: 2
#     Edge 30, Type (0, 0), BuildingBlock: CIFDUS_clean_linker_0, # of connection points: 2
#     Edge 31, Type (0, 0), BuildingBlock: CIFDUS_clean_linker_0, # of connection points: 2
#     Edge 32, Type (0, 0), BuildingBlock: CIFDUS_clean_linker_0, # of connection points: 2
#     Edge 33, Type (0, 0), BuildingBlock: CIFDUS_clean_linker_0, # of connection points: 2
#     Edge 34, Type (0, 0), BuildingBlock: CIFDUS_clean_linker_0, # of connection points: 2
#     Edge 35, Type (0, 0), BuildingBlock: CIFDUS_clean_linker_0, # of connection points: 2
#     Edge 36, Type (0, 0), BuildingBlock: CIFDUS_clean_linker_0, # of connection points: 2
#     Edge 37, Type (0, 0), BuildingBlock: CIFDUS_clean_linker_0, # of connection points: 2
#     Edge 38, Type (0, 0), BuildingBlock: CIFDUS_clean_linker_0, # of connection points: 2
#     Edge 39, Type (0, 0), BuildingBlock: CIFDUS_clean_linker_0, # of connection points: 2
#     Edge 40, Type (0, 0), BuildingBlock: CIFDUS_clean_linker_0, # of connection points: 2
#     Edge 41, Type (0, 0), BuildingBlock: CIFDUS_clean_linker_0, # of connection points: 2
#     Edge 42, Type (0, 0), BuildingBlock: CIFDUS_clean_linker_0, # of connection points: 2
#     Edge 43, Type (0, 0), BuildingBlock: CIFDUS_clean_linker_0, # of connection points: 2
#     Edge 44, Type (0, 0), BuildingBlock: CIFDUS_clean_linker_0, # of connection points: 2
#     Edge 45, Type (0, 0), BuildingBlock: CIFDUS_clean_linker_0, # of connection points: 2
#     Edge 46, Type (0, 0), BuildingBlock: CIFDUS_clean_linker_0, # of connection points: 2
#     Edge 47, Type (0, 0), BuildingBlock: CIFDUS_clean_linker_0, # of connection points: 2
# Relax obj value: 0.073
# Max RMSD: 0.156
# Mean RMSD: 0.156
data_MOF--net-umh--node1-KOZSID_clean_sbu_0--edge1-CIFDUS_clean_linker_0
_symmetry_space_group_name_H-M    P1
_symmetry_Int_Tables_number       1
_symmetry_cell_setting            triclinic
loop_
_symmetry_equiv_pos_as_xyz
'x, y, z'
_cell_length_a     48.980778
_cell_length_b     49.023518
_cell_length_c     52.613963
_cell_angle_alpha  89.939709
_cell_angle_beta   90.057671
_cell_angle_gamma 89.958422
loop_
_atom_site_label
_atom_site_type_symbol
_atom_site_fract_x
_atom_site_fract_y
_atom_site_fract_z
_atom_type_partial_charge
C0 C 0.30303 0.08232 0.16941 0.0
C1 C 0.27968 0.06619 0.16994 0.0
C2 C 0.2775 0.05423 0.14654 0.0
C3 C 0.29925 0.06394 0.1329 0.0
N4 N 0.31495 0.08135 0.14624 0.0
Co5 Co 0.34701 0.10157 0.13324 0.0
N6 N 0.33548 0.09566 0.09756 0.0
C7 C 0.31783 0.07656 0.08934 0.0
C8 C 0.31371 0.07734 0.06357 0.0
C9 C 0.32997 0.09807 0.05499 0.0
C10 C 0.34328 0.10872 0.07614 0.0
N11 N 0.37905 0.12172 0.1201 0.0
C12 C 0.38359 0.13223 0.09662 0.0
C13 C 0.40925 0.14411 0.09533 0.0
C14 C 0.4211 0.14066 0.11883 0.0
C15 C 0.40211 0.12687 0.13314 0.0
N16 N 0.35817 0.10711 0.16907 0.0
C17 C 0.38344 0.11357 0.17706 0.0
C18 C 0.38494 0.11609 0.20306 0.0
C19 C 0.35901 0.11076 0.21182 0.0
C20 C 0.34306 0.10536 0.19062 0.0
N21 N 0.36892 0.06731 0.13216 0.0
C22 C 0.40634 0.02279 0.13211 0.0
C23 C 0.38934 0.02803 0.15313 0.0
C24 C 0.37068 0.0501 0.15268 0.0
C25 C 0.40348 0.04017 0.11101 0.0
C26 C 0.38492 0.06201 0.1114 0.0
N27 N 0.32627 0.13633 0.13437 0.0
C28 C 0.3256 0.18409 0.14583 0.0
C29 C 0.30023 0.1882 0.13394 0.0
C30 C 0.28773 0.16508 0.12301 0.0
C31 C 0.301 0.1394 0.12351 0.0
C32 C 0.33821 0.1585 0.14556 0.0
H33 H 0.29107 0.12216 0.11471 0.0
H34 H 0.35805 0.15689 0.15423 0.0
H35 H 0.3581 0.05357 0.16921 0.0
H36 H 0.38423 0.07512 0.09498 0.0
C37 C 0.30211 0.06176 0.1066 0.0
C38 C 0.31426 0.09677 0.19157 0.0
C39 C 0.36495 0.12928 0.07485 0.0
C40 C 0.40338 0.12192 0.15947 0.0
H41 H 0.26548 0.06341 0.18545 0.0
H42 H 0.2611 0.04129 0.13986 0.0
H43 H 0.29978 0.06504 0.05245 0.0
H44 H 0.33198 0.10438 0.03537 0.0
H45 H 0.41849 0.15394 0.07905 0.0
H46 H 0.44089 0.14801 0.12492 0.0
H47 H 0.40244 0.1222 0.21425 0.0
H48 H 0.35258 0.11081 0.23149 0.0
H49 H 0.3903 0.01511 0.1698 0.0
H50 H 0.41613 0.03748 0.09433 0.0
H51 H 0.33602 0.20064 0.15536 0.0
H52 H 0.26819 0.16685 0.11354 0.0
C53 C 0.44146 0.30235 0.66922 0.0
C54 C 0.45881 0.27987 0.66922 0.0
C55 C 0.47167 0.2796 0.64616 0.0
C56 C 0.46122 0.30152 0.63319 0.0
N57 N 0.44249 0.31551 0.64661 0.0
Co58 Co 0.42084 0.34704 0.63426 0.0
N59 N 0.42854 0.33767 0.5983 0.0
C60 C 0.44913 0.32172 0.59011 0.0
C61 C 0.45043 0.31974 0.56418 0.0
C62 C 0.42952 0.33566 0.55542 0.0
C63 C 0.41647 0.34647 0.57665 0.0
N64 N 0.39924 0.37856 0.62186 0.0
C65 C 0.38943 0.38397 0.59826 0.0
C66 C 0.37523 0.4085 0.59807 0.0
C67 C 0.37685 0.41896 0.62223 0.0
C68 C 0.39174 0.40025 0.63589 0.0
N69 N 0.41354 0.35597 0.67038 0.0
C70 C 0.40509 0.38025 0.67925 0.0
C71 C 0.4016 0.38023 0.70518 0.0
C72 C 0.40836 0.35432 0.713 0.0
C73 C 0.41552 0.3399 0.69134 0.0
N74 N 0.45391 0.37068 0.63489 0.0
C75 C 0.49844 0.40797 0.63573 0.0
C76 C 0.49314 0.39049 0.65641 0.0
C77 C 0.47102 0.3719 0.65553 0.0
C78 C 0.48081 0.40609 0.61476 0.0
C79 C 0.45896 0.38765 0.61472 0.0
N80 N 0.38735 0.32437 0.6335 0.0
C81 C 0.33923 0.31943 0.64315 0.0
C82 C 0.33797 0.294 0.63092 0.0
C83 C 0.36249 0.28413 0.62022 0.0
C84 C 0.38681 0.29944 0.62183 0.0
C85 C 0.36377 0.33417 0.64407 0.0
H86 H 0.40512 0.29125 0.61337 0.0
H87 H 0.36348 0.35372 0.65335 0.0
H88 H 0.46761 0.35869 0.67166 0.0
H89 H 0.44588 0.38756 0.59829 0.0
C90 C 0.4642 0.30597 0.60717 0.0
C91 C 0.42578 0.31166 0.69142 0.0
C92 C 0.39522 0.3676 0.57537 0.0
C93 C 0.39577 0.40037 0.66233 0.0
H94 H 0.46184 0.26501 0.68416 0.0
H95 H 0.48574 0.26431 0.63918 0.0
H96 H 0.46451 0.30772 0.55297 0.0
H97 H 0.42503 0.3394 0.53559 0.0
H98 H 0.36506 0.41802 0.58209 0.0
H99 H 0.36762 0.43759 0.62913 0.0
H100 H 0.39388 0.39666 0.71688 0.0
H101 H 0.40802 0.34687 0.73237 0.0
H102 H 0.50619 0.39086 0.67303 0.0
H103 H 0.48352 0.41924 0.5984 0.0
H104 H 0.32142 0.32802 0.65231 0.0
H105 H 0.36297 0.26485 0.61024 0.0
C106 C 0.22381 0.43751 0.16857 0.0
C107 C 0.24926 0.45007 0.16776 0.0
C108 C 0.25216 0.46069 0.14392 0.0
C109 C 0.22884 0.45357 0.13118 0.0
N110 N 0.21124 0.43926 0.14564 0.0
Co111 Co 0.17673 0.42205 0.1338 0.0
N112 N 0.18791 0.42466 0.09764 0.0
C113 C 0.21012 0.43764 0.08862 0.0
C114 C 0.21745 0.42904 0.06482 0.0
C115 C 0.19824 0.41011 0.05822 0.0
C116 C 0.17921 0.4094 0.07781 0.0
N117 N 0.14181 0.40565 0.12201 0.0
C118 C 0.13331 0.39913 0.09811 0.0
C119 C 0.10514 0.3952 0.09785 0.0
C120 C 0.09607 0.39847 0.12224 0.0
C121 C 0.11882 0.40493 0.13608 0.0
N122 N 0.16643 0.41871 0.17011 0.0
C123 C 0.14102 0.41525 0.1791 0.0
C124 C 0.14025 0.4132 0.20514 0.0
C125 C 0.16693 0.41551 0.21295 0.0
C126 C 0.18251 0.41876 0.19114 0.0
N127 N 0.15856 0.45849 0.13186 0.0
C128 C 0.12329 0.50484 0.13079 0.0
C129 C 0.139 0.49841 0.15246 0.0
C130 C 0.15663 0.47546 0.15251 0.0
C131 C 0.12677 0.48793 0.10949 0.0
C132 C 0.14437 0.46536 0.11032 0.0
N133 N 0.19382 0.38537 0.13558 0.0
C134 C 0.1906 0.33745 0.14651 0.0
C135 C 0.21622 0.33173 0.13554 0.0
C136 C 0.23048 0.35407 0.12515 0.0
C137 C 0.21918 0.38048 0.12564 0.0
C138 C 0.1798 0.36404 0.14613 0.0
H139 H 0.23093 0.39686 0.11754 0.0
H140 H 0.15988 0.36728 0.15431 0.0
H141 H 0.1681 0.47106 0.16958 0.0
H142 H 0.14542 0.45285 0.09359 0.0
C143 C 0.22713 0.45228 0.10481 0.0
C144 C 0.21208 0.42403 0.19111 0.0
C145 C 0.15095 0.3991 0.07514 0.0
C146 C 0.11951 0.40993 0.16232 0.0
H147 H 0.26493 0.45058 0.18218 0.0
H148 H 0.27036 0.46998 0.13609 0.0
H149 H 0.23551 0.43458 0.05416 0.0
H150 H 0.19784 0.39894 0.04051 0.0
H151 H 0.0919 0.39172 0.08177 0.0
H152 H 0.07523 0.39704 0.12892 0.0
H153 H 0.12258 0.40952 0.21699 0.0
H154 H 0.17409 0.41508 0.23241 0.0
H155 H 0.1377 0.51096 0.16933 0.0
H156 H 0.11519 0.4914 0.09224 0.0
H157 H 0.17875 0.32156 0.15554 0.0
H158 H 0.25011 0.35132 0.11612 0.0
C159 C 0.0817 0.22139 0.66731 0.0
C160 C 0.06439 0.2439 0.66745 0.0
C161 C 0.05142 0.24433 0.64441 0.0
C162 C 0.06173 0.22245 0.63136 0.0
N163 N 0.08045 0.20831 0.64471 0.0
Co164 Co 0.10176 0.17661 0.63234 0.0
N165 N 0.09402 0.18613 0.59638 0.0
C166 C 0.0736 0.20237 0.58823 0.0
C167 C 0.07219 0.20442 0.56231 0.0
C168 C 0.09282 0.18822 0.5535 0.0
C169 C 0.10582 0.17716 0.57469 0.0
N170 N 0.123 0.14489 0.61993 0.0
C171 C 0.13251 0.13929 0.59628 0.0
C172 C 0.14644 0.11461 0.59611 0.0
C173 C 0.14492 0.10422 0.62031 0.0
C174 C 0.13038 0.12312 0.63399 0.0
N175 N 0.10912 0.16756 0.66844 0.0
C176 C 0.11739 0.1432 0.67735 0.0
C177 C 0.12108 0.14321 0.70326 0.0
C178 C 0.11467 0.16921 0.71103 0.0
C179 C 0.1075 0.18367 0.68936 0.0
N180 N 0.06847 0.15329 0.63305 0.0
C181 C 0.02358 0.11645 0.63406 0.0
C182 C 0.02914 0.1339 0.65469 0.0
C183 C 0.05144 0.15225 0.65372 0.0
C184 C 0.04114 0.11814 0.61306 0.0
C185 C 0.06316 0.13638 0.61293 0.0
N186 N 0.13545 0.19898 0.63157 0.0
C187 C 0.18355 0.20363 0.64153 0.0
C188 C 0.18492 0.22926 0.62963 0.0
C189 C 0.1605 0.23933 0.61884 0.0
C190 C 0.13613 0.22404 0.62012 0.0
C191 C 0.15898 0.18894 0.64214 0.0
H192 H 0.11787 0.23242 0.61166 0.0
H193 H 0.15916 0.16927 0.65124 0.0
H194 H 0.05505 0.16543 0.66982 0.0
H195 H 0.07616 0.13634 0.59647 0.0
C196 C 0.05868 0.21816 0.60533 0.0
C197 C 0.09764 0.21205 0.68936 0.0
C198 C 0.12661 0.15559 0.57333 0.0
C199 C 0.12646 0.12301 0.66044 0.0
H200 H 0.06149 0.25868 0.68245 0.0
H201 H 0.03737 0.2597 0.6375 0.0
H202 H 0.05818 0.21661 0.55113 0.0
H203 H 0.09711 0.18443 0.53365 0.0
H204 H 0.15632 0.10492 0.5801 0.0
H205 H 0.15397 0.08547 0.62722 0.0
H206 H 0.12874 0.12673 0.71497 0.0
H207 H 0.11528 0.1767 0.73037 0.0
H208 H 0.01615 0.13368 0.67133 0.0
H209 H 0.03825 0.105 0.59674 0.0
H210 H 0.20128 0.19487 0.65072 0.0
H211 H 0.16011 0.25876 0.60909 0.0
C212 C 0.30096 0.44301 0.33457 0.0
C213 C 0.27883 0.46078 0.3337 0.0
C214 C 0.27759 0.47341 0.35686 0.0
C215 C 0.29868 0.46249 0.37069 0.0
N216 N 0.31304 0.4437 0.35769 0.0
Co217 Co 0.34392 0.42183 0.37096 0.0
N218 N 0.333 0.42917 0.40654 0.0
C219 C 0.31665 0.44954 0.41446 0.0
C220 C 0.31244 0.44932 0.44022 0.0
C221 C 0.32726 0.42762 0.44907 0.0
C222 C 0.33991 0.41587 0.4281 0.0
N223 N 0.37476 0.40005 0.38435 0.0
C224 C 0.37862 0.38952 0.40792 0.0
C225 C 0.40348 0.37602 0.40937 0.0
C226 C 0.41549 0.3784 0.38584 0.0
C227 C 0.3974 0.39322 0.37137 0.0
N228 N 0.35447 0.41486 0.33524 0.0
C229 C 0.37923 0.40666 0.32727 0.0
C230 C 0.38031 0.40339 0.30133 0.0
C231 C 0.35466 0.41004 0.29259 0.0
C232 C 0.33927 0.41694 0.31374 0.0
N233 N 0.36766 0.45477 0.37148 0.0
C234 C 0.40566 0.49868 0.37189 0.0
C235 C 0.38874 0.49375 0.35072 0.0
C236 C 0.36981 0.47194 0.35097 0.0
C237 C 0.40272 0.48108 0.3928 0.0
C238 C 0.38388 0.45956 0.39223 0.0
N239 N 0.3212 0.38843 0.37062 0.0
C240 C 0.31707 0.34032 0.36089 0.0
C241 C 0.29137 0.33877 0.37262 0.0
C242 C 0.28086 0.36318 0.38297 0.0
C243 C 0.29592 0.38766 0.38161 0.0
C244 C 0.33155 0.36498 0.36026 0.0
H245 H 0.28728 0.40589 0.38984 0.0
H246 H 0.35141 0.36489 0.35152 0.0
H247 H 0.35715 0.46876 0.33442 0.0
H248 H 0.38293 0.4464 0.40862 0.0
C249 C 0.30184 0.46505 0.39696 0.0
C250 C 0.31098 0.42715 0.31276 0.0
C251 C 0.36018 0.39389 0.4296 0.0
C252 C 0.39877 0.3975 0.34495 0.0
H253 H 0.26482 0.46422 0.31812 0.0
H254 H 0.26219 0.48766 0.36328 0.0
H255 H 0.29927 0.46262 0.45115 0.0
H256 H 0.3287 0.42135 0.46875 0.0
H257 H 0.41209 0.36577 0.42575 0.0
H258 H 0.43472 0.36963 0.37984 0.0
H259 H 0.3973 0.39592 0.29019 0.0
H260 H 0.34803 0.40984 0.27296 0.0
H261 H 0.38986 0.50679 0.33414 0.0
H262 H 0.41537 0.48349 0.40953 0.0
H263 H 0.32613 0.32263 0.35196 0.0
H264 H 0.26132 0.36345 0.39253 0.0
C265 C 0.09003 0.29958 0.83236 0.0
C266 C 0.07768 0.27404 0.83272 0.0
C267 C 0.06542 0.27131 0.85587 0.0
C268 C 0.07146 0.29484 0.8687 0.0
N269 N 0.08673 0.31234 0.85501 0.0
Co270 Co 0.1029 0.34702 0.86754 0.0
N271 N 0.09743 0.33638 0.9036 0.0
C272 C 0.08359 0.3144 0.91198 0.0
C273 C 0.09041 0.30719 0.93633 0.0
C274 C 0.10911 0.32616 0.9439 0.0
C275 C 0.11141 0.34505 0.92427 0.0
N276 N 0.11837 0.38202 0.88 0.0
C277 C 0.12366 0.39053 0.90414 0.0
C278 C 0.12763 0.41866 0.90451 0.0
C279 C 0.1257 0.42767 0.87995 0.0
C280 C 0.11995 0.40492 0.86588 0.0
N281 N 0.10897 0.35697 0.83142 0.0
C282 C 0.11292 0.38233 0.82248 0.0
C283 C 0.1165 0.38301 0.79659 0.0
C284 C 0.11462 0.35633 0.78882 0.0
C285 C 0.11005 0.34083 0.81049 0.0
N286 N 0.06642 0.36504 0.86662 0.0
C287 C 0.02159 0.40164 0.86162 0.0
C288 C 0.02915 0.38391 0.84176 0.0
C289 C 0.05123 0.36565 0.84473 0.0
C290 C 0.0359 0.39892 0.88465 0.0
C291 C 0.05794 0.38061 0.88677 0.0
N292 N 0.13967 0.33004 0.86839 0.0
C293 C 0.18803 0.33286 0.85919 0.0
C294 C 0.19313 0.30731 0.87053 0.0
C295 C 0.17032 0.29337 0.88043 0.0
C296 C 0.14398 0.30485 0.87892 0.0
C297 C 0.16153 0.34385 0.85858 0.0
H298 H 0.12718 0.29332 0.88655 0.0
H299 H 0.15877 0.36367 0.85007 0.0
H300 H 0.05676 0.3529 0.82883 0.0
H301 H 0.06897 0.38025 0.90447 0.0
C302 C 0.07045 0.29708 0.89501 0.0
C303 C 0.10434 0.31134 0.81029 0.0
C304 C 0.12263 0.37293 0.92712 0.0
C305 C 0.11684 0.40401 0.83938 0.0
H306 H 0.07821 0.25829 0.8184 0.0
H307 H 0.05561 0.25321 0.86329 0.0
H308 H 0.08414 0.28915 0.94666 0.0
H309 H 0.1194 0.32619 0.96209 0.0
H310 H 0.13042 0.43182 0.92075 0.0
H311 H 0.12769 0.44846 0.87324 0.0
H312 H 0.12076 0.40064 0.78485 0.0
H313 H 0.11606 0.34916 0.76942 0.0
H314 H 0.0184 0.38442 0.82378 0.0
H315 H 0.03109 0.41185 0.9007 0.0
H316 H 0.2043 0.34449 0.85053 0.0
H317 H 0.17259 0.27382 0.88973 0.0
C318 C 0.22547 0.08363 0.33467 0.0
C319 C 0.24937 0.06825 0.33494 0.0
C320 C 0.24967 0.05403 0.35734 0.0
C321 C 0.22651 0.06195 0.36992 0.0
N322 N 0.21173 0.08037 0.35679 0.0
Co323 Co 0.17935 0.10032 0.36949 0.0
N324 N 0.18885 0.09195 0.40519 0.0
C325 C 0.20538 0.07174 0.41316 0.0
C326 C 0.20823 0.07099 0.43909 0.0
C327 C 0.19234 0.09192 0.44795 0.0
C328 C 0.18051 0.1042 0.42679 0.0
N329 N 0.14712 0.12033 0.38223 0.0
C330 C 0.1421 0.1302 0.40582 0.0
C331 C 0.11672 0.1427 0.40672 0.0
C332 C 0.10558 0.14037 0.38278 0.0
C333 C 0.12471 0.12657 0.36863 0.0
N334 N 0.1701 0.10828 0.3337 0.0
C335 C 0.14529 0.11538 0.32495 0.0
C336 C 0.14524 0.11968 0.29912 0.0
C337 C 0.17165 0.11495 0.29134 0.0
C338 C 0.18647 0.10816 0.31294 0.0
N339 N 0.15704 0.06645 0.36793 0.0
C340 C 0.12066 0.02134 0.36424 0.0
C341 C 0.12115 0.03825 0.38579 0.0
C342 C 0.13933 0.06038 0.38728 0.0
C343 C 0.13962 0.02729 0.34486 0.0
C344 C 0.1575 0.04977 0.34705 0.0
N345 N 0.20072 0.13456 0.37104 0.0
C346 C 0.20416 0.18282 0.36161 0.0
C347 C 0.22973 0.18467 0.37361 0.0
C348 C 0.24033 0.16043 0.38427 0.0
C349 C 0.22569 0.13573 0.38265 0.0
C350 C 0.19007 0.15793 0.36072 0.0
H351 H 0.23449 0.1176 0.39095 0.0
H352 H 0.1704 0.1577 0.35157 0.0
H353 H 0.13862 0.07292 0.40409 0.0
H354 H 0.17133 0.05399 0.33157 0.0
C355 C 0.2219 0.05786 0.39585 0.0
C356 C 0.21553 0.10015 0.31303 0.0
C357 C 0.16009 0.12604 0.42789 0.0
C358 C 0.12456 0.12302 0.34207 0.0
H359 H 0.26554 0.06767 0.32102 0.0
H360 H 0.26595 0.04116 0.36442 0.0
H361 H 0.22132 0.05772 0.45017 0.0
H362 H 0.18982 0.09742 0.46771 0.0
H363 H 0.10721 0.15227 0.423 0.0
H364 H 0.08627 0.14858 0.37631 0.0
H365 H 0.1284 0.12668 0.28749 0.0
H366 H 0.17915 0.1164 0.27204 0.0
H367 H 0.1076 0.03444 0.40164 0.0
H368 H 0.14024 0.01512 0.32772 0.0
H369 H 0.195 0.20039 0.35252 0.0
H370 H 0.25972 0.16041 0.39414 0.0
C371 C 0.43755 0.22294 0.83451 0.0
C372 C 0.45178 0.2475 0.83476 0.0
C373 C 0.46588 0.24847 0.85719 0.0
C374 C 0.459 0.22499 0.86978 0.0
N375 N 0.44135 0.20934 0.85668 0.0
Co376 Co 0.42288 0.17609 0.86949 0.0
N377 N 0.43096 0.18586 0.90527 0.0
C378 C 0.45052 0.20327 0.91298 0.0
C379 C 0.4527 0.20504 0.93888 0.0
C380 C 0.43349 0.18743 0.94811 0.0
C381 C 0.42045 0.17594 0.92717 0.0
N382 N 0.40442 0.14286 0.8823 0.0
C383 C 0.3957 0.13665 0.9061 0.0
C384 C 0.38367 0.11101 0.90651 0.0
C385 C 0.38569 0.10069 0.88231 0.0
C386 C 0.39858 0.12058 0.86839 0.0
N387 N 0.41521 0.1667 0.83359 0.0
C388 C 0.409 0.14172 0.82479 0.0
C389 C 0.40472 0.14155 0.79897 0.0
C390 C 0.40851 0.16807 0.79118 0.0
C391 C 0.41474 0.18306 0.81278 0.0
N392 N 0.45764 0.15508 0.86774 0.0
C393 C 0.50188 0.11781 0.86257 0.0
C394 C 0.49527 0.13658 0.8432 0.0
C395 C 0.47339 0.15509 0.84623 0.0
C396 C 0.48644 0.11924 0.88501 0.0
C397 C 0.46466 0.13778 0.88718 0.0
N398 N 0.38764 0.19595 0.87106 0.0
C399 C 0.33945 0.19659 0.86106 0.0
C400 C 0.33576 0.22188 0.8731 0.0
C401 C 0.3592 0.23419 0.88367 0.0
C402 C 0.38488 0.22096 0.8824 0.0
C403 C 0.36507 0.18403 0.86053 0.0
H404 H 0.40243 0.23081 0.89076 0.0
H405 H 0.36645 0.16441 0.8515 0.0
H406 H 0.46865 0.16881 0.83076 0.0
H407 H 0.4528 0.13721 0.9044 0.0
C408 C 0.46339 0.22049 0.89563 0.0
C409 C 0.42172 0.21233 0.81277 0.0
C410 C 0.40064 0.15353 0.92886 0.0
C411 C 0.40203 0.12079 0.84185 0.0
H412 H 0.4517 0.2636 0.82075 0.0
H413 H 0.47801 0.26528 0.86426 0.0
H414 H 0.4662 0.21803 0.94978 0.0
H415 H 0.43006 0.18314 0.96802 0.0
H416 H 0.37468 0.10067 0.92263 0.0
H417 H 0.37795 0.08133 0.87556 0.0
H418 H 0.39832 0.12451 0.78734 0.0
H419 H 0.4068 0.17553 0.77188 0.0
H420 H 0.50674 0.13686 0.82562 0.0
H421 H 0.49031 0.10527 0.90055 0.0
H422 H 0.32261 0.18629 0.85183 0.0
H423 H 0.35774 0.25364 0.89328 0.0
C424 C 0.67782 0.90715 0.8122 0.0
C425 C 0.6626 0.89703 0.79203 0.0
C426 C 0.6364 0.89329 0.80086 0.0
C427 C 0.63689 0.90082 0.826 0.0
N428 N 0.66185 0.90905 0.83334 0.0
Co429 Co 0.67315 0.91665 0.86883 0.0
N430 N 0.64188 0.89651 0.88338 0.0
C431 C 0.61866 0.89052 0.87093 0.0
C432 C 0.60018 0.87708 0.88609 0.0
C433 C 0.61255 0.87482 0.90951 0.0
C434 C 0.63802 0.88697 0.90733 0.0
N435 N 0.68535 0.92432 0.90397 0.0
C436 C 0.6784 0.91203 0.92607 0.0
C437 C 0.69172 0.92421 0.94645 0.0
C438 C 0.70697 0.94519 0.93667 0.0
C439 C 0.70231 0.94459 0.91095 0.0
N440 N 0.704 0.93725 0.85448 0.0
C441 C 0.7177 0.95739 0.86619 0.0
C442 C 0.73661 0.96962 0.85065 0.0
C443 C 0.73461 0.95618 0.82783 0.0
C444 C 0.71479 0.93619 0.83091 0.0
N445 N 0.6506 0.95048 0.86918 0.0
C446 C 0.61549 0.99684 0.87013 0.0
C447 C 0.618 0.97924 0.89111 0.0
C448 C 0.63543 0.95656 0.89029 0.0
C449 C 0.63114 0.99041 0.84848 0.0
C450 C 0.64856 0.96733 0.84842 0.0
N451 N 0.69459 0.88242 0.86849 0.0
C452 C 0.73555 0.85582 0.87615 0.0
C453 C 0.72302 0.8322 0.86635 0.0
C454 C 0.69591 0.83441 0.85822 0.0
C455 C 0.68222 0.85931 0.85952 0.0
C456 C 0.72102 0.8808 0.87691 0.0
H457 H 0.66144 0.85974 0.85298 0.0
H458 H 0.73112 0.89879 0.88412 0.0
H459 H 0.63624 0.94367 0.90686 0.0
H460 H 0.66027 0.96303 0.8315 0.0
C461 C 0.61723 0.89355 0.84433 0.0
C462 C 0.70677 0.91638 0.81129 0.0
C463 C 0.65713 0.89108 0.92865 0.0
C464 C 0.71593 0.96029 0.89262 0.0
H465 H 0.66934 0.89185 0.77317 0.0
H466 H 0.61961 0.88402 0.79064 0.0
H467 H 0.58047 0.86902 0.8806 0.0
H468 H 0.60379 0.86552 0.92629 0.0
H469 H 0.69012 0.91894 0.96637 0.0
H470 H 0.72027 0.95885 0.94703 0.0
H471 H 0.75104 0.98545 0.85563 0.0
H472 H 0.74668 0.96025 0.81103 0.0
H473 H 0.60616 0.98261 0.90819 0.0
H474 H 0.63026 1.00328 0.83177 0.0
H475 H 0.75653 0.85517 0.88262 0.0
H476 H 0.68512 0.81681 0.85088 0.0
C477 C 0.61907 0.6728 0.31013 0.0
C478 C 0.63127 0.65722 0.29122 0.0
C479 C 0.63481 0.63143 0.30093 0.0
C480 C 0.62543 0.63256 0.32547 0.0
N481 N 0.61646 0.65764 0.33174 0.0
Co482 Co 0.60644 0.66957 0.36657 0.0
N483 N 0.62525 0.6383 0.38281 0.0
C484 C 0.63224 0.61496 0.37113 0.0
C485 C 0.64478 0.59679 0.3873 0.0
C486 C 0.64546 0.60953 0.41059 0.0
C487 C 0.63333 0.63486 0.4073 0.0
N488 N 0.59621 0.68196 0.4011 0.0
C489 C 0.60687 0.67516 0.424 0.0
C490 C 0.59323 0.68856 0.44348 0.0
C491 C 0.57307 0.70385 0.43227 0.0
C492 C 0.57558 0.69908 0.40667 0.0
N493 N 0.58735 0.70071 0.35054 0.0
C494 C 0.56674 0.71483 0.36114 0.0
C495 C 0.55515 0.73331 0.34477 0.0
C496 C 0.56938 0.73061 0.3225 0.0
C497 C 0.58931 0.71086 0.32664 0.0
N498 N 0.57245 0.64743 0.36472 0.0
C499 C 0.52728 0.61113 0.36083 0.0
C500 C 0.54232 0.61368 0.38348 0.0
C501 C 0.56458 0.63176 0.38502 0.0
C502 C 0.53512 0.62802 0.34041 0.0
C503 C 0.55753 0.64591 0.34273 0.0
N504 N 0.64085 0.69062 0.36843 0.0
C505 C 0.66772 0.72993 0.38095 0.0
C506 C 0.6921 0.71717 0.37296 0.0
C507 C 0.68967 0.69124 0.36196 0.0
C508 C 0.66435 0.67839 0.36024 0.0
C509 C 0.64234 0.71637 0.37841 0.0
H510 H 0.66405 0.65816 0.35242 0.0
H511 H 0.62401 0.72647 0.38489 0.0
H512 H 0.57588 0.63243 0.4026 0.0
H513 H 0.5631 0.65815 0.32648 0.0
C514 C 0.63131 0.61324 0.3445 0.0
C515 C 0.60868 0.70123 0.30712 0.0
C516 C 0.62803 0.65437 0.42798 0.0
C517 C 0.56175 0.71299 0.38729 0.0
H518 H 0.63806 0.66361 0.27265 0.0
H519 H 0.64511 0.61454 0.2918 0.0
H520 H 0.6534 0.57712 0.38256 0.0
H521 H 0.6538 0.60114 0.42798 0.0
H522 H 0.59713 0.68713 0.46368 0.0
H523 H 0.55881 0.71739 0.44163 0.0
H524 H 0.5388 0.74755 0.34872 0.0
H525 H 0.5653 0.74177 0.30516 0.0
H526 H 0.5376 0.60112 0.39982 0.0
H527 H 0.5241 0.62744 0.32258 0.0
H528 H 0.6682 0.74994 0.38959 0.0
H529 H 0.70731 0.68057 0.35458 0.0
C530 C 0.84884 0.61574 0.81121 0.0
C531 C 0.86493 0.62834 0.79288 0.0
C532 C 0.89025 0.63232 0.80352 0.0
C533 C 0.88834 0.62275 0.82797 0.0
N534 N 0.86326 0.61311 0.83327 0.0
Co535 Co 0.84995 0.60285 0.86758 0.0
N536 N 0.87983 0.62257 0.88502 0.0
C537 C 0.90354 0.63012 0.87428 0.0
C538 C 0.92064 0.64306 0.89112 0.0
C539 C 0.90681 0.64338 0.91387 0.0
C540 C 0.88193 0.63067 0.9096 0.0
N541 N 0.83597 0.59248 0.90156 0.0
C542 C 0.84138 0.60329 0.9247 0.0
C543 C 0.82722 0.58944 0.94359 0.0
C544 C 0.81298 0.56895 0.93179 0.0
C545 C 0.81906 0.57149 0.90644 0.0
N546 N 0.82028 0.58286 0.85028 0.0
C547 C 0.8062 0.56189 0.86025 0.0
C548 C 0.78852 0.55024 0.84317 0.0
C549 C 0.7917 0.56489 0.82114 0.0
C550 C 0.8109 0.58506 0.82615 0.0
N551 N 0.87314 0.56944 0.86722 0.0
C552 C 0.90828 0.52307 0.86801 0.0
C553 C 0.90466 0.53968 0.88949 0.0
C554 C 0.88723 0.56236 0.88875 0.0
C555 C 0.89387 0.53062 0.84586 0.0
C556 C 0.87642 0.55371 0.84589 0.0
N557 N 0.82779 0.63658 0.86829 0.0
C558 C 0.78661 0.66146 0.87885 0.0
C559 C 0.79916 0.68633 0.87253 0.0
C560 C 0.82597 0.68566 0.86361 0.0
C561 C 0.83982 0.66079 0.86164 0.0
C562 C 0.80127 0.63677 0.87651 0.0
H563 H 0.86061 0.66138 0.85514 0.0
H564 H 0.79139 0.6179 0.88178 0.0
H565 H 0.88546 0.57435 0.9058 0.0
H566 H 0.86562 0.55886 0.82862 0.0
C567 C 0.90658 0.62917 0.84774 0.0
C568 C 0.82056 0.60522 0.80736 0.0
C569 C 0.86177 0.62463 0.92958 0.0
C570 C 0.80668 0.55712 0.88651 0.0
H571 H 0.85914 0.63522 0.77417 0.0
H572 H 0.90724 0.64312 0.79507 0.0
H573 H 0.94033 0.6521 0.88718 0.0
H574 H 0.91423 0.65182 0.93157 0.0
H575 H 0.8275 0.59337 0.96382 0.0
H576 H 0.79933 0.5544 0.9406 0.0
H577 H 0.77427 0.53377 0.84656 0.0
H578 H 0.78105 0.56113 0.80347 0.0
H579 H 0.91556 0.53548 0.90697 0.0
H580 H 0.89568 0.51858 0.82871 0.0
H581 H 0.76583 0.66115 0.88585 0.0
H582 H 0.8364 0.70438 0.85857 0.0
C583 C 0.91619 0.84312 0.31345 0.0
C584 C 0.91092 0.85871 0.29198 0.0
C585 C 0.9064 0.88497 0.30023 0.0
C586 C 0.90928 0.88406 0.32622 0.0
N587 N 0.91531 0.85887 0.33466 0.0
Co588 Co 0.92082 0.84846 0.37068 0.0
N589 N 0.90098 0.88093 0.38329 0.0
C590 C 0.8961 0.90376 0.36983 0.0
C591 C 0.88248 0.92319 0.38375 0.0
C592 C 0.87884 0.91186 0.40745 0.0
C593 C 0.89045 0.88606 0.40667 0.0
N594 N 0.92667 0.83766 0.4066 0.0
C595 C 0.91375 0.84607 0.42793 0.0
C596 C 0.92437 0.83308 0.44926 0.0
C597 C 0.94489 0.81637 0.44091 0.0
C598 C 0.94562 0.81994 0.41506 0.0
N599 N 0.94064 0.81591 0.35801 0.0
C600 C 0.95777 0.80018 0.37168 0.0
C601 C 0.96638 0.77755 0.35868 0.0
C602 C 0.95397 0.77915 0.3354 0.0
C603 C 0.93882 0.80315 0.33518 0.0
N604 N 0.95528 0.87005 0.37149 0.0
C605 C 0.99809 0.9093 0.37067 0.0
C606 C 0.98152 0.90557 0.39215 0.0
C607 C 0.96051 0.88618 0.39219 0.0
C608 C 0.9938 0.89136 0.35012 0.0
C609 C 0.97242 0.8719 0.35095 0.0
N610 N 0.88589 0.82822 0.37003 0.0
C611 C 0.85659 0.79124 0.38382 0.0
C612 C 0.83355 0.80343 0.37232 0.0
C613 C 0.83799 0.82783 0.35892 0.0
C614 C 0.86382 0.83991 0.35837 0.0
C615 C 0.8825 0.80377 0.38224 0.0
H616 H 0.86568 0.85921 0.34874 0.0
H617 H 0.89964 0.79401 0.3914 0.0
H618 H 0.94772 0.88524 0.40876 0.0
H619 H 0.96906 0.85911 0.33451 0.0
C620 C 0.90117 0.90443 0.34349 0.0
C621 C 0.92368 0.81393 0.31302 0.0
C622 C 0.89326 0.86791 0.42885 0.0
C623 C 0.96003 0.80363 0.39796 0.0
H624 H 0.91035 0.85181 0.27245 0.0
H625 H 0.90043 0.9023 0.28874 0.0
H626 H 0.87538 0.94293 0.3773 0.0
H627 H 0.86912 0.92157 0.42354 0.0
H628 H 0.91813 0.83553 0.46885 0.0
H629 H 0.95706 0.80247 0.45223 0.0
H630 H 0.97858 0.76081 0.36588 0.0
H631 H 0.95555 0.76378 0.3208 0.0
H632 H 0.98425 0.91812 0.4089 0.0
H633 H 1.00604 0.8931 0.33309 0.0
H634 H 0.8547 0.77249 0.39453 0.0
H635 H 0.8216 0.83791 0.34882 0.0
C636 C 0.67732 0.621 0.69448 0.0
C637 C 0.6629 0.63506 0.71307 0.0
C638 C 0.63719 0.63968 0.7036 0.0
C639 C 0.63729 0.62903 0.67951 0.0
N640 N 0.66158 0.61814 0.67322 0.0
Co641 Co 0.67232 0.606 0.63859 0.0
N642 N 0.64117 0.62499 0.62205 0.0
C643 C 0.61861 0.63388 0.63407 0.0
C644 C 0.60042 0.64638 0.61796 0.0
C645 C 0.61211 0.64491 0.59431 0.0
C646 C 0.63683 0.63136 0.59723 0.0
N647 N 0.68391 0.59405 0.60419 0.0
C648 C 0.6764 0.60318 0.58084 0.0
C649 C 0.68892 0.58792 0.56187 0.0
C650 C 0.70442 0.56847 0.57379 0.0
C651 C 0.70058 0.57286 0.59927 0.0
N652 N 0.703 0.58634 0.65502 0.0
C653 C 0.71626 0.56488 0.64495 0.0
C654 C 0.73453 0.55318 0.66144 0.0
C655 C 0.73266 0.56825 0.68328 0.0
C656 C 0.71362 0.58875 0.67872 0.0
N657 N 0.64902 0.5729 0.64187 0.0
C658 C 0.61215 0.52828 0.64689 0.0
C659 C 0.615 0.54254 0.62386 0.0
C660 C 0.63332 0.56449 0.62177 0.0
C661 C 0.62883 0.5368 0.66726 0.0
C662 C 0.64703 0.55894 0.66437 0.0
N663 N 0.69466 0.63947 0.63531 0.0
C664 C 0.73721 0.66291 0.62687 0.0
C665 C 0.725 0.68873 0.63082 0.0
C666 C 0.69713 0.68875 0.63707 0.0
C667 C 0.68271 0.66429 0.63963 0.0
C668 C 0.7217 0.63871 0.62889 0.0
H669 H 0.66163 0.66571 0.64508 0.0
H670 H 0.73159 0.61939 0.62537 0.0
H671 H 0.63422 0.57503 0.60382 0.0
H672 H 0.65923 0.56498 0.6805 0.0
C673 C 0.61781 0.63476 0.66069 0.0
C674 C 0.70518 0.60924 0.69767 0.0
C675 C 0.65467 0.62325 0.5759 0.0
C676 C 0.71411 0.55926 0.61899 0.0
H677 H 0.6701 0.64228 0.73124 0.0
H678 H 0.62108 0.65136 0.71253 0.0
H679 H 0.58148 0.65642 0.62293 0.0
H680 H 0.60336 0.65288 0.57693 0.0
H681 H 0.68637 0.5899 0.54153 0.0
H682 H 0.71708 0.5531 0.56492 0.0
H683 H 0.74816 0.53624 0.65782 0.0
H684 H 0.74397 0.56438 0.70058 0.0
H685 H 0.60254 0.5374 0.60756 0.0
H686 H 0.62795 0.52645 0.68542 0.0
H687 H 0.75868 0.6611 0.62245 0.0
H688 H 0.68596 0.70755 0.63973 0.0
C689 C 0.91752 0.68723 0.19083 0.0
C690 C 0.91048 0.67357 0.21298 0.0
C691 C 0.90428 0.64725 0.20613 0.0
C692 C 0.90794 0.6462 0.18025 0.0
N693 N 0.91595 0.67024 0.17044 0.0
Co694 Co 0.9235 0.67744 0.13394 0.0
N695 N 0.90307 0.64464 0.12268 0.0
C696 C 0.89584 0.6236 0.13768 0.0
C697 C 0.88145 0.60392 0.12484 0.0
C698 C 0.87982 0.61303 0.1002 0.0
C699 C 0.89359 0.63776 0.09925 0.0
N700 N 0.93138 0.68498 0.09757 0.0
C701 C 0.91997 0.6746 0.07619 0.0
C702 C 0.93307 0.68456 0.05464 0.0
C703 C 0.95324 0.70169 0.06288 0.0
C704 C 0.95152 0.70117 0.08887 0.0
N705 N 0.94392 0.7103 0.14512 0.0
C706 C 0.96217 0.72426 0.13111 0.0
C707 C 0.97202 0.74697 0.14321 0.0
C708 C 0.95933 0.74727 0.16636 0.0
C709 C 0.94264 0.72436 0.16729 0.0
N710 N 0.95734 0.65493 0.13615 0.0
C711 C 1.00258 0.61868 0.14073 0.0
C712 C 0.98592 0.61887 0.11899 0.0
C713 C 0.96358 0.63684 0.11715 0.0
C714 C 0.99628 0.63774 0.15989 0.0
C715 C 0.97391 0.65573 0.15715 0.0
N716 N 0.88939 0.69903 0.13176 0.0
C717 C 0.86381 0.73823 0.11696 0.0
C718 C 0.83963 0.72874 0.12858 0.0
C719 C 0.84136 0.70386 0.14177 0.0
C720 C 0.86606 0.68939 0.14291 0.0
C721 C 0.88834 0.7233 0.11894 0.0
H722 H 0.86616 0.67028 0.15299 0.0
H723 H 0.90643 0.73134 0.10997 0.0
H724 H 0.95097 0.6355 0.10042 0.0
H725 H 0.96973 0.66996 0.17231 0.0
C726 C 0.89942 0.62506 0.16413 0.0
C727 C 0.92751 0.7156 0.19009 0.0
C728 C 0.89904 0.65312 0.0756 0.0
C729 C 0.96559 0.71846 0.10535 0.0
H730 H 0.90995 0.68176 0.23207 0.0
H731 H 0.8969 0.63116 0.21843 0.0
H732 H 0.87242 0.58557 0.1326 0.0
H733 H 0.8698 0.60253 0.08471 0.0
H734 H 0.929 0.67957 0.03498 0.0
H735 H 0.96708 0.71355 0.05128 0.0
H736 H 0.98573 0.76225 0.13564 0.0
H737 H 0.9621 0.76271 0.18079 0.0
H738 H 0.9895 0.60454 0.10371 0.0
H739 H 1.00858 0.63883 0.17697 0.0
H740 H 0.86395 0.75698 0.10611 0.0
H741 H 0.82386 0.69554 0.15162 0.0
C742 C 0.83924 0.90562 0.69234 0.0
C743 C 0.85278 0.89194 0.71174 0.0
C744 C 0.87898 0.8873 0.7034 0.0
C745 C 0.8801 0.89781 0.67921 0.0
N746 N 0.85617 0.90877 0.67196 0.0
Co747 Co 0.84688 0.92104 0.63703 0.0
N748 N 0.87783 0.90104 0.62156 0.0
C749 C 0.89987 0.89184 0.63425 0.0
C750 C 0.91815 0.87876 0.61868 0.0
C751 C 0.90705 0.88022 0.59472 0.0
C752 C 0.88256 0.89432 0.59692 0.0
N753 N 0.83649 0.93317 0.6024 0.0
C754 C 0.84423 0.9236 0.57935 0.0
C755 C 0.83286 0.93927 0.55998 0.0
C756 C 0.81789 0.95944 0.5714 0.0
C757 C 0.82088 0.95507 0.59699 0.0
N758 N 0.81656 0.94174 0.65241 0.0
C759 C 0.80448 0.96383 0.64225 0.0
C760 C 0.78574 0.97555 0.65828 0.0
C761 C 0.78609 0.95969 0.67979 0.0
C762 C 0.80481 0.9389 0.67546 0.0
N763 N 0.87107 0.95345 0.64059 0.0
C764 C 0.90858 0.99749 0.64575 0.0
C765 C 0.90598 0.98296 0.62287 0.0
C766 C 0.88736 0.9613 0.62071 0.0
C767 C 0.89144 0.98945 0.66594 0.0
C768 C 0.87292 0.96759 0.66298 0.0
N769 N 0.82366 0.8882 0.63355 0.0
C770 C 0.78022 0.86597 0.62623 0.0
C771 C 0.79171 0.84018 0.63133 0.0
C772 C 0.81948 0.83915 0.63735 0.0
C773 C 0.83483 0.86314 0.63866 0.0
C774 C 0.79661 0.88966 0.62709 0.0
H775 H 0.8558 0.86121 0.64437 0.0
H776 H 0.78738 0.90917 0.62288 0.0
H777 H 0.88664 0.95057 0.60288 0.0
H778 H 0.86027 0.96194 0.67894 0.0
C779 C 0.90004 0.89142 0.66097 0.0
C780 C 0.81101 0.9168 0.6935 0.0
C781 C 0.86535 0.9027 0.57516 0.0
C782 C 0.80746 0.96943 0.61632 0.0
H783 H 0.84478 0.88495 0.72967 0.0
H784 H 0.8946 0.87558 0.71307 0.0
H785 H 0.93676 0.8684 0.62418 0.0
H786 H 0.91603 0.8719 0.57763 0.0
H787 H 0.83588 0.93711 0.53972 0.0
H788 H 0.80616 0.9753 0.56211 0.0
H789 H 0.77249 0.99273 0.65438 0.0
H790 H 0.77371 0.96283 0.69656 0.0
H791 H 0.91882 0.98772 0.60674 0.0
H792 H 0.89218 1.00001 0.68398 0.0
H793 H 0.75877 0.86781 0.62152 0.0
H794 H 0.82922 0.81991 0.64193 0.0
C795 C 0.62014 0.84474 0.19458 0.0
C796 C 0.6342 0.85923 0.21313 0.0
C797 C 0.63892 0.88483 0.20352 0.0
C798 C 0.62838 0.88458 0.17937 0.0
N799 N 0.61744 0.86029 0.17321 0.0
Co800 Co 0.60553 0.84923 0.13857 0.0
N801 N 0.62552 0.87953 0.12192 0.0
C802 C 0.6349 0.90198 0.13372 0.0
C803 C 0.64807 0.91954 0.11752 0.0
C804 C 0.64653 0.90754 0.09401 0.0
C805 C 0.63226 0.88329 0.09712 0.0
N806 N 0.59345 0.83754 0.10425 0.0
C807 C 0.60284 0.84455 0.0809 0.0
C808 C 0.58728 0.83232 0.06196 0.0
C809 C 0.56736 0.81751 0.07392 0.0
C810 C 0.57178 0.82147 0.09939 0.0
N811 N 0.58528 0.81915 0.15514 0.0
C812 C 0.56362 0.80617 0.14515 0.0
C813 C 0.55181 0.7881 0.16173 0.0
C814 C 0.56707 0.78981 0.18352 0.0
C815 C 0.58774 0.80859 0.17886 0.0
N816 N 0.57281 0.87325 0.14126 0.0
C817 C 0.52812 0.91033 0.14521 0.0
C818 C 0.54302 0.90746 0.12255 0.0
C819 C 0.565 0.88906 0.12099 0.0
C820 C 0.53613 0.89364 0.16578 0.0
C821 C 0.55831 0.87536 0.16343 0.0
N822 N 0.63856 0.82609 0.13578 0.0
C823 C 0.6615 0.78416 0.12406 0.0
C824 C 0.68712 0.7946 0.13167 0.0
C825 C 0.68738 0.82121 0.1415 0.0
C826 C 0.66328 0.83649 0.14309 0.0
C827 C 0.63758 0.80009 0.12641 0.0
H828 H 0.66485 0.85688 0.15042 0.0
H829 H 0.61831 0.79145 0.12051 0.0
H830 H 0.57598 0.88807 0.10329 0.0
H831 H 0.56389 0.86311 0.17969 0.0
C832 C 0.63504 0.90346 0.16032 0.0
C833 C 0.60841 0.81691 0.19774 0.0
C834 C 0.62363 0.86552 0.07592 0.0
C835 C 0.55792 0.80833 0.11917 0.0
H836 H 0.64155 0.85215 0.23131 0.0
H837 H 0.65083 0.90084 0.21233 0.0
H838 H 0.65845 0.93833 0.12233 0.0
H839 H 0.65482 0.91582 0.07659 0.0
H840 H 0.58943 0.83457 0.0416 0.0
H841 H 0.5517 0.80517 0.06508 0.0
H842 H 0.53472 0.77465 0.15818 0.0
H843 H 0.56324 0.77858 0.20086 0.0
H844 H 0.5383 0.91992 0.10613 0.0
H845 H 0.5253 0.89453 0.18368 0.0
H846 H 0.65978 0.76394 0.11602 0.0
H847 H 0.70605 0.83039 0.14838 0.0
H848 H 0.36986 0.17914 0.96441 0.0
H849 H 0.41823 0.10698 0.95193 0.0
H850 H 0.41348 0.0943 0.9967 0.0
H851 H 0.39618 0.10422 0.03971 0.0
H852 H 0.34824 0.17647 0.05261 0.0
H853 H 0.35295 0.18936 0.00769 0.0
C854 C 0.3788 0.16037 0.9715 0.0
C855 C 0.3936 0.14353 0.95481 0.0
C856 C 0.37683 0.15378 0.99748 0.0
C857 C 0.40592 0.1197 0.96425 0.0
C858 C 0.40363 0.11273 0.98992 0.0
C859 C 0.38735 0.12308 0.03266 0.0
C860 C 0.3724 0.13977 0.0493 0.0
C861 C 0.38944 0.12978 0.00676 0.0
C862 C 0.36033 0.16375 0.04009 0.0
C863 C 0.3627 0.17085 0.01441 0.0
H864 H 0.3904 0.41878 0.4655 0.0
H865 H 0.34362 0.34617 0.45101 0.0
H866 H 0.34824 0.33247 0.49577 0.0
H867 H 0.36491 0.34204 0.53934 0.0
H868 H 0.41161 0.41492 0.55336 0.0
H869 H 0.40692 0.42834 0.50877 0.0
C870 C 0.38172 0.39972 0.47219 0.0
C871 C 0.36709 0.38319 0.45519 0.0
C872 C 0.38367 0.3926 0.49797 0.0
C873 C 0.35535 0.35884 0.46386 0.0
C874 C 0.35769 0.35127 0.48944 0.0
C875 C 0.37346 0.36113 0.53261 0.0
C876 C 0.38787 0.37791 0.54963 0.0
C877 C 0.37144 0.36822 0.50676 0.0
C878 C 0.39968 0.40219 0.54072 0.0
C879 C 0.39741 0.4096 0.51517 0.0
H880 H 0.09334 0.36502 0.97176 0.0
H881 H 0.164 0.40764 0.94258 0.0
H882 H 0.17179 0.42688 0.9848 0.0
H883 H 0.16 0.42816 0.03059 0.0
H884 H 0.11501 0.35884 0.05948 0.0
H885 H 0.09493 0.35236 0.01738 0.0
C886 C 0.1117 0.37695 0.97436 0.0
C887 C 0.12802 0.38446 0.95332 0.0
C888 C 0.12007 0.38299 0.9992 0.0
C889 C 0.15026 0.40204 0.95781 0.0
C890 C 0.15513 0.41264 0.98212 0.0
C891 C 0.14723 0.41039 0.02794 0.0
C892 C 0.13918 0.39421 0.04893 0.0
C893 C 0.14053 0.4026 0.00308 0.0
C894 C 0.12085 0.37262 0.04436 0.0
C895 C 0.10979 0.36847 0.0201 0.0
H896 H 0.15686 0.18003 0.53658 0.0
H897 H 0.10877 0.10841 0.5521 0.0
H898 H 0.11269 0.09417 0.50769 0.0
H899 H 0.12923 0.10253 0.46419 0.0
H900 H 0.17743 0.17386 0.44829 0.0
H901 H 0.17329 0.18852 0.49277 0.0
C902 C 0.1478 0.16104 0.53022 0.0
C903 C 0.13324 0.14484 0.54761 0.0
C904 C 0.14942 0.15348 0.50447 0.0
C905 C 0.1208 0.12069 0.53916 0.0
C906 C 0.12265 0.11281 0.51372 0.0
C907 C 0.13829 0.12154 0.4705 0.0
C908 C 0.15321 0.13743 0.45318 0.0
C909 C 0.13661 0.1292 0.49616 0.0
C910 C 0.16546 0.1617 0.46138 0.0
C911 C 0.1634 0.16982 0.48681 0.0
H912 H 0.65075 0.83812 0.03846 0.0
H913 H 0.60505 0.91159 0.0528 0.0
H914 H 0.6098 0.92517 0.00824 0.0
H915 H 0.62756 0.91648 0.96511 0.0
H916 H 0.67328 0.84324 0.95031 0.0
H917 H 0.66758 0.82884 0.99476 0.0
C918 C 0.64211 0.85719 0.03175 0.0
C919 C 0.62823 0.87423 0.04898 0.0
C920 C 0.64458 0.86465 0.00593 0.0
C921 C 0.61648 0.89857 0.04002 0.0
C922 C 0.61897 0.90619 0.01451 0.0
C923 C 0.63587 0.89719 0.97166 0.0
C924 C 0.65056 0.88073 0.95459 0.0
C925 C 0.63296 0.88942 0.99729 0.0
C926 C 0.66164 0.85599 0.96316 0.0
C927 C 0.65856 0.84791 0.98858 0.0
H928 H 0.68121 0.65069 0.53801 0.0
H929 H 0.60867 0.60384 0.55316 0.0
H930 H 0.59457 0.60823 0.5087 0.0
H931 H 0.60272 0.62566 0.46528 0.0
H932 H 0.6753 0.67208 0.4496 0.0
H933 H 0.68988 0.66733 0.4941 0.0
C934 C 0.66222 0.64172 0.53151 0.0
C935 C 0.64561 0.62761 0.54897 0.0
C936 C 0.65448 0.64395 0.50572 0.0
C937 C 0.62137 0.61545 0.54024 0.0
C938 C 0.61345 0.61774 0.51477 0.0
C939 C 0.62185 0.63443 0.47167 0.0
C940 C 0.63808 0.64903 0.45432 0.0
C941 C 0.62982 0.63191 0.49732 0.0
C942 C 0.66268 0.66058 0.46268 0.0
C943 C 0.67088 0.658 0.48813 0.0
H944 H 0.88754 0.59728 0.96755 0.0
H945 H 0.84607 0.67266 0.95099 0.0
H946 H 0.85172 0.68731 0.99535 0.0
H947 H 0.8693 0.67877 0.03887 0.0
H948 H 0.91248 0.60405 0.05461 0.0
H949 H 0.90479 0.58863 0.01097 0.0
C950 C 0.87985 0.61692 0.97377 0.0
C951 C 0.86647 0.63398 0.9562 0.0
C952 C 0.88306 0.62504 0.99927 0.0
C953 C 0.85652 0.65935 0.96427 0.0
C954 C 0.85963 0.66761 0.98962 0.0
C955 C 0.87649 0.65889 0.03278 0.0
C956 C 0.89072 0.64221 0.05015 0.0
C957 C 0.87282 0.65059 0.00733 0.0
C958 C 0.9007 0.61685 0.04187 0.0
C959 C 0.89664 0.60821 0.0168 0.0
H960 H 0.91804 0.89804 0.46524 0.0
H961 H 0.84434 0.85349 0.44932 0.0
H962 H 0.82923 0.85958 0.49348 0.0
H963 H 0.83823 0.87598 0.53735 0.0
H964 H 0.91228 0.92028 0.5529 0.0
H965 H 0.92638 0.91554 0.50851 0.0
C966 C 0.89844 0.89019 0.47144 0.0
C967 C 0.88206 0.8757 0.45415 0.0
C968 C 0.89036 0.89314 0.49696 0.0
C969 C 0.85698 0.86508 0.46231 0.0
C970 C 0.84854 0.86831 0.48759 0.0
C971 C 0.85757 0.88427 0.53096 0.0
C972 C 0.87461 0.89772 0.54848 0.0
C973 C 0.86528 0.88189 0.50522 0.0
C974 C 0.89927 0.9091 0.53992 0.0
C975 C 0.90716 0.90667 0.51449 0.0
H976 H 0.27031 0.31472 0.13432 0.0
H977 H 0.18821 0.28251 0.13452 0.0
H978 H 0.20626 0.23629 0.1344 0.0
H979 H 0.24555 0.20416 0.13451 0.0
H980 H 0.32713 0.23719 0.12976 0.0
H981 H 0.30894 0.28318 0.13094 0.0
C982 C 0.25611 0.29781 0.13392 0.0
C983 C 0.22765 0.30289 0.13475 0.0
C984 C 0.26661 0.27089 0.13307 0.0
C985 C 0.21014 0.27997 0.13464 0.0
C986 C 0.22049 0.2532 0.13428 0.0
C987 C 0.25942 0.22133 0.13346 0.0
C988 C 0.28795 0.21659 0.13271 0.0
C989 C 0.24873 0.2483 0.13356 0.0
C990 C 0.30523 0.23959 0.1313 0.0
C991 C 0.2948 0.2662 0.13173 0.0
H992 H 0.28468 0.3132 0.6289 0.0
H993 H 0.33081 0.23806 0.63044 0.0
H994 H 0.28852 0.21203 0.62895 0.0
H995 H 0.23823 0.21009 0.62791 0.0
H996 H 0.19209 0.28519 0.62996 0.0
H997 H 0.23439 0.31125 0.62933 0.0
C998 C 0.28572 0.29114 0.62925 0.0
C999 C 0.31151 0.27795 0.62974 0.0
C1000 C 0.26106 0.27602 0.62896 0.0
C1001 C 0.31173 0.24917 0.62958 0.0
C1002 C 0.28736 0.23411 0.62896 0.0
C1003 C 0.23719 0.23214 0.62855 0.0
C1004 C 0.21139 0.24532 0.62893 0.0
C1005 C 0.26185 0.24726 0.62876 0.0
C1006 C 0.21117 0.2741 0.62917 0.0
C1007 C 0.23555 0.28917 0.62904 0.0
H1008 H 0.31159 0.28598 0.37523 0.0
H1009 H 0.2355 0.33055 0.37248 0.0
H1010 H 0.21029 0.28778 0.3739 0.0
H1011 H 0.20938 0.23753 0.37515 0.0
H1012 H 0.28554 0.193 0.37388 0.0
H1013 H 0.3107 0.23578 0.37482 0.0
C1014 C 0.2895 0.28659 0.37457 0.0
C1015 C 0.27579 0.31207 0.37376 0.0
C1016 C 0.27488 0.26166 0.37475 0.0
C1017 C 0.24699 0.31173 0.37357 0.0
C1018 C 0.2324 0.28708 0.37415 0.0
C1019 C 0.23148 0.23693 0.37473 0.0
C1020 C 0.24521 0.21144 0.37451 0.0
C1021 C 0.24609 0.26187 0.37461 0.0
C1022 C 0.27401 0.21182 0.37458 0.0
C1023 C 0.28858 0.23647 0.37486 0.0
H1024 H 0.32039 0.27663 0.87268 0.0
H1025 H 0.28649 0.19548 0.87776 0.0
H1026 H 0.24064 0.21415 0.87649 0.0
H1027 H 0.2095 0.25308 0.87262 0.0
H1028 H 0.24268 0.33474 0.87229 0.0
H1029 H 0.28871 0.31621 0.87278 0.0
C1030 C 0.30307 0.26295 0.87382 0.0
C1031 C 0.3075 0.23441 0.87463 0.0
C1032 C 0.2762 0.27391 0.87368 0.0
C1033 C 0.2843 0.21738 0.87616 0.0
C1034 C 0.25779 0.22808 0.87568 0.0
C1035 C 0.22657 0.26708 0.87308 0.0
C1036 C 0.22183 0.29556 0.872 0.0
C1037 C 0.25339 0.2563 0.87417 0.0
C1038 C 0.24496 0.3128 0.87228 0.0
C1039 C 0.27162 0.30218 0.87286 0.0
H1040 H 0.75445 0.80423 0.9015 0.0
H1041 H 0.72386 0.79928 0.82476 0.0
H1042 H 0.74332 0.75375 0.8202 0.0
H1043 H 0.76892 0.71462 0.83789 0.0
H1044 H 0.79963 0.71882 0.91442 0.0
H1045 H 0.78044 0.76483 0.91923 0.0
C1046 C 0.75234 0.79329 0.88371 0.0
C1047 C 0.73756 0.80534 0.86354 0.0
C1048 C 0.76342 0.76667 0.88125 0.0
C1049 C 0.73486 0.79058 0.84071 0.0
C1050 C 0.746 0.76444 0.83805 0.0
C1051 C 0.77107 0.72555 0.85569 0.0
C1052 C 0.78523 0.71318 0.87593 0.0
C1053 C 0.76011 0.75211 0.85822 0.0
C1054 C 0.78838 0.72775 0.89874 0.0
C1055 C 0.77756 0.75415 0.90141 0.0
H1056 H 0.70699 0.77183 0.37112 0.0
H1057 H 0.74102 0.69142 0.38246 0.0
H1058 H 0.78678 0.71033 0.38272 0.0
H1059 H 0.81792 0.7493 0.37789 0.0
H1060 H 0.78389 0.83041 0.37188 0.0
H1061 H 0.73813 0.81154 0.37136 0.0
C1062 C 0.72429 0.75838 0.37401 0.0
C1063 C 0.72004 0.72994 0.37595 0.0
C1064 C 0.751 0.76951 0.37484 0.0
C1065 C 0.74318 0.7132 0.37982 0.0
C1066 C 0.76962 0.72405 0.38024 0.0
C1067 C 0.80066 0.76307 0.37685 0.0
C1068 C 0.8051 0.79142 0.37419 0.0
C1069 C 0.77389 0.75214 0.37739 0.0
C1070 C 0.78183 0.80847 0.37287 0.0
C1071 C 0.75531 0.7977 0.37289 0.0
H1072 H 0.80304 0.79088 0.60896 0.0
H1073 H 0.74314 0.83137 0.65557 0.0
H1074 H 0.71808 0.78846 0.66032 0.0
H1075 H 0.7143 0.73924 0.65292 0.0
H1076 H 0.77172 0.6995 0.60262 0.0
H1077 H 0.79697 0.74194 0.59862 0.0
C1078 C 0.78438 0.79035 0.62002 0.0
C1079 C 0.77503 0.81448 0.63189 0.0
C1080 C 0.76982 0.76555 0.62244 0.0
C1081 C 0.7507 0.81333 0.646 0.0
C1082 C 0.73646 0.78867 0.64888 0.0
C1083 C 0.73191 0.73958 0.64053 0.0
C1084 C 0.7407 0.71534 0.62823 0.0
C1085 C 0.74593 0.76457 0.63735 0.0
C1086 C 0.76435 0.71705 0.61299 0.0
C1087 C 0.77881 0.74163 0.61037 0.0
H1088 H 0.78617 0.70969 0.13004 0.0
H1089 H 0.83245 0.78455 0.1249 0.0
H1090 H 0.79025 0.81061 0.12357 0.0
H1091 H 0.7402 0.81281 0.12478 0.0
H1092 H 0.69389 0.73856 0.13468 0.0
H1093 H 0.73596 0.71209 0.13308 0.0
C1094 C 0.7873 0.73172 0.12898 0.0
C1095 C 0.81312 0.74475 0.12748 0.0
C1096 C 0.7627 0.74696 0.12899 0.0
C1097 C 0.81338 0.77346 0.12552 0.0
C1098 C 0.78905 0.78859 0.12501 0.0
C1099 C 0.73904 0.79089 0.12702 0.0
C1100 C 0.71327 0.77808 0.12994 0.0
C1101 C 0.76357 0.77562 0.12689 0.0
C1102 C 0.71291 0.74938 0.13198 0.0
C1103 C 0.73718 0.73408 0.13131 0.0
H1104 H 0.24084 0.06162 0.28381 0.0
H1105 H 0.22788 0.14829 0.28938 0.0
H1106 H 0.25781 0.15564 0.25251 0.0
H1107 H 0.28843 0.13682 0.21878 0.0
H1108 H 0.30718 0.05094 0.21948 0.0
H1109 H 0.27587 0.04393 0.25503 0.0
C1110 C 0.2453 0.08224 0.27759 0.0
C1111 C 0.23287 0.10445 0.28991 0.0
C1112 C 0.26402 0.0864 0.25777 0.0
C1113 C 0.2375 0.13086 0.28043 0.0
C1114 C 0.25478 0.13507 0.25951 0.0
C1115 C 0.28599 0.11674 0.22715 0.0
C1116 C 0.29963 0.09429 0.21633 0.0
C1117 C 0.26843 0.11298 0.24815 0.0
C1118 C 0.29664 0.0684 0.22742 0.0
C1119 C 0.27858 0.06436 0.24756 0.0
H1120 H 0.38575 0.28455 0.71767 0.0
H1121 H 0.47147 0.30412 0.71962 0.0
H1122 H 0.4783 0.27264 0.75509 0.0
H1123 H 0.46046 0.23775 0.78395 0.0
H1124 H 0.37381 0.22385 0.78819 0.0
H1125 H 0.36675 0.25353 0.75103 0.0
C1126 C 0.40577 0.28215 0.72622 0.0
C1127 C 0.42825 0.29606 0.71573 0.0
C1128 C 0.4094 0.26453 0.74724 0.0
C1129 C 0.45402 0.29323 0.72716 0.0
C1130 C 0.45795 0.27513 0.74731 0.0
C1131 C 0.43991 0.24183 0.77726 0.0
C1132 C 0.4176 0.22929 0.78934 0.0
C1133 C 0.43589 0.26037 0.75723 0.0
C1134 C 0.39129 0.23357 0.77942 0.0
C1135 C 0.38725 0.2507 0.75833 0.0
H1136 H 0.24 0.46235 0.21846 0.0
H1137 H 0.22042 0.37675 0.21762 0.0
H1138 H 0.24967 0.36944 0.25503 0.0
H1139 H 0.28186 0.3878 0.28768 0.0
H1140 H 0.30659 0.47196 0.28296 0.0
H1141 H 0.27581 0.47921 0.24695 0.0
C1142 C 0.24273 0.44192 0.22598 0.0
C1143 C 0.22872 0.41997 0.21476 0.0
C1144 C 0.26098 0.4376 0.24621 0.0
C1145 C 0.23127 0.39393 0.22571 0.0
C1146 C 0.24817 0.38972 0.24694 0.0
C1147 C 0.28079 0.40752 0.27837 0.0
C1148 C 0.2961 0.42946 0.28809 0.0
C1149 C 0.26344 0.41137 0.25719 0.0
C1150 C 0.29481 0.45489 0.27583 0.0
C1151 C 0.27706 0.45908 0.25543 0.0
H1152 H 0.13804 0.24011 0.71413 0.0
H1153 H 0.05277 0.21914 0.71861 0.0
H1154 H 0.04666 0.25068 0.7541 0.0
H1155 H 0.065 0.28563 0.78257 0.0
H1156 H 0.15146 0.30129 0.78394 0.0
H1157 H 0.15765 0.27177 0.7466 0.0
C1158 C 0.1183 0.24223 0.72322 0.0
C1159 C 0.09572 0.2278 0.71355 0.0
C1160 C 0.11509 0.25996 0.74418 0.0
C1161 C 0.07029 0.23034 0.72562 0.0
C1162 C 0.06676 0.24849 0.74575 0.0
C1163 C 0.08531 0.28211 0.77506 0.0
C1164 C 0.10785 0.29501 0.78644 0.0
C1165 C 0.08891 0.26367 0.75494 0.0
C1166 C 0.13383 0.2913 0.77569 0.0
C1167 C 0.13738 0.27425 0.75451 0.0
H1168 H 0.70305 0.91472 0.75795 0.0
H1169 H 0.75954 0.90258 0.81995 0.0
H1170 H 0.79744 0.90201 0.78997 0.0
H1171 H 0.81437 0.91135 0.74653 0.0
H1172 H 0.75741 0.90737 0.68402 0.0
H1173 H 0.71943 0.9073 0.71399 0.0
C1174 C 0.7231 0.90984 0.76514 0.0
C1175 C 0.72792 0.90866 0.79159 0.0
C1176 C 0.74489 0.90724 0.74762 0.0
C1177 C 0.75498 0.90406 0.79984 0.0
C1178 C 0.77681 0.90371 0.78267 0.0
C1179 C 0.79404 0.90834 0.73912 0.0
C1180 C 0.78924 0.90925 0.71266 0.0
C1181 C 0.77209 0.90602 0.75648 0.0
C1182 C 0.76197 0.90712 0.70418 0.0
C1183 C 0.74011 0.90707 0.72134 0.0
H1184 H 0.61813 0.75608 0.30481 0.0
H1185 H 0.60431 0.68693 0.25592 0.0
H1186 H 0.6103 0.71568 0.21867 0.0
H1187 H 0.61524 0.76154 0.19955 0.0
H1188 H 0.60688 0.83108 0.24904 0.0
H1189 H 0.61378 0.80204 0.28596 0.0
C1190 C 0.61661 0.74717 0.28601 0.0
C1191 C 0.61296 0.71864 0.28359 0.0
C1192 C 0.61602 0.76448 0.26451 0.0
C1193 C 0.60989 0.708 0.25887 0.0
C1194 C 0.61235 0.72476 0.23735 0.0
C1195 C 0.6151 0.77046 0.21841 0.0
C1196 C 0.61281 0.79911 0.22101 0.0
C1197 C 0.6151 0.75314 0.23992 0.0
C1198 C 0.61144 0.8098 0.24584 0.0
C1199 C 0.61445 0.79292 0.26721 0.0
H1200 H 0.76563 0.61453 0.80523 0.0
H1201 H 0.83506 0.60327 0.75606 0.0
H1202 H 0.80639 0.61086 0.71899 0.0
H1203 H 0.76054 0.61639 0.6999 0.0
H1204 H 0.69065 0.60668 0.74882 0.0
H1205 H 0.71965 0.61169 0.78606 0.0
C1206 C 0.77462 0.61395 0.78641 0.0
C1207 C 0.80321 0.61051 0.78394 0.0
C1208 C 0.75736 0.6145 0.76485 0.0
C1209 C 0.81396 0.60867 0.75916 0.0
C1210 C 0.79723 0.61206 0.7377 0.0
C1211 C 0.75154 0.61559 0.71871 0.0
C1212 C 0.72284 0.61322 0.72112 0.0
C1213 C 0.7688 0.61467 0.74027 0.0
C1214 C 0.71202 0.61108 0.74586 0.0
C1215 C 0.72886 0.61305 0.76738 0.0
H1216 H 0.96263 0.78884 0.28366 0.0
H1217 H 0.87592 0.80224 0.28839 0.0
H1218 H 0.86885 0.77308 0.25098 0.0
H1219 H 0.88768 0.74255 0.21716 0.0
H1220 H 0.97383 0.72477 0.21715 0.0
H1221 H 0.98068 0.75547 0.25318 0.0
C1222 C 0.94209 0.78481 0.27697 0.0
C1223 C 0.91975 0.7971 0.28936 0.0
C1224 C 0.9381 0.76686 0.25639 0.0
C1225 C 0.89344 0.7928 0.27943 0.0
C1226 C 0.88939 0.77596 0.25814 0.0
C1227 C 0.90785 0.74524 0.2253 0.0
C1228 C 0.93034 0.73184 0.21416 0.0
C1229 C 0.91156 0.76258 0.24657 0.0
C1230 C 0.95631 0.73519 0.22512 0.0
C1231 C 0.96024 0.75283 0.24567 0.0
H1232 H 0.4404 1.00368 0.17059 0.0
H1233 H 0.41868 0.9889 0.0923 0.0
H1234 H 0.45338 0.95341 0.08953 0.0
H1235 H 0.49071 0.92667 0.10871 0.0
H1236 H 0.51327 0.94137 0.1868 0.0
H1237 H 0.47743 0.97583 0.19022 0.0
C1238 C 0.44301 0.99253 0.15298 0.0
C1239 C 0.42677 0.99952 0.13161 0.0
C1240 C 0.46333 0.97183 0.1514 0.0
C1241 C 0.43093 0.98467 0.10899 0.0
C1242 C 0.45082 0.96412 0.10738 0.0
C1243 C 0.48805 0.93744 0.12651 0.0
C1244 C 0.50513 0.93102 0.14743 0.0
C1245 C 0.46739 0.95766 0.12834 0.0
C1246 C 0.50053 0.94523 0.17036 0.0
C1247 C 0.48001 0.96525 0.17232 0.0
H1248 H 0.59591 0.49005 0.61134 0.0
H1249 H 0.58097 0.51464 0.68881 0.0
H1250 H 0.54618 0.47921 0.69291 0.0
H1251 H 0.51793 0.44211 0.67388 0.0
H1252 H 0.53287 0.41869 0.59611 0.0
H1253 H 0.56895 0.45267 0.59286 0.0
C1254 C 0.58502 0.48792 0.62914 0.0
C1255 C 0.59142 0.50545 0.64967 0.0
C1256 C 0.56462 0.46755 0.63135 0.0
C1257 C 0.5771 0.50153 0.67266 0.0
C1258 C 0.55689 0.48126 0.675 0.0
C1259 C 0.52927 0.44422 0.65631 0.0
C1260 C 0.52218 0.42775 0.63519 0.0
C1261 C 0.55025 0.46419 0.65442 0.0
C1262 C 0.53726 0.43116 0.61259 0.0
C1263 C 0.55811 0.45064 0.61071 0.0
H1264 H 0.08954 0.52561 0.16885 0.0
H1265 H 0.1118 0.53854 0.09037 0.0
H1266 H 0.07719 0.57387 0.08654 0.0
H1267 H 0.03944 0.60089 0.10469 0.0
H1268 H 0.01774 0.58969 0.18339 0.0
H1269 H 0.05322 0.55482 0.18783 0.0
C1270 C 0.08715 0.53634 0.15097 0.0
C1271 C 0.10336 0.52861 0.12983 0.0
C1272 C 0.06706 0.55724 0.14882 0.0
C1273 C 0.09946 0.54309 0.10689 0.0
C1274 C 0.07964 0.56362 0.10466 0.0
C1275 C 0.04237 0.59084 0.12285 0.0
C1276 C 0.02556 0.59816 0.14362 0.0
C1277 C 0.06303 0.5707 0.12535 0.0
C1278 C 0.03029 0.58494 0.16705 0.0
C1279 C 0.05059 0.56475 0.16958 0.0
H1280 H 0.92531 0.03525 0.60999 0.0
H1281 H 0.9396 1.0112 0.68778 0.0
H1282 H 0.97481 0.04626 0.69174 0.0
H1283 H 1.0036 0.08284 0.67246 0.0
H1284 H 0.98909 0.10581 0.59442 0.0
H1285 H 0.95268 0.07219 0.59133 0.0
C1286 C 0.93615 0.03742 0.62784 0.0
C1287 C 0.92948 0.02014 0.6485 0.0
C1288 C 0.95676 0.05759 0.62997 0.0
C1289 C 0.94372 0.02411 0.67153 0.0
C1290 C 0.96415 0.04417 0.67379 0.0
C1291 C 0.9923 0.08072 0.65486 0.0
C1292 C 0.99963 0.09693 0.63362 0.0
C1293 C 0.97108 0.06097 0.65308 0.0
C1294 C 0.98456 0.09351 0.61099 0.0
C1295 C 0.96351 0.07425 0.6092 0.0
H1296 H 0.48978 0.59439 0.39698 0.0
H1297 H 0.51286 0.5805 0.31892 0.0
H1298 H 0.4771 0.54611 0.31488 0.0
H1299 H 0.43997 0.51812 0.33391 0.0
H1300 H 0.41761 0.53208 0.41213 0.0
H1301 H 0.45227 0.56748 0.41557 0.0
C1302 C 0.48722 0.58381 0.37906 0.0
C1303 C 0.5044 0.59044 0.35832 0.0
C1304 C 0.46659 0.56364 0.37685 0.0
C1305 C 0.5 0.57648 0.33523 0.0
C1306 C 0.47954 0.5565 0.3329 0.0
C1307 C 0.44244 0.52908 0.35165 0.0
C1308 C 0.42605 0.52189 0.3728 0.0
C1309 C 0.46272 0.54973 0.35361 0.0
C1310 C 0.43 0.53648 0.3956 0.0
C1311 C 0.44987 0.55698 0.39759 0.0
H1312 H 0.98311 0.42048 0.89588 0.0
H1313 H 1.01155 0.43316 0.81922 0.0
H1314 H 0.9789 0.47044 0.8138 0.0
H1315 H 0.94327 0.50138 0.83142 0.0
H1316 H 0.91477 0.48768 0.90799 0.0
H1317 H 0.94635 0.44971 0.91269 0.0
C1318 C 0.98231 0.43136 0.87795 0.0
C1319 C 1.00012 0.42364 0.85804 0.0
C1320 C 0.9634 0.45307 0.87491 0.0
C1321 C 0.9981 0.43806 0.83489 0.0
C1322 C 0.97945 0.45968 0.83179 0.0
C1323 C 0.94369 0.48995 0.84906 0.0
C1324 C 0.92663 0.49814 0.86944 0.0
C1325 C 0.96205 0.4676 0.85172 0.0
C1326 C 0.92788 0.48273 0.89209 0.0
C1327 C 0.94594 0.46069 0.89481 0.0
H1328 H 0.0507 0.91159 0.35021 0.0
H1329 H 0.99063 0.96102 0.38867 0.0
H1330 H 0.02239 0.99904 0.39004 0.0
H1331 H 0.06739 0.01886 0.38105 0.0
H1332 H 0.12815 0.97041 0.34262 0.0
H1333 H 0.09608 0.93227 0.34013 0.0
C1334 C 0.04446 0.93071 0.35875 0.0
C1335 C 0.01813 0.93286 0.36974 0.0
C1336 C 0.06308 0.95302 0.35947 0.0
C1337 C 1.01076 0.95811 0.38063 0.0
C1338 C 0.02896 0.98014 0.3813 0.0
C1339 C 0.07387 0.99993 0.3723 0.0
C1340 C 0.10056 0.99788 0.36219 0.0
C1341 C 0.05528 0.97783 0.37104 0.0
C1342 C 0.10789 0.97307 0.35042 0.0
C1343 C 0.08949 0.95103 0.34911 0.0
H1344 H 0.58242 0.01989 0.83267 0.0
H1345 H 0.60661 0.03042 0.91096 0.0
H1346 H 0.5746 0.06806 0.9154 0.0
H1347 H 0.53865 0.09778 0.89783 0.0
H1348 H 0.51441 0.08829 0.81952 0.0
H1349 H 0.5476 0.05142 0.81438 0.0
C1350 C 0.58097 0.03057 0.85064 0.0
C1351 C 0.59693 0.02159 0.87154 0.0
C1352 C 0.56235 0.05271 0.85316 0.0
C1353 C 0.59436 0.03601 0.89462 0.0
C1354 C 0.57606 0.05784 0.8972 0.0
C1355 C 0.54048 0.08768 0.8796 0.0
C1356 C 0.52367 0.09613 0.85915 0.0
C1357 C 0.55966 0.06622 0.87674 0.0
C1358 C 0.52704 0.08276 0.83563 0.0
C1359 C 0.546 0.06139 0.83269 0.0
loop_
_geom_bond_atom_site_label_1
_geom_bond_atom_site_label_2
_geom_bond_distance
_geom_bond_site_symmetry_2
_ccdc_geom_bond_type
C0 C1 1.443 . S
C0 N4 1.376 . S
C0 C38 1.389 . S
C1 C0 1.443 . S
C1 C2 1.340 . S
C1 H41 0.951 . S
C2 C1 1.340 . S
C2 C3 1.439 . S
C2 H42 0.950 . S
C3 C2 1.439 . S
C3 N4 1.374 . S
C3 C37 1.395 . S
N4 C0 1.376 . S
N4 C3 1.374 . S
N4 Co5 2.008 . S
Co5 N4 2.008 . S
Co5 N6 1.995 . S
Co5 N11 2.008 . S
Co5 N16 1.995 . S
Co5 N21 2.282 . S
Co5 N27 2.282 . S
N6 Co5 1.995 . S
N6 C7 1.376 . S
N6 C10 1.383 . S
C7 N6 1.376 . S
C7 C8 1.446 . S
C7 C37 1.391 . S
C8 C7 1.446 . S
C8 C9 1.339 . S
C8 H43 0.949 . S
C9 C8 1.339 . S
C9 C10 1.439 . S
C9 H44 0.950 . S
C10 N6 1.383 . S
C10 C9 1.439 . S
C10 C39 1.392 . S
N11 Co5 2.008 . S
N11 C12 1.376 . S
N11 C15 1.374 . S
C12 N11 1.376 . S
C12 C13 1.443 . S
C12 C39 1.389 . S
C13 C12 1.443 . S
C13 C14 1.340 . S
C13 H45 0.951 . S
C14 C13 1.340 . S
C14 C15 1.439 . S
C14 H46 0.950 . S
C15 N11 1.374 . S
C15 C14 1.439 . S
C15 C40 1.395 . S
N16 Co5 1.995 . S
N16 C17 1.376 . S
N16 C20 1.383 . S
C17 N16 1.376 . S
C17 C18 1.446 . S
C17 C40 1.391 . S
C18 C17 1.446 . S
C18 C19 1.339 . S
C18 H47 0.949 . S
C19 C18 1.339 . S
C19 C20 1.439 . S
C19 H48 0.950 . S
C20 N16 1.383 . S
C20 C19 1.439 . S
C20 C38 1.392 . S
N21 Co5 2.282 . S
N21 C24 1.332 . S
N21 C26 1.332 . S
C22 C23 1.386 . S
C22 C25 1.388 . S
C23 C22 1.386 . S
C23 C24 1.382 . S
C23 H49 0.950 . S
C24 N21 1.332 . S
C24 C23 1.382 . S
C24 H35 0.952 . S
C25 C22 1.388 . S
C25 C26 1.382 . S
C25 H50 0.950 . S
C26 N21 1.332 . S
C26 C25 1.382 . S
C26 H36 0.948 . S
N27 Co5 2.282 . S
N27 C31 1.332 . S
N27 C32 1.332 . S
C28 C29 1.388 . S
C28 C32 1.382 . S
C28 H51 0.950 . S
C29 C28 1.388 . S
C29 C30 1.386 . S
C30 C29 1.386 . S
C30 C31 1.382 . S
C30 H52 0.950 . S
C31 N27 1.332 . S
C31 C30 1.382 . S
C31 H33 0.952 . S
C32 N27 1.332 . S
C32 C28 1.382 . S
C32 H34 0.948 . S
H33 C31 0.952 . S
H34 C32 0.948 . S
H35 C24 0.952 . S
H36 C26 0.948 . S
C37 C3 1.395 . S
C37 C7 1.391 . S
C38 C0 1.389 . S
C38 C20 1.392 . S
C39 C10 1.392 . S
C39 C12 1.389 . S
C40 C15 1.395 . S
C40 C17 1.391 . S
H41 C1 0.951 . S
H42 C2 0.950 . S
H43 C8 0.949 . S
H44 C9 0.950 . S
H45 C13 0.951 . S
H46 C14 0.950 . S
H47 C18 0.949 . S
H48 C19 0.950 . S
H49 C23 0.950 . S
H50 C25 0.950 . S
H51 C28 0.950 . S
H52 C30 0.950 . S
C53 C54 1.443 . S
C53 N57 1.376 . S
C53 C91 1.389 . S
C54 C53 1.443 . S
C54 C55 1.340 . S
C54 H94 0.951 . S
C55 C54 1.340 . S
C55 C56 1.439 . S
C55 H95 0.950 . S
C56 C55 1.439 . S
C56 N57 1.374 . S
C56 C90 1.395 . S
N57 C53 1.376 . S
N57 C56 1.374 . S
N57 Co58 2.008 . S
Co58 N57 2.008 . S
Co58 N59 1.995 . S
Co58 N64 2.008 . S
Co58 N69 1.995 . S
Co58 N74 2.282 . S
Co58 N80 2.282 . S
N59 Co58 1.995 . S
N59 C60 1.376 . S
N59 C63 1.383 . S
C60 N59 1.376 . S
C60 C61 1.446 . S
C60 C90 1.391 . S
C61 C60 1.446 . S
C61 C62 1.339 . S
C61 H96 0.949 . S
C62 C61 1.339 . S
C62 C63 1.439 . S
C62 H97 0.950 . S
C63 N59 1.383 . S
C63 C62 1.439 . S
C63 C92 1.392 . S
N64 Co58 2.008 . S
N64 C65 1.376 . S
N64 C68 1.374 . S
C65 N64 1.376 . S
C65 C66 1.443 . S
C65 C92 1.389 . S
C66 C65 1.443 . S
C66 C67 1.340 . S
C66 H98 0.951 . S
C67 C66 1.340 . S
C67 C68 1.439 . S
C67 H99 0.950 . S
C68 N64 1.374 . S
C68 C67 1.439 . S
C68 C93 1.395 . S
N69 Co58 1.995 . S
N69 C70 1.376 . S
N69 C73 1.383 . S
C70 N69 1.376 . S
C70 C71 1.446 . S
C70 C93 1.391 . S
C71 C70 1.446 . S
C71 C72 1.339 . S
C71 H100 0.949 . S
C72 C71 1.339 . S
C72 C73 1.439 . S
C72 H101 0.950 . S
C73 N69 1.383 . S
C73 C72 1.439 . S
C73 C91 1.392 . S
N74 Co58 2.282 . S
N74 C77 1.332 . S
N74 C79 1.332 . S
C75 C76 1.386 . S
C75 C78 1.388 . S
C76 C75 1.386 . S
C76 C77 1.382 . S
C76 H102 0.950 . S
C77 N74 1.332 . S
C77 C76 1.382 . S
C77 H88 0.952 . S
C78 C75 1.388 . S
C78 C79 1.382 . S
C78 H103 0.950 . S
C79 N74 1.332 . S
C79 C78 1.382 . S
C79 H89 0.948 . S
N80 Co58 2.282 . S
N80 C84 1.332 . S
N80 C85 1.332 . S
C81 C82 1.388 . S
C81 C85 1.382 . S
C81 H104 0.950 . S
C82 C81 1.388 . S
C82 C83 1.386 . S
C83 C82 1.386 . S
C83 C84 1.382 . S
C83 H105 0.950 . S
C84 N80 1.332 . S
C84 C83 1.382 . S
C84 H86 0.952 . S
C85 N80 1.332 . S
C85 C81 1.382 . S
C85 H87 0.948 . S
H86 C84 0.952 . S
H87 C85 0.948 . S
H88 C77 0.952 . S
H89 C79 0.948 . S
C90 C56 1.395 . S
C90 C60 1.391 . S
C91 C53 1.389 . S
C91 C73 1.392 . S
C92 C63 1.392 . S
C92 C65 1.389 . S
C93 C68 1.395 . S
C93 C70 1.391 . S
H94 C54 0.951 . S
H95 C55 0.950 . S
H96 C61 0.949 . S
H97 C62 0.950 . S
H98 C66 0.951 . S
H99 C67 0.950 . S
H100 C71 0.949 . S
H101 C72 0.950 . S
H102 C76 0.950 . S
H103 C78 0.950 . S
H104 C81 0.950 . S
H105 C83 0.950 . S
C106 C107 1.443 . S
C106 N110 1.376 . S
C106 C144 1.389 . S
C107 C106 1.443 . S
C107 C108 1.340 . S
C107 H147 0.951 . S
C108 C107 1.340 . S
C108 C109 1.439 . S
C108 H148 0.950 . S
C109 C108 1.439 . S
C109 N110 1.374 . S
C109 C143 1.395 . S
N110 C106 1.376 . S
N110 C109 1.374 . S
N110 Co111 2.008 . S
Co111 N110 2.008 . S
Co111 N112 1.995 . S
Co111 N117 2.008 . S
Co111 N122 1.995 . S
Co111 N127 2.282 . S
Co111 N133 2.282 . S
N112 Co111 1.995 . S
N112 C113 1.376 . S
N112 C116 1.383 . S
C113 N112 1.376 . S
C113 C114 1.446 . S
C113 C143 1.391 . S
C114 C113 1.446 . S
C114 C115 1.339 . S
C114 H149 0.949 . S
C115 C114 1.339 . S
C115 C116 1.439 . S
C115 H150 0.950 . S
C116 N112 1.383 . S
C116 C115 1.439 . S
C116 C145 1.392 . S
N117 Co111 2.008 . S
N117 C118 1.376 . S
N117 C121 1.374 . S
C118 N117 1.376 . S
C118 C119 1.443 . S
C118 C145 1.389 . S
C119 C118 1.443 . S
C119 C120 1.340 . S
C119 H151 0.951 . S
C120 C119 1.340 . S
C120 C121 1.439 . S
C120 H152 0.950 . S
C121 N117 1.374 . S
C121 C120 1.439 . S
C121 C146 1.395 . S
N122 Co111 1.995 . S
N122 C123 1.376 . S
N122 C126 1.383 . S
C123 N122 1.376 . S
C123 C124 1.446 . S
C123 C146 1.391 . S
C124 C123 1.446 . S
C124 C125 1.339 . S
C124 H153 0.949 . S
C125 C124 1.339 . S
C125 C126 1.439 . S
C125 H154 0.950 . S
C126 N122 1.383 . S
C126 C125 1.439 . S
C126 C144 1.392 . S
N127 Co111 2.282 . S
N127 C130 1.332 . S
N127 C132 1.332 . S
C128 C129 1.386 . S
C128 C131 1.388 . S
C129 C128 1.386 . S
C129 C130 1.382 . S
C129 H155 0.950 . S
C130 N127 1.332 . S
C130 C129 1.382 . S
C130 H141 0.952 . S
C131 C128 1.388 . S
C131 C132 1.382 . S
C131 H156 0.950 . S
C132 N127 1.332 . S
C132 C131 1.382 . S
C132 H142 0.948 . S
N133 Co111 2.282 . S
N133 C137 1.332 . S
N133 C138 1.332 . S
C134 C135 1.388 . S
C134 C138 1.382 . S
C134 H157 0.950 . S
C135 C134 1.388 . S
C135 C136 1.386 . S
C136 C135 1.386 . S
C136 C137 1.382 . S
C136 H158 0.950 . S
C137 N133 1.332 . S
C137 C136 1.382 . S
C137 H139 0.952 . S
C138 N133 1.332 . S
C138 C134 1.382 . S
C138 H140 0.948 . S
H139 C137 0.952 . S
H140 C138 0.948 . S
H141 C130 0.952 . S
H142 C132 0.948 . S
C143 C109 1.395 . S
C143 C113 1.391 . S
C144 C106 1.389 . S
C144 C126 1.392 . S
C145 C116 1.392 . S
C145 C118 1.389 . S
C146 C121 1.395 . S
C146 C123 1.391 . S
H147 C107 0.951 . S
H148 C108 0.950 . S
H149 C114 0.949 . S
H150 C115 0.950 . S
H151 C119 0.951 . S
H152 C120 0.950 . S
H153 C124 0.949 . S
H154 C125 0.950 . S
H155 C129 0.950 . S
H156 C131 0.950 . S
H157 C134 0.950 . S
H158 C136 0.950 . S
C159 C160 1.443 . S
C159 N163 1.376 . S
C159 C197 1.389 . S
C160 C159 1.443 . S
C160 C161 1.340 . S
C160 H200 0.951 . S
C161 C160 1.340 . S
C161 C162 1.439 . S
C161 H201 0.950 . S
C162 C161 1.439 . S
C162 N163 1.374 . S
C162 C196 1.395 . S
N163 C159 1.376 . S
N163 C162 1.374 . S
N163 Co164 2.008 . S
Co164 N163 2.008 . S
Co164 N165 1.995 . S
Co164 N170 2.008 . S
Co164 N175 1.995 . S
Co164 N180 2.282 . S
Co164 N186 2.282 . S
N165 Co164 1.995 . S
N165 C166 1.376 . S
N165 C169 1.383 . S
C166 N165 1.376 . S
C166 C167 1.446 . S
C166 C196 1.391 . S
C167 C166 1.446 . S
C167 C168 1.339 . S
C167 H202 0.949 . S
C168 C167 1.339 . S
C168 C169 1.439 . S
C168 H203 0.950 . S
C169 N165 1.383 . S
C169 C168 1.439 . S
C169 C198 1.392 . S
N170 Co164 2.008 . S
N170 C171 1.376 . S
N170 C174 1.374 . S
C171 N170 1.376 . S
C171 C172 1.443 . S
C171 C198 1.389 . S
C172 C171 1.443 . S
C172 C173 1.340 . S
C172 H204 0.951 . S
C173 C172 1.340 . S
C173 C174 1.439 . S
C173 H205 0.950 . S
C174 N170 1.374 . S
C174 C173 1.439 . S
C174 C199 1.395 . S
N175 Co164 1.995 . S
N175 C176 1.376 . S
N175 C179 1.383 . S
C176 N175 1.376 . S
C176 C177 1.446 . S
C176 C199 1.391 . S
C177 C176 1.446 . S
C177 C178 1.339 . S
C177 H206 0.949 . S
C178 C177 1.339 . S
C178 C179 1.439 . S
C178 H207 0.950 . S
C179 N175 1.383 . S
C179 C178 1.439 . S
C179 C197 1.392 . S
N180 Co164 2.282 . S
N180 C183 1.332 . S
N180 C185 1.332 . S
C181 C182 1.386 . S
C181 C184 1.388 . S
C182 C181 1.386 . S
C182 C183 1.382 . S
C182 H208 0.950 . S
C183 N180 1.332 . S
C183 C182 1.382 . S
C183 H194 0.952 . S
C184 C181 1.388 . S
C184 C185 1.382 . S
C184 H209 0.950 . S
C185 N180 1.332 . S
C185 C184 1.382 . S
C185 H195 0.948 . S
N186 Co164 2.282 . S
N186 C190 1.332 . S
N186 C191 1.332 . S
C187 C188 1.388 . S
C187 C191 1.382 . S
C187 H210 0.950 . S
C188 C187 1.388 . S
C188 C189 1.386 . S
C189 C188 1.386 . S
C189 C190 1.382 . S
C189 H211 0.950 . S
C190 N186 1.332 . S
C190 C189 1.382 . S
C190 H192 0.952 . S
C191 N186 1.332 . S
C191 C187 1.382 . S
C191 H193 0.948 . S
H192 C190 0.952 . S
H193 C191 0.948 . S
H194 C183 0.952 . S
H195 C185 0.948 . S
C196 C162 1.395 . S
C196 C166 1.391 . S
C197 C159 1.389 . S
C197 C179 1.392 . S
C198 C169 1.392 . S
C198 C171 1.389 . S
C199 C174 1.395 . S
C199 C176 1.391 . S
H200 C160 0.951 . S
H201 C161 0.950 . S
H202 C167 0.949 . S
H203 C168 0.950 . S
H204 C172 0.951 . S
H205 C173 0.950 . S
H206 C177 0.949 . S
H207 C178 0.950 . S
H208 C182 0.950 . S
H209 C184 0.950 . S
H210 C187 0.950 . S
H211 C189 0.950 . S
C212 C213 1.443 . S
C212 N216 1.376 . S
C212 C250 1.389 . S
C213 C212 1.443 . S
C213 C214 1.340 . S
C213 H253 0.951 . S
C214 C213 1.340 . S
C214 C215 1.439 . S
C214 H254 0.950 . S
C215 C214 1.439 . S
C215 N216 1.374 . S
C215 C249 1.395 . S
N216 C212 1.376 . S
N216 C215 1.374 . S
N216 Co217 2.008 . S
Co217 N216 2.008 . S
Co217 N218 1.995 . S
Co217 N223 2.008 . S
Co217 N228 1.995 . S
Co217 N233 2.282 . S
Co217 N239 2.282 . S
N218 Co217 1.995 . S
N218 C219 1.376 . S
N218 C222 1.383 . S
C219 N218 1.376 . S
C219 C220 1.446 . S
C219 C249 1.391 . S
C220 C219 1.446 . S
C220 C221 1.339 . S
C220 H255 0.949 . S
C221 C220 1.339 . S
C221 C222 1.439 . S
C221 H256 0.950 . S
C222 N218 1.383 . S
C222 C221 1.439 . S
C222 C251 1.392 . S
N223 Co217 2.008 . S
N223 C224 1.376 . S
N223 C227 1.374 . S
C224 N223 1.376 . S
C224 C225 1.443 . S
C224 C251 1.389 . S
C225 C224 1.443 . S
C225 C226 1.340 . S
C225 H257 0.951 . S
C226 C225 1.340 . S
C226 C227 1.439 . S
C226 H258 0.950 . S
C227 N223 1.374 . S
C227 C226 1.439 . S
C227 C252 1.395 . S
N228 Co217 1.995 . S
N228 C229 1.376 . S
N228 C232 1.383 . S
C229 N228 1.376 . S
C229 C230 1.446 . S
C229 C252 1.391 . S
C230 C229 1.446 . S
C230 C231 1.339 . S
C230 H259 0.949 . S
C231 C230 1.339 . S
C231 C232 1.439 . S
C231 H260 0.950 . S
C232 N228 1.383 . S
C232 C231 1.439 . S
C232 C250 1.392 . S
N233 Co217 2.282 . S
N233 C236 1.332 . S
N233 C238 1.332 . S
C234 C235 1.386 . S
C234 C237 1.388 . S
C235 C234 1.386 . S
C235 C236 1.382 . S
C235 H261 0.950 . S
C236 N233 1.332 . S
C236 C235 1.382 . S
C236 H247 0.952 . S
C237 C234 1.388 . S
C237 C238 1.382 . S
C237 H262 0.950 . S
C238 N233 1.332 . S
C238 C237 1.382 . S
C238 H248 0.948 . S
N239 Co217 2.282 . S
N239 C243 1.332 . S
N239 C244 1.332 . S
C240 C241 1.388 . S
C240 C244 1.382 . S
C240 H263 0.950 . S
C241 C240 1.388 . S
C241 C242 1.386 . S
C242 C241 1.386 . S
C242 C243 1.382 . S
C242 H264 0.950 . S
C243 N239 1.332 . S
C243 C242 1.382 . S
C243 H245 0.952 . S
C244 N239 1.332 . S
C244 C240 1.382 . S
C244 H246 0.948 . S
H245 C243 0.952 . S
H246 C244 0.948 . S
H247 C236 0.952 . S
H248 C238 0.948 . S
C249 C215 1.395 . S
C249 C219 1.391 . S
C250 C212 1.389 . S
C250 C232 1.392 . S
C251 C222 1.392 . S
C251 C224 1.389 . S
C252 C227 1.395 . S
C252 C229 1.391 . S
H253 C213 0.951 . S
H254 C214 0.950 . S
H255 C220 0.949 . S
H256 C221 0.950 . S
H257 C225 0.951 . S
H258 C226 0.950 . S
H259 C230 0.949 . S
H260 C231 0.950 . S
H261 C235 0.950 . S
H262 C237 0.950 . S
H263 C240 0.950 . S
H264 C242 0.950 . S
C265 C266 1.443 . S
C265 N269 1.376 . S
C265 C303 1.389 . S
C266 C265 1.443 . S
C266 C267 1.340 . S
C266 H306 0.951 . S
C267 C266 1.340 . S
C267 C268 1.439 . S
C267 H307 0.950 . S
C268 C267 1.439 . S
C268 N269 1.374 . S
C268 C302 1.395 . S
N269 C265 1.376 . S
N269 C268 1.374 . S
N269 Co270 2.008 . S
Co270 N269 2.008 . S
Co270 N271 1.995 . S
Co270 N276 2.008 . S
Co270 N281 1.995 . S
Co270 N286 2.282 . S
Co270 N292 2.282 . S
N271 Co270 1.995 . S
N271 C272 1.376 . S
N271 C275 1.383 . S
C272 N271 1.376 . S
C272 C273 1.446 . S
C272 C302 1.391 . S
C273 C272 1.446 . S
C273 C274 1.339 . S
C273 H308 0.949 . S
C274 C273 1.339 . S
C274 C275 1.439 . S
C274 H309 0.950 . S
C275 N271 1.383 . S
C275 C274 1.439 . S
C275 C304 1.392 . S
N276 Co270 2.008 . S
N276 C277 1.376 . S
N276 C280 1.374 . S
C277 N276 1.376 . S
C277 C278 1.443 . S
C277 C304 1.389 . S
C278 C277 1.443 . S
C278 C279 1.340 . S
C278 H310 0.951 . S
C279 C278 1.340 . S
C279 C280 1.439 . S
C279 H311 0.950 . S
C280 N276 1.374 . S
C280 C279 1.439 . S
C280 C305 1.395 . S
N281 Co270 1.995 . S
N281 C282 1.376 . S
N281 C285 1.383 . S
C282 N281 1.376 . S
C282 C283 1.446 . S
C282 C305 1.391 . S
C283 C282 1.446 . S
C283 C284 1.339 . S
C283 H312 0.949 . S
C284 C283 1.339 . S
C284 C285 1.439 . S
C284 H313 0.950 . S
C285 N281 1.383 . S
C285 C284 1.439 . S
C285 C303 1.392 . S
N286 Co270 2.282 . S
N286 C289 1.332 . S
N286 C291 1.332 . S
C287 C288 1.386 . S
C287 C290 1.388 . S
C288 C287 1.386 . S
C288 C289 1.382 . S
C288 H314 0.950 . S
C289 N286 1.332 . S
C289 C288 1.382 . S
C289 H300 0.952 . S
C290 C287 1.388 . S
C290 C291 1.382 . S
C290 H315 0.950 . S
C291 N286 1.332 . S
C291 C290 1.382 . S
C291 H301 0.948 . S
N292 Co270 2.282 . S
N292 C296 1.332 . S
N292 C297 1.332 . S
C293 C294 1.388 . S
C293 C297 1.382 . S
C293 H316 0.950 . S
C294 C293 1.388 . S
C294 C295 1.386 . S
C295 C294 1.386 . S
C295 C296 1.382 . S
C295 H317 0.950 . S
C296 N292 1.332 . S
C296 C295 1.382 . S
C296 H298 0.952 . S
C297 N292 1.332 . S
C297 C293 1.382 . S
C297 H299 0.948 . S
H298 C296 0.952 . S
H299 C297 0.948 . S
H300 C289 0.952 . S
H301 C291 0.948 . S
C302 C268 1.395 . S
C302 C272 1.391 . S
C303 C265 1.389 . S
C303 C285 1.392 . S
C304 C275 1.392 . S
C304 C277 1.389 . S
C305 C280 1.395 . S
C305 C282 1.391 . S
H306 C266 0.951 . S
H307 C267 0.950 . S
H308 C273 0.949 . S
H309 C274 0.950 . S
H310 C278 0.951 . S
H311 C279 0.950 . S
H312 C283 0.949 . S
H313 C284 0.950 . S
H314 C288 0.950 . S
H315 C290 0.950 . S
H316 C293 0.950 . S
H317 C295 0.950 . S
C318 C319 1.443 . S
C318 N322 1.376 . S
C318 C356 1.389 . S
C319 C318 1.443 . S
C319 C320 1.340 . S
C319 H359 0.951 . S
C320 C319 1.340 . S
C320 C321 1.439 . S
C320 H360 0.950 . S
C321 C320 1.439 . S
C321 N322 1.374 . S
C321 C355 1.395 . S
N322 C318 1.376 . S
N322 C321 1.374 . S
N322 Co323 2.008 . S
Co323 N322 2.008 . S
Co323 N324 1.995 . S
Co323 N329 2.008 . S
Co323 N334 1.995 . S
Co323 N339 2.282 . S
Co323 N345 2.282 . S
N324 Co323 1.995 . S
N324 C325 1.376 . S
N324 C328 1.383 . S
C325 N324 1.376 . S
C325 C326 1.446 . S
C325 C355 1.391 . S
C326 C325 1.446 . S
C326 C327 1.339 . S
C326 H361 0.949 . S
C327 C326 1.339 . S
C327 C328 1.439 . S
C327 H362 0.950 . S
C328 N324 1.383 . S
C328 C327 1.439 . S
C328 C357 1.392 . S
N329 Co323 2.008 . S
N329 C330 1.376 . S
N329 C333 1.374 . S
C330 N329 1.376 . S
C330 C331 1.443 . S
C330 C357 1.389 . S
C331 C330 1.443 . S
C331 C332 1.340 . S
C331 H363 0.951 . S
C332 C331 1.340 . S
C332 C333 1.439 . S
C332 H364 0.950 . S
C333 N329 1.374 . S
C333 C332 1.439 . S
C333 C358 1.395 . S
N334 Co323 1.995 . S
N334 C335 1.376 . S
N334 C338 1.383 . S
C335 N334 1.376 . S
C335 C336 1.446 . S
C335 C358 1.391 . S
C336 C335 1.446 . S
C336 C337 1.339 . S
C336 H365 0.949 . S
C337 C336 1.339 . S
C337 C338 1.439 . S
C337 H366 0.950 . S
C338 N334 1.383 . S
C338 C337 1.439 . S
C338 C356 1.392 . S
N339 Co323 2.282 . S
N339 C342 1.332 . S
N339 C344 1.332 . S
C340 C341 1.386 . S
C340 C343 1.388 . S
C341 C340 1.386 . S
C341 C342 1.382 . S
C341 H367 0.950 . S
C342 N339 1.332 . S
C342 C341 1.382 . S
C342 H353 0.952 . S
C343 C340 1.388 . S
C343 C344 1.382 . S
C343 H368 0.950 . S
C344 N339 1.332 . S
C344 C343 1.382 . S
C344 H354 0.948 . S
N345 Co323 2.282 . S
N345 C349 1.332 . S
N345 C350 1.332 . S
C346 C347 1.388 . S
C346 C350 1.382 . S
C346 H369 0.950 . S
C347 C346 1.388 . S
C347 C348 1.386 . S
C348 C347 1.386 . S
C348 C349 1.382 . S
C348 H370 0.950 . S
C349 N345 1.332 . S
C349 C348 1.382 . S
C349 H351 0.952 . S
C350 N345 1.332 . S
C350 C346 1.382 . S
C350 H352 0.948 . S
H351 C349 0.952 . S
H352 C350 0.948 . S
H353 C342 0.952 . S
H354 C344 0.948 . S
C355 C321 1.395 . S
C355 C325 1.391 . S
C356 C318 1.389 . S
C356 C338 1.392 . S
C357 C328 1.392 . S
C357 C330 1.389 . S
C358 C333 1.395 . S
C358 C335 1.391 . S
H359 C319 0.951 . S
H360 C320 0.950 . S
H361 C326 0.949 . S
H362 C327 0.950 . S
H363 C331 0.951 . S
H364 C332 0.950 . S
H365 C336 0.949 . S
H366 C337 0.950 . S
H367 C341 0.950 . S
H368 C343 0.950 . S
H369 C346 0.950 . S
H370 C348 0.950 . S
C371 C372 1.443 . S
C371 N375 1.376 . S
C371 C409 1.389 . S
C372 C371 1.443 . S
C372 C373 1.340 . S
C372 H412 0.951 . S
C373 C372 1.340 . S
C373 C374 1.439 . S
C373 H413 0.950 . S
C374 C373 1.439 . S
C374 N375 1.374 . S
C374 C408 1.395 . S
N375 C371 1.376 . S
N375 C374 1.374 . S
N375 Co376 2.008 . S
Co376 N375 2.008 . S
Co376 N377 1.995 . S
Co376 N382 2.008 . S
Co376 N387 1.995 . S
Co376 N392 2.282 . S
Co376 N398 2.282 . S
N377 Co376 1.995 . S
N377 C378 1.376 . S
N377 C381 1.383 . S
C378 N377 1.376 . S
C378 C379 1.446 . S
C378 C408 1.391 . S
C379 C378 1.446 . S
C379 C380 1.339 . S
C379 H414 0.949 . S
C380 C379 1.339 . S
C380 C381 1.439 . S
C380 H415 0.950 . S
C381 N377 1.383 . S
C381 C380 1.439 . S
C381 C410 1.392 . S
N382 Co376 2.008 . S
N382 C383 1.376 . S
N382 C386 1.374 . S
C383 N382 1.376 . S
C383 C384 1.443 . S
C383 C410 1.389 . S
C384 C383 1.443 . S
C384 C385 1.340 . S
C384 H416 0.951 . S
C385 C384 1.340 . S
C385 C386 1.439 . S
C385 H417 0.950 . S
C386 N382 1.374 . S
C386 C385 1.439 . S
C386 C411 1.395 . S
N387 Co376 1.995 . S
N387 C388 1.376 . S
N387 C391 1.383 . S
C388 N387 1.376 . S
C388 C389 1.446 . S
C388 C411 1.391 . S
C389 C388 1.446 . S
C389 C390 1.339 . S
C389 H418 0.949 . S
C390 C389 1.339 . S
C390 C391 1.439 . S
C390 H419 0.950 . S
C391 N387 1.383 . S
C391 C390 1.439 . S
C391 C409 1.392 . S
N392 Co376 2.282 . S
N392 C395 1.332 . S
N392 C397 1.332 . S
C393 C394 1.386 . S
C393 C396 1.388 . S
C394 C393 1.386 . S
C394 C395 1.382 . S
C394 H420 0.950 . S
C395 N392 1.332 . S
C395 C394 1.382 . S
C395 H406 0.952 . S
C396 C393 1.388 . S
C396 C397 1.382 . S
C396 H421 0.950 . S
C397 N392 1.332 . S
C397 C396 1.382 . S
C397 H407 0.948 . S
N398 Co376 2.282 . S
N398 C402 1.332 . S
N398 C403 1.332 . S
C399 C400 1.388 . S
C399 C403 1.382 . S
C399 H422 0.950 . S
C400 C399 1.388 . S
C400 C401 1.386 . S
C401 C400 1.386 . S
C401 C402 1.382 . S
C401 H423 0.950 . S
C402 N398 1.332 . S
C402 C401 1.382 . S
C402 H404 0.952 . S
C403 N398 1.332 . S
C403 C399 1.382 . S
C403 H405 0.948 . S
H404 C402 0.952 . S
H405 C403 0.948 . S
H406 C395 0.952 . S
H407 C397 0.948 . S
C408 C374 1.395 . S
C408 C378 1.391 . S
C409 C371 1.389 . S
C409 C391 1.392 . S
C410 C381 1.392 . S
C410 C383 1.389 . S
C411 C386 1.395 . S
C411 C388 1.391 . S
H412 C372 0.951 . S
H413 C373 0.950 . S
H414 C379 0.949 . S
H415 C380 0.950 . S
H416 C384 0.951 . S
H417 C385 0.950 . S
H418 C389 0.949 . S
H419 C390 0.950 . S
H420 C394 0.950 . S
H421 C396 0.950 . S
H422 C399 0.950 . S
H423 C401 0.950 . S
C424 C425 1.443 . S
C424 N428 1.376 . S
C424 C462 1.389 . S
C425 C424 1.443 . S
C425 C426 1.340 . S
C425 H465 0.951 . S
C426 C425 1.340 . S
C426 C427 1.439 . S
C426 H466 0.950 . S
C427 C426 1.439 . S
C427 N428 1.374 . S
C427 C461 1.395 . S
N428 C424 1.376 . S
N428 C427 1.374 . S
N428 Co429 2.008 . S
Co429 N428 2.008 . S
Co429 N430 1.995 . S
Co429 N435 2.008 . S
Co429 N440 1.995 . S
Co429 N445 2.282 . S
Co429 N451 2.282 . S
N430 Co429 1.995 . S
N430 C431 1.376 . S
N430 C434 1.383 . S
C431 N430 1.376 . S
C431 C432 1.446 . S
C431 C461 1.391 . S
C432 C431 1.446 . S
C432 C433 1.339 . S
C432 H467 0.949 . S
C433 C432 1.339 . S
C433 C434 1.439 . S
C433 H468 0.950 . S
C434 N430 1.383 . S
C434 C433 1.439 . S
C434 C463 1.392 . S
N435 Co429 2.008 . S
N435 C436 1.376 . S
N435 C439 1.374 . S
C436 N435 1.376 . S
C436 C437 1.443 . S
C436 C463 1.389 . S
C437 C436 1.443 . S
C437 C438 1.340 . S
C437 H469 0.951 . S
C438 C437 1.340 . S
C438 C439 1.439 . S
C438 H470 0.950 . S
C439 N435 1.374 . S
C439 C438 1.439 . S
C439 C464 1.395 . S
N440 Co429 1.995 . S
N440 C441 1.376 . S
N440 C444 1.383 . S
C441 N440 1.376 . S
C441 C442 1.446 . S
C441 C464 1.391 . S
C442 C441 1.446 . S
C442 C443 1.339 . S
C442 H471 0.949 . S
C443 C442 1.339 . S
C443 C444 1.439 . S
C443 H472 0.950 . S
C444 N440 1.383 . S
C444 C443 1.439 . S
C444 C462 1.392 . S
N445 Co429 2.282 . S
N445 C448 1.332 . S
N445 C450 1.332 . S
C446 C447 1.386 . S
C446 C449 1.388 . S
C447 C446 1.386 . S
C447 C448 1.382 . S
C447 H473 0.972 . S
C448 N445 1.332 . S
C448 C447 1.382 . S
C448 H459 0.952 . S
C449 C446 1.388 . S
C449 C450 1.382 . S
C449 H474 0.950 . S
C450 N445 1.332 . S
C450 C449 1.382 . S
C450 H460 0.948 . S
N451 Co429 2.282 . S
N451 C455 1.332 . S
N451 C456 1.332 . S
C452 C453 1.388 . S
C452 C456 1.382 . S
C452 H475 0.950 . S
C453 C452 1.388 . S
C453 C454 1.386 . S
C454 C453 1.386 . S
C454 C455 1.382 . S
C454 H476 0.950 . S
C455 N451 1.332 . S
C455 C454 1.382 . S
C455 H457 0.952 . S
C456 N451 1.332 . S
C456 C452 1.382 . S
C456 H458 0.948 . S
H457 C455 0.952 . S
H458 C456 0.948 . S
H459 C448 0.952 . S
H460 C450 0.948 . S
C461 C427 1.395 . S
C461 C431 1.391 . S
C462 C424 1.389 . S
C462 C444 1.392 . S
C463 C434 1.392 . S
C463 C436 1.389 . S
C464 C439 1.395 . S
C464 C441 1.391 . S
H465 C425 0.951 . S
H466 C426 0.950 . S
H467 C432 0.949 . S
H468 C433 0.950 . S
H469 C437 0.951 . S
H470 C438 0.950 . S
H471 C442 0.949 . S
H472 C443 0.950 . S
H473 C447 0.972 . S
H474 C449 0.950 . S
H475 C452 0.950 . S
H476 C454 0.950 . S
C477 C478 1.443 . S
C477 N481 1.376 . S
C477 C515 1.389 . S
C478 C477 1.443 . S
C478 C479 1.340 . S
C478 H518 0.951 . S
C479 C478 1.340 . S
C479 C480 1.439 . S
C479 H519 0.950 . S
C480 C479 1.439 . S
C480 N481 1.374 . S
C480 C514 1.395 . S
N481 C477 1.376 . S
N481 C480 1.374 . S
N481 Co482 2.008 . S
Co482 N481 2.008 . S
Co482 N483 1.995 . S
Co482 N488 2.008 . S
Co482 N493 1.995 . S
Co482 N498 2.282 . S
Co482 N504 2.282 . S
N483 Co482 1.995 . S
N483 C484 1.376 . S
N483 C487 1.383 . S
C484 N483 1.376 . S
C484 C485 1.446 . S
C484 C514 1.391 . S
C485 C484 1.446 . S
C485 C486 1.339 . S
C485 H520 0.949 . S
C486 C485 1.339 . S
C486 C487 1.439 . S
C486 H521 0.950 . S
C487 N483 1.383 . S
C487 C486 1.439 . S
C487 C516 1.392 . S
N488 Co482 2.008 . S
N488 C489 1.376 . S
N488 C492 1.374 . S
C489 N488 1.376 . S
C489 C490 1.443 . S
C489 C516 1.389 . S
C490 C489 1.443 . S
C490 C491 1.340 . S
C490 H522 0.951 . S
C491 C490 1.340 . S
C491 C492 1.439 . S
C491 H523 0.950 . S
C492 N488 1.374 . S
C492 C491 1.439 . S
C492 C517 1.395 . S
N493 Co482 1.995 . S
N493 C494 1.376 . S
N493 C497 1.383 . S
C494 N493 1.376 . S
C494 C495 1.446 . S
C494 C517 1.391 . S
C495 C494 1.446 . S
C495 C496 1.339 . S
C495 H524 0.949 . S
C496 C495 1.339 . S
C496 C497 1.439 . S
C496 H525 0.950 . S
C497 N493 1.383 . S
C497 C496 1.439 . S
C497 C515 1.392 . S
N498 Co482 2.282 . S
N498 C501 1.332 . S
N498 C503 1.332 . S
C499 C500 1.386 . S
C499 C502 1.388 . S
C500 C499 1.386 . S
C500 C501 1.382 . S
C500 H526 0.950 . S
C501 N498 1.332 . S
C501 C500 1.382 . S
C501 H512 0.952 . S
C502 C499 1.388 . S
C502 C503 1.382 . S
C502 H527 0.950 . S
C503 N498 1.332 . S
C503 C502 1.382 . S
C503 H513 0.948 . S
N504 Co482 2.282 . S
N504 C508 1.332 . S
N504 C509 1.332 . S
C505 C506 1.388 . S
C505 C509 1.382 . S
C505 H528 0.950 . S
C506 C505 1.388 . S
C506 C507 1.386 . S
C507 C506 1.386 . S
C507 C508 1.382 . S
C507 H529 0.950 . S
C508 N504 1.332 . S
C508 C507 1.382 . S
C508 H510 0.952 . S
C509 N504 1.332 . S
C509 C505 1.382 . S
C509 H511 0.948 . S
H510 C508 0.952 . S
H511 C509 0.948 . S
H512 C501 0.952 . S
H513 C503 0.948 . S
C514 C480 1.395 . S
C514 C484 1.391 . S
C515 C477 1.389 . S
C515 C497 1.392 . S
C516 C487 1.392 . S
C516 C489 1.389 . S
C517 C492 1.395 . S
C517 C494 1.391 . S
H518 C478 0.951 . S
H519 C479 0.950 . S
H520 C485 0.949 . S
H521 C486 0.950 . S
H522 C490 0.951 . S
H523 C491 0.950 . S
H524 C495 0.949 . S
H525 C496 0.950 . S
H526 C500 0.950 . S
H527 C502 0.950 . S
H528 C505 0.950 . S
H529 C507 0.950 . S
C530 C531 1.443 . S
C530 N534 1.376 . S
C530 C568 1.389 . S
C531 C530 1.443 . S
C531 C532 1.340 . S
C531 H571 0.951 . S
C532 C531 1.340 . S
C532 C533 1.439 . S
C532 H572 0.950 . S
C533 C532 1.439 . S
C533 N534 1.374 . S
C533 C567 1.395 . S
N534 C530 1.376 . S
N534 C533 1.374 . S
N534 Co535 2.008 . S
Co535 N534 2.008 . S
Co535 N536 1.995 . S
Co535 N541 2.008 . S
Co535 N546 1.995 . S
Co535 N551 2.282 . S
Co535 N557 2.282 . S
N536 Co535 1.995 . S
N536 C537 1.376 . S
N536 C540 1.383 . S
C537 N536 1.376 . S
C537 C538 1.446 . S
C537 C567 1.391 . S
C538 C537 1.446 . S
C538 C539 1.339 . S
C538 H573 0.949 . S
C539 C538 1.339 . S
C539 C540 1.439 . S
C539 H574 0.950 . S
C540 N536 1.383 . S
C540 C539 1.439 . S
C540 C569 1.392 . S
N541 Co535 2.008 . S
N541 C542 1.376 . S
N541 C545 1.374 . S
C542 N541 1.376 . S
C542 C543 1.443 . S
C542 C569 1.389 . S
C543 C542 1.443 . S
C543 C544 1.340 . S
C543 H575 0.951 . S
C544 C543 1.340 . S
C544 C545 1.439 . S
C544 H576 0.950 . S
C545 N541 1.374 . S
C545 C544 1.439 . S
C545 C570 1.395 . S
N546 Co535 1.995 . S
N546 C547 1.376 . S
N546 C550 1.383 . S
C547 N546 1.376 . S
C547 C548 1.446 . S
C547 C570 1.391 . S
C548 C547 1.446 . S
C548 C549 1.339 . S
C548 H577 0.949 . S
C549 C548 1.339 . S
C549 C550 1.439 . S
C549 H578 0.950 . S
C550 N546 1.383 . S
C550 C549 1.439 . S
C550 C568 1.392 . S
N551 Co535 2.282 . S
N551 C554 1.332 . S
N551 C556 1.332 . S
C552 C553 1.386 . S
C552 C555 1.388 . S
C553 C552 1.386 . S
C553 C554 1.382 . S
C553 H579 0.950 . S
C554 N551 1.332 . S
C554 C553 1.382 . S
C554 H565 0.952 . S
C555 C552 1.388 . S
C555 C556 1.382 . S
C555 H580 0.950 . S
C556 N551 1.332 . S
C556 C555 1.382 . S
C556 H566 0.948 . S
N557 Co535 2.282 . S
N557 C561 1.332 . S
N557 C562 1.332 . S
C558 C559 1.388 . S
C558 C562 1.382 . S
C558 H581 0.950 . S
C559 C558 1.388 . S
C559 C560 1.386 . S
C560 C559 1.386 . S
C560 C561 1.382 . S
C560 H582 0.950 . S
C561 N557 1.332 . S
C561 C560 1.382 . S
C561 H563 0.952 . S
C562 N557 1.332 . S
C562 C558 1.382 . S
C562 H564 0.948 . S
H563 C561 0.952 . S
H564 C562 0.948 . S
H565 C554 0.952 . S
H566 C556 0.948 . S
C567 C533 1.395 . S
C567 C537 1.391 . S
C568 C530 1.389 . S
C568 C550 1.392 . S
C569 C540 1.392 . S
C569 C542 1.389 . S
C570 C545 1.395 . S
C570 C547 1.391 . S
H571 C531 0.951 . S
H572 C532 0.950 . S
H573 C538 0.949 . S
H574 C539 0.950 . S
H575 C543 0.951 . S
H576 C544 0.950 . S
H577 C548 0.949 . S
H578 C549 0.950 . S
H579 C553 0.950 . S
H580 C555 0.950 . S
H581 C558 0.950 . S
H582 C560 0.950 . S
C583 C584 1.443 . S
C583 N587 1.376 . S
C583 C621 1.389 . S
C584 C583 1.443 . S
C584 C585 1.340 . S
C584 H624 0.951 . S
C585 C584 1.340 . S
C585 C586 1.439 . S
C585 H625 0.950 . S
C586 C585 1.439 . S
C586 N587 1.374 . S
C586 C620 1.395 . S
N587 C583 1.376 . S
N587 C586 1.374 . S
N587 Co588 2.008 . S
Co588 N587 2.008 . S
Co588 N589 1.995 . S
Co588 N594 2.008 . S
Co588 N599 1.995 . S
Co588 N604 2.282 . S
Co588 N610 2.282 . S
N589 Co588 1.995 . S
N589 C590 1.376 . S
N589 C593 1.383 . S
C590 N589 1.376 . S
C590 C591 1.446 . S
C590 C620 1.391 . S
C591 C590 1.446 . S
C591 C592 1.339 . S
C591 H626 0.949 . S
C592 C591 1.339 . S
C592 C593 1.439 . S
C592 H627 0.950 . S
C593 N589 1.383 . S
C593 C592 1.439 . S
C593 C622 1.392 . S
N594 Co588 2.008 . S
N594 C595 1.376 . S
N594 C598 1.374 . S
C595 N594 1.376 . S
C595 C596 1.443 . S
C595 C622 1.389 . S
C596 C595 1.443 . S
C596 C597 1.340 . S
C596 H628 0.951 . S
C597 C596 1.340 . S
C597 C598 1.439 . S
C597 H629 0.950 . S
C598 N594 1.374 . S
C598 C597 1.439 . S
C598 C623 1.395 . S
N599 Co588 1.995 . S
N599 C600 1.376 . S
N599 C603 1.383 . S
C600 N599 1.376 . S
C600 C601 1.446 . S
C600 C623 1.391 . S
C601 C600 1.446 . S
C601 C602 1.339 . S
C601 H630 0.949 . S
C602 C601 1.339 . S
C602 C603 1.439 . S
C602 H631 0.950 . S
C603 N599 1.383 . S
C603 C602 1.439 . S
C603 C621 1.392 . S
N604 Co588 2.282 . S
N604 C607 1.332 . S
N604 C609 1.332 . S
C605 C606 1.386 . S
C605 C608 1.388 . S
C606 C605 1.386 . S
C606 C607 1.382 . S
C606 H632 0.972 . S
C607 N604 1.332 . S
C607 C606 1.382 . S
C607 H618 0.952 . S
C608 C605 1.388 . S
C608 C609 1.382 . S
C608 H633 0.950 . S
C609 N604 1.332 . S
C609 C608 1.382 . S
C609 H619 0.948 . S
N610 Co588 2.282 . S
N610 C614 1.332 . S
N610 C615 1.332 . S
C611 C612 1.388 . S
C611 C615 1.382 . S
C611 H634 0.950 . S
C612 C611 1.388 . S
C612 C613 1.386 . S
C613 C612 1.386 . S
C613 C614 1.382 . S
C613 H635 0.950 . S
C614 N610 1.332 . S
C614 C613 1.382 . S
C614 H616 0.952 . S
C615 N610 1.332 . S
C615 C611 1.382 . S
C615 H617 0.948 . S
H616 C614 0.952 . S
H617 C615 0.948 . S
H618 C607 0.952 . S
H619 C609 0.948 . S
C620 C586 1.395 . S
C620 C590 1.391 . S
C621 C583 1.389 . S
C621 C603 1.392 . S
C622 C593 1.392 . S
C622 C595 1.389 . S
C623 C598 1.395 . S
C623 C600 1.391 . S
H624 C584 0.951 . S
H625 C585 0.950 . S
H626 C591 0.949 . S
H627 C592 0.950 . S
H628 C596 0.951 . S
H629 C597 0.950 . S
H630 C601 0.949 . S
H631 C602 0.950 . S
H632 C606 0.972 . S
H633 C608 0.950 . S
H634 C611 0.950 . S
H635 C613 0.950 . S
C636 C637 1.443 . S
C636 N640 1.376 . S
C636 C674 1.389 . S
C637 C636 1.443 . S
C637 C638 1.340 . S
C637 H677 0.951 . S
C638 C637 1.340 . S
C638 C639 1.439 . S
C638 H678 0.950 . S
C639 C638 1.439 . S
C639 N640 1.374 . S
C639 C673 1.395 . S
N640 C636 1.376 . S
N640 C639 1.374 . S
N640 Co641 2.008 . S
Co641 N640 2.008 . S
Co641 N642 1.995 . S
Co641 N647 2.008 . S
Co641 N652 1.995 . S
Co641 N657 2.282 . S
Co641 N663 2.282 . S
N642 Co641 1.995 . S
N642 C643 1.376 . S
N642 C646 1.383 . S
C643 N642 1.376 . S
C643 C644 1.446 . S
C643 C673 1.391 . S
C644 C643 1.446 . S
C644 C645 1.339 . S
C644 H679 0.949 . S
C645 C644 1.339 . S
C645 C646 1.439 . S
C645 H680 0.950 . S
C646 N642 1.383 . S
C646 C645 1.439 . S
C646 C675 1.392 . S
N647 Co641 2.008 . S
N647 C648 1.376 . S
N647 C651 1.374 . S
C648 N647 1.376 . S
C648 C649 1.443 . S
C648 C675 1.389 . S
C649 C648 1.443 . S
C649 C650 1.340 . S
C649 H681 0.951 . S
C650 C649 1.340 . S
C650 C651 1.439 . S
C650 H682 0.950 . S
C651 N647 1.374 . S
C651 C650 1.439 . S
C651 C676 1.395 . S
N652 Co641 1.995 . S
N652 C653 1.376 . S
N652 C656 1.383 . S
C653 N652 1.376 . S
C653 C654 1.446 . S
C653 C676 1.391 . S
C654 C653 1.446 . S
C654 C655 1.339 . S
C654 H683 0.949 . S
C655 C654 1.339 . S
C655 C656 1.439 . S
C655 H684 0.950 . S
C656 N652 1.383 . S
C656 C655 1.439 . S
C656 C674 1.392 . S
N657 Co641 2.282 . S
N657 C660 1.332 . S
N657 C662 1.332 . S
C658 C659 1.386 . S
C658 C661 1.388 . S
C659 C658 1.386 . S
C659 C660 1.382 . S
C659 H685 0.950 . S
C660 N657 1.332 . S
C660 C659 1.382 . S
C660 H671 0.952 . S
C661 C658 1.388 . S
C661 C662 1.382 . S
C661 H686 0.950 . S
C662 N657 1.332 . S
C662 C661 1.382 . S
C662 H672 0.948 . S
N663 Co641 2.282 . S
N663 C667 1.332 . S
N663 C668 1.332 . S
C664 C665 1.388 . S
C664 C668 1.382 . S
C664 H687 0.950 . S
C665 C664 1.388 . S
C665 C666 1.386 . S
C666 C665 1.386 . S
C666 C667 1.382 . S
C666 H688 0.950 . S
C667 N663 1.332 . S
C667 C666 1.382 . S
C667 H669 0.952 . S
C668 N663 1.332 . S
C668 C664 1.382 . S
C668 H670 0.948 . S
H669 C667 0.952 . S
H670 C668 0.948 . S
H671 C660 0.952 . S
H672 C662 0.948 . S
C673 C639 1.395 . S
C673 C643 1.391 . S
C674 C636 1.389 . S
C674 C656 1.392 . S
C675 C646 1.392 . S
C675 C648 1.389 . S
C676 C651 1.395 . S
C676 C653 1.391 . S
H677 C637 0.951 . S
H678 C638 0.950 . S
H679 C644 0.949 . S
H680 C645 0.950 . S
H681 C649 0.951 . S
H682 C650 0.950 . S
H683 C654 0.949 . S
H684 C655 0.950 . S
H685 C659 0.950 . S
H686 C661 0.950 . S
H687 C664 0.950 . S
H688 C666 0.950 . S
C689 C690 1.443 . S
C689 N693 1.376 . S
C689 C727 1.389 . S
C690 C689 1.443 . S
C690 C691 1.340 . S
C690 H730 0.951 . S
C691 C690 1.340 . S
C691 C692 1.439 . S
C691 H731 0.950 . S
C692 C691 1.439 . S
C692 N693 1.374 . S
C692 C726 1.395 . S
N693 C689 1.376 . S
N693 C692 1.374 . S
N693 Co694 2.008 . S
Co694 N693 2.008 . S
Co694 N695 1.995 . S
Co694 N700 2.008 . S
Co694 N705 1.995 . S
Co694 N710 2.282 . S
Co694 N716 2.282 . S
N695 Co694 1.995 . S
N695 C696 1.376 . S
N695 C699 1.383 . S
C696 N695 1.376 . S
C696 C697 1.446 . S
C696 C726 1.391 . S
C697 C696 1.446 . S
C697 C698 1.339 . S
C697 H732 0.949 . S
C698 C697 1.339 . S
C698 C699 1.439 . S
C698 H733 0.950 . S
C699 N695 1.383 . S
C699 C698 1.439 . S
C699 C728 1.392 . S
N700 Co694 2.008 . S
N700 C701 1.376 . S
N700 C704 1.374 . S
C701 N700 1.376 . S
C701 C702 1.443 . S
C701 C728 1.389 . S
C702 C701 1.443 . S
C702 C703 1.340 . S
C702 H734 0.951 . S
C703 C702 1.340 . S
C703 C704 1.439 . S
C703 H735 0.950 . S
C704 N700 1.374 . S
C704 C703 1.439 . S
C704 C729 1.395 . S
N705 Co694 1.995 . S
N705 C706 1.376 . S
N705 C709 1.383 . S
C706 N705 1.376 . S
C706 C707 1.446 . S
C706 C729 1.391 . S
C707 C706 1.446 . S
C707 C708 1.339 . S
C707 H736 0.949 . S
C708 C707 1.339 . S
C708 C709 1.439 . S
C708 H737 0.950 . S
C709 N705 1.383 . S
C709 C708 1.439 . S
C709 C727 1.392 . S
N710 Co694 2.282 . S
N710 C713 1.332 . S
N710 C715 1.332 . S
C711 C712 1.386 . S
C711 C714 1.388 . S
C712 C711 1.386 . S
C712 C713 1.382 . S
C712 H738 0.972 . S
C713 N710 1.332 . S
C713 C712 1.382 . S
C713 H724 0.952 . S
C714 C711 1.388 . S
C714 C715 1.382 . S
C714 H739 0.950 . S
C715 N710 1.332 . S
C715 C714 1.382 . S
C715 H725 0.948 . S
N716 Co694 2.282 . S
N716 C720 1.332 . S
N716 C721 1.332 . S
C717 C718 1.388 . S
C717 C721 1.382 . S
C717 H740 0.950 . S
C718 C717 1.388 . S
C718 C719 1.386 . S
C719 C718 1.386 . S
C719 C720 1.382 . S
C719 H741 0.950 . S
C720 N716 1.332 . S
C720 C719 1.382 . S
C720 H722 0.952 . S
C721 N716 1.332 . S
C721 C717 1.382 . S
C721 H723 0.948 . S
H722 C720 0.952 . S
H723 C721 0.948 . S
H724 C713 0.952 . S
H725 C715 0.948 . S
C726 C692 1.395 . S
C726 C696 1.391 . S
C727 C689 1.389 . S
C727 C709 1.392 . S
C728 C699 1.392 . S
C728 C701 1.389 . S
C729 C704 1.395 . S
C729 C706 1.391 . S
H730 C690 0.951 . S
H731 C691 0.950 . S
H732 C697 0.949 . S
H733 C698 0.950 . S
H734 C702 0.951 . S
H735 C703 0.950 . S
H736 C707 0.949 . S
H737 C708 0.950 . S
H738 C712 0.972 . S
H739 C714 0.950 . S
H740 C717 0.950 . S
H741 C719 0.950 . S
C742 C743 1.443 . S
C742 N746 1.376 . S
C742 C780 1.389 . S
C743 C742 1.443 . S
C743 C744 1.340 . S
C743 H783 0.951 . S
C744 C743 1.340 . S
C744 C745 1.439 . S
C744 H784 0.950 . S
C745 C744 1.439 . S
C745 N746 1.374 . S
C745 C779 1.395 . S
N746 C742 1.376 . S
N746 C745 1.374 . S
N746 Co747 2.008 . S
Co747 N746 2.008 . S
Co747 N748 1.995 . S
Co747 N753 2.008 . S
Co747 N758 1.995 . S
Co747 N763 2.282 . S
Co747 N769 2.282 . S
N748 Co747 1.995 . S
N748 C749 1.376 . S
N748 C752 1.383 . S
C749 N748 1.376 . S
C749 C750 1.446 . S
C749 C779 1.391 . S
C750 C749 1.446 . S
C750 C751 1.339 . S
C750 H785 0.949 . S
C751 C750 1.339 . S
C751 C752 1.439 . S
C751 H786 0.950 . S
C752 N748 1.383 . S
C752 C751 1.439 . S
C752 C781 1.392 . S
N753 Co747 2.008 . S
N753 C754 1.376 . S
N753 C757 1.374 . S
C754 N753 1.376 . S
C754 C755 1.443 . S
C754 C781 1.389 . S
C755 C754 1.443 . S
C755 C756 1.340 . S
C755 H787 0.951 . S
C756 C755 1.340 . S
C756 C757 1.439 . S
C756 H788 0.950 . S
C757 N753 1.374 . S
C757 C756 1.439 . S
C757 C782 1.395 . S
N758 Co747 1.995 . S
N758 C759 1.376 . S
N758 C762 1.383 . S
C759 N758 1.376 . S
C759 C760 1.446 . S
C759 C782 1.391 . S
C760 C759 1.446 . S
C760 C761 1.339 . S
C760 H789 0.949 . S
C761 C760 1.339 . S
C761 C762 1.439 . S
C761 H790 0.950 . S
C762 N758 1.383 . S
C762 C761 1.439 . S
C762 C780 1.392 . S
N763 Co747 2.282 . S
N763 C766 1.332 . S
N763 C768 1.332 . S
C764 C765 1.386 . S
C764 C767 1.388 . S
C765 C764 1.386 . S
C765 C766 1.382 . S
C765 H791 0.972 . S
C766 N763 1.332 . S
C766 C765 1.382 . S
C766 H777 0.952 . S
C767 C764 1.388 . S
C767 C768 1.382 . S
C767 H792 0.950 . S
C768 N763 1.332 . S
C768 C767 1.382 . S
C768 H778 0.948 . S
N769 Co747 2.282 . S
N769 C773 1.332 . S
N769 C774 1.332 . S
C770 C771 1.388 . S
C770 C774 1.382 . S
C770 H793 0.950 . S
C771 C770 1.388 . S
C771 C772 1.386 . S
C772 C771 1.386 . S
C772 C773 1.382 . S
C772 H794 0.950 . S
C773 N769 1.332 . S
C773 C772 1.382 . S
C773 H775 0.952 . S
C774 N769 1.332 . S
C774 C770 1.382 . S
C774 H776 0.948 . S
H775 C773 0.952 . S
H776 C774 0.948 . S
H777 C766 0.952 . S
H778 C768 0.948 . S
C779 C745 1.395 . S
C779 C749 1.391 . S
C780 C742 1.389 . S
C780 C762 1.392 . S
C781 C752 1.392 . S
C781 C754 1.389 . S
C782 C757 1.395 . S
C782 C759 1.391 . S
H783 C743 0.951 . S
H784 C744 0.950 . S
H785 C750 0.949 . S
H786 C751 0.950 . S
H787 C755 0.951 . S
H788 C756 0.950 . S
H789 C760 0.949 . S
H790 C761 0.950 . S
H791 C765 0.972 . S
H792 C767 0.950 . S
H793 C770 0.950 . S
H794 C772 0.950 . S
C795 C796 1.443 . S
C795 N799 1.376 . S
C795 C833 1.389 . S
C796 C795 1.443 . S
C796 C797 1.340 . S
C796 H836 0.951 . S
C797 C796 1.340 . S
C797 C798 1.439 . S
C797 H837 0.950 . S
C798 C797 1.439 . S
C798 N799 1.374 . S
C798 C832 1.395 . S
N799 C795 1.376 . S
N799 C798 1.374 . S
N799 Co800 2.008 . S
Co800 N799 2.008 . S
Co800 N801 1.995 . S
Co800 N806 2.008 . S
Co800 N811 1.995 . S
Co800 N816 2.282 . S
Co800 N822 2.282 . S
N801 Co800 1.995 . S
N801 C802 1.376 . S
N801 C805 1.383 . S
C802 N801 1.376 . S
C802 C803 1.446 . S
C802 C832 1.391 . S
C803 C802 1.446 . S
C803 C804 1.339 . S
C803 H838 0.949 . S
C804 C803 1.339 . S
C804 C805 1.439 . S
C804 H839 0.950 . S
C805 N801 1.383 . S
C805 C804 1.439 . S
C805 C834 1.392 . S
N806 Co800 2.008 . S
N806 C807 1.376 . S
N806 C810 1.374 . S
C807 N806 1.376 . S
C807 C808 1.443 . S
C807 C834 1.389 . S
C808 C807 1.443 . S
C808 C809 1.340 . S
C808 H840 0.951 . S
C809 C808 1.340 . S
C809 C810 1.439 . S
C809 H841 0.950 . S
C810 N806 1.374 . S
C810 C809 1.439 . S
C810 C835 1.395 . S
N811 Co800 1.995 . S
N811 C812 1.376 . S
N811 C815 1.383 . S
C812 N811 1.376 . S
C812 C813 1.446 . S
C812 C835 1.391 . S
C813 C812 1.446 . S
C813 C814 1.339 . S
C813 H842 0.949 . S
C814 C813 1.339 . S
C814 C815 1.439 . S
C814 H843 0.950 . S
C815 N811 1.383 . S
C815 C814 1.439 . S
C815 C833 1.392 . S
N816 Co800 2.282 . S
N816 C819 1.332 . S
N816 C821 1.332 . S
C817 C818 1.386 . S
C817 C820 1.388 . S
C818 C817 1.386 . S
C818 C819 1.382 . S
C818 H844 0.950 . S
C819 N816 1.332 . S
C819 C818 1.382 . S
C819 H830 0.952 . S
C820 C817 1.388 . S
C820 C821 1.382 . S
C820 H845 0.950 . S
C821 N816 1.332 . S
C821 C820 1.382 . S
C821 H831 0.948 . S
N822 Co800 2.282 . S
N822 C826 1.332 . S
N822 C827 1.332 . S
C823 C824 1.388 . S
C823 C827 1.382 . S
C823 H846 0.950 . S
C824 C823 1.388 . S
C824 C825 1.386 . S
C825 C824 1.386 . S
C825 C826 1.382 . S
C825 H847 0.950 . S
C826 N822 1.332 . S
C826 C825 1.382 . S
C826 H828 0.952 . S
C827 N822 1.332 . S
C827 C823 1.382 . S
C827 H829 0.948 . S
H828 C826 0.952 . S
H829 C827 0.948 . S
H830 C819 0.952 . S
H831 C821 0.948 . S
C832 C798 1.395 . S
C832 C802 1.391 . S
C833 C795 1.389 . S
C833 C815 1.392 . S
C834 C805 1.392 . S
C834 C807 1.389 . S
C835 C810 1.395 . S
C835 C812 1.391 . S
H836 C796 0.951 . S
H837 C797 0.950 . S
H838 C803 0.949 . S
H839 C804 0.950 . S
H840 C808 0.951 . S
H841 C809 0.950 . S
H842 C813 0.949 . S
H843 C814 0.950 . S
H844 C818 0.950 . S
H845 C820 0.950 . S
H846 C823 0.950 . S
H847 C825 0.950 . S
H848 C854 0.930 . S
H849 C857 0.930 . S
H850 C858 0.930 . S
H851 C859 0.930 . S
H852 C862 0.930 . S
H853 C863 0.930 . S
C854 H848 0.930 . S
C854 C855 1.355 . S
C854 C856 1.415 . S
C855 C854 1.355 . S
C855 C857 1.419 . S
C856 C854 1.415 . S
C856 C861 1.425 1_556 S
C856 C863 1.409 1_556 S
C857 H849 0.930 . S
C857 C855 1.419 . S
C857 C858 1.362 . S
C858 H850 0.930 . S
C858 C857 1.362 . S
C858 C861 1.409 1_556 S
C859 H851 0.930 . S
C859 C860 1.355 . S
C859 C861 1.415 . S
C860 C859 1.355 . S
C860 C862 1.419 . S
C861 C856 1.425 1_554 S
C861 C858 1.409 1_554 S
C861 C859 1.415 . S
C862 H852 0.930 . S
C862 C860 1.419 . S
C862 C863 1.362 . S
C863 H853 0.930 . S
C863 C856 1.409 1_554 S
C863 C862 1.362 . S
H864 C870 0.930 . S
H865 C873 0.930 . S
H866 C874 0.930 . S
H867 C875 0.930 . S
H868 C878 0.930 . S
H869 C879 0.930 . S
C870 H864 0.930 . S
C870 C871 1.355 . S
C870 C872 1.415 . S
C871 C870 1.355 . S
C871 C873 1.419 . S
C872 C870 1.415 . S
C872 C877 1.425 . S
C872 C879 1.409 . S
C873 H865 0.930 . S
C873 C871 1.419 . S
C873 C874 1.362 . S
C874 H866 0.930 . S
C874 C873 1.362 . S
C874 C877 1.409 . S
C875 H867 0.930 . S
C875 C876 1.355 . S
C875 C877 1.415 . S
C876 C875 1.355 . S
C876 C878 1.419 . S
C877 C872 1.425 . S
C877 C874 1.409 . S
C877 C875 1.415 . S
C878 H868 0.930 . S
C878 C876 1.419 . S
C878 C879 1.362 . S
C879 H869 0.930 . S
C879 C872 1.409 . S
C879 C878 1.362 . S
H880 C886 0.930 . S
H881 C889 0.930 . S
H882 C890 0.930 . S
H883 C891 0.930 . S
H884 C894 0.930 . S
H885 C895 0.930 . S
C886 H880 0.930 . S
C886 C887 1.355 . S
C886 C888 1.415 . S
C887 C886 1.355 . S
C887 C889 1.419 . S
C888 C886 1.415 . S
C888 C893 1.425 1_556 S
C888 C895 1.409 1_556 S
C889 H881 0.930 . S
C889 C887 1.419 . S
C889 C890 1.362 . S
C890 H882 0.930 . S
C890 C889 1.362 . S
C890 C893 1.409 1_556 S
C891 H883 0.930 . S
C891 C892 1.355 . S
C891 C893 1.415 . S
C892 C891 1.355 . S
C892 C894 1.419 . S
C893 C888 1.425 1_554 S
C893 C890 1.409 1_554 S
C893 C891 1.415 . S
C894 H884 0.930 . S
C894 C892 1.419 . S
C894 C895 1.362 . S
C895 H885 0.930 . S
C895 C888 1.409 1_554 S
C895 C894 1.362 . S
H896 C902 0.930 . S
H897 C905 0.930 . S
H898 C906 0.930 . S
H899 C907 0.930 . S
H900 C910 0.930 . S
H901 C911 0.930 . S
C902 H896 0.930 . S
C902 C903 1.355 . S
C902 C904 1.415 . S
C903 C902 1.355 . S
C903 C905 1.419 . S
C904 C902 1.415 . S
C904 C909 1.425 . S
C904 C911 1.409 . S
C905 H897 0.930 . S
C905 C903 1.419 . S
C905 C906 1.362 . S
C906 H898 0.930 . S
C906 C905 1.362 . S
C906 C909 1.409 . S
C907 H899 0.930 . S
C907 C908 1.355 . S
C907 C909 1.415 . S
C908 C907 1.355 . S
C908 C910 1.419 . S
C909 C904 1.425 . S
C909 C906 1.409 . S
C909 C907 1.415 . S
C910 H900 0.930 . S
C910 C908 1.419 . S
C910 C911 1.362 . S
C911 H901 0.930 . S
C911 C904 1.409 . S
C911 C910 1.362 . S
H912 C918 0.930 . S
H913 C921 0.930 . S
H914 C922 0.930 . S
H915 C923 0.930 . S
H916 C926 0.930 . S
H917 C927 0.930 . S
C918 H912 0.930 . S
C918 C919 1.355 . S
C918 C920 1.415 . S
C919 C918 1.355 . S
C919 C921 1.419 . S
C920 C918 1.415 . S
C920 C925 1.425 1_554 S
C920 C927 1.409 1_554 S
C921 H913 0.930 . S
C921 C919 1.419 . S
C921 C922 1.362 . S
C922 H914 0.930 . S
C922 C921 1.362 . S
C922 C925 1.409 1_554 S
C923 H915 0.930 . S
C923 C924 1.355 . S
C923 C925 1.415 . S
C924 C923 1.355 . S
C924 C926 1.419 . S
C925 C920 1.425 1_556 S
C925 C922 1.409 1_556 S
C925 C923 1.415 . S
C926 H916 0.930 . S
C926 C924 1.419 . S
C926 C927 1.362 . S
C927 H917 0.930 . S
C927 C920 1.409 1_556 S
C927 C926 1.362 . S
H928 C934 0.930 . S
H929 C937 0.930 . S
H930 C938 0.930 . S
H931 C939 0.930 . S
H932 C942 0.930 . S
H933 C943 0.930 . S
C934 H928 0.930 . S
C934 C935 1.355 . S
C934 C936 1.415 . S
C935 C934 1.355 . S
C935 C937 1.419 . S
C936 C934 1.415 . S
C936 C941 1.425 . S
C936 C943 1.409 . S
C937 H929 0.930 . S
C937 C935 1.419 . S
C937 C938 1.362 . S
C938 H930 0.930 . S
C938 C937 1.362 . S
C938 C941 1.409 . S
C939 H931 0.930 . S
C939 C940 1.355 . S
C939 C941 1.415 . S
C940 C939 1.355 . S
C940 C942 1.419 . S
C941 C936 1.425 . S
C941 C938 1.409 . S
C941 C939 1.415 . S
C942 H932 0.930 . S
C942 C940 1.419 . S
C942 C943 1.362 . S
C943 H933 0.930 . S
C943 C936 1.409 . S
C943 C942 1.362 . S
H944 C950 0.930 . S
H945 C953 0.930 . S
H946 C954 0.930 . S
H947 C955 0.930 . S
H948 C958 0.930 . S
H949 C959 0.930 . S
C950 H944 0.930 . S
C950 C951 1.355 . S
C950 C952 1.415 . S
C951 C950 1.355 . S
C951 C953 1.419 . S
C952 C950 1.415 . S
C952 C957 1.425 1_556 S
C952 C959 1.409 1_556 S
C953 H945 0.930 . S
C953 C951 1.419 . S
C953 C954 1.362 . S
C954 H946 0.930 . S
C954 C953 1.362 . S
C954 C957 1.409 1_556 S
C955 H947 0.930 . S
C955 C956 1.355 . S
C955 C957 1.415 . S
C956 C955 1.355 . S
C956 C958 1.419 . S
C957 C952 1.425 1_554 S
C957 C954 1.409 1_554 S
C957 C955 1.415 . S
C958 H948 0.930 . S
C958 C956 1.419 . S
C958 C959 1.362 . S
C959 H949 0.930 . S
C959 C952 1.409 1_554 S
C959 C958 1.362 . S
H960 C966 0.930 . S
H961 C969 0.930 . S
H962 C970 0.930 . S
H963 C971 0.930 . S
H964 C974 0.930 . S
H965 C975 0.930 . S
C966 H960 0.930 . S
C966 C967 1.355 . S
C966 C968 1.415 . S
C967 C966 1.355 . S
C967 C969 1.419 . S
C968 C966 1.415 . S
C968 C973 1.425 . S
C968 C975 1.409 . S
C969 H961 0.930 . S
C969 C967 1.419 . S
C969 C970 1.362 . S
C970 H962 0.930 . S
C970 C969 1.362 . S
C970 C973 1.409 . S
C971 H963 0.930 . S
C971 C972 1.355 . S
C971 C973 1.415 . S
C972 C971 1.355 . S
C972 C974 1.419 . S
C973 C968 1.425 . S
C973 C970 1.409 . S
C973 C971 1.415 . S
C974 H964 0.930 . S
C974 C972 1.419 . S
C974 C975 1.362 . S
C975 H965 0.930 . S
C975 C968 1.409 . S
C975 C974 1.362 . S
H976 C982 0.930 . S
H977 C985 0.930 . S
H978 C986 0.930 . S
H979 C987 0.930 . S
H980 C990 0.930 . S
H981 C991 0.930 . S
C982 H976 0.930 . S
C982 C983 1.355 . S
C982 C984 1.415 . S
C983 C982 1.355 . S
C983 C985 1.419 . S
C984 C982 1.415 . S
C984 C989 1.425 . S
C984 C991 1.409 . S
C985 H977 0.930 . S
C985 C983 1.419 . S
C985 C986 1.362 . S
C986 H978 0.930 . S
C986 C985 1.362 . S
C986 C989 1.409 . S
C987 H979 0.930 . S
C987 C988 1.355 . S
C987 C989 1.415 . S
C988 C987 1.355 . S
C988 C990 1.419 . S
C989 C984 1.425 . S
C989 C986 1.409 . S
C989 C987 1.415 . S
C990 H980 0.930 . S
C990 C988 1.419 . S
C990 C991 1.362 . S
C991 H981 0.930 . S
C991 C984 1.409 . S
C991 C990 1.362 . S
H992 C998 0.930 . S
H993 C1001 0.930 . S
H994 C1002 0.930 . S
H995 C1003 0.930 . S
H996 C1006 0.930 . S
H997 C1007 0.930 . S
C998 H992 0.930 . S
C998 C999 1.355 . S
C998 C1000 1.415 . S
C999 C998 1.355 . S
C999 C1001 1.419 . S
C1000 C998 1.415 . S
C1000 C1005 1.425 . S
C1000 C1007 1.409 . S
C1001 H993 0.930 . S
C1001 C999 1.419 . S
C1001 C1002 1.362 . S
C1002 H994 0.930 . S
C1002 C1001 1.362 . S
C1002 C1005 1.409 . S
C1003 H995 0.930 . S
C1003 C1004 1.355 . S
C1003 C1005 1.415 . S
C1004 C1003 1.355 . S
C1004 C1006 1.419 . S
C1005 C1000 1.425 . S
C1005 C1002 1.409 . S
C1005 C1003 1.415 . S
C1006 H996 0.930 . S
C1006 C1004 1.419 . S
C1006 C1007 1.362 . S
C1007 H997 0.930 . S
C1007 C1000 1.409 . S
C1007 C1006 1.362 . S
H1008 C1014 0.930 . S
H1009 C1017 0.930 . S
H1010 C1018 0.930 . S
H1011 C1019 0.930 . S
H1012 C1022 0.930 . S
H1013 C1023 0.930 . S
C1014 H1008 0.930 . S
C1014 C1015 1.355 . S
C1014 C1016 1.415 . S
C1015 C1014 1.355 . S
C1015 C1017 1.419 . S
C1016 C1014 1.415 . S
C1016 C1021 1.425 . S
C1016 C1023 1.409 . S
C1017 H1009 0.930 . S
C1017 C1015 1.419 . S
C1017 C1018 1.362 . S
C1018 H1010 0.930 . S
C1018 C1017 1.362 . S
C1018 C1021 1.409 . S
C1019 H1011 0.930 . S
C1019 C1020 1.355 . S
C1019 C1021 1.415 . S
C1020 C1019 1.355 . S
C1020 C1022 1.419 . S
C1021 C1016 1.425 . S
C1021 C1018 1.409 . S
C1021 C1019 1.415 . S
C1022 H1012 0.930 . S
C1022 C1020 1.419 . S
C1022 C1023 1.362 . S
C1023 H1013 0.930 . S
C1023 C1016 1.409 . S
C1023 C1022 1.362 . S
H1024 C1030 0.930 . S
H1025 C1033 0.930 . S
H1026 C1034 0.930 . S
H1027 C1035 0.930 . S
H1028 C1038 0.930 . S
H1029 C1039 0.930 . S
C1030 H1024 0.930 . S
C1030 C1031 1.355 . S
C1030 C1032 1.415 . S
C1031 C1030 1.355 . S
C1031 C1033 1.419 . S
C1032 C1030 1.415 . S
C1032 C1037 1.425 . S
C1032 C1039 1.409 . S
C1033 H1025 0.930 . S
C1033 C1031 1.419 . S
C1033 C1034 1.362 . S
C1034 H1026 0.930 . S
C1034 C1033 1.362 . S
C1034 C1037 1.409 . S
C1035 H1027 0.930 . S
C1035 C1036 1.355 . S
C1035 C1037 1.415 . S
C1036 C1035 1.355 . S
C1036 C1038 1.419 . S
C1037 C1032 1.425 . S
C1037 C1034 1.409 . S
C1037 C1035 1.415 . S
C1038 H1028 0.930 . S
C1038 C1036 1.419 . S
C1038 C1039 1.362 . S
C1039 H1029 0.930 . S
C1039 C1032 1.409 . S
C1039 C1038 1.362 . S
H1040 C1046 0.930 . S
H1041 C1049 0.930 . S
H1042 C1050 0.930 . S
H1043 C1051 0.930 . S
H1044 C1054 0.930 . S
H1045 C1055 0.930 . S
C1046 H1040 0.930 . S
C1046 C1047 1.355 . S
C1046 C1048 1.415 . S
C1047 C1046 1.355 . S
C1047 C1049 1.419 . S
C1048 C1046 1.415 . S
C1048 C1053 1.425 . S
C1048 C1055 1.409 . S
C1049 H1041 0.930 . S
C1049 C1047 1.419 . S
C1049 C1050 1.362 . S
C1050 H1042 0.930 . S
C1050 C1049 1.362 . S
C1050 C1053 1.409 . S
C1051 H1043 0.930 . S
C1051 C1052 1.355 . S
C1051 C1053 1.415 . S
C1052 C1051 1.355 . S
C1052 C1054 1.419 . S
C1053 C1048 1.425 . S
C1053 C1050 1.409 . S
C1053 C1051 1.415 . S
C1054 H1044 0.930 . S
C1054 C1052 1.419 . S
C1054 C1055 1.362 . S
C1055 H1045 0.930 . S
C1055 C1048 1.409 . S
C1055 C1054 1.362 . S
H1056 C1062 0.930 . S
H1057 C1065 0.930 . S
H1058 C1066 0.930 . S
H1059 C1067 0.930 . S
H1060 C1070 0.930 . S
H1061 C1071 0.930 . S
C1062 H1056 0.930 . S
C1062 C1063 1.355 . S
C1062 C1064 1.415 . S
C1063 C1062 1.355 . S
C1063 C1065 1.419 . S
C1064 C1062 1.415 . S
C1064 C1069 1.425 . S
C1064 C1071 1.409 . S
C1065 H1057 0.930 . S
C1065 C1063 1.419 . S
C1065 C1066 1.362 . S
C1066 H1058 0.930 . S
C1066 C1065 1.362 . S
C1066 C1069 1.409 . S
C1067 H1059 0.930 . S
C1067 C1068 1.355 . S
C1067 C1069 1.415 . S
C1068 C1067 1.355 . S
C1068 C1070 1.419 . S
C1069 C1064 1.425 . S
C1069 C1066 1.409 . S
C1069 C1067 1.415 . S
C1070 H1060 0.930 . S
C1070 C1068 1.419 . S
C1070 C1071 1.362 . S
C1071 H1061 0.930 . S
C1071 C1064 1.409 . S
C1071 C1070 1.362 . S
H1072 C1078 0.930 . S
H1073 C1081 0.930 . S
H1074 C1082 0.930 . S
H1075 C1083 0.930 . S
H1076 C1086 0.930 . S
H1077 C1087 0.930 . S
C1078 H1072 0.930 . S
C1078 C1079 1.355 . S
C1078 C1080 1.415 . S
C1079 C1078 1.355 . S
C1079 C1081 1.419 . S
C1080 C1078 1.415 . S
C1080 C1085 1.425 . S
C1080 C1087 1.409 . S
C1081 H1073 0.930 . S
C1081 C1079 1.419 . S
C1081 C1082 1.362 . S
C1082 H1074 0.930 . S
C1082 C1081 1.362 . S
C1082 C1085 1.409 . S
C1083 H1075 0.930 . S
C1083 C1084 1.355 . S
C1083 C1085 1.415 . S
C1084 C1083 1.355 . S
C1084 C1086 1.419 . S
C1085 C1080 1.425 . S
C1085 C1082 1.409 . S
C1085 C1083 1.415 . S
C1086 H1076 0.930 . S
C1086 C1084 1.419 . S
C1086 C1087 1.362 . S
C1087 H1077 0.930 . S
C1087 C1080 1.409 . S
C1087 C1086 1.362 . S
H1088 C1094 0.930 . S
H1089 C1097 0.930 . S
H1090 C1098 0.930 . S
H1091 C1099 0.930 . S
H1092 C1102 0.930 . S
H1093 C1103 0.930 . S
C1094 H1088 0.930 . S
C1094 C1095 1.355 . S
C1094 C1096 1.415 . S
C1095 C1094 1.355 . S
C1095 C1097 1.419 . S
C1096 C1094 1.415 . S
C1096 C1101 1.425 . S
C1096 C1103 1.409 . S
C1097 H1089 0.930 . S
C1097 C1095 1.419 . S
C1097 C1098 1.362 . S
C1098 H1090 0.930 . S
C1098 C1097 1.362 . S
C1098 C1101 1.409 . S
C1099 H1091 0.930 . S
C1099 C1100 1.355 . S
C1099 C1101 1.415 . S
C1100 C1099 1.355 . S
C1100 C1102 1.419 . S
C1101 C1096 1.425 . S
C1101 C1098 1.409 . S
C1101 C1099 1.415 . S
C1102 H1092 0.930 . S
C1102 C1100 1.419 . S
C1102 C1103 1.362 . S
C1103 H1093 0.930 . S
C1103 C1096 1.409 . S
C1103 C1102 1.362 . S
H1104 C1110 0.930 . S
H1105 C1113 0.930 . S
H1106 C1114 0.930 . S
H1107 C1115 0.930 . S
H1108 C1118 0.930 . S
H1109 C1119 0.930 . S
C1110 H1104 0.930 . S
C1110 C1111 1.355 . S
C1110 C1112 1.415 . S
C1111 C1110 1.355 . S
C1111 C1113 1.419 . S
C1112 C1110 1.415 . S
C1112 C1117 1.425 . S
C1112 C1119 1.409 . S
C1113 H1105 0.930 . S
C1113 C1111 1.419 . S
C1113 C1114 1.362 . S
C1114 H1106 0.930 . S
C1114 C1113 1.362 . S
C1114 C1117 1.409 . S
C1115 H1107 0.930 . S
C1115 C1116 1.355 . S
C1115 C1117 1.415 . S
C1116 C1115 1.355 . S
C1116 C1118 1.419 . S
C1117 C1112 1.425 . S
C1117 C1114 1.409 . S
C1117 C1115 1.415 . S
C1118 H1108 0.930 . S
C1118 C1116 1.419 . S
C1118 C1119 1.362 . S
C1119 H1109 0.930 . S
C1119 C1112 1.409 . S
C1119 C1118 1.362 . S
H1120 C1126 0.930 . S
H1121 C1129 0.930 . S
H1122 C1130 0.930 . S
H1123 C1131 0.930 . S
H1124 C1134 0.930 . S
H1125 C1135 0.930 . S
C1126 H1120 0.930 . S
C1126 C1127 1.355 . S
C1126 C1128 1.415 . S
C1127 C1126 1.355 . S
C1127 C1129 1.419 . S
C1128 C1126 1.415 . S
C1128 C1133 1.425 . S
C1128 C1135 1.409 . S
C1129 H1121 0.930 . S
C1129 C1127 1.419 . S
C1129 C1130 1.362 . S
C1130 H1122 0.930 . S
C1130 C1129 1.362 . S
C1130 C1133 1.409 . S
C1131 H1123 0.930 . S
C1131 C1132 1.355 . S
C1131 C1133 1.415 . S
C1132 C1131 1.355 . S
C1132 C1134 1.419 . S
C1133 C1128 1.425 . S
C1133 C1130 1.409 . S
C1133 C1131 1.415 . S
C1134 H1124 0.930 . S
C1134 C1132 1.419 . S
C1134 C1135 1.362 . S
C1135 H1125 0.930 . S
C1135 C1128 1.409 . S
C1135 C1134 1.362 . S
H1136 C1142 0.930 . S
H1137 C1145 0.930 . S
H1138 C1146 0.930 . S
H1139 C1147 0.930 . S
H1140 C1150 0.930 . S
H1141 C1151 0.930 . S
C1142 H1136 0.930 . S
C1142 C1143 1.355 . S
C1142 C1144 1.415 . S
C1143 C1142 1.355 . S
C1143 C1145 1.419 . S
C1144 C1142 1.415 . S
C1144 C1149 1.425 . S
C1144 C1151 1.409 . S
C1145 H1137 0.930 . S
C1145 C1143 1.419 . S
C1145 C1146 1.362 . S
C1146 H1138 0.930 . S
C1146 C1145 1.362 . S
C1146 C1149 1.409 . S
C1147 H1139 0.930 . S
C1147 C1148 1.355 . S
C1147 C1149 1.415 . S
C1148 C1147 1.355 . S
C1148 C1150 1.419 . S
C1149 C1144 1.425 . S
C1149 C1146 1.409 . S
C1149 C1147 1.415 . S
C1150 H1140 0.930 . S
C1150 C1148 1.419 . S
C1150 C1151 1.362 . S
C1151 H1141 0.930 . S
C1151 C1144 1.409 . S
C1151 C1150 1.362 . S
H1152 C1158 0.930 . S
H1153 C1161 0.930 . S
H1154 C1162 0.930 . S
H1155 C1163 0.930 . S
H1156 C1166 0.930 . S
H1157 C1167 0.930 . S
C1158 H1152 0.930 . S
C1158 C1159 1.355 . S
C1158 C1160 1.415 . S
C1159 C1158 1.355 . S
C1159 C1161 1.419 . S
C1160 C1158 1.415 . S
C1160 C1165 1.425 . S
C1160 C1167 1.409 . S
C1161 H1153 0.930 . S
C1161 C1159 1.419 . S
C1161 C1162 1.362 . S
C1162 H1154 0.930 . S
C1162 C1161 1.362 . S
C1162 C1165 1.409 . S
C1163 H1155 0.930 . S
C1163 C1164 1.355 . S
C1163 C1165 1.415 . S
C1164 C1163 1.355 . S
C1164 C1166 1.419 . S
C1165 C1160 1.425 . S
C1165 C1162 1.409 . S
C1165 C1163 1.415 . S
C1166 H1156 0.930 . S
C1166 C1164 1.419 . S
C1166 C1167 1.362 . S
C1167 H1157 0.930 . S
C1167 C1160 1.409 . S
C1167 C1166 1.362 . S
H1168 C1174 0.930 . S
H1169 C1177 0.930 . S
H1170 C1178 0.930 . S
H1171 C1179 0.930 . S
H1172 C1182 0.930 . S
H1173 C1183 0.930 . S
C1174 H1168 0.930 . S
C1174 C1175 1.355 . S
C1174 C1176 1.415 . S
C1175 C1174 1.355 . S
C1175 C1177 1.419 . S
C1176 C1174 1.415 . S
C1176 C1181 1.425 . S
C1176 C1183 1.409 . S
C1177 H1169 0.930 . S
C1177 C1175 1.419 . S
C1177 C1178 1.362 . S
C1178 H1170 0.930 . S
C1178 C1177 1.362 . S
C1178 C1181 1.409 . S
C1179 H1171 0.930 . S
C1179 C1180 1.355 . S
C1179 C1181 1.415 . S
C1180 C1179 1.355 . S
C1180 C1182 1.419 . S
C1181 C1176 1.425 . S
C1181 C1178 1.409 . S
C1181 C1179 1.415 . S
C1182 H1172 0.930 . S
C1182 C1180 1.419 . S
C1182 C1183 1.362 . S
C1183 H1173 0.930 . S
C1183 C1176 1.409 . S
C1183 C1182 1.362 . S
H1184 C1190 0.930 . S
H1185 C1193 0.930 . S
H1186 C1194 0.930 . S
H1187 C1195 0.930 . S
H1188 C1198 0.930 . S
H1189 C1199 0.930 . S
C1190 H1184 0.930 . S
C1190 C1191 1.355 . S
C1190 C1192 1.415 . S
C1191 C1190 1.355 . S
C1191 C1193 1.419 . S
C1192 C1190 1.415 . S
C1192 C1197 1.425 . S
C1192 C1199 1.409 . S
C1193 H1185 0.930 . S
C1193 C1191 1.419 . S
C1193 C1194 1.362 . S
C1194 H1186 0.930 . S
C1194 C1193 1.362 . S
C1194 C1197 1.409 . S
C1195 H1187 0.930 . S
C1195 C1196 1.355 . S
C1195 C1197 1.415 . S
C1196 C1195 1.355 . S
C1196 C1198 1.419 . S
C1197 C1192 1.425 . S
C1197 C1194 1.409 . S
C1197 C1195 1.415 . S
C1198 H1188 0.930 . S
C1198 C1196 1.419 . S
C1198 C1199 1.362 . S
C1199 H1189 0.930 . S
C1199 C1192 1.409 . S
C1199 C1198 1.362 . S
H1200 C1206 0.930 . S
H1201 C1209 0.930 . S
H1202 C1210 0.930 . S
H1203 C1211 0.930 . S
H1204 C1214 0.930 . S
H1205 C1215 0.930 . S
C1206 H1200 0.930 . S
C1206 C1207 1.355 . S
C1206 C1208 1.415 . S
C1207 C1206 1.355 . S
C1207 C1209 1.419 . S
C1208 C1206 1.415 . S
C1208 C1213 1.425 . S
C1208 C1215 1.409 . S
C1209 H1201 0.930 . S
C1209 C1207 1.419 . S
C1209 C1210 1.362 . S
C1210 H1202 0.930 . S
C1210 C1209 1.362 . S
C1210 C1213 1.409 . S
C1211 H1203 0.930 . S
C1211 C1212 1.355 . S
C1211 C1213 1.415 . S
C1212 C1211 1.355 . S
C1212 C1214 1.419 . S
C1213 C1208 1.425 . S
C1213 C1210 1.409 . S
C1213 C1211 1.415 . S
C1214 H1204 0.930 . S
C1214 C1212 1.419 . S
C1214 C1215 1.362 . S
C1215 H1205 0.930 . S
C1215 C1208 1.409 . S
C1215 C1214 1.362 . S
H1216 C1222 0.930 . S
H1217 C1225 0.930 . S
H1218 C1226 0.930 . S
H1219 C1227 0.930 . S
H1220 C1230 0.930 . S
H1221 C1231 0.930 . S
C1222 H1216 0.930 . S
C1222 C1223 1.355 . S
C1222 C1224 1.415 . S
C1223 C1222 1.355 . S
C1223 C1225 1.419 . S
C1224 C1222 1.415 . S
C1224 C1229 1.425 . S
C1224 C1231 1.409 . S
C1225 H1217 0.930 . S
C1225 C1223 1.419 . S
C1225 C1226 1.362 . S
C1226 H1218 0.930 . S
C1226 C1225 1.362 . S
C1226 C1229 1.409 . S
C1227 H1219 0.930 . S
C1227 C1228 1.355 . S
C1227 C1229 1.415 . S
C1228 C1227 1.355 . S
C1228 C1230 1.419 . S
C1229 C1224 1.425 . S
C1229 C1226 1.409 . S
C1229 C1227 1.415 . S
C1230 H1220 0.930 . S
C1230 C1228 1.419 . S
C1230 C1231 1.362 . S
C1231 H1221 0.930 . S
C1231 C1224 1.409 . S
C1231 C1230 1.362 . S
H1232 C1238 0.930 1_545 S
H1233 C1241 0.930 . S
H1234 C1242 0.930 . S
H1235 C1243 0.930 . S
H1236 C1246 0.930 . S
H1237 C1247 0.930 . S
C1238 H1232 0.930 1_565 S
C1238 C1239 1.355 . S
C1238 C1240 1.415 . S
C1239 C1238 1.355 . S
C1239 C1241 1.419 . S
C1240 C1238 1.415 . S
C1240 C1245 1.425 . S
C1240 C1247 1.409 . S
C1241 H1233 0.930 . S
C1241 C1239 1.419 . S
C1241 C1242 1.362 . S
C1242 H1234 0.930 . S
C1242 C1241 1.362 . S
C1242 C1245 1.409 . S
C1243 H1235 0.930 . S
C1243 C1244 1.355 . S
C1243 C1245 1.415 . S
C1244 C1243 1.355 . S
C1244 C1246 1.419 . S
C1245 C1240 1.425 . S
C1245 C1242 1.409 . S
C1245 C1243 1.415 . S
C1246 H1236 0.930 . S
C1246 C1244 1.419 . S
C1246 C1247 1.362 . S
C1247 H1237 0.930 . S
C1247 C1240 1.409 . S
C1247 C1246 1.362 . S
H1248 C1254 0.930 . S
H1249 C1257 0.930 . S
H1250 C1258 0.930 . S
H1251 C1259 0.930 . S
H1252 C1262 0.930 . S
H1253 C1263 0.930 . S
C1254 H1248 0.930 . S
C1254 C1255 1.355 . S
C1254 C1256 1.415 . S
C1255 C1254 1.355 . S
C1255 C1257 1.419 . S
C1256 C1254 1.415 . S
C1256 C1261 1.425 . S
C1256 C1263 1.409 . S
C1257 H1249 0.930 . S
C1257 C1255 1.419 . S
C1257 C1258 1.362 . S
C1258 H1250 0.930 . S
C1258 C1257 1.362 . S
C1258 C1261 1.409 . S
C1259 H1251 0.930 . S
C1259 C1260 1.355 . S
C1259 C1261 1.415 . S
C1260 C1259 1.355 . S
C1260 C1262 1.419 . S
C1261 C1256 1.425 . S
C1261 C1258 1.409 . S
C1261 C1259 1.415 . S
C1262 H1252 0.930 . S
C1262 C1260 1.419 . S
C1262 C1263 1.362 . S
C1263 H1253 0.930 . S
C1263 C1256 1.409 . S
C1263 C1262 1.362 . S
H1264 C1270 0.930 . S
H1265 C1273 0.930 . S
H1266 C1274 0.930 . S
H1267 C1275 0.930 . S
H1268 C1278 0.930 . S
H1269 C1279 0.930 1_655 S
C1270 H1264 0.930 . S
C1270 C1271 1.355 . S
C1270 C1272 1.415 . S
C1271 C1270 1.355 . S
C1271 C1273 1.419 . S
C1272 C1270 1.415 . S
C1272 C1277 1.425 . S
C1272 C1279 1.409 . S
C1273 H1265 0.930 . S
C1273 C1271 1.419 . S
C1273 C1274 1.362 . S
C1274 H1266 0.930 . S
C1274 C1273 1.362 . S
C1274 C1277 1.409 . S
C1275 H1267 0.930 . S
C1275 C1276 1.320 1_455 S
C1275 C1277 1.415 . S
C1276 C1275 1.320 1_655 S
C1276 C1278 1.434 . S
C1277 C1272 1.425 . S
C1277 C1274 1.409 . S
C1277 C1275 1.415 . S
C1278 H1268 0.930 . S
C1278 C1276 1.434 . S
C1278 C1279 1.362 1_655 S
C1279 H1269 0.930 1_455 S
C1279 C1272 1.409 . S
C1279 C1278 1.362 1_455 S
H1280 C1286 0.930 . S
H1281 C1289 0.930 . S
H1282 C1290 0.930 1_565 S
H1283 C1291 0.890 1_455 S
H1284 C1294 0.930 . S
H1285 C1295 0.930 . S
C1286 H1280 0.930 . S
C1286 C1287 1.334 1_545 S
C1286 C1288 1.415 . S
C1287 C1286 1.334 1_565 S
C1287 C1289 1.428 . S
C1288 C1286 1.415 . S
C1288 C1293 1.425 . S
C1288 C1295 1.409 . S
C1289 H1281 0.930 . S
C1289 C1287 1.428 . S
C1289 C1290 1.362 1_565 S
C1290 H1282 0.930 1_545 S
C1290 C1289 1.362 1_545 S
C1290 C1293 1.409 . S
C1291 H1283 0.890 1_655 S
C1291 C1292 1.358 . S
C1291 C1293 1.451 . S
C1292 C1291 1.358 . S
C1292 C1294 1.419 . S
C1293 C1288 1.425 . S
C1293 C1290 1.409 . S
C1293 C1291 1.451 . S
C1294 H1284 0.930 . S
C1294 C1292 1.419 . S
C1294 C1295 1.362 . S
C1295 H1285 0.930 . S
C1295 C1288 1.409 . S
C1295 C1294 1.362 . S
H1296 C1302 0.930 . S
H1297 C1305 0.930 . S
H1298 C1306 0.930 . S
H1299 C1307 0.930 . S
H1300 C1310 0.930 . S
H1301 C1311 0.930 . S
C1302 H1296 0.930 . S
C1302 C1303 1.355 . S
C1302 C1304 1.415 . S
C1303 C1302 1.355 . S
C1303 C1305 1.419 . S
C1304 C1302 1.415 . S
C1304 C1309 1.425 . S
C1304 C1311 1.409 . S
C1305 H1297 0.930 . S
C1305 C1303 1.419 . S
C1305 C1306 1.362 . S
C1306 H1298 0.930 . S
C1306 C1305 1.362 . S
C1306 C1309 1.409 . S
C1307 H1299 0.930 . S
C1307 C1308 1.355 . S
C1307 C1309 1.415 . S
C1308 C1307 1.355 . S
C1308 C1310 1.419 . S
C1309 C1304 1.425 . S
C1309 C1306 1.409 . S
C1309 C1307 1.415 . S
C1310 H1300 0.930 . S
C1310 C1308 1.419 . S
C1310 C1311 1.362 . S
C1311 H1301 0.930 . S
C1311 C1304 1.409 . S
C1311 C1310 1.362 . S
H1312 C1318 0.930 . S
H1313 C1321 0.930 . S
H1314 C1322 0.930 1_455 S
H1315 C1323 0.930 . S
H1316 C1326 0.930 . S
H1317 C1327 0.930 . S
C1318 H1312 0.930 . S
C1318 C1319 1.343 1_655 S
C1318 C1320 1.415 . S
C1319 C1318 1.343 1_455 S
C1319 C1321 1.424 . S
C1320 C1318 1.415 . S
C1320 C1325 1.425 . S
C1320 C1327 1.409 . S
C1321 H1313 0.930 . S
C1321 C1319 1.424 . S
C1321 C1322 1.362 1_455 S
C1322 H1314 0.930 1_655 S
C1322 C1321 1.362 1_655 S
C1322 C1325 1.409 . S
C1323 H1315 0.930 . S
C1323 C1324 1.355 . S
C1323 C1325 1.415 . S
C1324 C1323 1.355 . S
C1324 C1326 1.419 . S
C1325 C1320 1.425 . S
C1325 C1322 1.409 . S
C1325 C1323 1.415 . S
C1326 H1316 0.930 . S
C1326 C1324 1.419 . S
C1326 C1327 1.362 . S
C1327 H1317 0.930 . S
C1327 C1320 1.409 . S
C1327 C1326 1.362 . S
H1328 C1334 0.930 . S
H1329 C1337 0.930 . S
H1330 C1338 0.930 1_655 S
H1331 C1339 0.892 1_545 S
H1332 C1342 0.930 . S
H1333 C1343 0.930 . S
C1334 H1328 0.930 . S
C1334 C1335 1.332 1_455 S
C1334 C1336 1.415 . S
C1335 C1334 1.332 1_655 S
C1335 C1337 1.429 . S
C1336 C1334 1.415 . S
C1336 C1341 1.425 . S
C1336 C1343 1.409 . S
C1337 H1329 0.930 . S
C1337 C1335 1.429 . S
C1337 C1338 1.362 1_655 S
C1338 H1330 0.930 1_455 S
C1338 C1337 1.362 1_455 S
C1338 C1341 1.409 . S
C1339 H1331 0.892 1_565 S
C1339 C1340 1.358 . S
C1339 C1341 1.449 . S
C1340 C1339 1.358 . S
C1340 C1342 1.419 . S
C1341 C1336 1.425 . S
C1341 C1338 1.409 . S
C1341 C1339 1.449 . S
C1342 H1332 0.930 . S
C1342 C1340 1.419 . S
C1342 C1343 1.362 . S
C1343 H1333 0.930 . S
C1343 C1336 1.409 . S
C1343 C1342 1.362 . S
H1344 C1350 0.930 1_565 S
H1345 C1353 0.930 . S
H1346 C1354 0.930 . S
H1347 C1355 0.930 . S
H1348 C1358 0.930 . S
H1349 C1359 0.930 . S
C1350 H1344 0.930 1_545 S
C1350 C1351 1.355 . S
C1350 C1352 1.415 . S
C1351 C1350 1.355 . S
C1351 C1353 1.419 . S
C1352 C1350 1.415 . S
C1352 C1357 1.425 . S
C1352 C1359 1.409 . S
C1353 H1345 0.930 . S
C1353 C1351 1.419 . S
C1353 C1354 1.362 . S
C1354 H1346 0.930 . S
C1354 C1353 1.362 . S
C1354 C1357 1.409 . S
C1355 H1347 0.930 . S
C1355 C1356 1.355 . S
C1355 C1357 1.415 . S
C1356 C1355 1.355 . S
C1356 C1358 1.419 . S
C1357 C1352 1.425 . S
C1357 C1354 1.409 . S
C1357 C1355 1.415 . S
C1358 H1348 0.930 . S
C1358 C1356 1.419 . S
C1358 C1359 1.362 . S
C1359 H1349 0.930 . S
C1359 C1352 1.409 . S
C1359 C1358 1.362 . S
C855 C410 1.819 . S
C860 C39 1.783 . S
C871 C251 1.785 . S
C876 C92 1.822 . S
C887 C304 1.819 . S
C892 C145 1.809 . S
C903 C198 1.801 . S
C908 C357 1.789 . S
C919 C834 1.818 . S
C924 C463 1.803 . S
C935 C675 1.820 . S
C940 C516 1.783 . S
C951 C569 1.797 . S
C956 C728 1.821 . S
C967 C622 1.803 . S
C972 C781 1.818 . S
C983 C135 1.434 . S
C988 C29 1.437 . S
C999 C82 1.488 . S
C1004 C188 1.483 . S
C1015 C241 1.485 . S
C1020 C347 1.488 . S
C1031 C400 1.434 . S
C1036 C294 1.436 . S
C1047 C453 1.463 . S
C1052 C559 1.450 . S
C1063 C506 1.445 . S
C1068 C612 1.440 . S
C1079 C771 1.490 . S
C1084 C665 1.483 . S
C1095 C718 1.474 . S
C1100 C824 1.486 . S
C1111 C356 1.828 . S
C1116 C38 1.828 . S
C1127 C91 1.847 . S
C1132 C409 1.848 . S
C1143 C144 1.837 . S
C1148 C250 1.836 . S
C1159 C197 1.859 . S
C1164 C303 1.860 . S
C1175 C462 1.826 . S
C1180 C780 1.826 . S
C1191 C515 1.867 . S
C1196 C833 1.867 . S
C1207 C568 1.867 . S
C1212 C674 1.868 . S
C1223 C621 1.839 . S
C1228 C727 1.841 . S
C1239 C22 1.524 1_565 S
C1244 C817 1.509 . S
C1255 C658 1.514 . S
C1260 C75 1.519 . S
C1271 C128 1.522 . S
C1276 C711 1.534 . S
C1287 C764 1.529 . S
C1292 C181 1.519 1_655 S
C1303 C499 1.510 . S
C1308 C234 1.522 . S
C1319 C287 1.519 . S
C1324 C552 1.526 . S
C1335 C605 1.529 . S
C1340 C340 1.519 1_565 S
C1351 C446 1.514 1_545 S
C1356 C393 1.521 . S
