# Generated by pormake.
# Topology lcy-a-x, (5)-cn, num edge types: 1
# Building blocks:
#     Node 0, Type 0, BuildingBlock: XOMCOT_clean_sbu_1, # of connection points: 5
#     Node 1, Type 0, BuildingBlock: XOMCOT_clean_sbu_1, # of connection points: 5
#     Node 2, Type 0, BuildingBlock: XOMCOT_clean_sbu_1, # of connection points: 5
#     Node 3, Type 0, BuildingBlock: XOMCOT_clean_sbu_1, # of connection points: 5
#     Node 4, Type 0, BuildingBlock: XOMCOT_clean_sbu_1, # of connection points: 5
#     Node 5, Type 0, BuildingBlock: XOMCOT_clean_sbu_1, # of connection points: 5
#     Node 6, Type 0, BuildingBlock: XOMCOT_clean_sbu_1, # of connection points: 5
#     Node 7, Type 0, BuildingBlock: XOMCOT_clean_sbu_1, # of connection points: 5
#     Node 8, Type 0, BuildingBlock: XOMCOT_clean_sbu_1, # of connection points: 5
#     Node 9, Type 0, BuildingBlock: XOMCOT_clean_sbu_1, # of connection points: 5
#     Node 10, Type 0, BuildingBlock: XOMCOT_clean_sbu_1, # of connection points: 5
#     Node 11, Type 0, BuildingBlock: XOMCOT_clean_sbu_1, # of connection points: 5
#     Node 12, Type 0, BuildingBlock: XOMCOT_clean_sbu_1, # of connection points: 5
#     Node 13, Type 0, BuildingBlock: XOMCOT_clean_sbu_1, # of connection points: 5
#     Node 14, Type 0, BuildingBlock: XOMCOT_clean_sbu_1, # of connection points: 5
#     Node 15, Type 0, BuildingBlock: XOMCOT_clean_sbu_1, # of connection points: 5
#     Node 16, Type 0, BuildingBlock: XOMCOT_clean_sbu_1, # of connection points: 5
#     Node 17, Type 0, BuildingBlock: XOMCOT_clean_sbu_1, # of connection points: 5
#     Node 18, Type 0, BuildingBlock: XOMCOT_clean_sbu_1, # of connection points: 5
#     Node 19, Type 0, BuildingBlock: XOMCOT_clean_sbu_1, # of connection points: 5
#     Node 20, Type 0, BuildingBlock: XOMCOT_clean_sbu_1, # of connection points: 5
#     Node 21, Type 0, BuildingBlock: XOMCOT_clean_sbu_1, # of connection points: 5
#     Node 22, Type 0, BuildingBlock: XOMCOT_clean_sbu_1, # of connection points: 5
#     Node 23, Type 0, BuildingBlock: XOMCOT_clean_sbu_1, # of connection points: 5
#     Edge 24, Type (0, 0), BuildingBlock: EZIPEK_clean_linker_0, # of connection points: 2
#     Edge 25, Type (0, 0), BuildingBlock: EZIPEK_clean_linker_0, # of connection points: 2
#     Edge 26, Type (0, 0), BuildingBlock: EZIPEK_clean_linker_0, # of connection points: 2
#     Edge 27, Type (0, 0), BuildingBlock: EZIPEK_clean_linker_0, # of connection points: 2
#     Edge 28, Type (0, 0), BuildingBlock: EZIPEK_clean_linker_0, # of connection points: 2
#     Edge 29, Type (0, 0), BuildingBlock: EZIPEK_clean_linker_0, # of connection points: 2
#     Edge 30, Type (0, 0), BuildingBlock: EZIPEK_clean_linker_0, # of connection points: 2
#     Edge 31, Type (0, 0), BuildingBlock: EZIPEK_clean_linker_0, # of connection points: 2
#     Edge 32, Type (0, 0), BuildingBlock: EZIPEK_clean_linker_0, # of connection points: 2
#     Edge 33, Type (0, 0), BuildingBlock: EZIPEK_clean_linker_0, # of connection points: 2
#     Edge 34, Type (0, 0), BuildingBlock: EZIPEK_clean_linker_0, # of connection points: 2
#     Edge 35, Type (0, 0), BuildingBlock: EZIPEK_clean_linker_0, # of connection points: 2
#     Edge 36, Type (0, 0), BuildingBlock: EZIPEK_clean_linker_0, # of connection points: 2
#     Edge 37, Type (0, 0), BuildingBlock: EZIPEK_clean_linker_0, # of connection points: 2
#     Edge 38, Type (0, 0), BuildingBlock: EZIPEK_clean_linker_0, # of connection points: 2
#     Edge 39, Type (0, 0), BuildingBlock: EZIPEK_clean_linker_0, # of connection points: 2
#     Edge 40, Type (0, 0), BuildingBlock: EZIPEK_clean_linker_0, # of connection points: 2
#     Edge 41, Type (0, 0), BuildingBlock: EZIPEK_clean_linker_0, # of connection points: 2
#     Edge 42, Type (0, 0), BuildingBlock: EZIPEK_clean_linker_0, # of connection points: 2
#     Edge 43, Type (0, 0), BuildingBlock: EZIPEK_clean_linker_0, # of connection points: 2
#     Edge 44, Type (0, 0), BuildingBlock: EZIPEK_clean_linker_0, # of connection points: 2
#     Edge 45, Type (0, 0), BuildingBlock: EZIPEK_clean_linker_0, # of connection points: 2
#     Edge 46, Type (0, 0), BuildingBlock: EZIPEK_clean_linker_0, # of connection points: 2
#     Edge 47, Type (0, 0), BuildingBlock: EZIPEK_clean_linker_0, # of connection points: 2
#     Edge 48, Type (0, 0), BuildingBlock: EZIPEK_clean_linker_0, # of connection points: 2
#     Edge 49, Type (0, 0), BuildingBlock: EZIPEK_clean_linker_0, # of connection points: 2
#     Edge 50, Type (0, 0), BuildingBlock: EZIPEK_clean_linker_0, # of connection points: 2
#     Edge 51, Type (0, 0), BuildingBlock: EZIPEK_clean_linker_0, # of connection points: 2
#     Edge 52, Type (0, 0), BuildingBlock: EZIPEK_clean_linker_0, # of connection points: 2
#     Edge 53, Type (0, 0), BuildingBlock: EZIPEK_clean_linker_0, # of connection points: 2
#     Edge 54, Type (0, 0), BuildingBlock: EZIPEK_clean_linker_0, # of connection points: 2
#     Edge 55, Type (0, 0), BuildingBlock: EZIPEK_clean_linker_0, # of connection points: 2
#     Edge 56, Type (0, 0), BuildingBlock: EZIPEK_clean_linker_0, # of connection points: 2
#     Edge 57, Type (0, 0), BuildingBlock: EZIPEK_clean_linker_0, # of connection points: 2
#     Edge 58, Type (0, 0), BuildingBlock: EZIPEK_clean_linker_0, # of connection points: 2
#     Edge 59, Type (0, 0), BuildingBlock: EZIPEK_clean_linker_0, # of connection points: 2
#     Edge 60, Type (0, 0), BuildingBlock: EZIPEK_clean_linker_0, # of connection points: 2
#     Edge 61, Type (0, 0), BuildingBlock: EZIPEK_clean_linker_0, # of connection points: 2
#     Edge 62, Type (0, 0), BuildingBlock: EZIPEK_clean_linker_0, # of connection points: 2
#     Edge 63, Type (0, 0), BuildingBlock: EZIPEK_clean_linker_0, # of connection points: 2
#     Edge 64, Type (0, 0), BuildingBlock: EZIPEK_clean_linker_0, # of connection points: 2
#     Edge 65, Type (0, 0), BuildingBlock: EZIPEK_clean_linker_0, # of connection points: 2
#     Edge 66, Type (0, 0), BuildingBlock: EZIPEK_clean_linker_0, # of connection points: 2
#     Edge 67, Type (0, 0), BuildingBlock: EZIPEK_clean_linker_0, # of connection points: 2
#     Edge 68, Type (0, 0), BuildingBlock: EZIPEK_clean_linker_0, # of connection points: 2
#     Edge 69, Type (0, 0), BuildingBlock: EZIPEK_clean_linker_0, # of connection points: 2
#     Edge 70, Type (0, 0), BuildingBlock: EZIPEK_clean_linker_0, # of connection points: 2
#     Edge 71, Type (0, 0), BuildingBlock: EZIPEK_clean_linker_0, # of connection points: 2
#     Edge 72, Type (0, 0), BuildingBlock: EZIPEK_clean_linker_0, # of connection points: 2
#     Edge 73, Type (0, 0), BuildingBlock: EZIPEK_clean_linker_0, # of connection points: 2
#     Edge 74, Type (0, 0), BuildingBlock: EZIPEK_clean_linker_0, # of connection points: 2
#     Edge 75, Type (0, 0), BuildingBlock: EZIPEK_clean_linker_0, # of connection points: 2
#     Edge 76, Type (0, 0), BuildingBlock: EZIPEK_clean_linker_0, # of connection points: 2
#     Edge 77, Type (0, 0), BuildingBlock: EZIPEK_clean_linker_0, # of connection points: 2
#     Edge 78, Type (0, 0), BuildingBlock: EZIPEK_clean_linker_0, # of connection points: 2
#     Edge 79, Type (0, 0), BuildingBlock: EZIPEK_clean_linker_0, # of connection points: 2
#     Edge 80, Type (0, 0), BuildingBlock: EZIPEK_clean_linker_0, # of connection points: 2
#     Edge 81, Type (0, 0), BuildingBlock: EZIPEK_clean_linker_0, # of connection points: 2
#     Edge 82, Type (0, 0), BuildingBlock: EZIPEK_clean_linker_0, # of connection points: 2
#     Edge 83, Type (0, 0), BuildingBlock: EZIPEK_clean_linker_0, # of connection points: 2
# Relax obj value: 0.895
# Max RMSD: 0.229
# Mean RMSD: 0.229
data_MOF--net-lcy-a-x--node1-XOMCOT_clean_sbu_1--edge1-EZIPEK_clean_linker_0
_symmetry_space_group_name_H-M    P1
_symmetry_Int_Tables_number       1
_symmetry_cell_setting            triclinic
loop_
_symmetry_equiv_pos_as_xyz
'x, y, z'
_cell_length_a     44.672601
_cell_length_b     44.595915
_cell_length_c     44.585058
_cell_angle_alpha  90.059752
_cell_angle_beta   89.902278
_cell_angle_gamma 90.053942
loop_
_atom_site_label
_atom_site_type_symbol
_atom_site_fract_x
_atom_site_fract_y
_atom_site_fract_z
_atom_type_partial_charge
C0 C 0.05761 0.0471 0.76043 0.0
C1 C 0.03579 0.03956 0.78096 0.0
N2 N 0.00952 0.04995 0.7706 0.0
N3 N 0.04488 0.06191 0.73735 0.0
C4 C 0.01553 0.06335 0.74424 0.0
H5 H 0.08125 0.0422 0.76215 0.0
Co6 Co 0.06464 0.07682 0.70405 0.0
C7 C 0.02555 0.0638 0.65228 0.0
O8 O 0.04962 0.05665 0.63695 0.0
N9 N 0.08499 0.09338 0.67082 0.0
C10 C 0.11453 0.10829 0.63313 0.0
C11 C 0.11159 0.08863 0.65692 0.0
C12 C 0.0729 0.1165 0.65554 0.0
N13 N 0.08996 0.12559 0.63259 0.0
O14 O 0.05309 0.11636 0.71542 0.0
H15 H 0.12791 0.07198 0.66297 0.0
H16 H 0.05143 0.1263 0.66066 0.0
O17 O 0.02792 0.07314 0.67942 0.0
C18 C 0.06877 0.13188 0.73341 0.0
O19 O 0.09304 0.12017 0.74517 0.0
N20 N 0.07585 0.03716 0.69437 0.0
C21 C 0.08974 0.97669 0.68827 0.0
C22 C 0.06016 0.98629 0.68698 0.0
C23 C 0.05365 0.01624 0.69141 0.0
C24 C 0.10491 0.02804 0.69682 0.0
C25 C 0.1125 0.99772 0.69337 0.0
H26 H 0.03037 0.02213 0.6939 0.0
H27 H 0.12199 0.04388 0.7034 0.0
H28 H -0.00109 0.07441 0.73052 0.0
H29 H 0.03891 0.02794 0.80203 0.0
H30 H 0.13267 0.10922 0.61704 0.0
H31 H 0.04195 0.97033 0.68493 0.0
H32 H 0.13544 0.99056 0.69643 0.0
C33 C 0.31078 0.76981 0.99035 0.0
C34 C 0.30995 0.74801 0.01224 0.0
N35 N 0.31041 0.72109 0.99866 0.0
N36 N 0.3116 0.75685 0.96295 0.0
C37 C 0.31192 0.72707 0.96905 0.0
H38 H 0.30789 0.79359 0.99412 0.0
Co39 Co 0.29931 0.7779 0.92802 0.0
C40 C 0.31581 0.72005 0.89783 0.0
O41 O 0.34309 0.7216 0.90872 0.0
N42 N 0.28519 0.79852 0.89495 0.0
C43 C 0.27341 0.83044 0.85853 0.0
C44 C 0.29216 0.82533 0.88268 0.0
C45 C 0.26203 0.78825 0.87869 0.0
N46 N 0.25449 0.80701 0.85653 0.0
O47 O 0.25905 0.77399 0.9415 0.0
H48 H 0.30958 0.8401 0.89078 0.0
H49 H 0.25048 0.76737 0.88319 0.0
O50 O 0.29644 0.74015 0.90465 0.0
C51 C 0.24829 0.79732 0.95403 0.0
O52 O 0.26567 0.82077 0.95806 0.0
N53 N 0.33906 0.78376 0.91506 0.0
C54 C 0.39902 0.78154 0.89994 0.0
C55 C 0.37743 0.77922 0.8775 0.0
C56 C 0.34727 0.78056 0.88559 0.0
C57 C 0.35996 0.79131 0.93593 0.0
C58 C 0.39022 0.78972 0.92898 0.0
H59 H 0.33061 0.77634 0.86855 0.0
H60 H 0.35343 0.79683 0.95856 0.0
H61 H 0.30924 0.70964 0.95266 0.0
H62 H 0.30669 0.75161 0.03604 0.0
H63 H 0.27323 0.8499 0.84404 0.0
H64 H 0.38369 0.77391 0.85463 0.0
H65 H 0.40657 0.79266 0.94667 0.0
C66 C 0.51122 0.01552 0.23916 0.0
C67 C 0.53334 0.02862 0.25623 0.0
N68 N 0.55986 0.02067 0.24435 0.0
N69 N 0.524 0.00018 0.21636 0.0
C70 C 0.55367 0.00327 0.22046 0.0
H71 H 0.48734 0.01796 0.24239 0.0
Co72 Co 0.50416 0.9811 0.18527 0.0
C73 C 0.53247 -0.00065 0.12894 0.0
O74 O 0.50546 0.00861 0.12203 0.0
N75 N 0.48464 0.9595 0.15391 0.0
C76 C 0.45986 0.9406 0.1146 0.0
C77 C 0.45996 0.96264 0.13659 0.0
C78 C 0.49853 0.93514 0.14206 0.0
N79 N 0.48433 0.92342 0.11829 0.0
O80 O 0.52214 0.94428 0.1987 0.0
H81 H 0.44365 0.98032 0.13857 0.0
H82 H 0.51998 0.92677 0.14944 0.0
O83 O 0.53715 0.98816 0.15525 0.0
C84 C 0.50763 0.92898 0.21796 0.0
O85 O 0.48124 0.93834 0.22693 0.0
N86 N 0.48635 0.01919 0.17571 0.0
C87 C 0.46643 0.07886 0.17889 0.0
C88 C 0.4968 0.07211 0.1763 0.0
C89 C 0.50612 0.04268 0.17431 0.0
C90 C 0.45642 0.02508 0.1783 0.0
C91 C 0.44583 0.05491 0.1785 0.0
H92 H 0.5299 0.03891 0.17415 0.0
H93 H 0.44081 0.00693 0.18197 0.0
H94 H 0.57045 0.99363 0.20583 0.0
H95 H 0.53033 0.04318 0.27544 0.0
H96 H 0.44337 0.93766 0.09708 0.0
H97 H 0.51368 0.08958 0.17698 0.0
H98 H 0.42203 0.05915 0.18029 0.0
C99 C 0.29079 0.26791 0.5241 0.0
C100 C 0.28396 0.29123 0.54332 0.0
N101 N 0.29631 0.31628 0.53197 0.0
N102 N 0.30694 0.27868 0.50085 0.0
C103 C 0.31017 0.30814 0.5065 0.0
H104 H 0.28431 0.24469 0.52676 0.0
Co105 Co 0.32257 0.25799 0.46851 0.0
C106 C 0.30651 0.2929 0.41524 0.0
O107 O 0.2985 0.26733 0.40293 0.0
N108 N 0.34046 0.23717 0.4361 0.0
C109 C 0.35977 0.20602 0.40237 0.0
C110 C 0.33808 0.20958 0.42397 0.0
C111 C 0.36379 0.24958 0.42119 0.0
N112 N 0.3772 0.23082 0.4015 0.0
O113 O 0.36156 0.2725 0.47914 0.0
H114 H 0.32187 0.19272 0.42974 0.0
H115 H 0.36995 0.27277 0.42424 0.0
O116 O 0.31713 0.29311 0.44192 0.0
C117 C 0.37865 0.2577 0.4964 0.0
O118 O 0.36916 0.23238 0.50806 0.0
N119 N 0.28313 0.2437 0.45968 0.0
C120 C 0.2233 0.2256 0.45413 0.0
C121 C 0.23098 0.25594 0.4546 0.0
C122 C 0.26069 0.26443 0.45749 0.0
C123 C 0.27587 0.21398 0.46133 0.0
C124 C 0.24625 0.20428 0.45691 0.0
H125 H 0.2653 0.28795 0.45963 0.0
H126 H 0.29262 0.19776 0.46757 0.0
H127 H 0.32275 0.32339 0.4924 0.0
H128 H 0.27115 0.28998 0.56391 0.0
H129 H 0.36131 0.18674 0.3878 0.0
H130 H 0.21391 0.27317 0.45355 0.0
H131 H 0.2411 0.18056 0.45744 0.0
C132 C 0.51457 0.54007 0.26991 0.0
C133 C 0.48907 0.54366 0.25293 0.0
N134 N 0.466 0.54758 0.27183 0.0
N135 N 0.50742 0.54091 0.29944 0.0
C136 C 0.4778 0.54699 0.29953 0.0
H137 H 0.53641 0.53479 0.26104 0.0
Co138 Co 0.53003 0.52701 0.33285 0.0
C139 C 0.48824 0.54134 0.37066 0.0
O140 O 0.50039 0.56692 0.3624 0.0
N141 N 0.55064 0.51244 0.36573 0.0
C142 C 0.57696 0.50718 0.40755 0.0
C143 C 0.56856 0.52687 0.38526 0.0
C144 C 0.54747 0.4846 0.37701 0.0
N145 N 0.56336 0.4807 0.40225 0.0
O146 O 0.53028 0.48661 0.31448 0.0
H147 H 0.57426 0.55033 0.38372 0.0
H148 H 0.53293 0.46764 0.36753 0.0
O149 O 0.49439 0.51802 0.35511 0.0
C150 C 0.54358 0.47391 0.2924 0.0
O151 O 0.56291 0.4887 0.2759 0.0
N152 N 0.5665 0.5394 0.31492 0.0
C153 C 0.61759 0.57393 0.32369 0.0
C154 C 0.59153 0.58679 0.31208 0.0
C155 C 0.56603 0.56936 0.30876 0.0
C156 C 0.59323 0.52553 0.32087 0.0
C157 C 0.61909 0.54267 0.32633 0.0
H158 H 0.54509 0.58102 0.30572 0.0
H159 H 0.59362 0.50197 0.32655 0.0
H160 H 0.46381 0.54687 0.31923 0.0
H161 H 0.48718 0.54063 0.22892 0.0
H162 H 0.59096 0.51215 0.42671 0.0
H163 H 0.58953 0.61091 0.30997 0.0
H164 H 0.63887 0.53203 0.3354 0.0
C165 C 0.76186 0.305 0.58021 0.0
C166 C 0.75245 0.28023 0.56427 0.0
N167 N 0.7633 0.25578 0.5781 0.0
N168 N 0.77794 0.29583 0.60413 0.0
C169 C 0.77876 0.26574 0.60196 0.0
H170 H 0.75659 0.32815 0.57532 0.0
Co171 Co 0.79383 0.32024 0.63387 0.0
C172 C 0.78105 0.28863 0.69063 0.0
O173 O 0.76741 0.31312 0.69964 0.0
N174 N 0.8122 0.34523 0.66192 0.0
C175 C 0.8415 0.38226 0.67862 0.0
C176 C 0.81839 0.37483 0.65941 0.0
C177 C 0.83278 0.33511 0.68159 0.0
N178 N 0.85021 0.35702 0.69246 0.0
O179 O 0.83318 0.30802 0.62146 0.0
H180 H 0.80918 0.38938 0.64237 0.0
H181 H 0.8375 0.31163 0.68536 0.0
O182 O 0.79259 0.28735 0.66418 0.0
C183 C 0.84444 0.31834 0.59734 0.0
O184 O 0.82896 0.33758 0.58135 0.0
N185 N 0.75378 0.33198 0.64541 0.0
C186 C 0.69289 0.3439 0.65565 0.0
C187 C 0.70278 0.31512 0.64836 0.0
C188 C 0.73291 0.30949 0.64472 0.0
C189 C 0.7448 0.36027 0.65333 0.0
C190 C 0.71459 0.36633 0.66003 0.0
H191 H 0.73919 0.2866 0.6408 0.0
H192 H 0.76057 0.37842 0.65455 0.0
H193 H 0.7898 0.25127 0.61796 0.0
H194 H 0.7385 0.28006 0.54444 0.0
H195 H 0.85269 0.40373 0.68032 0.0
H196 H 0.68723 0.29671 0.64524 0.0
H197 H 0.70825 0.38855 0.66747 0.0
C198 C 0.98935 0.55591 0.83975 0.0
C199 C 0.00922 0.54191 0.82072 0.0
N200 N 0.03606 0.54159 0.83423 0.0
N201 N 0.0037 0.56389 0.86511 0.0
C202 C 0.03228 0.5553 0.86084 0.0
H203 H 0.96628 0.56124 0.83488 0.0
Co204 Co 0.98762 0.58617 0.89598 0.0
C205 C 0.01992 0.56736 0.95095 0.0
O206 O 0.99426 0.56713 0.96546 0.0
N207 N 0.9714 0.61014 0.92635 0.0
C208 C 0.94296 0.64106 0.95351 0.0
C209 C 0.94286 0.61721 0.9336 0.0
C210 C 0.9882 0.62981 0.942 0.0
N211 N 0.97164 0.64872 0.95849 0.0
O212 O 0.0114 0.6192 0.88283 0.0
H213 H 0.92319 0.60707 0.92386 0.0
H214 H 0.01232 0.63123 0.94029 0.0
O215 O 0.02044 0.57393 0.92302 0.0
C216 C -0.00155 0.63758 0.86539 0.0
O217 O 0.96976 0.63417 0.85988 0.0
N218 N 0.96311 0.5529 0.90599 0.0
C219 C 0.93857 0.49952 0.88525 0.0
C220 C 0.96259 0.49917 0.90519 0.0
C221 C 0.97468 0.52604 0.91514 0.0
C222 C 0.93644 0.55335 0.89103 0.0
C223 C 0.92347 0.52664 0.8806 0.0
H224 H 0.99568 0.5243 0.92626 0.0
H225 H 0.92778 0.57441 0.88279 0.0
H226 H 0.05035 0.56004 0.87626 0.0
H227 H 0.00476 0.53385 0.79827 0.0
H228 H 0.92366 0.65268 0.96249 0.0
H229 H 0.97468 0.47857 0.9096 0.0
H230 H 0.90424 0.52766 0.86589 0.0
C231 C 0.79308 0.77274 0.05682 0.0
C232 C 0.80328 0.79655 0.04033 0.0
N233 N 0.80878 0.81998 0.05884 0.0
N234 N 0.79141 0.78067 0.08587 0.0
C235 C 0.80021 0.80967 0.08625 0.0
H236 H 0.78656 0.75115 0.04795 0.0
Co237 Co 0.77732 0.7559 0.11698 0.0
C238 C 0.78083 0.79436 0.17369 0.0
O239 O 0.77738 0.77188 0.1923 0.0
N240 N 0.76183 0.73097 0.14694 0.0
C241 C 0.7489 0.69388 0.17791 0.0
C242 C 0.76938 0.70322 0.15643 0.0
C243 C 0.73647 0.73745 0.16213 0.0
N244 N 0.72834 0.71569 0.18111 0.0
O245 O 0.73758 0.76802 0.10852 0.0
H246 H 0.78852 0.69069 0.14844 0.0
H247 H 0.72472 0.75861 0.16052 0.0
O248 O 0.78106 0.79004 0.14528 0.0
C249 C 0.72215 0.75391 0.08926 0.0
O250 O 0.73579 0.73605 0.07021 0.0
N251 N 0.81701 0.74307 0.12458 0.0
C252 C 0.87849 0.74738 0.12372 0.0
C253 C 0.86306 0.75123 0.15066 0.0
C254 C 0.83205 0.74817 0.15073 0.0
C255 C 0.83236 0.73267 0.10023 0.0
C256 C 0.86343 0.73545 0.09896 0.0
H257 H 0.8205 0.75217 0.17129 0.0
H258 H 0.82041 0.72542 0.0805 0.0
H259 H 0.79825 0.82324 0.10606 0.0
H260 H 0.80439 0.79679 0.01613 0.0
H261 H 0.74957 0.67331 0.19076 0.0
H262 H 0.87443 0.75924 0.17056 0.0
H263 H 0.87509 0.73125 0.07804 0.0
C264 C 0.7679 0.9796 0.01239 0.0
C265 C 0.79209 0.96088 0.01592 0.0
N266 N 0.78181 0.93261 0.01594 0.0
N267 N 0.74246 0.96315 0.01011 0.0
C268 C 0.75211 0.93451 0.01172 0.0
H269 H 0.76881 0.00376 0.01374 0.0
Co270 Co 0.70236 0.97686 0.01336 0.0
C271 C 0.6788 0.92248 0.00463 0.0
O272 O 0.68113 0.93292 0.97716 0.0
N273 N 0.66313 0.99001 0.01709 0.0
C274 C 0.6188 0.00921 0.00643 0.0
C275 C 0.64503 0.9983 0.99457 0.0
C276 C 0.64736 0.99566 0.04219 0.0
N277 N 0.6206 0.0087 0.03678 0.0
O278 O 0.71134 0.9858 0.05503 0.0
H279 H 0.65066 0.99649 0.97103 0.0
H280 H 0.65529 0.99021 0.06418 0.0
O281 O 0.68906 0.93822 0.0261 0.0
C282 C 0.72623 0.0048 0.07026 0.0
O283 O 0.73762 0.0285 0.05704 0.0
N284 N 0.71281 0.01487 0.99816 0.0
C285 C 0.705 0.06154 0.95751 0.0
C286 C 0.72212 0.03636 0.94993 0.0
C287 C 0.72461 0.01284 0.97003 0.0
C288 C 0.6992 0.04088 0.00731 0.0
C289 C 0.69412 0.06419 0.98688 0.0
H290 H 0.73339 0.99178 0.96187 0.0
H291 H 0.68855 0.04211 0.02906 0.0
H292 H 0.73774 0.91518 0.01191 0.0
H293 H 0.81484 0.96751 0.02101 0.0
H294 H 0.60016 0.01615 0.99291 0.0
H295 H 0.73082 0.03348 0.92739 0.0
H296 H 0.68013 0.08293 0.99336 0.0
C297 C 0.30185 0.52945 0.30055 0.0
C298 C 0.32528 0.547 0.29093 0.0
N299 N 0.34047 0.53177 0.26976 0.0
N300 N 0.30247 0.50307 0.28566 0.0
C301 C 0.32506 0.50604 0.26591 0.0
H302 H 0.28815 0.53412 0.31998 0.0
Co303 Co 0.28625 0.46649 0.29802 0.0
C304 C 0.32968 0.43084 0.27641 0.0
O305 O 0.30748 0.42653 0.25759 0.0
N306 N 0.2705 0.42955 0.31084 0.0
C307 C 0.24677 0.38599 0.31732 0.0
C308 C 0.24701 0.41273 0.30164 0.0
C309 C 0.28413 0.41251 0.33173 0.0
N310 N 0.27027 0.38625 0.33609 0.0
O311 O 0.29096 0.47949 0.33981 0.0
H312 H 0.23133 0.41898 0.28434 0.0
H313 H 0.30383 0.41927 0.34392 0.0
O314 O 0.32568 0.44887 0.29833 0.0
C315 C 0.27608 0.47435 0.36374 0.0
O316 O 0.25076 0.45942 0.36227 0.0
N317 N 0.24847 0.48262 0.29372 0.0
C318 C 0.20262 0.51392 0.26619 0.0
C319 C 0.21764 0.49094 0.25102 0.0
C320 C 0.2405 0.47572 0.26517 0.0
C321 C 0.23313 0.50373 0.30976 0.0
C322 C 0.2093 0.51928 0.29647 0.0
H323 H 0.25378 0.45988 0.25248 0.0
H324 H 0.24072 0.51066 0.33154 0.0
H325 H 0.33341 0.48766 0.25277 0.0
H326 H 0.33318 0.56719 0.30188 0.0
H327 H 0.23101 0.3677 0.31488 0.0
H328 H 0.21329 0.48632 0.22755 0.0
H329 H 0.19804 0.53693 0.30877 0.0
C330 C 0.76788 0.0824 0.55971 0.0
C331 C 0.74987 0.10745 0.55766 0.0
N332 N 0.76661 0.13137 0.56514 0.0
N333 N 0.79571 0.09101 0.56788 0.0
C334 C 0.79404 0.12088 0.57139 0.0
H335 H 0.7614 0.05953 0.55483 0.0
Co336 Co 0.82965 0.06802 0.57265 0.0
C337 C 0.87714 0.10032 0.53873 0.0
O338 O 0.88128 0.07554 0.52338 0.0
N339 N 0.86506 0.04505 0.57865 0.0
C340 C 0.90914 0.02278 0.57105 0.0
C341 C 0.88007 0.02524 0.56113 0.0
C342 C 0.88534 0.05268 0.59993 0.0
N343 N 0.91238 0.04054 0.5952 0.0
O344 O 0.83157 0.0818 0.6131 0.0
H345 H 0.87205 0.01556 0.5405 0.0
H346 H 0.88157 0.06898 0.61742 0.0
O347 O 0.85644 0.10143 0.55888 0.0
C348 C 0.81901 0.06474 0.63224 0.0
O349 O 0.80616 0.03984 0.62318 0.0
N350 N 0.82424 0.05374 0.53347 0.0
C351 C 0.80913 0.03238 0.47706 0.0
C352 C 0.81504 0.06281 0.48141 0.0
C353 C 0.82125 0.0732 0.51 0.0
C354 C 0.81651 0.02434 0.53003 0.0
C355 C 0.80921 0.01298 0.50174 0.0
H356 H 0.82333 0.09704 0.51329 0.0
H357 H 0.81603 0.0097 0.54937 0.0
H358 H 0.81267 0.13486 0.57814 0.0
H359 H 0.72665 0.10819 0.5508 0.0
H360 H 0.92697 0.01025 0.56037 0.0
H361 H 0.81381 0.07857 0.46296 0.0
H362 H 0.80349 0.98952 0.49915 0.0
C363 C 0.19969 0.49755 0.79035 0.0
C364 C 0.17 0.48881 0.79091 0.0
N365 N 0.15417 0.51128 0.80331 0.0
N366 N 0.20196 0.5255 0.80185 0.0
C367 C 0.17392 0.53299 0.80984 0.0
H368 H 0.21829 0.48477 0.78152 0.0
Co369 Co 0.23544 0.54953 0.80598 0.0
C370 C 0.2176 0.60788 0.78118 0.0
O371 O 0.24245 0.6066 0.76537 0.0
N372 N 0.26955 0.57323 0.81263 0.0
C373 C 0.31453 0.58691 0.82971 0.0
C374 C 0.29813 0.56409 0.8167 0.0
C375 C 0.26898 0.601 0.8248 0.0
N376 N 0.29588 0.61001 0.83457 0.0
O377 O 0.22763 0.55247 0.84808 0.0
H378 H 0.30597 0.54142 0.81321 0.0
H379 H 0.24879 0.61348 0.82951 0.0
O380 O 0.21126 0.58594 0.79864 0.0
C381 C 0.23908 0.53424 0.86675 0.0
O382 O 0.25566 0.51199 0.85688 0.0
N383 N 0.24257 0.54644 0.76369 0.0
C384 C 0.25179 0.55351 0.70236 0.0
C385 C 0.22294 0.55479 0.71412 0.0
C386 C 0.21874 0.5508 0.74476 0.0
C387 C 0.27043 0.54195 0.75187 0.0
C388 C 0.27565 0.54597 0.72118 0.0
H389 H 0.19636 0.55366 0.75347 0.0
H390 H 0.28896 0.53607 0.76602 0.0
H391 H 0.1679 0.55405 0.82015 0.0
H392 H 0.16071 0.468 0.78256 0.0
H393 H 0.33764 0.58593 0.8369 0.0
H394 H 0.20397 0.55989 0.6999 0.0
H395 H 0.29813 0.54373 0.71231 0.0
C396 C 0.26509 0.5626 0.05602 0.0
C397 C 0.28835 0.58237 0.05118 0.0
N398 N 0.27745 0.61035 0.05343 0.0
N399 N 0.23953 0.57801 0.06097 0.0
C400 C 0.24824 0.60699 0.06029 0.0
H401 H 0.26594 0.53868 0.0521 0.0
Co402 Co 0.20212 0.56053 0.05229 0.0
C403 C 0.17724 0.62018 0.07182 0.0
O404 O 0.18999 0.61787 0.09823 0.0
N405 N 0.16656 0.54198 0.04206 0.0
C406 C 0.13172 0.50772 0.03226 0.0
C407 C 0.15912 0.51285 0.04563 0.0
C408 C 0.14373 0.55408 0.02663 0.0
N409 N 0.1225 0.53378 0.02025 0.0
O410 O 0.21084 0.56531 0.01027 0.0
H411 H 0.17304 0.49637 0.05662 0.0
H412 H 0.14292 0.57717 0.01925 0.0
O413 O 0.18156 0.60003 0.05183 0.0
C414 C 0.21898 0.54282 0.99465 0.0
O415 O 0.22239 0.51669 0.00775 0.0
N416 N 0.19323 0.55491 0.09368 0.0
C417 C 0.18052 0.5489 0.15461 0.0
C418 C 0.15817 0.5576 0.1347 0.0
C419 C 0.16479 0.55955 0.10423 0.0
C420 C 0.21489 0.54497 0.11277 0.0
C421 C 0.20906 0.54207 0.14341 0.0
H422 H 0.14707 0.56555 0.08922 0.0
H423 H 0.23687 0.53932 0.10447 0.0
H424 H 0.23319 0.62556 0.06038 0.0
H425 H 0.31033 0.57669 0.04265 0.0
H426 H 0.11983 0.48661 0.03086 0.0
H427 H 0.13583 0.56279 0.14262 0.0
H428 H 0.22675 0.53484 0.15834 0.0
C429 C 0.73068 0.04329 0.26998 0.0
C430 C 0.70309 0.05717 0.2719 0.0
N431 N 0.68228 0.03705 0.26351 0.0
N432 N 0.7267 0.01467 0.26087 0.0
C433 C 0.69702 0.01169 0.25704 0.0
H434 H 0.75212 0.05315 0.27544 0.0
Co435 Co 0.75447 0.98445 0.25569 0.0
C436 C 0.72691 0.93082 0.28333 0.0
O437 O 0.75245 0.92591 0.29703 0.0
N438 N 0.7825 0.9531 0.2492 0.0
C439 C 0.81918 0.91899 0.24847 0.0
C440 C 0.81025 0.94651 0.25955 0.0
C441 C 0.77568 0.9295 0.23136 0.0
N442 N 0.79725 0.90854 0.23076 0.0
O443 O 0.74319 0.98175 0.21464 0.0
H444 H 0.82327 0.95995 0.27479 0.0
H445 H 0.75462 0.92699 0.21975 0.0
O446 O 0.72411 0.95386 0.26643 0.0
C447 C 0.75271 0.00197 0.19693 0.0
O448 O 0.76935 0.02383 0.20754 0.0
N449 N 0.76567 0.98952 0.29581 0.0
C450 C 0.78128 0.00281 0.35453 0.0
C451 C 0.75259 0.99245 0.34782 0.0
C452 C 0.74485 0.98729 0.31817 0.0
C453 C 0.79295 0.00188 0.30168 0.0
C454 C 0.80152 0.00826 0.33113 0.0
H455 H 0.72176 0.98225 0.31317 0.0
H456 H 0.80784 0.00749 0.28338 0.0
H457 H 0.68617 0.99122 0.24982 0.0
H458 H 0.69859 0.07992 0.27907 0.0
H459 H 0.8397 0.9072 0.25365 0.0
H460 H 0.73594 0.98954 0.3653 0.0
H461 H 0.82339 0.01775 0.33557 0.0
C462 C 0.31364 0.48449 0.57667 0.0
C463 C 0.29935 0.45758 0.58179 0.0
N464 N 0.30751 0.43864 0.55986 0.0
N465 N 0.33041 0.4825 0.55139 0.0
C466 C 0.32615 0.45402 0.54191 0.0
H467 H 0.3127 0.50353 0.59146 0.0
Co468 Co 0.35822 0.50939 0.5339 0.0
C469 C 0.39671 0.46564 0.54771 0.0
O470 O 0.38457 0.47078 0.57407 0.0
N471 N 0.38639 0.53459 0.51672 0.0
C472 C 0.43452 0.54431 0.50917 0.0
C473 C 0.4128 0.53935 0.53048 0.0
C474 C 0.3923 0.53809 0.48713 0.0
N475 N 0.42163 0.54317 0.48189 0.0
O476 O 0.33762 0.50549 0.49503 0.0
H477 H 0.41682 0.53529 0.55402 0.0
H478 H 0.37644 0.53341 0.46944 0.0
O479 O 0.38457 0.47723 0.52458 0.0
C480 C 0.31115 0.49833 0.48661 0.0
O481 O 0.29002 0.49345 0.50654 0.0
N482 N 0.33571 0.54194 0.5464 0.0
C483 C 0.29733 0.56899 0.58622 0.0
C484 C 0.32687 0.56304 0.59465 0.0
C485 C 0.3459 0.5495 0.57411 0.0
C486 C 0.30967 0.55369 0.53578 0.0
C487 C 0.28972 0.56759 0.55571 0.0
H488 H 0.3671 0.54071 0.5818 0.0
H489 H 0.30322 0.5504 0.51288 0.0
H490 H 0.33719 0.44434 0.52258 0.0
H491 H 0.28524 0.45191 0.60073 0.0
H492 H 0.45834 0.54611 0.51322 0.0
H493 H 0.33384 0.56483 0.61786 0.0
H494 H 0.26751 0.57371 0.5482 0.0
C495 C 0.84997 0.06499 0.84063 0.0
C496 C 0.87508 0.04725 0.83779 0.0
N497 N 0.89206 0.05886 0.81588 0.0
N498 N 0.85146 0.08817 0.82093 0.0
C499 C 0.87719 0.08301 0.80579 0.0
H500 H 0.83261 0.06111 0.85695 0.0
Co501 Co 0.82859 0.12368 0.81403 0.0
C502 C 0.87524 0.15646 0.82996 0.0
O503 O 0.86348 0.14858 0.85582 0.0
N504 N 0.80724 0.15838 0.80635 0.0
C505 C 0.77724 0.19804 0.80852 0.0
C506 C 0.78807 0.17366 0.82413 0.0
C507 C 0.8081 0.17391 0.78046 0.0
N508 N 0.78981 0.19773 0.78108 0.0
O509 O 0.82513 0.11209 0.77199 0.0
H510 H 0.78252 0.16759 0.84695 0.0
H511 H 0.82239 0.16832 0.76164 0.0
O512 O 0.86436 0.14558 0.80589 0.0
C513 C 0.81665 0.08749 0.76007 0.0
O514 O 0.80765 0.0652 0.77711 0.0
N515 N 0.79296 0.10531 0.82545 0.0
C516 C 0.73932 0.10066 0.85698 0.0
C517 C 0.76689 0.09851 0.87169 0.0
C518 C 0.79312 0.10261 0.85579 0.0
C519 C 0.7664 0.10622 0.81018 0.0
C520 C 0.73909 0.1044 0.82573 0.0
H521 H 0.81361 0.10628 0.86812 0.0
H522 H 0.76604 0.11173 0.78664 0.0
H523 H 0.88552 0.09727 0.78805 0.0
H524 H 0.88111 0.02827 0.85163 0.0
H525 H 0.76198 0.21499 0.81678 0.0
H526 H 0.76812 0.09628 0.89586 0.0
H527 H 0.71827 0.10759 0.81377 0.0
C528 C 0.05068 0.85142 -0.00062 0.0
C529 C 0.04435 0.86272 0.97127 0.0
N530 N 0.04897 0.84062 0.95123 0.0
N531 N 0.05869 0.82234 0.99672 0.0
C532 C 0.05759 0.81654 0.9671 0.0
H533 H 0.05018 0.86371 0.0203 0.0
Co534 Co 0.07325 0.79673 0.0259 0.0
C535 C 0.03485 0.74279 0.01949 0.0
O536 O 0.0309 0.74378 0.04869 0.0
N537 N 0.09043 0.77131 0.05488 0.0
C538 C 0.1212 0.7554 0.09098 0.0
C539 C 0.10604 0.77967 0.07952 0.0
C540 C 0.09811 0.74226 0.05089 0.0
N541 N 0.11643 0.73212 0.07252 0.0
O542 O 0.10718 0.78939 0.00113 0.0
H543 H 0.10898 0.80254 0.08697 0.0
H544 H 0.0929 0.72946 0.03096 0.0
O545 O 0.05212 0.76212 0.00695 0.0
C546 C 0.1306 0.80482 0.0057 0.0
O547 O 0.13043 0.82525 0.02695 0.0
N548 N 0.03905 0.80481 0.05046 0.0
C549 C 0.98876 0.79844 0.08614 0.0
C550 C 0.98589 0.7995 0.05502 0.0
C551 C 0.01132 0.8034 0.03753 0.0
C552 C 0.04116 0.80968 0.08066 0.0
C553 C 0.01618 0.80588 0.09921 0.0
H554 H 0.00888 0.80206 0.01355 0.0
H555 H 0.06215 0.81519 0.09089 0.0
H556 H 0.06396 0.79531 0.95716 0.0
H557 H 0.03778 0.88542 0.96583 0.0
H558 H 0.13682 0.75555 0.10953 0.0
H559 H 0.96457 0.79516 0.04428 0.0
H560 H 0.01858 0.807 0.12335 0.0
C561 C 0.51089 0.71198 0.06739 0.0
C562 C 0.49938 0.70199 0.09435 0.0
N563 N 0.50694 0.72205 0.11558 0.0
N564 N 0.52543 0.73816 0.07196 0.0
C565 C 0.52236 0.74375 0.10148 0.0
H566 H 0.51039 0.69997 0.04632 0.0
Co567 Co 0.55062 0.7589 0.04634 0.0
C568 C 0.5241 0.82133 0.04842 0.0
O569 O 0.5249 0.82398 0.01907 0.0
N570 N 0.57731 0.77953 0.02103 0.0
C571 C 0.6118 0.79219 0.98697 0.0
C572 C 0.59119 0.77087 0.99536 0.0
C573 C 0.59104 0.80549 0.02838 0.0
N574 N 0.61151 0.81374 0.00791 0.0
O575 O 0.57961 0.76193 0.07686 0.0
H576 H 0.58809 0.74989 0.98384 0.0
H577 H 0.5869 0.81771 0.04894 0.0
O578 O 0.53317 0.7971 0.0608 0.0
C579 C 0.59785 0.74027 0.0783 0.0
O580 O 0.59362 0.71758 0.05992 0.0
N581 N 0.52293 0.75425 0.01531 0.0
C582 C 0.49136 0.75102 0.96227 0.0
C583 C 0.47957 0.7667 0.98681 0.0
C584 C 0.4955 0.76745 0.0136 0.0
C585 C 0.53186 0.73477 0.99349 0.0
C586 C 0.51713 0.7338 0.966 0.0
H587 H 0.48622 0.77941 0.03239 0.0
H588 H 0.55128 0.72082 0.99707 0.0
H589 H 0.53322 0.76221 0.11294 0.0
H590 H 0.48841 0.68074 0.09846 0.0
H591 H 0.62627 0.79171 0.96748 0.0
H592 H 0.45874 0.77901 0.98493 0.0
H593 H 0.52595 0.72028 0.94783 0.0
C594 C 0.55406 0.28447 0.27528 0.0
C595 C 0.57209 0.28034 0.30009 0.0
N596 N 0.55484 0.2705 0.32284 0.0
N597 N 0.52551 0.27775 0.28256 0.0
C598 C 0.52706 0.26818 0.31132 0.0
H599 H 0.56074 0.29528 0.25463 0.0
Co600 Co 0.49157 0.29373 0.26357 0.0
C601 C 0.43989 0.27233 0.2992 0.0
O602 O 0.42406 0.26948 0.27457 0.0
N603 N 0.45694 0.3118 0.24577 0.0
C604 C 0.41603 0.32702 0.22114 0.0
C605 C 0.43988 0.30749 0.22092 0.0
C606 C 0.44263 0.33443 0.26027 0.0
N607 N 0.41803 0.344 0.2459 0.0
O608 O 0.50161 0.3322 0.28092 0.0
H609 H 0.4433 0.29107 0.20362 0.0
H610 H 0.44956 0.34354 0.28164 0.0
O611 O 0.46657 0.28284 0.29811 0.0
C612 C 0.51604 0.34994 0.26373 0.0
O613 O 0.52355 0.34076 0.23674 0.0
N614 N 0.48424 0.25595 0.24529 0.0
C615 C 0.47314 0.20103 0.21671 0.0
C616 C 0.47769 0.2025 0.24783 0.0
C617 C 0.48271 0.23014 0.2617 0.0
C618 C 0.48434 0.25423 0.21477 0.0
C619 C 0.47647 0.22758 0.20011 0.0
H620 H 0.48524 0.23062 0.28575 0.0
H621 H 0.4896 0.27392 0.20164 0.0
H622 H 0.50775 0.26345 0.32518 0.0
H623 H 0.59529 0.28705 0.30215 0.0
H624 H 0.39862 0.32875 0.20436 0.0
H625 H 0.47653 0.18248 0.26152 0.0
H626 H 0.47381 0.22761 0.17598 0.0
C627 C 0.04085 0.31944 0.53297 0.0
C628 C 0.05107 0.33693 0.55642 0.0
N629 N 0.04621 0.32167 0.58199 0.0
N630 N 0.03027 0.29332 0.54406 0.0
C631 C 0.03349 0.29559 0.57398 0.0
H632 H 0.04083 0.32541 0.50947 0.0
Co633 Co 0.01132 0.26232 0.52404 0.0
C634 C 0.0405 0.20798 0.54745 0.0
O635 O 0.04405 0.19952 0.51944 0.0
N636 N 0.98916 0.2325 0.50442 0.0
C637 C 0.95246 0.21385 0.47597 0.0
C638 C 0.97373 0.23609 0.47858 0.0
C639 C 0.97571 0.20884 0.51777 0.0
N640 N 0.95373 0.19704 0.50089 0.0
O641 O 0.97711 0.2694 0.54911 0.0
H642 H 0.97593 0.25522 0.46385 0.0
H643 H 0.97963 0.20223 0.54075 0.0
O644 O 0.02678 0.23258 0.55333 0.0
C645 C 0.9551 0.28488 0.53989 0.0
O646 O 0.95576 0.2958 0.51254 0.0
N647 N 0.04677 0.25574 0.49934 0.0
C648 C 0.1 0.23767 0.47099 0.0
C649 C 0.1005 0.25076 0.4994 0.0
C650 C 0.07396 0.25905 0.51324 0.0
C651 C 0.04627 0.24552 0.4703 0.0
C652 C 0.0725 0.23533 0.45612 0.0
H653 H 0.07567 0.26654 0.53607 0.0
H654 H 0.02574 0.24379 0.45803 0.0
H655 H 0.02603 0.27872 0.58977 0.0
H656 H 0.06069 0.35916 0.55498 0.0
H657 H 0.93596 0.21151 0.45838 0.0
H658 H 0.12133 0.2531 0.51163 0.0
H659 H 0.07122 0.22535 0.43401 0.0
C660 C 0.04729 0.81507 0.77811 0.0
C661 C 0.03675 0.83156 0.80209 0.0
N662 N 0.05361 0.82467 0.82606 0.0
N663 N 0.07092 0.79853 0.78705 0.0
C664 C 0.0741 0.80481 0.81641 0.0
H665 H 0.03745 0.81409 0.756 0.0
Co666 Co 0.09058 0.76907 0.76552 0.0
C667 C 0.15478 0.77523 0.78235 0.0
O668 O 0.16224 0.77073 0.75415 0.0
N669 N 0.1094 0.73837 0.74423 0.0
C670 C 0.1261 0.70424 0.71166 0.0
C671 C 0.10949 0.73022 0.71499 0.0
C672 C 0.12521 0.71676 0.75811 0.0
N673 N 0.13605 0.6963 0.73896 0.0
O674 O 0.07751 0.74011 0.79414 0.0
H675 H 0.09824 0.74207 0.69718 0.0
H676 H 0.12924 0.71621 0.78204 0.0
O677 O 0.12711 0.77526 0.78985 0.0
C678 C 0.05117 0.72965 0.79178 0.0
O679 O 0.03378 0.73924 0.77009 0.0
N680 N 0.10175 0.79829 0.73679 0.0
C681 C 0.10207 0.84992 0.70193 0.0
C682 C 0.12293 0.8462 0.7247 0.0
C683 C 0.12145 0.82102 0.74266 0.0
C684 C 0.08328 0.80023 0.71247 0.0
C685 C 0.08292 0.82612 0.69463 0.0
H686 H 0.13404 0.82217 0.76284 0.0
H687 H 0.06644 0.78316 0.7089 0.0
H688 H 0.08999 0.79374 0.83097 0.0
H689 H 0.01739 0.84614 0.80237 0.0
H690 H 0.13095 0.69249 0.69097 0.0
H691 H 0.13731 0.86463 0.73144 0.0
H692 H 0.06583 0.82881 0.67765 0.0
C693 C 0.56954 0.2695 0.4965 0.0
C694 C 0.57407 0.25478 0.46961 0.0
N695 N 0.57986 0.27544 0.44846 0.0
N696 N 0.57129 0.29945 0.4921 0.0
C697 C 0.57958 0.30189 0.46307 0.0
H698 H 0.56298 0.25888 0.5172 0.0
Co699 Co 0.55504 0.33149 0.51531 0.0
C700 C 0.56864 0.37502 0.47576 0.0
O701 O 0.59335 0.37293 0.49157 0.0
N702 N 0.53893 0.36297 0.53667 0.0
C703 C 0.53417 0.40641 0.56033 0.0
C704 C 0.55344 0.38318 0.55369 0.0
C705 C 0.51095 0.37373 0.5338 0.0
N706 N 0.50746 0.40022 0.54771 0.0
O707 O 0.51497 0.31345 0.51133 0.0
H708 H 0.57712 0.38232 0.55852 0.0
H709 H 0.49389 0.36349 0.51999 0.0
O710 O 0.54814 0.35536 0.47971 0.0
C711 C 0.50142 0.29021 0.52123 0.0
O712 O 0.51504 0.2711 0.53886 0.0
N713 N 0.56384 0.31185 0.55174 0.0
C714 C 0.58886 0.31858 0.60841 0.0
C715 C 0.6068 0.31103 0.58373 0.0
C716 C 0.59387 0.30811 0.55546 0.0
C717 C 0.54557 0.31463 0.57635 0.0
C718 C 0.55776 0.31849 0.60504 0.0
H719 H 0.60847 0.30728 0.53612 0.0
H720 H 0.522 0.31891 0.57354 0.0
H721 H 0.58237 0.32284 0.45161 0.0
H722 H 0.57023 0.23119 0.46536 0.0
H723 H 0.53971 0.42686 0.57219 0.0
H724 H 0.63099 0.31114 0.58561 0.0
H725 H 0.54334 0.32461 0.6236 0.0
C726 C 0.0586 0.34489 0.75507 0.0
C727 C 0.06974 0.35218 0.72711 0.0
N728 N 0.05336 0.33735 0.70662 0.0
N729 N 0.03514 0.32604 0.75177 0.0
C730 C 0.03287 0.32153 0.72201 0.0
H731 H 0.06698 0.35278 0.77642 0.0
Co732 Co 0.01256 0.30769 0.78133 0.0
C733 C 0.95025 0.32354 0.76601 0.0
O734 O 0.94718 0.33084 0.79445 0.0
N735 N 0.99114 0.28716 0.81132 0.0
C736 C 0.98259 0.25827 0.85133 0.0
C737 C 0.00121 0.27954 0.8389 0.0
C738 C 0.9672 0.26908 0.80705 0.0
N739 N 0.96149 0.25167 0.83098 0.0
O740 O 0.01984 0.26991 0.76221 0.0
H741 H 0.02246 0.28636 0.84819 0.0
H742 H 0.95554 0.2667 0.78596 0.0
O743 O 0.97529 0.31251 0.75712 0.0
C744 C 0.03885 0.25146 0.77255 0.0
O745 O 0.05414 0.25866 0.79665 0.0
N746 N 0.00576 0.34597 0.79979 0.0
C747 C 0.98156 0.3975 0.82554 0.0
C748 C 0.98175 0.39373 0.79442 0.0
C749 C 0.99552 0.36874 0.78198 0.0
C750 C 0.00912 0.35099 0.82983 0.0
C751 C 0.99705 0.37671 0.84325 0.0
H752 H 0.99504 0.36638 0.75794 0.0
H753 H 0.02054 0.33508 0.84376 0.0
H754 H 0.0166 0.30675 0.71174 0.0
H755 H 0.08827 0.36703 0.72216 0.0
H756 H 0.98582 0.24662 0.87236 0.0
H757 H 0.97088 0.40973 0.77978 0.0
H758 H -0.0012 0.37977 0.86729 0.0
C759 C 0.52774 0.73753 0.28809 0.0
C760 C 0.50984 0.7252 0.26603 0.0
N761 N 0.52235 0.73174 0.23935 0.0
N762 N 0.55151 0.75101 0.27506 0.0
C763 C 0.54745 0.74722 0.24541 0.0
H764 H 0.52392 0.73648 0.31203 0.0
Co765 Co 0.58284 0.77166 0.29292 0.0
C766 C 0.6378 0.74899 0.26495 0.0
O767 O 0.64672 0.74317 0.29234 0.0
N768 N 0.61497 0.79526 0.3104 0.0
C769 C 0.65672 0.81367 0.33152 0.0
C770 C 0.63626 0.79065 0.3317 0.0
C771 C 0.62339 0.82201 0.29834 0.0
N772 N 0.64858 0.83326 0.3103 0.0
O773 O 0.57 0.80619 0.27046 0.0
H774 H 0.63916 0.77099 0.34523 0.0
H775 H 0.61256 0.83293 0.27977 0.0
O776 O 0.61169 0.76037 0.26044 0.0
C777 C 0.55103 0.82456 0.28132 0.0
O778 O 0.54045 0.82021 0.30846 0.0
N779 N 0.59275 0.7358 0.31471 0.0
C780 C 0.61543 0.6831 0.3396 0.0
C781 C 0.60436 0.68347 0.31032 0.0
C782 C 0.59357 0.70985 0.29827 0.0
C783 C 0.59772 0.73434 0.3449 0.0
C784 C 0.6113 0.70878 0.35748 0.0
H785 H 0.58779 0.70963 0.27484 0.0
H786 H 0.59365 0.75381 0.3588 0.0
H787 H 0.56252 0.75581 0.22843 0.0
H788 H 0.48941 0.71253 0.26921 0.0
H789 H 0.6766 0.81545 0.34527 0.0
H790 H 0.60592 0.66389 0.29598 0.0
H791 H 0.61908 0.70947 0.38044 0.0
C792 C 0.08306 0.92955 0.71649 0.0
C793 C 0.09495 0.94413 0.69091 0.0
C794 C 0.10927 0.89556 0.66955 0.0
C795 C 0.09489 0.88122 0.69398 0.0
N796 N 0.06142 0.88429 0.73644 0.0
N797 N 0.11574 0.94154 0.64105 0.0
C798 C 0.07945 0.89822 0.71595 0.0
C799 C 0.10706 0.9273 0.66674 0.0
N800 N 0.07602 0.94566 0.74167 0.0
N801 N 0.12552 0.87892 0.64963 0.0
H802 H 0.11498 0.9648 0.63869 0.0
H803 H 0.12194 0.93024 0.62156 0.0
H804 H 0.12629 0.85554 0.65059 0.0
H805 H 0.13922 0.88829 0.6332 0.0
H806 H 0.07002 0.93572 0.76194 0.0
H807 H 0.07924 0.96879 0.7433 0.0
H808 H 0.04753 0.89585 0.75126 0.0
H809 H 0.05791 0.86122 0.73643 0.0
C810 C 0.47786 0.78249 0.9186 0.0
C811 C 0.47674 0.75409 0.93283 0.0
C812 C 0.4345 0.73995 0.90157 0.0
C813 C 0.42993 0.77071 0.8957 0.0
N814 N 0.44984 0.82017 0.89089 0.0
N815 N 0.45682 0.70387 0.93535 0.0
C816 C 0.4532 0.79144 0.90076 0.0
C817 C 0.45655 0.73179 0.9228 0.0
N818 N 0.5017 0.80101 0.92358 0.0
N819 N 0.41652 0.71913 0.88826 0.0
H820 H 0.47305 0.69716 0.95071 0.0
H821 H 0.44033 0.68782 0.9315 0.0
H822 H 0.40043 0.7252 0.8725 0.0
H823 H 0.41964 0.6961 0.89037 0.0
H824 H 0.5046 0.8216 0.91302 0.0
H825 H 0.5198 0.79443 0.93682 0.0
H826 H 0.46436 0.83765 0.89616 0.0
H827 H 0.43166 0.82624 0.87749 0.0
C828 C 0.44333 0.15286 0.21582 0.0
C829 C 0.46532 0.17158 0.20228 0.0
C830 C 0.47254 0.13251 0.16447 0.0
C831 C 0.45832 0.11119 0.18333 0.0
N832 N 0.4322 0.10204 0.2303 0.0
N833 N 0.50528 0.17531 0.16542 0.0
C834 C 0.44368 0.12157 0.20973 0.0
C835 C 0.48082 0.16071 0.1766 0.0
N836 N 0.4222 0.16483 0.23442 0.0
N837 N 0.47979 0.12503 0.1357 0.0
H838 H 0.51483 0.19398 0.17567 0.0
H839 H 0.51834 0.1665 0.14813 0.0
H840 H 0.47382 0.10434 0.12645 0.0
H841 H 0.48873 0.14047 0.12057 0.0
H842 H 0.40461 0.15222 0.24325 0.0
H843 H 0.42034 0.1879 0.2379 0.0
H844 H 0.42416 0.10908 0.25112 0.0
H845 H 0.43309 0.07886 0.22802 0.0
C846 C 0.14405 0.20429 0.47746 0.0
C847 C 0.12851 0.22496 0.45907 0.0
C848 C 0.17382 0.23064 0.42883 0.0
C849 C 0.19085 0.21776 0.45238 0.0
N850 N 0.19131 0.19319 0.50092 0.0
N851 N 0.12901 0.25831 0.41636 0.0
C852 C 0.17579 0.20398 0.47687 0.0
C853 C 0.14322 0.23772 0.43392 0.0
N854 N 0.12838 0.18604 0.4964 0.0
N855 N 0.18736 0.23709 0.40213 0.0
H856 H 0.10675 0.26448 0.41951 0.0
H857 H 0.13998 0.27076 0.39992 0.0
H858 H 0.2098 0.23192 0.39809 0.0
H859 H 0.17565 0.24453 0.38337 0.0
H860 H 0.13838 0.16899 0.50881 0.0
H861 H 0.105 0.18605 0.49706 0.0
H862 H 0.18089 0.18618 0.52064 0.0
H863 H 0.21452 0.19348 0.50245 0.0
C864 C 0.62778 0.60474 0.36745 0.0
C865 C 0.63845 0.59445 0.33952 0.0
C866 C 0.6546 0.64533 0.32855 0.0
C867 C 0.63239 0.65583 0.34891 0.0
N868 N 0.60047 0.64486 0.39151 0.0
N869 N 0.66971 0.60334 0.29702 0.0
C870 C 0.62056 0.63557 0.37042 0.0
C871 C 0.65554 0.61419 0.32182 0.0
N872 N 0.62224 0.58457 0.38963 0.0
N873 N 0.67241 0.6655 0.31403 0.0
H874 H 0.67006 0.58035 0.29246 0.0
H875 H 0.68008 0.61689 0.28108 0.0
H876 H 0.67108 0.68842 0.31872 0.0
H877 H 0.68969 0.65931 0.2996 0.0
H878 H 0.61543 0.5908 0.41113 0.0
H879 H 0.62748 0.56192 0.38676 0.0
H880 H 0.58884 0.63 0.40531 0.0
H881 H 0.59446 0.6672 0.39432 0.0
C882 C 0.6148 0.36229 0.62952 0.0
C883 C 0.60364 0.33317 0.63442 0.0
C884 C 0.64261 0.32603 0.67165 0.0
C885 C 0.65978 0.34873 0.65718 0.0
N886 N 0.65986 0.39081 0.62229 0.0
N887 N 0.60358 0.28867 0.66442 0.0
C888 C 0.64499 0.36843 0.6369 0.0
C889 C 0.616 0.31572 0.65756 0.0
N890 N 0.59695 0.38319 0.61642 0.0
N891 N 0.65326 0.31301 0.69712 0.0
H892 H 0.58368 0.28148 0.65445 0.0
H893 H 0.61345 0.27338 0.67902 0.0
H894 H 0.67312 0.32036 0.70707 0.0
H895 H 0.64121 0.29717 0.70938 0.0
H896 H 0.60341 0.40547 0.61351 0.0
H897 H 0.57444 0.3786 0.61218 0.0
H898 H 0.65027 0.40293 0.60478 0.0
H899 H 0.68207 0.39638 0.62609 0.0
C900 C 0.94284 0.41911 0.86125 0.0
C901 C 0.96541 0.42344 0.83903 0.0
C902 C 0.95186 0.47624 0.83694 0.0
C903 C 0.93622 0.47358 0.86437 0.0
N904 N 0.91512 0.44184 0.90234 0.0
N905 N 0.99514 0.45856 0.81017 0.0
C906 C 0.93081 0.44464 0.87623 0.0
C907 C 0.97087 0.45269 0.82791 0.0
N908 N 0.93236 0.39101 0.86743 0.0
N909 N 0.94881 0.50112 0.81956 0.0
H910 H 0.01146 0.44258 0.80529 0.0
H911 H 0.00075 0.48015 0.80328 0.0
H912 H 0.93364 0.51807 0.82464 0.0
H913 H 0.95829 0.50266 0.79822 0.0
H914 H 0.91436 0.38704 0.88177 0.0
H915 H 0.93961 0.37199 0.85591 0.0
H916 H 0.91329 0.42172 0.91407 0.0
H917 H 0.90501 0.46029 0.91265 0.0
C918 C 0.96206 0.75695 0.11301 0.0
C919 C 0.96313 0.78752 0.10402 0.0
C920 C 0.90924 0.79225 0.1108 0.0
C921 C 0.90801 0.76163 0.11958 0.0
N922 N 0.9331 0.71678 0.13572 0.0
N923 N 0.94019 0.83616 0.10244 0.0
C924 C 0.93447 0.74463 0.12302 0.0
C925 C 0.93744 0.80582 0.10581 0.0
N926 N 0.98692 0.7393 0.11032 0.0
N927 N 0.88343 0.80788 0.10558 0.0
H928 H 0.96086 0.84649 0.09881 0.0
H929 H 0.92271 0.85115 0.10617 0.0
H930 H 0.86217 0.79887 0.10892 0.0
H931 H 0.88302 0.829 0.09567 0.0
H932 H 0.98657 0.71607 0.11264 0.0
H933 H 0.00785 0.74769 0.10433 0.0
H934 H 0.95194 0.70437 0.14154 0.0
H935 H 0.913 0.70706 0.14268 0.0
C936 C 0.7085 0.11075 0.92983 0.0
C937 C 0.69584 0.0818 0.93272 0.0
C938 C 0.69371 0.07611 0.87842 0.0
C939 C 0.71206 0.10182 0.8761 0.0
N940 N 0.72248 0.1508 0.89547 0.0
N941 N 0.66274 0.04533 0.91112 0.0
C942 C 0.71327 0.12211 0.90049 0.0
C943 C 0.68299 0.06789 0.90722 0.0
N944 N 0.71862 0.12581 0.95444 0.0
N945 N 0.68916 0.0582 0.85406 0.0
H946 H 0.65553 0.03911 0.93253 0.0
H947 H 0.65141 0.03507 0.89347 0.0
H948 H 0.69627 0.06428 0.83265 0.0
H949 H 0.67898 0.03722 0.85525 0.0
H950 H 0.7311 0.1455 0.95316 0.0
H951 H 0.71528 0.11797 0.97618 0.0
H952 H 0.72281 0.16726 0.91207 0.0
H953 H 0.72723 0.15829 0.87377 0.0
C954 C 0.19074 0.56843 0.20586 0.0
C955 C 0.17502 0.54796 0.18739 0.0
C956 C 0.16031 0.51966 0.23185 0.0
C957 C 0.18362 0.5339 0.24773 0.0
N958 N 0.21731 0.57584 0.25259 0.0
N959 N 0.14188 0.50531 0.18284 0.0
C960 C 0.19687 0.5603 0.23598 0.0
C961 C 0.15799 0.52446 0.20048 0.0
N962 N 0.20027 0.59511 0.19422 0.0
N963 N 0.14247 0.49971 0.24663 0.0
H964 H 0.13997 0.50792 0.15971 0.0
H965 H 0.13167 0.48593 0.19091 0.0
H966 H 0.14521 0.49574 0.26956 0.0
H967 H 0.12382 0.48952 0.23702 0.0
H968 H 0.20995 0.61205 0.20703 0.0
H969 H 0.1958 0.60131 0.17209 0.0
H970 H 0.23094 0.59267 0.24389 0.0
H971 H 0.22103 0.5714 0.27519 0.0
C972 C 0.77533 0.03463 0.43286 0.0
C973 C 0.80085 0.02196 0.44672 0.0
C974 C 0.81178 0.99374 0.40096 0.0
C975 C 0.78894 0.00994 0.38598 0.0
N976 N 0.75342 0.05082 0.38621 0.0
N977 N 0.84643 0.99306 0.4426 0.0
C978 C 0.77192 0.03184 0.40151 0.0
C979 C 0.81995 0.00238 0.43047 0.0
N980 N 0.75409 0.04889 0.44973 0.0
N981 N 0.82499 0.9696 0.38747 0.0
H982 H 0.85345 -0.00087 0.46405 0.0
H983 H 0.86258 0.98141 0.43038 0.0
H984 H 0.81927 0.96225 0.36602 0.0
H985 H 0.83958 0.95524 0.39864 0.0
H986 H 0.73374 0.05616 0.44096 0.0
H987 H 0.75542 0.05055 0.47304 0.0
H988 H 0.7427 0.06896 0.3963 0.0
H989 H 0.7513 0.05045 0.36291 0.0
C990 C 0.27626 0.59398 0.63158 0.0
C991 C 0.27468 0.57018 0.6106 0.0
C992 C 0.2534 0.53696 0.64877 0.0
C993 C 0.25691 0.56009 0.67024 0.0
N994 N 0.2639 0.61255 0.68135 0.0
N995 N 0.25198 0.52305 0.59637 0.0
C996 C 0.26564 0.58938 0.66133 0.0
C997 C 0.25975 0.54308 0.61822 0.0
N998 N 0.2894 0.62035 0.62322 0.0
N999 N 0.24551 0.50873 0.65781 0.0
H1000 H 0.25597 0.52668 0.57369 0.0
H1001 H 0.23877 0.50421 0.60029 0.0
H1002 H 0.23996 0.50351 0.67994 0.0
H1003 H 0.24645 0.49 0.64388 0.0
H1004 H 0.29473 0.63756 0.63807 0.0
H1005 H 0.29577 0.62449 0.60105 0.0
H1006 H 0.26752 0.63488 0.67565 0.0
H1007 H 0.25661 0.6097 0.7034 0.0
C1008 C 0.07157 0.1983 0.59424 0.0
C1009 C 0.05181 0.18772 0.57144 0.0
C1010 C 0.06221 0.13595 0.58641 0.0
C1011 C 0.08045 0.14639 0.61003 0.0
N1012 N 0.09903 0.18699 0.6399 0.0
N1013 N 0.02506 0.1459 0.54923 0.0
C1014 C 0.08412 0.17748 0.61493 0.0
C1015 C 0.0462 0.15645 0.56867 0.0
N1016 N 0.07973 0.22778 0.59528 0.0
N1017 N 0.05909 0.10614 0.58068 0.0
H1018 H 0.0108 0.15993 0.53737 0.0
H1019 H 0.02055 0.12307 0.54653 0.0
H1020 H 0.07071 0.08942 0.59212 0.0
H1021 H 0.07071 0.08942 0.59212 0.0
H1022 H 0.09678 0.23592 0.60894 0.0
H1023 H 0.07099 0.24394 0.58108 0.0
H1024 H 0.09938 0.20922 0.6471 0.0
H1025 H 0.10958 0.1721 0.65451 0.0
C1026 C 0.20316 0.81776 0.83945 0.0
C1027 C 0.23031 0.80182 0.836 0.0
C1028 C 0.20548 0.76564 0.80326 0.0
C1029 C 0.17887 0.78295 0.80409 0.0
N1030 N 0.15324 0.82778 0.82165 0.0
N1031 N 0.25778 0.76136 0.81262 0.0
C1032 C 0.17778 0.80956 0.82198 0.0
C1033 C 0.23163 0.77636 0.81719 0.0
N1034 N 0.20117 0.83982 0.86062 0.0
N1035 N 0.20588 0.73825 0.78956 0.0
H1036 H 0.27835 0.7682 0.8214 0.0
H1037 H 0.27835 0.7682 0.8214 0.0
H1038 H 0.18656 0.72798 0.78147 0.0
H1039 H 0.22513 0.72506 0.78844 0.0
H1040 H 0.18102 0.84934 0.86754 0.0
H1041 H 0.21957 0.84731 0.87279 0.0
H1042 H 0.15325 0.84949 0.83026 0.0
H1043 H 0.13308 0.82211 0.81175 0.0
C1044 C 0.52919 0.87524 0.06466 0.0
C1045 C 0.51403 0.84729 0.06717 0.0
C1046 C 0.47836 0.87029 0.10273 0.0
C1047 C 0.49421 0.8978 0.10085 0.0
N1048 N 0.53924 0.92387 0.08611 0.0
N1049 N 0.47665 0.81691 0.09207 0.0
C1050 C 0.52087 0.89954 0.08352 0.0
C1051 C 0.48935 0.8444 0.08729 0.0
N1052 N 0.55185 0.87877 0.04433 0.0
N1053 N 0.45285 0.86894 0.11962 0.0
H1054 H 0.48282 0.79769 0.0804 0.0
H1055 H 0.46118 0.8125 0.10898 0.0
H1056 H 0.44574 0.88656 0.13325 0.0
H1057 H 0.43795 0.85099 0.11925 0.0
H1058 H 0.56045 0.89958 0.03811 0.0
H1059 H 0.56114 0.86113 0.03232 0.0
H1060 H 0.56074 0.92492 0.07709 0.0
H1061 H 0.53442 0.94206 0.09973 0.0
C1062 C 0.41584 0.26638 0.38104 0.0
C1063 C 0.4015 0.23801 0.3807 0.0
C1064 C 0.41957 0.22938 0.32986 0.0
C1065 C 0.42799 0.26018 0.32779 0.0
N1066 N 0.434 0.3084 0.35207 0.0
N1067 N 0.41213 0.18807 0.36403 0.0
C1068 C 0.42661 0.27871 0.35372 0.0
C1069 C 0.40968 0.21788 0.35775 0.0
N1070 N 0.4227 0.27953 0.40776 0.0
N1071 N 0.42052 0.21095 0.30542 0.0
H1072 H 0.41032 0.18014 0.38598 0.0
H1073 H 0.42057 0.17241 0.34885 0.0
H1074 H 0.42828 0.21763 0.28453 0.0
H1075 H 0.41141 0.18941 0.30549 0.0
H1076 H 0.43562 0.29891 0.40963 0.0
H1077 H 0.41924 0.26838 0.42801 0.0
H1078 H 0.43005 0.32342 0.36956 0.0
H1079 H 0.44169 0.3186 0.3325 0.0
C1080 C 0.56542 0.39952 0.42493 0.0
C1081 C 0.56411 0.40194 0.45659 0.0
C1082 C 0.55617 0.45604 0.45134 0.0
C1083 C 0.56344 0.45416 0.42062 0.0
N1084 N 0.58253 0.42427 0.37997 0.0
N1085 N 0.56621 0.43516 0.49976 0.0
C1086 C 0.57004 0.42588 0.40779 0.0
C1087 C 0.56176 0.43096 0.46985 0.0
N1088 N 0.56228 0.37244 0.41111 0.0
N1089 N 0.54328 0.48132 0.46277 0.0
H1090 H 0.57351 0.41816 0.5137 0.0
H1091 H 0.5666 0.45633 0.50971 0.0
H1092 H 0.53725 0.49948 0.44937 0.0
H1093 H 0.53537 0.48259 0.48476 0.0
H1094 H 0.56128 0.37014 0.38785 0.0
H1095 H 0.55684 0.35309 0.42287 0.0
H1096 H 0.59032 0.40421 0.37084 0.0
H1097 H 0.58856 0.44343 0.36803 0.0
C1098 C 0.92963 0.34018 0.71474 0.0
C1099 C 0.92503 0.33073 0.74507 0.0
C1100 C 0.87278 0.34697 0.74126 0.0
C1101 C 0.87638 0.35195 0.71037 0.0
N1102 N 0.9067 0.34742 0.66605 0.0
N1103 N 0.88843 0.31625 0.78263 0.0
C1104 C 0.90435 0.34664 0.69655 0.0
C1105 C 0.89546 0.33163 0.7571 0.0
N1106 N 0.95763 0.34505 0.70353 0.0
N1107 N 0.84752 0.35673 0.75537 0.0
H1108 H 0.90317 0.30114 0.79257 0.0
H1109 H 0.86683 0.3154 0.79144 0.0
H1110 H 0.83058 0.36803 0.7439 0.0
H1111 H 0.84485 0.35588 0.7786 0.0
H1112 H 0.9614 0.35433 0.68242 0.0
H1113 H 0.97692 0.34346 0.71619 0.0
H1114 H 0.9258 0.34046 0.65453 0.0
H1115 H 0.88862 0.35272 0.6523 0.0
C1116 C 0.0162 0.68987 0.01528 0.0
C1117 C 0.01895 0.71886 0.00214 0.0
C1118 C 0.98806 0.70153 0.95983 0.0
C1119 C 0.98341 0.67395 0.9747 0.0
N1120 N 0.98635 0.64469 0.0195 0.0
N1121 N 0.00217 0.75364 0.96381 0.0
C1122 C 0.99522 0.66919 0.00349 0.0
C1123 C 0.0035 0.72514 0.97483 0.0
N1124 N 0.03504 0.68125 0.03777 0.0
N1125 N 0.9781 0.70491 0.93109 0.0
H1126 H 0.01283 0.77178 0.97367 0.0
H1127 H 0.98833 0.75983 0.94611 0.0
H1128 H 0.96581 0.68835 0.92005 0.0
H1129 H 0.9838 0.72308 0.91756 0.0
H1130 H 0.0354 0.65963 0.04659 0.0
H1131 H 0.05281 0.69451 0.04497 0.0
H1132 H 0.99206 0.64136 0.04191 0.0
H1133 H 0.97112 0.62911 0.01093 0.0
C1134 C 0.71294 0.73644 0.2293 0.0
C1135 C 0.70569 0.71947 0.20369 0.0
C1136 C 0.65229 0.72253 0.21658 0.0
C1137 C 0.65954 0.74225 0.24064 0.0
N1138 N 0.69655 0.77309 0.26553 0.0
N1139 N 0.66926 0.69731 0.17125 0.0
C1140 C 0.68986 0.75071 0.24565 0.0
C1141 C 0.67551 0.71281 0.19685 0.0
N1142 N 0.7421 0.73855 0.23812 0.0
N1143 N 0.62376 0.71201 0.21332 0.0
H1144 H 0.68616 0.68803 0.15802 0.0
H1145 H 0.64775 0.69455 0.16274 0.0
H1146 H 0.606 0.71908 0.22663 0.0
H1147 H 0.61788 0.69502 0.19843 0.0
H1148 H 0.74878 0.74842 0.25821 0.0
H1149 H 0.75932 0.72756 0.22677 0.0
H1150 H 0.7179 0.78217 0.26795 0.0
H1151 H 0.68024 0.78475 0.27748 0.0
C1152 C 0.60678 0.02047 0.08994 0.0
C1153 C 0.59825 0.01601 0.05956 0.0
C1154 C 0.54807 0.00248 0.07484 0.0
C1155 C 0.55638 0.00405 0.10581 0.0
N1156 N 0.59266 0.02081 0.14267 0.0
N1157 N 0.55639 0.02709 0.02784 0.0
C1158 C 0.58558 0.01485 0.11346 0.0
C1159 C 0.56762 0.01403 0.05299 0.0
N1160 N 0.63416 0.03288 0.09562 0.0
N1161 N 0.52181 0.98965 0.06564 0.0
H1162 H 0.56895 0.04265 0.01574 0.0
H1163 H 0.53355 0.02749 0.02301 0.0
H1164 H 0.50671 0.97894 0.07983 0.0
H1165 H 0.51684 0.98658 0.04297 0.0
H1166 H 0.64319 0.03638 0.1168 0.0
H1167 H 0.6475 0.0414 0.07835 0.0
H1168 H 0.61386 0.02663 0.15023 0.0
H1169 H 0.57703 0.02093 0.15988 0.0
C1170 C 0.27272 0.36599 0.38721 0.0
C1171 C 0.28001 0.36339 0.35646 0.0
C1172 C 0.31242 0.32048 0.36706 0.0
C1173 C 0.30236 0.32076 0.39734 0.0
N1174 N 0.2751 0.34539 0.4373 0.0
N1175 N 0.30694 0.33985 0.31632 0.0
C1176 C 0.28353 0.3443 0.40788 0.0
C1177 C 0.30003 0.34111 0.34618 0.0
N1178 N 0.25575 0.38975 0.3965 0.0
N1179 N 0.33447 0.30089 0.35873 0.0
H1180 H 0.29886 0.35543 0.30089 0.0
H1181 H 0.31946 0.32289 0.30637 0.0
H1182 H 0.34518 0.28696 0.37408 0.0
H1183 H 0.34387 0.2997 0.33743 0.0
H1184 H 0.25243 0.39567 0.41883 0.0
H1185 H 0.24573 0.40452 0.38147 0.0
H1186 H 0.25781 0.35867 0.44553 0.0
H1187 H 0.28562 0.33309 0.45391 0.0
C1188 C 0.9496 0.07695 0.61657 0.0
C1189 C 0.93972 0.04695 0.61124 0.0
C1190 C 0.98692 0.02816 0.63139 0.0
C1191 C 0.99571 0.05792 0.63901 0.0
N1192 N 0.9838 0.11081 0.64063 0.0
N1193 N 0.94519 0.99468 0.62315 0.0
C1194 C 0.97628 0.08217 0.63272 0.0
C1195 C 0.9573 0.02276 0.62152 0.0
N1196 N 0.93488 0.1014 0.60591 0.0
N1197 N 0.00685 0.005 0.63242 0.0
H1198 H 0.92288 0.99029 0.61783 0.0
H1199 H 0.9561 0.97668 0.63324 0.0
H1200 H 0.02921 0.00764 0.63804 0.0
H1201 H 0.00196 0.98363 0.6243 0.0
H1202 H 0.91597 0.10074 0.59233 0.0
H1203 H 0.91597 0.10074 0.59233 0.0
H1204 H 0.97008 0.1292 0.63612 0.0
H1205 H 0.00314 0.11611 0.65243 0.0
C1206 C 0.28699 0.6721 0.89051 0.0
C1207 C 0.30774 0.69351 0.87935 0.0
C1208 C 0.31903 0.66008 0.83694 0.0
C1209 C 0.30158 0.63743 0.85051 0.0
N1210 N 0.27298 0.61969 0.89258 0.0
N1211 N 0.34466 0.70752 0.8422 0.0
C1212 C 0.28666 0.64287 0.87798 0.0
C1213 C 0.32418 0.68733 0.85265 0.0
N1214 N 0.26714 0.67965 0.91255 0.0
N1215 N 0.32951 0.65598 0.80842 0.0
H1216 H 0.34705 0.72885 0.85128 0.0
H1217 H 0.3601 0.70267 0.82536 0.0
H1218 H 0.32588 0.63626 0.79637 0.0
H1219 H 0.33961 0.67285 0.79584 0.0
H1220 H 0.24969 0.66566 0.91929 0.0
H1221 H 0.26582 0.70101 0.92178 0.0
H1222 H 0.26438 0.62141 0.91425 0.0
H1223 H 0.27295 0.5979 0.88412 0.0
C1224 C 0.09386 0.52973 0.97316 0.0
C1225 C 0.09602 0.5397 0.00318 0.0
C1226 C 0.05241 0.57162 0.9963 0.0
C1227 C 0.04765 0.559 0.96742 0.0
N1228 N 0.06214 0.52196 0.93012 0.0
N1229 N 0.07463 0.56531 0.04534 0.0
C1230 C 0.06795 0.53697 0.95617 0.0
C1231 C 0.07432 0.5591 0.01535 0.0
N1232 N 0.11705 0.5142 0.9606 0.0
N1233 N 0.03726 0.59677 0.00488 0.0
H1234 H 0.09039 0.55594 0.05982 0.0
H1235 H 0.05768 0.57721 0.05613 0.0
H1236 H 0.02274 0.60802 0.99057 0.0
H1237 H 0.04192 0.60843 0.02459 0.0
H1238 H 0.1184 0.50933 0.93778 0.0
H1239 H 0.13622 0.5084 0.97257 0.0
H1240 H 0.07442 0.50342 0.92299 0.0
H1241 H 0.04373 0.52624 0.91669 0.0
C1242 C 0.76493 0.83414 0.20954 0.0
C1243 C 0.78485 0.82475 0.1866 0.0
C1244 C 0.81311 0.87166 0.19235 0.0
C1245 C 0.7948 0.8794 0.21705 0.0
N1246 N 0.75943 0.86388 0.25449 0.0
N1247 N 0.83236 0.83155 0.16137 0.0
C1248 C 0.77244 0.85939 0.22719 0.0
C1249 C 0.8102 0.8427 0.17926 0.0
N1250 N 0.73852 0.81933 0.21409 0.0
N1251 N 0.83283 0.89217 0.1811 0.0
H1252 H 0.83141 0.81032 0.15177 0.0
H1253 H 0.85281 0.84233 0.1582 0.0
H1254 H 0.8352 0.9136 0.1902 0.0
H1255 H 0.84513 0.88871 0.16153 0.0
H1256 H 0.72254 0.82638 0.22952 0.0
H1257 H 0.73123 0.80177 0.20045 0.0
H1258 H 0.74463 0.84875 0.26439 0.0
H1259 H 0.76665 0.88085 0.26877 0.0
C1260 C 0.47932 0.55969 0.42325 0.0
C1261 C 0.47095 0.54015 0.39937 0.0
C1262 C 0.43247 0.51884 0.43236 0.0
C1263 C 0.43727 0.54237 0.45344 0.0
N1264 N 0.46078 0.58979 0.46417 0.0
N1265 N 0.43434 0.50503 0.37991 0.0
C1266 C 0.45925 0.56429 0.44732 0.0
C1267 C 0.44596 0.52078 0.40344 0.0
N1268 N 0.50712 0.57243 0.42425 0.0
N1269 N 0.41674 0.49383 0.4403 0.0
H1270 H 0.44233 0.50697 0.35804 0.0
H1271 H 0.41459 0.49265 0.38168 0.0
H1272 H 0.40918 0.49004 0.46208 0.0
H1273 H 0.41468 0.47524 0.42625 0.0
H1274 H 0.51448 0.58506 0.44252 0.0
H1275 H 0.52416 0.56696 0.40926 0.0
H1276 H 0.47522 0.60743 0.45895 0.0
H1277 H 0.4453 0.59467 0.48103 0.0
C1278 C 0.77112 0.2358 0.70832 0.0
C1279 C 0.78514 0.26411 0.71277 0.0
C1280 C 0.80428 0.24687 0.76134 0.0
C1281 C 0.78768 0.22025 0.75828 0.0
N1282 N 0.75162 0.19063 0.7318 0.0
N1283 N 0.81023 0.29832 0.74693 0.0
C1284 C 0.77014 0.21497 0.73248 0.0
C1285 C 0.80035 0.27016 0.74023 0.0
N1286 N 0.75851 0.22889 0.6813 0.0
N1287 N 0.8245 0.24958 0.78412 0.0
H1288 H 0.80897 0.31628 0.73224 0.0
H1289 H 0.81726 0.30443 0.76834 0.0
H1290 H 0.82762 0.23289 0.80013 0.0
H1291 H 0.83997 0.26701 0.78549 0.0
H1292 H 0.75074 0.20756 0.67582 0.0
H1293 H 0.75778 0.24389 0.66348 0.0
H1294 H 0.73591 0.18683 0.71499 0.0
H1295 H 0.75043 0.17537 0.74951 0.0
C1296 C 0.12912 0.64896 0.07498 0.0
C1297 C 0.15933 0.64744 0.06541 0.0
C1298 C 0.1616 0.70202 0.06181 0.0
C1299 C 0.13164 0.70375 0.07208 0.0
N1300 N 0.0878 0.68012 0.09214 0.0
N1301 N 0.19941 0.67094 0.03854 0.0
C1302 C 0.11553 0.67746 0.07947 0.0
C1303 C 0.17433 0.67356 0.05581 0.0
N1304 N 0.1131 0.6231 0.07788 0.0
N1305 N 0.17818 0.72749 0.05848 0.0
H1306 H 0.20578 0.65036 0.02949 0.0
H1307 H 0.21088 0.68914 0.02955 0.0
H1308 H 0.16922 0.74894 0.06044 0.0
H1309 H 0.20137 0.72711 0.05602 0.0
H1310 H 0.09044 0.62215 0.08317 0.0
H1311 H 0.12197 0.60259 0.0713 0.0
H1312 H 0.07544 0.66221 0.10052 0.0
H1313 H 0.07785 0.70093 0.09609 0.0
C1314 C 0.6725 0.86946 0.02383 0.0
C1315 C 0.66028 0.89537 0.00993 0.0
C1316 C 0.61568 0.8669 0.99514 0.0
C1317 C 0.62837 0.84102 0.00798 0.0
N1318 N 0.66994 0.81537 0.02995 0.0
N1319 N 0.61693 0.92079 0.99021 0.0
C1320 C 0.65705 0.84169 0.02123 0.0
C1321 C 0.63092 0.89462 0.99767 0.0
N1322 N 0.69796 0.8716 0.0406 0.0
N1323 N 0.58956 0.86451 0.97939 0.0
H1324 H 0.62688 0.94163 0.99333 0.0
H1325 H 0.59451 0.92225 0.98408 0.0
H1326 H 0.57768 0.84443 0.97765 0.0
H1327 H 0.58068 0.88169 0.96638 0.0
H1328 H 0.70671 0.85399 0.05311 0.0
H1329 H 0.70867 0.89185 0.04484 0.0
H1330 H 0.69244 0.81337 0.03563 0.0
H1331 H 0.65857 0.79493 0.02921 0.0
C1332 C 0.38511 0.36811 0.28371 0.0
C1333 C 0.39861 0.3682 0.25492 0.0
C1334 C 0.37099 0.41365 0.24206 0.0
C1335 C 0.35809 0.41409 0.27131 0.0
N1336 N 0.36242 0.39797 0.32286 0.0
N1337 N 0.41173 0.39622 0.21073 0.0
C1338 C 0.36837 0.39347 0.2932 0.0
C1339 C 0.39384 0.39262 0.23533 0.0
N1340 N 0.38682 0.34319 0.30135 0.0
N1341 N 0.36107 0.43279 0.22036 0.0
H1342 H 0.4292 0.38161 0.2056 0.0
H1343 H 0.41133 0.41532 0.1973 0.0
H1344 H 0.34561 0.44969 0.22443 0.0
H1345 H 0.36698 0.43072 0.19784 0.0
H1346 H 0.37559 0.34117 0.32173 0.0
H1347 H 0.39682 0.32336 0.29413 0.0
H1348 H 0.37101 0.3844 0.3398 0.0
H1349 H 0.35273 0.41758 0.33081 0.0
C1350 C 0.90401 0.17967 0.51847 0.0
C1351 C 0.93381 0.1733 0.50976 0.0
C1352 C 0.92761 0.12121 0.52514 0.0
C1353 C 0.89665 0.12649 0.53118 0.0
N1354 N 0.85429 0.16015 0.52716 0.0
N1355 N 0.97171 0.13727 0.49789 0.0
C1356 C 0.8845 0.15564 0.52633 0.0
C1357 C 0.94491 0.14382 0.5111 0.0
N1358 N 0.89446 0.20873 0.51941 0.0
N1359 N 0.94098 0.09501 0.5337 0.0
H1360 H 0.98465 0.1535 0.48708 0.0
H1361 H 0.97968 0.11547 0.49525 0.0
H1362 H 0.92979 0.07791 0.54494 0.0
H1363 H 0.96403 0.09161 0.53268 0.0
H1364 H 0.87397 0.21521 0.52847 0.0
H1365 H 0.90813 0.2267 0.51337 0.0
H1366 H 0.84419 0.18017 0.52079 0.0
H1367 H 0.83894 0.14315 0.5312 0.0
C1368 C 0.20755 0.65893 0.76006 0.0
C1369 C 0.19661 0.63346 0.77577 0.0
C1370 C 0.14516 0.64927 0.76562 0.0
C1371 C 0.15621 0.67277 0.74743 0.0
N1372 N 0.19747 0.69936 0.72524 0.0
N1373 N 0.15571 0.61415 0.8055 0.0
C1374 C 0.18733 0.67723 0.74383 0.0
C1375 C 0.1655 0.6311 0.78196 0.0
N1376 N 0.23682 0.66729 0.76337 0.0
N1377 N 0.11501 0.64453 0.767 0.0
H1378 H 0.17027 0.60625 0.82188 0.0
H1379 H 0.13337 0.61225 0.81184 0.0
H1380 H 0.09995 0.65744 0.75468 0.0
H1381 H 0.10517 0.6265 0.77804 0.0
H1382 H 0.24612 0.6865 0.75394 0.0
H1383 H 0.2509 0.65713 0.77901 0.0
H1384 H 0.21981 0.70172 0.719 0.0
H1385 H 0.18322 0.71423 0.71432 0.0
C1386 C 0.46527 0.42279 0.51956 0.0
C1387 C 0.48105 0.41871 0.54687 0.0
C1388 C 0.44605 0.45247 0.57121 0.0
C1389 C 0.42632 0.45047 0.54619 0.0
N1390 N 0.41619 0.42755 0.49778 0.0
N1391 N 0.48115 0.42437 0.60078 0.0
C1392 C 0.43559 0.43397 0.52052 0.0
C1393 C 0.46994 0.43198 0.57339 0.0
N1394 N 0.47884 0.41709 0.49273 0.0
N1395 N 0.44343 0.47486 0.59197 0.0
H1396 H 0.49702 0.40752 0.60368 0.0
H1397 H 0.47187 0.43234 0.62075 0.0
H1398 H 0.42912 0.49308 0.58926 0.0
H1399 H 0.45875 0.47758 0.60941 0.0
H1400 H 0.46874 0.42192 0.47222 0.0
H1401 H 0.50139 0.41127 0.49114 0.0
H1402 H 0.42203 0.41373 0.47982 0.0
H1403 H 0.39348 0.43272 0.49854 0.0
C1404 C 0.92765 0.17504 0.82161 0.0
C1405 C 0.89742 0.18115 0.82919 0.0
C1406 C 0.9099 0.23404 0.83807 0.0
C1407 C 0.94023 0.22753 0.83196 0.0
N1408 N 0.97935 0.19199 0.8218 0.0
N1409 N 0.85987 0.21548 0.84783 0.0
C1410 C 0.94952 0.198 0.82492 0.0
C1411 C 0.88857 0.2104 0.83838 0.0
N1412 N 0.9353 0.14741 0.81089 0.0
N1413 N 0.90162 0.26311 0.84309 0.0
H1414 H 0.84294 0.19948 0.8464 0.0
H1415 H 0.85292 0.23519 0.85822 0.0
H1416 H 0.87949 0.27032 0.84406 0.0
H1417 H 0.91716 0.28054 0.84461 0.0
H1418 H 0.95642 0.14182 0.80295 0.0
H1419 H 0.91985 0.13017 0.80831 0.0
H1420 H 0.98819 0.17048 0.82011 0.0
H1421 H 0.99572 0.20863 0.82254 0.0
C1422 C 0.67091 0.88147 0.3249 0.0
C1423 C 0.66391 0.8606 0.30216 0.0
C1424 C 0.68868 0.89324 0.26528 0.0
C1425 C 0.70143 0.91007 0.28917 0.0
N1426 N 0.70483 0.91944 0.34264 0.0
N1427 N 0.66737 0.84566 0.25009 0.0
C1428 C 0.69248 0.90406 0.31925 0.0
C1429 C 0.67267 0.86641 0.27202 0.0
N1430 N 0.656 0.88027 0.35164 0.0
N1431 N 0.69223 0.90236 0.23625 0.0
H1432 H 0.65757 0.82492 0.2541 0.0
H1433 H 0.67489 0.84779 0.2281 0.0
H1434 H 0.70382 0.92163 0.23019 0.0
H1435 H 0.68096 0.89266 0.21827 0.0
H1436 H 0.65806 0.89662 0.36823 0.0
H1437 H 0.63892 0.86483 0.35575 0.0
H1438 H 0.70193 0.91319 0.36498 0.0
H1439 H 0.71939 0.93735 0.33985 0.0
C1440 C 0.03066 0.17004 0.74985 0.0
C1441 C 0.06023 0.16331 0.74033 0.0
C1442 C 0.07468 0.2159 0.74766 0.0
C1443 C 0.04504 0.22253 0.75714 0.0
N1444 N 0.99284 0.20808 0.75721 0.0
N1445 N 0.1076 0.18138 0.72155 0.0
C1446 C 0.02232 0.20038 0.75476 0.0
C1447 C 0.08152 0.1867 0.73675 0.0
N1448 N 0.01098 0.1474 0.75608 0.0
N1449 N 0.09625 0.23763 0.74881 0.0
H1450 H 0.11281 0.16062 0.71212 0.0
H1451 H 0.12266 0.19817 0.71554 0.0
H1452 H 0.09148 0.26005 0.75354 0.0
H1453 H 0.11899 0.23325 0.7461 0.0
H1454 H 0.98983 0.15094 0.76513 0.0
H1455 H 0.01672 0.12482 0.75505 0.0
H1456 H 0.97537 0.19336 0.75242 0.0
H1457 H 0.98563 0.22985 0.76114 0.0
C1458 C 0.17412 0.77376 0.9885 0.0
C1459 C 0.15775 0.80087 0.987 0.0
C1460 C 0.19823 0.82315 0.95717 0.0
C1461 C 0.2167 0.79824 0.96428 0.0
N1462 N 0.22366 0.75315 0.99305 0.0
N1463 N 0.15368 0.85178 0.96928 0.0
C1464 C 0.20496 0.7742 0.98131 0.0
C1465 C 0.16966 0.82574 0.97109 0.0
N1466 N 0.16063 0.74767 0.997 0.0
N1467 N 0.20745 0.84368 0.93639 0.0
H1468 H 0.13173 0.85366 0.97706 0.0
H1469 H 0.1626 0.87181 0.96123 0.0
H1470 H 0.22781 0.842 0.92507 0.0
H1471 H 0.19377 0.86069 0.9282 0.0
H1472 H 0.17125 0.72692 0.99534 0.0
H1473 H 0.13808 0.74623 0.00256 0.0
H1474 H 0.21636 0.73602 0.00704 0.0
H1475 H 0.24686 0.75511 0.99193 0.0
C1476 C 0.51514 0.87335 0.22095 0.0
C1477 C 0.52119 0.90238 0.23245 0.0
C1478 C 0.54988 0.88038 0.2739 0.0
C1479 C 0.54156 0.8513 0.26391 0.0
N1480 N 0.51308 0.81989 0.23044 0.0
N1481 N 0.54154 0.93405 0.27123 0.0
C1482 C 0.52361 0.84769 0.23789 0.0
C1483 C 0.53797 0.90605 0.25921 0.0
N1484 N 0.50116 0.87035 0.19385 0.0
N1485 N 0.56972 0.88347 0.29704 0.0
H1486 H 0.53392 0.95346 0.26072 0.0
H1487 H 0.55023 0.93799 0.29252 0.0
H1488 H 0.57804 0.86533 0.30914 0.0
H1489 H 0.57964 0.90376 0.30295 0.0
H1490 H 0.49931 0.85011 0.18235 0.0
H1491 H 0.49306 0.88858 0.18177 0.0
H1492 H 0.49749 0.81601 0.21358 0.0
H1493 H 0.51796 0.80078 0.24288 0.0
C1494 C 0.46377 0.2609 0.49184 0.0
C1495 C 0.46995 0.28418 0.5126 0.0
C1496 C 0.41611 0.29323 0.51889 0.0
C1497 C 0.41 0.26753 0.50111 0.0
N1498 N 0.4277 0.22551 0.47186 0.0
N1499 N 0.4524 0.32052 0.54864 0.0
C1500 C 0.43377 0.25091 0.48797 0.0
C1501 C 0.44623 0.30005 0.52666 0.0
N1502 N 0.48653 0.24904 0.47508 0.0
N1503 N 0.39312 0.31102 0.52851 0.0
H1504 H 0.47412 0.32596 0.55508 0.0
H1505 H 0.43613 0.33042 0.56212 0.0
H1506 H 0.37071 0.30583 0.52476 0.0
H1507 H 0.39626 0.33196 0.53838 0.0
H1508 H 0.48322 0.23436 0.45722 0.0
H1509 H 0.50868 0.25607 0.47722 0.0
H1510 H 0.44409 0.21046 0.46484 0.0
H1511 H 0.40603 0.21853 0.46668 0.0
C1512 C 0.51335 0.43556 0.26407 0.0
C1513 C 0.53668 0.4422 0.28462 0.0
C1514 C 0.54533 0.38846 0.29267 0.0
C1515 C 0.52196 0.38164 0.27227 0.0
N1516 N 0.48569 0.39803 0.2358 0.0
N1517 N 0.58064 0.42555 0.31069 0.0
C1518 C 0.50646 0.40506 0.25721 0.0
C1519 C 0.55421 0.41881 0.29689 0.0
N1520 N 0.49833 0.45855 0.25061 0.0
N1521 N 0.55922 0.3659 0.30797 0.0
H1522 H 0.58805 0.44751 0.31388 0.0
H1523 H 0.59656 0.40947 0.31629 0.0
H1524 H 0.55463 0.34334 0.30414 0.0
H1525 H 0.57385 0.36963 0.32575 0.0
H1526 H 0.47894 0.45607 0.23799 0.0
H1527 H 0.50495 0.48083 0.25278 0.0
H1528 H 0.47551 0.41353 0.22175 0.0
H1529 H 0.47926 0.3761 0.23095 0.0
C1530 C 0.92321 0.32376 0.56512 0.0
C1531 C 0.92996 0.29301 0.56026 0.0
C1532 C 0.88205 0.27851 0.58288 0.0
C1533 C 0.87488 0.30927 0.58719 0.0
N1534 N 0.89163 0.36063 0.58977 0.0
N1535 N 0.92042 0.24138 0.57361 0.0
C1536 C 0.8964 0.33177 0.58048 0.0
C1537 C 0.911 0.27047 0.57228 0.0
N1538 N 0.94255 0.34532 0.55506 0.0
N1539 N 0.86063 0.25695 0.58675 0.0
H1540 H 0.94099 0.23422 0.56541 0.0
H1541 H 0.90888 0.22472 0.58523 0.0
H1542 H 0.83892 0.26171 0.59362 0.0
H1543 H 0.86352 0.23461 0.58058 0.0
H1544 H 0.93729 0.36803 0.55407 0.0
H1545 H 0.96386 0.34036 0.54681 0.0
H1546 H 0.90762 0.37754 0.58835 0.0
H1547 H 0.87257 0.36718 0.60162 0.0
C1548 C 0.02913 0.68464 0.8611 0.0
C1549 C 0.01605 0.65917 0.84731 0.0
C1550 C 0.03264 0.67718 0.79803 0.0
C1551 C 0.04106 0.7048 0.81133 0.0
N1552 N 0.04499 0.73618 0.85531 0.0
N1553 N 0.00518 0.63061 0.80256 0.0
C1554 C 0.03908 0.7088 0.84288 0.0
C1555 C 0.01783 0.65524 0.81572 0.0
N1556 N 0.03209 0.68579 0.89155 0.0
N1557 N 0.03987 0.67147 0.76875 0.0
H1558 H 0.99635 0.61279 0.81478 0.0
H1559 H 0.0022 0.62839 0.77951 0.0
H1560 H 0.0513 0.68678 0.75525 0.0
H1561 H 0.0373 0.65058 0.75863 0.0
H1562 H 0.04424 0.70233 0.90269 0.0
H1563 H 0.02456 0.66877 0.9056 0.0
H1564 H 0.04048 0.7415 0.87761 0.0
H1565 H 0.052 0.7545 0.84272 0.0
C1566 C 0.63937 0.77206 0.10004 0.0
C1567 C 0.62716 0.74338 0.09398 0.0
C1568 C 0.67707 0.72125 0.09701 0.0
C1569 C 0.68949 0.7506 0.09432 0.0
N1570 N 0.68273 0.80443 0.09628 0.0
N1571 N 0.63211 0.69047 0.10126 0.0
C1572 C 0.6708 0.77622 0.09739 0.0
C1573 C 0.64544 0.71774 0.09696 0.0
N1574 N 0.62123 0.79468 0.10981 0.0
N1575 N 0.69556 0.69698 0.09985 0.0
H1576 H 0.60901 0.68848 0.10435 0.0
H1577 H 0.64346 0.67037 0.10423 0.0
H1578 H 0.7183 0.69895 0.10465 0.0
H1579 H 0.68855 0.6748 0.09858 0.0
H1580 H 0.6291 0.81564 0.11644 0.0
H1581 H 0.59891 0.79099 0.11562 0.0
H1582 H 0.66978 0.8238 0.09522 0.0
H1583 H 0.70554 0.80863 0.09378 0.0
C1584 C 0.77044 0.00054 0.14354 0.0
C1585 C 0.74643 0.00016 0.16441 0.0
C1586 C 0.71154 0.9909 0.12342 0.0
C1587 C 0.73409 0.99841 0.10223 0.0
N1588 N 0.78659 0.00769 0.09227 0.0
N1589 N 0.69306 0.00025 0.17335 0.0
C1590 C 0.76404 0.00262 0.11237 0.0
C1591 C 0.71664 0.99685 0.15414 0.0
N1592 N 0.79924 0.99719 0.15335 0.0
N1593 N 0.68615 0.97626 0.11492 0.0
H1594 H 0.69576 0.00583 0.19585 0.0
H1595 H 0.67089 0.00081 0.16606 0.0
H1596 H 0.6843 0.96576 0.09423 0.0
H1597 H 0.66972 0.96948 0.13011 0.0
H1598 H 0.81742 0.99416 0.13901 0.0
H1599 H 0.80473 0.99428 0.17588 0.0
H1600 H 0.80775 0.01527 0.09848 0.0
H1601 H 0.78404 0.00476 0.06925 0.0
C1602 C 0.32242 0.47699 0.43535 0.0
C1603 C 0.30404 0.495 0.45415 0.0
C1604 C 0.26818 0.50108 0.41288 0.0
C1605 C 0.28734 0.48441 0.39358 0.0
N1606 N 0.3366 0.46301 0.38499 0.0
N1607 N 0.26304 0.5301 0.45836 0.0
C1608 C 0.31581 0.47473 0.40422 0.0
C1609 C 0.27796 0.50873 0.44221 0.0
N1610 N 0.34492 0.4601 0.44744 0.0
N1611 N 0.24037 0.5096 0.40339 0.0
H1612 H 0.26922 0.53663 0.47984 0.0
H1613 H 0.24621 0.54352 0.44942 0.0
H1614 H 0.23308 0.50737 0.38137 0.0
H1615 H 0.22382 0.51755 0.41784 0.0
H1616 H 0.35668 0.44391 0.43537 0.0
H1617 H 0.3499 0.4597 0.47023 0.0
H1618 H 0.35876 0.45918 0.39116 0.0
H1619 H 0.33298 0.45968 0.36224 0.0
C1620 C 0.80175 0.09538 0.67602 0.0
C1621 C 0.81987 0.07191 0.66461 0.0
C1622 C 0.83671 0.05946 0.71547 0.0
C1623 C 0.81878 0.08317 0.72703 0.0
N1624 N 0.78705 0.1261 0.71831 0.0
N1625 N 0.85693 0.03344 0.67205 0.0
C1626 C 0.80234 0.10199 0.70726 0.0
C1627 C 0.83793 0.05438 0.68397 0.0
N1628 N 0.7826 0.11014 0.65719 0.0
N1629 N 0.8526 0.04174 0.73473 0.0
H1630 H 0.85739 0.02803 0.64932 0.0
H1631 H 0.87346 0.02237 0.68412 0.0
H1632 H 0.85511 0.04671 0.7574 0.0
H1633 H 0.86269 0.02161 0.72868 0.0
H1634 H 0.76611 0.12497 0.66437 0.0
H1635 H 0.78161 0.10599 0.6342 0.0
H1636 H 0.77849 0.14309 0.70487 0.0
H1637 H 0.78419 0.13013 0.74109 0.0
C1638 C 0.20484 0.54145 0.911 0.0
C1639 C 0.23432 0.53852 0.89949 0.0
C1640 C 0.25431 0.541 0.95076 0.0
C1641 C 0.22489 0.54552 0.96194 0.0
N1642 N 0.17353 0.55861 0.95171 0.0
N1643 N 0.28761 0.54247 0.90778 0.0
C1644 C 0.20063 0.54866 0.94172 0.0
C1645 C 0.25927 0.54023 0.9192 0.0
N1646 N 0.18074 0.53539 0.89314 0.0
N1647 N 0.27755 0.53738 0.97033 0.0
H1648 H 0.29215 0.54297 0.88484 0.0
H1649 H 0.30638 0.54691 0.92087 0.0
H1650 H 0.27519 0.5401 0.99344 0.0
H1651 H 0.29877 0.53025 0.9638 0.0
H1652 H 0.15886 0.53421 0.90118 0.0
H1653 H 0.18284 0.52814 0.87104 0.0
H1654 H 0.15593 0.56409 0.93742 0.0
H1655 H 0.16973 0.56453 0.97391 0.0
C1656 C 0.94565 0.06986 0.82185 0.0
C1657 C 0.92273 0.05206 0.80905 0.0
C1658 C 0.9589 0.02878 0.77516 0.0
C1659 C 0.98101 0.049 0.78541 0.0
N1660 N 0.99601 0.08994 0.81712 0.0
N1661 N 0.90847 0.01109 0.7766 0.0
C1662 C 0.9747 0.06959 0.80879 0.0
C1663 C 0.9296 0.03045 0.7869 0.0
N1664 N 0.93939 0.08677 0.84663 0.0
N1665 N 0.96574 0.00811 0.75365 0.0
H1666 H 0.88659 0.01039 0.78486 0.0
H1667 H 0.88659 0.01039 0.78486 0.0
H1668 H 0.98726 0.00593 0.74473 0.0
H1669 H 0.94992 0.99307 0.74522 0.0
H1670 H 0.95546 0.09848 0.85881 0.0
H1671 H 0.91811 0.08741 0.85628 0.0
H1672 H 0.99218 0.10749 0.83203 0.0
H1673 H 0.01733 0.09042 0.80757 0.0
C1674 C 0.27927 0.67491 0.00084 0.0
C1675 C 0.30337 0.69239 0.01214 0.0
C1676 C 0.31146 0.65442 0.0513 0.0
C1677 C 0.28909 0.6363 0.03808 0.0
N1678 N 0.25927 0.6251 0.99458 0.0
N1679 N 0.34637 0.69568 0.04453 0.0
C1680 C 0.27554 0.64521 0.01094 0.0
C1681 C 0.32069 0.68124 0.03642 0.0
N1682 N 0.25858 0.68708 0.98203 0.0
N1683 N 0.32331 0.64627 0.07825 0.0
H1684 H 0.35416 0.71466 0.0333 0.0
H1685 H 0.36124 0.68731 0.06041 0.0
H1686 H 0.31718 0.6264 0.089 0.0
H1687 H 0.3376 0.65998 0.0906 0.0
H1688 H 0.23892 0.676 0.97603 0.0
H1689 H 0.25924 0.70925 0.97507 0.0
H1690 H 0.25088 0.62993 0.97331 0.0
H1691 H 0.2573 0.60265 0.00073 0.0
C1692 C 0.63334 0.02456 0.28481 0.0
C1693 C 0.65039 0.03999 0.26296 0.0
C1694 C 0.60534 0.0496 0.23377 0.0
C1695 C 0.58906 0.0306 0.25323 0.0
N1696 N 0.58678 -0.00088 0.2969 0.0
N1697 N 0.6523 0.06848 0.21682 0.0
C1698 C 0.60268 0.0183 0.2791 0.0
C1699 C 0.63636 0.05322 0.23787 0.0
N1700 N 0.64692 0.01572 0.31076 0.0
N1701 N 0.59123 0.06356 0.21056 0.0
H1702 H 0.67543 0.07176 0.21787 0.0
H1703 H 0.67543 0.07176 0.21787 0.0
H1704 H 0.56811 0.06228 0.20748 0.0
H1705 H 0.60259 0.07724 0.19532 0.0
H1706 H 0.6356 0.0062 0.32881 0.0
H1707 H 0.66945 0.02022 0.31506 0.0
H1708 H 0.59611 0.98676 0.31432 0.0
H1709 H 0.56427 0.9943 0.2932 0.0
C1710 C 0.32019 0.38637 0.57162 0.0
C1711 C 0.30104 0.40726 0.55742 0.0
C1712 C 0.27446 0.36668 0.53185 0.0
C1713 C 0.29533 0.34613 0.54385 0.0
N1714 N 0.3374 0.33471 0.57511 0.0
N1715 N 0.26003 0.41883 0.52488 0.0
C1716 C 0.31777 0.35546 0.56417 0.0
C1717 C 0.27787 0.39776 0.53803 0.0
N1718 N 0.34095 0.39648 0.59172 0.0
N1719 N 0.25167 0.35611 0.51437 0.0
H1720 H 0.26173 0.4416 0.53003 0.0
H1721 H 0.24415 0.41421 0.5085 0.0
H1722 H 0.24911 0.33334 0.50956 0.0
H1723 H 0.2345 0.36929 0.50583 0.0
H1724 H 0.35474 0.38269 0.6044 0.0
H1725 H 0.34357 0.41916 0.59679 0.0
H1726 H 0.356 0.33978 0.58814 0.0
H1727 H 0.33544 0.31189 0.57035 0.0
C1728 C 0.41673 0.56391 0.25259 0.0
C1729 C 0.43501 0.54153 0.26573 0.0
C1730 C 0.39086 0.51232 0.27915 0.0
C1731 C 0.3724 0.53428 0.26596 0.0
N1732 N 0.36674 0.57873 0.2364 0.0
N1733 N 0.439 0.49171 0.28747 0.0
C1734 C 0.38509 0.55945 0.25139 0.0
C1735 C 0.42207 0.51488 0.27726 0.0
N1736 N 0.42962 0.58986 0.24274 0.0
N1737 N 0.37787 0.48939 0.29456 0.0
H1738 H 0.46231 0.49116 0.28662 0.0
H1739 H 0.46231 0.49116 0.28662 0.0
H1740 H 0.38978 0.4725 0.30553 0.0
H1741 H 0.38978 0.4725 0.30553 0.0
H1742 H 0.41758 0.6084 0.23539 0.0
H1743 H 0.45273 0.59325 0.24325 0.0
H1744 H 0.37439 0.5965 0.22337 0.0
H1745 H 0.3436 0.57552 0.23552 0.0
C1746 C 0.74346 0.1754 0.5889 0.0
C1747 C 0.7587 0.16245 0.56432 0.0
C1748 C 0.77302 0.21194 0.54585 0.0
C1749 C 0.75818 0.22492 0.57072 0.0
N1750 N 0.72285 0.22061 0.61109 0.0
N1751 N 0.78089 0.16733 0.51559 0.0
C1752 C 0.74115 0.20705 0.59064 0.0
C1753 C 0.77095 0.18054 0.54137 0.0
N1754 N 0.73277 0.15744 0.61127 0.0
N1755 N 0.79064 0.22934 0.52785 0.0
H1756 H 0.77958 0.1442 0.5122 0.0
H1757 H 0.78797 0.17933 0.49685 0.0
H1758 H 0.79293 0.2524 0.53095 0.0
H1759 H 0.80449 0.22073 0.51114 0.0
H1760 H 0.72446 0.16562 0.63152 0.0
H1761 H 0.73382 0.1341 0.61014 0.0
H1762 H 0.70814 0.20896 0.62498 0.0
H1763 H 0.72048 0.24386 0.61208 0.0
C1764 C 0.07767 0.50589 0.83749 0.0
C1765 C 0.0638 0.53022 0.82268 0.0
C1766 C 0.10678 0.53474 0.78905 0.0
C1767 C 0.12239 0.51383 0.80698 0.0
N1768 N 0.12425 0.48082 0.84949 0.0
N1769 N 0.06527 0.56955 0.78576 0.0
C1770 C 0.10813 0.49936 0.83132 0.0
C1771 C 0.07817 0.54489 0.79845 0.0
N1772 N 0.06144 0.48906 0.85725 0.0
N1773 N 0.11981 0.54505 0.76331 0.0
H1774 H 0.04491 0.57832 0.79305 0.0
H1775 H 0.07552 0.5826 0.76937 0.0
H1776 H 0.14078 0.5376 0.75615 0.0
H1777 H 0.10899 0.55872 0.74785 0.0
H1778 H 0.06943 0.46947 0.86707 0.0
H1779 H 0.03889 0.49335 0.8617 0.0
H1780 H 0.11607 0.47222 0.86961 0.0
H1781 H 0.14663 0.47561 0.84533 0.0
C1782 C 0.79902 0.90215 0.05885 0.0
C1783 C 0.79688 0.90669 0.02745 0.0
C1784 C 0.82018 0.85785 0.01911 0.0
C1785 C 0.8151 0.85082 0.04971 0.0
N1786 N 0.8201 0.87311 0.0987 0.0
N1787 N 0.80791 0.89043 0.9773 0.0
C1788 C 0.81079 0.87502 0.06975 0.0
C1789 C 0.8087 0.88515 0.00741 0.0
N1790 N 0.78944 0.92297 0.07901 0.0
N1791 N 0.83817 0.83974 0.00232 0.0
H1792 H 0.80029 0.91071 0.96847 0.0
H1793 H 0.81333 0.87427 0.96131 0.0
H1794 H 0.84949 0.82169 0.01198 0.0
H1795 H 0.84461 0.84465 0.98041 0.0
H1796 H 0.77967 0.94336 0.07309 0.0
H1797 H 0.77967 0.94336 0.07309 0.0
H1798 H 0.81678 0.8904 0.11415 0.0
H1799 H 0.83431 0.85589 0.10555 0.0
C1800 C 0.07056 0.85208 0.87061 0.0
C1801 C 0.04911 0.83335 0.85674 0.0
C1802 C 0.02333 0.82677 0.90471 0.0
C1803 C 0.04704 0.84197 0.91914 0.0
N1804 N 0.09425 0.86777 0.91696 0.0
N1805 N 0.00656 0.80035 0.8603 0.0
C1806 C 0.07079 0.85468 0.90236 0.0
C1807 C 0.02556 0.82032 0.87361 0.0
N1808 N 0.09063 0.86726 0.85316 0.0
N1809 N -0.0012 0.81852 0.92104 0.0
H1810 H 0.00786 0.79483 0.83762 0.0
H1811 H 0.99103 0.78752 0.87209 0.0
H1812 H 0.99698 0.82306 0.94395 0.0
H1813 H 0.97945 0.8096 0.91159 0.0
H1814 H 0.1055 0.88321 0.86144 0.0
H1815 H 0.09065 0.86553 0.8298 0.0
H1816 H 0.11395 0.87445 0.9064 0.0
H1817 H 0.09467 0.8704 0.94018 0.0
C1818 C 0.48916 0.73865 0.19566 0.0
C1819 C 0.5128 0.72304 0.20988 0.0
C1820 C 0.52895 0.70196 0.16196 0.0
C1821 C 0.50596 0.71831 0.14751 0.0
N1822 N 0.46106 0.74748 0.14974 0.0
N1823 N 0.54982 0.68423 0.20895 0.0
C1824 C 0.4848 0.7349 0.16427 0.0
C1825 C 0.53079 0.70264 0.19368 0.0
N1826 N 0.47217 0.75824 0.21192 0.0
N1827 N 0.55016 0.68755 0.14521 0.0
H1828 H 0.55127 0.68456 0.23232 0.0
H1829 H 0.562 0.66705 0.1989 0.0
H1830 H 0.5494 0.68656 0.12187 0.0
H1831 H 0.56951 0.67823 0.15423 0.0
H1832 H 0.45641 0.77262 0.20261 0.0
H1833 H 0.47482 0.76107 0.23497 0.0
H1834 H 0.44346 0.75834 0.16052 0.0
H1835 H 0.45803 0.74514 0.12663 0.0
C1836 C 0.54824 0.2871 0.40523 0.0
C1837 C 0.57358 0.27242 0.41683 0.0
C1838 C 0.58525 0.25353 0.36646 0.0
C1839 C 0.56196 0.2716 0.35448 0.0
N1840 N 0.52703 0.31229 0.36248 0.0
N1841 N 0.61822 0.2437 0.40882 0.0
C1842 C 0.54486 0.29022 0.37388 0.0
C1843 C 0.59273 0.2561 0.39753 0.0
N1844 N 0.52739 0.29738 0.42502 0.0
N1845 N 0.5994 0.23328 0.34839 0.0
H1846 H 0.62373 0.24525 0.43151 0.0
H1847 H 0.63467 0.23382 0.39552 0.0
H1848 H 0.59388 0.23059 0.32583 0.0
H1849 H 0.61476 0.21762 0.35627 0.0
H1850 H 0.5068 0.3065 0.41881 0.0
H1851 H 0.5068 0.3065 0.41881 0.0
H1852 H 0.51652 0.32834 0.37581 0.0
H1853 H 0.52574 0.31701 0.33967 0.0
C1854 C 0.03542 0.3558 0.65814 0.0
C1855 C 0.05597 0.33828 0.6746 0.0
C1856 C 0.0755 0.31676 0.62813 0.0
C1857 C 0.05205 0.33086 0.61224 0.0
N1858 N 0.0082 0.36206 0.61156 0.0
N1859 N 0.09477 0.30113 0.67654 0.0
C1860 C 0.03184 0.35036 0.62699 0.0
C1861 C 0.07617 0.31878 0.6599 0.0
N1862 N 0.0193 0.37742 0.6726 0.0
N1863 N 0.09689 0.30138 0.61257 0.0
H1864 H 0.09581 0.30258 0.69988 0.0
H1865 H 0.10783 0.28402 0.66752 0.0
H1866 H 0.09654 0.29971 0.58921 0.0
H1867 H 0.11601 0.29241 0.62238 0.0
H1868 H 0.00565 0.3928 0.66161 0.0
H1869 H 0.02149 0.3814 0.69557 0.0
H1870 H 0.99071 0.37371 0.62169 0.0
H1871 H 0.0051 0.35841 0.58867 0.0
loop_
_geom_bond_atom_site_label_1
_geom_bond_atom_site_label_2
_geom_bond_distance
_geom_bond_site_symmetry_2
_ccdc_geom_bond_type
C0 C1 1.351 . S
C0 N3 1.368 . S
C0 H5 0.931 1_655 S
C1 C0 1.351 . S
C1 N2 1.373 . S
C1 H29 0.930 . S
N2 C1 1.373 . S
N2 C4 1.340 . S
N3 C0 1.368 . S
N3 C4 1.321 . S
N3 Co6 2.135 1_655 S
C4 N2 1.340 . S
C4 N3 1.321 . S
C4 H28 0.930 . S
H5 C0 0.931 1_455 S
Co6 N3 2.135 1_455 S
Co6 N9 2.121 . S
Co6 O14 2.055 . S
Co6 O17 2.039 1_455 S
Co6 N20 2.140 . S
C7 O8 1.227 . S
C7 O17 1.265 . S
O8 C7 1.227 . S
N9 Co6 2.121 . S
N9 C11 1.375 . S
N9 C12 1.313 . S
C10 C11 1.338 . S
C10 N13 1.377 . S
C10 H30 0.930 . S
C11 N9 1.375 . S
C11 C10 1.338 . S
C11 H15 0.931 . S
C12 N9 1.313 . S
C12 N13 1.344 . S
C12 H16 0.930 . S
N13 C10 1.377 . S
N13 C12 1.344 . S
O14 Co6 2.055 . S
O14 C18 1.253 . S
H15 C11 0.931 . S
H16 C12 0.930 . S
O17 Co6 2.039 1_655 S
O17 C7 1.265 . S
C18 O14 1.253 . S
C18 O19 1.227 . S
O19 C18 1.227 . S
N20 Co6 2.140 . S
N20 C23 1.346 1_545 S
N20 C24 1.345 . S
C21 C22 1.387 . S
C21 C25 1.391 . S
C22 C21 1.387 . S
C22 C23 1.369 . S
C22 H31 0.929 . S
C23 N20 1.346 1_565 S
C23 C22 1.369 . S
C23 H26 0.928 . S
C24 N20 1.345 . S
C24 C25 1.371 1_545 S
C24 H27 0.931 . S
C25 C21 1.391 . S
C25 C24 1.371 1_565 S
C25 H32 0.930 . S
H26 C23 0.928 . S
H27 C24 0.931 . S
H28 C4 0.930 . S
H29 C1 0.930 . S
H30 C10 0.930 . S
H31 C22 0.929 . S
H32 C25 0.930 . S
C33 C34 1.351 . S
C33 N36 1.368 . S
C33 H38 0.931 . S
C34 C33 1.351 . S
C34 N35 1.373 . S
C34 H62 0.930 . S
N35 C34 1.373 . S
N35 C37 1.340 . S
N36 C33 1.368 . S
N36 C37 1.321 . S
N36 Co39 2.135 1_554 S
C37 N35 1.340 . S
C37 N36 1.321 . S
C37 H61 0.930 1_554 S
H38 C33 0.931 . S
Co39 N36 2.135 1_556 S
Co39 N42 2.121 . S
Co39 O47 2.055 . S
Co39 O50 2.039 . S
Co39 N53 2.140 . S
C40 O41 1.227 . S
C40 O50 1.265 . S
O41 C40 1.227 . S
N42 Co39 2.121 . S
N42 C44 1.375 . S
N42 C45 1.313 . S
C43 C44 1.338 . S
C43 N46 1.377 . S
C43 H63 0.930 . S
C44 N42 1.375 . S
C44 C43 1.338 . S
C44 H48 0.931 . S
C45 N42 1.313 . S
C45 N46 1.344 . S
C45 H49 0.930 . S
N46 C43 1.377 . S
N46 C45 1.344 . S
O47 Co39 2.055 . S
O47 C51 1.253 1_556 S
H48 C44 0.931 . S
H49 C45 0.930 . S
O50 Co39 2.039 . S
O50 C40 1.265 . S
C51 O47 1.253 1_554 S
C51 O52 1.227 . S
O52 C51 1.227 . S
N53 Co39 2.140 . S
N53 C56 1.346 . S
N53 C57 1.345 . S
C54 C55 1.390 . S
C54 C58 1.391 1_554 S
C55 C54 1.390 . S
C55 C56 1.360 1_554 S
C55 H64 0.936 . S
C56 N53 1.346 . S
C56 C55 1.360 1_556 S
C56 H59 0.928 . S
C57 N53 1.345 . S
C57 C58 1.371 . S
C57 H60 0.931 . S
C58 C54 1.391 1_556 S
C58 C57 1.371 . S
C58 H65 0.930 . S
H59 C56 0.928 . S
H60 C57 0.931 . S
H61 C37 0.930 1_556 S
H62 C34 0.930 . S
H63 C43 0.930 . S
H64 C55 0.936 . S
H65 C58 0.930 . S
C66 C67 1.351 . S
C66 N69 1.368 . S
C66 H71 0.931 . S
C67 C66 1.351 . S
C67 N68 1.373 . S
C67 H95 0.930 . S
N68 C67 1.373 . S
N68 C70 1.340 . S
N69 C66 1.368 . S
N69 C70 1.321 . S
N69 Co72 2.135 . S
C70 N68 1.340 . S
C70 N69 1.321 . S
C70 H94 0.930 . S
H71 C66 0.931 . S
Co72 N69 2.135 . S
Co72 N75 2.121 . S
Co72 O80 2.055 1_545 S
Co72 O83 2.039 . S
Co72 N86 2.140 . S
C73 O74 1.227 . S
C73 O83 1.265 . S
O74 C73 1.227 . S
N75 Co72 2.121 . S
N75 C77 1.375 . S
N75 C78 1.313 1_545 S
C76 C77 1.338 . S
C76 N79 1.377 1_545 S
C76 H96 0.930 . S
C77 N75 1.375 . S
C77 C76 1.338 . S
C77 H81 0.931 . S
C78 N75 1.313 1_565 S
C78 N79 1.344 . S
C78 H82 0.930 . S
N79 C76 1.377 1_565 S
N79 C78 1.344 . S
O80 Co72 2.055 1_565 S
O80 C84 1.253 . S
H81 C77 0.931 . S
H82 C78 0.930 . S
O83 Co72 2.039 . S
O83 C73 1.265 . S
C84 O80 1.253 . S
C84 O85 1.227 . S
O85 C84 1.227 . S
N86 Co72 2.140 . S
N86 C89 1.346 . S
N86 C90 1.345 . S
C87 C88 1.387 . S
C87 C91 1.391 . S
C88 C87 1.387 . S
C88 C89 1.369 . S
C88 H97 0.929 . S
C89 N86 1.346 . S
C89 C88 1.369 . S
C89 H92 0.928 . S
C90 N86 1.345 . S
C90 C91 1.371 . S
C90 H93 0.931 . S
C91 C87 1.391 . S
C91 C90 1.371 . S
C91 H98 0.930 . S
H92 C89 0.928 . S
H93 C90 0.931 . S
H94 C70 0.930 . S
H95 C67 0.930 . S
H96 C76 0.930 . S
H97 C88 0.929 . S
H98 C91 0.930 . S
C99 C100 1.351 . S
C99 N102 1.368 . S
C99 H104 0.931 . S
C100 C99 1.351 . S
C100 N101 1.373 . S
C100 H128 0.930 . S
N101 C100 1.373 . S
N101 C103 1.340 . S
N102 C99 1.368 . S
N102 C103 1.321 . S
N102 Co105 2.135 . S
C103 N101 1.340 . S
C103 N102 1.321 . S
C103 H127 0.930 . S
H104 C99 0.931 . S
Co105 N102 2.135 . S
Co105 N108 2.121 . S
Co105 O113 2.055 . S
Co105 O116 2.039 . S
Co105 N119 2.140 . S
C106 O107 1.227 . S
C106 O116 1.265 . S
O107 C106 1.227 . S
N108 Co105 2.121 . S
N108 C110 1.375 . S
N108 C111 1.313 . S
C109 C110 1.338 . S
C109 N112 1.377 . S
C109 H129 0.930 . S
C110 N108 1.375 . S
C110 C109 1.338 . S
C110 H114 0.931 . S
C111 N108 1.313 . S
C111 N112 1.344 . S
C111 H115 0.930 . S
N112 C109 1.377 . S
N112 C111 1.344 . S
O113 Co105 2.055 . S
O113 C117 1.253 . S
H114 C110 0.931 . S
H115 C111 0.930 . S
O116 Co105 2.039 . S
O116 C106 1.265 . S
C117 O113 1.253 . S
C117 O118 1.227 . S
O118 C117 1.227 . S
N119 Co105 2.140 . S
N119 C122 1.346 . S
N119 C123 1.345 . S
C120 C121 1.387 . S
C120 C124 1.391 . S
C121 C120 1.387 . S
C121 C122 1.369 . S
C121 H130 0.929 . S
C122 N119 1.346 . S
C122 C121 1.369 . S
C122 H125 0.928 . S
C123 N119 1.345 . S
C123 C124 1.371 . S
C123 H126 0.931 . S
C124 C120 1.391 . S
C124 C123 1.371 . S
C124 H131 0.930 . S
H125 C122 0.928 . S
H126 C123 0.931 . S
H127 C103 0.930 . S
H128 C100 0.930 . S
H129 C109 0.930 . S
H130 C121 0.929 . S
H131 C124 0.930 . S
C132 C133 1.351 . S
C132 N135 1.368 . S
C132 H137 0.931 . S
C133 C132 1.351 . S
C133 N134 1.373 . S
C133 H161 0.930 . S
N134 C133 1.373 . S
N134 C136 1.340 . S
N135 C132 1.368 . S
N135 C136 1.321 . S
N135 Co138 2.135 . S
C136 N134 1.340 . S
C136 N135 1.321 . S
C136 H160 0.930 . S
H137 C132 0.931 . S
Co138 N135 2.135 . S
Co138 N141 2.121 . S
Co138 O146 2.055 . S
Co138 O149 2.039 . S
Co138 N152 2.140 . S
C139 O140 1.227 . S
C139 O149 1.265 . S
O140 C139 1.227 . S
N141 Co138 2.121 . S
N141 C143 1.375 . S
N141 C144 1.313 . S
C142 C143 1.338 . S
C142 N145 1.377 . S
C142 H162 0.930 . S
C143 N141 1.375 . S
C143 C142 1.338 . S
C143 H147 0.931 . S
C144 N141 1.313 . S
C144 N145 1.344 . S
C144 H148 0.930 . S
N145 C142 1.377 . S
N145 C144 1.344 . S
O146 Co138 2.055 . S
O146 C150 1.253 . S
H147 C143 0.931 . S
H148 C144 0.930 . S
O149 Co138 2.039 . S
O149 C139 1.265 . S
C150 O146 1.253 . S
C150 O151 1.227 . S
O151 C150 1.227 . S
N152 Co138 2.140 . S
N152 C155 1.346 . S
N152 C156 1.345 . S
C153 C154 1.387 . S
C153 C157 1.391 . S
C154 C153 1.387 . S
C154 C155 1.369 . S
C154 H163 0.929 . S
C155 N152 1.346 . S
C155 C154 1.369 . S
C155 H158 0.928 . S
C156 N152 1.345 . S
C156 C157 1.371 . S
C156 H159 0.931 . S
C157 C153 1.391 . S
C157 C156 1.371 . S
C157 H164 0.930 . S
H158 C155 0.928 . S
H159 C156 0.931 . S
H160 C136 0.930 . S
H161 C133 0.930 . S
H162 C142 0.930 . S
H163 C154 0.929 . S
H164 C157 0.930 . S
C165 C166 1.351 . S
C165 N168 1.368 . S
C165 H170 0.931 . S
C166 C165 1.351 . S
C166 N167 1.373 . S
C166 H194 0.930 . S
N167 C166 1.373 . S
N167 C169 1.340 . S
N168 C165 1.368 . S
N168 C169 1.321 . S
N168 Co171 2.135 . S
C169 N167 1.340 . S
C169 N168 1.321 . S
C169 H193 0.930 . S
H170 C165 0.931 . S
Co171 N168 2.135 . S
Co171 N174 2.121 . S
Co171 O179 2.055 . S
Co171 O182 2.039 . S
Co171 N185 2.140 . S
C172 O173 1.227 . S
C172 O182 1.265 . S
O173 C172 1.227 . S
N174 Co171 2.121 . S
N174 C176 1.375 . S
N174 C177 1.313 . S
C175 C176 1.338 . S
C175 N178 1.377 . S
C175 H195 0.930 . S
C176 N174 1.375 . S
C176 C175 1.338 . S
C176 H180 0.931 . S
C177 N174 1.313 . S
C177 N178 1.344 . S
C177 H181 0.930 . S
N178 C175 1.377 . S
N178 C177 1.344 . S
O179 Co171 2.055 . S
O179 C183 1.253 . S
H180 C176 0.931 . S
H181 C177 0.930 . S
O182 Co171 2.039 . S
O182 C172 1.265 . S
C183 O179 1.253 . S
C183 O184 1.227 . S
O184 C183 1.227 . S
N185 Co171 2.140 . S
N185 C188 1.346 . S
N185 C189 1.345 . S
C186 C187 1.387 . S
C186 C190 1.391 . S
C187 C186 1.387 . S
C187 C188 1.369 . S
C187 H196 0.929 . S
C188 N185 1.346 . S
C188 C187 1.369 . S
C188 H191 0.928 . S
C189 N185 1.345 . S
C189 C190 1.371 . S
C189 H192 0.931 . S
C190 C186 1.391 . S
C190 C189 1.371 . S
C190 H197 0.930 . S
H191 C188 0.928 . S
H192 C189 0.931 . S
H193 C169 0.930 . S
H194 C166 0.930 . S
H195 C175 0.930 . S
H196 C187 0.929 . S
H197 C190 0.930 . S
C198 C199 1.351 . S
C198 N201 1.368 . S
C198 H203 0.931 . S
C199 C198 1.351 . S
C199 N200 1.373 . S
C199 H227 0.930 . S
N200 C199 1.373 . S
N200 C202 1.340 . S
N201 C198 1.368 . S
N201 C202 1.321 . S
N201 Co204 2.135 . S
C202 N200 1.340 . S
C202 N201 1.321 . S
C202 H226 0.930 . S
H203 C198 0.931 . S
Co204 N201 2.135 . S
Co204 N207 2.121 . S
Co204 O212 2.055 . S
Co204 O215 2.039 . S
Co204 N218 2.140 . S
C205 O206 1.227 . S
C205 O215 1.265 . S
O206 C205 1.227 . S
N207 Co204 2.121 . S
N207 C209 1.375 . S
N207 C210 1.313 1_455 S
C208 C209 1.338 1_655 S
C208 N211 1.377 . S
C208 H228 0.930 . S
C209 N207 1.375 . S
C209 C208 1.338 1_455 S
C209 H213 0.931 . S
C210 N207 1.313 1_655 S
C210 N211 1.344 . S
C210 H214 0.930 . S
N211 C208 1.377 . S
N211 C210 1.344 . S
O212 Co204 2.055 . S
O212 C216 1.253 . S
H213 C209 0.931 . S
H214 C210 0.930 . S
O215 Co204 2.039 . S
O215 C205 1.265 . S
C216 O212 1.253 . S
C216 O217 1.227 . S
O217 C216 1.227 . S
N218 Co204 2.140 . S
N218 C221 1.346 . S
N218 C222 1.345 1_455 S
C219 C220 1.387 1_655 S
C219 C223 1.391 . S
C220 C219 1.387 1_455 S
C220 C221 1.369 . S
C220 H229 0.929 . S
C221 N218 1.346 . S
C221 C220 1.369 . S
C221 H224 0.928 . S
C222 N218 1.345 1_655 S
C222 C223 1.371 . S
C222 H225 0.931 . S
C223 C219 1.391 . S
C223 C222 1.371 . S
C223 H230 0.930 . S
H224 C221 0.928 . S
H225 C222 0.931 . S
H226 C202 0.930 . S
H227 C199 0.930 . S
H228 C208 0.930 . S
H229 C220 0.929 . S
H230 C223 0.930 . S
C231 C232 1.351 . S
C231 N234 1.368 . S
C231 H236 0.931 . S
C232 C231 1.351 . S
C232 N233 1.373 . S
C232 H260 0.930 1_554 S
N233 C232 1.373 . S
N233 C235 1.340 . S
N234 C231 1.368 . S
N234 C235 1.321 . S
N234 Co237 2.135 . S
C235 N233 1.340 . S
C235 N234 1.321 . S
C235 H259 0.930 . S
H236 C231 0.931 . S
Co237 N234 2.135 . S
Co237 N240 2.121 . S
Co237 O245 2.055 . S
Co237 O248 2.039 . S
Co237 N251 2.140 . S
C238 O239 1.227 . S
C238 O248 1.265 . S
O239 C238 1.227 . S
N240 Co237 2.121 . S
N240 C242 1.375 . S
N240 C243 1.313 . S
C241 C242 1.338 . S
C241 N244 1.377 . S
C241 H261 0.930 . S
C242 N240 1.375 . S
C242 C241 1.338 . S
C242 H246 0.931 . S
C243 N240 1.313 . S
C243 N244 1.344 . S
C243 H247 0.930 . S
N244 C241 1.377 . S
N244 C243 1.344 . S
O245 Co237 2.055 . S
O245 C249 1.253 . S
H246 C242 0.931 . S
H247 C243 0.930 . S
O248 Co237 2.039 . S
O248 C238 1.265 . S
C249 O245 1.253 . S
C249 O250 1.227 . S
O250 C249 1.227 . S
N251 Co237 2.140 . S
N251 C254 1.346 . S
N251 C255 1.345 . S
C252 C253 1.387 . S
C252 C256 1.391 . S
C253 C252 1.387 . S
C253 C254 1.369 . S
C253 H262 0.929 . S
C254 N251 1.346 . S
C254 C253 1.369 . S
C254 H257 0.928 . S
C255 N251 1.345 . S
C255 C256 1.371 . S
C255 H258 0.931 . S
C256 C252 1.391 . S
C256 C255 1.371 . S
C256 H263 0.930 . S
H257 C254 0.928 . S
H258 C255 0.931 . S
H259 C235 0.930 . S
H260 C232 0.930 1_556 S
H261 C241 0.930 . S
H262 C253 0.929 . S
H263 C256 0.930 . S
C264 C265 1.351 . S
C264 N267 1.368 . S
C264 H269 0.931 1_565 S
C265 C264 1.351 . S
C265 N266 1.373 . S
C265 H293 0.930 . S
N266 C265 1.373 . S
N266 C268 1.340 . S
N267 C264 1.368 . S
N267 C268 1.321 . S
N267 Co270 2.135 1_565 S
C268 N266 1.340 . S
C268 N267 1.321 . S
C268 H292 0.930 . S
H269 C264 0.931 1_545 S
Co270 N267 2.135 1_545 S
Co270 N273 2.121 . S
Co270 O278 2.055 . S
Co270 O281 2.039 1_545 S
Co270 N284 2.140 . S
C271 O272 1.227 . S
C271 O281 1.265 . S
O272 C271 1.227 . S
N273 Co270 2.121 . S
N273 C275 1.375 . S
N273 C276 1.313 . S
C274 C275 1.338 . S
C274 N277 1.377 . S
C274 H294 0.930 . S
C275 N273 1.375 . S
C275 C274 1.338 . S
C275 H279 0.931 . S
C276 N273 1.313 . S
C276 N277 1.344 . S
C276 H280 0.930 . S
N277 C274 1.377 . S
N277 C276 1.344 . S
O278 Co270 2.055 . S
O278 C282 1.253 . S
H279 C275 0.931 . S
H280 C276 0.930 . S
O281 Co270 2.039 1_565 S
O281 C271 1.265 . S
C282 O278 1.253 . S
C282 O283 1.227 . S
O283 C282 1.227 . S
N284 Co270 2.140 . S
N284 C287 1.346 1_554 S
N284 C288 1.345 . S
C285 C286 1.387 . S
C285 C289 1.391 . S
C286 C285 1.387 . S
C286 C287 1.369 . S
C286 H295 0.929 . S
C287 N284 1.346 1_556 S
C287 C286 1.369 . S
C287 H290 0.928 . S
C288 N284 1.345 . S
C288 C289 1.371 1_554 S
C288 H291 0.931 . S
C289 C285 1.391 . S
C289 C288 1.371 1_556 S
C289 H296 0.930 . S
H290 C287 0.928 . S
H291 C288 0.931 . S
H292 C268 0.930 . S
H293 C265 0.930 . S
H294 C274 0.930 . S
H295 C286 0.929 . S
H296 C289 0.930 . S
C297 C298 1.351 . S
C297 N300 1.368 . S
C297 H302 0.931 . S
C298 C297 1.351 . S
C298 N299 1.373 . S
C298 H326 0.930 . S
N299 C298 1.373 . S
N299 C301 1.340 . S
N300 C297 1.368 . S
N300 C301 1.321 . S
N300 Co303 2.135 . S
C301 N299 1.340 . S
C301 N300 1.321 . S
C301 H325 0.930 . S
H302 C297 0.931 . S
Co303 N300 2.135 . S
Co303 N306 2.121 . S
Co303 O311 2.055 . S
Co303 O314 2.039 . S
Co303 N317 2.140 . S
C304 O305 1.227 . S
C304 O314 1.265 . S
O305 C304 1.227 . S
N306 Co303 2.121 . S
N306 C308 1.375 . S
N306 C309 1.313 . S
C307 C308 1.338 . S
C307 N310 1.377 . S
C307 H327 0.930 . S
C308 N306 1.375 . S
C308 C307 1.338 . S
C308 H312 0.931 . S
C309 N306 1.313 . S
C309 N310 1.344 . S
C309 H313 0.930 . S
N310 C307 1.377 . S
N310 C309 1.344 . S
O311 Co303 2.055 . S
O311 C315 1.253 . S
H312 C308 0.931 . S
H313 C309 0.930 . S
O314 Co303 2.039 . S
O314 C304 1.265 . S
C315 O311 1.253 . S
C315 O316 1.227 . S
O316 C315 1.227 . S
N317 Co303 2.140 . S
N317 C320 1.346 . S
N317 C321 1.345 . S
C318 C319 1.387 . S
C318 C322 1.391 . S
C319 C318 1.387 . S
C319 C320 1.369 . S
C319 H328 0.929 . S
C320 N317 1.346 . S
C320 C319 1.369 . S
C320 H323 0.928 . S
C321 N317 1.345 . S
C321 C322 1.371 . S
C321 H324 0.931 . S
C322 C318 1.391 . S
C322 C321 1.371 . S
C322 H329 0.930 . S
H323 C320 0.928 . S
H324 C321 0.931 . S
H325 C301 0.930 . S
H326 C298 0.930 . S
H327 C307 0.930 . S
H328 C319 0.929 . S
H329 C322 0.930 . S
C330 C331 1.351 . S
C330 N333 1.368 . S
C330 H335 0.931 . S
C331 C330 1.351 . S
C331 N332 1.373 . S
C331 H359 0.930 . S
N332 C331 1.373 . S
N332 C334 1.340 . S
N333 C330 1.368 . S
N333 C334 1.321 . S
N333 Co336 2.135 . S
C334 N332 1.340 . S
C334 N333 1.321 . S
C334 H358 0.930 . S
H335 C330 0.931 . S
Co336 N333 2.135 . S
Co336 N339 2.121 . S
Co336 O344 2.055 . S
Co336 O347 2.039 . S
Co336 N350 2.140 . S
C337 O338 1.227 . S
C337 O347 1.265 . S
O338 C337 1.227 . S
N339 Co336 2.121 . S
N339 C341 1.375 . S
N339 C342 1.313 1_545 S
C340 C341 1.338 1_565 S
C340 N343 1.377 . S
C340 H360 0.930 . S
C341 N339 1.375 . S
C341 C340 1.338 1_545 S
C341 H345 0.931 . S
C342 N339 1.313 1_565 S
C342 N343 1.344 . S
C342 H346 0.930 . S
N343 C340 1.377 . S
N343 C342 1.344 . S
O344 Co336 2.055 . S
O344 C348 1.253 . S
H345 C341 0.931 . S
H346 C342 0.930 . S
O347 Co336 2.039 . S
O347 C337 1.265 . S
C348 O344 1.253 . S
C348 O349 1.227 . S
O349 C348 1.227 . S
N350 Co336 2.140 . S
N350 C353 1.346 . S
N350 C354 1.345 1_545 S
C351 C352 1.387 1_565 S
C351 C355 1.391 . S
C352 C351 1.387 1_545 S
C352 C353 1.369 . S
C352 H361 0.929 . S
C353 N350 1.346 . S
C353 C352 1.369 . S
C353 H356 0.928 . S
C354 N350 1.345 1_565 S
C354 C355 1.371 . S
C354 H357 0.931 . S
C355 C351 1.391 . S
C355 C354 1.371 . S
C355 H362 0.930 . S
H356 C353 0.928 . S
H357 C354 0.931 . S
H358 C334 0.930 . S
H359 C331 0.930 . S
H360 C340 0.930 . S
H361 C352 0.929 . S
H362 C355 0.930 . S
C363 C364 1.351 . S
C363 N366 1.368 . S
C363 H368 0.931 . S
C364 C363 1.351 . S
C364 N365 1.373 . S
C364 H392 0.930 . S
N365 C364 1.373 . S
N365 C367 1.340 . S
N366 C363 1.368 . S
N366 C367 1.321 . S
N366 Co369 2.135 . S
C367 N365 1.340 . S
C367 N366 1.321 . S
C367 H391 0.930 . S
H368 C363 0.931 . S
Co369 N366 2.135 . S
Co369 N372 2.121 . S
Co369 O377 2.055 . S
Co369 O380 2.039 . S
Co369 N383 2.140 . S
C370 O371 1.227 . S
C370 O380 1.265 . S
O371 C370 1.227 . S
N372 Co369 2.121 . S
N372 C374 1.375 . S
N372 C375 1.313 . S
C373 C374 1.338 . S
C373 N376 1.377 . S
C373 H393 0.930 . S
C374 N372 1.375 . S
C374 C373 1.338 . S
C374 H378 0.931 . S
C375 N372 1.313 . S
C375 N376 1.344 . S
C375 H379 0.930 . S
N376 C373 1.377 . S
N376 C375 1.344 . S
O377 Co369 2.055 . S
O377 C381 1.253 . S
H378 C374 0.931 . S
H379 C375 0.930 . S
O380 Co369 2.039 . S
O380 C370 1.265 . S
C381 O377 1.253 . S
C381 O382 1.227 . S
O382 C381 1.227 . S
N383 Co369 2.140 . S
N383 C386 1.346 . S
N383 C387 1.345 . S
C384 C385 1.387 . S
C384 C388 1.391 . S
C385 C384 1.387 . S
C385 C386 1.369 . S
C385 H394 0.929 . S
C386 N383 1.346 . S
C386 C385 1.369 . S
C386 H389 0.928 . S
C387 N383 1.345 . S
C387 C388 1.371 . S
C387 H390 0.931 . S
C388 C384 1.391 . S
C388 C387 1.371 . S
C388 H395 0.930 . S
H389 C386 0.928 . S
H390 C387 0.931 . S
H391 C367 0.930 . S
H392 C364 0.930 . S
H393 C373 0.930 . S
H394 C385 0.929 . S
H395 C388 0.930 . S
C396 C397 1.351 . S
C396 N399 1.368 . S
C396 H401 0.931 . S
C397 C396 1.351 . S
C397 N398 1.373 . S
C397 H425 0.930 . S
N398 C397 1.373 . S
N398 C400 1.340 . S
N399 C396 1.368 . S
N399 C400 1.321 . S
N399 Co402 2.135 . S
C400 N398 1.340 . S
C400 N399 1.321 . S
C400 H424 0.930 . S
H401 C396 0.931 . S
Co402 N399 2.135 . S
Co402 N405 2.121 . S
Co402 O410 2.055 1_554 S
Co402 O413 2.039 . S
Co402 N416 2.140 . S
C403 O404 1.227 . S
C403 O413 1.265 . S
O404 C403 1.227 . S
N405 Co402 2.121 . S
N405 C407 1.375 . S
N405 C408 1.313 1_554 S
C406 C407 1.338 . S
C406 N409 1.377 1_554 S
C406 H426 0.930 . S
C407 N405 1.375 . S
C407 C406 1.338 . S
C407 H411 0.931 . S
C408 N405 1.313 1_556 S
C408 N409 1.344 . S
C408 H412 0.930 . S
N409 C406 1.377 1_556 S
N409 C408 1.344 . S
O410 Co402 2.055 1_556 S
O410 C414 1.253 . S
H411 C407 0.931 . S
H412 C408 0.930 . S
O413 Co402 2.039 . S
O413 C403 1.265 . S
C414 O410 1.253 . S
C414 O415 1.227 . S
O415 C414 1.227 . S
N416 Co402 2.140 . S
N416 C419 1.346 . S
N416 C420 1.345 . S
C417 C418 1.387 . S
C417 C421 1.391 . S
C418 C417 1.387 . S
C418 C419 1.369 . S
C418 H427 0.929 . S
C419 N416 1.346 . S
C419 C418 1.369 . S
C419 H422 0.928 . S
C420 N416 1.345 . S
C420 C421 1.371 . S
C420 H423 0.931 . S
C421 C417 1.391 . S
C421 C420 1.371 . S
C421 H428 0.930 . S
H422 C419 0.928 . S
H423 C420 0.931 . S
H424 C400 0.930 . S
H425 C397 0.930 . S
H426 C406 0.930 . S
H427 C418 0.929 . S
H428 C421 0.930 . S
C429 C430 1.351 . S
C429 N432 1.368 . S
C429 H434 0.931 . S
C430 C429 1.351 . S
C430 N431 1.373 . S
C430 H458 0.930 . S
N431 C430 1.373 . S
N431 C433 1.340 . S
N432 C429 1.368 . S
N432 C433 1.321 . S
N432 Co435 2.135 1_545 S
C433 N431 1.340 . S
C433 N432 1.321 . S
C433 H457 0.930 1_545 S
H434 C429 0.931 . S
Co435 N432 2.135 1_565 S
Co435 N438 2.121 . S
Co435 O443 2.055 . S
Co435 O446 2.039 . S
Co435 N449 2.140 . S
C436 O437 1.227 . S
C436 O446 1.265 . S
O437 C436 1.227 . S
N438 Co435 2.121 . S
N438 C440 1.375 . S
N438 C441 1.313 . S
C439 C440 1.338 . S
C439 N442 1.377 . S
C439 H459 0.930 . S
C440 N438 1.375 . S
C440 C439 1.338 . S
C440 H444 0.931 . S
C441 N438 1.313 . S
C441 N442 1.344 . S
C441 H445 0.930 . S
N442 C439 1.377 . S
N442 C441 1.344 . S
O443 Co435 2.055 . S
O443 C447 1.253 1_565 S
H444 C440 0.931 . S
H445 C441 0.930 . S
O446 Co435 2.039 . S
O446 C436 1.265 . S
C447 O443 1.253 1_545 S
C447 O448 1.227 . S
O448 C447 1.227 . S
N449 Co435 2.140 . S
N449 C452 1.346 . S
N449 C453 1.345 . S
C450 C451 1.390 . S
C450 C454 1.391 1_545 S
C451 C450 1.390 . S
C451 C452 1.360 1_545 S
C451 H460 0.936 . S
C452 N449 1.346 . S
C452 C451 1.360 1_565 S
C452 H455 0.928 . S
C453 N449 1.345 . S
C453 C454 1.371 . S
C453 H456 0.931 . S
C454 C450 1.391 1_565 S
C454 C453 1.371 . S
C454 H461 0.930 . S
H455 C452 0.928 . S
H456 C453 0.931 . S
H457 C433 0.930 1_565 S
H458 C430 0.930 . S
H459 C439 0.930 . S
H460 C451 0.936 . S
H461 C454 0.930 . S
C462 C463 1.351 . S
C462 N465 1.368 . S
C462 H467 0.931 . S
C463 C462 1.351 . S
C463 N464 1.373 . S
C463 H491 0.930 . S
N464 C463 1.373 . S
N464 C466 1.340 . S
N465 C462 1.368 . S
N465 C466 1.321 . S
N465 Co468 2.135 . S
C466 N464 1.340 . S
C466 N465 1.321 . S
C466 H490 0.930 . S
H467 C462 0.931 . S
Co468 N465 2.135 . S
Co468 N471 2.121 . S
Co468 O476 2.055 . S
Co468 O479 2.039 . S
Co468 N482 2.140 . S
C469 O470 1.227 . S
C469 O479 1.265 . S
O470 C469 1.227 . S
N471 Co468 2.121 . S
N471 C473 1.375 . S
N471 C474 1.313 . S
C472 C473 1.338 . S
C472 N475 1.377 . S
C472 H492 0.930 . S
C473 N471 1.375 . S
C473 C472 1.338 . S
C473 H477 0.931 . S
C474 N471 1.313 . S
C474 N475 1.344 . S
C474 H478 0.930 . S
N475 C472 1.377 . S
N475 C474 1.344 . S
O476 Co468 2.055 . S
O476 C480 1.253 . S
H477 C473 0.931 . S
H478 C474 0.930 . S
O479 Co468 2.039 . S
O479 C469 1.265 . S
C480 O476 1.253 . S
C480 O481 1.227 . S
O481 C480 1.227 . S
N482 Co468 2.140 . S
N482 C485 1.346 . S
N482 C486 1.345 . S
C483 C484 1.387 . S
C483 C487 1.391 . S
C484 C483 1.387 . S
C484 C485 1.369 . S
C484 H493 0.929 . S
C485 N482 1.346 . S
C485 C484 1.369 . S
C485 H488 0.928 . S
C486 N482 1.345 . S
C486 C487 1.371 . S
C486 H489 0.931 . S
C487 C483 1.391 . S
C487 C486 1.371 . S
C487 H494 0.930 . S
H488 C485 0.928 . S
H489 C486 0.931 . S
H490 C466 0.930 . S
H491 C463 0.930 . S
H492 C472 0.930 . S
H493 C484 0.929 . S
H494 C487 0.930 . S
C495 C496 1.351 . S
C495 N498 1.368 . S
C495 H500 0.931 . S
C496 C495 1.351 . S
C496 N497 1.373 . S
C496 H524 0.930 1_545 S
N497 C496 1.373 . S
N497 C499 1.340 . S
N498 C495 1.368 . S
N498 C499 1.321 . S
N498 Co501 2.135 . S
C499 N497 1.340 . S
C499 N498 1.321 . S
C499 H523 0.930 . S
H500 C495 0.931 . S
Co501 N498 2.135 . S
Co501 N504 2.121 . S
Co501 O509 2.055 . S
Co501 O512 2.039 . S
Co501 N515 2.140 . S
C502 O503 1.227 . S
C502 O512 1.265 . S
O503 C502 1.227 . S
N504 Co501 2.121 . S
N504 C506 1.375 . S
N504 C507 1.313 . S
C505 C506 1.338 . S
C505 N508 1.377 . S
C505 H525 0.930 . S
C506 N504 1.375 . S
C506 C505 1.338 . S
C506 H510 0.931 . S
C507 N504 1.313 . S
C507 N508 1.344 . S
C507 H511 0.930 . S
N508 C505 1.377 . S
N508 C507 1.344 . S
O509 Co501 2.055 . S
O509 C513 1.253 . S
H510 C506 0.931 . S
H511 C507 0.930 . S
O512 Co501 2.039 . S
O512 C502 1.265 . S
C513 O509 1.253 . S
C513 O514 1.227 . S
O514 C513 1.227 . S
N515 Co501 2.140 . S
N515 C518 1.346 . S
N515 C519 1.345 . S
C516 C517 1.387 . S
C516 C520 1.391 . S
C517 C516 1.387 . S
C517 C518 1.369 . S
C517 H526 0.929 . S
C518 N515 1.346 . S
C518 C517 1.369 . S
C518 H521 0.928 . S
C519 N515 1.345 . S
C519 C520 1.371 . S
C519 H522 0.931 . S
C520 C516 1.391 . S
C520 C519 1.371 . S
C520 H527 0.930 . S
H521 C518 0.928 . S
H522 C519 0.931 . S
H523 C499 0.930 . S
H524 C496 0.930 1_565 S
H525 C505 0.930 . S
H526 C517 0.929 . S
H527 C520 0.930 . S
C528 C529 1.351 . S
C528 N531 1.368 . S
C528 H533 0.931 1_556 S
C529 C528 1.351 . S
C529 N530 1.373 . S
C529 H557 0.930 . S
N530 C529 1.373 . S
N530 C532 1.340 . S
N531 C528 1.368 . S
N531 C532 1.321 . S
N531 Co534 2.135 1_556 S
C532 N530 1.340 . S
C532 N531 1.321 . S
C532 H556 0.930 . S
H533 C528 0.931 1_554 S
Co534 N531 2.135 1_554 S
Co534 N537 2.121 . S
Co534 O542 2.055 . S
Co534 O545 2.039 1_554 S
Co534 N548 2.140 . S
C535 O536 1.227 . S
C535 O545 1.265 . S
O536 C535 1.227 . S
N537 Co534 2.121 . S
N537 C539 1.375 . S
N537 C540 1.313 . S
C538 C539 1.338 . S
C538 N541 1.377 . S
C538 H558 0.930 . S
C539 N537 1.375 . S
C539 C538 1.338 . S
C539 H543 0.931 . S
C540 N537 1.313 . S
C540 N541 1.344 . S
C540 H544 0.930 . S
N541 C538 1.377 . S
N541 C540 1.344 . S
O542 Co534 2.055 . S
O542 C546 1.253 . S
H543 C539 0.931 . S
H544 C540 0.930 . S
O545 Co534 2.039 1_556 S
O545 C535 1.265 . S
C546 O542 1.253 . S
C546 O547 1.227 . S
O547 C546 1.227 . S
N548 Co534 2.140 . S
N548 C551 1.346 1_455 S
N548 C552 1.345 . S
C549 C550 1.387 . S
C549 C553 1.391 . S
C550 C549 1.387 . S
C550 C551 1.369 . S
C550 H559 0.929 . S
C551 N548 1.346 1_655 S
C551 C550 1.369 . S
C551 H554 0.928 . S
C552 N548 1.345 . S
C552 C553 1.371 1_455 S
C552 H555 0.931 . S
C553 C549 1.391 . S
C553 C552 1.371 1_655 S
C553 H560 0.930 . S
H554 C551 0.928 . S
H555 C552 0.931 . S
H556 C532 0.930 . S
H557 C529 0.930 . S
H558 C538 0.930 . S
H559 C550 0.929 . S
H560 C553 0.930 . S
C561 C562 1.351 . S
C561 N564 1.368 . S
C561 H566 0.931 . S
C562 C561 1.351 . S
C562 N563 1.373 . S
C562 H590 0.930 . S
N563 C562 1.373 . S
N563 C565 1.340 . S
N564 C561 1.368 . S
N564 C565 1.321 . S
N564 Co567 2.135 . S
C565 N563 1.340 . S
C565 N564 1.321 . S
C565 H589 0.930 . S
H566 C561 0.931 . S
Co567 N564 2.135 . S
Co567 N570 2.121 . S
Co567 O575 2.055 . S
Co567 O578 2.039 . S
Co567 N581 2.140 . S
C568 O569 1.227 . S
C568 O578 1.265 . S
O569 C568 1.227 . S
N570 Co567 2.121 . S
N570 C572 1.375 . S
N570 C573 1.313 1_554 S
C571 C572 1.338 1_556 S
C571 N574 1.377 . S
C571 H591 0.930 . S
C572 N570 1.375 . S
C572 C571 1.338 1_554 S
C572 H576 0.931 . S
C573 N570 1.313 1_556 S
C573 N574 1.344 . S
C573 H577 0.930 . S
N574 C571 1.377 . S
N574 C573 1.344 . S
O575 Co567 2.055 . S
O575 C579 1.253 . S
H576 C572 0.931 . S
H577 C573 0.930 . S
O578 Co567 2.039 . S
O578 C568 1.265 . S
C579 O575 1.253 . S
C579 O580 1.227 . S
O580 C579 1.227 . S
N581 Co567 2.140 . S
N581 C584 1.346 . S
N581 C585 1.345 1_554 S
C582 C583 1.387 1_556 S
C582 C586 1.391 . S
C583 C582 1.387 1_554 S
C583 C584 1.369 . S
C583 H592 0.929 . S
C584 N581 1.346 . S
C584 C583 1.369 . S
C584 H587 0.928 . S
C585 N581 1.345 1_556 S
C585 C586 1.371 . S
C585 H588 0.931 . S
C586 C582 1.391 . S
C586 C585 1.371 . S
C586 H593 0.930 . S
H587 C584 0.928 . S
H588 C585 0.931 . S
H589 C565 0.930 . S
H590 C562 0.930 . S
H591 C571 0.930 . S
H592 C583 0.929 . S
H593 C586 0.930 . S
C594 C595 1.351 . S
C594 N597 1.368 . S
C594 H599 0.931 . S
C595 C594 1.351 . S
C595 N596 1.373 . S
C595 H623 0.930 . S
N596 C595 1.373 . S
N596 C598 1.340 . S
N597 C594 1.368 . S
N597 C598 1.321 . S
N597 Co600 2.135 . S
C598 N596 1.340 . S
C598 N597 1.321 . S
C598 H622 0.930 . S
H599 C594 0.931 . S
Co600 N597 2.135 . S
Co600 N603 2.121 . S
Co600 O608 2.055 . S
Co600 O611 2.039 . S
Co600 N614 2.140 . S
C601 O602 1.227 . S
C601 O611 1.265 . S
O602 C601 1.227 . S
N603 Co600 2.121 . S
N603 C605 1.375 . S
N603 C606 1.313 . S
C604 C605 1.338 . S
C604 N607 1.377 . S
C604 H624 0.930 . S
C605 N603 1.375 . S
C605 C604 1.338 . S
C605 H609 0.931 . S
C606 N603 1.313 . S
C606 N607 1.344 . S
C606 H610 0.930 . S
N607 C604 1.377 . S
N607 C606 1.344 . S
O608 Co600 2.055 . S
O608 C612 1.253 . S
H609 C605 0.931 . S
H610 C606 0.930 . S
O611 Co600 2.039 . S
O611 C601 1.265 . S
C612 O608 1.253 . S
C612 O613 1.227 . S
O613 C612 1.227 . S
N614 Co600 2.140 . S
N614 C617 1.346 . S
N614 C618 1.345 . S
C615 C616 1.387 . S
C615 C619 1.391 . S
C616 C615 1.387 . S
C616 C617 1.369 . S
C616 H625 0.929 . S
C617 N614 1.346 . S
C617 C616 1.369 . S
C617 H620 0.928 . S
C618 N614 1.345 . S
C618 C619 1.371 . S
C618 H621 0.931 . S
C619 C615 1.391 . S
C619 C618 1.371 . S
C619 H626 0.930 . S
H620 C617 0.928 . S
H621 C618 0.931 . S
H622 C598 0.930 . S
H623 C595 0.930 . S
H624 C604 0.930 . S
H625 C616 0.929 . S
H626 C619 0.930 . S
C627 C628 1.351 . S
C627 N630 1.368 . S
C627 H632 0.931 . S
C628 C627 1.351 . S
C628 N629 1.373 . S
C628 H656 0.930 . S
N629 C628 1.373 . S
N629 C631 1.340 . S
N630 C627 1.368 . S
N630 C631 1.321 . S
N630 Co633 2.135 . S
C631 N629 1.340 . S
C631 N630 1.321 . S
C631 H655 0.930 . S
H632 C627 0.931 . S
Co633 N630 2.135 . S
Co633 N636 2.121 . S
Co633 O641 2.055 1_455 S
Co633 O644 2.039 . S
Co633 N647 2.140 . S
C634 O635 1.227 . S
C634 O644 1.265 . S
O635 C634 1.227 . S
N636 Co633 2.121 . S
N636 C638 1.375 . S
N636 C639 1.313 1_455 S
C637 C638 1.338 . S
C637 N640 1.377 1_455 S
C637 H657 0.930 . S
C638 N636 1.375 . S
C638 C637 1.338 . S
C638 H642 0.931 . S
C639 N636 1.313 1_655 S
C639 N640 1.344 . S
C639 H643 0.930 . S
N640 C637 1.377 1_655 S
N640 C639 1.344 . S
O641 Co633 2.055 1_655 S
O641 C645 1.253 . S
H642 C638 0.931 . S
H643 C639 0.930 . S
O644 Co633 2.039 . S
O644 C634 1.265 . S
C645 O641 1.253 . S
C645 O646 1.227 . S
O646 C645 1.227 . S
N647 Co633 2.140 . S
N647 C650 1.346 . S
N647 C651 1.345 . S
C648 C649 1.387 . S
C648 C652 1.391 . S
C649 C648 1.387 . S
C649 C650 1.369 . S
C649 H658 0.929 . S
C650 N647 1.346 . S
C650 C649 1.369 . S
C650 H653 0.928 . S
C651 N647 1.345 . S
C651 C652 1.371 . S
C651 H654 0.931 . S
C652 C648 1.391 . S
C652 C651 1.371 . S
C652 H659 0.930 . S
H653 C650 0.928 . S
H654 C651 0.931 . S
H655 C631 0.930 . S
H656 C628 0.930 . S
H657 C637 0.930 . S
H658 C649 0.929 . S
H659 C652 0.930 . S
C660 C661 1.351 . S
C660 N663 1.368 . S
C660 H665 0.931 . S
C661 C660 1.351 . S
C661 N662 1.373 . S
C661 H689 0.930 1_455 S
N662 C661 1.373 . S
N662 C664 1.340 . S
N663 C660 1.368 . S
N663 C664 1.321 . S
N663 Co666 2.135 . S
C664 N662 1.340 . S
C664 N663 1.321 . S
C664 H688 0.930 . S
H665 C660 0.931 . S
Co666 N663 2.135 . S
Co666 N669 2.121 . S
Co666 O674 2.055 . S
Co666 O677 2.039 . S
Co666 N680 2.140 . S
C667 O668 1.227 . S
C667 O677 1.265 . S
O668 C667 1.227 . S
N669 Co666 2.121 . S
N669 C671 1.375 . S
N669 C672 1.313 . S
C670 C671 1.338 . S
C670 N673 1.377 . S
C670 H690 0.930 . S
C671 N669 1.375 . S
C671 C670 1.338 . S
C671 H675 0.931 . S
C672 N669 1.313 . S
C672 N673 1.344 . S
C672 H676 0.930 . S
N673 C670 1.377 . S
N673 C672 1.344 . S
O674 Co666 2.055 . S
O674 C678 1.253 . S
H675 C671 0.931 . S
H676 C672 0.930 . S
O677 Co666 2.039 . S
O677 C667 1.265 . S
C678 O674 1.253 . S
C678 O679 1.227 . S
O679 C678 1.227 . S
N680 Co666 2.140 . S
N680 C683 1.346 . S
N680 C684 1.345 . S
C681 C682 1.387 . S
C681 C685 1.391 . S
C682 C681 1.387 . S
C682 C683 1.369 . S
C682 H691 0.929 . S
C683 N680 1.346 . S
C683 C682 1.369 . S
C683 H686 0.928 . S
C684 N680 1.345 . S
C684 C685 1.371 . S
C684 H687 0.931 . S
C685 C681 1.391 . S
C685 C684 1.371 . S
C685 H692 0.930 . S
H686 C683 0.928 . S
H687 C684 0.931 . S
H688 C664 0.930 . S
H689 C661 0.930 1_655 S
H690 C670 0.930 . S
H691 C682 0.929 . S
H692 C685 0.930 . S
C693 C694 1.351 . S
C693 N696 1.368 . S
C693 H698 0.931 . S
C694 C693 1.351 . S
C694 N695 1.373 . S
C694 H722 0.930 . S
N695 C694 1.373 . S
N695 C697 1.340 . S
N696 C693 1.368 . S
N696 C697 1.321 . S
N696 Co699 2.135 . S
C697 N695 1.340 . S
C697 N696 1.321 . S
C697 H721 0.930 . S
H698 C693 0.931 . S
Co699 N696 2.135 . S
Co699 N702 2.121 . S
Co699 O707 2.055 . S
Co699 O710 2.039 . S
Co699 N713 2.140 . S
C700 O701 1.227 . S
C700 O710 1.265 . S
O701 C700 1.227 . S
N702 Co699 2.121 . S
N702 C704 1.375 . S
N702 C705 1.313 . S
C703 C704 1.338 . S
C703 N706 1.377 . S
C703 H723 0.930 . S
C704 N702 1.375 . S
C704 C703 1.338 . S
C704 H708 0.931 . S
C705 N702 1.313 . S
C705 N706 1.344 . S
C705 H709 0.930 . S
N706 C703 1.377 . S
N706 C705 1.344 . S
O707 Co699 2.055 . S
O707 C711 1.253 . S
H708 C704 0.931 . S
H709 C705 0.930 . S
O710 Co699 2.039 . S
O710 C700 1.265 . S
C711 O707 1.253 . S
C711 O712 1.227 . S
O712 C711 1.227 . S
N713 Co699 2.140 . S
N713 C716 1.346 . S
N713 C717 1.345 . S
C714 C715 1.387 . S
C714 C718 1.391 . S
C715 C714 1.387 . S
C715 C716 1.369 . S
C715 H724 0.929 . S
C716 N713 1.346 . S
C716 C715 1.369 . S
C716 H719 0.928 . S
C717 N713 1.345 . S
C717 C718 1.371 . S
C717 H720 0.931 . S
C718 C714 1.391 . S
C718 C717 1.371 . S
C718 H725 0.930 . S
H719 C716 0.928 . S
H720 C717 0.931 . S
H721 C697 0.930 . S
H722 C694 0.930 . S
H723 C703 0.930 . S
H724 C715 0.929 . S
H725 C718 0.930 . S
C726 C727 1.351 . S
C726 N729 1.368 . S
C726 H731 0.931 . S
C727 C726 1.351 . S
C727 N728 1.373 . S
C727 H755 0.930 . S
N728 C727 1.373 . S
N728 C730 1.340 . S
N729 C726 1.368 . S
N729 C730 1.321 . S
N729 Co732 2.135 1_455 S
C730 N728 1.340 . S
C730 N729 1.321 . S
C730 H754 0.930 1_455 S
H731 C726 0.931 . S
Co732 N729 2.135 1_655 S
Co732 N735 2.121 . S
Co732 O740 2.055 . S
Co732 O743 2.039 . S
Co732 N746 2.140 . S
C733 O734 1.227 . S
C733 O743 1.265 . S
O734 C733 1.227 . S
N735 Co732 2.121 . S
N735 C737 1.375 . S
N735 C738 1.313 . S
C736 C737 1.338 . S
C736 N739 1.377 . S
C736 H756 0.930 . S
C737 N735 1.375 . S
C737 C736 1.338 . S
C737 H741 0.931 . S
C738 N735 1.313 . S
C738 N739 1.344 . S
C738 H742 0.930 . S
N739 C736 1.377 . S
N739 C738 1.344 . S
O740 Co732 2.055 . S
O740 C744 1.253 1_655 S
H741 C737 0.931 . S
H742 C738 0.930 . S
O743 Co732 2.039 . S
O743 C733 1.265 . S
C744 O740 1.253 1_455 S
C744 O745 1.227 . S
O745 C744 1.227 . S
N746 Co732 2.140 . S
N746 C749 1.346 . S
N746 C750 1.345 . S
C747 C748 1.390 . S
C747 C751 1.391 1_455 S
C748 C747 1.390 . S
C748 C749 1.360 1_455 S
C748 H757 0.936 . S
C749 N746 1.346 . S
C749 C748 1.360 1_655 S
C749 H752 0.928 . S
C750 N746 1.345 . S
C750 C751 1.371 . S
C750 H753 0.931 . S
C751 C747 1.391 1_655 S
C751 C750 1.371 . S
C751 H758 0.930 . S
H752 C749 0.928 . S
H753 C750 0.931 . S
H754 C730 0.930 1_655 S
H755 C727 0.930 . S
H756 C736 0.930 . S
H757 C748 0.936 . S
H758 C751 0.930 . S
C759 C760 1.351 . S
C759 N762 1.368 . S
C759 H764 0.931 . S
C760 C759 1.351 . S
C760 N761 1.373 . S
C760 H788 0.930 . S
N761 C760 1.373 . S
N761 C763 1.340 . S
N762 C759 1.368 . S
N762 C763 1.321 . S
N762 Co765 2.135 . S
C763 N761 1.340 . S
C763 N762 1.321 . S
C763 H787 0.930 . S
H764 C759 0.931 . S
Co765 N762 2.135 . S
Co765 N768 2.121 . S
Co765 O773 2.055 . S
Co765 O776 2.039 . S
Co765 N779 2.140 . S
C766 O767 1.227 . S
C766 O776 1.265 . S
O767 C766 1.227 . S
N768 Co765 2.121 . S
N768 C770 1.375 . S
N768 C771 1.313 . S
C769 C770 1.338 . S
C769 N772 1.377 . S
C769 H789 0.930 . S
C770 N768 1.375 . S
C770 C769 1.338 . S
C770 H774 0.931 . S
C771 N768 1.313 . S
C771 N772 1.344 . S
C771 H775 0.930 . S
N772 C769 1.377 . S
N772 C771 1.344 . S
O773 Co765 2.055 . S
O773 C777 1.253 . S
H774 C770 0.931 . S
H775 C771 0.930 . S
O776 Co765 2.039 . S
O776 C766 1.265 . S
C777 O773 1.253 . S
C777 O778 1.227 . S
O778 C777 1.227 . S
N779 Co765 2.140 . S
N779 C782 1.346 . S
N779 C783 1.345 . S
C780 C781 1.387 . S
C780 C784 1.391 . S
C781 C780 1.387 . S
C781 C782 1.369 . S
C781 H790 0.929 . S
C782 N779 1.346 . S
C782 C781 1.369 . S
C782 H785 0.928 . S
C783 N779 1.345 . S
C783 C784 1.371 . S
C783 H786 0.931 . S
C784 C780 1.391 . S
C784 C783 1.371 . S
C784 H791 0.930 . S
H785 C782 0.928 . S
H786 C783 0.931 . S
H787 C763 0.930 . S
H788 C760 0.930 . S
H789 C769 0.930 . S
H790 C781 0.929 . S
H791 C784 0.930 . S
C792 C793 1.363 . S
C792 C798 1.379 . S
C792 N800 1.356 . S
C793 C792 1.363 . S
C793 C799 1.363 . S
C794 C795 1.363 . S
C794 C799 1.379 . S
C794 N801 1.356 . S
C795 C794 1.363 . S
C795 C798 1.363 . S
N796 C798 1.356 . S
N796 H808 0.984 . S
N796 H809 0.985 . S
N797 C799 1.356 . S
N797 H802 0.984 . S
N797 H803 0.985 . S
C798 C792 1.379 . S
C798 C795 1.363 . S
C798 N796 1.356 . S
C799 C793 1.363 . S
C799 C794 1.379 . S
C799 N797 1.356 . S
N800 C792 1.356 . S
N800 H806 0.984 . S
N800 H807 0.984 . S
N801 C794 1.356 . S
N801 H804 0.984 . S
N801 H805 0.985 . S
H802 N797 0.984 . S
H803 N797 0.985 . S
H804 N801 0.984 . S
H805 N801 0.985 . S
H806 N800 0.984 . S
H807 N800 0.984 . S
H808 N796 0.984 . S
H809 N796 0.985 . S
C810 C811 1.363 . S
C810 C816 1.379 . S
C810 N818 1.356 . S
C811 C810 1.363 . S
C811 C817 1.363 . S
C812 C813 1.363 . S
C812 C817 1.379 1_554 S
C812 N819 1.356 . S
C813 C812 1.363 . S
C813 C816 1.363 1_554 S
N814 C816 1.356 . S
N814 H826 0.984 . S
N814 H827 0.985 1_556 S
N815 C817 1.356 . S
N815 H820 0.984 . S
N815 H821 0.985 . S
C816 C810 1.379 . S
C816 C813 1.363 1_556 S
C816 N814 1.356 . S
C817 C811 1.363 . S
C817 C812 1.379 1_556 S
C817 N815 1.356 . S
N818 C810 1.356 . S
N818 H824 0.984 . S
N818 H825 0.984 . S
N819 C812 1.356 . S
N819 H822 0.984 . S
N819 H823 0.985 . S
H820 N815 0.984 . S
H821 N815 0.985 . S
H822 N819 0.984 . S
H823 N819 0.985 . S
H824 N818 0.984 . S
H825 N818 0.984 . S
H826 N814 0.984 . S
H827 N814 0.985 1_554 S
C828 C829 1.363 . S
C828 C834 1.379 . S
C828 N836 1.356 . S
C829 C828 1.363 . S
C829 C835 1.363 . S
C830 C831 1.363 . S
C830 C835 1.379 . S
C830 N837 1.356 . S
C831 C830 1.363 . S
C831 C834 1.363 . S
N832 C834 1.356 . S
N832 H844 0.984 . S
N832 H845 0.985 . S
N833 C835 1.356 . S
N833 H838 0.984 . S
N833 H839 0.985 . S
C834 C828 1.379 . S
C834 C831 1.363 . S
C834 N832 1.356 . S
C835 C829 1.363 . S
C835 C830 1.379 . S
C835 N833 1.356 . S
N836 C828 1.356 . S
N836 H842 0.984 . S
N836 H843 0.984 . S
N837 C830 1.356 . S
N837 H840 0.984 . S
N837 H841 0.985 . S
H838 N833 0.984 . S
H839 N833 0.985 . S
H840 N837 0.984 . S
H841 N837 0.985 . S
H842 N836 0.984 . S
H843 N836 0.984 . S
H844 N832 0.984 . S
H845 N832 0.985 . S
C846 C847 1.363 . S
C846 C852 1.379 . S
C846 N854 1.356 . S
C847 C846 1.363 . S
C847 C853 1.363 . S
C848 C849 1.363 . S
C848 C853 1.379 . S
C848 N855 1.356 . S
C849 C848 1.363 . S
C849 C852 1.363 . S
N850 C852 1.356 . S
N850 H862 0.984 . S
N850 H863 0.985 . S
N851 C853 1.356 . S
N851 H856 0.984 . S
N851 H857 0.985 . S
C852 C846 1.379 . S
C852 C849 1.363 . S
C852 N850 1.356 . S
C853 C847 1.363 . S
C853 C848 1.379 . S
C853 N851 1.356 . S
N854 C846 1.356 . S
N854 H860 0.984 . S
N854 H861 0.984 . S
N855 C848 1.356 . S
N855 H858 0.984 . S
N855 H859 0.985 . S
H856 N851 0.984 . S
H857 N851 0.985 . S
H858 N855 0.984 . S
H859 N855 0.985 . S
H860 N854 0.984 . S
H861 N854 0.984 . S
H862 N850 0.984 . S
H863 N850 0.985 . S
C864 C865 1.363 . S
C864 C870 1.379 . S
C864 N872 1.356 . S
C865 C864 1.363 . S
C865 C871 1.363 . S
C866 C867 1.363 . S
C866 C871 1.379 . S
C866 N873 1.356 . S
C867 C866 1.363 . S
C867 C870 1.363 . S
N868 C870 1.356 . S
N868 H880 0.984 . S
N868 H881 0.985 . S
N869 C871 1.356 . S
N869 H874 0.984 . S
N869 H875 0.985 . S
C870 C864 1.379 . S
C870 C867 1.363 . S
C870 N868 1.356 . S
C871 C865 1.363 . S
C871 C866 1.379 . S
C871 N869 1.356 . S
N872 C864 1.356 . S
N872 H878 0.984 . S
N872 H879 0.984 . S
N873 C866 1.356 . S
N873 H876 0.984 . S
N873 H877 0.985 . S
H874 N869 0.984 . S
H875 N869 0.985 . S
H876 N873 0.984 . S
H877 N873 0.985 . S
H878 N872 0.984 . S
H879 N872 0.984 . S
H880 N868 0.984 . S
H881 N868 0.985 . S
C882 C883 1.363 . S
C882 C888 1.379 . S
C882 N890 1.356 . S
C883 C882 1.363 . S
C883 C889 1.363 . S
C884 C885 1.363 . S
C884 C889 1.379 . S
C884 N891 1.356 . S
C885 C884 1.363 . S
C885 C888 1.363 . S
N886 C888 1.356 . S
N886 H898 0.984 . S
N886 H899 0.985 . S
N887 C889 1.356 . S
N887 H892 0.984 . S
N887 H893 0.985 . S
C888 C882 1.379 . S
C888 C885 1.363 . S
C888 N886 1.356 . S
C889 C883 1.363 . S
C889 C884 1.379 . S
C889 N887 1.356 . S
N890 C882 1.356 . S
N890 H896 0.984 . S
N890 H897 0.984 . S
N891 C884 1.356 . S
N891 H894 0.984 . S
N891 H895 0.985 . S
H892 N887 0.984 . S
H893 N887 0.985 . S
H894 N891 0.984 . S
H895 N891 0.985 . S
H896 N890 0.984 . S
H897 N890 0.984 . S
H898 N886 0.984 . S
H899 N886 0.985 . S
C900 C901 1.363 1_655 S
C900 C906 1.379 . S
C900 N908 1.356 . S
C901 C900 1.363 1_455 S
C901 C907 1.363 . S
C902 C903 1.363 1_455 S
C902 C907 1.379 . S
C902 N909 1.356 . S
C903 C902 1.363 1_655 S
C903 C906 1.363 . S
N904 C906 1.356 . S
N904 H916 0.984 . S
N904 H917 0.985 . S
N905 C907 1.356 . S
N905 H910 0.984 . S
N905 H911 0.985 . S
C906 C900 1.379 . S
C906 C903 1.363 . S
C906 N904 1.356 . S
C907 C901 1.363 . S
C907 C902 1.379 . S
C907 N905 1.356 . S
N908 C900 1.356 . S
N908 H914 0.984 . S
N908 H915 0.984 . S
N909 C902 1.356 . S
N909 H912 0.984 . S
N909 H913 0.985 . S
H910 N905 0.984 . S
H911 N905 0.985 . S
H912 N909 0.984 . S
H913 N909 0.985 . S
H914 N908 0.984 . S
H915 N908 0.984 . S
H916 N904 0.984 . S
H917 N904 0.985 . S
C918 C919 1.363 . S
C918 C924 1.379 . S
C918 N926 1.356 . S
C919 C918 1.363 . S
C919 C925 1.363 . S
C920 C921 1.363 . S
C920 C925 1.379 . S
C920 N927 1.356 . S
C921 C920 1.363 . S
C921 C924 1.363 . S
N922 C924 1.356 . S
N922 H934 0.984 . S
N922 H935 0.985 . S
N923 C925 1.356 . S
N923 H928 0.984 . S
N923 H929 0.985 . S
C924 C918 1.379 . S
C924 C921 1.363 . S
C924 N922 1.356 . S
C925 C919 1.363 . S
C925 C920 1.379 . S
C925 N923 1.356 . S
N926 C918 1.356 . S
N926 H932 0.984 . S
N926 H933 0.984 . S
N927 C920 1.356 . S
N927 H930 0.984 . S
N927 H931 0.985 . S
H928 N923 0.984 . S
H929 N923 0.985 . S
H930 N927 0.984 . S
H931 N927 0.985 . S
H932 N926 0.984 . S
H933 N926 0.984 . S
H934 N922 0.984 . S
H935 N922 0.985 . S
C936 C937 1.363 . S
C936 C942 1.379 . S
C936 N944 1.356 . S
C937 C936 1.363 . S
C937 C943 1.363 . S
C938 C939 1.363 . S
C938 C943 1.379 . S
C938 N945 1.356 . S
C939 C938 1.363 . S
C939 C942 1.363 . S
N940 C942 1.356 . S
N940 H952 0.984 . S
N940 H953 0.985 . S
N941 C943 1.356 . S
N941 H946 0.984 . S
N941 H947 0.985 . S
C942 C936 1.379 . S
C942 C939 1.363 . S
C942 N940 1.356 . S
C943 C937 1.363 . S
C943 C938 1.379 . S
C943 N941 1.356 . S
N944 C936 1.356 . S
N944 H950 0.984 . S
N944 H951 0.984 . S
N945 C938 1.356 . S
N945 H948 0.984 . S
N945 H949 0.985 . S
H946 N941 0.984 . S
H947 N941 0.985 . S
H948 N945 0.984 . S
H949 N945 0.985 . S
H950 N944 0.984 . S
H951 N944 0.984 . S
H952 N940 0.984 . S
H953 N940 0.985 . S
C954 C955 1.363 . S
C954 C960 1.379 . S
C954 N962 1.356 . S
C955 C954 1.363 . S
C955 C961 1.363 . S
C956 C957 1.363 . S
C956 C961 1.379 . S
C956 N963 1.356 . S
C957 C956 1.363 . S
C957 C960 1.363 . S
N958 C960 1.356 . S
N958 H970 0.984 . S
N958 H971 0.985 . S
N959 C961 1.356 . S
N959 H964 0.984 . S
N959 H965 0.985 . S
C960 C954 1.379 . S
C960 C957 1.363 . S
C960 N958 1.356 . S
C961 C955 1.363 . S
C961 C956 1.379 . S
C961 N959 1.356 . S
N962 C954 1.356 . S
N962 H968 0.984 . S
N962 H969 0.984 . S
N963 C956 1.356 . S
N963 H966 0.984 . S
N963 H967 0.985 . S
H964 N959 0.984 . S
H965 N959 0.985 . S
H966 N963 0.984 . S
H967 N963 0.985 . S
H968 N962 0.984 . S
H969 N962 0.984 . S
H970 N958 0.984 . S
H971 N958 0.985 . S
C972 C973 1.363 1_545 S
C972 C978 1.379 . S
C972 N980 1.356 . S
C973 C972 1.363 1_565 S
C973 C979 1.363 . S
C974 C975 1.363 1_565 S
C974 C979 1.379 . S
C974 N981 1.356 . S
C975 C974 1.363 1_545 S
C975 C978 1.363 . S
N976 C978 1.356 . S
N976 H988 0.984 . S
N976 H989 0.985 . S
N977 C979 1.356 . S
N977 H982 0.984 . S
N977 H983 0.985 . S
C978 C972 1.379 . S
C978 C975 1.363 . S
C978 N976 1.356 . S
C979 C973 1.363 . S
C979 C974 1.379 . S
C979 N977 1.356 . S
N980 C972 1.356 . S
N980 H986 0.984 . S
N980 H987 0.984 . S
N981 C974 1.356 . S
N981 H984 0.984 . S
N981 H985 0.985 . S
H982 N977 0.984 . S
H983 N977 0.985 . S
H984 N981 0.984 . S
H985 N981 0.985 . S
H986 N980 0.984 . S
H987 N980 0.984 . S
H988 N976 0.984 . S
H989 N976 0.985 . S
C990 C991 1.363 . S
C990 C996 1.379 . S
C990 N998 1.356 . S
C991 C990 1.363 . S
C991 C997 1.363 . S
C992 C993 1.363 . S
C992 C997 1.379 . S
C992 N999 1.356 . S
C993 C992 1.363 . S
C993 C996 1.363 . S
N994 C996 1.356 . S
N994 H1006 0.984 . S
N994 H1007 0.985 . S
N995 C997 1.356 . S
N995 H1000 0.984 . S
N995 H1001 0.985 . S
C996 C990 1.379 . S
C996 C993 1.363 . S
C996 N994 1.356 . S
C997 C991 1.363 . S
C997 C992 1.379 . S
C997 N995 1.356 . S
N998 C990 1.356 . S
N998 H1004 0.984 . S
N998 H1005 0.984 . S
N999 C992 1.356 . S
N999 H1002 0.984 . S
N999 H1003 0.985 . S
H1000 N995 0.984 . S
H1001 N995 0.985 . S
H1002 N999 0.984 . S
H1003 N999 0.985 . S
H1004 N998 0.984 . S
H1005 N998 0.984 . S
H1006 N994 0.984 . S
H1007 N994 0.985 . S
C1008 C1009 1.363 . S
C1008 C1014 1.379 . S
C1008 N1016 1.356 . S
C1009 C1008 1.363 . S
C1009 C1015 1.363 . S
C1010 C1011 1.363 . S
C1010 C1015 1.379 . S
C1010 N1017 1.356 . S
C1011 C1010 1.363 . S
C1011 C1014 1.363 . S
N1012 C1014 1.356 . S
N1012 H1024 0.984 . S
N1012 H1025 0.985 . S
N1013 C1015 1.356 . S
N1013 H1018 0.984 . S
N1013 H1019 0.983 1_455 S
C1014 C1008 1.379 . S
C1014 C1011 1.363 . S
C1014 N1012 1.356 . S
C1015 C1009 1.363 . S
C1015 C1010 1.379 . S
C1015 N1013 1.356 . S
N1016 C1008 1.356 . S
N1016 H1022 0.984 . S
N1016 H1023 0.984 . S
N1017 C1010 1.356 . S
N1017 H1020 0.984 . S
N1017 H1021 0.985 . S
H1018 N1013 0.984 . S
H1019 N1013 0.983 1_655 S
H1020 N1017 0.984 . S
H1021 N1017 0.985 . S
H1022 N1016 0.984 . S
H1023 N1016 0.984 . S
H1024 N1012 0.984 . S
H1025 N1012 0.985 . S
C1026 C1027 1.363 . S
C1026 C1032 1.379 . S
C1026 N1034 1.356 . S
C1027 C1026 1.363 . S
C1027 C1033 1.363 . S
C1028 C1029 1.363 . S
C1028 C1033 1.379 . S
C1028 N1035 1.356 . S
C1029 C1028 1.363 . S
C1029 C1032 1.363 . S
N1030 C1032 1.356 . S
N1030 H1042 0.984 . S
N1030 H1043 0.985 . S
N1031 C1033 1.356 . S
N1031 H1036 0.984 . S
N1031 H1037 0.985 . S
C1032 C1026 1.379 . S
C1032 C1029 1.363 . S
C1032 N1030 1.356 . S
C1033 C1027 1.363 . S
C1033 C1028 1.379 . S
C1033 N1031 1.356 . S
N1034 C1026 1.356 . S
N1034 H1040 0.984 . S
N1034 H1041 0.984 . S
N1035 C1028 1.356 . S
N1035 H1038 0.984 . S
N1035 H1039 0.985 . S
H1036 N1031 0.984 . S
H1037 N1031 0.985 . S
H1038 N1035 0.984 . S
H1039 N1035 0.985 . S
H1040 N1034 0.984 . S
H1041 N1034 0.984 . S
H1042 N1030 0.984 . S
H1043 N1030 0.985 . S
C1044 C1045 1.363 . S
C1044 C1050 1.379 . S
C1044 N1052 1.356 . S
C1045 C1044 1.363 . S
C1045 C1051 1.363 . S
C1046 C1047 1.363 . S
C1046 C1051 1.379 . S
C1046 N1053 1.356 . S
C1047 C1046 1.363 . S
C1047 C1050 1.363 . S
N1048 C1050 1.356 1_545 S
N1048 H1060 0.984 . S
N1048 H1061 0.985 . S
N1049 C1051 1.356 . S
N1049 H1054 0.984 . S
N1049 H1055 0.985 . S
C1050 C1044 1.379 . S
C1050 C1047 1.363 . S
C1050 N1048 1.356 1_565 S
C1051 C1045 1.363 . S
C1051 C1046 1.379 . S
C1051 N1049 1.356 . S
N1052 C1044 1.356 . S
N1052 H1058 0.984 . S
N1052 H1059 0.984 . S
N1053 C1046 1.356 . S
N1053 H1056 0.984 . S
N1053 H1057 0.985 . S
H1054 N1049 0.984 . S
H1055 N1049 0.985 . S
H1056 N1053 0.984 . S
H1057 N1053 0.985 . S
H1058 N1052 0.984 . S
H1059 N1052 0.984 . S
H1060 N1048 0.984 . S
H1061 N1048 0.985 . S
C1062 C1063 1.363 . S
C1062 C1068 1.379 . S
C1062 N1070 1.356 . S
C1063 C1062 1.363 . S
C1063 C1069 1.363 . S
C1064 C1065 1.363 . S
C1064 C1069 1.379 . S
C1064 N1071 1.356 . S
C1065 C1064 1.363 . S
C1065 C1068 1.363 . S
N1066 C1068 1.356 . S
N1066 H1078 0.984 . S
N1066 H1079 0.985 . S
N1067 C1069 1.356 . S
N1067 H1072 0.984 . S
N1067 H1073 0.985 . S
C1068 C1062 1.379 . S
C1068 C1065 1.363 . S
C1068 N1066 1.356 . S
C1069 C1063 1.363 . S
C1069 C1064 1.379 . S
C1069 N1067 1.356 . S
N1070 C1062 1.356 . S
N1070 H1076 0.984 . S
N1070 H1077 0.984 . S
N1071 C1064 1.356 . S
N1071 H1074 0.984 . S
N1071 H1075 0.985 . S
H1072 N1067 0.984 . S
H1073 N1067 0.985 . S
H1074 N1071 0.984 . S
H1075 N1071 0.985 . S
H1076 N1070 0.984 . S
H1077 N1070 0.984 . S
H1078 N1066 0.984 . S
H1079 N1066 0.985 . S
C1080 C1081 1.363 . S
C1080 C1086 1.379 . S
C1080 N1088 1.356 . S
C1081 C1080 1.363 . S
C1081 C1087 1.363 . S
C1082 C1083 1.363 . S
C1082 C1087 1.379 . S
C1082 N1089 1.356 . S
C1083 C1082 1.363 . S
C1083 C1086 1.363 . S
N1084 C1086 1.356 . S
N1084 H1096 0.984 . S
N1084 H1097 0.985 . S
N1085 C1087 1.356 . S
N1085 H1090 0.984 . S
N1085 H1091 0.985 . S
C1086 C1080 1.379 . S
C1086 C1083 1.363 . S
C1086 N1084 1.356 . S
C1087 C1081 1.363 . S
C1087 C1082 1.379 . S
C1087 N1085 1.356 . S
N1088 C1080 1.356 . S
N1088 H1094 0.984 . S
N1088 H1095 0.984 . S
N1089 C1082 1.356 . S
N1089 H1092 0.984 . S
N1089 H1093 0.985 . S
H1090 N1085 0.984 . S
H1091 N1085 0.985 . S
H1092 N1089 0.984 . S
H1093 N1089 0.985 . S
H1094 N1088 0.984 . S
H1095 N1088 0.984 . S
H1096 N1084 0.984 . S
H1097 N1084 0.985 . S
C1098 C1099 1.363 . S
C1098 C1104 1.379 . S
C1098 N1106 1.356 . S
C1099 C1098 1.363 . S
C1099 C1105 1.363 . S
C1100 C1101 1.363 . S
C1100 C1105 1.379 . S
C1100 N1107 1.356 . S
C1101 C1100 1.363 . S
C1101 C1104 1.363 . S
N1102 C1104 1.356 . S
N1102 H1114 0.984 . S
N1102 H1115 0.985 . S
N1103 C1105 1.356 . S
N1103 H1108 0.984 . S
N1103 H1109 0.985 . S
C1104 C1098 1.379 . S
C1104 C1101 1.363 . S
C1104 N1102 1.356 . S
C1105 C1099 1.363 . S
C1105 C1100 1.379 . S
C1105 N1103 1.356 . S
N1106 C1098 1.356 . S
N1106 H1112 0.984 . S
N1106 H1113 0.984 . S
N1107 C1100 1.356 . S
N1107 H1110 0.984 . S
N1107 H1111 0.985 . S
H1108 N1103 0.984 . S
H1109 N1103 0.985 . S
H1110 N1107 0.984 . S
H1111 N1107 0.985 . S
H1112 N1106 0.984 . S
H1113 N1106 0.984 . S
H1114 N1102 0.984 . S
H1115 N1102 0.985 . S
C1116 C1117 1.363 . S
C1116 C1122 1.379 1_455 S
C1116 N1124 1.356 1_556 S
C1117 C1116 1.363 . S
C1117 C1123 1.363 . S
C1118 C1119 1.363 . S
C1118 C1123 1.379 1_655 S
C1118 N1125 1.356 . S
C1119 C1118 1.363 . S
C1119 C1122 1.363 . S
N1120 C1122 1.356 . S
N1120 H1132 0.984 . S
N1120 H1133 0.985 . S
N1121 C1123 1.356 . S
N1121 H1126 0.984 . S
N1121 H1127 0.985 . S
C1122 C1116 1.379 1_655 S
C1122 C1119 1.363 . S
C1122 N1120 1.356 . S
C1123 C1117 1.363 . S
C1123 C1118 1.379 1_455 S
C1123 N1121 1.356 . S
N1124 C1116 1.356 1_554 S
N1124 H1130 0.984 . S
N1124 H1131 0.984 . S
N1125 C1118 1.356 . S
N1125 H1128 0.984 . S
N1125 H1129 0.985 . S
H1126 N1121 0.984 . S
H1127 N1121 0.985 . S
H1128 N1125 0.984 . S
H1129 N1125 0.985 . S
H1130 N1124 0.984 . S
H1131 N1124 0.984 . S
H1132 N1120 0.984 . S
H1133 N1120 0.985 . S
C1134 C1135 1.363 . S
C1134 C1140 1.379 . S
C1134 N1142 1.356 . S
C1135 C1134 1.363 . S
C1135 C1141 1.363 . S
C1136 C1137 1.363 . S
C1136 C1141 1.379 . S
C1136 N1143 1.356 . S
C1137 C1136 1.363 . S
C1137 C1140 1.363 . S
N1138 C1140 1.356 . S
N1138 H1150 0.984 . S
N1138 H1151 0.985 . S
N1139 C1141 1.356 . S
N1139 H1144 0.984 . S
N1139 H1145 0.985 . S
C1140 C1134 1.379 . S
C1140 C1137 1.363 . S
C1140 N1138 1.356 . S
C1141 C1135 1.363 . S
C1141 C1136 1.379 . S
C1141 N1139 1.356 . S
N1142 C1134 1.356 . S
N1142 H1148 0.984 . S
N1142 H1149 0.984 . S
N1143 C1136 1.356 . S
N1143 H1146 0.984 . S
N1143 H1147 0.985 . S
H1144 N1139 0.984 . S
H1145 N1139 0.985 . S
H1146 N1143 0.984 . S
H1147 N1143 0.985 . S
H1148 N1142 0.984 . S
H1149 N1142 0.984 . S
H1150 N1138 0.984 . S
H1151 N1138 0.985 . S
C1152 C1153 1.363 . S
C1152 C1158 1.379 . S
C1152 N1160 1.356 . S
C1153 C1152 1.363 . S
C1153 C1159 1.363 . S
C1154 C1155 1.363 . S
C1154 C1159 1.379 . S
C1154 N1161 1.356 . S
C1155 C1154 1.363 . S
C1155 C1158 1.363 . S
N1156 C1158 1.356 . S
N1156 H1168 0.984 . S
N1156 H1169 0.985 . S
N1157 C1159 1.356 . S
N1157 H1162 0.984 . S
N1157 H1163 0.985 . S
C1158 C1152 1.379 . S
C1158 C1155 1.363 . S
C1158 N1156 1.356 . S
C1159 C1153 1.363 . S
C1159 C1154 1.379 . S
C1159 N1157 1.356 . S
N1160 C1152 1.356 . S
N1160 H1166 0.984 . S
N1160 H1167 0.984 . S
N1161 C1154 1.356 . S
N1161 H1164 0.984 . S
N1161 H1165 0.985 . S
H1162 N1157 0.984 . S
H1163 N1157 0.985 . S
H1164 N1161 0.984 . S
H1165 N1161 0.985 . S
H1166 N1160 0.984 . S
H1167 N1160 0.984 . S
H1168 N1156 0.984 . S
H1169 N1156 0.985 . S
C1170 C1171 1.363 . S
C1170 C1176 1.379 . S
C1170 N1178 1.356 . S
C1171 C1170 1.363 . S
C1171 C1177 1.363 . S
C1172 C1173 1.363 . S
C1172 C1177 1.379 . S
C1172 N1179 1.356 . S
C1173 C1172 1.363 . S
C1173 C1176 1.363 . S
N1174 C1176 1.356 . S
N1174 H1186 0.984 . S
N1174 H1187 0.985 . S
N1175 C1177 1.356 . S
N1175 H1180 0.984 . S
N1175 H1181 0.985 . S
C1176 C1170 1.379 . S
C1176 C1173 1.363 . S
C1176 N1174 1.356 . S
C1177 C1171 1.363 . S
C1177 C1172 1.379 . S
C1177 N1175 1.356 . S
N1178 C1170 1.356 . S
N1178 H1184 0.984 . S
N1178 H1185 0.984 . S
N1179 C1172 1.356 . S
N1179 H1182 0.984 . S
N1179 H1183 0.985 . S
H1180 N1175 0.984 . S
H1181 N1175 0.985 . S
H1182 N1179 0.984 . S
H1183 N1179 0.985 . S
H1184 N1178 0.984 . S
H1185 N1178 0.984 . S
H1186 N1174 0.984 . S
H1187 N1174 0.985 . S
C1188 C1189 1.363 1_545 S
C1188 C1194 1.379 . S
C1188 N1196 1.356 . S
C1189 C1188 1.363 1_565 S
C1189 C1195 1.363 . S
C1190 C1191 1.363 1_565 S
C1190 C1195 1.379 . S
C1190 N1197 1.356 . S
C1191 C1190 1.363 1_545 S
C1191 C1194 1.363 . S
N1192 C1194 1.356 . S
N1192 H1204 0.984 . S
N1192 H1205 0.985 . S
N1193 C1195 1.356 . S
N1193 H1198 0.984 . S
N1193 H1199 0.985 . S
C1194 C1188 1.379 . S
C1194 C1191 1.363 . S
C1194 N1192 1.356 . S
C1195 C1189 1.363 . S
C1195 C1190 1.379 . S
C1195 N1193 1.356 . S
N1196 C1188 1.356 . S
N1196 H1202 0.984 . S
N1196 H1203 0.984 1_545 S
N1197 C1190 1.356 . S
N1197 H1200 0.984 . S
N1197 H1201 0.985 . S
H1198 N1193 0.984 . S
H1199 N1193 0.985 . S
H1200 N1197 0.984 . S
H1201 N1197 0.985 . S
H1202 N1196 0.984 . S
H1203 N1196 0.984 1_565 S
H1204 N1192 0.984 . S
H1205 N1192 0.985 . S
C1206 C1207 1.363 . S
C1206 C1212 1.379 . S
C1206 N1214 1.356 . S
C1207 C1206 1.363 . S
C1207 C1213 1.363 . S
C1208 C1209 1.363 . S
C1208 C1213 1.379 . S
C1208 N1215 1.356 . S
C1209 C1208 1.363 . S
C1209 C1212 1.363 . S
N1210 C1212 1.356 . S
N1210 H1222 0.984 . S
N1210 H1223 0.985 . S
N1211 C1213 1.356 . S
N1211 H1216 0.984 . S
N1211 H1217 0.985 . S
C1212 C1206 1.379 . S
C1212 C1209 1.363 . S
C1212 N1210 1.356 . S
C1213 C1207 1.363 . S
C1213 C1208 1.379 . S
C1213 N1211 1.356 . S
N1214 C1206 1.356 . S
N1214 H1220 0.984 . S
N1214 H1221 0.984 . S
N1215 C1208 1.356 . S
N1215 H1218 0.984 . S
N1215 H1219 0.985 . S
H1216 N1211 0.984 . S
H1217 N1211 0.985 . S
H1218 N1215 0.984 . S
H1219 N1215 0.985 . S
H1220 N1214 0.984 . S
H1221 N1214 0.984 . S
H1222 N1210 0.984 . S
H1223 N1210 0.985 . S
C1224 C1225 1.363 . S
C1224 C1230 1.379 . S
C1224 N1232 1.356 . S
C1225 C1224 1.363 . S
C1225 C1231 1.363 . S
C1226 C1227 1.363 . S
C1226 C1231 1.379 . S
C1226 N1233 1.356 . S
C1227 C1226 1.363 . S
C1227 C1230 1.363 . S
N1228 C1230 1.356 . S
N1228 H1240 0.984 . S
N1228 H1241 0.985 . S
N1229 C1231 1.356 1_554 S
N1229 H1234 0.984 . S
N1229 H1235 0.985 . S
C1230 C1224 1.379 . S
C1230 C1227 1.363 . S
C1230 N1228 1.356 . S
C1231 C1225 1.363 . S
C1231 C1226 1.379 . S
C1231 N1229 1.356 1_556 S
N1232 C1224 1.356 . S
N1232 H1238 0.984 . S
N1232 H1239 0.984 . S
N1233 C1226 1.356 . S
N1233 H1236 0.984 . S
N1233 H1237 0.985 . S
H1234 N1229 0.984 . S
H1235 N1229 0.985 . S
H1236 N1233 0.984 . S
H1237 N1233 0.985 . S
H1238 N1232 0.984 . S
H1239 N1232 0.984 . S
H1240 N1228 0.984 . S
H1241 N1228 0.985 . S
C1242 C1243 1.363 . S
C1242 C1248 1.379 . S
C1242 N1250 1.356 . S
C1243 C1242 1.363 . S
C1243 C1249 1.363 . S
C1244 C1245 1.363 . S
C1244 C1249 1.379 . S
C1244 N1251 1.356 . S
C1245 C1244 1.363 . S
C1245 C1248 1.363 . S
N1246 C1248 1.356 . S
N1246 H1258 0.984 . S
N1246 H1259 0.985 . S
N1247 C1249 1.356 . S
N1247 H1252 0.984 . S
N1247 H1253 0.985 . S
C1248 C1242 1.379 . S
C1248 C1245 1.363 . S
C1248 N1246 1.356 . S
C1249 C1243 1.363 . S
C1249 C1244 1.379 . S
C1249 N1247 1.356 . S
N1250 C1242 1.356 . S
N1250 H1256 0.984 . S
N1250 H1257 0.984 . S
N1251 C1244 1.356 . S
N1251 H1254 0.984 . S
N1251 H1255 0.985 . S
H1252 N1247 0.984 . S
H1253 N1247 0.985 . S
H1254 N1251 0.984 . S
H1255 N1251 0.985 . S
H1256 N1250 0.984 . S
H1257 N1250 0.984 . S
H1258 N1246 0.984 . S
H1259 N1246 0.985 . S
C1260 C1261 1.363 . S
C1260 C1266 1.379 . S
C1260 N1268 1.356 . S
C1261 C1260 1.363 . S
C1261 C1267 1.363 . S
C1262 C1263 1.363 . S
C1262 C1267 1.379 . S
C1262 N1269 1.356 . S
C1263 C1262 1.363 . S
C1263 C1266 1.363 . S
N1264 C1266 1.356 . S
N1264 H1276 0.984 . S
N1264 H1277 0.985 . S
N1265 C1267 1.356 . S
N1265 H1270 0.984 . S
N1265 H1271 0.985 . S
C1266 C1260 1.379 . S
C1266 C1263 1.363 . S
C1266 N1264 1.356 . S
C1267 C1261 1.363 . S
C1267 C1262 1.379 . S
C1267 N1265 1.356 . S
N1268 C1260 1.356 . S
N1268 H1274 0.984 . S
N1268 H1275 0.984 . S
N1269 C1262 1.356 . S
N1269 H1272 0.984 . S
N1269 H1273 0.985 . S
H1270 N1265 0.984 . S
H1271 N1265 0.985 . S
H1272 N1269 0.984 . S
H1273 N1269 0.985 . S
H1274 N1268 0.984 . S
H1275 N1268 0.984 . S
H1276 N1264 0.984 . S
H1277 N1264 0.985 . S
C1278 C1279 1.363 . S
C1278 C1284 1.379 . S
C1278 N1286 1.356 . S
C1279 C1278 1.363 . S
C1279 C1285 1.363 . S
C1280 C1281 1.363 . S
C1280 C1285 1.379 . S
C1280 N1287 1.356 . S
C1281 C1280 1.363 . S
C1281 C1284 1.363 . S
N1282 C1284 1.356 . S
N1282 H1294 0.984 . S
N1282 H1295 0.985 . S
N1283 C1285 1.356 . S
N1283 H1288 0.984 . S
N1283 H1289 0.985 . S
C1284 C1278 1.379 . S
C1284 C1281 1.363 . S
C1284 N1282 1.356 . S
C1285 C1279 1.363 . S
C1285 C1280 1.379 . S
C1285 N1283 1.356 . S
N1286 C1278 1.356 . S
N1286 H1292 0.984 . S
N1286 H1293 0.984 . S
N1287 C1280 1.356 . S
N1287 H1290 0.984 . S
N1287 H1291 0.985 . S
H1288 N1283 0.984 . S
H1289 N1283 0.985 . S
H1290 N1287 0.984 . S
H1291 N1287 0.985 . S
H1292 N1286 0.984 . S
H1293 N1286 0.984 . S
H1294 N1282 0.984 . S
H1295 N1282 0.985 . S
C1296 C1297 1.363 . S
C1296 C1302 1.379 . S
C1296 N1304 1.356 . S
C1297 C1296 1.363 . S
C1297 C1303 1.363 . S
C1298 C1299 1.363 . S
C1298 C1303 1.379 . S
C1298 N1305 1.356 . S
C1299 C1298 1.363 . S
C1299 C1302 1.363 . S
N1300 C1302 1.356 . S
N1300 H1312 0.984 . S
N1300 H1313 0.985 . S
N1301 C1303 1.356 . S
N1301 H1306 0.984 . S
N1301 H1307 0.985 . S
C1302 C1296 1.379 . S
C1302 C1299 1.363 . S
C1302 N1300 1.356 . S
C1303 C1297 1.363 . S
C1303 C1298 1.379 . S
C1303 N1301 1.356 . S
N1304 C1296 1.356 . S
N1304 H1310 0.984 . S
N1304 H1311 0.984 . S
N1305 C1298 1.356 . S
N1305 H1308 0.984 . S
N1305 H1309 0.985 . S
H1306 N1301 0.984 . S
H1307 N1301 0.985 . S
H1308 N1305 0.984 . S
H1309 N1305 0.985 . S
H1310 N1304 0.984 . S
H1311 N1304 0.984 . S
H1312 N1300 0.984 . S
H1313 N1300 0.985 . S
C1314 C1315 1.363 . S
C1314 C1320 1.379 1_554 S
C1314 N1322 1.356 . S
C1315 C1314 1.363 . S
C1315 C1321 1.362 1_554 S
C1316 C1317 1.363 . S
C1316 C1321 1.379 . S
C1316 N1323 1.356 . S
C1317 C1316 1.363 . S
C1317 C1320 1.363 . S
N1318 C1320 1.356 . S
N1318 H1330 0.984 . S
N1318 H1331 0.985 . S
N1319 C1321 1.356 1_544 S
N1319 H1324 0.984 . S
N1319 H1325 0.985 . S
C1320 C1314 1.379 1_556 S
C1320 C1317 1.363 . S
C1320 N1318 1.356 . S
C1321 C1315 1.362 1_556 S
C1321 C1316 1.379 . S
C1321 N1319 1.356 1_566 S
N1322 C1314 1.356 . S
N1322 H1328 0.984 . S
N1322 H1329 0.984 . S
N1323 C1316 1.356 . S
N1323 H1326 0.984 . S
N1323 H1327 0.985 . S
H1324 N1319 0.984 . S
H1325 N1319 0.985 . S
H1326 N1323 0.984 . S
H1327 N1323 0.985 . S
H1328 N1322 0.984 . S
H1329 N1322 0.984 . S
H1330 N1318 0.984 . S
H1331 N1318 0.985 . S
C1332 C1333 1.363 . S
C1332 C1338 1.379 . S
C1332 N1340 1.356 . S
C1333 C1332 1.363 . S
C1333 C1339 1.363 . S
C1334 C1335 1.363 . S
C1334 C1339 1.379 . S
C1334 N1341 1.356 . S
C1335 C1334 1.363 . S
C1335 C1338 1.363 . S
N1336 C1338 1.356 . S
N1336 H1348 0.984 . S
N1336 H1349 0.985 . S
N1337 C1339 1.356 . S
N1337 H1342 0.984 . S
N1337 H1343 0.985 . S
C1338 C1332 1.379 . S
C1338 C1335 1.363 . S
C1338 N1336 1.356 . S
C1339 C1333 1.363 . S
C1339 C1334 1.379 . S
C1339 N1337 1.356 . S
N1340 C1332 1.356 . S
N1340 H1346 0.984 . S
N1340 H1347 0.984 . S
N1341 C1334 1.356 . S
N1341 H1344 0.984 . S
N1341 H1345 0.985 . S
H1342 N1337 0.984 . S
H1343 N1337 0.985 . S
H1344 N1341 0.984 . S
H1345 N1341 0.985 . S
H1346 N1340 0.984 . S
H1347 N1340 0.984 . S
H1348 N1336 0.984 . S
H1349 N1336 0.985 . S
C1350 C1351 1.363 . S
C1350 C1356 1.379 . S
C1350 N1358 1.356 . S
C1351 C1350 1.363 . S
C1351 C1357 1.363 . S
C1352 C1353 1.363 . S
C1352 C1357 1.379 . S
C1352 N1359 1.356 . S
C1353 C1352 1.363 . S
C1353 C1356 1.363 . S
N1354 C1356 1.356 . S
N1354 H1366 0.984 . S
N1354 H1367 0.985 . S
N1355 C1357 1.356 1_455 S
N1355 H1360 0.984 . S
N1355 H1361 0.985 . S
C1356 C1350 1.379 . S
C1356 C1353 1.363 . S
C1356 N1354 1.356 . S
C1357 C1351 1.363 . S
C1357 C1352 1.379 . S
C1357 N1355 1.356 1_655 S
N1358 C1350 1.356 . S
N1358 H1364 0.984 . S
N1358 H1365 0.984 . S
N1359 C1352 1.356 . S
N1359 H1362 0.984 . S
N1359 H1363 0.985 . S
H1360 N1355 0.984 . S
H1361 N1355 0.985 . S
H1362 N1359 0.984 . S
H1363 N1359 0.985 . S
H1364 N1358 0.984 . S
H1365 N1358 0.984 . S
H1366 N1354 0.984 . S
H1367 N1354 0.985 . S
C1368 C1369 1.363 . S
C1368 C1374 1.379 . S
C1368 N1376 1.356 . S
C1369 C1368 1.363 . S
C1369 C1375 1.363 . S
C1370 C1371 1.363 . S
C1370 C1375 1.379 . S
C1370 N1377 1.356 . S
C1371 C1370 1.363 . S
C1371 C1374 1.363 . S
N1372 C1374 1.356 . S
N1372 H1384 0.984 . S
N1372 H1385 0.985 . S
N1373 C1375 1.356 . S
N1373 H1378 0.984 . S
N1373 H1379 0.985 . S
C1374 C1368 1.379 . S
C1374 C1371 1.363 . S
C1374 N1372 1.356 . S
C1375 C1369 1.363 . S
C1375 C1370 1.379 . S
C1375 N1373 1.356 . S
N1376 C1368 1.356 . S
N1376 H1382 0.984 . S
N1376 H1383 0.984 . S
N1377 C1370 1.356 . S
N1377 H1380 0.984 . S
N1377 H1381 0.985 . S
H1378 N1373 0.984 . S
H1379 N1373 0.985 . S
H1380 N1377 0.984 . S
H1381 N1377 0.985 . S
H1382 N1376 0.984 . S
H1383 N1376 0.984 . S
H1384 N1372 0.984 . S
H1385 N1372 0.985 . S
C1386 C1387 1.363 . S
C1386 C1392 1.379 . S
C1386 N1394 1.356 . S
C1387 C1386 1.363 . S
C1387 C1393 1.363 . S
C1388 C1389 1.363 . S
C1388 C1393 1.379 . S
C1388 N1395 1.356 . S
C1389 C1388 1.363 . S
C1389 C1392 1.363 . S
N1390 C1392 1.356 . S
N1390 H1402 0.984 . S
N1390 H1403 0.985 . S
N1391 C1393 1.356 . S
N1391 H1396 0.984 . S
N1391 H1397 0.985 . S
C1392 C1386 1.379 . S
C1392 C1389 1.363 . S
C1392 N1390 1.356 . S
C1393 C1387 1.363 . S
C1393 C1388 1.379 . S
C1393 N1391 1.356 . S
N1394 C1386 1.356 . S
N1394 H1400 0.984 . S
N1394 H1401 0.984 . S
N1395 C1388 1.356 . S
N1395 H1398 0.984 . S
N1395 H1399 0.985 . S
H1396 N1391 0.984 . S
H1397 N1391 0.985 . S
H1398 N1395 0.984 . S
H1399 N1395 0.985 . S
H1400 N1394 0.984 . S
H1401 N1394 0.984 . S
H1402 N1390 0.984 . S
H1403 N1390 0.985 . S
C1404 C1405 1.363 . S
C1404 C1410 1.379 . S
C1404 N1412 1.356 . S
C1405 C1404 1.363 . S
C1405 C1411 1.363 . S
C1406 C1407 1.363 . S
C1406 C1411 1.379 . S
C1406 N1413 1.356 . S
C1407 C1406 1.363 . S
C1407 C1410 1.363 . S
N1408 C1410 1.356 . S
N1408 H1420 0.984 . S
N1408 H1421 0.985 . S
N1409 C1411 1.356 . S
N1409 H1414 0.984 . S
N1409 H1415 0.985 . S
C1410 C1404 1.379 . S
C1410 C1407 1.363 . S
C1410 N1408 1.356 . S
C1411 C1405 1.363 . S
C1411 C1406 1.379 . S
C1411 N1409 1.356 . S
N1412 C1404 1.356 . S
N1412 H1418 0.984 . S
N1412 H1419 0.984 . S
N1413 C1406 1.356 . S
N1413 H1416 0.984 . S
N1413 H1417 0.985 . S
H1414 N1409 0.984 . S
H1415 N1409 0.985 . S
H1416 N1413 0.984 . S
H1417 N1413 0.985 . S
H1418 N1412 0.984 . S
H1419 N1412 0.984 . S
H1420 N1408 0.984 . S
H1421 N1408 0.985 . S
C1422 C1423 1.363 . S
C1422 C1428 1.379 . S
C1422 N1430 1.356 . S
C1423 C1422 1.363 . S
C1423 C1429 1.363 . S
C1424 C1425 1.363 . S
C1424 C1429 1.379 . S
C1424 N1431 1.356 . S
C1425 C1424 1.363 . S
C1425 C1428 1.363 . S
N1426 C1428 1.356 . S
N1426 H1438 0.984 . S
N1426 H1439 0.985 . S
N1427 C1429 1.356 . S
N1427 H1432 0.984 . S
N1427 H1433 0.985 . S
C1428 C1422 1.379 . S
C1428 C1425 1.363 . S
C1428 N1426 1.356 . S
C1429 C1423 1.363 . S
C1429 C1424 1.379 . S
C1429 N1427 1.356 . S
N1430 C1422 1.356 . S
N1430 H1436 0.984 . S
N1430 H1437 0.984 . S
N1431 C1424 1.356 . S
N1431 H1434 0.984 . S
N1431 H1435 0.985 . S
H1432 N1427 0.984 . S
H1433 N1427 0.985 . S
H1434 N1431 0.984 . S
H1435 N1431 0.985 . S
H1436 N1430 0.984 . S
H1437 N1430 0.984 . S
H1438 N1426 0.984 . S
H1439 N1426 0.985 . S
C1440 C1441 1.363 . S
C1440 C1446 1.379 . S
C1440 N1448 1.356 . S
C1441 C1440 1.363 . S
C1441 C1447 1.363 . S
C1442 C1443 1.363 . S
C1442 C1447 1.379 . S
C1442 N1449 1.356 . S
C1443 C1442 1.363 . S
C1443 C1446 1.363 . S
N1444 C1446 1.356 1_655 S
N1444 H1456 0.984 . S
N1444 H1457 0.985 . S
N1445 C1447 1.356 . S
N1445 H1450 0.984 . S
N1445 H1451 0.985 . S
C1446 C1440 1.379 . S
C1446 C1443 1.363 . S
C1446 N1444 1.356 1_455 S
C1447 C1441 1.363 . S
C1447 C1442 1.379 . S
C1447 N1445 1.356 . S
N1448 C1440 1.356 . S
N1448 H1454 0.984 . S
N1448 H1455 0.984 . S
N1449 C1442 1.356 . S
N1449 H1452 0.984 . S
N1449 H1453 0.985 . S
H1450 N1445 0.984 . S
H1451 N1445 0.985 . S
H1452 N1449 0.984 . S
H1453 N1449 0.985 . S
H1454 N1448 0.984 . S
H1455 N1448 0.984 . S
H1456 N1444 0.984 . S
H1457 N1444 0.985 . S
C1458 C1459 1.363 . S
C1458 C1464 1.379 . S
C1458 N1466 1.356 . S
C1459 C1458 1.363 . S
C1459 C1465 1.363 . S
C1460 C1461 1.363 . S
C1460 C1465 1.379 . S
C1460 N1467 1.356 . S
C1461 C1460 1.363 . S
C1461 C1464 1.363 . S
N1462 C1464 1.356 1_556 S
N1462 H1474 0.984 . S
N1462 H1475 0.985 . S
N1463 C1465 1.356 . S
N1463 H1468 0.984 . S
N1463 H1469 0.985 . S
C1464 C1458 1.379 . S
C1464 C1461 1.363 . S
C1464 N1462 1.356 1_554 S
C1465 C1459 1.363 . S
C1465 C1460 1.379 . S
C1465 N1463 1.356 . S
N1466 C1458 1.356 . S
N1466 H1472 0.984 . S
N1466 H1473 0.984 . S
N1467 C1460 1.356 . S
N1467 H1470 0.984 . S
N1467 H1471 0.985 . S
H1468 N1463 0.984 . S
H1469 N1463 0.985 . S
H1470 N1467 0.984 . S
H1471 N1467 0.985 . S
H1472 N1466 0.984 . S
H1473 N1466 0.984 . S
H1474 N1462 0.984 . S
H1475 N1462 0.985 . S
C1476 C1477 1.363 . S
C1476 C1482 1.379 . S
C1476 N1484 1.356 . S
C1477 C1476 1.363 . S
C1477 C1483 1.363 . S
C1478 C1479 1.363 . S
C1478 C1483 1.379 . S
C1478 N1485 1.356 . S
C1479 C1478 1.363 . S
C1479 C1482 1.363 . S
N1480 C1482 1.356 . S
N1480 H1492 0.984 . S
N1480 H1493 0.985 . S
N1481 C1483 1.356 . S
N1481 H1486 0.984 . S
N1481 H1487 0.985 . S
C1482 C1476 1.379 . S
C1482 C1479 1.363 . S
C1482 N1480 1.356 . S
C1483 C1477 1.363 . S
C1483 C1478 1.379 . S
C1483 N1481 1.356 . S
N1484 C1476 1.356 . S
N1484 H1490 0.984 . S
N1484 H1491 0.984 . S
N1485 C1478 1.356 . S
N1485 H1488 0.984 . S
N1485 H1489 0.985 . S
H1486 N1481 0.984 . S
H1487 N1481 0.985 . S
H1488 N1485 0.984 . S
H1489 N1485 0.985 . S
H1490 N1484 0.984 . S
H1491 N1484 0.984 . S
H1492 N1480 0.984 . S
H1493 N1480 0.985 . S
C1494 C1495 1.363 . S
C1494 C1500 1.379 . S
C1494 N1502 1.356 . S
C1495 C1494 1.363 . S
C1495 C1501 1.363 . S
C1496 C1497 1.363 . S
C1496 C1501 1.379 . S
C1496 N1503 1.356 . S
C1497 C1496 1.363 . S
C1497 C1500 1.363 . S
N1498 C1500 1.356 . S
N1498 H1510 0.984 . S
N1498 H1511 0.985 . S
N1499 C1501 1.356 . S
N1499 H1504 0.984 . S
N1499 H1505 0.985 . S
C1500 C1494 1.379 . S
C1500 C1497 1.363 . S
C1500 N1498 1.356 . S
C1501 C1495 1.363 . S
C1501 C1496 1.379 . S
C1501 N1499 1.356 . S
N1502 C1494 1.356 . S
N1502 H1508 0.984 . S
N1502 H1509 0.984 . S
N1503 C1496 1.356 . S
N1503 H1506 0.984 . S
N1503 H1507 0.985 . S
H1504 N1499 0.984 . S
H1505 N1499 0.985 . S
H1506 N1503 0.984 . S
H1507 N1503 0.985 . S
H1508 N1502 0.984 . S
H1509 N1502 0.984 . S
H1510 N1498 0.984 . S
H1511 N1498 0.985 . S
C1512 C1513 1.363 . S
C1512 C1518 1.379 . S
C1512 N1520 1.356 . S
C1513 C1512 1.363 . S
C1513 C1519 1.363 . S
C1514 C1515 1.363 . S
C1514 C1519 1.379 . S
C1514 N1521 1.356 . S
C1515 C1514 1.363 . S
C1515 C1518 1.363 . S
N1516 C1518 1.356 . S
N1516 H1528 0.984 . S
N1516 H1529 0.985 . S
N1517 C1519 1.356 . S
N1517 H1522 0.984 . S
N1517 H1523 0.985 . S
C1518 C1512 1.379 . S
C1518 C1515 1.363 . S
C1518 N1516 1.356 . S
C1519 C1513 1.363 . S
C1519 C1514 1.379 . S
C1519 N1517 1.356 . S
N1520 C1512 1.356 . S
N1520 H1526 0.984 . S
N1520 H1527 0.984 . S
N1521 C1514 1.356 . S
N1521 H1524 0.984 . S
N1521 H1525 0.985 . S
H1522 N1517 0.984 . S
H1523 N1517 0.985 . S
H1524 N1521 0.984 . S
H1525 N1521 0.985 . S
H1526 N1520 0.984 . S
H1527 N1520 0.984 . S
H1528 N1516 0.984 . S
H1529 N1516 0.985 . S
C1530 C1531 1.363 . S
C1530 C1536 1.379 . S
C1530 N1538 1.356 . S
C1531 C1530 1.363 . S
C1531 C1537 1.363 . S
C1532 C1533 1.363 . S
C1532 C1537 1.379 . S
C1532 N1539 1.356 . S
C1533 C1532 1.363 . S
C1533 C1536 1.363 . S
N1534 C1536 1.356 . S
N1534 H1546 0.984 . S
N1534 H1547 0.985 . S
N1535 C1537 1.356 . S
N1535 H1540 0.984 . S
N1535 H1541 0.985 . S
C1536 C1530 1.379 . S
C1536 C1533 1.363 . S
C1536 N1534 1.356 . S
C1537 C1531 1.363 . S
C1537 C1532 1.379 . S
C1537 N1535 1.356 . S
N1538 C1530 1.356 . S
N1538 H1544 0.984 . S
N1538 H1545 0.984 . S
N1539 C1532 1.356 . S
N1539 H1542 0.984 . S
N1539 H1543 0.985 . S
H1540 N1535 0.984 . S
H1541 N1535 0.985 . S
H1542 N1539 0.984 . S
H1543 N1539 0.985 . S
H1544 N1538 0.984 . S
H1545 N1538 0.984 . S
H1546 N1534 0.984 . S
H1547 N1534 0.985 . S
C1548 C1549 1.363 . S
C1548 C1554 1.379 . S
C1548 N1556 1.356 . S
C1549 C1548 1.363 . S
C1549 C1555 1.363 . S
C1550 C1551 1.363 . S
C1550 C1555 1.379 . S
C1550 N1557 1.356 . S
C1551 C1550 1.363 . S
C1551 C1554 1.363 . S
N1552 C1554 1.356 . S
N1552 H1564 0.984 . S
N1552 H1565 0.985 . S
N1553 C1555 1.356 . S
N1553 H1558 0.984 . S
N1553 H1559 0.985 . S
C1554 C1548 1.379 . S
C1554 C1551 1.363 . S
C1554 N1552 1.356 . S
C1555 C1549 1.363 . S
C1555 C1550 1.379 . S
C1555 N1553 1.356 . S
N1556 C1548 1.356 . S
N1556 H1562 0.984 . S
N1556 H1563 0.984 . S
N1557 C1550 1.356 . S
N1557 H1560 0.984 . S
N1557 H1561 0.985 . S
H1558 N1553 0.984 . S
H1559 N1553 0.985 . S
H1560 N1557 0.984 . S
H1561 N1557 0.985 . S
H1562 N1556 0.984 . S
H1563 N1556 0.984 . S
H1564 N1552 0.984 . S
H1565 N1552 0.985 . S
C1566 C1567 1.363 . S
C1566 C1572 1.379 . S
C1566 N1574 1.356 . S
C1567 C1566 1.363 . S
C1567 C1573 1.363 . S
C1568 C1569 1.363 . S
C1568 C1573 1.379 . S
C1568 N1575 1.356 . S
C1569 C1568 1.363 . S
C1569 C1572 1.363 . S
N1570 C1572 1.356 . S
N1570 H1582 0.984 . S
N1570 H1583 0.985 . S
N1571 C1573 1.356 . S
N1571 H1576 0.984 . S
N1571 H1577 0.985 . S
C1572 C1566 1.379 . S
C1572 C1569 1.363 . S
C1572 N1570 1.356 . S
C1573 C1567 1.363 . S
C1573 C1568 1.379 . S
C1573 N1571 1.356 . S
N1574 C1566 1.356 . S
N1574 H1580 0.984 . S
N1574 H1581 0.984 . S
N1575 C1568 1.356 . S
N1575 H1578 0.984 . S
N1575 H1579 0.985 . S
H1576 N1571 0.984 . S
H1577 N1571 0.985 . S
H1578 N1575 0.984 . S
H1579 N1575 0.985 . S
H1580 N1574 0.984 . S
H1581 N1574 0.984 . S
H1582 N1570 0.984 . S
H1583 N1570 0.985 . S
C1584 C1585 1.363 . S
C1584 C1590 1.379 . S
C1584 N1592 1.356 . S
C1585 C1584 1.363 . S
C1585 C1591 1.363 . S
C1586 C1587 1.363 . S
C1586 C1591 1.379 . S
C1586 N1593 1.356 . S
C1587 C1586 1.363 . S
C1587 C1590 1.363 . S
N1588 C1590 1.356 . S
N1588 H1600 0.984 . S
N1588 H1601 0.985 . S
N1589 C1591 1.356 1_565 S
N1589 H1594 0.984 . S
N1589 H1595 0.985 . S
C1590 C1584 1.379 . S
C1590 C1587 1.363 . S
C1590 N1588 1.356 . S
C1591 C1585 1.363 . S
C1591 C1586 1.379 . S
C1591 N1589 1.356 1_545 S
N1592 C1584 1.356 . S
N1592 H1598 0.984 . S
N1592 H1599 0.984 . S
N1593 C1586 1.356 . S
N1593 H1596 0.984 . S
N1593 H1597 0.995 . S
H1594 N1589 0.984 . S
H1595 N1589 0.985 . S
H1596 N1593 0.984 . S
H1597 N1593 0.995 . S
H1598 N1592 0.984 . S
H1599 N1592 0.984 . S
H1600 N1588 0.984 . S
H1601 N1588 0.985 . S
C1602 C1603 1.363 . S
C1602 C1608 1.379 . S
C1602 N1610 1.356 . S
C1603 C1602 1.363 . S
C1603 C1609 1.363 . S
C1604 C1605 1.363 . S
C1604 C1609 1.379 . S
C1604 N1611 1.356 . S
C1605 C1604 1.363 . S
C1605 C1608 1.363 . S
N1606 C1608 1.356 . S
N1606 H1618 0.984 . S
N1606 H1619 0.985 . S
N1607 C1609 1.356 . S
N1607 H1612 0.984 . S
N1607 H1613 0.985 . S
C1608 C1602 1.379 . S
C1608 C1605 1.363 . S
C1608 N1606 1.356 . S
C1609 C1603 1.363 . S
C1609 C1604 1.379 . S
C1609 N1607 1.356 . S
N1610 C1602 1.356 . S
N1610 H1616 0.984 . S
N1610 H1617 0.984 . S
N1611 C1604 1.356 . S
N1611 H1614 0.984 . S
N1611 H1615 0.985 . S
H1612 N1607 0.984 . S
H1613 N1607 0.985 . S
H1614 N1611 0.984 . S
H1615 N1611 0.985 . S
H1616 N1610 0.984 . S
H1617 N1610 0.984 . S
H1618 N1606 0.984 . S
H1619 N1606 0.985 . S
C1620 C1621 1.363 . S
C1620 C1626 1.379 . S
C1620 N1628 1.356 . S
C1621 C1620 1.363 . S
C1621 C1627 1.363 . S
C1622 C1623 1.363 . S
C1622 C1627 1.379 . S
C1622 N1629 1.356 . S
C1623 C1622 1.363 . S
C1623 C1626 1.363 . S
N1624 C1626 1.356 . S
N1624 H1636 0.984 . S
N1624 H1637 0.985 . S
N1625 C1627 1.356 1_565 S
N1625 H1630 0.984 . S
N1625 H1631 0.985 . S
C1626 C1620 1.379 . S
C1626 C1623 1.363 . S
C1626 N1624 1.356 . S
C1627 C1621 1.363 . S
C1627 C1622 1.379 . S
C1627 N1625 1.356 1_545 S
N1628 C1620 1.356 . S
N1628 H1634 0.984 . S
N1628 H1635 0.984 . S
N1629 C1622 1.356 . S
N1629 H1632 0.984 . S
N1629 H1633 0.985 1_545 S
H1630 N1625 0.984 . S
H1631 N1625 0.985 . S
H1632 N1629 0.984 . S
H1633 N1629 0.985 1_565 S
H1634 N1628 0.984 . S
H1635 N1628 0.984 . S
H1636 N1624 0.984 . S
H1637 N1624 0.985 . S
C1638 C1639 1.363 . S
C1638 C1644 1.379 . S
C1638 N1646 1.356 . S
C1639 C1638 1.363 . S
C1639 C1645 1.363 . S
C1640 C1641 1.363 . S
C1640 C1645 1.379 . S
C1640 N1647 1.356 . S
C1641 C1640 1.363 . S
C1641 C1644 1.363 . S
N1642 C1644 1.356 . S
N1642 H1654 0.984 . S
N1642 H1655 0.985 . S
N1643 C1645 1.356 . S
N1643 H1648 0.984 . S
N1643 H1649 0.985 . S
C1644 C1638 1.379 . S
C1644 C1641 1.363 . S
C1644 N1642 1.356 . S
C1645 C1639 1.363 . S
C1645 C1640 1.379 . S
C1645 N1643 1.356 . S
N1646 C1638 1.356 . S
N1646 H1652 0.984 . S
N1646 H1653 0.984 . S
N1647 C1640 1.356 . S
N1647 H1650 0.984 . S
N1647 H1651 0.985 . S
H1648 N1643 0.984 . S
H1649 N1643 0.985 . S
H1650 N1647 0.984 . S
H1651 N1647 0.985 . S
H1652 N1646 0.984 . S
H1653 N1646 0.984 . S
H1654 N1642 0.984 . S
H1655 N1642 0.985 . S
C1656 C1657 1.363 . S
C1656 C1662 1.379 . S
C1656 N1664 1.356 . S
C1657 C1656 1.363 . S
C1657 C1663 1.363 . S
C1658 C1659 1.363 . S
C1658 C1663 1.379 . S
C1658 N1665 1.356 . S
C1659 C1658 1.363 . S
C1659 C1662 1.363 . S
N1660 C1662 1.356 . S
N1660 H1672 0.981 1_545 S
N1660 H1673 0.985 . S
N1661 C1663 1.356 . S
N1661 H1666 0.984 . S
N1661 H1667 0.985 . S
C1662 C1656 1.379 . S
C1662 C1659 1.363 . S
C1662 N1660 1.356 . S
C1663 C1657 1.363 . S
C1663 C1658 1.379 . S
C1663 N1661 1.356 . S
N1664 C1656 1.356 . S
N1664 H1670 0.984 . S
N1664 H1671 0.984 . S
N1665 C1658 1.356 . S
N1665 H1668 0.984 . S
N1665 H1669 0.985 . S
H1666 N1661 0.984 . S
H1667 N1661 0.985 . S
H1668 N1665 0.984 . S
H1669 N1665 0.985 . S
H1670 N1664 0.984 . S
H1671 N1664 0.984 . S
H1672 N1660 0.981 1_565 S
H1673 N1660 0.985 . S
C1674 C1675 1.363 . S
C1674 C1680 1.379 . S
C1674 N1682 1.356 1_554 S
C1675 C1674 1.363 . S
C1675 C1681 1.363 . S
C1676 C1677 1.363 . S
C1676 C1681 1.379 . S
C1676 N1683 1.356 . S
C1677 C1676 1.363 . S
C1677 C1680 1.363 . S
N1678 C1680 1.356 . S
N1678 H1690 0.984 1_554 S
N1678 H1691 0.985 . S
N1679 C1681 1.356 . S
N1679 H1684 0.984 . S
N1679 H1685 0.985 . S
C1680 C1674 1.379 . S
C1680 C1677 1.363 . S
C1680 N1678 1.356 . S
C1681 C1675 1.363 . S
C1681 C1676 1.379 . S
C1681 N1679 1.356 . S
N1682 C1674 1.356 1_556 S
N1682 H1688 0.984 . S
N1682 H1689 0.984 . S
N1683 C1676 1.356 . S
N1683 H1686 0.984 . S
N1683 H1687 0.985 . S
H1684 N1679 0.984 . S
H1685 N1679 0.985 . S
H1686 N1683 0.984 . S
H1687 N1683 0.985 . S
H1688 N1682 0.984 . S
H1689 N1682 0.984 . S
H1690 N1678 0.984 1_556 S
H1691 N1678 0.985 . S
C1692 C1693 1.363 . S
C1692 C1698 1.379 . S
C1692 N1700 1.356 . S
C1693 C1692 1.363 . S
C1693 C1699 1.363 . S
C1694 C1695 1.363 . S
C1694 C1699 1.379 . S
C1694 N1701 1.356 . S
C1695 C1694 1.363 . S
C1695 C1698 1.363 . S
N1696 C1698 1.356 . S
N1696 H1708 0.984 . S
N1696 H1709 0.985 . S
N1697 C1699 1.356 . S
N1697 H1702 0.984 . S
N1697 H1703 0.985 . S
C1698 C1692 1.379 . S
C1698 C1695 1.363 . S
C1698 N1696 1.356 . S
C1699 C1693 1.363 . S
C1699 C1694 1.379 . S
C1699 N1697 1.356 . S
N1700 C1692 1.356 . S
N1700 H1706 0.984 . S
N1700 H1707 0.984 . S
N1701 C1694 1.356 . S
N1701 H1704 0.984 . S
N1701 H1705 0.985 . S
H1702 N1697 0.984 . S
H1703 N1697 0.985 . S
H1704 N1701 0.984 . S
H1705 N1701 0.985 . S
H1706 N1700 0.984 . S
H1707 N1700 0.984 . S
H1708 N1696 0.984 . S
H1709 N1696 0.985 . S
C1710 C1711 1.363 . S
C1710 C1716 1.379 . S
C1710 N1718 1.356 . S
C1711 C1710 1.363 . S
C1711 C1717 1.363 . S
C1712 C1713 1.363 . S
C1712 C1717 1.379 . S
C1712 N1719 1.356 . S
C1713 C1712 1.363 . S
C1713 C1716 1.363 . S
N1714 C1716 1.356 . S
N1714 H1726 0.984 . S
N1714 H1727 0.985 . S
N1715 C1717 1.356 . S
N1715 H1720 0.984 . S
N1715 H1721 0.985 . S
C1716 C1710 1.379 . S
C1716 C1713 1.363 . S
C1716 N1714 1.356 . S
C1717 C1711 1.363 . S
C1717 C1712 1.379 . S
C1717 N1715 1.356 . S
N1718 C1710 1.356 . S
N1718 H1724 0.984 . S
N1718 H1725 0.984 . S
N1719 C1712 1.356 . S
N1719 H1722 0.984 . S
N1719 H1723 0.985 . S
H1720 N1715 0.984 . S
H1721 N1715 0.985 . S
H1722 N1719 0.984 . S
H1723 N1719 0.985 . S
H1724 N1718 0.984 . S
H1725 N1718 0.984 . S
H1726 N1714 0.984 . S
H1727 N1714 0.985 . S
C1728 C1729 1.363 . S
C1728 C1734 1.379 . S
C1728 N1736 1.356 . S
C1729 C1728 1.363 . S
C1729 C1735 1.363 . S
C1730 C1731 1.363 . S
C1730 C1735 1.379 . S
C1730 N1737 1.356 . S
C1731 C1730 1.363 . S
C1731 C1734 1.363 . S
N1732 C1734 1.356 . S
N1732 H1744 0.984 . S
N1732 H1745 0.985 . S
N1733 C1735 1.356 . S
N1733 H1738 0.984 . S
N1733 H1739 0.985 . S
C1734 C1728 1.379 . S
C1734 C1731 1.363 . S
C1734 N1732 1.356 . S
C1735 C1729 1.363 . S
C1735 C1730 1.379 . S
C1735 N1733 1.356 . S
N1736 C1728 1.356 . S
N1736 H1742 0.984 . S
N1736 H1743 0.984 . S
N1737 C1730 1.356 . S
N1737 H1740 0.984 . S
N1737 H1741 0.985 . S
H1738 N1733 0.984 . S
H1739 N1733 0.985 . S
H1740 N1737 0.984 . S
H1741 N1737 0.985 . S
H1742 N1736 0.984 . S
H1743 N1736 0.984 . S
H1744 N1732 0.984 . S
H1745 N1732 0.985 . S
C1746 C1747 1.363 . S
C1746 C1752 1.379 . S
C1746 N1754 1.356 . S
C1747 C1746 1.363 . S
C1747 C1753 1.363 . S
C1748 C1749 1.363 . S
C1748 C1753 1.379 . S
C1748 N1755 1.356 . S
C1749 C1748 1.363 . S
C1749 C1752 1.363 . S
N1750 C1752 1.356 . S
N1750 H1762 0.984 . S
N1750 H1763 0.985 . S
N1751 C1753 1.356 . S
N1751 H1756 0.984 . S
N1751 H1757 0.985 . S
C1752 C1746 1.379 . S
C1752 C1749 1.363 . S
C1752 N1750 1.356 . S
C1753 C1747 1.363 . S
C1753 C1748 1.379 . S
C1753 N1751 1.356 . S
N1754 C1746 1.356 . S
N1754 H1760 0.984 . S
N1754 H1761 0.984 . S
N1755 C1748 1.356 . S
N1755 H1758 0.984 . S
N1755 H1759 0.985 . S
H1756 N1751 0.984 . S
H1757 N1751 0.985 . S
H1758 N1755 0.984 . S
H1759 N1755 0.985 . S
H1760 N1754 0.984 . S
H1761 N1754 0.984 . S
H1762 N1750 0.984 . S
H1763 N1750 0.985 . S
C1764 C1765 1.363 . S
C1764 C1770 1.379 . S
C1764 N1772 1.356 . S
C1765 C1764 1.363 . S
C1765 C1771 1.363 . S
C1766 C1767 1.363 . S
C1766 C1771 1.379 . S
C1766 N1773 1.356 . S
C1767 C1766 1.363 . S
C1767 C1770 1.363 . S
N1768 C1770 1.356 . S
N1768 H1780 0.984 . S
N1768 H1781 0.985 . S
N1769 C1771 1.356 . S
N1769 H1774 0.984 . S
N1769 H1775 0.985 . S
C1770 C1764 1.379 . S
C1770 C1767 1.363 . S
C1770 N1768 1.356 . S
C1771 C1765 1.363 . S
C1771 C1766 1.379 . S
C1771 N1769 1.356 . S
N1772 C1764 1.356 . S
N1772 H1778 0.984 . S
N1772 H1779 0.984 . S
N1773 C1766 1.356 . S
N1773 H1776 0.984 . S
N1773 H1777 0.985 . S
H1774 N1769 0.984 . S
H1775 N1769 0.985 . S
H1776 N1773 0.984 . S
H1777 N1773 0.985 . S
H1778 N1772 0.984 . S
H1779 N1772 0.984 . S
H1780 N1768 0.984 . S
H1781 N1768 0.985 . S
C1782 C1783 1.363 . S
C1782 C1788 1.379 . S
C1782 N1790 1.356 . S
C1783 C1782 1.363 . S
C1783 C1789 1.363 . S
C1784 C1785 1.363 . S
C1784 C1789 1.379 . S
C1784 N1791 1.366 . S
C1785 C1784 1.363 . S
C1785 C1788 1.363 . S
N1786 C1788 1.356 . S
N1786 H1798 0.984 . S
N1786 H1799 0.985 . S
N1787 C1789 1.356 1_556 S
N1787 H1792 0.984 . S
N1787 H1793 0.985 . S
C1788 C1782 1.379 . S
C1788 C1785 1.363 . S
C1788 N1786 1.356 . S
C1789 C1783 1.363 . S
C1789 C1784 1.379 . S
C1789 N1787 1.356 1_554 S
N1790 C1782 1.356 . S
N1790 H1796 0.984 . S
N1790 H1797 0.984 . S
N1791 C1784 1.366 . S
N1791 H1794 0.997 . S
N1791 H1795 0.963 1_554 S
H1792 N1787 0.984 . S
H1793 N1787 0.985 . S
H1794 N1791 0.997 . S
H1795 N1791 0.963 1_556 S
H1796 N1790 0.984 . S
H1797 N1790 0.984 . S
H1798 N1786 0.984 . S
H1799 N1786 0.985 . S
C1800 C1801 1.363 . S
C1800 C1806 1.379 . S
C1800 N1808 1.356 . S
C1801 C1800 1.363 . S
C1801 C1807 1.363 . S
C1802 C1803 1.363 1_655 S
C1802 C1807 1.379 1_655 S
C1802 N1809 1.356 . S
C1803 C1802 1.363 1_455 S
C1803 C1806 1.363 . S
N1804 C1806 1.356 . S
N1804 H1816 0.984 . S
N1804 H1817 0.985 . S
N1805 C1807 1.356 1_655 S
N1805 H1810 0.984 1_655 S
N1805 H1811 0.985 . S
C1806 C1800 1.379 . S
C1806 C1803 1.363 . S
C1806 N1804 1.356 . S
C1807 C1801 1.363 . S
C1807 C1802 1.379 1_455 S
C1807 N1805 1.356 1_455 S
N1808 C1800 1.356 . S
N1808 H1814 0.984 . S
N1808 H1815 0.984 . S
N1809 C1802 1.356 . S
N1809 H1812 0.984 . S
N1809 H1813 0.985 . S
H1810 N1805 0.984 1_455 S
H1811 N1805 0.985 . S
H1812 N1809 0.984 . S
H1813 N1809 0.985 . S
H1814 N1808 0.984 . S
H1815 N1808 0.984 . S
H1816 N1804 0.984 . S
H1817 N1804 0.985 . S
C1818 C1819 1.363 . S
C1818 C1824 1.379 . S
C1818 N1826 1.356 . S
C1819 C1818 1.363 . S
C1819 C1825 1.363 . S
C1820 C1821 1.363 . S
C1820 C1825 1.379 . S
C1820 N1827 1.356 . S
C1821 C1820 1.363 . S
C1821 C1824 1.363 . S
N1822 C1824 1.356 . S
N1822 H1834 0.984 . S
N1822 H1835 0.985 . S
N1823 C1825 1.356 . S
N1823 H1828 0.984 . S
N1823 H1829 0.985 . S
C1824 C1818 1.379 . S
C1824 C1821 1.363 . S
C1824 N1822 1.356 . S
C1825 C1819 1.363 . S
C1825 C1820 1.379 . S
C1825 N1823 1.356 . S
N1826 C1818 1.356 . S
N1826 H1832 0.984 . S
N1826 H1833 0.984 . S
N1827 C1820 1.356 . S
N1827 H1830 0.984 . S
N1827 H1831 0.985 . S
H1828 N1823 0.984 . S
H1829 N1823 0.985 . S
H1830 N1827 0.984 . S
H1831 N1827 0.985 . S
H1832 N1826 0.984 . S
H1833 N1826 0.984 . S
H1834 N1822 0.984 . S
H1835 N1822 0.985 . S
C1836 C1837 1.363 . S
C1836 C1842 1.379 . S
C1836 N1844 1.356 . S
C1837 C1836 1.363 . S
C1837 C1843 1.363 . S
C1838 C1839 1.363 . S
C1838 C1843 1.379 . S
C1838 N1845 1.356 . S
C1839 C1838 1.363 . S
C1839 C1842 1.363 . S
N1840 C1842 1.356 . S
N1840 H1852 0.984 . S
N1840 H1853 0.985 . S
N1841 C1843 1.356 . S
N1841 H1846 0.984 . S
N1841 H1847 0.985 . S
C1842 C1836 1.379 . S
C1842 C1839 1.363 . S
C1842 N1840 1.356 . S
C1843 C1837 1.363 . S
C1843 C1838 1.379 . S
C1843 N1841 1.356 . S
N1844 C1836 1.356 . S
N1844 H1850 0.984 . S
N1844 H1851 0.984 . S
N1845 C1838 1.356 . S
N1845 H1848 0.984 . S
N1845 H1849 0.985 . S
H1846 N1841 0.984 . S
H1847 N1841 0.985 . S
H1848 N1845 0.984 . S
H1849 N1845 0.985 . S
H1850 N1844 0.984 . S
H1851 N1844 0.984 . S
H1852 N1840 0.984 . S
H1853 N1840 0.985 . S
C1854 C1855 1.363 . S
C1854 C1860 1.379 . S
C1854 N1862 1.356 . S
C1855 C1854 1.363 . S
C1855 C1861 1.363 . S
C1856 C1857 1.363 . S
C1856 C1861 1.379 . S
C1856 N1863 1.356 . S
C1857 C1856 1.363 . S
C1857 C1860 1.363 . S
N1858 C1860 1.356 . S
N1858 H1870 0.984 . S
N1858 H1871 0.985 . S
N1859 C1861 1.356 . S
N1859 H1864 0.984 . S
N1859 H1865 0.985 . S
C1860 C1854 1.379 . S
C1860 C1857 1.363 . S
C1860 N1858 1.356 . S
C1861 C1855 1.363 . S
C1861 C1856 1.379 . S
C1861 N1859 1.356 . S
N1862 C1854 1.356 . S
N1862 H1868 0.984 . S
N1862 H1869 0.984 . S
N1863 C1856 1.356 . S
N1863 H1866 0.984 . S
N1863 H1867 0.985 . S
H1864 N1859 0.984 . S
H1865 N1859 0.985 . S
H1866 N1863 0.984 . S
H1867 N1863 0.985 . S
H1868 N1862 0.984 . S
H1869 N1862 0.984 . S
H1870 N1858 0.984 . S
H1871 N1858 0.985 . S
C793 C21 1.272 . S
C795 C681 1.272 . S
C811 C582 1.271 . S
C813 C54 1.271 . S
C829 C615 1.272 . S
C831 C87 1.272 . S
C847 C648 1.272 . S
C849 C120 1.272 . S
C865 C153 1.272 . S
C867 C780 1.272 . S
C883 C714 1.272 . S
C885 C186 1.272 . S
C901 C747 1.271 . S
C903 C219 1.271 . S
C919 C549 1.272 . S
C921 C252 1.272 . S
C937 C285 1.272 . S
C939 C516 1.272 . S
C955 C417 1.272 . S
C957 C318 1.272 . S
C973 C351 1.271 . S
C975 C450 1.271 . S
C991 C483 1.272 . S
C993 C384 1.272 . S
C1009 C634 1.871 . S
C1011 N13 1.437 . S
C1027 N46 1.437 . S
C1029 C667 1.871 . S
C1045 C568 1.871 . S
C1047 N79 1.437 . S
C1063 N112 1.437 . S
C1065 C601 1.871 . S
C1081 C700 1.871 . S
C1083 N145 1.437 . S
C1099 C733 1.872 . S
C1101 N178 1.438 . S
C1117 C535 1.871 . S
C1119 N211 1.437 . S
C1135 N244 1.437 . S
C1137 C766 1.871 . S
C1153 N277 1.437 . S
C1155 C73 1.871 . S
C1171 N310 1.437 . S
C1173 C106 1.871 . S
C1189 N343 1.437 . S
C1191 C7 1.871 . S
C1207 C40 1.872 . S
C1209 N376 1.438 . S
C1225 N409 1.437 . S
C1227 C205 1.871 . S
C1243 C238 1.871 . S
C1245 N442 1.437 . S
C1261 C139 1.871 . S
C1263 N475 1.437 . S
C1279 C172 1.871 . S
C1281 N508 1.437 . S
C1297 C403 1.871 . S
C1299 N541 1.437 . S
C1315 C271 1.871 . S
C1317 N574 1.437 . S
C1333 N607 1.437 . S
C1335 C304 1.871 . S
C1351 N640 1.437 . S
C1353 C337 1.871 . S
C1369 C370 1.871 . S
C1371 N673 1.437 . S
C1387 N706 1.437 . S
C1389 C469 1.871 . S
C1405 C502 1.871 . S
C1407 N739 1.437 . S
C1423 N772 1.438 . S
C1425 C436 1.872 . S
C1441 C18 1.409 . S
C1443 C744 1.410 . S
C1459 C546 1.409 . S
C1461 C51 1.410 . S
C1477 C84 1.410 . S
C1479 C777 1.410 . S
C1495 C711 1.409 . S
C1497 C117 1.409 . S
C1513 C150 1.409 . S
C1515 C612 1.409 . S
C1531 C645 1.410 . S
C1533 C183 1.410 . S
C1549 C216 1.409 . S
C1551 C678 1.409 . S
C1567 C579 1.409 . S
C1569 C249 1.409 . S
C1585 C447 1.410 . S
C1587 C282 1.409 . S
C1603 C480 1.409 . S
C1605 C315 1.409 . S
C1621 C348 1.409 . S
C1623 C513 1.409 . S
C1639 C381 1.410 . S
C1641 C414 1.410 . S
C1657 N497 0.756 . S
C1659 N2 0.756 . S
C1675 N35 0.756 . S
C1677 N398 0.756 . S
C1693 N431 0.756 . S
C1695 N68 0.756 . S
C1711 N464 0.756 . S
C1713 N101 0.756 . S
C1729 N134 0.756 . S
C1731 N299 0.756 . S
C1747 N332 0.756 . S
C1749 N167 0.756 . S
C1765 N200 0.756 . S
C1767 N365 0.756 . S
C1783 N266 0.756 . S
C1785 N233 0.756 . S
C1801 N662 0.756 . S
C1803 N530 0.756 . S
C1819 N761 0.756 . S
C1821 N563 0.756 . S
C1837 N695 0.756 . S
C1839 N596 0.756 . S
C1855 N728 0.756 . S
C1857 N629 0.756 . S
