# Generated by pormake.
# Topology wkj, (6)-cn, num edge types: 1
# Building blocks:
#     Node 0, Type 0, BuildingBlock: BETDAH_clean_sbu_0, # of connection points: 6
#     Node 1, Type 0, BuildingBlock: BETDAH_clean_sbu_0, # of connection points: 6
#     Node 2, Type 0, BuildingBlock: BETDAH_clean_sbu_0, # of connection points: 6
#     Node 3, Type 0, BuildingBlock: BETDAH_clean_sbu_0, # of connection points: 6
#     Node 4, Type 0, BuildingBlock: BETDAH_clean_sbu_0, # of connection points: 6
#     Node 5, Type 0, BuildingBlock: BETDAH_clean_sbu_0, # of connection points: 6
#     Node 6, Type 0, BuildingBlock: BETDAH_clean_sbu_0, # of connection points: 6
#     Node 7, Type 0, BuildingBlock: BETDAH_clean_sbu_0, # of connection points: 6
#     Node 8, Type 0, BuildingBlock: BETDAH_clean_sbu_0, # of connection points: 6
#     Node 9, Type 0, BuildingBlock: BETDAH_clean_sbu_0, # of connection points: 6
#     Node 10, Type 0, BuildingBlock: BETDAH_clean_sbu_0, # of connection points: 6
#     Node 11, Type 0, BuildingBlock: BETDAH_clean_sbu_0, # of connection points: 6
#     Edge 12, Type (0, 0), BuildingBlock: UVAHIK_clean_linker_0, # of connection points: 2
#     Edge 13, Type (0, 0), BuildingBlock: UVAHIK_clean_linker_0, # of connection points: 2
#     Edge 14, Type (0, 0), BuildingBlock: UVAHIK_clean_linker_0, # of connection points: 2
#     Edge 15, Type (0, 0), BuildingBlock: UVAHIK_clean_linker_0, # of connection points: 2
#     Edge 16, Type (0, 0), BuildingBlock: UVAHIK_clean_linker_0, # of connection points: 2
#     Edge 17, Type (0, 0), BuildingBlock: UVAHIK_clean_linker_0, # of connection points: 2
#     Edge 18, Type (0, 0), BuildingBlock: UVAHIK_clean_linker_0, # of connection points: 2
#     Edge 19, Type (0, 0), BuildingBlock: UVAHIK_clean_linker_0, # of connection points: 2
#     Edge 20, Type (0, 0), BuildingBlock: UVAHIK_clean_linker_0, # of connection points: 2
#     Edge 21, Type (0, 0), BuildingBlock: UVAHIK_clean_linker_0, # of connection points: 2
#     Edge 22, Type (0, 0), BuildingBlock: UVAHIK_clean_linker_0, # of connection points: 2
#     Edge 23, Type (0, 0), BuildingBlock: UVAHIK_clean_linker_0, # of connection points: 2
#     Edge 24, Type (0, 0), BuildingBlock: UVAHIK_clean_linker_0, # of connection points: 2
#     Edge 25, Type (0, 0), BuildingBlock: UVAHIK_clean_linker_0, # of connection points: 2
#     Edge 26, Type (0, 0), BuildingBlock: UVAHIK_clean_linker_0, # of connection points: 2
#     Edge 27, Type (0, 0), BuildingBlock: UVAHIK_clean_linker_0, # of connection points: 2
#     Edge 28, Type (0, 0), BuildingBlock: UVAHIK_clean_linker_0, # of connection points: 2
#     Edge 29, Type (0, 0), BuildingBlock: UVAHIK_clean_linker_0, # of connection points: 2
#     Edge 30, Type (0, 0), BuildingBlock: UVAHIK_clean_linker_0, # of connection points: 2
#     Edge 31, Type (0, 0), BuildingBlock: UVAHIK_clean_linker_0, # of connection points: 2
#     Edge 32, Type (0, 0), BuildingBlock: UVAHIK_clean_linker_0, # of connection points: 2
#     Edge 33, Type (0, 0), BuildingBlock: UVAHIK_clean_linker_0, # of connection points: 2
#     Edge 34, Type (0, 0), BuildingBlock: UVAHIK_clean_linker_0, # of connection points: 2
#     Edge 35, Type (0, 0), BuildingBlock: UVAHIK_clean_linker_0, # of connection points: 2
#     Edge 36, Type (0, 0), BuildingBlock: UVAHIK_clean_linker_0, # of connection points: 2
#     Edge 37, Type (0, 0), BuildingBlock: UVAHIK_clean_linker_0, # of connection points: 2
#     Edge 38, Type (0, 0), BuildingBlock: UVAHIK_clean_linker_0, # of connection points: 2
#     Edge 39, Type (0, 0), BuildingBlock: UVAHIK_clean_linker_0, # of connection points: 2
#     Edge 40, Type (0, 0), BuildingBlock: UVAHIK_clean_linker_0, # of connection points: 2
#     Edge 41, Type (0, 0), BuildingBlock: UVAHIK_clean_linker_0, # of connection points: 2
#     Edge 42, Type (0, 0), BuildingBlock: UVAHIK_clean_linker_0, # of connection points: 2
#     Edge 43, Type (0, 0), BuildingBlock: UVAHIK_clean_linker_0, # of connection points: 2
#     Edge 44, Type (0, 0), BuildingBlock: UVAHIK_clean_linker_0, # of connection points: 2
#     Edge 45, Type (0, 0), BuildingBlock: UVAHIK_clean_linker_0, # of connection points: 2
#     Edge 46, Type (0, 0), BuildingBlock: UVAHIK_clean_linker_0, # of connection points: 2
#     Edge 47, Type (0, 0), BuildingBlock: UVAHIK_clean_linker_0, # of connection points: 2
# Relax obj value: 0.568
# Max RMSD: 0.172
# Mean RMSD: 0.172
data_MOF--net-wkj--node1-BETDAH_clean_sbu_0--edge1-UVAHIK_clean_linker_0
_symmetry_space_group_name_H-M    P1
_symmetry_Int_Tables_number       1
_symmetry_cell_setting            triclinic
loop_
_symmetry_equiv_pos_as_xyz
'x, y, z'
_cell_length_a     61.676943
_cell_length_b     61.296506
_cell_length_c     38.010634
_cell_angle_alpha  90.36959
_cell_angle_beta   89.795828
_cell_angle_gamma 120.34747
loop_
_atom_site_label
_atom_site_type_symbol
_atom_site_fract_x
_atom_site_fract_y
_atom_site_fract_z
_atom_type_partial_charge
Ho0 Ho 0.46289 0.09185 0.35108 0.0
Ho1 Ho 0.51256 0.10182 0.33157 0.0
C2 C 0.50233 0.10483 0.41715 0.0
C3 C 0.41557 0.07516 0.36198 0.0
C4 C 0.3994 0.07141 0.39235 0.0
C5 C 0.40652 0.0684 0.4261 0.0
C6 C 0.3907 0.0643 0.4547 0.0
C7 C 0.36761 0.0634 0.4501 0.0
C8 C 0.36081 0.06691 0.41623 0.0
C9 C 0.37663 0.07088 0.38757 0.0
C10 C 0.49395 0.14111 0.3337 0.0
C11 C 0.47256 0.07507 0.27062 0.0
C12 C 0.56045 0.12834 0.32163 0.0
C13 C 0.57584 0.14891 0.2972 0.0
C14 C 0.59719 0.17071 0.3099 0.0
C15 C 0.60911 0.19255 0.28938 0.0
C16 C 0.59978 0.19288 0.25583 0.0
C17 C 0.57911 0.17054 0.24262 0.0
C18 C 0.56711 0.14886 0.26321 0.0
C19 C 0.48101 0.05395 0.35534 0.0
O20 O 0.47821 0.09582 0.40832 0.0
O21 O 0.51889 0.11 0.39134 0.0
O22 O 0.43171 0.0986 0.3543 0.0
O23 O 0.42535 0.06062 0.36017 0.0
O24 O 0.47984 0.13313 0.3614 0.0
O25 O 0.49212 0.12214 0.31688 0.0
O26 O 0.49685 0.09001 0.27658 0.0
O27 O 0.4563 0.07163 0.29639 0.0
O28 O 0.54647 0.10559 0.30836 0.0
O29 O 0.54834 0.13426 0.3444 0.0
O30 O 0.49894 0.05928 0.33277 0.0
O31 O 0.48365 0.07436 0.36584 0.0
H32 H 0.42412 0.06888 0.43027 0.0
H33 H 0.39632 0.06118 0.48026 0.0
H34 H 0.34329 0.06655 0.41187 0.0
H35 H 0.37101 0.07338 0.36163 0.0
H36 H 0.60391 0.1712 0.33637 0.0
H37 H 0.62495 0.20941 0.30032 0.0
H38 H 0.57185 0.16989 0.2165 0.0
H39 H 0.55044 0.1324 0.25302 0.0
Ho40 Ho 0.37514 0.46859 0.68327 0.0
Ho41 Ho 0.41534 0.519 0.66588 0.0
C42 C 0.40059 0.50716 0.75074 0.0
C43 C 0.34442 0.42041 0.68962 0.0
C44 C 0.33062 0.40149 0.71664 0.0
C45 C 0.3266 0.40849 0.75013 0.0
C46 C 0.3147 0.39015 0.77608 0.0
C47 C 0.3069 0.36468 0.7689 0.0
C48 C 0.31035 0.35774 0.73497 0.0
C49 C 0.32209 0.37604 0.70901 0.0
C50 C 0.3574 0.49989 0.66726 0.0
C51 C 0.40282 0.47977 0.60381 0.0
C52 C 0.43787 0.56743 0.65767 0.0
C53 C 0.43218 0.58382 0.63628 0.0
C54 C 0.40711 0.57694 0.62973 0.0
C55 C 0.40157 0.59243 0.60967 0.0
C56 C 0.42096 0.61492 0.5951 0.0
C57 C 0.44608 0.62201 0.60225 0.0
C58 C 0.45162 0.60658 0.62278 0.0
C59 C 0.43126 0.48724 0.68899 0.0
O60 O 0.38574 0.48293 0.7411 0.0
O61 O 0.4121 0.5243 0.72559 0.0
O62 O 0.33722 0.43672 0.68365 0.0
O63 O 0.36882 0.43083 0.69036 0.0
O64 O 0.3508 0.48508 0.69421 0.0
O65 O 0.37462 0.4985 0.65036 0.0
O66 O 0.41205 0.50406 0.61042 0.0
O67 O 0.38966 0.46307 0.62893 0.0
O68 O 0.4446 0.55311 0.64079 0.0
O69 O 0.42161 0.5553 0.68256 0.0
O70 O 0.44422 0.50572 0.66728 0.0
O71 O 0.41337 0.4895 0.69919 0.0
H72 H 0.33321 0.42813 0.75641 0.0
H73 H 0.31264 0.39606 0.8022 0.0
H74 H 0.30448 0.33825 0.72879 0.0
H75 H 0.32505 0.37041 0.68318 0.0
H76 H 0.39174 0.55946 0.63996 0.0
H77 H 0.38204 0.58654 0.60507 0.0
H78 H 0.46145 0.639 0.59096 0.0
H79 H 0.47107 0.61222 0.62768 0.0
Ho80 Ho 0.91039 0.37942 1.01687 0.0
Ho81 Ho 0.9047 0.42202 0.99983 0.0
C82 C 0.89886 0.40641 1.08421 0.0
C83 C 0.92388 0.3461 1.02627 0.0
C84 C 0.92945 0.33484 1.05619 0.0
C85 C 0.93371 0.34598 1.08962 0.0
C86 C 0.93927 0.33524 0.11787 0.0
C87 C 0.94046 0.31305 0.11322 0.0
C88 C 0.93588 0.30182 1.07965 0.0
C89 C 0.93041 0.31267 1.05133 0.0
C90 C 0.86259 0.36473 0.99696 0.0
C91 C 0.92936 0.40725 0.93761 0.0
C92 C 0.88147 0.44668 0.99057 0.0
C93 C 0.86177 0.44299 0.96561 0.0
C94 C 0.84009 0.44246 0.97827 0.0
C95 C 0.81859 0.43293 0.95725 0.0
C96 C 0.81852 0.42378 0.92325 0.0
C97 C 0.84086 0.42594 0.90992 0.0
C98 C 0.86219 0.43523 0.93098 0.0
C99 C 0.95117 0.43504 1.02528 0.0
O100 O 0.90705 0.3907 1.07467 0.0
O101 O 0.89486 0.4189 1.05896 0.0
O102 O 0.90056 0.34045 1.02343 0.0
O103 O 0.9397 0.37005 1.02076 0.0
O104 O 0.86879 0.35681 1.02444 0.0
O105 O 0.88252 0.38155 0.98182 0.0
O106 O 0.91682 0.41895 0.94483 0.0
O107 O 0.93047 0.3922 0.96207 0.0
O108 O 0.90402 0.45432 0.97802 0.0
O109 O 0.87412 0.42802 1.01265 0.0
O110 O 0.94735 0.44889 1.00317 0.0
O111 O 0.93019 0.41766 1.0346 0.0
H112 H 0.93297 0.36309 1.09378 0.0
H113 H 0.94319 0.34468 0.1432 0.0
H114 H 0.93646 0.28464 1.07529 0.0
H115 H 0.92699 0.30379 1.02562 0.0
H116 H 0.83931 0.44801 1.00516 0.0
H117 H 0.80172 0.43154 0.96824 0.0
H118 H 0.84164 0.41972 0.88345 0.0
H119 H 0.87856 0.43514 0.92071 0.0
Ho120 Ho 0.52836 0.91253 0.34353 0.0
Ho121 Ho 0.47798 0.90192 0.32668 0.0
C122 C 0.48737 0.90082 0.40963 0.0
C123 C 0.57328 0.9241 0.3624 0.0
C124 C 0.58916 0.92816 0.39304 0.0
C125 C 0.58295 0.93325 0.42636 0.0
C126 C 0.59923 0.93828 0.45465 0.0
C127 C 0.62182 0.93808 0.45003 0.0
C128 C 0.62748 0.93221 0.41672 0.0
C129 C 0.61127 0.92733 0.38846 0.0
C130 C 0.50072 0.86791 0.30816 0.0
C131 C 0.52048 0.92995 0.26563 0.0
C132 C 0.43268 0.87858 0.30255 0.0
C133 C 0.4207 0.85832 0.27593 0.0
C134 C 0.40184 0.83409 0.28644 0.0
C135 C 0.39398 0.81332 0.26393 0.0
C136 C 0.40471 0.81648 0.23035 0.0
C137 C 0.42233 0.84105 0.21907 0.0
C138 C 0.43039 0.86172 0.24168 0.0
C139 C 0.50752 0.94883 0.35455 0.0
O140 O 0.51062 0.90667 0.39998 0.0
O141 O 0.47052 0.89642 0.38508 0.0
O142 O 0.5551 0.901 0.35699 0.0
O143 O 0.56656 0.94084 0.35666 0.0
O144 O 0.5233 0.8853 0.30036 0.0
O145 O 0.49298 0.87577 0.33362 0.0
O146 O 0.49618 0.91439 0.27201 0.0
O147 O 0.53697 0.93446 0.29129 0.0
O148 O 0.44975 0.90113 0.29184 0.0
O149 O 0.43958 0.87174 0.33085 0.0
O150 O 0.48328 0.93583 0.35831 0.0
O151 O 0.51402 0.93736 0.33363 0.0
H152 H 0.56583 0.93376 0.43037 0.0
H153 H 0.59447 0.94311 0.47984 0.0
H154 H 0.64454 0.9316 0.41242 0.0
H155 H 0.61616 0.92322 0.36284 0.0
H156 H 0.39417 0.831 0.31283 0.0
H157 H 0.38036 0.79471 0.27342 0.0
H158 H 0.43038 0.84429 0.19293 0.0
H159 H 0.44495 0.88013 0.23274 0.0
Ho160 Ho 0.61992 0.53306 0.67818 0.0
Ho161 Ho 0.58002 0.48197 0.66287 0.0
C162 C 0.59173 0.49267 0.74541 0.0
C163 C 0.65278 0.57887 0.69627 0.0
C164 C 0.6631 0.59629 0.72615 0.0
C165 C 0.66377 0.58783 0.76009 0.0
C166 C 0.67428 0.60522 0.78775 0.0
C167 C 0.684 0.63116 0.78175 0.0
C168 C 0.68331 0.63945 0.74767 0.0
C169 C 0.673 0.62213 0.72008 0.0
C170 C 0.63678 0.50601 0.64174 0.0
C171 C 0.59312 0.52347 0.60078 0.0
C172 C 0.557 0.43569 0.64085 0.0
C173 C 0.56433 0.42216 0.61582 0.0
C174 C 0.56462 0.40052 0.62708 0.0
C175 C 0.57598 0.39009 0.6065 0.0
C176 C 0.58715 0.40108 0.57417 0.0
C177 C 0.58567 0.42201 0.56224 0.0
C178 C 0.5746 0.43258 0.58296 0.0
C179 C 0.56316 0.51159 0.69119 0.0
O180 O 0.60871 0.51609 0.73512 0.0
O181 O 0.5792 0.47522 0.72127 0.0
O182 O 0.65751 0.56039 0.69483 0.0
O183 O 0.62982 0.57193 0.687 0.0
O184 O 0.64168 0.52858 0.6345 0.0
O185 O 0.62159 0.49789 0.66765 0.0
O186 O 0.5837 0.49911 0.60804 0.0
O187 O 0.60637 0.54063 0.62551 0.0
O188 O 0.55242 0.45284 0.62839 0.0
O189 O 0.57094 0.44338 0.66903 0.0
O190 O 0.55208 0.48732 0.69559 0.0
O191 O 0.58056 0.51796 0.66956 0.0
H192 H 0.65609 0.56789 0.76521 0.0
H193 H 0.67423 0.59835 0.81395 0.0
H194 H 0.6907 0.65933 0.74242 0.0
H195 H 0.6727 0.62891 0.69392 0.0
H196 H 0.55707 0.39239 0.65259 0.0
H197 H 0.5768 0.37402 0.61651 0.0
H198 H 0.59339 0.43051 0.53698 0.0
H199 H 0.57486 0.4494 0.57373 0.0
Ho200 Ho 0.09036 0.62366 1.01353 0.0
Ho201 Ho 0.10116 0.5837 0.996 0.0
C202 C 0.10201 0.59421 1.07907 0.0
C203 C 0.07873 0.65708 1.03289 0.0
C204 C 0.07278 0.66773 1.06338 0.0
C205 C 0.06795 0.65624 1.09642 0.0
C206 C 0.06105 0.66623 0.12452 0.0
C207 C 0.05909 0.68799 0.11999 0.0
C208 C 0.06466 0.69976 1.08696 0.0
C209 C 0.0714 0.68965 1.05888 0.0
C210 C 0.13456 0.64085 0.97796 0.0
C211 C 0.07304 0.59794 0.93539 0.0
C212 C 0.1245 0.56185 0.9715 0.0
C213 C 0.1446 0.57025 0.94497 0.0
C214 C 0.1685 0.57513 0.95534 0.0
C215 C 0.18921 0.58816 0.93312 0.0
C216 C 0.18632 0.59637 0.89998 0.0
C217 C 0.16204 0.58994 0.88879 0.0
C218 C 0.14143 0.57722 0.91113 0.0
C219 C 0.05462 0.56586 1.0239 0.0
O220 O 0.09565 0.6113 1.06975 0.0
O221 O 0.10693 0.58211 1.05432 0.0
O222 O 0.10177 0.66167 1.03061 0.0
O223 O 0.06217 0.6339 1.02404 0.0
O224 O 0.11737 0.64617 0.97053 0.0
O225 O 0.12687 0.62529 1.00334 0.0
O226 O 0.08857 0.58928 0.94155 0.0
O227 O 0.06859 0.61004 0.96116 0.0
O228 O 0.10206 0.55616 0.96075 0.0
O229 O 0.13131 0.57577 0.99994 0.0
O230 O 0.06754 0.55459 1.02716 0.0
O231 O 0.06593 0.58403 1.00333 0.0
H232 H 0.06914 0.63939 0.10034 0.0
H233 H 0.05653 0.65648 0.14948 0.0
H234 H 0.06364 0.71668 1.08275 0.0
H235 H 0.07527 0.69881 1.03347 0.0
H236 H 0.1714 0.57005 0.98144 0.0
H237 H 0.2076 0.59274 0.94253 0.0
H238 H 0.15898 0.59524 0.86296 0.0
H239 H 0.12328 0.57379 0.90234 0.0
Ho240 Ho 0.91066 0.53352 0.52168 0.0
Ho241 Ho 0.89812 0.4823 0.53863 0.0
C242 C 0.8969 0.49167 0.4557 0.0
C243 C 0.92364 0.57898 0.50225 0.0
C244 C 0.92733 0.59438 0.47113 0.0
C245 C 0.932 0.58751 0.438 0.0
C246 C 0.93655 0.60327 0.40919 0.0
C247 C 0.93623 0.62599 0.41304 0.0
C248 C 0.93077 0.63232 0.44618 0.0
C249 C 0.92641 0.61664 0.47499 0.0
C250 C 0.86672 0.50765 0.55826 0.0
C251 C 0.92804 0.52519 0.5992 0.0
C252 C 0.87338 0.4369 0.56283 0.0
C253 C 0.85309 0.42573 0.58916 0.0
C254 C 0.82903 0.40657 0.57874 0.0
C255 C 0.80825 0.39951 0.60058 0.0
C256 C 0.81125 0.41142 0.63334 0.0
C257 C 0.83563 0.42944 0.6446 0.0
C258 C 0.85629 0.43668 0.62266 0.0
C259 C 0.94469 0.51018 0.51009 0.0
O260 O 0.90353 0.51529 0.46537 0.0
O261 O 0.89208 0.47464 0.48021 0.0
O262 O 0.90055 0.56155 0.50898 0.0
O263 O 0.93964 0.57129 0.50731 0.0
O264 O 0.88487 0.53013 0.56547 0.0
O265 O 0.87341 0.49896 0.53253 0.0
O266 O 0.91176 0.50086 0.59306 0.0
O267 O 0.93297 0.54177 0.57347 0.0
O268 O 0.896 0.4535 0.57377 0.0
O269 O 0.86715 0.44413 0.5343 0.0
O270 O 0.93089 0.48582 0.50664 0.0
O271 O 0.93417 0.51764 0.53114 0.0
H272 H 0.93254 0.57025 0.43451 0.0
H273 H 0.94108 0.598 0.38416 0.0
H274 H 0.93006 0.64948 0.44993 0.0
H275 H 0.92258 0.62204 0.50045 0.0
H276 H 0.82609 0.39801 0.55286 0.0
H277 H 0.78978 0.38555 0.59115 0.0
H278 H 0.83874 0.43841 0.67019 0.0
H279 H 0.87456 0.45156 0.63145 0.0
Ho280 Ho 0.37543 0.91693 0.847 0.0
Ho281 Ho 0.41591 0.9081 0.86546 0.0
C282 C 0.40204 0.90454 0.78026 0.0
C283 C 0.34435 0.93314 0.83761 0.0
C284 C 0.3332 0.93914 0.80802 0.0
C285 C 0.34357 0.94266 0.77426 0.0
C286 C 0.3331 0.94897 0.74647 0.0
C287 C 0.31195 0.95165 0.75192 0.0
C288 C 0.30144 0.94772 0.7858 0.0
C289 C 0.31202 0.94151 0.81364 0.0
C290 C 0.35808 0.86793 0.86472 0.0
C291 C 0.40207 0.9339 0.92722 0.0
C292 C 0.43801 0.88237 0.87488 0.0
C293 C 0.43268 0.86176 0.89923 0.0
C294 C 0.4323 0.84003 0.88647 0.0
C295 C 0.42174 0.81798 0.90661 0.0
C296 C 0.41136 0.81739 0.9398 0.0
C297 C 0.41308 0.83969 0.95319 0.0
C298 C 0.42341 0.86157 0.933 0.0
C299 C 0.43124 0.95574 0.8419 0.0
O300 O 0.38705 0.91361 0.78948 0.0
O301 O 0.4135 0.89939 0.8058 0.0
O302 O 0.33734 0.90934 0.84122 0.0
O303 O 0.36849 0.94798 0.84208 0.0
O304 O 0.35134 0.87554 0.83742 0.0
O305 O 0.37521 0.88715 0.88113 0.0
O306 O 0.412 0.91958 0.92072 0.0
O307 O 0.38875 0.93686 0.90191 0.0
O308 O 0.44647 0.90503 0.8883 0.0
O309 O 0.42011 0.8763 0.85197 0.0
O310 O 0.4443 0.95085 0.864 0.0
O311 O 0.41369 0.93514 0.83146 0.0
H312 H 0.35991 0.94084 0.76951 0.0
H313 H 0.34197 0.95234 0.72088 0.0
H314 H 0.28505 0.94942 0.79078 0.0
H315 H 0.30375 0.93868 0.83962 0.0
H316 H 0.43896 0.83971 0.86015 0.0
H317 H 0.42071 0.80115 0.89557 0.0
H318 H 0.4059 0.84011 0.97908 0.0
H319 H 0.42312 0.87797 0.94323 0.0
Ho320 Ho 0.46641 0.38317 0.18503 0.0
Ho321 Ho 0.51716 0.42299 0.20096 0.0
C322 C 0.50733 0.41105 0.11834 0.0
C323 C 0.42103 0.35014 0.16625 0.0
C324 C 0.40417 0.3399 0.13606 0.0
C325 C 0.41241 0.3485 0.10184 0.0
C326 C 0.39545 0.33881 1.07382 0.0
C327 C 0.37009 0.32048 1.07978 0.0
C328 C 0.36216 0.31169 0.11412 0.0
C329 C 0.3791 0.32134 0.14202 0.0
C330 C 0.49331 0.36605 0.2206 0.0
C331 C 0.47521 0.40979 0.26269 0.0
C332 C 0.56268 0.44518 0.22428 0.0
C333 C 0.57491 0.43625 0.24884 0.0
C334 C 0.595 0.43355 0.23682 0.0
C335 C 0.60334 0.41999 0.25644 0.0
C336 C 0.59182 0.40905 0.28862 0.0
C337 C 0.57274 0.41317 0.30156 0.0
C338 C 0.56421 0.42642 0.28176 0.0
C339 C 0.48889 0.4406 0.17154 0.0
O340 O 0.48378 0.39447 0.12834 0.0
O341 O 0.52457 0.42326 0.14269 0.0
O342 O 0.43936 0.34537 0.16765 0.0
O343 O 0.42796 0.37328 0.17558 0.0
O344 O 0.47085 0.36096 0.22834 0.0
O345 O 0.50117 0.38132 0.19489 0.0
O346 O 0.49941 0.41863 0.25585 0.0
O347 O 0.45843 0.39712 0.23745 0.0
O348 O 0.54562 0.44984 0.23688 0.0
O349 O 0.5556 0.4323 0.19497 0.0
O350 O 0.51311 0.45161 0.16829 0.0
O351 O 0.48175 0.42305 0.19326 0.0
H352 H 0.43177 0.36287 1.09693 0.0
H353 H 0.402 0.34617 1.04767 0.0
H354 H 0.34282 0.29745 0.11942 0.0
H355 H 0.37255 0.31449 0.16838 0.0
H356 H 0.60336 0.44077 0.21129 0.0
H357 H 0.61805 0.41722 0.24569 0.0
H358 H 0.56398 0.40574 0.3268 0.0
H359 H 0.54859 0.42804 0.29168 0.0
Ho360 Ho 0.08734 0.46602 0.51431 0.0
Ho361 Ho 0.09595 0.51562 0.53272 0.0
C362 C 0.09972 0.50508 0.44773 0.0
C363 C 0.07139 0.41843 0.50401 0.0
C364 C 0.0655 0.40146 0.47377 0.0
C365 C 0.06203 0.40872 0.44038 0.0
C366 C 0.05606 0.39226 0.41184 0.0
C367 C 0.05367 0.36833 0.41616 0.0
C368 C 0.05752 0.36132 0.44968 0.0
C369 C 0.0634 0.3778 0.47828 0.0
C370 C 0.13598 0.49813 0.53265 0.0
C371 C 0.07017 0.47606 0.59443 0.0
C372 C 0.12146 0.56389 0.54259 0.0
C373 C 0.14172 0.57943 0.56742 0.0
C374 C 0.1636 0.60075 0.55503 0.0
C375 C 0.18533 0.61232 0.57573 0.0
C376 C 0.18543 0.60263 0.60908 0.0
C377 C 0.16298 0.58219 0.62213 0.0
C378 C 0.14142 0.57056 0.6014 0.0
C379 C 0.04864 0.48287 0.50849 0.0
O380 O 0.09074 0.48089 0.45685 0.0
O381 O 0.10473 0.52191 0.4733 0.0
O382 O 0.09503 0.43548 0.50786 0.0
O383 O 0.05656 0.42759 0.50904 0.0
O384 O 0.12855 0.48369 0.50509 0.0
O385 O 0.1168 0.49597 0.5488 0.0
O386 O 0.08379 0.50047 0.58763 0.0
O387 O 0.06793 0.45947 0.56953 0.0
O388 O 0.09883 0.54956 0.55546 0.0
O389 O 0.12768 0.55192 0.5199 0.0
O390 O 0.05353 0.50104 0.53074 0.0
O391 O 0.06911 0.48587 0.49832 0.0
H392 H 0.06368 0.42699 0.43646 0.0
H393 H 0.05274 0.39808 0.38656 0.0
H394 H 0.05602 0.34314 0.4538 0.0
H395 H 0.0662 0.37205 0.50396 0.0
H396 H 0.16428 0.60757 0.52859 0.0
H397 H 0.20229 0.62803 0.56498 0.0
H398 H 0.16222 0.57471 0.64813 0.0
H399 H 0.12489 0.55393 0.61138 0.0
Ho400 Ho 0.61954 0.09061 0.85012 0.0
Ho401 Ho 0.58237 0.10435 0.86867 0.0
C402 C 0.59173 0.10474 0.78528 0.0
C403 C 0.6506 0.07621 0.83009 0.0
C404 C 0.66197 0.07161 0.79925 0.0
C405 C 0.65048 0.06643 0.76615 0.0
C406 C 0.66132 0.06086 0.73774 0.0
C407 C 0.68388 0.06061 0.74201 0.0
C408 C 0.69563 0.06659 0.77509 0.0
C409 C 0.68471 0.07201 0.80347 0.0
C410 C 0.63997 0.13559 0.88564 0.0
C411 C 0.59465 0.07431 0.92867 0.0
C412 C 0.56298 0.12999 0.89345 0.0
C413 C 0.57252 0.15075 0.91944 0.0
C414 C 0.57887 0.17511 0.90831 0.0
C415 C 0.59238 0.19603 0.93036 0.0
C416 C 0.59961 0.19293 0.96409 0.0
C417 C 0.5919 0.16832 0.97588 0.0
C418 C 0.57868 0.14748 0.95373 0.0
C419 C 0.56185 0.05706 0.8406 0.0
O420 O 0.60835 0.09777 0.79421 0.0
O421 O 0.58014 0.10994 0.81036 0.0
O422 O 0.65722 0.09968 0.83642 0.0
O423 O 0.62668 0.06065 0.83545 0.0
O424 O 0.64341 0.11699 0.89273 0.0
O425 O 0.62389 0.12864 0.8609 0.0
O426 O 0.58734 0.09102 0.92293 0.0
O427 O 0.60556 0.06882 0.90243 0.0
O428 O 0.55657 0.10734 0.90469 0.0
O429 O 0.57625 0.13582 0.86461 0.0
O430 O 0.55205 0.07136 0.83743 0.0
O431 O 0.58014 0.06761 0.8611 0.0
H432 H 0.63299 0.06624 0.76241 0.0
H433 H 0.65158 0.05598 0.71272 0.0
H434 H 0.71314 0.06686 0.77912 0.0
H435 H 0.69388 0.0762 0.82891 0.0
H436 H 0.57442 0.1781 0.88187 0.0
H437 H 0.59798 0.21467 0.92046 0.0
H438 H 0.59645 0.16514 1.00214 0.0
H439 H 0.5741 0.12898 0.96311 0.0
Ho440 Ho 0.52776 0.62215 0.188 0.0
Ho441 Ho 0.47729 0.5815 0.20348 0.0
C442 C 0.48685 0.59359 0.1213 0.0
C443 C 0.57281 0.65636 0.16999 0.0
C444 C 0.59047 0.66718 0.1408 0.0
C445 C 0.58339 0.65878 0.10614 0.0
C446 C 0.60122 0.6689 1.0792 0.0
C447 C 0.62628 0.6874 1.08676 0.0
C448 C 0.63302 0.69606 0.12148 0.0
C449 C 0.6152 0.68602 0.14828 0.0
C450 C 0.50017 0.63805 0.2251 0.0
C451 C 0.5196 0.59482 0.26453 0.0
C452 C 0.43275 0.56121 0.22926 0.0
C453 C 0.4239 0.57353 0.25448 0.0
C454 C 0.41186 0.58628 0.24183 0.0
C455 C 0.41008 0.60411 0.26282 0.0
C456 C 0.42001 0.60928 0.297 0.0
C457 C 0.42991 0.59484 0.31068 0.0
C458 C 0.4319 0.57721 0.28966 0.0
C459 C 0.50595 0.56471 0.17284 0.0
O460 O 0.51032 0.61051 0.13134 0.0
O461 O 0.46968 0.58106 0.14552 0.0
O462 O 0.55372 0.66003 0.17013 0.0
O463 O 0.56673 0.63355 0.17957 0.0
O464 O 0.52282 0.64363 0.23237 0.0
O465 O 0.49261 0.62303 0.1989 0.0
O466 O 0.49529 0.58481 0.25751 0.0
O467 O 0.53635 0.60874 0.23998 0.0
O468 O 0.44941 0.55564 0.24063 0.0
O469 O 0.43866 0.57187 0.1984 0.0
O470 O 0.48161 0.55305 0.17026 0.0
O471 O 0.51304 0.58229 0.19484 0.0
H472 H 0.56431 0.64419 0.10007 0.0
H473 H 0.59562 0.66164 1.0527 0.0
H474 H 0.65212 0.71039 0.12796 0.0
H475 H 0.62083 0.69271 0.17502 0.0
H476 H 0.4054 0.58378 0.21484 0.0
H477 H 0.40213 0.61474 0.25165 0.0
H478 H 0.43687 0.59771 0.33742 0.0
H479 H 0.44105 0.5676 0.30043 0.0
C480 C 0.50022 0.1846 0.3414 0.0
C481 C 0.50126 0.16674 0.319 0.0
C482 C 0.50374 0.20761 0.32868 0.0
C483 C 0.50272 0.24062 0.24593 0.0
H484 H 0.52783 0.29805 0.30946 0.0
C485 C 0.51169 0.33794 0.2059 0.0
C486 C 0.50183 0.34788 0.23061 0.0
C487 C 0.51509 0.31743 0.21468 0.0
C488 C 0.52065 0.28223 0.2913 0.0
H489 H 0.50771 0.15997 0.26507 0.0
H490 H 0.51451 0.20062 0.24267 0.0
H491 H 0.52817 0.26022 0.32741 0.0
H492 H 0.48861 0.34439 0.2842 0.0
H493 H 0.49541 0.30973 0.29985 0.0
H494 H 0.4955 0.26312 0.2097 0.0
C495 C 0.51044 0.19649 0.27035 0.0
C496 C 0.5207 0.26024 0.3017 0.0
C497 C 0.50682 0.17317 0.28324 0.0
C498 C 0.49649 0.33745 0.2646 0.0
C499 C 0.50038 0.31745 0.27358 0.0
C500 C 0.50293 0.26282 0.23534 0.0
C501 C 0.5087 0.21409 0.29285 0.0
C502 C 0.51115 0.23867 0.27967 0.0
C503 C 0.50923 0.30665 0.24864 0.0
C504 C 0.51138 0.28383 0.25817 0.0
H505 H 0.49593 0.1805 0.36907 0.0
H506 H 0.50166 0.21995 0.34712 0.0
H507 H 0.49503 0.22464 0.22803 0.0
H508 H 0.51565 0.34519 0.17931 0.0
H509 H 0.5221 0.30986 0.19476 0.0
C510 C 0.32228 0.5088 0.67592 0.0
C511 C 0.33927 0.50717 0.65271 0.0
C512 C 0.3023 0.51146 0.66352 0.0
C513 C 0.25219 0.50037 0.63271 0.0
H514 H 0.25584 0.5367 0.54792 0.0
C515 C 0.16601 0.50834 0.58472 0.0
C516 C 0.16127 0.50578 0.54827 0.0
C517 C 0.18877 0.51141 0.59829 0.0
C518 C 0.25428 0.52625 0.57156 0.0
H519 H 0.34877 0.50804 0.59771 0.0
H520 H 0.31377 0.51256 0.57575 0.0
H521 H 0.2931 0.5364 0.56864 0.0
H522 H 0.17748 0.50555 0.49772 0.0
H523 H 0.2165 0.51086 0.52091 0.0
H524 H 0.21337 0.49004 0.63551 0.0
C525 C 0.31601 0.51196 0.60389 0.0
C526 C 0.27585 0.52605 0.58349 0.0
C527 C 0.33623 0.5094 0.61645 0.0
C528 C 0.18036 0.5075 0.52593 0.0
C529 C 0.20299 0.51067 0.53934 0.0
C530 C 0.23068 0.50061 0.62083 0.0
C531 C 0.29826 0.51241 0.62723 0.0
C532 C 0.27526 0.51303 0.61428 0.0
C533 C 0.20755 0.51219 0.57581 0.0
C534 C 0.23118 0.5134 0.58987 0.0
H535 H 0.32402 0.50734 0.70404 0.0
H536 H 0.28981 0.51249 0.68266 0.0
H537 H 0.25045 0.48962 0.65609 0.0
H538 H 0.1518 0.50701 0.60281 0.0
H539 H 0.19151 0.51287 0.62651 0.0
C540 C 0.81648 0.33329 1.00142 0.0
C541 C 0.83759 0.34775 0.97989 0.0
C542 C 0.7938 0.31374 0.98743 0.0
C543 C 0.76982 0.26775 0.9136 0.0
H544 H 0.70416 0.25031 0.95 0.0
C545 C 0.68447 0.16629 0.90341 0.0
C546 C 0.66074 0.16225 0.89317 0.0
C547 C 0.70467 0.19058 0.91051 0.0
C548 C 0.72228 0.25497 0.93924 0.0
H549 H 0.85087 0.35311 0.92613 0.0
H550 H 0.81129 0.31876 0.90154 0.0
H551 H 0.74146 0.29009 0.96802 0.0
H552 H 0.63987 0.18128 0.88336 0.0
H553 H 0.6753 0.22412 0.89694 0.0
H554 H 0.75084 0.23235 0.88575 0.0
C555 C 0.81232 0.32267 0.92949 0.0
C556 C 0.7438 0.27777 0.94981 0.0
C557 C 0.835 0.34262 0.9435 0.0
C558 C 0.65784 0.18358 0.89086 0.0
C559 C 0.67815 0.20813 0.8988 0.0
C560 C 0.74842 0.24485 0.90349 0.0
C561 C 0.79145 0.30756 0.95136 0.0
C562 C 0.76803 0.28443 0.93752 0.0
C563 C 0.70202 0.21199 0.90836 0.0
C564 C 0.72431 0.23784 0.91649 0.0
H565 H 0.8178 0.33651 1.0296 0.0
H566 H 0.77848 0.3026 1.00535 0.0
H567 H 0.78798 0.27188 0.90368 0.0
H568 H 0.68769 0.15054 0.90567 0.0
H569 H 0.72245 0.19252 0.91826 0.0
C570 C 0.50078 0.67015 0.26708 0.0
C571 C 0.49088 0.65547 0.23633 0.0
C572 C 0.49596 0.68963 0.27577 0.0
C573 C 0.47856 0.73367 0.23389 0.0
H574 H 0.47873 0.75485 0.33026 0.0
C575 C 0.50214 0.83584 0.26841 0.0
C576 C 0.49181 0.84085 0.29837 0.0
C577 C 0.49749 0.8114 0.26076 0.0
C578 C 0.47834 0.74919 0.30312 0.0
H579 H 0.46693 0.64925 0.19145 0.0
H580 H 0.45833 0.68323 0.20655 0.0
H581 H 0.47765 0.71514 0.31829 0.0
H582 H 0.46766 0.82335 0.34332 0.0
H583 H 0.45923 0.7804 0.32988 0.0
H584 H 0.47907 0.76756 0.21866 0.0
C585 C 0.47021 0.67986 0.22388 0.0
C586 C 0.47804 0.72638 0.29619 0.0
C587 C 0.47491 0.66011 0.21532 0.0
C588 C 0.47584 0.82027 0.31991 0.0
C589 C 0.47127 0.79563 0.31234 0.0
C590 C 0.47886 0.75645 0.24081 0.0
C591 C 0.48114 0.69539 0.2539 0.0
C592 C 0.47865 0.7184 0.26141 0.0
C593 C 0.48233 0.7908 0.28283 0.0
C594 C 0.47929 0.76498 0.27557 0.0
H595 H 0.51314 0.66716 0.284 0.0
H596 H 0.50496 0.70097 0.29893 0.0
H597 H 0.47917 0.72855 0.20675 0.0
H598 H 0.51462 0.85114 0.25122 0.0
H599 H 0.50676 0.80895 0.23811 0.0
C600 C 0.65954 0.48096 0.6502 0.0
C601 C 0.65525 0.498 0.6309 0.0
C602 C 0.68009 0.47753 0.64192 0.0
C603 C 0.74365 0.51355 0.60244 0.0
H604 H 0.74391 0.45052 0.59654 0.0
C605 C 0.83701 0.51375 0.59646 0.0
C606 C 0.84033 0.49991 0.56935 0.0
C607 C 0.81325 0.51018 0.60464 0.0
C608 C 0.74413 0.46828 0.59798 0.0
H609 H 0.66852 0.52343 0.58637 0.0
H610 H 0.70376 0.51764 0.57241 0.0
H611 H 0.7044 0.45006 0.60935 0.0
H612 H 0.82038 0.4701 0.53097 0.0
H613 H 0.77839 0.46345 0.5458 0.0
H614 H 0.78311 0.53191 0.59161 0.0
C615 C 0.69166 0.50713 0.59419 0.0
C616 C 0.7215 0.46803 0.60564 0.0
C617 C 0.67124 0.51035 0.60217 0.0
C618 C 0.81865 0.48115 0.55196 0.0
C619 C 0.79456 0.47737 0.56049 0.0
C620 C 0.76615 0.51382 0.59546 0.0
C621 C 0.69694 0.49123 0.6144 0.0
C622 C 0.72089 0.49072 0.60771 0.0
C623 C 0.79165 0.49242 0.58631 0.0
C624 C 0.76689 0.49126 0.59303 0.0
H625 H 0.64774 0.47115 0.67255 0.0
H626 H 0.68347 0.46507 0.6581 0.0
H627 H 0.74415 0.53145 0.60405 0.0
H628 H 0.85307 0.52816 0.61084 0.0
H629 H 0.81188 0.52181 0.6251 0.0
C630 C 0.3397 0.83594 0.9154 0.0
C631 C 0.34037 0.84215 0.87961 0.0
C632 C 0.32038 0.8124 0.92848 0.0
C633 C 0.26804 0.74786 0.89768 0.0
H634 H 0.23875 0.7447 0.98917 0.0
C635 C 0.16671 0.66927 0.93404 0.0
C636 C 0.16136 0.65906 0.96815 0.0
C637 C 0.19059 0.68953 0.92522 0.0
C638 C 0.24685 0.74508 0.96369 0.0
H639 H 0.32143 0.82781 0.82968 0.0
H640 H 0.28834 0.78794 0.85197 0.0
H641 H 0.27654 0.78363 0.97079 0.0
H642 H 0.17735 0.66243 1.01986 0.0
H643 H 0.21914 0.69819 1.00466 0.0
H644 H 0.23794 0.70969 0.89009 0.0
C645 C 0.30263 0.80064 0.87027 0.0
C646 C 0.2687 0.76754 0.95308 0.0
C647 C 0.32174 0.82387 0.85737 0.0
C648 C 0.18088 0.66948 0.99317 0.0
C649 C 0.20478 0.69024 0.98452 0.0
C650 C 0.24615 0.72562 0.9081 0.0
C651 C 0.30126 0.79438 0.90614 0.0
C652 C 0.27945 0.76958 0.9195 0.0
C653 C 0.20995 0.70081 0.95043 0.0
C654 C 0.23485 0.72391 0.94102 0.0
H655 H 0.35362 0.84947 0.93343 0.0
H656 H 0.3204 0.80842 0.95618 0.0
H657 H 0.27587 0.74799 0.87211 0.0
H658 H 0.15207 0.66198 0.91424 0.0
H659 H 0.19352 0.69709 0.89884 0.0
C660 C 0.63371 0.21495 1.00858 0.0
C661 C 0.61533 0.21504 0.98711 0.0
C662 C 0.64545 0.23313 1.03479 0.0
C663 C 0.62851 0.27205 1.09012 0.0
H664 H 0.67571 0.2642 0.14749 0.0
C665 C 0.63729 0.23223 0.23211 0.0
C666 C 0.61113 0.21625 0.23439 0.0
C667 C 0.64768 0.25137 0.20682 0.0
C668 C 0.66278 0.2674 0.13237 0.0
H669 H 0.59752 0.23651 0.9729 0.0
H670 H 0.61901 0.26914 1.0174 0.0
H671 H 0.67992 0.26538 1.08462 0.0
H672 H 0.57536 0.21045 0.21602 0.0
H673 H 0.59281 0.24173 0.17086 0.0
H674 H 0.61248 0.27592 0.13782 0.0
C675 C 0.62343 0.2542 1.01544 0.0
C676 C 0.66493 0.26752 1.09579 0.0
C677 C 0.61123 0.23558 0.98954 0.0
C678 C 0.59563 0.22167 0.2138 0.0
C679 C 0.60589 0.2403 0.18816 0.0
C680 C 0.62725 0.2734 0.12669 0.0
C681 C 0.63952 0.25233 1.03998 0.0
C682 C 0.64568 0.26617 1.07444 0.0
C683 C 0.6321 0.25445 0.18269 0.0
C684 C 0.64205 0.26738 0.14812 0.0
H685 H 0.63813 0.19999 1.00639 0.0
H686 H 0.6576 0.23056 1.05259 0.0
H687 H 0.614 0.27261 1.07497 0.0
H688 H 0.64981 0.22895 0.24821 0.0
H689 H 0.66792 0.26253 0.20483 0.0
C690 C 0.44166 0.64504 0.33958 0.0
C691 C 0.42065 0.62988 0.31852 0.0
C692 C 0.44065 0.66074 0.36533 0.0
C693 C 0.43469 0.68662 0.42707 0.0
H694 H 0.36905 0.64432 0.46815 0.0
C695 C 0.42919 0.65587 0.56781 0.0
C696 C 0.41498 0.62933 0.5695 0.0
C697 C 0.42576 0.66875 0.54001 0.0
C698 C 0.38755 0.65647 0.45716 0.0
H699 H 0.38363 0.62249 0.30371 0.0
H700 H 0.38219 0.65087 0.34754 0.0
H701 H 0.37353 0.64596 0.40522 0.0
H702 H 0.38507 0.5957 0.54439 0.0
H703 H 0.37943 0.61755 0.49646 0.0
H704 H 0.44916 0.69387 0.47933 0.0
C705 C 0.39903 0.6496 0.34573 0.0
C706 C 0.39016 0.65778 0.42064 0.0
C707 C 0.3999 0.63344 0.32028 0.0
C708 C 0.39615 0.61616 0.5443 0.0
C709 C 0.3928 0.6289 0.51666 0.0
C710 C 0.43223 0.68441 0.46363 0.0
C711 C 0.41862 0.66197 0.37043 0.0
C712 C 0.41424 0.67068 0.40524 0.0
C713 C 0.40819 0.65529 0.51325 0.0
C714 C 0.40896 0.66714 0.47879 0.0
H715 H 0.45843 0.6436 0.33769 0.0
H716 H 0.45645 0.66991 0.38309 0.0
H717 H 0.45328 0.69843 0.41619 0.0
H718 H 0.44352 0.66661 0.58728 0.0
H719 H 0.43769 0.68909 0.53864 0.0
C720 C 0.79001 0.38979 0.88161 0.0
C721 C 0.79523 0.4111 0.90184 0.0
C722 C 0.77088 0.38023 0.85674 0.0
C723 C 0.73507 0.36469 0.79807 0.0
H724 H 0.74079 0.42342 0.75223 0.0
C725 C 0.76927 0.38073 0.66011 0.0
C726 C 0.78928 0.40561 0.65588 0.0
C727 C 0.75105 0.37514 0.68608 0.0
C728 C 0.73931 0.40682 0.76444 0.0
H729 H 0.78208 0.43684 0.91556 0.0
H730 H 0.74778 0.41946 0.87314 0.0
H731 H 0.74458 0.42351 0.81513 0.0
H732 H 0.80358 0.44458 0.67155 0.0
H733 H 0.77379 0.43507 0.71789 0.0
H734 H 0.73393 0.34967 0.74726 0.0
C735 C 0.7593 0.41084 0.87509 0.0
C736 C 0.74091 0.40659 0.80106 0.0
C737 C 0.77888 0.42073 0.89973 0.0
C738 C 0.78908 0.42504 0.6753 0.0
C739 C 0.77133 0.41946 0.70161 0.0
C740 C 0.73495 0.36552 0.76138 0.0
C741 C 0.75602 0.39146 0.85164 0.0
C742 C 0.74176 0.38666 0.81794 0.0
C743 C 0.75287 0.39421 0.70897 0.0
C744 C 0.74009 0.38792 0.74413 0.0
H745 H 0.80161 0.38123 0.88368 0.0
H746 H 0.76941 0.36535 0.83972 0.0
H747 H 0.73323 0.34795 0.81035 0.0
H748 H 0.76851 0.36534 0.64496 0.0
H749 H 0.73656 0.3556 0.68952 0.0
C750 C 0.40818 0.77756 0.96353 0.0
C751 C 0.39837 0.79376 0.96062 0.0
C752 C 0.39844 0.75817 0.98848 0.0
C753 C 0.35386 0.73617 1.06685 0.0
H754 H 0.41325 0.74329 0.11154 0.0
C755 C 0.41698 0.79424 0.18637 0.0
C756 C 0.39825 0.79442 0.20717 0.0
C757 C 0.41073 0.77604 0.16025 0.0
C758 C 0.39648 0.74141 0.09962 0.0
H759 H 0.36812 0.79973 0.97726 0.0
H760 H 0.35254 0.76798 1.02185 0.0
H761 H 0.41165 0.74446 1.04855 0.0
H762 H 0.35861 0.77344 0.22026 0.0
H763 H 0.34773 0.74077 0.17584 0.0
H764 H 0.34041 0.73723 0.11794 0.0
C765 C 0.36751 0.76944 1.00536 0.0
C766 C 0.39527 0.74153 1.06296 0.0
C767 C 0.37687 0.78832 0.98005 0.0
C768 C 0.37345 0.77416 0.20412 0.0
C769 C 0.36719 0.75551 0.17829 0.0
C770 C 0.35568 0.73753 0.10349 0.0
C771 C 0.37916 0.75506 1.01165 0.0
C772 C 0.37511 0.74193 1.04625 0.0
C773 C 0.38551 0.75706 0.15448 0.0
C774 C 0.37832 0.74313 0.12008 0.0
H775 H 0.42441 0.78085 0.94825 0.0
H776 H 0.40726 0.74684 0.99104 0.0
H777 H 0.33691 0.73388 1.05497 0.0
H778 H 0.43647 0.80898 0.18905 0.0
H779 H 0.42572 0.77838 0.14299 0.0
C780 C 0.58107 0.37221 0.32749 0.0
C781 C 0.59928 0.39322 0.30886 0.0
C782 C 0.58814 0.36018 0.35196 0.0
C783 C 0.60361 0.34135 0.41221 0.0
H784 H 0.66245 0.39517 0.45757 0.0
C785 C 0.59082 0.36493 0.54887 0.0
C786 C 0.60037 0.39105 0.55262 0.0
C787 C 0.60085 0.35579 0.52357 0.0
C788 C 0.64566 0.38003 0.44551 0.0
H789 H 0.63909 0.41543 0.29706 0.0
H790 H 0.65143 0.39346 0.33798 0.0
H791 H 0.659 0.39505 0.39478 0.0
H792 H 0.63046 0.42802 0.53691 0.0
H793 H 0.64644 0.4127 0.49161 0.0
H794 H 0.58854 0.32855 0.46312 0.0
C795 C 0.63166 0.3872 0.33566 0.0
C796 C 0.64385 0.37959 0.40888 0.0
C797 C 0.62456 0.3997 0.31168 0.0
C798 C 0.62186 0.40775 0.53349 0.0
C799 C 0.63147 0.39872 0.50777 0.0
C800 C 0.60475 0.34264 0.44889 0.0
C801 C 0.61373 0.36849 0.35814 0.0
C802 C 0.62136 0.36189 0.39206 0.0
C803 C 0.62014 0.37256 0.50077 0.0
C804 C 0.62453 0.36381 0.46592 0.0
H805 H 0.56128 0.36587 0.32465 0.0
H806 H 0.57331 0.34581 0.36786 0.0
H807 H 0.58712 0.3258 0.40015 0.0
H808 H 0.5746 0.35147 0.56381 0.0
H809 H 0.59227 0.33554 0.52051 0.0
C810 C 0.22812 0.60702 0.87364 0.0
C811 C 0.20835 0.61202 0.87712 0.0
C812 C 0.2467 0.61943 0.84801 0.0
C813 C 0.2645 0.62605 0.77333 0.0
H814 H 0.25819 0.67581 0.71945 0.0
C815 C 0.21366 0.5967 0.6497 0.0
C816 C 0.20876 0.6131 0.63032 0.0
C817 C 0.23238 0.60609 0.6752 0.0
C818 C 0.26095 0.66216 0.73358 0.0
H819 H 0.19466 0.63657 0.8601 0.0
H820 H 0.22507 0.65643 0.81428 0.0
H821 H 0.2596 0.67862 0.7825 0.0
H822 H 0.22231 0.65245 0.61836 0.0
H823 H 0.25599 0.66908 0.66165 0.0
H824 H 0.26776 0.61071 0.72446 0.0
C825 C 0.2271 0.64339 0.83105 0.0
C826 C 0.26118 0.66349 0.77027 0.0
C827 C 0.20898 0.63143 0.85702 0.0
C828 C 0.22523 0.63928 0.63359 0.0
C829 C 0.24443 0.64879 0.65879 0.0
C830 C 0.26576 0.62559 0.73667 0.0
C831 C 0.24553 0.63665 0.82475 0.0
C832 C 0.25926 0.64336 0.79033 0.0
C833 C 0.2471 0.63231 0.68177 0.0
C834 C 0.26024 0.64136 0.71646 0.0
H835 H 0.2285 0.5925 0.88925 0.0
H836 H 0.26105 0.61435 0.84524 0.0
H837 H 0.26463 0.61086 0.78744 0.0
H838 H 0.202 0.57639 0.64666 0.0
H839 H 0.23347 0.59234 0.6916 0.0
C840 C 0.40526 0.96969 0.96786 0.0
C841 C 0.40721 0.94781 0.96297 0.0
C842 C 0.41171 0.98335 1.00039 0.0
C843 C 0.42121 0.97801 1.09851 0.0
H844 H 0.45712 0.05121 1.09866 0.0
C845 C 0.44014 0.03876 0.23049 0.0
C846 C 0.46379 0.06104 0.23496 0.0
C847 C 0.43294 0.02507 0.19799 0.0
C848 C 0.4471 0.03076 0.0995 0.0
H849 H 0.41757 0.92362 0.99058 0.0
H850 H 0.42778 0.94653 1.04678 0.0
H851 H 0.44526 0.02783 1.04275 0.0
H852 H 0.49801 0.08593 0.20664 0.0
H853 H 0.48529 0.06294 0.15051 0.0
H854 H 0.42269 0.98094 0.15526 0.0
C855 C 0.42143 0.95342 1.02531 0.0
C856 C 0.44004 0.01716 1.06697 0.0
C857 C 0.41555 0.94013 0.9926 0.0
C858 C 0.47962 0.06909 0.20496 0.0
C859 C 0.4722 0.05575 0.17229 0.0
C860 C 0.42775 0.9916 0.13104 0.0
C861 C 0.41994 0.97558 1.03011 0.0
C862 C 0.42705 0.99038 1.06549 0.0
C863 C 0.44874 0.03321 0.16789 0.0
C864 C 0.44106 0.01839 0.13252 0.0
H865 H 0.39918 0.97667 0.94617 0.0
H866 H 0.40998 1.00003 1.00229 0.0
H867 H 0.41117 0.95756 1.09934 0.0
H868 H 0.42723 0.03149 0.25247 0.0
H869 H 0.41467 0.00807 0.1964 0.0
C870 C 0.48306 0.42396 0.32804 0.0
C871 C 0.46706 0.41567 0.29825 0.0
C872 C 0.47579 0.43007 0.36062 0.0
C873 C 0.43127 0.4492 0.40123 0.0
H874 H 0.44831 0.43098 0.49003 0.0
C875 C 0.41726 0.48771 0.53885 0.0
C876 C 0.40867 0.47144 0.56833 0.0
C877 C 0.42369 0.48063 0.5064 0.0
C878 C 0.44323 0.43628 0.46565 0.0
H879 H 0.43043 0.40796 0.28095 0.0
H880 H 0.41817 0.41912 0.33673 0.0
H881 H 0.46066 0.41971 0.43445 0.0
H882 H 0.40078 0.43447 0.58524 0.0
H883 H 0.41248 0.42247 0.52957 0.0
H884 H 0.4143 0.46622 0.4324 0.0
C885 C 0.43643 0.42068 0.33511 0.0
C886 C 0.45057 0.4299 0.43334 0.0
C887 C 0.44347 0.41403 0.30278 0.0
C888 C 0.40704 0.44771 0.56363 0.0
C889 C 0.41402 0.44083 0.53138 0.0
C890 C 0.42444 0.45609 0.43354 0.0
C891 C 0.45235 0.42883 0.36503 0.0
C892 C 0.44467 0.43603 0.40017 0.0
C893 C 0.42249 0.45708 0.50179 0.0
C894 C 0.43007 0.4497 0.4667 0.0
H895 H 0.5014 0.4257 0.32626 0.0
H896 H 0.48895 0.43634 0.38232 0.0
H897 H 0.42633 0.45465 0.37686 0.0
H898 H 0.41905 0.50619 0.54077 0.0
H899 H 0.4302 0.49404 0.48499 0.0
C900 C 0.05859 0.48556 0.6557 0.0
C901 C 0.05633 0.46759 0.63015 0.0
C902 C 0.04521 0.47843 0.68813 0.0
C903 C 0.00588 0.4219 0.74949 0.0
H904 H 0.98966 0.46871 0.79438 0.0
C905 C 0.9584 0.40197 0.89246 0.0
C906 C 0.9432 0.41232 0.90193 0.0
C907 C 0.97181 0.40788 0.85984 0.0
C908 C 0.99363 0.45502 0.78253 0.0
H909 H 0.03731 0.42723 0.6207 0.0
H910 H 0.01415 0.41481 0.67658 0.0
H911 H 0.0121 0.47967 0.73876 0.0
H912 H 0.93075 0.4373 0.88232 0.0
H913 H 0.95327 0.44714 0.82666 0.0
H914 H 0.98692 0.39705 0.79318 0.0
C915 C 0.02661 0.43474 0.67176 0.0
C916 C 0.00713 0.46161 0.75015 0.0
C917 C 0.04001 0.44193 0.63914 0.0
C918 C 0.94205 0.42873 0.87687 0.0
C919 C 0.95542 0.43466 0.84446 0.0
C920 C 0.99242 0.41532 0.78204 0.0
C921 C 0.02864 0.45281 0.69722 0.0
C922 C 0.01374 0.44531 0.73252 0.0
C923 C 0.97088 0.42459 0.83488 0.0
C924 C 0.98579 0.43165 0.79959 0.0
H925 H 0.07077 0.50553 0.65063 0.0
H926 H 0.04823 0.49335 0.70632 0.0
H927 H 0.01039 0.40851 0.73789 0.0
H928 H 0.96022 0.38939 0.9105 0.0
H929 H 0.98338 0.3996 0.85463 0.0
C930 C 0.51286 0.9366 0.2008 0.0
C931 C 0.52893 0.94411 0.23045 0.0
C932 C 0.52029 0.95026 0.16863 0.0
C933 C 0.56602 0.01447 0.12963 0.0
H934 H 0.54703 0.97934 1.03999 0.0
C935 C 0.58102 0.06834 0.99391 0.0
C936 C 0.58849 0.06006 0.96381 0.0
C937 C 0.5744 0.05465 1.02607 0.0
C938 C 0.55267 0.98968 1.06462 0.0
H939 H 0.56588 0.97291 0.24808 0.0
H940 H 0.57852 0.99678 0.19292 0.0
H941 H 0.5346 0.95527 1.0949 0.0
H942 H 0.59427 0.02988 0.94535 0.0
H943 H 0.58238 0.006 1.0005 0.0
H944 H 0.58377 0.04889 1.09935 0.0
C945 C 0.56004 0.98006 0.19434 0.0
C946 C 0.54527 0.9757 1.09653 0.0
C947 C 0.55279 0.9661 0.22628 0.0
C948 C 0.58886 0.03729 0.9675 0.0
C949 C 0.58177 0.02333 0.99944 0.0
C950 C 0.57298 0.02846 1.09772 0.0
C951 C 0.54401 0.97252 0.16459 0.0
C952 C 0.55185 0.98769 0.12994 0.0
C953 C 0.57438 0.03164 1.02966 0.0
C954 C 0.56663 0.01646 1.0643 0.0
H955 H 0.4943 0.91999 0.20239 0.0
H956 H 0.50706 0.94358 0.14702 0.0
H957 H 0.57149 0.02482 0.15427 0.0
H958 H 0.58024 0.08558 0.9927 0.0
H959 H 0.56874 0.06195 1.04806 0.0
C960 C 0.57136 0.51324 0.54013 0.0
C961 C 0.58696 0.53134 0.56553 0.0
C962 C 0.5646 0.52027 0.5082 0.0
C963 C 0.58104 0.57694 0.44844 0.0
H964 H 0.51722 0.53077 0.40481 0.0
C965 C 0.55336 0.59803 0.30801 0.0
C966 C 0.52783 0.58876 0.29955 0.0
C967 C 0.5607 0.59149 0.33995 0.0
C968 C 0.5351 0.54423 0.4164 0.0
H969 H 0.60749 0.57167 0.57559 0.0
H970 H 0.5959 0.58386 0.52071 0.0
H971 H 0.52916 0.51916 0.45948 0.0
H972 H 0.4902 0.56498 0.3199 0.0
H973 H 0.5027 0.55392 0.37474 0.0
H974 H 0.58677 0.60218 0.4056 0.0
C975 C 0.58894 0.56398 0.52511 0.0
C976 C 0.54224 0.5373 0.44811 0.0
C977 C 0.59562 0.55691 0.55713 0.0
C978 C 0.51005 0.5727 0.32477 0.0
C979 C 0.51735 0.5661 0.35659 0.0
C980 C 0.57395 0.58383 0.41662 0.0
C981 C 0.57309 0.54586 0.49974 0.0
C982 C 0.56541 0.55344 0.46514 0.0
C983 C 0.54289 0.5752 0.36513 0.0
C984 C 0.55074 0.56771 0.39965 0.0
H985 H 0.5641 0.49334 0.54496 0.0
H986 H 0.55278 0.50539 0.4899 0.0
H987 H 0.59914 0.59015 0.45967 0.0
H988 H 0.56787 0.61028 0.2897 0.0
H989 H 0.58053 0.59895 0.34443 0.0
C990 C 0.06624 0.58331 0.87048 0.0
C991 C 0.05885 0.59197 0.90025 0.0
C992 C 0.05251 0.57681 0.83836 0.0
C993 C 0.98849 0.55745 0.79977 0.0
H994 H 0.02296 0.57395 0.71001 0.0
C995 C 0.9345 0.51755 0.66404 0.0
C996 C 0.94238 0.5335 0.63425 0.0
C997 C 0.94827 0.52485 0.69614 0.0
C998 C 0.01281 0.56914 0.73469 0.0
H999 H 0.03024 0.60002 0.91822 0.0
H1000 H 0.00626 0.58831 0.86312 0.0
H1001 H 0.04716 0.58602 0.76485 0.0
H1002 H 0.9719 0.57002 0.61623 0.0
H1003 H 0.99594 0.5824 0.6713 0.0
H1004 H 0.95413 0.54023 0.76961 0.0
C1005 C 0.02292 0.58668 0.86441 0.0
C1006 C 0.02686 0.57597 0.76654 0.0
C1007 C 0.03694 0.59367 0.8963 0.0
C1008 C 0.96483 0.55706 0.63817 0.0
C1009 C 0.97887 0.56415 0.67004 0.0
C1010 C 0.97443 0.55016 0.76792 0.0
C1011 C 0.03033 0.57809 0.83453 0.0
C1012 C 0.0151 0.57045 0.79997 0.0
C1013 C 0.97096 0.54826 0.69993 0.0
C1014 C 0.9862 0.55594 0.73449 0.0
H1015 H 0.08279 0.58149 0.87193 0.0
H1016 H 0.05908 0.57018 0.81661 0.0
H1017 H 0.97833 0.55247 0.82445 0.0
H1018 H 0.91752 0.49922 0.66263 0.0
H1019 H 0.9413 0.51174 0.71791 0.0
C1020 C 0.47314 0.0114 0.37466 0.0
C1021 C 0.46913 0.03176 0.37879 0.0
C1022 C 0.46929 0.99556 0.40328 0.0
C1023 C 0.49708 0.0183 0.48021 0.0
H1024 H 0.49333 0.95384 0.47259 0.0
C1025 C 0.53642 0.96454 0.40622 0.0
C1026 C 0.52434 0.96936 0.37864 0.0
C1027 C 0.53981 0.97677 0.43865 0.0
C1028 C 0.49471 0.97197 0.47681 0.0
H1029 H 0.45261 0.048 0.41318 0.0
H1030 H 0.44993 0.02312 0.46416 0.0
H1031 H 0.45579 0.95612 0.46412 0.0
H1032 H 0.51451 0.99607 0.35865 0.0
H1033 H 0.5238 0.0199 0.41313 0.0
H1034 H 0.53686 0.03459 0.48428 0.0
C1035 C 0.45509 0.01867 0.43897 0.0
C1036 C 0.47288 0.97317 0.47182 0.0
C1037 C 0.45733 0.03336 0.40982 0.0
C1038 C 0.52271 0.99123 0.38021 0.0
C1039 C 0.52821 0.00491 0.41163 0.0
C1040 C 0.51901 0.01703 0.48351 0.0
C1041 C 0.46325 1.00119 0.43673 0.0
C1042 C 0.47501 0.9969 0.46777 0.0
C1043 C 0.53265 0.99503 0.44248 0.0
C1044 C 0.51818 0.99443 0.47407 0.0
H1045 H 0.48133 0.00911 0.35067 0.0
H1046 H 0.47471 0.98138 0.4005 0.0
H1047 H 0.49902 0.03688 0.47931 0.0
H1048 H 0.54039 0.94943 0.40443 0.0
H1049 H 0.54431 0.96938 0.46155 0.0
C1050 C 0.46545 0.47895 0.70806 0.0
C1051 C 0.44127 0.47518 0.71231 0.0
C1052 C 0.47718 0.47458 0.73642 0.0
C1053 C 0.48322 0.50181 0.81449 0.0
H1054 H 0.54282 0.49684 0.80669 0.0
C1055 C 0.57684 0.5412 0.74262 0.0
C1056 C 0.55987 0.52883 0.71489 0.0
C1057 C 0.56794 0.54453 0.77494 0.0
C1058 C 0.52636 0.4985 0.81096 0.0
H1059 H 0.40852 0.45862 0.74659 0.0
H1060 H 0.43043 0.45524 0.79726 0.0
H1061 H 0.50233 0.45973 0.79628 0.0
H1062 H 0.52353 0.51909 0.69424 0.0
H1063 H 0.50915 0.52874 0.74839 0.0
H1064 H 0.50778 0.54163 0.82053 0.0
C1065 C 0.44002 0.46054 0.77213 0.0
C1066 C 0.50296 0.47694 0.80483 0.0
C1067 C 0.42777 0.46322 0.74317 0.0
C1068 C 0.53655 0.52735 0.716 0.0
C1069 C 0.52846 0.53304 0.74722 0.0
C1070 C 0.50683 0.52352 0.81888 0.0
C1071 C 0.46554 0.46836 0.76981 0.0
C1072 C 0.48181 0.47963 0.80105 0.0
C1073 C 0.54254 0.53732 0.77833 0.0
C1074 C 0.52826 0.52239 0.80938 0.0
H1075 H 0.47598 0.48724 0.68417 0.0
H1076 H 0.49663 0.47967 0.73356 0.0
H1077 H 0.46695 0.50416 0.81373 0.0
H1078 H 0.59602 0.54557 0.74102 0.0
H1079 H 0.57974 0.54909 0.79804 0.0
C1080 C 0.9937 0.46853 1.04665 0.0
C1081 C 0.97255 0.44444 1.05 0.0
C1082 C 0.00881 0.48033 1.07609 0.0
C1083 C 0.98429 0.48632 0.15126 0.0
H1084 H 0.04864 0.54728 0.14407 0.0
C1085 C 0.03841 0.57913 1.07506 0.0
C1086 C 0.03409 0.56177 1.04786 0.0
C1087 C 0.02623 0.57048 0.10743 0.0
C1088 C 0.03052 0.53052 0.14819 0.0
H1089 H 0.95413 0.41162 1.08408 0.0
H1090 H 0.97802 0.43355 0.13623 0.0
H1091 H 0.04624 0.50692 0.13831 0.0
H1092 H 0.00832 0.52434 1.02827 0.0
H1093 H 0.98436 0.51009 1.0824 0.0
H1094 H 0.96827 0.51013 0.15267 0.0
C1095 C 0.98354 0.44312 0.11111 0.0
C1096 C 0.02924 0.50716 0.14478 0.0
C1097 C 0.96944 0.43084 1.08126 0.0
C1098 C 0.01276 0.53775 1.04958 0.0
C1099 C 0.99902 0.52974 1.08077 0.0
C1100 C 0.98567 0.5098 0.15313 0.0
C1101 C 0.00179 0.46877 0.10947 0.0
C1102 C 0.00565 0.48532 0.14024 0.0
C1103 C 0.00831 0.5448 0.11143 0.0
C1104 C 0.00834 0.5315 0.14387 0.0
H1105 H 0.99715 0.47907 1.02251 0.0
H1106 H 0.02351 0.49991 1.07374 0.0
H1107 H 0.96578 0.46955 0.15014 0.0
H1108 H 0.05309 0.59853 1.07303 0.0
H1109 H 0.03322 0.58288 0.13017 0.0
C1110 C 0.02841 0.45843 0.45408 0.0
C1111 C 0.02656 0.4703 0.48498 0.0
C1112 C 0.01358 0.4556 0.42486 0.0
C1113 C 0.96795 0.47309 0.39185 0.0
H1114 H 0.02915 0.5373 0.37984 0.0
C1115 C 0.98631 0.52362 0.48409 0.0
C1116 C 0.96515 0.52626 0.48567 0.0
C1117 C -0.00029 0.52853 0.45266 0.0
C1118 C 0.01164 0.51939 0.3805 0.0
H1119 H 0.00346 0.4819 0.5129 0.0
H1120 H 0.97571 0.47448 0.46294 0.0
H1121 H 0.0312 0.49909 0.38407 0.0
H1122 H 0.94629 0.54334 0.45968 0.0
H1123 H 0.96548 0.54603 0.40252 0.0
H1124 H 0.94893 0.49387 0.39175 0.0
C1125 C 0.99004 0.46934 0.46028 0.0
C1126 C 0.01276 0.49723 0.38335 0.0
C1127 C 0.00593 0.47371 0.48898 0.0
C1128 C 0.96078 0.53859 0.45794 0.0
C1129 C 0.9726 0.54128 0.42547 0.0
C1130 C 0.96687 0.49514 0.3873 0.0
C1131 C 0.99584 0.46336 0.42688 0.0
C1132 C 0.9915 0.47509 0.39578 0.0
C1133 C 0.99019 0.53335 0.42178 0.0
C1134 C 0.9893 0.51868 0.39011 0.0
H1135 H 0.04328 0.45415 0.45086 0.0
H1136 H 0.01815 0.45046 0.39975 0.0
H1137 H 0.95099 0.45593 0.39948 0.0
H1138 H 0.9908 0.51517 0.50572 0.0
H1139 H 0.01419 0.5235 0.45121 0.0
C1140 C 0.46518 0.99866 0.82215 0.0
C1141 C 0.44078 0.97811 0.81892 0.0
C1142 C 0.47659 0.01444 0.7932 0.0
C1143 C 0.47899 0.99021 0.7157 0.0
H1144 H 0.54162 0.05315 0.72238 0.0
C1145 C 0.57312 0.04032 0.78787 0.0
C1146 C 0.5567 0.03629 0.81601 0.0
C1147 C 0.56352 0.0284 0.75549 0.0
C1148 C 0.5243 0.03543 0.71843 0.0
H1149 H 0.40721 0.96164 0.78634 0.0
H1150 H 0.42823 0.9866 0.73472 0.0
H1151 H 0.50278 0.05286 0.73175 0.0
H1152 H 0.51983 0.01091 0.8368 0.0
H1153 H 0.50375 0.98747 0.78225 0.0
H1154 H 0.50094 0.97232 0.71093 0.0
C1155 C 0.43842 0.99117 0.75937 0.0
C1156 C 0.50184 0.03538 0.72391 0.0
C1157 C 0.42663 0.97643 0.78885 0.0
C1158 C 0.53254 0.01522 0.8148 0.0
C1159 C 0.52348 1.00175 0.78336 0.0
C1160 C 0.50162 0.99032 0.71187 0.0
C1161 C 0.46421 0.00859 0.76033 0.0
C1162 C 0.47957 0.01216 0.7285 0.0
C1163 C 0.53773 0.0111 0.75222 0.0
C1164 C 0.52408 0.01237 0.72098 0.0
H1165 H 0.47616 1.00104 0.84553 0.0
H1166 H 0.49631 0.0286 0.79511 0.0
H1167 H 0.4618 0.97201 0.71682 0.0
H1168 H 0.59258 0.05465 0.78928 0.0
H1169 H 0.57532 0.03533 0.73232 0.0
C1170 C 0.53382 0.57686 0.11985 0.0
C1171 C 0.52228 0.56061 0.14852 0.0
C1172 C 0.53711 0.56722 1.08808 0.0
C1173 C 0.4948 0.5243 1.04672 0.0
H1174 H 0.50237 0.46565 1.04842 0.0
C1175 C 0.47429 0.46853 0.14831 0.0
C1176 C 0.47264 0.44497 0.1477 0.0
C1177 C 0.46876 0.47758 0.11805 0.0
C1178 C 0.49967 0.48172 1.04601 0.0
H1179 H 0.51313 0.52471 0.17075 0.0
H1180 H 0.52251 0.509 0.11737 0.0
H1181 H 0.53926 0.50729 1.04962 0.0
H1182 H 0.45685 0.40966 0.11867 0.0
H1183 H 0.45306 0.42751 1.06351 0.0
H1184 H 0.45526 0.49875 1.05138 0.0
C1185 C 0.52635 0.5283 0.11762 0.0
C1186 C 0.52112 0.50584 1.04652 0.0
C1187 C 0.52084 0.53715 0.14835 0.0
C1188 C 0.46098 0.42889 0.11872 0.0
C1189 C 0.45764 0.43872 1.0874 0.0
C1190 C 0.47335 0.50019 1.04753 0.0
C1191 C 0.53081 0.54184 1.08598 0.0
C1192 C 0.51836 0.52679 1.05394 0.0
C1193 C 0.46403 0.46412 1.08605 0.0
C1194 C 0.47621 0.47926 1.05414 0.0
H1195 H 0.53784 0.59607 0.1204 0.0
H1196 H 0.54151 0.57851 1.06449 0.0
H1197 H 0.49213 0.54039 1.04969 0.0
H1198 H 0.48214 0.48086 0.17096 0.0
H1199 H 0.47269 0.49691 0.11838 0.0
C1200 C 0.3011 0.95059 0.68835 0.0
C1201 C 0.30183 0.95968 0.72255 0.0
C1202 C 0.29559 0.96106 0.65977 0.0
C1203 C 0.30294 0.02208 0.63565 0.0
H1204 H 0.28459 0.9881 0.54519 0.0
C1205 C 0.35984 0.06676 0.51404 0.0
C1206 C 0.35026 0.05737 0.48038 0.0
C1207 C 0.34445 0.05747 0.54357 0.0
C1208 C 0.28918 0.99807 0.57012 0.0
H1209 H 0.29512 0.9854 0.75394 0.0
H1210 H 0.28464 1.00313 0.70406 0.0
H1211 H 0.2714 0.96334 0.59851 0.0
H1212 H 0.31632 0.03276 0.45097 0.0
H1213 H 0.28917 0.01727 0.50246 0.0
H1214 H 0.32076 0.05682 0.60726 0.0
C1215 C 0.28902 0.98835 0.69923 0.0
C1216 C 0.28192 0.98375 0.60084 0.0
C1217 C 0.2948 0.978 0.72788 0.0
C1218 C 0.32436 0.04031 0.47657 0.0
C1219 C 0.30882 0.03122 0.50616 0.0
C1220 C 0.30972 0.03643 0.60495 0.0
C1221 C 0.29036 0.98073 0.66469 0.0
C1222 C 0.29036 0.99552 0.63381 0.0
C1223 C 0.31894 0.03878 0.54016 0.0
C1224 C 0.30458 0.02454 0.57179 0.0
H1225 H 0.30584 0.93606 0.68345 0.0
H1226 H 0.29712 0.95478 0.63368 0.0
H1227 H 0.30961 0.03195 0.66051 0.0
H1228 H 0.37958 0.08041 0.51778 0.0
H1229 H 0.35313 0.06373 0.56915 0.0
C1230 C 0.35784 0.30607 1.01748 0.0
C1231 C 0.3517 0.31166 1.05062 0.0
C1232 C 0.34163 0.30059 0.98901 0.0
C1233 C 0.30094 0.28417 0.93334 0.0
H1234 H 0.28918 0.34017 0.92253 0.0
C1235 C 0.30908 0.33123 0.80277 0.0
C1236 C 0.298 0.34612 0.7978 0.0
C1237 C 0.30467 0.31739 0.83356 0.0
C1238 C 0.2914 0.32384 0.9252 0.0
H1239 H 0.32322 0.3146 1.08046 0.0
H1240 H 0.29494 0.30511 1.03061 0.0
H1241 H 0.30196 0.33274 0.97906 0.0
H1242 H 0.27162 0.35621 0.81916 0.0
H1243 H 0.26335 0.33146 0.87283 0.0
H1244 H 0.2914 0.27598 0.8789 0.0
C1245 C 0.31226 0.30493 1.02672 0.0
C1246 C 0.29886 0.31964 0.95778 0.0
C1247 C 0.32841 0.31028 1.05523 0.0
C1248 C 0.28071 0.34518 0.82273 0.0
C1249 C 0.27603 0.33104 0.85341 0.0
C1250 C 0.29317 0.28819 0.90075 0.0
C1251 C 0.31906 0.30076 0.99314 0.0
C1252 C 0.30494 0.30059 0.96168 0.0
C1253 C 0.28892 0.31799 0.85994 0.0
C1254 C 0.28969 0.30896 0.89585 0.0
H1255 H 0.37552 0.30666 1.01334 0.0
H1256 H 0.34751 0.29773 0.96334 0.0
H1257 H 0.30512 0.26908 0.93588 0.0
H1258 H 0.32264 0.33176 0.78409 0.0
H1259 H 0.31524 0.30791 0.8377 0.0
C1260 C 0.93884 0.30293 0.17715 0.0
C1261 C 0.94756 0.30252 0.14315 0.0
C1262 C 0.94864 0.2971 0.2062 0.0
C1263 C 0.96988 0.28276 0.26624 0.0
H1264 H 0.04251 0.31847 0.25979 0.0
C1265 C 0.02797 0.32479 0.39014 0.0
C1266 C 0.04602 0.3505 0.38595 0.0
C1267 C 0.01782 0.309 0.36076 0.0
C1268 C 0.02223 0.3083 0.2621 0.0
H1269 H 0.97178 0.29341 0.11264 0.0
H1270 H 0.98831 0.28239 0.16336 0.0
H1271 H 0.0177 0.30744 0.20647 0.0
H1272 H 0.06946 0.37912 0.34805 0.0
H1273 H 0.05107 0.35225 0.29705 0.0
H1274 H 0.97448 0.28624 0.32189 0.0
C1275 C 0.97437 0.28791 0.16766 0.0
C1276 C 0.0079 0.30157 0.23138 0.0
C1277 C 0.96471 0.29401 0.13854 0.0
C1278 C 0.05512 0.35956 0.35209 0.0
C1279 C 0.04483 0.34391 0.32279 0.0
C1280 C 0.98423 0.28996 0.29696 0.0
C1281 C 0.96723 0.29042 0.20197 0.0
C1282 C 0.98159 0.29015 0.23318 0.0
C1283 C 0.02535 0.31866 0.32661 0.0
C1284 C 0.01062 0.30425 0.29521 0.0
H1285 H 0.92518 0.30882 0.18151 0.0
H1286 H 0.94276 0.29954 0.23207 0.0
H1287 H 0.94962 0.27315 0.26856 0.0
H1288 H 0.02059 0.31718 0.41592 0.0
H1289 H 0.00321 0.28954 0.36476 0.0
C1290 C 0.69297 0.05968 0.678 0.0
C1291 C 0.69412 0.05254 0.71261 0.0
C1292 C 0.6986 0.04876 0.64979 0.0
C1293 C 0.6934 0.98823 0.62969 0.0
H1294 H 0.70757 0.0177 0.53665 0.0
C1295 C 0.63154 0.93841 0.51396 0.0
C1296 C 0.64004 0.94562 0.47936 0.0
C1297 C 0.64808 0.94899 0.54217 0.0
C1298 C 0.70418 0.00903 0.56233 0.0
H1299 H 0.70422 0.02996 0.74498 0.0
H1300 H 0.71471 0.0114 0.69569 0.0
H1301 H 0.72223 0.0451 0.58791 0.0
H1302 H 0.67306 0.96786 0.44702 0.0
H1303 H 0.70207 0.98578 0.49629 0.0
H1304 H 0.67485 0.95216 0.60411 0.0
C1305 C 0.70893 0.02506 0.69032 0.0
C1306 C 0.71233 0.02484 0.59181 0.0
C1307 C 0.70311 0.03586 0.71858 0.0
C1308 C 0.66587 0.96192 0.47339 0.0
C1309 C 0.68249 0.97238 0.50166 0.0
C1310 C 0.68561 0.97242 0.60021 0.0
C1311 C 0.7057 0.03056 0.65556 0.0
C1312 C 0.70534 0.01462 0.62573 0.0
C1313 C 0.67358 0.9669 0.53642 0.0
C1314 C 0.68923 0.98267 0.56628 0.0
H1315 H 0.68665 0.0729 0.6726 0.0
H1316 H 0.69563 0.05336 0.62346 0.0
H1317 H 0.68783 0.97959 0.65538 0.0
H1318 H 0.61186 0.92544 0.51936 0.0
H1319 H 0.64037 0.94441 0.5685 0.0
C1320 C 0.66845 0.69689 1.06514 0.0
C1321 C 0.64566 0.69621 1.05894 0.0
C1322 C 0.68512 0.70131 1.03753 0.0
C1323 C 0.69696 0.68267 0.97033 0.0
H1324 H 0.7076 0.72452 0.88872 0.0
C1325 C 0.70937 0.6488 0.83674 0.0
C1326 C 0.69312 0.64927 0.81143 0.0
C1327 C 0.71538 0.66386 0.86695 0.0
C1328 C 0.70493 0.71277 0.91135 0.0
H1329 H 0.62344 0.70184 1.01997 0.0
H1330 H 0.65239 0.70924 0.97156 0.0
H1331 H 0.69594 0.73536 0.94488 0.0
H1332 H 0.6714 0.66664 0.79673 0.0
H1333 H 0.68092 0.69203 0.84969 0.0
H1334 H 0.70345 0.65869 0.93668 0.0
C1335 C 0.65747 0.70651 0.99773 0.0
C1336 C 0.6984 0.71908 0.94348 0.0
C1337 C 0.64072 0.70192 1.02528 0.0
C1338 C 0.68411 0.66604 0.81579 0.0
C1339 C 0.6898 0.6808 0.84612 0.0
C1340 C 0.70313 0.67617 0.9382 0.0
C1341 C 0.67933 0.70526 1.00334 0.0
C1342 C 0.69314 0.70334 0.97276 0.0
C1343 C 0.70484 0.67928 0.87265 0.0
C1344 C 0.70582 0.69036 0.90789 0.0
H1345 H 0.67271 0.69248 1.09084 0.0
H1346 H 0.70187 0.7003 1.04251 0.0
H1347 H 0.69285 0.67006 0.9924 0.0
H1348 H 0.71688 0.63629 0.8336 0.0
H1349 H 0.72741 0.66259 0.88652 0.0
C1350 C 0.0571 0.69685 0.18391 0.0
C1351 C 0.04989 0.69738 0.14912 0.0
C1352 C 0.04555 0.70191 0.2118 0.0
C1353 C 0.9843 0.69447 0.23114 0.0
H1354 H 0.0139 0.7113 0.32418 0.0
C1355 C 0.93587 0.63435 0.34874 0.0
C1356 C 0.94322 0.64368 0.38307 0.0
C1357 C 0.94603 0.6504 0.31998 0.0
C1358 C 0.00516 0.70714 0.29847 0.0
H1359 H 0.02631 0.70568 0.11612 0.0
H1360 H 0.00666 0.71524 0.16485 0.0
H1361 H 0.04092 0.7257 0.27291 0.0
H1362 H 0.96521 0.67768 0.41431 0.0
H1363 H 0.98229 0.70584 0.3641 0.0
H1364 H 0.94856 0.67554 0.25672 0.0
C1365 C 0.02087 0.71036 0.17061 0.0
C1366 C 0.02076 0.71513 0.26899 0.0
C1367 C 0.03231 0.70509 0.14266 0.0
C1368 C 0.95917 0.66983 0.38817 0.0
C1369 C 0.96917 0.68597 0.35936 0.0
C1370 C 0.96868 0.68686 0.26062 0.0
C1371 C 0.02664 0.70785 0.20554 0.0
C1372 C 0.01057 0.70725 0.23515 0.0
C1373 C 0.96362 0.67624 0.32489 0.0
C1374 C 0.97901 0.69148 0.29461 0.0
H1375 H 0.07098 0.69152 0.18971 0.0
H1376 H 0.05037 0.69948 0.23828 0.0
H1377 H 0.97569 0.6882 0.20551 0.0
H1378 H 0.92313 0.6144 0.34397 0.0
H1379 H 0.94138 0.64205 0.29393 0.0
C1380 C 0.49392 0.09414 0.48391 0.0
C1381 C 0.51086 0.10551 0.45555 0.0
C1382 C 0.50237 0.09355 0.51871 0.0
C1383 C 0.56133 0.10556 0.57143 0.0
H1384 H 0.5203 0.09935 0.65212 0.0
C1385 C 0.59281 0.09738 0.71755 0.0
C1386 C 0.5841 0.10532 0.7467 0.0
C1387 C 0.58408 0.09687 0.6825 0.0
C1388 C 0.53246 0.1014 0.63028 0.0
H1389 H 0.55065 0.12526 0.44358 0.0
H1390 H 0.56513 0.12488 0.5029 0.0
H1391 H 0.50548 0.10017 0.59328 0.0
H1392 H 0.55877 0.119 0.75973 0.0
H1393 H 0.54436 0.11863 0.70034 0.0
H1394 H 0.58857 0.10739 0.60856 0.0
C1395 C 0.54508 0.11583 0.49868 0.0
C1396 C 0.52357 0.10149 0.5957 0.0
C1397 C 0.53665 0.11631 0.46402 0.0
C1398 C 0.56632 0.11276 0.73876 0.0
C1399 C 0.55766 0.11227 0.70398 0.0
C1400 C 0.57024 0.1055 0.60604 0.0
C1401 C 0.52828 0.10432 0.52724 0.0
C1402 C 0.53775 0.10372 0.56506 0.0
C1403 C 0.56609 0.10419 0.67462 0.0
C1404 C 0.55619 0.10359 0.63668 0.0
H1405 H 0.47391 0.08516 0.47913 0.0
H1406 H 0.48827 0.08406 0.53883 0.0
H1407 H 0.57316 0.10685 0.54955 0.0
H1408 H 0.60614 0.09109 0.72181 0.0
H1409 H 0.59122 0.09014 0.66163 0.0
C1410 C 0.42302 0.54124 0.79861 0.0
C1411 C 0.40807 0.51535 0.78939 0.0
C1412 C 0.43172 0.54941 0.83351 0.0
C1413 C 0.42348 0.52695 0.92974 0.0
H1414 H 0.48361 0.59192 0.94463 0.0
C1415 C 0.45379 0.5693 1.07345 0.0
C1416 C 0.47918 0.58644 1.08241 0.0
C1417 C 0.44598 0.56089 1.03841 0.0
C1418 C 0.46685 0.57359 0.94149 0.0
H1419 H 0.39124 0.47792 0.81183 0.0
H1420 H 0.4063 0.49185 0.87204 0.0
H1421 H 0.46905 0.57691 0.88506 0.0
H1422 H 0.51618 0.60763 1.05913 0.0
H1423 H 0.5028 0.59312 0.99838 0.0
H1424 H 0.42164 0.52331 0.98609 0.0
C1425 C 0.41105 0.5062 0.85229 0.0
C1426 C 0.4581 0.56493 0.90662 0.0
C1427 C 0.40226 0.49801 0.81722 0.0
C1428 C 0.49642 0.5948 1.05403 0.0
C1429 C 0.48856 0.58632 1.01869 0.0
C1430 C 0.43222 0.53561 0.96458 0.0
C1431 C 0.42619 0.53221 0.86153 0.0
C1432 C 0.43602 0.54139 0.89958 0.0
C1433 C 0.46305 0.56895 1.00982 0.0
C1434 C 0.45409 0.5593 0.97165 0.0
H1435 H 0.42823 0.55552 0.77857 0.0
H1436 H 0.44273 0.56954 0.83838 0.0
H1437 H 0.40642 0.50887 0.92671 0.0
H1438 H 0.43956 0.56208 1.09382 0.0
H1439 H 0.42616 0.54811 1.03389 0.0
C1440 C 0.88753 0.42902 0.13194 0.0
C1441 C 0.8979 0.41371 0.12292 0.0
C1442 C 0.88778 0.4375 0.16696 0.0
C1443 C 0.90063 0.4284 0.26368 0.0
H1444 H 0.89582 0.48832 0.27896 0.0
C1445 C 0.88877 0.45844 0.4079 0.0
C1446 C 0.89639 0.4838 0.41684 0.0
C1447 C 0.88942 0.45063 0.37281 0.0
C1448 C 0.89739 0.47162 0.27577 0.0
H1449 H 0.91721 0.39603 0.14586 0.0
H1450 H 0.91796 0.41077 0.20624 0.0
H1451 H 0.89677 0.47414 0.21938 0.0
H1452 H 0.91112 0.52074 0.39348 0.0
H1453 H 0.91242 0.50741 0.3328 0.0
H1454 H 0.9021 0.42635 0.32003 0.0
C1455 C 0.90897 0.41595 0.18626 0.0
C1456 C 0.89757 0.46307 0.24081 0.0
C1457 C 0.90859 0.40734 0.15108 0.0
C1458 C 0.90468 0.50098 0.38841 0.0
C1459 C 0.90538 0.49314 0.35306 0.0
C1460 C 0.90052 0.43699 0.29862 0.0
C1461 C 0.89863 0.43142 0.19534 0.0
C1462 C 0.89902 0.44105 0.23356 0.0
C1463 C 0.89788 0.46767 0.34416 0.0
C1464 C 0.8987 0.45879 0.30589 0.0
H1465 H 0.8791 0.43466 0.11166 0.0
H1466 H 0.87907 0.44876 0.17159 0.0
H1467 H 0.90162 0.41138 0.26056 0.0
H1468 H 0.88226 0.44427 0.42832 0.0
H1469 H 0.88289 0.43082 0.36836 0.0
C1470 C 0.49647 0.90795 0.47723 0.0
C1471 C 0.47962 0.90059 0.44847 0.0
C1472 C 0.48871 0.90884 0.51254 0.0
C1473 C 0.4338 0.90646 0.5663 0.0
H1474 H 0.46886 0.90002 0.64601 0.0
C1475 C 0.40411 0.91503 0.71349 0.0
C1476 C 0.40958 0.90358 0.74168 0.0
C1477 C 0.41281 0.91527 0.67846 0.0
C1478 C 0.45837 0.9016 0.62443 0.0
H1479 H 0.44076 0.8883 0.43643 0.0
H1480 H 0.42746 0.88926 0.49621 0.0
H1481 H 0.48301 0.8988 0.5866 0.0
H1482 H 0.42901 0.88329 0.75311 0.0
H1483 H 0.44324 0.88303 0.69343 0.0
H1484 H 0.40879 0.90863 0.60399 0.0
C1485 C 0.44696 0.89493 0.49209 0.0
C1486 C 0.46693 0.90125 0.58958 0.0
C1487 C 0.45468 0.89408 0.45707 0.0
C1488 C 0.42409 0.89233 0.73281 0.0
C1489 C 0.43264 0.89244 0.69793 0.0
C1490 C 0.42522 0.90675 0.60112 0.0
C1491 C 0.46366 0.90247 0.52107 0.0
C1492 C 0.45484 0.9035 0.55928 0.0
C1493 C 0.42745 0.90402 0.66952 0.0
C1494 C 0.43711 0.90419 0.63143 0.0
H1495 H 0.5159 0.91351 0.47246 0.0
H1496 H 0.50272 0.91512 0.53307 0.0
H1497 H 0.42377 0.90882 0.54478 0.0
H1498 H 0.39344 0.92433 0.71857 0.0
H1499 H 0.40832 0.92485 0.6585 0.0
C1500 C 0.59352 0.5029 0.81271 0.0
C1501 C 0.58463 0.48535 0.78443 0.0
C1502 C 0.58512 0.49544 0.84814 0.0
C1503 C 0.53444 0.43934 0.90319 0.0
H1504 H 0.57514 0.47838 0.98217 0.0
C1505 C 0.49766 0.41061 1.05127 0.0
C1506 C 0.51503 0.41803 1.07939 0.0
C1507 C 0.50552 0.41891 1.01593 0.0
C1508 C 0.56332 0.46676 0.96083 0.0
H1509 H 0.55943 0.44556 0.77343 0.0
H1510 H 0.54567 0.43279 0.83344 0.0
H1511 H 0.58992 0.49198 0.92253 0.0
H1512 H 0.55492 0.44054 1.09024 0.0
H1513 H 0.56835 0.45407 1.03028 0.0
H1514 H 0.50814 0.41378 0.94145 0.0
C1515 C 0.55879 0.4526 0.82883 0.0
C1516 C 0.57186 0.47499 0.92579 0.0
C1517 C 0.56708 0.46003 0.79367 0.0
C1518 C 0.54058 0.43406 1.07009 0.0
C1519 C 0.54842 0.44222 1.03499 0.0
C1520 C 0.52594 0.43108 0.93821 0.0
C1521 C 0.56734 0.46999 0.85733 0.0
C1522 C 0.5578 0.46147 0.89572 0.0
C1523 C 0.53122 0.4351 1.00664 0.0
C1524 C 0.54015 0.44441 0.96829 0.0
H1525 H 0.6067 0.52263 0.80745 0.0
H1526 H 0.59235 0.50998 0.86824 0.0
H1527 H 0.52226 0.42815 0.88187 0.0
H1528 H 0.47779 0.39868 1.05661 0.0
H1529 H 0.49112 0.41287 0.99599 0.0
C1530 C 0.1119 0.53942 0.40065 0.0
C1531 C 0.10057 0.51347 0.40925 0.0
C1532 C 0.11161 0.54783 0.36594 0.0
C1533 C 0.0966 0.52569 0.26908 0.0
H1534 H 0.10459 0.59193 0.25579 0.0
C1535 C 0.10885 0.56817 0.12591 0.0
C1536 C 0.10224 0.5866 0.11772 0.0
C1537 C 0.10809 0.55954 0.16074 0.0
C1538 C 0.10211 0.57325 0.25843 0.0
H1539 H 0.07949 0.47619 0.38591 0.0
H1540 H 0.07867 0.49051 0.32607 0.0
H1541 H 0.10365 0.57651 0.3149 0.0
H1542 H 0.08928 0.60991 0.14222 0.0
H1543 H 0.08786 0.59503 0.20256 0.0
H1544 H 0.09422 0.52207 0.2127 0.0
C1545 C 0.08845 0.50475 0.34612 0.0
C1546 C 0.10193 0.56433 0.29309 0.0
C1547 C 0.08887 0.49632 0.38099 0.0
C1548 C 0.09489 0.59603 0.14669 0.0
C1549 C 0.09412 0.58734 0.18182 0.0
C1550 C 0.09671 0.53458 0.23445 0.0
C1551 C 0.09976 0.53083 0.33747 0.0
C1552 C 0.09935 0.5403 0.29961 0.0
C1553 C 0.10058 0.56866 0.18992 0.0
C1554 C 0.09969 0.55876 0.2279 0.0
H1555 H 0.12114 0.55357 0.42103 0.0
H1556 H 0.12109 0.568 0.36161 0.0
H1557 H 0.09469 0.50724 0.27161 0.0
H1558 H 0.11463 0.56007 0.10509 0.0
H1559 H 0.11383 0.54571 0.16457 0.0
loop_
_geom_bond_atom_site_label_1
_geom_bond_atom_site_label_2
_geom_bond_distance
_geom_bond_site_symmetry_2
_ccdc_geom_bond_type
Ho0 C3 2.811 . S
Ho0 O20 2.322 . S
Ho0 O22 2.378 . S
Ho0 O23 2.524 . S
Ho0 O24 2.381 . S
Ho0 O25 2.669 . S
Ho0 O27 2.346 . S
Ho0 O31 2.305 . S
Ho1 C12 2.811 . S
Ho1 O21 2.346 . S
Ho1 O25 2.305 . S
Ho1 O26 2.322 . S
Ho1 O28 2.378 . S
Ho1 O29 2.524 . S
Ho1 O30 2.381 . S
Ho1 O31 2.669 . S
C2 O20 1.259 . S
C2 O21 1.268 . S
C3 Ho0 2.811 . S
C3 C4 1.488 . S
C3 O22 1.215 . S
C3 O23 1.289 . S
C4 C3 1.488 . S
C4 C5 1.348 . S
C4 C9 1.413 . S
C5 C4 1.348 . S
C5 C6 1.442 . S
C5 H32 0.930 . S
C6 C5 1.442 . S
C6 C7 1.381 . S
C6 H33 0.931 . S
C7 C6 1.381 . S
C7 C8 1.321 . S
C8 C7 1.321 . S
C8 C9 1.403 . S
C8 H34 0.934 . S
C9 C4 1.413 . S
C9 C8 1.403 . S
C9 H35 0.930 . S
C10 O24 1.275 . S
C10 O25 1.256 . S
C11 O26 1.259 . S
C11 O27 1.268 . S
C12 Ho1 2.811 . S
C12 C13 1.488 . S
C12 O28 1.215 . S
C12 O29 1.289 . S
C13 C12 1.488 . S
C13 C14 1.348 . S
C13 C18 1.413 . S
C14 C13 1.348 . S
C14 C15 1.442 . S
C14 H36 0.930 . S
C15 C14 1.442 . S
C15 C16 1.381 . S
C15 H37 0.931 . S
C16 C15 1.381 . S
C16 C17 1.321 . S
C17 C16 1.321 . S
C17 C18 1.403 . S
C17 H38 0.934 . S
C18 C13 1.413 . S
C18 C17 1.403 . S
C18 H39 0.930 . S
C19 O30 1.275 . S
C19 O31 1.256 . S
O20 Ho0 2.322 . S
O20 C2 1.259 . S
O21 Ho1 2.346 . S
O21 C2 1.268 . S
O22 Ho0 2.378 . S
O22 C3 1.215 . S
O23 Ho0 2.524 . S
O23 C3 1.289 . S
O24 Ho0 2.381 . S
O24 C10 1.275 . S
O25 Ho0 2.669 . S
O25 Ho1 2.305 . S
O25 C10 1.256 . S
O26 Ho1 2.322 . S
O26 C11 1.259 . S
O27 Ho0 2.346 . S
O27 C11 1.268 . S
O28 Ho1 2.378 . S
O28 C12 1.215 . S
O29 Ho1 2.524 . S
O29 C12 1.289 . S
O30 Ho1 2.381 . S
O30 C19 1.275 . S
O31 Ho0 2.305 . S
O31 Ho1 2.669 . S
O31 C19 1.256 . S
H32 C5 0.930 . S
H33 C6 0.931 . S
H34 C8 0.934 . S
H35 C9 0.930 . S
H36 C14 0.930 . S
H37 C15 0.931 . S
H38 C17 0.934 . S
H39 C18 0.930 . S
Ho40 C43 2.811 . S
Ho40 O60 2.322 . S
Ho40 O62 2.378 . S
Ho40 O63 2.524 . S
Ho40 O64 2.381 . S
Ho40 O65 2.669 . S
Ho40 O67 2.346 . S
Ho40 O71 2.305 . S
Ho41 C52 2.811 . S
Ho41 O61 2.346 . S
Ho41 O65 2.305 . S
Ho41 O66 2.322 . S
Ho41 O68 2.378 . S
Ho41 O69 2.524 . S
Ho41 O70 2.381 . S
Ho41 O71 2.669 . S
C42 O60 1.259 . S
C42 O61 1.268 . S
C43 Ho40 2.811 . S
C43 C44 1.488 . S
C43 O62 1.215 . S
C43 O63 1.289 . S
C44 C43 1.488 . S
C44 C45 1.348 . S
C44 C49 1.413 . S
C45 C44 1.348 . S
C45 C46 1.442 . S
C45 H72 0.930 . S
C46 C45 1.442 . S
C46 C47 1.381 . S
C46 H73 0.931 . S
C47 C46 1.381 . S
C47 C48 1.321 . S
C48 C47 1.321 . S
C48 C49 1.403 . S
C48 H74 0.934 . S
C49 C44 1.413 . S
C49 C48 1.403 . S
C49 H75 0.930 . S
C50 O64 1.275 . S
C50 O65 1.256 . S
C51 O66 1.259 . S
C51 O67 1.268 . S
C52 Ho41 2.811 . S
C52 C53 1.488 . S
C52 O68 1.215 . S
C52 O69 1.289 . S
C53 C52 1.488 . S
C53 C54 1.348 . S
C53 C58 1.413 . S
C54 C53 1.348 . S
C54 C55 1.442 . S
C54 H76 0.930 . S
C55 C54 1.442 . S
C55 C56 1.381 . S
C55 H77 0.931 . S
C56 C55 1.381 . S
C56 C57 1.321 . S
C57 C56 1.321 . S
C57 C58 1.403 . S
C57 H78 0.934 . S
C58 C53 1.413 . S
C58 C57 1.403 . S
C58 H79 0.930 . S
C59 O70 1.275 . S
C59 O71 1.256 . S
O60 Ho40 2.322 . S
O60 C42 1.259 . S
O61 Ho41 2.346 . S
O61 C42 1.268 . S
O62 Ho40 2.378 . S
O62 C43 1.215 . S
O63 Ho40 2.524 . S
O63 C43 1.289 . S
O64 Ho40 2.381 . S
O64 C50 1.275 . S
O65 Ho40 2.669 . S
O65 Ho41 2.305 . S
O65 C50 1.256 . S
O66 Ho41 2.322 . S
O66 C51 1.259 . S
O67 Ho40 2.346 . S
O67 C51 1.268 . S
O68 Ho41 2.378 . S
O68 C52 1.215 . S
O69 Ho41 2.524 . S
O69 C52 1.289 . S
O70 Ho41 2.381 . S
O70 C59 1.275 . S
O71 Ho40 2.305 . S
O71 Ho41 2.669 . S
O71 C59 1.256 . S
H72 C45 0.930 . S
H73 C46 0.931 . S
H74 C48 0.934 . S
H75 C49 0.930 . S
H76 C54 0.930 . S
H77 C55 0.931 . S
H78 C57 0.934 . S
H79 C58 0.930 . S
Ho80 C83 2.811 . S
Ho80 O100 2.322 . S
Ho80 O102 2.378 . S
Ho80 O103 2.524 . S
Ho80 O104 2.381 . S
Ho80 O105 2.669 . S
Ho80 O107 2.346 . S
Ho80 O111 2.305 . S
Ho81 C92 2.811 . S
Ho81 O101 2.346 . S
Ho81 O105 2.305 . S
Ho81 O106 2.322 . S
Ho81 O108 2.378 . S
Ho81 O109 2.524 . S
Ho81 O110 2.381 . S
Ho81 O111 2.669 . S
C82 O100 1.259 . S
C82 O101 1.268 . S
C83 Ho80 2.811 . S
C83 C84 1.488 1_556 S
C83 O102 1.215 . S
C83 O103 1.289 . S
C84 C83 1.488 1_554 S
C84 C85 1.348 . S
C84 C89 1.413 . S
C85 C84 1.348 . S
C85 C86 1.442 . S
C85 H112 0.930 . S
C86 C85 1.442 . S
C86 C87 1.381 . S
C86 H113 0.931 . S
C87 C86 1.381 . S
C87 C88 1.321 . S
C88 C87 1.321 . S
C88 C89 1.403 . S
C88 H114 0.934 . S
C89 C84 1.413 . S
C89 C88 1.403 . S
C89 H115 0.930 . S
C90 O104 1.275 . S
C90 O105 1.256 . S
C91 O106 1.259 . S
C91 O107 1.268 . S
C92 Ho81 2.811 . S
C92 C93 1.488 . S
C92 O108 1.215 . S
C92 O109 1.289 . S
C93 C92 1.488 . S
C93 C94 1.348 . S
C93 C98 1.413 . S
C94 C93 1.348 . S
C94 C95 1.442 . S
C94 H116 0.930 . S
C95 C94 1.442 . S
C95 C96 1.381 . S
C95 H117 0.931 . S
C96 C95 1.381 . S
C96 C97 1.321 . S
C97 C96 1.321 . S
C97 C98 1.403 . S
C97 H118 0.934 . S
C98 C93 1.413 . S
C98 C97 1.403 . S
C98 H119 0.930 . S
C99 O110 1.275 . S
C99 O111 1.256 . S
O100 Ho80 2.322 . S
O100 C82 1.259 . S
O101 Ho81 2.346 . S
O101 C82 1.268 . S
O102 Ho80 2.378 . S
O102 C83 1.215 . S
O103 Ho80 2.524 . S
O103 C83 1.289 . S
O104 Ho80 2.381 . S
O104 C90 1.275 . S
O105 Ho80 2.669 . S
O105 Ho81 2.305 . S
O105 C90 1.256 . S
O106 Ho81 2.322 . S
O106 C91 1.259 . S
O107 Ho80 2.346 . S
O107 C91 1.268 . S
O108 Ho81 2.378 . S
O108 C92 1.215 . S
O109 Ho81 2.524 . S
O109 C92 1.289 . S
O110 Ho81 2.381 . S
O110 C99 1.275 . S
O111 Ho80 2.305 . S
O111 Ho81 2.669 . S
O111 C99 1.256 . S
H112 C85 0.930 . S
H113 C86 0.931 . S
H114 C88 0.934 . S
H115 C89 0.930 . S
H116 C94 0.930 . S
H117 C95 0.931 . S
H118 C97 0.934 . S
H119 C98 0.930 . S
Ho120 C123 2.811 . S
Ho120 O140 2.322 . S
Ho120 O142 2.378 . S
Ho120 O143 2.524 . S
Ho120 O144 2.381 . S
Ho120 O145 2.669 . S
Ho120 O147 2.346 . S
Ho120 O151 2.305 . S
Ho121 C132 2.811 . S
Ho121 O141 2.346 . S
Ho121 O145 2.305 . S
Ho121 O146 2.322 . S
Ho121 O148 2.378 . S
Ho121 O149 2.524 . S
Ho121 O150 2.381 . S
Ho121 O151 2.669 . S
C122 O140 1.259 . S
C122 O141 1.268 . S
C123 Ho120 2.811 . S
C123 C124 1.488 . S
C123 O142 1.215 . S
C123 O143 1.289 . S
C124 C123 1.488 . S
C124 C125 1.348 . S
C124 C129 1.413 . S
C125 C124 1.348 . S
C125 C126 1.442 . S
C125 H152 0.930 . S
C126 C125 1.442 . S
C126 C127 1.381 . S
C126 H153 0.931 . S
C127 C126 1.381 . S
C127 C128 1.321 . S
C128 C127 1.321 . S
C128 C129 1.403 . S
C128 H154 0.934 . S
C129 C124 1.413 . S
C129 C128 1.403 . S
C129 H155 0.930 . S
C130 O144 1.275 . S
C130 O145 1.256 . S
C131 O146 1.259 . S
C131 O147 1.268 . S
C132 Ho121 2.811 . S
C132 C133 1.488 . S
C132 O148 1.215 . S
C132 O149 1.289 . S
C133 C132 1.488 . S
C133 C134 1.348 . S
C133 C138 1.413 . S
C134 C133 1.348 . S
C134 C135 1.442 . S
C134 H156 0.930 . S
C135 C134 1.442 . S
C135 C136 1.381 . S
C135 H157 0.931 . S
C136 C135 1.381 . S
C136 C137 1.321 . S
C137 C136 1.321 . S
C137 C138 1.403 . S
C137 H158 0.934 . S
C138 C133 1.413 . S
C138 C137 1.403 . S
C138 H159 0.930 . S
C139 O150 1.275 . S
C139 O151 1.256 . S
O140 Ho120 2.322 . S
O140 C122 1.259 . S
O141 Ho121 2.346 . S
O141 C122 1.268 . S
O142 Ho120 2.378 . S
O142 C123 1.215 . S
O143 Ho120 2.524 . S
O143 C123 1.289 . S
O144 Ho120 2.381 . S
O144 C130 1.275 . S
O145 Ho120 2.669 . S
O145 Ho121 2.305 . S
O145 C130 1.256 . S
O146 Ho121 2.322 . S
O146 C131 1.259 . S
O147 Ho120 2.346 . S
O147 C131 1.268 . S
O148 Ho121 2.378 . S
O148 C132 1.215 . S
O149 Ho121 2.524 . S
O149 C132 1.289 . S
O150 Ho121 2.381 . S
O150 C139 1.275 . S
O151 Ho120 2.305 . S
O151 Ho121 2.669 . S
O151 C139 1.256 . S
H152 C125 0.930 . S
H153 C126 0.931 . S
H154 C128 0.934 . S
H155 C129 0.930 . S
H156 C134 0.930 . S
H157 C135 0.931 . S
H158 C137 0.934 . S
H159 C138 0.930 . S
Ho160 C163 2.811 . S
Ho160 O180 2.322 . S
Ho160 O182 2.378 . S
Ho160 O183 2.524 . S
Ho160 O184 2.381 . S
Ho160 O185 2.669 . S
Ho160 O187 2.346 . S
Ho160 O191 2.305 . S
Ho161 C172 2.811 . S
Ho161 O181 2.346 . S
Ho161 O185 2.305 . S
Ho161 O186 2.322 . S
Ho161 O188 2.378 . S
Ho161 O189 2.524 . S
Ho161 O190 2.381 . S
Ho161 O191 2.669 . S
C162 O180 1.259 . S
C162 O181 1.268 . S
C163 Ho160 2.811 . S
C163 C164 1.488 . S
C163 O182 1.215 . S
C163 O183 1.289 . S
C164 C163 1.488 . S
C164 C165 1.348 . S
C164 C169 1.413 . S
C165 C164 1.348 . S
C165 C166 1.442 . S
C165 H192 0.930 . S
C166 C165 1.442 . S
C166 C167 1.381 . S
C166 H193 0.931 . S
C167 C166 1.381 . S
C167 C168 1.321 . S
C168 C167 1.321 . S
C168 C169 1.403 . S
C168 H194 0.934 . S
C169 C164 1.413 . S
C169 C168 1.403 . S
C169 H195 0.930 . S
C170 O184 1.275 . S
C170 O185 1.256 . S
C171 O186 1.259 . S
C171 O187 1.268 . S
C172 Ho161 2.811 . S
C172 C173 1.488 . S
C172 O188 1.215 . S
C172 O189 1.289 . S
C173 C172 1.488 . S
C173 C174 1.348 . S
C173 C178 1.413 . S
C174 C173 1.348 . S
C174 C175 1.442 . S
C174 H196 0.930 . S
C175 C174 1.442 . S
C175 C176 1.381 . S
C175 H197 0.931 . S
C176 C175 1.381 . S
C176 C177 1.321 . S
C177 C176 1.321 . S
C177 C178 1.403 . S
C177 H198 0.934 . S
C178 C173 1.413 . S
C178 C177 1.403 . S
C178 H199 0.930 . S
C179 O190 1.275 . S
C179 O191 1.256 . S
O180 Ho160 2.322 . S
O180 C162 1.259 . S
O181 Ho161 2.346 . S
O181 C162 1.268 . S
O182 Ho160 2.378 . S
O182 C163 1.215 . S
O183 Ho160 2.524 . S
O183 C163 1.289 . S
O184 Ho160 2.381 . S
O184 C170 1.275 . S
O185 Ho160 2.669 . S
O185 Ho161 2.305 . S
O185 C170 1.256 . S
O186 Ho161 2.322 . S
O186 C171 1.259 . S
O187 Ho160 2.346 . S
O187 C171 1.268 . S
O188 Ho161 2.378 . S
O188 C172 1.215 . S
O189 Ho161 2.524 . S
O189 C172 1.289 . S
O190 Ho161 2.381 . S
O190 C179 1.275 . S
O191 Ho160 2.305 . S
O191 Ho161 2.669 . S
O191 C179 1.256 . S
H192 C165 0.930 . S
H193 C166 0.931 . S
H194 C168 0.934 . S
H195 C169 0.930 . S
H196 C174 0.930 . S
H197 C175 0.931 . S
H198 C177 0.934 . S
H199 C178 0.930 . S
Ho200 C203 2.811 . S
Ho200 O220 2.322 . S
Ho200 O222 2.378 . S
Ho200 O223 2.524 . S
Ho200 O224 2.381 . S
Ho200 O225 2.669 . S
Ho200 O227 2.346 . S
Ho200 O231 2.305 . S
Ho201 C212 2.811 . S
Ho201 O221 2.346 . S
Ho201 O225 2.305 . S
Ho201 O226 2.322 . S
Ho201 O228 2.378 . S
Ho201 O229 2.524 . S
Ho201 O230 2.381 . S
Ho201 O231 2.669 . S
C202 O220 1.259 . S
C202 O221 1.268 . S
C203 Ho200 2.811 . S
C203 C204 1.488 1_556 S
C203 O222 1.215 . S
C203 O223 1.289 . S
C204 C203 1.488 1_554 S
C204 C205 1.348 . S
C204 C209 1.413 . S
C205 C204 1.348 . S
C205 C206 1.442 . S
C205 H232 0.930 . S
C206 C205 1.442 . S
C206 C207 1.381 . S
C206 H233 0.931 . S
C207 C206 1.381 . S
C207 C208 1.321 . S
C208 C207 1.321 . S
C208 C209 1.403 . S
C208 H234 0.934 . S
C209 C204 1.413 . S
C209 C208 1.403 . S
C209 H235 0.930 . S
C210 O224 1.275 . S
C210 O225 1.256 . S
C211 O226 1.259 . S
C211 O227 1.268 . S
C212 Ho201 2.811 . S
C212 C213 1.488 . S
C212 O228 1.215 . S
C212 O229 1.289 . S
C213 C212 1.488 . S
C213 C214 1.348 . S
C213 C218 1.413 . S
C214 C213 1.348 . S
C214 C215 1.442 . S
C214 H236 0.930 . S
C215 C214 1.442 . S
C215 C216 1.381 . S
C215 H237 0.931 . S
C216 C215 1.381 . S
C216 C217 1.321 . S
C217 C216 1.321 . S
C217 C218 1.403 . S
C217 H238 0.934 . S
C218 C213 1.413 . S
C218 C217 1.403 . S
C218 H239 0.930 . S
C219 O230 1.275 . S
C219 O231 1.256 . S
O220 Ho200 2.322 . S
O220 C202 1.259 . S
O221 Ho201 2.346 . S
O221 C202 1.268 . S
O222 Ho200 2.378 . S
O222 C203 1.215 . S
O223 Ho200 2.524 . S
O223 C203 1.289 . S
O224 Ho200 2.381 . S
O224 C210 1.275 . S
O225 Ho200 2.669 . S
O225 Ho201 2.305 . S
O225 C210 1.256 . S
O226 Ho201 2.322 . S
O226 C211 1.259 . S
O227 Ho200 2.346 . S
O227 C211 1.268 . S
O228 Ho201 2.378 . S
O228 C212 1.215 . S
O229 Ho201 2.524 . S
O229 C212 1.289 . S
O230 Ho201 2.381 . S
O230 C219 1.275 . S
O231 Ho200 2.305 . S
O231 Ho201 2.669 . S
O231 C219 1.256 . S
H232 C205 0.930 . S
H233 C206 0.931 . S
H234 C208 0.934 . S
H235 C209 0.930 . S
H236 C214 0.930 . S
H237 C215 0.931 . S
H238 C217 0.934 . S
H239 C218 0.930 . S
Ho240 C243 2.811 . S
Ho240 O260 2.322 . S
Ho240 O262 2.378 . S
Ho240 O263 2.524 . S
Ho240 O264 2.381 . S
Ho240 O265 2.669 . S
Ho240 O267 2.346 . S
Ho240 O271 2.305 . S
Ho241 C252 2.811 . S
Ho241 O261 2.346 . S
Ho241 O265 2.305 . S
Ho241 O266 2.322 . S
Ho241 O268 2.378 . S
Ho241 O269 2.524 . S
Ho241 O270 2.381 . S
Ho241 O271 2.669 . S
C242 O260 1.259 . S
C242 O261 1.268 . S
C243 Ho240 2.811 . S
C243 C244 1.488 . S
C243 O262 1.215 . S
C243 O263 1.289 . S
C244 C243 1.488 . S
C244 C245 1.348 . S
C244 C249 1.413 . S
C245 C244 1.348 . S
C245 C246 1.442 . S
C245 H272 0.930 . S
C246 C245 1.442 . S
C246 C247 1.381 . S
C246 H273 0.931 . S
C247 C246 1.381 . S
C247 C248 1.321 . S
C248 C247 1.321 . S
C248 C249 1.403 . S
C248 H274 0.934 . S
C249 C244 1.413 . S
C249 C248 1.403 . S
C249 H275 0.930 . S
C250 O264 1.275 . S
C250 O265 1.256 . S
C251 O266 1.259 . S
C251 O267 1.268 . S
C252 Ho241 2.811 . S
C252 C253 1.488 . S
C252 O268 1.215 . S
C252 O269 1.289 . S
C253 C252 1.488 . S
C253 C254 1.348 . S
C253 C258 1.413 . S
C254 C253 1.348 . S
C254 C255 1.442 . S
C254 H276 0.930 . S
C255 C254 1.442 . S
C255 C256 1.381 . S
C255 H277 0.931 . S
C256 C255 1.381 . S
C256 C257 1.321 . S
C257 C256 1.321 . S
C257 C258 1.403 . S
C257 H278 0.934 . S
C258 C253 1.413 . S
C258 C257 1.403 . S
C258 H279 0.930 . S
C259 O270 1.275 . S
C259 O271 1.256 . S
O260 Ho240 2.322 . S
O260 C242 1.259 . S
O261 Ho241 2.346 . S
O261 C242 1.268 . S
O262 Ho240 2.378 . S
O262 C243 1.215 . S
O263 Ho240 2.524 . S
O263 C243 1.289 . S
O264 Ho240 2.381 . S
O264 C250 1.275 . S
O265 Ho240 2.669 . S
O265 Ho241 2.305 . S
O265 C250 1.256 . S
O266 Ho241 2.322 . S
O266 C251 1.259 . S
O267 Ho240 2.346 . S
O267 C251 1.268 . S
O268 Ho241 2.378 . S
O268 C252 1.215 . S
O269 Ho241 2.524 . S
O269 C252 1.289 . S
O270 Ho241 2.381 . S
O270 C259 1.275 . S
O271 Ho240 2.305 . S
O271 Ho241 2.669 . S
O271 C259 1.256 . S
H272 C245 0.930 . S
H273 C246 0.931 . S
H274 C248 0.934 . S
H275 C249 0.930 . S
H276 C254 0.930 . S
H277 C255 0.931 . S
H278 C257 0.934 . S
H279 C258 0.930 . S
Ho280 C283 2.811 . S
Ho280 O300 2.322 . S
Ho280 O302 2.378 . S
Ho280 O303 2.524 . S
Ho280 O304 2.381 . S
Ho280 O305 2.669 . S
Ho280 O307 2.346 . S
Ho280 O311 2.305 . S
Ho281 C292 2.811 . S
Ho281 O301 2.346 . S
Ho281 O305 2.305 . S
Ho281 O306 2.322 . S
Ho281 O308 2.378 . S
Ho281 O309 2.524 . S
Ho281 O310 2.381 . S
Ho281 O311 2.669 . S
C282 O300 1.259 . S
C282 O301 1.268 . S
C283 Ho280 2.811 . S
C283 C284 1.488 . S
C283 O302 1.215 . S
C283 O303 1.289 . S
C284 C283 1.488 . S
C284 C285 1.348 . S
C284 C289 1.413 . S
C285 C284 1.348 . S
C285 C286 1.442 . S
C285 H312 0.930 . S
C286 C285 1.442 . S
C286 C287 1.381 . S
C286 H313 0.931 . S
C287 C286 1.381 . S
C287 C288 1.321 . S
C288 C287 1.321 . S
C288 C289 1.403 . S
C288 H314 0.934 . S
C289 C284 1.413 . S
C289 C288 1.403 . S
C289 H315 0.930 . S
C290 O304 1.275 . S
C290 O305 1.256 . S
C291 O306 1.259 . S
C291 O307 1.268 . S
C292 Ho281 2.811 . S
C292 C293 1.488 . S
C292 O308 1.215 . S
C292 O309 1.289 . S
C293 C292 1.488 . S
C293 C294 1.348 . S
C293 C298 1.413 . S
C294 C293 1.348 . S
C294 C295 1.442 . S
C294 H316 0.930 . S
C295 C294 1.442 . S
C295 C296 1.381 . S
C295 H317 0.931 . S
C296 C295 1.381 . S
C296 C297 1.321 . S
C297 C296 1.321 . S
C297 C298 1.403 . S
C297 H318 0.934 . S
C298 C293 1.413 . S
C298 C297 1.403 . S
C298 H319 0.930 . S
C299 O310 1.275 . S
C299 O311 1.256 . S
O300 Ho280 2.322 . S
O300 C282 1.259 . S
O301 Ho281 2.346 . S
O301 C282 1.268 . S
O302 Ho280 2.378 . S
O302 C283 1.215 . S
O303 Ho280 2.524 . S
O303 C283 1.289 . S
O304 Ho280 2.381 . S
O304 C290 1.275 . S
O305 Ho280 2.669 . S
O305 Ho281 2.305 . S
O305 C290 1.256 . S
O306 Ho281 2.322 . S
O306 C291 1.259 . S
O307 Ho280 2.346 . S
O307 C291 1.268 . S
O308 Ho281 2.378 . S
O308 C292 1.215 . S
O309 Ho281 2.524 . S
O309 C292 1.289 . S
O310 Ho281 2.381 . S
O310 C299 1.275 . S
O311 Ho280 2.305 . S
O311 Ho281 2.669 . S
O311 C299 1.256 . S
H312 C285 0.930 . S
H313 C286 0.931 . S
H314 C288 0.934 . S
H315 C289 0.930 . S
H316 C294 0.930 . S
H317 C295 0.931 . S
H318 C297 0.934 . S
H319 C298 0.930 . S
Ho320 C323 2.811 . S
Ho320 O340 2.322 . S
Ho320 O342 2.378 . S
Ho320 O343 2.524 . S
Ho320 O344 2.381 . S
Ho320 O345 2.669 . S
Ho320 O347 2.346 . S
Ho320 O351 2.305 . S
Ho321 C332 2.811 . S
Ho321 O341 2.346 . S
Ho321 O345 2.305 . S
Ho321 O346 2.322 . S
Ho321 O348 2.378 . S
Ho321 O349 2.524 . S
Ho321 O350 2.381 . S
Ho321 O351 2.669 . S
C322 O340 1.259 . S
C322 O341 1.268 . S
C323 Ho320 2.811 . S
C323 C324 1.488 1_554 S
C323 O342 1.215 . S
C323 O343 1.289 . S
C324 C323 1.488 1_556 S
C324 C325 1.348 . S
C324 C329 1.413 . S
C325 C324 1.348 . S
C325 C326 1.442 . S
C325 H352 0.930 . S
C326 C325 1.442 . S
C326 C327 1.381 . S
C326 H353 0.931 . S
C327 C326 1.381 . S
C327 C328 1.321 . S
C328 C327 1.321 . S
C328 C329 1.403 . S
C328 H354 0.934 . S
C329 C324 1.413 . S
C329 C328 1.403 . S
C329 H355 0.930 . S
C330 O344 1.275 . S
C330 O345 1.256 . S
C331 O346 1.259 . S
C331 O347 1.268 . S
C332 Ho321 2.811 . S
C332 C333 1.488 . S
C332 O348 1.215 . S
C332 O349 1.289 . S
C333 C332 1.488 . S
C333 C334 1.348 . S
C333 C338 1.413 . S
C334 C333 1.348 . S
C334 C335 1.442 . S
C334 H356 0.930 . S
C335 C334 1.442 . S
C335 C336 1.381 . S
C335 H357 0.931 . S
C336 C335 1.381 . S
C336 C337 1.321 . S
C337 C336 1.321 . S
C337 C338 1.403 . S
C337 H358 0.934 . S
C338 C333 1.413 . S
C338 C337 1.403 . S
C338 H359 0.930 . S
C339 O350 1.275 . S
C339 O351 1.256 . S
O340 Ho320 2.322 . S
O340 C322 1.259 . S
O341 Ho321 2.346 . S
O341 C322 1.268 . S
O342 Ho320 2.378 . S
O342 C323 1.215 . S
O343 Ho320 2.524 . S
O343 C323 1.289 . S
O344 Ho320 2.381 . S
O344 C330 1.275 . S
O345 Ho320 2.669 . S
O345 Ho321 2.305 . S
O345 C330 1.256 . S
O346 Ho321 2.322 . S
O346 C331 1.259 . S
O347 Ho320 2.346 . S
O347 C331 1.268 . S
O348 Ho321 2.378 . S
O348 C332 1.215 . S
O349 Ho321 2.524 . S
O349 C332 1.289 . S
O350 Ho321 2.381 . S
O350 C339 1.275 . S
O351 Ho320 2.305 . S
O351 Ho321 2.669 . S
O351 C339 1.256 . S
H352 C325 0.930 . S
H353 C326 0.931 . S
H354 C328 0.934 . S
H355 C329 0.930 . S
H356 C334 0.930 . S
H357 C335 0.931 . S
H358 C337 0.934 . S
H359 C338 0.930 . S
Ho360 C363 2.811 . S
Ho360 O380 2.322 . S
Ho360 O382 2.378 . S
Ho360 O383 2.524 . S
Ho360 O384 2.381 . S
Ho360 O385 2.669 . S
Ho360 O387 2.346 . S
Ho360 O391 2.305 . S
Ho361 C372 2.811 . S
Ho361 O381 2.346 . S
Ho361 O385 2.305 . S
Ho361 O386 2.322 . S
Ho361 O388 2.378 . S
Ho361 O389 2.524 . S
Ho361 O390 2.381 . S
Ho361 O391 2.669 . S
C362 O380 1.259 . S
C362 O381 1.268 . S
C363 Ho360 2.811 . S
C363 C364 1.488 . S
C363 O382 1.215 . S
C363 O383 1.289 . S
C364 C363 1.488 . S
C364 C365 1.348 . S
C364 C369 1.413 . S
C365 C364 1.348 . S
C365 C366 1.442 . S
C365 H392 0.930 . S
C366 C365 1.442 . S
C366 C367 1.381 . S
C366 H393 0.931 . S
C367 C366 1.381 . S
C367 C368 1.321 . S
C368 C367 1.321 . S
C368 C369 1.403 . S
C368 H394 0.934 . S
C369 C364 1.413 . S
C369 C368 1.403 . S
C369 H395 0.930 . S
C370 O384 1.275 . S
C370 O385 1.256 . S
C371 O386 1.259 . S
C371 O387 1.268 . S
C372 Ho361 2.811 . S
C372 C373 1.488 . S
C372 O388 1.215 . S
C372 O389 1.289 . S
C373 C372 1.488 . S
C373 C374 1.348 . S
C373 C378 1.413 . S
C374 C373 1.348 . S
C374 C375 1.442 . S
C374 H396 0.930 . S
C375 C374 1.442 . S
C375 C376 1.381 . S
C375 H397 0.931 . S
C376 C375 1.381 . S
C376 C377 1.321 . S
C377 C376 1.321 . S
C377 C378 1.403 . S
C377 H398 0.934 . S
C378 C373 1.413 . S
C378 C377 1.403 . S
C378 H399 0.930 . S
C379 O390 1.275 . S
C379 O391 1.256 . S
O380 Ho360 2.322 . S
O380 C362 1.259 . S
O381 Ho361 2.346 . S
O381 C362 1.268 . S
O382 Ho360 2.378 . S
O382 C363 1.215 . S
O383 Ho360 2.524 . S
O383 C363 1.289 . S
O384 Ho360 2.381 . S
O384 C370 1.275 . S
O385 Ho360 2.669 . S
O385 Ho361 2.305 . S
O385 C370 1.256 . S
O386 Ho361 2.322 . S
O386 C371 1.259 . S
O387 Ho360 2.346 . S
O387 C371 1.268 . S
O388 Ho361 2.378 . S
O388 C372 1.215 . S
O389 Ho361 2.524 . S
O389 C372 1.289 . S
O390 Ho361 2.381 . S
O390 C379 1.275 . S
O391 Ho360 2.305 . S
O391 Ho361 2.669 . S
O391 C379 1.256 . S
H392 C365 0.930 . S
H393 C366 0.931 . S
H394 C368 0.934 . S
H395 C369 0.930 . S
H396 C374 0.930 . S
H397 C375 0.931 . S
H398 C377 0.934 . S
H399 C378 0.930 . S
Ho400 C403 2.811 . S
Ho400 O420 2.322 . S
Ho400 O422 2.378 . S
Ho400 O423 2.524 . S
Ho400 O424 2.381 . S
Ho400 O425 2.669 . S
Ho400 O427 2.346 . S
Ho400 O431 2.305 . S
Ho401 C412 2.811 . S
Ho401 O421 2.346 . S
Ho401 O425 2.305 . S
Ho401 O426 2.322 . S
Ho401 O428 2.378 . S
Ho401 O429 2.524 . S
Ho401 O430 2.381 . S
Ho401 O431 2.669 . S
C402 O420 1.259 . S
C402 O421 1.268 . S
C403 Ho400 2.811 . S
C403 C404 1.488 . S
C403 O422 1.215 . S
C403 O423 1.289 . S
C404 C403 1.488 . S
C404 C405 1.348 . S
C404 C409 1.413 . S
C405 C404 1.348 . S
C405 C406 1.442 . S
C405 H432 0.930 . S
C406 C405 1.442 . S
C406 C407 1.381 . S
C406 H433 0.931 . S
C407 C406 1.381 . S
C407 C408 1.321 . S
C408 C407 1.321 . S
C408 C409 1.403 . S
C408 H434 0.934 . S
C409 C404 1.413 . S
C409 C408 1.403 . S
C409 H435 0.930 . S
C410 O424 1.275 . S
C410 O425 1.256 . S
C411 O426 1.259 . S
C411 O427 1.268 . S
C412 Ho401 2.811 . S
C412 C413 1.488 . S
C412 O428 1.215 . S
C412 O429 1.289 . S
C413 C412 1.488 . S
C413 C414 1.348 . S
C413 C418 1.413 . S
C414 C413 1.348 . S
C414 C415 1.442 . S
C414 H436 0.930 . S
C415 C414 1.442 . S
C415 C416 1.381 . S
C415 H437 0.931 . S
C416 C415 1.381 . S
C416 C417 1.321 . S
C417 C416 1.321 . S
C417 C418 1.403 . S
C417 H438 0.934 . S
C418 C413 1.413 . S
C418 C417 1.403 . S
C418 H439 0.930 . S
C419 O430 1.275 . S
C419 O431 1.256 . S
O420 Ho400 2.322 . S
O420 C402 1.259 . S
O421 Ho401 2.346 . S
O421 C402 1.268 . S
O422 Ho400 2.378 . S
O422 C403 1.215 . S
O423 Ho400 2.524 . S
O423 C403 1.289 . S
O424 Ho400 2.381 . S
O424 C410 1.275 . S
O425 Ho400 2.669 . S
O425 Ho401 2.305 . S
O425 C410 1.256 . S
O426 Ho401 2.322 . S
O426 C411 1.259 . S
O427 Ho400 2.346 . S
O427 C411 1.268 . S
O428 Ho401 2.378 . S
O428 C412 1.215 . S
O429 Ho401 2.524 . S
O429 C412 1.289 . S
O430 Ho401 2.381 . S
O430 C419 1.275 . S
O431 Ho400 2.305 . S
O431 Ho401 2.669 . S
O431 C419 1.256 . S
H432 C405 0.930 . S
H433 C406 0.931 . S
H434 C408 0.934 . S
H435 C409 0.930 . S
H436 C414 0.930 . S
H437 C415 0.931 . S
H438 C417 0.934 . S
H439 C418 0.930 . S
Ho440 C443 2.811 . S
Ho440 O460 2.322 . S
Ho440 O462 2.378 . S
Ho440 O463 2.524 . S
Ho440 O464 2.381 . S
Ho440 O465 2.669 . S
Ho440 O467 2.346 . S
Ho440 O471 2.305 . S
Ho441 C452 2.811 . S
Ho441 O461 2.346 . S
Ho441 O465 2.305 . S
Ho441 O466 2.322 . S
Ho441 O468 2.378 . S
Ho441 O469 2.524 . S
Ho441 O470 2.381 . S
Ho441 O471 2.669 . S
C442 O460 1.259 . S
C442 O461 1.268 . S
C443 Ho440 2.811 . S
C443 C444 1.488 1_554 S
C443 O462 1.215 . S
C443 O463 1.289 . S
C444 C443 1.488 1_556 S
C444 C445 1.348 . S
C444 C449 1.413 . S
C445 C444 1.348 . S
C445 C446 1.442 . S
C445 H472 0.930 . S
C446 C445 1.442 . S
C446 C447 1.381 . S
C446 H473 0.931 . S
C447 C446 1.381 . S
C447 C448 1.321 . S
C448 C447 1.321 . S
C448 C449 1.403 . S
C448 H474 0.934 . S
C449 C444 1.413 . S
C449 C448 1.403 . S
C449 H475 0.930 . S
C450 O464 1.275 . S
C450 O465 1.256 . S
C451 O466 1.259 . S
C451 O467 1.268 . S
C452 Ho441 2.811 . S
C452 C453 1.488 . S
C452 O468 1.215 . S
C452 O469 1.289 . S
C453 C452 1.488 . S
C453 C454 1.348 . S
C453 C458 1.413 . S
C454 C453 1.348 . S
C454 C455 1.442 . S
C454 H476 0.930 . S
C455 C454 1.442 . S
C455 C456 1.381 . S
C455 H477 0.931 . S
C456 C455 1.381 . S
C456 C457 1.321 . S
C457 C456 1.321 . S
C457 C458 1.403 . S
C457 H478 0.934 . S
C458 C453 1.413 . S
C458 C457 1.403 . S
C458 H479 0.930 . S
C459 O470 1.275 . S
C459 O471 1.256 . S
O460 Ho440 2.322 . S
O460 C442 1.259 . S
O461 Ho441 2.346 . S
O461 C442 1.268 . S
O462 Ho440 2.378 . S
O462 C443 1.215 . S
O463 Ho440 2.524 . S
O463 C443 1.289 . S
O464 Ho440 2.381 . S
O464 C450 1.275 . S
O465 Ho440 2.669 . S
O465 Ho441 2.305 . S
O465 C450 1.256 . S
O466 Ho441 2.322 . S
O466 C451 1.259 . S
O467 Ho440 2.346 . S
O467 C451 1.268 . S
O468 Ho441 2.378 . S
O468 C452 1.215 . S
O469 Ho441 2.524 . S
O469 C452 1.289 . S
O470 Ho441 2.381 . S
O470 C459 1.275 . S
O471 Ho440 2.305 . S
O471 Ho441 2.669 . S
O471 C459 1.256 . S
H472 C445 0.930 . S
H473 C446 0.931 . S
H474 C448 0.934 . S
H475 C449 0.930 . S
H476 C454 0.930 . S
H477 C455 0.931 . S
H478 C457 0.934 . S
H479 C458 0.930 . S
C480 C481 1.349 . S
C480 C482 1.327 . S
C480 H505 0.950 . S
C481 C480 1.349 . S
C481 C497 1.349 . S
C482 C480 1.327 . S
C482 C501 1.429 . S
C482 H506 0.950 . S
C483 C500 1.574 . S
C483 C502 1.368 . S
C483 H507 0.949 . S
H484 C488 0.949 . S
C485 C486 1.349 . S
C485 C487 1.327 . S
C485 H508 0.950 . S
C486 C485 1.349 . S
C486 C498 1.349 . S
C487 C485 1.327 . S
C487 C503 1.429 . S
C487 H509 0.950 . S
C488 H484 0.949 . S
C488 C496 1.574 . S
C488 C504 1.368 . S
H489 C497 0.950 . S
H490 C495 0.950 . S
H491 C496 0.949 . S
H492 C498 0.950 . S
H493 C499 0.950 . S
H494 C500 0.949 . S
C495 H490 0.950 . S
C495 C497 1.327 . S
C495 C501 1.429 . S
C496 C488 1.574 . S
C496 H491 0.949 . S
C496 C502 1.368 . S
C497 C481 1.349 . S
C497 H489 0.950 . S
C497 C495 1.327 . S
C498 C486 1.349 . S
C498 H492 0.950 . S
C498 C499 1.327 . S
C499 H493 0.950 . S
C499 C498 1.327 . S
C499 C503 1.429 . S
C500 C483 1.574 . S
C500 H494 0.949 . S
C500 C504 1.368 . S
C501 C482 1.429 . S
C501 C495 1.429 . S
C501 C502 1.523 . S
C502 C483 1.368 . S
C502 C496 1.368 . S
C502 C501 1.523 . S
C503 C487 1.429 . S
C503 C499 1.429 . S
C503 C504 1.523 . S
C504 C488 1.368 . S
C504 C500 1.368 . S
C504 C503 1.523 . S
H505 C480 0.950 . S
H506 C482 0.950 . S
H507 C483 0.949 . S
H508 C485 0.950 . S
H509 C487 0.950 . S
C510 C511 1.349 . S
C510 C512 1.327 . S
C510 H535 0.950 . S
C511 C510 1.349 . S
C511 C527 1.349 . S
C512 C510 1.327 . S
C512 C531 1.429 . S
C512 H536 0.950 . S
C513 C530 1.574 . S
C513 C532 1.368 . S
C513 H537 0.949 . S
H514 C518 0.949 . S
C515 C516 1.349 . S
C515 C517 1.327 . S
C515 H538 0.950 . S
C516 C515 1.349 . S
C516 C528 1.349 . S
C517 C515 1.327 . S
C517 C533 1.429 . S
C517 H539 0.950 . S
C518 H514 0.949 . S
C518 C526 1.574 . S
C518 C534 1.368 . S
H519 C527 0.950 . S
H520 C525 0.950 . S
H521 C526 0.949 . S
H522 C528 0.950 . S
H523 C529 0.950 . S
H524 C530 0.949 . S
C525 H520 0.950 . S
C525 C527 1.327 . S
C525 C531 1.429 . S
C526 C518 1.574 . S
C526 H521 0.949 . S
C526 C532 1.368 . S
C527 C511 1.349 . S
C527 H519 0.950 . S
C527 C525 1.327 . S
C528 C516 1.349 . S
C528 H522 0.950 . S
C528 C529 1.327 . S
C529 H523 0.950 . S
C529 C528 1.327 . S
C529 C533 1.429 . S
C530 C513 1.574 . S
C530 H524 0.949 . S
C530 C534 1.368 . S
C531 C512 1.429 . S
C531 C525 1.429 . S
C531 C532 1.523 . S
C532 C513 1.368 . S
C532 C526 1.368 . S
C532 C531 1.523 . S
C533 C517 1.429 . S
C533 C529 1.429 . S
C533 C534 1.523 . S
C534 C518 1.368 . S
C534 C530 1.368 . S
C534 C533 1.523 . S
H535 C510 0.950 . S
H536 C512 0.950 . S
H537 C513 0.949 . S
H538 C515 0.950 . S
H539 C517 0.950 . S
C540 C541 1.349 . S
C540 C542 1.327 . S
C540 H565 0.950 . S
C541 C540 1.349 . S
C541 C557 1.349 . S
C542 C540 1.327 . S
C542 C561 1.429 . S
C542 H566 0.950 . S
C543 C560 1.574 . S
C543 C562 1.368 . S
C543 H567 0.949 . S
H544 C548 0.949 . S
C545 C546 1.349 . S
C545 C547 1.327 . S
C545 H568 0.950 . S
C546 C545 1.349 . S
C546 C558 1.349 . S
C547 C545 1.327 . S
C547 C563 1.429 . S
C547 H569 0.950 . S
C548 H544 0.949 . S
C548 C556 1.574 . S
C548 C564 1.368 . S
H549 C557 0.950 . S
H550 C555 0.950 . S
H551 C556 0.949 . S
H552 C558 0.950 . S
H553 C559 0.950 . S
H554 C560 0.949 . S
C555 H550 0.950 . S
C555 C557 1.327 . S
C555 C561 1.429 . S
C556 C548 1.574 . S
C556 H551 0.949 . S
C556 C562 1.368 . S
C557 C541 1.349 . S
C557 H549 0.950 . S
C557 C555 1.327 . S
C558 C546 1.349 . S
C558 H552 0.950 . S
C558 C559 1.327 . S
C559 H553 0.950 . S
C559 C558 1.327 . S
C559 C563 1.429 . S
C560 C543 1.574 . S
C560 H554 0.949 . S
C560 C564 1.368 . S
C561 C542 1.429 . S
C561 C555 1.429 . S
C561 C562 1.523 . S
C562 C543 1.368 . S
C562 C556 1.368 . S
C562 C561 1.523 . S
C563 C547 1.429 . S
C563 C559 1.429 . S
C563 C564 1.523 . S
C564 C548 1.368 . S
C564 C560 1.368 . S
C564 C563 1.523 . S
H565 C540 0.950 . S
H566 C542 0.950 . S
H567 C543 0.949 . S
H568 C545 0.950 . S
H569 C547 0.950 . S
C570 C571 1.349 . S
C570 C572 1.327 . S
C570 H595 0.950 . S
C571 C570 1.349 . S
C571 C587 1.349 . S
C572 C570 1.327 . S
C572 C591 1.429 . S
C572 H596 0.950 . S
C573 C590 1.574 . S
C573 C592 1.368 . S
C573 H597 0.949 . S
H574 C578 0.949 . S
C575 C576 1.349 . S
C575 C577 1.327 . S
C575 H598 0.950 . S
C576 C575 1.349 . S
C576 C588 1.349 . S
C577 C575 1.327 . S
C577 C593 1.429 . S
C577 H599 0.950 . S
C578 H574 0.949 . S
C578 C586 1.574 . S
C578 C594 1.368 . S
H579 C587 0.950 . S
H580 C585 0.950 . S
H581 C586 0.949 . S
H582 C588 0.950 . S
H583 C589 0.950 . S
H584 C590 0.949 . S
C585 H580 0.950 . S
C585 C587 1.327 . S
C585 C591 1.429 . S
C586 C578 1.574 . S
C586 H581 0.949 . S
C586 C592 1.368 . S
C587 C571 1.349 . S
C587 H579 0.950 . S
C587 C585 1.327 . S
C588 C576 1.349 . S
C588 H582 0.950 . S
C588 C589 1.327 . S
C589 H583 0.950 . S
C589 C588 1.327 . S
C589 C593 1.429 . S
C590 C573 1.574 . S
C590 H584 0.949 . S
C590 C594 1.368 . S
C591 C572 1.429 . S
C591 C585 1.429 . S
C591 C592 1.523 . S
C592 C573 1.368 . S
C592 C586 1.368 . S
C592 C591 1.523 . S
C593 C577 1.429 . S
C593 C589 1.429 . S
C593 C594 1.523 . S
C594 C578 1.368 . S
C594 C590 1.368 . S
C594 C593 1.523 . S
H595 C570 0.950 . S
H596 C572 0.950 . S
H597 C573 0.949 . S
H598 C575 0.950 . S
H599 C577 0.950 . S
C600 C601 1.349 . S
C600 C602 1.327 . S
C600 H625 0.950 . S
C601 C600 1.349 . S
C601 C617 1.349 . S
C602 C600 1.327 . S
C602 C621 1.429 . S
C602 H626 0.950 . S
C603 C620 1.574 . S
C603 C622 1.368 . S
C603 H627 0.949 . S
H604 C608 0.949 . S
C605 C606 1.349 . S
C605 C607 1.327 . S
C605 H628 0.950 . S
C606 C605 1.349 . S
C606 C618 1.349 . S
C607 C605 1.327 . S
C607 C623 1.429 . S
C607 H629 0.950 . S
C608 H604 0.949 . S
C608 C616 1.574 . S
C608 C624 1.368 . S
H609 C617 0.950 . S
H610 C615 0.950 . S
H611 C616 0.949 . S
H612 C618 0.950 . S
H613 C619 0.950 . S
H614 C620 0.949 . S
C615 H610 0.950 . S
C615 C617 1.327 . S
C615 C621 1.429 . S
C616 C608 1.574 . S
C616 H611 0.949 . S
C616 C622 1.368 . S
C617 C601 1.349 . S
C617 H609 0.950 . S
C617 C615 1.327 . S
C618 C606 1.349 . S
C618 H612 0.950 . S
C618 C619 1.327 . S
C619 H613 0.950 . S
C619 C618 1.327 . S
C619 C623 1.429 . S
C620 C603 1.574 . S
C620 H614 0.949 . S
C620 C624 1.368 . S
C621 C602 1.429 . S
C621 C615 1.429 . S
C621 C622 1.523 . S
C622 C603 1.368 . S
C622 C616 1.368 . S
C622 C621 1.523 . S
C623 C607 1.429 . S
C623 C619 1.429 . S
C623 C624 1.523 . S
C624 C608 1.368 . S
C624 C620 1.368 . S
C624 C623 1.523 . S
H625 C600 0.950 . S
H626 C602 0.950 . S
H627 C603 0.949 . S
H628 C605 0.950 . S
H629 C607 0.950 . S
C630 C631 1.349 . S
C630 C632 1.327 . S
C630 H655 0.950 . S
C631 C630 1.349 . S
C631 C647 1.349 . S
C632 C630 1.327 . S
C632 C651 1.429 . S
C632 H656 0.950 . S
C633 C650 1.574 . S
C633 C652 1.368 . S
C633 H657 0.949 . S
H634 C638 0.949 . S
C635 C636 1.349 . S
C635 C637 1.327 . S
C635 H658 0.950 . S
C636 C635 1.349 . S
C636 C648 1.349 . S
C637 C635 1.327 . S
C637 C653 1.429 . S
C637 H659 0.950 . S
C638 H634 0.949 . S
C638 C646 1.574 . S
C638 C654 1.368 . S
H639 C647 0.950 . S
H640 C645 0.950 . S
H641 C646 0.949 . S
H642 C648 0.950 . S
H643 C649 0.950 . S
H644 C650 0.949 . S
C645 H640 0.950 . S
C645 C647 1.327 . S
C645 C651 1.429 . S
C646 C638 1.574 . S
C646 H641 0.949 . S
C646 C652 1.368 . S
C647 C631 1.349 . S
C647 H639 0.950 . S
C647 C645 1.327 . S
C648 C636 1.349 . S
C648 H642 0.950 . S
C648 C649 1.327 . S
C649 H643 0.950 . S
C649 C648 1.327 . S
C649 C653 1.429 . S
C650 C633 1.574 . S
C650 H644 0.949 . S
C650 C654 1.368 . S
C651 C632 1.429 . S
C651 C645 1.429 . S
C651 C652 1.523 . S
C652 C633 1.368 . S
C652 C646 1.368 . S
C652 C651 1.523 . S
C653 C637 1.429 . S
C653 C649 1.429 . S
C653 C654 1.523 . S
C654 C638 1.368 . S
C654 C650 1.368 . S
C654 C653 1.523 . S
H655 C630 0.950 . S
H656 C632 0.950 . S
H657 C633 0.949 . S
H658 C635 0.950 . S
H659 C637 0.950 . S
C660 C661 1.349 . S
C660 C662 1.327 . S
C660 H685 0.950 . S
C661 C660 1.349 . S
C661 C677 1.349 . S
C662 C660 1.327 . S
C662 C681 1.429 . S
C662 H686 0.950 . S
C663 C680 1.574 1_556 S
C663 C682 1.368 . S
C663 H687 0.949 . S
H664 C668 0.949 . S
C665 C666 1.349 . S
C665 C667 1.327 . S
C665 H688 0.950 . S
C666 C665 1.349 . S
C666 C678 1.349 . S
C667 C665 1.327 . S
C667 C683 1.429 . S
C667 H689 0.950 . S
C668 H664 0.949 . S
C668 C676 1.574 1_554 S
C668 C684 1.368 . S
H669 C677 0.950 . S
H670 C675 0.950 . S
H671 C676 0.949 . S
H672 C678 0.950 . S
H673 C679 0.950 . S
H674 C680 0.949 . S
C675 H670 0.950 . S
C675 C677 1.327 . S
C675 C681 1.429 . S
C676 C668 1.574 1_556 S
C676 H671 0.949 . S
C676 C682 1.368 . S
C677 C661 1.349 . S
C677 H669 0.950 . S
C677 C675 1.327 . S
C678 C666 1.349 . S
C678 H672 0.950 . S
C678 C679 1.327 . S
C679 H673 0.950 . S
C679 C678 1.327 . S
C679 C683 1.429 . S
C680 C663 1.574 1_554 S
C680 H674 0.949 . S
C680 C684 1.368 . S
C681 C662 1.429 . S
C681 C675 1.429 . S
C681 C682 1.523 . S
C682 C663 1.368 . S
C682 C676 1.368 . S
C682 C681 1.523 . S
C683 C667 1.429 . S
C683 C679 1.429 . S
C683 C684 1.523 . S
C684 C668 1.368 . S
C684 C680 1.368 . S
C684 C683 1.523 . S
H685 C660 0.950 . S
H686 C662 0.950 . S
H687 C663 0.949 . S
H688 C665 0.950 . S
H689 C667 0.950 . S
C690 C691 1.349 . S
C690 C692 1.327 . S
C690 H715 0.950 . S
C691 C690 1.349 . S
C691 C707 1.349 . S
C692 C690 1.327 . S
C692 C711 1.429 . S
C692 H716 0.950 . S
C693 C710 1.574 . S
C693 C712 1.368 . S
C693 H717 0.949 . S
H694 C698 0.949 . S
C695 C696 1.349 . S
C695 C697 1.327 . S
C695 H718 0.950 . S
C696 C695 1.349 . S
C696 C708 1.349 . S
C697 C695 1.327 . S
C697 C713 1.429 . S
C697 H719 0.950 . S
C698 H694 0.949 . S
C698 C706 1.574 . S
C698 C714 1.368 . S
H699 C707 0.950 . S
H700 C705 0.950 . S
H701 C706 0.949 . S
H702 C708 0.950 . S
H703 C709 0.950 . S
H704 C710 0.949 . S
C705 H700 0.950 . S
C705 C707 1.327 . S
C705 C711 1.429 . S
C706 C698 1.574 . S
C706 H701 0.949 . S
C706 C712 1.368 . S
C707 C691 1.349 . S
C707 H699 0.950 . S
C707 C705 1.327 . S
C708 C696 1.349 . S
C708 H702 0.950 . S
C708 C709 1.327 . S
C709 H703 0.950 . S
C709 C708 1.327 . S
C709 C713 1.429 . S
C710 C693 1.574 . S
C710 H704 0.949 . S
C710 C714 1.368 . S
C711 C692 1.429 . S
C711 C705 1.429 . S
C711 C712 1.523 . S
C712 C693 1.368 . S
C712 C706 1.368 . S
C712 C711 1.523 . S
C713 C697 1.429 . S
C713 C709 1.429 . S
C713 C714 1.523 . S
C714 C698 1.368 . S
C714 C710 1.368 . S
C714 C713 1.523 . S
H715 C690 0.950 . S
H716 C692 0.950 . S
H717 C693 0.949 . S
H718 C695 0.950 . S
H719 C697 0.950 . S
C720 C721 1.349 . S
C720 C722 1.327 . S
C720 H745 0.950 . S
C721 C720 1.349 . S
C721 C737 1.349 . S
C722 C720 1.327 . S
C722 C741 1.429 . S
C722 H746 0.950 . S
C723 C740 1.574 . S
C723 C742 1.368 . S
C723 H747 0.949 . S
H724 C728 0.949 . S
C725 C726 1.349 . S
C725 C727 1.327 . S
C725 H748 0.950 . S
C726 C725 1.349 . S
C726 C738 1.349 . S
C727 C725 1.327 . S
C727 C743 1.429 . S
C727 H749 0.950 . S
C728 H724 0.949 . S
C728 C736 1.574 . S
C728 C744 1.368 . S
H729 C737 0.950 . S
H730 C735 0.950 . S
H731 C736 0.949 . S
H732 C738 0.950 . S
H733 C739 0.950 . S
H734 C740 0.949 . S
C735 H730 0.950 . S
C735 C737 1.327 . S
C735 C741 1.429 . S
C736 C728 1.574 . S
C736 H731 0.949 . S
C736 C742 1.368 . S
C737 C721 1.349 . S
C737 H729 0.950 . S
C737 C735 1.327 . S
C738 C726 1.349 . S
C738 H732 0.950 . S
C738 C739 1.327 . S
C739 H733 0.950 . S
C739 C738 1.327 . S
C739 C743 1.429 . S
C740 C723 1.574 . S
C740 H734 0.949 . S
C740 C744 1.368 . S
C741 C722 1.429 . S
C741 C735 1.429 . S
C741 C742 1.523 . S
C742 C723 1.368 . S
C742 C736 1.368 . S
C742 C741 1.523 . S
C743 C727 1.429 . S
C743 C739 1.429 . S
C743 C744 1.523 . S
C744 C728 1.368 . S
C744 C740 1.368 . S
C744 C743 1.523 . S
H745 C720 0.950 . S
H746 C722 0.950 . S
H747 C723 0.949 . S
H748 C725 0.950 . S
H749 C727 0.950 . S
C750 C751 1.349 . S
C750 C752 1.327 . S
C750 H775 0.950 . S
C751 C750 1.349 . S
C751 C767 1.349 . S
C752 C750 1.327 . S
C752 C771 1.429 . S
C752 H776 0.950 . S
C753 C770 1.574 1_556 S
C753 C772 1.368 . S
C753 H777 0.949 . S
H754 C758 0.949 . S
C755 C756 1.349 . S
C755 C757 1.327 . S
C755 H778 0.950 . S
C756 C755 1.349 . S
C756 C768 1.349 . S
C757 C755 1.327 . S
C757 C773 1.429 . S
C757 H779 0.950 . S
C758 H754 0.949 . S
C758 C766 1.574 1_554 S
C758 C774 1.368 . S
H759 C767 0.950 . S
H760 C765 0.950 . S
H761 C766 0.949 . S
H762 C768 0.950 . S
H763 C769 0.950 . S
H764 C770 0.949 . S
C765 H760 0.950 . S
C765 C767 1.327 . S
C765 C771 1.429 . S
C766 C758 1.574 1_556 S
C766 H761 0.949 . S
C766 C772 1.368 . S
C767 C751 1.349 . S
C767 H759 0.950 . S
C767 C765 1.327 . S
C768 C756 1.349 . S
C768 H762 0.950 . S
C768 C769 1.327 . S
C769 H763 0.950 . S
C769 C768 1.327 . S
C769 C773 1.429 . S
C770 C753 1.574 1_554 S
C770 H764 0.949 . S
C770 C774 1.368 . S
C771 C752 1.429 . S
C771 C765 1.429 . S
C771 C772 1.523 . S
C772 C753 1.368 . S
C772 C766 1.368 . S
C772 C771 1.523 . S
C773 C757 1.429 . S
C773 C769 1.429 . S
C773 C774 1.523 . S
C774 C758 1.368 . S
C774 C770 1.368 . S
C774 C773 1.523 . S
H775 C750 0.950 . S
H776 C752 0.950 . S
H777 C753 0.949 . S
H778 C755 0.950 . S
H779 C757 0.950 . S
C780 C781 1.349 . S
C780 C782 1.327 . S
C780 H805 0.950 . S
C781 C780 1.349 . S
C781 C797 1.349 . S
C782 C780 1.327 . S
C782 C801 1.429 . S
C782 H806 0.950 . S
C783 C800 1.574 . S
C783 C802 1.368 . S
C783 H807 0.949 . S
H784 C788 0.949 . S
C785 C786 1.349 . S
C785 C787 1.327 . S
C785 H808 0.950 . S
C786 C785 1.349 . S
C786 C798 1.349 . S
C787 C785 1.327 . S
C787 C803 1.429 . S
C787 H809 0.950 . S
C788 H784 0.949 . S
C788 C796 1.574 . S
C788 C804 1.368 . S
H789 C797 0.950 . S
H790 C795 0.950 . S
H791 C796 0.949 . S
H792 C798 0.950 . S
H793 C799 0.950 . S
H794 C800 0.949 . S
C795 H790 0.950 . S
C795 C797 1.327 . S
C795 C801 1.429 . S
C796 C788 1.574 . S
C796 H791 0.949 . S
C796 C802 1.368 . S
C797 C781 1.349 . S
C797 H789 0.950 . S
C797 C795 1.327 . S
C798 C786 1.349 . S
C798 H792 0.950 . S
C798 C799 1.327 . S
C799 H793 0.950 . S
C799 C798 1.327 . S
C799 C803 1.429 . S
C800 C783 1.574 . S
C800 H794 0.949 . S
C800 C804 1.368 . S
C801 C782 1.429 . S
C801 C795 1.429 . S
C801 C802 1.523 . S
C802 C783 1.368 . S
C802 C796 1.368 . S
C802 C801 1.523 . S
C803 C787 1.429 . S
C803 C799 1.429 . S
C803 C804 1.523 . S
C804 C788 1.368 . S
C804 C800 1.368 . S
C804 C803 1.523 . S
H805 C780 0.950 . S
H806 C782 0.950 . S
H807 C783 0.949 . S
H808 C785 0.950 . S
H809 C787 0.950 . S
C810 C811 1.349 . S
C810 C812 1.327 . S
C810 H835 0.950 . S
C811 C810 1.349 . S
C811 C827 1.349 . S
C812 C810 1.327 . S
C812 C831 1.429 . S
C812 H836 0.950 . S
C813 C830 1.574 . S
C813 C832 1.368 . S
C813 H837 0.949 . S
H814 C818 0.949 . S
C815 C816 1.349 . S
C815 C817 1.327 . S
C815 H838 0.950 . S
C816 C815 1.349 . S
C816 C828 1.349 . S
C817 C815 1.327 . S
C817 C833 1.429 . S
C817 H839 0.950 . S
C818 H814 0.949 . S
C818 C826 1.574 . S
C818 C834 1.368 . S
H819 C827 0.950 . S
H820 C825 0.950 . S
H821 C826 0.949 . S
H822 C828 0.950 . S
H823 C829 0.950 . S
H824 C830 0.949 . S
C825 H820 0.950 . S
C825 C827 1.327 . S
C825 C831 1.429 . S
C826 C818 1.574 . S
C826 H821 0.949 . S
C826 C832 1.368 . S
C827 C811 1.349 . S
C827 H819 0.950 . S
C827 C825 1.327 . S
C828 C816 1.349 . S
C828 H822 0.950 . S
C828 C829 1.327 . S
C829 H823 0.950 . S
C829 C828 1.327 . S
C829 C833 1.429 . S
C830 C813 1.574 . S
C830 H824 0.949 . S
C830 C834 1.368 . S
C831 C812 1.429 . S
C831 C825 1.429 . S
C831 C832 1.523 . S
C832 C813 1.368 . S
C832 C826 1.368 . S
C832 C831 1.523 . S
C833 C817 1.429 . S
C833 C829 1.429 . S
C833 C834 1.523 . S
C834 C818 1.368 . S
C834 C830 1.368 . S
C834 C833 1.523 . S
H835 C810 0.950 . S
H836 C812 0.950 . S
H837 C813 0.949 . S
H838 C815 0.950 . S
H839 C817 0.950 . S
C840 C841 1.349 . S
C840 C842 1.327 . S
C840 H865 0.950 . S
C841 C840 1.349 . S
C841 C857 1.349 . S
C842 C840 1.327 . S
C842 C861 1.429 . S
C842 H866 0.950 1_565 S
C843 C860 1.574 1_556 S
C843 C862 1.368 . S
C843 H867 0.949 . S
H844 C848 0.949 . S
C845 C846 1.349 . S
C845 C847 1.327 . S
C845 H868 0.950 . S
C846 C845 1.349 . S
C846 C858 1.349 . S
C847 C845 1.327 . S
C847 C863 1.429 . S
C847 H869 0.950 1_545 S
C848 H844 0.949 . S
C848 C856 1.574 1_554 S
C848 C864 1.368 . S
H849 C857 0.950 . S
H850 C855 0.950 . S
H851 C856 0.949 . S
H852 C858 0.950 . S
H853 C859 0.950 . S
H854 C860 0.949 . S
C855 H850 0.950 . S
C855 C857 1.327 . S
C855 C861 1.429 . S
C856 C848 1.574 1_556 S
C856 H851 0.949 . S
C856 C862 1.368 1_545 S
C857 C841 1.349 . S
C857 H849 0.950 . S
C857 C855 1.327 . S
C858 C846 1.349 . S
C858 H852 0.950 . S
C858 C859 1.327 . S
C859 H853 0.950 . S
C859 C858 1.327 . S
C859 C863 1.429 . S
C860 C843 1.574 1_554 S
C860 H854 0.949 . S
C860 C864 1.368 1_565 S
C861 C842 1.429 . S
C861 C855 1.429 . S
C861 C862 1.523 . S
C862 C843 1.368 . S
C862 C856 1.368 1_565 S
C862 C861 1.523 . S
C863 C847 1.429 . S
C863 C859 1.429 . S
C863 C864 1.523 . S
C864 C848 1.368 . S
C864 C860 1.368 1_545 S
C864 C863 1.523 . S
H865 C840 0.950 . S
H866 C842 0.950 1_545 S
H867 C843 0.949 . S
H868 C845 0.950 . S
H869 C847 0.950 1_565 S
C870 C871 1.349 . S
C870 C872 1.327 . S
C870 H895 0.950 . S
C871 C870 1.349 . S
C871 C887 1.349 . S
C872 C870 1.327 . S
C872 C891 1.429 . S
C872 H896 0.950 . S
C873 C890 1.574 . S
C873 C892 1.368 . S
C873 H897 0.949 . S
H874 C878 0.949 . S
C875 C876 1.349 . S
C875 C877 1.327 . S
C875 H898 0.950 . S
C876 C875 1.349 . S
C876 C888 1.349 . S
C877 C875 1.327 . S
C877 C893 1.429 . S
C877 H899 0.950 . S
C878 H874 0.949 . S
C878 C886 1.574 . S
C878 C894 1.368 . S
H879 C887 0.950 . S
H880 C885 0.950 . S
H881 C886 0.949 . S
H882 C888 0.950 . S
H883 C889 0.950 . S
H884 C890 0.949 . S
C885 H880 0.950 . S
C885 C887 1.327 . S
C885 C891 1.429 . S
C886 C878 1.574 . S
C886 H881 0.949 . S
C886 C892 1.368 . S
C887 C871 1.349 . S
C887 H879 0.950 . S
C887 C885 1.327 . S
C888 C876 1.349 . S
C888 H882 0.950 . S
C888 C889 1.327 . S
C889 H883 0.950 . S
C889 C888 1.327 . S
C889 C893 1.429 . S
C890 C873 1.574 . S
C890 H884 0.949 . S
C890 C894 1.368 . S
C891 C872 1.429 . S
C891 C885 1.429 . S
C891 C892 1.523 . S
C892 C873 1.368 . S
C892 C886 1.368 . S
C892 C891 1.523 . S
C893 C877 1.429 . S
C893 C889 1.429 . S
C893 C894 1.523 . S
C894 C878 1.368 . S
C894 C890 1.368 . S
C894 C893 1.523 . S
H895 C870 0.950 . S
H896 C872 0.950 . S
H897 C873 0.949 . S
H898 C875 0.950 . S
H899 C877 0.950 . S
C900 C901 1.349 . S
C900 C902 1.327 . S
C900 H925 0.950 . S
C901 C900 1.349 . S
C901 C917 1.349 . S
C902 C900 1.327 . S
C902 C921 1.429 . S
C902 H926 0.950 . S
C903 C920 1.574 1_455 S
C903 C922 1.368 . S
C903 H927 0.949 . S
H904 C908 0.949 . S
C905 C906 1.349 . S
C905 C907 1.327 . S
C905 H928 0.950 . S
C906 C905 1.349 . S
C906 C918 1.349 . S
C907 C905 1.327 . S
C907 C923 1.429 . S
C907 H929 0.950 . S
C908 H904 0.949 . S
C908 C916 1.574 1_655 S
C908 C924 1.368 . S
H909 C917 0.950 . S
H910 C915 0.950 . S
H911 C916 0.949 . S
H912 C918 0.950 . S
H913 C919 0.950 . S
H914 C920 0.949 . S
C915 H910 0.950 . S
C915 C917 1.327 . S
C915 C921 1.429 . S
C916 C908 1.574 1_455 S
C916 H911 0.949 . S
C916 C922 1.368 . S
C917 C901 1.349 . S
C917 H909 0.950 . S
C917 C915 1.327 . S
C918 C906 1.349 . S
C918 H912 0.950 . S
C918 C919 1.327 . S
C919 H913 0.950 . S
C919 C918 1.327 . S
C919 C923 1.429 . S
C920 C903 1.574 1_655 S
C920 H914 0.949 . S
C920 C924 1.368 . S
C921 C902 1.429 . S
C921 C915 1.429 . S
C921 C922 1.523 . S
C922 C903 1.368 . S
C922 C916 1.368 . S
C922 C921 1.523 . S
C923 C907 1.429 . S
C923 C919 1.429 . S
C923 C924 1.523 . S
C924 C908 1.368 . S
C924 C920 1.368 . S
C924 C923 1.523 . S
H925 C900 0.950 . S
H926 C902 0.950 . S
H927 C903 0.949 . S
H928 C905 0.950 . S
H929 C907 0.950 . S
C930 C931 1.349 . S
C930 C932 1.327 . S
C930 H955 0.950 . S
C931 C930 1.349 . S
C931 C947 1.349 . S
C932 C930 1.327 . S
C932 C951 1.429 . S
C932 H956 0.950 . S
C933 C950 1.574 1_554 S
C933 C952 1.368 1_545 S
C933 H957 0.949 . S
H934 C938 0.949 . S
C935 C936 1.349 . S
C935 C937 1.327 . S
C935 H958 0.950 . S
C936 C935 1.349 . S
C936 C948 1.349 . S
C937 C935 1.327 . S
C937 C953 1.429 . S
C937 H959 0.950 . S
C938 H934 0.949 . S
C938 C946 1.574 1_556 S
C938 C954 1.368 1_565 S
H939 C947 0.950 . S
H940 C945 0.960 . S
H941 C946 0.949 . S
H942 C948 0.950 . S
H943 C949 0.961 . S
H944 C950 0.949 . S
C945 H940 0.960 . S
C945 C947 1.327 . S
C945 C951 1.429 . S
C946 C938 1.574 1_554 S
C946 H941 0.949 . S
C946 C952 1.368 . S
C947 C931 1.349 . S
C947 H939 0.950 . S
C947 C945 1.327 . S
C948 C936 1.349 . S
C948 H942 0.950 . S
C948 C949 1.327 . S
C949 H943 0.961 . S
C949 C948 1.327 . S
C949 C953 1.429 . S
C950 C933 1.574 1_556 S
C950 H944 0.949 . S
C950 C954 1.368 . S
C951 C932 1.429 . S
C951 C945 1.429 . S
C951 C952 1.523 . S
C952 C933 1.368 1_565 S
C952 C946 1.368 . S
C952 C951 1.523 . S
C953 C937 1.429 . S
C953 C949 1.429 . S
C953 C954 1.523 . S
C954 C938 1.368 1_545 S
C954 C950 1.368 . S
C954 C953 1.523 . S
H955 C930 0.950 . S
H956 C932 0.950 . S
H957 C933 0.949 . S
H958 C935 0.950 . S
H959 C937 0.950 . S
C960 C961 1.349 . S
C960 C962 1.327 . S
C960 H985 0.950 . S
C961 C960 1.349 . S
C961 C977 1.349 . S
C962 C960 1.327 . S
C962 C981 1.429 . S
C962 H986 0.950 . S
C963 C980 1.574 . S
C963 C982 1.368 . S
C963 H987 0.949 . S
H964 C968 0.949 . S
C965 C966 1.349 . S
C965 C967 1.327 . S
C965 H988 0.950 . S
C966 C965 1.349 . S
C966 C978 1.349 . S
C967 C965 1.327 . S
C967 C983 1.429 . S
C967 H989 0.950 . S
C968 H964 0.949 . S
C968 C976 1.574 . S
C968 C984 1.368 . S
H969 C977 0.950 . S
H970 C975 0.950 . S
H971 C976 0.949 . S
H972 C978 0.950 . S
H973 C979 0.950 . S
H974 C980 0.949 . S
C975 H970 0.950 . S
C975 C977 1.327 . S
C975 C981 1.429 . S
C976 C968 1.574 . S
C976 H971 0.949 . S
C976 C982 1.368 . S
C977 C961 1.349 . S
C977 H969 0.950 . S
C977 C975 1.327 . S
C978 C966 1.349 . S
C978 H972 0.950 . S
C978 C979 1.327 . S
C979 H973 0.950 . S
C979 C978 1.327 . S
C979 C983 1.429 . S
C980 C963 1.574 . S
C980 H974 0.949 . S
C980 C984 1.368 . S
C981 C962 1.429 . S
C981 C975 1.429 . S
C981 C982 1.523 . S
C982 C963 1.368 . S
C982 C976 1.368 . S
C982 C981 1.523 . S
C983 C967 1.429 . S
C983 C979 1.429 . S
C983 C984 1.523 . S
C984 C968 1.368 . S
C984 C980 1.368 . S
C984 C983 1.523 . S
H985 C960 0.950 . S
H986 C962 0.950 . S
H987 C963 0.949 . S
H988 C965 0.950 . S
H989 C967 0.950 . S
C990 C991 1.349 . S
C990 C992 1.327 . S
C990 H1015 0.950 . S
C991 C990 1.349 . S
C991 C1007 1.349 . S
C992 C990 1.327 . S
C992 C1011 1.429 . S
C992 H1016 0.950 . S
C993 C1010 1.574 . S
C993 C1012 1.368 1_655 S
C993 H1017 0.949 . S
H994 C998 0.949 . S
C995 C996 1.349 . S
C995 C997 1.327 . S
C995 H1018 0.950 . S
C996 C995 1.349 . S
C996 C1008 1.349 . S
C997 C995 1.327 . S
C997 C1013 1.429 . S
C997 H1019 0.950 . S
C998 H994 0.949 . S
C998 C1006 1.574 . S
C998 C1014 1.368 1_455 S
H999 C1007 0.950 . S
H1000 C1005 0.950 1_655 S
H1001 C1006 0.949 . S
H1002 C1008 0.950 . S
H1003 C1009 0.950 1_455 S
H1004 C1010 0.949 . S
C1005 H1000 0.950 1_455 S
C1005 C1007 1.327 . S
C1005 C1011 1.429 . S
C1006 C998 1.574 . S
C1006 H1001 0.949 . S
C1006 C1012 1.368 . S
C1007 C991 1.349 . S
C1007 H999 0.950 . S
C1007 C1005 1.327 . S
C1008 C996 1.349 . S
C1008 H1002 0.950 . S
C1008 C1009 1.327 . S
C1009 H1003 0.950 1_655 S
C1009 C1008 1.327 . S
C1009 C1013 1.429 . S
C1010 C993 1.574 . S
C1010 H1004 0.949 . S
C1010 C1014 1.368 . S
C1011 C992 1.429 . S
C1011 C1005 1.429 . S
C1011 C1012 1.523 . S
C1012 C993 1.368 1_455 S
C1012 C1006 1.368 . S
C1012 C1011 1.523 . S
C1013 C997 1.429 . S
C1013 C1009 1.429 . S
C1013 C1014 1.523 . S
C1014 C998 1.368 1_655 S
C1014 C1010 1.368 . S
C1014 C1013 1.523 . S
H1015 C990 0.950 . S
H1016 C992 0.950 . S
H1017 C993 0.949 . S
H1018 C995 0.950 . S
H1019 C997 0.950 . S
C1020 C1021 1.349 . S
C1020 C1022 1.327 . S
C1020 H1045 0.950 . S
C1021 C1020 1.349 . S
C1021 C1037 1.349 . S
C1022 C1020 1.327 . S
C1022 C1041 1.429 . S
C1022 H1046 0.950 . S
C1023 C1040 1.605 . S
C1023 C1042 1.351 1_565 S
C1023 H1047 0.950 . S
H1024 C1028 0.950 . S
C1025 C1026 1.349 . S
C1025 C1027 1.327 . S
C1025 H1048 0.950 . S
C1026 C1025 1.349 . S
C1026 C1038 1.349 . S
C1027 C1025 1.327 . S
C1027 C1043 1.429 . S
C1027 H1049 0.950 . S
C1028 H1024 0.950 . S
C1028 C1036 1.605 . S
C1028 C1044 1.351 1_545 S
H1029 C1037 0.950 . S
H1030 C1035 0.950 . S
H1031 C1036 0.949 . S
H1032 C1038 0.950 . S
H1033 C1039 0.950 . S
H1034 C1040 0.949 . S
C1035 H1030 0.950 . S
C1035 C1037 1.327 . S
C1035 C1041 1.429 . S
C1036 C1028 1.605 . S
C1036 H1031 0.949 . S
C1036 C1042 1.368 . S
C1037 C1021 1.349 . S
C1037 H1029 0.950 . S
C1037 C1035 1.327 . S
C1038 C1026 1.349 . S
C1038 H1032 0.950 . S
C1038 C1039 1.327 . S
C1039 H1033 0.950 . S
C1039 C1038 1.327 . S
C1039 C1043 1.429 . S
C1040 C1023 1.605 . S
C1040 H1034 0.949 . S
C1040 C1044 1.368 . S
C1041 C1022 1.429 . S
C1041 C1035 1.429 . S
C1041 C1042 1.523 . S
C1042 C1023 1.351 1_545 S
C1042 C1036 1.368 . S
C1042 C1041 1.523 . S
C1043 C1027 1.429 . S
C1043 C1039 1.429 . S
C1043 C1044 1.523 . S
C1044 C1028 1.351 1_565 S
C1044 C1040 1.368 . S
C1044 C1043 1.523 . S
H1045 C1020 0.950 . S
H1046 C1022 0.950 . S
H1047 C1023 0.950 . S
H1048 C1025 0.950 . S
H1049 C1027 0.950 . S
C1050 C1051 1.349 . S
C1050 C1052 1.327 . S
C1050 H1075 0.950 . S
C1051 C1050 1.349 . S
C1051 C1067 1.349 . S
C1052 C1050 1.327 . S
C1052 C1071 1.429 . S
C1052 H1076 0.950 . S
C1053 C1070 1.574 . S
C1053 C1072 1.368 . S
C1053 H1077 0.949 . S
H1054 C1058 0.949 . S
C1055 C1056 1.349 . S
C1055 C1057 1.327 . S
C1055 H1078 0.950 . S
C1056 C1055 1.349 . S
C1056 C1068 1.349 . S
C1057 C1055 1.327 . S
C1057 C1073 1.429 . S
C1057 H1079 0.950 . S
C1058 H1054 0.949 . S
C1058 C1066 1.574 . S
C1058 C1074 1.368 . S
H1059 C1067 0.950 . S
H1060 C1065 0.950 . S
H1061 C1066 0.949 . S
H1062 C1068 0.950 . S
H1063 C1069 0.950 . S
H1064 C1070 0.949 . S
C1065 H1060 0.950 . S
C1065 C1067 1.327 . S
C1065 C1071 1.429 . S
C1066 C1058 1.574 . S
C1066 H1061 0.949 . S
C1066 C1072 1.368 . S
C1067 C1051 1.349 . S
C1067 H1059 0.950 . S
C1067 C1065 1.327 . S
C1068 C1056 1.349 . S
C1068 H1062 0.950 . S
C1068 C1069 1.327 . S
C1069 H1063 0.950 . S
C1069 C1068 1.327 . S
C1069 C1073 1.429 . S
C1070 C1053 1.574 . S
C1070 H1064 0.949 . S
C1070 C1074 1.368 . S
C1071 C1052 1.429 . S
C1071 C1065 1.429 . S
C1071 C1072 1.523 . S
C1072 C1053 1.368 . S
C1072 C1066 1.368 . S
C1072 C1071 1.523 . S
C1073 C1057 1.429 . S
C1073 C1069 1.429 . S
C1073 C1074 1.523 . S
C1074 C1058 1.368 . S
C1074 C1070 1.368 . S
C1074 C1073 1.523 . S
H1075 C1050 0.950 . S
H1076 C1052 0.950 . S
H1077 C1053 0.949 . S
H1078 C1055 0.950 . S
H1079 C1057 0.950 . S
C1080 C1081 1.349 . S
C1080 C1082 1.327 . S
C1080 H1105 0.950 . S
C1081 C1080 1.349 . S
C1081 C1097 1.349 . S
C1082 C1080 1.327 . S
C1082 C1101 1.429 . S
C1082 H1106 0.950 . S
C1083 C1100 1.580 . S
C1083 C1102 1.349 1_455 S
C1083 H1107 0.949 . S
H1084 C1088 0.949 . S
C1085 C1086 1.349 . S
C1085 C1087 1.327 . S
C1085 H1108 0.950 . S
C1086 C1085 1.349 . S
C1086 C1098 1.349 . S
C1087 C1085 1.327 . S
C1087 C1103 1.429 . S
C1087 H1109 0.950 . S
C1088 H1084 0.949 . S
C1088 C1096 1.580 . S
C1088 C1104 1.349 1_655 S
H1089 C1097 0.950 . S
H1090 C1095 0.950 . S
H1091 C1096 0.949 . S
H1092 C1098 0.950 . S
H1093 C1099 0.950 . S
H1094 C1100 0.949 . S
C1095 H1090 0.950 . S
C1095 C1097 1.327 . S
C1095 C1101 1.429 . S
C1096 C1088 1.580 . S
C1096 H1091 0.949 . S
C1096 C1102 1.368 . S
C1097 C1081 1.349 . S
C1097 H1089 0.950 . S
C1097 C1095 1.327 . S
C1098 C1086 1.349 . S
C1098 H1092 0.950 . S
C1098 C1099 1.327 . S
C1099 H1093 0.950 . S
C1099 C1098 1.327 . S
C1099 C1103 1.429 . S
C1100 C1083 1.580 . S
C1100 H1094 0.949 . S
C1100 C1104 1.368 . S
C1101 C1082 1.429 . S
C1101 C1095 1.429 . S
C1101 C1102 1.523 . S
C1102 C1083 1.349 1_655 S
C1102 C1096 1.368 . S
C1102 C1101 1.523 . S
C1103 C1087 1.429 . S
C1103 C1099 1.429 . S
C1103 C1104 1.523 . S
C1104 C1088 1.349 1_455 S
C1104 C1100 1.368 . S
C1104 C1103 1.523 . S
H1105 C1080 0.950 . S
H1106 C1082 0.950 . S
H1107 C1083 0.949 . S
H1108 C1085 0.950 . S
H1109 C1087 0.950 . S
C1110 C1111 1.349 . S
C1110 C1112 1.327 . S
C1110 H1135 0.950 . S
C1111 C1110 1.349 . S
C1111 C1127 1.349 . S
C1112 C1110 1.327 . S
C1112 C1131 1.429 . S
C1112 H1136 0.950 . S
C1113 C1130 1.605 . S
C1113 C1132 1.368 . S
C1113 H1137 0.949 . S
H1114 C1118 0.949 . S
C1115 C1116 1.349 . S
C1115 C1117 1.327 . S
C1115 H1138 0.950 . S
C1116 C1115 1.349 . S
C1116 C1128 1.349 . S
C1117 C1115 1.327 . S
C1117 C1133 1.429 . S
C1117 H1139 0.950 . S
C1118 H1114 0.949 . S
C1118 C1126 1.605 . S
C1118 C1134 1.368 . S
H1119 C1127 0.950 . S
H1120 C1125 0.950 . S
H1121 C1126 0.950 . S
H1122 C1128 0.950 . S
H1123 C1129 0.950 . S
H1124 C1130 0.950 . S
C1125 H1120 0.950 . S
C1125 C1127 1.327 . S
C1125 C1131 1.429 . S
C1126 C1118 1.605 . S
C1126 H1121 0.950 . S
C1126 C1132 1.351 1_655 S
C1127 C1111 1.349 . S
C1127 H1119 0.950 . S
C1127 C1125 1.327 . S
C1128 C1116 1.349 . S
C1128 H1122 0.950 . S
C1128 C1129 1.327 . S
C1129 H1123 0.950 . S
C1129 C1128 1.327 . S
C1129 C1133 1.429 . S
C1130 C1113 1.605 . S
C1130 H1124 0.950 . S
C1130 C1134 1.351 1_455 S
C1131 C1112 1.429 . S
C1131 C1125 1.429 . S
C1131 C1132 1.523 . S
C1132 C1113 1.368 . S
C1132 C1126 1.351 1_455 S
C1132 C1131 1.523 . S
C1133 C1117 1.429 . S
C1133 C1129 1.429 . S
C1133 C1134 1.523 . S
C1134 C1118 1.368 . S
C1134 C1130 1.351 1_655 S
C1134 C1133 1.523 . S
H1135 C1110 0.950 . S
H1136 C1112 0.950 . S
H1137 C1113 0.949 . S
H1138 C1115 0.950 . S
H1139 C1117 0.950 . S
C1140 C1141 1.349 . S
C1140 C1142 1.327 . S
C1140 H1165 0.950 . S
C1141 C1140 1.349 . S
C1141 C1157 1.349 . S
C1142 C1140 1.327 . S
C1142 C1161 1.429 . S
C1142 H1166 0.950 . S
C1143 C1160 1.580 . S
C1143 C1162 1.349 1_545 S
C1143 H1167 0.949 . S
H1144 C1148 0.949 . S
C1145 C1146 1.349 . S
C1145 C1147 1.327 . S
C1145 H1168 0.950 . S
C1146 C1145 1.349 . S
C1146 C1158 1.349 . S
C1147 C1145 1.327 . S
C1147 C1163 1.429 . S
C1147 H1169 0.950 . S
C1148 H1144 0.949 . S
C1148 C1156 1.580 . S
C1148 C1164 1.349 1_565 S
H1149 C1157 0.950 . S
H1150 C1155 0.950 . S
H1151 C1156 0.949 . S
H1152 C1158 0.950 . S
H1153 C1159 0.950 . S
H1154 C1160 0.949 . S
C1155 H1150 0.950 . S
C1155 C1157 1.327 . S
C1155 C1161 1.429 . S
C1156 C1148 1.580 . S
C1156 H1151 0.949 . S
C1156 C1162 1.368 . S
C1157 C1141 1.349 . S
C1157 H1149 0.950 . S
C1157 C1155 1.327 . S
C1158 C1146 1.349 . S
C1158 H1152 0.950 . S
C1158 C1159 1.327 . S
C1159 H1153 0.950 . S
C1159 C1158 1.327 . S
C1159 C1163 1.429 . S
C1160 C1143 1.580 . S
C1160 H1154 0.949 . S
C1160 C1164 1.368 . S
C1161 C1142 1.429 . S
C1161 C1155 1.429 . S
C1161 C1162 1.523 . S
C1162 C1143 1.349 1_565 S
C1162 C1156 1.368 . S
C1162 C1161 1.523 . S
C1163 C1147 1.429 . S
C1163 C1159 1.429 . S
C1163 C1164 1.523 . S
C1164 C1148 1.349 1_545 S
C1164 C1160 1.368 . S
C1164 C1163 1.523 . S
H1165 C1140 0.950 . S
H1166 C1142 0.950 . S
H1167 C1143 0.949 . S
H1168 C1145 0.950 . S
H1169 C1147 0.950 . S
C1170 C1171 1.349 . S
C1170 C1172 1.327 . S
C1170 H1195 0.950 . S
C1171 C1170 1.349 . S
C1171 C1187 1.349 . S
C1172 C1170 1.327 . S
C1172 C1191 1.429 . S
C1172 H1196 0.950 . S
C1173 C1190 1.574 . S
C1173 C1192 1.368 . S
C1173 H1197 0.949 . S
H1174 C1178 0.949 . S
C1175 C1176 1.349 . S
C1175 C1177 1.327 . S
C1175 H1198 0.950 . S
C1176 C1175 1.349 . S
C1176 C1188 1.349 . S
C1177 C1175 1.327 . S
C1177 C1193 1.429 . S
C1177 H1199 0.950 . S
C1178 H1174 0.949 . S
C1178 C1186 1.574 . S
C1178 C1194 1.368 . S
H1179 C1187 0.950 . S
H1180 C1185 0.950 . S
H1181 C1186 0.949 . S
H1182 C1188 0.950 . S
H1183 C1189 0.950 . S
H1184 C1190 0.949 . S
C1185 H1180 0.950 . S
C1185 C1187 1.327 . S
C1185 C1191 1.429 . S
C1186 C1178 1.574 . S
C1186 H1181 0.949 . S
C1186 C1192 1.368 . S
C1187 C1171 1.349 . S
C1187 H1179 0.950 . S
C1187 C1185 1.327 . S
C1188 C1176 1.349 . S
C1188 H1182 0.950 . S
C1188 C1189 1.327 . S
C1189 H1183 0.950 . S
C1189 C1188 1.327 . S
C1189 C1193 1.429 . S
C1190 C1173 1.574 . S
C1190 H1184 0.949 . S
C1190 C1194 1.368 . S
C1191 C1172 1.429 . S
C1191 C1185 1.429 . S
C1191 C1192 1.523 . S
C1192 C1173 1.368 . S
C1192 C1186 1.368 . S
C1192 C1191 1.523 . S
C1193 C1177 1.429 . S
C1193 C1189 1.429 . S
C1193 C1194 1.523 . S
C1194 C1178 1.368 . S
C1194 C1190 1.368 . S
C1194 C1193 1.523 . S
H1195 C1170 0.950 . S
H1196 C1172 0.950 . S
H1197 C1173 0.949 . S
H1198 C1175 0.950 . S
H1199 C1177 0.950 . S
C1200 C1201 1.349 . S
C1200 C1202 1.327 . S
C1200 H1225 0.950 . S
C1201 C1200 1.349 . S
C1201 C1217 1.349 . S
C1202 C1200 1.327 . S
C1202 C1221 1.429 . S
C1202 H1226 0.950 . S
C1203 C1220 1.574 . S
C1203 C1222 1.368 1_545 S
C1203 H1227 0.949 . S
H1204 C1208 0.949 . S
C1205 C1206 1.349 . S
C1205 C1207 1.327 . S
C1205 H1228 0.950 . S
C1206 C1205 1.349 . S
C1206 C1218 1.349 . S
C1207 C1205 1.327 . S
C1207 C1223 1.429 . S
C1207 H1229 0.950 . S
C1208 H1204 0.949 . S
C1208 C1216 1.574 . S
C1208 C1224 1.368 1_565 S
H1209 C1217 0.950 . S
H1210 C1215 0.950 . S
H1211 C1216 0.949 . S
H1212 C1218 0.950 . S
H1213 C1219 0.950 . S
H1214 C1220 0.949 . S
C1215 H1210 0.950 . S
C1215 C1217 1.327 . S
C1215 C1221 1.429 . S
C1216 C1208 1.574 . S
C1216 H1211 0.949 . S
C1216 C1222 1.368 . S
C1217 C1201 1.349 . S
C1217 H1209 0.950 . S
C1217 C1215 1.327 . S
C1218 C1206 1.349 . S
C1218 H1212 0.950 . S
C1218 C1219 1.327 . S
C1219 H1213 0.950 . S
C1219 C1218 1.327 . S
C1219 C1223 1.429 . S
C1220 C1203 1.574 . S
C1220 H1214 0.949 . S
C1220 C1224 1.368 . S
C1221 C1202 1.429 . S
C1221 C1215 1.429 . S
C1221 C1222 1.523 . S
C1222 C1203 1.368 1_565 S
C1222 C1216 1.368 . S
C1222 C1221 1.523 . S
C1223 C1207 1.429 . S
C1223 C1219 1.429 . S
C1223 C1224 1.523 . S
C1224 C1208 1.368 1_545 S
C1224 C1220 1.368 . S
C1224 C1223 1.523 . S
H1225 C1200 0.950 . S
H1226 C1202 0.950 . S
H1227 C1203 0.949 . S
H1228 C1205 0.950 . S
H1229 C1207 0.950 . S
C1230 C1231 1.349 . S
C1230 C1232 1.327 . S
C1230 H1255 0.950 . S
C1231 C1230 1.349 . S
C1231 C1247 1.349 . S
C1232 C1230 1.327 . S
C1232 C1251 1.429 . S
C1232 H1256 0.950 . S
C1233 C1250 1.574 . S
C1233 C1252 1.368 . S
C1233 H1257 0.949 . S
H1234 C1238 0.949 . S
C1235 C1236 1.349 . S
C1235 C1237 1.327 . S
C1235 H1258 0.950 . S
C1236 C1235 1.349 . S
C1236 C1248 1.349 . S
C1237 C1235 1.327 . S
C1237 C1253 1.429 . S
C1237 H1259 0.950 . S
C1238 H1234 0.949 . S
C1238 C1246 1.574 . S
C1238 C1254 1.368 . S
H1239 C1247 0.950 . S
H1240 C1245 0.950 . S
H1241 C1246 0.949 . S
H1242 C1248 0.950 . S
H1243 C1249 0.950 . S
H1244 C1250 0.949 . S
C1245 H1240 0.950 . S
C1245 C1247 1.327 . S
C1245 C1251 1.429 . S
C1246 C1238 1.574 . S
C1246 H1241 0.949 . S
C1246 C1252 1.368 . S
C1247 C1231 1.349 . S
C1247 H1239 0.950 . S
C1247 C1245 1.327 . S
C1248 C1236 1.349 . S
C1248 H1242 0.950 . S
C1248 C1249 1.327 . S
C1249 H1243 0.950 . S
C1249 C1248 1.327 . S
C1249 C1253 1.429 . S
C1250 C1233 1.574 . S
C1250 H1244 0.949 . S
C1250 C1254 1.368 . S
C1251 C1232 1.429 . S
C1251 C1245 1.429 . S
C1251 C1252 1.523 . S
C1252 C1233 1.368 . S
C1252 C1246 1.368 . S
C1252 C1251 1.523 . S
C1253 C1237 1.429 . S
C1253 C1249 1.429 . S
C1253 C1254 1.523 . S
C1254 C1238 1.368 . S
C1254 C1250 1.368 . S
C1254 C1253 1.523 . S
H1255 C1230 0.950 . S
H1256 C1232 0.950 . S
H1257 C1233 0.949 . S
H1258 C1235 0.950 . S
H1259 C1237 0.950 . S
C1260 C1261 1.349 . S
C1260 C1262 1.327 . S
C1260 H1285 0.950 . S
C1261 C1260 1.349 . S
C1261 C1277 1.349 . S
C1262 C1260 1.327 . S
C1262 C1281 1.429 . S
C1262 H1286 0.950 . S
C1263 C1280 1.574 1_655 S
C1263 C1282 1.368 . S
C1263 H1287 0.949 . S
H1264 C1268 0.949 . S
C1265 C1266 1.349 . S
C1265 C1267 1.327 . S
C1265 H1288 0.950 . S
C1266 C1265 1.349 . S
C1266 C1278 1.349 . S
C1267 C1265 1.327 . S
C1267 C1283 1.429 . S
C1267 H1289 0.950 . S
C1268 H1264 0.949 . S
C1268 C1276 1.574 1_455 S
C1268 C1284 1.368 . S
H1269 C1277 0.950 . S
H1270 C1275 0.950 . S
H1271 C1276 0.949 . S
H1272 C1278 0.950 . S
H1273 C1279 0.950 . S
H1274 C1280 0.949 . S
C1275 H1270 0.950 . S
C1275 C1277 1.327 . S
C1275 C1281 1.429 . S
C1276 C1268 1.574 1_655 S
C1276 H1271 0.949 . S
C1276 C1282 1.368 . S
C1277 C1261 1.349 . S
C1277 H1269 0.950 . S
C1277 C1275 1.327 . S
C1278 C1266 1.349 . S
C1278 H1272 0.950 . S
C1278 C1279 1.327 . S
C1279 H1273 0.950 . S
C1279 C1278 1.327 . S
C1279 C1283 1.429 . S
C1280 C1263 1.574 1_455 S
C1280 H1274 0.949 . S
C1280 C1284 1.368 . S
C1281 C1262 1.429 . S
C1281 C1275 1.429 . S
C1281 C1282 1.523 . S
C1282 C1263 1.368 . S
C1282 C1276 1.368 . S
C1282 C1281 1.523 . S
C1283 C1267 1.429 . S
C1283 C1279 1.429 . S
C1283 C1284 1.523 . S
C1284 C1268 1.368 . S
C1284 C1280 1.368 . S
C1284 C1283 1.523 . S
H1285 C1260 0.950 . S
H1286 C1262 0.950 . S
H1287 C1263 0.949 . S
H1288 C1265 0.950 . S
H1289 C1267 0.950 . S
C1290 C1291 1.349 . S
C1290 C1292 1.327 . S
C1290 H1315 0.950 . S
C1291 C1290 1.349 . S
C1291 C1307 1.349 . S
C1292 C1290 1.327 . S
C1292 C1311 1.429 . S
C1292 H1316 0.950 . S
C1293 C1310 1.574 . S
C1293 C1312 1.368 1_565 S
C1293 H1317 0.949 . S
H1294 C1298 0.949 . S
C1295 C1296 1.349 . S
C1295 C1297 1.327 . S
C1295 H1318 0.950 . S
C1296 C1295 1.349 . S
C1296 C1308 1.349 . S
C1297 C1295 1.327 . S
C1297 C1313 1.429 . S
C1297 H1319 0.950 . S
C1298 H1294 0.949 . S
C1298 C1306 1.574 . S
C1298 C1314 1.368 1_545 S
H1299 C1307 0.950 . S
H1300 C1305 0.950 . S
H1301 C1306 0.949 . S
H1302 C1308 0.950 . S
H1303 C1309 0.950 . S
H1304 C1310 0.949 . S
C1305 H1300 0.950 . S
C1305 C1307 1.327 . S
C1305 C1311 1.429 . S
C1306 C1298 1.574 . S
C1306 H1301 0.949 . S
C1306 C1312 1.368 . S
C1307 C1291 1.349 . S
C1307 H1299 0.950 . S
C1307 C1305 1.327 . S
C1308 C1296 1.349 . S
C1308 H1302 0.950 . S
C1308 C1309 1.327 . S
C1309 H1303 0.950 . S
C1309 C1308 1.327 . S
C1309 C1313 1.429 . S
C1310 C1293 1.574 . S
C1310 H1304 0.949 . S
C1310 C1314 1.368 . S
C1311 C1292 1.429 . S
C1311 C1305 1.429 . S
C1311 C1312 1.523 . S
C1312 C1293 1.368 1_545 S
C1312 C1306 1.368 . S
C1312 C1311 1.523 . S
C1313 C1297 1.429 . S
C1313 C1309 1.429 . S
C1313 C1314 1.523 . S
C1314 C1298 1.368 1_565 S
C1314 C1310 1.368 . S
C1314 C1313 1.523 . S
H1315 C1290 0.950 . S
H1316 C1292 0.950 . S
H1317 C1293 0.949 . S
H1318 C1295 0.950 . S
H1319 C1297 0.950 . S
C1320 C1321 1.349 . S
C1320 C1322 1.327 . S
C1320 H1345 0.950 . S
C1321 C1320 1.349 . S
C1321 C1337 1.349 . S
C1322 C1320 1.327 . S
C1322 C1341 1.429 . S
C1322 H1346 0.950 . S
C1323 C1340 1.574 . S
C1323 C1342 1.368 . S
C1323 H1347 0.949 . S
H1324 C1328 0.949 . S
C1325 C1326 1.349 . S
C1325 C1327 1.327 . S
C1325 H1348 0.950 . S
C1326 C1325 1.349 . S
C1326 C1338 1.349 . S
C1327 C1325 1.327 . S
C1327 C1343 1.429 . S
C1327 H1349 0.950 . S
C1328 H1324 0.949 . S
C1328 C1336 1.574 . S
C1328 C1344 1.368 . S
H1329 C1337 0.950 . S
H1330 C1335 0.950 . S
H1331 C1336 0.949 . S
H1332 C1338 0.950 . S
H1333 C1339 0.950 . S
H1334 C1340 0.949 . S
C1335 H1330 0.950 . S
C1335 C1337 1.327 . S
C1335 C1341 1.429 . S
C1336 C1328 1.574 . S
C1336 H1331 0.949 . S
C1336 C1342 1.368 . S
C1337 C1321 1.349 . S
C1337 H1329 0.950 . S
C1337 C1335 1.327 . S
C1338 C1326 1.349 . S
C1338 H1332 0.950 . S
C1338 C1339 1.327 . S
C1339 H1333 0.950 . S
C1339 C1338 1.327 . S
C1339 C1343 1.429 . S
C1340 C1323 1.574 . S
C1340 H1334 0.949 . S
C1340 C1344 1.368 . S
C1341 C1322 1.429 . S
C1341 C1335 1.429 . S
C1341 C1342 1.523 . S
C1342 C1323 1.368 . S
C1342 C1336 1.368 . S
C1342 C1341 1.523 . S
C1343 C1327 1.429 . S
C1343 C1339 1.429 . S
C1343 C1344 1.523 . S
C1344 C1328 1.368 . S
C1344 C1340 1.368 . S
C1344 C1343 1.523 . S
H1345 C1320 0.950 . S
H1346 C1322 0.950 . S
H1347 C1323 0.949 . S
H1348 C1325 0.950 . S
H1349 C1327 0.950 . S
C1350 C1351 1.349 . S
C1350 C1352 1.327 . S
C1350 H1375 0.950 . S
C1351 C1350 1.349 . S
C1351 C1367 1.349 . S
C1352 C1350 1.327 . S
C1352 C1371 1.429 . S
C1352 H1376 0.950 . S
C1353 C1370 1.574 . S
C1353 C1372 1.368 1_655 S
C1353 H1377 0.949 . S
H1354 C1358 0.949 . S
C1355 C1356 1.349 . S
C1355 C1357 1.327 . S
C1355 H1378 0.950 . S
C1356 C1355 1.349 . S
C1356 C1368 1.349 . S
C1357 C1355 1.327 . S
C1357 C1373 1.429 . S
C1357 H1379 0.950 . S
C1358 H1354 0.949 . S
C1358 C1366 1.574 . S
C1358 C1374 1.368 1_455 S
H1359 C1367 0.950 . S
H1360 C1365 0.950 . S
H1361 C1366 0.949 . S
H1362 C1368 0.950 . S
H1363 C1369 0.950 . S
H1364 C1370 0.949 . S
C1365 H1360 0.950 . S
C1365 C1367 1.327 . S
C1365 C1371 1.429 . S
C1366 C1358 1.574 . S
C1366 H1361 0.949 . S
C1366 C1372 1.368 . S
C1367 C1351 1.349 . S
C1367 H1359 0.950 . S
C1367 C1365 1.327 . S
C1368 C1356 1.349 . S
C1368 H1362 0.950 . S
C1368 C1369 1.327 . S
C1369 H1363 0.950 . S
C1369 C1368 1.327 . S
C1369 C1373 1.429 . S
C1370 C1353 1.574 . S
C1370 H1364 0.949 . S
C1370 C1374 1.368 . S
C1371 C1352 1.429 . S
C1371 C1365 1.429 . S
C1371 C1372 1.523 . S
C1372 C1353 1.368 1_455 S
C1372 C1366 1.368 . S
C1372 C1371 1.523 . S
C1373 C1357 1.429 . S
C1373 C1369 1.429 . S
C1373 C1374 1.523 . S
C1374 C1358 1.368 1_655 S
C1374 C1370 1.368 . S
C1374 C1373 1.523 . S
H1375 C1350 0.950 . S
H1376 C1352 0.950 . S
H1377 C1353 0.949 . S
H1378 C1355 0.950 . S
H1379 C1357 0.950 . S
C1380 C1381 1.349 . S
C1380 C1382 1.327 . S
C1380 H1405 0.950 . S
C1381 C1380 1.349 . S
C1381 C1397 1.349 . S
C1382 C1380 1.327 . S
C1382 C1401 1.429 . S
C1382 H1406 0.950 . S
C1383 C1400 1.574 . S
C1383 C1402 1.368 . S
C1383 H1407 0.949 . S
H1384 C1388 0.949 . S
C1385 C1386 1.349 . S
C1385 C1387 1.327 . S
C1385 H1408 0.950 . S
C1386 C1385 1.349 . S
C1386 C1398 1.349 . S
C1387 C1385 1.327 . S
C1387 C1403 1.429 . S
C1387 H1409 0.950 . S
C1388 H1384 0.949 . S
C1388 C1396 1.574 . S
C1388 C1404 1.368 . S
H1389 C1397 0.950 . S
H1390 C1395 0.950 . S
H1391 C1396 0.949 . S
H1392 C1398 0.950 . S
H1393 C1399 0.950 . S
H1394 C1400 0.949 . S
C1395 H1390 0.950 . S
C1395 C1397 1.327 . S
C1395 C1401 1.429 . S
C1396 C1388 1.574 . S
C1396 H1391 0.949 . S
C1396 C1402 1.368 . S
C1397 C1381 1.349 . S
C1397 H1389 0.950 . S
C1397 C1395 1.327 . S
C1398 C1386 1.349 . S
C1398 H1392 0.950 . S
C1398 C1399 1.327 . S
C1399 H1393 0.950 . S
C1399 C1398 1.327 . S
C1399 C1403 1.429 . S
C1400 C1383 1.574 . S
C1400 H1394 0.949 . S
C1400 C1404 1.368 . S
C1401 C1382 1.429 . S
C1401 C1395 1.429 . S
C1401 C1402 1.523 . S
C1402 C1383 1.368 . S
C1402 C1396 1.368 . S
C1402 C1401 1.523 . S
C1403 C1387 1.429 . S
C1403 C1399 1.429 . S
C1403 C1404 1.523 . S
C1404 C1388 1.368 . S
C1404 C1400 1.368 . S
C1404 C1403 1.523 . S
H1405 C1380 0.950 . S
H1406 C1382 0.950 . S
H1407 C1383 0.949 . S
H1408 C1385 0.950 . S
H1409 C1387 0.950 . S
C1410 C1411 1.349 . S
C1410 C1412 1.327 . S
C1410 H1435 0.950 . S
C1411 C1410 1.349 . S
C1411 C1427 1.349 . S
C1412 C1410 1.327 . S
C1412 C1431 1.429 . S
C1412 H1436 0.950 . S
C1413 C1430 1.574 . S
C1413 C1432 1.368 . S
C1413 H1437 0.949 . S
H1414 C1418 0.949 . S
C1415 C1416 1.349 . S
C1415 C1417 1.327 . S
C1415 H1438 0.950 . S
C1416 C1415 1.349 . S
C1416 C1428 1.349 . S
C1417 C1415 1.327 . S
C1417 C1433 1.429 . S
C1417 H1439 0.950 . S
C1418 H1414 0.949 . S
C1418 C1426 1.574 . S
C1418 C1434 1.368 . S
H1419 C1427 0.950 . S
H1420 C1425 0.950 . S
H1421 C1426 0.949 . S
H1422 C1428 0.950 . S
H1423 C1429 0.950 . S
H1424 C1430 0.949 . S
C1425 H1420 0.950 . S
C1425 C1427 1.327 . S
C1425 C1431 1.429 . S
C1426 C1418 1.574 . S
C1426 H1421 0.949 . S
C1426 C1432 1.368 . S
C1427 C1411 1.349 . S
C1427 H1419 0.950 . S
C1427 C1425 1.327 . S
C1428 C1416 1.349 . S
C1428 H1422 0.950 . S
C1428 C1429 1.327 . S
C1429 H1423 0.950 . S
C1429 C1428 1.327 . S
C1429 C1433 1.429 . S
C1430 C1413 1.574 . S
C1430 H1424 0.949 . S
C1430 C1434 1.368 . S
C1431 C1412 1.429 . S
C1431 C1425 1.429 . S
C1431 C1432 1.523 . S
C1432 C1413 1.368 . S
C1432 C1426 1.368 . S
C1432 C1431 1.523 . S
C1433 C1417 1.429 . S
C1433 C1429 1.429 . S
C1433 C1434 1.523 . S
C1434 C1418 1.368 . S
C1434 C1430 1.368 . S
C1434 C1433 1.523 . S
H1435 C1410 0.950 . S
H1436 C1412 0.950 . S
H1437 C1413 0.949 . S
H1438 C1415 0.950 . S
H1439 C1417 0.950 . S
C1440 C1441 1.349 . S
C1440 C1442 1.327 . S
C1440 H1465 0.950 . S
C1441 C1440 1.349 . S
C1441 C1457 1.349 . S
C1442 C1440 1.327 . S
C1442 C1461 1.429 . S
C1442 H1466 0.950 . S
C1443 C1460 1.574 . S
C1443 C1462 1.368 . S
C1443 H1467 0.949 . S
H1444 C1448 0.949 . S
C1445 C1446 1.349 . S
C1445 C1447 1.327 . S
C1445 H1468 0.950 . S
C1446 C1445 1.349 . S
C1446 C1458 1.349 . S
C1447 C1445 1.327 . S
C1447 C1463 1.429 . S
C1447 H1469 0.950 . S
C1448 H1444 0.949 . S
C1448 C1456 1.574 . S
C1448 C1464 1.368 . S
H1449 C1457 0.950 . S
H1450 C1455 0.950 . S
H1451 C1456 0.949 . S
H1452 C1458 0.950 . S
H1453 C1459 0.950 . S
H1454 C1460 0.949 . S
C1455 H1450 0.950 . S
C1455 C1457 1.327 . S
C1455 C1461 1.429 . S
C1456 C1448 1.574 . S
C1456 H1451 0.949 . S
C1456 C1462 1.368 . S
C1457 C1441 1.349 . S
C1457 H1449 0.950 . S
C1457 C1455 1.327 . S
C1458 C1446 1.349 . S
C1458 H1452 0.950 . S
C1458 C1459 1.327 . S
C1459 H1453 0.950 . S
C1459 C1458 1.327 . S
C1459 C1463 1.429 . S
C1460 C1443 1.574 . S
C1460 H1454 0.949 . S
C1460 C1464 1.368 . S
C1461 C1442 1.429 . S
C1461 C1455 1.429 . S
C1461 C1462 1.523 . S
C1462 C1443 1.368 . S
C1462 C1456 1.368 . S
C1462 C1461 1.523 . S
C1463 C1447 1.429 . S
C1463 C1459 1.429 . S
C1463 C1464 1.523 . S
C1464 C1448 1.368 . S
C1464 C1460 1.368 . S
C1464 C1463 1.523 . S
H1465 C1440 0.950 . S
H1466 C1442 0.950 . S
H1467 C1443 0.949 . S
H1468 C1445 0.950 . S
H1469 C1447 0.950 . S
C1470 C1471 1.349 . S
C1470 C1472 1.327 . S
C1470 H1495 0.950 . S
C1471 C1470 1.349 . S
C1471 C1487 1.349 . S
C1472 C1470 1.327 . S
C1472 C1491 1.429 . S
C1472 H1496 0.950 . S
C1473 C1490 1.574 . S
C1473 C1492 1.368 . S
C1473 H1497 0.949 . S
H1474 C1478 0.949 . S
C1475 C1476 1.349 . S
C1475 C1477 1.327 . S
C1475 H1498 0.950 . S
C1476 C1475 1.349 . S
C1476 C1488 1.349 . S
C1477 C1475 1.327 . S
C1477 C1493 1.429 . S
C1477 H1499 0.950 . S
C1478 H1474 0.949 . S
C1478 C1486 1.574 . S
C1478 C1494 1.368 . S
H1479 C1487 0.950 . S
H1480 C1485 0.950 . S
H1481 C1486 0.949 . S
H1482 C1488 0.950 . S
H1483 C1489 0.950 . S
H1484 C1490 0.949 . S
C1485 H1480 0.950 . S
C1485 C1487 1.327 . S
C1485 C1491 1.429 . S
C1486 C1478 1.574 . S
C1486 H1481 0.949 . S
C1486 C1492 1.368 . S
C1487 C1471 1.349 . S
C1487 H1479 0.950 . S
C1487 C1485 1.327 . S
C1488 C1476 1.349 . S
C1488 H1482 0.950 . S
C1488 C1489 1.327 . S
C1489 H1483 0.950 . S
C1489 C1488 1.327 . S
C1489 C1493 1.429 . S
C1490 C1473 1.574 . S
C1490 H1484 0.949 . S
C1490 C1494 1.368 . S
C1491 C1472 1.429 . S
C1491 C1485 1.429 . S
C1491 C1492 1.523 . S
C1492 C1473 1.368 . S
C1492 C1486 1.368 . S
C1492 C1491 1.523 . S
C1493 C1477 1.429 . S
C1493 C1489 1.429 . S
C1493 C1494 1.523 . S
C1494 C1478 1.368 . S
C1494 C1490 1.368 . S
C1494 C1493 1.523 . S
H1495 C1470 0.950 . S
H1496 C1472 0.950 . S
H1497 C1473 0.949 . S
H1498 C1475 0.950 . S
H1499 C1477 0.950 . S
C1500 C1501 1.349 . S
C1500 C1502 1.327 . S
C1500 H1525 0.950 . S
C1501 C1500 1.349 . S
C1501 C1517 1.349 . S
C1502 C1500 1.327 . S
C1502 C1521 1.429 . S
C1502 H1526 0.950 . S
C1503 C1520 1.574 . S
C1503 C1522 1.368 . S
C1503 H1527 0.949 . S
H1504 C1508 0.949 . S
C1505 C1506 1.349 . S
C1505 C1507 1.327 . S
C1505 H1528 0.950 . S
C1506 C1505 1.349 . S
C1506 C1518 1.349 . S
C1507 C1505 1.327 . S
C1507 C1523 1.429 . S
C1507 H1529 0.950 . S
C1508 H1504 0.949 . S
C1508 C1516 1.574 . S
C1508 C1524 1.368 . S
H1509 C1517 0.950 . S
H1510 C1515 0.950 . S
H1511 C1516 0.949 . S
H1512 C1518 0.950 . S
H1513 C1519 0.950 . S
H1514 C1520 0.949 . S
C1515 H1510 0.950 . S
C1515 C1517 1.327 . S
C1515 C1521 1.429 . S
C1516 C1508 1.574 . S
C1516 H1511 0.949 . S
C1516 C1522 1.368 . S
C1517 C1501 1.349 . S
C1517 H1509 0.950 . S
C1517 C1515 1.327 . S
C1518 C1506 1.349 . S
C1518 H1512 0.950 . S
C1518 C1519 1.327 . S
C1519 H1513 0.950 . S
C1519 C1518 1.327 . S
C1519 C1523 1.429 . S
C1520 C1503 1.574 . S
C1520 H1514 0.949 . S
C1520 C1524 1.368 . S
C1521 C1502 1.429 . S
C1521 C1515 1.429 . S
C1521 C1522 1.523 . S
C1522 C1503 1.368 . S
C1522 C1516 1.368 . S
C1522 C1521 1.523 . S
C1523 C1507 1.429 . S
C1523 C1519 1.429 . S
C1523 C1524 1.523 . S
C1524 C1508 1.368 . S
C1524 C1520 1.368 . S
C1524 C1523 1.523 . S
H1525 C1500 0.950 . S
H1526 C1502 0.950 . S
H1527 C1503 0.949 . S
H1528 C1505 0.950 . S
H1529 C1507 0.950 . S
C1530 C1531 1.349 . S
C1530 C1532 1.327 . S
C1530 H1555 0.950 . S
C1531 C1530 1.349 . S
C1531 C1547 1.349 . S
C1532 C1530 1.327 . S
C1532 C1551 1.429 . S
C1532 H1556 0.950 . S
C1533 C1550 1.574 . S
C1533 C1552 1.368 . S
C1533 H1557 0.949 . S
H1534 C1538 0.949 . S
C1535 C1536 1.349 . S
C1535 C1537 1.327 . S
C1535 H1558 0.950 . S
C1536 C1535 1.349 . S
C1536 C1548 1.349 . S
C1537 C1535 1.327 . S
C1537 C1553 1.429 . S
C1537 H1559 0.950 . S
C1538 H1534 0.949 . S
C1538 C1546 1.574 . S
C1538 C1554 1.368 . S
H1539 C1547 0.950 . S
H1540 C1545 0.950 . S
H1541 C1546 0.949 . S
H1542 C1548 0.950 . S
H1543 C1549 0.950 . S
H1544 C1550 0.949 . S
C1545 H1540 0.950 . S
C1545 C1547 1.327 . S
C1545 C1551 1.429 . S
C1546 C1538 1.574 . S
C1546 H1541 0.949 . S
C1546 C1552 1.368 . S
C1547 C1531 1.349 . S
C1547 H1539 0.950 . S
C1547 C1545 1.327 . S
C1548 C1536 1.349 . S
C1548 H1542 0.950 . S
C1548 C1549 1.327 . S
C1549 H1543 0.950 . S
C1549 C1548 1.327 . S
C1549 C1553 1.429 . S
C1550 C1533 1.574 . S
C1550 H1544 0.949 . S
C1550 C1554 1.368 . S
C1551 C1532 1.429 . S
C1551 C1545 1.429 . S
C1551 C1552 1.523 . S
C1552 C1533 1.368 . S
C1552 C1546 1.368 . S
C1552 C1551 1.523 . S
C1553 C1537 1.429 . S
C1553 C1549 1.429 . S
C1553 C1554 1.523 . S
C1554 C1538 1.368 . S
C1554 C1550 1.368 . S
C1554 C1553 1.523 . S
H1555 C1530 0.950 . S
H1556 C1532 0.950 . S
H1557 C1533 0.949 . S
H1558 C1535 0.950 . S
H1559 C1537 0.950 . S
C481 C10 0.989 . S
C486 C330 0.989 . S
C511 C50 0.989 . S
C516 C370 0.989 . S
C541 C90 0.989 . S
C546 C410 0.989 . S
C571 C450 0.989 . S
C576 C130 0.989 . S
C601 C170 0.989 . S
C606 C250 0.989 . S
C631 C290 0.989 . S
C636 C210 0.989 . S
C661 C416 1.542 . S
C666 C16 1.542 . S
C691 C456 1.542 . S
C696 C56 1.542 . S
C721 C96 1.542 . S
C726 C256 1.542 . S
C751 C296 1.542 . S
C756 C136 1.542 . S
C781 C336 1.542 . S
C786 C176 1.542 . S
C811 C216 1.542 . S
C816 C376 1.542 . S
C841 C291 4.183 . S
C846 C11 4.183 . S
C871 C331 4.183 . S
C876 C51 4.183 . S
C901 C371 4.183 . S
C906 C91 4.183 . S
C931 C131 4.183 . S
C936 C411 4.183 . S
C961 C171 4.183 . S
C966 C451 4.183 . S
C991 C211 4.183 . S
C996 C251 4.183 . S
C1021 C19 0.818 . S
C1026 C139 0.818 . S
C1051 C59 0.818 . S
C1056 C179 0.818 . S
C1081 C99 0.818 . S
C1086 C219 0.818 . S
C1111 C379 0.818 . S
C1116 C259 0.818 . S
C1141 C299 0.818 . S
C1146 C419 0.818 . S
C1171 C459 0.818 . S
C1176 C339 0.818 . S
C1201 C287 0.740 . S
C1206 C7 0.740 . S
C1231 C327 0.740 . S
C1236 C47 0.740 . S
C1261 C87 0.740 . S
C1266 C367 0.740 . S
C1291 C407 0.740 . S
C1296 C127 0.740 . S
C1321 C447 0.740 . S
C1326 C167 0.740 . S
C1351 C207 0.740 . S
C1356 C247 0.740 . S
C1381 C2 4.707 . S
C1386 C402 4.707 . S
C1411 C42 4.707 . S
C1416 C442 4.707 1_556 S
C1441 C82 4.707 1_554 S
C1446 C242 4.707 . S
C1471 C122 4.707 . S
C1476 C282 4.707 . S
C1501 C162 4.707 . S
C1506 C322 4.707 1_556 S
C1531 C362 4.707 . S
C1536 C202 4.707 1_554 S
