# Generated by pormake.
# Topology wni, (7)-cn, num edge types: 1
# Building blocks:
#     Node 0, Type 0, BuildingBlock: HICVOG_clean_sbu_0, # of connection points: 7
#     Node 1, Type 0, BuildingBlock: HICVOG_clean_sbu_0, # of connection points: 7
#     Node 2, Type 0, BuildingBlock: HICVOG_clean_sbu_0, # of connection points: 7
#     Node 3, Type 0, BuildingBlock: HICVOG_clean_sbu_0, # of connection points: 7
#     Node 4, Type 0, BuildingBlock: HICVOG_clean_sbu_0, # of connection points: 7
#     Node 5, Type 0, BuildingBlock: HICVOG_clean_sbu_0, # of connection points: 7
#     Edge 6, Type (0, 0), BuildingBlock: XIVTED_clean_linker_0, # of connection points: 2
#     Edge 7, Type (0, 0), BuildingBlock: XIVTED_clean_linker_0, # of connection points: 2
#     Edge 8, Type (0, 0), BuildingBlock: XIVTED_clean_linker_0, # of connection points: 2
#     Edge 9, Type (0, 0), BuildingBlock: XIVTED_clean_linker_0, # of connection points: 2
#     Edge 10, Type (0, 0), BuildingBlock: XIVTED_clean_linker_0, # of connection points: 2
#     Edge 11, Type (0, 0), BuildingBlock: XIVTED_clean_linker_0, # of connection points: 2
#     Edge 12, Type (0, 0), BuildingBlock: XIVTED_clean_linker_0, # of connection points: 2
#     Edge 13, Type (0, 0), BuildingBlock: XIVTED_clean_linker_0, # of connection points: 2
#     Edge 14, Type (0, 0), BuildingBlock: XIVTED_clean_linker_0, # of connection points: 2
#     Edge 15, Type (0, 0), BuildingBlock: XIVTED_clean_linker_0, # of connection points: 2
#     Edge 16, Type (0, 0), BuildingBlock: XIVTED_clean_linker_0, # of connection points: 2
#     Edge 17, Type (0, 0), BuildingBlock: XIVTED_clean_linker_0, # of connection points: 2
#     Edge 18, Type (0, 0), BuildingBlock: XIVTED_clean_linker_0, # of connection points: 2
#     Edge 19, Type (0, 0), BuildingBlock: XIVTED_clean_linker_0, # of connection points: 2
#     Edge 20, Type (0, 0), BuildingBlock: XIVTED_clean_linker_0, # of connection points: 2
#     Edge 21, Type (0, 0), BuildingBlock: XIVTED_clean_linker_0, # of connection points: 2
#     Edge 22, Type (0, 0), BuildingBlock: XIVTED_clean_linker_0, # of connection points: 2
#     Edge 23, Type (0, 0), BuildingBlock: XIVTED_clean_linker_0, # of connection points: 2
#     Edge 24, Type (0, 0), BuildingBlock: XIVTED_clean_linker_0, # of connection points: 2
#     Edge 25, Type (0, 0), BuildingBlock: XIVTED_clean_linker_0, # of connection points: 2
#     Edge 26, Type (0, 0), BuildingBlock: XIVTED_clean_linker_0, # of connection points: 2
# Relax obj value: 0.265
# Max RMSD: 0.178
# Mean RMSD: 0.178
data_MOF--net-wni--node1-HICVOG_clean_sbu_0--edge1-XIVTED_clean_linker_0
_symmetry_space_group_name_H-M    P1
_symmetry_Int_Tables_number       1
_symmetry_cell_setting            triclinic
loop_
_symmetry_equiv_pos_as_xyz
'x, y, z'
_cell_length_a     26.69997
_cell_length_b     26.677333
_cell_length_c     32.266188
_cell_angle_alpha  90.501754
_cell_angle_beta   89.614365
_cell_angle_gamma 120.18138
loop_
_atom_site_label
_atom_site_type_symbol
_atom_site_fract_x
_atom_site_fract_y
_atom_site_fract_z
_atom_type_partial_charge
Zn0 Zn 0.10133 0.48073 0.147 0.0
C1 C 1.05775 0.4664 1.02529 0.0
N2 N 1.01561 0.47572 0.04039 0.0
C3 C 1.02214 0.47781 0.08189 0.0
N4 N 1.06789 0.47068 0.09186 0.0
N5 N 0.09042 0.46343 0.05689 0.0
C6 C 0.17239 0.35622 0.07873 0.0
O7 O 0.18916 0.38318 0.11457 0.0
O8 O 0.09637 0.54812 0.16976 0.0
Zn9 Zn 0.16377 0.4587 0.0558 0.0
N10 N 1.05827 0.40832 0.1755 0.0
C11 C 0.98825 0.30781 0.17754 0.0
C12 C 1.01203 0.36149 0.15805 0.0
C13 C 1.08226 0.40371 0.21101 0.0
N14 N 1.01278 0.30298 0.21291 0.0
C15 C 1.05993 0.34948 0.23004 0.0
O16 O 0.2299 0.50015 0.10071 0.0
C17 C 0.23269 0.51298 0.13922 0.0
O18 O 0.18741 0.50626 0.15763 0.0
H19 H 0.99449 0.36555 0.12899 0.0
H20 H 0.11884 0.44233 0.22362 0.0
C21 C 0.22302 0.46326 0.9844 0.0
C22 C 0.2489 0.48184 0.94571 0.0
C23 C 0.2284 0.5587 0.94861 0.0
C24 C 0.20412 0.54075 0.98799 0.0
N25 N 0.20095 0.49256 1.00451 0.0
N26 N 0.25049 0.52907 0.92845 0.0
H27 H 0.22058 0.42573 0.99858 0.0
C28 C 0.11899 0.58893 0.14337 0.0
O29 O 0.14478 0.58259 0.11056 0.0
O30 O 0.15054 0.37495 0.05211 0.0
H31 H 0.18645 0.56376 1.00464 0.0
H32 H 0.95124 0.27007 0.1643 0.0
H33 H 0.23016 0.59611 0.93437 0.0
Zn34 Zn 0.68162 0.74192 0.72311 0.0
C35 C 0.65982 0.58096 0.74808 0.0
N36 N 0.65691 0.57393 0.70651 0.0
C37 C 0.6672 0.62564 0.69161 0.0
N38 N 0.67469 0.66331 0.72332 0.0
N39 N 0.67035 0.63528 0.75826 0.0
C40 C 0.57578 0.57534 0.82997 0.0
O41 O 0.56826 0.60027 0.79753 0.0
O42 O 0.76564 0.81115 0.71877 0.0
Zn43 Zn 0.67731 0.66868 0.8136 0.0
N44 N 0.64688 0.74513 0.67245 0.0
C45 C 0.57746 0.70563 0.61834 0.0
C46 C 0.59659 0.70055 0.65741 0.0
C47 C 0.67732 0.79512 0.65116 0.0
N48 N 0.60816 0.75596 0.59703 0.0
C49 C 0.65759 0.80131 0.6128 0.0
O50 O 0.64897 0.72704 0.82699 0.0
C51 C 0.63517 0.76054 0.80863 0.0
O52 O 0.64139 0.76636 0.7693 0.0
H53 H 0.57276 0.66099 0.67498 0.0
H54 H 0.71658 0.83002 0.66414 0.0
C55 C 0.77457 0.69925 0.86576 0.0
C56 C 0.83369 0.7282 0.8756 0.0
C57 C 0.85667 0.76441 0.80728 0.0
C58 C 0.79776 0.73554 0.79759 0.0
N59 N 0.75798 0.70424 0.82724 0.0
N60 N 0.87339 0.76084 0.84629 0.0
H61 H 0.74182 0.6747 0.88886 0.0
C62 C 0.78621 0.85233 0.74542 0.0
O63 O 0.76017 0.84374 0.78148 0.0
O64 O 0.62429 0.60064 0.84856 0.0
H65 H 0.78374 0.73855 0.76685 0.0
H66 H 0.53832 0.67019 0.60526 0.0
H67 H 0.88876 0.79014 0.78417 0.0
Zn68 Zn 0.46913 1.03568 0.47928 0.0
C69 C 0.51212 0.06966 0.35782 0.0
N70 N 0.56408 0.11083 0.37286 0.0
C71 C 0.55773 0.10627 0.41442 0.0
N72 N 0.50326 0.06245 0.42444 0.0
N73 N 0.47472 1.03908 0.38939 0.0
C74 C 0.28275 0.9543 0.40856 0.0
O75 O 0.28939 0.93445 0.44394 0.0
O76 O 0.53688 1.0511 0.51439 0.0
Zn77 Zn 0.39686 0.96552 0.38804 0.0
N78 N 0.43386 0.08102 0.49306 0.0
C79 C 0.37243 0.11764 0.47363 0.0
C80 C 0.40061 0.08691 0.46396 0.0
C81 C 0.44129 0.10564 0.53101 0.0
N82 N 0.37851 0.14107 0.51211 0.0
C83 C 0.41296 0.13648 0.54089 0.0
O84 O 0.37325 0.89989 0.43334 0.0
C85 C 0.37766 0.90045 0.47286 0.0
O86 O 0.40987 0.94858 0.49146 0.0
H87 H 0.39564 0.0674 0.43367 0.0
H88 H 0.46725 0.09924 0.55368 0.0
C89 C 0.35554 0.9207 0.30948 0.0
C90 C 0.35587 0.90017 0.26965 0.0
C91 C 0.4437 0.90224 0.28537 0.0
C92 C 0.4422 0.9215 0.32548 0.0
N93 N 0.39825 0.9307 0.33641 0.0
N94 N 0.40041 0.8917 0.2585 0.0
H95 H 0.32235 0.93009 0.31876 0.0
C96 C 0.56181 1.02744 0.49563 0.0
O97 O 0.53648 0.99426 0.46319 0.0
O98 O 0.32532 0.97684 0.38315 0.0
H99 H 0.47659 0.93095 0.3472 0.0
H100 H 0.34524 0.12206 0.45097 0.0
H101 H 0.47877 0.89552 0.27571 0.0
Zn102 Zn 0.50696 0.15768 1.01585 0.0
C103 C 0.51934 1.01244 0.98515 0.0
N104 N 0.51175 1.00282 1.02637 0.0
C105 C 0.50268 1.04525 0.0412 0.0
N106 N 0.50515 0.08104 1.01008 0.0
N107 N 0.51532 1.06023 0.97532 0.0
C108 C 0.64724 0.13228 0.94164 0.0
O109 O 0.62842 0.14855 0.97383 0.0
O110 O 0.42595 0.14986 1.02437 0.0
Zn111 Zn 0.53602 0.10065 0.92271 0.0
N112 N 0.54602 0.1869 0.0674 0.0
C113 C 0.62713 0.21898 0.11178 0.0
C114 C 0.60282 0.20384 0.07232 0.0
C115 C 0.51252 0.18426 0.09994 0.0
N116 N 0.59379 0.21759 0.14426 0.0
C117 C 0.53672 0.20071 0.13952 0.0
O118 O 0.55359 0.18473 0.91535 0.0
C119 C 0.55941 0.22955 0.93395 0.0
O120 O 0.54823 0.22681 0.97272 0.0
H121 H 0.6284 0.20419 0.04609 0.0
H122 H 0.46709 0.1678 0.09478 0.0
C123 C 0.47452 0.08762 0.85058 0.0
C124 C 0.42717 0.06387 0.82352 0.0
C125 C 0.38145 0.97927 0.86514 0.0
C126 C 0.42827 1.00385 0.89234 0.0
N127 N 0.47413 1.05726 0.88407 0.0
N128 N 0.38181 1.00987 0.8316 0.0
H129 H 0.51062 0.13095 0.84662 0.0
C130 C 0.40363 0.16845 0.99805 0.0
O131 O 0.42745 0.18362 0.96115 0.0
O132 O 0.61375 0.10919 0.91066 0.0
H133 H 0.42754 0.98113 0.92012 0.0
H134 H 0.67217 0.23213 0.11655 0.0
H135 H 0.34461 0.93674 0.87104 0.0
Zn136 Zn 0.98405 0.38089 0.68004 0.0
C137 C 0.12698 0.53863 0.6522 0.0
N138 N 0.1325 0.54464 0.69387 0.0
C139 C 0.09072 0.49283 0.70863 0.0
N140 N 1.05894 0.45634 0.67702 0.0
N141 N 1.08209 0.4847 0.64201 0.0
C142 C 1.04435 0.54388 0.57387 0.0
O143 O 1.01206 0.51721 0.60629 0.0
O144 O 0.99322 0.30928 0.68913 0.0
Zn145 Zn 1.05334 0.45111 0.58701 0.0
N146 N 0.95104 0.38976 0.73014 0.0
C147 C 0.91726 0.43974 0.77259 0.0
C148 C 0.9338 0.42956 0.73378 0.0
C149 C 0.95259 0.35981 0.76327 0.0
N150 N 0.91824 0.40923 0.80578 0.0
C151 C 0.93555 0.36919 0.8023 0.0
O152 O 0.96592 0.39159 0.57566 0.0
C153 C 0.91846 0.35899 0.59473 0.0
O154 O 0.91891 0.35499 0.63422 0.0
H155 H 0.93465 0.45423 0.70708 0.0
H156 H 0.9694 0.33091 0.75913 0.0
C157 C 0.10982 0.41043 0.53135 0.0
C158 C 0.13555 0.37722 0.52117 0.0
C159 C 0.13648 0.35591 0.59208 0.0
C160 C 0.11018 0.38827 0.60208 0.0
N161 N 0.09704 0.41452 0.57149 0.0
N162 N 0.14777 0.35031 0.55177 0.0
H163 H 0.09732 0.43033 0.50753 0.0
C164 C 0.97744 0.26852 0.66245 0.0
O165 O 0.96403 0.27647 0.62495 0.0
O166 O 1.06739 0.51964 0.55339 0.0
H167 H 0.09892 0.39114 0.6339 0.0
H168 H 0.90384 0.47161 0.77636 0.0
H169 H 0.1465 0.33422 0.61604 0.0
Zn170 Zn 0.66537 0.60755 0.25593 0.0
C171 C 0.64223 0.63838 0.37546 0.0
N172 N 0.59024 0.62801 0.36113 0.0
C173 C 0.59267 0.62129 0.31976 0.0
N174 N 0.64508 0.62688 0.3093 0.0
N175 N 0.67637 0.63785 0.34372 0.0
C176 C 0.86678 0.7467 0.32217 0.0
O177 O 0.85991 0.71695 0.28795 0.0
O178 O 0.59591 0.52983 0.2432 0.0
Zn179 Zn 0.75504 0.64378 0.34595 0.0
N180 N 0.68485 0.67072 0.21862 0.0
C181 C 0.70022 0.76417 0.20228 0.0
C182 C 0.67729 0.7162 0.22835 0.0
C183 C 0.71541 0.67177 0.1847 0.0
N184 N 0.73101 0.76522 0.16827 0.0
C185 C 0.73949 0.72019 0.1587 0.0
O186 O 0.78185 0.60071 0.3035 0.0
C187 C 0.77158 0.58597 0.26536 0.0
O188 O 0.73129 0.58938 0.24722 0.0
H189 H 0.6548 0.71576 0.25645 0.0
H190 H 0.72285 0.63601 0.1795 0.0
C191 C 0.80811 0.64693 0.41974 0.0
C192 C 0.81533 0.63106 0.45926 0.0
C193 C 0.7201 0.54957 0.45592 0.0
C194 C 0.71414 0.56486 0.41572 0.0
N195 N 0.75817 0.61388 0.39888 0.0
N196 N 0.77063 0.58271 0.47664 0.0
H197 H 0.84209 0.68537 0.40549 0.0
C198 C 0.58564 0.4958 0.27365 0.0
O199 O 0.62084 0.51439 0.30558 0.0
O200 O 0.82436 0.72868 0.34761 0.0
H201 H 0.67443 0.53906 0.3986 0.0
H202 H 0.69458 0.80073 0.20939 0.0
H203 H 0.68519 0.51143 0.47035 0.0
H204 H 0.48265 0.59577 0.34258 0.0
H205 H 0.34164 0.53397 0.11283 0.0
H206 H 0.57944 0.61049 0.23176 0.0
H207 H 0.25089 0.53389 0.22379 0.0
H208 H 0.42811 0.56008 0.15505 0.0
H209 H 0.39801 0.57143 0.29977 0.0
C210 C 0.48685 0.59395 0.30929 0.0
C211 C 0.54023 0.6054 0.29161 0.0
C212 C 0.38939 0.5546 0.17022 0.0
C213 C 0.44066 0.57679 0.24116 0.0
C214 C 0.33965 0.53971 0.14595 0.0
C215 C 0.28795 0.53182 0.1642 0.0
C216 C 0.38831 0.56156 0.2136 0.0
C217 C 0.28913 0.53968 0.2077 0.0
C218 C 0.43781 0.57989 0.28465 0.0
C219 C 0.54084 0.60204 0.24783 0.0
N220 N 0.33776 0.55377 0.23052 0.0
N221 N 0.49255 0.5881 0.2245 0.0
H222 H 0.61657 0.75923 0.89347 0.0
H223 H 0.53341 1.01187 0.89742 0.0
H224 H 0.60867 0.84456 0.78302 0.0
H225 H 0.54318 0.92677 1.00712 0.0
H226 H 0.5596 0.95209 0.85551 0.0
H227 H 0.5887 0.81906 0.93475 0.0
C228 C 0.60878 0.79026 0.87761 0.0
C229 C 0.61514 0.79593 0.83412 0.0
C230 C 0.55607 0.94637 0.88879 0.0
C231 C 0.58287 0.8663 0.88232 0.0
C232 C 0.54093 0.98119 0.91321 0.0
C233 C 0.53578 0.97611 0.95677 0.0
C234 C 0.56631 0.90483 0.90748 0.0
C235 C 0.54636 0.93357 0.97398 0.0
C236 C 0.59283 0.82479 0.90148 0.0
C237 C 0.60431 0.83777 0.81617 0.0
N238 N 0.56092 0.90023 0.94967 0.0
N239 N 0.58897 0.87095 0.8401 0.0
H240 H 0.35742 0.89011 0.55741 0.0
H241 H 0.17172 0.54011 0.57224 0.0
H242 H 0.31483 0.7834 0.44767 0.0
H243 H 0.1704 0.65479 0.66629 0.0
H244 H 0.23057 0.62519 0.5276 0.0
H245 H 0.29785 0.80309 0.59861 0.0
C246 C 0.336 0.84846 0.54173 0.0
C247 C 0.34208 0.8453 0.49843 0.0
C248 C 0.21714 0.63174 0.55793 0.0
C249 C 0.27247 0.74302 0.54671 0.0
C250 C 0.18301 0.58285 0.58348 0.0
C251 C 0.16386 0.58919 0.62307 0.0
C252 C 0.23454 0.6884 0.57227 0.0
C253 C 0.18286 0.64674 0.63607 0.0
C254 C 0.30146 0.79834 0.56554 0.0
C255 C 0.31208 0.78895 0.48071 0.0
N256 N 0.21661 0.69327 0.61113 0.0
N257 N 0.27924 0.74058 0.50471 0.0
H258 H 0.58318 0.46527 0.73656 0.0
H259 H 0.60633 0.34556 0.95985 0.0
H260 H 0.70802 0.58043 0.82579 0.0
H261 H 0.55136 0.23952 0.84948 0.0
H262 H 0.63286 0.4317 0.91659 0.0
H263 H 0.56056 0.38304 0.78165 0.0
C264 C 0.60582 0.47364 0.76579 0.0
C265 C 0.64676 0.53102 0.77736 0.0
C266 C 0.61512 0.38956 0.90188 0.0
C267 C 0.62022 0.43501 0.83035 0.0
C268 C 0.5997 0.34004 0.92668 0.0
C269 C 0.57661 0.28423 0.90875 0.0
C270 C 0.60624 0.38377 0.85858 0.0
C271 C 0.56927 0.28094 0.86524 0.0
C272 C 0.59268 0.42624 0.79172 0.0
C273 C 0.67482 0.53777 0.81576 0.0
N274 N 0.58334 0.32922 0.84214 0.0
N275 N 0.66062 0.49089 0.84089 0.0
H276 H 0.67216 0.14278 0.40116 0.0
H277 H 0.80261 0.29856 0.62141 0.0
H278 H 0.56226 0.15688 0.49306 0.0
H279 H 0.90553 0.33438 0.51053 0.0
H280 H 0.71452 0.23846 0.5798 0.0
H281 H 0.75659 0.20331 0.44456 0.0
C282 C 0.66539 0.15817 0.43067 0.0
C283 C 0.60877 0.14276 0.44338 0.0
C284 C 0.75636 0.25964 0.56454 0.0
C285 C 0.70764 0.21374 0.49441 0.0
C286 C 0.80706 0.29414 0.58841 0.0
C287 C 0.86269 0.32264 0.5699 0.0
C288 C 0.7605 0.25192 0.52156 0.0
C289 C 0.86439 0.31423 0.52669 0.0
C290 C 0.71412 0.19306 0.45561 0.0
C291 C 0.60421 0.16552 0.4821 0.0
N292 N 0.81484 0.27978 0.50449 0.0
N293 N 0.65245 0.19902 0.5062 0.0
H294 H 0.96298 0.53398 0.06264 0.0
H295 H 0.85144 0.55412 0.29225 0.0
H296 H 0.99448 0.4551 0.16742 0.0
H297 H 0.77823 0.57687 0.18029 0.0
H298 H 0.91144 0.52687 0.24959 0.0
H299 H 0.90336 0.55852 0.10674 0.0
C300 C 0.9579 0.52181 0.09498 0.0
C301 C 0.98574 0.49292 0.11084 0.0
C302 C 0.8821 0.53766 0.23437 0.0
C303 C 0.91604 0.52191 0.16274 0.0
C304 C 0.84766 0.55339 0.25883 0.0
C305 C 0.80872 0.56775 0.24034 0.0
C306 C 0.879 0.53714 0.19067 0.0
C307 C 0.80676 0.56594 0.19652 0.0
C308 C 0.92349 0.53606 0.12034 0.0
C309 C 0.97588 0.47835 0.15334 0.0
N310 N 0.8412 0.55152 0.1736 0.0
N311 N 0.94273 0.49334 0.17761 0.0
H312 H 0.36152 0.16958 0.07635 0.0
H313 H 0.17814 0.31615 1.0005 0.0
H314 H 0.34254 0.20144 0.94817 0.0
H315 H 0.21403 0.30295 0.12885 0.0
H316 H 0.22657 0.26201 0.98087 0.0
H317 H 0.29657 0.20599 0.09609 0.0
C318 C 0.34306 0.18332 0.05227 0.0
C319 C 0.35793 0.18249 1.01048 0.0
C320 C 0.22321 0.2703 1.01339 0.0
C321 C 0.28347 0.2248 1.03297 0.0
C322 C 0.19512 0.30097 1.02467 0.0
C323 C 0.19197 0.31453 0.06648 0.0
C324 C 0.24821 0.25254 0.04406 0.0
C325 C 0.21542 0.29383 0.09624 0.0
C326 C 0.30612 0.20445 0.06359 0.0
C327 C 0.33269 0.20135 0.98078 0.0
N328 N 0.24269 0.26435 0.08448 0.0
N329 N 0.29715 0.22188 0.99257 0.0
H330 H 0.97545 0.22775 0.74109 0.0
H331 H 0.82681 0.89498 0.6671 0.0
H332 H 0.94654 0.17325 0.61294 0.0
H333 H 0.84211 0.94871 0.79513 0.0
H334 H 0.88293 0.99706 0.64686 0.0
H335 H 0.93923 0.12694 0.76142 0.0
C336 C 0.96243 0.19486 0.71714 0.0
C337 C 0.9639 0.20929 0.67518 0.0
C338 C 0.87468 0.98651 0.67944 0.0
C339 C 0.92171 0.09316 0.69836 0.0
C340 C 0.84287 0.92805 0.69107 0.0
C341 C 0.82924 0.91288 0.73295 0.0
C342 C 0.89339 1.03043 0.70984 0.0
C343 C 0.85118 0.95808 0.76247 0.0
C344 C 0.94141 0.1371 0.72881 0.0
C345 C 0.94602 0.16439 0.64566 0.0
N346 N 0.88164 1.01454 0.75037 0.0
N347 N 0.9254 0.10855 0.6578 0.0
H348 H 0.90762 0.79255 0.4001 0.0
H349 H 0.24254 0.95503 0.32996 0.0
H350 H 0.96387 0.80189 0.27333 0.0
H351 H 0.18578 0.91645 0.45711 0.0
H352 H 0.14127 0.91391 0.30862 0.0
H353 H 1.00914 0.85228 0.42118 0.0
C354 C 0.94107 0.80803 0.37653 0.0
C355 C 0.92678 0.79168 0.33479 0.0
C356 C 0.15104 0.9151 0.34126 0.0
C357 C 1.04376 0.86036 0.35888 0.0
C358 C 0.20904 0.93898 0.35353 0.0
C359 C 0.22307 0.9391 0.39547 0.0
C360 C 0.10642 0.8915 0.37111 0.0
C361 C 0.17731 0.91717 0.42442 0.0
C362 C 0.99923 0.84193 0.38866 0.0
C363 C 0.97253 0.81305 0.30585 0.0
N364 N 0.12133 0.89411 0.41173 0.0
N365 N 1.02866 0.84586 0.31841 0.0
H366 H 0.09169 0.27287 0.48282 0.0
H367 H 0.17246 0.41524 0.25903 0.0
H368 H 0.19473 0.45676 0.46126 0.0
H369 H 1.00611 0.26673 0.28941 0.0
H370 H 0.2054 0.41443 0.32907 0.0
H371 H 1.08629 0.25586 0.40754 0.0
C372 C 0.11461 0.30939 0.46217 0.0
C373 C 0.14299 0.36625 0.47767 0.0
C374 C 0.16203 0.38159 0.32 0.0
C375 C 0.13764 0.34728 0.3927 0.0
C376 C 0.14266 0.38242 0.28024 0.0
C377 C 1.08504 0.34293 0.269 0.0
C378 C 0.12405 0.3403 0.3483 0.0
C379 C 1.05025 0.29902 0.29708 0.0
C380 C 0.11135 0.29971 0.4195 0.0
C381 C 0.17187 0.41238 0.45009 0.0
N382 N 1.06998 0.29945 0.33582 0.0
N383 N 0.16807 0.40192 0.40872 0.0
H384 H 0.80949 0.6352 0.9231 0.0
H385 H 0.82422 0.81716 0.12043 0.0
H386 H 0.89512 0.82178 0.92529 0.0
H387 H 0.73313 0.62998 0.11191 0.0
H388 H 0.8741 0.82169 0.05555 0.0
H389 H 0.80974 0.6349 0.99869 0.0
C390 C 0.82999 0.67618 0.93973 0.0
C391 C 0.8512 0.72851 0.9185 0.0
C392 C 0.84413 0.7797 0.06853 0.0
C393 C 0.84941 0.72866 1.00442 0.0
C394 C 0.81521 0.77706 0.10533 0.0
C395 C 0.77398 0.72322 0.12172 0.0
C396 C 0.83119 0.7281 0.04779 0.0
C397 C 0.76479 0.67266 0.10113 0.0
C398 C 0.82986 0.67612 0.9828 0.0
C399 C 0.87781 0.78059 0.94096 0.0
N400 N 0.79263 0.67647 0.06508 0.0
N401 N 0.87468 0.77937 0.98298 0.0
H402 H 0.51879 0.15364 0.78116 0.0
H403 H 0.3219 0.11599 0.5902 0.0
H404 H 0.33174 1.04826 0.78162 0.0
H405 H 0.50838 0.20151 0.58829 0.0
H406 H 0.32429 0.12088 0.66604 0.0
H407 H 0.514 0.19893 0.7182 0.0
C408 C 0.4764 0.14063 0.76886 0.0
C409 C 0.4254 0.09625 0.78698 0.0
C410 C 0.36477 0.14014 0.649 0.0
C411 C 0.42027 0.14727 0.71317 0.0
C412 C 0.3634 0.13774 0.6058 0.0
C413 C 0.41495 0.15684 0.58351 0.0
C414 C 0.41807 0.16168 0.66944 0.0
C415 C 0.46767 0.18495 0.60478 0.0
C416 C 0.47387 0.16663 0.73243 0.0
C417 C 0.37226 0.08128 0.76836 0.0
N418 N 0.46786 0.18544 0.64673 0.0
N419 N 0.37112 0.10602 0.73206 0.0
H420 H 0.25971 0.46692 0.86311 0.0
H421 H 0.55493 0.5301 0.90838 0.0
H422 H 0.30773 0.43478 0.98334 0.0
H423 H 0.48601 0.49507 0.78436 0.0
H424 H 0.45875 0.46135 0.93485 0.0
H425 H 0.32926 0.44454 0.83134 0.0
C426 C 0.28394 0.45388 0.8827 0.0
C427 C 0.27933 0.45468 0.92585 0.0
C428 C 0.46482 0.46708 0.90165 0.0
C429 C 0.35994 0.43046 0.89014 0.0
C430 C 0.51985 0.50649 0.88665 0.0
C431 C 0.52686 0.52075 0.84463 0.0
C432 C 0.41731 0.44387 0.8743 0.0
C433 C 0.481 0.48758 0.81745 0.0
C434 C 0.32331 0.44048 0.86463 0.0
C435 C 0.31041 0.43578 0.94988 0.0
N436 N 0.42741 0.45191 0.83286 0.0
N437 N 0.35069 0.42612 0.93176 0.0
H438 H 0.60904 1.05509 0.57354 0.0
H439 H 0.66975 0.82219 0.52977 0.0
H440 H 0.64105 1.01694 0.44935 0.0
H441 H 0.70972 0.90973 0.64846 0.0
H442 H 0.69215 0.91284 0.49669 0.0
H443 H 0.67933 1.03011 0.59941 0.0
C444 C 0.63226 1.04316 0.55164 0.0
C445 C 0.61676 1.03399 0.50981 0.0
C446 C 0.69795 0.91287 0.52987 0.0
C447 C 0.69552 1.00423 0.53881 0.0
C448 C 0.68459 0.86083 0.54871 0.0
C449 C 0.6858 0.85791 0.59188 0.0
C450 C 0.70981 0.96125 0.55473 0.0
C451 C 0.70699 0.90954 0.61502 0.0
C452 C 0.6726 1.02902 0.56628 0.0
C453 C 0.64948 1.02084 0.48235 0.0
N454 N 0.7164 0.95875 0.59626 0.0
N455 N 0.68612 1.00438 0.49746 0.0
H456 H 1.08049 0.62363 0.2108 0.0
H457 H 0.35564 0.89723 0.18501 0.0
H458 H 0.16466 0.68226 0.09212 0.0
H459 H 0.24156 0.8616 0.29011 0.0
H460 H 0.2711 0.8397 0.14165 0.0
H461 H 0.11588 0.72411 0.2309 0.0
C462 C 0.10544 0.65763 0.18867 0.0
C463 C 0.12328 0.64528 0.151 0.0
C464 C 0.2644 0.84611 0.17396 0.0
C465 C 0.16505 0.75985 0.17389 0.0
C466 C 0.31287 0.87861 0.19877 0.0
C467 C 0.3061 0.88206 0.24157 0.0
C468 C 0.20933 0.81517 0.19262 0.0
C469 C 0.24961 0.85915 0.2575 0.0
C470 C 0.12545 0.71514 0.19996 0.0
C471 C 0.15299 0.69042 0.12259 0.0
N472 N 0.20347 0.82519 0.23323 0.0
N473 N 0.1748 0.7461 0.13514 0.0
H474 H 0.43572 0.20757 0.13795 0.0
H475 H 0.56888 0.40967 0.3268 0.0
H476 H 0.56149 0.20853 0.22237 0.0
H477 H 0.50056 0.44097 0.21531 0.0
H478 H 0.51622 0.30611 0.31118 0.0
H479 H 0.40835 0.25408 0.19013 0.0
C480 C 0.45663 0.21536 0.16772 0.0
C481 C 0.50411 0.2072 0.17461 0.0
C482 C 0.51109 0.33546 0.29099 0.0
C483 C 0.47296 0.26234 0.23419 0.0
C484 C 0.54149 0.39467 0.2996 0.0
C485 C 0.54144 0.43401 0.27096 0.0
C486 C 0.48086 0.31598 0.25355 0.0
C487 C 0.50374 0.41214 0.23717 0.0
C488 C 0.44047 0.24219 0.19776 0.0
C489 C 0.52715 0.21723 0.21476 0.0
N490 N 0.47594 0.35446 0.22881 0.0
N491 N 0.51281 0.24626 0.2427 0.0
H492 H 0.92976 0.26181 0.80369 0.0
H493 H 0.73397 0.20558 0.99365 0.0
H494 H 0.92983 0.39217 0.88451 0.0
H495 H 0.70086 0.09751 0.88523 0.0
H496 H 0.83724 0.25566 0.97753 0.0
H497 H 0.88682 0.19189 0.85828 0.0
C498 C 0.92291 0.27699 0.83314 0.0
C499 C 0.93027 0.33279 0.83841 0.0
C500 C 0.80758 0.21951 0.95821 0.0
C501 C 0.87913 0.25105 0.90071 0.0
C502 C 0.74855 0.19116 0.9671 0.0
C503 C 0.70881 0.14964 0.93927 0.0
C504 C 0.82639 0.20615 0.92128 0.0
C505 C 0.73006 0.13127 0.90632 0.0
C506 C 0.89822 0.23635 0.86457 0.0
C507 C 0.92157 0.34874 0.87818 0.0
N508 N 0.78754 0.16069 0.89762 0.0
N509 N 0.8945 0.30746 0.90751 0.0
H510 H 1.03215 0.61992 0.62301 0.0
H511 H 0.92406 0.68982 0.42325 0.0
H512 H 1.07154 0.59512 0.4973 0.0
H513 H 0.83774 0.64322 0.54233 0.0
H514 H 1.01477 0.71648 0.45679 0.0
H515 H 1.00592 0.68991 0.59871 0.0
C516 C 1.03683 0.63052 0.59034 0.0
C517 C 1.05015 0.59925 0.56153 0.0
C518 C 0.97641 0.70262 0.47575 0.0
C519 C 1.02034 0.67857 0.53395 0.0
C520 C 0.92406 0.68719 0.45667 0.0
C521 C 0.87233 0.66215 0.47996 0.0
C522 C 0.97674 0.69159 0.51801 0.0
C523 C 0.87614 0.66015 0.52306 0.0
C524 C 1.02246 0.67089 0.57664 0.0
C525 C 1.0587 0.61654 0.52012 0.0
N526 N 0.92733 0.67326 0.54067 0.0
N527 N 1.04168 0.65393 0.50719 0.0
H528 H 1.06801 0.55543 0.76489 0.0
H529 H 1.08656 0.39807 0.97362 0.0
H530 H 0.0949 0.40955 0.75845 0.0
H531 H 1.04913 0.53724 0.96977 0.0
H532 H 0.09289 0.40042 0.89672 0.0
H533 H 1.06228 0.54762 0.84044 0.0
C534 C 1.07201 0.52113 0.77938 0.0
C535 C 1.08044 0.48229 0.75475 0.0
C536 C 1.0836 0.43061 0.91281 0.0
C537 C 1.07592 0.47393 0.84299 0.0
C538 C 1.08047 0.42959 0.95688 0.0
C539 C 1.06812 0.46815 0.97883 0.0
C540 C 1.07407 0.4703 0.89022 0.0
C541 C 1.05918 0.50686 0.9548 0.0
C542 C 1.06905 0.51679 0.82284 0.0
C543 C 1.08691 0.43969 0.77588 0.0
N544 N 1.06244 0.50696 0.91254 0.0
N545 N 1.08455 0.43666 0.81852 0.0
H546 H 0.58885 0.54931 0.63697 0.0
H547 H 0.73975 0.71419 0.42357 0.0
H548 H 0.74088 0.71921 0.6398 0.0
H549 H 0.56725 0.56736 0.43385 0.0
H550 H 0.74805 0.71595 0.50031 0.0
H551 H 0.58648 0.5546 0.56169 0.0
C552 C 0.62168 0.58821 0.62178 0.0
C553 C 0.66454 0.63414 0.64543 0.0
C554 C 0.70846 0.68333 0.48568 0.0
C555 C 0.66307 0.64013 0.5572 0.0
C556 C 0.7039 0.68199 0.44173 0.0
C557 C 0.65291 0.63996 0.4217 0.0
C558 C 0.66175 0.64228 0.51002 0.0
C559 C 0.6076 0.60033 0.4474 0.0
C560 C 0.62037 0.59119 0.57842 0.0
C561 C 0.70629 0.68303 0.62325 0.0
N562 N 0.61323 0.60229 0.48951 0.0
N563 N 0.70469 0.68463 0.58058 0.0
H564 H 0.58929 0.06964 0.09535 0.0
H565 H 0.41771 1.05063 0.30814 0.0
H566 H 0.41502 1.03899 0.09315 0.0
H567 H 0.58803 0.07118 0.30079 0.0
H568 H 0.41295 1.04674 0.23129 0.0
H569 H 0.58806 0.07332 0.17102 0.0
C570 C 0.55086 0.06451 0.11083 0.0
C571 C 0.50284 1.05547 0.08737 0.0
C572 C 0.45115 1.05163 0.24655 0.0
C573 C 0.50007 1.05765 0.17572 0.0
C574 C 0.45362 1.05322 0.29057 0.0
C575 C 0.50286 1.05988 0.31148 0.0
C576 C 0.49861 1.05749 0.22297 0.0
C577 C 0.54877 0.06517 0.28654 0.0
C578 C 0.54995 0.06618 0.15436 0.0
C579 C 0.45368 1.04751 0.10969 0.0
N580 N 0.54546 0.0638 0.24428 0.0
N581 N 0.45355 1.04882 0.15239 0.0
loop_
_geom_bond_atom_site_label_1
_geom_bond_atom_site_label_2
_geom_bond_distance
_geom_bond_site_symmetry_2
_ccdc_geom_bond_type
Zn0 N4 2.020 . S
Zn0 O8 2.019 . S
Zn0 N10 2.119 . S
Zn0 O18 1.975 . S
C1 N2 1.334 . S
C1 N5 1.336 . S
N2 C1 1.334 . S
N2 C3 1.334 . S
C3 N2 1.334 . S
C3 N4 1.336 . S
N4 Zn0 2.020 . S
N4 C3 1.336 . S
N4 N5 1.354 . S
N5 C1 1.336 . S
N5 N4 1.354 . S
N5 Zn9 2.020 . S
C6 O7 1.244 . S
C6 O30 1.257 . S
O7 C6 1.244 . S
O8 Zn0 2.019 . S
O8 C28 1.257 . S
Zn9 N5 2.020 . S
Zn9 O16 1.975 . S
Zn9 N25 2.119 . S
Zn9 O30 2.019 . S
N10 Zn0 2.119 . S
N10 C12 1.334 . S
N10 C13 1.328 . S
C11 C12 1.391 . S
C11 N14 1.329 . S
C11 H32 0.930 . S
C12 N10 1.334 . S
C12 C11 1.391 . S
C12 H19 0.930 . S
C13 N10 1.328 . S
C13 C15 1.392 . S
C13 H20 0.930 . S
N14 C11 1.329 . S
N14 C15 1.331 . S
C15 C13 1.392 . S
C15 N14 1.331 . S
O16 Zn9 1.975 . S
O16 C17 1.252 . S
C17 O16 1.252 . S
C17 O18 1.252 . S
O18 Zn0 1.975 . S
O18 C17 1.252 . S
H19 C12 0.930 . S
H20 C13 0.930 . S
C21 C22 1.392 . S
C21 N25 1.328 1_556 S
C21 H27 0.930 . S
C22 C21 1.392 . S
C22 N26 1.331 . S
C23 C24 1.391 . S
C23 N26 1.329 1_554 S
C23 H33 0.930 . S
C24 C23 1.391 . S
C24 N25 1.334 . S
C24 H31 0.930 . S
N25 Zn9 2.119 . S
N25 C21 1.328 1_554 S
N25 C24 1.334 . S
N26 C22 1.331 . S
N26 C23 1.329 1_556 S
H27 C21 0.930 . S
C28 O8 1.257 . S
C28 O29 1.244 . S
O29 C28 1.244 . S
O30 C6 1.257 . S
O30 Zn9 2.019 . S
H31 C24 0.930 . S
H32 C11 0.930 . S
H33 C23 0.930 . S
Zn34 N38 2.020 . S
Zn34 O42 2.019 . S
Zn34 N44 2.119 . S
Zn34 O52 1.975 . S
C35 N36 1.334 . S
C35 N39 1.336 . S
N36 C35 1.334 . S
N36 C37 1.334 . S
C37 N36 1.334 . S
C37 N38 1.336 . S
N38 Zn34 2.020 . S
N38 C37 1.336 . S
N38 N39 1.354 . S
N39 C35 1.336 . S
N39 N38 1.354 . S
N39 Zn43 2.020 . S
C40 O41 1.244 . S
C40 O64 1.257 . S
O41 C40 1.244 . S
O42 Zn34 2.019 . S
O42 C62 1.257 . S
Zn43 N39 2.020 . S
Zn43 O50 1.975 . S
Zn43 N59 2.119 . S
Zn43 O64 2.019 . S
N44 Zn34 2.119 . S
N44 C46 1.334 . S
N44 C47 1.328 . S
C45 C46 1.391 . S
C45 N48 1.329 . S
C45 H66 0.930 . S
C46 N44 1.334 . S
C46 C45 1.391 . S
C46 H53 0.930 . S
C47 N44 1.328 . S
C47 C49 1.392 . S
C47 H54 0.930 . S
N48 C45 1.329 . S
N48 C49 1.331 . S
C49 C47 1.392 . S
C49 N48 1.331 . S
O50 Zn43 1.975 . S
O50 C51 1.252 . S
C51 O50 1.252 . S
C51 O52 1.252 . S
O52 Zn34 1.975 . S
O52 C51 1.252 . S
H53 C46 0.930 . S
H54 C47 0.930 . S
C55 C56 1.392 . S
C55 N59 1.328 . S
C55 H61 0.930 . S
C56 C55 1.392 . S
C56 N60 1.331 . S
C57 C58 1.391 . S
C57 N60 1.329 . S
C57 H67 0.930 . S
C58 C57 1.391 . S
C58 N59 1.334 . S
C58 H65 0.930 . S
N59 Zn43 2.119 . S
N59 C55 1.328 . S
N59 C58 1.334 . S
N60 C56 1.331 . S
N60 C57 1.329 . S
H61 C55 0.930 . S
C62 O42 1.257 . S
C62 O63 1.244 . S
O63 C62 1.244 . S
O64 C40 1.257 . S
O64 Zn43 2.019 . S
H65 C58 0.930 . S
H66 C45 0.930 . S
H67 C57 0.930 . S
Zn68 N72 2.020 . S
Zn68 O76 2.019 . S
Zn68 N78 2.119 . S
Zn68 O86 1.975 . S
C69 N70 1.334 . S
C69 N73 1.336 . S
N70 C69 1.334 . S
N70 C71 1.334 . S
C71 N70 1.334 . S
C71 N72 1.336 . S
N72 Zn68 2.020 . S
N72 C71 1.336 . S
N72 N73 1.354 . S
N73 C69 1.336 . S
N73 N72 1.354 . S
N73 Zn77 2.020 . S
C74 O75 1.244 . S
C74 O98 1.257 . S
O75 C74 1.244 . S
O76 Zn68 2.019 . S
O76 C96 1.257 . S
Zn77 N73 2.020 . S
Zn77 O84 1.975 . S
Zn77 N93 2.119 . S
Zn77 O98 2.019 . S
N78 Zn68 2.119 . S
N78 C80 1.334 . S
N78 C81 1.328 . S
C79 C80 1.391 . S
C79 N82 1.329 . S
C79 H100 0.930 . S
C80 N78 1.334 . S
C80 C79 1.391 . S
C80 H87 0.930 . S
C81 N78 1.328 . S
C81 C83 1.392 . S
C81 H88 0.930 . S
N82 C79 1.329 . S
N82 C83 1.331 . S
C83 C81 1.392 . S
C83 N82 1.331 . S
O84 Zn77 1.975 . S
O84 C85 1.252 . S
C85 O84 1.252 . S
C85 O86 1.252 . S
O86 Zn68 1.975 . S
O86 C85 1.252 . S
H87 C80 0.930 . S
H88 C81 0.930 . S
C89 C90 1.392 . S
C89 N93 1.328 . S
C89 H95 0.930 . S
C90 C89 1.392 . S
C90 N94 1.331 . S
C91 C92 1.391 . S
C91 N94 1.329 . S
C91 H101 0.930 . S
C92 C91 1.391 . S
C92 N93 1.334 . S
C92 H99 0.930 . S
N93 Zn77 2.119 . S
N93 C89 1.328 . S
N93 C92 1.334 . S
N94 C90 1.331 . S
N94 C91 1.329 . S
H95 C89 0.930 . S
C96 O76 1.257 . S
C96 O97 1.244 . S
O97 C96 1.244 . S
O98 C74 1.257 . S
O98 Zn77 2.019 . S
H99 C92 0.930 . S
H100 C79 0.930 . S
H101 C91 0.930 . S
Zn102 N106 2.020 . S
Zn102 O110 2.019 . S
Zn102 N112 2.119 . S
Zn102 O120 1.975 . S
C103 N104 1.334 . S
C103 N107 1.336 . S
N104 C103 1.334 . S
N104 C105 1.334 . S
C105 N104 1.334 . S
C105 N106 1.336 . S
N106 Zn102 2.020 . S
N106 C105 1.336 . S
N106 N107 1.354 . S
N107 C103 1.336 . S
N107 N106 1.354 . S
N107 Zn111 2.020 . S
C108 O109 1.244 . S
C108 O132 1.257 . S
O109 C108 1.244 . S
O110 Zn102 2.019 . S
O110 C130 1.257 . S
Zn111 N107 2.020 . S
Zn111 O118 1.975 . S
Zn111 N127 2.119 . S
Zn111 O132 2.019 . S
N112 Zn102 2.119 . S
N112 C114 1.334 . S
N112 C115 1.328 1_556 S
C113 C114 1.391 . S
C113 N116 1.329 1_556 S
C113 H134 0.930 . S
C114 N112 1.334 . S
C114 C113 1.391 . S
C114 H121 0.930 . S
C115 N112 1.328 1_554 S
C115 C117 1.392 . S
C115 H122 0.930 . S
N116 C113 1.329 1_554 S
N116 C117 1.331 . S
C117 C115 1.392 . S
C117 N116 1.331 . S
O118 Zn111 1.975 . S
O118 C119 1.252 . S
C119 O118 1.252 . S
C119 O120 1.252 . S
O120 Zn102 1.975 . S
O120 C119 1.252 . S
H121 C114 0.930 . S
H122 C115 0.930 . S
C123 C124 1.392 . S
C123 N127 1.328 . S
C123 H129 0.930 . S
C124 C123 1.392 . S
C124 N128 1.331 . S
C125 C126 1.391 . S
C125 N128 1.329 . S
C125 H135 0.930 . S
C126 C125 1.391 . S
C126 N127 1.334 . S
C126 H133 0.930 . S
N127 Zn111 2.119 . S
N127 C123 1.328 . S
N127 C126 1.334 . S
N128 C124 1.331 . S
N128 C125 1.329 . S
H129 C123 0.930 . S
C130 O110 1.257 . S
C130 O131 1.244 . S
O131 C130 1.244 . S
O132 C108 1.257 . S
O132 Zn111 2.019 . S
H133 C126 0.930 . S
H134 C113 0.930 . S
H135 C125 0.930 . S
Zn136 N140 2.020 . S
Zn136 O144 2.019 . S
Zn136 N146 2.119 . S
Zn136 O154 1.975 . S
C137 N138 1.334 . S
C137 N141 1.336 . S
N138 C137 1.334 . S
N138 C139 1.334 . S
C139 N138 1.334 . S
C139 N140 1.336 . S
N140 Zn136 2.020 . S
N140 C139 1.336 . S
N140 N141 1.354 . S
N141 C137 1.336 . S
N141 N140 1.354 . S
N141 Zn145 2.020 . S
C142 O143 1.244 . S
C142 O166 1.257 . S
O143 C142 1.244 . S
O144 Zn136 2.019 . S
O144 C164 1.257 . S
Zn145 N141 2.020 . S
Zn145 O152 1.975 . S
Zn145 N161 2.119 . S
Zn145 O166 2.019 . S
N146 Zn136 2.119 . S
N146 C148 1.334 . S
N146 C149 1.328 . S
C147 C148 1.391 . S
C147 N150 1.329 . S
C147 H168 0.930 . S
C148 N146 1.334 . S
C148 C147 1.391 . S
C148 H155 0.930 . S
C149 N146 1.328 . S
C149 C151 1.392 . S
C149 H156 0.930 . S
N150 C147 1.329 . S
N150 C151 1.331 . S
C151 C149 1.392 . S
C151 N150 1.331 . S
O152 Zn145 1.975 . S
O152 C153 1.252 . S
C153 O152 1.252 . S
C153 O154 1.252 . S
O154 Zn136 1.975 . S
O154 C153 1.252 . S
H155 C148 0.930 . S
H156 C149 0.930 . S
C157 C158 1.392 . S
C157 N161 1.328 . S
C157 H163 0.930 . S
C158 C157 1.392 . S
C158 N162 1.331 . S
C159 C160 1.391 . S
C159 N162 1.329 . S
C159 H169 0.930 . S
C160 C159 1.391 . S
C160 N161 1.334 . S
C160 H167 0.930 . S
N161 Zn145 2.119 . S
N161 C157 1.328 . S
N161 C160 1.334 . S
N162 C158 1.331 . S
N162 C159 1.329 . S
H163 C157 0.930 . S
C164 O144 1.257 . S
C164 O165 1.244 . S
O165 C164 1.244 . S
O166 C142 1.257 . S
O166 Zn145 2.019 . S
H167 C160 0.930 . S
H168 C147 0.930 . S
H169 C159 0.930 . S
Zn170 N174 2.020 . S
Zn170 O178 2.019 . S
Zn170 N180 2.119 . S
Zn170 O188 1.975 . S
C171 N172 1.334 . S
C171 N175 1.336 . S
N172 C171 1.334 . S
N172 C173 1.334 . S
C173 N172 1.334 . S
C173 N174 1.336 . S
N174 Zn170 2.020 . S
N174 C173 1.336 . S
N174 N175 1.354 . S
N175 C171 1.336 . S
N175 N174 1.354 . S
N175 Zn179 2.020 . S
C176 O177 1.244 . S
C176 O200 1.257 . S
O177 C176 1.244 . S
O178 Zn170 2.019 . S
O178 C198 1.257 . S
Zn179 N175 2.020 . S
Zn179 O186 1.975 . S
Zn179 N195 2.119 . S
Zn179 O200 2.019 . S
N180 Zn170 2.119 . S
N180 C182 1.334 . S
N180 C183 1.328 . S
C181 C182 1.391 . S
C181 N184 1.329 . S
C181 H202 0.930 . S
C182 N180 1.334 . S
C182 C181 1.391 . S
C182 H189 0.930 . S
C183 N180 1.328 . S
C183 C185 1.392 . S
C183 H190 0.930 . S
N184 C181 1.329 . S
N184 C185 1.331 . S
C185 C183 1.392 . S
C185 N184 1.331 . S
O186 Zn179 1.975 . S
O186 C187 1.252 . S
C187 O186 1.252 . S
C187 O188 1.252 . S
O188 Zn170 1.975 . S
O188 C187 1.252 . S
H189 C182 0.930 . S
H190 C183 0.930 . S
C191 C192 1.392 . S
C191 N195 1.328 . S
C191 H197 0.930 . S
C192 C191 1.392 . S
C192 N196 1.331 . S
C193 C194 1.391 . S
C193 N196 1.329 . S
C193 H203 0.930 . S
C194 C193 1.391 . S
C194 N195 1.334 . S
C194 H201 0.930 . S
N195 Zn179 2.119 . S
N195 C191 1.328 . S
N195 C194 1.334 . S
N196 C192 1.331 . S
N196 C193 1.329 . S
H197 C191 0.930 . S
C198 O178 1.257 . S
C198 O199 1.244 . S
O199 C198 1.244 . S
O200 C176 1.257 . S
O200 Zn179 2.019 . S
H201 C194 0.930 . S
H202 C181 0.930 . S
H203 C193 0.930 . S
H204 C210 0.930 . S
H205 C214 0.930 . S
H206 C219 0.929 . S
H207 C217 0.929 . S
H208 C212 0.929 . S
H209 C218 0.929 . S
C210 H204 0.930 . S
C210 C211 1.367 . S
C210 C218 1.378 . S
C211 C210 1.367 . S
C211 C219 1.433 . S
C212 H208 0.929 . S
C212 C214 1.378 . S
C212 C216 1.350 . S
C213 C216 1.463 . S
C213 C218 1.350 . S
C213 N221 1.427 . S
C214 H205 0.930 . S
C214 C212 1.378 . S
C214 C215 1.367 . S
C215 C214 1.367 . S
C215 C217 1.433 . S
C216 C212 1.350 . S
C216 C213 1.463 . S
C216 N220 1.427 . S
C217 H207 0.929 . S
C217 C215 1.433 . S
C217 N220 1.384 . S
C218 H209 0.929 . S
C218 C210 1.378 . S
C218 C213 1.350 . S
C219 H206 0.929 . S
C219 C211 1.433 . S
C219 N221 1.384 . S
N220 C216 1.427 . S
N220 C217 1.384 . S
N221 C213 1.427 . S
N221 C219 1.384 . S
H222 C228 0.930 . S
H223 C232 0.930 1_545 S
H224 C237 0.929 . S
H225 C235 0.929 . S
H226 C230 0.929 . S
H227 C236 0.929 . S
C228 H222 0.930 . S
C228 C229 1.367 . S
C228 C236 1.378 . S
C229 C228 1.367 . S
C229 C237 1.433 . S
C230 H226 0.929 . S
C230 C232 1.378 . S
C230 C234 1.350 . S
C231 C234 1.463 . S
C231 C236 1.350 . S
C231 N239 1.427 . S
C232 H223 0.930 1_565 S
C232 C230 1.378 . S
C232 C233 1.367 . S
C233 C232 1.367 . S
C233 C235 1.433 . S
C234 C230 1.350 . S
C234 C231 1.463 . S
C234 N238 1.427 . S
C235 H225 0.929 . S
C235 C233 1.433 . S
C235 N238 1.384 . S
C236 H227 0.929 . S
C236 C228 1.378 . S
C236 C231 1.350 . S
C237 H224 0.929 . S
C237 C229 1.433 . S
C237 N239 1.384 . S
N238 C234 1.427 . S
N238 C235 1.384 . S
N239 C231 1.427 . S
N239 C237 1.384 . S
H240 C246 0.930 . S
H241 C250 0.930 . S
H242 C255 0.929 . S
H243 C253 0.929 1_655 S
H244 C248 0.929 . S
H245 C254 0.929 . S
C246 H240 0.930 . S
C246 C247 1.367 . S
C246 C254 1.378 . S
C247 C246 1.367 . S
C247 C255 1.433 . S
C248 H244 0.929 . S
C248 C250 1.378 . S
C248 C252 1.350 . S
C249 C252 1.463 . S
C249 C254 1.350 . S
C249 N257 1.427 . S
C250 H241 0.930 . S
C250 C248 1.378 . S
C250 C251 1.367 . S
C251 C250 1.367 . S
C251 C253 1.433 . S
C252 C248 1.350 . S
C252 C249 1.463 . S
C252 N256 1.427 . S
C253 H243 0.929 1_455 S
C253 C251 1.433 . S
C253 N256 1.384 . S
C254 H245 0.929 . S
C254 C246 1.378 . S
C254 C249 1.350 . S
C255 H242 0.929 . S
C255 C247 1.433 . S
C255 N257 1.384 . S
N256 C252 1.427 . S
N256 C253 1.384 . S
N257 C249 1.427 . S
N257 C255 1.384 . S
H258 C264 0.930 . S
H259 C268 0.930 . S
H260 C273 0.929 . S
H261 C271 0.929 . S
H262 C266 0.929 . S
H263 C272 0.929 . S
C264 H258 0.930 . S
C264 C265 1.367 . S
C264 C272 1.378 . S
C265 C264 1.367 . S
C265 C273 1.433 . S
C266 H262 0.929 . S
C266 C268 1.378 . S
C266 C270 1.350 . S
C267 C270 1.463 . S
C267 C272 1.350 . S
C267 N275 1.427 . S
C268 H259 0.930 . S
C268 C266 1.378 . S
C268 C269 1.367 . S
C269 C268 1.367 . S
C269 C271 1.433 . S
C270 C266 1.350 . S
C270 C267 1.463 . S
C270 N274 1.427 . S
C271 H261 0.929 . S
C271 C269 1.433 . S
C271 N274 1.384 . S
C272 H263 0.929 . S
C272 C264 1.378 . S
C272 C267 1.350 . S
C273 H260 0.929 . S
C273 C265 1.433 . S
C273 N275 1.384 . S
N274 C270 1.427 . S
N274 C271 1.384 . S
N275 C267 1.427 . S
N275 C273 1.384 . S
H276 C282 0.930 . S
H277 C286 0.930 . S
H278 C291 0.929 . S
H279 C289 0.929 . S
H280 C284 0.929 . S
H281 C290 0.929 . S
C282 H276 0.930 . S
C282 C283 1.367 . S
C282 C290 1.378 . S
C283 C282 1.367 . S
C283 C291 1.433 . S
C284 H280 0.929 . S
C284 C286 1.378 . S
C284 C288 1.350 . S
C285 C288 1.463 . S
C285 C290 1.350 . S
C285 N293 1.427 . S
C286 H277 0.930 . S
C286 C284 1.378 . S
C286 C287 1.367 . S
C287 C286 1.367 . S
C287 C289 1.433 . S
C288 C284 1.350 . S
C288 C285 1.463 . S
C288 N292 1.427 . S
C289 H279 0.929 . S
C289 C287 1.433 . S
C289 N292 1.384 . S
C290 H281 0.929 . S
C290 C282 1.378 . S
C290 C285 1.350 . S
C291 H278 0.929 . S
C291 C283 1.433 . S
C291 N293 1.384 . S
N292 C288 1.427 . S
N292 C289 1.384 . S
N293 C285 1.427 . S
N293 C291 1.384 . S
H294 C300 0.930 . S
H295 C304 0.930 . S
H296 C309 0.929 1_455 S
H297 C307 0.929 . S
H298 C302 0.929 . S
H299 C308 0.929 . S
C300 H294 0.930 . S
C300 C301 1.367 . S
C300 C308 1.378 . S
C301 C300 1.367 . S
C301 C309 1.433 . S
C302 H298 0.929 . S
C302 C304 1.378 . S
C302 C306 1.350 . S
C303 C306 1.463 . S
C303 C308 1.350 . S
C303 N311 1.427 . S
C304 H295 0.930 . S
C304 C302 1.378 . S
C304 C305 1.367 . S
C305 C304 1.367 . S
C305 C307 1.433 . S
C306 C302 1.350 . S
C306 C303 1.463 . S
C306 N310 1.427 . S
C307 H297 0.929 . S
C307 C305 1.433 . S
C307 N310 1.384 . S
C308 H299 0.929 . S
C308 C300 1.378 . S
C308 C303 1.350 . S
C309 H296 0.929 1_655 S
C309 C301 1.433 . S
C309 N311 1.384 . S
N310 C306 1.427 . S
N310 C307 1.384 . S
N311 C303 1.427 . S
N311 C309 1.384 . S
H312 C318 0.930 . S
H313 C322 0.930 . S
H314 C327 0.929 . S
H315 C325 0.929 . S
H316 C320 0.929 . S
H317 C326 0.929 . S
C318 H312 0.930 . S
C318 C319 1.367 1_554 S
C318 C326 1.378 . S
C319 C318 1.367 1_556 S
C319 C327 1.433 . S
C320 H316 0.929 . S
C320 C322 1.378 . S
C320 C324 1.352 . S
C321 C324 1.462 1_554 S
C321 C326 1.352 . S
C321 N329 1.425 1_554 S
C322 H313 0.930 . S
C322 C320 1.378 . S
C322 C323 1.367 1_556 S
C323 C322 1.367 1_554 S
C323 C325 1.433 . S
C324 C320 1.352 . S
C324 C321 1.462 1_556 S
C324 N328 1.425 1_556 S
C325 H315 0.929 . S
C325 C323 1.433 . S
C325 N328 1.384 . S
C326 H317 0.929 . S
C326 C318 1.378 . S
C326 C321 1.352 . S
C327 H314 0.929 . S
C327 C319 1.433 . S
C327 N329 1.384 . S
N328 C324 1.425 1_554 S
N328 C325 1.384 . S
N329 C321 1.425 1_556 S
N329 C327 1.384 . S
H330 C336 0.930 . S
H331 C340 0.930 . S
H332 C345 0.929 . S
H333 C343 0.929 . S
H334 C338 0.929 . S
H335 C344 0.929 . S
C336 H330 0.930 . S
C336 C337 1.367 . S
C336 C344 1.378 . S
C337 C336 1.367 . S
C337 C345 1.433 . S
C338 H334 0.929 . S
C338 C340 1.378 . S
C338 C342 1.350 . S
C339 C342 1.463 1_545 S
C339 C344 1.350 . S
C339 N347 1.427 . S
C340 H331 0.930 . S
C340 C338 1.378 . S
C340 C341 1.367 . S
C341 C340 1.367 . S
C341 C343 1.433 . S
C342 C338 1.350 . S
C342 C339 1.463 1_565 S
C342 N346 1.427 . S
C343 H333 0.929 . S
C343 C341 1.433 . S
C343 N346 1.384 . S
C344 H335 0.929 . S
C344 C336 1.378 . S
C344 C339 1.350 . S
C345 H332 0.929 . S
C345 C337 1.433 . S
C345 N347 1.384 . S
N346 C342 1.427 . S
N346 C343 1.384 . S
N347 C339 1.427 . S
N347 C345 1.384 . S
H348 C354 0.930 . S
H349 C358 0.930 . S
H350 C363 0.929 . S
H351 C361 0.929 . S
H352 C356 0.929 . S
H353 C362 0.929 . S
C354 H348 0.930 . S
C354 C355 1.367 . S
C354 C362 1.378 . S
C355 C354 1.367 . S
C355 C363 1.433 . S
C356 H352 0.929 . S
C356 C358 1.378 . S
C356 C360 1.350 . S
C357 C360 1.463 1_655 S
C357 C362 1.350 . S
C357 N365 1.427 . S
C358 H349 0.930 . S
C358 C356 1.378 . S
C358 C359 1.367 . S
C359 C358 1.367 . S
C359 C361 1.433 . S
C360 C356 1.350 . S
C360 C357 1.463 1_455 S
C360 N364 1.427 . S
C361 H351 0.929 . S
C361 C359 1.433 . S
C361 N364 1.384 . S
C362 H353 0.929 . S
C362 C354 1.378 . S
C362 C357 1.350 . S
C363 H350 0.929 . S
C363 C355 1.433 . S
C363 N365 1.384 . S
N364 C360 1.427 . S
N364 C361 1.384 . S
N365 C357 1.427 . S
N365 C363 1.384 . S
H366 C372 0.930 . S
H367 C376 0.930 . S
H368 C381 0.929 . S
H369 C379 0.929 . S
H370 C374 0.929 . S
H371 C380 0.929 . S
C372 H366 0.930 . S
C372 C373 1.367 . S
C372 C380 1.378 . S
C373 C372 1.367 . S
C373 C381 1.433 1_655 S
C374 H370 0.929 . S
C374 C376 1.378 . S
C374 C378 1.350 . S
C375 C378 1.463 1_655 S
C375 C380 1.350 . S
C375 N383 1.427 1_655 S
C376 H367 0.930 . S
C376 C374 1.378 . S
C376 C377 1.367 . S
C377 C376 1.367 . S
C377 C379 1.433 1_455 S
C378 C374 1.350 . S
C378 C375 1.463 1_455 S
C378 N382 1.427 1_455 S
C379 H369 0.929 . S
C379 C377 1.433 1_655 S
C379 N382 1.384 . S
C380 H371 0.929 . S
C380 C372 1.378 . S
C380 C375 1.350 . S
C381 H368 0.929 . S
C381 C373 1.433 1_455 S
C381 N383 1.384 . S
N382 C378 1.427 1_655 S
N382 C379 1.384 . S
N383 C375 1.427 1_455 S
N383 C381 1.384 . S
H384 C390 0.930 . S
H385 C394 0.930 . S
H386 C399 0.929 . S
H387 C397 0.929 . S
H388 C392 0.929 . S
H389 C398 0.929 . S
C390 H384 0.930 . S
C390 C391 1.367 . S
C390 C398 1.378 . S
C391 C390 1.367 . S
C391 C399 1.433 . S
C392 H388 0.929 . S
C392 C394 1.378 . S
C392 C396 1.350 . S
C393 C396 1.463 1_556 S
C393 C398 1.350 . S
C393 N401 1.427 . S
C394 H385 0.930 . S
C394 C392 1.378 . S
C394 C395 1.367 . S
C395 C394 1.367 . S
C395 C397 1.433 . S
C396 C392 1.350 . S
C396 C393 1.463 1_554 S
C396 N400 1.427 . S
C397 H387 0.929 . S
C397 C395 1.433 . S
C397 N400 1.384 . S
C398 H389 0.929 . S
C398 C390 1.378 . S
C398 C393 1.350 . S
C399 H386 0.929 . S
C399 C391 1.433 . S
C399 N401 1.384 . S
N400 C396 1.427 . S
N400 C397 1.384 . S
N401 C393 1.427 . S
N401 C399 1.384 . S
H402 C408 0.930 . S
H403 C412 0.930 . S
H404 C417 0.929 . S
H405 C415 0.929 . S
H406 C410 0.929 . S
H407 C416 0.929 . S
C408 H402 0.930 . S
C408 C409 1.367 . S
C408 C416 1.378 . S
C409 C408 1.367 . S
C409 C417 1.433 1_545 S
C410 H406 0.929 . S
C410 C412 1.378 . S
C410 C414 1.350 . S
C411 C414 1.463 1_545 S
C411 C416 1.350 . S
C411 N419 1.427 1_545 S
C412 H403 0.930 . S
C412 C410 1.378 . S
C412 C413 1.367 . S
C413 C412 1.367 . S
C413 C415 1.433 1_565 S
C414 C410 1.350 . S
C414 C411 1.463 1_565 S
C414 N418 1.427 1_565 S
C415 H405 0.929 . S
C415 C413 1.433 1_545 S
C415 N418 1.384 . S
C416 H407 0.929 . S
C416 C408 1.378 . S
C416 C411 1.350 . S
C417 H404 0.929 . S
C417 C409 1.433 1_565 S
C417 N419 1.384 . S
N418 C414 1.427 1_545 S
N418 C415 1.384 . S
N419 C411 1.427 1_565 S
N419 C417 1.384 . S
H420 C426 0.930 . S
H421 C430 0.930 . S
H422 C435 0.929 . S
H423 C433 0.929 . S
H424 C428 0.929 . S
H425 C434 0.929 . S
C426 H420 0.930 . S
C426 C427 1.367 . S
C426 C434 1.378 . S
C427 C426 1.367 . S
C427 C435 1.433 . S
C428 H424 0.929 . S
C428 C430 1.378 . S
C428 C432 1.350 . S
C429 C432 1.463 . S
C429 C434 1.350 . S
C429 N437 1.427 . S
C430 H421 0.930 . S
C430 C428 1.378 . S
C430 C431 1.367 . S
C431 C430 1.367 . S
C431 C433 1.433 . S
C432 C428 1.350 . S
C432 C429 1.463 . S
C432 N436 1.427 . S
C433 H423 0.929 . S
C433 C431 1.433 . S
C433 N436 1.384 . S
C434 H425 0.929 . S
C434 C426 1.378 . S
C434 C429 1.350 . S
C435 H422 0.929 . S
C435 C427 1.433 . S
C435 N437 1.384 . S
N436 C432 1.427 . S
N436 C433 1.384 . S
N437 C429 1.427 . S
N437 C435 1.384 . S
H438 C444 0.930 . S
H439 C448 0.930 . S
H440 C453 0.929 . S
H441 C451 0.929 . S
H442 C446 0.929 . S
H443 C452 0.929 . S
C444 H438 0.930 . S
C444 C445 1.367 . S
C444 C452 1.378 . S
C445 C444 1.367 . S
C445 C453 1.433 . S
C446 H442 0.929 . S
C446 C448 1.378 . S
C446 C450 1.350 . S
C447 C450 1.463 . S
C447 C452 1.350 . S
C447 N455 1.427 . S
C448 H439 0.930 . S
C448 C446 1.378 . S
C448 C449 1.367 . S
C449 C448 1.367 . S
C449 C451 1.433 . S
C450 C446 1.350 . S
C450 C447 1.463 . S
C450 N454 1.427 . S
C451 H441 0.929 . S
C451 C449 1.433 . S
C451 N454 1.384 . S
C452 H443 0.929 . S
C452 C444 1.378 . S
C452 C447 1.350 . S
C453 H440 0.929 . S
C453 C445 1.433 . S
C453 N455 1.384 . S
N454 C450 1.427 . S
N454 C451 1.384 . S
N455 C447 1.427 . S
N455 C453 1.384 . S
H456 C462 0.930 . S
H457 C466 0.930 . S
H458 C471 0.929 . S
H459 C469 0.929 . S
H460 C464 0.929 . S
H461 C470 0.929 . S
C462 H456 0.930 . S
C462 C463 1.367 . S
C462 C470 1.378 . S
C463 C462 1.367 . S
C463 C471 1.433 . S
C464 H460 0.929 . S
C464 C466 1.378 . S
C464 C468 1.350 . S
C465 C468 1.463 . S
C465 C470 1.350 . S
C465 N473 1.427 . S
C466 H457 0.930 . S
C466 C464 1.378 . S
C466 C467 1.367 . S
C467 C466 1.367 . S
C467 C469 1.433 . S
C468 C464 1.350 . S
C468 C465 1.463 . S
C468 N472 1.427 . S
C469 H459 0.929 . S
C469 C467 1.433 . S
C469 N472 1.384 . S
C470 H461 0.929 . S
C470 C462 1.378 . S
C470 C465 1.350 . S
C471 H458 0.929 . S
C471 C463 1.433 . S
C471 N473 1.384 . S
N472 C468 1.427 . S
N472 C469 1.384 . S
N473 C465 1.427 . S
N473 C471 1.384 . S
H474 C480 0.930 . S
H475 C484 0.930 . S
H476 C489 0.929 . S
H477 C487 0.929 . S
H478 C482 0.929 . S
H479 C488 0.929 . S
C480 H474 0.930 . S
C480 C481 1.367 . S
C480 C488 1.378 . S
C481 C480 1.367 . S
C481 C489 1.433 . S
C482 H478 0.929 . S
C482 C484 1.378 . S
C482 C486 1.350 . S
C483 C486 1.463 . S
C483 C488 1.350 . S
C483 N491 1.427 . S
C484 H475 0.930 . S
C484 C482 1.378 . S
C484 C485 1.367 . S
C485 C484 1.367 . S
C485 C487 1.433 . S
C486 C482 1.350 . S
C486 C483 1.463 . S
C486 N490 1.427 . S
C487 H477 0.929 . S
C487 C485 1.433 . S
C487 N490 1.384 . S
C488 H479 0.929 . S
C488 C480 1.378 . S
C488 C483 1.350 . S
C489 H476 0.929 . S
C489 C481 1.433 . S
C489 N491 1.384 . S
N490 C486 1.427 . S
N490 C487 1.384 . S
N491 C483 1.427 . S
N491 C489 1.384 . S
H492 C498 0.930 . S
H493 C502 0.930 . S
H494 C507 0.929 . S
H495 C505 0.929 . S
H496 C500 0.929 . S
H497 C506 0.929 . S
C498 H492 0.930 . S
C498 C499 1.367 . S
C498 C506 1.378 . S
C499 C498 1.367 . S
C499 C507 1.433 . S
C500 H496 0.929 . S
C500 C502 1.378 . S
C500 C504 1.350 . S
C501 C504 1.463 . S
C501 C506 1.350 . S
C501 N509 1.427 . S
C502 H493 0.930 . S
C502 C500 1.378 . S
C502 C503 1.367 . S
C503 C502 1.367 . S
C503 C505 1.433 . S
C504 C500 1.350 . S
C504 C501 1.463 . S
C504 N508 1.427 . S
C505 H495 0.929 . S
C505 C503 1.433 . S
C505 N508 1.384 . S
C506 H497 0.929 . S
C506 C498 1.378 . S
C506 C501 1.350 . S
C507 H494 0.929 . S
C507 C499 1.433 . S
C507 N509 1.384 . S
N508 C504 1.427 . S
N508 C505 1.384 . S
N509 C501 1.427 . S
N509 C507 1.384 . S
H510 C516 0.930 . S
H511 C520 0.930 . S
H512 C525 0.929 . S
H513 C523 0.929 . S
H514 C518 0.929 . S
H515 C524 0.929 . S
C516 H510 0.930 . S
C516 C517 1.367 . S
C516 C524 1.378 . S
C517 C516 1.367 . S
C517 C525 1.433 . S
C518 H514 0.929 . S
C518 C520 1.378 . S
C518 C522 1.350 . S
C519 C522 1.463 . S
C519 C524 1.350 . S
C519 N527 1.427 . S
C520 H511 0.930 . S
C520 C518 1.378 . S
C520 C521 1.367 . S
C521 C520 1.367 . S
C521 C523 1.433 . S
C522 C518 1.350 . S
C522 C519 1.463 . S
C522 N526 1.427 . S
C523 H513 0.929 . S
C523 C521 1.433 . S
C523 N526 1.384 . S
C524 H515 0.929 . S
C524 C516 1.378 . S
C524 C519 1.350 . S
C525 H512 0.929 . S
C525 C517 1.433 . S
C525 N527 1.384 . S
N526 C522 1.427 . S
N526 C523 1.384 . S
N527 C519 1.427 . S
N527 C525 1.384 . S
H528 C534 0.930 . S
H529 C538 0.930 . S
H530 C543 0.929 . S
H531 C541 0.929 . S
H532 C536 0.929 . S
H533 C542 0.929 . S
C534 H528 0.930 . S
C534 C535 1.367 . S
C534 C542 1.378 . S
C535 C534 1.367 . S
C535 C543 1.433 . S
C536 H532 0.929 . S
C536 C538 1.378 . S
C536 C540 1.350 . S
C537 C540 1.463 1_655 S
C537 C542 1.350 . S
C537 N545 1.427 . S
C538 H529 0.930 . S
C538 C536 1.378 . S
C538 C539 1.367 . S
C539 C538 1.367 . S
C539 C541 1.433 . S
C540 C536 1.350 . S
C540 C537 1.463 1_455 S
C540 N544 1.427 . S
C541 H531 0.929 . S
C541 C539 1.433 . S
C541 N544 1.384 . S
C542 H533 0.929 . S
C542 C534 1.378 . S
C542 C537 1.350 . S
C543 H530 0.929 . S
C543 C535 1.433 . S
C543 N545 1.384 . S
N544 C540 1.427 . S
N544 C541 1.384 . S
N545 C537 1.427 . S
N545 C543 1.384 . S
H546 C552 0.930 . S
H547 C556 0.930 . S
H548 C561 0.929 . S
H549 C559 0.929 . S
H550 C554 0.929 . S
H551 C560 0.929 . S
C552 H546 0.930 . S
C552 C553 1.367 . S
C552 C560 1.378 . S
C553 C552 1.367 . S
C553 C561 1.433 . S
C554 H550 0.929 . S
C554 C556 1.378 . S
C554 C558 1.350 . S
C555 C558 1.463 . S
C555 C560 1.350 . S
C555 N563 1.427 . S
C556 H547 0.930 . S
C556 C554 1.378 . S
C556 C557 1.367 . S
C557 C556 1.367 . S
C557 C559 1.433 . S
C558 C554 1.350 . S
C558 C555 1.463 . S
C558 N562 1.427 . S
C559 H549 0.929 . S
C559 C557 1.433 . S
C559 N562 1.384 . S
C560 H551 0.929 . S
C560 C552 1.378 . S
C560 C555 1.350 . S
C561 H548 0.929 . S
C561 C553 1.433 . S
C561 N563 1.384 . S
N562 C558 1.427 . S
N562 C559 1.384 . S
N563 C555 1.427 . S
N563 C561 1.384 . S
H564 C570 0.930 . S
H565 C574 0.930 . S
H566 C579 0.929 . S
H567 C577 0.929 . S
H568 C572 0.929 . S
H569 C578 0.929 . S
C570 H564 0.930 . S
C570 C571 1.367 . S
C570 C578 1.378 . S
C571 C570 1.367 . S
C571 C579 1.433 1_545 S
C572 H568 0.929 . S
C572 C574 1.378 . S
C572 C576 1.350 . S
C573 C576 1.463 1_545 S
C573 C578 1.350 . S
C573 N581 1.427 1_545 S
C574 H565 0.930 . S
C574 C572 1.378 . S
C574 C575 1.367 . S
C575 C574 1.367 . S
C575 C577 1.433 1_565 S
C576 C572 1.350 . S
C576 C573 1.463 1_565 S
C576 N580 1.427 1_565 S
C577 H567 0.929 . S
C577 C575 1.433 1_545 S
C577 N580 1.384 . S
C578 H569 0.929 . S
C578 C570 1.378 . S
C578 C573 1.350 . S
C579 H566 0.929 . S
C579 C571 1.433 1_565 S
C579 N581 1.384 . S
N580 C576 1.427 1_545 S
N580 C577 1.384 . S
N581 C573 1.427 1_565 S
N581 C579 1.384 . S
C211 C173 2.546 . S
C215 C17 2.556 . S
C229 C51 2.554 . S
C233 C103 2.547 1_565 S
C247 C85 2.555 . S
C251 C137 2.547 1_455 S
C265 C35 2.543 . S
C269 C119 2.553 . S
C283 C71 2.543 1_545 S
C287 C153 2.552 . S
C301 C3 2.543 1_655 S
C305 C187 2.553 . S
C319 C130 0.568 . S
C323 C6 0.568 . S
C337 C164 0.550 . S
C341 C62 0.573 . S
C355 C176 0.535 . S
C359 C74 0.564 . S
C373 C158 0.562 . S
C377 C15 0.568 . S
C391 C56 0.575 . S
C395 C185 0.562 . S
C409 C124 0.567 . S
C413 C83 0.562 . S
C427 C22 0.439 . S
C431 C40 0.203 . S
C445 C96 0.227 . S
C449 C49 0.411 . S
C463 C28 0.190 . S
C467 C90 0.441 . S
C481 C117 0.417 . S
C485 C198 0.184 . S
C499 C151 0.430 . S
C503 C108 0.181 . S
C517 C142 0.181 . S
C521 C192 0.426 . S
C535 C139 3.394 . S
C539 C1 3.399 1_556 S
C553 C37 3.394 . S
C557 C171 3.398 . S
C571 C105 3.398 1_554 S
C575 C69 3.398 . S
