# Generated by pormake.
# Topology uli, (4)-cn, num edge types: 1
# Building blocks:
#     Node 0, Type 0, BuildingBlock: QUQFOY_clean_sbu_1, # of connection points: 4
#     Node 1, Type 0, BuildingBlock: QUQFOY_clean_sbu_1, # of connection points: 4
#     Node 2, Type 0, BuildingBlock: QUQFOY_clean_sbu_1, # of connection points: 4
#     Node 3, Type 0, BuildingBlock: QUQFOY_clean_sbu_1, # of connection points: 4
#     Node 4, Type 0, BuildingBlock: QUQFOY_clean_sbu_1, # of connection points: 4
#     Node 5, Type 0, BuildingBlock: QUQFOY_clean_sbu_1, # of connection points: 4
#     Node 6, Type 0, BuildingBlock: QUQFOY_clean_sbu_1, # of connection points: 4
#     Node 7, Type 0, BuildingBlock: QUQFOY_clean_sbu_1, # of connection points: 4
#     Node 8, Type 0, BuildingBlock: QUQFOY_clean_sbu_1, # of connection points: 4
#     Node 9, Type 0, BuildingBlock: QUQFOY_clean_sbu_1, # of connection points: 4
#     Node 10, Type 0, BuildingBlock: QUQFOY_clean_sbu_1, # of connection points: 4
#     Node 11, Type 0, BuildingBlock: QUQFOY_clean_sbu_1, # of connection points: 4
#     Node 12, Type 0, BuildingBlock: QUQFOY_clean_sbu_1, # of connection points: 4
#     Node 13, Type 0, BuildingBlock: QUQFOY_clean_sbu_1, # of connection points: 4
#     Node 14, Type 0, BuildingBlock: QUQFOY_clean_sbu_1, # of connection points: 4
#     Node 15, Type 0, BuildingBlock: QUQFOY_clean_sbu_1, # of connection points: 4
#     Node 16, Type 0, BuildingBlock: QUQFOY_clean_sbu_1, # of connection points: 4
#     Node 17, Type 0, BuildingBlock: QUQFOY_clean_sbu_1, # of connection points: 4
#     Node 18, Type 0, BuildingBlock: QUQFOY_clean_sbu_1, # of connection points: 4
#     Node 19, Type 0, BuildingBlock: QUQFOY_clean_sbu_1, # of connection points: 4
#     Node 20, Type 0, BuildingBlock: QUQFOY_clean_sbu_1, # of connection points: 4
#     Node 21, Type 0, BuildingBlock: QUQFOY_clean_sbu_1, # of connection points: 4
#     Node 22, Type 0, BuildingBlock: QUQFOY_clean_sbu_1, # of connection points: 4
#     Node 23, Type 0, BuildingBlock: QUQFOY_clean_sbu_1, # of connection points: 4
#     Node 24, Type 0, BuildingBlock: QUQFOY_clean_sbu_1, # of connection points: 4
#     Node 25, Type 0, BuildingBlock: QUQFOY_clean_sbu_1, # of connection points: 4
#     Node 26, Type 0, BuildingBlock: QUQFOY_clean_sbu_1, # of connection points: 4
#     Node 27, Type 0, BuildingBlock: QUQFOY_clean_sbu_1, # of connection points: 4
#     Node 28, Type 0, BuildingBlock: QUQFOY_clean_sbu_1, # of connection points: 4
#     Node 29, Type 0, BuildingBlock: QUQFOY_clean_sbu_1, # of connection points: 4
#     Node 30, Type 0, BuildingBlock: QUQFOY_clean_sbu_1, # of connection points: 4
#     Node 31, Type 0, BuildingBlock: QUQFOY_clean_sbu_1, # of connection points: 4
#     Node 32, Type 0, BuildingBlock: QUQFOY_clean_sbu_1, # of connection points: 4
#     Node 33, Type 0, BuildingBlock: QUQFOY_clean_sbu_1, # of connection points: 4
#     Node 34, Type 0, BuildingBlock: QUQFOY_clean_sbu_1, # of connection points: 4
#     Node 35, Type 0, BuildingBlock: QUQFOY_clean_sbu_1, # of connection points: 4
#     Node 36, Type 0, BuildingBlock: QUQFOY_clean_sbu_1, # of connection points: 4
#     Node 37, Type 0, BuildingBlock: QUQFOY_clean_sbu_1, # of connection points: 4
#     Node 38, Type 0, BuildingBlock: QUQFOY_clean_sbu_1, # of connection points: 4
#     Node 39, Type 0, BuildingBlock: QUQFOY_clean_sbu_1, # of connection points: 4
#     Node 40, Type 0, BuildingBlock: QUQFOY_clean_sbu_1, # of connection points: 4
#     Node 41, Type 0, BuildingBlock: QUQFOY_clean_sbu_1, # of connection points: 4
#     Node 42, Type 0, BuildingBlock: QUQFOY_clean_sbu_1, # of connection points: 4
#     Node 43, Type 0, BuildingBlock: QUQFOY_clean_sbu_1, # of connection points: 4
#     Node 44, Type 0, BuildingBlock: QUQFOY_clean_sbu_1, # of connection points: 4
#     Node 45, Type 0, BuildingBlock: QUQFOY_clean_sbu_1, # of connection points: 4
#     Node 46, Type 0, BuildingBlock: QUQFOY_clean_sbu_1, # of connection points: 4
#     Node 47, Type 0, BuildingBlock: QUQFOY_clean_sbu_1, # of connection points: 4
#     Edge 48, Type (0, 0), BuildingBlock: EZIPEK_clean_linker_0, # of connection points: 2
#     Edge 49, Type (0, 0), BuildingBlock: EZIPEK_clean_linker_0, # of connection points: 2
#     Edge 50, Type (0, 0), BuildingBlock: EZIPEK_clean_linker_0, # of connection points: 2
#     Edge 51, Type (0, 0), BuildingBlock: EZIPEK_clean_linker_0, # of connection points: 2
#     Edge 52, Type (0, 0), BuildingBlock: EZIPEK_clean_linker_0, # of connection points: 2
#     Edge 53, Type (0, 0), BuildingBlock: EZIPEK_clean_linker_0, # of connection points: 2
#     Edge 54, Type (0, 0), BuildingBlock: EZIPEK_clean_linker_0, # of connection points: 2
#     Edge 55, Type (0, 0), BuildingBlock: EZIPEK_clean_linker_0, # of connection points: 2
#     Edge 56, Type (0, 0), BuildingBlock: EZIPEK_clean_linker_0, # of connection points: 2
#     Edge 57, Type (0, 0), BuildingBlock: EZIPEK_clean_linker_0, # of connection points: 2
#     Edge 58, Type (0, 0), BuildingBlock: EZIPEK_clean_linker_0, # of connection points: 2
#     Edge 59, Type (0, 0), BuildingBlock: EZIPEK_clean_linker_0, # of connection points: 2
#     Edge 60, Type (0, 0), BuildingBlock: EZIPEK_clean_linker_0, # of connection points: 2
#     Edge 61, Type (0, 0), BuildingBlock: EZIPEK_clean_linker_0, # of connection points: 2
#     Edge 62, Type (0, 0), BuildingBlock: EZIPEK_clean_linker_0, # of connection points: 2
#     Edge 63, Type (0, 0), BuildingBlock: EZIPEK_clean_linker_0, # of connection points: 2
#     Edge 64, Type (0, 0), BuildingBlock: EZIPEK_clean_linker_0, # of connection points: 2
#     Edge 65, Type (0, 0), BuildingBlock: EZIPEK_clean_linker_0, # of connection points: 2
#     Edge 66, Type (0, 0), BuildingBlock: EZIPEK_clean_linker_0, # of connection points: 2
#     Edge 67, Type (0, 0), BuildingBlock: EZIPEK_clean_linker_0, # of connection points: 2
#     Edge 68, Type (0, 0), BuildingBlock: EZIPEK_clean_linker_0, # of connection points: 2
#     Edge 69, Type (0, 0), BuildingBlock: EZIPEK_clean_linker_0, # of connection points: 2
#     Edge 70, Type (0, 0), BuildingBlock: EZIPEK_clean_linker_0, # of connection points: 2
#     Edge 71, Type (0, 0), BuildingBlock: EZIPEK_clean_linker_0, # of connection points: 2
#     Edge 72, Type (0, 0), BuildingBlock: EZIPEK_clean_linker_0, # of connection points: 2
#     Edge 73, Type (0, 0), BuildingBlock: EZIPEK_clean_linker_0, # of connection points: 2
#     Edge 74, Type (0, 0), BuildingBlock: EZIPEK_clean_linker_0, # of connection points: 2
#     Edge 75, Type (0, 0), BuildingBlock: EZIPEK_clean_linker_0, # of connection points: 2
#     Edge 76, Type (0, 0), BuildingBlock: EZIPEK_clean_linker_0, # of connection points: 2
#     Edge 77, Type (0, 0), BuildingBlock: EZIPEK_clean_linker_0, # of connection points: 2
#     Edge 78, Type (0, 0), BuildingBlock: EZIPEK_clean_linker_0, # of connection points: 2
#     Edge 79, Type (0, 0), BuildingBlock: EZIPEK_clean_linker_0, # of connection points: 2
#     Edge 80, Type (0, 0), BuildingBlock: EZIPEK_clean_linker_0, # of connection points: 2
#     Edge 81, Type (0, 0), BuildingBlock: EZIPEK_clean_linker_0, # of connection points: 2
#     Edge 82, Type (0, 0), BuildingBlock: EZIPEK_clean_linker_0, # of connection points: 2
#     Edge 83, Type (0, 0), BuildingBlock: EZIPEK_clean_linker_0, # of connection points: 2
#     Edge 84, Type (0, 0), BuildingBlock: EZIPEK_clean_linker_0, # of connection points: 2
#     Edge 85, Type (0, 0), BuildingBlock: EZIPEK_clean_linker_0, # of connection points: 2
#     Edge 86, Type (0, 0), BuildingBlock: EZIPEK_clean_linker_0, # of connection points: 2
#     Edge 87, Type (0, 0), BuildingBlock: EZIPEK_clean_linker_0, # of connection points: 2
#     Edge 88, Type (0, 0), BuildingBlock: EZIPEK_clean_linker_0, # of connection points: 2
#     Edge 89, Type (0, 0), BuildingBlock: EZIPEK_clean_linker_0, # of connection points: 2
#     Edge 90, Type (0, 0), BuildingBlock: EZIPEK_clean_linker_0, # of connection points: 2
#     Edge 91, Type (0, 0), BuildingBlock: EZIPEK_clean_linker_0, # of connection points: 2
#     Edge 92, Type (0, 0), BuildingBlock: EZIPEK_clean_linker_0, # of connection points: 2
#     Edge 93, Type (0, 0), BuildingBlock: EZIPEK_clean_linker_0, # of connection points: 2
#     Edge 94, Type (0, 0), BuildingBlock: EZIPEK_clean_linker_0, # of connection points: 2
#     Edge 95, Type (0, 0), BuildingBlock: EZIPEK_clean_linker_0, # of connection points: 2
#     Edge 96, Type (0, 0), BuildingBlock: EZIPEK_clean_linker_0, # of connection points: 2
#     Edge 97, Type (0, 0), BuildingBlock: EZIPEK_clean_linker_0, # of connection points: 2
#     Edge 98, Type (0, 0), BuildingBlock: EZIPEK_clean_linker_0, # of connection points: 2
#     Edge 99, Type (0, 0), BuildingBlock: EZIPEK_clean_linker_0, # of connection points: 2
#     Edge 100, Type (0, 0), BuildingBlock: EZIPEK_clean_linker_0, # of connection points: 2
#     Edge 101, Type (0, 0), BuildingBlock: EZIPEK_clean_linker_0, # of connection points: 2
#     Edge 102, Type (0, 0), BuildingBlock: EZIPEK_clean_linker_0, # of connection points: 2
#     Edge 103, Type (0, 0), BuildingBlock: EZIPEK_clean_linker_0, # of connection points: 2
#     Edge 104, Type (0, 0), BuildingBlock: EZIPEK_clean_linker_0, # of connection points: 2
#     Edge 105, Type (0, 0), BuildingBlock: EZIPEK_clean_linker_0, # of connection points: 2
#     Edge 106, Type (0, 0), BuildingBlock: EZIPEK_clean_linker_0, # of connection points: 2
#     Edge 107, Type (0, 0), BuildingBlock: EZIPEK_clean_linker_0, # of connection points: 2
#     Edge 108, Type (0, 0), BuildingBlock: EZIPEK_clean_linker_0, # of connection points: 2
#     Edge 109, Type (0, 0), BuildingBlock: EZIPEK_clean_linker_0, # of connection points: 2
#     Edge 110, Type (0, 0), BuildingBlock: EZIPEK_clean_linker_0, # of connection points: 2
#     Edge 111, Type (0, 0), BuildingBlock: EZIPEK_clean_linker_0, # of connection points: 2
#     Edge 112, Type (0, 0), BuildingBlock: EZIPEK_clean_linker_0, # of connection points: 2
#     Edge 113, Type (0, 0), BuildingBlock: EZIPEK_clean_linker_0, # of connection points: 2
#     Edge 114, Type (0, 0), BuildingBlock: EZIPEK_clean_linker_0, # of connection points: 2
#     Edge 115, Type (0, 0), BuildingBlock: EZIPEK_clean_linker_0, # of connection points: 2
#     Edge 116, Type (0, 0), BuildingBlock: EZIPEK_clean_linker_0, # of connection points: 2
#     Edge 117, Type (0, 0), BuildingBlock: EZIPEK_clean_linker_0, # of connection points: 2
#     Edge 118, Type (0, 0), BuildingBlock: EZIPEK_clean_linker_0, # of connection points: 2
#     Edge 119, Type (0, 0), BuildingBlock: EZIPEK_clean_linker_0, # of connection points: 2
#     Edge 120, Type (0, 0), BuildingBlock: EZIPEK_clean_linker_0, # of connection points: 2
#     Edge 121, Type (0, 0), BuildingBlock: EZIPEK_clean_linker_0, # of connection points: 2
#     Edge 122, Type (0, 0), BuildingBlock: EZIPEK_clean_linker_0, # of connection points: 2
#     Edge 123, Type (0, 0), BuildingBlock: EZIPEK_clean_linker_0, # of connection points: 2
#     Edge 124, Type (0, 0), BuildingBlock: EZIPEK_clean_linker_0, # of connection points: 2
#     Edge 125, Type (0, 0), BuildingBlock: EZIPEK_clean_linker_0, # of connection points: 2
#     Edge 126, Type (0, 0), BuildingBlock: EZIPEK_clean_linker_0, # of connection points: 2
#     Edge 127, Type (0, 0), BuildingBlock: EZIPEK_clean_linker_0, # of connection points: 2
#     Edge 128, Type (0, 0), BuildingBlock: EZIPEK_clean_linker_0, # of connection points: 2
#     Edge 129, Type (0, 0), BuildingBlock: EZIPEK_clean_linker_0, # of connection points: 2
#     Edge 130, Type (0, 0), BuildingBlock: EZIPEK_clean_linker_0, # of connection points: 2
#     Edge 131, Type (0, 0), BuildingBlock: EZIPEK_clean_linker_0, # of connection points: 2
#     Edge 132, Type (0, 0), BuildingBlock: EZIPEK_clean_linker_0, # of connection points: 2
#     Edge 133, Type (0, 0), BuildingBlock: EZIPEK_clean_linker_0, # of connection points: 2
#     Edge 134, Type (0, 0), BuildingBlock: EZIPEK_clean_linker_0, # of connection points: 2
#     Edge 135, Type (0, 0), BuildingBlock: EZIPEK_clean_linker_0, # of connection points: 2
#     Edge 136, Type (0, 0), BuildingBlock: EZIPEK_clean_linker_0, # of connection points: 2
#     Edge 137, Type (0, 0), BuildingBlock: EZIPEK_clean_linker_0, # of connection points: 2
#     Edge 138, Type (0, 0), BuildingBlock: EZIPEK_clean_linker_0, # of connection points: 2
#     Edge 139, Type (0, 0), BuildingBlock: EZIPEK_clean_linker_0, # of connection points: 2
#     Edge 140, Type (0, 0), BuildingBlock: EZIPEK_clean_linker_0, # of connection points: 2
#     Edge 141, Type (0, 0), BuildingBlock: EZIPEK_clean_linker_0, # of connection points: 2
#     Edge 142, Type (0, 0), BuildingBlock: EZIPEK_clean_linker_0, # of connection points: 2
#     Edge 143, Type (0, 0), BuildingBlock: EZIPEK_clean_linker_0, # of connection points: 2
# Relax obj value: 0.313
# Max RMSD: 0.115
# Mean RMSD: 0.115
data_MOF--net-uli--node1-QUQFOY_clean_sbu_1--edge1-EZIPEK_clean_linker_0
_symmetry_space_group_name_H-M    P1
_symmetry_Int_Tables_number       1
_symmetry_cell_setting            triclinic
loop_
_symmetry_equiv_pos_as_xyz
'x, y, z'
_cell_length_a     54.31916
_cell_length_b     54.31417
_cell_length_c     54.290544
_cell_angle_alpha  90.007839
_cell_angle_beta   90.006427
_cell_angle_gamma 90.003554
loop_
_atom_site_label
_atom_site_type_symbol
_atom_site_fract_x
_atom_site_fract_y
_atom_site_fract_z
_atom_type_partial_charge
O0 O 0.09044 0.20856 0.20569 0.0
Cd1 Cd 0.08299 0.24548 0.20053 0.0
Cd2 Cd 0.12402 0.25074 0.22343 0.0
O3 O 0.11836 0.21485 0.2344 0.0
O4 O 0.04671 0.24712 0.19837 0.0
O5 O 0.06813 0.26193 0.22999 0.0
C6 C 0.04714 0.25622 0.22034 0.0
C7 C 0.13792 0.28246 0.24835 0.0
C8 C 0.10483 0.2002 0.22211 0.0
C9 C 0.12353 0.26303 0.17002 0.0
O10 O 0.13623 0.25566 0.18816 0.0
O11 O 0.10018 0.26378 0.17156 0.0
O12 O 0.15201 0.26427 0.24258 0.0
O13 O 0.11502 0.28151 0.24205 0.0
O14 O 0.80068 0.10094 0.2206 0.0
Cd15 Cd 0.76618 0.08936 0.21009 0.0
Cd16 Cd 0.75305 0.12883 0.23088 0.0
O17 O 0.7855 0.1236 0.25017 0.0
O18 O 0.76761 0.05317 0.21041 0.0
O19 O 0.74599 0.07523 0.23742 0.0
C20 C 0.75467 0.05422 0.23035 0.0
C21 C 0.71775 0.1446 0.24899 0.0
C22 C 0.80388 0.11277 0.24049 0.0
C23 C 0.75203 0.12663 0.17584 0.0
O24 O 0.75528 0.13997 0.19474 0.0
O25 O 0.7519 0.10335 0.17781 0.0
O26 O 0.73707 0.15797 0.24588 0.0
O27 O 0.71897 0.12146 0.24369 0.0
O28 O 0.9044 0.81703 0.22054 0.0
Cd29 Cd 0.91448 0.78317 0.20707 0.0
Cd30 Cd 0.87982 0.77099 0.23458 0.0
O31 O 0.89386 0.79989 0.25519 0.0
O32 O 0.94895 0.78736 0.19699 0.0
O33 O 0.93717 0.76497 0.22937 0.0
C34 C 0.95455 0.77523 0.21668 0.0
C35 C 0.86061 0.73569 0.24923 0.0
C36 C 0.90036 0.81907 0.24347 0.0
C37 C 0.8701 0.77123 0.18215 0.0
O38 O 0.86144 0.77921 0.20236 0.0
O39 O 0.89298 0.76677 0.18041 0.0
O40 O 0.85365 0.75732 0.25596 0.0
O41 O 0.88127 0.73406 0.23755 0.0
O42 O 0.21589 0.88876 0.2153 0.0
Cd43 Cd 0.24404 0.90765 0.19827 0.0
Cd44 Cd 0.268 0.88103 0.22665 0.0
O45 O 0.23783 0.88779 0.24898 0.0
O46 O 0.23062 0.94022 0.18938 0.0
O47 O 0.25898 0.93442 0.21851 0.0
C48 C 0.24377 0.94888 0.20722 0.0
C49 C 0.30739 0.87494 0.24201 0.0
C50 C 0.21711 0.88559 0.23843 0.0
C51 C 0.26445 0.867 0.17395 0.0
O52 O 0.26309 0.85899 0.19589 0.0
O53 O 0.26205 0.8899 0.17001 0.0
O54 O 0.28978 0.85973 0.24651 0.0
O55 O 0.30222 0.89513 0.23057 0.0
O56 O 0.0987 0.78787 0.77403 0.0
Cd57 Cd 0.0785 0.76062 0.7905 0.0
Cd58 Cd 0.11775 0.73514 0.78016 0.0
O59 O 0.12329 0.76271 0.75451 0.0
O60 O 0.0444 0.77232 0.78669 0.0
O61 O 0.05883 0.73876 0.76813 0.0
C62 C 0.04126 0.75449 0.77134 0.0
C63 C 0.13246 0.69565 0.77214 0.0
C64 C 0.11476 0.7843 0.75747 0.0
C65 C 0.10805 0.75066 0.83288 0.0
O66 O 0.12335 0.7446 0.81633 0.0
O67 O 0.0858 0.75506 0.8273 0.0
O68 O 0.14706 0.71397 0.7754 0.0
O69 O 0.10905 0.6997 0.77237 0.0
O70 O 0.19242 0.09892 0.7681 0.0
Cd71 Cd 0.21997 0.08134 0.78709 0.0
Cd72 Cd 0.24439 0.12124 0.77381 0.0
O73 O 0.21621 0.12479 0.74838 0.0
O74 O 0.20997 0.0464 0.78667 0.0
O75 O 0.24382 0.06032 0.76827 0.0
C76 C 0.22904 0.04231 0.77315 0.0
C77 C 0.28386 0.13605 0.76557 0.0
C78 C 0.19514 0.11497 0.75134 0.0
C79 C 0.22924 0.1147 0.82719 0.0
O80 O 0.23528 0.12887 0.80965 0.0
O81 O 0.22465 0.09217 0.82315 0.0
O82 O 0.26522 0.15052 0.76719 0.0
O83 O 0.2801 0.11263 0.76706 0.0
O84 O 0.90578 0.20052 0.77935 0.0
Cd85 Cd 0.91228 0.23689 0.78776 0.0
Cd86 Cd 0.87373 0.24165 0.76441 0.0
O87 O 0.88805 0.21193 0.74523 0.0
O88 O 0.94823 0.24067 0.78964 0.0
O89 O 0.92526 0.25617 0.75934 0.0
C90 C 0.94675 0.25108 0.76827 0.0
C91 C 0.8504 0.27424 0.74962 0.0
C92 C 0.89852 0.19515 0.75779 0.0
C93 C 0.87015 0.24573 0.81747 0.0
O94 O 0.86017 0.23515 0.79917 0.0
O95 O 0.89244 0.25267 0.8161 0.0
O96 O 0.87216 0.27816 0.75841 0.0
O97 O 0.84423 0.25172 0.7455 0.0
O98 O 0.794 0.90278 0.75856 0.0
Cd99 Cd 0.76062 0.91197 0.77376 0.0
Cd100 Cd 0.74777 0.87523 0.74881 0.0
O101 O 0.77796 0.88363 0.72707 0.0
O102 O 0.76552 0.94675 0.78248 0.0
O103 O 0.73961 0.93428 0.75326 0.0
C104 C 0.75102 0.95196 0.76441 0.0
C105 C 0.70968 0.86265 0.73457 0.0
C106 C 0.79653 0.89369 0.73718 0.0
C107 C 0.75282 0.86935 0.80313 0.0
O108 O 0.75537 0.85918 0.78226 0.0
O109 O 0.75043 0.89254 0.80468 0.0
O110 O 0.7289 0.84899 0.73205 0.0
O111 O 0.71238 0.88471 0.74309 0.0
O112 O 0.20178 0.1027 0.19236 0.0
Cd113 Cd 0.18865 0.08301 0.22161 0.0
Cd114 Cd 0.2045 0.12385 0.24643 0.0
O115 O 0.22294 0.1301 0.21373 0.0
O116 O 0.18955 0.04858 0.2099 0.0
O117 O 0.21257 0.0625 0.24082 0.0
C118 C 0.20666 0.04488 0.22593 0.0
C119 C 0.21892 0.14252 0.28262 0.0
C120 C 0.21649 0.12079 0.19323 0.0
C121 C 0.14941 0.11422 0.23918 0.0
O122 O 0.16726 0.12836 0.24425 0.0
O123 O 0.15329 0.09239 0.23177 0.0
O124 O 0.21181 0.15519 0.26398 0.0
O125 O 0.21922 0.11887 0.2805 0.0
O126 O 0.90544 0.21941 0.20305 0.0
Cd127 Cd 0.91636 0.2106 0.2382 0.0
Cd128 Cd 0.87363 0.22991 0.24849 0.0
O129 O 0.87955 0.24771 0.21534 0.0
O130 O 0.95251 0.2091 0.2358 0.0
O131 O 0.93257 0.23807 0.25683 0.0
C132 C 0.95294 0.22947 0.24801 0.0
C133 C 0.85195 0.24783 0.2808 0.0
C134 C 0.89217 0.23797 0.19816 0.0
C135 C 0.87998 0.17498 0.25175 0.0
O136 O 0.86578 0.19298 0.24741 0.0
O137 O 0.9031 0.17812 0.25274 0.0
O138 O 0.84129 0.24212 0.26042 0.0
O139 O 0.87557 0.24547 0.28223 0.0
O140 O 0.79269 0.91562 0.21388 0.0
Cd141 Cd 0.80313 0.92757 0.24825 0.0
Cd142 Cd 0.78677 0.88465 0.26186 0.0
O143 O 0.76979 0.88524 0.22793 0.0
O144 O 0.80201 0.96362 0.24552 0.0
O145 O 0.77617 0.94202 0.26888 0.0
C146 C 0.78268 0.96281 0.25929 0.0
C147 C 0.768 0.86609 0.29548 0.0
C148 C 0.77736 0.89841 0.21013 0.0
C149 C 0.84152 0.89375 0.26273 0.0
O150 O 0.82394 0.87842 0.26176 0.0
O151 O 0.83734 0.91665 0.26077 0.0
O152 O 0.7752 0.85346 0.2768 0.0
O153 O 0.77017 0.88974 0.29478 0.0
O154 O 0.11899 0.78734 0.21561 0.0
Cd155 Cd 0.09665 0.80617 0.2397 0.0
Cd156 Cd 0.1224 0.78051 0.27169 0.0
O157 O 0.12423 0.75692 0.24167 0.0
O158 O 0.06451 0.81224 0.22362 0.0
O159 O 0.06966 0.78663 0.25523 0.0
C160 C 0.05547 0.7961 0.23858 0.0
C161 C 0.13136 0.76431 0.3105 0.0
C162 C 0.12665 0.76571 0.22014 0.0
C163 C 0.13231 0.83558 0.26429 0.0
O164 O 0.14007 0.81409 0.26932 0.0
O165 O 0.11144 0.83786 0.25414 0.0
O166 O 0.14734 0.76479 0.29314 0.0
O167 O 0.10927 0.77154 0.3057 0.0
O168 O 0.22869 0.89022 0.79441 0.0
Cd169 Cd 0.21535 0.90001 0.76016 0.0
Cd170 Cd 0.2395 0.86265 0.75007 0.0
O171 O 0.26097 0.87082 0.78039 0.0
O172 O 0.20402 0.9342 0.76514 0.0
O173 O 0.23601 0.92428 0.74158 0.0
C174 C 0.22264 0.94095 0.75205 0.0
C175 C 0.24936 0.85665 0.70921 0.0
C176 C 0.24983 0.88099 0.79832 0.0
C177 C 0.18693 0.85642 0.74951 0.0
O178 O 0.20635 0.84615 0.75739 0.0
O179 O 0.18717 0.87932 0.74473 0.0
O180 O 0.25526 0.84056 0.72573 0.0
O181 O 0.24093 0.87772 0.71641 0.0
O182 O 0.0871 0.22439 0.7901 0.0
Cd183 Cd 0.07917 0.21433 0.75436 0.0
Cd184 Cd 0.11739 0.23818 0.74667 0.0
O185 O 0.10679 0.25722 0.7779 0.0
O186 O 0.04316 0.20991 0.75391 0.0
O187 O 0.06244 0.24082 0.73511 0.0
C188 C 0.04218 0.23074 0.74246 0.0
C189 C 0.13063 0.2551 0.70989 0.0
C190 C 0.09564 0.24561 0.79492 0.0
C191 C 0.12127 0.18449 0.74311 0.0
O192 O 0.13211 0.20359 0.75107 0.0
O193 O 0.09831 0.18525 0.73872 0.0
O194 O 0.14416 0.25591 0.72941 0.0
O195 O 0.10837 0.24701 0.71189 0.0
O196 O 0.79595 0.09282 0.80191 0.0
Cd197 Cd 0.80645 0.08075 0.76763 0.0
Cd198 Cd 0.78776 0.12211 0.75246 0.0
O199 O 0.77243 0.12246 0.7872 0.0
O200 O 0.8041 0.04456 0.76837 0.0
O201 O 0.77902 0.06849 0.7464 0.0
C202 C 0.78494 0.04691 0.75448 0.0
C203 C 0.76673 0.13696 0.71832 0.0
C204 C 0.78049 0.10999 0.80531 0.0
C205 C 0.84285 0.11574 0.75021 0.0
O206 O 0.82449 0.13013 0.75037 0.0
O207 O 0.84002 0.09289 0.75426 0.0
O208 O 0.77385 0.15142 0.73567 0.0
O209 O 0.77017 0.11359 0.72082 0.0
O210 O 0.90697 0.79924 0.78582 0.0
Cd211 Cd 0.91585 0.80612 0.74964 0.0
Cd212 Cd 0.87498 0.78354 0.74095 0.0
O213 O 0.87976 0.77068 0.77641 0.0
O214 O 0.95212 0.80621 0.74908 0.0
O215 O 0.92933 0.77687 0.73187 0.0
C216 C 0.95067 0.78482 0.73878 0.0
C217 C 0.85945 0.75991 0.70897 0.0
C218 C 0.89257 0.78205 0.79239 0.0
C219 C 0.87706 0.83794 0.7318 0.0
O220 O 0.86397 0.81934 0.73698 0.0
O221 O 0.90039 0.83657 0.7326 0.0
O222 O 0.8459 0.76611 0.7274 0.0
O223 O 0.88261 0.7652 0.70959 0.0
O224 O 0.20058 0.24124 0.0935 0.0
Cd225 Cd 0.23115 0.2238 0.07952 0.0
Cd226 Cd 0.24952 0.24229 0.11875 0.0
O227 O 0.22062 0.26707 0.11698 0.0
O228 O 0.22214 0.2188 0.04469 0.0
O229 O 0.25263 0.24339 0.0566 0.0
C230 C 0.23877 0.23482 0.03924 0.0
C231 C 0.28953 0.25119 0.1306 0.0
C232 C 0.20058 0.26049 0.10676 0.0
C233 C 0.23903 0.18834 0.1177 0.0
O234 O 0.24018 0.20771 0.13065 0.0
O235 O 0.23888 0.18971 0.09437 0.0
O236 O 0.27146 0.25307 0.14583 0.0
O237 O 0.28474 0.24663 0.10774 0.0
O238 O 0.19018 0.79177 0.90761 0.0
Cd239 Cd 0.22478 0.79968 0.92101 0.0
Cd240 Cd 0.23898 0.77376 0.88364 0.0
O241 O 0.203 0.76184 0.88338 0.0
O242 O 0.22155 0.80276 0.9572 0.0
O243 O 0.24105 0.77182 0.93861 0.0
C244 C 0.23265 0.78176 0.95854 0.0
C245 C 0.27257 0.74906 0.87421 0.0
C246 C 0.18554 0.77421 0.89289 0.0
C247 C 0.2479 0.82811 0.8819 0.0
O248 O 0.24463 0.80833 0.86998 0.0
O249 O 0.24395 0.82871 0.90497 0.0
O250 O 0.25604 0.75416 0.85802 0.0
O251 O 0.26896 0.75598 0.89666 0.0
O252 O 0.19322 0.20207 0.89839 0.0
Cd253 Cd 0.18612 0.23766 0.90917 0.0
Cd254 Cd 0.20401 0.24764 0.86515 0.0
O255 O 0.21828 0.21264 0.86822 0.0
O256 O 0.18765 0.23709 0.94542 0.0
O257 O 0.21503 0.25668 0.92198 0.0
C258 C 0.20795 0.24928 0.94349 0.0
C259 C 0.22287 0.27868 0.84237 0.0
C260 C 0.2085 0.1962 0.88171 0.0
C261 C 0.14968 0.25387 0.87423 0.0
O262 O 0.16704 0.24975 0.85924 0.0
O263 O 0.1534 0.25309 0.8973 0.0
O264 O 0.21525 0.25873 0.83214 0.0
O265 O 0.22184 0.28028 0.86607 0.0
O266 O 0.79214 0.22518 0.89765 0.0
Cd267 Cd 0.7616 0.20973 0.91368 0.0
Cd268 Cd 0.74235 0.22286 0.8706 0.0
O269 O 0.77203 0.24662 0.87014 0.0
O270 O 0.77038 0.20989 0.94889 0.0
O271 O 0.73955 0.23195 0.93347 0.0
C272 C 0.75327 0.226 0.95198 0.0
C273 C 0.70656 0.23322 0.84922 0.0
C274 C 0.79194 0.24212 0.88159 0.0
C275 C 0.75273 0.169 0.88132 0.0
O276 O 0.75004 0.18622 0.8658 0.0
O277 O 0.75453 0.17378 0.90411 0.0
O278 O 0.72701 0.2292 0.83803 0.0
O279 O 0.70644 0.23267 0.87298 0.0
O280 O 0.79095 0.79633 0.88962 0.0
Cd281 Cd 0.80915 0.77085 0.91055 0.0
Cd282 Cd 0.79512 0.74159 0.87057 0.0
O283 O 0.77394 0.77188 0.86192 0.0
O284 O 0.81374 0.79009 0.94118 0.0
O285 O 0.79256 0.75584 0.94033 0.0
C286 C 0.80074 0.77421 0.95296 0.0
C287 C 0.78277 0.7033 0.85502 0.0
C288 C 0.77727 0.79318 0.87097 0.0
C289 C 0.84917 0.75556 0.8778 0.0
O290 O 0.83191 0.74682 0.86474 0.0
O291 O 0.84468 0.76441 0.89896 0.0
O292 O 0.78878 0.72121 0.84087 0.0
O293 O 0.78282 0.70708 0.87847 0.0
O294 O 0.78966 0.79292 0.10583 0.0
Cd295 Cd 0.76095 0.81114 0.08937 0.0
Cd296 Cd 0.73882 0.79133 0.13027 0.0
O297 O 0.76906 0.7684 0.13028 0.0
O298 O 0.77751 0.82048 0.05829 0.0
O299 O 0.7457 0.79573 0.05905 0.0
C300 C 0.76255 0.80658 0.04631 0.0
C301 C 0.7019 0.77734 0.14722 0.0
C302 C 0.78926 0.7745 0.12018 0.0
C303 C 0.74925 0.84627 0.12764 0.0
O304 O 0.74566 0.82706 0.14041 0.0
O305 O 0.75229 0.84476 0.10454 0.0
O306 O 0.72119 0.78071 0.16046 0.0
O307 O 0.70354 0.78086 0.12377 0.0
O308 O 0.23512 0.78099 0.11189 0.0
Cd309 Cd 0.2175 0.74986 0.09893 0.0
Cd310 Cd 0.24368 0.73371 0.13219 0.0
O311 O 0.26793 0.76177 0.12478 0.0
O312 O 0.20485 0.76082 0.06661 0.0
O313 O 0.23466 0.73304 0.07101 0.0
C314 C 0.22179 0.74729 0.05692 0.0
C315 C 0.25079 0.69244 0.13882 0.0
C316 C 0.25745 0.78182 0.11889 0.0
C317 C 0.19176 0.73968 0.14306 0.0
O318 O 0.21307 0.74454 0.15125 0.0
O319 O 0.18919 0.73542 0.12021 0.0
O320 O 0.25842 0.70885 0.15423 0.0
O321 O 0.24176 0.69962 0.11798 0.0
O322 O 0.78135 0.20416 0.09836 0.0
Cd323 Cd 0.79424 0.23727 0.08529 0.0
Cd324 Cd 0.77644 0.252 0.12677 0.0
O325 O 0.75417 0.22141 0.1225 0.0
O326 O 0.79553 0.23283 0.04934 0.0
O327 O 0.76956 0.25853 0.06796 0.0
C328 C 0.77716 0.24783 0.04808 0.0
C329 C 0.76372 0.28793 0.14617 0.0
C330 C 0.76208 0.20234 0.11143 0.0
C331 C 0.83108 0.24839 0.12107 0.0
O332 O 0.81277 0.24616 0.13536 0.0
O333 O 0.82803 0.24894 0.09792 0.0
O334 O 0.76526 0.26743 0.15795 0.0
O335 O 0.76725 0.28776 0.12265 0.0
O336 O 0.60212 0.69848 0.71182 0.0
Cd337 Cd 0.58512 0.72658 0.6931 0.0
Cd338 Cd 0.62639 0.75007 0.70918 0.0
O339 O 0.63141 0.71926 0.73082 0.0
O340 O 0.5528 0.71111 0.68678 0.0
O341 O 0.55672 0.74441 0.70922 0.0
C342 C 0.54247 0.72772 0.70012 0.0
C343 C 0.64029 0.78895 0.72092 0.0
C344 C 0.62034 0.69911 0.72641 0.0
C345 C 0.62121 0.73817 0.65492 0.0
O346 O 0.63465 0.74404 0.67305 0.0
O347 O 0.59869 0.73283 0.65809 0.0
O348 O 0.65517 0.77086 0.71767 0.0
O349 O 0.61697 0.78481 0.71921 0.0
O350 O 0.28258 0.58687 0.71252 0.0
Cd351 Cd 0.24791 0.57405 0.70402 0.0
Cd352 Cd 0.23491 0.61196 0.72868 0.0
O353 O 0.26998 0.61078 0.74274 0.0
O354 O 0.25246 0.53839 0.699 0.0
O355 O 0.23212 0.55431 0.73085 0.0
C356 C 0.24174 0.53541 0.72001 0.0
C357 C 0.20042 0.62316 0.75112 0.0
C358 C 0.28738 0.60103 0.73051 0.0
C359 C 0.2284 0.61358 0.67416 0.0
O360 O 0.23223 0.62565 0.69375 0.0
O361 O 0.2301 0.59025 0.67427 0.0
O362 O 0.21803 0.63846 0.74704 0.0
O363 O 0.20331 0.6005 0.74453 0.0
O364 O 0.40175 0.2873 0.72698 0.0
Cd365 Cd 0.41165 0.25291 0.7146 0.0
Cd366 Cd 0.37357 0.24164 0.73852 0.0
O367 O 0.38086 0.27337 0.75838 0.0
O368 O 0.447 0.25648 0.70761 0.0
O369 O 0.43229 0.23311 0.73791 0.0
C370 C 0.45085 0.24311 0.72686 0.0
C371 C 0.35927 0.20483 0.75451 0.0
C372 C 0.39141 0.29127 0.74756 0.0
C373 C 0.3706 0.24292 0.6837 0.0
O374 O 0.3594 0.24679 0.70382 0.0
O375 O 0.39383 0.24059 0.68345 0.0
O376 O 0.34592 0.22443 0.75486 0.0
O377 O 0.38192 0.20661 0.74746 0.0
O378 O 0.69624 0.40249 0.72456 0.0
Cd379 Cd 0.73154 0.41044 0.71333 0.0
Cd380 Cd 0.73887 0.37203 0.73557 0.0
O381 O 0.70991 0.38378 0.75731 0.0
O382 O 0.73373 0.44643 0.7106 0.0
O383 O 0.75302 0.42458 0.73957 0.0
C384 C 0.74649 0.4457 0.73069 0.0
C385 C 0.77344 0.34925 0.74639 0.0
C386 C 0.69203 0.39358 0.74576 0.0
C387 C 0.73677 0.36925 0.68233 0.0
O388 O 0.72863 0.35912 0.70172 0.0
O389 O 0.74412 0.39143 0.6829 0.0
O390 O 0.77592 0.37127 0.73776 0.0
O391 O 0.75156 0.34225 0.75228 0.0
O392 O 0.59881 0.30205 0.28722 0.0
Cd393 Cd 0.58536 0.2689 0.29944 0.0
Cd394 Cd 0.62845 0.25321 0.28495 0.0
O395 O 0.63024 0.28643 0.2668 0.0
O396 O 0.54935 0.27217 0.29725 0.0
O397 O 0.57108 0.24629 0.27399 0.0
C398 C 0.55024 0.25637 0.27953 0.0
C399 C 0.64734 0.21763 0.27041 0.0
C400 C 0.61726 0.30484 0.27316 0.0
C401 C 0.61812 0.25637 0.33939 0.0
O402 O 0.63364 0.25554 0.32203 0.0
O403 O 0.59534 0.25888 0.33482 0.0
O404 O 0.65988 0.23683 0.27628 0.0
O405 O 0.62362 0.21907 0.27085 0.0
O406 O 0.71215 0.6001 0.27155 0.0
Cd407 Cd 0.74677 0.58954 0.28285 0.0
Cd408 Cd 0.75614 0.63026 0.26328 0.0
O409 O 0.72724 0.62052 0.24051 0.0
O410 O 0.74472 0.55361 0.28654 0.0
O411 O 0.7668 0.57211 0.25731 0.0
C412 C 0.75784 0.55217 0.26677 0.0
C413 C 0.78903 0.65575 0.25282 0.0
C414 C 0.70888 0.61023 0.25074 0.0
C415 C 0.75487 0.62823 0.31681 0.0
O416 O 0.74694 0.64039 0.29852 0.0
O417 O 0.7609 0.60583 0.31412 0.0
O418 O 0.79304 0.63317 0.25904 0.0
O419 O 0.76653 0.66217 0.24912 0.0
O420 O 0.3941 0.70828 0.27032 0.0
Cd421 Cd 0.41074 0.73759 0.28748 0.0
Cd422 Cd 0.37494 0.75973 0.26766 0.0
O423 O 0.37345 0.73022 0.24367 0.0
O424 O 0.44472 0.72585 0.29258 0.0
O425 O 0.43513 0.75671 0.26741 0.0
C426 C 0.45137 0.74172 0.27624 0.0
C427 C 0.37 0.80051 0.25623 0.0
C428 C 0.38126 0.70934 0.25082 0.0
C429 C 0.37278 0.74999 0.32182 0.0
O430 O 0.36071 0.75284 0.30204 0.0
O431 O 0.39598 0.74726 0.32112 0.0
O432 O 0.35209 0.78503 0.2549 0.0
O433 O 0.39154 0.79257 0.26241 0.0
O434 O 0.29813 0.3934 0.29482 0.0
Cd435 Cd 0.2684 0.41167 0.30886 0.0
Cd436 Cd 0.24485 0.37091 0.29269 0.0
O437 O 0.2771 0.36619 0.27313 0.0
O438 O 0.27853 0.44656 0.30853 0.0
O439 O 0.2481 0.4317 0.28541 0.0
C440 C 0.26222 0.44986 0.29158 0.0
C441 C 0.20874 0.3519 0.2788 0.0
C442 C 0.29747 0.37579 0.27952 0.0
C443 C 0.25303 0.37906 0.34775 0.0
O444 O 0.24825 0.36513 0.32966 0.0
O445 O 0.25929 0.4013 0.34424 0.0
O446 O 0.22789 0.33945 0.28482 0.0
O447 O 0.21027 0.37559 0.27924 0.0
O448 O 0.72686 0.5874 0.70453 0.0
Cd449 Cd 0.71561 0.57983 0.73987 0.0
Cd450 Cd 0.73744 0.62044 0.74913 0.0
O451 O 0.75296 0.61669 0.71468 0.0
O452 O 0.71093 0.54388 0.73952 0.0
O453 O 0.74022 0.56253 0.76125 0.0
C454 C 0.73042 0.54247 0.75302 0.0
C455 C 0.75761 0.63331 0.78436 0.0
C456 C 0.74309 0.60302 0.6984 0.0
C457 C 0.68249 0.62039 0.75069 0.0
O458 O 0.70202 0.63288 0.74829 0.0
O459 O 0.68339 0.59701 0.75104 0.0
O460 O 0.75462 0.64788 0.76589 0.0
O461 O 0.75096 0.61058 0.78221 0.0
O462 O 0.38563 0.71587 0.71754 0.0
Cd463 Cd 0.40473 0.69491 0.74253 0.0
Cd464 Cd 0.36301 0.70991 0.77018 0.0
O465 O 0.35979 0.73505 0.74186 0.0
O466 O 0.43405 0.68814 0.72199 0.0
O467 O 0.43652 0.70825 0.7568 0.0
C468 C 0.44758 0.69955 0.73768 0.0
C469 C 0.34501 0.72024 0.80795 0.0
C470 C 0.36958 0.7325 0.72076 0.0
C471 C 0.36911 0.65631 0.75416 0.0
O472 O 0.35562 0.67395 0.76136 0.0
O473 O 0.39142 0.65994 0.74839 0.0
O474 O 0.3321 0.71669 0.78848 0.0
O475 O 0.36864 0.71876 0.80614 0.0
O476 O 0.29264 0.39768 0.69292 0.0
Cd477 Cd 0.29914 0.40727 0.7291 0.0
Cd478 Cd 0.27842 0.36479 0.73826 0.0
O479 O 0.26618 0.36838 0.7024 0.0
O480 O 0.29848 0.44361 0.72973 0.0
O481 O 0.26967 0.42021 0.74711 0.0
C482 C 0.27739 0.44177 0.74056 0.0
C483 C 0.25507 0.3475 0.76961 0.0
C484 C 0.27675 0.38182 0.68639 0.0
C485 C 0.33268 0.37003 0.74784 0.0
O486 O 0.31468 0.35593 0.74321 0.0
O487 O 0.33032 0.39323 0.74612 0.0
O488 O 0.26268 0.33448 0.75133 0.0
O489 O 0.25878 0.37098 0.76917 0.0
O490 O 0.59184 0.2845 0.69226 0.0
Cd491 Cd 0.58123 0.29428 0.7274 0.0
Cd492 Cd 0.62344 0.27568 0.7399 0.0
O493 O 0.62187 0.26041 0.70508 0.0
O494 O 0.54494 0.29351 0.72724 0.0
O495 O 0.56802 0.26643 0.74762 0.0
C496 C 0.5466 0.27369 0.74025 0.0
C497 C 0.63805 0.25488 0.77422 0.0
C498 C 0.60849 0.26873 0.68774 0.0
C499 C 0.61701 0.33025 0.74508 0.0
O500 O 0.63178 0.31237 0.74257 0.0
O501 O 0.59401 0.32705 0.74229 0.0
O502 O 0.65248 0.26098 0.75643 0.0
O503 O 0.61471 0.25857 0.77168 0.0
O504 O 0.72419 0.41195 0.29838 0.0
Cd505 Cd 0.71296 0.42161 0.26353 0.0
Cd506 Cd 0.73297 0.38093 0.25285 0.0
O507 O 0.75268 0.38693 0.28494 0.0
O508 O 0.71246 0.45782 0.26342 0.0
O509 O 0.73905 0.43551 0.24155 0.0
C510 C 0.73167 0.45672 0.24946 0.0
C511 C 0.74913 0.36258 0.21788 0.0
C512 C 0.74329 0.39918 0.30258 0.0
C513 C 0.67786 0.38404 0.25369 0.0
O514 O 0.69682 0.37083 0.25695 0.0
O515 O 0.67979 0.40725 0.25204 0.0
O516 O 0.74676 0.35051 0.23814 0.0
O517 O 0.74443 0.3859 0.21789 0.0
O518 O 0.59895 0.70692 0.30087 0.0
Cd519 Cd 0.587 0.69713 0.26627 0.0
Cd520 Cd 0.62343 0.72312 0.25273 0.0
O521 O 0.61806 0.73941 0.28676 0.0
O522 O 0.55103 0.6928 0.26888 0.0
O523 O 0.56882 0.72374 0.24861 0.0
C524 C 0.54915 0.71343 0.25719 0.0
C525 C 0.63444 0.74537 0.21792 0.0
C526 C 0.60903 0.7276 0.30488 0.0
C527 C 0.62737 0.6684 0.24795 0.0
O528 O 0.63874 0.68845 0.25177 0.0
O529 O 0.60404 0.66778 0.24915 0.0
O530 O 0.6494 0.74262 0.23611 0.0
O531 O 0.61224 0.73718 0.22017 0.0
O532 O 0.27852 0.60015 0.2982 0.0
Cd533 Cd 0.29027 0.58786 0.26428 0.0
Cd534 Cd 0.26349 0.62222 0.25145 0.0
O535 O 0.24406 0.61442 0.28334 0.0
O536 O 0.3003 0.55335 0.2701 0.0
O537 O 0.26691 0.56401 0.24883 0.0
C538 C 0.28005 0.54715 0.25929 0.0
C539 C 0.25031 0.62498 0.2111 0.0
C540 C 0.25647 0.60705 0.3018 0.0
C541 C 0.31592 0.63124 0.24818 0.0
O542 O 0.29602 0.6411 0.25541 0.0
O543 O 0.31701 0.60798 0.24578 0.0
O544 O 0.24464 0.64171 0.22705 0.0
O545 O 0.26078 0.60509 0.21887 0.0
O546 O 0.40083 0.25795 0.28995 0.0
Cd547 Cd 0.41326 0.27632 0.25927 0.0
Cd548 Cd 0.37431 0.25697 0.24186 0.0
O549 O 0.37797 0.23151 0.27002 0.0
O550 O 0.44801 0.28241 0.2676 0.0
O551 O 0.4363 0.25779 0.23703 0.0
C552 C 0.45362 0.26678 0.25067 0.0
C553 C 0.36209 0.24877 0.20182 0.0
C554 C 0.3885 0.2381 0.28989 0.0
C555 C 0.37388 0.31066 0.25331 0.0
O556 O 0.36151 0.2909 0.25243 0.0
O557 O 0.39721 0.31002 0.25249 0.0
O558 O 0.34728 0.24578 0.2201 0.0
O559 O 0.38485 0.25405 0.20636 0.0
O560 O 0.70981 0.69741 0.58841 0.0
Cd561 Cd 0.74478 0.68822 0.57741 0.0
Cd562 Cd 0.75665 0.70821 0.61903 0.0
O563 O 0.72215 0.72401 0.61649 0.0
O564 O 0.74364 0.68937 0.54123 0.0
O565 O 0.76476 0.71613 0.56407 0.0
C566 C 0.75626 0.70946 0.54283 0.0
C567 C 0.78971 0.72693 0.63867 0.0
C568 C 0.70496 0.71402 0.60411 0.0
C569 C 0.75933 0.65294 0.61372 0.0
O570 O 0.75689 0.67164 0.62744 0.0
O571 O 0.75808 0.65505 0.59047 0.0
O572 O 0.77009 0.72094 0.65049 0.0
O573 O 0.78996 0.72425 0.61504 0.0
O574 O 0.70018 0.29358 0.40793 0.0
Cd575 Cd 0.73605 0.30215 0.4167 0.0
Cd576 Cd 0.74336 0.28379 0.37393 0.0
O577 O 0.71183 0.26428 0.3829 0.0
O578 O 0.73686 0.30125 0.45294 0.0
O579 O 0.75568 0.2736 0.42923 0.0
C580 C 0.74853 0.28065 0.45084 0.0
C581 C 0.77639 0.26819 0.3518 0.0
C582 C 0.6951 0.27414 0.39604 0.0
C583 C 0.74739 0.33802 0.37997 0.0
O584 O 0.74023 0.32064 0.36612 0.0
O585 O 0.75089 0.33427 0.40277 0.0
O586 O 0.75517 0.27125 0.34164 0.0
O587 O 0.77834 0.27163 0.37527 0.0
O588 O 0.72491 0.70133 0.39837 0.0
Cd589 Cd 0.71064 0.73256 0.41412 0.0
Cd590 Cd 0.7272 0.75231 0.37458 0.0
O591 O 0.7502 0.72202 0.37492 0.0
O592 O 0.71089 0.72541 0.44964 0.0
O593 O 0.73488 0.75373 0.43219 0.0
C594 C 0.72866 0.74107 0.45138 0.0
C595 C 0.74112 0.79015 0.36029 0.0
C596 C 0.74376 0.7017 0.38461 0.0
C597 C 0.67258 0.74482 0.37988 0.0
O598 O 0.69089 0.7465 0.36548 0.0
O599 O 0.67586 0.74267 0.40292 0.0
O600 O 0.73825 0.7717 0.34571 0.0
O601 O 0.73724 0.78698 0.38354 0.0
O602 O 0.29275 0.71173 0.4022 0.0
Cd603 Cd 0.2615 0.69865 0.41909 0.0
Cd604 Cd 0.24072 0.71935 0.38174 0.0
O605 O 0.27381 0.73722 0.37691 0.0
O606 O 0.27047 0.69513 0.45421 0.0
O607 O 0.24282 0.72212 0.44057 0.0
C608 C 0.25555 0.71309 0.45855 0.0
C609 C 0.2027 0.73765 0.37459 0.0
C610 C 0.29357 0.72832 0.38576 0.0
C611 C 0.24327 0.66418 0.38259 0.0
O612 O 0.2412 0.68361 0.36986 0.0
O613 O 0.24815 0.66558 0.40544 0.0
O614 O 0.21826 0.73408 0.3571 0.0
O615 O 0.20919 0.73236 0.39684 0.0
O616 O 0.29227 0.28479 0.40292 0.0
Cd617 Cd 0.29852 0.24806 0.41004 0.0
Cd618 Cd 0.27447 0.24235 0.36956 0.0
O619 O 0.26264 0.27783 0.37616 0.0
O620 O 0.30175 0.24693 0.44621 0.0
O621 O 0.27006 0.23088 0.42585 0.0
C622 C 0.28 0.23732 0.44651 0.0
C623 C 0.24997 0.21059 0.35488 0.0
C624 C 0.275 0.29274 0.38934 0.0
C625 C 0.32835 0.23156 0.3688 0.0
O626 O 0.30965 0.23847 0.35666 0.0
O627 O 0.32751 0.23061 0.39218 0.0
O628 O 0.25531 0.2293 0.34132 0.0
O629 O 0.25649 0.21093 0.37775 0.0
O630 O 0.29415 0.27332 0.59687 0.0
Cd631 Cd 0.26525 0.28761 0.57737 0.0
Cd632 Cd 0.24146 0.2778 0.6197 0.0
O633 O 0.27258 0.25747 0.62748 0.0
O634 O 0.2752 0.28354 0.54265 0.0
O635 O 0.24293 0.26441 0.55911 0.0
C636 C 0.25741 0.26797 0.54055 0.0
C637 C 0.20393 0.26838 0.63853 0.0
C638 C 0.29304 0.26098 0.61667 0.0
C639 C 0.25305 0.33093 0.60572 0.0
O640 O 0.24693 0.31488 0.62149 0.0
O641 O 0.25914 0.32453 0.58407 0.0
O642 O 0.22294 0.27469 0.65108 0.0
O643 O 0.20638 0.26574 0.61504 0.0
O644 O 0.71537 0.28767 0.5973 0.0
Cd645 Cd 0.70346 0.25628 0.58023 0.0
Cd646 Cd 0.71513 0.23553 0.62401 0.0
O647 O 0.73018 0.26971 0.63063 0.0
O648 O 0.705 0.26512 0.54502 0.0
O649 O 0.72829 0.23591 0.5617 0.0
C650 C 0.7225 0.24926 0.54287 0.0
C651 C 0.73217 0.20179 0.64453 0.0
C652 C 0.72612 0.28896 0.61798 0.0
C653 C 0.66123 0.24014 0.60953 0.0
O654 O 0.6776 0.23505 0.62536 0.0
O655 O 0.66735 0.2474 0.58816 0.0
O656 O 0.72134 0.21926 0.65617 0.0
O657 O 0.73416 0.20353 0.62092 0.0
O658 O 0.25862 0.69762 0.6118 0.0
Cd659 Cd 0.27426 0.73055 0.60097 0.0
Cd660 Cd 0.24903 0.74389 0.6364 0.0
O661 O 0.22606 0.71482 0.62788 0.0
O662 O 0.28628 0.72399 0.5672 0.0
O663 O 0.2546 0.74859 0.57557 0.0
C664 C 0.26802 0.73714 0.55958 0.0
C665 C 0.24171 0.78549 0.64038 0.0
C666 C 0.23658 0.69568 0.61945 0.0
C667 C 0.30095 0.74193 0.64547 0.0
O668 O 0.28074 0.73507 0.65492 0.0
O669 O 0.30198 0.74599 0.62243 0.0
O670 O 0.2338 0.77005 0.65669 0.0
O671 O 0.25075 0.77694 0.62008 0.0
C672 C 0.97965 0.26297 0.23142 0.0
C673 C 0.97607 0.2437 0.24873 0.0
C674 C 0.02049 0.23913 0.25392 0.0
C675 C 0.02409 0.25672 0.23484 0.0
N676 N 0.00852 0.29063 0.21123 0.0
N677 N 0.99172 0.21926 0.28194 0.0
C678 C 0.00403 0.27054 0.22568 0.0
C679 C 0.99616 0.23391 0.26197 0.0
N680 N 0.95989 0.27267 0.21921 0.0
N681 N 0.04001 0.22601 0.26289 0.0
H682 H 0.97385 0.21537 0.28789 0.0
H683 H 0.0054 0.21299 0.2938 0.0
H684 H 0.05819 0.22965 0.25804 0.0
H685 H 0.03819 0.21077 0.27436 0.0
H686 H 0.96141 0.2845 0.20421 0.0
H687 H 0.94175 0.2681 0.22352 0.0
H688 H 0.99492 0.30278 0.20535 0.0
H689 H 0.0264 0.29634 0.20703 0.0
C690 C 0.77714 0.00595 0.27333 0.0
C691 C 0.7673 0.98509 0.26129 0.0
C692 C 0.74037 0.01115 0.23637 0.0
C693 C 0.75277 0.03199 0.24585 0.0
N694 N 0.77688 0.05043 0.27824 0.0
N695 N 0.73468 0.96675 0.23757 0.0
C696 C 0.76887 0.02977 0.26632 0.0
C697 C 0.74692 0.98738 0.24514 0.0
N698 N 0.79542 0.00277 0.29034 0.0
N699 N 0.72339 0.01426 0.21806 0.0
H700 H 0.73931 0.94919 0.2438 0.0
H701 H 0.71887 0.967 0.22677 0.0
H702 H 0.71766 0.03171 0.21238 0.0
H703 H 0.71535 -9e-05 0.20826 0.0
H704 H 0.80556 0.01705 0.29809 0.0
H705 H 0.80073 0.98531 0.29638 0.0
H706 H 0.78756 0.05017 0.29414 0.0
H707 H 0.77121 0.06808 0.27331 0.0
C708 C 0.01177 0.79221 0.25327 0.0
C709 C 0.02991 0.78726 0.23516 0.0
C710 C 0.99886 0.76699 0.20932 0.0
C711 C 0.98029 0.77549 0.22542 0.0
N712 N 0.96846 0.79823 0.26187 0.0
N713 N 0.04082 0.77092 0.19522 0.0
C714 C 0.98654 0.78823 0.24746 0.0
C715 C 0.02349 0.77478 0.21303 0.0
N716 N 0.01854 0.80126 0.27577 0.0
N717 N 0.99285 0.75116 0.19068 0.0
H718 H 0.05926 0.77542 0.1976 0.0
H719 H 0.03671 0.76474 0.17753 0.0
H720 H 0.97489 0.74491 0.18787 0.0
H721 H 0.00581 0.74235 0.17964 0.0
H722 H 0.00651 0.80251 0.29065 0.0
H723 H 0.03662 0.80588 0.28021 0.0
H724 H 0.97193 0.81039 0.27628 0.0
H725 H 0.94974 0.79591 0.25848 0.0
C726 C 0.24647 0.99426 0.20017 0.0
C727 C 0.23961 0.97442 0.21564 0.0
C728 C 0.21476 0.00214 0.24127 0.0
C729 C 0.22078 0.02169 0.22513 0.0
N730 N 0.24671 0.03847 0.19333 0.0
N731 N 0.22184 0.95979 0.25369 0.0
C732 C 0.23814 0.0184 0.2059 0.0
C733 C 0.22543 0.97854 0.23727 0.0
N734 N 0.26031 0.98981 0.17961 0.0
N735 N 0.19786 0.00591 0.25955 0.0
H736 H 0.22864 0.94206 0.251 0.0
H737 H 0.21365 0.96206 0.27086 0.0
H738 H 0.19046 0.02322 0.2634 0.0
H739 H 0.19027 0.99191 0.27019 0.0
H740 H 0.26353 0.00278 0.16588 0.0
H741 H 0.26791 0.97258 0.17579 0.0
H742 H 0.26093 0.03777 0.18052 0.0
H743 H 0.24095 0.05638 0.19725 0.0
C744 C 0.97439 0.74849 0.75392 0.0
C745 C 0.97297 0.76917 0.73795 0.0
C746 C 0.01791 0.77062 0.73562 0.0
C747 C 0.01893 0.75429 0.75594 0.0
N748 N -0.00066 0.72559 0.78324 0.0
N749 N 0.99255 0.79737 0.71017 0.0
C750 C 0.99755 0.74211 0.76434 0.0
C751 C 0.99459 0.77907 0.72731 0.0
N752 N 0.95364 0.73543 0.75951 0.0
N753 N 0.03932 0.77836 0.72489 0.0
H754 H 0.97552 0.80269 0.70299 0.0
H755 H 0.00733 0.80748 0.70339 0.0
H756 H 0.05655 0.77225 0.73084 0.0
H757 H 0.04011 0.78918 0.70911 0.0
H758 H 0.95371 0.71924 0.76974 0.0
H759 H 0.93653 0.73933 0.75182 0.0
H760 H 0.98425 0.71822 0.79247 0.0
H761 H 0.01628 0.71994 0.79034 0.0
C762 C 0.24981 0.00116 0.77287 0.0
C763 C 0.23256 0.01764 0.76237 0.0
C764 C 0.21321 0.98406 0.73936 0.0
C765 C 0.22931 0.96729 0.75116 0.0
N766 N 0.26651 0.95971 0.77427 0.0
N767 N 0.20261 0.02672 0.73103 0.0
C768 C 0.24901 0.97586 0.7661 0.0
C769 C 0.21584 0.00966 0.74399 0.0
N770 N 0.26584 0.00948 0.79042 0.0
N771 N 0.19491 0.97529 0.72445 0.0
H772 H 0.20443 0.04563 0.73403 0.0
H773 H 0.19146 0.02248 0.71604 0.0
H774 H 0.19357 0.95674 0.7196 0.0
H775 H 0.18067 0.98606 0.71753 0.0
H776 H 0.27692 0.99807 0.8011 0.0
H777 H 0.26733 0.02804 0.79515 0.0
H778 H 0.28252 0.96503 0.78334 0.0
H779 H 0.26605 0.94094 0.77035 0.0
C780 C 0.99878 0.23185 0.72783 0.0
C781 C 0.01825 0.24357 0.74056 0.0
C782 C 0.98886 0.26849 0.76395 0.0
C783 C 0.96954 0.25435 0.75372 0.0
N784 N 0.95476 0.22843 0.72076 0.0
N785 N 0.0326 0.27779 0.76503 0.0
C786 C 0.97405 0.2382 0.73363 0.0
C787 C 0.01351 0.26379 0.75647 0.0
N788 N 0.00417 0.21378 0.71114 0.0
N789 N 0.98348 0.28547 0.78175 0.0
H790 H 0.05086 0.27465 0.76014 0.0
H791 H 0.03042 0.29368 0.77549 0.0
H792 H 0.96537 0.29003 0.78632 0.0
H793 H 0.99658 0.29467 0.79226 0.0
H794 H 0.99116 0.20226 0.70311 0.0
H795 H 0.02222 0.20998 0.7057 0.0
H796 H 0.9567 0.21773 0.705 0.0
H797 H 0.93647 0.23267 0.72458 0.0
C798 C 0.74945 0.02083 0.76671 0.0
C799 C 0.7691 0.02533 0.75013 0.0
C800 C 0.76641 0.98312 0.73481 0.0
C801 C 0.75081 0.97741 0.75498 0.0
N802 N 0.72481 0.99025 0.78829 0.0
N803 N 0.79477 0.01258 0.71649 0.0
C804 C 0.74106 0.99627 0.77004 0.0
C805 C 0.77674 0.00711 0.73318 0.0
N806 N 0.73946 0.03998 0.77965 0.0
N807 N 0.77192 0.96535 0.71785 0.0
H808 H 0.80165 0.0304 0.71432 0.0
H809 H 0.80339 -0.00039 0.70533 0.0
H810 H 0.76473 0.94759 0.71877 0.0
H811 H 0.7819 0.96857 0.70182 0.0
H812 H 0.7241 0.0384 0.79096 0.0
H813 H 0.74553 0.05808 0.77755 0.0
H814 H 0.71885 0.0024 0.80184 0.0
H815 H 0.71765 0.97249 0.79007 0.0
C816 C 0.22517 0.26574 0.00851 0.0
C817 C 0.23957 0.24467 0.01395 0.0
C818 C 0.24209 0.23457 0.97014 0.0
C819 C 0.22351 0.25233 0.96555 0.0
N820 N 0.19915 0.28677 0.9787 0.0
N821 N 0.26432 0.21053 0.00075 0.0
C822 C 0.216 0.26891 0.98419 0.0
C823 C 0.2493 0.22984 0.99487 0.0
N824 N 0.21978 0.28214 0.02682 0.0
N825 N 0.25216 0.22187 0.95088 0.0
H826 H 0.27064 0.20761 0.01868 0.0
H827 H 0.27006 0.19718 0.98828 0.0
H828 H 0.24697 0.22498 0.93265 0.0
H829 H 0.26685 0.20971 0.95259 0.0
H830 H 0.21065 0.29873 0.024 0.0
H831 H 0.22622 0.27999 0.0448 0.0
H832 H 0.19065 0.29791 0.99175 0.0
H833 H 0.1932 0.29002 0.9607 0.0
C834 C 0.25026 0.77668 0.00078 0.0
C835 C 0.23368 0.76863 0.98233 0.0
C836 C 0.21224 0.7423 0.01212 0.0
C837 C 0.22828 0.75099 0.03076 0.0
N838 N 0.26533 0.77244 0.04267 0.0
N839 N 0.20225 0.74045 0.96854 0.0
C840 C 0.24835 0.76674 0.02495 0.0
C841 C 0.21585 0.75018 0.98739 0.0
N842 N 0.26716 0.79453 0.9953 0.0
N843 N 0.19302 0.72728 0.01836 0.0
H844 H 0.20393 0.7463 0.95033 0.0
H845 H 0.19053 0.72543 0.97047 0.0
H846 H 0.19076 0.72021 0.0361 0.0
H847 H 0.1788 0.72254 0.00643 0.0
H848 H 0.27788 0.80355 0.00838 0.0
H849 H 0.26981 0.80118 0.97746 0.0
H850 H 0.2816 0.78194 0.03923 0.0
H851 H 0.26412 0.76619 0.06078 0.0
C852 C 0.76823 0.25835 0.98038 0.0
C853 C 0.75159 0.2388 0.97584 0.0
C854 C 0.74361 0.23478 0.01994 0.0
C855 C 0.76405 0.25039 0.02446 0.0
N856 N 0.79409 0.27951 0.01023 0.0
N857 N 0.72113 0.21011 0.99001 0.0
C858 C 0.77548 0.26339 0.00501 0.0
C859 C 0.73809 0.22793 0.99526 0.0
N860 N 0.77742 0.27149 0.96098 0.0
N861 N 0.73015 0.22602 0.03932 0.0
H862 H 0.71622 0.20568 0.97195 0.0
H863 H 0.71239 0.19935 0.00323 0.0
H864 H 0.73408 0.23068 0.05753 0.0
H865 H 0.71409 0.21576 0.03742 0.0
H866 H 0.78856 0.28696 0.96283 0.0
H867 H 0.77222 0.26793 0.94281 0.0
H868 H 0.80518 0.28777 0.99699 0.0
H869 H 0.79875 0.28421 0.02829 0.0
C870 C 0.80187 0.80103 0.9905 0.0
C871 C 0.79269 0.77952 0.97891 0.0
C872 C 0.7587 0.77855 0.00888 0.0
C873 C 0.76792 0.80041 0.01992 0.0
N874 N 0.79102 0.83764 0.01294 0.0
N875 N 0.76818 0.74275 0.98409 0.0
C876 C 0.78731 0.81324 0.00818 0.0
C877 C 0.77262 0.76679 0.98995 0.0
N878 N 0.8254 0.80876 0.98619 0.0
N879 N 0.73585 0.77006 0.01499 0.0
H880 H 0.78023 0.73236 0.97339 0.0
H881 H 0.755 0.73202 0.99298 0.0
H882 H 0.7238 0.78011 0.02602 0.0
H883 H 0.72739 0.75532 0.00612 0.0
H884 H 0.83341 0.82342 0.99566 0.0
H885 H 0.83794 0.79823 0.97613 0.0
H886 H 0.80388 0.84824 0.0034 0.0
H887 H 0.77887 0.84786 0.02379 0.0
C888 C 0.5025 0.70529 0.6967 0.0
C889 C 0.51605 0.7247 0.70759 0.0
C890 C 0.4868 0.72519 0.74217 0.0
C891 C 0.47394 0.70503 0.73143 0.0
N892 N 0.47744 0.66972 0.70467 0.0
N893 N 0.51439 0.75953 0.73514 0.0
C894 C 0.4841 0.69326 0.71049 0.0
C895 C 0.50638 0.73655 0.72883 0.0
N896 N 0.50608 0.69935 0.67253 0.0
N897 N 0.48189 0.73221 0.76581 0.0
H898 H 0.52593 0.76984 0.7238 0.0
H899 H 0.50661 0.76988 0.74927 0.0
H900 H 0.47056 0.72208 0.77747 0.0
H901 H 0.49205 0.74555 0.77516 0.0
H902 H 0.49524 0.68646 0.66328 0.0
H903 H 0.51733 0.70984 0.66101 0.0
H904 H 0.48579 0.65975 0.69055 0.0
H905 H 0.4663 0.65912 0.7162 0.0
C906 C 0.27039 0.48396 0.75675 0.0
C907 C 0.26168 0.4639 0.74265 0.0
C908 C 0.23163 0.49086 0.72245 0.0
C909 C 0.24399 0.51139 0.73254 0.0
N910 N 0.27416 0.52829 0.76047 0.0
N911 N 0.23287 0.44723 0.71318 0.0
C912 C 0.26265 0.50819 0.75059 0.0
C913 C 0.24145 0.4669 0.72631 0.0
N914 N 0.28627 0.47965 0.77577 0.0
N915 N 0.21071 0.49453 0.70897 0.0
H916 H 0.23898 0.4293 0.71611 0.0
H917 H 0.22038 0.44868 0.69871 0.0
H918 H 0.2034 0.51208 0.70611 0.0
H919 H 0.1995 0.48035 0.7026 0.0
H920 H 0.29196 0.49311 0.78817 0.0
H921 H 0.29196 0.46189 0.78046 0.0
H922 H 0.28993 0.52728 0.77131 0.0
H923 H 0.2685 0.54628 0.75697 0.0
C924 C 0.48137 0.25987 0.75666 0.0
C925 C 0.47575 0.24283 0.73762 0.0
C926 C 0.51925 0.23942 0.72681 0.0
C927 C 0.52442 0.25851 0.7439 0.0
N928 N 0.51309 0.28138 0.77991 0.0
N929 N 0.48886 0.2111 0.70992 0.0
C930 C 0.5063 0.26672 0.76062 0.0
C931 C 0.49469 0.23065 0.72462 0.0
N932 N 0.46274 0.27081 0.76957 0.0
N933 N 0.53748 0.23097 0.71165 0.0
H934 H 0.47082 0.2046 0.70837 0.0
H935 H 0.50181 0.20015 0.70101 0.0
H936 H 0.55578 0.2365 0.71346 0.0
H937 H 0.53451 0.21913 0.69688 0.0
H938 H 0.46526 0.28558 0.78152 0.0
H939 H 0.44436 0.26561 0.76769 0.0
H940 H 0.50122 0.28669 0.79398 0.0
H941 H 0.5314 0.28644 0.78288 0.0
C942 C 0.73483 0.47462 0.7642 0.0
C943 C 0.75073 0.46884 0.74428 0.0
C944 C 0.76227 0.51218 0.74047 0.0
C945 C 0.74232 0.51826 0.75618 0.0
N946 N 0.71181 0.50644 0.78581 0.0
N947 N 0.78218 0.48063 0.71562 0.0
C948 C 0.72967 0.49975 0.76939 0.0
C949 C 0.76571 0.48719 0.73348 0.0
N950 N 0.7241 0.45607 0.7774 0.0
N951 N 0.77721 0.53041 0.73165 0.0
H952 H 0.78569 0.46223 0.71126 0.0
H953 H 0.79192 0.4931 0.70483 0.0
H954 H 0.7749 0.54885 0.73641 0.0
H955 H 0.79297 0.52725 0.72125 0.0
H956 H 0.71345 0.45886 0.79308 0.0
H957 H 0.72742 0.43753 0.77379 0.0
H958 H 0.69976 0.49417 0.79424 0.0
H959 H 0.70877 0.52481 0.79061 0.0
C960 C 0.48552 0.23721 0.26431 0.0
C961 C 0.47911 0.25765 0.2494 0.0
C962 C 0.52243 0.26907 0.24568 0.0
C963 C 0.52794 0.2521 0.26472 0.0
N964 N 0.51646 0.21807 0.29047 0.0
N965 N 0.49067 0.2914 0.22333 0.0
C966 C 0.51008 0.23513 0.27311 0.0
C967 C 0.49746 0.27277 0.23882 0.0
N968 N 0.46786 0.2204 0.27055 0.0
N969 N 0.54112 0.28192 0.23477 0.0
H970 H 0.47253 0.29356 0.21732 0.0
H971 H 0.50261 0.30492 0.21691 0.0
H972 H 0.55953 0.27938 0.23968 0.0
H973 H 0.53876 0.29354 0.21973 0.0
H974 H 0.4714 0.20422 0.28016 0.0
H975 H 0.44974 0.22178 0.26435 0.0
H976 H 0.50396 0.20674 0.29952 0.0
H977 H 0.53463 0.2157 0.29628 0.0
C978 C 0.73525 0.49843 0.23094 0.0
C979 C 0.74594 0.47941 0.24514 0.0
C980 C 0.77282 0.50894 0.26595 0.0
C981 C 0.75978 0.52817 0.25422 0.0
N982 N 0.73437 0.54198 0.2206 0.0
N983 N 0.77944 0.46487 0.27028 0.0
C984 C 0.74316 0.5231 0.23472 0.0
C985 C 0.76657 0.48412 0.26043 0.0
N986 N 0.71665 0.49283 0.21495 0.0
N987 N 0.79011 0.51466 0.28332 0.0
H988 H 0.77501 0.44656 0.26661 0.0
H989 H 0.79553 0.46683 0.28048 0.0
H990 H 0.79561 0.5328 0.2866 0.0
H991 H 0.79863 0.50184 0.2947 0.0
H992 H 0.70599 0.50585 0.2058 0.0
H993 H 0.71157 0.47467 0.2112 0.0
H994 H 0.72325 0.53959 0.2052 0.0
H995 H 0.73982 0.5602 0.22321 0.0
C996 C 0.50589 0.71523 0.24232 0.0
C997 C 0.52508 0.72595 0.25627 0.0
C998 C 0.49563 0.75383 0.27614 0.0
C999 C 0.47628 0.73998 0.26566 0.0
N1000 N 0.46192 0.70871 0.23763 0.0
N1001 N 0.5391 0.75577 0.28616 0.0
C1002 C 0.4811 0.7213 0.24802 0.0
C1003 C 0.5203 0.7458 0.27268 0.0
N1004 N 0.51158 0.69931 0.22367 0.0
N1005 N 0.49025 0.77438 0.28963 0.0
H1006 H 0.55748 0.75077 0.28381 0.0
H1007 H 0.53649 0.76815 0.30056 0.0
H1008 H 0.4722 0.78034 0.29247 0.0
H1009 H 0.50348 0.78662 0.29613 0.0
H1010 H 0.49871 0.69217 0.2114 0.0
H1011 H 0.52973 0.69484 0.21918 0.0
H1012 H 0.46402 0.69295 0.22695 0.0
H1013 H 0.44356 0.71362 0.24046 0.0
C1014 C 0.25114 0.51695 0.27869 0.0
C1015 C 0.27079 0.52174 0.26202 0.0
C1016 C 0.28075 0.47786 0.26031 0.0
C1017 C 0.26198 0.47332 0.27792 0.0
N1018 N 0.22525 0.48644 0.29876 0.0
N1019 N 0.30004 0.50701 0.23231 0.0
C1020 C 0.24568 0.49221 0.28526 0.0
C1021 C 0.28418 0.50217 0.25125 0.0
N1022 N 0.23893 0.53607 0.28964 0.0
N1023 N 0.2958 0.45903 0.25303 0.0
H1024 H 0.30259 0.52474 0.22533 0.0
H1025 H 0.30905 0.49348 0.22218 0.0
H1026 H 0.29285 0.44078 0.25829 0.0
H1027 H 0.31164 0.46147 0.24254 0.0
H1028 H 0.22666 0.53388 0.30421 0.0
H1029 H 0.24205 0.55447 0.28523 0.0
H1030 H 0.21134 0.49897 0.30283 0.0
H1031 H 0.22115 0.46842 0.30404 0.0
C1032 C 0.77047 0.71679 0.49991 0.0
C1033 C 0.75788 0.72553 0.52096 0.0
C1034 C 0.73278 0.75293 0.49548 0.0
C1035 C 0.74312 0.74181 0.47435 0.0
N1036 N 0.77626 0.71924 0.45554 0.0
N1037 N 0.7331 0.75698 0.54006 0.0
C1038 C 0.76378 0.726 0.47632 0.0
C1039 C 0.74128 0.74562 0.51915 0.0
N1040 N 0.78779 0.69875 0.50259 0.0
N1041 N 0.71393 0.76937 0.49274 0.0
H1042 H 0.73904 0.75188 0.55758 0.0
H1043 H 0.7221 0.77266 0.54012 0.0
H1044 H 0.70837 0.77569 0.47544 0.0
H1045 H 0.70348 0.77626 0.50723 0.0
H1046 H 0.796 0.68943 0.48801 0.0
H1047 H 0.79363 0.69277 0.51992 0.0
H1048 H 0.79235 0.70885 0.4556 0.0
H1049 H 0.77146 0.72572 0.4381 0.0
C1050 C 0.73379 0.24454 0.47487 0.0
C1051 C 0.75049 0.26453 0.47268 0.0
C1052 C 0.75725 0.2641 0.51723 0.0
C1053 C 0.73656 0.24842 0.51965 0.0
N1054 N 0.70684 0.22101 0.50188 0.0
N1055 N 0.781 0.29107 0.49044 0.0
C1056 C 0.72574 0.23732 0.49873 0.0
C1057 C 0.76355 0.2732 0.4935 0.0
N1058 N 0.72507 0.23318 0.45417 0.0
N1059 N 0.77017 0.27077 0.53777 0.0
H1060 H 0.78657 0.29695 0.47299 0.0
H1061 H 0.78961 0.3003 0.50484 0.0
H1062 H 0.76564 0.26426 0.55528 0.0
H1063 H 0.7863 0.28108 0.53742 0.0
H1064 H 0.71401 0.21755 0.4544 0.0
H1065 H 0.7306 0.23817 0.4365 0.0
H1066 H 0.69601 0.21419 0.48763 0.0
H1067 H 0.7016 0.21472 0.51929 0.0
C1068 C 0.23671 0.7175 0.50027 0.0
C1069 C 0.25517 0.72439 0.48326 0.0
C1070 C 0.27729 0.74676 0.51567 0.0
C1071 C 0.26115 0.73638 0.53328 0.0
N1072 N 0.22582 0.71115 0.54309 0.0
N1073 N 0.29253 0.74631 0.47362 0.0
C1074 C 0.24059 0.72198 0.52578 0.0
C1075 C 0.27518 0.73954 0.49058 0.0
N1076 N 0.21567 0.70644 0.492 0.0
N1077 N 0.29443 0.76365 0.52306 0.0
H1078 H 0.29076 0.74253 0.45485 0.0
H1079 H 0.30909 0.75482 0.47812 0.0
H1080 H 0.29608 0.76929 0.54137 0.0
H1081 H 0.30553 0.77357 0.51101 0.0
H1082 H 0.20042 0.70305 0.5031 0.0
H1083 H 0.21264 0.70256 0.47342 0.0
H1084 H 0.21252 0.698 0.53895 0.0
H1085 H 0.22779 0.71412 0.56195 0.0
C1086 C 0.2705 0.23262 0.51473 0.0
C1087 C 0.25522 0.25353 0.51766 0.0
C1088 C 0.24665 0.2539 0.47345 0.0
C1089 C 0.26623 0.23687 0.47005 0.0
N1090 N 0.29433 0.2071 0.48665 0.0
N1091 N 0.22672 0.28297 0.50111 0.0
C1092 C 0.27703 0.22493 0.49056 0.0
C1093 C 0.24219 0.26346 0.49743 0.0
N1094 N 0.27908 0.22065 0.53514 0.0
N1095 N 0.23285 0.26135 0.45377 0.0
H1096 H 0.22238 0.28946 0.51868 0.0
H1097 H 0.21889 0.29326 0.48697 0.0
H1098 H 0.2355 0.25463 0.43602 0.0
H1099 H 0.21727 0.27238 0.45526 0.0
H1100 H 0.28917 0.20438 0.53458 0.0
H1101 H 0.2744 0.22614 0.55297 0.0
H1102 H 0.30506 0.19929 0.50047 0.0
H1103 H 0.29821 0.20038 0.46904 0.0
C1104 C 0.1175 0.13175 0.2128 0.0
C1105 C 0.1251 0.12615 0.23695 0.0
C1106 C 0.10669 0.1646 0.25133 0.0
C1107 C 0.10672 0.17328 0.22664 0.0
N1108 N 0.11241 0.16436 0.1831 0.0
N1109 N 0.12313 0.13453 0.28014 0.0
C1110 C 0.1114 0.15649 0.20699 0.0
C1111 C 0.11768 0.14146 0.25661 0.0
N1112 N 0.11764 0.11375 0.19529 0.0
N1113 N 0.09644 0.17859 0.26953 0.0
H1114 H 0.13058 0.1172 0.28396 0.0
H1115 H 0.12114 0.146 0.29538 0.0
H1116 H 0.08787 0.19539 0.2659 0.0
H1117 H 0.09439 0.17255 0.28762 0.0
H1118 H 0.11081 0.11633 0.17754 0.0
H1119 H 0.12192 0.09554 0.19964 0.0
H1120 H 0.11842 0.15321 0.16868 0.0
H1121 H 0.10932 0.18244 0.17765 0.0
C1122 C 0.85173 0.14774 0.275 0.0
C1123 C 0.86852 0.15061 0.25522 0.0
C1124 C 0.84991 0.11547 0.23426 0.0
C1125 C 0.82923 0.11798 0.24995 0.0
N1126 N 0.81642 0.12556 0.29154 0.0
N1127 N 0.88621 0.1353 0.2175 0.0
C1128 C 0.83213 0.13057 0.27257 0.0
C1129 C 0.86891 0.13337 0.23564 0.0
N1130 N 0.85389 0.16253 0.29523 0.0
N1131 N 0.8517 0.09568 0.21889 0.0
H1132 H 0.90083 0.14771 0.21849 0.0
H1133 H 0.8855 0.1253 0.20115 0.0
H1134 H 0.83925 0.08108 0.21973 0.0
H1135 H 0.86709 0.09212 0.20802 0.0
H1136 H 0.84095 0.16349 0.30931 0.0
H1137 H 0.869 0.17418 0.29762 0.0
H1138 H 0.81782 0.13328 0.30901 0.0
H1139 H 0.80324 0.11162 0.2902 0.0
C1140 C 0.89936 0.86515 0.23973 0.0
C1141 C 0.89772 0.84401 0.25484 0.0
C1142 C 0.87149 0.86643 0.28349 0.0
C1143 C 0.86672 0.88363 0.26443 0.0
N1144 N 0.87939 0.9027 0.22633 0.0
N1145 N 0.89466 0.83035 0.29675 0.0
C1146 C 0.88231 0.88459 0.2435 0.0
C1147 C 0.88789 0.84657 0.2788 0.0
N1148 N 0.91737 0.86657 0.22229 0.0
N1149 N 0.85905 0.86849 0.30523 0.0
H1150 H 0.90834 0.81719 0.29368 0.0
H1151 H 0.8888 0.83138 0.31495 0.0
H1152 H 0.8479 0.8837 0.30899 0.0
H1153 H 0.85958 0.85542 0.31923 0.0
H1154 H 0.92057 0.88217 0.2116 0.0
H1155 H 0.93095 0.85304 0.22079 0.0
H1156 H 0.88789 0.90243 0.20914 0.0
H1157 H 0.8679 0.91781 0.2291 0.0
C1158 C 0.17168 0.88982 0.24545 0.0
C1159 C 0.19446 0.87877 0.25228 0.0
C1160 C 0.17184 0.8519 0.28025 0.0
C1161 C 0.15006 0.85657 0.26684 0.0
N1162 N 0.12727 0.88576 0.24229 0.0
N1163 N 0.21574 0.84796 0.27708 0.0
C1164 C 0.14921 0.87759 0.25136 0.0
C1165 C 0.1946 0.85993 0.27051 0.0
N1166 N 0.17168 0.91224 0.23403 0.0
N1167 N 0.17063 0.83914 0.30184 0.0
H1168 H 0.23298 0.85162 0.26968 0.0
H1169 H 0.21572 0.83249 0.28844 0.0
H1170 H 0.15373 0.8339 0.30935 0.0
H1171 H 0.18579 0.83655 0.31334 0.0
H1172 H 0.15577 0.92218 0.23012 0.0
H1173 H 0.18785 0.92209 0.23075 0.0
H1174 H 0.1258 0.89843 0.22798 0.0
H1175 H 0.11045 0.88025 0.24969 0.0
C1176 C 0.12232 0.82988 0.75438 0.0
C1177 C 0.12718 0.80585 0.74563 0.0
C1178 C 0.16708 0.81948 0.73011 0.0
C1179 C 0.16483 0.84113 0.74481 0.0
N1180 N 0.13973 0.86731 0.77084 0.0
N1181 N 0.1471 0.78283 0.71371 0.0
C1182 C 0.14205 0.84686 0.75636 0.0
C1183 C 0.14746 0.80215 0.7298 0.0
N1184 N 0.09874 0.83665 0.7598 0.0
N1185 N 0.18826 0.81518 0.71721 0.0
H1186 H 0.13161 0.77161 0.71182 0.0
H1187 H 0.16054 0.77958 0.70044 0.0
H1188 H 0.20232 0.82813 0.71582 0.0
H1189 H 0.19233 0.79865 0.70844 0.0
H1190 H 0.09377 0.85455 0.76455 0.0
H1191 H 0.08383 0.8251 0.75609 0.0
H1192 H 0.12441 0.87057 0.78192 0.0
H1193 H 0.15377 0.8801 0.77341 0.0
C1194 C 0.14918 0.12056 0.74855 0.0
C1195 C 0.17291 0.126 0.73927 0.0
C1196 C 0.15736 0.16469 0.72239 0.0
C1197 C 0.13625 0.16229 0.73778 0.0
N1198 N 0.11122 0.13716 0.76477 0.0
N1199 N 0.19493 0.14587 0.7066 0.0
C1200 C 0.13149 0.13973 0.7501 0.0
C1201 C 0.17558 0.14586 0.72266 0.0
N1202 N 0.14338 0.09697 0.75492 0.0
N1203 N 0.16019 0.18534 0.70827 0.0
H1204 H 0.20684 0.13085 0.70524 0.0
H1205 H 0.19779 0.15915 0.6931 0.0
H1206 H 0.14638 0.19855 0.70657 0.0
H1207 H 0.17611 0.18969 0.69858 0.0
H1208 H 0.12576 0.09152 0.7602 0.0
H1209 H 0.15539 0.08235 0.75151 0.0
H1210 H 0.10862 0.12217 0.77646 0.0
H1211 H 0.09776 0.15069 0.76657 0.0
C1212 C 0.89992 0.14982 0.7673 0.0
C1213 C 0.89676 0.16884 0.74979 0.0
C1214 C 0.87059 0.14187 0.72522 0.0
C1215 C 0.86734 0.12698 0.74642 0.0
N1216 N 0.88191 0.11367 0.78623 0.0
N1217 N 0.89096 0.17745 0.70687 0.0
C1218 C 0.88357 0.12944 0.76674 0.0
C1219 C 0.88603 0.16296 0.7268 0.0
N1220 N 0.91872 0.15115 0.7839 0.0
N1221 N 0.85761 0.13647 0.70437 0.0
H1222 H 0.90376 0.19177 0.70786 0.0
H1223 H 0.88431 0.17414 0.68922 0.0
H1224 H 0.84714 0.1204 0.70297 0.0
H1225 H 0.85712 0.14756 0.68877 0.0
H1226 H 0.92292 0.1371 0.79626 0.0
H1227 H 0.93196 0.16506 0.78298 0.0
H1228 H 0.89096 0.11654 0.80291 0.0
H1229 H 0.87084 0.098 0.78592 0.0
C1230 C 0.84688 0.85972 0.70537 0.0
C1231 C 0.86399 0.86085 0.7251 0.0
C1232 C 0.84251 0.89669 0.74149 0.0
C1233 C 0.82189 0.89012 0.72695 0.0
N1234 N 0.80941 0.87617 0.68692 0.0
N1235 N 0.88072 0.88285 0.75986 0.0
C1236 C 0.82569 0.87509 0.70603 0.0
C1237 C 0.86311 0.88064 0.74207 0.0
N1238 N 0.85051 0.84299 0.68697 0.0
N1239 N 0.84235 0.91835 0.7542 0.0
H1240 H 0.89644 0.87185 0.76023 0.0
H1241 H 0.8793 0.89498 0.77465 0.0
H1242 H 0.82799 0.931 0.75227 0.0
H1243 H 0.85746 0.92498 0.76398 0.0
H1244 H 0.83779 0.83916 0.67317 0.0
H1245 H 0.86678 0.83282 0.68578 0.0
H1246 H 0.8112 0.8662 0.67066 0.0
H1247 H 0.79526 0.88917 0.68654 0.0
C1248 C 0.24753 0.13648 0.16289 0.0
C1249 C 0.22262 0.13385 0.17021 0.0
C1250 C 0.20937 0.15864 0.13496 0.0
C1251 C 0.2342 0.16496 0.13054 0.0
N1252 N 0.27729 0.15947 0.13863 0.0
N1253 N 0.17962 0.14455 0.16482 0.0
C1254 C 0.25345 0.15345 0.14384 0.0
C1255 C 0.20338 0.14505 0.1564 0.0
N1256 N 0.26532 0.12259 0.17401 0.0
N1257 N 0.1915 0.1663 0.11898 0.0
H1258 H 0.17422 0.13569 0.18096 0.0
H1259 H 0.16547 0.15488 0.15704 0.0
H1260 H 0.19542 0.17663 0.10326 0.0
H1261 H 0.17329 0.16036 0.11991 0.0
H1262 H 0.28359 0.12214 0.16826 0.0
H1263 H 0.26134 0.10992 0.18791 0.0
H1264 H 0.29224 0.15424 0.14942 0.0
H1265 H 0.28191 0.17044 0.12354 0.0
C1266 C 0.87054 0.22899 0.13422 0.0
C1267 C 0.85564 0.25024 0.13235 0.0
C1268 C 0.87679 0.26892 0.16735 0.0
C1269 C 0.88778 0.24573 0.17211 0.0
N1270 N 0.90708 0.21092 0.15232 0.0
N1271 N 0.85037 0.29331 0.14045 0.0
C1272 C 0.8887 0.22802 0.15295 0.0
C1273 C 0.86098 0.27137 0.14662 0.0
N1274 N 0.8663 0.20927 0.11921 0.0
N1275 N 0.88125 0.28808 0.18301 0.0
H1276 H 0.83902 0.29502 0.125 0.0
H1277 H 0.85369 0.30985 0.14951 0.0
H1278 H 0.8946 0.28688 0.19681 0.0
H1279 H 0.87236 0.30501 0.18217 0.0
H1280 H 0.87457 0.19215 0.12181 0.0
H1281 H 0.85365 0.20987 0.10477 0.0
H1282 H 0.90924 0.19838 0.13796 0.0
H1283 H 0.92213 0.21174 0.16421 0.0
C1284 C 0.7867 0.88656 0.16624 0.0
C1285 C 0.76918 0.89252 0.1848 0.0
C1286 C 0.73589 0.87691 0.15878 0.0
C1287 C 0.75362 0.86944 0.14121 0.0
N1288 N 0.79356 0.87637 0.12334 0.0
N1289 N 0.72695 0.90096 0.19541 0.0
C1290 C 0.77819 0.87776 0.14317 0.0
C1291 C 0.74363 0.8903 0.17988 0.0
N1292 N 0.81138 0.88707 0.1712 0.0
N1293 N 0.71192 0.87 0.15573 0.0
H1294 H 0.7323 0.91127 0.21073 0.0
H1295 H 0.70812 0.90154 0.19189 0.0
H1296 H 0.70585 0.86133 0.13966 0.0
H1297 H 0.69845 0.87208 0.16922 0.0
H1298 H 0.82461 0.88005 0.1592 0.0
H1299 H 0.81877 0.89239 0.18807 0.0
H1300 H 0.8112 0.88391 0.12322 0.0
H1301 H 0.78762 0.87039 0.1061 0.0
C1302 C 0.1628 0.74006 0.20513 0.0
C1303 C 0.13992 0.75194 0.20051 0.0
C1304 C 0.14803 0.75065 0.15612 0.0
C1305 C 0.17098 0.73902 0.16086 0.0
N1306 N 0.19404 0.71306 0.18859 0.0
N1307 N 0.10698 0.75822 0.17158 0.0
C1308 C 0.17611 0.73031 0.18496 0.0
C1309 C 0.13128 0.75377 0.17592 0.0
N1310 N 0.17314 0.7398 0.22808 0.0
N1311 N 0.14258 0.76019 0.13349 0.0
H1312 H 0.09432 0.75891 0.18594 0.0
H1313 H 0.0992 0.75791 0.15402 0.0
H1314 H 0.15398 0.75873 0.1182 0.0
H1315 H 0.12722 0.77127 0.13039 0.0
H1316 H 0.19101 0.73354 0.23127 0.0
H1317 H 0.16533 0.74791 0.24354 0.0
H1318 H 0.19709 0.70465 0.20558 0.0
H1319 H 0.20381 0.70527 0.17401 0.0
C1320 C 0.27807 0.86141 0.82989 0.0
C1321 C 0.25835 0.87748 0.82435 0.0
C1322 C 0.24048 0.8706 0.86505 0.0
C1323 C 0.25621 0.84992 0.86774 0.0
N1324 N 0.29387 0.82935 0.85696 0.0
N1325 N 0.23186 0.90807 0.84217 0.0
C1326 C 0.27668 0.84693 0.85171 0.0
C1327 C 0.24317 0.8857 0.84387 0.0
N1328 N 0.29812 0.86079 0.81477 0.0
N1329 N 0.22183 0.87463 0.8814 0.0
H1330 H 0.23525 0.91992 0.8274 0.0
H1331 H 0.22183 0.91595 0.85649 0.0
H1332 H 0.2198 0.86456 0.89759 0.0
H1333 H 0.20787 0.88744 0.87845 0.0
H1334 H 0.31362 0.84999 0.81787 0.0
H1335 H 0.30018 0.87329 0.80031 0.0
H1336 H 0.30799 0.82415 0.84511 0.0
H1337 H 0.29369 0.81977 0.87364 0.0
C1338 C 0.10836 0.27741 0.82621 0.0
C1339 C 0.09712 0.2545 0.82097 0.0
C1340 C 0.10839 0.23908 0.86158 0.0
C1341 C 0.12529 0.25881 0.8635 0.0
N1342 N 0.13723 0.29978 0.85224 0.0
N1343 N 0.07352 0.22188 0.83946 0.0
C1344 C 0.1233 0.27938 0.84761 0.0
C1345 C 0.09276 0.23798 0.84066 0.0
N1346 N 0.10441 0.29688 0.81085 0.0
N1347 N 0.10886 0.22055 0.87853 0.0
H1348 H 0.06067 0.22263 0.82518 0.0
H1349 H 0.06859 0.21022 0.85386 0.0
H1350 H 0.11964 0.22154 0.89441 0.0
H1351 H 0.09923 0.2041 0.87648 0.0
H1352 H 0.11142 0.31446 0.81378 0.0
H1353 H 0.09196 0.29573 0.79623 0.0
H1354 H 0.13874 0.31471 0.84034 0.0
H1355 H 0.14766 0.30135 0.86833 0.0
C1356 C 0.79006 0.12435 0.84846 0.0
C1357 C 0.77253 0.11673 0.8305 0.0
C1358 C 0.73918 0.1344 0.85502 0.0
C1359 C 0.75695 0.14408 0.87139 0.0
N1360 N 0.79685 0.13973 0.88989 0.0
N1361 N 0.7304 0.10682 0.82091 0.0
C1362 C 0.78152 0.13573 0.87038 0.0
C1363 C 0.74698 0.11906 0.83534 0.0
N1364 N 0.81475 0.12294 0.84377 0.0
N1365 N 0.71514 0.14128 0.85756 0.0
H1366 H 0.7359 0.09519 0.80662 0.0
H1367 H 0.71157 0.10639 0.82445 0.0
H1368 H 0.70917 0.15167 0.87261 0.0
H1369 H 0.70152 0.13745 0.84462 0.0
H1370 H 0.82803 0.13106 0.85497 0.0
H1371 H 0.82215 0.11534 0.82782 0.0
H1372 H 0.81455 0.13245 0.89101 0.0
H1373 H 0.79074 0.14794 0.90614 0.0
C1374 C 0.88113 0.74235 0.84817 0.0
C1375 C 0.87276 0.76036 0.865 0.0
C1376 C 0.88459 0.79321 0.83695 0.0
C1377 C 0.89027 0.77521 0.81874 0.0
N1378 N 0.90288 0.73351 0.81012 0.0
N1379 N 0.87895 0.80128 0.88054 0.0
C1380 C 0.89166 0.74997 0.82546 0.0
C1381 C 0.87911 0.78525 0.86121 0.0
N1382 N 0.87727 0.71808 0.85341 0.0
N1383 N 0.88227 0.81752 0.83088 0.0
H1384 H 0.87599 0.79535 0.89857 0.0
H1385 H 0.88486 0.81947 0.87908 0.0
H1386 H 0.8849 0.82437 0.81318 0.0
H1387 H 0.87558 0.83071 0.8431 0.0
H1388 H 0.88005 0.70388 0.84082 0.0
H1389 H 0.8704 0.7125 0.8705 0.0
H1390 H 0.90594 0.71516 0.81473 0.0
H1391 H 0.91121 0.73889 0.79366 0.0
C1392 C 0.13514 0.25745 0.1255 0.0
C1393 C 0.137 0.27109 0.1477 0.0
C1394 C 0.17568 0.28951 0.13332 0.0
C1395 C 0.17648 0.27141 0.11464 0.0
N1396 N 0.15147 0.25095 0.08439 0.0
N1397 N 0.15523 0.30456 0.17026 0.0
C1398 C 0.15428 0.25955 0.10783 0.0
C1399 C 0.1559 0.289 0.15051 0.0
N1400 N 0.11634 0.2411 0.12214 0.0
N1401 N 0.19335 0.30737 0.13391 0.0
H1402 H 0.14002 0.30531 0.18196 0.0
H1403 H 0.16941 0.31647 0.17515 0.0
H1404 H 0.20637 0.30904 0.11985 0.0
H1405 H 0.19377 0.32174 0.14655 0.0
H1406 H 0.11591 0.22842 0.10775 0.0
H1407 H 0.10167 0.23944 0.13438 0.0
H1408 H 0.13506 0.24355 0.07776 0.0
H1409 H 0.16469 0.25426 0.07081 0.0
C1410 C 0.14486 0.78769 0.87472 0.0
C1411 C 0.15989 0.7689 0.88518 0.0
C1412 C 0.13177 0.73737 0.86954 0.0
C1413 C 0.11811 0.75602 0.85757 0.0
N1414 N 0.10511 0.79829 0.85732 0.0
N1415 N 0.16297 0.72716 0.89988 0.0
C1416 C 0.12224 0.78098 0.8635 0.0
C1417 C 0.15164 0.74411 0.88515 0.0
N1418 N 0.15302 0.81146 0.8732 0.0
N1419 N 0.1265 0.71328 0.8647 0.0
H1420 H 0.17726 0.7319 0.91182 0.0
H1421 H 0.15673 0.70915 0.90199 0.0
H1422 H 0.11123 0.70819 0.85415 0.0
H1423 H 0.13756 0.69865 0.8703 0.0
H1424 H 0.14395 0.825 0.86308 0.0
H1425 H 0.16984 0.81747 0.88009 0.0
H1426 H 0.10629 0.81662 0.86284 0.0
H1427 H 0.08836 0.79363 0.84919 0.0
C1428 C 0.19416 0.15424 0.86823 0.0
C1429 C 0.21352 0.16999 0.87625 0.0
C1430 C 0.24415 0.14039 0.86174 0.0
C1431 C 0.22489 0.12625 0.8514 0.0
N1432 N 0.18262 0.11357 0.85367 0.0
N1433 N 0.25596 0.17462 0.88807 0.0
C1434 C 0.20023 0.13095 0.85806 0.0
C1435 C 0.23827 0.16177 0.87563 0.0
N1436 N 0.17029 0.16224 0.86809 0.0
N1437 N 0.26795 0.13395 0.85689 0.0
H1438 H 0.2518 0.19016 0.8986 0.0
H1439 H 0.27415 0.16883 0.88972 0.0
H1440 H 0.27228 0.11766 0.84763 0.0
H1441 H 0.28311 0.14479 0.86137 0.0
H1442 H 0.15603 0.15264 0.85959 0.0
H1443 H 0.16474 0.1793 0.87482 0.0
H1444 H 0.16452 0.11515 0.85981 0.0
H1445 H 0.1869 0.09634 0.84637 0.0
C1446 C 0.83831 0.24161 0.8793 0.0
C1447 C 0.8157 0.25268 0.87246 0.0
C1448 C 0.83488 0.26907 0.83526 0.0
C1449 C 0.8546 0.25224 0.83878 0.0
N1450 N 0.87689 0.22427 0.86509 0.0
N1451 N 0.79746 0.28727 0.85196 0.0
C1452 C 0.85724 0.23951 0.86139 0.0
C1453 C 0.81554 0.26983 0.85287 0.0
N1454 N 0.84193 0.2342 0.90303 0.0
N1455 N 0.8344 0.28354 0.81468 0.0
H1456 H 0.78468 0.28923 0.8662 0.0
H1457 H 0.79656 0.3012 0.83884 0.0
H1458 H 0.84932 0.28465 0.80265 0.0
H1459 H 0.81938 0.29414 0.80933 0.0
H1460 H 0.85863 0.2274 0.90955 0.0
H1461 H 0.82918 0.2381 0.91688 0.0
H1462 H 0.8782 0.21223 0.87997 0.0
H1463 H 0.89135 0.22278 0.85254 0.0
C1464 C 0.78218 0.85132 0.83273 0.0
C1465 C 0.75746 0.85431 0.8252 0.0
C1466 C 0.74484 0.82024 0.852 0.0
C1467 C 0.77002 0.815 0.85648 0.0
N1468 N 0.81303 0.8231 0.84771 0.0
N1469 N 0.71492 0.84228 0.82704 0.0
C1470 C 0.78884 0.83007 0.84625 0.0
C1471 C 0.7386 0.83907 0.83485 0.0
N1472 N 0.7994 0.8686 0.8265 0.0
N1473 N 0.72706 0.80746 0.86439 0.0
H1474 H 0.70978 0.85697 0.81578 0.0
H1475 H 0.70067 0.83008 0.83095 0.0
H1476 H 0.73121 0.79358 0.87701 0.0
H1477 H 0.70841 0.81177 0.86362 0.0
H1478 H 0.81724 0.86868 0.83356 0.0
H1479 H 0.79518 0.88424 0.81618 0.0
H1480 H 0.8271 0.83189 0.83811 0.0
H1481 H 0.81898 0.80706 0.85641 0.0
C1482 C 0.83547 0.77513 0.12156 0.0
C1483 C 0.81314 0.76403 0.12912 0.0
C1484 C 0.83357 0.74828 0.16598 0.0
C1485 C 0.853 0.76536 0.16177 0.0
N1486 N 0.87358 0.79404 0.13464 0.0
N1487 N 0.79565 0.72972 0.15073 0.0
C1488 C 0.8547 0.77801 0.13898 0.0
C1489 C 0.81359 0.74724 0.14903 0.0
N1490 N 0.83844 0.78207 0.09759 0.0
N1491 N 0.83422 0.7335 0.18634 0.0
H1492 H 0.78276 0.72713 0.1367 0.0
H1493 H 0.79486 0.71627 0.16435 0.0
H1494 H 0.8497 0.73239 0.19764 0.0
H1495 H 0.81973 0.72243 0.19214 0.0
H1496 H 0.85498 0.7887 0.09052 0.0
H1497 H 0.82524 0.778 0.08421 0.0
H1498 H 0.87399 0.80587 0.11953 0.0
H1499 H 0.88808 0.79674 0.14691 0.0
C1500 C 0.28725 0.80922 0.1426 0.0
C1501 C 0.26851 0.80645 0.12462 0.0
C1502 C 0.25326 0.84789 0.1329 0.0
C1503 C 0.26904 0.84916 0.15374 0.0
N1504 N 0.30665 0.83582 0.17308 0.0
N1505 N 0.2452 0.82787 0.09379 0.0
C1506 C 0.28796 0.83129 0.15683 0.0
C1507 C 0.25551 0.82756 0.11671 0.0
N1508 N 0.30417 0.79096 0.14596 0.0
N1509 N 0.23481 0.86465 0.12954 0.0
H1510 H 0.24768 0.8133 0.08147 0.0
H1511 H 0.23696 0.84345 0.0862 0.0
H1512 H 0.23178 0.8796 0.14111 0.0
H1513 H 0.22121 0.8626 0.11614 0.0
H1514 H 0.31611 0.78997 0.16091 0.0
H1515 H 0.30693 0.77716 0.13291 0.0
H1516 H 0.32177 0.82438 0.17564 0.0
H1517 H 0.30791 0.85233 0.18281 0.0
C1518 C 0.72869 0.15653 0.1502 0.0
C1519 C 0.74813 0.13914 0.15198 0.0
C1520 C 0.76665 0.15626 0.11478 0.0
C1521 C 0.75199 0.17756 0.11803 0.0
N1522 N 0.71195 0.19244 0.12907 0.0
N1523 N 0.78447 0.12046 0.13439 0.0
C1524 C 0.7305 0.17587 0.13263 0.0
C1525 C 0.76639 0.13789 0.13335 0.0
N1526 N 0.70927 0.15492 0.1661 0.0
N1527 N 0.78 0.1533 0.0937 0.0
H1528 H 0.78459 0.10634 0.14738 0.0
H1529 H 0.79996 0.12074 0.12308 0.0
H1530 H 0.77824 0.16538 0.07885 0.0
H1531 H 0.78985 0.13736 0.08963 0.0
H1532 H 0.6954 0.16802 0.16763 0.0
H1533 H 0.70716 0.13992 0.17792 0.0
H1534 H 0.69533 0.1923 0.13857 0.0
H1535 H 0.71259 0.20527 0.11476 0.0
C1536 C 0.64872 0.63515 0.72444 0.0
C1537 C 0.659 0.63381 0.74827 0.0
C1538 C 0.63705 0.67156 0.75978 0.0
C1539 C 0.63145 0.67555 0.73457 0.0
N1540 N 0.63604 0.66254 0.69198 0.0
N1541 N 0.66247 0.64962 0.7894 0.0
C1542 C 0.63788 0.65751 0.71662 0.0
C1543 C 0.65267 0.65154 0.76633 0.0
N1544 N 0.65042 0.61548 0.70886 0.0
N1545 N 0.62736 0.68676 0.77733 0.0
H1546 H 0.67269 0.63426 0.79482 0.0
H1547 H 0.66117 0.66338 0.80269 0.0
H1548 H 0.61564 0.70135 0.77297 0.0
H1549 H 0.62918 0.68366 0.79616 0.0
H1550 H 0.64147 0.61478 0.69189 0.0
H1551 H 0.65847 0.59886 0.71408 0.0
H1552 H 0.64302 0.65095 0.67837 0.0
H1553 H 0.63025 0.6794 0.68491 0.0
C1554 C 0.32115 0.6078 0.7611 0.0
C1555 C 0.31316 0.60793 0.73621 0.0
C1556 C 0.35238 0.62654 0.72417 0.0
C1557 C 0.35675 0.63262 0.74908 0.0
N1558 N 0.34728 0.62705 0.79188 0.0
N1559 N 0.32093 0.61967 0.69368 0.0
C1560 C 0.34198 0.62214 0.76779 0.0
C1561 C 0.32894 0.61727 0.71745 0.0
N1562 N 0.30882 0.59407 0.77818 0.0
N1563 N 0.37014 0.63063 0.70687 0.0
H1564 H 0.30342 0.61473 0.68771 0.0
H1565 H 0.33092 0.62898 0.68021 0.0
H1566 H 0.38766 0.63696 0.71144 0.0
H1567 H 0.36848 0.62482 0.68865 0.0
H1568 H 0.31483 0.59181 0.79625 0.0
H1569 H 0.29383 0.58297 0.77353 0.0
H1570 H 0.33559 0.62263 0.80643 0.0
H1571 H 0.36323 0.63649 0.79702 0.0
C1572 C 0.37206 0.32202 0.77661 0.0
C1573 C 0.38695 0.31722 0.75579 0.0
C1574 C 0.37559 0.35676 0.73775 0.0
C1575 C 0.35613 0.35827 0.75503 0.0
N1576 N 0.33964 0.34732 0.79453 0.0
N1577 N 0.414 0.33675 0.72668 0.0
C1578 C 0.35601 0.34272 0.77603 0.0
C1579 C 0.39249 0.33692 0.73962 0.0
N1580 N 0.37385 0.30709 0.79674 0.0
N1581 N 0.37674 0.37297 0.71858 0.0
H1582 H 0.42739 0.32328 0.72963 0.0
H1583 H 0.41981 0.35134 0.71566 0.0
H1584 H 0.36506 0.38814 0.71721 0.0
H1585 H 0.38864 0.37083 0.70369 0.0
H1586 H 0.36392 0.30954 0.81293 0.0
H1587 H 0.38726 0.29336 0.79785 0.0
H1588 H 0.3367 0.33576 0.80951 0.0
H1589 H 0.32896 0.36331 0.79468 0.0
C1590 C 0.64223 0.35596 0.77331 0.0
C1591 C 0.62758 0.35447 0.7517 0.0
C1592 C 0.64684 0.392 0.73626 0.0
C1593 C 0.66609 0.38839 0.75344 0.0
N1594 N 0.67541 0.37707 0.79506 0.0
N1595 N 0.61301 0.37314 0.7141 0.0
C1596 C 0.6615 0.37367 0.7744 0.0
C1597 C 0.62838 0.37362 0.73399 0.0
N1598 N 0.63832 0.33955 0.79195 0.0
N1599 N 0.64627 0.41302 0.72253 0.0
H1600 H 0.59887 0.36031 0.71228 0.0
H1601 H 0.61489 0.38488 0.69905 0.0
H1602 H 0.6589 0.42722 0.72547 0.0
H1603 H 0.63188 0.41753 0.71069 0.0
H1604 H 0.64959 0.33778 0.80734 0.0
H1605 H 0.62332 0.32753 0.79177 0.0
H1606 H 0.67291 0.36749 0.81145 0.0
H1607 H 0.68822 0.39137 0.79622 0.0
C1608 C 0.64319 0.36959 0.27881 0.0
C1609 C 0.65377 0.37173 0.25521 0.0
C1610 C 0.63105 0.33534 0.24157 0.0
C1611 C 0.6257 0.32989 0.26656 0.0
N1612 N 0.62827 0.34148 0.30974 0.0
N1613 N 0.65636 0.3588 0.21307 0.0
C1614 C 0.6315 0.34722 0.28541 0.0
C1615 C 0.64681 0.35549 0.23609 0.0
N1616 N 0.64549 0.3885 0.29522 0.0
N1617 N 0.62111 0.32119 0.2233 0.0
H1618 H 0.66679 0.37433 0.20861 0.0
H1619 H 0.65458 0.34605 0.19886 0.0
H1620 H 0.60915 0.3066 0.22699 0.0
H1621 H 0.62287 0.32522 0.20463 0.0
H1622 H 0.63643 0.38892 0.31212 0.0
H1623 H 0.65437 0.40492 0.29066 0.0
H1624 H 0.63494 0.35236 0.32406 0.0
H1625 H 0.62101 0.32489 0.31598 0.0
C1626 C 0.67939 0.63115 0.22152 0.0
C1627 C 0.68328 0.61536 0.24185 0.0
C1628 C 0.64311 0.62622 0.2588 0.0
C1629 C 0.64212 0.64626 0.24203 0.0
N1630 N 0.65569 0.66497 0.2042 0.0
N1631 N 0.66272 0.58741 0.26925 0.0
C1632 C 0.65891 0.64747 0.22199 0.0
C1633 C 0.66303 0.60938 0.25708 0.0
N1634 N 0.69478 0.62971 0.2017 0.0
N1635 N 0.62639 0.62437 0.27749 0.0
H1636 H 0.67638 0.57418 0.26644 0.0
H1637 H 0.64768 0.58115 0.27937 0.0
H1638 H 0.61127 0.63604 0.2792 0.0
H1639 H 0.6282 0.61197 0.29201 0.0
H1640 H 0.69264 0.63992 0.18564 0.0
H1641 H 0.70831 0.61611 0.20048 0.0
H1642 H 0.66849 0.66888 0.1905 0.0
H1643 H 0.63993 0.67593 0.20349 0.0
C1644 C 0.36 0.64467 0.25399 0.0
C1645 C 0.33703 0.64734 0.24175 0.0
C1646 C 0.35118 0.68635 0.22363 0.0
C1647 C 0.37127 0.68594 0.24016 0.0
N1648 N 0.40196 0.65952 0.25784 0.0
N1649 N 0.31219 0.66821 0.21131 0.0
C1650 C 0.37808 0.66328 0.25102 0.0
C1651 C 0.33325 0.66727 0.22507 0.0
N1652 N 0.36388 0.6257 0.27005 0.0
N1653 N 0.35015 0.70415 0.20591 0.0
H1654 H 0.29961 0.65375 0.21079 0.0
H1655 H 0.30682 0.68334 0.20088 0.0
H1656 H 0.36471 0.71636 0.20307 0.0
H1657 H 0.33667 0.70511 0.19234 0.0
H1658 H 0.37915 0.62474 0.28162 0.0
H1659 H 0.35113 0.61173 0.2732 0.0
H1660 H 0.40859 0.64268 0.26419 0.0
H1661 H 0.41566 0.67248 0.25405 0.0
C1662 C 0.35686 0.33936 0.28408 0.0
C1663 C 0.36058 0.33358 0.259 0.0
C1664 C 0.32725 0.36158 0.24726 0.0
C1665 C 0.32067 0.36357 0.27245 0.0
N1666 N 0.32765 0.35208 0.31505 0.0
N1667 N 0.35093 0.33961 0.21628 0.0
C1668 C 0.33533 0.35231 0.29103 0.0
C1669 C 0.34642 0.34512 0.2404 0.0
N1670 N 0.3736 0.33179 0.30128 0.0
N1671 N 0.3153 0.37559 0.23011 0.0
H1672 H 0.36605 0.32903 0.21096 0.0
H1673 H 0.33952 0.34487 0.2018 0.0
H1674 H 0.30133 0.38792 0.23479 0.0
H1675 H 0.32047 0.37651 0.21167 0.0
H1676 H 0.37314 0.3374 0.31962 0.0
H1677 H 0.3894 0.32191 0.29665 0.0
H1678 H 0.33613 0.34163 0.32871 0.0
H1679 H 0.31146 0.36037 0.32115 0.0
C1680 C 0.72944 0.61113 0.65453 0.0
C1681 C 0.74875 0.6073 0.67198 0.0
C1682 C 0.77867 0.62353 0.64246 0.0
C1683 C 0.75913 0.62887 0.62616 0.0
N1684 N 0.71888 0.61834 0.61168 0.0
N1685 N 0.79223 0.60173 0.67906 0.0
C1686 C 0.73567 0.61875 0.63036 0.0
C1687 C 0.77364 0.61064 0.66467 0.0
N1688 N 0.70523 0.61032 0.6614 0.0
N1689 N 0.80162 0.63236 0.63732 0.0
H1690 H 0.78885 0.5917 0.69511 0.0
H1691 H 0.81068 0.60219 0.67387 0.0
H1692 H 0.80551 0.6411 0.62063 0.0
H1693 H 0.81621 0.63184 0.64976 0.0
H1694 H 0.69092 0.61571 0.64981 0.0
H1695 H 0.69918 0.6068 0.67921 0.0
H1696 H 0.70184 0.60965 0.61312 0.0
H1697 H 0.72333 0.62442 0.59399 0.0
C1698 C 0.3382 0.76091 0.70166 0.0
C1699 C 0.35847 0.7449 0.69877 0.0
C1700 C 0.3453 0.73443 0.65711 0.0
C1701 C 0.32244 0.7463 0.66177 0.0
N1702 N 0.29846 0.77457 0.68648 0.0
N1703 N 0.38811 0.73071 0.66912 0.0
C1704 C 0.31947 0.76108 0.68332 0.0
C1705 C 0.3643 0.73627 0.6749 0.0
N1706 N 0.33775 0.77665 0.72127 0.0
N1707 N 0.34833 0.71974 0.6369 0.0
H1708 H 0.40253 0.73422 0.68133 0.0
H1709 H 0.39379 0.72602 0.6514 0.0
H1710 H 0.3348 0.71709 0.62357 0.0
H1711 H 0.36368 0.7085 0.6344 0.0
H1712 H 0.32426 0.7899 0.72422 0.0
H1713 H 0.35268 0.77813 0.7333 0.0
H1714 H 0.2938 0.78363 0.7027 0.0
H1715 H 0.28518 0.77636 0.67278 0.0
C1716 C 0.2458 0.37857 0.65247 0.0
C1717 C 0.27083 0.37812 0.65997 0.0
C1718 C 0.28227 0.36248 0.61926 0.0
C1719 C 0.25746 0.35598 0.61533 0.0
N1720 N 0.21487 0.36177 0.62474 0.0
N1721 N 0.31363 0.37024 0.64986 0.0
C1722 C 0.23894 0.36609 0.63052 0.0
C1723 C 0.28945 0.37102 0.64292 0.0
N1724 N 0.22878 0.39056 0.66657 0.0
N1725 N 0.29896 0.35923 0.60078 0.0
H1726 H 0.31989 0.37573 0.66712 0.0
H1727 H 0.3274 0.36246 0.63902 0.0
H1728 H 0.29361 0.35328 0.58331 0.0
H1729 H 0.31719 0.36506 0.60192 0.0
H1730 H 0.21049 0.39295 0.66138 0.0
H1731 H 0.23362 0.39999 0.68259 0.0
H1732 H 0.20016 0.3659 0.63631 0.0
H1733 H 0.20996 0.35318 0.60822 0.0
C1734 C 0.6276 0.22594 0.63662 0.0
C1735 C 0.63588 0.24329 0.61909 0.0
C1736 C 0.61831 0.27695 0.64289 0.0
C1737 C 0.61292 0.26003 0.6622 0.0
N1738 N 0.60384 0.21814 0.67372 0.0
N1739 N 0.62755 0.28194 0.59942 0.0
C1740 C 0.61453 0.23432 0.6577 0.0
C1741 C 0.62687 0.26762 0.62003 0.0
N1742 N 0.63409 0.20184 0.63382 0.0
N1743 N 0.61744 0.30178 0.64683 0.0
H1744 H 0.63303 0.27487 0.58241 0.0
H1745 H 0.61987 0.2995 0.59862 0.0
H1746 H 0.61207 0.30972 0.66342 0.0
H1747 H 0.62398 0.31458 0.63412 0.0
H1748 H 0.63139 0.18841 0.64724 0.0
H1749 H 0.64302 0.1957 0.61792 0.0
H1750 H 0.60297 0.19924 0.67066 0.0
H1751 H 0.59384 0.22402 0.68904 0.0
C1752 C 0.77306 0.38046 0.33291 0.0
C1753 C 0.75136 0.39427 0.3285 0.0
C1754 C 0.73351 0.37978 0.36705 0.0
C1755 C 0.75245 0.36201 0.36841 0.0
N1756 N 0.7939 0.35023 0.35883 0.0
N1757 N 0.72006 0.41826 0.34886 0.0
C1758 C 0.77372 0.36424 0.35351 0.0
C1759 C 0.73448 0.39772 0.34811 0.0
N1760 N 0.79254 0.3829 0.31723 0.0
N1761 N 0.71399 0.37854 0.38284 0.0
H1762 H 0.72252 0.43277 0.33652 0.0
H1763 H 0.70831 0.42232 0.36348 0.0
H1764 H 0.71342 0.36604 0.39743 0.0
H1765 H 0.69816 0.38918 0.38082 0.0
H1766 H 0.80857 0.37248 0.31812 0.0
H1767 H 0.7928 0.3965 0.30363 0.0
H1768 H 0.81027 0.35058 0.34892 0.0
H1769 H 0.7944 0.33867 0.3742 0.0
C1770 C 0.62323 0.76026 0.33456 0.0
C1771 C 0.61432 0.73609 0.33057 0.0
C1772 C 0.63447 0.72173 0.36801 0.0
C1773 C 0.64777 0.74419 0.36878 0.0
N1774 N 0.65055 0.78699 0.35814 0.0
N1775 N 0.59881 0.70035 0.3518 0.0
C1776 C 0.64036 0.76438 0.35397 0.0
C1777 C 0.61574 0.71882 0.35004 0.0
N1778 N 0.61491 0.77893 0.31992 0.0
N1779 N 0.64086 0.70262 0.38305 0.0
H1780 H 0.58333 0.69968 0.34045 0.0
H1781 H 0.59812 0.6881 0.36655 0.0
H1782 H 0.65401 0.70421 0.39693 0.0
H1783 H 0.6339 0.68487 0.38094 0.0
H1784 H 0.6205 0.79718 0.32134 0.0
H1785 H 0.60077 0.77614 0.30717 0.0
H1786 H 0.64738 0.80248 0.34736 0.0
H1787 H 0.66218 0.79023 0.37312 0.0
C1788 C 0.22111 0.63687 0.35328 0.0
C1789 C 0.24143 0.64035 0.3694 0.0
C1790 C 0.26372 0.60796 0.34761 0.0
C1791 C 0.2473 0.61086 0.32758 0.0
N1792 N 0.20484 0.61649 0.31669 0.0
N1793 N 0.28148 0.62692 0.38368 0.0
C1794 C 0.22402 0.62165 0.3321 0.0
C1795 C 0.26226 0.62465 0.36764 0.0
N1796 N 0.19961 0.64902 0.35799 0.0
N1797 N 0.27998 0.58882 0.34778 0.0
H1798 H 0.28101 0.6382 0.39916 0.0
H1799 H 0.2984 0.61828 0.38096 0.0
H1800 H 0.27953 0.57509 0.33432 0.0
H1801 H 0.29129 0.58478 0.36273 0.0
H1802 H 0.18453 0.64936 0.34621 0.0
H1803 H 0.197 0.65879 0.37435 0.0
H1804 H 0.18712 0.62345 0.31875 0.0
H1805 H 0.20628 0.60312 0.30296 0.0
C1806 C 0.34772 0.20678 0.33547 0.0
C1807 C 0.35054 0.22441 0.35463 0.0
C1808 C 0.38925 0.23781 0.3362 0.0
C1809 C 0.38201 0.22625 0.31397 0.0
N1810 N 0.36347 0.19001 0.29689 0.0
N1811 N 0.37575 0.25481 0.37511 0.0
C1812 C 0.3641 0.20741 0.31501 0.0
C1813 C 0.37227 0.23881 0.35604 0.0
N1814 N 0.32871 0.19037 0.33661 0.0
N1815 N 0.41244 0.24722 0.33833 0.0
H1816 H 0.36405 0.25564 0.39029 0.0
H1817 H 0.38968 0.268 0.37533 0.0
H1818 H 0.42558 0.24475 0.3245 0.0
H1819 H 0.41943 0.25446 0.35466 0.0
H1820 H 0.3238 0.17847 0.32243 0.0
H1821 H 0.31771 0.18885 0.35229 0.0
H1822 H 0.3513 0.17523 0.29652 0.0
H1823 H 0.37705 0.18918 0.28331 0.0
C1824 C 0.67152 0.74532 0.60948 0.0
C1825 C 0.67903 0.7203 0.60971 0.0
C1826 C 0.63844 0.70856 0.62536 0.0
C1827 C 0.63398 0.73343 0.63139 0.0
N1828 N 0.64392 0.77613 0.6266 0.0
N1829 N 0.6698 0.67767 0.61957 0.0
C1830 C 0.64958 0.75207 0.62206 0.0
C1831 C 0.66233 0.70163 0.61746 0.0
N1832 N 0.68542 0.76244 0.59738 0.0
N1833 N 0.62024 0.69149 0.62828 0.0
H1834 H 0.68745 0.67158 0.61526 0.0
H1835 H 0.65911 0.66408 0.62787 0.0
H1836 H 0.60247 0.69635 0.63366 0.0
H1837 H 0.62196 0.67326 0.62256 0.0
H1838 H 0.68005 0.78069 0.59504 0.0
H1839 H 0.70138 0.75776 0.58776 0.0
H1840 H 0.65581 0.79074 0.62304 0.0
H1841 H 0.62726 0.78117 0.6348 0.0
C1842 C 0.66485 0.24075 0.38548 0.0
C1843 C 0.6692 0.26503 0.39399 0.0
C1844 C 0.62954 0.27849 0.37791 0.0
C1845 C 0.62805 0.25609 0.36466 0.0
N1846 N 0.6381 0.21326 0.36205 0.0
N1847 N 0.64902 0.30054 0.41149 0.0
C1848 C 0.6435 0.23611 0.37103 0.0
C1849 C 0.64929 0.28188 0.39467 0.0
N1850 N 0.68145 0.22268 0.39091 0.0
N1851 N 0.61336 0.29709 0.37308 0.0
H1852 H 0.66191 0.30164 0.42567 0.0
H1853 H 0.63423 0.31257 0.41357 0.0
H1854 H 0.59809 0.29475 0.36169 0.0
H1855 H 0.61562 0.31496 0.3797 0.0
H1856 H 0.68057 0.20478 0.3842 0.0
H1857 H 0.696 0.22578 0.4031 0.0
H1858 H 0.64834 0.1975 0.36565 0.0
H1859 H 0.62223 0.21011 0.35164 0.0
C1860 C 0.74308 0.63772 0.36037 0.0
C1861 C 0.75911 0.64144 0.34013 0.0
C1862 C 0.77511 0.67896 0.35924 0.0
C1863 C 0.75506 0.67818 0.37582 0.0
N1864 N 0.7315 0.65081 0.40151 0.0
N1865 N 0.79383 0.66237 0.32214 0.0
C1866 C 0.74266 0.65553 0.37949 0.0
C1867 C 0.77663 0.66084 0.34045 0.0
N1868 N 0.7272 0.61823 0.36047 0.0
N1869 N 0.79288 0.69648 0.36223 0.0
H1870 H 0.7962 0.64843 0.30913 0.0
H1871 H 0.80531 0.67747 0.31946 0.0
H1872 H 0.7928 0.70838 0.37734 0.0
H1873 H 0.80877 0.6976 0.35159 0.0
H1874 H 0.71301 0.61629 0.37322 0.0
H1875 H 0.72755 0.60453 0.34701 0.0
H1876 H 0.72341 0.63398 0.40585 0.0
H1877 H 0.73341 0.66263 0.41654 0.0
C1878 C 0.33155 0.71492 0.3632 0.0
C1879 C 0.31738 0.73422 0.37388 0.0
C1880 C 0.34466 0.76484 0.35507 0.0
C1881 C 0.35868 0.74549 0.34461 0.0
N1882 N 0.37025 0.70266 0.34488 0.0
N1883 N 0.3137 0.77701 0.38498 0.0
C1884 C 0.3539 0.72074 0.35111 0.0
C1885 C 0.32503 0.75908 0.37145 0.0
N1886 N 0.32267 0.69134 0.36243 0.0
N1887 N 0.34972 0.78861 0.34865 0.0
H1888 H 0.29951 0.77317 0.39736 0.0
H1889 H 0.31971 0.7952 0.38558 0.0
H1890 H 0.36503 0.79325 0.33799 0.0
H1891 H 0.33844 0.80345 0.35311 0.0
H1892 H 0.33103 0.6773 0.35239 0.0
H1893 H 0.30561 0.6861 0.36945 0.0
H1894 H 0.3688 0.68462 0.35124 0.0
H1895 H 0.38664 0.7062 0.33557 0.0
C1896 C 0.28813 0.33718 0.38341 0.0
C1897 C 0.26935 0.31948 0.38824 0.0
C1898 C 0.23778 0.35034 0.37929 0.0
C1899 C 0.25654 0.36665 0.37167 0.0
N1900 N 0.29787 0.38053 0.37809 0.0
N1901 N 0.22717 0.31224 0.4001 0.0
C1902 C 0.28113 0.36183 0.37829 0.0
C1903 C 0.24438 0.32716 0.38946 0.0
N1904 N 0.31226 0.33032 0.38134 0.0
N1905 N 0.21383 0.35642 0.37481 0.0
H1906 H 0.23181 0.29545 0.40823 0.0
H1907 H 0.20897 0.31752 0.40298 0.0
H1908 H 0.20906 0.37376 0.36796 0.0
H1909 H 0.19917 0.34426 0.37699 0.0
H1910 H 0.32601 0.34224 0.3753 0.0
H1911 H 0.31849 0.31237 0.38357 0.0
H1912 H 0.31594 0.3785 0.38423 0.0
H1913 H 0.29265 0.39866 0.37448 0.0
C1914 C 0.3411 0.22558 0.65298 0.0
C1915 C 0.35639 0.24523 0.66072 0.0
C1916 C 0.33173 0.27465 0.63748 0.0
C1917 C 0.31612 0.25506 0.62975 0.0
N1918 N 0.30869 0.21157 0.62545 0.0
N1919 N 0.37099 0.28662 0.65496 0.0
C1920 C 0.32172 0.23034 0.63598 0.0
C1921 C 0.3534 0.2691 0.65087 0.0
N1922 N 0.34473 0.20263 0.66256 0.0
N1923 N 0.32488 0.29866 0.63398 0.0
H1924 H 0.38694 0.28309 0.66507 0.0
H1925 H 0.371 0.30374 0.6463 0.0
H1926 H 0.30859 0.30396 0.62534 0.0
H1927 H 0.33417 0.31351 0.64178 0.0
H1928 H 0.33257 0.18802 0.66016 0.0
H1929 H 0.35987 0.19854 0.67366 0.0
H1930 H 0.3131 0.19305 0.62763 0.0
H1931 H 0.29451 0.21466 0.61285 0.0
C1932 C 0.71065 0.32961 0.63356 0.0
C1933 C 0.73073 0.31329 0.62922 0.0
C1934 C 0.7574 0.33863 0.65521 0.0
C1935 C 0.73726 0.35458 0.65962 0.0
N1936 N 0.69761 0.36993 0.64768 0.0
N1937 N 0.77438 0.30558 0.63038 0.0
C1938 C 0.71495 0.35174 0.64667 0.0
C1939 C 0.75458 0.31896 0.6382 0.0
N1940 N 0.68713 0.32305 0.62731 0.0
N1941 N 0.77871 0.34158 0.66826 0.0
H1942 H 0.77276 0.29125 0.61766 0.0
H1943 H 0.79252 0.31007 0.63468 0.0
H1944 H 0.78159 0.35649 0.68006 0.0
H1945 H 0.79297 0.32877 0.66826 0.0
H1946 H 0.67168 0.33306 0.63266 0.0
H1947 H 0.68254 0.30648 0.61883 0.0
H1948 H 0.68175 0.36995 0.63688 0.0
H1949 H 0.70044 0.38621 0.65752 0.0
C1950 C 0.23955 0.62865 0.63187 0.0
C1951 C 0.22252 0.62786 0.65166 0.0
C1952 C 0.20475 0.66711 0.63813 0.0
C1953 C 0.22577 0.67055 0.62317 0.0
N1954 N 0.25244 0.64984 0.59462 0.0
N1955 N 0.18513 0.64264 0.67015 0.0
C1956 C 0.23968 0.64962 0.61627 0.0
C1957 C 0.20348 0.64573 0.65324 0.0
N1958 N 0.25684 0.61059 0.62923 0.0
N1959 N 0.18594 0.68373 0.63708 0.0
H1960 H 0.18333 0.62636 0.6802 0.0
H1961 H 0.17206 0.65598 0.67445 0.0
H1962 H 0.18575 0.69788 0.62407 0.0
H1963 H 0.16956 0.68206 0.64685 0.0
H1964 H 0.27173 0.61197 0.61722 0.0
H1965 H 0.25679 0.59452 0.63968 0.0
H1966 H 0.26165 0.63455 0.58762 0.0
H1967 H 0.2511 0.66457 0.58233 0.0
C1968 C 0.17731 0.32079 0.29087 0.0
C1969 C 0.18542 0.33872 0.27364 0.0
C1970 C 0.15284 0.32584 0.2453 0.0
C1971 C 0.14894 0.30454 0.25993 0.0
N1972 N 0.15617 0.28197 0.29733 0.0
N1973 N 0.18135 0.35816 0.23385 0.0
C1974 C 0.16058 0.30225 0.28312 0.0
C1975 C 0.17295 0.34165 0.25089 0.0
N1976 N 0.1854 0.32177 0.31471 0.0
N1977 N 0.13763 0.33074 0.22588 0.0
H1978 H 0.19609 0.37 0.23711 0.0
H1979 H 0.17489 0.35887 0.2158 0.0
H1980 H 0.12265 0.31966 0.22139 0.0
H1981 H 0.13832 0.34707 0.21586 0.0
H1982 H 0.17867 0.31045 0.32864 0.0
H1983 H 0.19705 0.33567 0.32108 0.0
H1984 H 0.16636 0.2776 0.31298 0.0
H1985 H 0.14279 0.26895 0.29278 0.0
C1986 C 0.67606 0.16158 0.23966 0.0
C1987 C 0.69471 0.15649 0.25725 0.0
C1988 C 0.67544 0.18513 0.28612 0.0
C1989 C 0.66033 0.194 0.26671 0.0
N1990 N 0.64556 0.19079 0.225 0.0
N1991 N 0.71171 0.16181 0.29779 0.0
C1992 C 0.65999 0.18191 0.2436 0.0
C1993 C 0.69402 0.16755 0.28083 0.0
N1994 N 0.674 0.14721 0.21912 0.0
N1995 N 0.67172 0.1934 0.30962 0.0
H1996 H 0.72456 0.14781 0.29491 0.0
H1997 H 0.71424 0.17142 0.31419 0.0
H1998 H 0.65786 0.20594 0.31406 0.0
H1999 H 0.68068 0.18623 0.32497 0.0
H2000 H 0.65964 0.14873 0.20651 0.0
H2001 H 0.68535 0.13208 0.21596 0.0
H2002 H 0.64667 0.18468 0.20686 0.0
H2003 H 0.63337 0.20543 0.22739 0.0
C2004 C 0.83381 0.6702 0.24766 0.0
C2005 C 0.80867 0.67502 0.25333 0.0
C2006 C 0.8175 0.71882 0.25272 0.0
C2007 C 0.84327 0.71435 0.25137 0.0
N2008 N 0.87573 0.68382 0.25433 0.0
N2009 N 0.78109 0.70444 0.27283 0.0
C2010 C 0.85149 0.68942 0.25088 0.0
C2011 C 0.80188 0.69944 0.25962 0.0
N2012 N 0.84088 0.64797 0.23834 0.0
N2013 N 0.80725 0.74068 0.24567 0.0
H2014 H 0.77055 0.69076 0.28124 0.0
H2015 H 0.77664 0.7223 0.27837 0.0
H2016 H 0.81683 0.75415 0.23595 0.0
H2017 H 0.78823 0.74346 0.24578 0.0
H2018 H 0.85876 0.64461 0.23219 0.0
H2019 H 0.8285 0.63398 0.2341 0.0
H2020 H 0.88201 0.66574 0.25581 0.0
H2021 H 0.8889 0.697 0.25889 0.0
C2022 C 0.35534 0.8394 0.27489 0.0
C2023 C 0.3645 0.827 0.25386 0.0
C2024 C 0.34771 0.85928 0.22747 0.0
C2025 C 0.3329 0.86709 0.24745 0.0
N2026 N 0.32551 0.86876 0.2909 0.0
N2027 N 0.3725 0.82615 0.21038 0.0
C2028 C 0.33819 0.85887 0.27157 0.0
C2029 C 0.36217 0.83763 0.23022 0.0
N2030 N 0.3624 0.83178 0.29779 0.0
N2031 N 0.34732 0.87213 0.20589 0.0
H2032 H 0.38391 0.8108 0.21233 0.0
H2033 H 0.36916 0.83126 0.19221 0.0
H2034 H 0.33716 0.88828 0.20388 0.0
H2035 H 0.35875 0.8682 0.19101 0.0
H2036 H 0.3574 0.84064 0.31403 0.0
H2037 H 0.37508 0.81756 0.30028 0.0
H2038 H 0.3263 0.86207 0.30884 0.0
H2039 H 0.31367 0.88373 0.28853 0.0
C2040 C 0.14154 0.65746 0.74753 0.0
C2041 C 0.14302 0.67066 0.76999 0.0
C2042 C 0.17671 0.64428 0.78408 0.0
C2043 C 0.17686 0.63277 0.76073 0.0
N2044 N 0.15468 0.62183 0.72393 0.0
N2045 N 0.15565 0.67173 0.81246 0.0
C2046 C 0.15742 0.63697 0.74381 0.0
C2047 C 0.15845 0.66225 0.7893 0.0
N2048 N 0.12643 0.66561 0.72913 0.0
N2049 N 0.1948 0.63878 0.80067 0.0
H2050 H 0.14208 0.68469 0.81663 0.0
H2051 H 0.1651 0.66527 0.82783 0.0
H2052 H 0.20749 0.62467 0.79758 0.0
H2053 H 0.19769 0.6485 0.81694 0.0
H2054 H 0.12683 0.65872 0.71124 0.0
H2055 H 0.11424 0.68025 0.73141 0.0
H2056 H 0.1398 0.62275 0.71188 0.0
H2057 H 0.16607 0.6067 0.72088 0.0
C2058 C 0.33701 0.17715 0.78327 0.0
C2059 C 0.34745 0.18083 0.75972 0.0
C2060 C 0.32269 0.14682 0.74306 0.0
C2061 C 0.30887 0.14683 0.76514 0.0
N2062 N 0.30423 0.15883 0.80758 0.0
N2063 N 0.35255 0.16809 0.71747 0.0
C2064 C 0.31678 0.16075 0.78583 0.0
C2065 C 0.34149 0.16483 0.73985 0.0
N2066 N 0.34654 0.1896 0.80297 0.0
N2067 N 0.31737 0.13001 0.72511 0.0
H2068 H 0.36706 0.18031 0.71475 0.0
H2069 H 0.34701 0.15929 0.70138 0.0
H2070 H 0.30335 0.11702 0.72699 0.0
H2071 H 0.32789 0.12754 0.70929 0.0
H2072 H 0.34101 0.18692 0.82111 0.0
H2073 H 0.36162 0.20139 0.80122 0.0
H2074 H 0.30704 0.17025 0.8227 0.0
H2075 H 0.29038 0.1458 0.81033 0.0
C2076 C 0.78843 0.30564 0.74354 0.0
C2077 C 0.79409 0.33099 0.74639 0.0
C2078 C 0.83786 0.31955 0.74524 0.0
C2079 C 0.83147 0.29424 0.748 0.0
N2080 N 0.79848 0.26653 0.76077 0.0
N2081 N 0.82574 0.36123 0.75532 0.0
C2082 C 0.80614 0.28812 0.7504 0.0
C2083 C 0.81929 0.33785 0.74878 0.0
N2084 N 0.76681 0.29791 0.73329 0.0
N2085 N 0.86107 0.3263 0.73844 0.0
H2086 H 0.81291 0.37469 0.75999 0.0
H2087 H 0.8439 0.36625 0.75902 0.0
H2088 H 0.87459 0.31361 0.73355 0.0
H2089 H 0.86579 0.34451 0.73459 0.0
H2090 H 0.7631 0.27928 0.73032 0.0
H2091 H 0.75463 0.3098 0.72443 0.0
H2092 H 0.77985 0.2626 0.76337 0.0
H2093 H 0.8102 0.25474 0.77033 0.0
C2094 C 0.67085 0.84356 0.75037 0.0
C2095 C 0.68516 0.85172 0.73003 0.0
C2096 C 0.66257 0.82437 0.70235 0.0
C2097 C 0.65053 0.81406 0.72313 0.0
N2098 N 0.63731 0.81767 0.76514 0.0
N2099 N 0.69026 0.85584 0.68639 0.0
C2100 C 0.65253 0.82518 0.74657 0.0
C2101 C 0.67936 0.84415 0.70582 0.0
N2102 N 0.67602 0.85212 0.77347 0.0
N2103 N 0.65864 0.81441 0.67955 0.0
H2104 H 0.70237 0.87056 0.68889 0.0
H2105 H 0.68604 0.85244 0.66801 0.0
H2106 H 0.64536 0.80087 0.67641 0.0
H2107 H 0.66863 0.81905 0.66389 0.0
H2108 H 0.66848 0.84493 0.78954 0.0
H2109 H 0.68854 0.8663 0.77667 0.0
H2110 H 0.63642 0.82605 0.78234 0.0
H2111 H 0.624 0.80404 0.76258 0.0
C2112 C 0.25359 0.16789 0.33822 0.0
C2113 C 0.23861 0.18869 0.34326 0.0
C2114 C 0.20724 0.17265 0.31523 0.0
C2115 C 0.22458 0.15533 0.30608 0.0
N2116 N 0.26493 0.1368 0.30832 0.0
N2117 N 0.20061 0.2107 0.33768 0.0
C2118 C 0.24777 0.15259 0.31777 0.0
C2119 C 0.21509 0.19085 0.33229 0.0
N2120 N 0.27356 0.16298 0.35269 0.0
N2121 N 0.1832 0.17137 0.30785 0.0
H2122 H 0.20528 0.22344 0.3513 0.0
H2123 H 0.18463 0.21505 0.32801 0.0
H2124 H 0.17675 0.15768 0.296 0.0
H2125 H 0.16926 0.18219 0.31533 0.0
H2126 H 0.28393 0.14692 0.35119 0.0
H2127 H 0.27822 0.1737 0.3679 0.0
H2128 H 0.28317 0.13634 0.31423 0.0
H2129 H 0.26156 0.12541 0.29326 0.0
C2130 C 0.82241 0.27737 0.30002 0.0
C2131 C 0.83672 0.25566 0.30205 0.0
C2132 C 0.81285 0.2428 0.33832 0.0
C2133 C 0.79841 0.26442 0.3361 0.0
N2134 N 0.79303 0.30509 0.31896 0.0
N2135 N 0.8493 0.22022 0.32576 0.0
C2136 C 0.8043 0.28257 0.31817 0.0
C2137 C 0.83328 0.2393 0.32222 0.0
N2138 N 0.82583 0.29277 0.28038 0.0
N2139 N 0.80614 0.22498 0.3548 0.0
H2140 H 0.86403 0.21662 0.31403 0.0
H2141 H 0.8493 0.2091 0.34137 0.0
H2142 H 0.79135 0.22698 0.36688 0.0
H2143 H 0.81401 0.20753 0.35542 0.0
H2144 H 0.81387 0.30705 0.27586 0.0
H2145 H 0.84021 0.29058 0.26783 0.0
H2146 H 0.79826 0.32 0.30812 0.0
H2147 H 0.77976 0.30968 0.33204 0.0
C2148 C 0.77738 0.84326 0.33415 0.0
C2149 C 0.75954 0.853 0.31772 0.0
C2150 C 0.72794 0.82604 0.33492 0.0
C2151 C 0.74629 0.81466 0.3497 0.0
N2152 N 0.78645 0.81568 0.3683 0.0
N2153 N 0.7173 0.85891 0.30632 0.0
C2154 C 0.77035 0.82456 0.35111 0.0
C2155 C 0.73452 0.84619 0.31954 0.0
N2156 N 0.80124 0.85112 0.33252 0.0
N2157 N 0.7045 0.81686 0.33501 0.0
H2158 H 0.72196 0.87376 0.29504 0.0
H2159 H 0.69841 0.85616 0.3078 0.0
H2160 H 0.69892 0.80303 0.34711 0.0
H2161 H 0.69073 0.82232 0.32288 0.0
H2162 H 0.8159 0.84305 0.34182 0.0
H2163 H 0.80651 0.86566 0.32112 0.0
H2164 H 0.80376 0.82315 0.37166 0.0
H2165 H 0.78175 0.8017 0.38061 0.0
C2166 C 0.16134 0.72639 0.35922 0.0
C2167 C 0.17733 0.74492 0.36818 0.0
C2168 C 0.15142 0.77647 0.34943 0.0
C2169 C 0.13971 0.75781 0.33551 0.0
N2170 N 0.13039 0.71519 0.32882 0.0
N2171 N 0.18649 0.78761 0.37497 0.0
C2172 C 0.14325 0.73274 0.34142 0.0
C2173 C 0.17164 0.77008 0.36477 0.0
N2174 N 0.16412 0.70276 0.36733 0.0
N2175 N 0.14357 0.80023 0.34715 0.0
H2176 H 0.2008 0.78309 0.38699 0.0
H2177 H 0.18512 0.80633 0.3711 0.0
H2178 H 0.12862 0.80488 0.33599 0.0
H2179 H 0.15031 0.81475 0.35769 0.0
H2180 H 0.15233 0.6884 0.36263 0.0
H2181 H 0.17716 0.69815 0.38067 0.0
H2182 H 0.13387 0.69639 0.33013 0.0
H2183 H 0.11642 0.7198 0.31644 0.0
C2184 C 0.22262 0.82447 0.65559 0.0
C2185 C 0.24381 0.81187 0.64724 0.0
C2186 C 0.27005 0.83844 0.67241 0.0
C2187 C 0.24869 0.84891 0.68299 0.0
N2188 N 0.20602 0.85987 0.67718 0.0
N2189 N 0.28751 0.81386 0.63944 0.0
C2190 C 0.22543 0.84485 0.67179 0.0
C2191 C 0.26751 0.82148 0.65261 0.0
N2192 N 0.19986 0.81605 0.64903 0.0
N2193 N 0.29256 0.84374 0.68226 0.0
H2194 H 0.28613 0.80179 0.6246 0.0
H2195 H 0.30502 0.82136 0.6416 0.0
H2196 H 0.29478 0.85713 0.69589 0.0
H2197 H 0.30863 0.83436 0.67763 0.0
H2198 H 0.18356 0.82231 0.65695 0.0
H2199 H 0.19757 0.80195 0.63614 0.0
H2200 H 0.18901 0.85864 0.66843 0.0
H2201 H 0.20769 0.8752 0.68858 0.0
C2202 C 0.16654 0.24447 0.65217 0.0
C2203 C 0.17976 0.26691 0.65101 0.0
C2204 C 0.15379 0.28457 0.68338 0.0
C2205 C 0.14176 0.26157 0.6858 0.0
N2206 N 0.13012 0.22316 0.66659 0.0
N2207 N 0.1809 0.31052 0.65911 0.0
C2208 C 0.1458 0.24275 0.66807 0.0
C2209 C 0.17162 0.28775 0.66453 0.0
N2210 N 0.17477 0.22433 0.63953 0.0
N2211 N 0.14866 0.30303 0.6997 0.0
H2212 H 0.19358 0.31336 0.64494 0.0
H2213 H 0.1744 0.32677 0.66691 0.0
H2214 H 0.13439 0.30171 0.71251 0.0
H2215 H 0.15893 0.31916 0.70108 0.0
H2216 H 0.16781 0.20666 0.64218 0.0
H2217 H 0.18974 0.22495 0.62753 0.0
H2218 H 0.13101 0.21001 0.65266 0.0
H2219 H 0.11464 0.22132 0.67772 0.0
C2220 C 0.73166 0.15175 0.6924 0.0
C2221 C 0.75719 0.14762 0.69525 0.0
C2222 C 0.76632 0.17503 0.6606 0.0
C2223 C 0.7408 0.18004 0.65842 0.0
N2224 N 0.69888 0.16834 0.66692 0.0
N2225 N 0.79819 0.14931 0.67855 0.0
C2226 C 0.72335 0.16671 0.67261 0.0
C2227 C 0.7743 0.1572 0.67802 0.0
N2228 N 0.71554 0.14226 0.70924 0.0
N2229 N 0.78297 0.18844 0.64732 0.0
H2230 H 0.80442 0.13626 0.69121 0.0
H2231 H 0.81117 0.15386 0.66521 0.0
H2232 H 0.77782 0.20142 0.63416 0.0
H2233 H 0.80189 0.18779 0.6503 0.0
H2234 H 0.69698 0.14698 0.71001 0.0
H2235 H 0.72109 0.13039 0.7233 0.0
H2236 H 0.68532 0.15761 0.67518 0.0
H2237 H 0.69239 0.17888 0.6522 0.0
C2238 C 0.82305 0.75709 0.65021 0.0
C2239 C 0.81212 0.73354 0.65267 0.0
C2240 C 0.8375 0.72484 0.68896 0.0
C2241 C 0.84774 0.74871 0.6871 0.0
N2242 N 0.85597 0.7847 0.66247 0.0
N2243 N 0.81421 0.69234 0.6691 0.0
C2244 C 0.84253 0.76382 0.6664 0.0
C2245 C 0.82109 0.71653 0.67039 0.0
N2246 N 0.81383 0.77353 0.63353 0.0
N2247 N 0.84293 0.71046 0.70889 0.0
H2248 H 0.80269 0.68556 0.65528 0.0
H2249 H 0.82171 0.67857 0.68013 0.0
H2250 H 0.8561 0.71549 0.72197 0.0
H2251 H 0.83373 0.69416 0.71301 0.0
H2252 H 0.81901 0.79198 0.63287 0.0
H2253 H 0.79972 0.76915 0.62128 0.0
H2254 H 0.85451 0.79541 0.64663 0.0
H2255 H 0.87034 0.79005 0.67399 0.0
C2256 C 0.32575 0.22813 0.14646 0.0
C2257 C 0.31494 0.25112 0.14042 0.0
C2258 C 0.34524 0.27217 0.16624 0.0
C2259 C 0.35185 0.24912 0.17657 0.0
N2260 N 0.35059 0.20495 0.17562 0.0
N2261 N 0.31519 0.29526 0.14239 0.0
C2262 C 0.34313 0.22697 0.16602 0.0
C2263 C 0.3253 0.27329 0.14928 0.0
N2264 N 0.31893 0.20749 0.13383 0.0
N2265 N 0.35768 0.29291 0.17311 0.0
H2266 H 0.30138 0.29642 0.12906 0.0
H2267 H 0.31978 0.31208 0.15035 0.0
H2268 H 0.37242 0.29241 0.18538 0.0
H2269 H 0.35498 0.31008 0.16504 0.0
H2270 H 0.3273 0.1904 0.13608 0.0
H2271 H 0.30633 0.20804 0.11935 0.0
H2272 H 0.34281 0.18808 0.17092 0.0
H2273 H 0.36424 0.20379 0.18912 0.0
C2274 C 0.33404 0.74741 0.84389 0.0
C2275 C 0.33223 0.72443 0.83165 0.0
C2276 C 0.29532 0.714 0.85533 0.0
C2277 C 0.29592 0.73776 0.86596 0.0
N2278 N 0.3196 0.77355 0.87716 0.0
N2279 N 0.31667 0.68295 0.83123 0.0
C2280 C 0.31675 0.75316 0.86272 0.0
C2281 C 0.3147 0.70669 0.83937 0.0
N2282 N 0.35095 0.76441 0.83628 0.0
N2283 N 0.27562 0.69898 0.85971 0.0
H2284 H 0.33104 0.67719 0.81982 0.0
H2285 H 0.3056 0.66861 0.83747 0.0
H2286 H 0.26196 0.70351 0.87247 0.0
H2287 H 0.27241 0.6826 0.85029 0.0
H2288 H 0.3511 0.78263 0.84225 0.0
H2289 H 0.36415 0.76069 0.82285 0.0
H2290 H 0.33535 0.78448 0.87706 0.0
H2291 H 0.3072 0.77817 0.89105 0.0
C2292 C 0.25327 0.31103 0.8286 0.0
C2293 C 0.22971 0.29997 0.82672 0.0
C2294 C 0.22082 0.32406 0.78953 0.0
C2295 C 0.2444 0.33496 0.7913 0.0
N2296 N 0.28042 0.34402 0.81561 0.0
N2297 N 0.18846 0.30134 0.81015 0.0
C2298 C 0.25968 0.33027 0.812 0.0
C2299 C 0.21265 0.30818 0.80862 0.0
N2300 N 0.27007 0.30213 0.8451 0.0
N2301 N 0.2065 0.32844 0.7693 0.0
H2302 H 0.18165 0.29036 0.82436 0.0
H2303 H 0.17471 0.30851 0.79888 0.0
H2304 H 0.21136 0.34115 0.75572 0.0
H2305 H 0.19049 0.31865 0.76538 0.0
H2306 H 0.28848 0.30747 0.84535 0.0
H2307 H 0.26615 0.28796 0.85742 0.0
H2308 H 0.2911 0.34307 0.83152 0.0
H2309 H 0.28568 0.35812 0.80372 0.0
C2310 C 0.65123 0.26235 0.81761 0.0
C2311 C 0.64888 0.24581 0.7975 0.0
C2312 C 0.67758 0.21745 0.81744 0.0
C2313 C 0.68381 0.23622 0.83454 0.0
N2314 N 0.6769 0.27679 0.8512 0.0
N2315 N 0.65854 0.20708 0.77835 0.0
C2316 C 0.67034 0.25856 0.83513 0.0
C2317 C 0.66145 0.223 0.79763 0.0
N2318 N 0.63553 0.28189 0.81965 0.0
N2319 N 0.68697 0.19428 0.82042 0.0
H2320 H 0.64567 0.21006 0.76438 0.0
H2321 H 0.66944 0.19154 0.77569 0.0
H2322 H 0.69841 0.18961 0.83514 0.0
H2323 H 0.68164 0.17922 0.80983 0.0
H2324 H 0.63492 0.29342 0.83495 0.0
H2325 H 0.6214 0.28515 0.80709 0.0
H2326 H 0.66986 0.2946 0.85046 0.0
H2327 H 0.69065 0.27463 0.86441 0.0
C2328 C 0.79039 0.64946 0.81203 0.0
C2329 C 0.7653 0.64377 0.80824 0.0
C2330 C 0.75351 0.66964 0.84336 0.0
C2331 C 0.77785 0.67892 0.84392 0.0
N2332 N 0.82052 0.67556 0.8325 0.0
N2333 N 0.7229 0.64579 0.82102 0.0
C2334 C 0.79673 0.6678 0.82963 0.0
C2335 C 0.74689 0.65257 0.82459 0.0
N2336 N 0.80786 0.63745 0.79847 0.0
N2337 N 0.73673 0.67765 0.86032 0.0
H2338 H 0.71772 0.63254 0.80812 0.0
H2339 H 0.70802 0.65362 0.83018 0.0
H2340 H 0.74109 0.69045 0.87394 0.0
H2341 H 0.71911 0.6704 0.86222 0.0
H2342 H 0.82673 0.63966 0.80074 0.0
H2343 H 0.80327 0.62378 0.78574 0.0
H2344 H 0.83509 0.67018 0.82131 0.0
H2345 H 0.82572 0.68783 0.84637 0.0
C2346 C 0.66792 0.74774 0.15772 0.0
C2347 C 0.67832 0.77159 0.15953 0.0
C2348 C 0.65253 0.78093 0.1953 0.0
C2349 C 0.64368 0.75643 0.1948 0.0
N2350 N 0.63651 0.71918 0.17177 0.0
N2351 N 0.67554 0.81317 0.17449 0.0
C2352 C 0.64905 0.7408 0.17455 0.0
C2353 C 0.66881 0.789 0.17649 0.0
N2354 N 0.67723 0.73128 0.14112 0.0
N2355 N 0.64607 0.79605 0.21436 0.0
H2356 H 0.68722 0.81945 0.16058 0.0
H2357 H 0.66799 0.82727 0.18506 0.0
H2358 H 0.63296 0.79098 0.22748 0.0
H2359 H 0.65409 0.81314 0.21763 0.0
H2360 H 0.67268 0.71267 0.14089 0.0
H2361 H 0.69059 0.73605 0.12818 0.0
H2362 H 0.63819 0.70783 0.15641 0.0
H2363 H 0.62262 0.71368 0.18378 0.0
C2364 C 0.2702 0.6344 0.17078 0.0
C2365 C 0.24823 0.63093 0.18448 0.0
C2366 C 0.22635 0.6574 0.15532 0.0
C2367 C 0.2494 0.66651 0.14709 0.0
N2368 N 0.29328 0.66216 0.14438 0.0
N2369 N 0.20444 0.63555 0.18769 0.0
C2370 C 0.27133 0.65412 0.15361 0.0
C2371 C 0.22585 0.64089 0.17564 0.0
N2372 N 0.28998 0.6194 0.17461 0.0
N2373 N 0.20514 0.6652 0.14432 0.0
H2374 H 0.20376 0.62247 0.20177 0.0
H2375 H 0.18781 0.64443 0.1843 0.0
H2376 H 0.20513 0.67728 0.12941 0.0
H2377 H 0.18783 0.6581 0.14848 0.0
H2378 H 0.30601 0.62025 0.16412 0.0
H2379 H 0.28933 0.6043 0.1864 0.0
H2380 H 0.31031 0.65608 0.15075 0.0
H2381 H 0.29423 0.67579 0.13085 0.0
C2382 C 0.77833 0.33761 0.1931 0.0
C2383 C 0.75505 0.34903 0.19504 0.0
C2384 C 0.74014 0.32552 0.15935 0.0
C2385 C 0.7619 0.31119 0.16027 0.0
N2386 N 0.80255 0.30388 0.17676 0.0
N2387 N 0.71352 0.35463 0.18034 0.0
C2388 C 0.78139 0.31755 0.1766 0.0
C2389 C 0.73603 0.34364 0.17787 0.0
N2390 N 0.79747 0.34622 0.20702 0.0
N2391 N 0.7233 0.32146 0.14109 0.0
H2392 H 0.71004 0.36848 0.19316 0.0
H2393 H 0.69791 0.34932 0.17057 0.0
H2394 H 0.72546 0.30774 0.12782 0.0
H2395 H 0.70817 0.33277 0.13788 0.0
H2396 H 0.81557 0.34024 0.20523 0.0
H2397 H 0.79554 0.36111 0.21904 0.0
H2398 H 0.81624 0.30547 0.19007 0.0
H2399 H 0.80611 0.29007 0.16392 0.0
loop_
_geom_bond_atom_site_label_1
_geom_bond_atom_site_label_2
_geom_bond_distance
_geom_bond_site_symmetry_2
_ccdc_geom_bond_type
O0 Cd1 2.223 . S
O0 C8 1.315 . S
Cd1 O0 2.223 . S
Cd1 O4 2.297 . S
Cd1 O5 2.439 . S
Cd1 O11 2.240 . S
Cd2 O3 2.240 . S
Cd2 O10 2.223 . S
Cd2 O12 2.297 . S
Cd2 O13 2.439 . S
O3 Cd2 2.240 . S
O3 C8 1.279 . S
O4 Cd1 2.297 . S
O4 C6 1.247 . S
O5 Cd1 2.439 . S
O5 C6 1.208 . S
C6 O4 1.247 . S
C6 O5 1.208 . S
C7 O12 1.247 . S
C7 O13 1.208 . S
C8 O0 1.315 . S
C8 O3 1.279 . S
C9 O10 1.315 . S
C9 O11 1.279 . S
O10 Cd2 2.223 . S
O10 C9 1.315 . S
O11 Cd1 2.240 . S
O11 C9 1.279 . S
O12 Cd2 2.297 . S
O12 C7 1.247 . S
O13 Cd2 2.439 . S
O13 C7 1.208 . S
O14 Cd15 2.223 . S
O14 C22 1.315 . S
Cd15 O14 2.223 . S
Cd15 O18 2.297 . S
Cd15 O19 2.439 . S
Cd15 O25 2.240 . S
Cd16 O17 2.240 . S
Cd16 O24 2.223 . S
Cd16 O26 2.297 . S
Cd16 O27 2.439 . S
O17 Cd16 2.240 . S
O17 C22 1.279 . S
O18 Cd15 2.297 . S
O18 C20 1.247 . S
O19 Cd15 2.439 . S
O19 C20 1.208 . S
C20 O18 1.247 . S
C20 O19 1.208 . S
C21 O26 1.247 . S
C21 O27 1.208 . S
C22 O14 1.315 . S
C22 O17 1.279 . S
C23 O24 1.315 . S
C23 O25 1.279 . S
O24 Cd16 2.223 . S
O24 C23 1.315 . S
O25 Cd15 2.240 . S
O25 C23 1.279 . S
O26 Cd16 2.297 . S
O26 C21 1.247 . S
O27 Cd16 2.439 . S
O27 C21 1.208 . S
O28 Cd29 2.223 . S
O28 C36 1.315 . S
Cd29 O28 2.223 . S
Cd29 O32 2.297 . S
Cd29 O33 2.439 . S
Cd29 O39 2.240 . S
Cd30 O31 2.240 . S
Cd30 O38 2.223 . S
Cd30 O40 2.297 . S
Cd30 O41 2.439 . S
O31 Cd30 2.240 . S
O31 C36 1.279 . S
O32 Cd29 2.297 . S
O32 C34 1.247 . S
O33 Cd29 2.439 . S
O33 C34 1.208 . S
C34 O32 1.247 . S
C34 O33 1.208 . S
C35 O40 1.247 . S
C35 O41 1.208 . S
C36 O28 1.315 . S
C36 O31 1.279 . S
C37 O38 1.315 . S
C37 O39 1.279 . S
O38 Cd30 2.223 . S
O38 C37 1.315 . S
O39 Cd29 2.240 . S
O39 C37 1.279 . S
O40 Cd30 2.297 . S
O40 C35 1.247 . S
O41 Cd30 2.439 . S
O41 C35 1.208 . S
O42 Cd43 2.223 . S
O42 C50 1.315 . S
Cd43 O42 2.223 . S
Cd43 O46 2.297 . S
Cd43 O47 2.439 . S
Cd43 O53 2.240 . S
Cd44 O45 2.240 . S
Cd44 O52 2.223 . S
Cd44 O54 2.297 . S
Cd44 O55 2.439 . S
O45 Cd44 2.240 . S
O45 C50 1.279 . S
O46 Cd43 2.297 . S
O46 C48 1.247 . S
O47 Cd43 2.439 . S
O47 C48 1.208 . S
C48 O46 1.247 . S
C48 O47 1.208 . S
C49 O54 1.247 . S
C49 O55 1.208 . S
C50 O42 1.315 . S
C50 O45 1.279 . S
C51 O52 1.315 . S
C51 O53 1.279 . S
O52 Cd44 2.223 . S
O52 C51 1.315 . S
O53 Cd43 2.240 . S
O53 C51 1.279 . S
O54 Cd44 2.297 . S
O54 C49 1.247 . S
O55 Cd44 2.439 . S
O55 C49 1.208 . S
O56 Cd57 2.223 . S
O56 C64 1.315 . S
Cd57 O56 2.223 . S
Cd57 O60 2.297 . S
Cd57 O61 2.439 . S
Cd57 O67 2.240 . S
Cd58 O59 2.240 . S
Cd58 O66 2.223 . S
Cd58 O68 2.297 . S
Cd58 O69 2.439 . S
O59 Cd58 2.240 . S
O59 C64 1.279 . S
O60 Cd57 2.297 . S
O60 C62 1.247 . S
O61 Cd57 2.439 . S
O61 C62 1.208 . S
C62 O60 1.247 . S
C62 O61 1.208 . S
C63 O68 1.247 . S
C63 O69 1.208 . S
C64 O56 1.315 . S
C64 O59 1.279 . S
C65 O66 1.315 . S
C65 O67 1.279 . S
O66 Cd58 2.223 . S
O66 C65 1.315 . S
O67 Cd57 2.240 . S
O67 C65 1.279 . S
O68 Cd58 2.297 . S
O68 C63 1.247 . S
O69 Cd58 2.439 . S
O69 C63 1.208 . S
O70 Cd71 2.223 . S
O70 C78 1.315 . S
Cd71 O70 2.223 . S
Cd71 O74 2.297 . S
Cd71 O75 2.439 . S
Cd71 O81 2.240 . S
Cd72 O73 2.240 . S
Cd72 O80 2.223 . S
Cd72 O82 2.297 . S
Cd72 O83 2.439 . S
O73 Cd72 2.240 . S
O73 C78 1.279 . S
O74 Cd71 2.297 . S
O74 C76 1.247 . S
O75 Cd71 2.439 . S
O75 C76 1.208 . S
C76 O74 1.247 . S
C76 O75 1.208 . S
C77 O82 1.247 . S
C77 O83 1.208 . S
C78 O70 1.315 . S
C78 O73 1.279 . S
C79 O80 1.315 . S
C79 O81 1.279 . S
O80 Cd72 2.223 . S
O80 C79 1.315 . S
O81 Cd71 2.240 . S
O81 C79 1.279 . S
O82 Cd72 2.297 . S
O82 C77 1.247 . S
O83 Cd72 2.439 . S
O83 C77 1.208 . S
O84 Cd85 2.223 . S
O84 C92 1.315 . S
Cd85 O84 2.223 . S
Cd85 O88 2.297 . S
Cd85 O89 2.439 . S
Cd85 O95 2.240 . S
Cd86 O87 2.240 . S
Cd86 O94 2.223 . S
Cd86 O96 2.297 . S
Cd86 O97 2.439 . S
O87 Cd86 2.240 . S
O87 C92 1.279 . S
O88 Cd85 2.297 . S
O88 C90 1.247 . S
O89 Cd85 2.439 . S
O89 C90 1.208 . S
C90 O88 1.247 . S
C90 O89 1.208 . S
C91 O96 1.247 . S
C91 O97 1.208 . S
C92 O84 1.315 . S
C92 O87 1.279 . S
C93 O94 1.315 . S
C93 O95 1.279 . S
O94 Cd86 2.223 . S
O94 C93 1.315 . S
O95 Cd85 2.240 . S
O95 C93 1.279 . S
O96 Cd86 2.297 . S
O96 C91 1.247 . S
O97 Cd86 2.439 . S
O97 C91 1.208 . S
O98 Cd99 2.223 . S
O98 C106 1.315 . S
Cd99 O98 2.223 . S
Cd99 O102 2.297 . S
Cd99 O103 2.439 . S
Cd99 O109 2.240 . S
Cd100 O101 2.240 . S
Cd100 O108 2.223 . S
Cd100 O110 2.297 . S
Cd100 O111 2.439 . S
O101 Cd100 2.240 . S
O101 C106 1.279 . S
O102 Cd99 2.297 . S
O102 C104 1.247 . S
O103 Cd99 2.439 . S
O103 C104 1.208 . S
C104 O102 1.247 . S
C104 O103 1.208 . S
C105 O110 1.247 . S
C105 O111 1.208 . S
C106 O98 1.315 . S
C106 O101 1.279 . S
C107 O108 1.315 . S
C107 O109 1.279 . S
O108 Cd100 2.223 . S
O108 C107 1.315 . S
O109 Cd99 2.240 . S
O109 C107 1.279 . S
O110 Cd100 2.297 . S
O110 C105 1.247 . S
O111 Cd100 2.439 . S
O111 C105 1.208 . S
O112 Cd113 2.223 . S
O112 C120 1.315 . S
Cd113 O112 2.223 . S
Cd113 O116 2.297 . S
Cd113 O117 2.439 . S
Cd113 O123 2.240 . S
Cd114 O115 2.240 . S
Cd114 O122 2.223 . S
Cd114 O124 2.297 . S
Cd114 O125 2.439 . S
O115 Cd114 2.240 . S
O115 C120 1.279 . S
O116 Cd113 2.297 . S
O116 C118 1.247 . S
O117 Cd113 2.439 . S
O117 C118 1.208 . S
C118 O116 1.247 . S
C118 O117 1.208 . S
C119 O124 1.247 . S
C119 O125 1.208 . S
C120 O112 1.315 . S
C120 O115 1.279 . S
C121 O122 1.315 . S
C121 O123 1.279 . S
O122 Cd114 2.223 . S
O122 C121 1.315 . S
O123 Cd113 2.240 . S
O123 C121 1.279 . S
O124 Cd114 2.297 . S
O124 C119 1.247 . S
O125 Cd114 2.439 . S
O125 C119 1.208 . S
O126 Cd127 2.223 . S
O126 C134 1.315 . S
Cd127 O126 2.223 . S
Cd127 O130 2.297 . S
Cd127 O131 2.439 . S
Cd127 O137 2.240 . S
Cd128 O129 2.240 . S
Cd128 O136 2.223 . S
Cd128 O138 2.297 . S
Cd128 O139 2.439 . S
O129 Cd128 2.240 . S
O129 C134 1.279 . S
O130 Cd127 2.297 . S
O130 C132 1.247 . S
O131 Cd127 2.439 . S
O131 C132 1.208 . S
C132 O130 1.247 . S
C132 O131 1.208 . S
C133 O138 1.247 . S
C133 O139 1.208 . S
C134 O126 1.315 . S
C134 O129 1.279 . S
C135 O136 1.315 . S
C135 O137 1.279 . S
O136 Cd128 2.223 . S
O136 C135 1.315 . S
O137 Cd127 2.240 . S
O137 C135 1.279 . S
O138 Cd128 2.297 . S
O138 C133 1.247 . S
O139 Cd128 2.439 . S
O139 C133 1.208 . S
O140 Cd141 2.223 . S
O140 C148 1.315 . S
Cd141 O140 2.223 . S
Cd141 O144 2.297 . S
Cd141 O145 2.439 . S
Cd141 O151 2.240 . S
Cd142 O143 2.240 . S
Cd142 O150 2.223 . S
Cd142 O152 2.297 . S
Cd142 O153 2.439 . S
O143 Cd142 2.240 . S
O143 C148 1.279 . S
O144 Cd141 2.297 . S
O144 C146 1.247 . S
O145 Cd141 2.439 . S
O145 C146 1.208 . S
C146 O144 1.247 . S
C146 O145 1.208 . S
C147 O152 1.247 . S
C147 O153 1.208 . S
C148 O140 1.315 . S
C148 O143 1.279 . S
C149 O150 1.315 . S
C149 O151 1.279 . S
O150 Cd142 2.223 . S
O150 C149 1.315 . S
O151 Cd141 2.240 . S
O151 C149 1.279 . S
O152 Cd142 2.297 . S
O152 C147 1.247 . S
O153 Cd142 2.439 . S
O153 C147 1.208 . S
O154 Cd155 2.223 . S
O154 C162 1.315 . S
Cd155 O154 2.223 . S
Cd155 O158 2.297 . S
Cd155 O159 2.439 . S
Cd155 O165 2.240 . S
Cd156 O157 2.240 . S
Cd156 O164 2.223 . S
Cd156 O166 2.297 . S
Cd156 O167 2.439 . S
O157 Cd156 2.240 . S
O157 C162 1.279 . S
O158 Cd155 2.297 . S
O158 C160 1.247 . S
O159 Cd155 2.439 . S
O159 C160 1.208 . S
C160 O158 1.247 . S
C160 O159 1.208 . S
C161 O166 1.247 . S
C161 O167 1.208 . S
C162 O154 1.315 . S
C162 O157 1.279 . S
C163 O164 1.315 . S
C163 O165 1.279 . S
O164 Cd156 2.223 . S
O164 C163 1.315 . S
O165 Cd155 2.240 . S
O165 C163 1.279 . S
O166 Cd156 2.297 . S
O166 C161 1.247 . S
O167 Cd156 2.439 . S
O167 C161 1.208 . S
O168 Cd169 2.223 . S
O168 C176 1.315 . S
Cd169 O168 2.223 . S
Cd169 O172 2.297 . S
Cd169 O173 2.439 . S
Cd169 O179 2.240 . S
Cd170 O171 2.240 . S
Cd170 O178 2.223 . S
Cd170 O180 2.297 . S
Cd170 O181 2.439 . S
O171 Cd170 2.240 . S
O171 C176 1.279 . S
O172 Cd169 2.297 . S
O172 C174 1.247 . S
O173 Cd169 2.439 . S
O173 C174 1.208 . S
C174 O172 1.247 . S
C174 O173 1.208 . S
C175 O180 1.247 . S
C175 O181 1.208 . S
C176 O168 1.315 . S
C176 O171 1.279 . S
C177 O178 1.315 . S
C177 O179 1.279 . S
O178 Cd170 2.223 . S
O178 C177 1.315 . S
O179 Cd169 2.240 . S
O179 C177 1.279 . S
O180 Cd170 2.297 . S
O180 C175 1.247 . S
O181 Cd170 2.439 . S
O181 C175 1.208 . S
O182 Cd183 2.223 . S
O182 C190 1.315 . S
Cd183 O182 2.223 . S
Cd183 O186 2.297 . S
Cd183 O187 2.439 . S
Cd183 O193 2.240 . S
Cd184 O185 2.240 . S
Cd184 O192 2.223 . S
Cd184 O194 2.297 . S
Cd184 O195 2.439 . S
O185 Cd184 2.240 . S
O185 C190 1.279 . S
O186 Cd183 2.297 . S
O186 C188 1.247 . S
O187 Cd183 2.439 . S
O187 C188 1.208 . S
C188 O186 1.247 . S
C188 O187 1.208 . S
C189 O194 1.247 . S
C189 O195 1.208 . S
C190 O182 1.315 . S
C190 O185 1.279 . S
C191 O192 1.315 . S
C191 O193 1.279 . S
O192 Cd184 2.223 . S
O192 C191 1.315 . S
O193 Cd183 2.240 . S
O193 C191 1.279 . S
O194 Cd184 2.297 . S
O194 C189 1.247 . S
O195 Cd184 2.439 . S
O195 C189 1.208 . S
O196 Cd197 2.223 . S
O196 C204 1.315 . S
Cd197 O196 2.223 . S
Cd197 O200 2.297 . S
Cd197 O201 2.439 . S
Cd197 O207 2.240 . S
Cd198 O199 2.240 . S
Cd198 O206 2.223 . S
Cd198 O208 2.297 . S
Cd198 O209 2.439 . S
O199 Cd198 2.240 . S
O199 C204 1.279 . S
O200 Cd197 2.297 . S
O200 C202 1.247 . S
O201 Cd197 2.439 . S
O201 C202 1.208 . S
C202 O200 1.247 . S
C202 O201 1.208 . S
C203 O208 1.247 . S
C203 O209 1.208 . S
C204 O196 1.315 . S
C204 O199 1.279 . S
C205 O206 1.315 . S
C205 O207 1.279 . S
O206 Cd198 2.223 . S
O206 C205 1.315 . S
O207 Cd197 2.240 . S
O207 C205 1.279 . S
O208 Cd198 2.297 . S
O208 C203 1.247 . S
O209 Cd198 2.439 . S
O209 C203 1.208 . S
O210 Cd211 2.223 . S
O210 C218 1.315 . S
Cd211 O210 2.223 . S
Cd211 O214 2.297 . S
Cd211 O215 2.439 . S
Cd211 O221 2.240 . S
Cd212 O213 2.240 . S
Cd212 O220 2.223 . S
Cd212 O222 2.297 . S
Cd212 O223 2.439 . S
O213 Cd212 2.240 . S
O213 C218 1.279 . S
O214 Cd211 2.297 . S
O214 C216 1.247 . S
O215 Cd211 2.439 . S
O215 C216 1.208 . S
C216 O214 1.247 . S
C216 O215 1.208 . S
C217 O222 1.247 . S
C217 O223 1.208 . S
C218 O210 1.315 . S
C218 O213 1.279 . S
C219 O220 1.315 . S
C219 O221 1.279 . S
O220 Cd212 2.223 . S
O220 C219 1.315 . S
O221 Cd211 2.240 . S
O221 C219 1.279 . S
O222 Cd212 2.297 . S
O222 C217 1.247 . S
O223 Cd212 2.439 . S
O223 C217 1.208 . S
O224 Cd225 2.223 . S
O224 C232 1.315 . S
Cd225 O224 2.223 . S
Cd225 O228 2.297 . S
Cd225 O229 2.439 . S
Cd225 O235 2.240 . S
Cd226 O227 2.240 . S
Cd226 O234 2.223 . S
Cd226 O236 2.297 . S
Cd226 O237 2.439 . S
O227 Cd226 2.240 . S
O227 C232 1.279 . S
O228 Cd225 2.297 . S
O228 C230 1.247 . S
O229 Cd225 2.439 . S
O229 C230 1.208 . S
C230 O228 1.247 . S
C230 O229 1.208 . S
C231 O236 1.247 . S
C231 O237 1.208 . S
C232 O224 1.315 . S
C232 O227 1.279 . S
C233 O234 1.315 . S
C233 O235 1.279 . S
O234 Cd226 2.223 . S
O234 C233 1.315 . S
O235 Cd225 2.240 . S
O235 C233 1.279 . S
O236 Cd226 2.297 . S
O236 C231 1.247 . S
O237 Cd226 2.439 . S
O237 C231 1.208 . S
O238 Cd239 2.223 . S
O238 C246 1.315 . S
Cd239 O238 2.223 . S
Cd239 O242 2.297 . S
Cd239 O243 2.439 . S
Cd239 O249 2.240 . S
Cd240 O241 2.240 . S
Cd240 O248 2.223 . S
Cd240 O250 2.297 . S
Cd240 O251 2.439 . S
O241 Cd240 2.240 . S
O241 C246 1.279 . S
O242 Cd239 2.297 . S
O242 C244 1.247 . S
O243 Cd239 2.439 . S
O243 C244 1.208 . S
C244 O242 1.247 . S
C244 O243 1.208 . S
C245 O250 1.247 . S
C245 O251 1.208 . S
C246 O238 1.315 . S
C246 O241 1.279 . S
C247 O248 1.315 . S
C247 O249 1.279 . S
O248 Cd240 2.223 . S
O248 C247 1.315 . S
O249 Cd239 2.240 . S
O249 C247 1.279 . S
O250 Cd240 2.297 . S
O250 C245 1.247 . S
O251 Cd240 2.439 . S
O251 C245 1.208 . S
O252 Cd253 2.223 . S
O252 C260 1.315 . S
Cd253 O252 2.223 . S
Cd253 O256 2.297 . S
Cd253 O257 2.439 . S
Cd253 O263 2.240 . S
Cd254 O255 2.240 . S
Cd254 O262 2.223 . S
Cd254 O264 2.297 . S
Cd254 O265 2.439 . S
O255 Cd254 2.240 . S
O255 C260 1.279 . S
O256 Cd253 2.297 . S
O256 C258 1.247 . S
O257 Cd253 2.439 . S
O257 C258 1.208 . S
C258 O256 1.247 . S
C258 O257 1.208 . S
C259 O264 1.247 . S
C259 O265 1.208 . S
C260 O252 1.315 . S
C260 O255 1.279 . S
C261 O262 1.315 . S
C261 O263 1.279 . S
O262 Cd254 2.223 . S
O262 C261 1.315 . S
O263 Cd253 2.240 . S
O263 C261 1.279 . S
O264 Cd254 2.297 . S
O264 C259 1.247 . S
O265 Cd254 2.439 . S
O265 C259 1.208 . S
O266 Cd267 2.223 . S
O266 C274 1.315 . S
Cd267 O266 2.223 . S
Cd267 O270 2.297 . S
Cd267 O271 2.439 . S
Cd267 O277 2.240 . S
Cd268 O269 2.240 . S
Cd268 O276 2.223 . S
Cd268 O278 2.297 . S
Cd268 O279 2.439 . S
O269 Cd268 2.240 . S
O269 C274 1.279 . S
O270 Cd267 2.297 . S
O270 C272 1.247 . S
O271 Cd267 2.439 . S
O271 C272 1.208 . S
C272 O270 1.247 . S
C272 O271 1.208 . S
C273 O278 1.247 . S
C273 O279 1.208 . S
C274 O266 1.315 . S
C274 O269 1.279 . S
C275 O276 1.315 . S
C275 O277 1.279 . S
O276 Cd268 2.223 . S
O276 C275 1.315 . S
O277 Cd267 2.240 . S
O277 C275 1.279 . S
O278 Cd268 2.297 . S
O278 C273 1.247 . S
O279 Cd268 2.439 . S
O279 C273 1.208 . S
O280 Cd281 2.223 . S
O280 C288 1.315 . S
Cd281 O280 2.223 . S
Cd281 O284 2.297 . S
Cd281 O285 2.439 . S
Cd281 O291 2.240 . S
Cd282 O283 2.240 . S
Cd282 O290 2.223 . S
Cd282 O292 2.297 . S
Cd282 O293 2.439 . S
O283 Cd282 2.240 . S
O283 C288 1.279 . S
O284 Cd281 2.297 . S
O284 C286 1.247 . S
O285 Cd281 2.439 . S
O285 C286 1.208 . S
C286 O284 1.247 . S
C286 O285 1.208 . S
C287 O292 1.247 . S
C287 O293 1.208 . S
C288 O280 1.315 . S
C288 O283 1.279 . S
C289 O290 1.315 . S
C289 O291 1.279 . S
O290 Cd282 2.223 . S
O290 C289 1.315 . S
O291 Cd281 2.240 . S
O291 C289 1.279 . S
O292 Cd282 2.297 . S
O292 C287 1.247 . S
O293 Cd282 2.439 . S
O293 C287 1.208 . S
O294 Cd295 2.223 . S
O294 C302 1.315 . S
Cd295 O294 2.223 . S
Cd295 O298 2.297 . S
Cd295 O299 2.439 . S
Cd295 O305 2.240 . S
Cd296 O297 2.240 . S
Cd296 O304 2.223 . S
Cd296 O306 2.297 . S
Cd296 O307 2.439 . S
O297 Cd296 2.240 . S
O297 C302 1.279 . S
O298 Cd295 2.297 . S
O298 C300 1.247 . S
O299 Cd295 2.439 . S
O299 C300 1.208 . S
C300 O298 1.247 . S
C300 O299 1.208 . S
C301 O306 1.247 . S
C301 O307 1.208 . S
C302 O294 1.315 . S
C302 O297 1.279 . S
C303 O304 1.315 . S
C303 O305 1.279 . S
O304 Cd296 2.223 . S
O304 C303 1.315 . S
O305 Cd295 2.240 . S
O305 C303 1.279 . S
O306 Cd296 2.297 . S
O306 C301 1.247 . S
O307 Cd296 2.439 . S
O307 C301 1.208 . S
O308 Cd309 2.223 . S
O308 C316 1.315 . S
Cd309 O308 2.223 . S
Cd309 O312 2.297 . S
Cd309 O313 2.439 . S
Cd309 O319 2.240 . S
Cd310 O311 2.240 . S
Cd310 O318 2.223 . S
Cd310 O320 2.297 . S
Cd310 O321 2.439 . S
O311 Cd310 2.240 . S
O311 C316 1.279 . S
O312 Cd309 2.297 . S
O312 C314 1.247 . S
O313 Cd309 2.439 . S
O313 C314 1.208 . S
C314 O312 1.247 . S
C314 O313 1.208 . S
C315 O320 1.247 . S
C315 O321 1.208 . S
C316 O308 1.315 . S
C316 O311 1.279 . S
C317 O318 1.315 . S
C317 O319 1.279 . S
O318 Cd310 2.223 . S
O318 C317 1.315 . S
O319 Cd309 2.240 . S
O319 C317 1.279 . S
O320 Cd310 2.297 . S
O320 C315 1.247 . S
O321 Cd310 2.439 . S
O321 C315 1.208 . S
O322 Cd323 2.223 . S
O322 C330 1.315 . S
Cd323 O322 2.223 . S
Cd323 O326 2.297 . S
Cd323 O327 2.439 . S
Cd323 O333 2.240 . S
Cd324 O325 2.240 . S
Cd324 O332 2.223 . S
Cd324 O334 2.297 . S
Cd324 O335 2.439 . S
O325 Cd324 2.240 . S
O325 C330 1.279 . S
O326 Cd323 2.297 . S
O326 C328 1.247 . S
O327 Cd323 2.439 . S
O327 C328 1.208 . S
C328 O326 1.247 . S
C328 O327 1.208 . S
C329 O334 1.247 . S
C329 O335 1.208 . S
C330 O322 1.315 . S
C330 O325 1.279 . S
C331 O332 1.315 . S
C331 O333 1.279 . S
O332 Cd324 2.223 . S
O332 C331 1.315 . S
O333 Cd323 2.240 . S
O333 C331 1.279 . S
O334 Cd324 2.297 . S
O334 C329 1.247 . S
O335 Cd324 2.439 . S
O335 C329 1.208 . S
O336 Cd337 2.223 . S
O336 C344 1.315 . S
Cd337 O336 2.223 . S
Cd337 O340 2.297 . S
Cd337 O341 2.439 . S
Cd337 O347 2.240 . S
Cd338 O339 2.240 . S
Cd338 O346 2.223 . S
Cd338 O348 2.297 . S
Cd338 O349 2.439 . S
O339 Cd338 2.240 . S
O339 C344 1.279 . S
O340 Cd337 2.297 . S
O340 C342 1.247 . S
O341 Cd337 2.439 . S
O341 C342 1.208 . S
C342 O340 1.247 . S
C342 O341 1.208 . S
C343 O348 1.247 . S
C343 O349 1.208 . S
C344 O336 1.315 . S
C344 O339 1.279 . S
C345 O346 1.315 . S
C345 O347 1.279 . S
O346 Cd338 2.223 . S
O346 C345 1.315 . S
O347 Cd337 2.240 . S
O347 C345 1.279 . S
O348 Cd338 2.297 . S
O348 C343 1.247 . S
O349 Cd338 2.439 . S
O349 C343 1.208 . S
O350 Cd351 2.223 . S
O350 C358 1.315 . S
Cd351 O350 2.223 . S
Cd351 O354 2.297 . S
Cd351 O355 2.439 . S
Cd351 O361 2.240 . S
Cd352 O353 2.240 . S
Cd352 O360 2.223 . S
Cd352 O362 2.297 . S
Cd352 O363 2.439 . S
O353 Cd352 2.240 . S
O353 C358 1.279 . S
O354 Cd351 2.297 . S
O354 C356 1.247 . S
O355 Cd351 2.439 . S
O355 C356 1.208 . S
C356 O354 1.247 . S
C356 O355 1.208 . S
C357 O362 1.247 . S
C357 O363 1.208 . S
C358 O350 1.315 . S
C358 O353 1.279 . S
C359 O360 1.315 . S
C359 O361 1.279 . S
O360 Cd352 2.223 . S
O360 C359 1.315 . S
O361 Cd351 2.240 . S
O361 C359 1.279 . S
O362 Cd352 2.297 . S
O362 C357 1.247 . S
O363 Cd352 2.439 . S
O363 C357 1.208 . S
O364 Cd365 2.223 . S
O364 C372 1.315 . S
Cd365 O364 2.223 . S
Cd365 O368 2.297 . S
Cd365 O369 2.439 . S
Cd365 O375 2.240 . S
Cd366 O367 2.240 . S
Cd366 O374 2.223 . S
Cd366 O376 2.297 . S
Cd366 O377 2.439 . S
O367 Cd366 2.240 . S
O367 C372 1.279 . S
O368 Cd365 2.297 . S
O368 C370 1.247 . S
O369 Cd365 2.439 . S
O369 C370 1.208 . S
C370 O368 1.247 . S
C370 O369 1.208 . S
C371 O376 1.247 . S
C371 O377 1.208 . S
C372 O364 1.315 . S
C372 O367 1.279 . S
C373 O374 1.315 . S
C373 O375 1.279 . S
O374 Cd366 2.223 . S
O374 C373 1.315 . S
O375 Cd365 2.240 . S
O375 C373 1.279 . S
O376 Cd366 2.297 . S
O376 C371 1.247 . S
O377 Cd366 2.439 . S
O377 C371 1.208 . S
O378 Cd379 2.223 . S
O378 C386 1.315 . S
Cd379 O378 2.223 . S
Cd379 O382 2.297 . S
Cd379 O383 2.439 . S
Cd379 O389 2.240 . S
Cd380 O381 2.240 . S
Cd380 O388 2.223 . S
Cd380 O390 2.297 . S
Cd380 O391 2.439 . S
O381 Cd380 2.240 . S
O381 C386 1.279 . S
O382 Cd379 2.297 . S
O382 C384 1.247 . S
O383 Cd379 2.439 . S
O383 C384 1.208 . S
C384 O382 1.247 . S
C384 O383 1.208 . S
C385 O390 1.247 . S
C385 O391 1.208 . S
C386 O378 1.315 . S
C386 O381 1.279 . S
C387 O388 1.315 . S
C387 O389 1.279 . S
O388 Cd380 2.223 . S
O388 C387 1.315 . S
O389 Cd379 2.240 . S
O389 C387 1.279 . S
O390 Cd380 2.297 . S
O390 C385 1.247 . S
O391 Cd380 2.439 . S
O391 C385 1.208 . S
O392 Cd393 2.223 . S
O392 C400 1.315 . S
Cd393 O392 2.223 . S
Cd393 O396 2.297 . S
Cd393 O397 2.439 . S
Cd393 O403 2.240 . S
Cd394 O395 2.240 . S
Cd394 O402 2.223 . S
Cd394 O404 2.297 . S
Cd394 O405 2.439 . S
O395 Cd394 2.240 . S
O395 C400 1.279 . S
O396 Cd393 2.297 . S
O396 C398 1.247 . S
O397 Cd393 2.439 . S
O397 C398 1.208 . S
C398 O396 1.247 . S
C398 O397 1.208 . S
C399 O404 1.247 . S
C399 O405 1.208 . S
C400 O392 1.315 . S
C400 O395 1.279 . S
C401 O402 1.315 . S
C401 O403 1.279 . S
O402 Cd394 2.223 . S
O402 C401 1.315 . S
O403 Cd393 2.240 . S
O403 C401 1.279 . S
O404 Cd394 2.297 . S
O404 C399 1.247 . S
O405 Cd394 2.439 . S
O405 C399 1.208 . S
O406 Cd407 2.223 . S
O406 C414 1.315 . S
Cd407 O406 2.223 . S
Cd407 O410 2.297 . S
Cd407 O411 2.439 . S
Cd407 O417 2.240 . S
Cd408 O409 2.240 . S
Cd408 O416 2.223 . S
Cd408 O418 2.297 . S
Cd408 O419 2.439 . S
O409 Cd408 2.240 . S
O409 C414 1.279 . S
O410 Cd407 2.297 . S
O410 C412 1.247 . S
O411 Cd407 2.439 . S
O411 C412 1.208 . S
C412 O410 1.247 . S
C412 O411 1.208 . S
C413 O418 1.247 . S
C413 O419 1.208 . S
C414 O406 1.315 . S
C414 O409 1.279 . S
C415 O416 1.315 . S
C415 O417 1.279 . S
O416 Cd408 2.223 . S
O416 C415 1.315 . S
O417 Cd407 2.240 . S
O417 C415 1.279 . S
O418 Cd408 2.297 . S
O418 C413 1.247 . S
O419 Cd408 2.439 . S
O419 C413 1.208 . S
O420 Cd421 2.223 . S
O420 C428 1.315 . S
Cd421 O420 2.223 . S
Cd421 O424 2.297 . S
Cd421 O425 2.439 . S
Cd421 O431 2.240 . S
Cd422 O423 2.240 . S
Cd422 O430 2.223 . S
Cd422 O432 2.297 . S
Cd422 O433 2.439 . S
O423 Cd422 2.240 . S
O423 C428 1.279 . S
O424 Cd421 2.297 . S
O424 C426 1.247 . S
O425 Cd421 2.439 . S
O425 C426 1.208 . S
C426 O424 1.247 . S
C426 O425 1.208 . S
C427 O432 1.247 . S
C427 O433 1.208 . S
C428 O420 1.315 . S
C428 O423 1.279 . S
C429 O430 1.315 . S
C429 O431 1.279 . S
O430 Cd422 2.223 . S
O430 C429 1.315 . S
O431 Cd421 2.240 . S
O431 C429 1.279 . S
O432 Cd422 2.297 . S
O432 C427 1.247 . S
O433 Cd422 2.439 . S
O433 C427 1.208 . S
O434 Cd435 2.223 . S
O434 C442 1.315 . S
Cd435 O434 2.223 . S
Cd435 O438 2.297 . S
Cd435 O439 2.439 . S
Cd435 O445 2.240 . S
Cd436 O437 2.240 . S
Cd436 O444 2.223 . S
Cd436 O446 2.297 . S
Cd436 O447 2.439 . S
O437 Cd436 2.240 . S
O437 C442 1.279 . S
O438 Cd435 2.297 . S
O438 C440 1.247 . S
O439 Cd435 2.439 . S
O439 C440 1.208 . S
C440 O438 1.247 . S
C440 O439 1.208 . S
C441 O446 1.247 . S
C441 O447 1.208 . S
C442 O434 1.315 . S
C442 O437 1.279 . S
C443 O444 1.315 . S
C443 O445 1.279 . S
O444 Cd436 2.223 . S
O444 C443 1.315 . S
O445 Cd435 2.240 . S
O445 C443 1.279 . S
O446 Cd436 2.297 . S
O446 C441 1.247 . S
O447 Cd436 2.439 . S
O447 C441 1.208 . S
O448 Cd449 2.223 . S
O448 C456 1.315 . S
Cd449 O448 2.223 . S
Cd449 O452 2.297 . S
Cd449 O453 2.439 . S
Cd449 O459 2.240 . S
Cd450 O451 2.240 . S
Cd450 O458 2.223 . S
Cd450 O460 2.297 . S
Cd450 O461 2.439 . S
O451 Cd450 2.240 . S
O451 C456 1.279 . S
O452 Cd449 2.297 . S
O452 C454 1.247 . S
O453 Cd449 2.439 . S
O453 C454 1.208 . S
C454 O452 1.247 . S
C454 O453 1.208 . S
C455 O460 1.247 . S
C455 O461 1.208 . S
C456 O448 1.315 . S
C456 O451 1.279 . S
C457 O458 1.315 . S
C457 O459 1.279 . S
O458 Cd450 2.223 . S
O458 C457 1.315 . S
O459 Cd449 2.240 . S
O459 C457 1.279 . S
O460 Cd450 2.297 . S
O460 C455 1.247 . S
O461 Cd450 2.439 . S
O461 C455 1.208 . S
O462 Cd463 2.223 . S
O462 C470 1.315 . S
Cd463 O462 2.223 . S
Cd463 O466 2.297 . S
Cd463 O467 2.439 . S
Cd463 O473 2.240 . S
Cd464 O465 2.240 . S
Cd464 O472 2.223 . S
Cd464 O474 2.297 . S
Cd464 O475 2.439 . S
O465 Cd464 2.240 . S
O465 C470 1.279 . S
O466 Cd463 2.297 . S
O466 C468 1.247 . S
O467 Cd463 2.439 . S
O467 C468 1.208 . S
C468 O466 1.247 . S
C468 O467 1.208 . S
C469 O474 1.247 . S
C469 O475 1.208 . S
C470 O462 1.315 . S
C470 O465 1.279 . S
C471 O472 1.315 . S
C471 O473 1.279 . S
O472 Cd464 2.223 . S
O472 C471 1.315 . S
O473 Cd463 2.240 . S
O473 C471 1.279 . S
O474 Cd464 2.297 . S
O474 C469 1.247 . S
O475 Cd464 2.439 . S
O475 C469 1.208 . S
O476 Cd477 2.223 . S
O476 C484 1.315 . S
Cd477 O476 2.223 . S
Cd477 O480 2.297 . S
Cd477 O481 2.439 . S
Cd477 O487 2.240 . S
Cd478 O479 2.240 . S
Cd478 O486 2.223 . S
Cd478 O488 2.297 . S
Cd478 O489 2.439 . S
O479 Cd478 2.240 . S
O479 C484 1.279 . S
O480 Cd477 2.297 . S
O480 C482 1.247 . S
O481 Cd477 2.439 . S
O481 C482 1.208 . S
C482 O480 1.247 . S
C482 O481 1.208 . S
C483 O488 1.247 . S
C483 O489 1.208 . S
C484 O476 1.315 . S
C484 O479 1.279 . S
C485 O486 1.315 . S
C485 O487 1.279 . S
O486 Cd478 2.223 . S
O486 C485 1.315 . S
O487 Cd477 2.240 . S
O487 C485 1.279 . S
O488 Cd478 2.297 . S
O488 C483 1.247 . S
O489 Cd478 2.439 . S
O489 C483 1.208 . S
O490 Cd491 2.223 . S
O490 C498 1.315 . S
Cd491 O490 2.223 . S
Cd491 O494 2.297 . S
Cd491 O495 2.439 . S
Cd491 O501 2.240 . S
Cd492 O493 2.240 . S
Cd492 O500 2.223 . S
Cd492 O502 2.297 . S
Cd492 O503 2.439 . S
O493 Cd492 2.240 . S
O493 C498 1.279 . S
O494 Cd491 2.297 . S
O494 C496 1.247 . S
O495 Cd491 2.439 . S
O495 C496 1.208 . S
C496 O494 1.247 . S
C496 O495 1.208 . S
C497 O502 1.247 . S
C497 O503 1.208 . S
C498 O490 1.315 . S
C498 O493 1.279 . S
C499 O500 1.315 . S
C499 O501 1.279 . S
O500 Cd492 2.223 . S
O500 C499 1.315 . S
O501 Cd491 2.240 . S
O501 C499 1.279 . S
O502 Cd492 2.297 . S
O502 C497 1.247 . S
O503 Cd492 2.439 . S
O503 C497 1.208 . S
O504 Cd505 2.223 . S
O504 C512 1.315 . S
Cd505 O504 2.223 . S
Cd505 O508 2.297 . S
Cd505 O509 2.439 . S
Cd505 O515 2.240 . S
Cd506 O507 2.240 . S
Cd506 O514 2.223 . S
Cd506 O516 2.297 . S
Cd506 O517 2.439 . S
O507 Cd506 2.240 . S
O507 C512 1.279 . S
O508 Cd505 2.297 . S
O508 C510 1.247 . S
O509 Cd505 2.439 . S
O509 C510 1.208 . S
C510 O508 1.247 . S
C510 O509 1.208 . S
C511 O516 1.247 . S
C511 O517 1.208 . S
C512 O504 1.315 . S
C512 O507 1.279 . S
C513 O514 1.315 . S
C513 O515 1.279 . S
O514 Cd506 2.223 . S
O514 C513 1.315 . S
O515 Cd505 2.240 . S
O515 C513 1.279 . S
O516 Cd506 2.297 . S
O516 C511 1.247 . S
O517 Cd506 2.439 . S
O517 C511 1.208 . S
O518 Cd519 2.223 . S
O518 C526 1.315 . S
Cd519 O518 2.223 . S
Cd519 O522 2.297 . S
Cd519 O523 2.439 . S
Cd519 O529 2.240 . S
Cd520 O521 2.240 . S
Cd520 O528 2.223 . S
Cd520 O530 2.297 . S
Cd520 O531 2.439 . S
O521 Cd520 2.240 . S
O521 C526 1.279 . S
O522 Cd519 2.297 . S
O522 C524 1.247 . S
O523 Cd519 2.439 . S
O523 C524 1.208 . S
C524 O522 1.247 . S
C524 O523 1.208 . S
C525 O530 1.247 . S
C525 O531 1.208 . S
C526 O518 1.315 . S
C526 O521 1.279 . S
C527 O528 1.315 . S
C527 O529 1.279 . S
O528 Cd520 2.223 . S
O528 C527 1.315 . S
O529 Cd519 2.240 . S
O529 C527 1.279 . S
O530 Cd520 2.297 . S
O530 C525 1.247 . S
O531 Cd520 2.439 . S
O531 C525 1.208 . S
O532 Cd533 2.223 . S
O532 C540 1.315 . S
Cd533 O532 2.223 . S
Cd533 O536 2.297 . S
Cd533 O537 2.439 . S
Cd533 O543 2.240 . S
Cd534 O535 2.240 . S
Cd534 O542 2.223 . S
Cd534 O544 2.297 . S
Cd534 O545 2.439 . S
O535 Cd534 2.240 . S
O535 C540 1.279 . S
O536 Cd533 2.297 . S
O536 C538 1.247 . S
O537 Cd533 2.439 . S
O537 C538 1.208 . S
C538 O536 1.247 . S
C538 O537 1.208 . S
C539 O544 1.247 . S
C539 O545 1.208 . S
C540 O532 1.315 . S
C540 O535 1.279 . S
C541 O542 1.315 . S
C541 O543 1.279 . S
O542 Cd534 2.223 . S
O542 C541 1.315 . S
O543 Cd533 2.240 . S
O543 C541 1.279 . S
O544 Cd534 2.297 . S
O544 C539 1.247 . S
O545 Cd534 2.439 . S
O545 C539 1.208 . S
O546 Cd547 2.223 . S
O546 C554 1.315 . S
Cd547 O546 2.223 . S
Cd547 O550 2.297 . S
Cd547 O551 2.439 . S
Cd547 O557 2.240 . S
Cd548 O549 2.240 . S
Cd548 O556 2.223 . S
Cd548 O558 2.297 . S
Cd548 O559 2.439 . S
O549 Cd548 2.240 . S
O549 C554 1.279 . S
O550 Cd547 2.297 . S
O550 C552 1.247 . S
O551 Cd547 2.439 . S
O551 C552 1.208 . S
C552 O550 1.247 . S
C552 O551 1.208 . S
C553 O558 1.247 . S
C553 O559 1.208 . S
C554 O546 1.315 . S
C554 O549 1.279 . S
C555 O556 1.315 . S
C555 O557 1.279 . S
O556 Cd548 2.223 . S
O556 C555 1.315 . S
O557 Cd547 2.240 . S
O557 C555 1.279 . S
O558 Cd548 2.297 . S
O558 C553 1.247 . S
O559 Cd548 2.439 . S
O559 C553 1.208 . S
O560 Cd561 2.223 . S
O560 C568 1.315 . S
Cd561 O560 2.223 . S
Cd561 O564 2.297 . S
Cd561 O565 2.439 . S
Cd561 O571 2.240 . S
Cd562 O563 2.240 . S
Cd562 O570 2.223 . S
Cd562 O572 2.297 . S
Cd562 O573 2.439 . S
O563 Cd562 2.240 . S
O563 C568 1.279 . S
O564 Cd561 2.297 . S
O564 C566 1.247 . S
O565 Cd561 2.439 . S
O565 C566 1.208 . S
C566 O564 1.247 . S
C566 O565 1.208 . S
C567 O572 1.247 . S
C567 O573 1.208 . S
C568 O560 1.315 . S
C568 O563 1.279 . S
C569 O570 1.315 . S
C569 O571 1.279 . S
O570 Cd562 2.223 . S
O570 C569 1.315 . S
O571 Cd561 2.240 . S
O571 C569 1.279 . S
O572 Cd562 2.297 . S
O572 C567 1.247 . S
O573 Cd562 2.439 . S
O573 C567 1.208 . S
O574 Cd575 2.223 . S
O574 C582 1.315 . S
Cd575 O574 2.223 . S
Cd575 O578 2.297 . S
Cd575 O579 2.439 . S
Cd575 O585 2.240 . S
Cd576 O577 2.240 . S
Cd576 O584 2.223 . S
Cd576 O586 2.297 . S
Cd576 O587 2.439 . S
O577 Cd576 2.240 . S
O577 C582 1.279 . S
O578 Cd575 2.297 . S
O578 C580 1.247 . S
O579 Cd575 2.439 . S
O579 C580 1.208 . S
C580 O578 1.247 . S
C580 O579 1.208 . S
C581 O586 1.247 . S
C581 O587 1.208 . S
C582 O574 1.315 . S
C582 O577 1.279 . S
C583 O584 1.315 . S
C583 O585 1.279 . S
O584 Cd576 2.223 . S
O584 C583 1.315 . S
O585 Cd575 2.240 . S
O585 C583 1.279 . S
O586 Cd576 2.297 . S
O586 C581 1.247 . S
O587 Cd576 2.439 . S
O587 C581 1.208 . S
O588 Cd589 2.223 . S
O588 C596 1.315 . S
Cd589 O588 2.223 . S
Cd589 O592 2.297 . S
Cd589 O593 2.439 . S
Cd589 O599 2.240 . S
Cd590 O591 2.240 . S
Cd590 O598 2.223 . S
Cd590 O600 2.297 . S
Cd590 O601 2.439 . S
O591 Cd590 2.240 . S
O591 C596 1.279 . S
O592 Cd589 2.297 . S
O592 C594 1.247 . S
O593 Cd589 2.439 . S
O593 C594 1.208 . S
C594 O592 1.247 . S
C594 O593 1.208 . S
C595 O600 1.247 . S
C595 O601 1.208 . S
C596 O588 1.315 . S
C596 O591 1.279 . S
C597 O598 1.315 . S
C597 O599 1.279 . S
O598 Cd590 2.223 . S
O598 C597 1.315 . S
O599 Cd589 2.240 . S
O599 C597 1.279 . S
O600 Cd590 2.297 . S
O600 C595 1.247 . S
O601 Cd590 2.439 . S
O601 C595 1.208 . S
O602 Cd603 2.223 . S
O602 C610 1.315 . S
Cd603 O602 2.223 . S
Cd603 O606 2.297 . S
Cd603 O607 2.439 . S
Cd603 O613 2.240 . S
Cd604 O605 2.240 . S
Cd604 O612 2.223 . S
Cd604 O614 2.297 . S
Cd604 O615 2.439 . S
O605 Cd604 2.240 . S
O605 C610 1.279 . S
O606 Cd603 2.297 . S
O606 C608 1.247 . S
O607 Cd603 2.439 . S
O607 C608 1.208 . S
C608 O606 1.247 . S
C608 O607 1.208 . S
C609 O614 1.247 . S
C609 O615 1.208 . S
C610 O602 1.315 . S
C610 O605 1.279 . S
C611 O612 1.315 . S
C611 O613 1.279 . S
O612 Cd604 2.223 . S
O612 C611 1.315 . S
O613 Cd603 2.240 . S
O613 C611 1.279 . S
O614 Cd604 2.297 . S
O614 C609 1.247 . S
O615 Cd604 2.439 . S
O615 C609 1.208 . S
O616 Cd617 2.223 . S
O616 C624 1.315 . S
Cd617 O616 2.223 . S
Cd617 O620 2.297 . S
Cd617 O621 2.439 . S
Cd617 O627 2.240 . S
Cd618 O619 2.240 . S
Cd618 O626 2.223 . S
Cd618 O628 2.297 . S
Cd618 O629 2.439 . S
O619 Cd618 2.240 . S
O619 C624 1.279 . S
O620 Cd617 2.297 . S
O620 C622 1.247 . S
O621 Cd617 2.439 . S
O621 C622 1.208 . S
C622 O620 1.247 . S
C622 O621 1.208 . S
C623 O628 1.247 . S
C623 O629 1.208 . S
C624 O616 1.315 . S
C624 O619 1.279 . S
C625 O626 1.315 . S
C625 O627 1.279 . S
O626 Cd618 2.223 . S
O626 C625 1.315 . S
O627 Cd617 2.240 . S
O627 C625 1.279 . S
O628 Cd618 2.297 . S
O628 C623 1.247 . S
O629 Cd618 2.439 . S
O629 C623 1.208 . S
O630 Cd631 2.223 . S
O630 C638 1.315 . S
Cd631 O630 2.223 . S
Cd631 O634 2.297 . S
Cd631 O635 2.439 . S
Cd631 O641 2.240 . S
Cd632 O633 2.240 . S
Cd632 O640 2.223 . S
Cd632 O642 2.297 . S
Cd632 O643 2.439 . S
O633 Cd632 2.240 . S
O633 C638 1.279 . S
O634 Cd631 2.297 . S
O634 C636 1.247 . S
O635 Cd631 2.439 . S
O635 C636 1.208 . S
C636 O634 1.247 . S
C636 O635 1.208 . S
C637 O642 1.247 . S
C637 O643 1.208 . S
C638 O630 1.315 . S
C638 O633 1.279 . S
C639 O640 1.315 . S
C639 O641 1.279 . S
O640 Cd632 2.223 . S
O640 C639 1.315 . S
O641 Cd631 2.240 . S
O641 C639 1.279 . S
O642 Cd632 2.297 . S
O642 C637 1.247 . S
O643 Cd632 2.439 . S
O643 C637 1.208 . S
O644 Cd645 2.223 . S
O644 C652 1.315 . S
Cd645 O644 2.223 . S
Cd645 O648 2.297 . S
Cd645 O649 2.439 . S
Cd645 O655 2.240 . S
Cd646 O647 2.240 . S
Cd646 O654 2.223 . S
Cd646 O656 2.297 . S
Cd646 O657 2.439 . S
O647 Cd646 2.240 . S
O647 C652 1.279 . S
O648 Cd645 2.297 . S
O648 C650 1.247 . S
O649 Cd645 2.439 . S
O649 C650 1.208 . S
C650 O648 1.247 . S
C650 O649 1.208 . S
C651 O656 1.247 . S
C651 O657 1.208 . S
C652 O644 1.315 . S
C652 O647 1.279 . S
C653 O654 1.315 . S
C653 O655 1.279 . S
O654 Cd646 2.223 . S
O654 C653 1.315 . S
O655 Cd645 2.240 . S
O655 C653 1.279 . S
O656 Cd646 2.297 . S
O656 C651 1.247 . S
O657 Cd646 2.439 . S
O657 C651 1.208 . S
O658 Cd659 2.223 . S
O658 C666 1.315 . S
Cd659 O658 2.223 . S
Cd659 O662 2.297 . S
Cd659 O663 2.439 . S
Cd659 O669 2.240 . S
Cd660 O661 2.240 . S
Cd660 O668 2.223 . S
Cd660 O670 2.297 . S
Cd660 O671 2.439 . S
O661 Cd660 2.240 . S
O661 C666 1.279 . S
O662 Cd659 2.297 . S
O662 C664 1.247 . S
O663 Cd659 2.439 . S
O663 C664 1.208 . S
C664 O662 1.247 . S
C664 O663 1.208 . S
C665 O670 1.247 . S
C665 O671 1.208 . S
C666 O658 1.315 . S
C666 O661 1.279 . S
C667 O668 1.315 . S
C667 O669 1.279 . S
O668 Cd660 2.223 . S
O668 C667 1.315 . S
O669 Cd659 2.240 . S
O669 C667 1.279 . S
O670 Cd660 2.297 . S
O670 C665 1.247 . S
O671 Cd660 2.439 . S
O671 C665 1.208 . S
C672 C673 1.363 . S
C672 C678 1.379 . S
C672 N680 1.356 . S
C673 C672 1.363 . S
C673 C679 1.363 1_655 S
C674 C675 1.363 . S
C674 C679 1.379 . S
C674 N681 1.356 . S
C675 C674 1.363 . S
C675 C678 1.363 1_455 S
N676 C678 1.356 1_455 S
N676 H688 0.984 1_455 S
N676 H689 0.985 . S
N677 C679 1.356 1_655 S
N677 H682 0.984 . S
N677 H683 0.985 1_655 S
C678 C672 1.379 . S
C678 C675 1.363 1_655 S
C678 N676 1.356 1_655 S
C679 C673 1.363 1_455 S
C679 C674 1.379 . S
C679 N677 1.356 1_455 S
N680 C672 1.356 . S
N680 H686 0.984 . S
N680 H687 0.984 . S
N681 C674 1.356 . S
N681 H684 0.984 . S
N681 H685 0.985 . S
H682 N677 0.984 . S
H683 N677 0.985 1_455 S
H684 N681 0.984 . S
H685 N681 0.985 . S
H686 N680 0.984 . S
H687 N680 0.984 . S
H688 N676 0.984 1_655 S
H689 N676 0.985 . S
C690 C691 1.363 . S
C690 C696 1.379 1_565 S
C690 N698 1.356 . S
C691 C690 1.363 . S
C691 C697 1.363 . S
C692 C693 1.363 . S
C692 C697 1.379 1_545 S
C692 N699 1.356 . S
C693 C692 1.363 . S
C693 C696 1.363 . S
N694 C696 1.356 . S
N694 H706 0.984 . S
N694 H707 0.985 . S
N695 C697 1.356 . S
N695 H700 0.984 . S
N695 H701 0.985 . S
C696 C690 1.379 1_545 S
C696 C693 1.363 . S
C696 N694 1.356 . S
C697 C691 1.363 . S
C697 C692 1.379 1_565 S
C697 N695 1.356 . S
N698 C690 1.356 . S
N698 H704 0.984 . S
N698 H705 0.984 . S
N699 C692 1.356 . S
N699 H702 0.984 . S
N699 H703 0.985 . S
H700 N695 0.984 . S
H701 N695 0.985 . S
H702 N699 0.984 . S
H703 N699 0.985 . S
H704 N698 0.984 . S
H705 N698 0.984 . S
H706 N694 0.984 . S
H707 N694 0.985 . S
C708 C709 1.363 . S
C708 C714 1.379 1_455 S
C708 N716 1.356 . S
C709 C708 1.363 . S
C709 C715 1.363 . S
C710 C711 1.363 . S
C710 C715 1.379 1_655 S
C710 N717 1.356 . S
C711 C710 1.363 . S
C711 C714 1.363 . S
N712 C714 1.356 . S
N712 H724 0.984 . S
N712 H725 0.985 . S
N713 C715 1.356 . S
N713 H718 0.984 . S
N713 H719 0.985 . S
C714 C708 1.379 1_655 S
C714 C711 1.363 . S
C714 N712 1.356 . S
C715 C709 1.363 . S
C715 C710 1.379 1_455 S
C715 N713 1.356 . S
N716 C708 1.356 . S
N716 H722 0.984 . S
N716 H723 0.984 . S
N717 C710 1.356 . S
N717 H720 0.984 . S
N717 H721 0.985 . S
H718 N713 0.984 . S
H719 N713 0.985 . S
H720 N717 0.984 . S
H721 N717 0.985 . S
H722 N716 0.984 . S
H723 N716 0.984 . S
H724 N712 0.984 . S
H725 N712 0.985 . S
C726 C727 1.363 . S
C726 C732 1.379 1_565 S
C726 N734 1.356 . S
C727 C726 1.363 . S
C727 C733 1.363 . S
C728 C729 1.363 . S
C728 C733 1.379 1_545 S
C728 N735 1.356 . S
C729 C728 1.363 . S
C729 C732 1.363 . S
N730 C732 1.356 . S
N730 H742 0.984 . S
N730 H743 0.985 . S
N731 C733 1.356 . S
N731 H736 0.984 . S
N731 H737 0.985 . S
C732 C726 1.379 1_545 S
C732 C729 1.363 . S
C732 N730 1.356 . S
C733 C727 1.363 . S
C733 C728 1.379 1_565 S
C733 N731 1.356 . S
N734 C726 1.356 . S
N734 H740 0.984 . S
N734 H741 0.984 . S
N735 C728 1.356 . S
N735 H738 0.984 . S
N735 H739 0.985 . S
H736 N731 0.984 . S
H737 N731 0.985 . S
H738 N735 0.984 . S
H739 N735 0.985 . S
H740 N734 0.984 . S
H741 N734 0.984 . S
H742 N730 0.984 . S
H743 N730 0.985 . S
C744 C745 1.363 . S
C744 C750 1.379 . S
C744 N752 1.356 . S
C745 C744 1.363 . S
C745 C751 1.363 1_655 S
C746 C747 1.363 . S
C746 C751 1.379 . S
C746 N753 1.356 . S
C747 C746 1.363 . S
C747 C750 1.363 1_455 S
N748 C750 1.356 . S
N748 H760 0.984 . S
N748 H761 0.985 1_655 S
N749 C751 1.356 . S
N749 H754 0.984 1_455 S
N749 H755 0.985 . S
C750 C744 1.379 . S
C750 C747 1.363 1_655 S
C750 N748 1.356 . S
C751 C745 1.363 1_455 S
C751 C746 1.379 . S
C751 N749 1.356 . S
N752 C744 1.356 . S
N752 H758 0.984 . S
N752 H759 0.984 . S
N753 C746 1.356 . S
N753 H756 0.984 . S
N753 H757 0.985 . S
H754 N749 0.984 1_655 S
H755 N749 0.985 . S
H756 N753 0.984 . S
H757 N753 0.985 . S
H758 N752 0.984 . S
H759 N752 0.984 . S
H760 N748 0.984 . S
H761 N748 0.985 1_455 S
C762 C763 1.363 1_565 S
C762 C768 1.379 . S
C762 N770 1.356 . S
C763 C762 1.363 1_545 S
C763 C769 1.363 . S
C764 C765 1.363 1_545 S
C764 C769 1.379 . S
C764 N771 1.356 . S
C765 C764 1.363 1_565 S
C765 C768 1.363 . S
N766 C768 1.356 . S
N766 H778 0.984 . S
N766 H779 0.985 . S
N767 C769 1.356 . S
N767 H772 0.984 . S
N767 H773 0.985 . S
C768 C762 1.379 . S
C768 C765 1.363 . S
C768 N766 1.356 . S
C769 C763 1.363 . S
C769 C764 1.379 . S
C769 N767 1.356 . S
N770 C762 1.356 . S
N770 H776 0.984 . S
N770 H777 0.984 1_565 S
N771 C764 1.356 . S
N771 H774 0.984 1_545 S
N771 H775 0.985 . S
H772 N767 0.984 . S
H773 N767 0.985 . S
H774 N771 0.984 1_565 S
H775 N771 0.985 . S
H776 N770 0.984 . S
H777 N770 0.984 1_545 S
H778 N766 0.984 . S
H779 N766 0.985 . S
C780 C781 1.363 1_655 S
C780 C786 1.379 . S
C780 N788 1.356 . S
C781 C780 1.363 1_455 S
C781 C787 1.363 . S
C782 C783 1.363 1_455 S
C782 C787 1.379 . S
C782 N789 1.356 . S
C783 C782 1.363 1_655 S
C783 C786 1.363 . S
N784 C786 1.356 . S
N784 H796 0.984 . S
N784 H797 0.985 . S
N785 C787 1.356 . S
N785 H790 0.984 . S
N785 H791 0.985 . S
C786 C780 1.379 . S
C786 C783 1.363 . S
C786 N784 1.356 . S
C787 C781 1.363 . S
C787 C782 1.379 . S
C787 N785 1.356 . S
N788 C780 1.356 . S
N788 H794 0.984 . S
N788 H795 0.984 1_655 S
N789 C782 1.356 . S
N789 H792 0.984 1_455 S
N789 H793 0.985 . S
H790 N785 0.984 . S
H791 N785 0.985 . S
H792 N789 0.984 1_655 S
H793 N789 0.985 . S
H794 N788 0.984 . S
H795 N788 0.984 1_455 S
H796 N784 0.984 . S
H797 N784 0.985 . S
C798 C799 1.363 . S
C798 C804 1.379 . S
C798 N806 1.356 . S
C799 C798 1.363 . S
C799 C805 1.363 1_545 S
C800 C801 1.363 . S
C800 C805 1.379 . S
C800 N807 1.356 . S
C801 C800 1.363 . S
C801 C804 1.363 1_565 S
N802 C804 1.356 1_565 S
N802 H814 0.984 1_565 S
N802 H815 0.985 . S
N803 C805 1.356 1_545 S
N803 H808 0.984 . S
N803 H809 0.985 1_545 S
C804 C798 1.379 . S
C804 C801 1.363 1_545 S
C804 N802 1.356 1_545 S
C805 C799 1.363 1_565 S
C805 C800 1.379 . S
C805 N803 1.356 1_565 S
N806 C798 1.356 . S
N806 H812 0.984 . S
N806 H813 0.984 . S
N807 C800 1.356 . S
N807 H810 0.984 . S
N807 H811 0.985 . S
H808 N803 0.984 . S
H809 N803 0.985 1_565 S
H810 N807 0.984 . S
H811 N807 0.985 . S
H812 N806 0.984 . S
H813 N806 0.984 . S
H814 N802 0.984 1_545 S
H815 N802 0.985 . S
C816 C817 1.363 . S
C816 C822 1.379 . S
C816 N824 1.356 . S
C817 C816 1.363 . S
C817 C823 1.363 1_554 S
C818 C819 1.363 . S
C818 C823 1.379 . S
C818 N825 1.356 . S
C819 C818 1.363 . S
C819 C822 1.363 1_556 S
N820 C822 1.356 . S
N820 H832 0.984 . S
N820 H833 0.985 1_554 S
N821 C823 1.356 . S
N821 H826 0.984 1_556 S
N821 H827 0.985 . S
C822 C816 1.379 . S
C822 C819 1.363 1_554 S
C822 N820 1.356 . S
C823 C817 1.363 1_556 S
C823 C818 1.379 . S
C823 N821 1.356 . S
N824 C816 1.356 . S
N824 H830 0.984 . S
N824 H831 0.984 . S
N825 C818 1.356 . S
N825 H828 0.984 . S
N825 H829 0.985 . S
H826 N821 0.984 1_554 S
H827 N821 0.985 . S
H828 N825 0.984 . S
H829 N825 0.985 . S
H830 N824 0.984 . S
H831 N824 0.984 . S
H832 N820 0.984 . S
H833 N820 0.985 1_556 S
C834 C835 1.363 1_554 S
C834 C840 1.379 . S
C834 N842 1.356 . S
C835 C834 1.363 1_556 S
C835 C841 1.363 . S
C836 C837 1.363 1_556 S
C836 C841 1.379 . S
C836 N843 1.356 . S
C837 C836 1.363 1_554 S
C837 C840 1.363 . S
N838 C840 1.356 . S
N838 H850 0.984 . S
N838 H851 0.985 . S
N839 C841 1.356 . S
N839 H844 0.984 . S
N839 H845 0.985 . S
C840 C834 1.379 . S
C840 C837 1.363 . S
C840 N838 1.356 . S
C841 C835 1.363 . S
C841 C836 1.379 . S
C841 N839 1.356 . S
N842 C834 1.356 . S
N842 H848 0.984 . S
N842 H849 0.984 1_554 S
N843 C836 1.356 . S
N843 H846 0.984 1_556 S
N843 H847 0.985 . S
H844 N839 0.984 . S
H845 N839 0.985 . S
H846 N843 0.984 1_554 S
H847 N843 0.985 . S
H848 N842 0.984 . S
H849 N842 0.984 1_556 S
H850 N838 0.984 . S
H851 N838 0.985 . S
C852 C853 1.363 . S
C852 C858 1.379 . S
C852 N860 1.356 . S
C853 C852 1.363 . S
C853 C859 1.363 1_556 S
C854 C855 1.363 . S
C854 C859 1.379 . S
C854 N861 1.356 . S
C855 C854 1.363 . S
C855 C858 1.363 1_554 S
N856 C858 1.356 . S
N856 H868 0.984 . S
N856 H869 0.985 1_556 S
N857 C859 1.356 . S
N857 H862 0.984 1_554 S
N857 H863 0.985 . S
C858 C852 1.379 . S
C858 C855 1.363 1_556 S
C858 N856 1.356 . S
C859 C853 1.363 1_554 S
C859 C854 1.379 . S
C859 N857 1.356 . S
N860 C852 1.356 . S
N860 H866 0.984 . S
N860 H867 0.984 . S
N861 C854 1.356 . S
N861 H864 0.984 . S
N861 H865 0.985 . S
H862 N857 0.984 1_556 S
H863 N857 0.985 . S
H864 N861 0.984 . S
H865 N861 0.985 . S
H866 N860 0.984 . S
H867 N860 0.984 . S
H868 N856 0.984 . S
H869 N856 0.985 1_554 S
C870 C871 1.363 . S
C870 C876 1.379 1_556 S
C870 N878 1.356 . S
C871 C870 1.363 . S
C871 C877 1.363 . S
C872 C873 1.363 . S
C872 C877 1.379 1_554 S
C872 N879 1.356 . S
C873 C872 1.363 . S
C873 C876 1.363 . S
N874 C876 1.356 . S
N874 H886 0.984 . S
N874 H887 0.985 . S
N875 C877 1.356 . S
N875 H880 0.984 . S
N875 H881 0.985 . S
C876 C870 1.379 1_554 S
C876 C873 1.363 . S
C876 N874 1.356 . S
C877 C871 1.363 . S
C877 C872 1.379 1_556 S
C877 N875 1.356 . S
N878 C870 1.356 . S
N878 H884 0.984 . S
N878 H885 0.984 . S
N879 C872 1.356 . S
N879 H882 0.984 . S
N879 H883 0.985 . S
H880 N875 0.984 . S
H881 N875 0.985 . S
H882 N879 0.984 . S
H883 N879 0.985 . S
H884 N878 0.984 . S
H885 N878 0.984 . S
H886 N874 0.984 . S
H887 N874 0.985 . S
C888 C889 1.363 . S
C888 C894 1.379 . S
C888 N896 1.356 . S
C889 C888 1.363 . S
C889 C895 1.363 . S
C890 C891 1.363 . S
C890 C895 1.379 . S
C890 N897 1.356 . S
C891 C890 1.363 . S
C891 C894 1.363 . S
N892 C894 1.356 . S
N892 H904 0.984 . S
N892 H905 0.985 . S
N893 C895 1.356 . S
N893 H898 0.984 . S
N893 H899 0.985 . S
C894 C888 1.379 . S
C894 C891 1.363 . S
C894 N892 1.356 . S
C895 C889 1.363 . S
C895 C890 1.379 . S
C895 N893 1.356 . S
N896 C888 1.356 . S
N896 H902 0.984 . S
N896 H903 0.984 . S
N897 C890 1.356 . S
N897 H900 0.984 . S
N897 H901 0.985 . S
H898 N893 0.984 . S
H899 N893 0.985 . S
H900 N897 0.984 . S
H901 N897 0.985 . S
H902 N896 0.984 . S
H903 N896 0.984 . S
H904 N892 0.984 . S
H905 N892 0.985 . S
C906 C907 1.363 . S
C906 C912 1.379 . S
C906 N914 1.356 . S
C907 C906 1.363 . S
C907 C913 1.363 . S
C908 C909 1.363 . S
C908 C913 1.379 . S
C908 N915 1.356 . S
C909 C908 1.363 . S
C909 C912 1.363 . S
N910 C912 1.356 . S
N910 H922 0.984 . S
N910 H923 0.985 . S
N911 C913 1.356 . S
N911 H916 0.984 . S
N911 H917 0.985 . S
C912 C906 1.379 . S
C912 C909 1.363 . S
C912 N910 1.356 . S
C913 C907 1.363 . S
C913 C908 1.379 . S
C913 N911 1.356 . S
N914 C906 1.356 . S
N914 H920 0.984 . S
N914 H921 0.984 . S
N915 C908 1.356 . S
N915 H918 0.984 . S
N915 H919 0.985 . S
H916 N911 0.984 . S
H917 N911 0.985 . S
H918 N915 0.984 . S
H919 N915 0.985 . S
H920 N914 0.984 . S
H921 N914 0.984 . S
H922 N910 0.984 . S
H923 N910 0.985 . S
C924 C925 1.363 . S
C924 C930 1.379 . S
C924 N932 1.356 . S
C925 C924 1.363 . S
C925 C931 1.363 . S
C926 C927 1.363 . S
C926 C931 1.379 . S
C926 N933 1.356 . S
C927 C926 1.363 . S
C927 C930 1.363 . S
N928 C930 1.356 . S
N928 H940 0.984 . S
N928 H941 0.985 . S
N929 C931 1.356 . S
N929 H934 0.984 . S
N929 H935 0.985 . S
C930 C924 1.379 . S
C930 C927 1.363 . S
C930 N928 1.356 . S
C931 C925 1.363 . S
C931 C926 1.379 . S
C931 N929 1.356 . S
N932 C924 1.356 . S
N932 H938 0.984 . S
N932 H939 0.984 . S
N933 C926 1.356 . S
N933 H936 0.984 . S
N933 H937 0.985 . S
H934 N929 0.984 . S
H935 N929 0.985 . S
H936 N933 0.984 . S
H937 N933 0.985 . S
H938 N932 0.984 . S
H939 N932 0.984 . S
H940 N928 0.984 . S
H941 N928 0.985 . S
C942 C943 1.363 . S
C942 C948 1.379 . S
C942 N950 1.356 . S
C943 C942 1.363 . S
C943 C949 1.363 . S
C944 C945 1.363 . S
C944 C949 1.379 . S
C944 N951 1.356 . S
C945 C944 1.363 . S
C945 C948 1.363 . S
N946 C948 1.356 . S
N946 H958 0.984 . S
N946 H959 0.985 . S
N947 C949 1.356 . S
N947 H952 0.984 . S
N947 H953 0.985 . S
C948 C942 1.379 . S
C948 C945 1.363 . S
C948 N946 1.356 . S
C949 C943 1.363 . S
C949 C944 1.379 . S
C949 N947 1.356 . S
N950 C942 1.356 . S
N950 H956 0.984 . S
N950 H957 0.984 . S
N951 C944 1.356 . S
N951 H954 0.984 . S
N951 H955 0.985 . S
H952 N947 0.984 . S
H953 N947 0.985 . S
H954 N951 0.984 . S
H955 N951 0.985 . S
H956 N950 0.984 . S
H957 N950 0.984 . S
H958 N946 0.984 . S
H959 N946 0.985 . S
C960 C961 1.363 . S
C960 C966 1.379 . S
C960 N968 1.356 . S
C961 C960 1.363 . S
C961 C967 1.363 . S
C962 C963 1.363 . S
C962 C967 1.379 . S
C962 N969 1.356 . S
C963 C962 1.363 . S
C963 C966 1.363 . S
N964 C966 1.356 . S
N964 H976 0.984 . S
N964 H977 0.985 . S
N965 C967 1.356 . S
N965 H970 0.984 . S
N965 H971 0.985 . S
C966 C960 1.379 . S
C966 C963 1.363 . S
C966 N964 1.356 . S
C967 C961 1.363 . S
C967 C962 1.379 . S
C967 N965 1.356 . S
N968 C960 1.356 . S
N968 H974 0.984 . S
N968 H975 0.984 . S
N969 C962 1.356 . S
N969 H972 0.984 . S
N969 H973 0.985 . S
H970 N965 0.984 . S
H971 N965 0.985 . S
H972 N969 0.984 . S
H973 N969 0.985 . S
H974 N968 0.984 . S
H975 N968 0.984 . S
H976 N964 0.984 . S
H977 N964 0.985 . S
C978 C979 1.363 . S
C978 C984 1.379 . S
C978 N986 1.356 . S
C979 C978 1.363 . S
C979 C985 1.363 . S
C980 C981 1.363 . S
C980 C985 1.379 . S
C980 N987 1.356 . S
C981 C980 1.363 . S
C981 C984 1.363 . S
N982 C984 1.356 . S
N982 H994 0.984 . S
N982 H995 0.985 . S
N983 C985 1.356 . S
N983 H988 0.984 . S
N983 H989 0.985 . S
C984 C978 1.379 . S
C984 C981 1.363 . S
C984 N982 1.356 . S
C985 C979 1.363 . S
C985 C980 1.379 . S
C985 N983 1.356 . S
N986 C978 1.356 . S
N986 H992 0.984 . S
N986 H993 0.984 . S
N987 C980 1.356 . S
N987 H990 0.984 . S
N987 H991 0.985 . S
H988 N983 0.984 . S
H989 N983 0.985 . S
H990 N987 0.984 . S
H991 N987 0.985 . S
H992 N986 0.984 . S
H993 N986 0.984 . S
H994 N982 0.984 . S
H995 N982 0.985 . S
C996 C997 1.363 . S
C996 C1002 1.379 . S
C996 N1004 1.356 . S
C997 C996 1.363 . S
C997 C1003 1.363 . S
C998 C999 1.363 . S
C998 C1003 1.379 . S
C998 N1005 1.356 . S
C999 C998 1.363 . S
C999 C1002 1.363 . S
N1000 C1002 1.356 . S
N1000 H1012 0.984 . S
N1000 H1013 0.985 . S
N1001 C1003 1.356 . S
N1001 H1006 0.984 . S
N1001 H1007 0.985 . S
C1002 C996 1.379 . S
C1002 C999 1.363 . S
C1002 N1000 1.356 . S
C1003 C997 1.363 . S
C1003 C998 1.379 . S
C1003 N1001 1.356 . S
N1004 C996 1.356 . S
N1004 H1010 0.984 . S
N1004 H1011 0.984 . S
N1005 C998 1.356 . S
N1005 H1008 0.984 . S
N1005 H1009 0.985 . S
H1006 N1001 0.984 . S
H1007 N1001 0.985 . S
H1008 N1005 0.984 . S
H1009 N1005 0.985 . S
H1010 N1004 0.984 . S
H1011 N1004 0.984 . S
H1012 N1000 0.984 . S
H1013 N1000 0.985 . S
C1014 C1015 1.363 . S
C1014 C1020 1.379 . S
C1014 N1022 1.356 . S
C1015 C1014 1.363 . S
C1015 C1021 1.363 . S
C1016 C1017 1.363 . S
C1016 C1021 1.379 . S
C1016 N1023 1.356 . S
C1017 C1016 1.363 . S
C1017 C1020 1.363 . S
N1018 C1020 1.356 . S
N1018 H1030 0.984 . S
N1018 H1031 0.985 . S
N1019 C1021 1.356 . S
N1019 H1024 0.984 . S
N1019 H1025 0.985 . S
C1020 C1014 1.379 . S
C1020 C1017 1.363 . S
C1020 N1018 1.356 . S
C1021 C1015 1.363 . S
C1021 C1016 1.379 . S
C1021 N1019 1.356 . S
N1022 C1014 1.356 . S
N1022 H1028 0.984 . S
N1022 H1029 0.984 . S
N1023 C1016 1.356 . S
N1023 H1026 0.984 . S
N1023 H1027 0.985 . S
H1024 N1019 0.984 . S
H1025 N1019 0.985 . S
H1026 N1023 0.984 . S
H1027 N1023 0.985 . S
H1028 N1022 0.984 . S
H1029 N1022 0.984 . S
H1030 N1018 0.984 . S
H1031 N1018 0.985 . S
C1032 C1033 1.363 . S
C1032 C1038 1.379 . S
C1032 N1040 1.356 . S
C1033 C1032 1.363 . S
C1033 C1039 1.363 . S
C1034 C1035 1.363 . S
C1034 C1039 1.379 . S
C1034 N1041 1.356 . S
C1035 C1034 1.363 . S
C1035 C1038 1.363 . S
N1036 C1038 1.356 . S
N1036 H1048 0.984 . S
N1036 H1049 0.985 . S
N1037 C1039 1.356 . S
N1037 H1042 0.984 . S
N1037 H1043 0.985 . S
C1038 C1032 1.379 . S
C1038 C1035 1.363 . S
C1038 N1036 1.356 . S
C1039 C1033 1.363 . S
C1039 C1034 1.379 . S
C1039 N1037 1.356 . S
N1040 C1032 1.356 . S
N1040 H1046 0.984 . S
N1040 H1047 0.984 . S
N1041 C1034 1.356 . S
N1041 H1044 0.984 . S
N1041 H1045 0.985 . S
H1042 N1037 0.984 . S
H1043 N1037 0.985 . S
H1044 N1041 0.984 . S
H1045 N1041 0.985 . S
H1046 N1040 0.984 . S
H1047 N1040 0.984 . S
H1048 N1036 0.984 . S
H1049 N1036 0.985 . S
C1050 C1051 1.363 . S
C1050 C1056 1.379 . S
C1050 N1058 1.356 . S
C1051 C1050 1.363 . S
C1051 C1057 1.363 . S
C1052 C1053 1.363 . S
C1052 C1057 1.379 . S
C1052 N1059 1.356 . S
C1053 C1052 1.363 . S
C1053 C1056 1.363 . S
N1054 C1056 1.356 . S
N1054 H1066 0.984 . S
N1054 H1067 0.985 . S
N1055 C1057 1.356 . S
N1055 H1060 0.984 . S
N1055 H1061 0.985 . S
C1056 C1050 1.379 . S
C1056 C1053 1.363 . S
C1056 N1054 1.356 . S
C1057 C1051 1.363 . S
C1057 C1052 1.379 . S
C1057 N1055 1.356 . S
N1058 C1050 1.356 . S
N1058 H1064 0.984 . S
N1058 H1065 0.984 . S
N1059 C1052 1.356 . S
N1059 H1062 0.984 . S
N1059 H1063 0.985 . S
H1060 N1055 0.984 . S
H1061 N1055 0.985 . S
H1062 N1059 0.984 . S
H1063 N1059 0.985 . S
H1064 N1058 0.984 . S
H1065 N1058 0.984 . S
H1066 N1054 0.984 . S
H1067 N1054 0.985 . S
C1068 C1069 1.363 . S
C1068 C1074 1.379 . S
C1068 N1076 1.356 . S
C1069 C1068 1.363 . S
C1069 C1075 1.363 . S
C1070 C1071 1.363 . S
C1070 C1075 1.379 . S
C1070 N1077 1.356 . S
C1071 C1070 1.363 . S
C1071 C1074 1.363 . S
N1072 C1074 1.356 . S
N1072 H1084 0.984 . S
N1072 H1085 0.985 . S
N1073 C1075 1.356 . S
N1073 H1078 0.984 . S
N1073 H1079 0.985 . S
C1074 C1068 1.379 . S
C1074 C1071 1.363 . S
C1074 N1072 1.356 . S
C1075 C1069 1.363 . S
C1075 C1070 1.379 . S
C1075 N1073 1.356 . S
N1076 C1068 1.356 . S
N1076 H1082 0.984 . S
N1076 H1083 0.984 . S
N1077 C1070 1.356 . S
N1077 H1080 0.984 . S
N1077 H1081 0.985 . S
H1078 N1073 0.984 . S
H1079 N1073 0.985 . S
H1080 N1077 0.984 . S
H1081 N1077 0.985 . S
H1082 N1076 0.984 . S
H1083 N1076 0.984 . S
H1084 N1072 0.984 . S
H1085 N1072 0.985 . S
C1086 C1087 1.363 . S
C1086 C1092 1.379 . S
C1086 N1094 1.356 . S
C1087 C1086 1.363 . S
C1087 C1093 1.363 . S
C1088 C1089 1.363 . S
C1088 C1093 1.379 . S
C1088 N1095 1.356 . S
C1089 C1088 1.363 . S
C1089 C1092 1.363 . S
N1090 C1092 1.356 . S
N1090 H1102 0.984 . S
N1090 H1103 0.985 . S
N1091 C1093 1.356 . S
N1091 H1096 0.984 . S
N1091 H1097 0.985 . S
C1092 C1086 1.379 . S
C1092 C1089 1.363 . S
C1092 N1090 1.356 . S
C1093 C1087 1.363 . S
C1093 C1088 1.379 . S
C1093 N1091 1.356 . S
N1094 C1086 1.356 . S
N1094 H1100 0.984 . S
N1094 H1101 0.984 . S
N1095 C1088 1.356 . S
N1095 H1098 0.984 . S
N1095 H1099 0.985 . S
H1096 N1091 0.984 . S
H1097 N1091 0.985 . S
H1098 N1095 0.984 . S
H1099 N1095 0.985 . S
H1100 N1094 0.984 . S
H1101 N1094 0.984 . S
H1102 N1090 0.984 . S
H1103 N1090 0.985 . S
C1104 C1105 1.363 . S
C1104 C1110 1.379 . S
C1104 N1112 1.356 . S
C1105 C1104 1.363 . S
C1105 C1111 1.363 . S
C1106 C1107 1.363 . S
C1106 C1111 1.379 . S
C1106 N1113 1.356 . S
C1107 C1106 1.363 . S
C1107 C1110 1.363 . S
N1108 C1110 1.356 . S
N1108 H1120 0.984 . S
N1108 H1121 0.985 . S
N1109 C1111 1.356 . S
N1109 H1114 0.984 . S
N1109 H1115 0.985 . S
C1110 C1104 1.379 . S
C1110 C1107 1.363 . S
C1110 N1108 1.356 . S
C1111 C1105 1.363 . S
C1111 C1106 1.379 . S
C1111 N1109 1.356 . S
N1112 C1104 1.356 . S
N1112 H1118 0.984 . S
N1112 H1119 0.984 . S
N1113 C1106 1.356 . S
N1113 H1116 0.984 . S
N1113 H1117 0.985 . S
H1114 N1109 0.984 . S
H1115 N1109 0.985 . S
H1116 N1113 0.984 . S
H1117 N1113 0.985 . S
H1118 N1112 0.984 . S
H1119 N1112 0.984 . S
H1120 N1108 0.984 . S
H1121 N1108 0.985 . S
C1122 C1123 1.363 . S
C1122 C1128 1.379 . S
C1122 N1130 1.356 . S
C1123 C1122 1.363 . S
C1123 C1129 1.363 . S
C1124 C1125 1.363 . S
C1124 C1129 1.379 . S
C1124 N1131 1.356 . S
C1125 C1124 1.363 . S
C1125 C1128 1.363 . S
N1126 C1128 1.356 . S
N1126 H1138 0.984 . S
N1126 H1139 0.985 . S
N1127 C1129 1.356 . S
N1127 H1132 0.984 . S
N1127 H1133 0.985 . S
C1128 C1122 1.379 . S
C1128 C1125 1.363 . S
C1128 N1126 1.356 . S
C1129 C1123 1.363 . S
C1129 C1124 1.379 . S
C1129 N1127 1.356 . S
N1130 C1122 1.356 . S
N1130 H1136 0.984 . S
N1130 H1137 0.984 . S
N1131 C1124 1.356 . S
N1131 H1134 0.984 . S
N1131 H1135 0.985 . S
H1132 N1127 0.984 . S
H1133 N1127 0.985 . S
H1134 N1131 0.984 . S
H1135 N1131 0.985 . S
H1136 N1130 0.984 . S
H1137 N1130 0.984 . S
H1138 N1126 0.984 . S
H1139 N1126 0.985 . S
C1140 C1141 1.363 . S
C1140 C1146 1.379 . S
C1140 N1148 1.356 . S
C1141 C1140 1.363 . S
C1141 C1147 1.363 . S
C1142 C1143 1.363 . S
C1142 C1147 1.379 . S
C1142 N1149 1.356 . S
C1143 C1142 1.363 . S
C1143 C1146 1.363 . S
N1144 C1146 1.356 . S
N1144 H1156 0.984 . S
N1144 H1157 0.985 . S
N1145 C1147 1.356 . S
N1145 H1150 0.984 . S
N1145 H1151 0.985 . S
C1146 C1140 1.379 . S
C1146 C1143 1.363 . S
C1146 N1144 1.356 . S
C1147 C1141 1.363 . S
C1147 C1142 1.379 . S
C1147 N1145 1.356 . S
N1148 C1140 1.356 . S
N1148 H1154 0.984 . S
N1148 H1155 0.984 . S
N1149 C1142 1.356 . S
N1149 H1152 0.984 . S
N1149 H1153 0.985 . S
H1150 N1145 0.984 . S
H1151 N1145 0.985 . S
H1152 N1149 0.984 . S
H1153 N1149 0.985 . S
H1154 N1148 0.984 . S
H1155 N1148 0.984 . S
H1156 N1144 0.984 . S
H1157 N1144 0.985 . S
C1158 C1159 1.363 . S
C1158 C1164 1.379 . S
C1158 N1166 1.356 . S
C1159 C1158 1.363 . S
C1159 C1165 1.363 . S
C1160 C1161 1.363 . S
C1160 C1165 1.379 . S
C1160 N1167 1.356 . S
C1161 C1160 1.363 . S
C1161 C1164 1.363 . S
N1162 C1164 1.356 . S
N1162 H1174 0.984 . S
N1162 H1175 0.985 . S
N1163 C1165 1.356 . S
N1163 H1168 0.984 . S
N1163 H1169 0.985 . S
C1164 C1158 1.379 . S
C1164 C1161 1.363 . S
C1164 N1162 1.356 . S
C1165 C1159 1.363 . S
C1165 C1160 1.379 . S
C1165 N1163 1.356 . S
N1166 C1158 1.356 . S
N1166 H1172 0.984 . S
N1166 H1173 0.984 . S
N1167 C1160 1.356 . S
N1167 H1170 0.984 . S
N1167 H1171 0.985 . S
H1168 N1163 0.984 . S
H1169 N1163 0.985 . S
H1170 N1167 0.984 . S
H1171 N1167 0.985 . S
H1172 N1166 0.984 . S
H1173 N1166 0.984 . S
H1174 N1162 0.984 . S
H1175 N1162 0.985 . S
C1176 C1177 1.363 . S
C1176 C1182 1.379 . S
C1176 N1184 1.356 . S
C1177 C1176 1.363 . S
C1177 C1183 1.363 . S
C1178 C1179 1.363 . S
C1178 C1183 1.379 . S
C1178 N1185 1.356 . S
C1179 C1178 1.363 . S
C1179 C1182 1.363 . S
N1180 C1182 1.356 . S
N1180 H1192 0.984 . S
N1180 H1193 0.985 . S
N1181 C1183 1.356 . S
N1181 H1186 0.984 . S
N1181 H1187 0.985 . S
C1182 C1176 1.379 . S
C1182 C1179 1.363 . S
C1182 N1180 1.356 . S
C1183 C1177 1.363 . S
C1183 C1178 1.379 . S
C1183 N1181 1.356 . S
N1184 C1176 1.356 . S
N1184 H1190 0.984 . S
N1184 H1191 0.984 . S
N1185 C1178 1.356 . S
N1185 H1188 0.984 . S
N1185 H1189 0.985 . S
H1186 N1181 0.984 . S
H1187 N1181 0.985 . S
H1188 N1185 0.984 . S
H1189 N1185 0.985 . S
H1190 N1184 0.984 . S
H1191 N1184 0.984 . S
H1192 N1180 0.984 . S
H1193 N1180 0.985 . S
C1194 C1195 1.363 . S
C1194 C1200 1.379 . S
C1194 N1202 1.356 . S
C1195 C1194 1.363 . S
C1195 C1201 1.363 . S
C1196 C1197 1.363 . S
C1196 C1201 1.379 . S
C1196 N1203 1.356 . S
C1197 C1196 1.363 . S
C1197 C1200 1.363 . S
N1198 C1200 1.356 . S
N1198 H1210 0.984 . S
N1198 H1211 0.985 . S
N1199 C1201 1.356 . S
N1199 H1204 0.984 . S
N1199 H1205 0.985 . S
C1200 C1194 1.379 . S
C1200 C1197 1.363 . S
C1200 N1198 1.356 . S
C1201 C1195 1.363 . S
C1201 C1196 1.379 . S
C1201 N1199 1.356 . S
N1202 C1194 1.356 . S
N1202 H1208 0.984 . S
N1202 H1209 0.984 . S
N1203 C1196 1.356 . S
N1203 H1206 0.984 . S
N1203 H1207 0.985 . S
H1204 N1199 0.984 . S
H1205 N1199 0.985 . S
H1206 N1203 0.984 . S
H1207 N1203 0.985 . S
H1208 N1202 0.984 . S
H1209 N1202 0.984 . S
H1210 N1198 0.984 . S
H1211 N1198 0.985 . S
C1212 C1213 1.363 . S
C1212 C1218 1.379 . S
C1212 N1220 1.356 . S
C1213 C1212 1.363 . S
C1213 C1219 1.363 . S
C1214 C1215 1.363 . S
C1214 C1219 1.379 . S
C1214 N1221 1.356 . S
C1215 C1214 1.363 . S
C1215 C1218 1.363 . S
N1216 C1218 1.356 . S
N1216 H1228 0.984 . S
N1216 H1229 0.985 . S
N1217 C1219 1.356 . S
N1217 H1222 0.984 . S
N1217 H1223 0.985 . S
C1218 C1212 1.379 . S
C1218 C1215 1.363 . S
C1218 N1216 1.356 . S
C1219 C1213 1.363 . S
C1219 C1214 1.379 . S
C1219 N1217 1.356 . S
N1220 C1212 1.356 . S
N1220 H1226 0.984 . S
N1220 H1227 0.984 . S
N1221 C1214 1.356 . S
N1221 H1224 0.984 . S
N1221 H1225 0.985 . S
H1222 N1217 0.984 . S
H1223 N1217 0.985 . S
H1224 N1221 0.984 . S
H1225 N1221 0.985 . S
H1226 N1220 0.984 . S
H1227 N1220 0.984 . S
H1228 N1216 0.984 . S
H1229 N1216 0.985 . S
C1230 C1231 1.363 . S
C1230 C1236 1.379 . S
C1230 N1238 1.356 . S
C1231 C1230 1.363 . S
C1231 C1237 1.363 . S
C1232 C1233 1.363 . S
C1232 C1237 1.379 . S
C1232 N1239 1.356 . S
C1233 C1232 1.363 . S
C1233 C1236 1.363 . S
N1234 C1236 1.356 . S
N1234 H1246 0.984 . S
N1234 H1247 0.985 . S
N1235 C1237 1.356 . S
N1235 H1240 0.984 . S
N1235 H1241 0.985 . S
C1236 C1230 1.379 . S
C1236 C1233 1.363 . S
C1236 N1234 1.356 . S
C1237 C1231 1.363 . S
C1237 C1232 1.379 . S
C1237 N1235 1.356 . S
N1238 C1230 1.356 . S
N1238 H1244 0.984 . S
N1238 H1245 0.984 . S
N1239 C1232 1.356 . S
N1239 H1242 0.984 . S
N1239 H1243 0.985 . S
H1240 N1235 0.984 . S
H1241 N1235 0.985 . S
H1242 N1239 0.984 . S
H1243 N1239 0.985 . S
H1244 N1238 0.984 . S
H1245 N1238 0.984 . S
H1246 N1234 0.984 . S
H1247 N1234 0.985 . S
C1248 C1249 1.363 . S
C1248 C1254 1.379 . S
C1248 N1256 1.356 . S
C1249 C1248 1.363 . S
C1249 C1255 1.363 . S
C1250 C1251 1.363 . S
C1250 C1255 1.379 . S
C1250 N1257 1.356 . S
C1251 C1250 1.363 . S
C1251 C1254 1.363 . S
N1252 C1254 1.356 . S
N1252 H1264 0.984 . S
N1252 H1265 0.985 . S
N1253 C1255 1.356 . S
N1253 H1258 0.984 . S
N1253 H1259 0.985 . S
C1254 C1248 1.379 . S
C1254 C1251 1.363 . S
C1254 N1252 1.356 . S
C1255 C1249 1.363 . S
C1255 C1250 1.379 . S
C1255 N1253 1.356 . S
N1256 C1248 1.356 . S
N1256 H1262 0.984 . S
N1256 H1263 0.984 . S
N1257 C1250 1.356 . S
N1257 H1260 0.984 . S
N1257 H1261 0.985 . S
H1258 N1253 0.984 . S
H1259 N1253 0.985 . S
H1260 N1257 0.984 . S
H1261 N1257 0.985 . S
H1262 N1256 0.984 . S
H1263 N1256 0.984 . S
H1264 N1252 0.984 . S
H1265 N1252 0.985 . S
C1266 C1267 1.363 . S
C1266 C1272 1.379 . S
C1266 N1274 1.356 . S
C1267 C1266 1.363 . S
C1267 C1273 1.363 . S
C1268 C1269 1.363 . S
C1268 C1273 1.379 . S
C1268 N1275 1.356 . S
C1269 C1268 1.363 . S
C1269 C1272 1.363 . S
N1270 C1272 1.356 . S
N1270 H1282 0.984 . S
N1270 H1283 0.985 . S
N1271 C1273 1.356 . S
N1271 H1276 0.984 . S
N1271 H1277 0.985 . S
C1272 C1266 1.379 . S
C1272 C1269 1.363 . S
C1272 N1270 1.356 . S
C1273 C1267 1.363 . S
C1273 C1268 1.379 . S
C1273 N1271 1.356 . S
N1274 C1266 1.356 . S
N1274 H1280 0.984 . S
N1274 H1281 0.984 . S
N1275 C1268 1.356 . S
N1275 H1278 0.984 . S
N1275 H1279 0.985 . S
H1276 N1271 0.984 . S
H1277 N1271 0.985 . S
H1278 N1275 0.984 . S
H1279 N1275 0.985 . S
H1280 N1274 0.984 . S
H1281 N1274 0.984 . S
H1282 N1270 0.984 . S
H1283 N1270 0.985 . S
C1284 C1285 1.363 . S
C1284 C1290 1.379 . S
C1284 N1292 1.356 . S
C1285 C1284 1.363 . S
C1285 C1291 1.363 . S
C1286 C1287 1.363 . S
C1286 C1291 1.379 . S
C1286 N1293 1.356 . S
C1287 C1286 1.363 . S
C1287 C1290 1.363 . S
N1288 C1290 1.356 . S
N1288 H1300 0.984 . S
N1288 H1301 0.985 . S
N1289 C1291 1.356 . S
N1289 H1294 0.984 . S
N1289 H1295 0.985 . S
C1290 C1284 1.379 . S
C1290 C1287 1.363 . S
C1290 N1288 1.356 . S
C1291 C1285 1.363 . S
C1291 C1286 1.379 . S
C1291 N1289 1.356 . S
N1292 C1284 1.356 . S
N1292 H1298 0.984 . S
N1292 H1299 0.984 . S
N1293 C1286 1.356 . S
N1293 H1296 0.984 . S
N1293 H1297 0.985 . S
H1294 N1289 0.984 . S
H1295 N1289 0.985 . S
H1296 N1293 0.984 . S
H1297 N1293 0.985 . S
H1298 N1292 0.984 . S
H1299 N1292 0.984 . S
H1300 N1288 0.984 . S
H1301 N1288 0.985 . S
C1302 C1303 1.363 . S
C1302 C1308 1.379 . S
C1302 N1310 1.356 . S
C1303 C1302 1.363 . S
C1303 C1309 1.363 . S
C1304 C1305 1.363 . S
C1304 C1309 1.379 . S
C1304 N1311 1.356 . S
C1305 C1304 1.363 . S
C1305 C1308 1.363 . S
N1306 C1308 1.356 . S
N1306 H1318 0.984 . S
N1306 H1319 0.985 . S
N1307 C1309 1.356 . S
N1307 H1312 0.984 . S
N1307 H1313 0.985 . S
C1308 C1302 1.379 . S
C1308 C1305 1.363 . S
C1308 N1306 1.356 . S
C1309 C1303 1.363 . S
C1309 C1304 1.379 . S
C1309 N1307 1.356 . S
N1310 C1302 1.356 . S
N1310 H1316 0.984 . S
N1310 H1317 0.984 . S
N1311 C1304 1.356 . S
N1311 H1314 0.984 . S
N1311 H1315 0.985 . S
H1312 N1307 0.984 . S
H1313 N1307 0.985 . S
H1314 N1311 0.984 . S
H1315 N1311 0.985 . S
H1316 N1310 0.984 . S
H1317 N1310 0.984 . S
H1318 N1306 0.984 . S
H1319 N1306 0.985 . S
C1320 C1321 1.363 . S
C1320 C1326 1.379 . S
C1320 N1328 1.356 . S
C1321 C1320 1.363 . S
C1321 C1327 1.363 . S
C1322 C1323 1.363 . S
C1322 C1327 1.379 . S
C1322 N1329 1.356 . S
C1323 C1322 1.363 . S
C1323 C1326 1.363 . S
N1324 C1326 1.356 . S
N1324 H1336 0.984 . S
N1324 H1337 0.985 . S
N1325 C1327 1.356 . S
N1325 H1330 0.984 . S
N1325 H1331 0.985 . S
C1326 C1320 1.379 . S
C1326 C1323 1.363 . S
C1326 N1324 1.356 . S
C1327 C1321 1.363 . S
C1327 C1322 1.379 . S
C1327 N1325 1.356 . S
N1328 C1320 1.356 . S
N1328 H1334 0.984 . S
N1328 H1335 0.984 . S
N1329 C1322 1.356 . S
N1329 H1332 0.984 . S
N1329 H1333 0.985 . S
H1330 N1325 0.984 . S
H1331 N1325 0.985 . S
H1332 N1329 0.984 . S
H1333 N1329 0.985 . S
H1334 N1328 0.984 . S
H1335 N1328 0.984 . S
H1336 N1324 0.984 . S
H1337 N1324 0.985 . S
C1338 C1339 1.363 . S
C1338 C1344 1.379 . S
C1338 N1346 1.356 . S
C1339 C1338 1.363 . S
C1339 C1345 1.363 . S
C1340 C1341 1.363 . S
C1340 C1345 1.379 . S
C1340 N1347 1.356 . S
C1341 C1340 1.363 . S
C1341 C1344 1.363 . S
N1342 C1344 1.356 . S
N1342 H1354 0.984 . S
N1342 H1355 0.985 . S
N1343 C1345 1.356 . S
N1343 H1348 0.984 . S
N1343 H1349 0.985 . S
C1344 C1338 1.379 . S
C1344 C1341 1.363 . S
C1344 N1342 1.356 . S
C1345 C1339 1.363 . S
C1345 C1340 1.379 . S
C1345 N1343 1.356 . S
N1346 C1338 1.356 . S
N1346 H1352 0.984 . S
N1346 H1353 0.984 . S
N1347 C1340 1.356 . S
N1347 H1350 0.984 . S
N1347 H1351 0.985 . S
H1348 N1343 0.984 . S
H1349 N1343 0.985 . S
H1350 N1347 0.984 . S
H1351 N1347 0.985 . S
H1352 N1346 0.984 . S
H1353 N1346 0.984 . S
H1354 N1342 0.984 . S
H1355 N1342 0.985 . S
C1356 C1357 1.363 . S
C1356 C1362 1.379 . S
C1356 N1364 1.356 . S
C1357 C1356 1.363 . S
C1357 C1363 1.363 . S
C1358 C1359 1.363 . S
C1358 C1363 1.379 . S
C1358 N1365 1.356 . S
C1359 C1358 1.363 . S
C1359 C1362 1.363 . S
N1360 C1362 1.356 . S
N1360 H1372 0.984 . S
N1360 H1373 0.985 . S
N1361 C1363 1.356 . S
N1361 H1366 0.984 . S
N1361 H1367 0.985 . S
C1362 C1356 1.379 . S
C1362 C1359 1.363 . S
C1362 N1360 1.356 . S
C1363 C1357 1.363 . S
C1363 C1358 1.379 . S
C1363 N1361 1.356 . S
N1364 C1356 1.356 . S
N1364 H1370 0.984 . S
N1364 H1371 0.984 . S
N1365 C1358 1.356 . S
N1365 H1368 0.984 . S
N1365 H1369 0.985 . S
H1366 N1361 0.984 . S
H1367 N1361 0.985 . S
H1368 N1365 0.984 . S
H1369 N1365 0.985 . S
H1370 N1364 0.984 . S
H1371 N1364 0.984 . S
H1372 N1360 0.984 . S
H1373 N1360 0.985 . S
C1374 C1375 1.363 . S
C1374 C1380 1.379 . S
C1374 N1382 1.356 . S
C1375 C1374 1.363 . S
C1375 C1381 1.363 . S
C1376 C1377 1.363 . S
C1376 C1381 1.379 . S
C1376 N1383 1.356 . S
C1377 C1376 1.363 . S
C1377 C1380 1.363 . S
N1378 C1380 1.356 . S
N1378 H1390 0.984 . S
N1378 H1391 0.985 . S
N1379 C1381 1.356 . S
N1379 H1384 0.984 . S
N1379 H1385 0.985 . S
C1380 C1374 1.379 . S
C1380 C1377 1.363 . S
C1380 N1378 1.356 . S
C1381 C1375 1.363 . S
C1381 C1376 1.379 . S
C1381 N1379 1.356 . S
N1382 C1374 1.356 . S
N1382 H1388 0.984 . S
N1382 H1389 0.984 . S
N1383 C1376 1.356 . S
N1383 H1386 0.984 . S
N1383 H1387 0.985 . S
H1384 N1379 0.984 . S
H1385 N1379 0.985 . S
H1386 N1383 0.984 . S
H1387 N1383 0.985 . S
H1388 N1382 0.984 . S
H1389 N1382 0.984 . S
H1390 N1378 0.984 . S
H1391 N1378 0.985 . S
C1392 C1393 1.363 . S
C1392 C1398 1.379 . S
C1392 N1400 1.356 . S
C1393 C1392 1.363 . S
C1393 C1399 1.363 . S
C1394 C1395 1.363 . S
C1394 C1399 1.379 . S
C1394 N1401 1.356 . S
C1395 C1394 1.363 . S
C1395 C1398 1.363 . S
N1396 C1398 1.356 . S
N1396 H1408 0.984 . S
N1396 H1409 0.985 . S
N1397 C1399 1.356 . S
N1397 H1402 0.984 . S
N1397 H1403 0.985 . S
C1398 C1392 1.379 . S
C1398 C1395 1.363 . S
C1398 N1396 1.356 . S
C1399 C1393 1.363 . S
C1399 C1394 1.379 . S
C1399 N1397 1.356 . S
N1400 C1392 1.356 . S
N1400 H1406 0.984 . S
N1400 H1407 0.984 . S
N1401 C1394 1.356 . S
N1401 H1404 0.984 . S
N1401 H1405 0.985 . S
H1402 N1397 0.984 . S
H1403 N1397 0.985 . S
H1404 N1401 0.984 . S
H1405 N1401 0.985 . S
H1406 N1400 0.984 . S
H1407 N1400 0.984 . S
H1408 N1396 0.984 . S
H1409 N1396 0.985 . S
C1410 C1411 1.363 . S
C1410 C1416 1.379 . S
C1410 N1418 1.356 . S
C1411 C1410 1.363 . S
C1411 C1417 1.363 . S
C1412 C1413 1.363 . S
C1412 C1417 1.379 . S
C1412 N1419 1.356 . S
C1413 C1412 1.363 . S
C1413 C1416 1.363 . S
N1414 C1416 1.356 . S
N1414 H1426 0.984 . S
N1414 H1427 0.985 . S
N1415 C1417 1.356 . S
N1415 H1420 0.984 . S
N1415 H1421 0.985 . S
C1416 C1410 1.379 . S
C1416 C1413 1.363 . S
C1416 N1414 1.356 . S
C1417 C1411 1.363 . S
C1417 C1412 1.379 . S
C1417 N1415 1.356 . S
N1418 C1410 1.356 . S
N1418 H1424 0.984 . S
N1418 H1425 0.984 . S
N1419 C1412 1.356 . S
N1419 H1422 0.984 . S
N1419 H1423 0.985 . S
H1420 N1415 0.984 . S
H1421 N1415 0.985 . S
H1422 N1419 0.984 . S
H1423 N1419 0.985 . S
H1424 N1418 0.984 . S
H1425 N1418 0.984 . S
H1426 N1414 0.984 . S
H1427 N1414 0.985 . S
C1428 C1429 1.363 . S
C1428 C1434 1.379 . S
C1428 N1436 1.356 . S
C1429 C1428 1.363 . S
C1429 C1435 1.363 . S
C1430 C1431 1.363 . S
C1430 C1435 1.379 . S
C1430 N1437 1.356 . S
C1431 C1430 1.363 . S
C1431 C1434 1.363 . S
N1432 C1434 1.356 . S
N1432 H1444 0.984 . S
N1432 H1445 0.985 . S
N1433 C1435 1.356 . S
N1433 H1438 0.984 . S
N1433 H1439 0.985 . S
C1434 C1428 1.379 . S
C1434 C1431 1.363 . S
C1434 N1432 1.356 . S
C1435 C1429 1.363 . S
C1435 C1430 1.379 . S
C1435 N1433 1.356 . S
N1436 C1428 1.356 . S
N1436 H1442 0.984 . S
N1436 H1443 0.984 . S
N1437 C1430 1.356 . S
N1437 H1440 0.984 . S
N1437 H1441 0.985 . S
H1438 N1433 0.984 . S
H1439 N1433 0.985 . S
H1440 N1437 0.984 . S
H1441 N1437 0.985 . S
H1442 N1436 0.984 . S
H1443 N1436 0.984 . S
H1444 N1432 0.984 . S
H1445 N1432 0.985 . S
C1446 C1447 1.363 . S
C1446 C1452 1.379 . S
C1446 N1454 1.356 . S
C1447 C1446 1.363 . S
C1447 C1453 1.363 . S
C1448 C1449 1.363 . S
C1448 C1453 1.379 . S
C1448 N1455 1.356 . S
C1449 C1448 1.363 . S
C1449 C1452 1.363 . S
N1450 C1452 1.356 . S
N1450 H1462 0.984 . S
N1450 H1463 0.985 . S
N1451 C1453 1.356 . S
N1451 H1456 0.984 . S
N1451 H1457 0.985 . S
C1452 C1446 1.379 . S
C1452 C1449 1.363 . S
C1452 N1450 1.356 . S
C1453 C1447 1.363 . S
C1453 C1448 1.379 . S
C1453 N1451 1.356 . S
N1454 C1446 1.356 . S
N1454 H1460 0.984 . S
N1454 H1461 0.984 . S
N1455 C1448 1.356 . S
N1455 H1458 0.984 . S
N1455 H1459 0.985 . S
H1456 N1451 0.984 . S
H1457 N1451 0.985 . S
H1458 N1455 0.984 . S
H1459 N1455 0.985 . S
H1460 N1454 0.984 . S
H1461 N1454 0.984 . S
H1462 N1450 0.984 . S
H1463 N1450 0.985 . S
C1464 C1465 1.363 . S
C1464 C1470 1.379 . S
C1464 N1472 1.356 . S
C1465 C1464 1.363 . S
C1465 C1471 1.363 . S
C1466 C1467 1.363 . S
C1466 C1471 1.379 . S
C1466 N1473 1.356 . S
C1467 C1466 1.363 . S
C1467 C1470 1.363 . S
N1468 C1470 1.356 . S
N1468 H1480 0.984 . S
N1468 H1481 0.985 . S
N1469 C1471 1.356 . S
N1469 H1474 0.984 . S
N1469 H1475 0.985 . S
C1470 C1464 1.379 . S
C1470 C1467 1.363 . S
C1470 N1468 1.356 . S
C1471 C1465 1.363 . S
C1471 C1466 1.379 . S
C1471 N1469 1.356 . S
N1472 C1464 1.356 . S
N1472 H1478 0.984 . S
N1472 H1479 0.984 . S
N1473 C1466 1.356 . S
N1473 H1476 0.984 . S
N1473 H1477 0.985 . S
H1474 N1469 0.984 . S
H1475 N1469 0.985 . S
H1476 N1473 0.984 . S
H1477 N1473 0.985 . S
H1478 N1472 0.984 . S
H1479 N1472 0.984 . S
H1480 N1468 0.984 . S
H1481 N1468 0.985 . S
C1482 C1483 1.363 . S
C1482 C1488 1.379 . S
C1482 N1490 1.356 . S
C1483 C1482 1.363 . S
C1483 C1489 1.363 . S
C1484 C1485 1.363 . S
C1484 C1489 1.379 . S
C1484 N1491 1.356 . S
C1485 C1484 1.363 . S
C1485 C1488 1.363 . S
N1486 C1488 1.356 . S
N1486 H1498 0.984 . S
N1486 H1499 0.985 . S
N1487 C1489 1.356 . S
N1487 H1492 0.984 . S
N1487 H1493 0.985 . S
C1488 C1482 1.379 . S
C1488 C1485 1.363 . S
C1488 N1486 1.356 . S
C1489 C1483 1.363 . S
C1489 C1484 1.379 . S
C1489 N1487 1.356 . S
N1490 C1482 1.356 . S
N1490 H1496 0.984 . S
N1490 H1497 0.984 . S
N1491 C1484 1.356 . S
N1491 H1494 0.984 . S
N1491 H1495 0.985 . S
H1492 N1487 0.984 . S
H1493 N1487 0.985 . S
H1494 N1491 0.984 . S
H1495 N1491 0.985 . S
H1496 N1490 0.984 . S
H1497 N1490 0.984 . S
H1498 N1486 0.984 . S
H1499 N1486 0.985 . S
C1500 C1501 1.363 . S
C1500 C1506 1.379 . S
C1500 N1508 1.356 . S
C1501 C1500 1.363 . S
C1501 C1507 1.363 . S
C1502 C1503 1.363 . S
C1502 C1507 1.379 . S
C1502 N1509 1.356 . S
C1503 C1502 1.363 . S
C1503 C1506 1.363 . S
N1504 C1506 1.356 . S
N1504 H1516 0.984 . S
N1504 H1517 0.985 . S
N1505 C1507 1.356 . S
N1505 H1510 0.984 . S
N1505 H1511 0.985 . S
C1506 C1500 1.379 . S
C1506 C1503 1.363 . S
C1506 N1504 1.356 . S
C1507 C1501 1.363 . S
C1507 C1502 1.379 . S
C1507 N1505 1.356 . S
N1508 C1500 1.356 . S
N1508 H1514 0.984 . S
N1508 H1515 0.984 . S
N1509 C1502 1.356 . S
N1509 H1512 0.984 . S
N1509 H1513 0.985 . S
H1510 N1505 0.984 . S
H1511 N1505 0.985 . S
H1512 N1509 0.984 . S
H1513 N1509 0.985 . S
H1514 N1508 0.984 . S
H1515 N1508 0.984 . S
H1516 N1504 0.984 . S
H1517 N1504 0.985 . S
C1518 C1519 1.363 . S
C1518 C1524 1.379 . S
C1518 N1526 1.356 . S
C1519 C1518 1.363 . S
C1519 C1525 1.363 . S
C1520 C1521 1.363 . S
C1520 C1525 1.379 . S
C1520 N1527 1.356 . S
C1521 C1520 1.363 . S
C1521 C1524 1.363 . S
N1522 C1524 1.356 . S
N1522 H1534 0.984 . S
N1522 H1535 0.985 . S
N1523 C1525 1.356 . S
N1523 H1528 0.984 . S
N1523 H1529 0.985 . S
C1524 C1518 1.379 . S
C1524 C1521 1.363 . S
C1524 N1522 1.356 . S
C1525 C1519 1.363 . S
C1525 C1520 1.379 . S
C1525 N1523 1.356 . S
N1526 C1518 1.356 . S
N1526 H1532 0.984 . S
N1526 H1533 0.984 . S
N1527 C1520 1.356 . S
N1527 H1530 0.984 . S
N1527 H1531 0.985 . S
H1528 N1523 0.984 . S
H1529 N1523 0.985 . S
H1530 N1527 0.984 . S
H1531 N1527 0.985 . S
H1532 N1526 0.984 . S
H1533 N1526 0.984 . S
H1534 N1522 0.984 . S
H1535 N1522 0.985 . S
C1536 C1537 1.363 . S
C1536 C1542 1.379 . S
C1536 N1544 1.356 . S
C1537 C1536 1.363 . S
C1537 C1543 1.363 . S
C1538 C1539 1.363 . S
C1538 C1543 1.379 . S
C1538 N1545 1.356 . S
C1539 C1538 1.363 . S
C1539 C1542 1.363 . S
N1540 C1542 1.356 . S
N1540 H1552 0.984 . S
N1540 H1553 0.985 . S
N1541 C1543 1.356 . S
N1541 H1546 0.984 . S
N1541 H1547 0.985 . S
C1542 C1536 1.379 . S
C1542 C1539 1.363 . S
C1542 N1540 1.356 . S
C1543 C1537 1.363 . S
C1543 C1538 1.379 . S
C1543 N1541 1.356 . S
N1544 C1536 1.356 . S
N1544 H1550 0.984 . S
N1544 H1551 0.984 . S
N1545 C1538 1.356 . S
N1545 H1548 0.984 . S
N1545 H1549 0.985 . S
H1546 N1541 0.984 . S
H1547 N1541 0.985 . S
H1548 N1545 0.984 . S
H1549 N1545 0.985 . S
H1550 N1544 0.984 . S
H1551 N1544 0.984 . S
H1552 N1540 0.984 . S
H1553 N1540 0.985 . S
C1554 C1555 1.363 . S
C1554 C1560 1.379 . S
C1554 N1562 1.356 . S
C1555 C1554 1.363 . S
C1555 C1561 1.363 . S
C1556 C1557 1.363 . S
C1556 C1561 1.379 . S
C1556 N1563 1.356 . S
C1557 C1556 1.363 . S
C1557 C1560 1.363 . S
N1558 C1560 1.356 . S
N1558 H1570 0.984 . S
N1558 H1571 0.985 . S
N1559 C1561 1.356 . S
N1559 H1564 0.984 . S
N1559 H1565 0.985 . S
C1560 C1554 1.379 . S
C1560 C1557 1.363 . S
C1560 N1558 1.356 . S
C1561 C1555 1.363 . S
C1561 C1556 1.379 . S
C1561 N1559 1.356 . S
N1562 C1554 1.356 . S
N1562 H1568 0.984 . S
N1562 H1569 0.984 . S
N1563 C1556 1.356 . S
N1563 H1566 0.984 . S
N1563 H1567 0.985 . S
H1564 N1559 0.984 . S
H1565 N1559 0.985 . S
H1566 N1563 0.984 . S
H1567 N1563 0.985 . S
H1568 N1562 0.984 . S
H1569 N1562 0.984 . S
H1570 N1558 0.984 . S
H1571 N1558 0.985 . S
C1572 C1573 1.363 . S
C1572 C1578 1.379 . S
C1572 N1580 1.356 . S
C1573 C1572 1.363 . S
C1573 C1579 1.363 . S
C1574 C1575 1.363 . S
C1574 C1579 1.379 . S
C1574 N1581 1.356 . S
C1575 C1574 1.363 . S
C1575 C1578 1.363 . S
N1576 C1578 1.356 . S
N1576 H1588 0.984 . S
N1576 H1589 0.985 . S
N1577 C1579 1.356 . S
N1577 H1582 0.984 . S
N1577 H1583 0.985 . S
C1578 C1572 1.379 . S
C1578 C1575 1.363 . S
C1578 N1576 1.356 . S
C1579 C1573 1.363 . S
C1579 C1574 1.379 . S
C1579 N1577 1.356 . S
N1580 C1572 1.356 . S
N1580 H1586 0.984 . S
N1580 H1587 0.984 . S
N1581 C1574 1.356 . S
N1581 H1584 0.984 . S
N1581 H1585 0.985 . S
H1582 N1577 0.984 . S
H1583 N1577 0.985 . S
H1584 N1581 0.984 . S
H1585 N1581 0.985 . S
H1586 N1580 0.984 . S
H1587 N1580 0.984 . S
H1588 N1576 0.984 . S
H1589 N1576 0.985 . S
C1590 C1591 1.363 . S
C1590 C1596 1.379 . S
C1590 N1598 1.356 . S
C1591 C1590 1.363 . S
C1591 C1597 1.363 . S
C1592 C1593 1.363 . S
C1592 C1597 1.379 . S
C1592 N1599 1.356 . S
C1593 C1592 1.363 . S
C1593 C1596 1.363 . S
N1594 C1596 1.356 . S
N1594 H1606 0.984 . S
N1594 H1607 0.985 . S
N1595 C1597 1.356 . S
N1595 H1600 0.984 . S
N1595 H1601 0.985 . S
C1596 C1590 1.379 . S
C1596 C1593 1.363 . S
C1596 N1594 1.356 . S
C1597 C1591 1.363 . S
C1597 C1592 1.379 . S
C1597 N1595 1.356 . S
N1598 C1590 1.356 . S
N1598 H1604 0.984 . S
N1598 H1605 0.984 . S
N1599 C1592 1.356 . S
N1599 H1602 0.984 . S
N1599 H1603 0.985 . S
H1600 N1595 0.984 . S
H1601 N1595 0.985 . S
H1602 N1599 0.984 . S
H1603 N1599 0.985 . S
H1604 N1598 0.984 . S
H1605 N1598 0.984 . S
H1606 N1594 0.984 . S
H1607 N1594 0.985 . S
C1608 C1609 1.363 . S
C1608 C1614 1.379 . S
C1608 N1616 1.356 . S
C1609 C1608 1.363 . S
C1609 C1615 1.363 . S
C1610 C1611 1.363 . S
C1610 C1615 1.379 . S
C1610 N1617 1.356 . S
C1611 C1610 1.363 . S
C1611 C1614 1.363 . S
N1612 C1614 1.356 . S
N1612 H1624 0.984 . S
N1612 H1625 0.985 . S
N1613 C1615 1.356 . S
N1613 H1618 0.984 . S
N1613 H1619 0.985 . S
C1614 C1608 1.379 . S
C1614 C1611 1.363 . S
C1614 N1612 1.356 . S
C1615 C1609 1.363 . S
C1615 C1610 1.379 . S
C1615 N1613 1.356 . S
N1616 C1608 1.356 . S
N1616 H1622 0.984 . S
N1616 H1623 0.984 . S
N1617 C1610 1.356 . S
N1617 H1620 0.984 . S
N1617 H1621 0.985 . S
H1618 N1613 0.984 . S
H1619 N1613 0.985 . S
H1620 N1617 0.984 . S
H1621 N1617 0.985 . S
H1622 N1616 0.984 . S
H1623 N1616 0.984 . S
H1624 N1612 0.984 . S
H1625 N1612 0.985 . S
C1626 C1627 1.363 . S
C1626 C1632 1.379 . S
C1626 N1634 1.356 . S
C1627 C1626 1.363 . S
C1627 C1633 1.363 . S
C1628 C1629 1.363 . S
C1628 C1633 1.379 . S
C1628 N1635 1.356 . S
C1629 C1628 1.363 . S
C1629 C1632 1.363 . S
N1630 C1632 1.356 . S
N1630 H1642 0.984 . S
N1630 H1643 0.985 . S
N1631 C1633 1.356 . S
N1631 H1636 0.984 . S
N1631 H1637 0.985 . S
C1632 C1626 1.379 . S
C1632 C1629 1.363 . S
C1632 N1630 1.356 . S
C1633 C1627 1.363 . S
C1633 C1628 1.379 . S
C1633 N1631 1.356 . S
N1634 C1626 1.356 . S
N1634 H1640 0.984 . S
N1634 H1641 0.984 . S
N1635 C1628 1.356 . S
N1635 H1638 0.984 . S
N1635 H1639 0.985 . S
H1636 N1631 0.984 . S
H1637 N1631 0.985 . S
H1638 N1635 0.984 . S
H1639 N1635 0.985 . S
H1640 N1634 0.984 . S
H1641 N1634 0.984 . S
H1642 N1630 0.984 . S
H1643 N1630 0.985 . S
C1644 C1645 1.363 . S
C1644 C1650 1.379 . S
C1644 N1652 1.356 . S
C1645 C1644 1.363 . S
C1645 C1651 1.363 . S
C1646 C1647 1.363 . S
C1646 C1651 1.379 . S
C1646 N1653 1.356 . S
C1647 C1646 1.363 . S
C1647 C1650 1.363 . S
N1648 C1650 1.356 . S
N1648 H1660 0.984 . S
N1648 H1661 0.985 . S
N1649 C1651 1.356 . S
N1649 H1654 0.984 . S
N1649 H1655 0.985 . S
C1650 C1644 1.379 . S
C1650 C1647 1.363 . S
C1650 N1648 1.356 . S
C1651 C1645 1.363 . S
C1651 C1646 1.379 . S
C1651 N1649 1.356 . S
N1652 C1644 1.356 . S
N1652 H1658 0.984 . S
N1652 H1659 0.984 . S
N1653 C1646 1.356 . S
N1653 H1656 0.984 . S
N1653 H1657 0.985 . S
H1654 N1649 0.984 . S
H1655 N1649 0.985 . S
H1656 N1653 0.984 . S
H1657 N1653 0.985 . S
H1658 N1652 0.984 . S
H1659 N1652 0.984 . S
H1660 N1648 0.984 . S
H1661 N1648 0.985 . S
C1662 C1663 1.363 . S
C1662 C1668 1.379 . S
C1662 N1670 1.356 . S
C1663 C1662 1.363 . S
C1663 C1669 1.363 . S
C1664 C1665 1.363 . S
C1664 C1669 1.379 . S
C1664 N1671 1.356 . S
C1665 C1664 1.363 . S
C1665 C1668 1.363 . S
N1666 C1668 1.356 . S
N1666 H1678 0.984 . S
N1666 H1679 0.985 . S
N1667 C1669 1.356 . S
N1667 H1672 0.984 . S
N1667 H1673 0.985 . S
C1668 C1662 1.379 . S
C1668 C1665 1.363 . S
C1668 N1666 1.356 . S
C1669 C1663 1.363 . S
C1669 C1664 1.379 . S
C1669 N1667 1.356 . S
N1670 C1662 1.356 . S
N1670 H1676 0.984 . S
N1670 H1677 0.984 . S
N1671 C1664 1.356 . S
N1671 H1674 0.984 . S
N1671 H1675 0.985 . S
H1672 N1667 0.984 . S
H1673 N1667 0.985 . S
H1674 N1671 0.984 . S
H1675 N1671 0.985 . S
H1676 N1670 0.984 . S
H1677 N1670 0.984 . S
H1678 N1666 0.984 . S
H1679 N1666 0.985 . S
C1680 C1681 1.363 . S
C1680 C1686 1.379 . S
C1680 N1688 1.356 . S
C1681 C1680 1.363 . S
C1681 C1687 1.363 . S
C1682 C1683 1.363 . S
C1682 C1687 1.379 . S
C1682 N1689 1.356 . S
C1683 C1682 1.363 . S
C1683 C1686 1.363 . S
N1684 C1686 1.356 . S
N1684 H1696 0.984 . S
N1684 H1697 0.985 . S
N1685 C1687 1.356 . S
N1685 H1690 0.984 . S
N1685 H1691 0.985 . S
C1686 C1680 1.379 . S
C1686 C1683 1.363 . S
C1686 N1684 1.356 . S
C1687 C1681 1.363 . S
C1687 C1682 1.379 . S
C1687 N1685 1.356 . S
N1688 C1680 1.356 . S
N1688 H1694 0.984 . S
N1688 H1695 0.984 . S
N1689 C1682 1.356 . S
N1689 H1692 0.984 . S
N1689 H1693 0.985 . S
H1690 N1685 0.984 . S
H1691 N1685 0.985 . S
H1692 N1689 0.984 . S
H1693 N1689 0.985 . S
H1694 N1688 0.984 . S
H1695 N1688 0.984 . S
H1696 N1684 0.984 . S
H1697 N1684 0.985 . S
C1698 C1699 1.363 . S
C1698 C1704 1.379 . S
C1698 N1706 1.356 . S
C1699 C1698 1.363 . S
C1699 C1705 1.363 . S
C1700 C1701 1.363 . S
C1700 C1705 1.379 . S
C1700 N1707 1.356 . S
C1701 C1700 1.363 . S
C1701 C1704 1.363 . S
N1702 C1704 1.356 . S
N1702 H1714 0.984 . S
N1702 H1715 0.985 . S
N1703 C1705 1.356 . S
N1703 H1708 0.984 . S
N1703 H1709 0.985 . S
C1704 C1698 1.379 . S
C1704 C1701 1.363 . S
C1704 N1702 1.356 . S
C1705 C1699 1.363 . S
C1705 C1700 1.379 . S
C1705 N1703 1.356 . S
N1706 C1698 1.356 . S
N1706 H1712 0.984 . S
N1706 H1713 0.984 . S
N1707 C1700 1.356 . S
N1707 H1710 0.984 . S
N1707 H1711 0.985 . S
H1708 N1703 0.984 . S
H1709 N1703 0.985 . S
H1710 N1707 0.984 . S
H1711 N1707 0.985 . S
H1712 N1706 0.984 . S
H1713 N1706 0.984 . S
H1714 N1702 0.984 . S
H1715 N1702 0.985 . S
C1716 C1717 1.363 . S
C1716 C1722 1.379 . S
C1716 N1724 1.356 . S
C1717 C1716 1.363 . S
C1717 C1723 1.363 . S
C1718 C1719 1.363 . S
C1718 C1723 1.379 . S
C1718 N1725 1.356 . S
C1719 C1718 1.363 . S
C1719 C1722 1.363 . S
N1720 C1722 1.356 . S
N1720 H1732 0.984 . S
N1720 H1733 0.985 . S
N1721 C1723 1.356 . S
N1721 H1726 0.984 . S
N1721 H1727 0.985 . S
C1722 C1716 1.379 . S
C1722 C1719 1.363 . S
C1722 N1720 1.356 . S
C1723 C1717 1.363 . S
C1723 C1718 1.379 . S
C1723 N1721 1.356 . S
N1724 C1716 1.356 . S
N1724 H1730 0.984 . S
N1724 H1731 0.984 . S
N1725 C1718 1.356 . S
N1725 H1728 0.984 . S
N1725 H1729 0.985 . S
H1726 N1721 0.984 . S
H1727 N1721 0.985 . S
H1728 N1725 0.984 . S
H1729 N1725 0.985 . S
H1730 N1724 0.984 . S
H1731 N1724 0.984 . S
H1732 N1720 0.984 . S
H1733 N1720 0.985 . S
C1734 C1735 1.363 . S
C1734 C1740 1.379 . S
C1734 N1742 1.356 . S
C1735 C1734 1.363 . S
C1735 C1741 1.363 . S
C1736 C1737 1.363 . S
C1736 C1741 1.379 . S
C1736 N1743 1.356 . S
C1737 C1736 1.363 . S
C1737 C1740 1.363 . S
N1738 C1740 1.356 . S
N1738 H1750 0.984 . S
N1738 H1751 0.985 . S
N1739 C1741 1.356 . S
N1739 H1744 0.984 . S
N1739 H1745 0.985 . S
C1740 C1734 1.379 . S
C1740 C1737 1.363 . S
C1740 N1738 1.356 . S
C1741 C1735 1.363 . S
C1741 C1736 1.379 . S
C1741 N1739 1.356 . S
N1742 C1734 1.356 . S
N1742 H1748 0.984 . S
N1742 H1749 0.984 . S
N1743 C1736 1.356 . S
N1743 H1746 0.984 . S
N1743 H1747 0.985 . S
H1744 N1739 0.984 . S
H1745 N1739 0.985 . S
H1746 N1743 0.984 . S
H1747 N1743 0.985 . S
H1748 N1742 0.984 . S
H1749 N1742 0.984 . S
H1750 N1738 0.984 . S
H1751 N1738 0.985 . S
C1752 C1753 1.363 . S
C1752 C1758 1.379 . S
C1752 N1760 1.356 . S
C1753 C1752 1.363 . S
C1753 C1759 1.363 . S
C1754 C1755 1.363 . S
C1754 C1759 1.379 . S
C1754 N1761 1.356 . S
C1755 C1754 1.363 . S
C1755 C1758 1.363 . S
N1756 C1758 1.356 . S
N1756 H1768 0.984 . S
N1756 H1769 0.985 . S
N1757 C1759 1.356 . S
N1757 H1762 0.984 . S
N1757 H1763 0.985 . S
C1758 C1752 1.379 . S
C1758 C1755 1.363 . S
C1758 N1756 1.356 . S
C1759 C1753 1.363 . S
C1759 C1754 1.379 . S
C1759 N1757 1.356 . S
N1760 C1752 1.356 . S
N1760 H1766 0.984 . S
N1760 H1767 0.984 . S
N1761 C1754 1.356 . S
N1761 H1764 0.984 . S
N1761 H1765 0.985 . S
H1762 N1757 0.984 . S
H1763 N1757 0.985 . S
H1764 N1761 0.984 . S
H1765 N1761 0.985 . S
H1766 N1760 0.984 . S
H1767 N1760 0.984 . S
H1768 N1756 0.984 . S
H1769 N1756 0.985 . S
C1770 C1771 1.363 . S
C1770 C1776 1.379 . S
C1770 N1778 1.356 . S
C1771 C1770 1.363 . S
C1771 C1777 1.363 . S
C1772 C1773 1.363 . S
C1772 C1777 1.379 . S
C1772 N1779 1.356 . S
C1773 C1772 1.363 . S
C1773 C1776 1.363 . S
N1774 C1776 1.356 . S
N1774 H1786 0.984 . S
N1774 H1787 0.985 . S
N1775 C1777 1.356 . S
N1775 H1780 0.984 . S
N1775 H1781 0.985 . S
C1776 C1770 1.379 . S
C1776 C1773 1.363 . S
C1776 N1774 1.356 . S
C1777 C1771 1.363 . S
C1777 C1772 1.379 . S
C1777 N1775 1.356 . S
N1778 C1770 1.356 . S
N1778 H1784 0.984 . S
N1778 H1785 0.984 . S
N1779 C1772 1.356 . S
N1779 H1782 0.984 . S
N1779 H1783 0.985 . S
H1780 N1775 0.984 . S
H1781 N1775 0.985 . S
H1782 N1779 0.984 . S
H1783 N1779 0.985 . S
H1784 N1778 0.984 . S
H1785 N1778 0.984 . S
H1786 N1774 0.984 . S
H1787 N1774 0.985 . S
C1788 C1789 1.363 . S
C1788 C1794 1.379 . S
C1788 N1796 1.356 . S
C1789 C1788 1.363 . S
C1789 C1795 1.363 . S
C1790 C1791 1.363 . S
C1790 C1795 1.379 . S
C1790 N1797 1.356 . S
C1791 C1790 1.363 . S
C1791 C1794 1.363 . S
N1792 C1794 1.356 . S
N1792 H1804 0.984 . S
N1792 H1805 0.985 . S
N1793 C1795 1.356 . S
N1793 H1798 0.984 . S
N1793 H1799 0.985 . S
C1794 C1788 1.379 . S
C1794 C1791 1.363 . S
C1794 N1792 1.356 . S
C1795 C1789 1.363 . S
C1795 C1790 1.379 . S
C1795 N1793 1.356 . S
N1796 C1788 1.356 . S
N1796 H1802 0.984 . S
N1796 H1803 0.984 . S
N1797 C1790 1.356 . S
N1797 H1800 0.984 . S
N1797 H1801 0.985 . S
H1798 N1793 0.984 . S
H1799 N1793 0.985 . S
H1800 N1797 0.984 . S
H1801 N1797 0.985 . S
H1802 N1796 0.984 . S
H1803 N1796 0.984 . S
H1804 N1792 0.984 . S
H1805 N1792 0.985 . S
C1806 C1807 1.363 . S
C1806 C1812 1.379 . S
C1806 N1814 1.356 . S
C1807 C1806 1.363 . S
C1807 C1813 1.363 . S
C1808 C1809 1.363 . S
C1808 C1813 1.379 . S
C1808 N1815 1.356 . S
C1809 C1808 1.363 . S
C1809 C1812 1.363 . S
N1810 C1812 1.356 . S
N1810 H1822 0.984 . S
N1810 H1823 0.985 . S
N1811 C1813 1.356 . S
N1811 H1816 0.984 . S
N1811 H1817 0.985 . S
C1812 C1806 1.379 . S
C1812 C1809 1.363 . S
C1812 N1810 1.356 . S
C1813 C1807 1.363 . S
C1813 C1808 1.379 . S
C1813 N1811 1.356 . S
N1814 C1806 1.356 . S
N1814 H1820 0.984 . S
N1814 H1821 0.984 . S
N1815 C1808 1.356 . S
N1815 H1818 0.984 . S
N1815 H1819 0.985 . S
H1816 N1811 0.984 . S
H1817 N1811 0.985 . S
H1818 N1815 0.984 . S
H1819 N1815 0.985 . S
H1820 N1814 0.984 . S
H1821 N1814 0.984 . S
H1822 N1810 0.984 . S
H1823 N1810 0.985 . S
C1824 C1825 1.363 . S
C1824 C1830 1.379 . S
C1824 N1832 1.356 . S
C1825 C1824 1.363 . S
C1825 C1831 1.363 . S
C1826 C1827 1.363 . S
C1826 C1831 1.379 . S
C1826 N1833 1.356 . S
C1827 C1826 1.363 . S
C1827 C1830 1.363 . S
N1828 C1830 1.356 . S
N1828 H1840 0.984 . S
N1828 H1841 0.985 . S
N1829 C1831 1.356 . S
N1829 H1834 0.984 . S
N1829 H1835 0.985 . S
C1830 C1824 1.379 . S
C1830 C1827 1.363 . S
C1830 N1828 1.356 . S
C1831 C1825 1.363 . S
C1831 C1826 1.379 . S
C1831 N1829 1.356 . S
N1832 C1824 1.356 . S
N1832 H1838 0.984 . S
N1832 H1839 0.984 . S
N1833 C1826 1.356 . S
N1833 H1836 0.984 . S
N1833 H1837 0.985 . S
H1834 N1829 0.984 . S
H1835 N1829 0.985 . S
H1836 N1833 0.984 . S
H1837 N1833 0.985 . S
H1838 N1832 0.984 . S
H1839 N1832 0.984 . S
H1840 N1828 0.984 . S
H1841 N1828 0.985 . S
C1842 C1843 1.363 . S
C1842 C1848 1.379 . S
C1842 N1850 1.356 . S
C1843 C1842 1.363 . S
C1843 C1849 1.363 . S
C1844 C1845 1.363 . S
C1844 C1849 1.379 . S
C1844 N1851 1.356 . S
C1845 C1844 1.363 . S
C1845 C1848 1.363 . S
N1846 C1848 1.356 . S
N1846 H1858 0.984 . S
N1846 H1859 0.985 . S
N1847 C1849 1.356 . S
N1847 H1852 0.984 . S
N1847 H1853 0.985 . S
C1848 C1842 1.379 . S
C1848 C1845 1.363 . S
C1848 N1846 1.356 . S
C1849 C1843 1.363 . S
C1849 C1844 1.379 . S
C1849 N1847 1.356 . S
N1850 C1842 1.356 . S
N1850 H1856 0.984 . S
N1850 H1857 0.984 . S
N1851 C1844 1.356 . S
N1851 H1854 0.984 . S
N1851 H1855 0.985 . S
H1852 N1847 0.984 . S
H1853 N1847 0.985 . S
H1854 N1851 0.984 . S
H1855 N1851 0.985 . S
H1856 N1850 0.984 . S
H1857 N1850 0.984 . S
H1858 N1846 0.984 . S
H1859 N1846 0.985 . S
C1860 C1861 1.363 . S
C1860 C1866 1.379 . S
C1860 N1868 1.356 . S
C1861 C1860 1.363 . S
C1861 C1867 1.363 . S
C1862 C1863 1.363 . S
C1862 C1867 1.379 . S
C1862 N1869 1.356 . S
C1863 C1862 1.363 . S
C1863 C1866 1.363 . S
N1864 C1866 1.356 . S
N1864 H1876 0.984 . S
N1864 H1877 0.985 . S
N1865 C1867 1.356 . S
N1865 H1870 0.984 . S
N1865 H1871 0.985 . S
C1866 C1860 1.379 . S
C1866 C1863 1.363 . S
C1866 N1864 1.356 . S
C1867 C1861 1.363 . S
C1867 C1862 1.379 . S
C1867 N1865 1.356 . S
N1868 C1860 1.356 . S
N1868 H1874 0.984 . S
N1868 H1875 0.984 . S
N1869 C1862 1.356 . S
N1869 H1872 0.984 . S
N1869 H1873 0.985 . S
H1870 N1865 0.984 . S
H1871 N1865 0.985 . S
H1872 N1869 0.984 . S
H1873 N1869 0.985 . S
H1874 N1868 0.984 . S
H1875 N1868 0.984 . S
H1876 N1864 0.984 . S
H1877 N1864 0.985 . S
C1878 C1879 1.363 . S
C1878 C1884 1.379 . S
C1878 N1886 1.356 . S
C1879 C1878 1.363 . S
C1879 C1885 1.363 . S
C1880 C1881 1.363 . S
C1880 C1885 1.379 . S
C1880 N1887 1.356 . S
C1881 C1880 1.363 . S
C1881 C1884 1.363 . S
N1882 C1884 1.356 . S
N1882 H1894 0.984 . S
N1882 H1895 0.985 . S
N1883 C1885 1.356 . S
N1883 H1888 0.984 . S
N1883 H1889 0.985 . S
C1884 C1878 1.379 . S
C1884 C1881 1.363 . S
C1884 N1882 1.356 . S
C1885 C1879 1.363 . S
C1885 C1880 1.379 . S
C1885 N1883 1.356 . S
N1886 C1878 1.356 . S
N1886 H1892 0.984 . S
N1886 H1893 0.984 . S
N1887 C1880 1.356 . S
N1887 H1890 0.984 . S
N1887 H1891 0.985 . S
H1888 N1883 0.984 . S
H1889 N1883 0.985 . S
H1890 N1887 0.984 . S
H1891 N1887 0.985 . S
H1892 N1886 0.984 . S
H1893 N1886 0.984 . S
H1894 N1882 0.984 . S
H1895 N1882 0.985 . S
C1896 C1897 1.363 . S
C1896 C1902 1.379 . S
C1896 N1904 1.356 . S
C1897 C1896 1.363 . S
C1897 C1903 1.363 . S
C1898 C1899 1.363 . S
C1898 C1903 1.379 . S
C1898 N1905 1.356 . S
C1899 C1898 1.363 . S
C1899 C1902 1.363 . S
N1900 C1902 1.356 . S
N1900 H1912 0.984 . S
N1900 H1913 0.985 . S
N1901 C1903 1.356 . S
N1901 H1906 0.984 . S
N1901 H1907 0.985 . S
C1902 C1896 1.379 . S
C1902 C1899 1.363 . S
C1902 N1900 1.356 . S
C1903 C1897 1.363 . S
C1903 C1898 1.379 . S
C1903 N1901 1.356 . S
N1904 C1896 1.356 . S
N1904 H1910 0.984 . S
N1904 H1911 0.984 . S
N1905 C1898 1.356 . S
N1905 H1908 0.984 . S
N1905 H1909 0.985 . S
H1906 N1901 0.984 . S
H1907 N1901 0.985 . S
H1908 N1905 0.984 . S
H1909 N1905 0.985 . S
H1910 N1904 0.984 . S
H1911 N1904 0.984 . S
H1912 N1900 0.984 . S
H1913 N1900 0.985 . S
C1914 C1915 1.363 . S
C1914 C1920 1.379 . S
C1914 N1922 1.356 . S
C1915 C1914 1.363 . S
C1915 C1921 1.363 . S
C1916 C1917 1.363 . S
C1916 C1921 1.379 . S
C1916 N1923 1.356 . S
C1917 C1916 1.363 . S
C1917 C1920 1.363 . S
N1918 C1920 1.356 . S
N1918 H1930 0.984 . S
N1918 H1931 0.985 . S
N1919 C1921 1.356 . S
N1919 H1924 0.984 . S
N1919 H1925 0.985 . S
C1920 C1914 1.379 . S
C1920 C1917 1.363 . S
C1920 N1918 1.356 . S
C1921 C1915 1.363 . S
C1921 C1916 1.379 . S
C1921 N1919 1.356 . S
N1922 C1914 1.356 . S
N1922 H1928 0.984 . S
N1922 H1929 0.984 . S
N1923 C1916 1.356 . S
N1923 H1926 0.984 . S
N1923 H1927 0.985 . S
H1924 N1919 0.984 . S
H1925 N1919 0.985 . S
H1926 N1923 0.984 . S
H1927 N1923 0.985 . S
H1928 N1922 0.984 . S
H1929 N1922 0.984 . S
H1930 N1918 0.984 . S
H1931 N1918 0.985 . S
C1932 C1933 1.363 . S
C1932 C1938 1.379 . S
C1932 N1940 1.356 . S
C1933 C1932 1.363 . S
C1933 C1939 1.363 . S
C1934 C1935 1.363 . S
C1934 C1939 1.379 . S
C1934 N1941 1.356 . S
C1935 C1934 1.363 . S
C1935 C1938 1.363 . S
N1936 C1938 1.356 . S
N1936 H1948 0.984 . S
N1936 H1949 0.985 . S
N1937 C1939 1.356 . S
N1937 H1942 0.984 . S
N1937 H1943 0.985 . S
C1938 C1932 1.379 . S
C1938 C1935 1.363 . S
C1938 N1936 1.356 . S
C1939 C1933 1.363 . S
C1939 C1934 1.379 . S
C1939 N1937 1.356 . S
N1940 C1932 1.356 . S
N1940 H1946 0.984 . S
N1940 H1947 0.984 . S
N1941 C1934 1.356 . S
N1941 H1944 0.984 . S
N1941 H1945 0.985 . S
H1942 N1937 0.984 . S
H1943 N1937 0.985 . S
H1944 N1941 0.984 . S
H1945 N1941 0.985 . S
H1946 N1940 0.984 . S
H1947 N1940 0.984 . S
H1948 N1936 0.984 . S
H1949 N1936 0.985 . S
C1950 C1951 1.363 . S
C1950 C1956 1.379 . S
C1950 N1958 1.356 . S
C1951 C1950 1.363 . S
C1951 C1957 1.363 . S
C1952 C1953 1.363 . S
C1952 C1957 1.379 . S
C1952 N1959 1.356 . S
C1953 C1952 1.363 . S
C1953 C1956 1.363 . S
N1954 C1956 1.356 . S
N1954 H1966 0.984 . S
N1954 H1967 0.985 . S
N1955 C1957 1.356 . S
N1955 H1960 0.984 . S
N1955 H1961 0.985 . S
C1956 C1950 1.379 . S
C1956 C1953 1.363 . S
C1956 N1954 1.356 . S
C1957 C1951 1.363 . S
C1957 C1952 1.379 . S
C1957 N1955 1.356 . S
N1958 C1950 1.356 . S
N1958 H1964 0.984 . S
N1958 H1965 0.984 . S
N1959 C1952 1.356 . S
N1959 H1962 0.984 . S
N1959 H1963 0.985 . S
H1960 N1955 0.984 . S
H1961 N1955 0.985 . S
H1962 N1959 0.984 . S
H1963 N1959 0.985 . S
H1964 N1958 0.984 . S
H1965 N1958 0.984 . S
H1966 N1954 0.984 . S
H1967 N1954 0.985 . S
C1968 C1969 1.363 . S
C1968 C1974 1.379 . S
C1968 N1976 1.356 . S
C1969 C1968 1.363 . S
C1969 C1975 1.363 . S
C1970 C1971 1.363 . S
C1970 C1975 1.379 . S
C1970 N1977 1.356 . S
C1971 C1970 1.363 . S
C1971 C1974 1.363 . S
N1972 C1974 1.356 . S
N1972 H1984 0.984 . S
N1972 H1985 0.985 . S
N1973 C1975 1.356 . S
N1973 H1978 0.984 . S
N1973 H1979 0.985 . S
C1974 C1968 1.379 . S
C1974 C1971 1.363 . S
C1974 N1972 1.356 . S
C1975 C1969 1.363 . S
C1975 C1970 1.379 . S
C1975 N1973 1.356 . S
N1976 C1968 1.356 . S
N1976 H1982 0.984 . S
N1976 H1983 0.984 . S
N1977 C1970 1.356 . S
N1977 H1980 0.984 . S
N1977 H1981 0.985 . S
H1978 N1973 0.984 . S
H1979 N1973 0.985 . S
H1980 N1977 0.984 . S
H1981 N1977 0.985 . S
H1982 N1976 0.984 . S
H1983 N1976 0.984 . S
H1984 N1972 0.984 . S
H1985 N1972 0.985 . S
C1986 C1987 1.363 . S
C1986 C1992 1.379 . S
C1986 N1994 1.356 . S
C1987 C1986 1.363 . S
C1987 C1993 1.363 . S
C1988 C1989 1.363 . S
C1988 C1993 1.379 . S
C1988 N1995 1.356 . S
C1989 C1988 1.363 . S
C1989 C1992 1.363 . S
N1990 C1992 1.356 . S
N1990 H2002 0.984 . S
N1990 H2003 0.985 . S
N1991 C1993 1.356 . S
N1991 H1996 0.984 . S
N1991 H1997 0.985 . S
C1992 C1986 1.379 . S
C1992 C1989 1.363 . S
C1992 N1990 1.356 . S
C1993 C1987 1.363 . S
C1993 C1988 1.379 . S
C1993 N1991 1.356 . S
N1994 C1986 1.356 . S
N1994 H2000 0.984 . S
N1994 H2001 0.984 . S
N1995 C1988 1.356 . S
N1995 H1998 0.984 . S
N1995 H1999 0.985 . S
H1996 N1991 0.984 . S
H1997 N1991 0.985 . S
H1998 N1995 0.984 . S
H1999 N1995 0.985 . S
H2000 N1994 0.984 . S
H2001 N1994 0.984 . S
H2002 N1990 0.984 . S
H2003 N1990 0.985 . S
C2004 C2005 1.363 . S
C2004 C2010 1.379 . S
C2004 N2012 1.356 . S
C2005 C2004 1.363 . S
C2005 C2011 1.363 . S
C2006 C2007 1.363 . S
C2006 C2011 1.379 . S
C2006 N2013 1.356 . S
C2007 C2006 1.363 . S
C2007 C2010 1.363 . S
N2008 C2010 1.356 . S
N2008 H2020 0.984 . S
N2008 H2021 0.985 . S
N2009 C2011 1.356 . S
N2009 H2014 0.984 . S
N2009 H2015 0.985 . S
C2010 C2004 1.379 . S
C2010 C2007 1.363 . S
C2010 N2008 1.356 . S
C2011 C2005 1.363 . S
C2011 C2006 1.379 . S
C2011 N2009 1.356 . S
N2012 C2004 1.356 . S
N2012 H2018 0.984 . S
N2012 H2019 0.984 . S
N2013 C2006 1.356 . S
N2013 H2016 0.984 . S
N2013 H2017 0.985 . S
H2014 N2009 0.984 . S
H2015 N2009 0.985 . S
H2016 N2013 0.984 . S
H2017 N2013 0.985 . S
H2018 N2012 0.984 . S
H2019 N2012 0.984 . S
H2020 N2008 0.984 . S
H2021 N2008 0.985 . S
C2022 C2023 1.363 . S
C2022 C2028 1.379 . S
C2022 N2030 1.356 . S
C2023 C2022 1.363 . S
C2023 C2029 1.363 . S
C2024 C2025 1.363 . S
C2024 C2029 1.379 . S
C2024 N2031 1.356 . S
C2025 C2024 1.363 . S
C2025 C2028 1.363 . S
N2026 C2028 1.356 . S
N2026 H2038 0.984 . S
N2026 H2039 0.985 . S
N2027 C2029 1.356 . S
N2027 H2032 0.984 . S
N2027 H2033 0.985 . S
C2028 C2022 1.379 . S
C2028 C2025 1.363 . S
C2028 N2026 1.356 . S
C2029 C2023 1.363 . S
C2029 C2024 1.379 . S
C2029 N2027 1.356 . S
N2030 C2022 1.356 . S
N2030 H2036 0.984 . S
N2030 H2037 0.984 . S
N2031 C2024 1.356 . S
N2031 H2034 0.984 . S
N2031 H2035 0.985 . S
H2032 N2027 0.984 . S
H2033 N2027 0.985 . S
H2034 N2031 0.984 . S
H2035 N2031 0.985 . S
H2036 N2030 0.984 . S
H2037 N2030 0.984 . S
H2038 N2026 0.984 . S
H2039 N2026 0.985 . S
C2040 C2041 1.363 . S
C2040 C2046 1.379 . S
C2040 N2048 1.356 . S
C2041 C2040 1.363 . S
C2041 C2047 1.363 . S
C2042 C2043 1.363 . S
C2042 C2047 1.379 . S
C2042 N2049 1.356 . S
C2043 C2042 1.363 . S
C2043 C2046 1.363 . S
N2044 C2046 1.356 . S
N2044 H2056 0.984 . S
N2044 H2057 0.985 . S
N2045 C2047 1.356 . S
N2045 H2050 0.984 . S
N2045 H2051 0.985 . S
C2046 C2040 1.379 . S
C2046 C2043 1.363 . S
C2046 N2044 1.356 . S
C2047 C2041 1.363 . S
C2047 C2042 1.379 . S
C2047 N2045 1.356 . S
N2048 C2040 1.356 . S
N2048 H2054 0.984 . S
N2048 H2055 0.984 . S
N2049 C2042 1.356 . S
N2049 H2052 0.984 . S
N2049 H2053 0.985 . S
H2050 N2045 0.984 . S
H2051 N2045 0.985 . S
H2052 N2049 0.984 . S
H2053 N2049 0.985 . S
H2054 N2048 0.984 . S
H2055 N2048 0.984 . S
H2056 N2044 0.984 . S
H2057 N2044 0.985 . S
C2058 C2059 1.363 . S
C2058 C2064 1.379 . S
C2058 N2066 1.356 . S
C2059 C2058 1.363 . S
C2059 C2065 1.363 . S
C2060 C2061 1.363 . S
C2060 C2065 1.379 . S
C2060 N2067 1.356 . S
C2061 C2060 1.363 . S
C2061 C2064 1.363 . S
N2062 C2064 1.356 . S
N2062 H2074 0.984 . S
N2062 H2075 0.985 . S
N2063 C2065 1.356 . S
N2063 H2068 0.984 . S
N2063 H2069 0.985 . S
C2064 C2058 1.379 . S
C2064 C2061 1.363 . S
C2064 N2062 1.356 . S
C2065 C2059 1.363 . S
C2065 C2060 1.379 . S
C2065 N2063 1.356 . S
N2066 C2058 1.356 . S
N2066 H2072 0.984 . S
N2066 H2073 0.984 . S
N2067 C2060 1.356 . S
N2067 H2070 0.984 . S
N2067 H2071 0.985 . S
H2068 N2063 0.984 . S
H2069 N2063 0.985 . S
H2070 N2067 0.984 . S
H2071 N2067 0.985 . S
H2072 N2066 0.984 . S
H2073 N2066 0.984 . S
H2074 N2062 0.984 . S
H2075 N2062 0.985 . S
C2076 C2077 1.363 . S
C2076 C2082 1.379 . S
C2076 N2084 1.356 . S
C2077 C2076 1.363 . S
C2077 C2083 1.363 . S
C2078 C2079 1.363 . S
C2078 C2083 1.379 . S
C2078 N2085 1.356 . S
C2079 C2078 1.363 . S
C2079 C2082 1.363 . S
N2080 C2082 1.356 . S
N2080 H2092 0.984 . S
N2080 H2093 0.985 . S
N2081 C2083 1.356 . S
N2081 H2086 0.984 . S
N2081 H2087 0.985 . S
C2082 C2076 1.379 . S
C2082 C2079 1.363 . S
C2082 N2080 1.356 . S
C2083 C2077 1.363 . S
C2083 C2078 1.379 . S
C2083 N2081 1.356 . S
N2084 C2076 1.356 . S
N2084 H2090 0.984 . S
N2084 H2091 0.984 . S
N2085 C2078 1.356 . S
N2085 H2088 0.984 . S
N2085 H2089 0.985 . S
H2086 N2081 0.984 . S
H2087 N2081 0.985 . S
H2088 N2085 0.984 . S
H2089 N2085 0.985 . S
H2090 N2084 0.984 . S
H2091 N2084 0.984 . S
H2092 N2080 0.984 . S
H2093 N2080 0.985 . S
C2094 C2095 1.363 . S
C2094 C2100 1.379 . S
C2094 N2102 1.356 . S
C2095 C2094 1.363 . S
C2095 C2101 1.363 . S
C2096 C2097 1.363 . S
C2096 C2101 1.379 . S
C2096 N2103 1.356 . S
C2097 C2096 1.363 . S
C2097 C2100 1.363 . S
N2098 C2100 1.356 . S
N2098 H2110 0.984 . S
N2098 H2111 0.985 . S
N2099 C2101 1.356 . S
N2099 H2104 0.984 . S
N2099 H2105 0.985 . S
C2100 C2094 1.379 . S
C2100 C2097 1.363 . S
C2100 N2098 1.356 . S
C2101 C2095 1.363 . S
C2101 C2096 1.379 . S
C2101 N2099 1.356 . S
N2102 C2094 1.356 . S
N2102 H2108 0.984 . S
N2102 H2109 0.984 . S
N2103 C2096 1.356 . S
N2103 H2106 0.984 . S
N2103 H2107 0.985 . S
H2104 N2099 0.984 . S
H2105 N2099 0.985 . S
H2106 N2103 0.984 . S
H2107 N2103 0.985 . S
H2108 N2102 0.984 . S
H2109 N2102 0.984 . S
H2110 N2098 0.984 . S
H2111 N2098 0.985 . S
C2112 C2113 1.363 . S
C2112 C2118 1.379 . S
C2112 N2120 1.356 . S
C2113 C2112 1.363 . S
C2113 C2119 1.363 . S
C2114 C2115 1.363 . S
C2114 C2119 1.379 . S
C2114 N2121 1.356 . S
C2115 C2114 1.363 . S
C2115 C2118 1.363 . S
N2116 C2118 1.356 . S
N2116 H2128 0.984 . S
N2116 H2129 0.985 . S
N2117 C2119 1.356 . S
N2117 H2122 0.984 . S
N2117 H2123 0.985 . S
C2118 C2112 1.379 . S
C2118 C2115 1.363 . S
C2118 N2116 1.356 . S
C2119 C2113 1.363 . S
C2119 C2114 1.379 . S
C2119 N2117 1.356 . S
N2120 C2112 1.356 . S
N2120 H2126 0.984 . S
N2120 H2127 0.984 . S
N2121 C2114 1.356 . S
N2121 H2124 0.984 . S
N2121 H2125 0.985 . S
H2122 N2117 0.984 . S
H2123 N2117 0.985 . S
H2124 N2121 0.984 . S
H2125 N2121 0.985 . S
H2126 N2120 0.984 . S
H2127 N2120 0.984 . S
H2128 N2116 0.984 . S
H2129 N2116 0.985 . S
C2130 C2131 1.363 . S
C2130 C2136 1.379 . S
C2130 N2138 1.356 . S
C2131 C2130 1.363 . S
C2131 C2137 1.363 . S
C2132 C2133 1.363 . S
C2132 C2137 1.379 . S
C2132 N2139 1.356 . S
C2133 C2132 1.363 . S
C2133 C2136 1.363 . S
N2134 C2136 1.356 . S
N2134 H2146 0.984 . S
N2134 H2147 0.985 . S
N2135 C2137 1.356 . S
N2135 H2140 0.984 . S
N2135 H2141 0.985 . S
C2136 C2130 1.379 . S
C2136 C2133 1.363 . S
C2136 N2134 1.356 . S
C2137 C2131 1.363 . S
C2137 C2132 1.379 . S
C2137 N2135 1.356 . S
N2138 C2130 1.356 . S
N2138 H2144 0.984 . S
N2138 H2145 0.984 . S
N2139 C2132 1.356 . S
N2139 H2142 0.984 . S
N2139 H2143 0.985 . S
H2140 N2135 0.984 . S
H2141 N2135 0.985 . S
H2142 N2139 0.984 . S
H2143 N2139 0.985 . S
H2144 N2138 0.984 . S
H2145 N2138 0.984 . S
H2146 N2134 0.984 . S
H2147 N2134 0.985 . S
C2148 C2149 1.363 . S
C2148 C2154 1.379 . S
C2148 N2156 1.356 . S
C2149 C2148 1.363 . S
C2149 C2155 1.363 . S
C2150 C2151 1.363 . S
C2150 C2155 1.379 . S
C2150 N2157 1.356 . S
C2151 C2150 1.363 . S
C2151 C2154 1.363 . S
N2152 C2154 1.356 . S
N2152 H2164 0.984 . S
N2152 H2165 0.985 . S
N2153 C2155 1.356 . S
N2153 H2158 0.984 . S
N2153 H2159 0.985 . S
C2154 C2148 1.379 . S
C2154 C2151 1.363 . S
C2154 N2152 1.356 . S
C2155 C2149 1.363 . S
C2155 C2150 1.379 . S
C2155 N2153 1.356 . S
N2156 C2148 1.356 . S
N2156 H2162 0.984 . S
N2156 H2163 0.984 . S
N2157 C2150 1.356 . S
N2157 H2160 0.984 . S
N2157 H2161 0.985 . S
H2158 N2153 0.984 . S
H2159 N2153 0.985 . S
H2160 N2157 0.984 . S
H2161 N2157 0.985 . S
H2162 N2156 0.984 . S
H2163 N2156 0.984 . S
H2164 N2152 0.984 . S
H2165 N2152 0.985 . S
C2166 C2167 1.363 . S
C2166 C2172 1.379 . S
C2166 N2174 1.356 . S
C2167 C2166 1.363 . S
C2167 C2173 1.363 . S
C2168 C2169 1.363 . S
C2168 C2173 1.379 . S
C2168 N2175 1.356 . S
C2169 C2168 1.363 . S
C2169 C2172 1.363 . S
N2170 C2172 1.356 . S
N2170 H2182 0.984 . S
N2170 H2183 0.985 . S
N2171 C2173 1.356 . S
N2171 H2176 0.984 . S
N2171 H2177 0.985 . S
C2172 C2166 1.379 . S
C2172 C2169 1.363 . S
C2172 N2170 1.356 . S
C2173 C2167 1.363 . S
C2173 C2168 1.379 . S
C2173 N2171 1.356 . S
N2174 C2166 1.356 . S
N2174 H2180 0.984 . S
N2174 H2181 0.984 . S
N2175 C2168 1.356 . S
N2175 H2178 0.984 . S
N2175 H2179 0.985 . S
H2176 N2171 0.984 . S
H2177 N2171 0.985 . S
H2178 N2175 0.984 . S
H2179 N2175 0.985 . S
H2180 N2174 0.984 . S
H2181 N2174 0.984 . S
H2182 N2170 0.984 . S
H2183 N2170 0.985 . S
C2184 C2185 1.363 . S
C2184 C2190 1.379 . S
C2184 N2192 1.356 . S
C2185 C2184 1.363 . S
C2185 C2191 1.363 . S
C2186 C2187 1.363 . S
C2186 C2191 1.379 . S
C2186 N2193 1.356 . S
C2187 C2186 1.363 . S
C2187 C2190 1.363 . S
N2188 C2190 1.356 . S
N2188 H2200 0.984 . S
N2188 H2201 0.985 . S
N2189 C2191 1.356 . S
N2189 H2194 0.984 . S
N2189 H2195 0.985 . S
C2190 C2184 1.379 . S
C2190 C2187 1.363 . S
C2190 N2188 1.356 . S
C2191 C2185 1.363 . S
C2191 C2186 1.379 . S
C2191 N2189 1.356 . S
N2192 C2184 1.356 . S
N2192 H2198 0.984 . S
N2192 H2199 0.984 . S
N2193 C2186 1.356 . S
N2193 H2196 0.984 . S
N2193 H2197 0.985 . S
H2194 N2189 0.984 . S
H2195 N2189 0.985 . S
H2196 N2193 0.984 . S
H2197 N2193 0.985 . S
H2198 N2192 0.984 . S
H2199 N2192 0.984 . S
H2200 N2188 0.984 . S
H2201 N2188 0.985 . S
C2202 C2203 1.363 . S
C2202 C2208 1.379 . S
C2202 N2210 1.356 . S
C2203 C2202 1.363 . S
C2203 C2209 1.363 . S
C2204 C2205 1.363 . S
C2204 C2209 1.379 . S
C2204 N2211 1.356 . S
C2205 C2204 1.363 . S
C2205 C2208 1.363 . S
N2206 C2208 1.356 . S
N2206 H2218 0.984 . S
N2206 H2219 0.985 . S
N2207 C2209 1.356 . S
N2207 H2212 0.984 . S
N2207 H2213 0.985 . S
C2208 C2202 1.379 . S
C2208 C2205 1.363 . S
C2208 N2206 1.356 . S
C2209 C2203 1.363 . S
C2209 C2204 1.379 . S
C2209 N2207 1.356 . S
N2210 C2202 1.356 . S
N2210 H2216 0.984 . S
N2210 H2217 0.984 . S
N2211 C2204 1.356 . S
N2211 H2214 0.984 . S
N2211 H2215 0.985 . S
H2212 N2207 0.984 . S
H2213 N2207 0.985 . S
H2214 N2211 0.984 . S
H2215 N2211 0.985 . S
H2216 N2210 0.984 . S
H2217 N2210 0.984 . S
H2218 N2206 0.984 . S
H2219 N2206 0.985 . S
C2220 C2221 1.363 . S
C2220 C2226 1.379 . S
C2220 N2228 1.356 . S
C2221 C2220 1.363 . S
C2221 C2227 1.363 . S
C2222 C2223 1.363 . S
C2222 C2227 1.379 . S
C2222 N2229 1.356 . S
C2223 C2222 1.363 . S
C2223 C2226 1.363 . S
N2224 C2226 1.356 . S
N2224 H2236 0.984 . S
N2224 H2237 0.985 . S
N2225 C2227 1.356 . S
N2225 H2230 0.984 . S
N2225 H2231 0.985 . S
C2226 C2220 1.379 . S
C2226 C2223 1.363 . S
C2226 N2224 1.356 . S
C2227 C2221 1.363 . S
C2227 C2222 1.379 . S
C2227 N2225 1.356 . S
N2228 C2220 1.356 . S
N2228 H2234 0.984 . S
N2228 H2235 0.984 . S
N2229 C2222 1.356 . S
N2229 H2232 0.984 . S
N2229 H2233 0.985 . S
H2230 N2225 0.984 . S
H2231 N2225 0.985 . S
H2232 N2229 0.984 . S
H2233 N2229 0.985 . S
H2234 N2228 0.984 . S
H2235 N2228 0.984 . S
H2236 N2224 0.984 . S
H2237 N2224 0.985 . S
C2238 C2239 1.363 . S
C2238 C2244 1.379 . S
C2238 N2246 1.356 . S
C2239 C2238 1.363 . S
C2239 C2245 1.363 . S
C2240 C2241 1.363 . S
C2240 C2245 1.379 . S
C2240 N2247 1.356 . S
C2241 C2240 1.363 . S
C2241 C2244 1.363 . S
N2242 C2244 1.356 . S
N2242 H2254 0.984 . S
N2242 H2255 0.985 . S
N2243 C2245 1.356 . S
N2243 H2248 0.984 . S
N2243 H2249 0.985 . S
C2244 C2238 1.379 . S
C2244 C2241 1.363 . S
C2244 N2242 1.356 . S
C2245 C2239 1.363 . S
C2245 C2240 1.379 . S
C2245 N2243 1.356 . S
N2246 C2238 1.356 . S
N2246 H2252 0.984 . S
N2246 H2253 0.984 . S
N2247 C2240 1.356 . S
N2247 H2250 0.984 . S
N2247 H2251 0.985 . S
H2248 N2243 0.984 . S
H2249 N2243 0.985 . S
H2250 N2247 0.984 . S
H2251 N2247 0.985 . S
H2252 N2246 0.984 . S
H2253 N2246 0.984 . S
H2254 N2242 0.984 . S
H2255 N2242 0.985 . S
C2256 C2257 1.363 . S
C2256 C2262 1.379 . S
C2256 N2264 1.356 . S
C2257 C2256 1.363 . S
C2257 C2263 1.363 . S
C2258 C2259 1.363 . S
C2258 C2263 1.379 . S
C2258 N2265 1.356 . S
C2259 C2258 1.363 . S
C2259 C2262 1.363 . S
N2260 C2262 1.356 . S
N2260 H2272 0.984 . S
N2260 H2273 0.985 . S
N2261 C2263 1.356 . S
N2261 H2266 0.984 . S
N2261 H2267 0.985 . S
C2262 C2256 1.379 . S
C2262 C2259 1.363 . S
C2262 N2260 1.356 . S
C2263 C2257 1.363 . S
C2263 C2258 1.379 . S
C2263 N2261 1.356 . S
N2264 C2256 1.356 . S
N2264 H2270 0.984 . S
N2264 H2271 0.984 . S
N2265 C2258 1.356 . S
N2265 H2268 0.984 . S
N2265 H2269 0.985 . S
H2266 N2261 0.984 . S
H2267 N2261 0.985 . S
H2268 N2265 0.984 . S
H2269 N2265 0.985 . S
H2270 N2264 0.984 . S
H2271 N2264 0.984 . S
H2272 N2260 0.984 . S
H2273 N2260 0.985 . S
C2274 C2275 1.363 . S
C2274 C2280 1.379 . S
C2274 N2282 1.356 . S
C2275 C2274 1.363 . S
C2275 C2281 1.363 . S
C2276 C2277 1.363 . S
C2276 C2281 1.379 . S
C2276 N2283 1.356 . S
C2277 C2276 1.363 . S
C2277 C2280 1.363 . S
N2278 C2280 1.356 . S
N2278 H2290 0.984 . S
N2278 H2291 0.985 . S
N2279 C2281 1.356 . S
N2279 H2284 0.984 . S
N2279 H2285 0.985 . S
C2280 C2274 1.379 . S
C2280 C2277 1.363 . S
C2280 N2278 1.356 . S
C2281 C2275 1.363 . S
C2281 C2276 1.379 . S
C2281 N2279 1.356 . S
N2282 C2274 1.356 . S
N2282 H2288 0.984 . S
N2282 H2289 0.984 . S
N2283 C2276 1.356 . S
N2283 H2286 0.984 . S
N2283 H2287 0.985 . S
H2284 N2279 0.984 . S
H2285 N2279 0.985 . S
H2286 N2283 0.984 . S
H2287 N2283 0.985 . S
H2288 N2282 0.984 . S
H2289 N2282 0.984 . S
H2290 N2278 0.984 . S
H2291 N2278 0.985 . S
C2292 C2293 1.363 . S
C2292 C2298 1.379 . S
C2292 N2300 1.356 . S
C2293 C2292 1.363 . S
C2293 C2299 1.363 . S
C2294 C2295 1.363 . S
C2294 C2299 1.379 . S
C2294 N2301 1.356 . S
C2295 C2294 1.363 . S
C2295 C2298 1.363 . S
N2296 C2298 1.356 . S
N2296 H2308 0.984 . S
N2296 H2309 0.985 . S
N2297 C2299 1.356 . S
N2297 H2302 0.984 . S
N2297 H2303 0.985 . S
C2298 C2292 1.379 . S
C2298 C2295 1.363 . S
C2298 N2296 1.356 . S
C2299 C2293 1.363 . S
C2299 C2294 1.379 . S
C2299 N2297 1.356 . S
N2300 C2292 1.356 . S
N2300 H2306 0.984 . S
N2300 H2307 0.984 . S
N2301 C2294 1.356 . S
N2301 H2304 0.984 . S
N2301 H2305 0.985 . S
H2302 N2297 0.984 . S
H2303 N2297 0.985 . S
H2304 N2301 0.984 . S
H2305 N2301 0.985 . S
H2306 N2300 0.984 . S
H2307 N2300 0.984 . S
H2308 N2296 0.984 . S
H2309 N2296 0.985 . S
C2310 C2311 1.363 . S
C2310 C2316 1.379 . S
C2310 N2318 1.356 . S
C2311 C2310 1.363 . S
C2311 C2317 1.363 . S
C2312 C2313 1.363 . S
C2312 C2317 1.379 . S
C2312 N2319 1.356 . S
C2313 C2312 1.363 . S
C2313 C2316 1.363 . S
N2314 C2316 1.356 . S
N2314 H2326 0.984 . S
N2314 H2327 0.985 . S
N2315 C2317 1.356 . S
N2315 H2320 0.984 . S
N2315 H2321 0.985 . S
C2316 C2310 1.379 . S
C2316 C2313 1.363 . S
C2316 N2314 1.356 . S
C2317 C2311 1.363 . S
C2317 C2312 1.379 . S
C2317 N2315 1.356 . S
N2318 C2310 1.356 . S
N2318 H2324 0.984 . S
N2318 H2325 0.984 . S
N2319 C2312 1.356 . S
N2319 H2322 0.984 . S
N2319 H2323 0.985 . S
H2320 N2315 0.984 . S
H2321 N2315 0.985 . S
H2322 N2319 0.984 . S
H2323 N2319 0.985 . S
H2324 N2318 0.984 . S
H2325 N2318 0.984 . S
H2326 N2314 0.984 . S
H2327 N2314 0.985 . S
C2328 C2329 1.363 . S
C2328 C2334 1.379 . S
C2328 N2336 1.356 . S
C2329 C2328 1.363 . S
C2329 C2335 1.363 . S
C2330 C2331 1.363 . S
C2330 C2335 1.379 . S
C2330 N2337 1.356 . S
C2331 C2330 1.363 . S
C2331 C2334 1.363 . S
N2332 C2334 1.356 . S
N2332 H2344 0.984 . S
N2332 H2345 0.985 . S
N2333 C2335 1.356 . S
N2333 H2338 0.984 . S
N2333 H2339 0.985 . S
C2334 C2328 1.379 . S
C2334 C2331 1.363 . S
C2334 N2332 1.356 . S
C2335 C2329 1.363 . S
C2335 C2330 1.379 . S
C2335 N2333 1.356 . S
N2336 C2328 1.356 . S
N2336 H2342 0.984 . S
N2336 H2343 0.984 . S
N2337 C2330 1.356 . S
N2337 H2340 0.984 . S
N2337 H2341 0.985 . S
H2338 N2333 0.984 . S
H2339 N2333 0.985 . S
H2340 N2337 0.984 . S
H2341 N2337 0.985 . S
H2342 N2336 0.984 . S
H2343 N2336 0.984 . S
H2344 N2332 0.984 . S
H2345 N2332 0.985 . S
C2346 C2347 1.363 . S
C2346 C2352 1.379 . S
C2346 N2354 1.356 . S
C2347 C2346 1.363 . S
C2347 C2353 1.363 . S
C2348 C2349 1.363 . S
C2348 C2353 1.379 . S
C2348 N2355 1.356 . S
C2349 C2348 1.363 . S
C2349 C2352 1.363 . S
N2350 C2352 1.356 . S
N2350 H2362 0.984 . S
N2350 H2363 0.985 . S
N2351 C2353 1.356 . S
N2351 H2356 0.984 . S
N2351 H2357 0.985 . S
C2352 C2346 1.379 . S
C2352 C2349 1.363 . S
C2352 N2350 1.356 . S
C2353 C2347 1.363 . S
C2353 C2348 1.379 . S
C2353 N2351 1.356 . S
N2354 C2346 1.356 . S
N2354 H2360 0.984 . S
N2354 H2361 0.984 . S
N2355 C2348 1.356 . S
N2355 H2358 0.984 . S
N2355 H2359 0.985 . S
H2356 N2351 0.984 . S
H2357 N2351 0.985 . S
H2358 N2355 0.984 . S
H2359 N2355 0.985 . S
H2360 N2354 0.984 . S
H2361 N2354 0.984 . S
H2362 N2350 0.984 . S
H2363 N2350 0.985 . S
C2364 C2365 1.363 . S
C2364 C2370 1.379 . S
C2364 N2372 1.356 . S
C2365 C2364 1.363 . S
C2365 C2371 1.363 . S
C2366 C2367 1.363 . S
C2366 C2371 1.379 . S
C2366 N2373 1.356 . S
C2367 C2366 1.363 . S
C2367 C2370 1.363 . S
N2368 C2370 1.356 . S
N2368 H2380 0.984 . S
N2368 H2381 0.985 . S
N2369 C2371 1.356 . S
N2369 H2374 0.984 . S
N2369 H2375 0.985 . S
C2370 C2364 1.379 . S
C2370 C2367 1.363 . S
C2370 N2368 1.356 . S
C2371 C2365 1.363 . S
C2371 C2366 1.379 . S
C2371 N2369 1.356 . S
N2372 C2364 1.356 . S
N2372 H2378 0.984 . S
N2372 H2379 0.984 . S
N2373 C2366 1.356 . S
N2373 H2376 0.984 . S
N2373 H2377 0.985 . S
H2374 N2369 0.984 . S
H2375 N2369 0.985 . S
H2376 N2373 0.984 . S
H2377 N2373 0.985 . S
H2378 N2372 0.984 . S
H2379 N2372 0.984 . S
H2380 N2368 0.984 . S
H2381 N2368 0.985 . S
C2382 C2383 1.363 . S
C2382 C2388 1.379 . S
C2382 N2390 1.356 . S
C2383 C2382 1.363 . S
C2383 C2389 1.363 . S
C2384 C2385 1.363 . S
C2384 C2389 1.379 . S
C2384 N2391 1.356 . S
C2385 C2384 1.363 . S
C2385 C2388 1.363 . S
N2386 C2388 1.356 . S
N2386 H2398 0.984 . S
N2386 H2399 0.985 . S
N2387 C2389 1.356 . S
N2387 H2392 0.984 . S
N2387 H2393 0.985 . S
C2388 C2382 1.379 . S
C2388 C2385 1.363 . S
C2388 N2386 1.356 . S
C2389 C2383 1.363 . S
C2389 C2384 1.379 . S
C2389 N2387 1.356 . S
N2390 C2382 1.356 . S
N2390 H2396 0.984 . S
N2390 H2397 0.984 . S
N2391 C2384 1.356 . S
N2391 H2394 0.984 . S
N2391 H2395 0.985 . S
H2392 N2387 0.984 . S
H2393 N2387 0.985 . S
H2394 N2391 0.984 . S
H2395 N2391 0.985 . S
H2396 N2390 0.984 . S
H2397 N2390 0.984 . S
H2398 N2386 0.984 . S
H2399 N2386 0.985 . S
C673 C132 1.644 . S
C675 C6 1.644 . S
C691 C146 1.644 . S
C693 C20 1.644 . S
C709 C160 1.644 . S
C711 C34 1.644 . S
C727 C48 1.644 . S
C729 C118 1.644 . S
C745 C216 1.644 . S
C747 C62 1.644 . S
C763 C76 1.644 . S
C765 C174 1.644 . S
C781 C188 1.644 . S
C783 C90 1.644 . S
C799 C202 1.644 . S
C801 C104 1.644 . S
C817 C230 1.644 . S
C819 C258 1.644 . S
C835 C244 1.644 . S
C837 C314 1.644 . S
C853 C272 1.644 . S
C855 C328 1.644 . S
C871 C286 1.644 . S
C873 C300 1.644 . S
C889 C342 1.644 . S
C891 C468 1.644 . S
C907 C482 1.644 . S
C909 C356 1.644 . S
C925 C370 1.644 . S
C927 C496 1.644 . S
C943 C384 1.644 . S
C945 C454 1.644 . S
C961 C552 1.644 . S
C963 C398 1.644 . S
C979 C510 1.644 . S
C981 C412 1.644 . S
C997 C524 1.644 . S
C999 C426 1.644 . S
C1015 C538 1.644 . S
C1017 C440 1.644 . S
C1033 C566 1.644 . S
C1035 C594 1.644 . S
C1051 C580 1.644 . S
C1053 C650 1.644 . S
C1069 C608 1.644 . S
C1071 C664 1.644 . S
C1087 C636 1.644 . S
C1089 C622 1.644 . S
C1105 C121 1.484 . S
C1107 C8 1.600 . S
C1123 C135 1.484 . S
C1125 C22 1.600 . S
C1141 C36 1.600 . S
C1143 C149 1.484 . S
C1159 C50 1.600 . S
C1161 C163 1.484 . S
C1177 C64 1.600 . S
C1179 C177 1.484 . S
C1195 C78 1.600 . S
C1197 C191 1.484 . S
C1213 C92 1.600 . S
C1215 C205 1.484 . S
C1231 C219 1.484 . S
C1233 C106 1.600 . S
C1249 C120 1.600 . S
C1251 C233 1.484 . S
C1267 C331 1.484 . S
C1269 C134 1.600 . S
C1285 C148 1.600 . S
C1287 C303 1.484 . S
C1303 C162 1.600 . S
C1305 C317 1.484 . S
C1321 C176 1.600 . S
C1323 C247 1.484 . S
C1339 C190 1.600 . S
C1341 C261 1.484 . S
C1357 C204 1.600 . S
C1359 C275 1.484 . S
C1375 C289 1.484 . S
C1377 C218 1.600 . S
C1393 C9 1.484 . S
C1395 C232 1.600 . S
C1411 C246 1.600 . S
C1413 C65 1.484 . S
C1429 C260 1.600 . S
C1431 C79 1.484 . S
C1447 C274 1.600 . S
C1449 C93 1.484 . S
C1465 C107 1.484 . S
C1467 C288 1.600 . S
C1483 C302 1.600 . S
C1485 C37 1.484 . S
C1501 C316 1.600 . S
C1503 C51 1.484 . S
C1519 C23 1.484 . S
C1521 C330 1.600 . S
C1537 C457 1.484 . S
C1539 C344 1.600 . S
C1555 C358 1.600 . S
C1557 C471 1.484 . S
C1573 C372 1.600 . S
C1575 C485 1.484 . S
C1591 C499 1.484 . S
C1593 C386 1.600 . S
C1609 C513 1.484 . S
C1611 C400 1.600 . S
C1627 C414 1.600 . S
C1629 C527 1.484 . S
C1645 C541 1.484 . S
C1647 C428 1.600 . S
C1663 C555 1.484 . S
C1665 C442 1.600 . S
C1681 C456 1.600 . S
C1683 C569 1.484 . S
C1699 C470 1.600 . S
C1701 C667 1.484 . S
C1717 C484 1.600 . S
C1719 C639 1.484 . S
C1735 C653 1.484 . S
C1737 C498 1.600 . S
C1753 C512 1.600 . S
C1755 C583 1.484 . S
C1771 C526 1.600 . S
C1773 C597 1.484 . S
C1789 C611 1.484 . S
C1791 C540 1.600 . S
C1807 C625 1.484 . S
C1809 C554 1.600 . S
C1825 C568 1.600 . S
C1827 C345 1.484 . S
C1843 C582 1.600 . S
C1845 C401 1.484 . S
C1861 C415 1.484 . S
C1863 C596 1.600 . S
C1879 C610 1.600 . S
C1881 C429 1.484 . S
C1897 C624 1.600 . S
C1899 C443 1.484 . S
C1915 C373 1.484 . S
C1917 C638 1.600 . S
C1933 C652 1.600 . S
C1935 C387 1.484 . S
C1951 C359 1.484 . S
C1953 C666 1.600 . S
C1969 C441 1.706 . S
C1971 C7 1.706 . S
C1987 C21 1.706 . S
C1989 C399 1.706 . S
C2005 C413 1.706 . S
C2007 C35 1.706 . S
C2023 C427 1.706 . S
C2025 C49 1.706 . S
C2041 C63 1.706 . S
C2043 C357 1.706 . S
C2059 C371 1.706 . S
C2061 C77 1.706 . S
C2077 C385 1.706 . S
C2079 C91 1.706 . S
C2095 C105 1.706 . S
C2097 C343 1.706 . S
C2113 C623 1.706 . S
C2115 C119 1.706 . S
C2131 C133 1.706 . S
C2133 C581 1.706 . S
C2149 C147 1.706 . S
C2151 C595 1.706 . S
C2167 C609 1.706 . S
C2169 C161 1.706 . S
C2185 C665 1.706 . S
C2187 C175 1.706 . S
C2203 C637 1.706 . S
C2205 C189 1.706 . S
C2221 C203 1.706 . S
C2223 C651 1.706 . S
C2239 C567 1.706 . S
C2241 C217 1.706 . S
C2257 C231 1.706 . S
C2259 C553 1.706 . S
C2275 C469 1.706 . S
C2277 C245 1.706 . S
C2293 C259 1.706 . S
C2295 C483 1.706 . S
C2311 C497 1.706 . S
C2313 C273 1.706 . S
C2329 C455 1.706 . S
C2331 C287 1.706 . S
C2347 C301 1.706 . S
C2349 C525 1.706 . S
C2365 C539 1.706 . S
C2367 C315 1.706 . S
C2383 C511 1.706 . S
C2385 C329 1.706 . S
