# Generated by pormake.
# Topology zft, (5)-cn, num edge types: 1
# Building blocks:
#     Node 0, Type 0, BuildingBlock: XOMCOT_clean_sbu_0, # of connection points: 5
#     Node 1, Type 0, BuildingBlock: XOMCOT_clean_sbu_0, # of connection points: 5
#     Node 2, Type 0, BuildingBlock: XOMCOT_clean_sbu_0, # of connection points: 5
#     Node 3, Type 0, BuildingBlock: XOMCOT_clean_sbu_0, # of connection points: 5
#     Node 4, Type 0, BuildingBlock: XOMCOT_clean_sbu_0, # of connection points: 5
#     Node 5, Type 0, BuildingBlock: XOMCOT_clean_sbu_0, # of connection points: 5
#     Node 6, Type 0, BuildingBlock: XOMCOT_clean_sbu_0, # of connection points: 5
#     Node 7, Type 0, BuildingBlock: XOMCOT_clean_sbu_0, # of connection points: 5
#     Edge 8, Type (0, 0), None
#     Edge 9, Type (0, 0), None
#     Edge 10, Type (0, 0), None
#     Edge 11, Type (0, 0), None
#     Edge 12, Type (0, 0), None
#     Edge 13, Type (0, 0), None
#     Edge 14, Type (0, 0), None
#     Edge 15, Type (0, 0), None
#     Edge 16, Type (0, 0), None
#     Edge 17, Type (0, 0), None
#     Edge 18, Type (0, 0), None
#     Edge 19, Type (0, 0), None
#     Edge 20, Type (0, 0), None
#     Edge 21, Type (0, 0), None
#     Edge 22, Type (0, 0), None
#     Edge 23, Type (0, 0), None
#     Edge 24, Type (0, 0), None
#     Edge 25, Type (0, 0), None
#     Edge 26, Type (0, 0), None
#     Edge 27, Type (0, 0), None
# Relax obj value: 0.082
# Max RMSD: 0.170
# Mean RMSD: 0.170
data_MOF--net-zft--node1-XOMCOT_clean_sbu_0--edge1-none
_symmetry_space_group_name_H-M    P1
_symmetry_Int_Tables_number       1
_symmetry_cell_setting            triclinic
loop_
_symmetry_equiv_pos_as_xyz
'x, y, z'
_cell_length_a     13.450028
_cell_length_b     13.449727
_cell_length_c     29.762903
_cell_angle_alpha  89.999887
_cell_angle_beta   90.000133
_cell_angle_gamma 90.000543
loop_
_atom_site_label
_atom_site_type_symbol
_atom_site_fract_x
_atom_site_fract_y
_atom_site_fract_z
_atom_type_partial_charge
Co0 Co 0.15808 0.3751 0.11808 0.0
C1 C 0.31093 0.53477 0.11498 0.0
C2 C 0.31449 0.44747 0.05511 0.0
C3 C 0.3636 0.53578 0.04708 0.0
N4 N 0.27814 0.44688 0.09754 0.0
N5 N 0.35951 0.59128 0.08461 0.0
H6 H 0.29055 0.56338 0.1475 0.0
H7 H 0.29486 0.39568 0.02917 0.0
C8 C 0.2362 0.18889 0.0654 0.0
O9 O 0.23821 0.23079 0.02561 0.0
N10 N 1.0375 0.31074 0.13844 0.0
C11 C 0.94493 0.34288 0.12863 0.0
C12 C 0.878 0.29326 0.15498 0.0
C13 C 1.02572 0.24309 0.17162 0.0
N14 N 0.92873 0.23087 0.18185 0.0
C15 C 0.09349 0.49577 0.04364 0.0
C16 C 1.00279 0.3438 -0.00343 0.0
C17 C 1.00449 0.43941 -0.02199 0.0
C18 C 1.05075 0.51622 0.00173 0.0
C19 C 1.04913 0.32596 0.03755 0.0
N20 N 0.09534 0.40095 0.06027 0.0
H21 H 0.12615 0.55591 0.06268 0.0
H22 H 1.04584 0.25201 0.05164 0.0
H23 H 0.92757 0.40411 0.10644 0.0
H24 H 0.0864 0.21123 0.19067 0.0
O25 O 0.1165 0.49219 0.15184 0.0
O26 O 0.21059 0.36915 0.17774 0.0
O27 O 0.21041 0.23854 0.10022 0.0
C28 C 0.16527 0.45244 0.18536 0.0
H29 H 0.39302 0.56024 0.01505 0.0
H30 H 0.79913 0.30847 0.15736 0.0
H31 H 0.96621 0.28291 -0.02061 0.0
H32 H 1.05106 0.59146 -0.01125 0.0
Co33 Co 0.24713 0.6581 0.36809 0.0
C34 C 0.08746 0.81094 0.36498 0.0
C35 C 0.17476 0.81451 0.30511 0.0
C36 C 0.08645 0.86361 0.29709 0.0
N37 N 0.17535 0.77815 0.34754 0.0
N38 N 1.03095 0.85952 0.33461 0.0
H39 H 1.05885 0.79056 0.3975 0.0
H40 H 0.22656 0.79488 0.27917 0.0
C41 C 0.43334 0.73622 0.3154 0.0
O42 O 0.39144 0.73824 0.27562 0.0
N43 N 0.31149 0.53751 0.38844 0.0
C44 C 0.27935 0.44494 0.37862 0.0
C45 C 0.32897 0.37801 0.40498 0.0
C46 C 0.37913 0.52573 0.42162 0.0
N47 N 0.39135 0.42874 0.43185 0.0
C48 C 0.12646 0.5935 0.29364 0.0
C49 C 0.27842 0.50281 0.24657 0.0
C50 C 0.18282 0.5045 0.22801 0.0
C51 C 0.10601 0.55076 0.25173 0.0
C52 C 0.29627 0.54914 0.28755 0.0
N53 N 0.22128 0.59535 0.31027 0.0
H54 H 0.06632 0.62616 0.31268 0.0
H55 H 0.37022 0.54586 0.30164 0.0
H56 H 0.21812 0.42758 0.35644 0.0
H57 H 0.411 0.58641 0.44067 0.0
O58 O 0.13004 0.61651 0.40184 0.0
O59 O 0.25308 0.71061 0.42774 0.0
O60 O 0.38369 0.71042 0.35022 0.0
C61 C 0.16979 0.66528 0.43536 0.0
H62 H 0.06199 0.89303 0.26506 0.0
H63 H 0.31375 0.29914 0.40736 0.0
H64 H 0.33932 0.46622 0.22939 0.0
H65 H 1.03077 0.55107 0.23875 0.0
Co66 Co 0.96413 0.74715 0.61808 0.0
C67 C 0.81129 0.58748 0.61498 0.0
C68 C 0.80772 0.67478 0.55511 0.0
C69 C 0.75862 0.58647 0.54708 0.0
N70 N 0.84408 0.67537 0.59754 0.0
N71 N 0.76271 0.53097 0.58461 0.0
H72 H 0.83167 0.55887 0.6475 0.0
H73 H 0.82736 0.72658 0.52917 0.0
C74 C 0.88602 0.93336 0.5654 0.0
O75 O 0.884 0.89146 0.52561 0.0
N76 N 0.08472 0.81151 0.63844 0.0
C77 C 0.17729 0.77938 0.62862 0.0
C78 C 0.24422 0.82899 0.65497 0.0
C79 C 0.0965 0.87916 0.67162 0.0
N80 N 0.19349 0.89137 0.68185 0.0
C81 C 1.02873 0.62648 0.54364 0.0
C82 C 0.11943 0.77844 0.49657 0.0
C83 C 0.11773 0.68283 0.47801 0.0
C84 C 0.07147 0.60602 0.50173 0.0
C85 C 0.07309 0.79629 0.53755 0.0
N86 N 1.02688 0.7213 0.56027 0.0
H87 H 0.99606 0.56634 0.56268 0.0
H88 H 0.07638 0.87024 0.55164 0.0
H89 H 0.19465 0.71814 0.60643 0.0
H90 H 1.03582 0.91102 0.69067 0.0
O91 O 1.00572 0.63006 0.65184 0.0
O92 O 0.91162 0.7531 0.67774 0.0
O93 O 0.91181 0.88371 0.60022 0.0
C94 C 0.95695 0.66981 0.68536 0.0
H95 H 0.7292 0.56201 0.51505 0.0
H96 H 0.32309 0.81378 0.65735 0.0
H97 H 0.15601 0.83933 0.47939 0.0
H98 H 0.07116 0.53078 0.48876 0.0
Co99 Co 0.87509 0.46415 0.86809 0.0
C100 C 1.03476 0.31131 0.86498 0.0
C101 C 0.94747 0.30775 0.80511 0.0
C102 C 1.03578 0.25864 0.79708 0.0
N103 N 0.94688 0.3441 0.84753 0.0
N104 N 0.09127 0.26273 0.83461 0.0
H105 H 0.06337 0.33167 0.8975 0.0
H106 H 0.89568 0.32738 0.77917 0.0
C107 C 0.68889 0.38603 0.8154 0.0
O108 O 0.73079 0.38401 0.77561 0.0
N109 N 0.81074 0.58474 0.88844 0.0
C110 C 0.84287 0.67731 0.87863 0.0
C111 C 0.79325 0.74424 0.90498 0.0
C112 C 0.74309 0.59651 0.92163 0.0
N113 N 0.73087 0.69351 0.93185 0.0
C114 C 0.99576 0.52875 0.79364 0.0
C115 C 0.8438 0.61945 0.74657 0.0
C116 C 0.9394 0.61775 0.72801 0.0
C117 C 1.01621 0.57149 0.75173 0.0
C118 C 0.82595 0.57311 0.78755 0.0
N119 N 0.90094 0.5269 0.81027 0.0
H120 H 1.0559 0.49609 0.81268 0.0
H121 H 0.752 0.57639 0.80164 0.0
H122 H 0.9041 0.69467 0.85644 0.0
H123 H 0.71123 0.53583 0.94067 0.0
O124 O 0.99219 0.50574 0.90184 0.0
O125 O 0.86914 0.41163 0.92774 0.0
O126 O 0.73853 0.41183 0.85022 0.0
C127 C 0.95244 0.45695 0.93536 0.0
H128 H 1.06024 0.22923 0.76505 0.0
H129 H 0.80846 0.82311 0.90735 0.0
H130 H 0.7829 0.65603 0.72939 0.0
H131 H 0.09146 0.57119 0.73876 0.0
Co132 Co 0.65815 0.24718 0.53645 0.0
C133 C 0.81096 0.0875 0.5396 0.0
C134 C 0.81442 0.17472 0.59949 0.0
C135 C 0.86349 0.08639 0.60752 0.0
N136 N 0.77815 0.17537 0.55705 0.0
N137 N 0.85942 1.03092 0.56998 0.0
H138 H 0.7907 1.05895 0.50705 0.0
H139 H 0.79474 0.22649 0.62544 0.0
C140 C 0.73624 0.43336 0.58916 0.0
O141 O 0.73831 0.39141 0.62894 0.0
N142 N 0.53761 0.31157 0.51605 0.0
C143 C 0.445 0.27948 0.52584 0.0
C144 C 0.37814 0.32888 0.49937 0.0
C145 C 0.52595 0.379 0.48276 0.0
N146 N 0.429 0.39099 0.47242 0.0
C147 C 0.5934 0.12655 0.61089 0.0
C148 C 0.50277 0.27856 0.65794 0.0
C149 C 0.50445 0.18297 0.67652 0.0
C150 C 0.55066 0.10613 0.6528 0.0
C151 C 0.54911 0.29638 0.61696 0.0
N152 N 0.5953 0.22136 0.59425 0.0
H153 H 0.62605 0.06639 0.59185 0.0
H154 H 0.54585 0.37032 0.60287 0.0
H155 H 0.42758 0.21838 0.5481 0.0
H156 H 0.58668 0.4108 0.46373 0.0
O157 O 0.61659 0.13009 0.50269 0.0
O158 O 0.71077 0.2531 0.47682 0.0
O159 O 0.71044 0.38375 0.55433 0.0
C160 C 0.66542 0.16983 0.46918 0.0
H161 H 0.89286 0.0619 0.63955 0.0
H162 H 0.29928 0.31368 0.49696 0.0
H163 H 0.46621 0.33948 0.67513 0.0
H164 H 0.55095 1.03089 0.66578 0.0
Co165 Co 0.37506 0.15817 0.78645 0.0
C166 C 0.53475 0.31098 0.7896 0.0
C167 C 0.44753 0.31443 0.84949 0.0
C168 C 0.53586 0.3635 0.85752 0.0
N169 N 0.44687 0.27817 0.80705 0.0
N170 N 0.59132 0.35943 0.81998 0.0
H171 H 0.5633 0.29072 0.75706 0.0
H172 H 0.39576 0.29476 0.87544 0.0
C173 C 0.18888 0.23626 0.83916 0.0
O174 O 0.23083 0.23833 0.87894 0.0
N175 N 0.31067 1.03763 0.76604 0.0
C176 C 0.34275 0.94502 0.77584 0.0
C177 C 0.29335 0.87816 0.74936 0.0
C178 C 0.24323 1.02597 0.73276 0.0
N179 N 0.23124 0.92903 0.72241 0.0
C180 C 0.49569 0.09341 0.86089 0.0
C181 C 0.34368 1.00278 0.90795 0.0
C182 C 0.43927 1.00446 0.92652 0.0
C183 C 0.51611 1.05068 0.9028 0.0
C184 C 0.32586 1.04912 0.86696 0.0
N185 N 0.40088 0.09531 0.84425 0.0
H186 H 0.55585 0.12606 0.84185 0.0
H187 H 0.25192 1.04587 0.85287 0.0
H188 H 0.40385 0.92759 0.79809 0.0
H189 H 0.21144 0.08671 0.71373 0.0
O190 O 0.49214 0.1166 0.75269 0.0
O191 O 0.36914 0.2108 0.72682 0.0
O192 O 0.2385 0.21046 0.80433 0.0
C193 C 0.45242 0.16545 0.71918 0.0
H194 H 0.56034 0.39287 0.88955 0.0
H195 H 0.30854 0.79929 0.74696 0.0
H196 H 0.28276 0.96623 0.92513 0.0
H197 H 0.59135 1.05096 0.91578 0.0
Co198 Co 0.46407 0.87507 0.03646 0.0
C199 C 0.31126 1.03475 0.0396 0.0
C200 C 0.30782 0.94753 0.0995 0.0
C201 C 0.25874 1.03586 0.10752 0.0
N202 N 0.34407 0.94688 0.05705 0.0
N203 N 0.2628 0.09133 0.06998 0.0
H204 H 0.33151 0.0633 0.00706 0.0
H205 H 0.3275 0.89577 0.12544 0.0
C206 C 0.38598 0.68889 0.08916 0.0
O207 O 0.38391 0.73084 0.12894 0.0
N208 N 0.58461 0.81068 0.01604 0.0
C209 C 0.67722 0.84277 0.02584 0.0
C210 C 0.74408 0.79336 -0.00063 0.0
C211 C 0.59627 0.74325 -0.01724 0.0
N212 N 0.69321 0.73126 -0.02758 0.0
C213 C 0.52883 0.9957 0.11089 0.0
C214 C 0.61946 0.84368 0.15794 0.0
C215 C 0.61778 0.93928 0.17652 0.0
C216 C 0.57157 1.01612 0.1528 0.0
C217 C 0.57312 0.82587 0.11696 0.0
N218 N 0.52693 0.90089 0.09425 0.0
H219 H 0.49618 1.05586 0.09185 0.0
H220 H 0.57637 0.75192 0.10287 0.0
H221 H 0.69465 0.90387 0.04809 0.0
H222 H 0.53553 0.71145 -0.03627 0.0
O223 O 0.50563 0.99216 0.00269 0.0
O224 O 0.41144 0.86915 -0.02318 0.0
O225 O 0.41178 0.7385 0.05433 0.0
C226 C 0.45678 0.95243 -0.03082 0.0
H227 H 0.22938 1.06035 0.13956 0.0
H228 H 0.82294 0.80856 -0.00304 0.0
H229 H 0.65601 0.78277 0.17513 0.0
H230 H 0.57129 0.09136 0.16578 0.0
Co231 Co 0.74717 0.96408 0.28646 0.0
C232 C 0.58748 0.81127 0.2896 0.0
C233 C 0.6747 0.80781 0.34949 0.0
C234 C 0.58637 0.75874 0.35752 0.0
N235 N 0.67535 0.84408 0.30705 0.0
N236 N 0.5309 0.76281 0.31998 0.0
H237 H 0.55893 0.83152 0.25706 0.0
H238 H 0.72647 0.82749 0.37544 0.0
C239 C 0.93335 0.88599 0.33916 0.0
O240 O 0.89139 0.88391 0.37894 0.0
N241 N 0.81156 0.08461 0.26605 0.0
C242 C 0.77948 0.17722 0.27584 0.0
C243 C 0.82888 0.24409 0.24937 0.0
C244 C 0.87899 0.09627 0.23277 0.0
N245 N 0.89098 0.19322 0.22242 0.0
C246 C 0.62653 1.02883 0.36088 0.0
C247 C 0.77854 0.11946 0.40795 0.0
C248 C 0.68295 0.11779 0.42652 0.0
C249 C 0.60611 0.07157 0.4028 0.0
C250 C 0.79636 0.07312 0.36696 0.0
N251 N 0.72135 1.02693 0.34425 0.0
H252 H 0.56637 0.99618 0.34185 0.0
H253 H 0.87031 0.07638 0.35287 0.0
H254 H 0.71838 0.19466 0.2981 0.0
H255 H 0.91078 1.03554 0.21373 0.0
O256 O 0.63008 1.00564 0.25269 0.0
O257 O 0.75309 0.91145 0.22682 0.0
O258 O 0.88373 0.91178 0.30434 0.0
C259 C 0.66981 0.95679 0.21918 0.0
H260 H 0.56188 0.72937 0.38956 0.0
H261 H 0.81369 0.32296 0.24696 0.0
H262 H 0.83945 0.15602 0.42513 0.0
H263 H 0.53087 0.07129 0.41578 0.0
loop_
_geom_bond_atom_site_label_1
_geom_bond_atom_site_label_2
_geom_bond_distance
_geom_bond_site_symmetry_2
_ccdc_geom_bond_type
Co0 N4 2.148 . S
Co0 N10 2.128 . S
Co0 N20 2.194 . S
Co0 O25 2.351 . S
Co0 O26 2.155 . S
Co0 O27 2.096 . S
C1 N4 1.301 . S
C1 N5 1.328 . S
C1 H6 0.930 . S
C2 C3 1.333 . S
C2 N4 1.317 . S
C2 H7 0.930 . S
C3 C2 1.333 . S
C3 N5 1.350 . S
C3 H29 0.931 . S
N4 Co0 2.148 . S
N4 C1 1.301 . S
N4 C2 1.317 . S
N5 C1 1.328 . S
N5 C3 1.350 . S
H6 C1 0.930 . S
H7 C2 0.930 . S
C8 O9 1.224 . S
C8 O27 1.247 . S
O9 C8 1.224 . S
N10 Co0 2.128 . S
N10 C11 1.355 1_455 S
N10 C13 1.311 . S
C11 N10 1.355 1_655 S
C11 C12 1.363 . S
C11 H23 0.929 . S
C12 C11 1.363 . S
C12 N14 1.375 . S
C12 H30 0.931 . S
C13 N10 1.311 . S
C13 N14 1.347 1_455 S
C13 H24 0.929 . S
N14 C12 1.375 . S
N14 C13 1.347 1_655 S
C15 C18 1.365 . S
C15 N20 1.328 1_655 S
C15 H21 0.929 1_655 S
C16 C17 1.362 . S
C16 C19 1.378 1_655 S
C16 H31 0.929 . S
C17 C16 1.362 . S
C17 C18 1.366 . S
C18 C15 1.365 . S
C18 C17 1.366 . S
C18 H32 0.930 . S
C19 C16 1.378 1_455 S
C19 N20 1.315 . S
C19 H22 0.930 . S
N20 Co0 2.194 . S
N20 C15 1.328 1_455 S
N20 C19 1.315 . S
H21 C15 0.929 1_455 S
H22 C19 0.930 . S
H23 C11 0.929 . S
H24 C13 0.929 . S
O25 Co0 2.351 . S
O25 C28 1.244 . S
O26 Co0 2.155 . S
O26 C28 1.240 . S
O27 Co0 2.096 . S
O27 C8 1.247 . S
C28 O25 1.244 . S
C28 O26 1.240 . S
H29 C3 0.931 . S
H30 C12 0.931 . S
H31 C16 0.929 . S
H32 C18 0.930 . S
Co33 N37 2.148 . S
Co33 N43 2.128 . S
Co33 N53 2.194 . S
Co33 O58 2.351 . S
Co33 O59 2.155 . S
Co33 O60 2.096 . S
C34 N37 1.301 . S
C34 N38 1.328 . S
C34 H39 0.930 . S
C35 C36 1.333 . S
C35 N37 1.317 . S
C35 H40 0.930 . S
C36 C35 1.333 . S
C36 N38 1.350 . S
C36 H62 0.931 . S
N37 Co33 2.148 . S
N37 C34 1.301 . S
N37 C35 1.317 . S
N38 C34 1.328 . S
N38 C36 1.350 . S
H39 C34 0.930 . S
H40 C35 0.930 . S
C41 O42 1.224 . S
C41 O60 1.247 . S
O42 C41 1.224 . S
N43 Co33 2.128 . S
N43 C44 1.355 . S
N43 C46 1.311 . S
C44 N43 1.355 . S
C44 C45 1.363 . S
C44 H56 0.929 . S
C45 C44 1.363 . S
C45 N47 1.375 . S
C45 H63 0.931 . S
C46 N43 1.311 . S
C46 N47 1.347 . S
C46 H57 0.929 . S
N47 C45 1.375 . S
N47 C46 1.347 . S
C48 C51 1.365 . S
C48 N53 1.328 . S
C48 H54 0.929 . S
C49 C50 1.362 . S
C49 C52 1.378 . S
C49 H64 0.929 . S
C50 C49 1.362 . S
C50 C51 1.366 . S
C51 C48 1.365 . S
C51 C50 1.366 . S
C51 H65 0.930 . S
C52 C49 1.378 . S
C52 N53 1.315 . S
C52 H55 0.930 . S
N53 Co33 2.194 . S
N53 C48 1.328 . S
N53 C52 1.315 . S
H54 C48 0.929 . S
H55 C52 0.930 . S
H56 C44 0.929 . S
H57 C46 0.929 . S
O58 Co33 2.351 . S
O58 C61 1.244 . S
O59 Co33 2.155 . S
O59 C61 1.240 . S
O60 Co33 2.096 . S
O60 C41 1.247 . S
C61 O58 1.244 . S
C61 O59 1.240 . S
H62 C36 0.931 . S
H63 C45 0.931 . S
H64 C49 0.929 . S
H65 C51 0.930 . S
Co66 N70 2.148 . S
Co66 N76 2.128 . S
Co66 N86 2.194 . S
Co66 O91 2.351 . S
Co66 O92 2.155 . S
Co66 O93 2.096 . S
C67 N70 1.301 . S
C67 N71 1.328 . S
C67 H72 0.930 . S
C68 C69 1.333 . S
C68 N70 1.317 . S
C68 H73 0.930 . S
C69 C68 1.333 . S
C69 N71 1.350 . S
C69 H95 0.931 . S
N70 Co66 2.148 . S
N70 C67 1.301 . S
N70 C68 1.317 . S
N71 C67 1.328 . S
N71 C69 1.350 . S
H72 C67 0.930 . S
H73 C68 0.930 . S
C74 O75 1.224 . S
C74 O93 1.247 . S
O75 C74 1.224 . S
N76 Co66 2.128 . S
N76 C77 1.355 1_655 S
N76 C79 1.311 . S
C77 N76 1.355 1_455 S
C77 C78 1.363 . S
C77 H89 0.929 . S
C78 C77 1.363 . S
C78 N80 1.375 . S
C78 H96 0.931 . S
C79 N76 1.311 . S
C79 N80 1.347 1_655 S
C79 H90 0.929 . S
N80 C78 1.375 . S
N80 C79 1.347 1_455 S
C81 C84 1.365 . S
C81 N86 1.328 1_455 S
C81 H87 0.929 1_455 S
C82 C83 1.362 . S
C82 C85 1.378 1_455 S
C82 H97 0.929 . S
C83 C82 1.362 . S
C83 C84 1.366 . S
C84 C81 1.365 . S
C84 C83 1.366 . S
C84 H98 0.930 . S
C85 C82 1.378 1_655 S
C85 N86 1.315 . S
C85 H88 0.930 . S
N86 Co66 2.194 . S
N86 C81 1.328 1_655 S
N86 C85 1.315 . S
H87 C81 0.929 1_655 S
H88 C85 0.930 . S
H89 C77 0.929 . S
H90 C79 0.929 . S
O91 Co66 2.351 . S
O91 C94 1.244 . S
O92 Co66 2.155 . S
O92 C94 1.240 . S
O93 Co66 2.096 . S
O93 C74 1.247 . S
C94 O91 1.244 . S
C94 O92 1.240 . S
H95 C69 0.931 . S
H96 C78 0.931 . S
H97 C82 0.929 . S
H98 C84 0.930 . S
Co99 N103 2.148 . S
Co99 N109 2.128 . S
Co99 N119 2.194 . S
Co99 O124 2.351 . S
Co99 O125 2.155 . S
Co99 O126 2.096 . S
C100 N103 1.301 . S
C100 N104 1.328 . S
C100 H105 0.930 . S
C101 C102 1.333 . S
C101 N103 1.317 . S
C101 H106 0.930 . S
C102 C101 1.333 . S
C102 N104 1.350 . S
C102 H128 0.931 . S
N103 Co99 2.148 . S
N103 C100 1.301 . S
N103 C101 1.317 . S
N104 C100 1.328 . S
N104 C102 1.350 . S
H105 C100 0.930 . S
H106 C101 0.930 . S
C107 O108 1.224 . S
C107 O126 1.247 . S
O108 C107 1.224 . S
N109 Co99 2.128 . S
N109 C110 1.355 . S
N109 C112 1.311 . S
C110 N109 1.355 . S
C110 C111 1.363 . S
C110 H122 0.929 . S
C111 C110 1.363 . S
C111 N113 1.375 . S
C111 H129 0.931 . S
C112 N109 1.311 . S
C112 N113 1.347 . S
C112 H123 0.929 . S
N113 C111 1.375 . S
N113 C112 1.347 . S
C114 C117 1.365 . S
C114 N119 1.328 . S
C114 H120 0.929 . S
C115 C116 1.362 . S
C115 C118 1.378 . S
C115 H130 0.929 . S
C116 C115 1.362 . S
C116 C117 1.366 . S
C117 C114 1.365 . S
C117 C116 1.366 . S
C117 H131 0.930 . S
C118 C115 1.378 . S
C118 N119 1.315 . S
C118 H121 0.930 . S
N119 Co99 2.194 . S
N119 C114 1.328 . S
N119 C118 1.315 . S
H120 C114 0.929 . S
H121 C118 0.930 . S
H122 C110 0.929 . S
H123 C112 0.929 . S
O124 Co99 2.351 . S
O124 C127 1.244 . S
O125 Co99 2.155 . S
O125 C127 1.240 . S
O126 Co99 2.096 . S
O126 C107 1.247 . S
C127 O124 1.244 . S
C127 O125 1.240 . S
H128 C102 0.931 . S
H129 C111 0.931 . S
H130 C115 0.929 . S
H131 C117 0.930 . S
Co132 N136 2.148 . S
Co132 N142 2.128 . S
Co132 N152 2.194 . S
Co132 O157 2.351 . S
Co132 O158 2.155 . S
Co132 O159 2.096 . S
C133 N136 1.301 . S
C133 N137 1.328 . S
C133 H138 0.930 . S
C134 C135 1.333 . S
C134 N136 1.317 . S
C134 H139 0.930 . S
C135 C134 1.333 . S
C135 N137 1.350 . S
C135 H161 0.931 . S
N136 Co132 2.148 . S
N136 C133 1.301 . S
N136 C134 1.317 . S
N137 C133 1.328 . S
N137 C135 1.350 . S
H138 C133 0.930 . S
H139 C134 0.930 . S
C140 O141 1.224 . S
C140 O159 1.247 . S
O141 C140 1.224 . S
N142 Co132 2.128 . S
N142 C143 1.355 . S
N142 C145 1.311 . S
C143 N142 1.355 . S
C143 C144 1.363 . S
C143 H155 0.929 . S
C144 C143 1.363 . S
C144 N146 1.375 . S
C144 H162 0.931 . S
C145 N142 1.311 . S
C145 N146 1.347 . S
C145 H156 0.929 . S
N146 C144 1.375 . S
N146 C145 1.347 . S
C147 C150 1.365 . S
C147 N152 1.328 . S
C147 H153 0.929 . S
C148 C149 1.362 . S
C148 C151 1.378 . S
C148 H163 0.929 . S
C149 C148 1.362 . S
C149 C150 1.366 . S
C150 C147 1.365 . S
C150 C149 1.366 . S
C150 H164 0.930 . S
C151 C148 1.378 . S
C151 N152 1.315 . S
C151 H154 0.930 . S
N152 Co132 2.194 . S
N152 C147 1.328 . S
N152 C151 1.315 . S
H153 C147 0.929 . S
H154 C151 0.930 . S
H155 C143 0.929 . S
H156 C145 0.929 . S
O157 Co132 2.351 . S
O157 C160 1.244 . S
O158 Co132 2.155 . S
O158 C160 1.240 . S
O159 Co132 2.096 . S
O159 C140 1.247 . S
C160 O157 1.244 . S
C160 O158 1.240 . S
H161 C135 0.931 . S
H162 C144 0.931 . S
H163 C148 0.929 . S
H164 C150 0.930 . S
Co165 N169 2.148 . S
Co165 N175 2.128 . S
Co165 N185 2.194 . S
Co165 O190 2.351 . S
Co165 O191 2.155 . S
Co165 O192 2.096 . S
C166 N169 1.301 . S
C166 N170 1.328 . S
C166 H171 0.930 . S
C167 C168 1.333 . S
C167 N169 1.317 . S
C167 H172 0.930 . S
C168 C167 1.333 . S
C168 N170 1.350 . S
C168 H194 0.931 . S
N169 Co165 2.148 . S
N169 C166 1.301 . S
N169 C167 1.317 . S
N170 C166 1.328 . S
N170 C168 1.350 . S
H171 C166 0.930 . S
H172 C167 0.930 . S
C173 O174 1.224 . S
C173 O192 1.247 . S
O174 C173 1.224 . S
N175 Co165 2.128 . S
N175 C176 1.355 1_545 S
N175 C178 1.311 . S
C176 N175 1.355 1_565 S
C176 C177 1.363 . S
C176 H188 0.929 . S
C177 C176 1.363 . S
C177 N179 1.375 . S
C177 H195 0.931 . S
C178 N175 1.311 . S
C178 N179 1.347 1_545 S
C178 H189 0.929 . S
N179 C177 1.375 . S
N179 C178 1.347 1_565 S
C180 C183 1.365 . S
C180 N185 1.328 1_565 S
C180 H186 0.929 1_565 S
C181 C182 1.362 . S
C181 C184 1.378 1_565 S
C181 H196 0.929 . S
C182 C181 1.362 . S
C182 C183 1.366 . S
C183 C180 1.365 . S
C183 C182 1.366 . S
C183 H197 0.930 . S
C184 C181 1.378 1_545 S
C184 N185 1.315 . S
C184 H187 0.930 . S
N185 Co165 2.194 . S
N185 C180 1.328 1_545 S
N185 C184 1.315 . S
H186 C180 0.929 1_545 S
H187 C184 0.930 . S
H188 C176 0.929 . S
H189 C178 0.929 . S
O190 Co165 2.351 . S
O190 C193 1.244 . S
O191 Co165 2.155 . S
O191 C193 1.240 . S
O192 Co165 2.096 . S
O192 C173 1.247 . S
C193 O190 1.244 . S
C193 O191 1.240 . S
H194 C168 0.931 . S
H195 C177 0.931 . S
H196 C181 0.929 . S
H197 C183 0.930 . S
Co198 N202 2.148 . S
Co198 N208 2.128 . S
Co198 N218 2.194 . S
Co198 O223 2.351 . S
Co198 O224 2.155 . S
Co198 O225 2.096 . S
C199 N202 1.301 . S
C199 N203 1.328 . S
C199 H204 0.930 . S
C200 C201 1.333 . S
C200 N202 1.317 . S
C200 H205 0.930 . S
C201 C200 1.333 . S
C201 N203 1.350 . S
C201 H227 0.931 . S
N202 Co198 2.148 . S
N202 C199 1.301 . S
N202 C200 1.317 . S
N203 C199 1.328 . S
N203 C201 1.350 . S
H204 C199 0.930 . S
H205 C200 0.930 . S
C206 O207 1.224 . S
C206 O225 1.247 . S
O207 C206 1.224 . S
N208 Co198 2.128 . S
N208 C209 1.355 . S
N208 C211 1.311 . S
C209 N208 1.355 . S
C209 C210 1.363 . S
C209 H221 0.929 . S
C210 C209 1.363 . S
C210 N212 1.375 . S
C210 H228 0.931 . S
C211 N208 1.311 . S
C211 N212 1.347 . S
C211 H222 0.929 . S
N212 C210 1.375 . S
N212 C211 1.347 . S
C213 C216 1.365 . S
C213 N218 1.328 . S
C213 H219 0.929 . S
C214 C215 1.362 . S
C214 C217 1.378 . S
C214 H229 0.929 . S
C215 C214 1.362 . S
C215 C216 1.366 . S
C216 C213 1.365 . S
C216 C215 1.366 . S
C216 H230 0.930 . S
C217 C214 1.378 . S
C217 N218 1.315 . S
C217 H220 0.930 . S
N218 Co198 2.194 . S
N218 C213 1.328 . S
N218 C217 1.315 . S
H219 C213 0.929 . S
H220 C217 0.930 . S
H221 C209 0.929 . S
H222 C211 0.929 . S
O223 Co198 2.351 . S
O223 C226 1.244 . S
O224 Co198 2.155 . S
O224 C226 1.240 . S
O225 Co198 2.096 . S
O225 C206 1.247 . S
C226 O223 1.244 . S
C226 O224 1.240 . S
H227 C201 0.931 . S
H228 C210 0.931 . S
H229 C214 0.929 . S
H230 C216 0.930 . S
Co231 N235 2.148 . S
Co231 N241 2.128 . S
Co231 N251 2.194 . S
Co231 O256 2.351 . S
Co231 O257 2.155 . S
Co231 O258 2.096 . S
C232 N235 1.301 . S
C232 N236 1.328 . S
C232 H237 0.930 . S
C233 C234 1.333 . S
C233 N235 1.317 . S
C233 H238 0.930 . S
C234 C233 1.333 . S
C234 N236 1.350 . S
C234 H260 0.931 . S
N235 Co231 2.148 . S
N235 C232 1.301 . S
N235 C233 1.317 . S
N236 C232 1.328 . S
N236 C234 1.350 . S
H237 C232 0.930 . S
H238 C233 0.930 . S
C239 O240 1.224 . S
C239 O258 1.247 . S
O240 C239 1.224 . S
N241 Co231 2.128 . S
N241 C242 1.355 1_565 S
N241 C244 1.311 . S
C242 N241 1.355 1_545 S
C242 C243 1.363 . S
C242 H254 0.929 . S
C243 C242 1.363 . S
C243 N245 1.375 . S
C243 H261 0.931 . S
C244 N241 1.311 . S
C244 N245 1.347 1_565 S
C244 H255 0.929 . S
N245 C243 1.375 . S
N245 C244 1.347 1_545 S
C246 C249 1.365 . S
C246 N251 1.328 1_545 S
C246 H252 0.929 1_545 S
C247 C248 1.362 . S
C247 C250 1.378 1_545 S
C247 H262 0.929 . S
C248 C247 1.362 . S
C248 C249 1.366 . S
C249 C246 1.365 . S
C249 C248 1.366 . S
C249 H263 0.930 . S
C250 C247 1.378 1_565 S
C250 N251 1.315 . S
C250 H253 0.930 . S
N251 Co231 2.194 . S
N251 C246 1.328 1_565 S
N251 C250 1.315 . S
H252 C246 0.929 1_565 S
H253 C250 0.930 . S
H254 C242 0.929 . S
H255 C244 0.929 . S
O256 Co231 2.351 . S
O256 C259 1.244 . S
O257 Co231 2.155 . S
O257 C259 1.240 . S
O258 Co231 2.096 . S
O258 C239 1.247 . S
C259 O256 1.244 . S
C259 O257 1.240 . S
H260 C234 0.931 . S
H261 C243 0.931 . S
H262 C247 0.929 . S
H263 C249 0.930 . S
C28 C50 1.164 . S
C83 C61 1.163 . S
C116 C94 1.164 . S
C127 C17 1.163 1_556 S
C160 C248 1.164 . S
C193 C149 1.163 . S
C226 C182 1.163 1_554 S
C259 C215 1.163 . S
N203 C8 2.398 1_565 S
N236 C41 2.399 . S
N137 C74 2.398 1_545 S
N170 C107 2.398 . S
C140 N71 2.399 . S
C173 N104 2.398 1_455 S
C206 N5 2.398 . S
C239 N38 2.398 1_655 S
N245 N14 1.499 . S
N146 N47 1.499 . S
N80 N179 1.499 . S
N113 N212 1.499 1_556 S
