# Generated by pormake.
# Topology why, (6)-cn, num edge types: 1
# Building blocks:
#     Node 0, Type 0, BuildingBlock: CUKXOW_clean_sbu_0, # of connection points: 6
#     Node 1, Type 0, BuildingBlock: CUKXOW_clean_sbu_0, # of connection points: 6
#     Node 2, Type 0, BuildingBlock: CUKXOW_clean_sbu_0, # of connection points: 6
#     Node 3, Type 0, BuildingBlock: CUKXOW_clean_sbu_0, # of connection points: 6
#     Node 4, Type 0, BuildingBlock: CUKXOW_clean_sbu_0, # of connection points: 6
#     Node 5, Type 0, BuildingBlock: CUKXOW_clean_sbu_0, # of connection points: 6
#     Node 6, Type 0, BuildingBlock: CUKXOW_clean_sbu_0, # of connection points: 6
#     Node 7, Type 0, BuildingBlock: CUKXOW_clean_sbu_0, # of connection points: 6
#     Node 8, Type 0, BuildingBlock: CUKXOW_clean_sbu_0, # of connection points: 6
#     Node 9, Type 0, BuildingBlock: CUKXOW_clean_sbu_0, # of connection points: 6
#     Node 10, Type 0, BuildingBlock: CUKXOW_clean_sbu_0, # of connection points: 6
#     Node 11, Type 0, BuildingBlock: CUKXOW_clean_sbu_0, # of connection points: 6
#     Node 12, Type 0, BuildingBlock: CUKXOW_clean_sbu_0, # of connection points: 6
#     Node 13, Type 0, BuildingBlock: CUKXOW_clean_sbu_0, # of connection points: 6
#     Node 14, Type 0, BuildingBlock: CUKXOW_clean_sbu_0, # of connection points: 6
#     Node 15, Type 0, BuildingBlock: CUKXOW_clean_sbu_0, # of connection points: 6
#     Edge 16, Type (0, 0), BuildingBlock: CIFDUS_clean_linker_0, # of connection points: 2
#     Edge 17, Type (0, 0), BuildingBlock: CIFDUS_clean_linker_0, # of connection points: 2
#     Edge 18, Type (0, 0), BuildingBlock: CIFDUS_clean_linker_0, # of connection points: 2
#     Edge 19, Type (0, 0), BuildingBlock: CIFDUS_clean_linker_0, # of connection points: 2
#     Edge 20, Type (0, 0), BuildingBlock: CIFDUS_clean_linker_0, # of connection points: 2
#     Edge 21, Type (0, 0), BuildingBlock: CIFDUS_clean_linker_0, # of connection points: 2
#     Edge 22, Type (0, 0), BuildingBlock: CIFDUS_clean_linker_0, # of connection points: 2
#     Edge 23, Type (0, 0), BuildingBlock: CIFDUS_clean_linker_0, # of connection points: 2
#     Edge 24, Type (0, 0), BuildingBlock: CIFDUS_clean_linker_0, # of connection points: 2
#     Edge 25, Type (0, 0), BuildingBlock: CIFDUS_clean_linker_0, # of connection points: 2
#     Edge 26, Type (0, 0), BuildingBlock: CIFDUS_clean_linker_0, # of connection points: 2
#     Edge 27, Type (0, 0), BuildingBlock: CIFDUS_clean_linker_0, # of connection points: 2
#     Edge 28, Type (0, 0), BuildingBlock: CIFDUS_clean_linker_0, # of connection points: 2
#     Edge 29, Type (0, 0), BuildingBlock: CIFDUS_clean_linker_0, # of connection points: 2
#     Edge 30, Type (0, 0), BuildingBlock: CIFDUS_clean_linker_0, # of connection points: 2
#     Edge 31, Type (0, 0), BuildingBlock: CIFDUS_clean_linker_0, # of connection points: 2
#     Edge 32, Type (0, 0), BuildingBlock: CIFDUS_clean_linker_0, # of connection points: 2
#     Edge 33, Type (0, 0), BuildingBlock: CIFDUS_clean_linker_0, # of connection points: 2
#     Edge 34, Type (0, 0), BuildingBlock: CIFDUS_clean_linker_0, # of connection points: 2
#     Edge 35, Type (0, 0), BuildingBlock: CIFDUS_clean_linker_0, # of connection points: 2
#     Edge 36, Type (0, 0), BuildingBlock: CIFDUS_clean_linker_0, # of connection points: 2
#     Edge 37, Type (0, 0), BuildingBlock: CIFDUS_clean_linker_0, # of connection points: 2
#     Edge 38, Type (0, 0), BuildingBlock: CIFDUS_clean_linker_0, # of connection points: 2
#     Edge 39, Type (0, 0), BuildingBlock: CIFDUS_clean_linker_0, # of connection points: 2
#     Edge 40, Type (0, 0), BuildingBlock: CIFDUS_clean_linker_0, # of connection points: 2
#     Edge 41, Type (0, 0), BuildingBlock: CIFDUS_clean_linker_0, # of connection points: 2
#     Edge 42, Type (0, 0), BuildingBlock: CIFDUS_clean_linker_0, # of connection points: 2
#     Edge 43, Type (0, 0), BuildingBlock: CIFDUS_clean_linker_0, # of connection points: 2
#     Edge 44, Type (0, 0), BuildingBlock: CIFDUS_clean_linker_0, # of connection points: 2
#     Edge 45, Type (0, 0), BuildingBlock: CIFDUS_clean_linker_0, # of connection points: 2
#     Edge 46, Type (0, 0), BuildingBlock: CIFDUS_clean_linker_0, # of connection points: 2
#     Edge 47, Type (0, 0), BuildingBlock: CIFDUS_clean_linker_0, # of connection points: 2
#     Edge 48, Type (0, 0), BuildingBlock: CIFDUS_clean_linker_0, # of connection points: 2
#     Edge 49, Type (0, 0), BuildingBlock: CIFDUS_clean_linker_0, # of connection points: 2
#     Edge 50, Type (0, 0), BuildingBlock: CIFDUS_clean_linker_0, # of connection points: 2
#     Edge 51, Type (0, 0), BuildingBlock: CIFDUS_clean_linker_0, # of connection points: 2
#     Edge 52, Type (0, 0), BuildingBlock: CIFDUS_clean_linker_0, # of connection points: 2
#     Edge 53, Type (0, 0), BuildingBlock: CIFDUS_clean_linker_0, # of connection points: 2
#     Edge 54, Type (0, 0), BuildingBlock: CIFDUS_clean_linker_0, # of connection points: 2
#     Edge 55, Type (0, 0), BuildingBlock: CIFDUS_clean_linker_0, # of connection points: 2
#     Edge 56, Type (0, 0), BuildingBlock: CIFDUS_clean_linker_0, # of connection points: 2
#     Edge 57, Type (0, 0), BuildingBlock: CIFDUS_clean_linker_0, # of connection points: 2
#     Edge 58, Type (0, 0), BuildingBlock: CIFDUS_clean_linker_0, # of connection points: 2
#     Edge 59, Type (0, 0), BuildingBlock: CIFDUS_clean_linker_0, # of connection points: 2
#     Edge 60, Type (0, 0), BuildingBlock: CIFDUS_clean_linker_0, # of connection points: 2
#     Edge 61, Type (0, 0), BuildingBlock: CIFDUS_clean_linker_0, # of connection points: 2
#     Edge 62, Type (0, 0), BuildingBlock: CIFDUS_clean_linker_0, # of connection points: 2
#     Edge 63, Type (0, 0), BuildingBlock: CIFDUS_clean_linker_0, # of connection points: 2
# Relax obj value: 0.213
# Max RMSD: 0.192
# Mean RMSD: 0.192
data_MOF--net-why--node1-CUKXOW_clean_sbu_0--edge1-CIFDUS_clean_linker_0
_symmetry_space_group_name_H-M    P1
_symmetry_Int_Tables_number       1
_symmetry_cell_setting            triclinic
loop_
_symmetry_equiv_pos_as_xyz
'x, y, z'
_cell_length_a     45.445594
_cell_length_b     45.56128
_cell_length_c     20.708636
_cell_angle_alpha  90.117626
_cell_angle_beta   90.268778
_cell_angle_gamma 89.965981
loop_
_atom_site_label
_atom_site_type_symbol
_atom_site_fract_x
_atom_site_fract_y
_atom_site_fract_z
_atom_type_partial_charge
Tb0 Tb 0.37377 0.20788 0.13291 0.0
C1 C 0.35686 0.14409 0.17222 0.0
Tb2 Tb 0.32628 0.18034 0.05716 0.0
O3 O 0.34969 0.23523 0.20136 0.0
O4 O 0.32681 0.2103 0.13491 0.0
O5 O 0.37569 0.16585 0.17915 0.0
C6 C 0.27589 0.15535 1.01876 0.0
O7 O 0.33482 0.14535 0.12956 0.0
C8 C 0.37847 0.1728 1.00607 0.0
C9 C 0.35336 0.24079 1.00864 0.0
O10 O 0.30193 0.14837 0.99902 0.0
O11 O 0.27802 0.17686 0.05968 0.0
O12 O 0.35445 0.1769 0.97307 0.0
O13 O 0.37246 0.17202 0.06585 0.0
O14 O 0.32931 0.22383 1.00831 0.0
O15 O 0.3748 0.23673 0.05058 0.0
C16 C 0.42466 0.22475 0.17756 0.0
O17 O 0.41887 0.22037 0.11702 0.0
O18 O 0.40208 0.21964 0.2134 0.0
C19 C 0.32369 0.22774 0.18227 0.0
Tb20 Tb 0.5499 0.62288 0.39252 0.0
C21 C 0.61533 0.60725 0.42396 0.0
Tb22 Tb 0.58082 0.57501 0.30766 0.0
O23 O 0.52502 0.59461 0.4576 0.0
O24 O 0.55194 0.57662 0.38801 0.0
O25 O 0.59348 0.62614 0.43058 0.0
C26 C 0.60136 0.52322 0.26893 0.0
O27 O 0.61376 0.58368 0.38526 0.0
C28 C 0.59528 0.62832 0.26814 0.0
C29 C 0.52 0.60463 0.25958 0.0
O30 O 0.61339 0.54841 0.25792 0.0
O31 O 0.57724 0.52691 0.30143 0.0
O32 O 0.60272 0.60433 0.23823 0.0
O33 O 0.57969 0.62047 0.3156 0.0
O34 O 0.54037 0.5838 0.24848 0.0
O35 O 0.51978 0.62079 0.31265 0.0
C36 C 0.52915 0.67292 0.43027 0.0
O37 O 0.53685 0.66687 0.37164 0.0
O38 O 0.53365 0.65108 0.46897 0.0
C39 C 0.53493 0.57016 0.43442 0.0
Tb40 Tb 0.13206 0.80079 0.6454 0.0
C41 C 0.15373 0.86493 0.66831 0.0
Tb42 Tb 0.18255 0.82508 0.55644 0.0
O43 O 0.15971 0.77953 0.71957 0.0
O44 O 0.17829 0.8015 0.64395 0.0
O45 O 0.13336 0.84503 0.68002 0.0
C46 C 0.23683 0.84091 0.52401 0.0
O47 O 0.17602 0.86088 0.62741 0.0
C48 C 0.13 0.8391 0.50962 0.0
C49 C 0.14905 0.76607 0.51692 0.0
O50 O 0.21323 0.85608 0.51302 0.0
O51 O 0.22981 0.8162 0.55108 0.0
O52 O 0.15475 0.84523 0.48105 0.0
O53 O 0.13665 0.82494 0.56002 0.0
O54 O 0.17345 0.7822 0.50896 0.0
O55 O 0.12916 0.7717 0.56204 0.0
C56 C 0.08088 0.78674 0.6923 0.0
O57 O 0.10025 0.76831 0.67077 0.0
O58 O 0.09023 0.81353 0.68798 0.0
C59 C 0.18462 0.7869 0.69407 0.0
Tb60 Tb 0.96053 0.3838 0.88098 0.0
C61 C 0.89612 0.39479 0.92133 0.0
Tb62 Tb 0.93006 0.4293 0.81334 0.0
O63 O 0.9874 0.40583 0.95214 0.0
O64 O 0.96065 0.431 0.89137 0.0
O65 O 0.91746 0.37545 0.91875 0.0
C66 C 0.90933 0.48258 0.78546 0.0
O67 O 0.89799 0.41996 0.88988 0.0
C68 C 0.9098 0.37666 0.77887 0.0
C69 C 0.99185 0.40611 0.75784 0.0
O70 O 0.9128 0.47186 0.84265 0.0
O71 O 0.91827 0.46352 0.74292 0.0
O72 O 0.8947 0.40087 0.77827 0.0
O73 O 0.93616 0.38379 0.79213 0.0
O74 O 0.96959 0.42507 0.74998 0.0
O75 O 0.99324 0.38845 0.80784 0.0
C76 C 0.98346 0.33418 0.91786 0.0
O77 O 0.98264 0.34329 0.85883 0.0
O78 O 0.97007 0.3521 0.95621 0.0
C79 C 0.97896 0.43199 0.93809 0.0
Tb80 Tb 0.68251 0.82232 1.0207 0.0
C81 C 0.6464 0.76423 0.0486 0.0
Tb82 Tb 0.63243 0.80338 0.9225 0.0
O83 O 0.65414 0.84108 0.0965 0.0
O84 O 0.63684 0.82505 1.01149 0.0
O85 O 0.67115 0.77903 0.06262 0.0
C86 C 0.5803 0.79114 0.87498 0.0
O87 O 0.62817 0.77197 1.00112 0.0
C88 C 0.68484 0.78826 0.87767 0.0
C89 C 0.6557 0.86723 0.91426 0.0
O90 O 0.60243 0.77323 0.87758 0.0
O91 O 0.58813 0.81656 0.89733 0.0
O92 O 0.66023 0.78333 0.84769 0.0
O93 O 0.67837 0.80154 0.92953 0.0
O94 O 0.63672 0.84786 0.89152 0.0
O95 O 0.67591 0.86156 0.95958 0.0
C96 C 0.73743 0.83724 0.0526 0.0
O97 O 0.71375 0.84859 0.0768 0.0
O98 O 0.73021 0.81635 1.01287 0.0
C99 C 0.62974 0.83763 0.06381 0.0
Tb100 Tb 0.43062 0.43016 0.76631 0.0
C101 C 0.4899 0.39672 0.80483 0.0
Tb102 Tb 0.45575 0.38076 0.67574 0.0
O103 O 0.40796 0.40188 0.83728 0.0
O104 O 0.43116 0.38448 0.76095 0.0
O105 O 0.47407 0.4213 0.81385 0.0
C106 C 0.47947 0.33342 0.62996 0.0
O107 O 0.48276 0.37678 0.76107 0.0
C108 C 0.46916 0.43339 0.62952 0.0
C109 C 0.39128 0.40053 0.65217 0.0
O110 O 0.45132 0.33627 0.63985 0.0
O111 O 0.4936 0.35709 0.6449 0.0
O112 O 0.47619 0.40887 0.60226 0.0
O113 O 0.45473 0.42675 0.67957 0.0
O114 O 0.41198 0.38106 0.63892 0.0
O115 O 0.39452 0.42235 0.69521 0.0
C116 C 0.41643 0.48535 0.79513 0.0
O117 O 0.40434 0.46217 0.81977 0.0
O118 O 0.43724 0.47746 0.7562 0.0
C119 C 0.41562 0.37743 0.8091 0.0
Tb120 Tb 0.82698 0.17837 0.51498 0.0
C121 C 0.85661 0.23842 0.56544 0.0
Tb122 Tb 0.87701 0.20797 0.43507 0.0
O123 O 0.85431 0.15323 0.58406 0.0
O124 O 0.87296 0.17873 0.5135 0.0
O125 O 0.83537 0.21835 0.57391 0.0
C126 C 0.92892 0.224 0.39564 0.0
O127 O 0.87477 0.23834 0.51552 0.0
C128 C 0.82466 0.22319 0.38721 0.0
C129 C 0.85838 0.14422 0.40245 0.0
O130 O 0.9182 0.22915 0.45245 0.0
O131 O 0.91017 0.21003 0.35954 0.0
O132 O 0.84969 0.23232 0.36515 0.0
O133 O 0.83058 0.20677 0.43472 0.0
O134 O 0.88055 0.16286 0.40547 0.0
O135 O 0.83283 0.14955 0.431 0.0
C136 C 0.77414 0.15697 0.54199 0.0
O137 O 0.79634 0.14188 0.52159 0.0
O138 O 0.78174 0.18437 0.54896 0.0
C139 C 0.87927 0.16161 0.55958 0.0
Tb140 Tb 0.07504 0.57489 0.26732 0.0
C141 C 0.01744 0.61117 0.30195 0.0
Tb142 Tb 0.0539 0.62551 0.17498 0.0
O143 O 0.09464 0.60218 0.34463 0.0
O144 O 0.07683 0.62062 0.26263 0.0
O145 O 0.03226 0.58618 0.31276 0.0
C146 C 0.04037 0.67673 0.12809 0.0
O147 O 0.02503 0.63036 0.25699 0.0
C148 C 0.03741 0.5738 0.12804 0.0
C149 C 0.11774 0.60349 0.16009 0.0
O150 O 0.02174 0.65629 0.14251 0.0
O151 O 0.0672 0.66825 0.13891 0.0
O152 O 0.03156 0.59879 0.1013 0.0
O153 O 0.05252 0.57941 0.1781 0.0
O154 O 0.09764 0.62245 0.14128 0.0
O155 O 0.11293 0.58169 0.20178 0.0
C156 C 0.08875 0.51968 0.29794 0.0
O157 O 0.10584 0.54224 0.30497 0.0
O158 O 0.06335 0.52833 0.27589 0.0
C159 C 0.09035 0.62697 0.3144 0.0
Tb160 Tb 0.87478 0.70149 0.64786 0.0
C161 C 0.85229 0.6382 0.66466 0.0
Tb162 Tb 0.8288 0.68186 0.55179 0.0
O163 O 0.84801 0.72389 0.72062 0.0
O164 O 0.82867 0.7054 0.63957 0.0
O165 O 0.86881 0.65894 0.69055 0.0
C166 C 0.77803 0.6587 0.51092 0.0
O167 O 0.83524 0.64267 0.61311 0.0
C168 C 0.8827 0.67312 0.51112 0.0
C169 C 0.86479 0.73898 0.51957 0.0
O170 O 0.80397 0.6483 0.49932 0.0
O171 O 0.78064 0.68321 0.54272 0.0
O172 O 0.8602 0.67813 0.47328 0.0
O173 O 0.87354 0.67127 0.56881 0.0
O174 O 0.8392 0.72529 0.50833 0.0
O175 O 0.88224 0.73107 0.56778 0.0
C176 C 0.92674 0.71253 0.69778 0.0
O177 O 0.90603 0.73173 0.69028 0.0
O178 O 0.91785 0.68698 0.67856 0.0
C179 C 0.82327 0.71965 0.6908 0.0
Tb180 Tb 0.05088 0.12079 0.88628 0.0
C181 C 0.11488 0.10386 0.92265 0.0
Tb182 Tb 0.07913 0.07543 0.80695 0.0
O183 O 0.02967 0.09531 0.96275 0.0
O184 O 0.05297 0.07409 0.89106 0.0
O185 O 0.09425 0.12405 0.92738 0.0
C186 C 0.09824 0.02485 0.75716 0.0
O187 O 0.11222 0.08075 0.88385 0.0
C188 C 0.0976 0.1297 0.77924 0.0
C189 C 0.01756 0.10135 0.76032 0.0
O190 O 0.09678 0.04962 0.72646 0.0
O191 O 0.08801 0.0284 0.81496 0.0
O192 O 0.11341 0.10599 0.77683 0.0
O193 O 0.07167 0.12151 0.79337 0.0
O194 O 0.03622 0.07885 0.7554 0.0
O195 O 0.02105 0.12198 0.80432 0.0
C196 C 0.02764 0.16955 0.92843 0.0
O197 O 0.01311 0.14631 0.91211 0.0
O198 O 0.05577 0.16534 0.92224 0.0
C199 C 0.03733 0.06995 0.94083 0.0
Tb200 Tb 0.6345 0.30157 0.13671 0.0
C201 C 0.65562 0.36356 0.17715 0.0
Tb202 Tb 0.68199 0.32806 0.05623 0.0
O203 O 0.66015 0.27443 0.20464 0.0
O204 O 0.68084 0.29899 0.135 0.0
O205 O 0.63459 0.34381 0.18314 0.0
C206 C 0.73287 0.35225 1.02058 0.0
O207 O 0.67733 0.36084 0.13449 0.0
C208 C 0.62824 0.33778 1.01169 0.0
C209 C 0.65443 0.26763 1.01073 0.0
O210 O 0.70722 0.36439 1.01475 0.0
O211 O 0.72975 0.32614 0.04438 0.0
O212 O 0.65139 0.3343 0.97564 0.0
O213 O 0.63639 0.3372 0.07021 0.0
O214 O 0.67811 0.28486 1.00731 0.0
O215 O 0.63363 0.27219 0.05379 0.0
C216 C 0.5822 0.28317 0.16658 0.0
O217 O 0.59313 0.28289 0.1091 0.0
O218 O 0.60054 0.29411 0.20834 0.0
C219 C 0.68558 0.28191 0.18204 0.0
Tb220 Tb 0.45314 0.88314 0.39409 0.0
C221 C 0.38965 0.90601 0.41013 0.0
Tb222 Tb 0.4323 0.93177 0.29842 0.0
O223 O 0.47308 0.90951 0.47001 0.0
O224 O 0.45494 0.92986 0.38958 0.0
O225 O 0.40877 0.88552 0.42668 0.0
C226 C 0.41025 0.98252 0.25656 0.0
O227 O 0.39563 0.9273 0.36795 0.0
C228 C 0.41818 0.87865 0.25516 0.0
C229 C 0.49111 0.89725 0.26743 0.0
O230 O 0.39811 0.95704 0.25027 0.0
O231 O 0.43584 0.97954 0.28455 0.0
O232 O 0.41427 0.90253 0.22198 0.0
O233 O 0.43059 0.88649 0.30689 0.0
O234 O 0.47581 0.9218 0.25496 0.0
O235 O 0.48381 0.87875 0.31409 0.0
C236 C 0.4715 0.83325 0.43985 0.0
O237 O 0.48742 0.8565 0.43297 0.0
O238 O 0.44441 0.83825 0.42277 0.0
C239 C 0.46918 0.93451 0.44193 0.0
Tb240 Tb 0.17988 0.32713 0.51481 0.0
C241 C 0.15036 0.26707 0.56282 0.0
Tb242 Tb 0.13624 0.30192 0.43785 0.0
O243 O 0.15077 0.36243 0.54549 0.0
O244 O 0.13376 0.32088 0.5317 0.0
O245 O 0.17344 0.28508 0.56856 0.0
C246 C 0.08557 0.2931 0.37622 0.0
O247 O 0.13047 0.27149 0.51729 0.0
C248 C 0.18912 0.2842 0.40057 0.0
C249 C 0.15596 0.3658 0.40237 0.0
O250 O 0.10714 0.27461 0.37991 0.0
O251 O 0.09352 0.31688 0.40538 0.0
O252 O 0.16554 0.26837 0.39997 0.0
O253 O 0.1819 0.30991 0.41837 0.0
O254 O 0.13625 0.34502 0.39336 0.0
O255 O 0.17811 0.36207 0.44303 0.0
C256 C 0.23038 0.34463 0.56925 0.0
O257 O 0.20428 0.35143 0.5889 0.0
O258 O 0.22809 0.32659 0.52098 0.0
C259 C 0.12674 0.34716 0.54508 0.0
Tb260 Tb 0.9319 0.93238 0.27528 0.0
C261 C 0.99029 0.89721 0.30975 0.0
Tb262 Tb 0.95343 0.88224 0.18188 0.0
O263 O 0.90936 0.90461 0.34759 0.0
O264 O 0.93074 0.88688 0.26928 0.0
O265 O 0.9742 0.92116 0.32174 0.0
C266 C 0.9657 0.83047 0.1358 0.0
O267 O 0.98464 0.87863 0.26182 0.0
C268 C 0.968 0.93463 0.13526 0.0
C269 C 0.88948 0.90613 0.16485 0.0
O270 O 0.98477 0.8513 0.14388 0.0
O271 O 0.93958 0.83893 0.15262 0.0
O272 O 0.97305 0.90997 0.10599 0.0
O273 O 0.95434 0.92828 0.18648 0.0
O274 O 0.90847 0.88519 0.15007 0.0
O275 O 0.89568 0.92836 0.20467 0.0
C276 C 0.92041 0.98731 0.30918 0.0
O277 O 0.90122 0.96633 0.30598 0.0
O278 O 0.9464 0.97715 0.29565 0.0
C279 C 0.91536 0.8801 0.31768 0.0
Tb280 Tb 0.32701 0.67917 1.02064 0.0
C281 C 0.35685 0.7389 0.06232 0.0
Tb282 Tb 0.37438 0.70256 0.93772 0.0
O283 O 0.35546 0.67443 0.10405 0.0
O284 O 0.37292 0.6693 1.01104 0.0
O285 O 0.33288 0.72224 0.06858 0.0
C286 C 0.42569 0.71954 0.89767 0.0
O287 O 0.37634 0.73393 1.01652 0.0
C288 C 0.32356 0.7225 0.89087 0.0
C289 C 0.35323 0.63929 0.90823 0.0
O290 O 0.41816 0.71723 0.95764 0.0
O291 O 0.4045 0.71177 0.85924 0.0
O292 O 0.34906 0.72882 0.86734 0.0
O293 O 0.32802 0.70626 0.9393 0.0
O294 O 0.37478 0.65833 0.89992 0.0
O295 O 0.33059 0.64498 0.9464 0.0
C296 C 0.27662 0.65445 0.05379 0.0
O297 O 0.30159 0.64102 0.04989 0.0
O298 O 0.28009 0.68226 0.04235 0.0
C299 C 0.37937 0.67067 0.07081 0.0
Tb300 Tb 0.57729 0.07503 0.76917 0.0
C301 C 0.51704 0.10539 0.81538 0.0
Tb302 Tb 0.54937 0.1236 0.68762 0.0
O303 O 0.6034 0.10201 0.83833 0.0
O304 O 0.57794 0.12068 0.76714 0.0
O305 O 0.53494 0.08209 0.82193 0.0
C306 C 0.5301 0.17249 0.64148 0.0
O307 O 0.51993 0.12439 0.76786 0.0
C308 C 0.52965 0.07309 0.64153 0.0
C309 C 0.61598 0.10988 0.66634 0.0
O310 O 0.5296 0.16574 0.70215 0.0
O311 O 0.54252 0.15251 0.60646 0.0
O312 O 0.52247 0.09871 0.62057 0.0
O313 O 0.54756 0.07659 0.68858 0.0
O314 O 0.59404 0.12824 0.65629 0.0
O315 O 0.61372 0.08614 0.70327 0.0
C316 C 0.59771 0.02118 0.79014 0.0
O317 O 0.59889 0.03505 0.73573 0.0
O318 O 0.58433 0.03737 0.83282 0.0
C319 C 0.59488 0.12696 0.81381 0.0
H320 H 0.47597 0.20015 0.15722 0.0
H321 H 0.43361 0.2748 0.24418 0.0
H322 H 0.48129 0.29947 0.25718 0.0
H323 H 0.53395 0.3017 0.22893 0.0
H324 H 0.57456 0.22728 0.13623 0.0
H325 H 0.52872 0.19978 0.14169 0.0
C326 C 0.47757 0.22139 0.18094 0.0
C327 C 0.45225 0.23593 0.20028 0.0
C328 C 0.50455 0.23523 0.187 0.0
C329 C 0.45356 0.26344 0.23025 0.0
C330 C 0.48058 0.27751 0.23701 0.0
C331 C 0.53266 0.27916 0.21203 0.0
C332 C 0.55682 0.2661 0.18243 0.0
C333 C 0.50609 0.26393 0.21365 0.0
C334 C 0.55562 0.23729 0.15912 0.0
C335 C 0.5296 0.22171 0.16206 0.0
H336 H 0.54532 0.72292 0.38182 0.0
H337 H 0.48431 0.68324 0.51402 0.0
H338 H 0.45875 0.73052 0.52722 0.0
H339 H 0.45424 0.78318 0.49813 0.0
H340 H 0.51744 0.8208 0.36694 0.0
H341 H 0.54155 0.77377 0.3545 0.0
C342 C 0.52663 0.72486 0.41415 0.0
C343 C 0.51652 0.70057 0.44755 0.0
C344 C 0.51248 0.75141 0.42085 0.0
C345 C 0.49244 0.70249 0.48922 0.0
C346 C 0.47777 0.72919 0.49599 0.0
C347 C 0.47343 0.78076 0.46758 0.0
C348 C 0.48484 0.8049 0.43498 0.0
C349 C 0.48762 0.75379 0.46173 0.0
C350 C 0.50915 0.80222 0.394 0.0
C351 C 0.52282 0.7755 0.38657 0.0
H352 H 0.05404 0.74548 0.62767 0.0
H353 H 0.04098 0.81006 0.77722 0.0
H354 H 0.99083 0.79124 0.79535 0.0
H355 H 0.95175 0.7553 0.76811 0.0
H356 H 0.96792 0.69022 0.62063 0.0
H357 H 0.01654 0.71045 0.60162 0.0
C358 C 0.04027 0.75525 0.66471 0.0
C359 C 0.05074 0.77834 0.70237 0.0
C360 C 0.0125 0.74413 0.67515 0.0
C361 C 0.03283 0.7919 0.74842 0.0
C362 C 0.00451 0.7811 0.75883 0.0
C363 C 0.96646 0.74525 0.73334 0.0
C364 C 0.95721 0.72095 0.69731 0.0
C365 C 0.99437 0.75689 0.72298 0.0
C366 C 0.97546 0.70826 0.65061 0.0
C367 C 1.00291 0.72005 0.639 0.0
H368 H 0.96162 0.28543 0.87209 0.0
H369 H 0.02762 0.32031 1.00065 0.0
H370 H 0.04777 0.27075 1.01782 0.0
H371 H 0.0474 0.21792 0.98991 0.0
H372 H 0.97841 0.1843 0.8662 0.0
H373 H 0.9583 0.23324 0.85288 0.0
C374 C 0.98014 0.28188 0.90458 0.0
C375 C 0.99342 0.30551 0.93536 0.0
C376 C 0.99088 0.25387 0.91468 0.0
C377 C 0.01727 0.30164 0.97735 0.0
C378 C 0.02874 0.2736 0.98672 0.0
C379 C 0.02764 0.22151 0.96137 0.0
C380 C 0.01404 0.19806 0.9297 0.0
C381 C 0.01584 0.24959 0.95495 0.0
C382 C 0.9887 0.20232 0.89201 0.0
C383 C 0.97734 0.23018 0.88391 0.0
H384 H 0.53161 0.79424 0.80008 0.0
H385 H 0.56662 0.76272 0.98114 0.0
H386 H 0.52148 0.73596 1.00239 0.0
H387 H 0.47386 0.71974 0.9672 0.0
H388 H 0.43649 0.7508 0.78829 0.0
H389 H 0.4812 0.77952 0.76709 0.0
C390 C 0.52883 0.78176 0.84419 0.0
C391 C 0.55174 0.77975 0.88878 0.0
C392 C 0.50302 0.76613 0.85561 0.0
C393 C 0.54873 0.76399 0.94637 0.0
C394 C 0.52322 0.74867 0.95835 0.0
C395 C 0.4757 0.73262 0.92329 0.0
C396 C 0.45279 0.73314 0.87866 0.0
C397 C 0.50063 0.74911 0.91263 0.0
C398 C 0.45472 0.74981 0.82211 0.0
C399 C 0.47989 0.76642 0.8106 0.0
H400 H 0.45631 0.28298 0.58518 0.0
H401 H 0.53548 0.32285 0.66137 0.0
H402 H 0.55953 0.27546 0.66586 0.0
H403 H 0.55675 0.2227 0.65618 0.0
H404 H 0.4787 0.18153 0.58037 0.0
H405 H 0.45531 0.22969 0.56566 0.0
C406 C 0.47903 0.28114 0.60103 0.0
C407 C 0.49438 0.30586 0.62211 0.0
C408 C 0.49283 0.25391 0.60298 0.0
C409 C 0.5236 0.3038 0.64374 0.0
C410 C 0.53732 0.27683 0.64673 0.0
C411 C 0.53503 0.22464 0.63437 0.0
C412 C 0.51929 0.19969 0.61783 0.0
C413 C 0.52203 0.25184 0.62715 0.0
C414 C 0.49099 0.2013 0.5915 0.0
C415 C 0.47766 0.22855 0.58393 0.0
H416 H 0.96976 0.24095 0.47693 0.0
H417 H 0.95262 0.22769 0.274 0.0
H418 H 1.00093 0.24901 0.24782 0.0
H419 H 0.04741 0.27283 0.28521 0.0
H420 H 0.05978 0.28871 0.48915 0.0
H421 H 0.01325 0.26517 0.51299 0.0
C422 C 0.97652 0.24278 0.42684 0.0
C423 C 0.95806 0.23333 0.37725 0.0
C424 C 1.0031 0.25576 0.41271 0.0
C425 C 0.96698 0.23504 0.31267 0.0
C426 C 0.99428 0.24735 0.29787 0.0
C427 C 0.03938 0.2714 0.33434 0.0
C428 C 0.05613 0.28259 0.38539 0.0
C429 C 0.01234 0.25818 0.34768 0.0
C430 C 0.04644 0.28059 0.44937 0.0
C431 C 0.02018 0.26695 0.46309 0.0
H432 H 0.98758 0.69713 0.15283 0.0
H433 H 0.07341 0.72292 0.08505 0.0
H434 H 0.05656 0.7741 0.07658 0.0
H435 H 0.01741 0.81075 0.09228 0.0
H436 H 0.93288 0.7834 0.16535 0.0
H437 H 0.94949 0.73267 0.16855 0.0
C438 C 1.00251 0.71383 0.13503 0.0
C439 C 0.03129 0.70669 0.11797 0.0
C440 C 0.99295 0.74251 0.13162 0.0
C441 C 0.0509 0.72837 0.09726 0.0
C442 C 0.04134 0.75737 0.09267 0.0
C443 C 1.00256 0.79346 0.10741 0.0
C444 C 0.97394 0.8002 0.12716 0.0
C445 C 0.01236 0.76457 0.10985 0.0
C446 C 0.95478 0.77821 0.14821 0.0
C447 C 0.96431 0.74941 0.15069 0.0
H448 H 0.17011 0.09022 0.88277 0.0
H449 H 0.1223 0.13239 0.03657 0.0
H450 H 0.16818 0.15145 0.08192 0.0
H451 H 0.22153 0.15992 0.07213 0.0
H452 H 0.26923 0.11839 0.91736 0.0
H453 H 0.22394 0.09562 0.87777 0.0
C454 C 0.16988 0.10294 0.92712 0.0
C455 C 0.14293 0.10985 0.95638 0.0
C456 C 0.1963 0.11452 0.95194 0.0
C457 C 0.14284 0.12681 1.01318 0.0
C458 C 0.16903 0.13788 0.03892 0.0
C459 C 0.22193 0.14577 1.02993 0.0
C460 C 0.2485 0.14102 0.99722 0.0
C461 C 0.1958 0.13259 1.00766 0.0
C462 C 0.24892 0.12243 0.94309 0.0
C463 C 0.22306 0.10936 0.92049 0.0
H464 H 0.65928 0.41703 0.12338 0.0
H465 H 0.63819 0.37281 0.30084 0.0
H466 H 0.61879 0.41863 0.3461 0.0
H467 H 0.60435 0.47073 0.33133 0.0
H468 H 0.62531 0.51414 0.15269 0.0
H469 H 0.64722 0.46908 0.11062 0.0
C470 C 0.65123 0.4177 0.17262 0.0
C471 C 0.65057 0.3919 0.2093 0.0
C472 C 0.63914 0.44375 0.19714 0.0
C473 C 0.63921 0.39267 0.27224 0.0
C474 C 0.62782 0.41873 0.29776 0.0
C475 C 0.61367 0.47009 0.28321 0.0
C476 C 0.61313 0.49538 0.24464 0.0
C477 C 0.62693 0.44424 0.25997 0.0
C478 C 0.62558 0.49473 0.18287 0.0
C479 C 0.6382 0.46908 0.15898 0.0
H480 H 0.3716 0.86917 0.50455 0.0
H481 H 0.33915 0.93381 0.36952 0.0
H482 H 0.28852 0.92009 0.39553 0.0
H483 H 0.25375 0.88644 0.44906 0.0
H484 H 0.28705 0.81986 0.57792 0.0
H485 H 0.33725 0.83754 0.56152 0.0
C486 C 0.35353 0.8806 0.48117 0.0
C487 C 0.35927 0.90237 0.43466 0.0
C488 C 0.32465 0.87187 0.49449 0.0
C489 C 0.33545 0.91706 0.40563 0.0
C490 C 0.30648 0.90902 0.42001 0.0
C491 C 0.27207 0.87586 0.47341 0.0
C492 C 0.26696 0.85158 0.51362 0.0
C493 C 0.30088 0.88588 0.46294 0.0
C494 C 0.29066 0.83818 0.54563 0.0
C495 C 0.31927 0.84841 0.53662 0.0
H496 H 0.84309 0.60456 0.77228 0.0
H497 H 0.88508 0.60574 0.58624 0.0
H498 H 0.90735 0.55794 0.60708 0.0
H499 H 0.91478 0.51548 0.67774 0.0
H500 H 0.87311 0.51352 0.8641 0.0
H501 H 0.8501 0.56119 0.84321 0.0
C502 C 0.85661 0.5939 0.73612 0.0
C503 C 0.86183 0.60798 0.67717 0.0
C504 C 0.86924 0.56619 0.74829 0.0
C505 C 0.88008 0.59464 0.63112 0.0
C506 C 0.89299 0.56747 0.64315 0.0
C507 C 0.90058 0.52552 0.71351 0.0
C508 C 0.89562 0.51122 0.77215 0.0
C509 C 0.88765 0.55296 0.70138 0.0
C510 C 0.87739 0.5244 0.81863 0.0
C511 C 0.86418 0.55159 0.8067 0.0
H512 H 0.75474 0.87751 0.14083 0.0
H513 H 0.78659 0.82439 0.98334 0.0
H514 H 0.83609 0.84453 0.99831 0.0
H515 H 0.87085 0.87429 0.06161 0.0
H516 H 0.83919 0.9265 0.22099 0.0
H517 H 0.78896 0.91 0.19925 0.0
C518 C 0.77258 0.87033 0.10996 0.0
C519 C 0.76731 0.84904 0.06214 0.0
C520 C 0.80092 0.88195 0.11896 0.0
C521 C 0.79037 0.84023 1.02158 0.0
C522 C 0.81858 0.8519 1.02981 0.0
C523 C 0.85288 0.88251 0.09086 0.0
C524 C 0.85878 0.90166 0.14278 0.0
C525 C 0.82419 0.87238 0.07907 0.0
C526 C 0.83525 0.91212 0.18014 0.0
C527 C 0.80656 0.90238 0.16826 0.0
H528 H 0.38734 0.62046 0.80879 0.0
H529 H 0.33052 0.58971 0.96079 0.0
H530 H 0.34514 0.53924 0.93895 0.0
H531 H 0.37632 0.50405 0.88148 0.0
H532 H 0.4331 0.53417 0.72918 0.0
H533 H 0.41604 0.58461 0.74574 0.0
C534 C 0.37776 0.60263 0.83622 0.0
C535 C 0.35777 0.60883 0.88601 0.0
C536 C 0.38647 0.57359 0.82382 0.0
C537 C 0.34558 0.58554 0.92141 0.0
C538 C 0.35417 0.55666 0.90948 0.0
C539 C 0.38493 0.5217 0.852 0.0
C540 C 0.40627 0.51566 0.80513 0.0
C541 C 0.37499 0.55049 0.86167 0.0
C542 C 0.41706 0.53852 0.76654 0.0
C543 C 0.4072 0.56729 0.77572 0.0
H544 H 0.65857 0.08361 0.5921 0.0
H545 H 0.63782 0.16178 0.70048 0.0
H546 H 0.68418 0.18414 0.66897 0.0
H547 H 0.73082 0.18165 0.61161 0.0
H548 H 0.75298 0.10395 0.50337 0.0
H549 H 0.70585 0.08152 0.53207 0.0
C550 C 0.66451 0.10537 0.60899 0.0
C551 C 0.64511 0.12105 0.64866 0.0
C552 C 0.69124 0.11834 0.59005 0.0
C553 C 0.65259 0.14941 0.66976 0.0
C554 C 0.67901 0.16225 0.65172 0.0
C555 C 0.72521 0.15987 0.59421 0.0
C556 C 0.74519 0.14434 0.55616 0.0
C557 C 0.69847 0.14699 0.61184 0.0
C558 C 0.73785 0.11615 0.53353 0.0
C559 C 0.71098 0.10331 0.54996 0.0
H560 H 0.10671 0.38404 0.33948 0.0
H561 H 0.19223 0.41389 0.40326 0.0
H562 H 0.17926 0.46418 0.37354 0.0
H563 H 0.14199 0.50022 0.33876 0.0
H564 H 0.05601 0.47036 0.27903 0.0
H565 H 0.07076 0.41944 0.29824 0.0
C566 C 0.12278 0.4014 0.34594 0.0
C567 C 0.15041 0.39514 0.3739 0.0
C568 C 0.11486 0.43035 0.3306 0.0
C569 C 0.17081 0.41804 0.382 0.0
C570 C 0.16333 0.44685 0.36539 0.0
C571 C 0.12651 0.48252 0.32997 0.0
C572 C 0.09779 0.48897 0.30866 0.0
C573 C 0.13513 0.45336 0.34142 0.0
C574 C 0.07808 0.46591 0.29643 0.0
C575 C 0.08656 0.43682 0.30714 0.0
H576 H 0.67049 0.58168 0.41568 0.0
H577 H 0.62357 0.65393 0.50385 0.0
H578 H 0.66928 0.67572 0.53865 0.0
H579 H 0.72288 0.67718 0.53714 0.0
H580 H 0.77114 0.60507 0.45421 0.0
H581 H 0.72499 0.58027 0.42617 0.0
C582 C 0.67026 0.60184 0.44357 0.0
C583 C 0.6434 0.61618 0.45566 0.0
C584 C 0.69701 0.61464 0.4642 0.0
C585 C 0.6437 0.64229 0.49258 0.0
C586 C 0.66996 0.65504 0.51268 0.0
C587 C 0.72326 0.65606 0.51282 0.0
C588 C 0.75022 0.64341 0.49588 0.0
C589 C 0.69675 0.6419 0.49721 0.0
C590 C 0.7505 0.61564 0.46606 0.0
C591 C 0.72413 0.60138 0.4503 0.0
H592 H 0.10068 0.97224 0.81696 0.0
H593 H 0.12762 0.01717 0.64409 0.0
H594 H 0.15147 0.97238 0.60482 0.0
H595 H 0.16165 0.91929 0.61654 0.0
H596 H 0.13277 0.87458 0.78825 0.0
H597 H 0.11317 0.92035 0.8315 0.0
C598 C 0.11179 0.97219 0.7707 0.0
C599 C 0.11213 0.99775 0.733 0.0
C600 C 0.12535 0.94641 0.74849 0.0
C601 C 0.12676 0.99754 0.67346 0.0
C602 C 0.14054 0.97201 0.6512 0.0
C603 C 0.15189 0.91985 0.66422 0.0
C604 C 0.1489 0.8937 0.69942 0.0
C605 C 0.13974 0.94618 0.688 0.0
C606 C 0.13551 0.89452 0.76049 0.0
C607 C 0.12405 0.92062 0.78503 0.0
H608 H 0.78664 0.32819 1.03284 0.0
H609 H 0.74246 0.40779 0.97572 0.0
H610 H 0.78972 0.42975 0.94571 0.0
H611 H 0.84336 0.42438 0.92724 0.0
H612 H 0.88631 0.344 0.98601 0.0
H613 H 0.83993 0.32451 1.02377 0.0
C614 C 0.78738 0.35037 1.01389 0.0
C615 C 0.76121 0.36614 1.00507 0.0
C616 C 0.81445 0.36271 0.99673 0.0
C617 C 0.76242 0.39504 0.98169 0.0
C618 C 0.78941 0.40761 0.96472 0.0
C619 C 0.84262 0.40281 0.94921 0.0
C620 C 0.86837 0.38568 0.95295 0.0
C621 C 0.81557 0.3914 0.97074 0.0
C622 C 0.86695 0.35776 0.98189 0.0
C623 C 0.84034 0.34642 1.00348 0.0
H624 H 0.42561 0.03779 0.29257 0.0
H625 H 0.36042 0.98887 0.18569 0.0
H626 H 0.33523 0.03434 0.15615 0.0
H627 H 0.33442 0.0886 0.15261 0.0
H628 H 0.39854 0.13677 0.26526 0.0
H629 H 0.42095 0.09131 0.30081 0.0
C630 C 0.40597 0.03718 0.26261 0.0
C631 C 0.39538 0.01023 0.23968 0.0
C632 C 0.39126 0.06336 0.24677 0.0
C633 C 0.36937 0.00954 0.20265 0.0
C634 C 0.35485 0.03551 0.18599 0.0
C635 C 0.35284 0.08914 0.18605 0.0
C636 C 0.36501 0.11622 0.20488 0.0
C637 C 0.36591 0.06267 0.20671 0.0
C638 C 0.38883 0.11636 0.24882 0.0
C639 C 0.40189 0.09029 0.2692 0.0
H640 H 0.28441 0.33951 0.51649 0.0
H641 H 0.23681 0.38391 0.66738 0.0
H642 H 0.2818 0.4092 0.70157 0.0
H643 H 0.3359 0.41524 0.69413 0.0
H644 H 0.38223 0.3716 0.53967 0.0
H645 H 0.33667 0.34991 0.50114 0.0
C646 C 0.28396 0.35462 0.55706 0.0
C647 C 0.25764 0.35926 0.59061 0.0
C648 C 0.30973 0.36938 0.57571 0.0
C649 C 0.25709 0.37948 0.6419 0.0
C650 C 0.28275 0.3941 0.66114 0.0
C651 C 0.33584 0.40169 0.65102 0.0
C652 C 0.36255 0.39476 0.62057 0.0
C653 C 0.30937 0.38887 0.62907 0.0
C654 C 0.36206 0.37705 0.5647 0.0
C655 C 0.33601 0.36443 0.54266 0.0
H656 H 0.91136 0.1215 0.37183 0.0
H657 H 0.81856 0.10113 0.37072 0.0
H658 H 0.82969 0.05063 0.33798 0.0
H659 H 0.86622 0.01146 0.31917 0.0
H660 H 0.95881 0.03226 0.32464 0.0
H661 H 0.94729 0.08366 0.34702 0.0
C662 C 0.89342 0.10623 0.36364 0.0
C663 C 0.86414 0.11502 0.37413 0.0
C664 C 0.90002 0.07724 0.34684 0.0
C665 C 0.84128 0.09483 0.36338 0.0
C666 C 0.84765 0.06597 0.34495 0.0
C667 C 0.88381 0.02732 0.32534 0.0
C668 C 0.91332 0.01822 0.32146 0.0
C669 C 0.87699 0.05676 0.33834 0.0
C670 C 0.93597 0.03885 0.32826 0.0
C671 C 0.92939 0.06818 0.34082 0.0
H672 H 0.16382 0.57612 0.09699 0.0
H673 H 0.13763 0.65531 0.19599 0.0
H674 H 0.1833 0.67913 0.1669 0.0
H675 H 0.23061 0.67804 0.11379 0.0
H676 H 0.26049 0.5988 1.02153 0.0
H677 H 0.21359 0.57453 0.04603 0.0
C678 C 0.1686 0.59828 0.11305 0.0
C679 C 0.14768 0.61395 0.14876 0.0
C680 C 0.19534 0.61199 0.09661 0.0
C681 C 0.15365 0.64288 0.16857 0.0
C682 C 0.17963 0.65662 0.15173 0.0
C683 C 0.22676 0.65546 0.09923 0.0
C684 C 0.24861 0.64003 0.06674 0.0
C685 C 0.20053 0.6415 0.11562 0.0
C686 C 0.24374 0.61082 0.04766 0.0
C687 C 0.21704 0.59699 0.06162 0.0
H688 H 0.58933 0.9867 0.89329 0.0
H689 H 0.63767 0.99225 0.71527 0.0
H690 H 0.66236 0.94562 0.7393 0.0
H691 H 0.669 0.90224 0.81105 0.0
H692 H 0.62064 0.89841 0.98924 0.0
H693 H 0.59673 0.94498 0.96481 0.0
C694 C 0.60528 0.97767 0.85986 0.0
C695 C 0.61167 0.99265 0.80281 0.0
C696 C 0.61941 0.95116 0.87418 0.0
C697 C 0.63225 0.9808 0.75944 0.0
C698 C 0.64647 0.95426 0.77328 0.0
C699 C 0.65395 0.91225 0.84511 0.0
C700 C 0.64728 0.89775 0.90292 0.0
C701 C 0.64025 0.93921 0.83069 0.0
C702 C 0.62683 0.90999 0.94572 0.0
C703 C 0.61291 0.93638 0.93145 0.0
H704 H 0.4181 0.12696 1.03171 0.0
H705 H 0.40134 0.20043 0.90557 0.0
H706 H 0.44232 0.18608 0.83756 0.0
H707 H 0.48032 0.15208 0.80933 0.0
H708 H 0.49929 0.07681 0.92881 0.0
H709 H 0.45991 0.09219 1.00342 0.0
C710 C 0.42395 0.14007 0.99009 0.0
C711 C 0.4068 0.16513 0.97416 0.0
C712 C 0.44748 0.13103 0.94926 0.0
C713 C 0.41424 0.1814 0.91927 0.0
C714 C 0.43759 0.17304 0.87999 0.0
C715 C 0.47622 0.13864 0.85149 0.0
C716 C 0.49297 0.1129 0.86247 0.0
C717 C 0.45391 0.14768 0.89371 0.0
C718 C 0.48678 0.09647 0.91826 0.0
C719 C 0.46427 0.10542 0.96115 0.0
H720 H 0.58865 0.64636 0.14665 0.0
H721 H 0.62019 0.67602 0.3316 0.0
H722 H 0.6412 0.72022 0.28068 0.0
H723 H 0.65184 0.74996 0.18026 0.0
H724 H 0.61838 0.71782 0.99776 0.0
H725 H 0.59707 0.67564 0.05066 0.0
C726 C 0.59954 0.66284 0.17615 0.0
C727 C 0.60223 0.65817 0.24293 0.0
C728 C 0.61174 0.68777 0.14648 0.0
C729 C 0.61695 0.67948 0.28032 0.0
C730 C 0.62938 0.70455 0.2509 0.0
C731 C 0.64031 0.73346 0.15216 0.0
C732 C 0.63723 0.73717 0.08452 0.0
C733 C 0.62732 0.70881 0.18351 0.0
C734 C 0.62147 0.71573 0.04947 0.0
C735 C 0.60903 0.69149 0.07975 0.0
H736 H 0.99795 0.87209 0.42989 0.0
H737 H 0.04463 0.90729 0.26679 0.0
H738 H 0.09145 0.89208 0.31426 0.0
H739 H 0.11919 0.86787 0.39949 0.0
H740 H 0.07451 0.83118 0.56355 0.0
H741 H 0.02695 0.84787 0.519 0.0
C742 C 0.01851 0.87703 0.40589 0.0
C743 C 0.01799 0.8917 0.34581 0.0
C744 C 0.04562 0.86765 0.43329 0.0
C745 C 0.0446 0.89688 0.31381 0.0
C746 C 0.07135 0.88792 0.34067 0.0
C747 C 0.09909 0.86347 0.42579 0.0
C748 C 0.10049 0.84818 0.48473 0.0
C749 C 0.07212 0.87314 0.39998 0.0
C750 C 0.07412 0.84277 0.51798 0.0
C751 C 0.04694 0.85241 0.49249 0.0
H752 H 0.87133 0.29533 0.54496 0.0
H753 H 0.85767 0.23273 0.69735 0.0
H754 H 0.87507 0.26881 0.7773 0.0
H755 H 0.89447 0.31901 0.80395 0.0
H756 H 0.90584 0.38131 0.64981 0.0
H757 H 0.88902 0.34494 0.57105 0.0
C758 C 0.87166 0.28973 0.59586 0.0
C759 C 0.86257 0.26149 0.61522 0.0
C760 C 0.8816 0.31065 0.64138 0.0
C761 C 0.86365 0.25453 0.68127 0.0
C762 C 0.87398 0.2751 0.72692 0.0
C763 C 0.89354 0.32439 0.75301 0.0
C764 C 0.90189 0.35277 0.73256 0.0
C765 C 0.88314 0.3033 0.70764 0.0
C766 C 0.89999 0.35958 0.66658 0.0
C767 C 0.89019 0.3388 0.62153 0.0
H768 H 0.61477 0.84633 0.187 0.0
H769 H 0.57863 0.85224 0.99512 0.0
H770 H 0.53293 0.87338 0.03918 0.0
H771 H 0.50307 0.89083 0.1351 0.0
H772 H 0.54171 0.88315 0.32506 0.0
H773 H 0.58617 0.86238 0.27921 0.0
C774 C 0.59685 0.85203 0.15456 0.0
C775 C 0.6002 0.84736 0.08782 0.0
C776 C 0.57099 0.8644 0.18022 0.0
C777 C 0.57659 0.85493 0.04679 0.0
C778 C 0.55053 0.86741 0.0721 0.0
C779 C 0.52157 0.88534 0.16601 0.0
C780 C 0.51919 0.88952 0.23368 0.0
C781 C 0.54749 0.87259 0.13903 0.0
C782 C 0.54303 0.88097 0.27301 0.0
C783 C 0.56849 0.86878 0.24686 0.0
H784 H 0.36187 0.35956 0.85066 0.0
H785 H 0.45051 0.32871 0.82257 0.0
H786 H 0.43859 0.28307 0.87975 0.0
H787 H 0.40392 0.25387 0.9458 0.0
H788 H 0.3141 0.28264 0.96624 0.0
H789 H 0.32522 0.3269 0.90319 0.0
C790 C 0.3784 0.34255 0.85593 0.0
C791 C 0.40712 0.3476 0.83239 0.0
C792 C 0.37111 0.31605 0.8877 0.0
C793 C 0.42826 0.32534 0.83952 0.0
C794 C 0.42145 0.29931 0.87271 0.0
C795 C 0.38658 0.26955 0.93533 0.0
C796 C 0.3581 0.2649 0.9609 0.0
C797 C 0.3931 0.29468 0.8981 0.0
C798 C 0.336 0.28545 0.94683 0.0
C799 C 0.34249 0.31089 0.91116 0.0
H800 H 0.00991 0.14126 0.66377 0.0
H801 H 0.96624 0.07131 0.76474 0.0
H802 H 0.91975 0.0838 0.71094 0.0
H803 H 0.89084 0.11641 0.64023 0.0
H804 H 0.93414 0.18534 0.53501 0.0
H805 H 0.98145 0.17135 0.58426 0.0
C806 C 0.99037 0.1282 0.67222 0.0
C807 C 0.99171 0.10472 0.71669 0.0
C808 C 0.96361 0.13559 0.64081 0.0
C809 C 0.96602 0.08869 0.7291 0.0
C810 C 0.93935 0.09613 0.69891 0.0
C811 C 0.91066 0.12827 0.62756 0.0
C812 C 0.90879 0.15215 0.5843 0.0
C813 C 0.93778 0.11977 0.6554 0.0
C814 C 0.93482 0.16702 0.56816 0.0
C815 C 0.96189 0.15899 0.5965 0.0
H816 H 0.13183 0.75732 0.38916 0.0
H817 H 0.15181 0.71226 0.56683 0.0
H818 H 0.13485 0.66607 0.52032 0.0
H819 H 0.113 0.63838 0.43173 0.0
H820 H 0.09115 0.68147 0.25304 0.0
H821 H 0.11019 0.72817 0.29656 0.0
C822 C 0.13329 0.73717 0.41671 0.0
C823 C 0.14416 0.7381 0.4809 0.0
C824 C 0.12274 0.71035 0.38972 0.0
C825 C 0.14455 0.71201 0.5169 0.0
C826 C 0.13451 0.6856 0.49053 0.0
C827 C 0.11232 0.65795 0.40203 0.0
C828 C 0.10044 0.65627 0.33919 0.0
C829 C 0.1233 0.68452 0.4274 0.0
C830 C 0.09985 0.68202 0.30172 0.0
C831 C 0.11093 0.70875 0.32664 0.0
H832 H 0.89842 0.66886 0.38712 0.0
H833 H 0.9297 0.64811 0.57822 0.0
H834 H 0.9739 0.62502 0.53184 0.0
H835 H 1.00405 0.61093 0.43409 0.0
H836 H 0.96883 0.6312 0.24533 0.0
H837 H 0.92595 0.6537 0.29351 0.0
C838 C 0.91484 0.6593 0.41896 0.0
C839 C 0.9107 0.6604 0.48603 0.0
C840 C 0.93954 0.64551 0.39202 0.0
C841 C 0.93238 0.64787 0.52631 0.0
C842 C 0.95758 0.63443 0.49969 0.0
C843 C 0.98657 0.61956 0.40382 0.0
C844 C 0.98965 0.61895 0.3359 0.0
C845 C 0.96139 0.63289 0.43221 0.0
C846 C 0.96706 0.63105 0.29752 0.0
C847 C 0.9425 0.64418 0.325 0.0
H848 H 0.11418 0.18733 0.80307 0.0
H849 H 0.09781 0.12537 0.64969 0.0
H850 H 0.11371 0.16136 0.56974 0.0
H851 H 0.13232 0.21073 0.54226 0.0
H852 H 0.15124 0.2725 0.69437 0.0
H853 H 0.13406 0.23704 0.77509 0.0
C854 C 0.11368 0.18196 0.75205 0.0
C855 C 0.10416 0.15376 0.73232 0.0
C856 C 0.12356 0.20283 0.70588 0.0
C857 C 0.1044 0.14701 0.66608 0.0
C858 C 0.11371 0.16757 0.62028 0.0
C859 C 0.13315 0.21623 0.59323 0.0
C860 C 0.14376 0.24408 0.61226 0.0
C861 C 0.12348 0.19552 0.63944 0.0
C862 C 0.14412 0.25097 0.67845 0.0
C863 C 0.13394 0.23074 0.72462 0.0
H864 H 0.50627 0.40059 0.93648 0.0
H865 H 0.53784 0.37575 0.74764 0.0
H866 H 0.5814 0.35413 0.79486 0.0
H867 H 0.61073 0.34063 0.88794 0.0
H868 H 0.583 0.36544 0.07882 0.0
H869 H 0.53855 0.38873 1.0332 0.0
C870 C 0.5231 0.39122 0.9058 0.0
C871 C 0.51852 0.39016 0.83816 0.0
C872 C 0.5489 0.37841 0.93366 0.0
C873 C 0.54051 0.37716 0.79961 0.0
C874 C 0.56557 0.36452 0.82655 0.0
C875 C 0.59501 0.35111 0.91982 0.0
C876 C 0.60023 0.351 0.98666 0.0
C877 C 0.56989 0.36467 0.8933 0.0
C878 C 0.57947 0.3648 1.02707 0.0
C879 C 0.55407 0.37832 1.00087 0.0
H880 H 0.40925 0.76721 0.07742 0.0
H881 H 0.32117 0.76492 0.15421 0.0
H882 H 0.33346 0.80588 0.22683 0.0
H883 H 0.36839 0.84522 0.26216 0.0
H884 H 0.45614 0.84632 0.18458 0.0
H885 H 0.44494 0.8029 0.11901 0.0
C886 C 0.39255 0.77554 0.1099 0.0
C887 C 0.36397 0.76314 0.10907 0.0
C888 C 0.39988 0.7989 0.15177 0.0
C889 C 0.34314 0.7741 0.15291 0.0
C890 C 0.35022 0.79755 0.19459 0.0
C891 C 0.38526 0.83533 0.2323 0.0
C892 C 0.41332 0.8486 0.22919 0.0
C893 C 0.37841 0.81046 0.19382 0.0
C894 C 0.4347 0.83611 0.18897 0.0
C895 C 0.42815 0.81147 0.15091 0.0
H896 H 0.07077 0.36771 0.51838 0.0
H897 H 0.13002 0.34607 0.67427 0.0
H898 H 0.09478 0.36494 0.75278 0.0
H899 H 0.04761 0.38784 0.77783 0.0
H900 H 0.9867 0.40932 0.62508 0.0
H901 H 0.02191 0.39072 0.54479 0.0
C902 C 0.07563 0.36681 0.56964 0.0
C903 C 0.10286 0.35513 0.59072 0.0
C904 C 0.05517 0.37818 0.61493 0.0
C905 C 0.10911 0.35452 0.65709 0.0
C906 C 0.08904 0.36555 0.70193 0.0
C907 C 0.04216 0.389 0.72682 0.0
C908 C 0.01472 0.40073 0.70755 0.0
C909 C 0.06219 0.37768 0.68147 0.0
C910 C 0.00797 0.40144 0.64127 0.0
C911 C 0.02797 0.39031 0.59543 0.0
H912 H 0.94262 0.83548 0.38058 0.0
H913 H 0.85917 0.86075 0.29936 0.0
H914 H 0.83544 0.81816 0.34991 0.0
H915 H 0.8376 0.77609 0.42812 0.0
H916 H 0.92232 0.75316 0.50942 0.0
H917 H 0.94568 0.79177 0.44912 0.0
C918 C 0.91941 0.83117 0.37253 0.0
C919 C 0.90282 0.851 0.33548 0.0
C920 C 0.90574 0.80713 0.40343 0.0
C921 C 0.87255 0.84555 0.32697 0.0
C922 C 0.8589 0.82129 0.35645 0.0
C923 C 0.86115 0.77936 0.43207 0.0
C924 C 0.87769 0.76173 0.47509 0.0
C925 C 0.87507 0.80227 0.3966 0.0
C926 C 0.90843 0.76648 0.47852 0.0
C927 C 0.92215 0.78866 0.44349 0.0
H928 H 0.42323 0.62938 0.0379 0.0
H929 H 0.39889 0.69482 0.17904 0.0
H930 H 0.43955 0.68011 0.24791 0.0
H931 H 0.47945 0.64778 0.27239 0.0
H932 H 0.50717 0.58132 0.13683 0.0
H933 H 0.4679 0.59724 0.06177 0.0
C934 C 0.42732 0.64072 0.0831 0.0
C935 C 0.40787 0.66335 0.10324 0.0
C936 C 0.45101 0.63165 0.12405 0.0
C937 C 0.41333 0.67745 0.16236 0.0
C938 C 0.43657 0.66894 0.20206 0.0
C939 C 0.47728 0.63634 0.22665 0.0
C940 C 0.49633 0.61274 0.21144 0.0
C941 C 0.45508 0.64575 0.18416 0.0
C942 C 0.49274 0.59911 0.15085 0.0
C943 C 0.47028 0.6084 0.10773 0.0
H944 H 0.60416 0.25243 0.94711 0.0
H945 H 0.69389 0.22472 0.97593 0.0
H946 H 0.68364 0.179 0.91672 0.0
H947 H 0.64792 0.14526 0.86259 0.0
H948 H 0.55959 0.17531 0.82522 0.0
H949 H 0.5704 0.22161 0.88124 0.0
C950 C 0.62164 0.2366 0.93943 0.0
C951 C 0.64987 0.24212 0.96596 0.0
C952 C 0.61567 0.21061 0.90406 0.0
C953 C 0.67216 0.22131 0.95553 0.0
C954 C 0.66617 0.19502 0.92204 0.0
C955 C 0.63117 0.16214 0.86598 0.0
C956 C 0.60284 0.15666 0.83989 0.0
C957 C 0.63787 0.18918 0.8969 0.0
C958 C 0.58153 0.17891 0.8443 0.0
C959 C 0.5877 0.20537 0.87676 0.0
H960 H 0.27171 0.25809 0.15902 0.0
H961 H 0.31901 0.20941 0.30429 0.0
H962 H 0.28297 0.2236 0.38557 0.0
H963 H 0.2383 0.25086 0.41732 0.0
H964 H 0.19124 0.30106 0.27462 0.0
H965 H 0.22621 0.28542 0.19122 0.0
C966 C 0.27355 0.24995 0.20803 0.0
C967 C 0.29763 0.23189 0.22497 0.0
C968 C 0.25293 0.25899 0.25562 0.0
C969 C 0.3003 0.22259 0.28946 0.0
C970 C 0.27984 0.23099 0.33631 0.0
C971 C 0.23603 0.25871 0.36814 0.0
C972 C 0.21264 0.27772 0.35258 0.0
C973 C 0.25624 0.24949 0.32035 0.0
C974 C 0.20955 0.28711 0.28823 0.0
C975 C 0.2294 0.27788 0.24034 0.0
H976 H 0.48485 0.55768 0.49726 0.0
H977 H 0.56696 0.51849 0.43922 0.0
H978 H 0.55448 0.47382 0.49987 0.0
H979 H 0.51978 0.44586 0.56837 0.0
H980 H 0.43778 0.4853 0.6262 0.0
H981 H 0.4506 0.53012 0.56681 0.0
C982 C 0.49991 0.53919 0.49713 0.0
C983 C 0.52661 0.54122 0.46249 0.0
C984 C 0.49264 0.51385 0.53268 0.0
C985 C 0.54597 0.51724 0.46363 0.0
C986 C 0.53894 0.49187 0.49906 0.0
C987 C 0.50489 0.46447 0.56876 0.0
C988 C 0.47805 0.46244 0.60292 0.0
C989 C 0.51234 0.48996 0.53376 0.0
C990 C 0.45888 0.48657 0.60231 0.0
C991 C 0.46609 0.51202 0.56746 0.0
H992 H 0.19485 0.74338 0.77942 0.0
H993 H 0.23981 0.8109 0.67309 0.0
H994 H 0.28648 0.7968 0.72475 0.0
H995 H 0.31437 0.76556 0.80207 0.0
H996 H 0.26864 0.69919 0.91057 0.0
H997 H 0.22241 0.71251 0.85642 0.0
C998 C 0.21489 0.75496 0.76714 0.0
C999 C 0.21381 0.77791 0.72128 0.0
C1000 C 0.24148 0.74699 0.79802 0.0
C1001 C 0.24002 0.79269 0.70649 0.0
C1002 C 0.26667 0.7848 0.73677 0.0
C1003 C 0.29422 0.75411 0.81414 0.0
C1004 C 0.29496 0.73152 0.86099 0.0
C1005 C 0.26765 0.76204 0.78283 0.0
C1006 C 0.26869 0.71688 0.8757 0.0
C1007 C 0.24227 0.72441 0.84436 0.0
H1008 H 0.06183 0.5224 0.0842 0.0
H1009 H 0.97907 0.56545 0.11865 0.0
H1010 H 0.95302 0.52715 0.0584 0.0
H1011 H 0.95382 0.48188 0.99081 0.0
H1012 H 0.03681 0.43887 0.95756 0.0
H1013 H 0.06245 0.47637 1.02043 0.0
C1014 C 0.03803 0.52279 0.08027 0.0
C1015 C 0.02235 0.54632 0.10756 0.0
C1016 C 0.02318 0.501 0.04364 0.0
C1017 C 0.99157 0.54713 0.09963 0.0
C1018 C 0.97667 0.52544 0.06425 0.0
C1019 C 0.97754 0.48113 0.99645 0.0
C1020 C 0.99345 0.45797 0.96813 0.0
C1021 C 0.99224 0.50252 1.03469 0.0
C1022 C 0.0241 0.45677 0.97783 0.0
C1023 C 0.03881 0.47808 1.0144 0.0
H1024 H 0.69522 0.74097 0.80257 0.0
H1025 H 0.73922 0.81463 0.89099 0.0
H1026 H 0.7855 0.79998 0.8395 0.0
H1027 H 0.81331 0.7664 0.76805 0.0
H1028 H 0.76887 0.69388 0.67606 0.0
H1029 H 0.72284 0.7078 0.72995 0.0
C1030 C 0.71505 0.75366 0.81117 0.0
C1031 C 0.71392 0.77844 0.85235 0.0
C1032 C 0.74137 0.74539 0.78007 0.0
C1033 C 0.73968 0.79484 0.8621 0.0
C1034 C 0.76604 0.78668 0.83163 0.0
C1035 C 0.79345 0.75378 0.75935 0.0
C1036 C 0.79442 0.72929 0.71739 0.0
C1037 C 0.76712 0.76205 0.79041 0.0
C1038 C 0.76858 0.71312 0.70684 0.0
C1039 C 0.74235 0.72096 0.73822 0.0
H1040 H 0.69492 0.24149 0.27667 0.0
H1041 H 0.74078 0.30397 0.1579 0.0
H1042 H 0.78718 0.29143 0.21184 0.0
H1043 H 0.81475 0.26291 0.29298 0.0
H1044 H 0.76943 0.20049 0.41291 0.0
H1045 H 0.72277 0.21277 0.35856 0.0
C1046 C 0.71511 0.25227 0.26229 0.0
C1047 C 0.71431 0.2735 0.21242 0.0
C1048 C 0.74176 0.245 0.29409 0.0
C1049 C 0.7407 0.28731 0.19497 0.0
C1050 C 0.76724 0.28023 0.22627 0.0
C1051 C 0.79465 0.252 0.30753 0.0
C1052 C 0.79564 0.23085 0.35741 0.0
C1053 C 0.76803 0.25915 0.27589 0.0
C1054 C 0.76934 0.21697 0.3753 0.0
C1055 C 0.74268 0.22395 0.34393 0.0
H1056 H 0.05085 0.03994 0.0516 0.0
H1057 H 0.99142 0.04026 0.88917 0.0
H1058 H 0.96231 1.00114 0.93885 0.0
H1059 H 0.95424 0.96565 1.02753 0.0
H1060 H 0.01333 0.96494 0.1904 0.0
H1061 H 0.0423 0.00461 0.14169 0.0
C1062 C 0.032 0.03079 1.02635 0.0
C1063 C 0.02411 0.04213 0.96514 0.0
C1064 C 0.01508 0.00838 0.0559 0.0
C1065 C 0.99883 0.03098 0.93456 0.0
C1066 C 0.98189 0.0089 0.96357 0.0
C1067 C 0.97296 0.97482 0.05318 0.0
C1068 C 0.98089 0.96309 0.11383 0.0
C1069 C 0.98974 0.9974 1.02423 0.0
C1070 C 0.00592 0.97444 0.14523 0.0
C1071 C 0.02279 0.99682 0.11673 0.0
H1072 H 0.55349 0.02045 0.59666 0.0
H1073 H 0.47214 0.06788 0.61906 0.0
H1074 H 0.4465 0.03245 0.55109 0.0
H1075 H 0.44642 0.98726 0.48449 0.0
H1076 H 0.52722 0.93912 0.46243 0.0
H1077 H 0.55337 0.97488 0.52948 0.0
C1078 C 0.52999 0.02241 0.5884 0.0
C1079 C 0.51466 0.04644 0.61503 0.0
C1080 C 0.51519 1.00203 0.54733 0.0
C1081 C 0.4844 0.04919 0.60101 0.0
C1082 C 0.46968 0.02911 0.56114 0.0
C1083 C 0.46993 0.98525 0.49243 0.0
C1084 C 0.48499 0.96109 0.46603 0.0
C1085 C 0.48482 0.00557 0.53317 0.0
C1086 C 0.51526 0.9581 0.47995 0.0
C1087 C 0.5302 0.97832 0.51939 0.0
loop_
_geom_bond_atom_site_label_1
_geom_bond_atom_site_label_2
_geom_bond_distance
_geom_bond_site_symmetry_2
_ccdc_geom_bond_type
Tb0 O3 2.453 . S
Tb0 O4 2.596 . S
Tb0 O5 2.374 . S
Tb0 O13 2.343 . S
Tb0 O15 2.353 . S
Tb0 O17 2.427 . S
Tb0 O18 2.513 . S
C1 O5 1.251 . S
C1 O7 1.263 . S
Tb2 O4 2.343 . S
Tb2 O7 2.353 . S
Tb2 O10 2.427 . S
Tb2 O11 2.513 . S
Tb2 O12 2.453 1_554 S
Tb2 O13 2.596 . S
Tb2 O14 2.374 1_554 S
O3 Tb0 2.453 . S
O3 C19 1.245 . S
O4 Tb0 2.596 . S
O4 Tb2 2.343 . S
O4 C19 1.259 . S
O5 Tb0 2.374 . S
O5 C1 1.251 . S
C6 O10 1.275 . S
C6 O11 1.246 . S
O7 C1 1.263 . S
O7 Tb2 2.353 . S
C8 O12 1.245 . S
C8 O13 1.259 1_556 S
C9 O14 1.250 . S
C9 O15 1.263 1_556 S
O10 Tb2 2.427 . S
O10 C6 1.275 . S
O11 Tb2 2.513 . S
O11 C6 1.246 . S
O12 Tb2 2.453 1_556 S
O12 C8 1.245 . S
O13 Tb0 2.343 . S
O13 Tb2 2.596 . S
O13 C8 1.259 1_554 S
O14 Tb2 2.374 1_556 S
O14 C9 1.250 . S
O15 Tb0 2.353 . S
O15 C9 1.263 1_554 S
C16 O17 1.275 . S
C16 O18 1.246 . S
O17 Tb0 2.427 . S
O17 C16 1.275 . S
O18 Tb0 2.513 . S
O18 C16 1.246 . S
C19 O3 1.245 . S
C19 O4 1.259 . S
Tb20 O23 2.453 . S
Tb20 O24 2.596 . S
Tb20 O25 2.374 . S
Tb20 O33 2.343 . S
Tb20 O35 2.353 . S
Tb20 O37 2.427 . S
Tb20 O38 2.513 . S
C21 O25 1.251 . S
C21 O27 1.263 . S
Tb22 O24 2.343 . S
Tb22 O27 2.353 . S
Tb22 O30 2.427 . S
Tb22 O31 2.513 . S
Tb22 O32 2.453 . S
Tb22 O33 2.596 . S
Tb22 O34 2.374 . S
O23 Tb20 2.453 . S
O23 C39 1.245 . S
O24 Tb20 2.596 . S
O24 Tb22 2.343 . S
O24 C39 1.259 . S
O25 Tb20 2.374 . S
O25 C21 1.251 . S
C26 O30 1.275 . S
C26 O31 1.246 . S
O27 C21 1.263 . S
O27 Tb22 2.353 . S
C28 O32 1.245 . S
C28 O33 1.259 . S
C29 O34 1.250 . S
C29 O35 1.263 . S
O30 Tb22 2.427 . S
O30 C26 1.275 . S
O31 Tb22 2.513 . S
O31 C26 1.246 . S
O32 Tb22 2.453 . S
O32 C28 1.245 . S
O33 Tb20 2.343 . S
O33 Tb22 2.596 . S
O33 C28 1.259 . S
O34 Tb22 2.374 . S
O34 C29 1.250 . S
O35 Tb20 2.353 . S
O35 C29 1.263 . S
C36 O37 1.275 . S
C36 O38 1.246 . S
O37 Tb20 2.427 . S
O37 C36 1.275 . S
O38 Tb20 2.513 . S
O38 C36 1.246 . S
C39 O23 1.245 . S
C39 O24 1.259 . S
Tb40 O43 2.453 . S
Tb40 O44 2.596 . S
Tb40 O45 2.374 . S
Tb40 O53 2.343 . S
Tb40 O55 2.353 . S
Tb40 O57 2.427 . S
Tb40 O58 2.513 . S
C41 O45 1.251 . S
C41 O47 1.263 . S
Tb42 O44 2.343 . S
Tb42 O47 2.353 . S
Tb42 O50 2.427 . S
Tb42 O51 2.513 . S
Tb42 O52 2.453 . S
Tb42 O53 2.596 . S
Tb42 O54 2.374 . S
O43 Tb40 2.453 . S
O43 C59 1.245 . S
O44 Tb40 2.596 . S
O44 Tb42 2.343 . S
O44 C59 1.259 . S
O45 Tb40 2.374 . S
O45 C41 1.251 . S
C46 O50 1.275 . S
C46 O51 1.246 . S
O47 C41 1.263 . S
O47 Tb42 2.353 . S
C48 O52 1.245 . S
C48 O53 1.259 . S
C49 O54 1.250 . S
C49 O55 1.263 . S
O50 Tb42 2.427 . S
O50 C46 1.275 . S
O51 Tb42 2.513 . S
O51 C46 1.246 . S
O52 Tb42 2.453 . S
O52 C48 1.245 . S
O53 Tb40 2.343 . S
O53 Tb42 2.596 . S
O53 C48 1.259 . S
O54 Tb42 2.374 . S
O54 C49 1.250 . S
O55 Tb40 2.353 . S
O55 C49 1.263 . S
C56 O57 1.275 . S
C56 O58 1.246 . S
O57 Tb40 2.427 . S
O57 C56 1.275 . S
O58 Tb40 2.513 . S
O58 C56 1.246 . S
C59 O43 1.245 . S
C59 O44 1.259 . S
Tb60 O63 2.453 . S
Tb60 O64 2.596 . S
Tb60 O65 2.374 . S
Tb60 O73 2.343 . S
Tb60 O75 2.353 . S
Tb60 O77 2.427 . S
Tb60 O78 2.513 . S
C61 O65 1.251 . S
C61 O67 1.263 . S
Tb62 O64 2.343 . S
Tb62 O67 2.353 . S
Tb62 O70 2.427 . S
Tb62 O71 2.513 . S
Tb62 O72 2.453 . S
Tb62 O73 2.596 . S
Tb62 O74 2.374 . S
O63 Tb60 2.453 . S
O63 C79 1.245 . S
O64 Tb60 2.596 . S
O64 Tb62 2.343 . S
O64 C79 1.259 . S
O65 Tb60 2.374 . S
O65 C61 1.251 . S
C66 O70 1.275 . S
C66 O71 1.246 . S
O67 C61 1.263 . S
O67 Tb62 2.353 . S
C68 O72 1.245 . S
C68 O73 1.259 . S
C69 O74 1.250 . S
C69 O75 1.263 . S
O70 Tb62 2.427 . S
O70 C66 1.275 . S
O71 Tb62 2.513 . S
O71 C66 1.246 . S
O72 Tb62 2.453 . S
O72 C68 1.245 . S
O73 Tb60 2.343 . S
O73 Tb62 2.596 . S
O73 C68 1.259 . S
O74 Tb62 2.374 . S
O74 C69 1.250 . S
O75 Tb60 2.353 . S
O75 C69 1.263 . S
C76 O77 1.275 . S
C76 O78 1.246 . S
O77 Tb60 2.427 . S
O77 C76 1.275 . S
O78 Tb60 2.513 . S
O78 C76 1.246 . S
C79 O63 1.245 . S
C79 O64 1.259 . S
Tb80 O83 2.453 1_556 S
Tb80 O84 2.596 . S
Tb80 O85 2.374 1_556 S
Tb80 O93 2.343 . S
Tb80 O95 2.353 . S
Tb80 O97 2.427 . S
Tb80 O98 2.513 . S
C81 O85 1.251 . S
C81 O87 1.263 1_554 S
Tb82 O84 2.343 . S
Tb82 O87 2.353 . S
Tb82 O90 2.427 . S
Tb82 O91 2.513 . S
Tb82 O92 2.453 . S
Tb82 O93 2.596 . S
Tb82 O94 2.374 . S
O83 Tb80 2.453 1_554 S
O83 C99 1.245 . S
O84 Tb80 2.596 . S
O84 Tb82 2.343 . S
O84 C99 1.259 1_556 S
O85 Tb80 2.374 1_554 S
O85 C81 1.251 . S
C86 O90 1.275 . S
C86 O91 1.246 . S
O87 C81 1.263 1_556 S
O87 Tb82 2.353 . S
C88 O92 1.245 . S
C88 O93 1.259 . S
C89 O94 1.250 . S
C89 O95 1.263 . S
O90 Tb82 2.427 . S
O90 C86 1.275 . S
O91 Tb82 2.513 . S
O91 C86 1.246 . S
O92 Tb82 2.453 . S
O92 C88 1.245 . S
O93 Tb80 2.343 . S
O93 Tb82 2.596 . S
O93 C88 1.259 . S
O94 Tb82 2.374 . S
O94 C89 1.250 . S
O95 Tb80 2.353 . S
O95 C89 1.263 . S
C96 O97 1.275 . S
C96 O98 1.246 . S
O97 Tb80 2.427 . S
O97 C96 1.275 . S
O98 Tb80 2.513 . S
O98 C96 1.246 . S
C99 O83 1.245 . S
C99 O84 1.259 1_554 S
Tb100 O103 2.453 . S
Tb100 O104 2.596 . S
Tb100 O105 2.374 . S
Tb100 O113 2.343 . S
Tb100 O115 2.353 . S
Tb100 O117 2.427 . S
Tb100 O118 2.513 . S
C101 O105 1.251 . S
C101 O107 1.263 . S
Tb102 O104 2.343 . S
Tb102 O107 2.353 . S
Tb102 O110 2.427 . S
Tb102 O111 2.513 . S
Tb102 O112 2.453 . S
Tb102 O113 2.596 . S
Tb102 O114 2.374 . S
O103 Tb100 2.453 . S
O103 C119 1.245 . S
O104 Tb100 2.596 . S
O104 Tb102 2.343 . S
O104 C119 1.259 . S
O105 Tb100 2.374 . S
O105 C101 1.251 . S
C106 O110 1.275 . S
C106 O111 1.246 . S
O107 C101 1.263 . S
O107 Tb102 2.353 . S
C108 O112 1.245 . S
C108 O113 1.259 . S
C109 O114 1.250 . S
C109 O115 1.263 . S
O110 Tb102 2.427 . S
O110 C106 1.275 . S
O111 Tb102 2.513 . S
O111 C106 1.246 . S
O112 Tb102 2.453 . S
O112 C108 1.245 . S
O113 Tb100 2.343 . S
O113 Tb102 2.596 . S
O113 C108 1.259 . S
O114 Tb102 2.374 . S
O114 C109 1.250 . S
O115 Tb100 2.353 . S
O115 C109 1.263 . S
C116 O117 1.275 . S
C116 O118 1.246 . S
O117 Tb100 2.427 . S
O117 C116 1.275 . S
O118 Tb100 2.513 . S
O118 C116 1.246 . S
C119 O103 1.245 . S
C119 O104 1.259 . S
Tb120 O123 2.453 . S
Tb120 O124 2.596 . S
Tb120 O125 2.374 . S
Tb120 O133 2.343 . S
Tb120 O135 2.353 . S
Tb120 O137 2.427 . S
Tb120 O138 2.513 . S
C121 O125 1.251 . S
C121 O127 1.263 . S
Tb122 O124 2.343 . S
Tb122 O127 2.353 . S
Tb122 O130 2.427 . S
Tb122 O131 2.513 . S
Tb122 O132 2.453 . S
Tb122 O133 2.596 . S
Tb122 O134 2.374 . S
O123 Tb120 2.453 . S
O123 C139 1.245 . S
O124 Tb120 2.596 . S
O124 Tb122 2.343 . S
O124 C139 1.259 . S
O125 Tb120 2.374 . S
O125 C121 1.251 . S
C126 O130 1.275 . S
C126 O131 1.246 . S
O127 C121 1.263 . S
O127 Tb122 2.353 . S
C128 O132 1.245 . S
C128 O133 1.259 . S
C129 O134 1.250 . S
C129 O135 1.263 . S
O130 Tb122 2.427 . S
O130 C126 1.275 . S
O131 Tb122 2.513 . S
O131 C126 1.246 . S
O132 Tb122 2.453 . S
O132 C128 1.245 . S
O133 Tb120 2.343 . S
O133 Tb122 2.596 . S
O133 C128 1.259 . S
O134 Tb122 2.374 . S
O134 C129 1.250 . S
O135 Tb120 2.353 . S
O135 C129 1.263 . S
C136 O137 1.275 . S
C136 O138 1.246 . S
O137 Tb120 2.427 . S
O137 C136 1.275 . S
O138 Tb120 2.513 . S
O138 C136 1.246 . S
C139 O123 1.245 . S
C139 O124 1.259 . S
Tb140 O143 2.453 . S
Tb140 O144 2.596 . S
Tb140 O145 2.374 . S
Tb140 O153 2.343 . S
Tb140 O155 2.353 . S
Tb140 O157 2.427 . S
Tb140 O158 2.513 . S
C141 O145 1.251 . S
C141 O147 1.263 . S
Tb142 O144 2.343 . S
Tb142 O147 2.353 . S
Tb142 O150 2.427 . S
Tb142 O151 2.513 . S
Tb142 O152 2.453 . S
Tb142 O153 2.596 . S
Tb142 O154 2.374 . S
O143 Tb140 2.453 . S
O143 C159 1.245 . S
O144 Tb140 2.596 . S
O144 Tb142 2.343 . S
O144 C159 1.259 . S
O145 Tb140 2.374 . S
O145 C141 1.251 . S
C146 O150 1.275 . S
C146 O151 1.246 . S
O147 C141 1.263 . S
O147 Tb142 2.353 . S
C148 O152 1.245 . S
C148 O153 1.259 . S
C149 O154 1.250 . S
C149 O155 1.263 . S
O150 Tb142 2.427 . S
O150 C146 1.275 . S
O151 Tb142 2.513 . S
O151 C146 1.246 . S
O152 Tb142 2.453 . S
O152 C148 1.245 . S
O153 Tb140 2.343 . S
O153 Tb142 2.596 . S
O153 C148 1.259 . S
O154 Tb142 2.374 . S
O154 C149 1.250 . S
O155 Tb140 2.353 . S
O155 C149 1.263 . S
C156 O157 1.275 . S
C156 O158 1.246 . S
O157 Tb140 2.427 . S
O157 C156 1.275 . S
O158 Tb140 2.513 . S
O158 C156 1.246 . S
C159 O143 1.245 . S
C159 O144 1.259 . S
Tb160 O163 2.453 . S
Tb160 O164 2.596 . S
Tb160 O165 2.374 . S
Tb160 O173 2.343 . S
Tb160 O175 2.353 . S
Tb160 O177 2.427 . S
Tb160 O178 2.513 . S
C161 O165 1.251 . S
C161 O167 1.263 . S
Tb162 O164 2.343 . S
Tb162 O167 2.353 . S
Tb162 O170 2.427 . S
Tb162 O171 2.513 . S
Tb162 O172 2.453 . S
Tb162 O173 2.596 . S
Tb162 O174 2.374 . S
O163 Tb160 2.453 . S
O163 C179 1.245 . S
O164 Tb160 2.596 . S
O164 Tb162 2.343 . S
O164 C179 1.259 . S
O165 Tb160 2.374 . S
O165 C161 1.251 . S
C166 O170 1.275 . S
C166 O171 1.246 . S
O167 C161 1.263 . S
O167 Tb162 2.353 . S
C168 O172 1.245 . S
C168 O173 1.259 . S
C169 O174 1.250 . S
C169 O175 1.263 . S
O170 Tb162 2.427 . S
O170 C166 1.275 . S
O171 Tb162 2.513 . S
O171 C166 1.246 . S
O172 Tb162 2.453 . S
O172 C168 1.245 . S
O173 Tb160 2.343 . S
O173 Tb162 2.596 . S
O173 C168 1.259 . S
O174 Tb162 2.374 . S
O174 C169 1.250 . S
O175 Tb160 2.353 . S
O175 C169 1.263 . S
C176 O177 1.275 . S
C176 O178 1.246 . S
O177 Tb160 2.427 . S
O177 C176 1.275 . S
O178 Tb160 2.513 . S
O178 C176 1.246 . S
C179 O163 1.245 . S
C179 O164 1.259 . S
Tb180 O183 2.453 . S
Tb180 O184 2.596 . S
Tb180 O185 2.374 . S
Tb180 O193 2.343 . S
Tb180 O195 2.353 . S
Tb180 O197 2.427 . S
Tb180 O198 2.513 . S
C181 O185 1.251 . S
C181 O187 1.263 . S
Tb182 O184 2.343 . S
Tb182 O187 2.353 . S
Tb182 O190 2.427 . S
Tb182 O191 2.513 . S
Tb182 O192 2.453 . S
Tb182 O193 2.596 . S
Tb182 O194 2.374 . S
O183 Tb180 2.453 . S
O183 C199 1.245 . S
O184 Tb180 2.596 . S
O184 Tb182 2.343 . S
O184 C199 1.259 . S
O185 Tb180 2.374 . S
O185 C181 1.251 . S
C186 O190 1.275 . S
C186 O191 1.246 . S
O187 C181 1.263 . S
O187 Tb182 2.353 . S
C188 O192 1.245 . S
C188 O193 1.259 . S
C189 O194 1.250 . S
C189 O195 1.263 . S
O190 Tb182 2.427 . S
O190 C186 1.275 . S
O191 Tb182 2.513 . S
O191 C186 1.246 . S
O192 Tb182 2.453 . S
O192 C188 1.245 . S
O193 Tb180 2.343 . S
O193 Tb182 2.596 . S
O193 C188 1.259 . S
O194 Tb182 2.374 . S
O194 C189 1.250 . S
O195 Tb180 2.353 . S
O195 C189 1.263 . S
C196 O197 1.275 . S
C196 O198 1.246 . S
O197 Tb180 2.427 . S
O197 C196 1.275 . S
O198 Tb180 2.513 . S
O198 C196 1.246 . S
C199 O183 1.245 . S
C199 O184 1.259 . S
Tb200 O203 2.453 . S
Tb200 O204 2.596 . S
Tb200 O205 2.374 . S
Tb200 O213 2.343 . S
Tb200 O215 2.353 . S
Tb200 O217 2.427 . S
Tb200 O218 2.513 . S
C201 O205 1.251 . S
C201 O207 1.263 . S
Tb202 O204 2.343 . S
Tb202 O207 2.353 . S
Tb202 O210 2.427 . S
Tb202 O211 2.513 . S
Tb202 O212 2.453 1_554 S
Tb202 O213 2.596 . S
Tb202 O214 2.374 1_554 S
O203 Tb200 2.453 . S
O203 C219 1.245 . S
O204 Tb200 2.596 . S
O204 Tb202 2.343 . S
O204 C219 1.259 . S
O205 Tb200 2.374 . S
O205 C201 1.251 . S
C206 O210 1.275 . S
C206 O211 1.246 . S
O207 C201 1.263 . S
O207 Tb202 2.353 . S
C208 O212 1.245 . S
C208 O213 1.259 1_556 S
C209 O214 1.250 . S
C209 O215 1.263 1_556 S
O210 Tb202 2.427 . S
O210 C206 1.275 . S
O211 Tb202 2.513 . S
O211 C206 1.246 . S
O212 Tb202 2.453 1_556 S
O212 C208 1.245 . S
O213 Tb200 2.343 . S
O213 Tb202 2.596 . S
O213 C208 1.259 1_554 S
O214 Tb202 2.374 1_556 S
O214 C209 1.250 . S
O215 Tb200 2.353 . S
O215 C209 1.263 1_554 S
C216 O217 1.275 . S
C216 O218 1.246 . S
O217 Tb200 2.427 . S
O217 C216 1.275 . S
O218 Tb200 2.513 . S
O218 C216 1.246 . S
C219 O203 1.245 . S
C219 O204 1.259 . S
Tb220 O223 2.453 . S
Tb220 O224 2.596 . S
Tb220 O225 2.374 . S
Tb220 O233 2.343 . S
Tb220 O235 2.353 . S
Tb220 O237 2.427 . S
Tb220 O238 2.513 . S
C221 O225 1.251 . S
C221 O227 1.263 . S
Tb222 O224 2.343 . S
Tb222 O227 2.353 . S
Tb222 O230 2.427 . S
Tb222 O231 2.513 . S
Tb222 O232 2.453 . S
Tb222 O233 2.596 . S
Tb222 O234 2.374 . S
O223 Tb220 2.453 . S
O223 C239 1.245 . S
O224 Tb220 2.596 . S
O224 Tb222 2.343 . S
O224 C239 1.259 . S
O225 Tb220 2.374 . S
O225 C221 1.251 . S
C226 O230 1.275 . S
C226 O231 1.246 . S
O227 C221 1.263 . S
O227 Tb222 2.353 . S
C228 O232 1.245 . S
C228 O233 1.259 . S
C229 O234 1.250 . S
C229 O235 1.263 . S
O230 Tb222 2.427 . S
O230 C226 1.275 . S
O231 Tb222 2.513 . S
O231 C226 1.246 . S
O232 Tb222 2.453 . S
O232 C228 1.245 . S
O233 Tb220 2.343 . S
O233 Tb222 2.596 . S
O233 C228 1.259 . S
O234 Tb222 2.374 . S
O234 C229 1.250 . S
O235 Tb220 2.353 . S
O235 C229 1.263 . S
C236 O237 1.275 . S
C236 O238 1.246 . S
O237 Tb220 2.427 . S
O237 C236 1.275 . S
O238 Tb220 2.513 . S
O238 C236 1.246 . S
C239 O223 1.245 . S
C239 O224 1.259 . S
Tb240 O243 2.453 . S
Tb240 O244 2.596 . S
Tb240 O245 2.374 . S
Tb240 O253 2.343 . S
Tb240 O255 2.353 . S
Tb240 O257 2.427 . S
Tb240 O258 2.513 . S
C241 O245 1.251 . S
C241 O247 1.263 . S
Tb242 O244 2.343 . S
Tb242 O247 2.353 . S
Tb242 O250 2.427 . S
Tb242 O251 2.513 . S
Tb242 O252 2.453 . S
Tb242 O253 2.596 . S
Tb242 O254 2.374 . S
O243 Tb240 2.453 . S
O243 C259 1.245 . S
O244 Tb240 2.596 . S
O244 Tb242 2.343 . S
O244 C259 1.259 . S
O245 Tb240 2.374 . S
O245 C241 1.251 . S
C246 O250 1.275 . S
C246 O251 1.246 . S
O247 C241 1.263 . S
O247 Tb242 2.353 . S
C248 O252 1.245 . S
C248 O253 1.259 . S
C249 O254 1.250 . S
C249 O255 1.263 . S
O250 Tb242 2.427 . S
O250 C246 1.275 . S
O251 Tb242 2.513 . S
O251 C246 1.246 . S
O252 Tb242 2.453 . S
O252 C248 1.245 . S
O253 Tb240 2.343 . S
O253 Tb242 2.596 . S
O253 C248 1.259 . S
O254 Tb242 2.374 . S
O254 C249 1.250 . S
O255 Tb240 2.353 . S
O255 C249 1.263 . S
C256 O257 1.275 . S
C256 O258 1.246 . S
O257 Tb240 2.427 . S
O257 C256 1.275 . S
O258 Tb240 2.513 . S
O258 C256 1.246 . S
C259 O243 1.245 . S
C259 O244 1.259 . S
Tb260 O263 2.453 . S
Tb260 O264 2.596 . S
Tb260 O265 2.374 . S
Tb260 O273 2.343 . S
Tb260 O275 2.353 . S
Tb260 O277 2.427 . S
Tb260 O278 2.513 . S
C261 O265 1.251 . S
C261 O267 1.263 . S
Tb262 O264 2.343 . S
Tb262 O267 2.353 . S
Tb262 O270 2.427 . S
Tb262 O271 2.513 . S
Tb262 O272 2.453 . S
Tb262 O273 2.596 . S
Tb262 O274 2.374 . S
O263 Tb260 2.453 . S
O263 C279 1.245 . S
O264 Tb260 2.596 . S
O264 Tb262 2.343 . S
O264 C279 1.259 . S
O265 Tb260 2.374 . S
O265 C261 1.251 . S
C266 O270 1.275 . S
C266 O271 1.246 . S
O267 C261 1.263 . S
O267 Tb262 2.353 . S
C268 O272 1.245 . S
C268 O273 1.259 . S
C269 O274 1.250 . S
C269 O275 1.263 . S
O270 Tb262 2.427 . S
O270 C266 1.275 . S
O271 Tb262 2.513 . S
O271 C266 1.246 . S
O272 Tb262 2.453 . S
O272 C268 1.245 . S
O273 Tb260 2.343 . S
O273 Tb262 2.596 . S
O273 C268 1.259 . S
O274 Tb262 2.374 . S
O274 C269 1.250 . S
O275 Tb260 2.353 . S
O275 C269 1.263 . S
C276 O277 1.275 . S
C276 O278 1.246 . S
O277 Tb260 2.427 . S
O277 C276 1.275 . S
O278 Tb260 2.513 . S
O278 C276 1.246 . S
C279 O263 1.245 . S
C279 O264 1.259 . S
Tb280 O283 2.453 1_556 S
Tb280 O284 2.596 . S
Tb280 O285 2.374 1_556 S
Tb280 O293 2.343 . S
Tb280 O295 2.353 . S
Tb280 O297 2.427 . S
Tb280 O298 2.513 . S
C281 O285 1.251 . S
C281 O287 1.263 1_554 S
Tb282 O284 2.343 . S
Tb282 O287 2.353 . S
Tb282 O290 2.427 . S
Tb282 O291 2.513 . S
Tb282 O292 2.453 . S
Tb282 O293 2.596 . S
Tb282 O294 2.374 . S
O283 Tb280 2.453 1_554 S
O283 C299 1.245 . S
O284 Tb280 2.596 . S
O284 Tb282 2.343 . S
O284 C299 1.259 1_556 S
O285 Tb280 2.374 1_554 S
O285 C281 1.251 . S
C286 O290 1.275 . S
C286 O291 1.246 . S
O287 C281 1.263 1_556 S
O287 Tb282 2.353 . S
C288 O292 1.245 . S
C288 O293 1.259 . S
C289 O294 1.250 . S
C289 O295 1.263 . S
O290 Tb282 2.427 . S
O290 C286 1.275 . S
O291 Tb282 2.513 . S
O291 C286 1.246 . S
O292 Tb282 2.453 . S
O292 C288 1.245 . S
O293 Tb280 2.343 . S
O293 Tb282 2.596 . S
O293 C288 1.259 . S
O294 Tb282 2.374 . S
O294 C289 1.250 . S
O295 Tb280 2.353 . S
O295 C289 1.263 . S
C296 O297 1.275 . S
C296 O298 1.246 . S
O297 Tb280 2.427 . S
O297 C296 1.275 . S
O298 Tb280 2.513 . S
O298 C296 1.246 . S
C299 O283 1.245 . S
C299 O284 1.259 1_554 S
Tb300 O303 2.453 . S
Tb300 O304 2.596 . S
Tb300 O305 2.374 . S
Tb300 O313 2.343 . S
Tb300 O315 2.353 . S
Tb300 O317 2.427 . S
Tb300 O318 2.513 . S
C301 O305 1.251 . S
C301 O307 1.263 . S
Tb302 O304 2.343 . S
Tb302 O307 2.353 . S
Tb302 O310 2.427 . S
Tb302 O311 2.513 . S
Tb302 O312 2.453 . S
Tb302 O313 2.596 . S
Tb302 O314 2.374 . S
O303 Tb300 2.453 . S
O303 C319 1.245 . S
O304 Tb300 2.596 . S
O304 Tb302 2.343 . S
O304 C319 1.259 . S
O305 Tb300 2.374 . S
O305 C301 1.251 . S
C306 O310 1.275 . S
C306 O311 1.246 . S
O307 C301 1.263 . S
O307 Tb302 2.353 . S
C308 O312 1.245 . S
C308 O313 1.259 . S
C309 O314 1.250 . S
C309 O315 1.263 . S
O310 Tb302 2.427 . S
O310 C306 1.275 . S
O311 Tb302 2.513 . S
O311 C306 1.246 . S
O312 Tb302 2.453 . S
O312 C308 1.245 . S
O313 Tb300 2.343 . S
O313 Tb302 2.596 . S
O313 C308 1.259 . S
O314 Tb302 2.374 . S
O314 C309 1.250 . S
O315 Tb300 2.353 . S
O315 C309 1.263 . S
C316 O317 1.275 . S
C316 O318 1.246 . S
O317 Tb300 2.427 . S
O317 C316 1.275 . S
O318 Tb300 2.513 . S
O318 C316 1.246 . S
C319 O303 1.245 . S
C319 O304 1.259 . S
H320 C326 0.930 . S
H321 C329 0.930 . S
H322 C330 0.930 . S
H323 C331 0.930 . S
H324 C334 0.930 . S
H325 C335 0.930 . S
C326 H320 0.930 . S
C326 C327 1.355 . S
C326 C328 1.415 . S
C327 C326 1.355 . S
C327 C329 1.419 . S
C328 C326 1.415 . S
C328 C333 1.425 . S
C328 C335 1.409 . S
C329 H321 0.930 . S
C329 C327 1.419 . S
C329 C330 1.362 . S
C330 H322 0.930 . S
C330 C329 1.362 . S
C330 C333 1.409 . S
C331 H323 0.930 . S
C331 C332 1.355 . S
C331 C333 1.415 . S
C332 C331 1.355 . S
C332 C334 1.419 . S
C333 C328 1.425 . S
C333 C330 1.409 . S
C333 C331 1.415 . S
C334 H324 0.930 . S
C334 C332 1.419 . S
C334 C335 1.362 . S
C335 H325 0.930 . S
C335 C328 1.409 . S
C335 C334 1.362 . S
H336 C342 0.930 . S
H337 C345 0.930 . S
H338 C346 0.930 . S
H339 C347 0.930 . S
H340 C350 0.930 . S
H341 C351 0.930 . S
C342 H336 0.930 . S
C342 C343 1.355 . S
C342 C344 1.415 . S
C343 C342 1.355 . S
C343 C345 1.419 . S
C344 C342 1.415 . S
C344 C349 1.425 . S
C344 C351 1.409 . S
C345 H337 0.930 . S
C345 C343 1.419 . S
C345 C346 1.362 . S
C346 H338 0.930 . S
C346 C345 1.362 . S
C346 C349 1.409 . S
C347 H339 0.930 . S
C347 C348 1.355 . S
C347 C349 1.415 . S
C348 C347 1.355 . S
C348 C350 1.419 . S
C349 C344 1.425 . S
C349 C346 1.409 . S
C349 C347 1.415 . S
C350 H340 0.930 . S
C350 C348 1.419 . S
C350 C351 1.362 . S
C351 H341 0.930 . S
C351 C344 1.409 . S
C351 C350 1.362 . S
H352 C358 0.930 . S
H353 C361 0.930 . S
H354 C362 0.930 1_655 S
H355 C363 0.930 . S
H356 C366 0.930 . S
H357 C367 0.930 1_455 S
C358 H352 0.930 . S
C358 C359 1.355 . S
C358 C360 1.415 . S
C359 C358 1.355 . S
C359 C361 1.419 . S
C360 C358 1.415 . S
C360 C365 1.425 1_455 S
C360 C367 1.409 1_455 S
C361 H353 0.930 . S
C361 C359 1.419 . S
C361 C362 1.362 . S
C362 H354 0.930 1_455 S
C362 C361 1.362 . S
C362 C365 1.409 1_455 S
C363 H355 0.930 . S
C363 C364 1.355 . S
C363 C365 1.415 . S
C364 C363 1.355 . S
C364 C366 1.419 . S
C365 C360 1.425 1_655 S
C365 C362 1.409 1_655 S
C365 C363 1.415 . S
C366 H356 0.930 . S
C366 C364 1.419 . S
C366 C367 1.362 . S
C367 H357 0.930 1_655 S
C367 C360 1.409 1_655 S
C367 C366 1.362 . S
H368 C374 0.930 . S
H369 C377 0.930 . S
H370 C378 0.930 . S
H371 C379 0.930 . S
H372 C382 0.930 . S
H373 C383 0.930 . S
C374 H368 0.930 . S
C374 C375 1.355 . S
C374 C376 1.415 . S
C375 C374 1.355 . S
C375 C377 1.419 . S
C376 C374 1.415 . S
C376 C381 1.425 1_655 S
C376 C383 1.409 . S
C377 H369 0.930 . S
C377 C375 1.419 . S
C377 C378 1.362 1_655 S
C378 H370 0.930 . S
C378 C377 1.362 1_455 S
C378 C381 1.409 . S
C379 H371 0.930 . S
C379 C380 1.355 . S
C379 C381 1.415 . S
C380 C379 1.355 . S
C380 C382 1.419 . S
C381 C376 1.425 1_455 S
C381 C378 1.409 . S
C381 C379 1.415 . S
C382 H372 0.930 . S
C382 C380 1.419 . S
C382 C383 1.362 1_455 S
C383 H373 0.930 . S
C383 C376 1.409 . S
C383 C382 1.362 1_655 S
H384 C390 0.930 . S
H385 C393 0.930 . S
H386 C394 0.930 . S
H387 C395 0.930 . S
H388 C398 0.930 . S
H389 C399 0.930 . S
C390 H384 0.930 . S
C390 C391 1.355 . S
C390 C392 1.415 . S
C391 C390 1.355 . S
C391 C393 1.419 . S
C392 C390 1.415 . S
C392 C397 1.425 . S
C392 C399 1.409 . S
C393 H385 0.930 . S
C393 C391 1.419 . S
C393 C394 1.362 . S
C394 H386 0.930 . S
C394 C393 1.362 . S
C394 C397 1.409 . S
C395 H387 0.930 . S
C395 C396 1.355 . S
C395 C397 1.415 . S
C396 C395 1.355 . S
C396 C398 1.419 . S
C397 C392 1.425 . S
C397 C394 1.409 . S
C397 C395 1.415 . S
C398 H388 0.930 . S
C398 C396 1.419 . S
C398 C399 1.362 . S
C399 H389 0.930 . S
C399 C392 1.409 . S
C399 C398 1.362 . S
H400 C406 0.930 . S
H401 C409 0.930 . S
H402 C410 0.930 . S
H403 C411 0.930 . S
H404 C414 0.930 . S
H405 C415 0.930 . S
C406 H400 0.930 . S
C406 C407 1.355 . S
C406 C408 1.415 . S
C407 C406 1.355 . S
C407 C409 1.419 . S
C408 C406 1.415 . S
C408 C413 1.425 . S
C408 C415 1.409 . S
C409 H401 0.930 . S
C409 C407 1.419 . S
C409 C410 1.362 . S
C410 H402 0.930 . S
C410 C409 1.362 . S
C410 C413 1.409 . S
C411 H403 0.930 . S
C411 C412 1.355 . S
C411 C413 1.415 . S
C412 C411 1.355 . S
C412 C414 1.419 . S
C413 C408 1.425 . S
C413 C410 1.409 . S
C413 C411 1.415 . S
C414 H404 0.930 . S
C414 C412 1.419 . S
C414 C415 1.362 . S
C415 H405 0.930 . S
C415 C408 1.409 . S
C415 C414 1.362 . S
H416 C422 0.930 . S
H417 C425 0.930 . S
H418 C426 0.930 . S
H419 C427 0.930 . S
H420 C430 0.930 . S
H421 C431 0.930 . S
C422 H416 0.930 . S
C422 C423 1.355 . S
C422 C424 1.416 1_655 S
C423 C422 1.355 . S
C423 C425 1.419 . S
C424 C422 1.416 1_455 S
C424 C429 1.425 1_455 S
C424 C431 1.408 . S
C425 H417 0.930 . S
C425 C423 1.419 . S
C425 C426 1.362 . S
C426 H418 0.930 . S
C426 C425 1.362 . S
C426 C429 1.408 . S
C427 H419 0.930 . S
C427 C428 1.355 . S
C427 C429 1.416 1_455 S
C428 C427 1.355 . S
C428 C430 1.419 . S
C429 C424 1.425 1_655 S
C429 C426 1.408 . S
C429 C427 1.416 1_655 S
C430 H420 0.930 . S
C430 C428 1.419 . S
C430 C431 1.362 . S
C431 H421 0.930 . S
C431 C424 1.408 . S
C431 C430 1.362 . S
H432 C438 0.930 . S
H433 C441 0.930 . S
H434 C442 0.930 . S
H435 C443 0.930 . S
H436 C446 0.930 . S
H437 C447 0.930 . S
C438 H432 0.930 . S
C438 C439 1.355 . S
C438 C440 1.415 1_455 S
C439 C438 1.355 . S
C439 C441 1.419 . S
C440 C438 1.415 1_655 S
C440 C445 1.425 1_655 S
C440 C447 1.409 . S
C441 H433 0.930 . S
C441 C439 1.419 . S
C441 C442 1.362 . S
C442 H434 0.930 . S
C442 C441 1.362 . S
C442 C445 1.409 . S
C443 H435 0.930 . S
C443 C444 1.355 . S
C443 C445 1.415 1_655 S
C444 C443 1.355 . S
C444 C446 1.419 . S
C445 C440 1.425 1_455 S
C445 C442 1.409 . S
C445 C443 1.415 1_455 S
C446 H436 0.930 . S
C446 C444 1.419 . S
C446 C447 1.362 . S
C447 H437 0.930 . S
C447 C440 1.409 . S
C447 C446 1.362 . S
H448 C454 0.930 . S
H449 C457 0.930 1_554 S
H450 C458 0.930 . S
H451 C459 0.930 . S
H452 C462 0.930 . S
H453 C463 0.930 . S
C454 H448 0.930 . S
C454 C455 1.355 . S
C454 C456 1.415 . S
C455 C454 1.355 . S
C455 C457 1.419 . S
C456 C454 1.415 . S
C456 C461 1.425 1_556 S
C456 C463 1.409 . S
C457 H449 0.930 1_556 S
C457 C455 1.419 . S
C457 C458 1.362 1_556 S
C458 H450 0.930 . S
C458 C457 1.362 1_554 S
C458 C461 1.409 . S
C459 H451 0.930 . S
C459 C460 1.355 . S
C459 C461 1.415 . S
C460 C459 1.355 . S
C460 C462 1.419 1_554 S
C461 C456 1.425 1_554 S
C461 C458 1.409 . S
C461 C459 1.415 . S
C462 H452 0.930 . S
C462 C460 1.419 1_556 S
C462 C463 1.362 . S
C463 H453 0.930 . S
C463 C456 1.409 . S
C463 C462 1.362 . S
H464 C470 0.930 . S
H465 C473 0.930 . S
H466 C474 0.930 . S
H467 C475 0.930 . S
H468 C478 0.930 . S
H469 C479 0.930 . S
C470 H464 0.930 . S
C470 C471 1.355 . S
C470 C472 1.415 . S
C471 C470 1.355 . S
C471 C473 1.419 . S
C472 C470 1.415 . S
C472 C477 1.425 . S
C472 C479 1.409 . S
C473 H465 0.930 . S
C473 C471 1.419 . S
C473 C474 1.362 . S
C474 H466 0.930 . S
C474 C473 1.362 . S
C474 C477 1.409 . S
C475 H467 0.930 . S
C475 C476 1.355 . S
C475 C477 1.415 . S
C476 C475 1.355 . S
C476 C478 1.419 . S
C477 C472 1.425 . S
C477 C474 1.409 . S
C477 C475 1.415 . S
C478 H468 0.930 . S
C478 C476 1.419 . S
C478 C479 1.362 . S
C479 H469 0.930 . S
C479 C472 1.409 . S
C479 C478 1.362 . S
H480 C486 0.930 . S
H481 C489 0.930 . S
H482 C490 0.930 . S
H483 C491 0.930 . S
H484 C494 0.930 . S
H485 C495 0.930 . S
C486 H480 0.930 . S
C486 C487 1.355 . S
C486 C488 1.415 . S
C487 C486 1.355 . S
C487 C489 1.419 . S
C488 C486 1.415 . S
C488 C493 1.425 . S
C488 C495 1.409 . S
C489 H481 0.930 . S
C489 C487 1.419 . S
C489 C490 1.362 . S
C490 H482 0.930 . S
C490 C489 1.362 . S
C490 C493 1.409 . S
C491 H483 0.930 . S
C491 C492 1.355 . S
C491 C493 1.415 . S
C492 C491 1.355 . S
C492 C494 1.419 . S
C493 C488 1.425 . S
C493 C490 1.409 . S
C493 C491 1.415 . S
C494 H484 0.930 . S
C494 C492 1.419 . S
C494 C495 1.362 . S
C495 H485 0.930 . S
C495 C488 1.409 . S
C495 C494 1.362 . S
H496 C502 0.930 . S
H497 C505 0.930 . S
H498 C506 0.930 . S
H499 C507 0.930 . S
H500 C510 0.930 . S
H501 C511 0.930 . S
C502 H496 0.930 . S
C502 C503 1.355 . S
C502 C504 1.415 . S
C503 C502 1.355 . S
C503 C505 1.419 . S
C504 C502 1.415 . S
C504 C509 1.425 . S
C504 C511 1.409 . S
C505 H497 0.930 . S
C505 C503 1.419 . S
C505 C506 1.362 . S
C506 H498 0.930 . S
C506 C505 1.362 . S
C506 C509 1.409 . S
C507 H499 0.930 . S
C507 C508 1.355 . S
C507 C509 1.415 . S
C508 C507 1.355 . S
C508 C510 1.419 . S
C509 C504 1.425 . S
C509 C506 1.409 . S
C509 C507 1.415 . S
C510 H500 0.930 . S
C510 C508 1.419 . S
C510 C511 1.362 . S
C511 H501 0.930 . S
C511 C504 1.409 . S
C511 C510 1.362 . S
H512 C518 0.930 . S
H513 C521 0.930 . S
H514 C522 0.930 . S
H515 C523 0.930 1_556 S
H516 C526 0.930 . S
H517 C527 0.930 . S
C518 H512 0.930 . S
C518 C519 1.355 1_554 S
C518 C520 1.415 . S
C519 C518 1.355 1_556 S
C519 C521 1.419 . S
C520 C518 1.415 . S
C520 C525 1.425 . S
C520 C527 1.409 . S
C521 H513 0.930 . S
C521 C519 1.419 . S
C521 C522 1.362 . S
C522 H514 0.930 . S
C522 C521 1.362 . S
C522 C525 1.409 1_556 S
C523 H515 0.930 1_554 S
C523 C524 1.355 . S
C523 C525 1.415 . S
C524 C523 1.355 . S
C524 C526 1.419 . S
C525 C520 1.425 . S
C525 C522 1.409 1_554 S
C525 C523 1.415 . S
C526 H516 0.930 . S
C526 C524 1.419 . S
C526 C527 1.362 . S
C527 H517 0.930 . S
C527 C520 1.409 . S
C527 C526 1.362 . S
H528 C534 0.930 . S
H529 C537 0.930 . S
H530 C538 0.930 . S
H531 C539 0.930 . S
H532 C542 0.930 . S
H533 C543 0.930 . S
C534 H528 0.930 . S
C534 C535 1.355 . S
C534 C536 1.415 . S
C535 C534 1.355 . S
C535 C537 1.419 . S
C536 C534 1.415 . S
C536 C541 1.425 . S
C536 C543 1.409 . S
C537 H529 0.930 . S
C537 C535 1.419 . S
C537 C538 1.362 . S
C538 H530 0.930 . S
C538 C537 1.362 . S
C538 C541 1.409 . S
C539 H531 0.930 . S
C539 C540 1.355 . S
C539 C541 1.415 . S
C540 C539 1.355 . S
C540 C542 1.419 . S
C541 C536 1.425 . S
C541 C538 1.409 . S
C541 C539 1.415 . S
C542 H532 0.930 . S
C542 C540 1.419 . S
C542 C543 1.362 . S
C543 H533 0.930 . S
C543 C536 1.409 . S
C543 C542 1.362 . S
H544 C550 0.930 . S
H545 C553 0.930 . S
H546 C554 0.930 . S
H547 C555 0.930 . S
H548 C558 0.930 . S
H549 C559 0.930 . S
C550 H544 0.930 . S
C550 C551 1.355 . S
C550 C552 1.415 . S
C551 C550 1.355 . S
C551 C553 1.419 . S
C552 C550 1.415 . S
C552 C557 1.425 . S
C552 C559 1.409 . S
C553 H545 0.930 . S
C553 C551 1.419 . S
C553 C554 1.362 . S
C554 H546 0.930 . S
C554 C553 1.362 . S
C554 C557 1.409 . S
C555 H547 0.930 . S
C555 C556 1.355 . S
C555 C557 1.415 . S
C556 C555 1.355 . S
C556 C558 1.419 . S
C557 C552 1.425 . S
C557 C554 1.409 . S
C557 C555 1.415 . S
C558 H548 0.930 . S
C558 C556 1.419 . S
C558 C559 1.362 . S
C559 H549 0.930 . S
C559 C552 1.409 . S
C559 C558 1.362 . S
H560 C566 0.930 . S
H561 C569 0.930 . S
H562 C570 0.930 . S
H563 C571 0.930 . S
H564 C574 0.930 . S
H565 C575 0.930 . S
C566 H560 0.930 . S
C566 C567 1.355 . S
C566 C568 1.415 . S
C567 C566 1.355 . S
C567 C569 1.419 . S
C568 C566 1.415 . S
C568 C573 1.425 . S
C568 C575 1.409 . S
C569 H561 0.930 . S
C569 C567 1.419 . S
C569 C570 1.362 . S
C570 H562 0.930 . S
C570 C569 1.362 . S
C570 C573 1.409 . S
C571 H563 0.930 . S
C571 C572 1.355 . S
C571 C573 1.415 . S
C572 C571 1.355 . S
C572 C574 1.419 . S
C573 C568 1.425 . S
C573 C570 1.409 . S
C573 C571 1.415 . S
C574 H564 0.930 . S
C574 C572 1.419 . S
C574 C575 1.362 . S
C575 H565 0.930 . S
C575 C568 1.409 . S
C575 C574 1.362 . S
H576 C582 0.930 . S
H577 C585 0.930 . S
H578 C586 0.930 . S
H579 C587 0.930 . S
H580 C590 0.930 . S
H581 C591 0.930 . S
C582 H576 0.930 . S
C582 C583 1.355 . S
C582 C584 1.415 . S
C583 C582 1.355 . S
C583 C585 1.419 . S
C584 C582 1.415 . S
C584 C589 1.425 . S
C584 C591 1.409 . S
C585 H577 0.930 . S
C585 C583 1.419 . S
C585 C586 1.362 . S
C586 H578 0.930 . S
C586 C585 1.362 . S
C586 C589 1.409 . S
C587 H579 0.930 . S
C587 C588 1.355 . S
C587 C589 1.415 . S
C588 C587 1.355 . S
C588 C590 1.419 . S
C589 C584 1.425 . S
C589 C586 1.409 . S
C589 C587 1.415 . S
C590 H580 0.930 . S
C590 C588 1.419 . S
C590 C591 1.362 . S
C591 H581 0.930 . S
C591 C584 1.409 . S
C591 C590 1.362 . S
H592 C598 0.930 . S
H593 C601 0.930 1_545 S
H594 C602 0.930 . S
H595 C603 0.930 . S
H596 C606 0.930 . S
H597 C607 0.930 . S
C598 H592 0.930 . S
C598 C599 1.355 . S
C598 C600 1.415 . S
C599 C598 1.355 . S
C599 C601 1.419 . S
C600 C598 1.415 . S
C600 C605 1.425 . S
C600 C607 1.409 . S
C601 H593 0.930 1_565 S
C601 C599 1.419 . S
C601 C602 1.362 . S
C602 H594 0.930 . S
C602 C601 1.362 . S
C602 C605 1.409 . S
C603 H595 0.930 . S
C603 C604 1.355 . S
C603 C605 1.415 . S
C604 C603 1.355 . S
C604 C606 1.419 . S
C605 C600 1.425 . S
C605 C602 1.409 . S
C605 C603 1.415 . S
C606 H596 0.930 . S
C606 C604 1.419 . S
C606 C607 1.362 . S
C607 H597 0.930 . S
C607 C600 1.409 . S
C607 C606 1.362 . S
H608 C614 0.930 . S
H609 C617 0.930 . S
H610 C618 0.930 . S
H611 C619 0.930 . S
H612 C622 0.930 . S
H613 C623 0.930 . S
C614 H608 0.930 . S
C614 C615 1.355 . S
C614 C616 1.415 1_554 S
C615 C614 1.355 . S
C615 C617 1.420 . S
C616 C614 1.415 1_556 S
C616 C621 1.425 . S
C616 C623 1.409 . S
C617 H609 0.930 . S
C617 C615 1.420 . S
C617 C618 1.361 1_554 S
C618 H610 0.930 . S
C618 C617 1.361 1_556 S
C618 C621 1.409 . S
C619 H611 0.930 . S
C619 C620 1.355 . S
C619 C621 1.415 . S
C620 C619 1.355 . S
C620 C622 1.419 . S
C621 C616 1.425 . S
C621 C618 1.409 . S
C621 C619 1.415 . S
C622 H612 0.930 . S
C622 C620 1.419 . S
C622 C623 1.362 . S
C623 H613 0.930 . S
C623 C616 1.409 . S
C623 C622 1.362 . S
H624 C630 0.930 . S
H625 C633 0.930 1_565 S
H626 C634 0.930 . S
H627 C635 0.930 . S
H628 C638 0.930 . S
H629 C639 0.930 . S
C630 H624 0.930 . S
C630 C631 1.355 . S
C630 C632 1.415 . S
C631 C630 1.355 . S
C631 C633 1.419 . S
C632 C630 1.415 . S
C632 C637 1.425 . S
C632 C639 1.409 . S
C633 H625 0.930 1_545 S
C633 C631 1.419 . S
C633 C634 1.362 . S
C634 H626 0.930 . S
C634 C633 1.362 . S
C634 C637 1.409 . S
C635 H627 0.930 . S
C635 C636 1.355 . S
C635 C637 1.415 . S
C636 C635 1.355 . S
C636 C638 1.419 . S
C637 C632 1.425 . S
C637 C634 1.409 . S
C637 C635 1.415 . S
C638 H628 0.930 . S
C638 C636 1.419 . S
C638 C639 1.362 . S
C639 H629 0.930 . S
C639 C632 1.409 . S
C639 C638 1.362 . S
H640 C646 0.930 . S
H641 C649 0.930 . S
H642 C650 0.930 . S
H643 C651 0.930 . S
H644 C654 0.930 . S
H645 C655 0.930 . S
C646 H640 0.930 . S
C646 C647 1.355 . S
C646 C648 1.415 . S
C647 C646 1.355 . S
C647 C649 1.419 . S
C648 C646 1.415 . S
C648 C653 1.425 . S
C648 C655 1.409 . S
C649 H641 0.930 . S
C649 C647 1.419 . S
C649 C650 1.362 . S
C650 H642 0.930 . S
C650 C649 1.362 . S
C650 C653 1.409 . S
C651 H643 0.930 . S
C651 C652 1.355 . S
C651 C653 1.415 . S
C652 C651 1.355 . S
C652 C654 1.419 . S
C653 C648 1.425 . S
C653 C650 1.409 . S
C653 C651 1.415 . S
C654 H644 0.930 . S
C654 C652 1.419 . S
C654 C655 1.362 . S
C655 H645 0.930 . S
C655 C648 1.409 . S
C655 C654 1.362 . S
H656 C662 0.930 . S
H657 C665 0.930 . S
H658 C666 0.930 . S
H659 C667 0.930 . S
H660 C670 0.930 . S
H661 C671 0.930 . S
C662 H656 0.930 . S
C662 C663 1.355 . S
C662 C664 1.415 . S
C663 C662 1.355 . S
C663 C665 1.419 . S
C664 C662 1.415 . S
C664 C669 1.425 . S
C664 C671 1.409 . S
C665 H657 0.930 . S
C665 C663 1.419 . S
C665 C666 1.362 . S
C666 H658 0.930 . S
C666 C665 1.362 . S
C666 C669 1.409 . S
C667 H659 0.930 . S
C667 C668 1.355 . S
C667 C669 1.415 . S
C668 C667 1.355 . S
C668 C670 1.419 . S
C669 C664 1.425 . S
C669 C666 1.409 . S
C669 C667 1.415 . S
C670 H660 0.930 . S
C670 C668 1.419 . S
C670 C671 1.362 . S
C671 H661 0.930 . S
C671 C664 1.409 . S
C671 C670 1.362 . S
H672 C678 0.930 . S
H673 C681 0.930 . S
H674 C682 0.930 . S
H675 C683 0.930 . S
H676 C686 0.930 . S
H677 C687 0.930 . S
C678 H672 0.930 . S
C678 C679 1.355 . S
C678 C680 1.415 . S
C679 C678 1.355 . S
C679 C681 1.419 . S
C680 C678 1.415 . S
C680 C685 1.425 . S
C680 C687 1.409 1_554 S
C681 H673 0.930 . S
C681 C679 1.419 . S
C681 C682 1.362 . S
C682 H674 0.930 . S
C682 C681 1.362 . S
C682 C685 1.409 . S
C683 H675 0.930 . S
C683 C684 1.355 1_554 S
C683 C685 1.415 . S
C684 C683 1.355 1_556 S
C684 C686 1.419 . S
C685 C680 1.425 . S
C685 C682 1.409 . S
C685 C683 1.415 . S
C686 H676 0.930 . S
C686 C684 1.419 . S
C686 C687 1.362 . S
C687 H677 0.930 . S
C687 C680 1.409 1_556 S
C687 C686 1.362 . S
H688 C694 0.930 . S
H689 C697 0.930 . S
H690 C698 0.930 . S
H691 C699 0.930 . S
H692 C702 0.930 . S
H693 C703 0.930 . S
C694 H688 0.930 . S
C694 C695 1.355 . S
C694 C696 1.415 . S
C695 C694 1.355 . S
C695 C697 1.419 . S
C696 C694 1.415 . S
C696 C701 1.425 . S
C696 C703 1.409 . S
C697 H689 0.930 . S
C697 C695 1.419 . S
C697 C698 1.362 . S
C698 H690 0.930 . S
C698 C697 1.362 . S
C698 C701 1.409 . S
C699 H691 0.930 . S
C699 C700 1.355 . S
C699 C701 1.415 . S
C700 C699 1.355 . S
C700 C702 1.419 . S
C701 C696 1.425 . S
C701 C698 1.409 . S
C701 C699 1.415 . S
C702 H692 0.930 . S
C702 C700 1.419 . S
C702 C703 1.362 . S
C703 H693 0.930 . S
C703 C696 1.409 . S
C703 C702 1.362 . S
H704 C710 0.930 . S
H705 C713 0.930 . S
H706 C714 0.930 . S
H707 C715 0.930 . S
H708 C718 0.930 . S
H709 C719 0.930 . S
C710 H704 0.930 . S
C710 C711 1.355 . S
C710 C712 1.415 . S
C711 C710 1.355 . S
C711 C713 1.419 . S
C712 C710 1.415 . S
C712 C717 1.425 . S
C712 C719 1.409 . S
C713 H705 0.930 . S
C713 C711 1.419 . S
C713 C714 1.362 . S
C714 H706 0.930 . S
C714 C713 1.362 . S
C714 C717 1.409 . S
C715 H707 0.930 . S
C715 C716 1.355 . S
C715 C717 1.415 . S
C716 C715 1.355 . S
C716 C718 1.419 . S
C717 C712 1.425 . S
C717 C714 1.409 . S
C717 C715 1.415 . S
C718 H708 0.930 . S
C718 C716 1.419 . S
C718 C719 1.362 . S
C719 H709 0.930 . S
C719 C712 1.409 . S
C719 C718 1.362 . S
H720 C726 0.930 . S
H721 C729 0.930 . S
H722 C730 0.930 . S
H723 C731 0.930 . S
H724 C734 0.930 1_556 S
H725 C735 0.930 . S
C726 H720 0.930 . S
C726 C727 1.355 . S
C726 C728 1.415 . S
C727 C726 1.355 . S
C727 C729 1.419 . S
C728 C726 1.415 . S
C728 C733 1.425 . S
C728 C735 1.409 . S
C729 H721 0.930 . S
C729 C727 1.419 . S
C729 C730 1.362 . S
C730 H722 0.930 . S
C730 C729 1.362 . S
C730 C733 1.409 . S
C731 H723 0.930 . S
C731 C732 1.355 . S
C731 C733 1.415 . S
C732 C731 1.355 . S
C732 C734 1.419 . S
C733 C728 1.425 . S
C733 C730 1.409 . S
C733 C731 1.415 . S
C734 H724 0.930 1_554 S
C734 C732 1.419 . S
C734 C735 1.362 . S
C735 H725 0.930 . S
C735 C728 1.409 . S
C735 C734 1.362 . S
H736 C742 0.930 1_655 S
H737 C745 0.930 . S
H738 C746 0.930 . S
H739 C747 0.930 . S
H740 C750 0.930 . S
H741 C751 0.930 . S
C742 H736 0.930 1_455 S
C742 C743 1.355 . S
C742 C744 1.415 . S
C743 C742 1.355 . S
C743 C745 1.419 . S
C744 C742 1.415 . S
C744 C749 1.425 . S
C744 C751 1.409 . S
C745 H737 0.930 . S
C745 C743 1.419 . S
C745 C746 1.362 . S
C746 H738 0.930 . S
C746 C745 1.362 . S
C746 C749 1.409 . S
C747 H739 0.930 . S
C747 C748 1.355 . S
C747 C749 1.415 . S
C748 C747 1.355 . S
C748 C750 1.419 . S
C749 C744 1.425 . S
C749 C746 1.409 . S
C749 C747 1.415 . S
C750 H740 0.930 . S
C750 C748 1.419 . S
C750 C751 1.362 . S
C751 H741 0.930 . S
C751 C744 1.409 . S
C751 C750 1.362 . S
H752 C758 0.930 . S
H753 C761 0.930 . S
H754 C762 0.930 . S
H755 C763 0.930 . S
H756 C766 0.930 . S
H757 C767 0.930 . S
C758 H752 0.930 . S
C758 C759 1.355 . S
C758 C760 1.415 . S
C759 C758 1.355 . S
C759 C761 1.419 . S
C760 C758 1.415 . S
C760 C765 1.425 . S
C760 C767 1.409 . S
C761 H753 0.930 . S
C761 C759 1.419 . S
C761 C762 1.362 . S
C762 H754 0.930 . S
C762 C761 1.362 . S
C762 C765 1.409 . S
C763 H755 0.930 . S
C763 C764 1.355 . S
C763 C765 1.415 . S
C764 C763 1.355 . S
C764 C766 1.419 . S
C765 C760 1.425 . S
C765 C762 1.409 . S
C765 C763 1.415 . S
C766 H756 0.930 . S
C766 C764 1.419 . S
C766 C767 1.362 . S
C767 H757 0.930 . S
C767 C760 1.409 . S
C767 C766 1.362 . S
H768 C774 0.930 . S
H769 C777 0.930 1_556 S
H770 C778 0.930 . S
H771 C779 0.930 . S
H772 C782 0.930 . S
H773 C783 0.930 . S
C774 H768 0.930 . S
C774 C775 1.355 . S
C774 C776 1.415 . S
C775 C774 1.355 . S
C775 C777 1.419 . S
C776 C774 1.415 . S
C776 C781 1.425 . S
C776 C783 1.409 . S
C777 H769 0.930 1_554 S
C777 C775 1.419 . S
C777 C778 1.362 . S
C778 H770 0.930 . S
C778 C777 1.362 . S
C778 C781 1.409 . S
C779 H771 0.930 . S
C779 C780 1.355 . S
C779 C781 1.415 . S
C780 C779 1.355 . S
C780 C782 1.419 . S
C781 C776 1.425 . S
C781 C778 1.409 . S
C781 C779 1.415 . S
C782 H772 0.930 . S
C782 C780 1.419 . S
C782 C783 1.362 . S
C783 H773 0.930 . S
C783 C776 1.409 . S
C783 C782 1.362 . S
H784 C790 0.930 . S
H785 C793 0.930 . S
H786 C794 0.930 . S
H787 C795 0.930 . S
H788 C798 0.930 . S
H789 C799 0.930 . S
C790 H784 0.930 . S
C790 C791 1.355 . S
C790 C792 1.415 . S
C791 C790 1.355 . S
C791 C793 1.419 . S
C792 C790 1.415 . S
C792 C797 1.425 . S
C792 C799 1.409 . S
C793 H785 0.930 . S
C793 C791 1.419 . S
C793 C794 1.362 . S
C794 H786 0.930 . S
C794 C793 1.362 . S
C794 C797 1.409 . S
C795 H787 0.930 . S
C795 C796 1.355 . S
C795 C797 1.415 . S
C796 C795 1.355 . S
C796 C798 1.419 . S
C797 C792 1.425 . S
C797 C794 1.409 . S
C797 C795 1.415 . S
C798 H788 0.930 . S
C798 C796 1.419 . S
C798 C799 1.362 . S
C799 H789 0.930 . S
C799 C792 1.409 . S
C799 C798 1.362 . S
H800 C806 0.930 1_455 S
H801 C809 0.930 . S
H802 C810 0.930 . S
H803 C811 0.930 . S
H804 C814 0.930 . S
H805 C815 0.930 . S
C806 H800 0.930 1_655 S
C806 C807 1.355 . S
C806 C808 1.415 . S
C807 C806 1.355 . S
C807 C809 1.419 . S
C808 C806 1.415 . S
C808 C813 1.425 . S
C808 C815 1.409 . S
C809 H801 0.930 . S
C809 C807 1.419 . S
C809 C810 1.362 . S
C810 H802 0.930 . S
C810 C809 1.362 . S
C810 C813 1.409 . S
C811 H803 0.930 . S
C811 C812 1.355 . S
C811 C813 1.415 . S
C812 C811 1.355 . S
C812 C814 1.419 . S
C813 C808 1.425 . S
C813 C810 1.409 . S
C813 C811 1.415 . S
C814 H804 0.930 . S
C814 C812 1.419 . S
C814 C815 1.362 . S
C815 H805 0.930 . S
C815 C808 1.409 . S
C815 C814 1.362 . S
H816 C822 0.930 . S
H817 C825 0.930 . S
H818 C826 0.930 . S
H819 C827 0.930 . S
H820 C830 0.930 . S
H821 C831 0.930 . S
C822 H816 0.930 . S
C822 C823 1.355 . S
C822 C824 1.415 . S
C823 C822 1.355 . S
C823 C825 1.419 . S
C824 C822 1.415 . S
C824 C829 1.425 . S
C824 C831 1.409 . S
C825 H817 0.930 . S
C825 C823 1.419 . S
C825 C826 1.362 . S
C826 H818 0.930 . S
C826 C825 1.362 . S
C826 C829 1.409 . S
C827 H819 0.930 . S
C827 C828 1.355 . S
C827 C829 1.415 . S
C828 C827 1.355 . S
C828 C830 1.419 . S
C829 C824 1.425 . S
C829 C826 1.409 . S
C829 C827 1.415 . S
C830 H820 0.930 . S
C830 C828 1.419 . S
C830 C831 1.362 . S
C831 H821 0.930 . S
C831 C824 1.409 . S
C831 C830 1.362 . S
H832 C838 0.930 . S
H833 C841 0.930 . S
H834 C842 0.930 . S
H835 C843 0.930 1_455 S
H836 C846 0.930 . S
H837 C847 0.930 . S
C838 H832 0.930 . S
C838 C839 1.355 . S
C838 C840 1.415 . S
C839 C838 1.355 . S
C839 C841 1.419 . S
C840 C838 1.415 . S
C840 C845 1.425 . S
C840 C847 1.409 . S
C841 H833 0.930 . S
C841 C839 1.419 . S
C841 C842 1.362 . S
C842 H834 0.930 . S
C842 C841 1.362 . S
C842 C845 1.409 . S
C843 H835 0.930 1_655 S
C843 C844 1.355 . S
C843 C845 1.415 . S
C844 C843 1.355 . S
C844 C846 1.419 . S
C845 C840 1.425 . S
C845 C842 1.409 . S
C845 C843 1.415 . S
C846 H836 0.930 . S
C846 C844 1.419 . S
C846 C847 1.362 . S
C847 H837 0.930 . S
C847 C840 1.409 . S
C847 C846 1.362 . S
H848 C854 0.930 . S
H849 C857 0.930 . S
H850 C858 0.930 . S
H851 C859 0.930 . S
H852 C862 0.930 . S
H853 C863 0.930 . S
C854 H848 0.930 . S
C854 C855 1.355 . S
C854 C856 1.415 . S
C855 C854 1.355 . S
C855 C857 1.419 . S
C856 C854 1.415 . S
C856 C861 1.425 . S
C856 C863 1.409 . S
C857 H849 0.930 . S
C857 C855 1.419 . S
C857 C858 1.362 . S
C858 H850 0.930 . S
C858 C857 1.362 . S
C858 C861 1.409 . S
C859 H851 0.930 . S
C859 C860 1.355 . S
C859 C861 1.415 . S
C860 C859 1.355 . S
C860 C862 1.419 . S
C861 C856 1.425 . S
C861 C858 1.409 . S
C861 C859 1.415 . S
C862 H852 0.930 . S
C862 C860 1.419 . S
C862 C863 1.362 . S
C863 H853 0.930 . S
C863 C856 1.409 . S
C863 C862 1.362 . S
H864 C870 0.930 . S
H865 C873 0.930 . S
H866 C874 0.930 . S
H867 C875 0.930 . S
H868 C878 0.930 1_554 S
H869 C879 0.930 . S
C870 H864 0.930 . S
C870 C871 1.355 . S
C870 C872 1.415 . S
C871 C870 1.355 . S
C871 C873 1.419 . S
C872 C870 1.415 . S
C872 C877 1.425 . S
C872 C879 1.409 . S
C873 H865 0.930 . S
C873 C871 1.419 . S
C873 C874 1.362 . S
C874 H866 0.930 . S
C874 C873 1.362 . S
C874 C877 1.409 . S
C875 H867 0.930 . S
C875 C876 1.355 . S
C875 C877 1.415 . S
C876 C875 1.355 . S
C876 C878 1.419 . S
C877 C872 1.425 . S
C877 C874 1.409 . S
C877 C875 1.415 . S
C878 H868 0.930 1_556 S
C878 C876 1.419 . S
C878 C879 1.362 . S
C879 H869 0.930 . S
C879 C872 1.409 . S
C879 C878 1.362 . S
H880 C886 0.930 . S
H881 C889 0.930 . S
H882 C890 0.930 . S
H883 C891 0.930 . S
H884 C894 0.930 . S
H885 C895 0.930 . S
C886 H880 0.930 . S
C886 C887 1.355 . S
C886 C888 1.415 . S
C887 C886 1.355 . S
C887 C889 1.419 . S
C888 C886 1.415 . S
C888 C893 1.425 . S
C888 C895 1.409 . S
C889 H881 0.930 . S
C889 C887 1.419 . S
C889 C890 1.362 . S
C890 H882 0.930 . S
C890 C889 1.362 . S
C890 C893 1.409 . S
C891 H883 0.930 . S
C891 C892 1.355 . S
C891 C893 1.415 . S
C892 C891 1.355 . S
C892 C894 1.419 . S
C893 C888 1.425 . S
C893 C890 1.409 . S
C893 C891 1.415 . S
C894 H884 0.930 . S
C894 C892 1.419 . S
C894 C895 1.362 . S
C895 H885 0.930 . S
C895 C888 1.409 . S
C895 C894 1.362 . S
H896 C902 0.930 . S
H897 C905 0.930 . S
H898 C906 0.930 . S
H899 C907 0.930 . S
H900 C910 0.930 . S
H901 C911 0.930 1_655 S
C902 H896 0.930 . S
C902 C903 1.355 . S
C902 C904 1.415 . S
C903 C902 1.355 . S
C903 C905 1.419 . S
C904 C902 1.415 . S
C904 C909 1.425 . S
C904 C911 1.409 . S
C905 H897 0.930 . S
C905 C903 1.419 . S
C905 C906 1.362 . S
C906 H898 0.930 . S
C906 C905 1.362 . S
C906 C909 1.409 . S
C907 H899 0.930 . S
C907 C908 1.355 . S
C907 C909 1.415 . S
C908 C907 1.355 . S
C908 C910 1.419 1_455 S
C909 C904 1.425 . S
C909 C906 1.409 . S
C909 C907 1.415 . S
C910 H900 0.930 . S
C910 C908 1.419 1_655 S
C910 C911 1.362 1_655 S
C911 H901 0.930 1_455 S
C911 C904 1.409 . S
C911 C910 1.362 1_455 S
H912 C918 0.930 . S
H913 C921 0.930 . S
H914 C922 0.930 . S
H915 C923 0.930 . S
H916 C926 0.930 . S
H917 C927 0.930 . S
C918 H912 0.930 . S
C918 C919 1.355 . S
C918 C920 1.415 . S
C919 C918 1.355 . S
C919 C921 1.419 . S
C920 C918 1.415 . S
C920 C925 1.425 . S
C920 C927 1.409 . S
C921 H913 0.930 . S
C921 C919 1.419 . S
C921 C922 1.362 . S
C922 H914 0.930 . S
C922 C921 1.362 . S
C922 C925 1.409 . S
C923 H915 0.930 . S
C923 C924 1.355 . S
C923 C925 1.415 . S
C924 C923 1.355 . S
C924 C926 1.419 . S
C925 C920 1.425 . S
C925 C922 1.409 . S
C925 C923 1.415 . S
C926 H916 0.930 . S
C926 C924 1.419 . S
C926 C927 1.362 . S
C927 H917 0.930 . S
C927 C920 1.409 . S
C927 C926 1.362 . S
H928 C934 0.930 . S
H929 C937 0.930 . S
H930 C938 0.930 . S
H931 C939 0.930 . S
H932 C942 0.930 . S
H933 C943 0.930 . S
C934 H928 0.930 . S
C934 C935 1.355 . S
C934 C936 1.415 . S
C935 C934 1.355 . S
C935 C937 1.419 . S
C936 C934 1.415 . S
C936 C941 1.425 . S
C936 C943 1.409 . S
C937 H929 0.930 . S
C937 C935 1.419 . S
C937 C938 1.362 . S
C938 H930 0.930 . S
C938 C937 1.362 . S
C938 C941 1.409 . S
C939 H931 0.930 . S
C939 C940 1.355 . S
C939 C941 1.415 . S
C940 C939 1.355 . S
C940 C942 1.419 . S
C941 C936 1.425 . S
C941 C938 1.409 . S
C941 C939 1.415 . S
C942 H932 0.930 . S
C942 C940 1.419 . S
C942 C943 1.362 . S
C943 H933 0.930 . S
C943 C936 1.409 . S
C943 C942 1.362 . S
H944 C950 0.930 . S
H945 C953 0.930 . S
H946 C954 0.930 . S
H947 C955 0.930 . S
H948 C958 0.930 . S
H949 C959 0.930 . S
C950 H944 0.930 . S
C950 C951 1.355 . S
C950 C952 1.415 . S
C951 C950 1.355 . S
C951 C953 1.419 . S
C952 C950 1.415 . S
C952 C957 1.425 . S
C952 C959 1.409 . S
C953 H945 0.930 . S
C953 C951 1.419 . S
C953 C954 1.362 . S
C954 H946 0.930 . S
C954 C953 1.362 . S
C954 C957 1.409 . S
C955 H947 0.930 . S
C955 C956 1.355 . S
C955 C957 1.415 . S
C956 C955 1.355 . S
C956 C958 1.419 . S
C957 C952 1.425 . S
C957 C954 1.409 . S
C957 C955 1.415 . S
C958 H948 0.930 . S
C958 C956 1.419 . S
C958 C959 1.362 . S
C959 H949 0.930 . S
C959 C952 1.409 . S
C959 C958 1.362 . S
H960 C966 0.930 . S
H961 C969 0.930 . S
H962 C970 0.930 . S
H963 C971 0.930 . S
H964 C974 0.930 . S
H965 C975 0.930 . S
C966 H960 0.930 . S
C966 C967 1.355 . S
C966 C968 1.415 . S
C967 C966 1.355 . S
C967 C969 1.419 . S
C968 C966 1.415 . S
C968 C973 1.425 . S
C968 C975 1.409 . S
C969 H961 0.930 . S
C969 C967 1.419 . S
C969 C970 1.362 . S
C970 H962 0.930 . S
C970 C969 1.362 . S
C970 C973 1.409 . S
C971 H963 0.930 . S
C971 C972 1.355 . S
C971 C973 1.415 . S
C972 C971 1.355 . S
C972 C974 1.419 . S
C973 C968 1.425 . S
C973 C970 1.409 . S
C973 C971 1.415 . S
C974 H964 0.930 . S
C974 C972 1.419 . S
C974 C975 1.362 . S
C975 H965 0.930 . S
C975 C968 1.409 . S
C975 C974 1.362 . S
H976 C982 0.930 . S
H977 C985 0.930 . S
H978 C986 0.930 . S
H979 C987 0.930 . S
H980 C990 0.930 . S
H981 C991 0.930 . S
C982 H976 0.930 . S
C982 C983 1.355 . S
C982 C984 1.415 . S
C983 C982 1.355 . S
C983 C985 1.419 . S
C984 C982 1.415 . S
C984 C989 1.425 . S
C984 C991 1.409 . S
C985 H977 0.930 . S
C985 C983 1.419 . S
C985 C986 1.362 . S
C986 H978 0.930 . S
C986 C985 1.362 . S
C986 C989 1.409 . S
C987 H979 0.930 . S
C987 C988 1.355 . S
C987 C989 1.415 . S
C988 C987 1.355 . S
C988 C990 1.419 . S
C989 C984 1.425 . S
C989 C986 1.409 . S
C989 C987 1.415 . S
C990 H980 0.930 . S
C990 C988 1.419 . S
C990 C991 1.362 . S
C991 H981 0.930 . S
C991 C984 1.409 . S
C991 C990 1.362 . S
H992 C998 0.930 . S
H993 C1001 0.930 . S
H994 C1002 0.930 . S
H995 C1003 0.930 . S
H996 C1006 0.930 . S
H997 C1007 0.930 . S
C998 H992 0.930 . S
C998 C999 1.355 . S
C998 C1000 1.415 . S
C999 C998 1.355 . S
C999 C1001 1.419 . S
C1000 C998 1.415 . S
C1000 C1005 1.425 . S
C1000 C1007 1.409 . S
C1001 H993 0.930 . S
C1001 C999 1.419 . S
C1001 C1002 1.362 . S
C1002 H994 0.930 . S
C1002 C1001 1.362 . S
C1002 C1005 1.409 . S
C1003 H995 0.930 . S
C1003 C1004 1.355 . S
C1003 C1005 1.415 . S
C1004 C1003 1.355 . S
C1004 C1006 1.419 . S
C1005 C1000 1.425 . S
C1005 C1002 1.409 . S
C1005 C1003 1.415 . S
C1006 H996 0.930 . S
C1006 C1004 1.419 . S
C1006 C1007 1.362 . S
C1007 H997 0.930 . S
C1007 C1000 1.409 . S
C1007 C1006 1.362 . S
H1008 C1014 0.930 . S
H1009 C1017 0.925 1_655 S
H1010 C1018 0.930 . S
H1011 C1019 0.930 . S
H1012 C1022 0.925 1_455 S
H1013 C1023 0.930 . S
C1014 H1008 0.930 . S
C1014 C1015 1.355 . S
C1014 C1016 1.415 1_554 S
C1015 C1014 1.355 . S
C1015 C1017 1.441 . S
C1016 C1014 1.415 1_556 S
C1016 C1021 1.425 1_456 S
C1016 C1023 1.409 . S
C1017 H1009 0.925 1_455 S
C1017 C1015 1.441 . S
C1017 C1018 1.346 1_455 S
C1018 H1010 0.930 . S
C1018 C1017 1.346 1_655 S
C1018 C1021 1.409 . S
C1019 H1011 0.930 . S
C1019 C1020 1.355 . S
C1019 C1021 1.415 1_556 S
C1020 C1019 1.355 . S
C1020 C1022 1.441 . S
C1021 C1016 1.425 1_654 S
C1021 C1018 1.409 . S
C1021 C1019 1.415 1_554 S
C1022 H1012 0.925 1_655 S
C1022 C1020 1.441 . S
C1022 C1023 1.346 1_655 S
C1023 H1013 0.930 . S
C1023 C1016 1.409 . S
C1023 C1022 1.346 1_455 S
H1024 C1030 0.930 . S
H1025 C1033 0.930 . S
H1026 C1034 0.930 . S
H1027 C1035 0.930 . S
H1028 C1038 0.930 . S
H1029 C1039 0.930 . S
C1030 H1024 0.930 . S
C1030 C1031 1.355 . S
C1030 C1032 1.415 . S
C1031 C1030 1.355 . S
C1031 C1033 1.419 . S
C1032 C1030 1.415 . S
C1032 C1037 1.425 . S
C1032 C1039 1.409 . S
C1033 H1025 0.930 . S
C1033 C1031 1.419 . S
C1033 C1034 1.362 . S
C1034 H1026 0.930 . S
C1034 C1033 1.362 . S
C1034 C1037 1.409 . S
C1035 H1027 0.930 . S
C1035 C1036 1.355 . S
C1035 C1037 1.415 . S
C1036 C1035 1.355 . S
C1036 C1038 1.419 . S
C1037 C1032 1.425 . S
C1037 C1034 1.409 . S
C1037 C1035 1.415 . S
C1038 H1028 0.930 . S
C1038 C1036 1.419 . S
C1038 C1039 1.362 . S
C1039 H1029 0.930 . S
C1039 C1032 1.409 . S
C1039 C1038 1.362 . S
H1040 C1046 0.930 . S
H1041 C1049 0.930 . S
H1042 C1050 0.930 . S
H1043 C1051 0.930 . S
H1044 C1054 0.930 . S
H1045 C1055 0.930 . S
C1046 H1040 0.930 . S
C1046 C1047 1.355 . S
C1046 C1048 1.415 . S
C1047 C1046 1.355 . S
C1047 C1049 1.419 . S
C1048 C1046 1.415 . S
C1048 C1053 1.425 . S
C1048 C1055 1.409 . S
C1049 H1041 0.930 . S
C1049 C1047 1.419 . S
C1049 C1050 1.362 . S
C1050 H1042 0.930 . S
C1050 C1049 1.362 . S
C1050 C1053 1.409 . S
C1051 H1043 0.930 . S
C1051 C1052 1.355 . S
C1051 C1053 1.415 . S
C1052 C1051 1.355 . S
C1052 C1054 1.419 . S
C1053 C1048 1.425 . S
C1053 C1050 1.409 . S
C1053 C1051 1.415 . S
C1054 H1044 0.930 . S
C1054 C1052 1.419 . S
C1054 C1055 1.362 . S
C1055 H1045 0.930 . S
C1055 C1048 1.409 . S
C1055 C1054 1.362 . S
H1056 C1062 0.930 . S
H1057 C1065 0.923 1_655 S
H1058 C1066 0.930 . S
H1059 C1067 0.930 . S
H1060 C1070 0.923 1_455 S
H1061 C1071 0.930 . S
C1062 H1056 0.930 . S
C1062 C1063 1.355 . S
C1062 C1064 1.415 1_546 S
C1063 C1062 1.355 . S
C1063 C1065 1.453 . S
C1064 C1062 1.415 1_564 S
C1064 C1069 1.425 1_464 S
C1064 C1071 1.409 . S
C1065 H1057 0.923 1_455 S
C1065 C1063 1.453 . S
C1065 C1066 1.337 1_455 S
C1066 H1058 0.930 . S
C1066 C1065 1.337 1_655 S
C1066 C1069 1.409 . S
C1067 H1059 0.930 . S
C1067 C1068 1.355 . S
C1067 C1069 1.415 1_564 S
C1068 C1067 1.355 . S
C1068 C1070 1.453 . S
C1069 C1064 1.425 1_646 S
C1069 C1066 1.409 . S
C1069 C1067 1.415 1_546 S
C1070 H1060 0.923 1_655 S
C1070 C1068 1.453 . S
C1070 C1071 1.337 1_655 S
C1071 H1061 0.930 . S
C1071 C1064 1.409 . S
C1071 C1070 1.337 1_455 S
H1072 C1078 0.930 . S
H1073 C1081 0.930 . S
H1074 C1082 0.930 . S
H1075 C1083 0.930 . S
H1076 C1086 0.930 . S
H1077 C1087 0.930 . S
C1078 H1072 0.930 . S
C1078 C1079 1.355 . S
C1078 C1080 1.415 1_545 S
C1079 C1078 1.355 . S
C1079 C1081 1.419 . S
C1080 C1078 1.415 1_565 S
C1080 C1085 1.425 1_565 S
C1080 C1087 1.409 . S
C1081 H1073 0.930 . S
C1081 C1079 1.419 . S
C1081 C1082 1.362 . S
C1082 H1074 0.930 . S
C1082 C1081 1.362 . S
C1082 C1085 1.409 . S
C1083 H1075 0.930 . S
C1083 C1084 1.355 . S
C1083 C1085 1.415 1_565 S
C1084 C1083 1.355 . S
C1084 C1086 1.419 . S
C1085 C1080 1.425 1_545 S
C1085 C1082 1.409 . S
C1085 C1083 1.415 1_545 S
C1086 H1076 0.930 . S
C1086 C1084 1.419 . S
C1086 C1087 1.362 . S
C1087 H1077 0.930 . S
C1087 C1080 1.409 . S
C1087 C1086 1.362 . S
C327 C16 0.747 . S
C332 C216 0.764 . S
C343 C36 0.750 . S
C348 C236 0.771 . S
C359 C56 0.864 . S
C364 C176 0.890 . S
C375 C76 0.750 . S
C380 C196 0.772 . S
C391 C86 0.783 . S
C396 C286 0.757 . S
C407 C106 0.769 . S
C412 C306 0.748 . S
C423 C126 0.762 . S
C428 C246 0.790 . S
C439 C146 0.867 . S
C444 C266 0.892 . S
C455 C181 1.694 . S
C460 C6 1.683 . S
C471 C201 1.700 . S
C476 C26 1.687 . S
C487 C221 1.649 . S
C492 C46 1.744 . S
C503 C161 1.629 . S
C508 C66 1.712 . S
C519 C96 1.740 . S
C524 C269 1.640 . S
C535 C289 1.664 . S
C540 C116 1.746 . S
C551 C309 1.630 . S
C556 C136 1.729 . S
C567 C249 1.698 . S
C572 C156 1.733 . S
C583 C21 1.662 . S
C588 C166 1.682 . S
C599 C186 1.680 1_565 S
C604 C41 1.670 . S
C615 C206 1.701 . S
C620 C61 1.634 . S
C631 C226 1.690 1_545 S
C636 C1 1.645 . S
C647 C256 1.680 . S
C652 C109 1.681 . S
C663 C129 1.711 . S
C668 C276 1.710 1_545 S
C679 C149 1.628 . S
C684 C296 1.724 . S
C695 C316 1.710 1_565 S
C700 C89 1.630 . S
C711 C8 1.557 . S
C716 C301 1.661 . S
C727 C28 1.505 . S
C732 C81 1.641 . S
C743 C261 1.655 1_455 S
C748 C48 1.574 . S
C759 C121 1.646 . S
C764 C68 1.488 . S
C775 C99 1.544 . S
C780 C229 1.646 . S
C791 C119 1.570 . S
C796 C9 1.661 . S
C807 C189 1.653 1_655 S
C812 C139 1.570 . S
C823 C49 1.645 . S
C828 C159 1.538 . S
C839 C168 1.515 . S
C844 C141 1.642 1_655 S
C855 C188 1.506 . S
C860 C241 1.652 . S
C871 C101 1.645 . S
C876 C208 1.538 . S
C887 C281 1.659 . S
C892 C228 1.540 . S
C903 C259 1.490 . S
C908 C69 1.647 1_455 S
C919 C279 1.512 . S
C924 C169 1.641 . S
C935 C299 1.515 . S
C940 C29 1.654 . S
C951 C209 1.657 . S
C956 C319 1.578 . S
C967 C19 2.047 . S
C972 C248 2.047 . S
C983 C39 2.087 . S
C988 C108 2.087 . S
C999 C59 2.098 . S
C1004 C288 2.098 . S
C1015 C148 2.022 . S
C1020 C79 2.022 . S
C1031 C88 2.099 . S
C1036 C179 2.099 . S
C1047 C219 2.099 . S
C1052 C128 2.099 . S
C1063 C199 2.039 . S
C1068 C268 2.039 . S
C1079 C308 2.024 . S
C1084 C239 2.024 . S
