# Generated by pormake.
# Topology ung, (4)-cn, num edge types: 1
# Building blocks:
#     Node 0, Type 0, BuildingBlock: NAWXER_clean_sbu_0, # of connection points: 4
#     Node 1, Type 0, BuildingBlock: NAWXER_clean_sbu_0, # of connection points: 4
#     Node 2, Type 0, BuildingBlock: NAWXER_clean_sbu_0, # of connection points: 4
#     Node 3, Type 0, BuildingBlock: NAWXER_clean_sbu_0, # of connection points: 4
#     Node 4, Type 0, BuildingBlock: NAWXER_clean_sbu_0, # of connection points: 4
#     Node 5, Type 0, BuildingBlock: NAWXER_clean_sbu_0, # of connection points: 4
#     Node 6, Type 0, BuildingBlock: NAWXER_clean_sbu_0, # of connection points: 4
#     Node 7, Type 0, BuildingBlock: NAWXER_clean_sbu_0, # of connection points: 4
#     Node 8, Type 0, BuildingBlock: NAWXER_clean_sbu_0, # of connection points: 4
#     Node 9, Type 0, BuildingBlock: NAWXER_clean_sbu_0, # of connection points: 4
#     Node 10, Type 0, BuildingBlock: NAWXER_clean_sbu_0, # of connection points: 4
#     Node 11, Type 0, BuildingBlock: NAWXER_clean_sbu_0, # of connection points: 4
#     Node 12, Type 0, BuildingBlock: NAWXER_clean_sbu_0, # of connection points: 4
#     Node 13, Type 0, BuildingBlock: NAWXER_clean_sbu_0, # of connection points: 4
#     Node 14, Type 0, BuildingBlock: NAWXER_clean_sbu_0, # of connection points: 4
#     Node 15, Type 0, BuildingBlock: NAWXER_clean_sbu_0, # of connection points: 4
#     Node 16, Type 0, BuildingBlock: NAWXER_clean_sbu_0, # of connection points: 4
#     Node 17, Type 0, BuildingBlock: NAWXER_clean_sbu_0, # of connection points: 4
#     Edge 18, Type (0, 0), BuildingBlock: XUDNAN_clean_linker_2, # of connection points: 2
#     Edge 19, Type (0, 0), BuildingBlock: XUDNAN_clean_linker_2, # of connection points: 2
#     Edge 20, Type (0, 0), BuildingBlock: XUDNAN_clean_linker_2, # of connection points: 2
#     Edge 21, Type (0, 0), BuildingBlock: XUDNAN_clean_linker_2, # of connection points: 2
#     Edge 22, Type (0, 0), BuildingBlock: XUDNAN_clean_linker_2, # of connection points: 2
#     Edge 23, Type (0, 0), BuildingBlock: XUDNAN_clean_linker_2, # of connection points: 2
#     Edge 24, Type (0, 0), BuildingBlock: XUDNAN_clean_linker_2, # of connection points: 2
#     Edge 25, Type (0, 0), BuildingBlock: XUDNAN_clean_linker_2, # of connection points: 2
#     Edge 26, Type (0, 0), BuildingBlock: XUDNAN_clean_linker_2, # of connection points: 2
#     Edge 27, Type (0, 0), BuildingBlock: XUDNAN_clean_linker_2, # of connection points: 2
#     Edge 28, Type (0, 0), BuildingBlock: XUDNAN_clean_linker_2, # of connection points: 2
#     Edge 29, Type (0, 0), BuildingBlock: XUDNAN_clean_linker_2, # of connection points: 2
#     Edge 30, Type (0, 0), BuildingBlock: XUDNAN_clean_linker_2, # of connection points: 2
#     Edge 31, Type (0, 0), BuildingBlock: XUDNAN_clean_linker_2, # of connection points: 2
#     Edge 32, Type (0, 0), BuildingBlock: XUDNAN_clean_linker_2, # of connection points: 2
#     Edge 33, Type (0, 0), BuildingBlock: XUDNAN_clean_linker_2, # of connection points: 2
#     Edge 34, Type (0, 0), BuildingBlock: XUDNAN_clean_linker_2, # of connection points: 2
#     Edge 35, Type (0, 0), BuildingBlock: XUDNAN_clean_linker_2, # of connection points: 2
#     Edge 36, Type (0, 0), BuildingBlock: XUDNAN_clean_linker_2, # of connection points: 2
#     Edge 37, Type (0, 0), BuildingBlock: XUDNAN_clean_linker_2, # of connection points: 2
#     Edge 38, Type (0, 0), BuildingBlock: XUDNAN_clean_linker_2, # of connection points: 2
#     Edge 39, Type (0, 0), BuildingBlock: XUDNAN_clean_linker_2, # of connection points: 2
#     Edge 40, Type (0, 0), BuildingBlock: XUDNAN_clean_linker_2, # of connection points: 2
#     Edge 41, Type (0, 0), BuildingBlock: XUDNAN_clean_linker_2, # of connection points: 2
#     Edge 42, Type (0, 0), BuildingBlock: XUDNAN_clean_linker_2, # of connection points: 2
#     Edge 43, Type (0, 0), BuildingBlock: XUDNAN_clean_linker_2, # of connection points: 2
#     Edge 44, Type (0, 0), BuildingBlock: XUDNAN_clean_linker_2, # of connection points: 2
#     Edge 45, Type (0, 0), BuildingBlock: XUDNAN_clean_linker_2, # of connection points: 2
#     Edge 46, Type (0, 0), BuildingBlock: XUDNAN_clean_linker_2, # of connection points: 2
#     Edge 47, Type (0, 0), BuildingBlock: XUDNAN_clean_linker_2, # of connection points: 2
#     Edge 48, Type (0, 0), BuildingBlock: XUDNAN_clean_linker_2, # of connection points: 2
#     Edge 49, Type (0, 0), BuildingBlock: XUDNAN_clean_linker_2, # of connection points: 2
#     Edge 50, Type (0, 0), BuildingBlock: XUDNAN_clean_linker_2, # of connection points: 2
#     Edge 51, Type (0, 0), BuildingBlock: XUDNAN_clean_linker_2, # of connection points: 2
#     Edge 52, Type (0, 0), BuildingBlock: XUDNAN_clean_linker_2, # of connection points: 2
#     Edge 53, Type (0, 0), BuildingBlock: XUDNAN_clean_linker_2, # of connection points: 2
# Relax obj value: 0.020
# Max RMSD: 0.247
# Mean RMSD: 0.247
data_MOF--net-ung--node1-NAWXER_clean_sbu_0--edge1-XUDNAN_clean_linker_2
_symmetry_space_group_name_H-M    P1
_symmetry_Int_Tables_number       1
_symmetry_cell_setting            triclinic
loop_
_symmetry_equiv_pos_as_xyz
'x, y, z'
_cell_length_a     77.529765
_cell_length_b     77.634181
_cell_length_c     21.177204
_cell_angle_alpha  89.882724
_cell_angle_beta   90.030756
_cell_angle_gamma 119.9743
loop_
_atom_site_label
_atom_site_type_symbol
_atom_site_fract_x
_atom_site_fract_y
_atom_site_fract_z
_atom_type_partial_charge
C0 C 0.07223 0.62379 0.38023 0.0
C1 C 0.06162 0.66058 0.21426 0.0
O2 O 0.0579 0.62689 0.37016 0.0
Zn3 Zn 0.0679 0.64261 0.29554 0.0
O4 O 0.08739 0.63172 0.34316 0.0
Zn5 Zn 0.09559 0.65069 0.25942 0.0
O6 O 0.11901 0.67412 0.28415 0.0
O7 O 0.09214 0.67155 0.32851 0.0
O8 O 0.07909 0.66265 0.2095 0.0
O9 O 0.04987 0.64944 0.25697 0.0
O10 O 0.06854 0.6219 0.22708 0.0
O11 O 0.09976 0.63559 0.19613 0.0
C12 C 0.11107 0.68146 0.31912 0.0
C13 C 0.08195 0.62141 0.19272 0.0
C14 C 0.48747 0.50247 0.29758 0.0
C15 C 0.53256 0.53883 0.12579 0.0
O16 O 0.48469 0.51043 0.24923 0.0
Zn17 Zn 0.51012 0.51941 0.21144 0.0
O18 O 0.50407 0.50268 0.30436 0.0
Zn19 Zn 0.53153 0.51382 0.24892 0.0
O20 O 0.55115 0.53074 0.30901 0.0
O21 O 0.5309 0.54147 0.27881 0.0
O22 O 0.54087 0.53222 0.16375 0.0
O23 O 0.51471 0.53443 0.13582 0.0
O24 O 0.50757 0.49175 0.18023 0.0
O25 O 0.53241 0.49036 0.22529 0.0
C26 C 0.54575 0.54369 0.31221 0.0
C27 C 0.51729 0.48261 0.18954 0.0
C28 C 0.67539 0.0723 0.32545 0.0
C29 C 0.63641 0.09402 0.20189 0.0
O30 O 0.66052 0.0618 0.29026 0.0
Zn31 Zn 0.65543 0.08306 0.26658 0.0
O32 O 0.68072 0.09059 0.3352 0.0
Zn33 Zn 0.67094 0.11101 0.30672 0.0
O34 O 0.66283 0.11755 0.38239 0.0
O35 O 0.64169 0.08698 0.3526 0.0
O36 O 0.64889 0.1077 0.23863 0.0
O37 O 0.63536 0.07717 0.20205 0.0
O38 O 0.68375 0.10457 0.2187 0.0
O39 O 0.69437 0.13225 0.27313 0.0
C40 C 0.64679 0.10138 0.39177 0.0
C41 C 0.69677 0.123 0.22792 0.0
C42 C 0.06544 0.47838 0.71122 0.0
C43 C 0.07458 0.52366 0.88218 0.0
O44 O 0.08265 0.49416 0.70776 0.0
Zn45 Zn 0.09875 0.52177 0.76136 0.0
O46 O 0.05363 0.47659 0.75547 0.0
Zn47 Zn 0.07117 0.50116 0.79641 0.0
O48 O 0.07135 0.52272 0.7291 0.0
O49 O 0.10263 0.54151 0.6999 0.0
O50 O 0.06075 0.50605 0.87173 0.0
O51 O 0.08978 0.5315 0.84529 0.0
O52 O 0.12233 0.5218 0.78553 0.0
O53 O 0.0957 0.49666 0.82767 0.0
C54 C 0.08459 0.53716 0.69585 0.0
C55 C 0.11464 0.5061 0.81867 0.0
C56 C 0.6583 0.69215 0.79888 0.0
C57 C 0.6271 0.64573 0.62659 0.0
O58 O 0.66355 0.67883 0.80041 0.0
Zn59 Zn 0.65606 0.65205 0.7448 0.0
O60 O 0.64629 0.69137 0.75688 0.0
Zn61 Zn 0.64346 0.66875 0.7136 0.0
O62 O 0.62539 0.64514 0.77883 0.0
O63 O 0.64267 0.63083 0.80642 0.0
O64 O 0.62744 0.66183 0.6395 0.0
O65 O 0.63702 0.64015 0.66144 0.0
O66 O 0.68173 0.65727 0.71453 0.0
O67 O 0.67332 0.67884 0.67941 0.0
C68 C 0.6269 0.6319 0.81088 0.0
C69 C 0.68604 0.67289 0.68333 0.0
C70 C 0.54578 0.08537 0.70451 0.0
C71 C 0.48778 0.06476 0.84167 0.0
O72 O 0.54613 0.09985 0.73462 0.0
Zn73 Zn 0.52779 0.10465 0.7993 0.0
O74 O 0.53098 0.06795 0.71121 0.0
Zn75 Zn 0.5168 0.07472 0.774 0.0
O76 O 0.50535 0.09074 0.71918 0.0
O77 O 0.52094 0.12174 0.75311 0.0
O78 O 0.49226 0.05348 0.81092 0.0
O79 O 0.49971 0.08362 0.8411 0.0
O80 O 0.54487 0.11605 0.8705 0.0
O81 O 0.5371 0.08495 0.85457 0.0
C82 C 0.50823 0.10854 0.71662 0.0
C83 C 0.5466 0.10119 0.88611 0.0
C84 C 0.75649 0.962 0.6481 0.0
C85 C 0.73963 1.00143 0.50597 0.0
O86 O 0.73937 0.95998 0.63908 0.0
Zn87 Zn 0.74749 0.98132 0.57639 0.0
O88 O 0.77159 0.97599 0.61963 0.0
Zn89 Zn 0.77809 0.99959 0.55514 0.0
O90 O 0.7947 0.02315 0.60324 0.0
O91 O 0.7631 0.00842 0.63162 0.0
O92 O 0.75833 0.00753 0.50909 0.0
O93 O 0.72742 0.98581 0.53595 0.0
O94 O 0.75845 0.97139 0.49775 0.0
O95 O 0.79022 0.99372 0.48606 0.0
C96 C 0.781 0.02301 0.63651 0.0
C97 C 0.77508 0.97763 0.46857 0.0
C98 C 0.14957 0.8285 0.65418 0.0
C99 C 0.20174 0.87227 0.50911 0.0
O100 O 0.15141 0.8432 0.62253 0.0
Zn101 Zn 0.17646 0.85023 0.58443 0.0
O102 O 0.16359 0.82421 0.6527 0.0
Zn103 Zn 0.19272 0.83685 0.60633 0.0
O104 O 0.21112 0.84539 0.67362 0.0
O105 O 0.19772 0.86435 0.66222 0.0
O106 O 0.20671 0.86059 0.53632 0.0
O107 O 0.18522 0.87092 0.52305 0.0
O108 O 0.16962 0.8235 0.528 0.0
O109 O 0.19111 0.81494 0.56306 0.0
C110 C 0.20992 0.86034 0.69093 0.0
C111 C 0.17704 0.81191 0.52613 0.0
C112 C 0.36568 0.44385 0.55416 0.0
C113 C 0.3063 0.41554 0.68562 0.0
O114 O 0.36191 0.45101 0.60253 0.0
Zn115 Zn 0.3356 0.42928 0.61826 0.0
O116 O 0.35243 0.42683 0.53296 0.0
Zn117 Zn 0.32272 0.404 0.56153 0.0
O118 O 0.30643 0.40145 0.48988 0.0
O119 O 0.31784 0.43002 0.53959 0.0
O120 O 0.30452 0.40359 0.64085 0.0
O121 O 0.32225 0.43216 0.69012 0.0
O122 O 0.34192 0.4061 0.64659 0.0
O123 O 0.32684 0.38197 0.57706 0.0
C124 C 0.30742 0.4182 0.49484 0.0
C125 C 0.33782 0.38899 0.62542 0.0
C126 C 0.7835 0.8418 0.12784 0.0
C127 C 0.76573 0.87306 0.96236 0.0
O128 O 0.76616 0.83942 0.13967 0.0
Zn129 Zn 0.74671 0.84851 0.09127 0.0
O130 O 0.79264 0.85086 0.07822 0.0
Zn131 Zn 0.77296 0.85618 0.04639 0.0
O132 O 0.77409 0.87803 0.11441 0.0
O133 O 0.74373 0.86463 0.15323 0.0
O134 O 0.78042 0.87035 0.9693 0.0
O135 O 0.75174 0.86588 1.00389 0.0
O136 O 0.72297 0.82417 0.07522 0.0
O137 O 0.74831 0.82687 0.02051 0.0
C138 C 0.76151 0.87895 0.15188 0.0
C139 C 0.72982 0.81682 0.03603 0.0
C140 C 0.33063 0.01852 0.14122 0.0
C141 C 0.29611 0.96045 1.00401 0.0
O142 O 0.33575 1.00537 0.15094 0.0
Zn143 Zn 0.32793 0.9761 0.11761 0.0
O144 O 0.31685 0.01513 0.10201 0.0
Zn145 Zn 0.31256 0.9895 0.07383 0.0
O146 O 0.29779 0.97117 0.15341 0.0
O147 O 0.31595 0.95899 0.19152 0.0
O148 O 0.29426 0.97581 1.00443 0.0
O149 O 0.30805 0.95919 0.04322 0.0
O150 O 0.35368 0.98131 0.08509 0.0
O151 O 0.34144 0.99795 0.03566 0.0
C152 C 0.30032 0.9604 0.19415 0.0
C153 C 0.35559 0.99413 0.04397 0.0
C154 C 0.18401 0.44351 0.01945 0.0
C155 C 0.22053 0.43063 0.1797 0.0
O156 O 0.1768 0.42458 0.02362 0.0
Zn157 Zn 0.1852 0.40563 0.07963 0.0
O158 O 0.19881 0.45503 0.05308 0.0
Zn159 Zn 0.20163 0.43545 0.09711 0.0
O160 O 0.21439 0.42477 0.02553 0.0
O161 O 0.19271 0.39286 0.01749 0.0
O162 O 0.22139 0.44649 0.16059 0.0
O163 O 0.20792 0.41403 0.15404 0.0
O164 O 0.16119 0.38793 0.12277 0.0
O165 O 0.17355 0.41931 0.15002 0.0
C166 C 0.2089 0.4078 0.99996 0.0
C167 C 0.15982 0.40096 0.15473 0.0
C168 C 0.40993 0.29436 0.05524 0.0
C169 C 0.40068 0.33039 0.8835 0.0
O170 O 0.39634 0.2986 0.04552 0.0
Zn171 Zn 0.40658 0.3136 0.96971 0.0
O172 O 0.42476 0.30102 0.01699 0.0
Zn173 Zn 0.43353 0.31921 0.93165 0.0
O174 O 0.45793 0.34269 0.95457 0.0
O175 O 0.43182 0.34131 1.00052 0.0
O176 O 0.41705 0.33018 0.87647 0.0
O177 O 0.39007 0.32256 0.93217 0.0
O178 O 0.4051 0.29147 0.90226 0.0
O179 O 0.43606 0.3022 0.87188 0.0
C180 C 0.45067 0.35045 0.9907 0.0
C181 C 0.4177 0.28924 0.86877 0.0
C182 C 0.82091 0.18026 0.98099 0.0
C183 C 0.87025 0.21012 0.8161 0.0
O184 O 0.82458 0.1939 0.94143 0.0
Zn185 Zn 0.84636 0.19434 0.90109 0.0
O186 O 0.83204 0.17229 0.98226 0.0
Zn187 Zn 0.85879 0.17771 0.92737 0.0
O188 O 0.8792 0.18622 0.98893 0.0
O189 O 0.87014 0.2085 0.9715 0.0
O190 O 0.87379 0.19799 0.84731 0.0
O191 O 0.85556 0.21202 0.83186 0.0
O192 O 0.83316 0.16476 0.85749 0.0
O193 O 0.85145 0.15238 0.89299 0.0
C194 C 0.88129 0.20316 1.00042 0.0
C195 C 0.83717 0.15057 0.85916 0.0
C196 C 0.99453 0.71802 0.97237 0.0
C197 C 0.95698 0.72732 0.80451 0.0
O198 O 0.98133 0.7049 0.93676 0.0
Zn199 Zn 0.97526 0.72258 0.89065 0.0
O200 O 0.99806 0.73603 0.96976 0.0
Zn201 Zn 0.98748 0.7528 0.91591 0.0
O202 O 0.97393 0.76019 0.97934 0.0
O203 O 0.95796 0.72823 0.95702 0.0
O204 O 0.96726 0.74342 0.83607 0.0
O205 O 0.95773 0.71189 0.81959 0.0
O206 O 1.0038 0.74264 0.8493 0.0
O207 O 0.01254 0.77315 0.87923 0.0
C208 C 0.95892 0.74296 0.98729 0.0
C209 C 0.01647 0.76133 0.84923 0.0
C210 C 0.3897 0.14328 0.38028 0.0
C211 C 0.39918 0.18831 0.55369 0.0
O212 O 0.40768 0.15788 0.38277 0.0
Zn213 Zn 0.42459 0.1845 0.43965 0.0
O214 O 0.37686 0.1425 0.41919 0.0
Zn215 Zn 0.39469 0.1659 0.46618 0.0
O216 O 0.39979 0.18932 0.4012 0.0
O217 O 0.43183 0.20578 0.37868 0.0
O218 O 0.38393 0.17195 0.53899 0.0
O219 O 0.41518 0.19462 0.52099 0.0
O220 O 0.44554 0.18046 0.47351 0.0
O221 O 0.41547 0.15764 0.50436 0.0
C222 C 0.4145 0.20339 0.37138 0.0
C223 C 0.43435 0.16446 0.50331 0.0
C224 C 1.00312 0.35516 0.46466 0.0
C225 C 0.97125 0.30096 0.31226 0.0
O226 O 1.00794 0.34171 0.47204 0.0
Zn227 Zn 1.00048 0.31329 0.43256 0.0
O228 O 0.98991 0.35274 0.42441 0.0
Zn229 Zn 0.98609 0.32789 0.39021 0.0
O230 O 0.96951 0.3072 0.46279 0.0
O231 O 0.98694 0.29434 0.5018 0.0
O232 O 0.96931 0.31624 0.3163 0.0
O233 O 0.98232 0.29854 0.35216 0.0
O234 O 0.02678 0.31922 0.40377 0.0
O235 O 0.0157 0.33726 0.35668 0.0
C236 C 0.97108 0.29537 0.50159 0.0
C237 C 0.0296 0.33314 0.36581 0.0
C238 C 0.84607 0.7778 0.3597 0.0
C239 C 0.87369 0.74577 0.49064 0.0
O240 O 0.83651 0.75887 0.35148 0.0
Zn241 Zn 0.83922 0.73383 0.38651 0.0
O242 O 0.86114 0.78547 0.39585 0.0
Zn243 Zn 0.85994 0.76137 0.42268 0.0
O244 O 0.87011 0.75242 0.33961 0.0
O245 O 0.84478 0.72342 0.31257 0.0
O246 O 0.87867 0.76399 0.48708 0.0
O247 O 0.85939 0.73309 0.45594 0.0
O248 O 0.8137 0.71719 0.4246 0.0
O249 O 0.83121 0.74631 0.47128 0.0
C250 C 0.86246 0.73731 0.3026 0.0
C251 C 0.81507 0.72944 0.46663 0.0
H252 H 0.1017 0.5616 0.92179 0.0
H253 H 0.04253 0.51203 0.96019 0.0
H254 H 0.03794 0.53161 0.04303 0.0
H255 H 0.11426 0.57735 0.08475 0.0
H256 H 0.12768 0.60344 0.06516 0.0
H257 H 0.12644 0.58542 1.00919 0.0
H258 H 0.11201 0.59909 0.92525 0.0
H259 H 0.11311 0.61708 0.98107 0.0
H260 H 0.08986 0.60022 0.94323 0.0
H261 H 0.03916 0.55695 0.11937 0.0
H262 H 0.04704 0.58571 0.18783 0.0
H263 H 0.1056 0.6185 0.10177 0.0
C264 C 0.08783 0.55481 0.94786 0.0
C265 C 0.07249 0.53524 0.93432 0.0
C266 C 0.05455 0.52696 0.96963 0.0
C267 C 0.05175 0.53798 0.01677 0.0
C268 C 0.06706 0.55727 0.02848 0.0
C269 C 0.08481 0.56558 0.99545 0.0
C270 C 0.09888 0.58661 0.01755 0.0
C271 C 0.11794 0.5883 0.04586 0.0
C272 C 0.10374 0.60163 0.96356 0.0
C273 C 0.08623 0.58881 0.06791 0.0
C274 C 0.06789 0.57176 0.07326 0.0
C275 C 0.05353 0.57037 0.11586 0.0
C276 C 0.05811 0.5868 0.15442 0.0
C277 C 0.07693 0.60434 0.15041 0.0
C278 C 0.0911 0.60528 0.10632 0.0
H279 H 0.62684 0.607 0.90476 0.0
H280 H 0.58898 0.62539 0.80975 0.0
H281 H 0.56084 0.60275 0.8773 0.0
H282 H 0.58905 0.55509 0.92713 0.0
H283 H 0.59775 0.55334 1.00453 0.0
H284 H 0.61498 0.57046 0.94718 0.0
H285 H 0.62555 0.59949 0.02603 0.0
H286 H 0.60837 0.58247 0.08361 0.0
H287 H 0.60683 0.60398 0.05995 0.0
H288 H 0.53693 0.57871 0.95462 0.0
H289 H 0.51866 0.5554 0.0408 0.0
H290 H 0.57166 0.55259 0.08942 0.0
C291 C 0.61259 0.60615 0.89795 0.0
C292 C 0.61013 0.61797 0.85172 0.0
C293 C 0.59128 0.61656 0.8448 0.0
C294 C 0.57516 0.60368 0.88284 0.0
C295 C 0.57808 0.59233 0.92797 0.0
C296 C 0.59629 0.59345 0.93608 0.0
C297 C 0.59542 0.58003 0.98982 0.0
C298 C 0.59954 0.56376 0.9657 0.0
C299 C 0.6099 0.59222 0.043 0.0
C300 C 0.5739 0.57129 1.0106 0.0
C301 C 0.5642 0.57854 0.97383 0.0
C302 C 0.54433 0.5729 0.98376 0.0
C303 C 0.53408 0.55961 0.03295 0.0
C304 C 0.54367 0.5521 0.0721 0.0
C305 C 0.56387 0.55799 0.06034 0.0
H306 H 0.60988 0.06972 0.11048 0.0
H307 H 0.63366 0.1277 0.19852 0.0
H308 H 0.61267 0.13516 0.12951 0.0
H309 H 0.60773 0.08578 0.95285 0.0
H310 H 0.58478 0.06364 0.93273 0.0
H311 H 0.60127 0.06243 0.9902 0.0
H312 H 0.57255 0.0473 0.07183 0.0
H313 H 0.55596 0.04849 0.0146 0.0
H314 H 0.55937 0.06031 0.09036 0.0
H315 H 0.58978 0.13683 0.05074 0.0
H316 H 0.56652 0.13281 0.96535 0.0
H317 H 0.55718 0.07381 0.92656 0.0
C318 C 0.61061 0.08394 0.11541 0.0
C319 C 0.62345 0.09811 0.16015 0.0
C320 C 0.624 0.11659 0.16475 0.0
C321 C 0.61209 0.12098 0.12578 0.0
C322 C 0.59967 0.10676 0.08223 0.0
C323 C 0.59881 0.08863 0.07662 0.0
C324 C 0.58438 0.0762 0.02487 0.0
C325 C 0.59519 0.07176 0.97203 0.0
C326 C 0.56704 0.05693 0.05206 0.0
C327 C 0.57736 0.09025 1.00226 0.0
C328 C 0.58637 0.10776 0.03626 0.0
C329 C 0.58258 0.12317 0.02385 0.0
C330 C 0.56932 0.12072 0.97513 0.0
C331 C 0.55994 0.10298 0.93912 0.0
C332 C 0.564 0.08751 0.95333 0.0
H333 H 0.60731 0.07308 0.4183 0.0
H334 H 0.65825 0.12678 0.49072 0.0
H335 H 0.63813 0.12715 0.57917 0.0
H336 H 0.571 0.08667 0.45543 0.0
H337 H 0.55186 0.06222 0.47954 0.0
H338 H 0.5704 0.06493 0.42295 0.0
H339 H 0.57989 0.04373 0.49383 0.0
H340 H 0.5613 0.04086 0.55054 0.0
H341 H 0.58681 0.05085 0.57494 0.0
H342 H 0.61287 0.12391 0.6544 0.0
H343 H 0.58335 0.11603 0.71797 0.0
H344 H 0.54775 0.06374 0.60286 0.0
C345 C 0.61425 0.0847 0.45338 0.0
C346 C 0.63441 0.09993 0.44723 0.0
C347 C 0.64287 0.11499 0.49387 0.0
C348 C 0.63157 0.11534 0.5446 0.0
C349 C 0.61175 0.10047 0.5487 0.0
C350 C 0.60309 0.08529 0.50497 0.0
C351 C 0.58118 0.07159 0.52049 0.0
C352 C 0.56782 0.07135 0.46637 0.0
C353 C 0.57706 0.0505 0.53587 0.0
C354 C 0.57898 0.08172 0.57891 0.0
C355 C 0.5969 0.09834 0.59394 0.0
C356 C 0.59876 0.11082 0.64367 0.0
C357 C 0.58185 0.10625 0.67931 0.0
C358 C 0.56324 0.08926 0.66556 0.0
C359 C 0.56183 0.07671 0.61489 0.0
H360 H 0.10074 0.6149 0.42118 0.0
H361 H 0.04037 0.6022 0.45775 0.0
H362 H 0.03705 0.57885 0.54203 0.0
H363 H 0.09164 0.56539 0.44602 0.0
H364 H 0.11514 0.57311 0.48446 0.0
H365 H 0.11302 0.58916 0.42727 0.0
H366 H 0.12606 0.61755 0.50969 0.0
H367 H 0.12828 0.60161 0.56708 0.0
H368 H 0.11367 0.61316 0.58494 0.0
H369 H 0.03967 0.55594 0.62009 0.0
H370 H 0.04883 0.53626 0.69004 0.0
H371 H 0.10769 0.56432 0.60518 0.0
C372 C 0.08687 0.60728 0.4471 0.0
C373 C 0.07083 0.61043 0.43266 0.0
C374 C 0.05292 0.60013 0.46784 0.0
C375 C 0.05084 0.58677 0.51584 0.0
C376 C 0.06683 0.5839 0.52855 0.0
C377 C 0.08456 0.59394 0.49559 0.0
C378 C 0.09944 0.58813 0.51897 0.0
C379 C 0.10514 0.57837 0.46602 0.0
C380 C 0.11796 0.60619 0.54683 0.0
C381 C 0.08726 0.57321 0.5699 0.0
C382 C 0.06847 0.57092 0.57446 0.0
C383 C 0.0544 0.55767 0.61722 0.0
C384 C 0.05971 0.54652 0.65666 0.0
C385 C 0.07898 0.54877 0.65336 0.0
C386 C 0.09287 0.56233 0.60924 0.0
H387 H 0.62161 0.60955 0.58533 0.0
H388 H 0.6039 0.65358 0.54815 0.0
H389 H 0.58159 0.63249 0.46363 0.0
H390 H 0.62123 0.59532 0.42137 0.0
H391 H 0.61149 0.56941 0.43982 0.0
H392 H 0.62652 0.58818 0.4968 0.0
H393 H 0.59829 0.57113 0.57955 0.0
H394 H 0.58315 0.55236 0.52276 0.0
H395 H 0.57372 0.56674 0.56086 0.0
H396 H 0.56013 0.60621 0.38593 0.0
H397 H 0.54201 0.57692 0.31697 0.0
H398 H 0.57392 0.55008 0.40232 0.0
C399 C 0.61316 0.61482 0.55911 0.0
C400 C 0.61457 0.63327 0.57357 0.0
C401 C 0.60316 0.63955 0.53812 0.0
C402 C 0.59039 0.62766 0.48994 0.0
C403 C 0.58919 0.60952 0.47734 0.0
C404 C 0.60034 0.60314 0.51051 0.0
C405 C 0.5961 0.5829 0.48758 0.0
C406 C 0.61496 0.58403 0.45973 0.0
C407 C 0.58729 0.56737 0.54086 0.0
C408 C 0.58077 0.5789 0.43668 0.0
C409 C 0.57697 0.59443 0.43172 0.0
C410 C 0.56305 0.59399 0.38908 0.0
C411 C 0.5528 0.57726 0.35019 0.0
C412 C 0.55656 0.56122 0.35395 0.0
C413 C 0.57077 0.56214 0.3979 0.0
H414 H 0.73853 0.88423 0.23938 0.0
H415 H 0.79807 0.91301 0.15946 0.0
H416 H 0.80788 0.94175 0.23024 0.0
H417 H 0.73483 0.92839 0.25767 0.0
H418 H 0.72141 0.92032 0.33125 0.0
H419 H 0.71908 0.90223 0.27367 0.0
H420 H 0.73001 0.88521 0.35743 0.0
H421 H 0.73235 0.90322 0.41529 0.0
H422 H 0.75322 0.89975 0.39875 0.0
H423 H 0.81118 0.96718 0.3111 0.0
H424 H 0.80795 0.98712 0.39602 0.0
H425 H 0.74616 0.94148 0.42274 0.0
C426 C 0.75364 0.89658 0.23645 0.0
C427 C 0.76753 0.89636 0.19366 0.0
C428 C 0.78716 0.91283 0.19174 0.0
C429 C 0.79285 0.92923 0.23174 0.0
C430 C 0.77876 0.92892 0.27337 0.0
C431 C 0.75956 0.91301 0.27599 0.0
C432 C 0.74731 0.91617 0.3255 0.0
C433 C 0.72962 0.91682 0.29519 0.0
C434 C 0.74032 0.90014 0.37731 0.0
C435 C 0.76263 0.93636 0.35055 0.0
C436 C 0.78066 0.94349 0.31982 0.0
C437 C 0.79712 0.96175 0.33535 0.0
C438 C 0.79511 0.97298 0.38371 0.0
C439 C 0.77679 0.96591 0.41612 0.0
C440 C 0.76035 0.94736 0.39885 0.0
H441 H 0.23774 0.87865 0.46078 0.0
H442 H 0.19569 0.90015 0.45114 0.0
H443 H 0.21698 0.92529 0.37318 0.0
H444 H 0.28261 0.92705 0.44493 0.0
H445 H 0.29541 0.91798 0.39616 0.0
H446 H 0.27718 0.90169 0.45286 0.0
H447 H 0.2578 0.87641 0.36411 0.0
H448 H 0.27598 0.8926 0.30719 0.0
H449 H 0.25 0.88449 0.29539 0.0
H450 H 0.24183 0.94755 0.29574 0.0
H451 H 0.26905 0.9658 0.22031 0.0
H452 H 0.29591 0.93066 0.27723 0.0
C453 C 0.23307 0.8887 0.44241 0.0
C454 C 0.21499 0.88738 0.46232 0.0
C455 C 0.20941 0.90078 0.43683 0.0
C456 C 0.22143 0.91519 0.39251 0.0
C457 C 0.23907 0.91609 0.37388 0.0
C458 C 0.24495 0.90326 0.39773 0.0
C459 C 0.26452 0.90736 0.36819 0.0
C460 C 0.2809 0.91391 0.41855 0.0
C461 C 0.26191 0.88913 0.33154 0.0
C462 C 0.26857 0.9244 0.32385 0.0
C463 C 0.25365 0.92915 0.32836 0.0
C464 C 0.25365 0.94403 0.2918 0.0
C465 C 0.26922 0.9543 0.24893 0.0
C466 C 0.28469 0.94971 0.24264 0.0
C467 C 0.2844 0.93462 0.28116 0.0
H468 H 0.28039 0.39495 0.40375 0.0
H469 H 0.30868 0.45398 0.48649 0.0
H470 H 0.28927 0.46311 0.41554 0.0
H471 H 0.27852 0.41002 0.24346 0.0
H472 H 0.2545 0.38872 0.22699 0.0
H473 H 0.27079 0.3868 0.2837 0.0
H474 H 0.24298 0.37459 0.36826 0.0
H475 H 0.22663 0.37655 0.3119 0.0
H476 H 0.23177 0.38952 0.38614 0.0
H477 H 0.26709 0.46597 0.33658 0.0
H478 H 0.24347 0.46267 0.25368 0.0
H479 H 0.22868 0.40153 0.2217 0.0
C480 C 0.28259 0.40983 0.40677 0.0
C481 C 0.29614 0.42378 0.45072 0.0
C482 C 0.29844 0.44305 0.45332 0.0
C483 C 0.28746 0.44837 0.41321 0.0
C484 C 0.27418 0.43425 0.37084 0.0
C485 C 0.27167 0.41538 0.36723 0.0
C486 C 0.25624 0.40302 0.31766 0.0
C487 C 0.26558 0.39678 0.26482 0.0
C488 C 0.23834 0.38485 0.34781 0.0
C489 C 0.25051 0.41794 0.2939 0.0
C490 C 0.26111 0.43584 0.32535 0.0
C491 C 0.2587 0.45203 0.31165 0.0
C492 C 0.24521 0.44998 0.2643 0.0
C493 C 0.23416 0.43183 0.23097 0.0
C494 C 0.2368 0.41555 0.24644 0.0
H495 H 0.24636 0.43551 0.95675 0.0
H496 H 0.19903 0.37443 0.93119 0.0
H497 H 0.21886 0.36973 0.84948 0.0
H498 H 0.26053 0.4456 0.79289 0.0
H499 H 0.28679 0.4605 0.80922 0.0
H500 H 0.26887 0.45918 0.866 0.0
H501 H 0.28468 0.44752 0.9517 0.0
H502 H 0.30262 0.44877 0.89512 0.0
H503 H 0.28709 0.42594 0.93726 0.0
H504 H 0.2435 0.37156 0.76942 0.0
H505 H 0.27157 0.37991 0.69699 0.0
H506 H 0.30327 0.43953 0.77517 0.0
C507 C 0.24016 0.42116 0.93392 0.0
C508 C 0.22109 0.40536 0.95054 0.0
C509 C 0.21358 0.38679 0.91953 0.0
C510 C 0.22474 0.38394 0.87293 0.0
C511 C 0.24346 0.39977 0.85778 0.0
C512 C 0.25116 0.41801 0.88732 0.0
C513 C 0.27174 0.43251 0.86212 0.0
C514 C 0.27199 0.45051 0.83069 0.0
C515 C 0.28746 0.43906 0.91469 0.0
C516 C 0.27431 0.41957 0.81379 0.0
C517 C 0.25781 0.40074 0.812 0.0
C518 C 0.25655 0.38624 0.7705 0.0
C519 C 0.27258 0.39113 0.72951 0.0
C520 C 0.28968 0.41033 0.73043 0.0
C521 C 0.29049 0.42466 0.77349 0.0
H522 H 0.73918 0.88641 0.93461 0.0
H523 H 0.79223 0.8869 0.86566 0.0
H524 H 0.79431 0.90831 0.77756 0.0
H525 H 0.71857 0.88618 0.77708 0.0
H526 H 0.7093 0.90238 0.80041 0.0
H527 H 0.71105 0.8861 0.85767 0.0
H528 H 0.73266 0.91632 0.92937 0.0
H529 H 0.73105 0.93269 0.87229 0.0
H530 H 0.75506 0.93703 0.89796 0.0
H531 H 0.79264 0.93117 0.70177 0.0
H532 H 0.78623 0.95363 0.63703 0.0
H533 H 0.73356 0.93861 0.74874 0.0
C534 C 0.75106 0.89085 0.9005 0.0
C535 C 0.76555 0.88493 0.90745 0.0
C536 C 0.78095 0.89119 0.86188 0.0
C537 C 0.78228 0.90338 0.81137 0.0
C538 C 0.76805 0.90919 0.80635 0.0
C539 C 0.75261 0.90309 0.84906 0.0
C540 C 0.73964 0.91206 0.8324 0.0
C541 C 0.71838 0.8957 0.8159 0.0
C542 C 0.73961 0.92532 0.88622 0.0
C543 C 0.75048 0.92435 0.77445 0.0
C544 C 0.76682 0.92236 0.76071 0.0
C545 C 0.77979 0.93273 0.71154 0.0
C546 C 0.77606 0.94554 0.67521 0.0
C547 C 0.75939 0.94787 0.68765 0.0
C548 C 0.7463 0.93696 0.73772 0.0
H549 H 0.26837 0.95656 0.91363 0.0
H550 H 0.29728 0.92611 0.99567 0.0
H551 H 0.27776 0.89752 0.92659 0.0
H552 H 0.21962 0.91288 0.89621 0.0
H553 H 0.21439 0.92043 0.82142 0.0
H554 H 0.23057 0.93893 0.87741 0.0
H555 H 0.25841 0.95455 0.79296 0.0
H556 H 0.24229 0.93616 0.73665 0.0
H557 H 0.26642 0.93916 0.75372 0.0
H558 H 0.25571 0.87233 0.85078 0.0
H559 H 0.23252 0.85166 0.768 0.0
H560 H 0.21706 0.89742 0.73144 0.0
C561 C 0.2706 0.94388 0.91691 0.0
C562 C 0.28441 0.94365 0.96032 0.0
C563 C 0.28685 0.92675 0.96304 0.0
C564 C 0.27579 0.91035 0.924 0.0
C565 C 0.26229 0.91099 0.88221 0.0
C566 C 0.25962 0.92726 0.87795 0.0
C567 C 0.24415 0.9239 0.82797 0.0
C568 C 0.22611 0.92404 0.85754 0.0
C569 C 0.25337 0.93936 0.77466 0.0
C570 C 0.23866 0.90324 0.80502 0.0
C571 C 0.24934 0.89618 0.83739 0.0
C572 C 0.24723 0.87765 0.82499 0.0
C573 C 0.23398 0.86602 0.77769 0.0
C574 C 0.22293 0.87287 0.74295 0.0
C575 C 0.22521 0.89172 0.7573 0.0
H576 H 0.43986 0.28262 0.78135 0.0
H577 H 0.38036 0.2564 0.86063 0.0
H578 H 0.36934 0.22732 0.7906 0.0
H579 H 0.42457 0.26707 0.62186 0.0
H580 H 0.44471 0.26244 0.60553 0.0
H581 H 0.44795 0.28091 0.6629 0.0
H582 H 0.45784 0.26314 0.74712 0.0
H583 H 0.45458 0.24458 0.69003 0.0
H584 H 0.4412 0.23718 0.7638 0.0
H585 H 0.36487 0.20106 0.7116 0.0
H586 H 0.3669 0.18022 0.62734 0.0
H587 H 0.42926 0.22395 0.59882 0.0
C588 C 0.42451 0.27074 0.78426 0.0
C589 C 0.41098 0.27178 0.82674 0.0
C590 C 0.391 0.25596 0.82854 0.0
C591 C 0.38462 0.23936 0.78902 0.0
C592 C 0.39836 0.23882 0.7478 0.0
C593 C 0.41787 0.25414 0.74497 0.0
C594 C 0.42958 0.25015 0.69559 0.0
C595 C 0.43714 0.26609 0.64338 0.0
C596 C 0.44682 0.24868 0.72597 0.0
C597 C 0.41361 0.23017 0.67103 0.0
C598 C 0.39574 0.22385 0.70191 0.0
C599 C 0.3788 0.20587 0.68713 0.0
C600 C 0.38012 0.19412 0.63921 0.0
C601 C 0.39825 0.20041 0.60636 0.0
C602 C 0.4152 0.21866 0.62298 0.0
H603 H 0.9086 0.21881 0.78263 0.0
H604 H 0.86023 0.22873 0.72758 0.0
H605 H 0.88066 0.25053 0.64167 0.0
H606 H 0.94788 0.26855 0.75357 0.0
H607 H 0.96518 0.26169 0.7219 0.0
H608 H 0.94659 0.24568 0.77811 0.0
H609 H 0.93381 0.21633 0.69954 0.0
H610 H 0.95244 0.23223 0.64317 0.0
H611 H 0.92653 0.21916 0.62106 0.0
H612 H 0.90578 0.2722 0.56591 0.0
H613 H 0.93479 0.29256 0.49939 0.0
H614 H 0.9683 0.2697 0.59879 0.0
C615 C 0.90229 0.22539 0.75189 0.0
C616 C 0.88276 0.22203 0.76211 0.0
C617 C 0.87512 0.23109 0.72121 0.0
C618 C 0.8866 0.24351 0.672 0.0
C619 C 0.90579 0.24681 0.66382 0.0
C620 C 0.91368 0.23803 0.70208 0.0
C621 C 0.93507 0.24478 0.68293 0.0
C622 C 0.94953 0.25584 0.73738 0.0
C623 C 0.93708 0.22707 0.66033 0.0
C624 C 0.93787 0.25883 0.62859 0.0
C625 C 0.92066 0.25962 0.61877 0.0
C626 C 0.91934 0.27167 0.57274 0.0
C627 C 0.93601 0.28326 0.53523 0.0
C628 C 0.95394 0.28281 0.54357 0.0
C629 C 0.95483 0.27035 0.59103 0.0
H630 H 0.9514 0.75755 0.75977 0.0
H631 H 0.9323 0.69512 0.73204 0.0
H632 H 0.90913 0.69316 0.64879 0.0
H633 H 0.90362 0.75317 0.73868 0.0
H634 H 0.91305 0.77647 0.69725 0.0
H635 H 0.92853 0.77319 0.75378 0.0
H636 H 0.9558 0.78268 0.66851 0.0
H637 H 0.94043 0.78607 0.61177 0.0
H638 H 0.9495 0.76924 0.59495 0.0
H639 H 0.8873 0.69763 0.57065 0.0
H640 H 0.86914 0.70855 0.50056 0.0
H641 H 0.90263 0.76816 0.57794 0.0
C642 C 0.94244 0.74349 0.73598 0.0
C643 C 0.94372 0.72649 0.75256 0.0
C644 C 0.93165 0.70837 0.72024 0.0
C645 C 0.91841 0.70709 0.67288 0.0
C646 C 0.91741 0.72406 0.6581 0.0
C647 C 0.92916 0.74194 0.68842 0.0
C648 C 0.92509 0.75792 0.66373 0.0
C649 C 0.91709 0.76563 0.71651 0.0
C650 C 0.94382 0.77498 0.6329 0.0
C651 C 0.90916 0.74619 0.61501 0.0
C652 C 0.90492 0.72667 0.61263 0.0
C653 C 0.89054 0.7129 0.57191 0.0
C654 C 0.88027 0.71924 0.53234 0.0
C655 C 0.88445 0.73922 0.53355 0.0
C656 C 0.89911 0.75281 0.57563 0.0
H657 H 0.90097 0.76428 0.26442 0.0
H658 H 0.85041 0.70618 0.22145 0.0
H659 H 0.86954 0.70205 0.13628 0.0
H660 H 0.91703 0.77837 0.10113 0.0
H661 H 0.94319 0.79087 0.12005 0.0
H662 H 0.9255 0.78972 0.17752 0.0
H663 H 0.93847 0.77375 0.25824 0.0
H664 H 0.95616 0.77481 0.20101 0.0
H665 H 0.9388 0.75142 0.23717 0.0
H666 H 0.89392 0.70321 0.05915 0.0
H667 H 0.92217 0.71007 0.99057 0.0
H668 H 0.95753 0.76782 0.07914 0.0
C669 C 0.8939 0.75075 0.23684 0.0
C670 C 0.87412 0.73555 0.24986 0.0
C671 C 0.86547 0.71806 0.21262 0.0
C672 C 0.87623 0.71554 0.16401 0.0
C673 C 0.89565 0.73067 0.15272 0.0
C674 C 0.90444 0.74799 0.18761 0.0
C675 C 0.92566 0.76179 0.16535 0.0
C676 C 0.92798 0.78135 0.13947 0.0
C677 C 0.94066 0.76566 0.21862 0.0
C678 C 0.92738 0.74937 0.11294 0.0
C679 C 0.90984 0.73148 0.10685 0.0
C680 C 0.90771 0.7172 0.06317 0.0
C681 C 0.92393 0.72125 0.0245 0.0
C682 C 0.94213 0.7395 0.02925 0.0
C683 C 0.9438 0.75379 0.07404 0.0
H684 H 0.43925 0.2293 0.27929 0.0
H685 H 0.38175 0.20768 0.36959 0.0
H686 H 0.37518 0.22943 0.30121 0.0
H687 H 0.45072 0.28042 0.25713 0.0
H688 H 0.46194 0.28298 0.18061 0.0
H689 H 0.4627 0.26627 0.23826 0.0
H690 H 0.44605 0.23725 0.15839 0.0
H691 H 0.44527 0.25387 0.1005 0.0
H692 H 0.4227 0.23157 0.12258 0.0
H693 H 0.37445 0.25302 0.22379 0.0
H694 H 0.3789 0.27621 0.13779 0.0
H695 H 0.43646 0.28237 0.09372 0.0
C696 C 0.42535 0.22926 0.28489 0.0
C697 C 0.41103 0.2168 0.33001 0.0
C698 C 0.39293 0.21702 0.33536 0.0
C699 C 0.38907 0.22939 0.29686 0.0
C700 C 0.4034 0.2414 0.25282 0.0
C701 C 0.42113 0.24141 0.24621 0.0
C702 C 0.43361 0.25532 0.19333 0.0
C703 C 0.45342 0.27225 0.21888 0.0
C704 C 0.43711 0.24381 0.14058 0.0
C705 C 0.42006 0.26302 0.17134 0.0
C706 C 0.40279 0.25487 0.20678 0.0
C707 C 0.3879 0.25952 0.19566 0.0
C708 C 0.39061 0.27276 0.14662 0.0
C709 C 0.40803 0.28116 0.1088 0.0
C710 C 0.42299 0.27625 0.12174 0.0
H711 H 0.94143 0.29693 0.23075 0.0
H712 H 0.97657 0.26975 0.28421 0.0
H713 H 0.95793 0.24274 0.20861 0.0
H714 H 0.89524 0.2516 0.2144 0.0
H715 H 0.88687 0.25956 0.14679 0.0
H716 H 0.90357 0.27762 0.20287 0.0
H717 H 0.92855 0.29689 0.113 0.0
H718 H 0.91188 0.27892 0.05657 0.0
H719 H 0.93719 0.28403 0.06278 0.0
H720 H 0.93509 0.21805 0.1321 0.0
H721 H 0.90936 0.19691 0.05577 0.0
H722 H 0.88833 0.23933 0.04881 0.0
C723 C 0.94534 0.28542 0.22596 0.0
C724 C 0.96052 0.28553 0.26353 0.0
C725 C 0.96502 0.27005 0.25622 0.0
C726 C 0.95453 0.25461 0.21327 0.0
C727 C 0.93954 0.25479 0.17769 0.0
C728 C 0.93492 0.26975 0.18314 0.0
C729 C 0.91768 0.26589 0.13997 0.0
C730 C 0.89978 0.26352 0.17831 0.0
C731 C 0.92422 0.28242 0.09012 0.0
C732 C 0.91329 0.24633 0.11006 0.0
C733 C 0.92616 0.24032 0.13267 0.0
C734 C 0.92497 0.22262 0.1137 0.0
C735 C 0.91022 0.21068 0.07033 0.0
C736 C 0.89677 0.21641 0.04606 0.0
C737 C 0.89841 0.23457 0.06619 0.0
H738 H 0.09953 0.70501 0.38501 0.0
H739 H 0.15138 0.70396 0.31192 0.0
H740 H 0.17293 0.73808 0.34917 0.0
H741 H 0.11671 0.75692 0.34686 0.0
H742 H 0.10699 0.7616 0.41805 0.0
H743 H 0.09503 0.737 0.38444 0.0
H744 H 0.09892 0.72256 0.49039 0.0
H745 H 0.11068 0.74706 0.52445 0.0
H746 H 0.12324 0.73281 0.52573 0.0
H747 H 0.18924 0.77135 0.39618 0.0
H748 H 0.19985 0.80208 0.45679 0.0
H749 H 0.1382 0.78325 0.49935 0.0
C750 C 0.11542 0.71196 0.37703 0.0
C751 C 0.12371 0.70172 0.34534 0.0
C752 C 0.14459 0.7114 0.33584 0.0
C753 C 0.15701 0.73086 0.35663 0.0
C754 C 0.14841 0.74061 0.38684 0.0
C755 C 0.12816 0.73156 0.39753 0.0
C756 C 0.12307 0.74545 0.43316 0.0
C757 C 0.10965 0.75054 0.39323 0.0
C758 C 0.11341 0.73643 0.49724 0.0
C759 C 0.14369 0.76351 0.44144 0.0
C760 C 0.15799 0.76031 0.41378 0.0
C761 C 0.1782 0.77416 0.4175 0.0
C762 C 0.18408 0.79156 0.45188 0.0
C763 C 0.16983 0.7951 0.48175 0.0
C764 C 0.14932 0.78109 0.47544 0.0
H765 H 0.44727 0.48115 0.27935 0.0
H766 H 0.49247 0.5042 0.42541 0.0
H767 H 0.46609 0.49212 0.50724 0.0
H768 H 0.41246 0.49181 0.35176 0.0
H769 H 0.39075 0.46904 0.32756 0.0
H770 H 0.4131 0.47943 0.28061 0.0
H771 H 0.41356 0.44636 0.28886 0.0
H772 H 0.39109 0.43579 0.33528 0.0
H773 H 0.4129 0.43595 0.3656 0.0
H774 H 0.4348 0.48022 0.57191 0.0
H775 H 0.4008 0.46466 0.61655 0.0
H776 H 0.3759 0.44621 0.42901 0.0
C777 C 0.45156 0.48351 0.32865 0.0
C778 C 0.47183 0.49369 0.34639 0.0
C779 C 0.47698 0.49636 0.41113 0.0
C780 C 0.46212 0.48966 0.45776 0.0
C781 C 0.44224 0.47993 0.43869 0.0
C782 C 0.43693 0.47643 0.37574 0.0
C783 C 0.41449 0.46496 0.36792 0.0
C784 C 0.40728 0.47704 0.3297 0.0
C785 C 0.40761 0.44456 0.33764 0.0
C786 C 0.40797 0.46287 0.43627 0.0
C787 C 0.42422 0.47188 0.47624 0.0
C788 C 0.42198 0.47286 0.54117 0.0
C789 C 0.40264 0.46412 0.56601 0.0
C790 C 0.38581 0.45418 0.52618 0.0
C791 C 0.38855 0.45355 0.4605 0.0
H792 H 0.70142 0.992 0.46937 0.0
H793 H 0.76308 0.03978 0.4696 0.0
H794 H 0.75304 0.06238 0.42315 0.0
H795 H 0.68865 1.0062 0.31794 0.0
H796 H 0.66388 0.99967 0.34286 0.0
H797 H 0.67573 0.98672 0.37539 0.0
H798 H 0.67019 0.99581 0.48826 0.0
H799 H 0.65844 0.00889 0.45608 0.0
H800 H 0.6795 0.02153 0.50822 0.0
H801 H 0.73677 0.08067 0.38518 0.0
H802 H 0.71508 0.09308 0.34599 0.0
H803 H 0.66379 0.0337 0.36153 0.0
C804 C 0.71279 0.00716 0.45902 0.0
C805 C 0.73306 0.01406 0.47319 0.0
C806 C 0.74749 0.03403 0.45891 0.0
C807 C 0.74194 0.04707 0.4327 0.0
C808 C 0.72192 0.03994 0.42002 0.0
C809 C 0.70754 0.02043 0.4316 0.0
C810 C 0.68708 0.01679 0.4125 0.0
C811 C 0.67832 1.00143 0.35898 0.0
C812 C 0.67297 0.01038 0.46968 0.0
C813 C 0.69229 0.0374 0.38951 0.0
C814 C 0.71248 0.05049 0.39498 0.0
C815 C 0.72096 0.07055 0.3799 0.0
C816 C 0.70849 0.07748 0.35807 0.0
C817 C 0.68781 0.06435 0.35057 0.0
C818 C 0.6796 0.044 0.36625 0.0
H819 H 0.71801 0.10842 0.16273 0.0
H820 H 0.71659 0.16242 0.20497 0.0
H821 H 0.74851 0.18225 0.15041 0.0
H822 H 0.77067 0.12933 0.18558 0.0
H823 H 0.77418 0.11616 0.12141 0.0
H824 H 0.7505 0.10546 0.16132 0.0
H825 H 0.73274 0.10244 0.05494 0.0
H826 H 0.75632 0.11288 0.01462 0.0
H827 H 0.74101 0.12416 1.00582 0.0
H828 H 0.78026 0.1966 0.09516 0.0
H829 H 0.8103 0.20503 0.03357 0.0
H830 H 0.79324 0.14262 0.0258 0.0
C831 C 0.72432 0.12438 0.15938 0.0
C832 C 0.71477 0.13389 0.18806 0.0
C833 C 0.72362 0.15482 0.18361 0.0
C834 C 0.7418 0.16625 0.15279 0.0
C835 C 0.7511 0.1566 0.12664 0.0
C836 C 0.74274 0.13618 0.12887 0.0
C837 C 0.75635 0.12992 0.09694 0.0
C838 C 0.76333 0.1196 0.14414 0.0
C839 C 0.74598 0.11656 0.03967 0.0
C840 C 0.77354 0.15004 0.07656 0.0
C841 C 0.77003 0.16512 0.09462 0.0
C842 C 0.78322 0.18496 0.08068 0.0
C843 C 0.80027 0.1896 0.04577 0.0
C844 C 0.80415 0.17452 0.02525 0.0
C845 C 0.79079 0.15446 0.04184 0.0
H846 H 0.98476 0.68257 0.02999 0.0
H847 H 0.0336 0.74258 0.99978 0.0
H848 H 0.05645 0.73404 0.05485 0.0
H849 H 1.00009 0.67761 0.18846 0.0
H850 H 0.99202 0.6516 0.17895 0.0
H851 H 0.97968 0.66246 0.13631 0.0
H852 H 0.98672 0.65007 0.03112 0.0
H853 H 0.9993 0.63939 0.07337 0.0
H854 H 0.01197 0.65707 1.01083 0.0
H855 H 0.07442 0.71825 0.10667 0.0
H856 H 0.08523 0.69782 0.16638 0.0
H857 H 0.02422 0.64909 0.17093 0.0
C858 C 1.00024 0.69391 0.03546 0.0
C859 C 1.00746 0.71321 1.01074 0.0
C860 C 0.02776 0.72775 0.01898 0.0
C861 C 0.04087 0.723 0.04969 0.0
C862 C 0.03336 0.70375 0.07286 0.0
C863 C 0.01344 0.68956 0.06738 0.0
C864 C 1.00904 0.67025 0.09884 0.0
C865 C 0.99434 0.66519 0.15392 0.0
C866 C 1.0013 0.65319 0.05065 0.0
C867 C 0.02962 0.67574 0.12226 0.0
C868 C 0.04351 0.69502 0.10585 0.0
C869 C 0.06365 0.70319 0.12038 0.0
C870 C 0.06967 0.69147 0.15383 0.0
C871 C 0.05553 0.67198 0.17331 0.0
C872 C 0.0353 0.66402 0.15692 0.0
H873 H 0.44076 0.37769 0.03452 0.0
H874 H 0.49047 0.36723 0.01392 0.0
H875 H 0.5128 0.39976 0.06313 0.0
H876 H 0.46856 0.42987 0.99605 0.0
H877 H 0.45543 0.43677 0.05145 0.0
H878 H 0.44314 0.41232 0.01687 0.0
H879 H 0.4352 0.39649 0.1285 0.0
H880 H 0.44744 0.42089 0.16343 0.0
H881 H 0.45518 0.40324 0.18409 0.0
H882 H 0.52952 0.43292 0.11715 0.0
H883 H 0.54004 0.46552 0.16631 0.0
H884 H 0.48003 0.45557 0.14579 0.0
C885 C 0.45632 0.38221 0.0408 0.0
C886 C 0.46388 0.36988 0.02083 0.0
C887 C 0.48438 0.37644 0.02888 0.0
C888 C 0.49716 0.39487 0.0569 0.0
C889 C 0.48928 0.4067 0.07585 0.0
C890 C 0.46938 0.40074 0.06767 0.0
C891 C 0.46489 0.41662 0.09019 0.0
C892 C 0.45758 0.42435 0.03536 0.0
C893 C 0.44978 0.40884 0.1448 0.0
C894 C 0.48534 0.43237 0.11267 0.0
C895 C 0.49914 0.42624 0.10448 0.0
C896 C 0.51889 0.43795 0.12339 0.0
C897 C 0.52471 0.45641 0.15138 0.0
C898 C 0.5109 0.46314 0.15943 0.0
C899 C 0.49098 0.45093 0.13951 0.0
H900 H 0.99085 0.37819 0.52816 0.0
H901 H 0.04311 0.37544 0.4709 0.0
H902 H 0.06478 0.4079 0.52124 0.0
H903 H 0.01195 0.43192 0.51348 0.0
H904 H 0.99999 0.43389 0.58386 0.0
H905 H 0.98846 0.41124 0.53853 0.0
H906 H 0.98715 0.39119 0.63816 0.0
H907 H 0.99861 0.41375 0.68378 0.0
H908 H 1.00976 0.39821 0.68134 0.0
H909 H 0.08082 0.44049 0.57688 0.0
H910 H 0.09024 0.46952 0.64569 0.0
H911 H 0.02776 0.45005 0.67564 0.0
C912 C 1.00685 0.3846 0.52591 0.0
C913 C 0.01541 0.37452 0.49547 0.0
C914 C 0.03636 0.38303 0.49422 0.0
C915 C 0.04877 0.40148 0.52228 0.0
C916 C 0.03997 0.41107 0.55236 0.0
C917 C 0.01951 0.40285 0.55532 0.0
C918 C 0.01399 0.41559 0.5951 0.0
C919 C 1.00294 0.42364 0.55535 0.0
C920 C 1.00165 0.40399 0.65303 0.0
C921 C 0.0345 0.43212 0.61409 0.0
C922 C 0.04927 0.42941 0.58782 0.0
C923 C 0.06941 0.44278 0.59793 0.0
C924 C 0.07462 0.45925 0.63683 0.0
C925 C 0.05974 0.46195 0.66607 0.0
C926 C 0.03944 0.44826 0.65411 0.0
H927 H 0.70952 0.65957 0.63017 0.0
H928 H 0.70736 0.71315 0.67169 0.0
H929 H 0.74108 0.73356 0.62654 0.0
H930 H 0.76203 0.67902 0.65961 0.0
H931 H 0.76527 0.66609 0.59416 0.0
H932 H 0.74148 0.6557 0.63317 0.0
H933 H 0.72448 0.65422 0.52635 0.0
H934 H 0.74817 0.66449 0.48699 0.0
H935 H 0.73351 0.67651 0.47953 0.0
H936 H 0.77534 0.74816 0.57917 0.0
H937 H 0.80597 0.75579 0.52071 0.0
H938 H 0.78471 0.69267 0.5019 0.0
C939 C 0.71624 0.67561 0.62998 0.0
C940 C 0.70596 0.68484 0.65468 0.0
C941 C 0.71501 0.70582 0.65276 0.0
C942 C 0.73418 0.71753 0.62762 0.0
C943 C 0.74396 0.708 0.60364 0.0
C944 C 0.73518 0.68751 0.60361 0.0
C945 C 0.74837 0.68096 0.57113 0.0
C946 C 0.75466 0.66978 0.61729 0.0
C947 C 0.73801 0.6683 0.51252 0.0
C948 C 0.76592 0.70096 0.55294 0.0
C949 C 0.76324 0.71637 0.57317 0.0
C950 C 0.77757 0.73621 0.56282 0.0
C951 C 0.79495 0.7404 0.5299 0.0
C952 C 0.79766 0.72483 0.50669 0.0
C953 C 0.78298 0.70487 0.51886 0.0
H954 H 0.47189 0.17811 0.5528 0.0
H955 H 0.41542 0.12439 0.51935 0.0
H956 H 0.42901 0.10423 0.5639 0.0
H957 H 0.50411 0.15786 0.52004 0.0
H958 H 0.52126 0.17121 0.58304 0.0
H959 H 0.50755 0.18152 0.54555 0.0
H960 H 0.49367 0.18414 0.65415 0.0
H961 H 0.50745 0.17399 0.69199 0.0
H962 H 0.4809 0.16229 0.7032 0.0
H963 H 0.44879 0.08978 0.60989 0.0
H964 H 0.47206 0.08221 0.66649 0.0
H965 H 0.51508 0.1453 0.67735 0.0
C966 C 0.46245 0.1621 0.55473 0.0
C967 C 0.44262 0.15278 0.53241 0.0
C968 C 0.43062 0.13183 0.53646 0.0
C969 C 0.43825 0.12024 0.56127 0.0
C970 C 0.45784 0.12983 0.5827 0.0
C971 C 0.46971 0.1503 0.58069 0.0
C972 C 0.48987 0.15688 0.61047 0.0
C973 C 0.50669 0.1675 0.56186 0.0
C974 C 0.49316 0.1701 0.6684 0.0
C975 C 0.48744 0.13693 0.62949 0.0
C976 C 0.46897 0.12152 0.61202 0.0
C977 C 0.46328 0.10173 0.62399 0.0
C978 C 0.47665 0.09757 0.65587 0.0
C979 C 0.49539 0.11314 0.67636 0.0
C980 C 0.50087 0.13307 0.66232 0.0
H981 H 0.38494 0.98522 1.00963 0.0
H982 H 0.36976 0.03203 1.0062 0.0
H983 H 0.4019 0.05469 0.95659 0.0
H984 H 0.43746 0.01644 0.04114 0.0
H985 H 0.4453 1.0033 0.98908 0.0
H986 H 0.4211 0.99036 0.02575 0.0
H987 H 0.40453 0.97927 0.91587 0.0
H988 H 0.42868 0.99211 0.87889 0.0
H989 H 0.40965 0.99776 0.85595 0.0
H990 H 0.43558 0.07285 0.91252 0.0
H991 H 0.4686 0.0851 0.86522 0.0
H992 H 0.46249 0.02667 0.88792 0.0
C993 C 0.38845 1.00023 0.9982 0.0
C994 C 0.37481 0.00684 0.01165 0.0
C995 C 0.37984 0.02655 0.99576 0.0
C996 C 0.39814 0.03961 0.9679 0.0
C997 C 0.41123 0.03273 0.95522 0.0
C998 C 0.40664 0.01348 0.96883 0.0
C999 C 0.4234 0.00998 0.94774 0.0
C1000 C 0.43234 1.00471 1.00431 0.0
C1001 C 0.41613 0.99382 0.89656 0.0
C1002 C 0.43808 0.03032 0.92087 0.0
C1003 C 0.43072 0.04318 0.92661 0.0
C1004 C 0.44151 0.06292 0.9073 0.0
C1005 C 0.46032 0.06976 0.88077 0.0
C1006 C 0.46816 0.05687 0.87283 0.0
C1007 C 0.45683 0.03683 0.89311 0.0
H1008 H 0.10409 0.47161 0.88766 0.0
H1009 H 0.15474 0.5234 0.80435 0.0
H1010 H 0.17678 0.51106 0.83901 0.0
H1011 H 0.13019 0.46911 0.02502 0.0
H1012 H 0.11759 0.44234 0.02745 0.0
H1013 H 0.10528 0.45471 0.99415 0.0
H1014 H 0.09952 0.43502 0.89026 0.0
H1015 H 0.11201 0.42274 0.92308 0.0
H1016 H 0.1205 0.43617 0.84962 0.0
H1017 H 0.19379 0.49451 0.88427 0.0
H1018 H 0.20543 0.4751 0.94447 0.0
H1019 H 0.14465 0.43317 0.99927 0.0
C1020 C 0.11982 0.48033 0.87679 0.0
C1021 C 0.1276 0.49851 0.84304 0.0
C1022 C 0.1483 0.50945 0.82996 0.0
C1023 C 0.161 0.50253 0.84922 0.0
C1024 C 0.1529 0.48456 0.88164 0.0
C1025 C 0.13286 0.4736 0.89588 0.0
C1026 C 0.12838 0.4551 0.93357 0.0
C1027 C 0.11986 0.45534 0.99892 0.0
C1028 C 0.11426 0.43613 0.89693 0.0
C1029 C 0.14911 0.45763 0.93883 0.0
C1030 C 0.1629 0.47471 0.9079 0.0
C1031 C 0.18314 0.481 0.90817 0.0
C1032 C 0.18961 0.46987 0.94237 0.0
C1033 C 0.17593 0.45254 0.97561 0.0
C1034 C 0.15533 0.44608 0.97283 0.0
H1035 H 0.69715 0.71791 0.83231 0.0
H1036 H 0.63623 0.70332 0.86721 0.0
H1037 H 0.64817 0.73249 0.93715 0.0
H1038 H 0.71761 0.73879 0.99031 0.0
H1039 H 0.74062 0.75848 0.95838 0.0
H1040 H 0.72736 0.73504 0.91759 0.0
H1041 H 0.72669 0.75346 0.81633 0.0
H1042 H 0.7398 0.77691 0.85686 0.0
H1043 H 0.71623 0.76961 0.81958 0.0
H1044 H 0.6662 0.76365 0.99771 0.0
H1045 H 0.68942 0.79616 0.04375 0.0
H1046 H 0.73938 0.79262 0.96569 0.0
C1047 C 0.68641 0.72065 0.85622 0.0
C1048 C 0.66577 0.70827 0.84567 0.0
C1049 C 0.65207 0.71258 0.87554 0.0
C1050 C 0.65871 0.72907 0.91529 0.0
C1051 C 0.67914 0.74127 0.92388 0.0
C1052 C 0.69285 0.73739 0.89517 0.0
C1053 C 0.71397 0.75397 0.90827 0.0
C1054 C 0.72557 0.7461 0.94589 0.0
C1055 C 0.72481 0.76408 0.84658 0.0
C1056 C 0.70992 0.76782 0.94808 0.0
C1057 C 0.6897 0.75997 0.95704 0.0
C1058 C 0.68208 0.76993 0.99134 0.0
C1059 C 0.69544 0.78844 0.01729 0.0
C1060 C 0.71626 0.79701 1.00838 0.0
C1061 C 0.72356 0.78649 0.97325 0.0
H1062 H 0.81687 0.05112 0.68575 0.0
H1063 H 0.7547 0.03483 0.67248 0.0
H1064 H 0.76225 0.06608 0.72613 0.0
H1065 H 0.82496 0.07343 0.84233 0.0
H1066 H 0.85006 0.09257 0.82429 0.0
H1067 H 0.83951 0.06877 0.78572 0.0
H1068 H 0.84735 0.0864 0.67679 0.0
H1069 H 0.85768 0.11022 0.71501 0.0
H1070 H 0.83783 0.10278 0.65849 0.0
H1071 H 0.77728 0.10054 0.77423 0.0
H1072 H 0.79779 0.13327 0.82586 0.0
H1073 H 0.84947 0.12573 0.81327 0.0
C1074 C 0.80482 0.05404 0.69476 0.0
C1075 C 0.78521 0.04056 0.675 0.0
C1076 C 0.76981 0.04487 0.68774 0.0
C1077 C 0.77398 0.06265 0.71777 0.0
C1078 C 0.79355 0.07581 0.73561 0.0
C1079 C 0.80864 0.07152 0.72568 0.0
C1080 C 0.82834 0.08794 0.75053 0.0
C1081 C 0.83617 0.08021 0.8039 0.0
C1082 C 0.8437 0.09739 0.697 0.0
C1083 C 0.82203 0.10223 0.77532 0.0
C1084 C 0.80197 0.09513 0.76563 0.0
C1085 C 0.79296 0.10615 0.78268 0.0
C1086 C 0.80472 0.12475 0.81152 0.0
C1087 C 0.82513 0.13192 0.82379 0.0
C1088 C 0.83384 0.12051 0.80499 0.0
H1089 H 0.1216 0.8381 0.69287 0.0
H1090 H 0.13502 0.79009 0.69321 0.0
H1091 H 0.10244 0.76793 0.743 0.0
H1092 H 0.09611 0.82566 0.84559 0.0
H1093 H 0.07811 0.83253 0.82093 0.0
H1094 H 0.10266 0.84472 0.78661 0.0
H1095 H 0.0871 0.83494 0.67498 0.0
H1096 H 0.06251 0.82257 0.70893 0.0
H1097 H 0.07013 0.80915 0.65732 0.0
H1098 H 0.06766 0.75042 0.78513 0.0
H1099 H 0.0342 0.73933 0.82778 0.0
H1100 H 0.04368 0.79909 0.80637 0.0
C1101 C 0.11775 0.82296 0.70392 0.0
C1102 C 0.13084 0.81579 0.68906 0.0
C1103 C 0.1253 0.79593 0.7045 0.0
C1104 C 0.10678 0.78321 0.73249 0.0
C1105 C 0.09411 0.79066 0.74557 0.0
C1106 C 0.09945 0.81015 0.73279 0.0
C1107 C 0.08312 0.81444 0.75223 0.0
C1108 C 0.09044 0.83027 0.80445 0.0
C1109 C 0.07525 0.82064 0.69494 0.0
C1110 C 0.06762 0.79421 0.7771 0.0
C1111 C 0.07425 0.78071 0.77223 0.0
C1112 C 0.06238 0.76089 0.78972 0.0
C1113 C 0.04332 0.75472 0.8135 0.0
C1114 C 0.03629 0.76834 0.82037 0.0
C1115 C 0.04867 0.78838 0.80196 0.0
H1116 H 0.34556 0.38663 0.75056 0.0
H1117 H 0.35161 0.36766 0.56349 0.0
H1118 H 0.36978 0.35187 0.6086 0.0
H1119 H 0.3926 0.39672 0.81353 0.0
H1120 H 0.38294 0.38662 0.8906 0.0
H1121 H 0.37101 0.39704 0.84357 0.0
H1122 H 0.33742 0.36402 0.85207 0.0
H1123 H 0.3492 0.35357 0.89963 0.0
H1124 H 0.33611 0.34108 0.82867 0.0
H1125 H 0.38915 0.34 0.67363 0.0
H1126 H 0.4036 0.32818 0.75578 0.0
H1127 H 0.38184 0.35177 0.90119 0.0
C1128 C 0.3507 0.3791 0.71929 0.0
C1129 C 0.34732 0.3784 0.6536 0.0
C1130 C 0.354 0.36824 0.61403 0.0
C1131 C 0.36444 0.35937 0.63914 0.0
C1132 C 0.36771 0.36045 0.70408 0.0
C1133 C 0.36065 0.36967 0.74381 0.0
C1134 C 0.36515 0.36772 0.81223 0.0
C1135 C 0.37874 0.38825 0.84169 0.0
C1136 C 0.34582 0.35589 0.85039 0.0
C1137 C 0.37598 0.35613 0.80469 0.0
C1138 C 0.37765 0.35242 0.74185 0.0
C1139 C 0.38774 0.34262 0.72304 0.0
C1140 C 0.39599 0.33607 0.76984 0.0
C1141 C 0.39367 0.33897 0.8345 0.0
C1142 C 0.38363 0.34921 0.85198 0.0
H1143 H 0.0579 0.32379 0.32575 0.0
H1144 H 0.0459 0.37251 0.3429 0.0
H1145 H 0.07888 0.39558 0.29802 0.0
H1146 H 0.1111 0.35194 0.35938 0.0
H1147 H 0.11744 0.33921 0.30079 0.0
H1148 H 0.09342 0.3266 0.33864 0.0
H1149 H 0.07612 0.31903 0.22935 0.0
H1150 H 0.10008 0.33152 0.19123 0.0
H1151 H 0.08208 0.33921 0.17522 0.0
H1152 H 0.1131 0.41352 0.25138 0.0
H1153 H 0.14488 0.42436 0.1953 0.0
H1154 H 0.13403 0.36385 0.20141 0.0
C1155 C 0.06234 0.33934 0.32037 0.0
C1156 C 0.0494 0.34639 0.33792 0.0
C1157 C 0.05555 0.36678 0.3294 0.0
C1158 C 0.07432 0.38004 0.30437 0.0
C1159 C 0.08672 0.37268 0.28722 0.0
C1160 C 0.08094 0.35278 0.294 0.0
C1161 C 0.09663 0.34856 0.26761 0.0
C1162 C 0.10515 0.34114 0.31973 0.0
C1163 C 0.08822 0.33371 0.21258 0.0
C1164 C 0.11201 0.36915 0.24482 0.0
C1165 C 0.10615 0.3829 0.2576 0.0
C1166 C 0.11787 0.40289 0.24103 0.0
C1167 C 0.13593 0.40894 0.20946 0.0
C1168 C 0.1419 0.39497 0.19392 0.0
C1169 C 0.12982 0.37487 0.21253 0.0
H1170 H 0.81029 0.76642 0.29989 0.0
H1171 H 0.86647 0.81828 0.3515 0.0
H1172 H 0.85532 0.84004 0.30399 0.0
H1173 H 0.80462 0.78479 0.15051 0.0
H1174 H 0.77805 0.77416 0.15751 0.0
H1175 H 0.79024 0.76255 0.19667 0.0
H1176 H 0.77517 0.76482 0.30336 0.0
H1177 H 0.76306 0.7766 0.26455 0.0
H1178 H 0.77941 0.78862 0.33048 0.0
H1179 H 0.83923 0.85615 0.24676 0.0
H1180 H 0.81885 0.86579 0.18226 0.0
H1181 H 0.77215 0.8041 0.17112 0.0
C1182 C 0.82025 0.78235 0.30106 0.0
C1183 C 0.83931 0.79063 0.32933 0.0
C1184 C 0.85183 0.81156 0.33023 0.0
C1185 C 0.84561 0.82407 0.30347 0.0
C1186 C 0.82674 0.81547 0.27644 0.0
C1187 C 0.81419 0.79512 0.27502 0.0
C1188 C 0.79474 0.78983 0.24216 0.0
C1189 C 0.79174 0.77708 0.18321 0.0
C1190 C 0.77705 0.77935 0.28788 0.0
C1191 C 0.79849 0.81038 0.22447 0.0
C1192 C 0.81708 0.82492 0.24492 0.0
C1193 C 0.82455 0.84496 0.23128 0.0
C1194 C 0.81289 0.8503 0.1948 0.0
C1195 C 0.79388 0.83573 0.17309 0.0
C1196 C 0.78643 0.81553 0.18881 0.0
H1197 H 0.31755 0.0421 0.19668 0.0
H1198 H 0.37059 0.03917 0.15173 0.0
H1199 H 0.3915 0.072 0.20089 0.0
H1200 H 0.33892 0.09588 0.17666 0.0
H1201 H 0.32594 0.09827 0.24366 0.0
H1202 H 0.31507 0.07535 0.19976 0.0
H1203 H 0.31226 0.05591 0.30247 0.0
H1204 H 0.32305 0.07875 0.34664 0.0
H1205 H 0.33419 0.06319 0.34967 0.0
H1206 H 0.40667 0.10469 0.25514 0.0
H1207 H 0.41517 0.13391 0.32156 0.0
H1208 H 0.35237 0.11497 0.33956 0.0
C1209 C 0.33358 0.04856 0.1967 0.0
C1210 C 0.34255 0.03828 0.17021 0.0
C1211 C 0.36351 0.04688 0.17202 0.0
C1212 C 0.37549 0.06555 0.19943 0.0
C1213 C 0.36627 0.0753 0.22567 0.0
C1214 C 0.3458 0.06706 0.2254 0.0
C1215 C 0.33972 0.08005 0.26151 0.0
C1216 C 0.3293 0.08785 0.21777 0.0
C1217 C 0.32653 0.0688 0.31845 0.0
C1218 C 0.35994 0.09672 0.2824 0.0
C1219 C 0.37504 0.09383 0.26008 0.0
C1220 C 0.395 0.10715 0.27295 0.0
C1221 C 0.39968 0.12374 0.31054 0.0
C1222 C 0.38445 0.12671 0.33577 0.0
C1223 C 0.36433 0.11307 0.32099 0.0
loop_
_geom_bond_atom_site_label_1
_geom_bond_atom_site_label_2
_geom_bond_distance
_geom_bond_site_symmetry_2
_ccdc_geom_bond_type
C0 O2 1.247 . S
C0 O4 1.258 . S
C1 O8 1.247 . S
C1 O9 1.258 . S
O2 C0 1.247 . S
O2 Zn3 2.028 . S
Zn3 O2 2.028 . S
Zn3 O7 2.035 . S
Zn3 O9 2.035 . S
Zn3 O10 2.028 . S
O4 C0 1.258 . S
O4 Zn5 2.035 . S
Zn5 O4 2.035 . S
Zn5 O6 2.028 . S
Zn5 O8 2.028 . S
Zn5 O11 2.035 . S
O6 Zn5 2.028 . S
O6 C12 1.247 . S
O7 Zn3 2.035 . S
O7 C12 1.258 . S
O8 C1 1.247 . S
O8 Zn5 2.028 . S
O9 C1 1.258 . S
O9 Zn3 2.035 . S
O10 Zn3 2.028 . S
O10 C13 1.247 . S
O11 Zn5 2.035 . S
O11 C13 1.258 . S
C12 O6 1.247 . S
C12 O7 1.258 . S
C13 O10 1.247 . S
C13 O11 1.258 . S
C14 O16 1.247 . S
C14 O18 1.258 . S
C15 O22 1.247 . S
C15 O23 1.258 . S
O16 C14 1.247 . S
O16 Zn17 2.028 . S
Zn17 O16 2.028 . S
Zn17 O21 2.035 . S
Zn17 O23 2.035 . S
Zn17 O24 2.028 . S
O18 C14 1.258 . S
O18 Zn19 2.035 . S
Zn19 O18 2.035 . S
Zn19 O20 2.028 . S
Zn19 O22 2.028 . S
Zn19 O25 2.035 . S
O20 Zn19 2.028 . S
O20 C26 1.247 . S
O21 Zn17 2.035 . S
O21 C26 1.258 . S
O22 C15 1.247 . S
O22 Zn19 2.028 . S
O23 C15 1.258 . S
O23 Zn17 2.035 . S
O24 Zn17 2.028 . S
O24 C27 1.247 . S
O25 Zn19 2.035 . S
O25 C27 1.258 . S
C26 O20 1.247 . S
C26 O21 1.258 . S
C27 O24 1.247 . S
C27 O25 1.258 . S
C28 O30 1.247 . S
C28 O32 1.258 . S
C29 O36 1.247 . S
C29 O37 1.258 . S
O30 C28 1.247 . S
O30 Zn31 2.028 . S
Zn31 O30 2.028 . S
Zn31 O35 2.035 . S
Zn31 O37 2.035 . S
Zn31 O38 2.028 . S
O32 C28 1.258 . S
O32 Zn33 2.035 . S
Zn33 O32 2.035 . S
Zn33 O34 2.028 . S
Zn33 O36 2.028 . S
Zn33 O39 2.035 . S
O34 Zn33 2.028 . S
O34 C40 1.247 . S
O35 Zn31 2.035 . S
O35 C40 1.258 . S
O36 C29 1.247 . S
O36 Zn33 2.028 . S
O37 C29 1.258 . S
O37 Zn31 2.035 . S
O38 Zn31 2.028 . S
O38 C41 1.247 . S
O39 Zn33 2.035 . S
O39 C41 1.258 . S
C40 O34 1.247 . S
C40 O35 1.258 . S
C41 O38 1.247 . S
C41 O39 1.258 . S
C42 O44 1.247 . S
C42 O46 1.258 . S
C43 O50 1.247 . S
C43 O51 1.258 . S
O44 C42 1.247 . S
O44 Zn45 2.028 . S
Zn45 O44 2.028 . S
Zn45 O49 2.035 . S
Zn45 O51 2.035 . S
Zn45 O52 2.028 . S
O46 C42 1.258 . S
O46 Zn47 2.035 . S
Zn47 O46 2.035 . S
Zn47 O48 2.028 . S
Zn47 O50 2.028 . S
Zn47 O53 2.035 . S
O48 Zn47 2.028 . S
O48 C54 1.247 . S
O49 Zn45 2.035 . S
O49 C54 1.258 . S
O50 C43 1.247 . S
O50 Zn47 2.028 . S
O51 C43 1.258 . S
O51 Zn45 2.035 . S
O52 Zn45 2.028 . S
O52 C55 1.247 . S
O53 Zn47 2.035 . S
O53 C55 1.258 . S
C54 O48 1.247 . S
C54 O49 1.258 . S
C55 O52 1.247 . S
C55 O53 1.258 . S
C56 O58 1.247 . S
C56 O60 1.258 . S
C57 O64 1.247 . S
C57 O65 1.258 . S
O58 C56 1.247 . S
O58 Zn59 2.028 . S
Zn59 O58 2.028 . S
Zn59 O63 2.035 . S
Zn59 O65 2.035 . S
Zn59 O66 2.028 . S
O60 C56 1.258 . S
O60 Zn61 2.035 . S
Zn61 O60 2.035 . S
Zn61 O62 2.028 . S
Zn61 O64 2.028 . S
Zn61 O67 2.035 . S
O62 Zn61 2.028 . S
O62 C68 1.247 . S
O63 Zn59 2.035 . S
O63 C68 1.258 . S
O64 C57 1.247 . S
O64 Zn61 2.028 . S
O65 C57 1.258 . S
O65 Zn59 2.035 . S
O66 Zn59 2.028 . S
O66 C69 1.247 . S
O67 Zn61 2.035 . S
O67 C69 1.258 . S
C68 O62 1.247 . S
C68 O63 1.258 . S
C69 O66 1.247 . S
C69 O67 1.258 . S
C70 O72 1.247 . S
C70 O74 1.258 . S
C71 O78 1.247 . S
C71 O79 1.258 . S
O72 C70 1.247 . S
O72 Zn73 2.028 . S
Zn73 O72 2.028 . S
Zn73 O77 2.035 . S
Zn73 O79 2.035 . S
Zn73 O80 2.028 . S
O74 C70 1.258 . S
O74 Zn75 2.035 . S
Zn75 O74 2.035 . S
Zn75 O76 2.028 . S
Zn75 O78 2.028 . S
Zn75 O81 2.035 . S
O76 Zn75 2.028 . S
O76 C82 1.247 . S
O77 Zn73 2.035 . S
O77 C82 1.258 . S
O78 C71 1.247 . S
O78 Zn75 2.028 . S
O79 C71 1.258 . S
O79 Zn73 2.035 . S
O80 Zn73 2.028 . S
O80 C83 1.247 . S
O81 Zn75 2.035 . S
O81 C83 1.258 . S
C82 O76 1.247 . S
C82 O77 1.258 . S
C83 O80 1.247 . S
C83 O81 1.258 . S
C84 O86 1.247 . S
C84 O88 1.258 . S
C85 O92 1.237 . S
C85 O93 1.249 1_545 S
O86 C84 1.247 . S
O86 Zn87 2.028 . S
Zn87 O86 2.028 . S
Zn87 O91 2.035 . S
Zn87 O93 2.035 . S
Zn87 O94 2.028 . S
O88 C84 1.258 . S
O88 Zn89 2.035 . S
Zn89 O88 2.035 . S
Zn89 O90 2.028 1_565 S
Zn89 O92 2.028 1_565 S
Zn89 O95 2.035 . S
O90 Zn89 2.028 1_545 S
O90 C96 1.247 . S
O91 Zn87 2.035 . S
O91 C96 1.258 1_565 S
O92 C85 1.237 . S
O92 Zn89 2.028 1_545 S
O93 C85 1.249 1_565 S
O93 Zn87 2.035 . S
O94 Zn87 2.028 . S
O94 C97 1.247 . S
O95 Zn89 2.035 . S
O95 C97 1.258 . S
C96 O90 1.247 . S
C96 O91 1.258 1_545 S
C97 O94 1.247 . S
C97 O95 1.258 . S
C98 O100 1.247 . S
C98 O102 1.258 . S
C99 O106 1.247 . S
C99 O107 1.258 . S
O100 C98 1.247 . S
O100 Zn101 2.028 . S
Zn101 O100 2.028 . S
Zn101 O105 2.035 . S
Zn101 O107 2.035 . S
Zn101 O108 2.028 . S
O102 C98 1.258 . S
O102 Zn103 2.035 . S
Zn103 O102 2.035 . S
Zn103 O104 2.028 . S
Zn103 O106 2.028 . S
Zn103 O109 2.035 . S
O104 Zn103 2.028 . S
O104 C110 1.247 . S
O105 Zn101 2.035 . S
O105 C110 1.258 . S
O106 C99 1.247 . S
O106 Zn103 2.028 . S
O107 C99 1.258 . S
O107 Zn101 2.035 . S
O108 Zn101 2.028 . S
O108 C111 1.247 . S
O109 Zn103 2.035 . S
O109 C111 1.258 . S
C110 O104 1.247 . S
C110 O105 1.258 . S
C111 O108 1.247 . S
C111 O109 1.258 . S
C112 O114 1.247 . S
C112 O116 1.258 . S
C113 O120 1.247 . S
C113 O121 1.258 . S
O114 C112 1.247 . S
O114 Zn115 2.028 . S
Zn115 O114 2.028 . S
Zn115 O119 2.035 . S
Zn115 O121 2.035 . S
Zn115 O122 2.028 . S
O116 C112 1.258 . S
O116 Zn117 2.035 . S
Zn117 O116 2.035 . S
Zn117 O118 2.028 . S
Zn117 O120 2.028 . S
Zn117 O123 2.035 . S
O118 Zn117 2.028 . S
O118 C124 1.247 . S
O119 Zn115 2.035 . S
O119 C124 1.258 . S
O120 C113 1.247 . S
O120 Zn117 2.028 . S
O121 C113 1.258 . S
O121 Zn115 2.035 . S
O122 Zn115 2.028 . S
O122 C125 1.247 . S
O123 Zn117 2.035 . S
O123 C125 1.258 . S
C124 O118 1.247 . S
C124 O119 1.258 . S
C125 O122 1.247 . S
C125 O123 1.258 . S
C126 O128 1.247 . S
C126 O130 1.258 . S
C127 O134 1.247 . S
C127 O135 1.258 . S
O128 C126 1.247 . S
O128 Zn129 2.028 . S
Zn129 O128 2.028 . S
Zn129 O133 2.035 . S
Zn129 O135 2.035 . S
Zn129 O136 2.028 . S
O130 C126 1.258 . S
O130 Zn131 2.035 . S
Zn131 O130 2.035 . S
Zn131 O132 2.028 . S
Zn131 O134 2.028 . S
Zn131 O137 2.035 . S
O132 Zn131 2.028 . S
O132 C138 1.247 . S
O133 Zn129 2.035 . S
O133 C138 1.258 . S
O134 C127 1.247 . S
O134 Zn131 2.028 . S
O135 C127 1.258 . S
O135 Zn129 2.035 . S
O136 Zn129 2.028 . S
O136 C139 1.247 . S
O137 Zn131 2.035 . S
O137 C139 1.258 . S
C138 O132 1.247 . S
C138 O133 1.258 . S
C139 O136 1.247 . S
C139 O137 1.258 . S
C140 O142 1.247 1_545 S
C140 O144 1.258 . S
C141 O148 1.247 . S
C141 O149 1.258 . S
O142 C140 1.247 1_565 S
O142 Zn143 2.028 . S
Zn143 O142 2.028 . S
Zn143 O147 2.035 . S
Zn143 O149 2.035 . S
Zn143 O150 2.028 . S
O144 C140 1.258 . S
O144 Zn145 2.035 1_545 S
Zn145 O144 2.035 1_565 S
Zn145 O146 2.028 . S
Zn145 O148 2.028 . S
Zn145 O151 2.035 1_565 S
O146 Zn145 2.028 . S
O146 C152 1.247 . S
O147 Zn143 2.035 . S
O147 C152 1.258 . S
O148 C141 1.247 . S
O148 Zn145 2.028 . S
O149 C141 1.258 . S
O149 Zn143 2.035 . S
O150 Zn143 2.028 . S
O150 C153 1.230 1_565 S
O151 Zn145 2.035 1_545 S
O151 C153 1.271 . S
C152 O146 1.247 . S
C152 O147 1.258 . S
C153 O150 1.230 1_545 S
C153 O151 1.271 . S
C154 O156 1.247 . S
C154 O158 1.258 . S
C155 O162 1.247 . S
C155 O163 1.258 . S
O156 C154 1.247 . S
O156 Zn157 2.028 . S
Zn157 O156 2.028 . S
Zn157 O161 2.035 . S
Zn157 O163 2.035 . S
Zn157 O164 2.028 . S
O158 C154 1.258 . S
O158 Zn159 2.035 . S
Zn159 O158 2.035 . S
Zn159 O160 2.028 . S
Zn159 O162 2.028 . S
Zn159 O165 2.035 . S
O160 Zn159 2.028 . S
O160 C166 1.247 . S
O161 Zn157 2.035 . S
O161 C166 1.258 . S
O162 C155 1.247 . S
O162 Zn159 2.028 . S
O163 C155 1.258 . S
O163 Zn157 2.035 . S
O164 Zn157 2.028 . S
O164 C167 1.247 . S
O165 Zn159 2.035 . S
O165 C167 1.258 . S
C166 O160 1.247 . S
C166 O161 1.258 . S
C167 O164 1.247 . S
C167 O165 1.258 . S
C168 O170 1.247 . S
C168 O172 1.258 . S
C169 O176 1.247 . S
C169 O177 1.258 . S
O170 C168 1.247 . S
O170 Zn171 2.028 . S
Zn171 O170 2.028 . S
Zn171 O175 2.035 . S
Zn171 O177 2.035 . S
Zn171 O178 2.028 . S
O172 C168 1.258 . S
O172 Zn173 2.035 . S
Zn173 O172 2.035 . S
Zn173 O174 2.028 . S
Zn173 O176 2.028 . S
Zn173 O179 2.035 . S
O174 Zn173 2.028 . S
O174 C180 1.247 . S
O175 Zn171 2.035 . S
O175 C180 1.258 . S
O176 C169 1.247 . S
O176 Zn173 2.028 . S
O177 C169 1.258 . S
O177 Zn171 2.035 . S
O178 Zn171 2.028 . S
O178 C181 1.247 . S
O179 Zn173 2.035 . S
O179 C181 1.258 . S
C180 O174 1.247 . S
C180 O175 1.258 . S
C181 O178 1.247 . S
C181 O179 1.258 . S
C182 O184 1.247 . S
C182 O186 1.258 . S
C183 O190 1.247 . S
C183 O191 1.258 . S
O184 C182 1.247 . S
O184 Zn185 2.028 . S
Zn185 O184 2.028 . S
Zn185 O189 2.035 . S
Zn185 O191 2.035 . S
Zn185 O192 2.028 . S
O186 C182 1.258 . S
O186 Zn187 2.035 . S
Zn187 O186 2.035 . S
Zn187 O188 2.028 . S
Zn187 O190 2.028 . S
Zn187 O193 2.035 . S
O188 Zn187 2.028 . S
O188 C194 1.247 . S
O189 Zn185 2.035 . S
O189 C194 1.258 . S
O190 C183 1.247 . S
O190 Zn187 2.028 . S
O191 C183 1.258 . S
O191 Zn185 2.035 . S
O192 Zn185 2.028 . S
O192 C195 1.247 . S
O193 Zn187 2.035 . S
O193 C195 1.258 . S
C194 O188 1.247 . S
C194 O189 1.258 . S
C195 O192 1.247 . S
C195 O193 1.258 . S
C196 O198 1.239 1_455 S
C196 O200 1.250 . S
C197 O204 1.247 . S
C197 O205 1.258 . S
O198 C196 1.239 1_655 S
O198 Zn199 2.028 . S
Zn199 O198 2.028 . S
Zn199 O203 2.035 . S
Zn199 O205 2.035 . S
Zn199 O206 2.028 . S
O200 C196 1.250 . S
O200 Zn201 2.035 1_455 S
Zn201 O200 2.035 1_655 S
Zn201 O202 2.028 . S
Zn201 O204 2.028 . S
Zn201 O207 2.035 1_655 S
O202 Zn201 2.028 . S
O202 C208 1.247 . S
O203 Zn199 2.035 . S
O203 C208 1.258 . S
O204 C197 1.247 . S
O204 Zn201 2.028 . S
O205 C197 1.258 . S
O205 Zn199 2.035 . S
O206 Zn199 2.028 . S
O206 C209 1.247 1_655 S
O207 Zn201 2.035 1_455 S
O207 C209 1.258 . S
C208 O202 1.247 . S
C208 O203 1.258 . S
C209 O206 1.247 1_455 S
C209 O207 1.258 . S
C210 O212 1.247 . S
C210 O214 1.258 . S
C211 O218 1.247 . S
C211 O219 1.258 . S
O212 C210 1.247 . S
O212 Zn213 2.028 . S
Zn213 O212 2.028 . S
Zn213 O217 2.035 . S
Zn213 O219 2.035 . S
Zn213 O220 2.028 . S
O214 C210 1.258 . S
O214 Zn215 2.035 . S
Zn215 O214 2.035 . S
Zn215 O216 2.028 . S
Zn215 O218 2.028 . S
Zn215 O221 2.035 . S
O216 Zn215 2.028 . S
O216 C222 1.247 . S
O217 Zn213 2.035 . S
O217 C222 1.258 . S
O218 C211 1.247 . S
O218 Zn215 2.028 . S
O219 C211 1.258 . S
O219 Zn213 2.035 . S
O220 Zn213 2.028 . S
O220 C223 1.247 . S
O221 Zn215 2.035 . S
O221 C223 1.258 . S
C222 O216 1.247 . S
C222 O217 1.258 . S
C223 O220 1.247 . S
C223 O221 1.258 . S
C224 O226 1.263 . S
C224 O228 1.237 1_455 S
C225 O232 1.247 . S
C225 O233 1.258 . S
O226 C224 1.263 . S
O226 Zn227 2.028 1_455 S
Zn227 O226 2.028 1_655 S
Zn227 O231 2.035 . S
Zn227 O233 2.035 . S
Zn227 O234 2.028 1_655 S
O228 C224 1.237 1_655 S
O228 Zn229 2.035 . S
Zn229 O228 2.035 . S
Zn229 O230 2.028 . S
Zn229 O232 2.028 . S
Zn229 O235 2.035 . S
O230 Zn229 2.028 . S
O230 C236 1.247 . S
O231 Zn227 2.035 . S
O231 C236 1.258 . S
O232 C225 1.247 . S
O232 Zn229 2.028 . S
O233 C225 1.258 . S
O233 Zn227 2.035 . S
O234 Zn227 2.028 1_455 S
O234 C237 1.247 . S
O235 Zn229 2.035 . S
O235 C237 1.258 1_655 S
C236 O230 1.247 . S
C236 O231 1.258 . S
C237 O234 1.247 . S
C237 O235 1.258 1_455 S
C238 O240 1.247 . S
C238 O242 1.258 . S
C239 O246 1.247 . S
C239 O247 1.258 . S
O240 C238 1.247 . S
O240 Zn241 2.028 . S
Zn241 O240 2.028 . S
Zn241 O245 2.035 . S
Zn241 O247 2.035 . S
Zn241 O248 2.028 . S
O242 C238 1.258 . S
O242 Zn243 2.035 . S
Zn243 O242 2.035 . S
Zn243 O244 2.028 . S
Zn243 O246 2.028 . S
Zn243 O249 2.035 . S
O244 Zn243 2.028 . S
O244 C250 1.247 . S
O245 Zn241 2.035 . S
O245 C250 1.258 . S
O246 C239 1.247 . S
O246 Zn243 2.028 . S
O247 C239 1.258 . S
O247 Zn241 2.035 . S
O248 Zn241 2.028 . S
O248 C251 1.247 . S
O249 Zn243 2.035 . S
O249 C251 1.258 . S
C250 O244 1.247 . S
C250 O245 1.258 . S
C251 O248 1.247 . S
C251 O249 1.258 . S
H252 C264 0.930 . S
H253 C266 0.930 . S
H254 C267 0.930 . S
H255 C271 0.959 . S
H256 C271 0.959 . S
H257 C271 0.961 1_556 S
H258 C272 0.960 . S
H259 C272 0.961 . S
H260 C272 0.959 . S
H261 C275 0.929 . S
H262 C276 0.931 . S
H263 C278 0.930 . S
C264 H252 0.930 . S
C264 C265 1.399 . S
C264 C269 1.399 . S
C265 C264 1.399 . S
C265 C266 1.376 . S
C266 H253 0.930 . S
C266 C265 1.376 . S
C266 C267 1.388 . S
C267 H254 0.930 . S
C267 C266 1.388 . S
C267 C268 1.390 . S
C268 C267 1.390 . S
C268 C269 1.394 . S
C268 C274 1.465 1_556 S
C269 C264 1.399 . S
C269 C268 1.394 . S
C269 C270 1.516 . S
C270 C269 1.516 . S
C270 C271 1.502 1_556 S
C270 C272 1.561 . S
C270 C273 1.526 1_556 S
C271 H255 0.959 . S
C271 H256 0.959 . S
C271 H257 0.961 1_554 S
C271 C270 1.502 1_554 S
C272 H258 0.960 . S
C272 H259 0.961 . S
C272 H260 0.959 . S
C272 C270 1.561 . S
C273 C270 1.526 1_554 S
C273 C274 1.396 . S
C273 C278 1.390 . S
C274 C268 1.465 1_554 S
C274 C273 1.396 . S
C274 C275 1.399 . S
C275 H261 0.929 . S
C275 C274 1.399 . S
C275 C276 1.385 . S
C276 H262 0.931 . S
C276 C275 1.385 . S
C276 C277 1.389 . S
C277 C276 1.389 . S
C277 C278 1.387 . S
C278 H263 0.930 . S
C278 C273 1.390 . S
C278 C277 1.387 . S
H279 C291 0.930 . S
H280 C293 0.930 . S
H281 C294 0.930 1_554 S
H282 C298 0.959 . S
H283 C298 0.959 . S
H284 C298 0.961 . S
H285 C299 0.960 . S
H286 C299 0.961 . S
H287 C299 0.959 . S
H288 C302 0.929 . S
H289 C303 0.931 . S
H290 C305 0.930 . S
C291 H279 0.930 . S
C291 C292 1.399 . S
C291 C296 1.399 . S
C292 C291 1.399 . S
C292 C293 1.376 . S
C293 H280 0.930 . S
C293 C292 1.376 . S
C293 C294 1.388 . S
C294 H281 0.930 1_556 S
C294 C293 1.388 . S
C294 C295 1.390 . S
C295 C294 1.390 . S
C295 C296 1.394 . S
C295 C301 1.465 1_556 S
C296 C291 1.399 . S
C296 C295 1.394 . S
C296 C297 1.516 . S
C297 C296 1.516 . S
C297 C298 1.502 . S
C297 C299 1.561 . S
C297 C300 1.526 1_556 S
C298 H282 0.959 . S
C298 H283 0.959 . S
C298 H284 0.961 . S
C298 C297 1.502 . S
C299 H285 0.960 . S
C299 H286 0.961 . S
C299 H287 0.959 . S
C299 C297 1.561 . S
C300 C297 1.526 1_554 S
C300 C301 1.396 . S
C300 C305 1.390 . S
C301 C295 1.465 1_554 S
C301 C300 1.396 . S
C301 C302 1.399 . S
C302 H288 0.929 . S
C302 C301 1.399 . S
C302 C303 1.385 . S
C303 H289 0.931 . S
C303 C302 1.385 . S
C303 C304 1.389 . S
C304 C303 1.389 . S
C304 C305 1.387 . S
C305 H290 0.930 . S
C305 C300 1.390 . S
C305 C304 1.387 . S
H306 C318 0.930 . S
H307 C320 0.930 . S
H308 C321 0.930 . S
H309 C325 0.959 . S
H310 C325 0.959 . S
H311 C325 0.961 . S
H312 C326 0.960 . S
H313 C326 0.961 . S
H314 C326 0.959 . S
H315 C329 0.929 . S
H316 C330 0.931 . S
H317 C332 0.930 . S
C318 H306 0.930 . S
C318 C319 1.399 . S
C318 C323 1.399 . S
C319 C318 1.399 . S
C319 C320 1.376 . S
C320 H307 0.930 . S
C320 C319 1.376 . S
C320 C321 1.388 . S
C321 H308 0.930 . S
C321 C320 1.388 . S
C321 C322 1.390 . S
C322 C321 1.390 . S
C322 C323 1.394 . S
C322 C328 1.465 1_554 S
C323 C318 1.399 . S
C323 C322 1.394 . S
C323 C324 1.524 . S
C324 C323 1.524 . S
C324 C325 1.495 1_554 S
C324 C326 1.569 . S
C324 C327 1.518 1_554 S
C325 H309 0.959 . S
C325 H310 0.959 . S
C325 H311 0.961 . S
C325 C324 1.495 1_556 S
C326 H312 0.960 . S
C326 H313 0.961 . S
C326 H314 0.959 . S
C326 C324 1.569 . S
C327 C324 1.518 1_556 S
C327 C328 1.396 . S
C327 C332 1.390 . S
C328 C322 1.465 1_556 S
C328 C327 1.396 . S
C328 C329 1.399 . S
C329 H315 0.929 . S
C329 C328 1.399 . S
C329 C330 1.385 . S
C330 H316 0.931 . S
C330 C329 1.385 . S
C330 C331 1.389 . S
C331 C330 1.389 . S
C331 C332 1.387 . S
C332 H317 0.930 . S
C332 C327 1.390 . S
C332 C331 1.387 . S
H333 C345 0.930 . S
H334 C347 0.930 . S
H335 C348 0.930 . S
H336 C352 0.959 . S
H337 C352 0.959 . S
H338 C352 0.961 . S
H339 C353 0.960 . S
H340 C353 0.961 . S
H341 C353 0.959 . S
H342 C356 0.929 . S
H343 C357 0.931 . S
H344 C359 0.930 . S
C345 H333 0.930 . S
C345 C346 1.399 . S
C345 C350 1.399 . S
C346 C345 1.399 . S
C346 C347 1.376 . S
C347 H334 0.930 . S
C347 C346 1.376 . S
C347 C348 1.388 . S
C348 H335 0.930 . S
C348 C347 1.388 . S
C348 C349 1.390 . S
C349 C348 1.390 . S
C349 C350 1.394 . S
C349 C355 1.465 . S
C350 C345 1.399 . S
C350 C349 1.394 . S
C350 C351 1.516 . S
C351 C350 1.516 . S
C351 C352 1.502 . S
C351 C353 1.561 . S
C351 C354 1.526 . S
C352 H336 0.959 . S
C352 H337 0.959 . S
C352 H338 0.961 . S
C352 C351 1.502 . S
C353 H339 0.960 . S
C353 H340 0.961 . S
C353 H341 0.959 . S
C353 C351 1.561 . S
C354 C351 1.526 . S
C354 C355 1.396 . S
C354 C359 1.390 . S
C355 C349 1.465 . S
C355 C354 1.396 . S
C355 C356 1.399 . S
C356 H342 0.929 . S
C356 C355 1.399 . S
C356 C357 1.385 . S
C357 H343 0.931 . S
C357 C356 1.385 . S
C357 C358 1.389 . S
C358 C357 1.389 . S
C358 C359 1.387 . S
C359 H344 0.930 . S
C359 C354 1.390 . S
C359 C358 1.387 . S
H360 C372 0.930 . S
H361 C374 0.930 . S
H362 C375 0.930 . S
H363 C379 0.959 . S
H364 C379 0.959 . S
H365 C379 0.961 . S
H366 C380 0.960 . S
H367 C380 0.961 . S
H368 C380 0.959 . S
H369 C383 0.929 . S
H370 C384 0.931 . S
H371 C386 0.930 . S
C372 H360 0.930 . S
C372 C373 1.399 . S
C372 C377 1.399 . S
C373 C372 1.399 . S
C373 C374 1.376 . S
C374 H361 0.930 . S
C374 C373 1.376 . S
C374 C375 1.388 . S
C375 H362 0.930 . S
C375 C374 1.388 . S
C375 C376 1.390 . S
C376 C375 1.390 . S
C376 C377 1.394 . S
C376 C382 1.465 . S
C377 C372 1.399 . S
C377 C376 1.394 . S
C377 C378 1.516 . S
C378 C377 1.516 . S
C378 C379 1.502 . S
C378 C380 1.561 . S
C378 C381 1.526 . S
C379 H363 0.959 . S
C379 H364 0.959 . S
C379 H365 0.961 . S
C379 C378 1.502 . S
C380 H366 0.960 . S
C380 H367 0.961 . S
C380 H368 0.959 . S
C380 C378 1.561 . S
C381 C378 1.526 . S
C381 C382 1.396 . S
C381 C386 1.390 . S
C382 C376 1.465 . S
C382 C381 1.396 . S
C382 C383 1.399 . S
C383 H369 0.929 . S
C383 C382 1.399 . S
C383 C384 1.385 . S
C384 H370 0.931 . S
C384 C383 1.385 . S
C384 C385 1.389 . S
C385 C384 1.389 . S
C385 C386 1.387 . S
C386 H371 0.930 . S
C386 C381 1.390 . S
C386 C385 1.387 . S
H387 C399 0.930 . S
H388 C401 0.930 . S
H389 C402 0.930 . S
H390 C406 0.959 . S
H391 C406 0.959 . S
H392 C406 0.961 . S
H393 C407 0.960 . S
H394 C407 0.961 . S
H395 C407 0.959 . S
H396 C410 0.929 . S
H397 C411 0.931 . S
H398 C413 0.930 . S
C399 H387 0.930 . S
C399 C400 1.399 . S
C399 C404 1.399 . S
C400 C399 1.399 . S
C400 C401 1.376 . S
C401 H388 0.930 . S
C401 C400 1.376 . S
C401 C402 1.388 . S
C402 H389 0.930 . S
C402 C401 1.388 . S
C402 C403 1.390 . S
C403 C402 1.390 . S
C403 C404 1.394 . S
C403 C409 1.465 . S
C404 C399 1.399 . S
C404 C403 1.394 . S
C404 C405 1.516 . S
C405 C404 1.516 . S
C405 C406 1.502 . S
C405 C407 1.561 . S
C405 C408 1.526 . S
C406 H390 0.959 . S
C406 H391 0.959 . S
C406 H392 0.961 . S
C406 C405 1.502 . S
C407 H393 0.960 . S
C407 H394 0.961 . S
C407 H395 0.959 . S
C407 C405 1.561 . S
C408 C405 1.526 . S
C408 C409 1.396 . S
C408 C413 1.390 . S
C409 C403 1.465 . S
C409 C408 1.396 . S
C409 C410 1.399 . S
C410 H396 0.929 . S
C410 C409 1.399 . S
C410 C411 1.385 . S
C411 H397 0.931 . S
C411 C410 1.385 . S
C411 C412 1.389 . S
C412 C411 1.389 . S
C412 C413 1.387 . S
C413 H398 0.930 . S
C413 C408 1.390 . S
C413 C412 1.387 . S
H414 C426 0.930 . S
H415 C428 0.930 . S
H416 C429 0.930 . S
H417 C433 0.959 . S
H418 C433 0.959 . S
H419 C433 0.961 . S
H420 C434 0.960 . S
H421 C434 0.961 . S
H422 C434 0.959 . S
H423 C437 0.929 . S
H424 C438 0.931 . S
H425 C440 0.930 . S
C426 H414 0.930 . S
C426 C427 1.399 . S
C426 C431 1.399 . S
C427 C426 1.399 . S
C427 C428 1.376 . S
C428 H415 0.930 . S
C428 C427 1.376 . S
C428 C429 1.388 . S
C429 H416 0.930 . S
C429 C428 1.388 . S
C429 C430 1.390 . S
C430 C429 1.390 . S
C430 C431 1.394 . S
C430 C436 1.465 . S
C431 C426 1.399 . S
C431 C430 1.394 . S
C431 C432 1.516 . S
C432 C431 1.516 . S
C432 C433 1.502 . S
C432 C434 1.561 . S
C432 C435 1.526 . S
C433 H417 0.959 . S
C433 H418 0.959 . S
C433 H419 0.961 . S
C433 C432 1.502 . S
C434 H420 0.960 . S
C434 H421 0.961 . S
C434 H422 0.959 . S
C434 C432 1.561 . S
C435 C432 1.526 . S
C435 C436 1.396 . S
C435 C440 1.390 . S
C436 C430 1.465 . S
C436 C435 1.396 . S
C436 C437 1.399 . S
C437 H423 0.929 . S
C437 C436 1.399 . S
C437 C438 1.385 . S
C438 H424 0.931 . S
C438 C437 1.385 . S
C438 C439 1.389 . S
C439 C438 1.389 . S
C439 C440 1.387 . S
C440 H425 0.930 . S
C440 C435 1.390 . S
C440 C439 1.387 . S
H441 C453 0.930 . S
H442 C455 0.930 . S
H443 C456 0.930 . S
H444 C460 0.959 . S
H445 C460 0.959 . S
H446 C460 0.961 . S
H447 C461 0.960 . S
H448 C461 0.961 . S
H449 C461 0.959 . S
H450 C464 0.929 . S
H451 C465 0.931 . S
H452 C467 0.930 . S
C453 H441 0.930 . S
C453 C454 1.399 . S
C453 C458 1.399 . S
C454 C453 1.399 . S
C454 C455 1.376 . S
C455 H442 0.930 . S
C455 C454 1.376 . S
C455 C456 1.388 . S
C456 H443 0.930 . S
C456 C455 1.388 . S
C456 C457 1.390 . S
C457 C456 1.390 . S
C457 C458 1.394 . S
C457 C463 1.465 . S
C458 C453 1.399 . S
C458 C457 1.394 . S
C458 C459 1.516 . S
C459 C458 1.516 . S
C459 C460 1.502 . S
C459 C461 1.561 . S
C459 C462 1.526 . S
C460 H444 0.959 . S
C460 H445 0.959 . S
C460 H446 0.961 . S
C460 C459 1.502 . S
C461 H447 0.960 . S
C461 H448 0.961 . S
C461 H449 0.959 . S
C461 C459 1.561 . S
C462 C459 1.526 . S
C462 C463 1.396 . S
C462 C467 1.390 . S
C463 C457 1.465 . S
C463 C462 1.396 . S
C463 C464 1.399 . S
C464 H450 0.929 . S
C464 C463 1.399 . S
C464 C465 1.385 . S
C465 H451 0.931 . S
C465 C464 1.385 . S
C465 C466 1.389 . S
C466 C465 1.389 . S
C466 C467 1.387 . S
C467 H452 0.930 . S
C467 C462 1.390 . S
C467 C466 1.387 . S
H468 C480 0.930 . S
H469 C482 0.930 . S
H470 C483 0.930 . S
H471 C487 0.959 . S
H472 C487 0.959 . S
H473 C487 0.961 . S
H474 C488 0.960 . S
H475 C488 0.961 . S
H476 C488 0.959 . S
H477 C491 0.929 . S
H478 C492 0.931 . S
H479 C494 0.930 . S
C480 H468 0.930 . S
C480 C481 1.399 . S
C480 C485 1.399 . S
C481 C480 1.399 . S
C481 C482 1.376 . S
C482 H469 0.930 . S
C482 C481 1.376 . S
C482 C483 1.388 . S
C483 H470 0.930 . S
C483 C482 1.388 . S
C483 C484 1.390 . S
C484 C483 1.390 . S
C484 C485 1.394 . S
C484 C490 1.465 . S
C485 C480 1.399 . S
C485 C484 1.394 . S
C485 C486 1.516 . S
C486 C485 1.516 . S
C486 C487 1.502 . S
C486 C488 1.561 . S
C486 C489 1.526 . S
C487 H471 0.959 . S
C487 H472 0.959 . S
C487 H473 0.961 . S
C487 C486 1.502 . S
C488 H474 0.960 . S
C488 H475 0.961 . S
C488 H476 0.959 . S
C488 C486 1.561 . S
C489 C486 1.526 . S
C489 C490 1.396 . S
C489 C494 1.390 . S
C490 C484 1.465 . S
C490 C489 1.396 . S
C490 C491 1.399 . S
C491 H477 0.929 . S
C491 C490 1.399 . S
C491 C492 1.385 . S
C492 H478 0.931 . S
C492 C491 1.385 . S
C492 C493 1.389 . S
C493 C492 1.389 . S
C493 C494 1.387 . S
C494 H479 0.930 . S
C494 C489 1.390 . S
C494 C493 1.387 . S
H495 C507 0.930 . S
H496 C509 0.930 1_554 S
H497 C510 0.930 . S
H498 C514 0.959 . S
H499 C514 0.959 . S
H500 C514 0.961 . S
H501 C515 0.960 . S
H502 C515 0.961 . S
H503 C515 0.959 . S
H504 C518 0.929 . S
H505 C519 0.931 . S
H506 C521 0.930 . S
C507 H495 0.930 . S
C507 C508 1.399 . S
C507 C512 1.399 . S
C508 C507 1.399 . S
C508 C509 1.376 . S
C509 H496 0.930 1_556 S
C509 C508 1.376 . S
C509 C510 1.388 . S
C510 H497 0.930 . S
C510 C509 1.388 . S
C510 C511 1.390 . S
C511 C510 1.390 . S
C511 C512 1.394 . S
C511 C517 1.465 . S
C512 C507 1.399 . S
C512 C511 1.394 . S
C512 C513 1.516 . S
C513 C512 1.516 . S
C513 C514 1.502 . S
C513 C515 1.561 . S
C513 C516 1.526 . S
C514 H498 0.959 . S
C514 H499 0.959 . S
C514 H500 0.961 . S
C514 C513 1.502 . S
C515 H501 0.960 . S
C515 H502 0.961 . S
C515 H503 0.959 . S
C515 C513 1.561 . S
C516 C513 1.526 . S
C516 C517 1.396 . S
C516 C521 1.390 . S
C517 C511 1.465 . S
C517 C516 1.396 . S
C517 C518 1.399 . S
C518 H504 0.929 . S
C518 C517 1.399 . S
C518 C519 1.385 . S
C519 H505 0.931 . S
C519 C518 1.385 . S
C519 C520 1.389 . S
C520 C519 1.389 . S
C520 C521 1.387 . S
C521 H506 0.930 . S
C521 C516 1.390 . S
C521 C520 1.387 . S
H522 C534 0.930 . S
H523 C536 0.930 . S
H524 C537 0.930 . S
H525 C541 0.959 . S
H526 C541 0.959 . S
H527 C541 0.961 . S
H528 C542 0.960 . S
H529 C542 0.961 . S
H530 C542 0.959 . S
H531 C545 0.929 . S
H532 C546 0.931 . S
H533 C548 0.930 . S
C534 H522 0.930 . S
C534 C535 1.399 . S
C534 C539 1.399 . S
C535 C534 1.399 . S
C535 C536 1.376 . S
C536 H523 0.930 . S
C536 C535 1.376 . S
C536 C537 1.388 . S
C537 H524 0.930 . S
C537 C536 1.388 . S
C537 C538 1.390 . S
C538 C537 1.390 . S
C538 C539 1.394 . S
C538 C544 1.465 . S
C539 C534 1.399 . S
C539 C538 1.394 . S
C539 C540 1.516 . S
C540 C539 1.516 . S
C540 C541 1.502 . S
C540 C542 1.561 . S
C540 C543 1.526 . S
C541 H525 0.959 . S
C541 H526 0.959 . S
C541 H527 0.961 . S
C541 C540 1.502 . S
C542 H528 0.960 . S
C542 H529 0.961 . S
C542 H530 0.959 . S
C542 C540 1.561 . S
C543 C540 1.526 . S
C543 C544 1.396 . S
C543 C548 1.390 . S
C544 C538 1.465 . S
C544 C543 1.396 . S
C544 C545 1.399 . S
C545 H531 0.929 . S
C545 C544 1.399 . S
C545 C546 1.385 . S
C546 H532 0.931 . S
C546 C545 1.385 . S
C546 C547 1.389 . S
C547 C546 1.389 . S
C547 C548 1.387 . S
C548 H533 0.930 . S
C548 C543 1.390 . S
C548 C547 1.387 . S
H549 C561 0.930 . S
H550 C563 0.930 . S
H551 C564 0.930 . S
H552 C568 0.959 . S
H553 C568 0.959 . S
H554 C568 0.961 . S
H555 C569 0.960 . S
H556 C569 0.961 . S
H557 C569 0.959 . S
H558 C572 0.929 . S
H559 C573 0.931 . S
H560 C575 0.930 . S
C561 H549 0.930 . S
C561 C562 1.399 . S
C561 C566 1.399 . S
C562 C561 1.399 . S
C562 C563 1.376 . S
C563 H550 0.930 . S
C563 C562 1.376 . S
C563 C564 1.388 . S
C564 H551 0.930 . S
C564 C563 1.388 . S
C564 C565 1.390 . S
C565 C564 1.390 . S
C565 C566 1.394 . S
C565 C571 1.465 . S
C566 C561 1.399 . S
C566 C565 1.394 . S
C566 C567 1.516 . S
C567 C566 1.516 . S
C567 C568 1.502 . S
C567 C569 1.561 . S
C567 C570 1.526 . S
C568 H552 0.959 . S
C568 H553 0.959 . S
C568 H554 0.961 . S
C568 C567 1.502 . S
C569 H555 0.960 . S
C569 H556 0.961 . S
C569 H557 0.959 . S
C569 C567 1.561 . S
C570 C567 1.526 . S
C570 C571 1.396 . S
C570 C575 1.390 . S
C571 C565 1.465 . S
C571 C570 1.396 . S
C571 C572 1.399 . S
C572 H558 0.929 . S
C572 C571 1.399 . S
C572 C573 1.385 . S
C573 H559 0.931 . S
C573 C572 1.385 . S
C573 C574 1.389 . S
C574 C573 1.389 . S
C574 C575 1.387 . S
C575 H560 0.930 . S
C575 C570 1.390 . S
C575 C574 1.387 . S
H576 C588 0.930 . S
H577 C590 0.930 . S
H578 C591 0.930 . S
H579 C595 0.959 . S
H580 C595 0.959 . S
H581 C595 0.961 . S
H582 C596 0.960 . S
H583 C596 0.961 . S
H584 C596 0.959 . S
H585 C599 0.929 . S
H586 C600 0.931 . S
H587 C602 0.930 . S
C588 H576 0.930 . S
C588 C589 1.399 . S
C588 C593 1.399 . S
C589 C588 1.399 . S
C589 C590 1.376 . S
C590 H577 0.930 . S
C590 C589 1.376 . S
C590 C591 1.388 . S
C591 H578 0.930 . S
C591 C590 1.388 . S
C591 C592 1.390 . S
C592 C591 1.390 . S
C592 C593 1.394 . S
C592 C598 1.465 . S
C593 C588 1.399 . S
C593 C592 1.394 . S
C593 C594 1.516 . S
C594 C593 1.516 . S
C594 C595 1.502 . S
C594 C596 1.561 . S
C594 C597 1.526 . S
C595 H579 0.959 . S
C595 H580 0.959 . S
C595 H581 0.961 . S
C595 C594 1.502 . S
C596 H582 0.960 . S
C596 H583 0.961 . S
C596 H584 0.959 . S
C596 C594 1.561 . S
C597 C594 1.526 . S
C597 C598 1.396 . S
C597 C602 1.390 . S
C598 C592 1.465 . S
C598 C597 1.396 . S
C598 C599 1.399 . S
C599 H585 0.929 . S
C599 C598 1.399 . S
C599 C600 1.385 . S
C600 H586 0.931 . S
C600 C599 1.385 . S
C600 C601 1.389 . S
C601 C600 1.389 . S
C601 C602 1.387 . S
C602 H587 0.930 . S
C602 C597 1.390 . S
C602 C601 1.387 . S
H603 C615 0.930 . S
H604 C617 0.930 . S
H605 C618 0.930 . S
H606 C622 0.959 . S
H607 C622 0.959 . S
H608 C622 0.961 . S
H609 C623 0.960 . S
H610 C623 0.961 . S
H611 C623 0.959 . S
H612 C626 0.929 . S
H613 C627 0.931 . S
H614 C629 0.930 . S
C615 H603 0.930 . S
C615 C616 1.399 . S
C615 C620 1.399 . S
C616 C615 1.399 . S
C616 C617 1.376 . S
C617 H604 0.930 . S
C617 C616 1.376 . S
C617 C618 1.388 . S
C618 H605 0.930 . S
C618 C617 1.388 . S
C618 C619 1.390 . S
C619 C618 1.390 . S
C619 C620 1.394 . S
C619 C625 1.465 . S
C620 C615 1.399 . S
C620 C619 1.394 . S
C620 C621 1.516 . S
C621 C620 1.516 . S
C621 C622 1.502 . S
C621 C623 1.561 . S
C621 C624 1.526 . S
C622 H606 0.959 . S
C622 H607 0.959 . S
C622 H608 0.961 . S
C622 C621 1.502 . S
C623 H609 0.960 . S
C623 H610 0.961 . S
C623 H611 0.959 . S
C623 C621 1.561 . S
C624 C621 1.526 . S
C624 C625 1.396 . S
C624 C629 1.390 . S
C625 C619 1.465 . S
C625 C624 1.396 . S
C625 C626 1.399 . S
C626 H612 0.929 . S
C626 C625 1.399 . S
C626 C627 1.385 . S
C627 H613 0.931 . S
C627 C626 1.385 . S
C627 C628 1.389 . S
C628 C627 1.389 . S
C628 C629 1.387 . S
C629 H614 0.930 . S
C629 C624 1.390 . S
C629 C628 1.387 . S
H630 C642 0.930 . S
H631 C644 0.930 . S
H632 C645 0.930 . S
H633 C649 0.959 . S
H634 C649 0.959 . S
H635 C649 0.961 . S
H636 C650 0.960 . S
H637 C650 0.961 . S
H638 C650 0.959 . S
H639 C653 0.929 . S
H640 C654 0.931 . S
H641 C656 0.930 . S
C642 H630 0.930 . S
C642 C643 1.399 . S
C642 C647 1.399 . S
C643 C642 1.399 . S
C643 C644 1.376 . S
C644 H631 0.930 . S
C644 C643 1.376 . S
C644 C645 1.388 . S
C645 H632 0.930 . S
C645 C644 1.388 . S
C645 C646 1.390 . S
C646 C645 1.390 . S
C646 C647 1.394 . S
C646 C652 1.465 . S
C647 C642 1.399 . S
C647 C646 1.394 . S
C647 C648 1.516 . S
C648 C647 1.516 . S
C648 C649 1.502 . S
C648 C650 1.561 . S
C648 C651 1.526 . S
C649 H633 0.959 . S
C649 H634 0.959 . S
C649 H635 0.961 . S
C649 C648 1.502 . S
C650 H636 0.960 . S
C650 H637 0.961 . S
C650 H638 0.959 . S
C650 C648 1.561 . S
C651 C648 1.526 . S
C651 C652 1.396 . S
C651 C656 1.390 . S
C652 C646 1.465 . S
C652 C651 1.396 . S
C652 C653 1.399 . S
C653 H639 0.929 . S
C653 C652 1.399 . S
C653 C654 1.385 . S
C654 H640 0.931 . S
C654 C653 1.385 . S
C654 C655 1.389 . S
C655 C654 1.389 . S
C655 C656 1.387 . S
C656 H641 0.930 . S
C656 C651 1.390 . S
C656 C655 1.387 . S
H657 C669 0.930 . S
H658 C671 0.930 . S
H659 C672 0.930 . S
H660 C676 0.959 . S
H661 C676 0.959 . S
H662 C676 0.961 . S
H663 C677 0.960 . S
H664 C677 0.961 . S
H665 C677 0.959 . S
H666 C680 0.929 . S
H667 C681 0.931 . S
H668 C683 0.930 . S
C669 H657 0.930 . S
C669 C670 1.399 . S
C669 C674 1.399 . S
C670 C669 1.399 . S
C670 C671 1.376 . S
C671 H658 0.930 . S
C671 C670 1.376 . S
C671 C672 1.388 . S
C672 H659 0.930 . S
C672 C671 1.388 . S
C672 C673 1.390 . S
C673 C672 1.390 . S
C673 C674 1.394 . S
C673 C679 1.465 . S
C674 C669 1.399 . S
C674 C673 1.394 . S
C674 C675 1.516 . S
C675 C674 1.516 . S
C675 C676 1.502 . S
C675 C677 1.561 . S
C675 C678 1.526 . S
C676 H660 0.959 . S
C676 H661 0.959 . S
C676 H662 0.961 . S
C676 C675 1.502 . S
C677 H663 0.960 . S
C677 H664 0.961 . S
C677 H665 0.959 . S
C677 C675 1.561 . S
C678 C675 1.526 . S
C678 C679 1.396 . S
C678 C683 1.390 . S
C679 C673 1.465 . S
C679 C678 1.396 . S
C679 C680 1.399 . S
C680 H666 0.929 . S
C680 C679 1.399 . S
C680 C681 1.385 . S
C681 H667 0.931 . S
C681 C680 1.385 . S
C681 C682 1.389 . S
C682 C681 1.389 . S
C682 C683 1.387 . S
C683 H668 0.930 . S
C683 C678 1.390 . S
C683 C682 1.387 . S
H684 C696 0.930 . S
H685 C698 0.930 . S
H686 C699 0.930 . S
H687 C703 0.959 . S
H688 C703 0.959 . S
H689 C703 0.961 . S
H690 C704 0.960 . S
H691 C704 0.961 . S
H692 C704 0.959 . S
H693 C707 0.929 . S
H694 C708 0.931 . S
H695 C710 0.930 . S
C696 H684 0.930 . S
C696 C697 1.399 . S
C696 C701 1.399 . S
C697 C696 1.399 . S
C697 C698 1.376 . S
C698 H685 0.930 . S
C698 C697 1.376 . S
C698 C699 1.388 . S
C699 H686 0.930 . S
C699 C698 1.388 . S
C699 C700 1.390 . S
C700 C699 1.390 . S
C700 C701 1.394 . S
C700 C706 1.465 . S
C701 C696 1.399 . S
C701 C700 1.394 . S
C701 C702 1.516 . S
C702 C701 1.516 . S
C702 C703 1.502 . S
C702 C704 1.561 . S
C702 C705 1.526 . S
C703 H687 0.959 . S
C703 H688 0.959 . S
C703 H689 0.961 . S
C703 C702 1.502 . S
C704 H690 0.960 . S
C704 H691 0.961 . S
C704 H692 0.959 . S
C704 C702 1.561 . S
C705 C702 1.526 . S
C705 C706 1.396 . S
C705 C710 1.390 . S
C706 C700 1.465 . S
C706 C705 1.396 . S
C706 C707 1.399 . S
C707 H693 0.929 . S
C707 C706 1.399 . S
C707 C708 1.385 . S
C708 H694 0.931 . S
C708 C707 1.385 . S
C708 C709 1.389 . S
C709 C708 1.389 . S
C709 C710 1.387 . S
C710 H695 0.930 . S
C710 C705 1.390 . S
C710 C709 1.387 . S
H711 C723 0.930 . S
H712 C725 0.930 . S
H713 C726 0.930 . S
H714 C730 0.959 . S
H715 C730 0.959 . S
H716 C730 0.961 . S
H717 C731 0.960 . S
H718 C731 0.961 . S
H719 C731 0.959 . S
H720 C734 0.929 . S
H721 C735 0.931 . S
H722 C737 0.930 . S
C723 H711 0.930 . S
C723 C724 1.399 . S
C723 C728 1.399 . S
C724 C723 1.399 . S
C724 C725 1.376 . S
C725 H712 0.930 . S
C725 C724 1.376 . S
C725 C726 1.388 . S
C726 H713 0.930 . S
C726 C725 1.388 . S
C726 C727 1.390 . S
C727 C726 1.390 . S
C727 C728 1.394 . S
C727 C733 1.465 . S
C728 C723 1.399 . S
C728 C727 1.394 . S
C728 C729 1.516 . S
C729 C728 1.516 . S
C729 C730 1.502 . S
C729 C731 1.561 . S
C729 C732 1.526 . S
C730 H714 0.959 . S
C730 H715 0.959 . S
C730 H716 0.961 . S
C730 C729 1.502 . S
C731 H717 0.960 . S
C731 H718 0.961 . S
C731 H719 0.959 . S
C731 C729 1.561 . S
C732 C729 1.526 . S
C732 C733 1.396 . S
C732 C737 1.390 . S
C733 C727 1.465 . S
C733 C732 1.396 . S
C733 C734 1.399 . S
C734 H720 0.929 . S
C734 C733 1.399 . S
C734 C735 1.385 . S
C735 H721 0.931 . S
C735 C734 1.385 . S
C735 C736 1.389 . S
C736 C735 1.389 . S
C736 C737 1.387 . S
C737 H722 0.930 . S
C737 C732 1.390 . S
C737 C736 1.387 . S
H738 C750 0.930 . S
H739 C752 0.930 . S
H740 C753 0.930 . S
H741 C757 0.959 . S
H742 C757 0.959 . S
H743 C757 0.961 . S
H744 C758 0.960 . S
H745 C758 0.961 . S
H746 C758 0.959 . S
H747 C761 0.929 . S
H748 C762 0.931 . S
H749 C764 0.930 . S
C750 H738 0.930 . S
C750 C751 1.399 . S
C750 C755 1.399 . S
C751 C750 1.399 . S
C751 C752 1.376 . S
C752 H739 0.930 . S
C752 C751 1.376 . S
C752 C753 1.388 . S
C753 H740 0.930 . S
C753 C752 1.388 . S
C753 C754 1.390 . S
C754 C753 1.390 . S
C754 C755 1.394 . S
C754 C760 1.465 . S
C755 C750 1.399 . S
C755 C754 1.394 . S
C755 C756 1.516 . S
C756 C755 1.516 . S
C756 C757 1.502 . S
C756 C758 1.561 . S
C756 C759 1.526 . S
C757 H741 0.959 . S
C757 H742 0.959 . S
C757 H743 0.961 . S
C757 C756 1.502 . S
C758 H744 0.960 . S
C758 H745 0.961 . S
C758 H746 0.959 . S
C758 C756 1.561 . S
C759 C756 1.526 . S
C759 C760 1.396 . S
C759 C764 1.390 . S
C760 C754 1.465 . S
C760 C759 1.396 . S
C760 C761 1.399 . S
C761 H747 0.929 . S
C761 C760 1.399 . S
C761 C762 1.385 . S
C762 H748 0.931 . S
C762 C761 1.385 . S
C762 C763 1.389 . S
C763 C762 1.389 . S
C763 C764 1.387 . S
C764 H749 0.930 . S
C764 C759 1.390 . S
C764 C763 1.387 . S
H765 C777 0.930 . S
H766 C779 0.930 . S
H767 C780 0.930 . S
H768 C784 0.959 . S
H769 C784 0.959 . S
H770 C784 0.961 . S
H771 C785 0.960 . S
H772 C785 0.961 . S
H773 C785 0.959 . S
H774 C788 0.929 . S
H775 C789 0.931 . S
H776 C791 0.930 . S
C777 H765 0.930 . S
C777 C778 1.399 . S
C777 C782 1.399 . S
C778 C777 1.399 . S
C778 C779 1.376 . S
C779 H766 0.930 . S
C779 C778 1.376 . S
C779 C780 1.388 . S
C780 H767 0.930 . S
C780 C779 1.388 . S
C780 C781 1.390 . S
C781 C780 1.390 . S
C781 C782 1.394 . S
C781 C787 1.465 . S
C782 C777 1.399 . S
C782 C781 1.394 . S
C782 C783 1.516 . S
C783 C782 1.516 . S
C783 C784 1.502 . S
C783 C785 1.561 . S
C783 C786 1.526 . S
C784 H768 0.959 . S
C784 H769 0.959 . S
C784 H770 0.961 . S
C784 C783 1.502 . S
C785 H771 0.960 . S
C785 H772 0.961 . S
C785 H773 0.959 . S
C785 C783 1.561 . S
C786 C783 1.526 . S
C786 C787 1.396 . S
C786 C791 1.390 . S
C787 C781 1.465 . S
C787 C786 1.396 . S
C787 C788 1.399 . S
C788 H774 0.929 . S
C788 C787 1.399 . S
C788 C789 1.385 . S
C789 H775 0.931 . S
C789 C788 1.385 . S
C789 C790 1.389 . S
C790 C789 1.389 . S
C790 C791 1.387 . S
C791 H776 0.930 . S
C791 C786 1.390 . S
C791 C790 1.387 . S
H792 C804 0.930 . S
H793 C806 0.930 . S
H794 C807 0.930 . S
H795 C811 0.959 . S
H796 C811 0.959 . S
H797 C811 0.961 . S
H798 C812 0.960 1_565 S
H799 C812 0.961 . S
H800 C812 0.951 . S
H801 C815 0.929 . S
H802 C816 0.931 . S
H803 C818 0.930 . S
C804 H792 0.930 . S
C804 C805 1.399 . S
C804 C809 1.399 . S
C805 C804 1.399 . S
C805 C806 1.376 . S
C806 H793 0.930 . S
C806 C805 1.376 . S
C806 C807 1.388 . S
C807 H794 0.930 . S
C807 C806 1.388 . S
C807 C808 1.390 . S
C808 C807 1.390 . S
C808 C809 1.394 . S
C808 C814 1.465 . S
C809 C804 1.399 . S
C809 C808 1.394 . S
C809 C810 1.516 . S
C810 C809 1.516 . S
C810 C811 1.502 . S
C810 C812 1.561 . S
C810 C813 1.526 . S
C811 H795 0.959 . S
C811 H796 0.959 . S
C811 H797 0.961 . S
C811 C810 1.502 . S
C812 H798 0.960 1_545 S
C812 H799 0.961 . S
C812 H800 0.951 . S
C812 C810 1.561 . S
C813 C810 1.526 . S
C813 C814 1.396 . S
C813 C818 1.390 . S
C814 C808 1.465 . S
C814 C813 1.396 . S
C814 C815 1.399 . S
C815 H801 0.929 . S
C815 C814 1.399 . S
C815 C816 1.385 . S
C816 H802 0.931 . S
C816 C815 1.385 . S
C816 C817 1.389 . S
C817 C816 1.389 . S
C817 C818 1.387 . S
C818 H803 0.930 . S
C818 C813 1.390 . S
C818 C817 1.387 . S
H819 C831 0.930 . S
H820 C833 0.930 . S
H821 C834 0.930 . S
H822 C838 0.959 . S
H823 C838 0.959 1_556 S
H824 C838 0.961 . S
H825 C839 0.960 . S
H826 C839 0.961 . S
H827 C839 0.959 . S
H828 C842 0.929 . S
H829 C843 0.931 . S
H830 C845 0.930 1_556 S
C831 H819 0.930 . S
C831 C832 1.399 . S
C831 C836 1.399 . S
C832 C831 1.399 . S
C832 C833 1.376 . S
C833 H820 0.930 . S
C833 C832 1.376 . S
C833 C834 1.388 . S
C834 H821 0.930 . S
C834 C833 1.388 . S
C834 C835 1.390 . S
C835 C834 1.390 . S
C835 C836 1.394 . S
C835 C841 1.465 . S
C836 C831 1.399 . S
C836 C835 1.394 . S
C836 C837 1.516 . S
C837 C836 1.516 . S
C837 C838 1.502 . S
C837 C839 1.561 1_554 S
C837 C840 1.526 . S
C838 H822 0.959 . S
C838 H823 0.959 1_554 S
C838 H824 0.961 . S
C838 C837 1.502 . S
C839 H825 0.960 . S
C839 H826 0.961 . S
C839 H827 0.959 . S
C839 C837 1.561 1_556 S
C840 C837 1.526 . S
C840 C841 1.396 . S
C840 C845 1.390 . S
C841 C835 1.465 . S
C841 C840 1.396 . S
C841 C842 1.399 . S
C842 H828 0.929 . S
C842 C841 1.399 . S
C842 C843 1.385 . S
C843 H829 0.931 . S
C843 C842 1.385 . S
C843 C844 1.389 . S
C844 C843 1.389 . S
C844 C845 1.387 . S
C845 H830 0.930 1_554 S
C845 C840 1.390 . S
C845 C844 1.387 . S
H846 C858 0.930 1_655 S
H847 C860 0.930 . S
H848 C861 0.930 . S
H849 C865 0.958 . S
H850 C865 0.972 1_655 S
H851 C865 0.932 1_655 S
H852 C866 0.952 1_556 S
H853 C866 0.963 . S
H854 C866 0.949 1_556 S
H855 C869 0.929 . S
H856 C870 0.931 . S
H857 C872 0.930 . S
C858 H846 0.930 1_455 S
C858 C859 1.399 . S
C858 C863 1.399 . S
C859 C858 1.399 . S
C859 C860 1.376 . S
C860 H847 0.930 . S
C860 C859 1.376 . S
C860 C861 1.388 . S
C861 H848 0.930 . S
C861 C860 1.388 . S
C861 C862 1.390 . S
C862 C861 1.390 . S
C862 C863 1.394 . S
C862 C868 1.465 . S
C863 C858 1.399 . S
C863 C862 1.394 . S
C863 C864 1.516 . S
C864 C863 1.516 . S
C864 C865 1.520 . S
C864 C866 1.577 . S
C864 C867 1.526 . S
C865 H849 0.958 . S
C865 H850 0.972 1_455 S
C865 H851 0.932 1_455 S
C865 C864 1.520 . S
C866 H852 0.952 1_554 S
C866 H853 0.963 . S
C866 H854 0.949 1_554 S
C866 C864 1.577 . S
C867 C864 1.526 . S
C867 C868 1.396 . S
C867 C872 1.390 . S
C868 C862 1.465 . S
C868 C867 1.396 . S
C868 C869 1.399 . S
C869 H855 0.929 . S
C869 C868 1.399 . S
C869 C870 1.385 . S
C870 H856 0.931 . S
C870 C869 1.385 . S
C870 C871 1.389 . S
C871 C870 1.389 . S
C871 C872 1.387 . S
C872 H857 0.930 . S
C872 C867 1.390 . S
C872 C871 1.387 . S
H873 C885 0.930 1_556 S
H874 C887 0.930 . S
H875 C888 0.930 . S
H876 C892 0.959 1_554 S
H877 C892 0.959 . S
H878 C892 0.961 . S
H879 C893 0.960 . S
H880 C893 0.961 . S
H881 C893 0.959 . S
H882 C896 0.929 . S
H883 C897 0.931 . S
H884 C899 0.930 . S
C885 H873 0.930 1_554 S
C885 C886 1.399 . S
C885 C890 1.399 . S
C886 C885 1.399 . S
C886 C887 1.376 . S
C887 H874 0.930 . S
C887 C886 1.376 . S
C887 C888 1.388 . S
C888 H875 0.930 . S
C888 C887 1.388 . S
C888 C889 1.390 . S
C889 C888 1.390 . S
C889 C890 1.394 . S
C889 C895 1.465 . S
C890 C885 1.399 . S
C890 C889 1.394 . S
C890 C891 1.516 . S
C891 C890 1.516 . S
C891 C892 1.502 1_554 S
C891 C893 1.561 1_554 S
C891 C894 1.526 . S
C892 H876 0.959 1_556 S
C892 H877 0.959 . S
C892 H878 0.961 . S
C892 C891 1.502 1_556 S
C893 H879 0.960 . S
C893 H880 0.961 . S
C893 H881 0.959 . S
C893 C891 1.561 1_556 S
C894 C891 1.526 . S
C894 C895 1.396 . S
C894 C899 1.390 . S
C895 C889 1.465 . S
C895 C894 1.396 . S
C895 C896 1.399 . S
C896 H882 0.929 . S
C896 C895 1.399 . S
C896 C897 1.385 . S
C897 H883 0.931 . S
C897 C896 1.385 . S
C897 C898 1.389 . S
C898 C897 1.389 . S
C898 C899 1.387 . S
C899 H884 0.930 . S
C899 C894 1.390 . S
C899 C898 1.387 . S
H900 C912 0.930 1_655 S
H901 C914 0.930 . S
H902 C915 0.930 . S
H903 C919 0.959 . S
H904 C919 0.959 . S
H905 C919 0.961 . S
H906 C920 0.950 1_655 S
H907 C920 0.949 1_655 S
H908 C920 0.965 . S
H909 C923 0.929 . S
H910 C924 0.931 . S
H911 C926 0.930 . S
C912 H900 0.930 1_455 S
C912 C913 1.399 . S
C912 C917 1.399 . S
C913 C912 1.399 . S
C913 C914 1.376 . S
C914 H901 0.930 . S
C914 C913 1.376 . S
C914 C915 1.388 . S
C915 H902 0.930 . S
C915 C914 1.388 . S
C915 C916 1.390 . S
C916 C915 1.390 . S
C916 C917 1.394 . S
C916 C922 1.465 . S
C917 C912 1.399 . S
C917 C916 1.394 . S
C917 C918 1.516 . S
C918 C917 1.516 . S
C918 C919 1.502 . S
C918 C920 1.578 . S
C918 C921 1.526 . S
C919 H903 0.959 . S
C919 H904 0.959 . S
C919 H905 0.961 . S
C919 C918 1.502 . S
C920 H906 0.950 1_455 S
C920 H907 0.949 1_455 S
C920 H908 0.965 . S
C920 C918 1.578 . S
C921 C918 1.526 . S
C921 C922 1.396 . S
C921 C926 1.390 . S
C922 C916 1.465 . S
C922 C921 1.396 . S
C922 C923 1.399 . S
C923 H909 0.929 . S
C923 C922 1.399 . S
C923 C924 1.385 . S
C924 H910 0.931 . S
C924 C923 1.385 . S
C924 C925 1.389 . S
C925 C924 1.389 . S
C925 C926 1.387 . S
C926 H911 0.930 . S
C926 C921 1.390 . S
C926 C925 1.387 . S
H927 C939 0.930 . S
H928 C941 0.930 . S
H929 C942 0.930 . S
H930 C946 0.959 . S
H931 C946 0.959 . S
H932 C946 0.961 . S
H933 C947 0.960 . S
H934 C947 0.961 . S
H935 C947 0.959 . S
H936 C950 0.929 . S
H937 C951 0.931 . S
H938 C953 0.930 . S
C939 H927 0.930 . S
C939 C940 1.399 . S
C939 C944 1.399 . S
C940 C939 1.399 . S
C940 C941 1.376 . S
C941 H928 0.930 . S
C941 C940 1.376 . S
C941 C942 1.388 . S
C942 H929 0.930 . S
C942 C941 1.388 . S
C942 C943 1.390 . S
C943 C942 1.390 . S
C943 C944 1.394 . S
C943 C949 1.465 . S
C944 C939 1.399 . S
C944 C943 1.394 . S
C944 C945 1.516 . S
C945 C944 1.516 . S
C945 C946 1.502 . S
C945 C947 1.561 . S
C945 C948 1.526 . S
C946 H930 0.959 . S
C946 H931 0.959 . S
C946 H932 0.961 . S
C946 C945 1.502 . S
C947 H933 0.960 . S
C947 H934 0.961 . S
C947 H935 0.959 . S
C947 C945 1.561 . S
C948 C945 1.526 . S
C948 C949 1.396 . S
C948 C953 1.390 . S
C949 C943 1.465 . S
C949 C948 1.396 . S
C949 C950 1.399 . S
C950 H936 0.929 . S
C950 C949 1.399 . S
C950 C951 1.385 . S
C951 H937 0.931 . S
C951 C950 1.385 . S
C951 C952 1.389 . S
C952 C951 1.389 . S
C952 C953 1.387 . S
C953 H938 0.930 . S
C953 C948 1.390 . S
C953 C952 1.387 . S
H954 C966 0.930 . S
H955 C968 0.930 . S
H956 C969 0.930 . S
H957 C973 0.959 . S
H958 C973 0.959 . S
H959 C973 0.961 . S
H960 C974 0.960 . S
H961 C974 0.961 . S
H962 C974 0.959 . S
H963 C977 0.929 . S
H964 C978 0.931 . S
H965 C980 0.930 . S
C966 H954 0.930 . S
C966 C967 1.399 . S
C966 C971 1.399 . S
C967 C966 1.399 . S
C967 C968 1.376 . S
C968 H955 0.930 . S
C968 C967 1.376 . S
C968 C969 1.388 . S
C969 H956 0.930 . S
C969 C968 1.388 . S
C969 C970 1.390 . S
C970 C969 1.390 . S
C970 C971 1.394 . S
C970 C976 1.465 . S
C971 C966 1.399 . S
C971 C970 1.394 . S
C971 C972 1.516 . S
C972 C971 1.516 . S
C972 C973 1.502 . S
C972 C974 1.561 . S
C972 C975 1.526 . S
C973 H957 0.959 . S
C973 H958 0.959 . S
C973 H959 0.961 . S
C973 C972 1.502 . S
C974 H960 0.960 . S
C974 H961 0.961 . S
C974 H962 0.959 . S
C974 C972 1.561 . S
C975 C972 1.526 . S
C975 C976 1.396 . S
C975 C980 1.390 . S
C976 C970 1.465 . S
C976 C975 1.396 . S
C976 C977 1.399 . S
C977 H963 0.929 . S
C977 C976 1.399 . S
C977 C978 1.385 . S
C978 H964 0.931 . S
C978 C977 1.385 . S
C978 C979 1.389 . S
C979 C978 1.389 . S
C979 C980 1.387 . S
C980 H965 0.930 . S
C980 C975 1.390 . S
C980 C979 1.387 . S
H981 C993 0.930 1_565 S
H982 C995 0.930 . S
H983 C996 0.930 . S
H984 C1000 0.959 . S
H985 C1000 0.959 . S
H986 C1000 0.961 1_565 S
H987 C1001 0.960 1_565 S
H988 C1001 0.966 . S
H989 C1001 0.959 . S
H990 C1004 0.929 . S
H991 C1005 0.931 . S
H992 C1007 0.930 . S
C993 H981 0.930 1_545 S
C993 C994 1.399 . S
C993 C998 1.399 . S
C994 C993 1.399 . S
C994 C995 1.376 . S
C995 H982 0.930 . S
C995 C994 1.376 . S
C995 C996 1.388 . S
C996 H983 0.930 . S
C996 C995 1.388 . S
C996 C997 1.390 . S
C997 C996 1.390 . S
C997 C998 1.394 . S
C997 C1003 1.465 . S
C998 C993 1.399 . S
C998 C997 1.394 . S
C998 C999 1.516 . S
C999 C998 1.516 . S
C999 C1000 1.502 . S
C999 C1001 1.561 . S
C999 C1002 1.526 . S
C1000 H984 0.959 . S
C1000 H985 0.959 . S
C1000 H986 0.961 1_545 S
C1000 C999 1.502 . S
C1001 H987 0.960 1_545 S
C1001 H988 0.966 . S
C1001 H989 0.959 . S
C1001 C999 1.561 . S
C1002 C999 1.526 . S
C1002 C1003 1.396 . S
C1002 C1007 1.390 . S
C1003 C997 1.465 . S
C1003 C1002 1.396 . S
C1003 C1004 1.399 . S
C1004 H990 0.929 . S
C1004 C1003 1.399 . S
C1004 C1005 1.385 . S
C1005 H991 0.931 . S
C1005 C1004 1.385 . S
C1005 C1006 1.389 . S
C1006 C1005 1.389 . S
C1006 C1007 1.387 . S
C1007 H992 0.930 . S
C1007 C1002 1.390 . S
C1007 C1006 1.387 . S
H1008 C1020 0.930 . S
H1009 C1022 0.930 . S
H1010 C1023 0.930 . S
H1011 C1027 0.959 . S
H1012 C1027 0.959 . S
H1013 C1027 0.961 . S
H1014 C1028 0.960 . S
H1015 C1028 0.961 . S
H1016 C1028 0.959 . S
H1017 C1031 0.929 . S
H1018 C1032 0.931 1_554 S
H1019 C1034 0.930 . S
C1020 H1008 0.930 . S
C1020 C1021 1.399 . S
C1020 C1025 1.399 . S
C1021 C1020 1.399 . S
C1021 C1022 1.376 . S
C1022 H1009 0.930 . S
C1022 C1021 1.376 . S
C1022 C1023 1.388 . S
C1023 H1010 0.930 . S
C1023 C1022 1.388 . S
C1023 C1024 1.390 . S
C1024 C1023 1.390 . S
C1024 C1025 1.394 . S
C1024 C1030 1.465 . S
C1025 C1020 1.399 . S
C1025 C1024 1.394 . S
C1025 C1026 1.516 . S
C1026 C1025 1.516 . S
C1026 C1027 1.502 . S
C1026 C1028 1.561 . S
C1026 C1029 1.526 . S
C1027 H1011 0.959 . S
C1027 H1012 0.959 . S
C1027 H1013 0.961 . S
C1027 C1026 1.502 . S
C1028 H1014 0.960 . S
C1028 H1015 0.961 . S
C1028 H1016 0.959 . S
C1028 C1026 1.561 . S
C1029 C1026 1.526 . S
C1029 C1030 1.396 . S
C1029 C1034 1.390 . S
C1030 C1024 1.465 . S
C1030 C1029 1.396 . S
C1030 C1031 1.399 . S
C1031 H1017 0.929 . S
C1031 C1030 1.399 . S
C1031 C1032 1.385 . S
C1032 H1018 0.931 1_556 S
C1032 C1031 1.385 . S
C1032 C1033 1.389 . S
C1033 C1032 1.389 . S
C1033 C1034 1.387 . S
C1034 H1019 0.930 . S
C1034 C1029 1.390 . S
C1034 C1033 1.387 . S
H1035 C1047 0.930 . S
H1036 C1049 0.930 . S
H1037 C1050 0.930 . S
H1038 C1054 0.959 . S
H1039 C1054 0.959 . S
H1040 C1054 0.961 . S
H1041 C1055 0.960 . S
H1042 C1055 0.961 . S
H1043 C1055 0.959 . S
H1044 C1058 0.929 . S
H1045 C1059 0.931 . S
H1046 C1061 0.930 . S
C1047 H1035 0.930 . S
C1047 C1048 1.399 . S
C1047 C1052 1.399 . S
C1048 C1047 1.399 . S
C1048 C1049 1.376 . S
C1049 H1036 0.930 . S
C1049 C1048 1.376 . S
C1049 C1050 1.388 . S
C1050 H1037 0.930 . S
C1050 C1049 1.388 . S
C1050 C1051 1.390 . S
C1051 C1050 1.390 . S
C1051 C1052 1.394 . S
C1051 C1057 1.465 . S
C1052 C1047 1.399 . S
C1052 C1051 1.394 . S
C1052 C1053 1.516 . S
C1053 C1052 1.516 . S
C1053 C1054 1.502 . S
C1053 C1055 1.561 . S
C1053 C1056 1.526 . S
C1054 H1038 0.959 . S
C1054 H1039 0.959 . S
C1054 H1040 0.961 . S
C1054 C1053 1.502 . S
C1055 H1041 0.960 . S
C1055 H1042 0.961 . S
C1055 H1043 0.959 . S
C1055 C1053 1.561 . S
C1056 C1053 1.526 . S
C1056 C1057 1.396 . S
C1056 C1061 1.390 . S
C1057 C1051 1.465 . S
C1057 C1056 1.396 . S
C1057 C1058 1.399 . S
C1058 H1044 0.929 . S
C1058 C1057 1.399 . S
C1058 C1059 1.385 . S
C1059 H1045 0.931 . S
C1059 C1058 1.385 . S
C1059 C1060 1.389 . S
C1060 C1059 1.389 . S
C1060 C1061 1.387 . S
C1061 H1046 0.930 . S
C1061 C1056 1.390 . S
C1061 C1060 1.387 . S
H1062 C1074 0.930 . S
H1063 C1076 0.930 . S
H1064 C1077 0.930 . S
H1065 C1081 0.959 . S
H1066 C1081 0.959 . S
H1067 C1081 0.961 . S
H1068 C1082 0.960 . S
H1069 C1082 0.961 . S
H1070 C1082 0.959 . S
H1071 C1085 0.929 . S
H1072 C1086 0.931 . S
H1073 C1088 0.930 . S
C1074 H1062 0.930 . S
C1074 C1075 1.399 . S
C1074 C1079 1.399 . S
C1075 C1074 1.399 . S
C1075 C1076 1.376 . S
C1076 H1063 0.930 . S
C1076 C1075 1.376 . S
C1076 C1077 1.388 . S
C1077 H1064 0.930 . S
C1077 C1076 1.388 . S
C1077 C1078 1.390 . S
C1078 C1077 1.390 . S
C1078 C1079 1.394 . S
C1078 C1084 1.465 . S
C1079 C1074 1.399 . S
C1079 C1078 1.394 . S
C1079 C1080 1.516 . S
C1080 C1079 1.516 . S
C1080 C1081 1.502 . S
C1080 C1082 1.561 . S
C1080 C1083 1.526 . S
C1081 H1065 0.959 . S
C1081 H1066 0.959 . S
C1081 H1067 0.961 . S
C1081 C1080 1.502 . S
C1082 H1068 0.960 . S
C1082 H1069 0.961 . S
C1082 H1070 0.959 . S
C1082 C1080 1.561 . S
C1083 C1080 1.526 . S
C1083 C1084 1.396 . S
C1083 C1088 1.390 . S
C1084 C1078 1.465 . S
C1084 C1083 1.396 . S
C1084 C1085 1.399 . S
C1085 H1071 0.929 . S
C1085 C1084 1.399 . S
C1085 C1086 1.385 . S
C1086 H1072 0.931 . S
C1086 C1085 1.385 . S
C1086 C1087 1.389 . S
C1087 C1086 1.389 . S
C1087 C1088 1.387 . S
C1088 H1073 0.930 . S
C1088 C1083 1.390 . S
C1088 C1087 1.387 . S
H1089 C1101 0.930 . S
H1090 C1103 0.930 . S
H1091 C1104 0.930 . S
H1092 C1108 0.959 . S
H1093 C1108 0.959 . S
H1094 C1108 0.961 . S
H1095 C1109 0.960 . S
H1096 C1109 0.961 . S
H1097 C1109 0.959 . S
H1098 C1112 0.929 . S
H1099 C1113 0.931 . S
H1100 C1115 0.930 . S
C1101 H1089 0.930 . S
C1101 C1102 1.399 . S
C1101 C1106 1.399 . S
C1102 C1101 1.399 . S
C1102 C1103 1.376 . S
C1103 H1090 0.930 . S
C1103 C1102 1.376 . S
C1103 C1104 1.388 . S
C1104 H1091 0.930 . S
C1104 C1103 1.388 . S
C1104 C1105 1.390 . S
C1105 C1104 1.390 . S
C1105 C1106 1.394 . S
C1105 C1111 1.465 . S
C1106 C1101 1.399 . S
C1106 C1105 1.394 . S
C1106 C1107 1.516 . S
C1107 C1106 1.516 . S
C1107 C1108 1.502 . S
C1107 C1109 1.561 . S
C1107 C1110 1.526 . S
C1108 H1092 0.959 . S
C1108 H1093 0.959 . S
C1108 H1094 0.961 . S
C1108 C1107 1.502 . S
C1109 H1095 0.960 . S
C1109 H1096 0.961 . S
C1109 H1097 0.959 . S
C1109 C1107 1.561 . S
C1110 C1107 1.526 . S
C1110 C1111 1.396 . S
C1110 C1115 1.390 . S
C1111 C1105 1.465 . S
C1111 C1110 1.396 . S
C1111 C1112 1.399 . S
C1112 H1098 0.929 . S
C1112 C1111 1.399 . S
C1112 C1113 1.385 . S
C1113 H1099 0.931 . S
C1113 C1112 1.385 . S
C1113 C1114 1.389 . S
C1114 C1113 1.389 . S
C1114 C1115 1.387 . S
C1115 H1100 0.930 . S
C1115 C1110 1.390 . S
C1115 C1114 1.387 . S
H1116 C1128 0.930 . S
H1117 C1130 0.930 . S
H1118 C1131 0.930 . S
H1119 C1135 0.959 . S
H1120 C1135 0.959 . S
H1121 C1135 0.961 . S
H1122 C1136 0.960 . S
H1123 C1136 0.961 . S
H1124 C1136 0.959 . S
H1125 C1139 0.929 . S
H1126 C1140 0.931 . S
H1127 C1142 0.930 . S
C1128 H1116 0.930 . S
C1128 C1129 1.399 . S
C1128 C1133 1.399 . S
C1129 C1128 1.399 . S
C1129 C1130 1.376 . S
C1130 H1117 0.930 . S
C1130 C1129 1.376 . S
C1130 C1131 1.388 . S
C1131 H1118 0.930 . S
C1131 C1130 1.388 . S
C1131 C1132 1.390 . S
C1132 C1131 1.390 . S
C1132 C1133 1.394 . S
C1132 C1138 1.465 . S
C1133 C1128 1.399 . S
C1133 C1132 1.394 . S
C1133 C1134 1.516 . S
C1134 C1133 1.516 . S
C1134 C1135 1.502 . S
C1134 C1136 1.561 . S
C1134 C1137 1.526 . S
C1135 H1119 0.959 . S
C1135 H1120 0.959 . S
C1135 H1121 0.961 . S
C1135 C1134 1.502 . S
C1136 H1122 0.960 . S
C1136 H1123 0.961 . S
C1136 H1124 0.959 . S
C1136 C1134 1.561 . S
C1137 C1134 1.526 . S
C1137 C1138 1.396 . S
C1137 C1142 1.390 . S
C1138 C1132 1.465 . S
C1138 C1137 1.396 . S
C1138 C1139 1.399 . S
C1139 H1125 0.929 . S
C1139 C1138 1.399 . S
C1139 C1140 1.385 . S
C1140 H1126 0.931 . S
C1140 C1139 1.385 . S
C1140 C1141 1.389 . S
C1141 C1140 1.389 . S
C1141 C1142 1.387 . S
C1142 H1127 0.930 . S
C1142 C1137 1.390 . S
C1142 C1141 1.387 . S
H1143 C1155 0.930 . S
H1144 C1157 0.930 . S
H1145 C1158 0.930 . S
H1146 C1162 0.959 . S
H1147 C1162 0.959 . S
H1148 C1162 0.961 . S
H1149 C1163 0.960 . S
H1150 C1163 0.961 . S
H1151 C1163 0.959 . S
H1152 C1166 0.929 . S
H1153 C1167 0.931 . S
H1154 C1169 0.930 . S
C1155 H1143 0.930 . S
C1155 C1156 1.399 . S
C1155 C1160 1.399 . S
C1156 C1155 1.399 . S
C1156 C1157 1.376 . S
C1157 H1144 0.930 . S
C1157 C1156 1.376 . S
C1157 C1158 1.388 . S
C1158 H1145 0.930 . S
C1158 C1157 1.388 . S
C1158 C1159 1.390 . S
C1159 C1158 1.390 . S
C1159 C1160 1.394 . S
C1159 C1165 1.465 . S
C1160 C1155 1.399 . S
C1160 C1159 1.394 . S
C1160 C1161 1.516 . S
C1161 C1160 1.516 . S
C1161 C1162 1.502 . S
C1161 C1163 1.561 . S
C1161 C1164 1.526 . S
C1162 H1146 0.959 . S
C1162 H1147 0.959 . S
C1162 H1148 0.961 . S
C1162 C1161 1.502 . S
C1163 H1149 0.960 . S
C1163 H1150 0.961 . S
C1163 H1151 0.959 . S
C1163 C1161 1.561 . S
C1164 C1161 1.526 . S
C1164 C1165 1.396 . S
C1164 C1169 1.390 . S
C1165 C1159 1.465 . S
C1165 C1164 1.396 . S
C1165 C1166 1.399 . S
C1166 H1152 0.929 . S
C1166 C1165 1.399 . S
C1166 C1167 1.385 . S
C1167 H1153 0.931 . S
C1167 C1166 1.385 . S
C1167 C1168 1.389 . S
C1168 C1167 1.389 . S
C1168 C1169 1.387 . S
C1169 H1154 0.930 . S
C1169 C1164 1.390 . S
C1169 C1168 1.387 . S
H1170 C1182 0.930 . S
H1171 C1184 0.930 . S
H1172 C1185 0.930 . S
H1173 C1189 0.959 . S
H1174 C1189 0.959 . S
H1175 C1189 0.961 . S
H1176 C1190 0.960 . S
H1177 C1190 0.961 . S
H1178 C1190 0.959 . S
H1179 C1193 0.929 . S
H1180 C1194 0.931 . S
H1181 C1196 0.930 . S
C1182 H1170 0.930 . S
C1182 C1183 1.399 . S
C1182 C1187 1.399 . S
C1183 C1182 1.399 . S
C1183 C1184 1.376 . S
C1184 H1171 0.930 . S
C1184 C1183 1.376 . S
C1184 C1185 1.388 . S
C1185 H1172 0.930 . S
C1185 C1184 1.388 . S
C1185 C1186 1.390 . S
C1186 C1185 1.390 . S
C1186 C1187 1.394 . S
C1186 C1192 1.465 . S
C1187 C1182 1.399 . S
C1187 C1186 1.394 . S
C1187 C1188 1.516 . S
C1188 C1187 1.516 . S
C1188 C1189 1.502 . S
C1188 C1190 1.561 . S
C1188 C1191 1.526 . S
C1189 H1173 0.959 . S
C1189 H1174 0.959 . S
C1189 H1175 0.961 . S
C1189 C1188 1.502 . S
C1190 H1176 0.960 . S
C1190 H1177 0.961 . S
C1190 H1178 0.959 . S
C1190 C1188 1.561 . S
C1191 C1188 1.526 . S
C1191 C1192 1.396 . S
C1191 C1196 1.390 . S
C1192 C1186 1.465 . S
C1192 C1191 1.396 . S
C1192 C1193 1.399 . S
C1193 H1179 0.929 . S
C1193 C1192 1.399 . S
C1193 C1194 1.385 . S
C1194 H1180 0.931 . S
C1194 C1193 1.385 . S
C1194 C1195 1.389 . S
C1195 C1194 1.389 . S
C1195 C1196 1.387 . S
C1196 H1181 0.930 . S
C1196 C1191 1.390 . S
C1196 C1195 1.387 . S
H1197 C1209 0.930 . S
H1198 C1211 0.930 . S
H1199 C1212 0.930 . S
H1200 C1216 0.959 . S
H1201 C1216 0.959 . S
H1202 C1216 0.961 . S
H1203 C1217 0.960 . S
H1204 C1217 0.961 . S
H1205 C1217 0.959 . S
H1206 C1220 0.929 . S
H1207 C1221 0.931 . S
H1208 C1223 0.930 . S
C1209 H1197 0.930 . S
C1209 C1210 1.399 . S
C1209 C1214 1.399 . S
C1210 C1209 1.399 . S
C1210 C1211 1.376 . S
C1211 H1198 0.930 . S
C1211 C1210 1.376 . S
C1211 C1212 1.388 . S
C1212 H1199 0.930 . S
C1212 C1211 1.388 . S
C1212 C1213 1.390 . S
C1213 C1212 1.390 . S
C1213 C1214 1.394 . S
C1213 C1219 1.465 . S
C1214 C1209 1.399 . S
C1214 C1213 1.394 . S
C1214 C1215 1.516 . S
C1215 C1214 1.516 . S
C1215 C1216 1.502 . S
C1215 C1217 1.561 . S
C1215 C1218 1.526 . S
C1216 H1200 0.959 . S
C1216 H1201 0.959 . S
C1216 H1202 0.961 . S
C1216 C1215 1.502 . S
C1217 H1203 0.960 . S
C1217 H1204 0.961 . S
C1217 H1205 0.959 . S
C1217 C1215 1.561 . S
C1218 C1215 1.526 . S
C1218 C1219 1.396 . S
C1218 C1223 1.390 . S
C1219 C1213 1.465 . S
C1219 C1218 1.396 . S
C1219 C1220 1.399 . S
C1220 H1206 0.929 . S
C1220 C1219 1.399 . S
C1220 C1221 1.385 . S
C1221 H1207 0.931 . S
C1221 C1220 1.385 . S
C1221 C1222 1.389 . S
C1222 C1221 1.389 . S
C1222 C1223 1.387 . S
C1223 H1208 0.930 . S
C1223 C1218 1.390 . S
C1223 C1222 1.387 . S
C265 C43 1.834 . S
C277 C13 1.881 . S
C292 C68 1.849 . S
C304 C15 1.858 . S
C319 C29 1.882 . S
C331 C83 1.830 . S
C346 C40 1.831 . S
C358 C70 1.882 . S
C373 C0 1.846 . S
C385 C54 1.859 . S
C400 C57 1.832 . S
C412 C26 1.880 . S
C427 C138 1.853 . S
C439 C97 1.854 . S
C454 C99 1.843 . S
C466 C152 1.865 . S
C481 C124 1.880 . S
C493 C155 1.830 . S
C508 C166 1.860 1_556 S
C520 C113 1.862 . S
C535 C127 1.833 1_556 S
C547 C84 1.871 . S
C562 C141 1.880 1_556 S
C574 C110 1.830 . S
C589 C181 1.861 . S
C601 C211 1.844 . S
C616 C183 1.834 . S
C628 C236 1.876 . S
C643 C197 1.857 . S
C655 C239 1.863 . S
C670 C250 1.857 . S
C682 C208 1.864 1_554 S
C697 C222 1.880 . S
C709 C168 1.830 1_554 S
C724 C225 1.879 . S
C736 C194 1.830 1_554 S
C751 C12 1.595 . S
C763 C111 1.603 . S
C778 C14 1.619 . S
C790 C112 1.590 . S
C805 C85 1.622 . S
C817 C28 1.630 . S
C832 C41 1.593 . S
C844 C182 1.608 1_554 S
C859 C196 1.641 1_554 S
C871 C1 1.627 . S
C886 C180 1.633 1_554 S
C898 C27 1.606 . S
C913 C224 1.638 . S
C925 C42 1.617 . S
C940 C69 1.621 . S
C952 C251 1.632 . S
C967 C223 1.633 . S
C979 C82 1.622 . S
C994 C153 1.636 1_556 S
C1006 C71 1.625 . S
C1021 C55 1.597 . S
C1033 C154 1.593 1_556 S
C1048 C56 1.595 . S
C1060 C139 1.594 1_556 S
C1075 C96 1.629 . S
C1087 C195 1.620 . S
C1102 C98 1.633 . S
C1114 C209 1.606 . S
C1129 C125 1.591 . S
C1141 C169 1.616 . S
C1156 C237 1.616 . S
C1168 C167 1.633 . S
C1183 C238 1.599 . S
C1195 C126 1.593 . S
C1210 C140 1.612 . S
C1222 C210 1.593 . S
