# Generated by pormake.
# Topology acs-h, (5)-cn, num edge types: 1
# Building blocks:
#     Node 0, Type 0, BuildingBlock: XOMCOT_clean_sbu_1, # of connection points: 5
#     Node 1, Type 0, BuildingBlock: XOMCOT_clean_sbu_1, # of connection points: 5
#     Node 2, Type 0, BuildingBlock: XOMCOT_clean_sbu_1, # of connection points: 5
#     Node 3, Type 0, BuildingBlock: XOMCOT_clean_sbu_1, # of connection points: 5
#     Node 4, Type 0, BuildingBlock: XOMCOT_clean_sbu_1, # of connection points: 5
#     Node 5, Type 0, BuildingBlock: XOMCOT_clean_sbu_1, # of connection points: 5
#     Node 6, Type 0, BuildingBlock: XOMCOT_clean_sbu_1, # of connection points: 5
#     Node 7, Type 0, BuildingBlock: XOMCOT_clean_sbu_1, # of connection points: 5
#     Node 8, Type 0, BuildingBlock: XOMCOT_clean_sbu_1, # of connection points: 5
#     Node 9, Type 0, BuildingBlock: XOMCOT_clean_sbu_1, # of connection points: 5
#     Node 10, Type 0, BuildingBlock: XOMCOT_clean_sbu_1, # of connection points: 5
#     Node 11, Type 0, BuildingBlock: XOMCOT_clean_sbu_1, # of connection points: 5
#     Edge 12, Type (0, 0), BuildingBlock: CIFDUS_clean_linker_0, # of connection points: 2
#     Edge 13, Type (0, 0), BuildingBlock: CIFDUS_clean_linker_0, # of connection points: 2
#     Edge 14, Type (0, 0), BuildingBlock: CIFDUS_clean_linker_0, # of connection points: 2
#     Edge 15, Type (0, 0), BuildingBlock: CIFDUS_clean_linker_0, # of connection points: 2
#     Edge 16, Type (0, 0), BuildingBlock: CIFDUS_clean_linker_0, # of connection points: 2
#     Edge 17, Type (0, 0), BuildingBlock: CIFDUS_clean_linker_0, # of connection points: 2
#     Edge 18, Type (0, 0), BuildingBlock: CIFDUS_clean_linker_0, # of connection points: 2
#     Edge 19, Type (0, 0), BuildingBlock: CIFDUS_clean_linker_0, # of connection points: 2
#     Edge 20, Type (0, 0), BuildingBlock: CIFDUS_clean_linker_0, # of connection points: 2
#     Edge 21, Type (0, 0), BuildingBlock: CIFDUS_clean_linker_0, # of connection points: 2
#     Edge 22, Type (0, 0), BuildingBlock: CIFDUS_clean_linker_0, # of connection points: 2
#     Edge 23, Type (0, 0), BuildingBlock: CIFDUS_clean_linker_0, # of connection points: 2
#     Edge 24, Type (0, 0), BuildingBlock: CIFDUS_clean_linker_0, # of connection points: 2
#     Edge 25, Type (0, 0), BuildingBlock: CIFDUS_clean_linker_0, # of connection points: 2
#     Edge 26, Type (0, 0), BuildingBlock: CIFDUS_clean_linker_0, # of connection points: 2
#     Edge 27, Type (0, 0), BuildingBlock: CIFDUS_clean_linker_0, # of connection points: 2
#     Edge 28, Type (0, 0), BuildingBlock: CIFDUS_clean_linker_0, # of connection points: 2
#     Edge 29, Type (0, 0), BuildingBlock: CIFDUS_clean_linker_0, # of connection points: 2
#     Edge 30, Type (0, 0), BuildingBlock: CIFDUS_clean_linker_0, # of connection points: 2
#     Edge 31, Type (0, 0), BuildingBlock: CIFDUS_clean_linker_0, # of connection points: 2
#     Edge 32, Type (0, 0), BuildingBlock: CIFDUS_clean_linker_0, # of connection points: 2
#     Edge 33, Type (0, 0), BuildingBlock: CIFDUS_clean_linker_0, # of connection points: 2
#     Edge 34, Type (0, 0), BuildingBlock: CIFDUS_clean_linker_0, # of connection points: 2
#     Edge 35, Type (0, 0), BuildingBlock: CIFDUS_clean_linker_0, # of connection points: 2
#     Edge 36, Type (0, 0), BuildingBlock: CIFDUS_clean_linker_0, # of connection points: 2
#     Edge 37, Type (0, 0), BuildingBlock: CIFDUS_clean_linker_0, # of connection points: 2
#     Edge 38, Type (0, 0), BuildingBlock: CIFDUS_clean_linker_0, # of connection points: 2
#     Edge 39, Type (0, 0), BuildingBlock: CIFDUS_clean_linker_0, # of connection points: 2
#     Edge 40, Type (0, 0), BuildingBlock: CIFDUS_clean_linker_0, # of connection points: 2
#     Edge 41, Type (0, 0), BuildingBlock: CIFDUS_clean_linker_0, # of connection points: 2
# Relax obj value: 0.908
# Max RMSD: 0.278
# Mean RMSD: 0.278
data_MOF--net-acs-h--node1-XOMCOT_clean_sbu_1--edge1-CIFDUS_clean_linker_0
_symmetry_space_group_name_H-M    P1
_symmetry_Int_Tables_number       1
_symmetry_cell_setting            triclinic
loop_
_symmetry_equiv_pos_as_xyz
'x, y, z'
_cell_length_a     42.757262
_cell_length_b     42.724659
_cell_length_c     35.417472
_cell_angle_alpha  90.110097
_cell_angle_beta   89.98817
_cell_angle_gamma 119.90575
loop_
_atom_site_label
_atom_site_type_symbol
_atom_site_fract_x
_atom_site_fract_y
_atom_site_fract_z
_atom_type_partial_charge
C0 C 0.516 0.16879 0.03164 0.0
C1 C 0.55172 0.18075 0.02344 0.0
N2 N 0.57148 0.19769 0.05425 0.0
N3 N 0.5134 0.17775 0.06757 0.0
C4 C 0.54766 0.19577 0.08031 0.0
H5 H 0.4933 0.15363 0.01299 0.0
Co6 Co 0.47151 0.1647 0.09477 0.0
C7 C 0.49095 0.15786 0.17407 0.0
O8 O 0.45903 0.12985 0.18096 0.0
N9 N 0.4291 0.15211 0.12208 0.0
C10 C 0.37508 0.12665 0.15004 0.0
C11 C 0.39706 0.12113 0.12552 0.0
C12 C 0.42571 0.17571 0.14463 0.0
N13 N 0.39327 0.16126 0.16137 0.0
O14 O 0.48413 0.2139 0.09576 0.0
H15 H 0.38998 0.09583 0.1119 0.0
H16 H 0.44724 0.20291 0.1502 0.0
O17 O 0.49782 0.17269 0.14164 0.0
C18 C 0.48107 0.22911 0.06639 0.0
O19 O 0.46701 0.20974 0.03572 0.0
N20 N 0.46052 0.11669 0.09102 0.0
C21 C 0.46656 0.06317 0.05281 0.0
C22 C 0.48628 0.0783 0.08594 0.0
C23 C 0.48316 0.10532 0.10449 0.0
C24 C 0.43809 0.0993 0.06145 0.0
C25 C 0.44044 0.07213 0.04203 0.0
H26 H 0.50299 0.1202 0.12586 0.0
H27 H 0.42165 0.10968 0.04987 0.0
H28 H 0.55505 0.20615 0.1087 0.0
H29 H 0.56223 0.17695 0.9971 0.0
H30 H 0.34811 0.1069 0.15893 0.0
H31 H 0.50721 0.07268 0.09489 0.0
H32 H 0.42444 0.06078 0.01674 0.0
C33 C 0.83617 0.34058 0.02205 0.0
C34 C 0.82772 0.36533 0.00781 0.0
N35 N 0.82066 0.38118 0.03698 0.0
N36 N 0.83453 0.34079 0.05999 0.0
C37 C 0.82492 0.36569 0.06835 0.0
H38 H 0.84301 0.32334 0.00584 0.0
Co39 Co 0.84429 0.31136 0.09006 0.0
C40 C 0.85728 0.34229 0.16746 0.0
O41 O 0.8824 0.33359 0.17253 0.0
N42 N 0.8538 0.28009 0.11943 0.0
C43 C 0.87792 0.25108 0.14937 0.0
C44 C 0.88455 0.2788 0.12491 0.0
C45 C 0.82901 0.25257 0.14052 0.0
N46 N 0.84284 0.23454 0.15848 0.0
O47 O 0.79415 0.27895 0.09262 0.0
H48 H 0.91058 0.29724 0.11303 0.0
H49 H 0.80134 0.24626 0.14392 0.0
O50 O 0.84031 0.33507 0.13605 0.0
C51 C 0.77838 0.25519 0.06713 0.0
O52 O 0.79787 0.25037 0.04157 0.0
N53 N 0.8933 0.34446 0.08417 0.0
C54 C 0.95357 0.39882 0.04788 0.0
C55 C 0.93873 0.40667 0.07926 0.0
C56 C 0.90827 0.37931 0.09651 0.0
C57 C 0.90912 0.33579 0.05571 0.0
C58 C 0.93964 0.36259 0.03735 0.0
H59 H 0.89449 0.38758 0.11596 0.0
H60 H 0.89593 0.30848 0.04481 0.0
H61 H 0.82153 0.37261 0.09685 0.0
H62 H 0.82619 0.37063 0.9782 0.0
H63 H 0.89721 0.24374 0.15975 0.0
H64 H 0.94759 0.43425 0.08764 0.0
H65 H 0.95029 0.35537 0.0132 0.0
C66 C 0.64383 0.49277 0.00585 0.0
C67 C 0.61661 0.45923 0.99533 0.0
N68 N 0.60719 0.43727 0.02561 0.0
N69 N 0.65131 0.49223 0.04269 0.0
C70 C 0.62885 0.45805 0.05394 0.0
H71 H 0.65738 0.51611 0.98773 0.0
Co72 Co 0.68593 0.53181 0.06886 0.0
C73 C 0.66037 0.52277 0.14858 0.0
O74 O 0.6714 0.55748 0.1508 0.0
N75 N 0.72213 0.5722 0.09397 0.0
C76 C 0.76332 0.627 0.11419 0.0
C77 C 0.73728 0.60801 0.08717 0.0
C78 C 0.7401 0.57019 0.12428 0.0
N79 N 0.76449 0.60287 0.13751 0.0
O80 O 0.71375 0.50867 0.07348 0.0
H81 H 0.72982 0.61985 0.06451 0.0
H82 H 0.73458 0.54506 0.13737 0.0
O83 O 0.66345 0.5094 0.11738 0.0
C84 C 0.73425 0.50799 0.04797 0.0
O85 O 0.73818 0.52549 0.01627 0.0
N86 N 0.65728 0.55356 0.0627 0.0
C87 C 0.60552 0.56762 0.03248 0.0
C88 C 0.59906 0.54875 0.06631 0.0
C89 C 0.6246 0.54077 0.08012 0.0
C90 C 0.66516 0.57469 0.0313 0.0
C91 C 0.6393 0.58161 0.01523 0.0
H92 H 0.61558 0.52071 0.10188 0.0
H93 H 0.68995 0.58259 0.01612 0.0
H94 H 0.62906 0.44846 0.08209 0.0
H95 H 0.60472 0.45181 0.96749 0.0
H96 H 0.77912 0.65604 0.11728 0.0
H97 H 0.57259 0.53617 0.07933 0.0
H98 H 0.64458 0.59521 0.98825 0.0
C99 C 0.86522 0.49119 0.43789 0.0
C100 C 0.85184 0.45662 0.45109 0.0
N101 N 0.84403 0.43434 0.42119 0.0
N102 N 0.86596 0.49074 0.3999 0.0
C103 C 0.85287 0.4558 0.39049 0.0
H104 H 0.87346 0.51515 0.45482 0.0
Co105 Co 0.88121 0.53116 0.37013 0.0
C106 C 0.89792 0.51253 0.2948 0.0
O107 O 0.92512 0.54558 0.29118 0.0
N108 N 0.89608 0.57283 0.34087 0.0
C109 C 0.92261 0.62793 0.31539 0.0
C110 C 0.92567 0.60616 0.34223 0.0
C111 C 0.8757 0.57518 0.31322 0.0
N112 N 0.89084 0.60823 0.29769 0.0
O113 O 0.83209 0.51754 0.36215 0.0
H114 H 0.948 0.61454 0.36152 0.0
H115 H 0.85012 0.55281 0.30411 0.0
O116 O 0.87889 0.50353 0.32487 0.0
C117 C 0.81599 0.52705 0.38576 0.0
O118 O 0.83437 0.54792 0.41422 0.0
N119 N 0.92877 0.54345 0.3812 0.0
C120 C 0.98136 0.54191 0.42586 0.0
C121 C 0.97108 0.52302 0.39167 0.0
C122 C 0.94407 0.52341 0.37012 0.0
C123 C 0.94131 0.565 0.41237 0.0
C124 C 0.96761 0.56456 0.43531 0.0
H125 H 0.9328 0.50387 0.34775 0.0
H126 H 0.92771 0.57918 0.42199 0.0
H127 H 0.84983 0.44625 0.3617 0.0
H128 H 0.84718 0.44848 0.48041 0.0
H129 H 0.94165 0.6561 0.31 0.0
H130 H 0.98042 0.50447 0.38408 0.0
H131 H 0.97465 0.57913 0.46187 0.0
C132 C 0.54896 0.40913 0.43628 0.0
C133 C 0.58427 0.43154 0.44685 0.0
N134 N 0.60496 0.44102 0.41558 0.0
N135 N 0.54732 0.40457 0.39855 0.0
C136 C 0.58182 0.42436 0.38675 0.0
H137 H 0.52598 0.39625 0.45498 0.0
Co138 Co 0.50528 0.3743 0.37226 0.0
C139 C 0.54503 0.37248 0.30247 0.0
O140 O 0.53786 0.33898 0.30639 0.0
N141 N 0.46255 0.34365 0.34789 0.0
C142 C 0.40544 0.30014 0.34193 0.0
C143 C 0.4313 0.32382 0.36664 0.0
C144 C 0.45494 0.33238 0.31177 0.0
N145 N 0.42048 0.30568 0.30744 0.0
O146 O 0.51437 0.33577 0.38001 0.0
H147 H 0.42812 0.3253 0.39677 0.0
H148 H 0.47464 0.34168 0.28936 0.0
O149 O 0.53254 0.38618 0.32588 0.0
C150 C 0.50433 0.31583 0.40917 0.0
O151 O 0.48392 0.31967 0.43436 0.0
N152 N 0.49667 0.41261 0.36559 0.0
C153 C 0.50074 0.47916 0.37038 0.0
C154 C 0.50959 0.46848 0.33666 0.0
C155 C 0.50646 0.43443 0.33446 0.0
C156 C 0.48433 0.42111 0.39715 0.0
C157 C 0.48604 0.45443 0.40014 0.0
H158 H 0.51411 0.42698 0.30843 0.0
H159 H 0.47598 0.40319 0.42121 0.0
H160 H 0.59004 0.42631 0.35767 0.0
H161 H 0.59399 0.4391 0.47549 0.0
H162 H 0.37828 0.27938 0.34904 0.0
H163 H 0.52079 0.487 0.31314 0.0
H164 H 0.47914 0.46209 0.42671 0.0
C165 C 0.62932 0.17371 0.45296 0.0
C166 C 0.61234 0.19341 0.45978 0.0
N167 N 0.61279 0.21044 0.4276 0.0
N168 N 0.63994 0.17807 0.41658 0.0
C169 C 0.62984 0.20081 0.40208 0.0
H170 H 0.63325 0.15692 0.47303 0.0
Co171 Co 0.66258 0.15699 0.39094 0.0
C172 C 0.64315 0.17143 0.31431 0.0
O173 O 0.67557 0.19845 0.30712 0.0
N174 N 0.68539 0.13577 0.36469 0.0
C175 C 0.69457 0.10033 0.3256 0.0
C176 C 0.66952 0.10323 0.34736 0.0
C177 C 0.72015 0.15181 0.35337 0.0
N178 N 0.72637 0.13117 0.32908 0.0
O179 O 0.7001 0.20389 0.37807 0.0
H180 H 0.64098 0.08382 0.34808 0.0
H181 H 0.73987 0.17952 0.35972 0.0
O182 O 0.63659 0.15447 0.34545 0.0
C183 C 0.72271 0.22212 0.40374 0.0
O184 O 0.72076 0.20663 0.43636 0.0
N185 N 0.62569 0.11182 0.40575 0.0
C186 C 0.57135 0.04845 0.43658 0.0
C187 C 0.56327 0.06695 0.40938 0.0
C188 C 0.59074 0.09906 0.39488 0.0
C189 C 0.63421 0.09382 0.43179 0.0
C190 C 0.6072 0.06192 0.44789 0.0
H191 H 0.58333 0.11444 0.37661 0.0
H192 H 0.66189 0.10501 0.44097 0.0
H193 H 0.63431 0.20963 0.37302 0.0
H194 H 0.60073 0.19515 0.48631 0.0
H195 H 0.68908 0.07844 0.30638 0.0
H196 H 0.53562 0.05786 0.40119 0.0
H197 H 0.61402 0.04846 0.46956 0.0
C198 C 0.47681 0.84319 0.95963 0.0
C199 C 0.44454 0.83842 0.9729 0.0
N200 N 0.42107 0.82809 0.94381 0.0
N201 N 0.4739 0.83623 0.92232 0.0
C202 C 0.43961 0.82673 0.91351 0.0
H203 H 0.50118 0.85199 0.97594 0.0
Co204 Co 0.51185 0.84262 0.89203 0.0
C205 C 0.49478 0.85671 0.81498 0.0
O206 O 0.52903 0.88021 0.80946 0.0
N207 N 0.55113 0.84869 0.86234 0.0
C208 C 0.60492 0.86628 0.83609 0.0
C209 C 0.58556 0.87629 0.85946 0.0
C210 C 0.55041 0.82261 0.84019 0.0
N211 N 0.58264 0.83227 0.82462 0.0
O212 O 0.49106 0.7917 0.88975 0.0
H213 H 0.59648 0.90203 0.87356 0.0
H214 H 0.5266 0.79665 0.83533 0.0
O215 O 0.48465 0.84009 0.84647 0.0
C216 C 0.49779 0.7754 0.91568 0.0
O217 O 0.52035 0.79448 0.94275 0.0
N218 N 0.53111 0.89247 0.8975 0.0
C219 C 0.53821 0.95183 0.93737 0.0
C220 C 0.51634 0.93928 0.90512 0.0
C221 C 0.51281 0.90936 0.88586 0.0
C222 C 0.55543 0.90663 0.92631 0.0
C223 C 0.55973 0.93664 0.94645 0.0
H224 H 0.49128 0.89727 0.86558 0.0
H225 H 0.5683 0.89201 0.93664 0.0
H226 H 0.42852 0.81892 0.88542 0.0
H227 H 0.4392 0.84294 0.00165 0.0
H228 H 0.63326 0.88221 0.82907 0.0
H229 H 0.49845 0.94935 0.89747 0.0
H230 H 0.57719 0.94565 0.97099 0.0
C231 C 0.17905 0.67213 0.95966 0.0
C232 C 0.19206 0.64995 0.97083 0.0
N233 N 0.19682 0.63457 0.93976 0.0
N234 N 0.17567 0.67072 0.92178 0.0
C235 C 0.18694 0.6478 0.91043 0.0
H236 H 0.17098 0.68705 0.97807 0.0
Co237 Co 0.15317 0.69111 0.89489 0.0
C238 C 0.14337 0.66068 0.81689 0.0
O239 O 0.11256 0.66006 0.81268 0.0
N240 N 0.13027 0.71243 0.86868 0.0
C241 C 0.0914 0.72615 0.8417 0.0
C242 C 0.09519 0.70387 0.86718 0.0
C243 C 0.14706 0.74036 0.84456 0.0
N244 N 0.1243 0.74938 0.8283 0.0
O245 O 0.19878 0.73283 0.88769 0.0
H246 H 0.07322 0.68174 0.88191 0.0
H247 H 0.17519 0.75249 0.83674 0.0
O248 O 0.16101 0.67224 0.84769 0.0
C249 C 0.2138 0.75578 0.91398 0.0
O250 O 0.19553 0.7527 0.94492 0.0
N251 N 0.1094 0.64932 0.90466 0.0
C252 C 0.0621 0.58733 0.94405 0.0
C253 C 0.07703 0.58488 0.90979 0.0
C254 C 0.10094 0.61614 0.89079 0.0
C255 C 0.09302 0.65213 0.93647 0.0
C256 C 0.06896 0.62136 0.95654 0.0
H257 H 0.11562 0.61302 0.86792 0.0
H258 H 0.10122 0.67854 0.94813 0.0
H259 H 0.18586 0.63914 0.88151 0.0
H260 H 0.19688 0.64495 -0.0004 0.0
H261 H 0.06644 0.7244 0.83248 0.0
H262 H 0.07337 0.55933 0.89964 0.0
H263 H 0.05779 0.62437 0.98284 0.0
C264 C 0.33796 0.52 -0.00236 0.0
C265 C 0.36495 0.55491 0.00387 0.0
N266 N 0.38057 0.56928 0.9705 0.0
N267 N 0.33661 0.51231 0.96055 0.0
C268 C 0.36297 0.54288 0.94472 0.0
H269 H 0.32023 0.5014 0.01879 0.0
Co270 Co 0.30379 0.46809 0.93923 0.0
C271 C 0.3102 0.48063 0.85502 0.0
O272 O 0.28152 0.44985 0.84629 0.0
N273 N 0.26953 0.42259 0.91904 0.0
C274 C 0.2408 0.36674 0.89509 0.0
C275 C 0.27246 0.39311 0.91115 0.0
C276 C 0.23535 0.41266 0.90875 0.0
N277 N 0.21751 0.37921 0.89388 0.0
O278 O 0.26997 0.48437 0.93786 0.0
H279 H 0.2962 0.39083 0.91574 0.0
H280 H 0.22422 0.43045 0.90925 0.0
O281 O 0.31985 0.48881 0.88933 0.0
C282 C 0.25054 0.48326 0.96554 0.0
O283 O 0.25007 0.46606 0.99643 0.0
N284 N 0.33917 0.45446 0.94162 0.0
C285 C 0.40851 0.4676 0.95397 0.0
C286 C 0.39504 0.46284 0.91714 0.0
C287 C 0.35994 0.45606 0.91151 0.0
C288 C 0.34971 0.45266 0.97743 0.0
C289 C 0.38477 0.45989 0.98437 0.0
H290 H 0.3508 0.45494 0.88294 0.0
H291 H 0.33252 0.45026 0.00095 0.0
H292 H 0.36932 0.54588 0.91494 0.0
H293 H 0.37175 0.56896 0.03069 0.0
H294 H 0.23568 0.34093 0.88416 0.0
H295 H 0.41239 0.4677 0.89297 0.0
H296 H 0.39409 0.46233 0.01325 0.0
C297 C 0.15907 0.47595 0.58219 0.0
C298 C 0.1717 0.50798 0.56298 0.0
N299 N 0.16314 0.52945 0.58302 0.0
N300 N 0.14307 0.47742 0.61446 0.0
C301 C 0.14523 0.51003 0.61357 0.0
H302 H 0.16149 0.45314 0.57302 0.0
Co303 Co 0.12094 0.44118 0.65076 0.0
C304 C 0.15325 0.50487 0.70221 0.0
O305 O 0.18601 0.5146 0.69051 0.0
N306 N 0.09836 0.40445 0.68713 0.0
C307 C 0.06595 0.37249 0.73651 0.0
C308 C 0.06931 0.39651 0.70878 0.0
C309 C 0.11144 0.38409 0.7018 0.0
N310 N 0.09282 0.36499 0.73226 0.0
O311 O 0.16727 0.44789 0.66404 0.0
H312 H 0.053 0.4092 0.70668 0.0
H313 H 0.13626 0.38567 0.69286 0.0
O314 O 0.1263 0.47644 0.68879 0.0
C315 C 0.18019 0.43196 0.6445 0.0
O316 O 0.15933 0.40746 0.61972 0.0
N317 N 0.07656 0.435 0.63488 0.0
C318 C 0.03151 0.44776 0.58921 0.0
C319 C 0.0377 0.45985 0.62667 0.0
C320 C 0.06061 0.45337 0.64911 0.0
C321 C 0.06696 0.41896 0.60032 0.0
C322 C 0.04467 0.42535 0.57667 0.0
H323 H 0.06759 0.46581 0.67655 0.0
H324 H 0.08014 0.40483 0.58936 0.0
H325 H 0.13356 0.51938 0.63473 0.0
H326 H 0.18694 0.51526 0.53693 0.0
H327 H 0.04689 0.36346 0.75964 0.0
H328 H 0.02788 0.47714 0.63738 0.0
H329 H 0.04004 0.4152 0.54797 0.0
C330 C 0.42608 0.58783 0.5756 0.0
C331 C 0.39202 0.5603 0.56739 0.0
N332 N 0.38406 0.53315 0.59151 0.0
N333 N 0.43995 0.57803 0.60457 0.0
C334 C 0.41343 0.54437 0.61356 0.0
H335 H 0.43843 0.61426 0.56295 0.0
Co336 Co 0.48349 0.60725 0.6303 0.0
C337 C 0.45847 0.56314 0.69326 0.0
O338 O 0.47702 0.54929 0.67829 0.0
N339 N 0.52671 0.63626 0.65635 0.0
C340 C 0.58383 0.67359 0.67298 0.0
C341 C 0.56151 0.64995 0.64567 0.0
C342 C 0.52875 0.65102 0.69058 0.0
N343 N 0.56295 0.67385 0.70119 0.0
O344 O 0.47101 0.64478 0.63245 0.0
H345 H 0.57038 0.64478 0.61903 0.0
H346 H 0.50546 0.6476 0.70614 0.0
O347 O 0.45872 0.58978 0.6771 0.0
C348 C 0.48734 0.67912 0.63455 0.0
O349 O 0.52271 0.69812 0.63269 0.0
N350 N 0.50716 0.62231 0.58371 0.0
C351 C 0.52408 0.62068 0.50844 0.0
C352 C 0.52678 0.59764 0.53466 0.0
C353 C 0.5176 0.59855 0.57212 0.0
C354 C 0.50849 0.64784 0.55942 0.0
C355 C 0.51633 0.64703 0.52126 0.0
H356 H 0.51606 0.57834 0.5916 0.0
H357 H 0.49938 0.66616 0.56765 0.0
H358 H 0.4145 0.52886 0.63703 0.0
H359 H 0.37325 0.56145 0.54769 0.0
H360 H 0.61289 0.69037 0.67154 0.0
H361 H 0.53205 0.57646 0.52557 0.0
H362 H 0.51337 0.66471 0.50151 0.0
C363 C 0.34951 0.79883 0.54638 0.0
C364 C 0.3749 0.78827 0.54231 0.0
N365 N 0.37998 0.77744 0.57628 0.0
N366 N 0.33907 0.79502 0.5828 0.0
C367 C 0.35776 0.78147 0.60027 0.0
H368 H 0.34006 0.8097 0.52448 0.0
Co369 Co 0.30923 0.81079 0.60236 0.0
C370 C 0.33218 0.82925 0.6828 0.0
O371 O 0.32687 0.85696 0.6819 0.0
N372 N 0.27804 0.82682 0.6211 0.0
C373 C 0.25186 0.85862 0.63863 0.0
C374 C 0.28144 0.86013 0.62142 0.0
C375 C 0.24588 0.80572 0.63801 0.0
N376 N 0.22944 0.82422 0.64856 0.0
O377 O 0.27285 0.76203 0.60887 0.0
H378 H 0.30447 0.88466 0.61154 0.0
H379 H 0.23523 0.7775 0.64453 0.0
O380 O 0.32596 0.80963 0.65344 0.0
C381 C 0.25493 0.74195 0.58137 0.0
O382 O 0.26053 0.75569 0.54723 0.0
N383 N 0.34632 0.858 0.59393 0.0
C384 C 0.4054 0.91925 0.56483 0.0
C385 C 0.40867 0.90353 0.59803 0.0
C386 C 0.37905 0.87239 0.61159 0.0
C387 C 0.34248 0.87345 0.56194 0.0
C388 C 0.37168 0.90443 0.54704 0.0
H389 H 0.38384 0.85832 0.63396 0.0
H390 H 0.31705 0.86051 0.54692 0.0
H391 H 0.35632 0.77602 0.63023 0.0
H392 H 0.38872 0.78874 0.51653 0.0
H393 H 0.2477 0.88116 0.64448 0.0
H394 H 0.43465 0.91332 0.61155 0.0
H395 H 0.36839 0.91563 0.52092 0.0
H396 H 0.63765 0.2158 0.26284 0.0
H397 H 0.57977 0.10816 0.30894 0.0
H398 H 0.52662 0.09546 0.27201 0.0
H399 H 0.49644 0.11469 0.22652 0.0
H400 H 0.55445 0.2215 0.17853 0.0
H401 H 0.60751 0.23485 0.2164 0.0
C402 C 0.61352 0.18947 0.26446 0.0
C403 C 0.61258 0.16308 0.28884 0.0
C404 C 0.58292 0.18231 0.24311 0.0
C405 C 0.58102 0.12915 0.29084 0.0
C406 C 0.5506 0.12182 0.26969 0.0
C407 C 0.52051 0.14107 0.22476 0.0
C408 C 0.52144 0.16714 0.19998 0.0
C409 C 0.55112 0.14828 0.246 0.0
C410 C 0.55307 0.20097 0.19748 0.0
C411 C 0.58346 0.20858 0.219 0.0
H412 H 0.91494 0.40507 0.18645 0.0
H413 H 0.80002 0.34204 0.20264 0.0
H414 H 0.8021 0.38918 0.24446 0.0
H415 H 0.83759 0.44856 0.27684 0.0
H416 H 0.95169 0.51293 0.25417 0.0
H417 H 0.949 0.46528 0.21413 0.0
C418 C 0.89037 0.40168 0.19926 0.0
C419 C 0.85748 0.3701 0.19223 0.0
C420 C 0.8917 0.42926 0.22184 0.0
C421 C 0.82565 0.36616 0.20809 0.0
C422 C 0.82689 0.39307 0.23188 0.0
C423 C 0.86172 0.45211 0.26288 0.0
C424 C 0.8948 0.4842 0.2685 0.0
C425 C 0.85986 0.42478 0.23902 0.0
C426 C 0.92586 0.48865 0.2501 0.0
C427 C 0.92443 0.46132 0.22735 0.0
H428 H 0.6312 0.44941 0.15379 0.0
H429 H 0.64644 0.54288 0.21652 0.0
H430 H 0.6128 0.50456 0.26932 0.0
H431 H 0.57801 0.4451 0.29718 0.0
H432 H 0.56233 0.35073 0.23635 0.0
H433 H 0.59733 0.38896 0.18322 0.0
C434 C 0.62721 0.46139 0.17903 0.0
C435 C 0.64113 0.49901 0.18096 0.0
C436 C 0.60775 0.43911 0.20957 0.0
C437 C 0.63593 0.51406 0.21405 0.0
C438 C 0.61666 0.49217 0.24435 0.0
C439 C 0.58212 0.43271 0.27237 0.0
C440 C 0.56729 0.39504 0.27065 0.0
C441 C 0.60224 0.45473 0.24227 0.0
C442 C 0.57345 0.37967 0.2384 0.0
C443 C 0.59339 0.40151 0.20801 0.0
H444 H 0.42702 0.80088 0.79979 0.0
H445 H 0.50139 0.9123 0.77258 0.0
H446 H 0.45617 0.91429 0.73242 0.0
H447 H 0.39601 0.88451 0.70413 0.0
H448 H 0.32351 0.7714 0.72403 0.0
H449 H 0.36704 0.7698 0.76828 0.0
C450 C 0.43323 0.82546 0.78488 0.0
C451 C 0.46752 0.85635 0.78903 0.0
C452 C 0.4073 0.82618 0.76088 0.0
C453 C 0.47537 0.88804 0.76951 0.0
C454 C 0.44944 0.88931 0.74673 0.0
C455 C 0.3896 0.85966 0.71863 0.0
C456 C 0.35644 0.82832 0.71174 0.0
C457 C 0.41537 0.85861 0.74223 0.0
C458 C 0.34876 0.79594 0.72955 0.0
C459 C 0.37369 0.79503 0.75459 0.0
H460 H 0.20153 0.5744 0.72306 0.0
H461 H 0.09002 0.4912 0.73511 0.0
H462 H 0.07673 0.53334 0.76771 0.0
H463 H 0.0964 0.59359 0.79323 0.0
H464 H 0.20866 0.67527 0.78845 0.0
H465 H 0.2221 0.6342 0.75236 0.0
C466 C 0.17439 0.56539 0.73307 0.0
C467 C 0.14665 0.52977 0.72579 0.0
C468 C 0.16701 0.58966 0.75277 0.0
C469 C 0.11172 0.51861 0.7393 0.0
C470 C 0.10406 0.54269 0.75815 0.0
C471 C 0.1237 0.60253 0.78374 0.0
C472 C 0.1514 0.63756 0.79251 0.0
C473 C 0.13137 0.57832 0.76471 0.0
C474 C 0.18689 0.64853 0.78136 0.0
C475 C 0.19455 0.62499 0.761 0.0
H476 H 0.43233 0.59037 0.74609 0.0
H477 H 0.423 0.49089 0.70514 0.0
H478 H 0.37387 0.45645 0.74934 0.0
H479 H 0.33371 0.45445 0.79983 0.0
H480 H 0.34672 0.55361 0.84595 0.0
H481 H 0.39403 0.5885 0.79943 0.0
C482 C 0.41963 0.56117 0.74714 0.0
C483 C 0.43127 0.54315 0.72257 0.0
C484 C 0.39184 0.54155 0.77321 0.0
C485 C 0.41479 0.50537 0.72415 0.0
C486 C 0.3865 0.48563 0.74917 0.0
C487 C 0.3466 0.48368 0.79921 0.0
C488 C 0.33641 0.50158 0.82542 0.0
C489 C 0.37473 0.50341 0.7737 0.0
C490 C 0.35397 0.53943 0.82547 0.0
C491 C 0.38105 0.55929 0.79908 0.0
H492 H 0.48613 0.01304 0.06955 0.0
H493 H 0.47552 0.07258 0.97683 0.0
H494 H 0.50124 0.04696 0.93379 0.0
H495 H 0.52662 0.00773 0.92231 0.0
H496 H 0.53475 0.94597 0.01435 0.0
H497 H 0.51265 0.97445 0.05817 0.0
C498 C 0.48937 0.0203 0.03991 0.0
C499 C 0.47833 0.04418 0.02637 0.0
C500 C 0.50484 0.00602 0.01535 0.0
C501 C 0.48275 0.05339 0.98785 0.0
C502 C 0.49804 0.03926 0.96329 0.0
C503 C 0.52371 0.00058 0.95198 0.0
C504 C 0.53233 0.97469 0.96482 0.0
C505 C 0.50922 0.01562 0.97675 0.0
C506 C 0.52903 0.9663 0.00358 0.0
C507 C 0.51571 0.98206 0.02864 0.0
H508 H 0.00816 0.46548 0.06735 0.0
H509 H 0.95102 0.39971 0.9709 0.0
H510 H 0.97924 0.45256 0.93029 0.0
H511 H 0.01504 0.51818 0.92331 0.0
H512 H 0.07061 0.58437 0.02003 0.0
H513 H 0.04604 0.53083 0.05986 0.0
C514 C 0.00215 0.46266 0.03737 0.0
C515 C 0.9774 0.42869 0.02233 0.0
C516 C 0.01697 0.49341 0.01449 0.0
C517 C 0.97039 0.42536 0.98328 0.0
C518 C 0.98597 0.45572 0.96008 0.0
C519 C 0.02186 0.52087 0.95308 0.0
C520 C 0.04422 0.55524 0.96873 0.0
C521 C 0.00837 0.48997 0.97563 0.0
C522 C 0.05265 0.55833 0.00743 0.0
C523 C 0.03913 0.52769 0.03012 0.0
H524 H 0.44777 0.52628 0.99703 0.0
H525 H 0.4571 0.45044 0.92408 0.0
H526 H 0.52224 0.48089 0.93605 0.0
H527 H 0.5747 0.5247 0.973 0.0
H528 H 0.56413 0.59768 0.04901 0.0
H529 H 0.50134 0.57366 0.02919 0.0
C530 C 0.46412 0.51636 0.98394 0.0
C531 C 0.44778 0.48566 0.96059 0.0
C532 C 0.50127 0.53396 0.99094 0.0
C533 C 0.46921 0.47371 0.94265 0.0
C534 C 0.50635 0.49119 0.94935 0.0
C535 C 0.55896 0.53627 0.98394 0.0
C536 C 0.57384 0.56326 0.01179 0.0
C537 C 0.52251 0.52091 0.97398 0.0
C538 C 0.55317 0.57742 0.02692 0.0
C539 C 0.51722 0.56326 0.01608 0.0
H540 H 0.06018 0.4786 0.52223 0.0
H541 H 0.97093 0.45341 0.59678 0.0
H542 H 0.94982 0.48412 0.55419 0.0
H543 H 0.95602 0.51654 0.4951 0.0
H544 H 0.04425 0.54035 0.41967 0.0
H545 H 0.06704 0.5121 0.46365 0.0
C546 C 0.03577 0.47934 0.52879 0.0
C547 C 0.01669 0.46328 0.56215 0.0
C548 C 0.02413 0.4973 0.50446 0.0
C549 C 0.98577 0.46535 0.57102 0.0
C550 C 0.97386 0.48302 0.54683 0.0
C551 C 0.98075 0.51632 0.48881 0.0
C552 C -0.00108 0.53099 0.45468 0.0
C553 C 0.9929 0.49914 0.51357 0.0
C554 C 0.03024 0.52959 0.44611 0.0
C555 C 0.043 0.5132 0.47103 0.0
H556 H 0.46055 0.51115 0.38199 0.0
H557 H 0.56977 0.53144 0.37857 0.0
H558 H 0.59029 0.58661 0.41552 0.0
H559 H 0.57341 0.61796 0.46264 0.0
H560 H 0.46407 0.59735 0.46639 0.0
H561 H 0.44742 0.55444 0.41437 0.0
C562 C 0.48903 0.52871 0.38787 0.0
C563 C 0.51364 0.51742 0.37829 0.0
C564 C 0.50047 0.56004 0.40958 0.0
C565 C 0.55051 0.53996 0.38584 0.0
C566 C 0.56216 0.57125 0.40726 0.0
C567 C 0.5465 0.60545 0.45059 0.0
C568 C 0.51983 0.61012 0.46841 0.0
C569 C 0.53694 0.58012 0.42137 0.0
C570 C 0.48498 0.59401 0.4529 0.0
C571 C 0.47531 0.56906 0.42355 0.0
H572 H 0.55581 0.04531 0.51027 0.0
H573 H 0.51928 0.98576 0.40597 0.0
H574 H 0.46363 0.9405 0.43667 0.0
H575 H 0.42466 0.91974 0.49241 0.0
H576 H 0.46011 0.98039 0.5963 0.0
H577 H 0.51708 0.0239 0.56649 0.0
C578 C 0.53592 0.02191 0.49468 0.0
C579 C 0.54145 0.01823 0.45631 0.0
C580 C 0.50371 0.99689 0.51215 0.0
C581 C 0.51541 0.98855 0.43576 0.0
C582 C 0.48361 0.96301 0.45316 0.0
C583 C 0.44465 0.94283 0.50828 0.0
C584 C 0.4382 0.94735 0.54619 0.0
C585 C 0.47722 0.96735 0.49112 0.0
C586 C 0.4646 0.9767 0.56692 0.0
C587 C 0.49712 0.00138 0.55 0.0
H588 H 0.37948 0.2333 0.30709 0.0
H589 H 0.43135 0.32664 0.23493 0.0
H590 H 0.42053 0.28776 0.18005 0.0
H591 H 0.40612 0.22863 0.15532 0.0
H592 H 0.35869 0.13554 0.2278 0.0
H593 H 0.35662 0.17249 0.27985 0.0
C594 C 0.38728 0.24495 0.27914 0.0
C595 C 0.40653 0.28271 0.2749 0.0
C596 C 0.38199 0.22244 0.24802 0.0
C597 C 0.41688 0.29762 0.23869 0.0
C598 C 0.41076 0.27545 0.20744 0.0
C599 C 0.39459 0.21641 0.18234 0.0
C600 C 0.38313 0.17978 0.18819 0.0
C601 C 0.39487 0.23803 0.21215 0.0
C602 C 0.36765 0.16377 0.22288 0.0
C603 C 0.36686 0.18497 0.25264 0.0
H604 H 0.72307 0.11556 0.25529 0.0
H605 H 0.79634 0.1787 0.34426 0.0
H606 H 0.84324 0.21343 0.29756 0.0
H607 H 0.85888 0.23255 0.23105 0.0
H608 H 0.78265 0.17263 0.14329 0.0
H609 H 0.74149 0.12915 0.1896 0.0
C610 C 0.74967 0.13599 0.26461 0.0
C611 C 0.75618 0.1448 0.30312 0.0
C612 C 0.77577 0.15664 0.23762 0.0
C613 C 0.79069 0.17177 0.31466 0.0
C614 C 0.81739 0.19168 0.28799 0.0
C615 C 0.83376 0.20921 0.22227 0.0
C616 C 0.82347 0.20538 0.18419 0.0
C617 C 0.80964 0.18542 0.24932 0.0
C618 C 0.79074 0.17568 0.17266 0.0
C619 C 0.76727 0.15108 0.19909 0.0
H620 H 0.8217 0.58966 0.29369 0.0
H621 H 0.92377 0.65098 0.23729 0.0
H622 H 0.89335 0.65975 0.18278 0.0
H623 H 0.83616 0.64196 0.14809 0.0
H624 H 0.73473 0.5769 0.20454 0.0
H625 H 0.76611 0.57751 0.26241 0.0
C626 C 0.83724 0.60525 0.26956 0.0
C627 C 0.87464 0.6191 0.26892 0.0
C628 C 0.81954 0.60919 0.23839 0.0
C629 C 0.89485 0.64003 0.23811 0.0
C630 C 0.87743 0.64477 0.20696 0.0
C631 C 0.82128 0.62882 0.17349 0.0
C632 C 0.78344 0.60927 0.17248 0.0
C633 C 0.83961 0.62839 0.20629 0.0
C634 C 0.76396 0.59188 0.20509 0.0
C635 C 0.78183 0.59216 0.23797 0.0
H636 H 0.55897 0.7626 0.83707 0.0
H637 H 0.62482 0.85057 0.7624 0.0
H638 H 0.63012 0.80854 0.71895 0.0
H639 H 0.60775 0.74546 0.69832 0.0
H640 H 0.53873 0.65799 0.77209 0.0
H641 H 0.54306 0.70099 0.82035 0.0
C642 C 0.57476 0.77251 0.81142 0.0
C643 C 0.59087 0.80926 0.80231 0.0
C644 C 0.57695 0.74824 0.78659 0.0
C645 C 0.61209 0.82223 0.76967 0.0
C646 C 0.61491 0.79821 0.74486 0.0
C647 C 0.59477 0.73606 0.7255 0.0
C648 C 0.57292 0.69883 0.73194 0.0
C649 C 0.59639 0.76098 0.75245 0.0
C650 C 0.5556 0.68664 0.76686 0.0
C651 C 0.55791 0.71114 0.7942 0.0
H652 H 0.10693 0.72748 0.75757 0.0
H653 H 0.16484 0.82131 0.8277 0.0
H654 H 0.19879 0.85711 0.77293 0.0
H655 H 0.22127 0.85682 0.70925 0.0
H656 H 0.16844 0.76033 0.64154 0.0
H657 H 0.1227 0.73021 0.6905 0.0
C658 C 0.12573 0.7562 0.76014 0.0
C659 C 0.13341 0.77215 0.79601 0.0
C660 C 0.14661 0.77566 0.72908 0.0
C661 C 0.15847 0.809 0.79994 0.0
C662 C 0.17811 0.82918 0.7688 0.0
C663 C 0.19893 0.82971 0.70477 0.0
C664 C 0.19822 0.81051 0.67231 0.0
C665 C 0.17388 0.81218 0.73375 0.0
C666 C 0.16951 0.77526 0.66671 0.0
C667 C 0.14351 0.75809 0.69467 0.0
H668 H 0.08753 0.36841 0.80777 0.0
H669 H 0.1312 0.3313 0.72007 0.0
H670 H 0.17072 0.32553 0.76596 0.0
H671 H 0.20122 0.34353 0.8277 0.0
H672 H 0.15915 0.38346 0.9141 0.0
H673 H 0.11 0.37489 0.87236 0.0
C674 C 0.10463 0.35773 0.79888 0.0
C675 C 0.10703 0.35109 0.76039 0.0
C676 C 0.128 0.35559 0.82518 0.0
C677 C 0.12947 0.33732 0.74945 0.0
C678 C 0.15214 0.33414 0.77565 0.0
C679 C 0.1805 0.34904 0.83777 0.0
C680 C 0.18402 0.36468 0.87358 0.0
C681 C 0.15301 0.34511 0.81315 0.0
C682 C 0.15716 0.37194 0.88633 0.0
C683 C 0.12918 0.36715 0.86246 0.0
H684 H 0.50286 0.27122 0.00416 0.0
H685 H 0.50077 0.27594 0.12578 0.0
H686 H 0.53814 0.34173 0.12379 0.0
H687 H 0.57454 0.39717 0.08759 0.0
H688 H 0.57997 0.39109 0.96614 0.0
H689 H 0.53762 0.3267 0.96805 0.0
C690 C 0.51006 0.28668 0.0302 0.0
C691 C 0.49918 0.26882 0.06503 0.0
C692 C 0.53234 0.32426 0.0289 0.0
C693 C 0.50899 0.28916 0.09859 0.0
C694 C 0.53042 0.32672 0.09748 0.0
C695 C 0.56673 0.38186 0.06151 0.0
C696 C 0.58083 0.39928 0.02682 0.0
C697 C 0.54293 0.34447 0.0628 0.0
C698 C 0.56951 0.37881 0.9933 0.0
C699 C 0.54535 0.34178 0.99431 0.0
H700 H 0.73391 0.2741 0.10185 0.0
H701 H 0.73444 0.19821 0.02159 0.0
H702 H 0.66996 0.17376 0.00996 0.0
H703 H 0.6138 0.17506 0.02175 0.0
H704 H 0.61476 0.25284 0.10032 0.0
H705 H 0.67842 0.27549 0.11344 0.0
C706 C 0.71989 0.25192 0.08211 0.0
C707 C 0.73888 0.23788 0.06271 0.0
C708 C 0.68318 0.23858 0.07501 0.0
C709 C 0.72038 0.20944 0.03693 0.0
C710 C 0.68357 0.19556 0.03015 0.0
C711 C 0.62808 0.19724 0.04136 0.0
C712 C 0.60955 0.21221 0.06003 0.0
C713 C 0.66481 0.21024 0.04871 0.0
C714 C 0.62828 0.24056 0.0859 0.0
C715 C 0.66471 0.25359 0.09337 0.0
H716 H 0.78264 0.39493 0.08874 0.0
H717 H 0.83435 0.42863 0.98003 0.0
H718 H 0.8131 0.47177 0.97426 0.0
H719 H 0.77806 0.49855 -0.00094 0.0
H720 H 0.72733 0.46547 0.10837 0.0
H721 H 0.75066 0.4241 0.11516 0.0
C722 C 0.78977 0.41203 0.06403 0.0
C723 C 0.80984 0.40817 0.03474 0.0
C724 C 0.77764 0.437 0.06096 0.0
C725 C 0.81837 0.43041 0.00271 0.0
C726 C 0.80641 0.45531 -0.00054 0.0
C727 C 0.77231 0.48249 0.02448 0.0
C728 C 0.7508 0.48501 0.053 0.0
C729 C 0.78568 0.45856 0.02822 0.0
C730 C 0.74373 0.46405 0.08585 0.0
C731 C 0.757 0.44028 0.08978 0.0
H732 H 0.77267 0.5359 0.43567 0.0
H733 H 0.77038 0.4831 0.33078 0.0
H734 H 0.70462 0.4529 0.33 0.0
H735 H 0.64797 0.43838 0.36118 0.0
H736 H 0.64996 0.49134 0.46583 0.0
H737 H 0.71576 0.52421 0.46481 0.0
C738 C 0.75784 0.51806 0.41244 0.0
C739 C 0.77645 0.5116 0.38348 0.0
C740 C 0.71998 0.50046 0.41234 0.0
C741 C 0.75676 0.48844 0.35355 0.0
C742 C 0.71912 0.47108 0.35311 0.0
C743 C 0.66261 0.45753 0.38348 0.0
C744 C 0.64381 0.4621 0.41368 0.0
C745 C 0.70046 0.47645 0.38267 0.0
C746 C 0.66359 0.48674 0.44257 0.0
C747 C 0.70128 0.50574 0.44191 0.0
H748 H 0.55553 0.2077 0.46305 0.0
H749 H 0.63506 0.26424 0.3765 0.0
H750 H 0.60712 0.3004 0.36193 0.0
H751 H 0.56067 0.31638 0.37387 0.0
H752 H 0.48208 0.26204 0.4618 0.0
H753 H 0.50921 0.22467 0.47587 0.0
C754 C 0.56696 0.2282 0.44132 0.0
C755 C 0.59722 0.23304 0.42076 0.0
C756 C 0.55085 0.24916 0.43321 0.0
C757 C 0.61144 0.25947 0.39234 0.0
C758 C 0.59558 0.2803 0.38407 0.0
C759 C 0.5492 0.29615 0.39591 0.0
C760 C 0.51924 0.29181 0.41658 0.0
C761 C 0.56521 0.27525 0.40418 0.0
C762 C 0.5051 0.26584 0.44541 0.0
C763 C 0.52064 0.24453 0.45352 0.0
H764 H 0.80467 0.38768 0.36579 0.0
H765 H 0.84577 0.39325 0.47844 0.0
H766 H 0.81353 0.32754 0.48196 0.0
H767 H 0.77096 0.26878 0.45454 0.0
H768 H 0.7301 0.26328 0.34178 0.0
H769 H 0.76596 0.32885 0.33645 0.0
C770 C 0.80721 0.37467 0.39088 0.0
C771 C 0.82738 0.39556 0.42196 0.0
C772 C 0.78869 0.33686 0.39269 0.0
C773 C 0.82987 0.37796 0.45438 0.0
C774 C 0.81161 0.34034 0.45635 0.0
C775 C 0.77017 0.28185 0.42862 0.0
C776 C 0.74765 0.26118 0.39875 0.0
C777 C 0.79047 0.31956 0.42592 0.0
C778 C 0.74709 0.27855 0.3653 0.0
C779 C 0.76749 0.31607 0.36226 0.0
H780 H 0.389 0.60819 0.9077 0.0
H781 H 0.43383 0.61335 0.01813 0.0
H782 H 0.47648 0.67761 0.00956 0.0
H783 H 0.49777 0.73304 0.97273 0.0
H784 H 0.45201 0.72819 0.86275 0.0
H785 H 0.41346 0.66289 0.86879 0.0
C786 C 0.40854 0.62321 0.92959 0.0
C787 C 0.40802 0.60611 0.96367 0.0
C788 C 0.43269 0.66022 0.92461 0.0
C789 C 0.43328 0.62607 0.99194 0.0
C790 C 0.45775 0.66276 0.98699 0.0
C791 C 0.47968 0.71768 0.94987 0.0
C792 C 0.47753 0.73553 0.91752 0.0
C793 C 0.45716 0.68026 0.95378 0.0
C794 C 0.45399 0.71517 0.88812 0.0
C795 C 0.43189 0.67782 0.89156 0.0
H796 H 0.25827 0.77668 0.97427 0.0
H797 H 0.25776 0.78347 0.85281 0.0
H798 H 0.32339 0.80994 0.85161 0.0
H799 H 0.37951 0.82533 0.88469 0.0
H800 H 0.37827 0.81219 0.00576 0.0
H801 H 0.31486 0.79468 0.00749 0.0
C802 C 0.27264 0.78482 0.94762 0.0
C803 C 0.25338 0.77833 0.91369 0.0
C804 C 0.31 0.79845 0.94705 0.0
C805 C 0.27218 0.78836 0.87929 0.0
C806 C 0.3096 0.80324 0.8786 0.0
C807 C 0.36551 0.81847 0.9115 0.0
C808 C 0.38394 0.81976 0.94496 0.0
C809 C 0.3286 0.80729 0.91224 0.0
C810 C 0.36518 0.8117 0.97948 0.0
C811 C 0.32871 0.80146 0.98055 0.0
H812 H 0.1846 0.58442 0.99259 0.0
H813 H 0.23191 0.62306 0.88287 0.0
H814 H 0.24973 0.57702 0.87974 0.0
H815 H 0.2545 0.52805 0.90938 0.0
H816 H 0.20903 0.49028 0.02009 0.0
H817 H 0.18758 0.53368 0.02151 0.0
C818 C 0.19908 0.58295 0.96817 0.0
C819 C 0.20721 0.60733 0.93815 0.0
C820 C 0.20938 0.55652 0.96666 0.0
C821 C 0.2252 0.60451 0.90625 0.0
C822 C 0.23548 0.57827 0.90449 0.0
C823 C 0.23957 0.52897 0.93372 0.0
C824 C 0.23354 0.50606 0.96469 0.0
C825 C 0.22796 0.55436 0.93465 0.0
C826 C 0.2141 0.50765 0.99591 0.0
C827 C 0.20198 0.53257 0.99682 0.0
H828 H 0.34897 0.52105 0.65697 0.0
H829 H 0.33883 0.48324 0.54253 0.0
H830 H 0.27387 0.44283 0.55142 0.0
H831 H 0.21952 0.42553 0.58864 0.0
H832 H 0.22862 0.46925 0.7006 0.0
H833 H 0.29452 0.49983 0.69632 0.0
C834 C 0.33251 0.50306 0.63452 0.0
C835 C 0.34824 0.50455 0.59927 0.0
C836 C 0.29508 0.48152 0.63934 0.0
C837 C 0.32693 0.48203 0.56987 0.0
C838 C 0.28994 0.45925 0.57493 0.0
C839 C 0.2359 0.44107 0.61245 0.0
C840 C 0.21933 0.44527 0.64484 0.0
C841 C 0.27357 0.45979 0.60908 0.0
C842 C 0.24086 0.46582 0.6753 0.0
C843 C 0.27848 0.48336 0.67281 0.0
H844 H 0.36926 0.72527 0.62504 0.0
H845 H 0.4469 0.80309 0.54797 0.0
H846 H 0.48923 0.78191 0.56243 0.0
H847 H 0.50267 0.73896 0.5946 0.0
H848 H 0.42282 0.65792 0.66767 0.0
H849 H 0.38297 0.68296 0.65791 0.0
C850 C 0.39561 0.73773 0.6118 0.0
C851 C 0.40505 0.76553 0.58548 0.0
C852 C 0.41936 0.72492 0.61969 0.0
C853 C 0.43901 0.7813 0.56798 0.0
C854 C 0.46323 0.76936 0.5764 0.0
C855 C 0.47681 0.7273 0.60886 0.0
C856 C 0.46566 0.69698 0.63204 0.0
C857 C 0.45353 0.74092 0.60191 0.0
C858 C 0.43184 0.68143 0.64979 0.0
C859 C 0.40906 0.69561 0.64412 0.0
H860 H 0.22803 0.68907 0.52804 0.0
H861 H 0.23077 0.70679 0.64836 0.0
H862 H 0.19963 0.64178 0.65924 0.0
H863 H 0.17705 0.58066 0.63504 0.0
H864 H 0.17564 0.56246 0.51506 0.0
H865 H 0.20107 0.62709 0.50353 0.0
C866 C 0.22132 0.67869 0.55659 0.0
C867 C 0.23195 0.70271 0.58735 0.0
C868 C 0.20407 0.64129 0.56271 0.0
C869 C 0.22314 0.68885 0.6242 0.0
C870 C 0.20538 0.6517 0.63047 0.0
C871 C 0.18154 0.59065 0.60631 0.0
C872 C 0.17461 0.56681 0.57593 0.0
C873 C 0.1965 0.62775 0.59999 0.0
C874 C 0.18123 0.58037 0.53892 0.0
C875 C 0.19564 0.61727 0.53233 0.0
loop_
_geom_bond_atom_site_label_1
_geom_bond_atom_site_label_2
_geom_bond_distance
_geom_bond_site_symmetry_2
_ccdc_geom_bond_type
C0 C1 1.351 . S
C0 N3 1.368 . S
C0 H5 0.931 . S
C1 C0 1.351 . S
C1 N2 1.373 . S
C1 H29 0.930 . S
N2 C1 1.373 . S
N2 C4 1.340 . S
N3 C0 1.368 . S
N3 C4 1.321 . S
N3 Co6 2.135 . S
C4 N2 1.340 . S
C4 N3 1.321 . S
C4 H28 0.930 . S
H5 C0 0.931 . S
Co6 N3 2.135 . S
Co6 N9 2.121 . S
Co6 O14 2.055 . S
Co6 O17 2.039 . S
Co6 N20 2.140 . S
C7 O8 1.227 . S
C7 O17 1.265 . S
O8 C7 1.227 . S
N9 Co6 2.121 . S
N9 C11 1.375 . S
N9 C12 1.313 . S
C10 C11 1.338 . S
C10 N13 1.377 . S
C10 H30 0.930 . S
C11 N9 1.375 . S
C11 C10 1.338 . S
C11 H15 0.931 . S
C12 N9 1.313 . S
C12 N13 1.344 . S
C12 H16 0.930 . S
N13 C10 1.377 . S
N13 C12 1.344 . S
O14 Co6 2.055 . S
O14 C18 1.253 . S
H15 C11 0.931 . S
H16 C12 0.930 . S
O17 Co6 2.039 . S
O17 C7 1.265 . S
C18 O14 1.253 . S
C18 O19 1.227 . S
O19 C18 1.227 . S
N20 Co6 2.140 . S
N20 C23 1.346 . S
N20 C24 1.345 . S
C21 C22 1.387 . S
C21 C25 1.391 . S
C22 C21 1.387 . S
C22 C23 1.369 . S
C22 H31 0.929 . S
C23 N20 1.346 . S
C23 C22 1.369 . S
C23 H26 0.928 . S
C24 N20 1.345 . S
C24 C25 1.371 . S
C24 H27 0.931 . S
C25 C21 1.391 . S
C25 C24 1.371 . S
C25 H32 0.930 . S
H26 C23 0.928 . S
H27 C24 0.931 . S
H28 C4 0.930 . S
H29 C1 0.930 . S
H30 C10 0.930 . S
H31 C22 0.929 . S
H32 C25 0.930 . S
C33 C34 1.351 . S
C33 N36 1.368 . S
C33 H38 0.931 . S
C34 C33 1.351 . S
C34 N35 1.373 . S
C34 H62 0.930 . S
N35 C34 1.373 . S
N35 C37 1.340 . S
N36 C33 1.368 . S
N36 C37 1.321 . S
N36 Co39 2.135 . S
C37 N35 1.340 . S
C37 N36 1.321 . S
C37 H61 0.930 . S
H38 C33 0.931 . S
Co39 N36 2.135 . S
Co39 N42 2.121 . S
Co39 O47 2.055 . S
Co39 O50 2.039 . S
Co39 N53 2.140 . S
C40 O41 1.227 . S
C40 O50 1.265 . S
O41 C40 1.227 . S
N42 Co39 2.121 . S
N42 C44 1.375 . S
N42 C45 1.313 . S
C43 C44 1.338 . S
C43 N46 1.377 . S
C43 H63 0.930 . S
C44 N42 1.375 . S
C44 C43 1.338 . S
C44 H48 0.931 . S
C45 N42 1.313 . S
C45 N46 1.344 . S
C45 H49 0.930 . S
N46 C43 1.377 . S
N46 C45 1.344 . S
O47 Co39 2.055 . S
O47 C51 1.253 . S
H48 C44 0.931 . S
H49 C45 0.930 . S
O50 Co39 2.039 . S
O50 C40 1.265 . S
C51 O47 1.253 . S
C51 O52 1.227 . S
O52 C51 1.227 . S
N53 Co39 2.140 . S
N53 C56 1.346 . S
N53 C57 1.345 . S
C54 C55 1.387 . S
C54 C58 1.391 . S
C55 C54 1.387 . S
C55 C56 1.369 . S
C55 H64 0.929 . S
C56 N53 1.346 . S
C56 C55 1.369 . S
C56 H59 0.928 . S
C57 N53 1.345 . S
C57 C58 1.371 . S
C57 H60 0.931 . S
C58 C54 1.391 . S
C58 C57 1.371 . S
C58 H65 0.930 . S
H59 C56 0.928 . S
H60 C57 0.931 . S
H61 C37 0.930 . S
H62 C34 0.930 . S
H63 C43 0.930 . S
H64 C55 0.929 . S
H65 C58 0.930 . S
C66 C67 1.351 . S
C66 N69 1.368 . S
C66 H71 0.931 . S
C67 C66 1.351 . S
C67 N68 1.373 . S
C67 H95 0.930 . S
N68 C67 1.373 . S
N68 C70 1.340 . S
N69 C66 1.368 . S
N69 C70 1.321 . S
N69 Co72 2.135 . S
C70 N68 1.340 . S
C70 N69 1.321 . S
C70 H94 0.930 . S
H71 C66 0.931 . S
Co72 N69 2.135 . S
Co72 N75 2.121 . S
Co72 O80 2.055 . S
Co72 O83 2.039 . S
Co72 N86 2.140 . S
C73 O74 1.227 . S
C73 O83 1.265 . S
O74 C73 1.227 . S
N75 Co72 2.121 . S
N75 C77 1.375 . S
N75 C78 1.313 . S
C76 C77 1.338 . S
C76 N79 1.377 . S
C76 H96 0.930 . S
C77 N75 1.375 . S
C77 C76 1.338 . S
C77 H81 0.931 . S
C78 N75 1.313 . S
C78 N79 1.344 . S
C78 H82 0.930 . S
N79 C76 1.377 . S
N79 C78 1.344 . S
O80 Co72 2.055 . S
O80 C84 1.253 . S
H81 C77 0.931 . S
H82 C78 0.930 . S
O83 Co72 2.039 . S
O83 C73 1.265 . S
C84 O80 1.253 . S
C84 O85 1.227 . S
O85 C84 1.227 . S
N86 Co72 2.140 . S
N86 C89 1.346 . S
N86 C90 1.345 . S
C87 C88 1.387 . S
C87 C91 1.391 . S
C88 C87 1.387 . S
C88 C89 1.369 . S
C88 H97 0.929 . S
C89 N86 1.346 . S
C89 C88 1.369 . S
C89 H92 0.928 . S
C90 N86 1.345 . S
C90 C91 1.371 . S
C90 H93 0.931 . S
C91 C87 1.391 . S
C91 C90 1.371 . S
C91 H98 0.930 . S
H92 C89 0.928 . S
H93 C90 0.931 . S
H94 C70 0.930 . S
H95 C67 0.930 . S
H96 C76 0.930 . S
H97 C88 0.929 . S
H98 C91 0.930 . S
C99 C100 1.351 . S
C99 N102 1.368 . S
C99 H104 0.931 . S
C100 C99 1.351 . S
C100 N101 1.373 . S
C100 H128 0.930 . S
N101 C100 1.373 . S
N101 C103 1.340 . S
N102 C99 1.368 . S
N102 C103 1.321 . S
N102 Co105 2.135 . S
C103 N101 1.340 . S
C103 N102 1.321 . S
C103 H127 0.930 . S
H104 C99 0.931 . S
Co105 N102 2.135 . S
Co105 N108 2.121 . S
Co105 O113 2.055 . S
Co105 O116 2.039 . S
Co105 N119 2.140 . S
C106 O107 1.227 . S
C106 O116 1.265 . S
O107 C106 1.227 . S
N108 Co105 2.121 . S
N108 C110 1.375 . S
N108 C111 1.313 . S
C109 C110 1.338 . S
C109 N112 1.377 . S
C109 H129 0.930 . S
C110 N108 1.375 . S
C110 C109 1.338 . S
C110 H114 0.931 . S
C111 N108 1.313 . S
C111 N112 1.344 . S
C111 H115 0.930 . S
N112 C109 1.377 . S
N112 C111 1.344 . S
O113 Co105 2.055 . S
O113 C117 1.253 . S
H114 C110 0.931 . S
H115 C111 0.930 . S
O116 Co105 2.039 . S
O116 C106 1.265 . S
C117 O113 1.253 . S
C117 O118 1.227 . S
O118 C117 1.227 . S
N119 Co105 2.140 . S
N119 C122 1.346 . S
N119 C123 1.345 . S
C120 C121 1.387 . S
C120 C124 1.391 . S
C121 C120 1.387 . S
C121 C122 1.369 . S
C121 H130 0.929 . S
C122 N119 1.346 . S
C122 C121 1.369 . S
C122 H125 0.928 . S
C123 N119 1.345 . S
C123 C124 1.371 . S
C123 H126 0.931 . S
C124 C120 1.391 . S
C124 C123 1.371 . S
C124 H131 0.930 . S
H125 C122 0.928 . S
H126 C123 0.931 . S
H127 C103 0.930 . S
H128 C100 0.930 . S
H129 C109 0.930 . S
H130 C121 0.929 . S
H131 C124 0.930 . S
C132 C133 1.351 . S
C132 N135 1.368 . S
C132 H137 0.931 . S
C133 C132 1.351 . S
C133 N134 1.373 . S
C133 H161 0.930 . S
N134 C133 1.373 . S
N134 C136 1.340 . S
N135 C132 1.368 . S
N135 C136 1.321 . S
N135 Co138 2.135 . S
C136 N134 1.340 . S
C136 N135 1.321 . S
C136 H160 0.930 . S
H137 C132 0.931 . S
Co138 N135 2.135 . S
Co138 N141 2.121 . S
Co138 O146 2.055 . S
Co138 O149 2.039 . S
Co138 N152 2.140 . S
C139 O140 1.227 . S
C139 O149 1.265 . S
O140 C139 1.227 . S
N141 Co138 2.121 . S
N141 C143 1.375 . S
N141 C144 1.313 . S
C142 C143 1.338 . S
C142 N145 1.377 . S
C142 H162 0.930 . S
C143 N141 1.375 . S
C143 C142 1.338 . S
C143 H147 0.931 . S
C144 N141 1.313 . S
C144 N145 1.344 . S
C144 H148 0.930 . S
N145 C142 1.377 . S
N145 C144 1.344 . S
O146 Co138 2.055 . S
O146 C150 1.253 . S
H147 C143 0.931 . S
H148 C144 0.930 . S
O149 Co138 2.039 . S
O149 C139 1.265 . S
C150 O146 1.253 . S
C150 O151 1.227 . S
O151 C150 1.227 . S
N152 Co138 2.140 . S
N152 C155 1.346 . S
N152 C156 1.345 . S
C153 C154 1.387 . S
C153 C157 1.391 . S
C154 C153 1.387 . S
C154 C155 1.369 . S
C154 H163 0.929 . S
C155 N152 1.346 . S
C155 C154 1.369 . S
C155 H158 0.928 . S
C156 N152 1.345 . S
C156 C157 1.371 . S
C156 H159 0.931 . S
C157 C153 1.391 . S
C157 C156 1.371 . S
C157 H164 0.930 . S
H158 C155 0.928 . S
H159 C156 0.931 . S
H160 C136 0.930 . S
H161 C133 0.930 . S
H162 C142 0.930 . S
H163 C154 0.929 . S
H164 C157 0.930 . S
C165 C166 1.351 . S
C165 N168 1.368 . S
C165 H170 0.931 . S
C166 C165 1.351 . S
C166 N167 1.373 . S
C166 H194 0.930 . S
N167 C166 1.373 . S
N167 C169 1.340 . S
N168 C165 1.368 . S
N168 C169 1.321 . S
N168 Co171 2.135 . S
C169 N167 1.340 . S
C169 N168 1.321 . S
C169 H193 0.930 . S
H170 C165 0.931 . S
Co171 N168 2.135 . S
Co171 N174 2.121 . S
Co171 O179 2.055 . S
Co171 O182 2.039 . S
Co171 N185 2.140 . S
C172 O173 1.227 . S
C172 O182 1.265 . S
O173 C172 1.227 . S
N174 Co171 2.121 . S
N174 C176 1.375 . S
N174 C177 1.313 . S
C175 C176 1.338 . S
C175 N178 1.377 . S
C175 H195 0.930 . S
C176 N174 1.375 . S
C176 C175 1.338 . S
C176 H180 0.931 . S
C177 N174 1.313 . S
C177 N178 1.344 . S
C177 H181 0.930 . S
N178 C175 1.377 . S
N178 C177 1.344 . S
O179 Co171 2.055 . S
O179 C183 1.253 . S
H180 C176 0.931 . S
H181 C177 0.930 . S
O182 Co171 2.039 . S
O182 C172 1.265 . S
C183 O179 1.253 . S
C183 O184 1.227 . S
O184 C183 1.227 . S
N185 Co171 2.140 . S
N185 C188 1.346 . S
N185 C189 1.345 . S
C186 C187 1.387 . S
C186 C190 1.391 . S
C187 C186 1.387 . S
C187 C188 1.369 . S
C187 H196 0.929 . S
C188 N185 1.346 . S
C188 C187 1.369 . S
C188 H191 0.928 . S
C189 N185 1.345 . S
C189 C190 1.371 . S
C189 H192 0.931 . S
C190 C186 1.391 . S
C190 C189 1.371 . S
C190 H197 0.930 . S
H191 C188 0.928 . S
H192 C189 0.931 . S
H193 C169 0.930 . S
H194 C166 0.930 . S
H195 C175 0.930 . S
H196 C187 0.929 . S
H197 C190 0.930 . S
C198 C199 1.351 . S
C198 N201 1.368 . S
C198 H203 0.931 . S
C199 C198 1.351 . S
C199 N200 1.373 . S
C199 H227 0.930 . S
N200 C199 1.373 . S
N200 C202 1.340 . S
N201 C198 1.368 . S
N201 C202 1.321 . S
N201 Co204 2.135 . S
C202 N200 1.340 . S
C202 N201 1.321 . S
C202 H226 0.930 . S
H203 C198 0.931 . S
Co204 N201 2.135 . S
Co204 N207 2.121 . S
Co204 O212 2.055 . S
Co204 O215 2.039 . S
Co204 N218 2.140 . S
C205 O206 1.227 . S
C205 O215 1.265 . S
O206 C205 1.227 . S
N207 Co204 2.121 . S
N207 C209 1.375 . S
N207 C210 1.313 . S
C208 C209 1.338 . S
C208 N211 1.377 . S
C208 H228 0.930 . S
C209 N207 1.375 . S
C209 C208 1.338 . S
C209 H213 0.931 . S
C210 N207 1.313 . S
C210 N211 1.344 . S
C210 H214 0.930 . S
N211 C208 1.377 . S
N211 C210 1.344 . S
O212 Co204 2.055 . S
O212 C216 1.253 . S
H213 C209 0.931 . S
H214 C210 0.930 . S
O215 Co204 2.039 . S
O215 C205 1.265 . S
C216 O212 1.253 . S
C216 O217 1.227 . S
O217 C216 1.227 . S
N218 Co204 2.140 . S
N218 C221 1.346 . S
N218 C222 1.345 . S
C219 C220 1.387 . S
C219 C223 1.391 . S
C220 C219 1.387 . S
C220 C221 1.369 . S
C220 H229 0.929 . S
C221 N218 1.346 . S
C221 C220 1.369 . S
C221 H224 0.928 . S
C222 N218 1.345 . S
C222 C223 1.371 . S
C222 H225 0.931 . S
C223 C219 1.391 . S
C223 C222 1.371 . S
C223 H230 0.930 . S
H224 C221 0.928 . S
H225 C222 0.931 . S
H226 C202 0.930 . S
H227 C199 0.930 . S
H228 C208 0.930 . S
H229 C220 0.929 . S
H230 C223 0.930 . S
C231 C232 1.351 . S
C231 N234 1.368 . S
C231 H236 0.931 . S
C232 C231 1.351 . S
C232 N233 1.373 . S
C232 H260 0.930 . S
N233 C232 1.373 . S
N233 C235 1.340 . S
N234 C231 1.368 . S
N234 C235 1.321 . S
N234 Co237 2.135 . S
C235 N233 1.340 . S
C235 N234 1.321 . S
C235 H259 0.930 . S
H236 C231 0.931 . S
Co237 N234 2.135 . S
Co237 N240 2.121 . S
Co237 O245 2.055 . S
Co237 O248 2.039 . S
Co237 N251 2.140 . S
C238 O239 1.227 . S
C238 O248 1.265 . S
O239 C238 1.227 . S
N240 Co237 2.121 . S
N240 C242 1.375 . S
N240 C243 1.313 . S
C241 C242 1.338 . S
C241 N244 1.377 . S
C241 H261 0.930 . S
C242 N240 1.375 . S
C242 C241 1.338 . S
C242 H246 0.931 . S
C243 N240 1.313 . S
C243 N244 1.344 . S
C243 H247 0.930 . S
N244 C241 1.377 . S
N244 C243 1.344 . S
O245 Co237 2.055 . S
O245 C249 1.253 . S
H246 C242 0.931 . S
H247 C243 0.930 . S
O248 Co237 2.039 . S
O248 C238 1.265 . S
C249 O245 1.253 . S
C249 O250 1.227 . S
O250 C249 1.227 . S
N251 Co237 2.140 . S
N251 C254 1.346 . S
N251 C255 1.345 . S
C252 C253 1.387 . S
C252 C256 1.391 . S
C253 C252 1.387 . S
C253 C254 1.369 . S
C253 H262 0.929 . S
C254 N251 1.346 . S
C254 C253 1.369 . S
C254 H257 0.928 . S
C255 N251 1.345 . S
C255 C256 1.371 . S
C255 H258 0.931 . S
C256 C252 1.391 . S
C256 C255 1.371 . S
C256 H263 0.930 . S
H257 C254 0.928 . S
H258 C255 0.931 . S
H259 C235 0.930 . S
H260 C232 0.930 . S
H261 C241 0.930 . S
H262 C253 0.929 . S
H263 C256 0.930 . S
C264 C265 1.351 . S
C264 N267 1.368 . S
C264 H269 0.931 . S
C265 C264 1.351 . S
C265 N266 1.373 . S
C265 H293 0.930 . S
N266 C265 1.373 . S
N266 C268 1.340 . S
N267 C264 1.368 . S
N267 C268 1.321 . S
N267 Co270 2.135 . S
C268 N266 1.340 . S
C268 N267 1.321 . S
C268 H292 0.930 . S
H269 C264 0.931 . S
Co270 N267 2.135 . S
Co270 N273 2.121 . S
Co270 O278 2.055 . S
Co270 O281 2.039 . S
Co270 N284 2.140 . S
C271 O272 1.227 . S
C271 O281 1.265 . S
O272 C271 1.227 . S
N273 Co270 2.121 . S
N273 C275 1.375 . S
N273 C276 1.313 . S
C274 C275 1.338 . S
C274 N277 1.377 . S
C274 H294 0.930 . S
C275 N273 1.375 . S
C275 C274 1.338 . S
C275 H279 0.931 . S
C276 N273 1.313 . S
C276 N277 1.344 . S
C276 H280 0.930 . S
N277 C274 1.377 . S
N277 C276 1.344 . S
O278 Co270 2.055 . S
O278 C282 1.253 . S
H279 C275 0.931 . S
H280 C276 0.930 . S
O281 Co270 2.039 . S
O281 C271 1.265 . S
C282 O278 1.253 . S
C282 O283 1.227 . S
O283 C282 1.227 . S
N284 Co270 2.140 . S
N284 C287 1.346 . S
N284 C288 1.345 . S
C285 C286 1.387 . S
C285 C289 1.391 . S
C286 C285 1.387 . S
C286 C287 1.369 . S
C286 H295 0.929 . S
C287 N284 1.346 . S
C287 C286 1.369 . S
C287 H290 0.928 . S
C288 N284 1.345 . S
C288 C289 1.371 . S
C288 H291 0.931 . S
C289 C285 1.391 . S
C289 C288 1.371 . S
C289 H296 0.930 . S
H290 C287 0.928 . S
H291 C288 0.931 . S
H292 C268 0.930 . S
H293 C265 0.930 . S
H294 C274 0.930 . S
H295 C286 0.929 . S
H296 C289 0.930 . S
C297 C298 1.351 . S
C297 N300 1.368 . S
C297 H302 0.931 . S
C298 C297 1.351 . S
C298 N299 1.373 . S
C298 H326 0.930 . S
N299 C298 1.373 . S
N299 C301 1.340 . S
N300 C297 1.368 . S
N300 C301 1.321 . S
N300 Co303 2.135 . S
C301 N299 1.340 . S
C301 N300 1.321 . S
C301 H325 0.930 . S
H302 C297 0.931 . S
Co303 N300 2.135 . S
Co303 N306 2.121 . S
Co303 O311 2.055 . S
Co303 O314 2.039 . S
Co303 N317 2.140 . S
C304 O305 1.227 . S
C304 O314 1.265 . S
O305 C304 1.227 . S
N306 Co303 2.121 . S
N306 C308 1.375 . S
N306 C309 1.313 . S
C307 C308 1.338 . S
C307 N310 1.377 . S
C307 H327 0.930 . S
C308 N306 1.375 . S
C308 C307 1.338 . S
C308 H312 0.931 . S
C309 N306 1.313 . S
C309 N310 1.344 . S
C309 H313 0.930 . S
N310 C307 1.377 . S
N310 C309 1.344 . S
O311 Co303 2.055 . S
O311 C315 1.253 . S
H312 C308 0.931 . S
H313 C309 0.930 . S
O314 Co303 2.039 . S
O314 C304 1.265 . S
C315 O311 1.253 . S
C315 O316 1.227 . S
O316 C315 1.227 . S
N317 Co303 2.140 . S
N317 C320 1.346 . S
N317 C321 1.345 . S
C318 C319 1.387 . S
C318 C322 1.391 . S
C319 C318 1.387 . S
C319 C320 1.369 . S
C319 H328 0.929 . S
C320 N317 1.346 . S
C320 C319 1.369 . S
C320 H323 0.928 . S
C321 N317 1.345 . S
C321 C322 1.371 . S
C321 H324 0.931 . S
C322 C318 1.391 . S
C322 C321 1.371 . S
C322 H329 0.930 . S
H323 C320 0.928 . S
H324 C321 0.931 . S
H325 C301 0.930 . S
H326 C298 0.930 . S
H327 C307 0.930 . S
H328 C319 0.929 . S
H329 C322 0.930 . S
C330 C331 1.351 . S
C330 N333 1.368 . S
C330 H335 0.931 . S
C331 C330 1.351 . S
C331 N332 1.373 . S
C331 H359 0.930 . S
N332 C331 1.373 . S
N332 C334 1.340 . S
N333 C330 1.368 . S
N333 C334 1.321 . S
N333 Co336 2.135 . S
C334 N332 1.340 . S
C334 N333 1.321 . S
C334 H358 0.930 . S
H335 C330 0.931 . S
Co336 N333 2.135 . S
Co336 N339 2.121 . S
Co336 O344 2.055 . S
Co336 O347 2.039 . S
Co336 N350 2.140 . S
C337 O338 1.227 . S
C337 O347 1.265 . S
O338 C337 1.227 . S
N339 Co336 2.121 . S
N339 C341 1.375 . S
N339 C342 1.313 . S
C340 C341 1.338 . S
C340 N343 1.377 . S
C340 H360 0.930 . S
C341 N339 1.375 . S
C341 C340 1.338 . S
C341 H345 0.931 . S
C342 N339 1.313 . S
C342 N343 1.344 . S
C342 H346 0.930 . S
N343 C340 1.377 . S
N343 C342 1.344 . S
O344 Co336 2.055 . S
O344 C348 1.253 . S
H345 C341 0.931 . S
H346 C342 0.930 . S
O347 Co336 2.039 . S
O347 C337 1.265 . S
C348 O344 1.253 . S
C348 O349 1.227 . S
O349 C348 1.227 . S
N350 Co336 2.140 . S
N350 C353 1.346 . S
N350 C354 1.345 . S
C351 C352 1.387 . S
C351 C355 1.391 . S
C352 C351 1.387 . S
C352 C353 1.369 . S
C352 H361 0.929 . S
C353 N350 1.346 . S
C353 C352 1.369 . S
C353 H356 0.928 . S
C354 N350 1.345 . S
C354 C355 1.371 . S
C354 H357 0.931 . S
C355 C351 1.391 . S
C355 C354 1.371 . S
C355 H362 0.930 . S
H356 C353 0.928 . S
H357 C354 0.931 . S
H358 C334 0.930 . S
H359 C331 0.930 . S
H360 C340 0.930 . S
H361 C352 0.929 . S
H362 C355 0.930 . S
C363 C364 1.351 . S
C363 N366 1.368 . S
C363 H368 0.931 . S
C364 C363 1.351 . S
C364 N365 1.373 . S
C364 H392 0.930 . S
N365 C364 1.373 . S
N365 C367 1.340 . S
N366 C363 1.368 . S
N366 C367 1.321 . S
N366 Co369 2.135 . S
C367 N365 1.340 . S
C367 N366 1.321 . S
C367 H391 0.930 . S
H368 C363 0.931 . S
Co369 N366 2.135 . S
Co369 N372 2.121 . S
Co369 O377 2.055 . S
Co369 O380 2.039 . S
Co369 N383 2.140 . S
C370 O371 1.227 . S
C370 O380 1.265 . S
O371 C370 1.227 . S
N372 Co369 2.121 . S
N372 C374 1.375 . S
N372 C375 1.313 . S
C373 C374 1.338 . S
C373 N376 1.377 . S
C373 H393 0.930 . S
C374 N372 1.375 . S
C374 C373 1.338 . S
C374 H378 0.931 . S
C375 N372 1.313 . S
C375 N376 1.344 . S
C375 H379 0.930 . S
N376 C373 1.377 . S
N376 C375 1.344 . S
O377 Co369 2.055 . S
O377 C381 1.253 . S
H378 C374 0.931 . S
H379 C375 0.930 . S
O380 Co369 2.039 . S
O380 C370 1.265 . S
C381 O377 1.253 . S
C381 O382 1.227 . S
O382 C381 1.227 . S
N383 Co369 2.140 . S
N383 C386 1.346 . S
N383 C387 1.345 . S
C384 C385 1.387 . S
C384 C388 1.391 . S
C385 C384 1.387 . S
C385 C386 1.369 . S
C385 H394 0.929 . S
C386 N383 1.346 . S
C386 C385 1.369 . S
C386 H389 0.928 . S
C387 N383 1.345 . S
C387 C388 1.371 . S
C387 H390 0.931 . S
C388 C384 1.391 . S
C388 C387 1.371 . S
C388 H395 0.930 . S
H389 C386 0.928 . S
H390 C387 0.931 . S
H391 C367 0.930 . S
H392 C364 0.930 . S
H393 C373 0.930 . S
H394 C385 0.929 . S
H395 C388 0.930 . S
H396 C402 0.930 . S
H397 C405 0.930 . S
H398 C406 0.930 . S
H399 C407 0.930 . S
H400 C410 0.930 . S
H401 C411 0.930 . S
C402 H396 0.930 . S
C402 C403 1.355 . S
C402 C404 1.415 . S
C403 C402 1.355 . S
C403 C405 1.419 . S
C404 C402 1.415 . S
C404 C409 1.425 . S
C404 C411 1.409 . S
C405 H397 0.930 . S
C405 C403 1.419 . S
C405 C406 1.362 . S
C406 H398 0.930 . S
C406 C405 1.362 . S
C406 C409 1.409 . S
C407 H399 0.930 . S
C407 C408 1.355 . S
C407 C409 1.415 . S
C408 C407 1.355 . S
C408 C410 1.419 . S
C409 C404 1.425 . S
C409 C406 1.409 . S
C409 C407 1.415 . S
C410 H400 0.930 . S
C410 C408 1.419 . S
C410 C411 1.362 . S
C411 H401 0.930 . S
C411 C404 1.409 . S
C411 C410 1.362 . S
H412 C418 0.930 . S
H413 C421 0.930 . S
H414 C422 0.930 . S
H415 C423 0.930 . S
H416 C426 0.930 . S
H417 C427 0.930 . S
C418 H412 0.930 . S
C418 C419 1.355 . S
C418 C420 1.415 . S
C419 C418 1.355 . S
C419 C421 1.419 . S
C420 C418 1.415 . S
C420 C425 1.425 . S
C420 C427 1.409 . S
C421 H413 0.930 . S
C421 C419 1.419 . S
C421 C422 1.362 . S
C422 H414 0.930 . S
C422 C421 1.362 . S
C422 C425 1.409 . S
C423 H415 0.930 . S
C423 C424 1.355 . S
C423 C425 1.415 . S
C424 C423 1.355 . S
C424 C426 1.419 . S
C425 C420 1.425 . S
C425 C422 1.409 . S
C425 C423 1.415 . S
C426 H416 0.930 . S
C426 C424 1.419 . S
C426 C427 1.362 . S
C427 H417 0.930 . S
C427 C420 1.409 . S
C427 C426 1.362 . S
H428 C434 0.930 . S
H429 C437 0.930 . S
H430 C438 0.930 . S
H431 C439 0.930 . S
H432 C442 0.930 . S
H433 C443 0.930 . S
C434 H428 0.930 . S
C434 C435 1.355 . S
C434 C436 1.415 . S
C435 C434 1.355 . S
C435 C437 1.419 . S
C436 C434 1.415 . S
C436 C441 1.425 . S
C436 C443 1.409 . S
C437 H429 0.930 . S
C437 C435 1.419 . S
C437 C438 1.362 . S
C438 H430 0.930 . S
C438 C437 1.362 . S
C438 C441 1.409 . S
C439 H431 0.930 . S
C439 C440 1.355 . S
C439 C441 1.415 . S
C440 C439 1.355 . S
C440 C442 1.419 . S
C441 C436 1.425 . S
C441 C438 1.409 . S
C441 C439 1.415 . S
C442 H432 0.930 . S
C442 C440 1.419 . S
C442 C443 1.362 . S
C443 H433 0.930 . S
C443 C436 1.409 . S
C443 C442 1.362 . S
H444 C450 0.930 . S
H445 C453 0.930 . S
H446 C454 0.930 . S
H447 C455 0.930 . S
H448 C458 0.930 . S
H449 C459 0.930 . S
C450 H444 0.930 . S
C450 C451 1.355 . S
C450 C452 1.415 . S
C451 C450 1.355 . S
C451 C453 1.419 . S
C452 C450 1.415 . S
C452 C457 1.425 . S
C452 C459 1.409 . S
C453 H445 0.930 . S
C453 C451 1.419 . S
C453 C454 1.362 . S
C454 H446 0.930 . S
C454 C453 1.362 . S
C454 C457 1.409 . S
C455 H447 0.930 . S
C455 C456 1.355 . S
C455 C457 1.415 . S
C456 C455 1.355 . S
C456 C458 1.419 . S
C457 C452 1.425 . S
C457 C454 1.409 . S
C457 C455 1.415 . S
C458 H448 0.930 . S
C458 C456 1.419 . S
C458 C459 1.362 . S
C459 H449 0.930 . S
C459 C452 1.409 . S
C459 C458 1.362 . S
H460 C466 0.930 . S
H461 C469 0.930 . S
H462 C470 0.930 . S
H463 C471 0.930 . S
H464 C474 0.930 . S
H465 C475 0.930 . S
C466 H460 0.930 . S
C466 C467 1.355 . S
C466 C468 1.415 . S
C467 C466 1.355 . S
C467 C469 1.419 . S
C468 C466 1.415 . S
C468 C473 1.425 . S
C468 C475 1.409 . S
C469 H461 0.930 . S
C469 C467 1.419 . S
C469 C470 1.362 . S
C470 H462 0.930 . S
C470 C469 1.362 . S
C470 C473 1.409 . S
C471 H463 0.930 . S
C471 C472 1.355 . S
C471 C473 1.415 . S
C472 C471 1.355 . S
C472 C474 1.419 . S
C473 C468 1.425 . S
C473 C470 1.409 . S
C473 C471 1.415 . S
C474 H464 0.930 . S
C474 C472 1.419 . S
C474 C475 1.362 . S
C475 H465 0.930 . S
C475 C468 1.409 . S
C475 C474 1.362 . S
H476 C482 0.930 . S
H477 C485 0.930 . S
H478 C486 0.930 . S
H479 C487 0.930 . S
H480 C490 0.930 . S
H481 C491 0.930 . S
C482 H476 0.930 . S
C482 C483 1.355 . S
C482 C484 1.415 . S
C483 C482 1.355 . S
C483 C485 1.419 . S
C484 C482 1.415 . S
C484 C489 1.425 . S
C484 C491 1.409 . S
C485 H477 0.930 . S
C485 C483 1.419 . S
C485 C486 1.362 . S
C486 H478 0.930 . S
C486 C485 1.362 . S
C486 C489 1.409 . S
C487 H479 0.930 . S
C487 C488 1.355 . S
C487 C489 1.415 . S
C488 C487 1.355 . S
C488 C490 1.419 . S
C489 C484 1.425 . S
C489 C486 1.409 . S
C489 C487 1.415 . S
C490 H480 0.930 . S
C490 C488 1.419 . S
C490 C491 1.362 . S
C491 H481 0.930 . S
C491 C484 1.409 . S
C491 C490 1.362 . S
H492 C498 0.930 . S
H493 C501 0.930 . S
H494 C502 0.930 . S
H495 C503 0.930 . S
H496 C506 0.930 . S
H497 C507 0.930 . S
C498 H492 0.930 . S
C498 C499 1.355 . S
C498 C500 1.415 . S
C499 C498 1.355 . S
C499 C501 1.419 1_554 S
C500 C498 1.415 . S
C500 C505 1.425 1_544 S
C500 C507 1.409 1_545 S
C501 H493 0.930 . S
C501 C499 1.419 1_556 S
C501 C502 1.362 . S
C502 H494 0.930 . S
C502 C501 1.362 . S
C502 C505 1.409 1_545 S
C503 H495 0.930 . S
C503 C504 1.355 . S
C503 C505 1.415 . S
C504 C503 1.355 . S
C504 C506 1.419 1_556 S
C505 C500 1.425 1_566 S
C505 C502 1.409 1_565 S
C505 C503 1.415 . S
C506 H496 0.930 . S
C506 C504 1.419 1_554 S
C506 C507 1.362 . S
C507 H497 0.930 . S
C507 C500 1.409 1_565 S
C507 C506 1.362 . S
H508 C514 0.930 . S
H509 C517 0.930 . S
H510 C518 0.930 . S
H511 C519 0.930 . S
H512 C522 0.930 . S
H513 C523 0.930 . S
C514 H508 0.930 . S
C514 C515 1.355 1_456 S
C514 C516 1.415 . S
C515 C514 1.355 1_654 S
C515 C517 1.419 . S
C516 C514 1.415 . S
C516 C521 1.425 1_456 S
C516 C523 1.409 . S
C517 H509 0.930 . S
C517 C515 1.419 . S
C517 C518 1.362 . S
C518 H510 0.930 . S
C518 C517 1.362 . S
C518 C521 1.409 . S
C519 H511 0.930 . S
C519 C520 1.355 1_654 S
C519 C521 1.415 . S
C520 C519 1.355 1_456 S
C520 C522 1.419 . S
C521 C516 1.425 1_654 S
C521 C518 1.409 . S
C521 C519 1.415 . S
C522 H512 0.930 . S
C522 C520 1.419 . S
C522 C523 1.362 . S
C523 H513 0.930 . S
C523 C516 1.409 . S
C523 C522 1.362 . S
H524 C530 0.930 . S
H525 C533 0.930 . S
H526 C534 0.930 . S
H527 C535 0.930 . S
H528 C538 0.930 . S
H529 C539 0.930 . S
C530 H524 0.930 . S
C530 C531 1.355 1_554 S
C530 C532 1.415 . S
C531 C530 1.355 1_556 S
C531 C533 1.419 . S
C532 C530 1.415 . S
C532 C537 1.425 1_554 S
C532 C539 1.409 . S
C533 H525 0.930 . S
C533 C531 1.419 . S
C533 C534 1.362 . S
C534 H526 0.930 . S
C534 C533 1.362 . S
C534 C537 1.409 . S
C535 H527 0.930 . S
C535 C536 1.355 1_556 S
C535 C537 1.415 . S
C536 C535 1.355 1_554 S
C536 C538 1.419 . S
C537 C532 1.425 1_556 S
C537 C534 1.409 . S
C537 C535 1.415 . S
C538 H528 0.930 . S
C538 C536 1.419 . S
C538 C539 1.362 . S
C539 H529 0.930 . S
C539 C532 1.409 . S
C539 C538 1.362 . S
H540 C546 0.930 . S
H541 C549 0.930 . S
H542 C550 0.930 . S
H543 C551 0.930 . S
H544 C554 0.930 . S
H545 C555 0.930 . S
C546 H540 0.930 . S
C546 C547 1.355 . S
C546 C548 1.415 . S
C547 C546 1.355 . S
C547 C549 1.419 1_455 S
C548 C546 1.415 . S
C548 C553 1.425 1_455 S
C548 C555 1.409 . S
C549 H541 0.930 . S
C549 C547 1.419 1_655 S
C549 C550 1.362 . S
C550 H542 0.930 . S
C550 C549 1.362 . S
C550 C553 1.409 . S
C551 H543 0.930 . S
C551 C552 1.355 . S
C551 C553 1.415 . S
C552 C551 1.355 . S
C552 C554 1.419 1_655 S
C553 C548 1.425 1_655 S
C553 C550 1.409 . S
C553 C551 1.415 . S
C554 H544 0.930 . S
C554 C552 1.419 1_455 S
C554 C555 1.362 . S
C555 H545 0.930 . S
C555 C548 1.409 . S
C555 C554 1.362 . S
H556 C562 0.930 . S
H557 C565 0.930 . S
H558 C566 0.930 . S
H559 C567 0.930 . S
H560 C570 0.930 . S
H561 C571 0.930 . S
C562 H556 0.930 . S
C562 C563 1.355 . S
C562 C564 1.415 . S
C563 C562 1.355 . S
C563 C565 1.419 . S
C564 C562 1.415 . S
C564 C569 1.425 . S
C564 C571 1.409 . S
C565 H557 0.930 . S
C565 C563 1.419 . S
C565 C566 1.362 . S
C566 H558 0.930 . S
C566 C565 1.362 . S
C566 C569 1.409 . S
C567 H559 0.930 . S
C567 C568 1.355 . S
C567 C569 1.415 . S
C568 C567 1.355 . S
C568 C570 1.419 . S
C569 C564 1.425 . S
C569 C566 1.409 . S
C569 C567 1.415 . S
C570 H560 0.930 . S
C570 C568 1.419 . S
C570 C571 1.362 . S
C571 H561 0.930 . S
C571 C564 1.409 . S
C571 C570 1.362 . S
H572 C578 0.930 . S
H573 C581 0.930 . S
H574 C582 0.930 . S
H575 C583 0.930 . S
H576 C586 0.930 . S
H577 C587 0.930 . S
C578 H572 0.930 . S
C578 C579 1.355 . S
C578 C580 1.415 . S
C579 C578 1.355 . S
C579 C581 1.419 1_545 S
C580 C578 1.415 . S
C580 C585 1.425 1_545 S
C580 C587 1.409 . S
C581 H573 0.930 . S
C581 C579 1.419 1_565 S
C581 C582 1.362 . S
C582 H574 0.930 . S
C582 C581 1.362 . S
C582 C585 1.409 . S
C583 H575 0.930 . S
C583 C584 1.355 . S
C583 C585 1.415 . S
C584 C583 1.355 . S
C584 C586 1.419 1_565 S
C585 C580 1.425 1_565 S
C585 C582 1.409 . S
C585 C583 1.415 . S
C586 H576 0.930 . S
C586 C584 1.419 1_545 S
C586 C587 1.362 . S
C587 H577 0.930 . S
C587 C580 1.409 . S
C587 C586 1.362 . S
H588 C594 0.930 . S
H589 C597 0.930 . S
H590 C598 0.930 . S
H591 C599 0.930 . S
H592 C602 0.930 . S
H593 C603 0.930 . S
C594 H588 0.930 . S
C594 C595 1.355 . S
C594 C596 1.415 . S
C595 C594 1.355 . S
C595 C597 1.419 . S
C596 C594 1.415 . S
C596 C601 1.425 . S
C596 C603 1.409 . S
C597 H589 0.930 . S
C597 C595 1.419 . S
C597 C598 1.362 . S
C598 H590 0.930 . S
C598 C597 1.362 . S
C598 C601 1.409 . S
C599 H591 0.930 . S
C599 C600 1.355 . S
C599 C601 1.415 . S
C600 C599 1.355 . S
C600 C602 1.419 . S
C601 C596 1.425 . S
C601 C598 1.409 . S
C601 C599 1.415 . S
C602 H592 0.930 . S
C602 C600 1.419 . S
C602 C603 1.362 . S
C603 H593 0.930 . S
C603 C596 1.409 . S
C603 C602 1.362 . S
H604 C610 0.930 . S
H605 C613 0.930 . S
H606 C614 0.930 . S
H607 C615 0.930 . S
H608 C618 0.930 . S
H609 C619 0.930 . S
C610 H604 0.930 . S
C610 C611 1.355 . S
C610 C612 1.415 . S
C611 C610 1.355 . S
C611 C613 1.419 . S
C612 C610 1.415 . S
C612 C617 1.425 . S
C612 C619 1.409 . S
C613 H605 0.930 . S
C613 C611 1.419 . S
C613 C614 1.362 . S
C614 H606 0.930 . S
C614 C613 1.362 . S
C614 C617 1.409 . S
C615 H607 0.930 . S
C615 C616 1.355 . S
C615 C617 1.415 . S
C616 C615 1.355 . S
C616 C618 1.419 . S
C617 C612 1.425 . S
C617 C614 1.409 . S
C617 C615 1.415 . S
C618 H608 0.930 . S
C618 C616 1.419 . S
C618 C619 1.362 . S
C619 H609 0.930 . S
C619 C612 1.409 . S
C619 C618 1.362 . S
H620 C626 0.930 . S
H621 C629 0.930 . S
H622 C630 0.930 . S
H623 C631 0.930 . S
H624 C634 0.930 . S
H625 C635 0.930 . S
C626 H620 0.930 . S
C626 C627 1.355 . S
C626 C628 1.415 . S
C627 C626 1.355 . S
C627 C629 1.419 . S
C628 C626 1.415 . S
C628 C633 1.425 . S
C628 C635 1.409 . S
C629 H621 0.930 . S
C629 C627 1.419 . S
C629 C630 1.362 . S
C630 H622 0.930 . S
C630 C629 1.362 . S
C630 C633 1.409 . S
C631 H623 0.930 . S
C631 C632 1.355 . S
C631 C633 1.415 . S
C632 C631 1.355 . S
C632 C634 1.419 . S
C633 C628 1.425 . S
C633 C630 1.409 . S
C633 C631 1.415 . S
C634 H624 0.930 . S
C634 C632 1.419 . S
C634 C635 1.362 . S
C635 H625 0.930 . S
C635 C628 1.409 . S
C635 C634 1.362 . S
H636 C642 0.930 . S
H637 C645 0.930 . S
H638 C646 0.930 . S
H639 C647 0.930 . S
H640 C650 0.930 . S
H641 C651 0.930 . S
C642 H636 0.930 . S
C642 C643 1.355 . S
C642 C644 1.415 . S
C643 C642 1.355 . S
C643 C645 1.419 . S
C644 C642 1.415 . S
C644 C649 1.425 . S
C644 C651 1.409 . S
C645 H637 0.930 . S
C645 C643 1.419 . S
C645 C646 1.362 . S
C646 H638 0.930 . S
C646 C645 1.362 . S
C646 C649 1.409 . S
C647 H639 0.930 . S
C647 C648 1.355 . S
C647 C649 1.415 . S
C648 C647 1.355 . S
C648 C650 1.419 . S
C649 C644 1.425 . S
C649 C646 1.409 . S
C649 C647 1.415 . S
C650 H640 0.930 . S
C650 C648 1.419 . S
C650 C651 1.362 . S
C651 H641 0.930 . S
C651 C644 1.409 . S
C651 C650 1.362 . S
H652 C658 0.930 . S
H653 C661 0.930 . S
H654 C662 0.930 . S
H655 C663 0.930 . S
H656 C666 0.930 . S
H657 C667 0.930 . S
C658 H652 0.930 . S
C658 C659 1.355 . S
C658 C660 1.415 . S
C659 C658 1.355 . S
C659 C661 1.419 . S
C660 C658 1.415 . S
C660 C665 1.425 . S
C660 C667 1.409 . S
C661 H653 0.930 . S
C661 C659 1.419 . S
C661 C662 1.362 . S
C662 H654 0.930 . S
C662 C661 1.362 . S
C662 C665 1.409 . S
C663 H655 0.930 . S
C663 C664 1.355 . S
C663 C665 1.415 . S
C664 C663 1.355 . S
C664 C666 1.419 . S
C665 C660 1.425 . S
C665 C662 1.409 . S
C665 C663 1.415 . S
C666 H656 0.930 . S
C666 C664 1.419 . S
C666 C667 1.362 . S
C667 H657 0.930 . S
C667 C660 1.409 . S
C667 C666 1.362 . S
H668 C674 0.930 . S
H669 C677 0.930 . S
H670 C678 0.930 . S
H671 C679 0.930 . S
H672 C682 0.930 . S
H673 C683 0.930 . S
C674 H668 0.930 . S
C674 C675 1.355 . S
C674 C676 1.415 . S
C675 C674 1.355 . S
C675 C677 1.419 . S
C676 C674 1.415 . S
C676 C681 1.425 . S
C676 C683 1.409 . S
C677 H669 0.930 . S
C677 C675 1.419 . S
C677 C678 1.362 . S
C678 H670 0.930 . S
C678 C677 1.362 . S
C678 C681 1.409 . S
C679 H671 0.930 . S
C679 C680 1.355 . S
C679 C681 1.415 . S
C680 C679 1.355 . S
C680 C682 1.419 . S
C681 C676 1.425 . S
C681 C678 1.409 . S
C681 C679 1.415 . S
C682 H672 0.930 . S
C682 C680 1.419 . S
C682 C683 1.362 . S
C683 H673 0.930 . S
C683 C676 1.409 . S
C683 C682 1.362 . S
H684 C690 0.930 . S
H685 C693 0.930 . S
H686 C694 0.930 . S
H687 C695 0.930 . S
H688 C698 0.930 . S
H689 C699 0.930 1_556 S
C690 H684 0.930 . S
C690 C691 1.355 . S
C690 C692 1.415 . S
C691 C690 1.355 . S
C691 C693 1.419 . S
C692 C690 1.415 . S
C692 C697 1.425 . S
C692 C699 1.409 . S
C693 H685 0.930 . S
C693 C691 1.419 . S
C693 C694 1.362 . S
C694 H686 0.930 . S
C694 C693 1.362 . S
C694 C697 1.409 . S
C695 H687 0.930 . S
C695 C696 1.355 . S
C695 C697 1.415 . S
C696 C695 1.355 . S
C696 C698 1.419 . S
C697 C692 1.425 . S
C697 C694 1.409 . S
C697 C695 1.415 . S
C698 H688 0.930 . S
C698 C696 1.419 . S
C698 C699 1.362 . S
C699 H689 0.930 1_554 S
C699 C692 1.409 . S
C699 C698 1.362 . S
H700 C706 0.930 . S
H701 C709 0.930 . S
H702 C710 0.930 1_556 S
H703 C711 0.930 . S
H704 C714 0.930 . S
H705 C715 0.930 . S
C706 H700 0.930 . S
C706 C707 1.355 . S
C706 C708 1.415 . S
C707 C706 1.355 . S
C707 C709 1.419 . S
C708 C706 1.415 . S
C708 C713 1.425 . S
C708 C715 1.409 . S
C709 H701 0.930 . S
C709 C707 1.419 . S
C709 C710 1.362 . S
C710 H702 0.930 1_554 S
C710 C709 1.362 . S
C710 C713 1.409 . S
C711 H703 0.930 . S
C711 C712 1.355 . S
C711 C713 1.415 . S
C712 C711 1.355 . S
C712 C714 1.419 . S
C713 C708 1.425 . S
C713 C710 1.409 . S
C713 C711 1.415 . S
C714 H704 0.930 . S
C714 C712 1.419 . S
C714 C715 1.362 . S
C715 H705 0.930 . S
C715 C708 1.409 . S
C715 C714 1.362 . S
H716 C722 0.930 . S
H717 C725 0.930 . S
H718 C726 0.930 . S
H719 C727 0.930 . S
H720 C730 0.930 . S
H721 C731 0.930 . S
C722 H716 0.930 . S
C722 C723 1.355 . S
C722 C724 1.415 . S
C723 C722 1.355 . S
C723 C725 1.419 . S
C724 C722 1.415 . S
C724 C729 1.425 . S
C724 C731 1.409 . S
C725 H717 0.930 . S
C725 C723 1.419 . S
C725 C726 1.362 . S
C726 H718 0.930 . S
C726 C725 1.362 . S
C726 C729 1.409 . S
C727 H719 0.930 . S
C727 C728 1.355 . S
C727 C729 1.415 . S
C728 C727 1.355 . S
C728 C730 1.419 . S
C729 C724 1.425 . S
C729 C726 1.409 . S
C729 C727 1.415 . S
C730 H720 0.930 . S
C730 C728 1.419 . S
C730 C731 1.362 . S
C731 H721 0.930 . S
C731 C724 1.409 . S
C731 C730 1.362 . S
H732 C738 0.930 . S
H733 C741 0.930 . S
H734 C742 0.930 . S
H735 C743 0.930 . S
H736 C746 0.930 . S
H737 C747 0.930 . S
C738 H732 0.930 . S
C738 C739 1.355 . S
C738 C740 1.415 . S
C739 C738 1.355 . S
C739 C741 1.419 . S
C740 C738 1.415 . S
C740 C745 1.425 . S
C740 C747 1.409 . S
C741 H733 0.930 . S
C741 C739 1.419 . S
C741 C742 1.362 . S
C742 H734 0.930 . S
C742 C741 1.362 . S
C742 C745 1.409 . S
C743 H735 0.930 . S
C743 C744 1.355 . S
C743 C745 1.415 . S
C744 C743 1.355 . S
C744 C746 1.419 . S
C745 C740 1.425 . S
C745 C742 1.409 . S
C745 C743 1.415 . S
C746 H736 0.930 . S
C746 C744 1.419 . S
C746 C747 1.362 . S
C747 H737 0.930 . S
C747 C740 1.409 . S
C747 C746 1.362 . S
H748 C754 0.930 . S
H749 C757 0.930 . S
H750 C758 0.930 . S
H751 C759 0.930 . S
H752 C762 0.930 . S
H753 C763 0.930 . S
C754 H748 0.930 . S
C754 C755 1.355 . S
C754 C756 1.415 . S
C755 C754 1.355 . S
C755 C757 1.419 . S
C756 C754 1.415 . S
C756 C761 1.425 . S
C756 C763 1.409 . S
C757 H749 0.930 . S
C757 C755 1.419 . S
C757 C758 1.362 . S
C758 H750 0.930 . S
C758 C757 1.362 . S
C758 C761 1.409 . S
C759 H751 0.930 . S
C759 C760 1.355 . S
C759 C761 1.415 . S
C760 C759 1.355 . S
C760 C762 1.419 . S
C761 C756 1.425 . S
C761 C758 1.409 . S
C761 C759 1.415 . S
C762 H752 0.930 . S
C762 C760 1.419 . S
C762 C763 1.362 . S
C763 H753 0.930 . S
C763 C756 1.409 . S
C763 C762 1.362 . S
H764 C770 0.930 . S
H765 C773 0.930 . S
H766 C774 0.930 . S
H767 C775 0.930 . S
H768 C778 0.930 . S
H769 C779 0.930 . S
C770 H764 0.930 . S
C770 C771 1.355 . S
C770 C772 1.415 . S
C771 C770 1.355 . S
C771 C773 1.419 . S
C772 C770 1.415 . S
C772 C777 1.425 . S
C772 C779 1.409 . S
C773 H765 0.930 . S
C773 C771 1.419 . S
C773 C774 1.362 . S
C774 H766 0.930 . S
C774 C773 1.362 . S
C774 C777 1.409 . S
C775 H767 0.930 . S
C775 C776 1.355 . S
C775 C777 1.415 . S
C776 C775 1.355 . S
C776 C778 1.419 . S
C777 C772 1.425 . S
C777 C774 1.409 . S
C777 C775 1.415 . S
C778 H768 0.930 . S
C778 C776 1.419 . S
C778 C779 1.362 . S
C779 H769 0.930 . S
C779 C772 1.409 . S
C779 C778 1.362 . S
H780 C786 0.930 . S
H781 C789 0.930 . S
H782 C790 0.930 . S
H783 C791 0.930 . S
H784 C794 0.930 . S
H785 C795 0.930 . S
C786 H780 0.930 . S
C786 C787 1.355 . S
C786 C788 1.415 . S
C787 C786 1.355 . S
C787 C789 1.419 . S
C788 C786 1.415 . S
C788 C793 1.425 . S
C788 C795 1.409 . S
C789 H781 0.930 . S
C789 C787 1.419 . S
C789 C790 1.362 . S
C790 H782 0.930 . S
C790 C789 1.362 . S
C790 C793 1.409 . S
C791 H783 0.930 . S
C791 C792 1.355 . S
C791 C793 1.415 . S
C792 C791 1.355 . S
C792 C794 1.419 . S
C793 C788 1.425 . S
C793 C790 1.409 . S
C793 C791 1.415 . S
C794 H784 0.930 . S
C794 C792 1.419 . S
C794 C795 1.362 . S
C795 H785 0.930 . S
C795 C788 1.409 . S
C795 C794 1.362 . S
H796 C802 0.930 . S
H797 C805 0.930 . S
H798 C806 0.930 . S
H799 C807 0.930 . S
H800 C810 0.930 . S
H801 C811 0.930 . S
C802 H796 0.930 . S
C802 C803 1.355 . S
C802 C804 1.415 . S
C803 C802 1.355 . S
C803 C805 1.419 . S
C804 C802 1.415 . S
C804 C809 1.425 . S
C804 C811 1.409 . S
C805 H797 0.930 . S
C805 C803 1.419 . S
C805 C806 1.362 . S
C806 H798 0.930 . S
C806 C805 1.362 . S
C806 C809 1.409 . S
C807 H799 0.930 . S
C807 C808 1.355 . S
C807 C809 1.415 . S
C808 C807 1.355 . S
C808 C810 1.419 . S
C809 C804 1.425 . S
C809 C806 1.409 . S
C809 C807 1.415 . S
C810 H800 0.930 . S
C810 C808 1.419 . S
C810 C811 1.362 . S
C811 H801 0.930 . S
C811 C804 1.409 . S
C811 C810 1.362 . S
H812 C818 0.930 . S
H813 C821 0.930 . S
H814 C822 0.930 . S
H815 C823 0.930 . S
H816 C826 0.930 . S
H817 C827 0.930 1_554 S
C818 H812 0.930 . S
C818 C819 1.355 . S
C818 C820 1.415 . S
C819 C818 1.355 . S
C819 C821 1.419 . S
C820 C818 1.415 . S
C820 C825 1.425 . S
C820 C827 1.409 . S
C821 H813 0.930 . S
C821 C819 1.419 . S
C821 C822 1.362 . S
C822 H814 0.930 . S
C822 C821 1.362 . S
C822 C825 1.409 . S
C823 H815 0.930 . S
C823 C824 1.355 . S
C823 C825 1.415 . S
C824 C823 1.355 . S
C824 C826 1.419 . S
C825 C820 1.425 . S
C825 C822 1.409 . S
C825 C823 1.415 . S
C826 H816 0.930 . S
C826 C824 1.419 . S
C826 C827 1.362 . S
C827 H817 0.930 1_556 S
C827 C820 1.409 . S
C827 C826 1.362 . S
H828 C834 0.930 . S
H829 C837 0.930 . S
H830 C838 0.930 . S
H831 C839 0.930 . S
H832 C842 0.930 . S
H833 C843 0.930 . S
C834 H828 0.930 . S
C834 C835 1.355 . S
C834 C836 1.415 . S
C835 C834 1.355 . S
C835 C837 1.419 . S
C836 C834 1.415 . S
C836 C841 1.425 . S
C836 C843 1.409 . S
C837 H829 0.930 . S
C837 C835 1.419 . S
C837 C838 1.362 . S
C838 H830 0.930 . S
C838 C837 1.362 . S
C838 C841 1.409 . S
C839 H831 0.930 . S
C839 C840 1.355 . S
C839 C841 1.415 . S
C840 C839 1.355 . S
C840 C842 1.419 . S
C841 C836 1.425 . S
C841 C838 1.409 . S
C841 C839 1.415 . S
C842 H832 0.930 . S
C842 C840 1.419 . S
C842 C843 1.362 . S
C843 H833 0.930 . S
C843 C836 1.409 . S
C843 C842 1.362 . S
H844 C850 0.930 . S
H845 C853 0.930 . S
H846 C854 0.930 . S
H847 C855 0.930 . S
H848 C858 0.930 . S
H849 C859 0.930 . S
C850 H844 0.930 . S
C850 C851 1.355 . S
C850 C852 1.415 . S
C851 C850 1.355 . S
C851 C853 1.419 . S
C852 C850 1.415 . S
C852 C857 1.425 . S
C852 C859 1.409 . S
C853 H845 0.930 . S
C853 C851 1.419 . S
C853 C854 1.362 . S
C854 H846 0.930 . S
C854 C853 1.362 . S
C854 C857 1.409 . S
C855 H847 0.930 . S
C855 C856 1.355 . S
C855 C857 1.415 . S
C856 C855 1.355 . S
C856 C858 1.419 . S
C857 C852 1.425 . S
C857 C854 1.409 . S
C857 C855 1.415 . S
C858 H848 0.930 . S
C858 C856 1.419 . S
C858 C859 1.362 . S
C859 H849 0.930 . S
C859 C852 1.409 . S
C859 C858 1.362 . S
H860 C866 0.930 . S
H861 C869 0.930 . S
H862 C870 0.930 . S
H863 C871 0.930 . S
H864 C874 0.930 . S
H865 C875 0.930 . S
C866 H860 0.930 . S
C866 C867 1.355 . S
C866 C868 1.415 . S
C867 C866 1.355 . S
C867 C869 1.419 . S
C868 C866 1.415 . S
C868 C873 1.425 . S
C868 C875 1.409 . S
C869 H861 0.930 . S
C869 C867 1.419 . S
C869 C870 1.362 . S
C870 H862 0.930 . S
C870 C869 1.362 . S
C870 C873 1.409 . S
C871 H863 0.930 . S
C871 C872 1.355 . S
C871 C873 1.415 . S
C872 C871 1.355 . S
C872 C874 1.419 . S
C873 C868 1.425 . S
C873 C870 1.409 . S
C873 C871 1.415 . S
C874 H864 0.930 . S
C874 C872 1.419 . S
C874 C875 1.362 . S
C875 H865 0.930 . S
C875 C868 1.409 . S
C875 C874 1.362 . S
C403 C172 1.025 . S
C408 C7 1.025 . S
C419 C40 1.061 . S
C424 C106 1.078 . S
C435 C73 1.075 . S
C440 C139 1.056 . S
C451 C205 1.047 . S
C456 C370 1.029 . S
C467 C304 1.072 . S
C472 C238 1.052 . S
C483 C337 1.057 . S
C488 C271 1.036 . S
C499 C21 2.309 . S
C504 C219 2.309 . S
C515 C54 2.251 . S
C520 C252 2.251 . S
C531 C285 2.281 . S
C536 C87 2.281 . S
C547 C318 2.304 . S
C552 C120 2.304 . S
C563 C153 2.259 . S
C568 C351 2.259 . S
C579 C186 2.336 . S
C584 C384 2.336 . S
C595 N145 1.502 . S
C600 N13 1.585 . S
C611 N178 1.566 . S
C616 N46 1.615 . S
C627 N112 1.550 . S
C632 N79 1.514 . S
C643 N211 1.562 . S
C648 N343 1.508 . S
C659 N244 1.526 . S
C664 N376 1.619 . S
C675 N310 1.545 . S
C680 N277 1.621 . S
C691 C18 0.929 . S
C696 N68 0.916 . S
C707 C51 0.949 . S
C712 N2 0.889 . S
C723 N35 0.979 . S
C728 C84 0.895 . S
C739 C117 0.920 . S
C744 N134 0.941 . S
C755 N167 0.827 . S
C760 C150 0.977 . S
C771 N101 0.838 . S
C776 C183 0.970 . S
C787 N266 0.883 . S
C792 C216 0.946 . S
C803 C249 0.970 . S
C808 N200 0.838 . S
C819 N233 0.874 . S
C824 C282 0.957 . S
C835 N332 0.873 . S
C840 C315 0.951 . S
C851 N365 0.975 . S
C856 C348 0.896 . S
C867 C381 0.963 . S
C872 N299 0.851 . S
