# Generated by pormake.
# Topology yfk, (5)-cn, num edge types: 1
# Building blocks:
#     Node 0, Type 0, BuildingBlock: XOMCOT_clean_sbu_1, # of connection points: 5
#     Node 1, Type 0, BuildingBlock: XOMCOT_clean_sbu_1, # of connection points: 5
#     Node 2, Type 0, BuildingBlock: XOMCOT_clean_sbu_1, # of connection points: 5
#     Node 3, Type 0, BuildingBlock: XOMCOT_clean_sbu_1, # of connection points: 5
#     Node 4, Type 0, BuildingBlock: XOMCOT_clean_sbu_1, # of connection points: 5
#     Node 5, Type 0, BuildingBlock: XOMCOT_clean_sbu_1, # of connection points: 5
#     Node 6, Type 0, BuildingBlock: XOMCOT_clean_sbu_1, # of connection points: 5
#     Node 7, Type 0, BuildingBlock: XOMCOT_clean_sbu_1, # of connection points: 5
#     Node 8, Type 0, BuildingBlock: XOMCOT_clean_sbu_1, # of connection points: 5
#     Node 9, Type 0, BuildingBlock: XOMCOT_clean_sbu_1, # of connection points: 5
#     Node 10, Type 0, BuildingBlock: XOMCOT_clean_sbu_1, # of connection points: 5
#     Node 11, Type 0, BuildingBlock: XOMCOT_clean_sbu_1, # of connection points: 5
#     Node 12, Type 0, BuildingBlock: XOMCOT_clean_sbu_1, # of connection points: 5
#     Node 13, Type 0, BuildingBlock: XOMCOT_clean_sbu_1, # of connection points: 5
#     Node 14, Type 0, BuildingBlock: XOMCOT_clean_sbu_1, # of connection points: 5
#     Node 15, Type 0, BuildingBlock: XOMCOT_clean_sbu_1, # of connection points: 5
#     Edge 16, Type (0, 0), BuildingBlock: UVAHIK_clean_linker_0, # of connection points: 2
#     Edge 17, Type (0, 0), BuildingBlock: UVAHIK_clean_linker_0, # of connection points: 2
#     Edge 18, Type (0, 0), BuildingBlock: UVAHIK_clean_linker_0, # of connection points: 2
#     Edge 19, Type (0, 0), BuildingBlock: UVAHIK_clean_linker_0, # of connection points: 2
#     Edge 20, Type (0, 0), BuildingBlock: UVAHIK_clean_linker_0, # of connection points: 2
#     Edge 21, Type (0, 0), BuildingBlock: UVAHIK_clean_linker_0, # of connection points: 2
#     Edge 22, Type (0, 0), BuildingBlock: UVAHIK_clean_linker_0, # of connection points: 2
#     Edge 23, Type (0, 0), BuildingBlock: UVAHIK_clean_linker_0, # of connection points: 2
#     Edge 24, Type (0, 0), BuildingBlock: UVAHIK_clean_linker_0, # of connection points: 2
#     Edge 25, Type (0, 0), BuildingBlock: UVAHIK_clean_linker_0, # of connection points: 2
#     Edge 26, Type (0, 0), BuildingBlock: UVAHIK_clean_linker_0, # of connection points: 2
#     Edge 27, Type (0, 0), BuildingBlock: UVAHIK_clean_linker_0, # of connection points: 2
#     Edge 28, Type (0, 0), BuildingBlock: UVAHIK_clean_linker_0, # of connection points: 2
#     Edge 29, Type (0, 0), BuildingBlock: UVAHIK_clean_linker_0, # of connection points: 2
#     Edge 30, Type (0, 0), BuildingBlock: UVAHIK_clean_linker_0, # of connection points: 2
#     Edge 31, Type (0, 0), BuildingBlock: UVAHIK_clean_linker_0, # of connection points: 2
#     Edge 32, Type (0, 0), BuildingBlock: UVAHIK_clean_linker_0, # of connection points: 2
#     Edge 33, Type (0, 0), BuildingBlock: UVAHIK_clean_linker_0, # of connection points: 2
#     Edge 34, Type (0, 0), BuildingBlock: UVAHIK_clean_linker_0, # of connection points: 2
#     Edge 35, Type (0, 0), BuildingBlock: UVAHIK_clean_linker_0, # of connection points: 2
#     Edge 36, Type (0, 0), BuildingBlock: UVAHIK_clean_linker_0, # of connection points: 2
#     Edge 37, Type (0, 0), BuildingBlock: UVAHIK_clean_linker_0, # of connection points: 2
#     Edge 38, Type (0, 0), BuildingBlock: UVAHIK_clean_linker_0, # of connection points: 2
#     Edge 39, Type (0, 0), BuildingBlock: UVAHIK_clean_linker_0, # of connection points: 2
#     Edge 40, Type (0, 0), BuildingBlock: UVAHIK_clean_linker_0, # of connection points: 2
#     Edge 41, Type (0, 0), BuildingBlock: UVAHIK_clean_linker_0, # of connection points: 2
#     Edge 42, Type (0, 0), BuildingBlock: UVAHIK_clean_linker_0, # of connection points: 2
#     Edge 43, Type (0, 0), BuildingBlock: UVAHIK_clean_linker_0, # of connection points: 2
#     Edge 44, Type (0, 0), BuildingBlock: UVAHIK_clean_linker_0, # of connection points: 2
#     Edge 45, Type (0, 0), BuildingBlock: UVAHIK_clean_linker_0, # of connection points: 2
#     Edge 46, Type (0, 0), BuildingBlock: UVAHIK_clean_linker_0, # of connection points: 2
#     Edge 47, Type (0, 0), BuildingBlock: UVAHIK_clean_linker_0, # of connection points: 2
#     Edge 48, Type (0, 0), BuildingBlock: UVAHIK_clean_linker_0, # of connection points: 2
#     Edge 49, Type (0, 0), BuildingBlock: UVAHIK_clean_linker_0, # of connection points: 2
#     Edge 50, Type (0, 0), BuildingBlock: UVAHIK_clean_linker_0, # of connection points: 2
#     Edge 51, Type (0, 0), BuildingBlock: UVAHIK_clean_linker_0, # of connection points: 2
#     Edge 52, Type (0, 0), BuildingBlock: UVAHIK_clean_linker_0, # of connection points: 2
#     Edge 53, Type (0, 0), BuildingBlock: UVAHIK_clean_linker_0, # of connection points: 2
#     Edge 54, Type (0, 0), BuildingBlock: UVAHIK_clean_linker_0, # of connection points: 2
#     Edge 55, Type (0, 0), BuildingBlock: UVAHIK_clean_linker_0, # of connection points: 2
# Relax obj value: 0.578
# Max RMSD: 0.282
# Mean RMSD: 0.282
data_MOF--net-yfk--node1-XOMCOT_clean_sbu_1--edge1-UVAHIK_clean_linker_0
_symmetry_space_group_name_H-M    P1
_symmetry_Int_Tables_number       1
_symmetry_cell_setting            triclinic
loop_
_symmetry_equiv_pos_as_xyz
'x, y, z'
_cell_length_a     63.158796
_cell_length_b     63.27997
_cell_length_c     33.364991
_cell_angle_alpha  90.019692
_cell_angle_beta   89.989176
_cell_angle_gamma 90.04751
loop_
_atom_site_label
_atom_site_type_symbol
_atom_site_fract_x
_atom_site_fract_y
_atom_site_fract_z
_atom_type_partial_charge
C0 C 0.11733 0.12691 0.36728 0.0
C1 C 0.12218 0.11795 0.40348 0.0
N2 N 0.12882 0.09803 0.39694 0.0
N3 N 0.12045 0.11263 0.33788 0.0
C4 C 0.12744 0.09513 0.35685 0.0
H5 H 0.11341 0.14335 0.36247 0.0
Co6 Co 0.12226 0.11988 0.28414 0.0
C7 C 0.09003 0.09276 0.24479 0.0
O8 O 0.08392 0.10974 0.22526 0.0
N9 N 0.12594 0.12842 0.23073 0.0
C10 C 0.13054 0.13361 0.16517 0.0
C11 C 0.1245 0.11923 0.19422 0.0
C12 C 0.1345 0.14751 0.22308 0.0
N13 N 0.13687 0.15142 0.18373 0.0
O14 O 0.14865 0.10484 0.28112 0.0
H15 H 0.11975 0.10308 0.18876 0.0
H16 H 0.13913 0.15844 0.24631 0.0
O17 O 0.10613 0.09392 0.26828 0.0
C18 C 0.16498 0.11586 0.28934 0.0
O19 O 0.16264 0.13623 0.29544 0.0
N20 N 0.0964 0.13555 0.28948 0.0
C21 C 0.06019 0.15868 0.30968 0.0
C22 C 0.06085 0.13679 0.31518 0.0
C23 C 0.07918 0.12569 0.30602 0.0
C24 C 0.09602 0.15701 0.28443 0.0
C25 C 0.07803 0.16885 0.29406 0.0
H26 H 0.07983 0.10924 0.3145 0.0
H27 H 0.10996 0.16552 0.27579 0.0
H28 H 0.13285 0.08115 0.34125 0.0
H29 H 0.12258 0.12614 0.43195 0.0
H30 H 0.13052 0.13107 0.13309 0.0
H31 H 0.04782 0.12846 0.32923 0.0
H32 H 0.07841 0.18589 0.29094 0.0
C33 C 0.12633 0.90193 0.6287 0.0
C34 C 0.11804 0.89651 0.59215 0.0
N35 N 0.09826 0.88909 0.59785 0.0
N36 N 0.11177 0.89833 0.65746 0.0
C37 C 0.09477 0.89064 0.63775 0.0
H38 H 0.14258 0.90646 0.63422 0.0
Co39 Co 0.11816 0.89654 0.71166 0.0
C40 C 0.0886 0.92741 0.74978 0.0
O41 O 0.10457 0.93446 0.7712 0.0
N42 N 0.12592 0.89297 0.76573 0.0
C43 C 0.13105 0.89029 0.83174 0.0
C44 C 0.11655 0.89502 0.80202 0.0
C45 C 0.14517 0.88499 0.77438 0.0
N46 N 0.14903 0.88388 0.8139 0.0
O47 O 0.10374 0.86978 0.71346 0.0
H48 H 0.10029 0.89959 0.80702 0.0
H49 H 0.1565 0.88022 0.75189 0.0
O50 O 0.09146 0.9119 0.72549 0.0
C51 C 0.1154 0.85396 0.70499 0.0
O52 O 0.13579 0.85709 0.69996 0.0
N53 N 0.13335 0.92262 0.70765 0.0
C54 C 0.15678 0.95858 0.68717 0.0
C55 C 0.13479 0.95817 0.68236 0.0
C56 C 0.12351 0.93996 0.69169 0.0
C57 C 0.15486 0.92286 0.71243 0.0
C58 C 0.16685 0.94071 0.70275 0.0
H59 H 0.10706 0.93939 0.68313 0.0
H60 H 0.16331 0.90881 0.72043 0.0
H61 H 0.08078 0.88479 0.65281 0.0
H62 H 0.12667 0.89623 0.56414 0.0
H63 H 0.12863 0.89151 0.86378 0.0
H64 H 0.12651 0.97121 0.66835 0.0
H65 H 0.18393 0.94015 0.70542 0.0
C66 C 0.90509 0.88736 0.35981 0.0
C67 C 0.89971 0.89608 0.39597 0.0
N68 N 0.89401 0.91631 0.38978 0.0
N69 N 0.90325 0.9021 0.33084 0.0
C70 C 0.89645 0.91962 0.34999 0.0
H71 H 0.90856 0.87086 0.35459 0.0
Co72 Co 0.90284 0.89547 0.27665 0.0
C73 C 0.93709 0.92202 0.2421 0.0
O74 O 0.94357 0.90495 0.22328 0.0
N75 N 0.90054 0.88753 0.22254 0.0
C76 C 0.89956 0.8823 0.15642 0.0
C77 C 0.90431 0.89658 0.18648 0.0
C78 C 0.89172 0.86875 0.21324 0.0
N79 N 0.89155 0.86483 0.17368 0.0
O80 O 0.877 0.91126 0.27167 0.0
H81 H 0.91012 0.91246 0.18193 0.0
H82 H 0.88578 0.85779 0.23536 0.0
O83 O 0.92014 0.92118 0.26344 0.0
C84 C 0.86023 0.90061 0.27836 0.0
O85 O 0.86191 0.8801 0.28345 0.0
N86 N 0.92806 0.87902 0.28405 0.0
C87 C 0.9632 0.85486 0.30639 0.0
C88 C 0.96279 0.87665 0.31321 0.0
C89 C 0.94495 0.88824 0.303 0.0
C90 C 0.92814 0.85764 0.27785 0.0
C91 C 0.9456 0.84527 0.28861 0.0
H92 H 0.94438 0.90458 0.3123 0.0
H93 H 0.91431 0.84959 0.26721 0.0
H94 H 0.89198 0.93399 0.33463 0.0
H95 H 0.89835 0.8876 0.42403 0.0
H96 H 0.90185 0.88452 0.12455 0.0
H97 H 0.97559 0.88449 0.32892 0.0
H98 H 0.94501 0.8283 0.28452 0.0
C99 C 0.89075 0.11379 0.62423 0.0
C100 C 0.89948 0.11912 0.58802 0.0
N101 N 0.91917 0.12657 0.59454 0.0
N102 N 0.90495 0.11747 0.65359 0.0
C103 C 0.92217 0.12518 0.63459 0.0
H104 H 0.87447 0.10916 0.62908 0.0
Co105 Co 0.89791 0.11894 0.70748 0.0
C106 C 0.9276 0.08841 0.7463 0.0
O107 O 0.91155 0.08087 0.7669 0.0
N108 N 0.88942 0.12214 0.7612 0.0
C109 C 0.8832 0.12424 0.82695 0.0
C110 C 0.89824 0.11993 0.79794 0.0
C111 C 0.86992 0.12978 0.76897 0.0
N112 N 0.86543 0.13053 0.80829 0.0
O113 O 0.91193 0.14591 0.71029 0.0
H114 H 0.91447 0.11551 0.80372 0.0
H115 H 0.85886 0.13447 0.74596 0.0
O116 O 0.92469 0.10401 0.72225 0.0
C117 C 0.90039 0.16184 0.70205 0.0
O118 O 0.88002 0.15887 0.69641 0.0
N119 N 0.88325 0.09257 0.70243 0.0
C120 C 0.86094 0.05615 0.68046 0.0
C121 C 0.88296 0.05712 0.67649 0.0
C122 C 0.89368 0.07556 0.68653 0.0
C123 C 0.8617 0.0918 0.70641 0.0
C124 C 0.85027 0.07369 0.69592 0.0
H125 H 0.9102 0.07656 0.67859 0.0
H126 H 0.85284 0.10559 0.71447 0.0
H127 H 0.93598 0.13106 0.65019 0.0
H128 H 0.89124 0.11923 0.55958 0.0
H129 H 0.88512 0.12278 0.85907 0.0
H130 H 0.89172 0.04434 0.66261 0.0
H131 H 0.83315 0.07383 0.69792 0.0
C132 C 0.12054 0.39537 0.87739 0.0
C133 C 0.12638 0.40588 0.8433 0.0
N134 N 0.12993 0.42632 0.8527 0.0
N135 N 0.12007 0.40906 0.90827 0.0
C136 C 0.12577 0.42782 0.89241 0.0
H137 H 0.11842 0.37847 0.88011 0.0
Co138 Co 0.11949 0.40035 0.96104 0.0
C139 C 0.08475 0.42557 -0.00265 0.0
O140 O 0.07809 0.40794 0.01397 0.0
N141 N 0.12062 0.39038 0.01413 0.0
C142 C 0.12097 0.38301 0.07966 0.0
C143 C 0.11735 0.39853 0.05116 0.0
C144 C 0.12783 0.37074 0.02141 0.0
N145 N 0.12725 0.36545 0.06033 0.0
O146 O 0.14517 0.41599 0.96984 0.0
H147 H 0.11259 0.41461 0.05731 0.0
H148 H 0.13418 0.36045 -0.00137 0.0
O149 O 0.10188 0.42539 0.97652 0.0
C150 C 0.16204 0.40531 0.96433 0.0
O151 O 0.16042 0.38481 0.95912 0.0
N152 N 0.09467 0.38405 0.94923 0.0
C153 C 0.06106 0.35997 0.91912 0.0
C154 C 0.06045 0.38205 0.9178 0.0
C155 C 0.07761 0.3937 0.93176 0.0
C156 C 0.09563 0.36245 0.94959 0.0
C157 C 0.0789 0.35013 0.93532 0.0
H158 H 0.07762 0.41048 0.92603 0.0
H159 H 0.10992 0.35439 0.95741 0.0
H160 H 0.12823 0.44185 0.91031 0.0
H161 H 0.12948 0.39854 0.81462 0.0
H162 H 0.11865 0.38436 0.1117 0.0
H163 H 0.04752 0.39028 0.90327 0.0
H164 H 0.08039 0.33308 0.93503 0.0
C165 C 0.39759 0.88942 0.10232 0.0
C166 C 0.40937 0.88427 0.13527 0.0
N167 N 0.42985 0.88299 0.12421 0.0
N168 N 0.41049 0.89178 0.07047 0.0
C169 C 0.4301 0.88777 0.08469 0.0
H170 H 0.38051 0.88952 0.10123 0.0
Co171 Co 0.40116 0.89269 0.018 0.0
C172 C 0.42777 0.92441 0.97491 0.0
O173 O 0.41152 0.92819 0.95142 0.0
N174 N 0.39081 0.89232 0.96459 0.0
C175 C 0.38556 0.88281 0.90081 0.0
C176 C 0.39996 0.88343 0.932 0.0
C177 C 0.37107 0.89717 0.95199 0.0
N178 N 0.36742 0.89161 0.91371 0.0
O179 O 0.41685 0.86723 0.00846 0.0
H180 H 0.41576 0.87684 0.93147 0.0
H181 H 0.35875 0.90331 0.97078 0.0
O182 O 0.42606 0.91032 0.00242 0.0
C183 C 0.406 0.85026 0.01013 0.0
O184 O 0.38525 0.85169 0.00998 0.0
N185 N 0.3848 0.91674 0.0312 0.0
C186 C 0.35963 0.94703 0.06912 0.0
C187 C 0.38049 0.9517 0.05782 0.0
C188 C 0.39295 0.93623 0.0398 0.0
C189 C 0.36449 0.91201 0.042 0.0
C190 C 0.3515 0.92699 0.06029 0.0
H191 H 0.40952 0.93966 0.03642 0.0
H192 H 0.35867 0.89604 0.03829 0.0
H193 H 0.44397 0.88692 0.06575 0.0
H194 H 0.40302 0.87996 0.16426 0.0
H195 H 0.38798 0.87578 0.87159 0.0
H196 H 0.3878 0.96659 0.06596 0.0
H197 H 0.33563 0.92255 0.06931 0.0
C198 C 0.89165 0.62301 0.87588 0.0
C199 C 0.88698 0.6125 0.84124 0.0
N200 N 0.88459 0.59185 0.84985 0.0
N201 N 0.89269 0.60913 0.90648 0.0
C202 C 0.8882 0.5902 0.88971 0.0
H203 H 0.89241 0.63997 0.8787 0.0
Co204 Co 0.89336 0.61709 0.96002 0.0
C205 C 0.92586 0.59071 0.00045 0.0
O206 O 0.92971 0.60699 0.02375 0.0
N207 N 0.89276 0.626 0.01448 0.0
C208 C 0.88255 0.62985 0.07828 0.0
C209 C 0.88306 0.61634 0.0457 0.0
C210 C 0.89842 0.64504 0.02947 0.0
N211 N 0.89239 0.64785 0.06774 0.0
O212 O 0.86798 0.60092 0.96782 0.0
H213 H 0.87577 0.60089 0.04434 0.0
H214 H 0.90562 0.6575 0.01252 0.0
O215 O 0.91124 0.59211 0.97379 0.0
C216 C 0.85092 0.61165 0.96672 0.0
O217 O 0.85225 0.63236 0.96815 0.0
N218 N 0.91736 0.63403 0.94852 0.0
C219 C 0.94731 0.66019 0.912 0.0
C220 C 0.95204 0.63907 0.92069 0.0
C221 C 0.9367 0.62612 0.93786 0.0
C222 C 0.91263 0.65466 0.94042 0.0
C223 C 0.92743 0.6681 0.92271 0.0
H224 H 0.93998 0.60946 0.93869 0.0
H225 H 0.8967 0.66037 0.94552 0.0
H226 H 0.88629 0.57581 0.90685 0.0
H227 H 0.88375 0.61983 0.81259 0.0
H228 H 0.87485 0.627 0.10675 0.0
H229 H 0.9668 0.63203 0.9109 0.0
H230 H 0.92295 0.68417 0.91542 0.0
C231 C 0.62327 0.12183 0.09801 0.0
C232 C 0.61285 0.12708 0.13248 0.0
N233 N 0.59221 0.12978 0.12383 0.0
N234 N 0.60933 0.12076 0.06747 0.0
C235 C 0.59046 0.12572 0.08413 0.0
H236 H 0.64024 0.12075 0.09518 0.0
Co237 Co 0.617 0.11982 0.01375 0.0
C238 C 0.59027 0.08718 0.97436 0.0
O239 O 0.60642 0.08329 0.95067 0.0
N240 N 0.62558 0.12016 0.95899 0.0
C241 C 0.62897 0.13037 0.89511 0.0
C242 C 0.61566 0.12979 0.928 0.0
C243 C 0.64455 0.11455 0.94347 0.0
N244 N 0.64712 0.12064 0.90517 0.0
O245 O 0.60074 0.14509 0.00583 0.0
H246 H 0.60019 0.13703 0.92975 0.0
H247 H 0.65715 0.10734 0.96004 0.0
O248 O 0.59196 0.10173 0.00105 0.0
C249 C 0.61176 0.16197 0.00673 0.0
O250 O 0.63248 0.16034 0.00513 0.0
N251 N 0.63414 0.09613 0.0253 0.0
C252 C 0.66095 0.06743 0.06359 0.0
C253 C 0.63975 0.06223 0.05568 0.0
C254 C 0.62652 0.07692 0.03725 0.0
C255 C 0.6548 0.10127 0.03241 0.0
C256 C 0.6686 0.08702 0.05058 0.0
H257 H 0.60986 0.07337 0.03654 0.0
H258 H 0.66028 0.11714 0.0262 0.0
H259 H 0.57609 0.12771 0.0669 0.0
H260 H 0.62033 0.13053 0.16092 0.0
H261 H 0.6259 0.13809 0.86677 0.0
H262 H 0.63286 0.04771 0.06689 0.0
H263 H 0.68474 0.09185 0.05659 0.0
C264 C 0.61682 0.62351 0.84889 0.0
C265 C 0.6225 0.61341 0.88354 0.0
N266 N 0.62728 0.59317 0.87468 0.0
N267 N 0.61767 0.60971 0.8182 0.0
C268 C 0.62396 0.59132 0.83476 0.0
H269 H 0.61398 0.64028 0.84577 0.0
Co270 Co 0.61811 0.61798 0.7651 0.0
C271 C 0.58469 0.59182 0.72671 0.0
O272 O 0.57805 0.60929 0.70951 0.0
N273 N 0.62034 0.62747 0.71176 0.0
C274 C 0.62162 0.63375 0.64595 0.0
C275 C 0.6174 0.61879 0.67507 0.0
C276 C 0.62825 0.6468 0.70375 0.0
N277 N 0.62855 0.65132 0.66443 0.0
O278 O 0.64427 0.60283 0.75875 0.0
H279 H 0.61256 0.60269 0.66944 0.0
H280 H 0.63377 0.65761 0.72649 0.0
O281 O 0.60123 0.59246 0.74916 0.0
C282 C 0.66068 0.61395 0.76597 0.0
O283 O 0.65833 0.63433 0.77186 0.0
N284 N 0.59278 0.63385 0.7743 0.0
C285 C 0.55847 0.65748 0.80259 0.0
C286 C 0.55824 0.63541 0.80449 0.0
C287 C 0.5757 0.624 0.79137 0.0
C288 C 0.59322 0.65544 0.77258 0.0
C289 C 0.57617 0.66755 0.7862 0.0
H290 H 0.57596 0.60726 0.7976 0.0
H291 H 0.60732 0.6637 0.76401 0.0
H292 H 0.62753 0.5774 0.81723 0.0
H293 H 0.62472 0.621 0.91229 0.0
H294 H 0.61976 0.63189 0.6139 0.0
H295 H 0.54537 0.62705 0.81899 0.0
H296 H 0.57728 0.68463 0.78583 0.0
C297 C 0.62378 0.39389 0.12207 0.0
C298 C 0.61279 0.38865 0.08818 0.0
N299 N 0.59233 0.38565 0.09811 0.0
N300 N 0.61037 0.39459 0.15348 0.0
C301 C 0.59127 0.38955 0.13795 0.0
H302 H 0.64078 0.39514 0.12392 0.0
Co303 Co 0.61877 0.39477 0.2067 0.0
C304 C 0.59104 0.42543 0.24984 0.0
O305 O 0.60674 0.42889 0.27481 0.0
N306 N 0.62813 0.39368 0.26081 0.0
C307 C 0.63266 0.38267 0.32393 0.0
C308 C 0.61881 0.38351 0.29187 0.0
C309 C 0.64735 0.39918 0.27535 0.0
N310 N 0.65056 0.39268 0.31323 0.0
O311 O 0.60323 0.36896 0.21381 0.0
H312 H 0.60337 0.37615 0.29068 0.0
H313 H 0.65967 0.40652 0.25821 0.0
O314 O 0.59343 0.41184 0.22158 0.0
C315 C 0.61436 0.35221 0.21131 0.0
O316 O 0.63509 0.35402 0.21166 0.0
N317 N 0.63509 0.4192 0.19604 0.0
C318 C 0.66079 0.4505 0.16249 0.0
C319 C 0.63957 0.45465 0.17204 0.0
C320 C 0.62689 0.43871 0.18792 0.0
C321 C 0.65572 0.41494 0.18681 0.0
C322 C 0.66896 0.43043 0.17081 0.0
H323 H 0.6102 0.44183 0.19007 0.0
H324 H 0.66167 0.39901 0.19019 0.0
H325 H 0.57727 0.3873 0.15614 0.0
H326 H 0.61981 0.38541 0.05925 0.0
H327 H 0.63009 0.37462 0.35214 0.0
H328 H 0.63225 0.46956 0.16416 0.0
H329 H 0.68512 0.42639 0.16313 0.0
C330 C 0.39485 0.39282 0.85124 0.0
C331 C 0.39004 0.40292 0.88627 0.0
N332 N 0.38585 0.42331 0.87798 0.0
N333 N 0.39414 0.40673 0.82064 0.0
C334 C 0.38861 0.42525 0.83793 0.0
H335 H 0.39683 0.37598 0.84836 0.0
Co336 Co 0.39386 0.39935 0.76664 0.0
C337 C 0.42487 0.42706 0.7247 0.0
O338 O 0.42796 0.41163 0.69905 0.0
N339 N 0.39234 0.39108 0.7118 0.0
C340 C 0.38051 0.38731 0.649 0.0
C341 C 0.38111 0.40042 0.68211 0.0
C342 C 0.3989 0.37272 0.69518 0.0
N343 N 0.39186 0.36992 0.65753 0.0
O344 O 0.3683 0.41546 0.76103 0.0
H345 H 0.37285 0.4153 0.68492 0.0
H346 H 0.40761 0.36067 0.71058 0.0
O347 O 0.41136 0.42459 0.7531 0.0
C348 C 0.35133 0.40461 0.76337 0.0
O349 O 0.35278 0.3839 0.76251 0.0
N350 N 0.41806 0.38243 0.77569 0.0
C351 C 0.44856 0.35596 0.8095 0.0
C352 C 0.45322 0.37715 0.80093 0.0
C353 C 0.43765 0.39022 0.78491 0.0
C354 C 0.41345 0.3617 0.78317 0.0
C355 C 0.42853 0.3481 0.7995 0.0
H356 H 0.44104 0.40686 0.78378 0.0
H357 H 0.39747 0.356 0.77858 0.0
H358 H 0.38529 0.43945 0.82103 0.0
H359 H 0.38788 0.39531 0.91502 0.0
H360 H 0.37171 0.38992 0.62161 0.0
H361 H 0.46814 0.38414 0.80994 0.0
H362 H 0.42416 0.33195 0.80636 0.0
C363 C 0.39138 0.61521 0.12714 0.0
C364 C 0.40072 0.62038 0.09145 0.0
N365 N 0.42101 0.62576 0.09859 0.0
N366 N 0.40575 0.61689 0.15685 0.0
C367 C 0.4237 0.62335 0.13858 0.0
H368 H 0.37472 0.61205 0.13147 0.0
Co369 Co 0.39832 0.6175 0.21061 0.0
C370 C 0.42475 0.58372 0.24753 0.0
O371 O 0.40741 0.57713 0.2654 0.0
N372 N 0.38959 0.61988 0.26454 0.0
C373 C 0.38353 0.62004 0.33046 0.0
C374 C 0.39838 0.61623 0.30089 0.0
C375 C 0.37038 0.62791 0.27338 0.0
N376 N 0.36592 0.62744 0.31274 0.0
O377 O 0.41401 0.64339 0.21606 0.0
H378 H 0.41441 0.61093 0.30598 0.0
H379 H 0.35949 0.63382 0.25114 0.0
O380 O 0.42392 0.60028 0.22519 0.0
C381 C 0.40294 0.65984 0.20918 0.0
O382 O 0.38245 0.65759 0.20396 0.0
N383 N 0.38181 0.59248 0.20245 0.0
C384 C 0.35677 0.55916 0.17424 0.0
C385 C 0.37886 0.55814 0.17205 0.0
C386 C 0.39099 0.57512 0.18516 0.0
C387 C 0.36021 0.59359 0.20474 0.0
C388 C 0.34742 0.57705 0.19121 0.0
H389 H 0.4077 0.57487 0.1784 0.0
H390 H 0.35246 0.60794 0.21331 0.0
H391 H 0.43794 0.62759 0.15471 0.0
H392 H 0.3926 0.62184 0.06303 0.0
H393 H 0.38541 0.61735 0.3623 0.0
H394 H 0.38668 0.54509 0.15712 0.0
H395 H 0.33036 0.57878 0.19182 0.0
C396 C 0.63812 0.89914 0.38519 0.0
C397 C 0.64618 0.9107 0.35405 0.0
N398 N 0.64594 0.93117 0.36474 0.0
N399 N 0.63265 0.91228 0.41532 0.0
C400 C 0.6374 0.93182 0.40177 0.0
H401 H 0.63852 0.88213 0.38714 0.0
Co402 Co 0.62966 0.90318 0.46753 0.0
C403 C 0.59615 0.9292 0.50649 0.0
O404 O 0.59164 0.91278 0.52898 0.0
N405 N 0.62805 0.89302 0.52089 0.0
C406 C 0.63528 0.88781 0.58573 0.0
C407 C 0.63618 0.90203 0.55433 0.0
C408 C 0.62202 0.87358 0.53319 0.0
N409 N 0.62622 0.86998 0.57209 0.0
O410 O 0.65448 0.91928 0.48036 0.0
H411 H 0.64328 0.91758 0.55545 0.0
H412 H 0.6159 0.86145 0.51392 0.0
O413 O 0.61113 0.9278 0.48055 0.0
C414 C 0.67163 0.90869 0.47967 0.0
O415 O 0.67039 0.88796 0.47966 0.0
N416 N 0.60642 0.88648 0.45107 0.0
C417 C 0.57795 0.86079 0.40953 0.0
C418 C 0.57248 0.8815 0.42021 0.0
C419 C 0.5871 0.89425 0.44004 0.0
C420 C 0.61192 0.86632 0.44085 0.0
C421 C 0.59787 0.8531 0.42055 0.0
H422 H 0.58322 0.9107 0.44317 0.0
H423 H 0.6278 0.86077 0.44702 0.0
H424 H 0.63705 0.94584 0.42036 0.0
H425 H 0.65323 0.90444 0.32695 0.0
H426 H 0.64148 0.89012 0.61565 0.0
H427 H 0.55766 0.8884 0.41046 0.0
H428 H 0.60288 0.83736 0.41206 0.0
C429 C 0.89375 0.39847 0.59473 0.0
C430 C 0.90306 0.39333 0.63043 0.0
N431 N 0.92348 0.38839 0.62344 0.0
N432 N 0.90825 0.3972 0.56517 0.0
C433 C 0.92625 0.39103 0.58353 0.0
H434 H 0.87705 0.40135 0.59025 0.0
Co435 Co 0.90105 0.39681 0.51139 0.0
C436 C 0.92786 0.43055 0.47504 0.0
O437 O 0.91073 0.4371 0.45645 0.0
N438 N 0.89253 0.39467 0.45733 0.0
C439 C 0.88698 0.39411 0.39123 0.0
C440 C 0.90161 0.39807 0.42113 0.0
C441 C 0.87331 0.38671 0.44815 0.0
N442 N 0.86922 0.38684 0.40866 0.0
O443 O 0.91668 0.37089 0.50578 0.0
H444 H 0.91775 0.40316 0.41637 0.0
H445 H 0.86223 0.38087 0.47013 0.0
O446 O 0.92676 0.41407 0.49754 0.0
C447 C 0.9055 0.35437 0.51148 0.0
O448 O 0.88496 0.35653 0.5159 0.0
N449 N 0.88459 0.42181 0.51979 0.0
C450 C 0.85953 0.45444 0.55051 0.0
C451 C 0.88161 0.45582 0.5515 0.0
C452 C 0.89378 0.43915 0.53717 0.0
C453 C 0.86299 0.42047 0.51823 0.0
C454 C 0.85017 0.43665 0.53312 0.0
H455 H 0.91053 0.43954 0.54348 0.0
H456 H 0.8553 0.40609 0.50951 0.0
H457 H 0.94061 0.38717 0.56746 0.0
H458 H 0.89486 0.39159 0.65872 0.0
H459 H 0.88915 0.39645 0.35935 0.0
H460 H 0.88946 0.4688 0.56664 0.0
H461 H 0.83313 0.43466 0.53334 0.0
C462 C 0.39865 0.12279 0.38447 0.0
C463 C 0.39317 0.11217 0.35028 0.0
N464 N 0.39028 0.09162 0.35952 0.0
N465 N 0.39958 0.10906 0.41523 0.0
C466 C 0.39446 0.09016 0.39921 0.0
H467 H 0.40026 0.13974 0.38728 0.0
Co468 Co 0.40027 0.11763 0.46812 0.0
C469 C 0.43586 0.09316 0.50366 0.0
O470 O 0.44241 0.11101 0.51958 0.0
N471 N 0.39921 0.1274 0.5215 0.0
C472 C 0.40008 0.13416 0.58719 0.0
C473 C 0.40372 0.11912 0.55794 0.0
C474 C 0.391 0.14653 0.53009 0.0
N475 N 0.39193 0.15133 0.56924 0.0
O476 O 0.37512 0.10125 0.4774 0.0
H477 H 0.40933 0.10325 0.5633 0.0
H478 H 0.38434 0.15702 0.50795 0.0
O479 O 0.41873 0.09303 0.48281 0.0
C480 C 0.35797 0.11159 0.47292 0.0
O481 O 0.35908 0.13214 0.46781 0.0
N482 N 0.42441 0.13469 0.45587 0.0
C483 C 0.45586 0.15999 0.42146 0.0
C484 C 0.45777 0.13799 0.42167 0.0
C485 C 0.44165 0.12567 0.43778 0.0
C486 C 0.4224 0.15622 0.45572 0.0
C487 C 0.438 0.16916 0.43899 0.0
H488 H 0.4424 0.10885 0.43275 0.0
H489 H 0.40792 0.1636 0.46479 0.0
H490 H 0.39245 0.076 0.41696 0.0
H491 H 0.38984 0.11945 0.32164 0.0
H492 H 0.4032 0.13265 0.61896 0.0
H493 H 0.47077 0.13024 0.40639 0.0
H494 H 0.43555 0.18609 0.43773 0.0
C495 C 0.12602 0.63565 0.59225 0.0
C496 C 0.11575 0.64184 0.62639 0.0
N497 N 0.09484 0.63906 0.62084 0.0
N498 N 0.11178 0.62849 0.56535 0.0
C499 C 0.09283 0.63092 0.58356 0.0
H500 H 0.14263 0.63815 0.58649 0.0
Co501 Co 0.11774 0.62381 0.51166 0.0
C502 C 0.07524 0.60562 0.48889 0.0
O503 O 0.06993 0.62245 0.46822 0.0
N504 N 0.12463 0.62004 0.45704 0.0
C505 C 0.12875 0.62637 0.39164 0.0
C506 C 0.11509 0.62787 0.42392 0.0
C507 C 0.14379 0.61366 0.44372 0.0
N508 N 0.14678 0.61732 0.40445 0.0
O509 O 0.10105 0.64824 0.49987 0.0
H510 H 0.10007 0.636 0.42371 0.0
H511 H 0.15643 0.60841 0.46288 0.0
O512 O 0.09307 0.60506 0.5069 0.0
C513 C 0.11118 0.6656 0.49756 0.0
O514 O 0.13187 0.6649 0.49367 0.0
N515 N 0.13508 0.60077 0.52602 0.0
C516 C 0.16119 0.57097 0.56251 0.0
C517 C 0.14161 0.56501 0.546 0.0
C518 C 0.12885 0.58011 0.52754 0.0
C519 C 0.15484 0.6064 0.5386 0.0
C520 C 0.16818 0.59177 0.55687 0.0
H521 H 0.11373 0.57508 0.51609 0.0
H522 H 0.16009 0.62256 0.53512 0.0
H523 H 0.07783 0.62815 0.56879 0.0
H524 H 0.123 0.64952 0.65194 0.0
H525 H 0.12617 0.6327 0.3619 0.0
H526 H 0.13548 0.54914 0.5495 0.0
H527 H 0.18345 0.59695 0.56794 0.0
C528 C 0.12294 0.32719 0.05239 0.0
C529 C 0.13006 0.34435 0.07544 0.0
C530 C 0.1267 0.30652 0.06455 0.0
C531 C 0.14016 0.27338 0.15157 0.0
H532 H 0.1528 0.23236 0.06837 0.0
C533 C 0.15511 0.18585 0.1883 0.0
C534 C 0.1424 0.17159 0.16659 0.0
C535 C 0.15711 0.20684 0.17608 0.0
C536 C 0.14927 0.24362 0.09189 0.0
H537 H 0.14609 0.35341 0.13005 0.0
H538 H 0.15304 0.31686 0.15159 0.0
H539 H 0.14955 0.26965 0.05113 0.0
H540 H 0.12309 0.16788 0.11341 0.0
H541 H 0.12692 0.20455 0.09151 0.0
H542 H 0.13983 0.24721 0.19226 0.0
C543 C 0.14443 0.31953 0.12401 0.0
C544 C 0.14733 0.26499 0.08208 0.0
C545 C 0.14048 0.34041 0.11182 0.0
C546 C 0.13307 0.17842 0.13064 0.0
C547 C 0.1352 0.19944 0.11822 0.0
C548 C 0.14229 0.252 0.16144 0.0
C549 C 0.13786 0.30236 0.10006 0.0
C550 C 0.14224 0.28007 0.11161 0.0
C551 C 0.14666 0.21402 0.14157 0.0
C552 C 0.14645 0.23686 0.13156 0.0
H553 H 0.11438 0.32978 0.02471 0.0
H554 H 0.12075 0.29377 0.04604 0.0
H555 H 0.13606 0.2845 0.17498 0.0
H556 H 0.16295 0.18096 0.21558 0.0
H557 H 0.16641 0.21761 0.19418 0.0
C558 C 0.18323 0.86535 0.81475 0.0
C559 C 0.1696 0.88059 0.83121 0.0
C560 C 0.20474 0.86519 0.82459 0.0
C561 C 0.24611 0.90231 0.85225 0.0
H562 H 0.2801 0.8527 0.87449 0.0
C563 C 0.33258 0.90816 0.90436 0.0
C564 C 0.34691 0.89196 0.89482 0.0
C565 C 0.31136 0.90671 0.89322 0.0
C566 C 0.27092 0.86667 0.86754 0.0
H567 H 0.16745 0.90692 0.87235 0.0
H568 H 0.20516 0.90674 0.88969 0.0
H569 H 0.24182 0.84914 0.86631 0.0
H570 H 0.35053 0.86214 0.86379 0.0
H571 H 0.31341 0.85985 0.8429 0.0
H572 H 0.27502 0.91984 0.85247 0.0
C573 C 0.19918 0.89493 0.86908 0.0
C574 C 0.24896 0.86463 0.86325 0.0
C575 C 0.17759 0.89487 0.85963 0.0
C576 C 0.33986 0.8749 0.87141 0.0
C577 C 0.31853 0.87346 0.86004 0.0
C578 C 0.26804 0.90432 0.85604 0.0
C579 C 0.21307 0.88049 0.8507 0.0
C580 C 0.23631 0.88248 0.85605 0.0
C581 C 0.30389 0.88908 0.87183 0.0
C582 C 0.28074 0.88658 0.86423 0.0
H583 H 0.17739 0.85419 0.79275 0.0
H584 H 0.21504 0.85391 0.80992 0.0
H585 H 0.23681 0.91627 0.84573 0.0
H586 H 0.33764 0.9216 0.92204 0.0
H587 H 0.30065 0.91899 0.9032 0.0
C588 C 0.90151 0.83581 0.12826 0.0
C589 C 0.88733 0.84454 0.15603 0.0
C590 C 0.9002 0.81441 0.11802 0.0
C591 C 0.87955 0.76394 0.15933 0.0
H592 H 0.89745 0.74197 0.05636 0.0
C593 C 0.8752 0.6753 0.10938 0.0
C594 C 0.89293 0.66789 0.08817 0.0
C595 C 0.87388 0.69662 0.12066 0.0
C596 C 0.89253 0.7479 0.08537 0.0
H597 H 0.85969 0.83835 0.19246 0.0
H598 H 0.85673 0.80122 0.17342 0.0
H599 H 0.89453 0.78001 0.06591 0.0
H600 H 0.92394 0.67633 0.06558 0.0
H601 H 0.92165 0.7134 0.08508 0.0
H602 H 0.87729 0.7316 0.17834 0.0
C603 C 0.86939 0.81058 0.16061 0.0
C604 C 0.89089 0.76971 0.09088 0.0
C605 C 0.8709 0.83189 0.17119 0.0
C606 C 0.90996 0.68173 0.08133 0.0
C607 C 0.9086 0.70294 0.09227 0.0
C608 C 0.88096 0.74207 0.15362 0.0
C609 C 0.88447 0.80136 0.13501 0.0
C610 C 0.88466 0.77807 0.1281 0.0
C611 C 0.89024 0.71078 0.1107 0.0
C612 C 0.88779 0.73386 0.11677 0.0
H613 H 0.9145 0.84517 0.11666 0.0
H614 H 0.91223 0.80789 0.09852 0.0
H615 H 0.87505 0.76973 0.18865 0.0
H616 H 0.86179 0.66502 0.11476 0.0
H617 H 0.85958 0.70227 0.13499 0.0
C618 C 0.83621 0.11848 0.85145 0.0
C619 C 0.84454 0.13334 0.82451 0.0
C620 C 0.81448 0.11811 0.85967 0.0
C621 C 0.76482 0.14832 0.85464 0.0
H622 H 0.73885 0.09353 0.83723 0.0
C623 C 0.67408 0.13812 0.86273 0.0
C624 C 0.6671 0.12039 0.88433 0.0
C625 C 0.69529 0.13972 0.85065 0.0
C626 C 0.7458 0.10891 0.84264 0.0
H627 H 0.83718 0.16033 0.78729 0.0
H628 H 0.79925 0.16012 0.80253 0.0
H629 H 0.77712 0.09729 0.83176 0.0
H630 H 0.67626 0.08975 0.90722 0.0
H631 H 0.71306 0.0926 0.88723 0.0
H632 H 0.73365 0.15988 0.86673 0.0
C633 C 0.80942 0.14863 0.81693 0.0
C634 C 0.76776 0.11104 0.83956 0.0
C635 C 0.83106 0.14876 0.80824 0.0
C636 C 0.68129 0.10368 0.89094 0.0
C637 C 0.7024 0.1053 0.87917 0.0
C638 C 0.74285 0.14615 0.85831 0.0
C639 C 0.8008 0.13283 0.84157 0.0
C640 C 0.77751 0.13071 0.8458 0.0
C641 C 0.70989 0.12362 0.85999 0.0
C642 C 0.73304 0.12636 0.85265 0.0
H643 H 0.84624 0.10628 0.86393 0.0
H644 H 0.80825 0.1059 0.87912 0.0
H645 H 0.77195 0.16368 0.85957 0.0
H646 H 0.66352 0.15129 0.85737 0.0
H647 H 0.70038 0.15388 0.83516 0.0
C648 C 0.64764 0.68519 0.66459 0.0
C649 C 0.63199 0.67204 0.64803 0.0
C650 C 0.64808 0.70675 0.65568 0.0
C651 C 0.61148 0.74896 0.62995 0.0
H652 H 0.66196 0.7822 0.60982 0.0
C653 C 0.60824 0.83583 0.58036 0.0
C654 C 0.62475 0.8496 0.59103 0.0
C655 C 0.6089 0.81457 0.59114 0.0
C656 C 0.64776 0.77321 0.6162 0.0
H657 H 0.60528 0.67076 0.60756 0.0
H658 H 0.60601 0.70857 0.59173 0.0
H659 H 0.6647 0.74386 0.61614 0.0
H660 H 0.65421 0.85225 0.62378 0.0
H661 H 0.65513 0.81504 0.64391 0.0
H662 H 0.59452 0.77817 0.63073 0.0
C663 C 0.61787 0.70219 0.6118 0.0
C664 C 0.64933 0.75123 0.61943 0.0
C665 C 0.61761 0.68055 0.62038 0.0
C666 C 0.64122 0.842 0.61532 0.0
C667 C 0.64189 0.82063 0.62625 0.0
C668 C 0.60993 0.77092 0.62712 0.0
C669 C 0.63271 0.7156 0.63035 0.0
C670 C 0.63117 0.73887 0.62592 0.0
C671 C 0.62606 0.80653 0.61317 0.0
C672 C 0.628 0.78334 0.61979 0.0
H673 H 0.65892 0.67893 0.68594 0.0
H674 H 0.65968 0.71667 0.67046 0.0
H675 H 0.59728 0.73988 0.63592 0.0
H676 H 0.59526 0.84135 0.56192 0.0
H677 H 0.59649 0.80425 0.58025 0.0
C678 C 0.84003 0.39894 0.36556 0.0
C679 C 0.8486 0.38373 0.39147 0.0
C680 C 0.81835 0.39887 0.35687 0.0
C681 C 0.76934 0.36723 0.3595 0.0
H682 H 0.74213 0.4211 0.37973 0.0
C683 C 0.67832 0.37532 0.35391 0.0
C684 C 0.6708 0.39309 0.33311 0.0
C685 C 0.69966 0.37407 0.36525 0.0
C686 C 0.74944 0.40598 0.37354 0.0
H687 H 0.84176 0.35567 0.42616 0.0
H688 H 0.80395 0.35517 0.41019 0.0
H689 H 0.78047 0.41822 0.38487 0.0
H690 H 0.67917 0.42409 0.3108 0.0
H691 H 0.71619 0.42187 0.32962 0.0
H692 H 0.73841 0.35506 0.34715 0.0
C693 C 0.81387 0.36727 0.39692 0.0
C694 C 0.77144 0.40436 0.37641 0.0
C695 C 0.83546 0.36753 0.40605 0.0
C696 C 0.68461 0.41014 0.32648 0.0
C697 C 0.70585 0.40888 0.33757 0.0
C698 C 0.74732 0.3689 0.35612 0.0
C699 C 0.80497 0.38339 0.37347 0.0
C700 C 0.78164 0.38502 0.36918 0.0
C701 C 0.71384 0.39058 0.35602 0.0
C702 C 0.73707 0.38834 0.36284 0.0
H703 H 0.8498 0.41171 0.35438 0.0
H704 H 0.81191 0.41135 0.33831 0.0
H705 H 0.77681 0.35212 0.35378 0.0
H706 H 0.66805 0.36191 0.35924 0.0
H707 H 0.70516 0.35991 0.38016 0.0
C708 C 0.40421 0.18165 0.60915 0.0
C709 C 0.38857 0.17209 0.58541 0.0
C710 C 0.4036 0.20341 0.61649 0.0
C711 C 0.3701 0.25093 0.61487 0.0
H712 H 0.42215 0.27987 0.58659 0.0
C713 C 0.37467 0.34184 0.61756 0.0
C714 C 0.39275 0.35011 0.63639 0.0
C715 C 0.37401 0.32054 0.60611 0.0
C716 C 0.40754 0.27208 0.59498 0.0
H717 H 0.35929 0.17723 0.55327 0.0
H718 H 0.35785 0.2152 0.56701 0.0
H719 H 0.42057 0.24143 0.58357 0.0
H720 H 0.42488 0.34326 0.65468 0.0
H721 H 0.42372 0.30627 0.63564 0.0
H722 H 0.35718 0.28145 0.62745 0.0
C723 C 0.37068 0.20599 0.57956 0.0
C724 C 0.40667 0.25004 0.59333 0.0
C725 C 0.37148 0.18432 0.57173 0.0
C726 C 0.41068 0.3372 0.64053 0.0
C727 C 0.41002 0.31599 0.62935 0.0
C728 C 0.37103 0.27299 0.61705 0.0
C729 C 0.38715 0.21587 0.60073 0.0
C730 C 0.38801 0.23924 0.60353 0.0
C731 C 0.39142 0.30716 0.61331 0.0
C732 C 0.38982 0.28386 0.60741 0.0
H733 H 0.41765 0.17258 0.61957 0.0
H734 H 0.41637 0.21064 0.6333 0.0
H735 H 0.3555 0.24297 0.62287 0.0
H736 H 0.36059 0.35142 0.61417 0.0
H737 H 0.35958 0.31439 0.593 0.0
C738 C 0.33139 0.64543 0.31373 0.0
C739 C 0.34505 0.62996 0.32933 0.0
C740 C 0.30976 0.64499 0.32246 0.0
C741 C 0.26849 0.60663 0.34634 0.0
H742 H 0.23362 0.65573 0.36784 0.0
C743 C 0.18137 0.60028 0.39532 0.0
C744 C 0.16713 0.61643 0.38505 0.0
C745 C 0.20268 0.60164 0.38466 0.0
C746 C 0.24306 0.6419 0.36108 0.0
H747 H 0.34703 0.60261 0.36801 0.0
H748 H 0.30914 0.60185 0.38363 0.0
H749 H 0.27193 0.65977 0.36181 0.0
H750 H 0.16375 0.64601 0.35317 0.0
H751 H 0.20101 0.64817 0.33325 0.0
H752 H 0.23975 0.58877 0.345 0.0
C753 C 0.31518 0.61423 0.36437 0.0
C754 C 0.26504 0.64421 0.358 0.0
C755 C 0.33688 0.61483 0.35594 0.0
C756 C 0.17434 0.63326 0.36125 0.0
C757 C 0.19575 0.63465 0.35046 0.0
C758 C 0.24653 0.60434 0.34908 0.0
C759 C 0.30131 0.62892 0.34669 0.0
C760 C 0.27801 0.62657 0.35096 0.0
C761 C 0.21031 0.61918 0.3632 0.0
C762 C 0.23352 0.62191 0.35686 0.0
H763 H 0.33735 0.65727 0.29318 0.0
H764 H 0.2995 0.6565 0.30835 0.0
H765 H 0.27802 0.59281 0.33996 0.0
H766 H 0.17618 0.58709 0.41354 0.0
H767 H 0.21335 0.58949 0.39528 0.0
C768 C 0.18661 0.08586 0.3167 0.0
C769 C 0.18558 0.106 0.29908 0.0
C770 C 0.20549 0.07878 0.33432 0.0
C771 C 0.24167 0.08311 0.3981 0.0
H772 H 0.29671 0.08665 0.34687 0.0
C773 C 0.3186 0.11125 0.47292 0.0
C774 C 0.33769 0.10097 0.4638 0.0
C775 C 0.29958 0.10454 0.45569 0.0
C776 C 0.28146 0.08517 0.36151 0.0
H777 H 0.20385 0.13369 0.28277 0.0
H778 H 0.23697 0.12089 0.31148 0.0
H779 H 0.26452 0.08848 0.30611 0.0
H780 H 0.35172 0.07488 0.43153 0.0
H781 H 0.31849 0.06358 0.39982 0.0
H782 H 0.25861 0.08159 0.45382 0.0
C783 C 0.22312 0.11079 0.31265 0.0
C784 C 0.26308 0.0863 0.3382 0.0
C785 C 0.20416 0.11812 0.29627 0.0
C786 C 0.33721 0.08298 0.43914 0.0
C787 C 0.31824 0.0766 0.42091 0.0
C788 C 0.26007 0.08244 0.42151 0.0
C789 C 0.22381 0.09141 0.33308 0.0
C790 C 0.24302 0.08585 0.35638 0.0
C791 C 0.29935 0.08772 0.42819 0.0
C792 C 0.28013 0.08402 0.40351 0.0
H793 H 0.17254 0.07616 0.31897 0.0
H794 H 0.20565 0.06376 0.34987 0.0
H795 H 0.22639 0.08293 0.41288 0.0
H796 H 0.31856 0.12524 0.49166 0.0
H797 H 0.28532 0.11352 0.4616 0.0
C798 C 0.11928 0.81527 0.69349 0.0
C799 C 0.1063 0.83329 0.69329 0.0
C800 C 0.11261 0.79658 0.67512 0.0
C801 C 0.08944 0.75647 0.64626 0.0
H802 H 0.08231 0.76395 0.53164 0.0
C803 C 0.08447 0.68521 0.53879 0.0
C804 C 0.1013 0.68558 0.51117 0.0
C805 C 0.0788 0.70353 0.55979 0.0
C806 C 0.08392 0.76164 0.56366 0.0
H807 H 0.07557 0.84543 0.67624 0.0
H808 H 0.06432 0.81291 0.64182 0.0
H809 H 0.08351 0.79497 0.57573 0.0
H810 H 0.12408 0.70576 0.48135 0.0
H811 H 0.11359 0.73791 0.5167 0.0
H812 H 0.09053 0.72322 0.63419 0.0
C813 C 0.07954 0.81329 0.65676 0.0
C814 C 0.08449 0.77935 0.58887 0.0
C815 C 0.08597 0.83185 0.67637 0.0
C816 C 0.11104 0.705 0.5024 0.0
C817 C 0.10502 0.7234 0.52263 0.0
C818 C 0.08841 0.73876 0.62119 0.0
C819 C 0.09302 0.79563 0.65533 0.0
C820 C 0.08797 0.77694 0.63023 0.0
C821 C 0.08943 0.72269 0.55267 0.0
C822 C 0.08635 0.7412 0.57949 0.0
H823 H 0.13499 0.81586 0.70646 0.0
H824 H 0.12335 0.78324 0.67432 0.0
H825 H 0.0922 0.75422 0.67802 0.0
H826 H 0.07669 0.67049 0.54625 0.0
H827 H 0.06668 0.70255 0.58271 0.0
C828 C 0.82105 0.89927 0.28647 0.0
C829 C 0.83994 0.91095 0.28873 0.0
C830 C 0.8025 0.90682 0.30418 0.0
C831 C 0.76344 0.93129 0.33404 0.0
H832 H 0.77084 0.93615 0.4491 0.0
C833 C 0.69196 0.93615 0.44141 0.0
C834 C 0.69185 0.91865 0.46743 0.0
C835 C 0.71051 0.94188 0.42105 0.0
C836 C 0.76857 0.93522 0.41697 0.0
H837 H 0.85383 0.94041 0.30865 0.0
H838 H 0.8215 0.95318 0.34179 0.0
H839 H 0.80197 0.93446 0.40533 0.0
H840 H 0.71141 0.8947 0.49522 0.0
H841 H 0.74394 0.90527 0.46111 0.0
H842 H 0.73006 0.93127 0.34573 0.0
C843 C 0.8211 0.9383 0.32576 0.0
C844 C 0.78635 0.93436 0.39193 0.0
C845 C 0.83955 0.931 0.30685 0.0
C846 C 0.71103 0.90827 0.47543 0.0
C847 C 0.72966 0.91433 0.4559 0.0
C848 C 0.74566 0.93259 0.35898 0.0
C849 C 0.80254 0.92601 0.32534 0.0
C850 C 0.78394 0.93162 0.35037 0.0
C851 C 0.7294 0.93062 0.42729 0.0
C852 C 0.74806 0.93379 0.40082 0.0
H853 H 0.82084 0.8838 0.27256 0.0
H854 H 0.78846 0.89697 0.30356 0.0
H855 H 0.76117 0.92913 0.30211 0.0
H856 H 0.67744 0.94445 0.43453 0.0
H857 H 0.7099 0.95454 0.39924 0.0
C858 C 0.93373 0.33272 0.54467 0.0
C859 C 0.9151 0.33376 0.52177 0.0
C860 C 0.93951 0.31383 0.56377 0.0
C861 C 0.92966 0.2781 0.62594 0.0
H862 H 0.93136 0.22275 0.57594 0.0
C863 C 0.89694 0.20077 0.69276 0.0
C864 C 0.90968 0.1826 0.69146 0.0
C865 C 0.90387 0.2197 0.67565 0.0
C866 C 0.9313 0.23811 0.59031 0.0
H867 H 0.88905 0.31549 0.49766 0.0
H868 H 0.89977 0.28229 0.52894 0.0
H869 H 0.93263 0.25464 0.53413 0.0
H870 H 0.94024 0.17036 0.67354 0.0
H871 H 0.95194 0.20331 0.64124 0.0
H872 H 0.92644 0.26157 0.68182 0.0
C873 C 0.90963 0.29615 0.53305 0.0
C874 C 0.93197 0.25631 0.56643 0.0
C875 C 0.9035 0.31514 0.51513 0.0
C876 C 0.93003 0.18407 0.67459 0.0
C877 C 0.93672 0.20287 0.6562 0.0
C878 C 0.92847 0.25991 0.64973 0.0
C879 C 0.92718 0.29549 0.55884 0.0
C880 C 0.93068 0.27646 0.58397 0.0
C881 C 0.92349 0.22073 0.65598 0.0
C882 C 0.9288 0.23976 0.63205 0.0
H883 H 0.94296 0.34683 0.55005 0.0
H884 H 0.95313 0.31371 0.58351 0.0
H885 H 0.92839 0.29344 0.64017 0.0
H886 H 0.88121 0.20015 0.70568 0.0
H887 H 0.89334 0.2332 0.67571 0.0
C888 C 0.31203 0.40312 0.77071 0.0
C889 C 0.33103 0.41438 0.77566 0.0
C890 C 0.29346 0.40987 0.78954 0.0
C891 C 0.25443 0.43281 0.82345 0.0
H892 H 0.26144 0.43322 0.93897 0.0
C893 C 0.18268 0.43423 0.93104 0.0
C894 C 0.18234 0.4156 0.95395 0.0
C895 C 0.20132 0.44062 0.91162 0.0
C896 C 0.25928 0.43355 0.90677 0.0
H897 H 0.34513 0.4423 0.8019 0.0
H898 H 0.31279 0.45362 0.83664 0.0
H899 H 0.29271 0.43292 0.89548 0.0
H900 H 0.20155 0.39016 0.97756 0.0
H901 H 0.23425 0.40187 0.94546 0.0
H902 H 0.221 0.43267 0.83474 0.0
C903 C 0.31229 0.4397 0.81774 0.0
C904 C 0.27714 0.43346 0.88189 0.0
C905 C 0.33077 0.43325 0.79788 0.0
C906 C 0.20137 0.40462 0.96016 0.0
C907 C 0.22009 0.41132 0.94177 0.0
C908 C 0.23657 0.43334 0.84831 0.0
C909 C 0.29358 0.42777 0.81445 0.0
C910 C 0.27488 0.43233 0.84003 0.0
C911 C 0.22007 0.42887 0.91598 0.0
C912 C 0.23882 0.43295 0.89022 0.0
H913 H 0.31172 0.38854 0.75369 0.0
H914 H 0.27931 0.4003 0.78665 0.0
H915 H 0.25226 0.43195 0.79129 0.0
H916 H 0.16824 0.44294 0.92577 0.0
H917 H 0.20088 0.45424 0.89196 0.0
C918 C 0.43332 0.82988 0.04848 0.0
C919 C 0.41578 0.83004 0.02252 0.0
C920 C 0.4392 0.81127 0.06836 0.0
C921 C 0.43093 0.77546 0.12939 0.0
H922 H 0.43303 0.71973 0.08104 0.0
C923 C 0.40073 0.69895 0.20248 0.0
C924 C 0.41272 0.68037 0.19866 0.0
C925 C 0.40746 0.71773 0.18455 0.0
C926 C 0.43286 0.7352 0.09497 0.0
H927 H 0.39174 0.81056 -0.00539 0.0
H928 H 0.40254 0.77794 0.02792 0.0
H929 H 0.43356 0.75123 0.03827 0.0
H930 H 0.44184 0.66722 0.17549 0.0
H931 H 0.45319 0.69998 0.14209 0.0
H932 H 0.42866 0.75941 0.18589 0.0
C933 C 0.41156 0.79222 0.03339 0.0
C934 C 0.43304 0.75319 0.07051 0.0
C935 C 0.40536 0.8109 0.01433 0.0
C936 C 0.43226 0.68127 0.17859 0.0
C937 C 0.43871 0.69997 0.1595 0.0
C938 C 0.43032 0.75747 0.15378 0.0
C939 C 0.42802 0.79236 0.06175 0.0
C940 C 0.43158 0.77349 0.08743 0.0
C941 C 0.42609 0.71824 0.16159 0.0
C942 C 0.43077 0.73716 0.13676 0.0
H943 H 0.44153 0.84441 0.05558 0.0
H944 H 0.45197 0.81183 0.09001 0.0
H945 H 0.42959 0.79088 0.14326 0.0
H946 H 0.3856 0.69872 0.2178 0.0
H947 H 0.39736 0.73152 0.18649 0.0
C948 C 0.83052 0.58416 0.92876 0.0
C949 C 0.83066 0.60191 0.9541 0.0
C950 C 0.81195 0.57821 0.90865 0.0
C951 C 0.77635 0.58631 0.84675 0.0
H952 H 0.72037 0.58441 0.89449 0.0
C953 C 0.69988 0.61614 0.77249 0.0
C954 C 0.68124 0.60422 0.7765 0.0
C955 C 0.71868 0.60948 0.79055 0.0
C956 C 0.73591 0.58453 0.88073 0.0
H957 H 0.81114 0.62621 0.98095 0.0
H958 H 0.77857 0.6153 0.94734 0.0
H959 H 0.75179 0.58406 0.93762 0.0
H960 H 0.66794 0.57536 0.80035 0.0
H961 H 0.70072 0.56411 0.83387 0.0
H962 H 0.76045 0.58837 0.79003 0.0
C963 C 0.79285 0.60619 0.9424 0.0
C964 C 0.75385 0.58444 0.9054 0.0
C965 C 0.8115 0.61246 0.96163 0.0
C966 C 0.68207 0.58484 0.79696 0.0
C967 C 0.70077 0.57846 0.81616 0.0
C968 C 0.75841 0.58684 0.82214 0.0
C969 C 0.79305 0.58953 0.91455 0.0
C970 C 0.77424 0.58583 0.88869 0.0
C971 C 0.71912 0.59101 0.81386 0.0
C972 C 0.73801 0.58645 0.83894 0.0
H973 H 0.84504 0.57576 0.9224 0.0
H974 H 0.81253 0.56526 0.88742 0.0
H975 H 0.79186 0.58759 0.83305 0.0
H976 H 0.69969 0.63117 0.75693 0.0
H977 H 0.73253 0.61954 0.78848 0.0
C978 C 0.58455 0.18292 0.04443 0.0
C979 C 0.6024 0.18239 0.01928 0.0
C980 C 0.57899 0.20157 0.06456 0.0
C981 C 0.58723 0.23704 0.12653 0.0
H982 H 0.58744 0.29285 0.07846 0.0
C983 C 0.61606 0.31295 0.20487 0.0
C984 C 0.60487 0.33185 0.19872 0.0
C985 C 0.60973 0.29429 0.18587 0.0
C986 C 0.587 0.27737 0.09233 0.0
H987 H 0.62728 0.20135 -0.00726 0.0
H988 H 0.61707 0.23405 0.02638 0.0
H989 H 0.58691 0.26146 0.03549 0.0
H990 H 0.57764 0.34576 0.16957 0.0
H991 H 0.56696 0.31322 0.13505 0.0
H992 H 0.5887 0.25294 0.1833 0.0
C993 C 0.60758 0.22001 0.03119 0.0
C994 C 0.58681 0.25943 0.06773 0.0
C995 C 0.61344 0.20128 0.01194 0.0
C996 C 0.58652 0.33143 0.17488 0.0
C997 C 0.58048 0.31285 0.155 0.0
C998 C 0.58783 0.25497 0.1511 0.0
C999 C 0.59081 0.22018 0.05887 0.0
C1000 C 0.5874 0.23908 0.08456 0.0
C1001 C 0.59234 0.2942 0.15961 0.0
C1002 C 0.58819 0.27532 0.13423 0.0
H1003 H 0.57576 0.16862 0.05057 0.0
H1004 H 0.56592 0.20127 0.08559 0.0
H1005 H 0.58788 0.22156 0.14034 0.0
H1006 H 0.63028 0.3128 0.22301 0.0
H1007 H 0.61927 0.28021 0.18979 0.0
C1008 C 0.0538 0.07753 0.23645 0.0
C1009 C 0.07529 0.0744 0.24608 0.0
C1010 C 0.03922 0.06097 0.23882 0.0
C1011 C 0.03355 1.00435 0.23017 0.0
H1012 H 0.98103 0.01173 0.28882 0.0
C1013 C 0.97402 0.93577 0.24336 0.0
C1014 C 0.95219 0.93998 0.24537 0.0
C1015 C 0.98889 0.95205 0.24576 0.0
C1016 C 0.9954 0.00943 0.2717 0.0
H1017 H 0.09825 0.05122 0.26569 0.0
H1018 H 0.07269 0.02177 0.26826 0.0
H1019 H 1.00754 0.03984 0.28885 0.0
H1020 H 0.92885 0.96469 0.25214 0.0
H1021 H 0.95481 0.99354 0.25429 0.0
H1022 H 0.02128 0.9746 0.21101 0.0
C1023 C 0.06725 0.03731 0.25937 0.0
C1024 C 0.01071 0.02552 0.2721 0.0
C1025 C 0.08186 0.05411 0.25791 0.0
C1026 C 0.94556 0.96098 0.2504 0.0
C1027 C 0.96053 0.97748 0.25189 0.0
C1028 C 0.01811 0.98845 0.22905 0.0
C1029 C 0.04573 0.04066 0.25015 0.0
C1030 C 0.02998 0.02312 0.25144 0.0
C1031 C 0.98249 0.97326 0.24931 0.0
C1032 C 0.99878 0.99063 0.25 0.0
H1033 H 0.04804 0.09296 0.22765 0.0
H1034 H 0.02282 0.064 0.23123 0.0
H1035 H 0.04808 1.00222 0.21337 0.0
H1036 H 0.97974 0.91971 0.24046 0.0
H1037 H 1.00548 0.94782 0.24513 0.0
C1038 C 0.06255 0.95109 0.7833 0.0
C1039 C 0.0692 0.94061 0.74843 0.0
C1040 C 0.04711 0.96691 0.78159 0.0
C1041 C 1.00712 0.99308 0.71423 0.0
H1042 H 0.01422 0.03883 0.79046 0.0
C1043 C 0.9578 0.07128 0.70924 0.0
C1044 C 0.94734 0.0757 0.7455 0.0
C1045 C 0.97367 0.05572 0.70766 0.0
C1046 C 0.01203 0.02618 0.76896 0.0
H1047 H 0.06447 0.93813 0.68437 0.0
H1048 H 0.03798 0.96625 0.68091 0.0
H1049 H 0.03877 0.00925 0.79115 0.0
H1050 H 0.9459 0.068 0.80866 0.0
H1051 H 0.97416 0.04169 0.80628 0.0
H1052 H 0.98058 0.01066 0.69154 0.0
C1053 C 0.04423 0.96194 0.70997 0.0
C1054 C 0.02599 0.009 0.76956 0.0
C1055 C 0.05942 0.94571 0.71187 0.0
C1056 C 0.95381 0.06507 0.78038 0.0
C1057 C 0.96996 0.04996 0.77899 0.0
C1058 C 0.99335 0.01051 0.71321 0.0
C1059 C 0.03824 0.97321 0.74472 0.0
C1060 C 0.02358 0.99192 0.74272 0.0
C1061 C 0.97972 0.04469 0.74247 0.0
C1062 C 0.99546 0.02711 0.74096 0.0
H1063 H 0.06978 0.94747 0.81193 0.0
H1064 H 0.04251 0.97451 0.80932 0.0
H1065 H 1.00448 0.9803 0.69325 0.0
H1066 H 0.95291 0.07896 0.68176 0.0
H1067 H 0.981 0.05207 0.67913 0.0
C1068 C 0.07633 0.4647 -0.00595 0.0
C1069 C 0.06963 0.44352 -0.00509 0.0
C1070 C 0.06135 0.48117 -0.007 0.0
C1071 C 1.00736 0.49434 0.96198 0.0
H1072 H 1.00665 0.53487 0.0489 0.0
C1073 C 0.93745 0.55362 0.98161 0.0
C1074 C 0.94175 0.57331 -0.00071 0.0
C1075 C 0.95311 0.53781 0.98025 0.0
C1076 C 1.00672 0.52406 0.02376 0.0
H1077 H 0.04207 0.42303 -0.00653 0.0
H1078 H 0.01626 0.45157 -0.00972 0.0
H1079 H 0.03478 0.50868 0.04546 0.0
H1080 H 0.96624 0.59198 0.02813 0.0
H1081 H 0.9934 0.56533 0.02402 0.0
H1082 H 0.97978 0.5099 0.93933 0.0
C1083 C 0.03295 0.45551 -0.00876 0.0
C1084 C 0.02292 0.50895 0.02202 0.0
C1085 C 0.04778 0.43918 -0.00661 0.0
C1086 C 0.96213 0.57688 0.01495 0.0
C1087 C 0.97782 0.56138 0.01282 0.0
C1088 C 0.99141 0.50976 0.96314 0.0
C1089 C 0.0395 0.47669 -0.00855 0.0
C1090 C 0.02333 0.49382 -0.00868 0.0
C1091 C 0.97364 0.54146 -0.00423 0.0
C1092 C 0.9907 0.52485 -0.00577 0.0
H1093 H 0.09305 0.4685 -0.00494 0.0
H1094 H 0.06682 0.4974 -0.00687 0.0
H1095 H 1.0073 0.48283 0.93792 0.0
H1096 H 0.92194 0.55037 0.96917 0.0
H1097 H 0.94898 0.52267 0.96735 0.0
C1098 C 0.4617 0.93958 0.00398 0.0
C1099 C 0.44587 0.93962 0.97429 0.0
C1100 C 0.47737 0.95543 0.00472 0.0
C1101 C 0.5016 0.9976 0.94032 0.0
H1102 H 0.52185 0.02026 0.04121 0.0
C1103 C 0.57167 0.05576 0.94531 0.0
C1104 C 0.57218 0.07196 0.97422 0.0
C1105 C 0.55611 0.04007 0.94625 0.0
C1106 C 0.51621 0.01431 0.01273 0.0
H1107 H 0.43442 0.9564 0.92187 0.0
H1108 H 0.46106 0.98383 0.92361 0.0
H1109 H 0.49573 0.99173 0.04116 0.0
H1110 H 0.55624 0.08435 0.02669 0.0
H1111 H 0.52851 0.05715 0.02775 0.0
H1112 H 0.52133 0.0205 0.91175 0.0
C1113 C 0.46184 0.97147 0.94598 0.0
C1114 C 0.50143 0.99765 0.0127 0.0
C1115 C 0.44636 0.95567 0.94512 0.0
C1116 C 0.5563 0.07221 0.00382 0.0
C1117 C 0.54053 0.05644 0.00466 0.0
C1118 C 0.51618 0.01427 0.94035 0.0
C1119 C 0.47758 0.97172 0.97582 0.0
C1120 C 0.49388 0.98904 0.97643 0.0
C1121 C 0.54028 0.04005 0.97592 0.0
C1122 C 0.52386 0.02285 0.97649 0.0
H1123 H 0.46178 0.92754 0.02705 0.0
H1124 H 0.48934 0.95488 0.02792 0.0
H1125 H 0.49652 0.99133 0.9117 0.0
H1126 H 0.58364 0.05487 0.92211 0.0
H1127 H 0.55686 0.02762 0.92404 0.0
C1128 C 0.45549 0.44634 0.69416 0.0
C1129 C 0.44014 0.44508 0.72463 0.0
C1130 C 0.47131 0.46176 0.69508 0.0
C1131 C 0.49917 0.49956 0.76278 0.0
H1132 H 0.51892 0.52246 0.66175 0.0
C1133 C 0.57246 0.55598 0.75195 0.0
C1134 C 0.57063 0.57292 0.72486 0.0
C1135 C 0.55726 0.53968 0.75238 0.0
C1136 C 0.51358 0.51642 0.69038 0.0
H1137 H 0.42935 0.4595 0.77989 0.0
H1138 H 0.45675 0.48701 0.78093 0.0
H1139 H 0.48994 0.4974 0.66223 0.0
H1140 H 0.55155 0.58559 0.6764 0.0
H1141 H 0.52532 0.55782 0.67755 0.0
H1142 H 0.52245 0.51938 0.7909 0.0
C1143 C 0.45672 0.47568 0.75661 0.0
C1144 C 0.49702 0.50174 0.69062 0.0
C1145 C 0.44084 0.46005 0.7558 0.0
C1146 C 0.5536 0.57283 0.69768 0.0
C1147 C 0.53851 0.55671 0.69816 0.0
C1148 C 0.51572 0.51445 0.76256 0.0
C1149 C 0.47228 0.47667 0.7263 0.0
C1150 C 0.48956 0.49298 0.72675 0.0
C1151 C 0.53993 0.53993 0.72565 0.0
C1152 C 0.52311 0.52318 0.72631 0.0
H1153 H 0.45564 0.43507 0.66972 0.0
H1154 H 0.48313 0.46161 0.67156 0.0
H1155 H 0.4941 0.49304 0.7912 0.0
H1156 H 0.58528 0.55561 0.77351 0.0
H1157 H 0.55905 0.52692 0.77372 0.0
C1158 C 0.46059 0.57156 0.22164 0.0
C1159 C 0.44375 0.56974 0.24905 0.0
C1160 C 0.47703 0.5565 0.22121 0.0
C1161 C 0.50095 0.51349 0.28383 0.0
H1162 H 0.5242 0.49363 0.18315 0.0
C1163 C 0.57156 0.45592 0.28034 0.0
C1164 C 0.57284 0.44047 0.25009 0.0
C1165 C 0.55601 0.47161 0.27937 0.0
C1166 C 0.51773 0.49881 0.21155 0.0
H1167 H 0.43138 0.55081 0.29801 0.0
H1168 H 0.45939 0.52486 0.29689 0.0
H1169 H 0.4976 0.5217 0.18316 0.0
H1170 H 0.55824 0.42936 0.1952 0.0
H1171 H 0.53053 0.45649 0.19407 0.0
H1172 H 0.5203 0.49026 0.31226 0.0
C1173 C 0.46032 0.53792 0.27602 0.0
C1174 C 0.50268 0.5152 0.21159 0.0
C1175 C 0.44406 0.55286 0.27648 0.0
C1176 C 0.5577 0.44092 0.21913 0.0
C1177 C 0.54195 0.45666 0.21826 0.0
C1178 C 0.51581 0.4971 0.28377 0.0
C1179 C 0.47702 0.53935 0.24828 0.0
C1180 C 0.49397 0.52271 0.24778 0.0
C1181 C 0.54096 0.47234 0.24831 0.0
C1182 C 0.52451 0.48949 0.2477 0.0
H1183 H 0.46079 0.58426 0.19989 0.0
H1184 H 0.48972 0.5583 0.19965 0.0
H1185 H 0.49495 0.51894 0.31241 0.0
H1186 H 0.58295 0.45627 0.3046 0.0
H1187 H 0.55616 0.4835 0.30269 0.0
C1188 C 0.58093 0.96271 0.47625 0.0
C1189 C 0.58112 0.94737 0.50678 0.0
C1190 C 0.56513 0.9784 0.47535 0.0
C1191 C 0.52447 1.00423 0.54043 0.0
H1192 H 0.4991 0.02152 0.4399 0.0
C1193 C 0.4676 0.07505 0.53207 0.0
C1194 C 0.45032 0.07458 0.50549 0.0
C1195 C 0.48288 0.05912 0.53174 0.0
C1196 C 0.50584 0.0167 0.46829 0.0
H1197 H 0.56495 0.93686 0.56062 0.0
H1198 H 0.53769 0.96366 0.5588 0.0
H1199 H 0.52763 0.99537 0.43991 0.0
H1200 H 0.43545 0.05656 0.45798 0.0
H1201 H 0.4621 0.02827 0.45787 0.0
H1202 H 0.50249 0.02499 0.56901 0.0
C1203 C 0.54976 0.96394 0.53575 0.0
C1204 C 0.52246 1.00193 0.46825 0.0
C1205 C 0.56544 0.9484 0.53666 0.0
C1206 C 0.44847 0.05735 0.47906 0.0
C1207 C 0.46389 0.04128 0.47869 0.0
C1208 C 0.50789 0.01887 0.54048 0.0
C1209 C 0.54923 0.97914 0.50504 0.0
C1210 C 0.53201 0.99545 0.50438 0.0
C1211 C 0.48142 0.04204 0.50491 0.0
C1212 C 0.49837 0.02546 0.50445 0.0
H1213 H 0.59268 0.96234 0.45261 0.0
H1214 H 0.56541 0.98996 0.45144 0.0
H1215 H 0.53149 0.99992 0.56887 0.0
H1216 H 0.46965 0.08806 0.55283 0.0
H1217 H 0.49622 0.06056 0.55195 0.0
C1218 C 0.94797 0.46082 0.44579 0.0
C1219 C 0.94663 0.44486 0.47505 0.0
C1220 C 0.96313 0.47684 0.44853 0.0
C1221 C 0.01353 0.49364 0.49509 0.0
H1222 H 0.99101 0.54971 0.47577 0.0
C1223 C 0.06411 0.57019 0.51702 0.0
C1224 C 0.06088 0.58687 0.48977 0.0
C1225 C 0.05079 0.5524 0.51699 0.0
C1226 C 0.99774 0.53421 0.48073 0.0
H1227 H 0.9611 0.43275 0.52923 0.0
H1228 H 0.98797 0.46084 0.53384 0.0
H1229 H 0.96774 0.51921 0.47172 0.0
H1230 H 0.04104 0.59767 0.44092 0.0
H1231 H 0.01819 0.56674 0.44031 0.0
H1232 H 0.04367 0.5087 0.50348 0.0
C1233 C 0.97709 0.46085 0.50876 0.0
C1234 C 0.98431 0.51664 0.47852 0.0
C1235 C 0.96175 0.44471 0.50606 0.0
C1236 C 0.04394 0.58527 0.4626 0.0
C1237 C 0.03072 0.56748 0.46241 0.0
C1238 C 0.02708 0.51128 0.49702 0.0
C1239 C 0.97752 0.47748 0.48062 0.0
C1240 C 0.99202 0.49608 0.48515 0.0
C1241 C 0.03386 0.55075 0.48965 0.0
C1242 C 0.01942 0.53184 0.48939 0.0
H1243 H 0.93678 0.46137 0.42121 0.0
H1244 H 0.9633 0.48904 0.42577 0.0
H1245 H 0.02002 0.47804 0.50024 0.0
H1246 H 0.07684 0.57095 0.5387 0.0
H1247 H 0.0536 0.54007 0.53885 0.0
C1248 C 0.16197 0.99697 0.67378 0.0
C1249 C 0.16895 0.97609 0.66903 0.0
C1250 C 0.16851 0.0126 0.64707 0.0
C1251 C 0.17946 0.01318 0.54131 0.0
H1252 H 0.17634 0.07374 0.55754 0.0
C1253 C 0.15491 0.07031 0.41461 0.0
C1254 C 0.13904 0.08469 0.42606 0.0
C1255 C 0.16595 0.05871 0.44347 0.0
C1256 C 0.17738 0.05686 0.55251 0.0
H1257 H 0.19032 0.95565 0.63611 0.0
H1258 H 0.20201 0.98306 0.58971 0.0
H1259 H 0.18586 0.05079 0.61357 0.0
H1260 H 0.12186 0.09754 0.47675 0.0
H1261 H 0.14083 0.0772 0.52692 0.0
H1262 H 0.16974 0.01907 0.48101 0.0
C1263 C 0.19121 0.98729 0.61362 0.0
C1264 C 0.18291 0.04376 0.58449 0.0
C1265 C 0.18465 0.97165 0.64041 0.0
C1266 C 0.13423 0.08691 0.46694 0.0
C1267 C 0.14524 0.07537 0.49573 0.0
C1268 C 0.17397 0.02627 0.50936 0.0
C1269 C 0.18214 1.00756 0.61511 0.0
C1270 C 0.18293 0.0217 0.57972 0.0
C1271 C 0.16129 0.06124 0.48436 0.0
C1272 C 0.17183 0.04813 0.51521 0.0
H1273 H 0.15002 1.0008 0.69593 0.0
H1274 H 0.16117 0.02802 0.64914 0.0
H1275 H 0.1791 0.99625 0.5366 0.0
H1276 H 0.15915 0.0683 0.38351 0.0
H1277 H 0.17822 0.0479 0.43384 0.0
C1278 C 0.08866 0.8819 0.52746 0.0
C1279 C 0.08576 0.87792 0.56852 0.0
C1280 C 0.07783 0.87007 0.49876 0.0
C1281 C 0.06049 0.83667 0.44301 0.0
H1282 H 0.99966 0.83374 0.45682 0.0
C1283 C 0.97597 0.82695 0.35304 0.0
C1284 C 0.98057 0.84239 0.32412 0.0
C1285 C 0.99154 0.82066 0.38029 0.0
C1286 C 0.01667 0.83368 0.45272 0.0
H1287 H 0.06891 0.85833 0.61132 0.0
H1288 H 0.04993 0.83778 0.56126 0.0
H1289 H 0.0217 0.8446 0.51254 0.0
H1290 H 1.00545 0.86103 0.29695 0.0
H1291 H 0.03252 0.85032 0.34436 0.0
H1292 H 0.05525 0.82695 0.38232 0.0
C1293 C 0.06067 0.85008 0.55139 0.0
C1294 C 0.02933 0.84006 0.48476 0.0
C1295 C 0.0715 0.86196 0.58013 0.0
C1296 C 1.00154 0.84923 0.31931 0.0
C1297 C 0.01708 0.84295 0.34644 0.0
C1298 C 0.04782 0.83023 0.41092 0.0
C1299 C 0.06379 0.85397 0.51038 0.0
C1300 C 0.05123 0.84265 0.47961 0.0
C1301 C 0.01185 0.82977 0.37891 0.0
C1302 C 0.02567 0.82975 0.41486 0.0
H1303 H 0.09921 0.8943 0.51742 0.0
H1304 H 0.08012 0.87389 0.4674 0.0
H1305 H 0.07742 0.83803 0.43853 0.0
H1306 H 0.95988 0.82141 0.3573 0.0
H1307 H 0.98716 0.81015 0.40455 0.0
C1308 C 0.83421 0.04257 0.63194 0.0
C1309 C 0.84945 0.03841 0.66156 0.0
C1310 C 0.82851 0.02683 0.60461 0.0
C1311 C 0.83818 0.97058 0.57581 0.0
H1312 H 0.85283 0.99548 0.47325 0.0
C1313 C 0.86834 0.94451 0.4068 0.0
C1314 C 0.88368 0.92971 0.4187 0.0
C1315 C 0.85709 0.95612 0.43537 0.0
C1316 C 0.84821 0.9882 0.5013 0.0
H1317 H 0.86845 0.01407 0.68948 0.0
H1318 H 0.85873 0.98669 0.64183 0.0
H1319 H 0.8425 0.01817 0.52844 0.0
H1320 H 0.89977 0.91607 0.46989 0.0
H1321 H 0.88055 0.93654 0.51961 0.0
H1322 H 0.84518 0.94065 0.549 0.0
C1323 C 0.85111 1.00196 0.63939 0.0
C1324 C 0.84216 1.00123 0.53302 0.0
C1325 C 0.85682 0.01767 0.66661 0.0
C1326 C 0.88781 0.92708 0.45975 0.0
C1327 C 0.87665 0.93868 0.48826 0.0
C1328 C 0.84423 0.95754 0.54404 0.0
C1329 C 0.83798 1.00676 0.60659 0.0
C1330 C 0.83808 0.99264 0.57114 0.0
C1331 C 0.86107 0.95323 0.47644 0.0
C1332 C 0.85028 0.96634 0.50706 0.0
H1333 H 0.82828 0.05844 0.62738 0.0
H1334 H 0.81808 0.03087 0.58001 0.0
H1335 H 0.83481 0.9635 0.60467 0.0
H1336 H 0.86465 0.94684 0.37554 0.0
H1337 H 0.84518 0.96723 0.42534 0.0
C1338 C 0.94602 0.15367 0.57736 0.0
C1339 C 0.93212 0.13744 0.56557 0.0
C1340 C 0.95739 0.16516 0.54879 0.0
C1341 C 0.99008 0.17425 0.48404 0.0
H1342 H 0.9663 0.18556 0.37901 0.0
C1343 C 0.0215 0.16331 0.32086 0.0
C1344 C 0.04224 0.17065 0.32669 0.0
C1345 C 1.00537 0.16952 0.34681 0.0
C1346 C 0.97312 0.18278 0.40833 0.0
H1347 H 0.91978 0.12021 0.51448 0.0
H1348 H 0.93981 0.13993 0.46478 0.0
H1349 H 0.94299 0.17526 0.4341 0.0
H1350 H 0.06189 0.19233 0.36056 0.0
H1351 H 0.03358 0.20346 0.40566 0.0
H1352 H 0.02028 0.18033 0.45801 0.0
C1353 C 0.94142 0.14425 0.49605 0.0
C1354 C 0.95981 0.17679 0.43978 0.0
C1355 C 0.93007 0.13282 0.52457 0.0
C1356 C 0.04602 0.18639 0.35549 0.0
C1357 C 0.02986 0.19262 0.38153 0.0
C1358 C 1.00337 0.18019 0.45263 0.0
C1359 C 0.95516 0.16059 0.50781 0.0
C1360 C 0.96831 0.17146 0.47738 0.0
C1361 C 0.00975 0.18315 0.37908 0.0
C1362 C 0.99516 0.18347 0.41393 0.0
H1363 H 0.94789 0.15781 0.60852 0.0
H1364 H 0.96786 0.17767 0.55875 0.0
H1365 H 0.99712 0.1702 0.51262 0.0
H1366 H 0.01819 0.15132 0.29854 0.0
H1367 H 0.9901 0.16187 0.34398 0.0
C1368 C 0.18093 0.56425 0.62627 0.0
C1369 C 0.17251 0.55646 0.59012 0.0
C1370 C 0.18643 0.55043 0.65709 0.0
C1371 C 0.18868 0.49325 0.68551 0.0
H1372 H 0.15788 0.51311 0.77881 0.0
C1373 C 0.13973 0.43896 0.78517 0.0
C1374 C 0.13973 0.44184 0.82698 0.0
C1375 C 0.15048 0.45295 0.76019 0.0
C1376 C 0.16697 0.50742 0.75349 0.0
H1377 H 0.16612 0.528 0.55599 0.0
H1378 H 0.17475 0.50394 0.6102 0.0
H1379 H 0.16733 0.53788 0.72638 0.0
H1380 H 0.15077 0.4624 0.87486 0.0
H1381 H 0.16923 0.48697 0.831 0.0
H1382 H 0.18688 0.46243 0.71182 0.0
C1383 C 0.17726 0.52069 0.61488 0.0
C1384 C 0.17251 0.52165 0.72337 0.0
C1385 C 0.17199 0.53451 0.58388 0.0
C1386 C 0.15039 0.45949 0.84299 0.0
C1387 C 0.16108 0.47358 0.81788 0.0
C1388 C 0.183 0.47899 0.71557 0.0
C1389 C 0.18338 0.52857 0.65258 0.0
C1390 C 0.18262 0.51457 0.68823 0.0
C1391 C 0.16134 0.47033 0.77626 0.0
C1392 C 0.17131 0.48583 0.74898 0.0
H1393 H 0.18163 0.58106 0.63222 0.0
H1394 H 0.19161 0.55696 0.68546 0.0
H1395 H 0.19682 0.48739 0.65919 0.0
H1396 H 0.13128 0.42597 0.77147 0.0
H1397 H 0.14985 0.45042 0.72809 0.0
C1398 C 0.44509 0.87492 0.19039 0.0
C1399 C 0.44673 0.87451 0.14839 0.0
C1400 C 0.46018 0.86502 0.21419 0.0
C1401 C 0.48774 0.83307 0.25625 0.0
H1402 H 0.54578 0.85191 0.24463 0.0
C1403 C 0.57261 0.84011 0.34654 0.0
C1404 C 0.56413 0.84886 0.38179 0.0
C1405 C 0.55923 0.83385 0.31538 0.0
C1406 C 0.52982 0.84586 0.24778 0.0
H1407 H 0.4662 0.86384 0.09865 0.0
H1408 H 0.49301 0.84701 0.14065 0.0
H1409 H 0.5202 0.85993 0.19238 0.0
H1410 H 0.53519 0.85564 0.41407 0.0
H1411 H 0.51186 0.84509 0.35974 0.0
H1412 H 0.49708 0.81997 0.31265 0.0
C1413 C 0.47966 0.85474 0.1548 0.0
C1414 C 0.51515 0.85056 0.21782 0.0
C1415 C 0.46437 0.86453 0.13082 0.0
C1416 C 0.5421 0.84919 0.38698 0.0
C1417 C 0.52874 0.84293 0.35591 0.0
C1418 C 0.50242 0.82826 0.28611 0.0
C1419 C 0.47749 0.85465 0.19668 0.0
C1420 C 0.49378 0.84516 0.22284 0.0
C1421 C 0.5372 0.83623 0.31902 0.0
C1422 C 0.52336 0.83559 0.28315 0.0
H1423 H 0.43208 0.88291 0.20505 0.0
H1424 H 0.45849 0.86579 0.24648 0.0
H1425 H 0.47138 0.82837 0.26037 0.0
H1426 H 0.58956 0.8397 0.34167 0.0
H1427 H 0.56618 0.82846 0.28751 0.0
C1428 C 0.87882 0.57886 0.7813 0.0
C1429 C 0.87606 0.5763 0.82278 0.0
C1430 C 0.8684 0.56572 0.75432 0.0
C1431 C 0.83522 0.54435 0.70405 0.0
H1432 H 0.84391 0.48391 0.71194 0.0
C1433 C 0.85136 0.49122 0.5721 0.0
C1434 C 0.84702 0.46952 0.57455 0.0
C1435 C 0.84489 0.50478 0.60265 0.0
C1436 C 0.84068 0.50067 0.70971 0.0
H1437 H 0.86096 0.55706 0.86842 0.0
H1438 H 0.84296 0.53369 0.8209 0.0
H1439 H 0.85323 0.50649 0.76828 0.0
H1440 H 0.83063 0.44527 0.6084 0.0
H1441 H 0.81922 0.46905 0.66186 0.0
H1442 H 0.82391 0.53867 0.64454 0.0
C1443 C 0.85297 0.54625 0.80955 0.0
C1444 C 0.84612 0.51361 0.74201 0.0
C1445 C 0.86338 0.55955 0.83671 0.0
C1446 C 0.83411 0.46198 0.60574 0.0
C1447 C 0.82774 0.47554 0.6365 0.0
C1448 C 0.82975 0.53142 0.67179 0.0
C1449 C 0.85506 0.54954 0.76809 0.0
C1450 C 0.84449 0.53564 0.7386 0.0
C1451 C 0.83409 0.49682 0.63632 0.0
C1452 C 0.83348 0.50958 0.67354 0.0
H1453 H 0.88891 0.59122 0.76957 0.0
H1454 H 0.87092 0.56816 0.72254 0.0
H1455 H 0.83337 0.56129 0.70108 0.0
H1456 H 0.86123 0.49737 0.54823 0.0
H1457 H 0.85016 0.52106 0.60164 0.0
C1458 C 0.57964 0.13763 0.19205 0.0
C1459 C 0.57681 0.1391 0.15038 0.0
C1460 C 0.56657 0.14872 0.21816 0.0
C1461 C 0.54487 0.18287 0.26551 0.0
H1462 H 0.48442 0.17307 0.25904 0.0
C1463 C 0.4626 0.18449 0.36449 0.0
C1464 C 0.47056 0.17245 0.39648 0.0
C1465 C 0.47596 0.1906 0.33318 0.0
C1466 C 0.50117 0.17663 0.2608 0.0
H1467 H 0.55706 0.1526 0.10372 0.0
H1468 H 0.53388 0.17177 0.1497 0.0
H1469 H 0.50702 0.16268 0.20342 0.0
H1470 H 0.49886 0.15961 0.4236 0.0
H1471 H 0.5222 0.1702 0.36926 0.0
H1472 H 0.53917 0.19559 0.32398 0.0
C1473 C 0.54661 0.16228 0.16183 0.0
C1474 C 0.51412 0.17056 0.22892 0.0
C1475 C 0.55984 0.1512 0.13553 0.0
C1476 C 0.4924 0.1688 0.3991 0.0
C1477 C 0.50576 0.175 0.368 0.0
C1478 C 0.53192 0.18897 0.29736 0.0
C1479 C 0.55015 0.16144 0.20336 0.0
C1480 C 0.53618 0.17259 0.23196 0.0
C1481 C 0.49744 0.18482 0.33362 0.0
C1482 C 0.51009 0.18485 0.2962 0.0
H1483 H 0.59212 0.12799 0.20463 0.0
H1484 H 0.56919 0.14716 0.25011 0.0
H1485 H 0.56183 0.18503 0.26814 0.0
H1486 H 0.44577 0.18743 0.36174 0.0
H1487 H 0.4692 0.19838 0.30727 0.0
C1488 C 0.63681 0.58125 0.94282 0.0
C1489 C 0.63767 0.57837 0.90106 0.0
C1490 C 0.64816 0.5681 0.96845 0.0
C1491 C 0.68156 0.54447 0.01527 0.0
H1492 H 0.67138 0.48449 0.00227 0.0
C1493 C 0.68348 0.4589 0.10318 0.0
C1494 C 0.67275 0.46584 0.13769 0.0
C1495 C 0.68931 0.4733 0.07349 0.0
C1496 C 0.67506 0.5011 0.00593 0.0
H1497 H 0.65086 0.55863 0.85394 0.0
H1498 H 0.67048 0.53561 0.89878 0.0
H1499 H 0.66097 0.50864 0.94954 0.0
H1500 H 0.66249 0.49345 0.17079 0.0
H1501 H 0.67195 0.51847 0.11864 0.0
H1502 H 0.69468 0.53697 0.07268 0.0
C1503 C 0.66115 0.54832 0.91145 0.0
C1504 C 0.66896 0.51497 0.97564 0.0
C1505 C 0.64981 0.56154 0.88573 0.0
C1506 C 0.67032 0.48763 0.14409 0.0
C1507 C 0.676 0.502 0.11429 0.0
C1508 C 0.68776 0.53057 0.04556 0.0
C1509 C 0.66054 0.55158 0.95304 0.0
C1510 C 0.67123 0.53685 0.98086 0.0
C1511 C 0.68434 0.49483 0.07764 0.0
C1512 C 0.68363 0.50883 0.04202 0.0
H1513 H 0.62725 0.59362 0.95595 0.0
H1514 H 0.64684 0.57057 0.00048 0.0
H1515 H 0.6839 0.56128 0.01961 0.0
H1516 H 0.68565 0.44221 0.0973 0.0
H1517 H 0.69616 0.46736 0.04594 0.0
C1518 C 0.4554 0.33368 0.86988 0.0
C1519 C 0.46317 0.34374 0.83531 0.0
C1520 C 0.46922 0.32775 0.90052 0.0
C1521 C 0.52628 0.32701 0.93049 0.0
H1522 H 0.50504 0.35584 0.02493 0.0
C1523 C 0.5593 0.36486 0.0888 0.0
C1524 C 0.57646 0.37624 0.07262 0.0
C1525 C 0.54522 0.3541 0.06366 0.0
C1526 C 0.51112 0.34728 -0.00072 0.0
H1527 H 0.49156 0.35288 0.80328 0.0
H1528 H 0.51563 0.34304 0.85684 0.0
H1529 H 0.48066 0.34598 0.97185 0.0
H1530 H 0.59136 0.38616 0.01707 0.0
H1531 H 0.56699 0.36745 0.97363 0.0
H1532 H 0.55702 0.32978 0.95703 0.0
C1533 C 0.49895 0.33961 0.86056 0.0
C1534 C 0.49713 0.3415 0.96882 0.0
C1535 C 0.48514 0.34546 0.82991 0.0
C1536 C 0.57875 0.37711 0.03075 0.0
C1537 C 0.56483 0.36628 0.00577 0.0
C1538 C 0.54028 0.33289 0.96088 0.0
C1539 C 0.49101 0.33188 0.89713 0.0
C1540 C 0.50471 0.33223 0.93324 0.0
C1541 C 0.54807 0.35448 0.02194 0.0
C1542 C 0.53293 0.34397 -0.00537 0.0
H1543 H 0.43853 0.33213 0.87497 0.0
H1544 H 0.46269 0.32144 0.92805 0.0
H1545 H 0.53253 0.31953 0.90379 0.0
H1546 H 0.55689 0.36385 0.12079 0.0
H1547 H 0.53227 0.34527 0.07684 0.0
C1548 C 0.36251 0.454 0.89183 0.0
C1549 C 0.37627 0.43806 0.90544 0.0
C1550 C 0.35128 0.46646 0.91918 0.0
C1551 C 0.34269 0.49859 0.98635 0.0
H1552 H 0.32282 0.4727 0.08488 0.0
C1553 C 0.34908 0.52192 0.15498 0.0
C1554 C 0.34411 0.54345 0.15194 0.0
C1555 C 0.34248 0.50784 0.12538 0.0
C1556 C 0.32798 0.48015 0.05733 0.0
H1557 H 0.39008 0.4238 0.95845 0.0
H1558 H 0.37069 0.44547 0.00583 0.0
H1559 H 0.33316 0.45041 0.02842 0.0
H1560 H 0.32628 0.56679 0.1185 0.0
H1561 H 0.31457 0.5421 0.06681 0.0
H1562 H 0.339 0.52823 0.01595 0.0
C1563 C 0.36796 0.44783 0.97409 0.0
C1564 C 0.33397 0.46742 0.02512 0.0
C1565 C 0.37919 0.4355 0.94689 0.0
C1566 C 0.33031 0.55023 0.12154 0.0
C1567 C 0.32375 0.53615 0.09178 0.0
C1568 C 0.33675 0.51132 0.01858 0.0
C1569 C 0.35364 0.4632 0.96057 0.0
C1570 C 0.34244 0.47652 -0.00982 0.0
C1571 C 0.33087 0.51512 0.09215 0.0
C1572 C 0.33042 0.50218 0.05514 0.0
H1573 H 0.35994 0.45653 0.86022 0.0
H1574 H 0.3405 0.47839 0.90799 0.0
H1575 H 0.34917 0.50601 0.95978 0.0
H1576 H 0.35959 0.51633 0.17835 0.0
H1577 H 0.34832 0.49177 0.12658 0.0
C1578 C 0.45067 0.65015 0.08294 0.0
C1579 C 0.43501 0.6358 0.07025 0.0
C1580 C 0.46275 0.66133 0.05494 0.0
C1581 C 0.49479 0.66984 0.98813 0.0
H1582 H 0.46927 0.68733 0.88771 0.0
C1583 C 0.52063 0.66348 0.8202 0.0
C1584 C 0.54193 0.6694 0.8242 0.0
C1585 C 0.50588 0.66944 0.84912 0.0
C1586 C 0.4766 0.68281 0.91576 0.0
H1587 H 0.42061 0.62122 0.01809 0.0
H1588 H 0.4417 0.64048 0.96949 0.0
H1589 H 0.44668 0.67692 0.94377 0.0
H1590 H 0.56408 0.68826 0.85863 0.0
H1591 H 0.53819 0.6989 0.90908 0.0
H1592 H 0.52466 0.67435 0.9596 0.0
C1593 C 0.44415 0.64365 0.00106 0.0
C1594 C 0.46371 0.67676 0.94775 0.0
C1595 C 0.43215 0.63249 0.02896 0.0
C1596 C 0.54773 0.68349 0.85486 0.0
C1597 C 0.53296 0.68942 0.88392 0.0
C1598 C 0.50768 0.67585 0.95616 0.0
C1599 C 0.45943 0.65834 0.0137 0.0
C1600 C 0.47271 0.66923 0.98353 0.0
C1601 C 0.51222 0.68137 0.88263 0.0
C1602 C 0.49873 0.68139 0.91899 0.0
H1603 H 0.45335 0.65312 0.11437 0.0
H1604 H 0.47451 0.67248 0.06552 0.0
H1605 H 0.50218 0.66408 0.0153 0.0
H1606 H 0.51579 0.65275 0.7966 0.0
H1607 H 0.49006 0.6629 0.84719 0.0
C1608 C 0.67153 0.032 0.09033 0.0
C1609 C 0.67352 0.05409 0.0913 0.0
C1610 C 0.67871 0.0198 0.12236 0.0
C1611 C 0.68384 0.02659 0.23021 0.0
H1612 H 0.69518 0.96653 0.22461 0.0
C1613 C 0.64694 0.96727 0.33792 0.0
C1614 C 0.65687 0.94783 0.34438 0.0
C1615 C 0.65641 0.98231 0.31305 0.0
C1616 C 0.6925 0.98337 0.22716 0.0
H1617 H 0.68668 0.08048 0.12472 0.0
H1618 H 0.69987 0.0591 0.17977 0.0
H1619 H 0.70117 0.98842 0.16594 0.0
H1620 H 0.68526 0.92947 0.33414 0.0
H1621 H 0.70218 0.95591 0.29155 0.0
H1622 H 0.67478 0.02148 0.2912 0.0
C1623 C 0.69223 0.05127 0.15478 0.0
C1624 C 0.69571 0.99588 0.19327 0.0
C1625 C 0.68489 0.06349 0.12289 0.0
C1626 C 0.67713 0.94423 0.3285 0.0
C1627 C 0.68677 0.95935 0.30421 0.0
C1628 C 0.68081 0.01412 0.26421 0.0
C1629 C 0.68819 0.02944 0.15588 0.0
C1630 C 0.69039 0.01742 0.19384 0.0
C1631 C 0.67614 0.97821 0.29485 0.0
C1632 C 0.68409 0.9922 0.26246 0.0
H1633 H 0.66318 0.02427 0.06605 0.0
H1634 H 0.67524 1.00304 0.12213 0.0
H1635 H 0.67949 0.04312 0.23181 0.0
H1636 H 0.63135 0.97026 0.35014 0.0
H1637 H 0.64764 0.99655 0.30622 0.0
C1638 C 0.93438 0.38137 0.69308 0.0
C1639 C 0.93757 0.37852 0.65175 0.0
C1640 C 0.94654 0.37033 0.72087 0.0
C1641 C 0.96693 0.33771 0.77384 0.0
H1642 H 0.02782 0.34187 0.76227 0.0
C1643 C 0.05093 0.33363 0.86697 0.0
C1644 C 0.0448 0.34781 0.89722 0.0
C1645 C 0.03632 0.32712 0.83807 0.0
C1646 C 0.01087 0.33988 0.76562 0.0
H1647 H 0.95676 0.36223 0.6075 0.0
H1648 H 0.97808 0.34302 0.65613 0.0
H1649 H 1.00517 0.35157 0.70654 0.0
H1650 H 0.01829 0.3641 0.92429 0.0
H1651 H 0.99283 0.35297 0.87389 0.0
H1652 H 0.9727 0.32734 0.83394 0.0
C1653 C 0.96593 0.3537 0.66684 0.0
C1654 C 0.99787 0.34555 0.73362 0.0
C1655 C 0.95373 0.36479 0.63895 0.0
C1656 C 0.02339 0.35332 0.90096 0.0
C1657 C 1.00879 0.34678 0.8722 0.0
C1658 C 0.97994 0.33204 0.80589 0.0
C1659 C 0.96229 0.35622 0.70809 0.0
C1660 C 0.97579 0.34555 0.73816 0.0
C1661 C 0.01542 0.33469 0.83912 0.0
C1662 C 1.00201 0.33412 0.80273 0.0
H1663 H 0.92248 0.3922 0.70409 0.0
H1664 H 0.94383 0.37318 0.75248 0.0
H1665 H 0.94991 0.33707 0.77776 0.0
H1666 H 0.06737 0.32915 0.8634 0.0
H1667 H 0.04177 0.31756 0.81319 0.0
C1668 C 0.38138 0.07867 0.29181 0.0
C1669 C 0.38096 0.0759 0.33362 0.0
C1670 C 0.37082 0.06466 0.2666 0.0
C1671 C 0.33823 0.03917 0.22137 0.0
H1672 H 0.35241 0.97991 0.23225 0.0
C1673 C 0.33873 0.95409 0.1313 0.0
C1674 C 0.34815 0.96173 0.09596 0.0
C1675 C 0.33328 0.968 0.16207 0.0
C1676 C 0.34765 0.99627 0.22925 0.0
H1677 H 0.36959 0.05543 0.38131 0.0
H1678 H 0.35141 0.03079 0.33704 0.0
H1679 H 0.3622 1.00445 0.28498 0.0
H1680 H 0.35665 0.98997 0.06297 0.0
H1681 H 0.34771 0.01419 0.11686 0.0
H1682 H 0.3246 0.03112 0.16464 0.0
C1683 C 0.35972 0.04412 0.32408 0.0
C1684 C 0.35338 0.01036 0.2595 0.0
C1685 C 0.37024 0.05825 0.34943 0.0
C1686 C 0.34976 0.98364 0.0902 0.0
C1687 C 0.34441 0.99754 0.12101 0.0
C1688 C 0.3324 0.02506 0.19115 0.0
C1689 C 0.35973 0.04736 0.28245 0.0
C1690 C 0.3496 0.03206 0.25495 0.0
C1691 C 0.33725 0.98975 0.15811 0.0
C1692 C 0.33794 1.00361 0.19393 0.0
H1693 H 0.38993 0.09167 0.27836 0.0
H1694 H 0.37169 0.06716 0.23452 0.0
H1695 H 0.33473 0.05581 0.21758 0.0
H1696 H 0.33727 0.93728 0.13671 0.0
H1697 H 0.3274 0.96159 0.19004 0.0
C1698 C 0.08223 0.64807 0.6884 0.0
C1699 C 0.0785 0.64681 0.647 0.0
C1700 C 0.06732 0.65718 0.71381 0.0
C1701 C 0.03845 0.68637 0.75929 0.0
H1702 H 0.98047 0.66694 0.75009 0.0
C1703 C 0.95359 0.68134 0.85008 0.0
C1704 C 0.96161 0.67224 0.88536 0.0
C1705 C 0.96729 0.68714 0.81914 0.0
C1706 C 0.99643 0.67308 0.75258 0.0
H1707 H 0.05601 0.65397 0.5998 0.0
H1708 H 0.0298 0.66985 0.64438 0.0
H1709 H 1.00563 0.65859 0.69741 0.0
H1710 H 0.99017 0.66444 0.91803 0.0
H1711 H 0.0141 0.67439 0.86404 0.0
H1712 H 0.02945 0.69974 0.81577 0.0
C1713 C 0.04434 0.66374 0.65708 0.0
C1714 C 0.01089 0.66821 0.72236 0.0
C1715 C 0.0593 0.65454 0.63158 0.0
C1716 C 0.98361 0.67124 0.89095 0.0
C1717 C 0.9973 0.67709 0.86008 0.0
C1718 C 0.024 0.69119 0.7896 0.0
C1719 C 0.04829 0.66529 0.69844 0.0
C1720 C 0.03224 0.67403 0.72624 0.0
C1721 C 0.9892 0.68397 0.82307 0.0
C1722 C 1.00306 0.68384 0.78728 0.0
H1723 H 0.09671 0.64193 0.70122 0.0
H1724 H 0.07058 0.65753 0.74568 0.0
H1725 H 0.05472 0.69151 0.76258 0.0
H1726 H 0.93668 0.68223 0.84488 0.0
H1727 H 0.96065 0.69267 0.79111 0.0
loop_
_geom_bond_atom_site_label_1
_geom_bond_atom_site_label_2
_geom_bond_distance
_geom_bond_site_symmetry_2
_ccdc_geom_bond_type
C0 C1 1.351 . S
C0 N3 1.368 . S
C0 H5 0.931 . S
C1 C0 1.351 . S
C1 N2 1.373 . S
C1 H29 0.930 . S
N2 C1 1.373 . S
N2 C4 1.340 . S
N3 C0 1.368 . S
N3 C4 1.321 . S
N3 Co6 2.135 . S
C4 N2 1.340 . S
C4 N3 1.321 . S
C4 H28 0.930 . S
H5 C0 0.931 . S
Co6 N3 2.135 . S
Co6 N9 2.121 . S
Co6 O14 2.055 . S
Co6 O17 2.039 . S
Co6 N20 2.140 . S
C7 O8 1.227 . S
C7 O17 1.265 . S
O8 C7 1.227 . S
N9 Co6 2.121 . S
N9 C11 1.375 . S
N9 C12 1.313 . S
C10 C11 1.338 . S
C10 N13 1.377 . S
C10 H30 0.930 . S
C11 N9 1.375 . S
C11 C10 1.338 . S
C11 H15 0.931 . S
C12 N9 1.313 . S
C12 N13 1.344 . S
C12 H16 0.930 . S
N13 C10 1.377 . S
N13 C12 1.344 . S
O14 Co6 2.055 . S
O14 C18 1.253 . S
H15 C11 0.931 . S
H16 C12 0.930 . S
O17 Co6 2.039 . S
O17 C7 1.265 . S
C18 O14 1.253 . S
C18 O19 1.227 . S
O19 C18 1.227 . S
N20 Co6 2.140 . S
N20 C23 1.346 . S
N20 C24 1.345 . S
C21 C22 1.387 . S
C21 C25 1.391 . S
C22 C21 1.387 . S
C22 C23 1.369 . S
C22 H31 0.929 . S
C23 N20 1.346 . S
C23 C22 1.369 . S
C23 H26 0.928 . S
C24 N20 1.345 . S
C24 C25 1.371 . S
C24 H27 0.931 . S
C25 C21 1.391 . S
C25 C24 1.371 . S
C25 H32 0.930 . S
H26 C23 0.928 . S
H27 C24 0.931 . S
H28 C4 0.930 . S
H29 C1 0.930 . S
H30 C10 0.930 . S
H31 C22 0.929 . S
H32 C25 0.930 . S
C33 C34 1.351 . S
C33 N36 1.368 . S
C33 H38 0.931 . S
C34 C33 1.351 . S
C34 N35 1.373 . S
C34 H62 0.930 . S
N35 C34 1.373 . S
N35 C37 1.340 . S
N36 C33 1.368 . S
N36 C37 1.321 . S
N36 Co39 2.135 . S
C37 N35 1.340 . S
C37 N36 1.321 . S
C37 H61 0.930 . S
H38 C33 0.931 . S
Co39 N36 2.135 . S
Co39 N42 2.121 . S
Co39 O47 2.055 . S
Co39 O50 2.039 . S
Co39 N53 2.140 . S
C40 O41 1.227 . S
C40 O50 1.265 . S
O41 C40 1.227 . S
N42 Co39 2.121 . S
N42 C44 1.375 . S
N42 C45 1.313 . S
C43 C44 1.338 . S
C43 N46 1.377 . S
C43 H63 0.930 . S
C44 N42 1.375 . S
C44 C43 1.338 . S
C44 H48 0.931 . S
C45 N42 1.313 . S
C45 N46 1.344 . S
C45 H49 0.930 . S
N46 C43 1.377 . S
N46 C45 1.344 . S
O47 Co39 2.055 . S
O47 C51 1.253 . S
H48 C44 0.931 . S
H49 C45 0.930 . S
O50 Co39 2.039 . S
O50 C40 1.265 . S
C51 O47 1.253 . S
C51 O52 1.227 . S
O52 C51 1.227 . S
N53 Co39 2.140 . S
N53 C56 1.346 . S
N53 C57 1.345 . S
C54 C55 1.387 . S
C54 C58 1.391 . S
C55 C54 1.387 . S
C55 C56 1.369 . S
C55 H64 0.929 . S
C56 N53 1.346 . S
C56 C55 1.369 . S
C56 H59 0.928 . S
C57 N53 1.345 . S
C57 C58 1.371 . S
C57 H60 0.931 . S
C58 C54 1.391 . S
C58 C57 1.371 . S
C58 H65 0.930 . S
H59 C56 0.928 . S
H60 C57 0.931 . S
H61 C37 0.930 . S
H62 C34 0.930 . S
H63 C43 0.930 . S
H64 C55 0.929 . S
H65 C58 0.930 . S
C66 C67 1.351 . S
C66 N69 1.368 . S
C66 H71 0.931 . S
C67 C66 1.351 . S
C67 N68 1.373 . S
C67 H95 0.930 . S
N68 C67 1.373 . S
N68 C70 1.340 . S
N69 C66 1.368 . S
N69 C70 1.321 . S
N69 Co72 2.135 . S
C70 N68 1.340 . S
C70 N69 1.321 . S
C70 H94 0.930 . S
H71 C66 0.931 . S
Co72 N69 2.135 . S
Co72 N75 2.121 . S
Co72 O80 2.055 . S
Co72 O83 2.039 . S
Co72 N86 2.140 . S
C73 O74 1.227 . S
C73 O83 1.265 . S
O74 C73 1.227 . S
N75 Co72 2.121 . S
N75 C77 1.375 . S
N75 C78 1.313 . S
C76 C77 1.338 . S
C76 N79 1.377 . S
C76 H96 0.930 . S
C77 N75 1.375 . S
C77 C76 1.338 . S
C77 H81 0.931 . S
C78 N75 1.313 . S
C78 N79 1.344 . S
C78 H82 0.930 . S
N79 C76 1.377 . S
N79 C78 1.344 . S
O80 Co72 2.055 . S
O80 C84 1.253 . S
H81 C77 0.931 . S
H82 C78 0.930 . S
O83 Co72 2.039 . S
O83 C73 1.265 . S
C84 O80 1.253 . S
C84 O85 1.227 . S
O85 C84 1.227 . S
N86 Co72 2.140 . S
N86 C89 1.346 . S
N86 C90 1.345 . S
C87 C88 1.387 . S
C87 C91 1.391 . S
C88 C87 1.387 . S
C88 C89 1.369 . S
C88 H97 0.929 . S
C89 N86 1.346 . S
C89 C88 1.369 . S
C89 H92 0.928 . S
C90 N86 1.345 . S
C90 C91 1.371 . S
C90 H93 0.931 . S
C91 C87 1.391 . S
C91 C90 1.371 . S
C91 H98 0.930 . S
H92 C89 0.928 . S
H93 C90 0.931 . S
H94 C70 0.930 . S
H95 C67 0.930 . S
H96 C76 0.930 . S
H97 C88 0.929 . S
H98 C91 0.930 . S
C99 C100 1.351 . S
C99 N102 1.368 . S
C99 H104 0.931 . S
C100 C99 1.351 . S
C100 N101 1.373 . S
C100 H128 0.930 . S
N101 C100 1.373 . S
N101 C103 1.340 . S
N102 C99 1.368 . S
N102 C103 1.321 . S
N102 Co105 2.135 . S
C103 N101 1.340 . S
C103 N102 1.321 . S
C103 H127 0.930 . S
H104 C99 0.931 . S
Co105 N102 2.135 . S
Co105 N108 2.121 . S
Co105 O113 2.055 . S
Co105 O116 2.039 . S
Co105 N119 2.140 . S
C106 O107 1.227 . S
C106 O116 1.265 . S
O107 C106 1.227 . S
N108 Co105 2.121 . S
N108 C110 1.375 . S
N108 C111 1.313 . S
C109 C110 1.338 . S
C109 N112 1.377 . S
C109 H129 0.930 . S
C110 N108 1.375 . S
C110 C109 1.338 . S
C110 H114 0.931 . S
C111 N108 1.313 . S
C111 N112 1.344 . S
C111 H115 0.930 . S
N112 C109 1.377 . S
N112 C111 1.344 . S
O113 Co105 2.055 . S
O113 C117 1.253 . S
H114 C110 0.931 . S
H115 C111 0.930 . S
O116 Co105 2.039 . S
O116 C106 1.265 . S
C117 O113 1.253 . S
C117 O118 1.227 . S
O118 C117 1.227 . S
N119 Co105 2.140 . S
N119 C122 1.346 . S
N119 C123 1.345 . S
C120 C121 1.387 . S
C120 C124 1.391 . S
C121 C120 1.387 . S
C121 C122 1.369 . S
C121 H130 0.929 . S
C122 N119 1.346 . S
C122 C121 1.369 . S
C122 H125 0.928 . S
C123 N119 1.345 . S
C123 C124 1.371 . S
C123 H126 0.931 . S
C124 C120 1.391 . S
C124 C123 1.371 . S
C124 H131 0.930 . S
H125 C122 0.928 . S
H126 C123 0.931 . S
H127 C103 0.930 . S
H128 C100 0.930 . S
H129 C109 0.930 . S
H130 C121 0.929 . S
H131 C124 0.930 . S
C132 C133 1.351 . S
C132 N135 1.368 . S
C132 H137 0.931 . S
C133 C132 1.351 . S
C133 N134 1.373 . S
C133 H161 0.930 . S
N134 C133 1.373 . S
N134 C136 1.340 . S
N135 C132 1.368 . S
N135 C136 1.321 . S
N135 Co138 2.135 . S
C136 N134 1.340 . S
C136 N135 1.321 . S
C136 H160 0.930 . S
H137 C132 0.931 . S
Co138 N135 2.135 . S
Co138 N141 2.121 1_556 S
Co138 O146 2.055 . S
Co138 O149 2.039 1_556 S
Co138 N152 2.140 . S
C139 O140 1.227 1_554 S
C139 O149 1.265 . S
O140 C139 1.227 1_556 S
N141 Co138 2.121 1_554 S
N141 C143 1.375 . S
N141 C144 1.313 . S
C142 C143 1.338 . S
C142 N145 1.377 . S
C142 H162 0.930 . S
C143 N141 1.375 . S
C143 C142 1.338 . S
C143 H147 0.931 . S
C144 N141 1.313 . S
C144 N145 1.344 . S
C144 H148 0.930 . S
N145 C142 1.377 . S
N145 C144 1.344 . S
O146 Co138 2.055 . S
O146 C150 1.253 . S
H147 C143 0.931 . S
H148 C144 0.930 . S
O149 Co138 2.039 1_554 S
O149 C139 1.265 . S
C150 O146 1.253 . S
C150 O151 1.227 . S
O151 C150 1.227 . S
N152 Co138 2.140 . S
N152 C155 1.346 . S
N152 C156 1.345 . S
C153 C154 1.387 . S
C153 C157 1.391 . S
C154 C153 1.387 . S
C154 C155 1.369 . S
C154 H163 0.929 . S
C155 N152 1.346 . S
C155 C154 1.369 . S
C155 H158 0.928 . S
C156 N152 1.345 . S
C156 C157 1.371 . S
C156 H159 0.931 . S
C157 C153 1.391 . S
C157 C156 1.371 . S
C157 H164 0.930 . S
H158 C155 0.928 . S
H159 C156 0.931 . S
H160 C136 0.930 . S
H161 C133 0.930 . S
H162 C142 0.930 . S
H163 C154 0.929 . S
H164 C157 0.930 . S
C165 C166 1.351 . S
C165 N168 1.368 . S
C165 H170 0.931 . S
C166 C165 1.351 . S
C166 N167 1.373 . S
C166 H194 0.930 . S
N167 C166 1.373 . S
N167 C169 1.340 . S
N168 C165 1.368 . S
N168 C169 1.321 . S
N168 Co171 2.135 . S
C169 N167 1.340 . S
C169 N168 1.321 . S
C169 H193 0.930 . S
H170 C165 0.931 . S
Co171 N168 2.135 . S
Co171 N174 2.121 1_554 S
Co171 O179 2.055 . S
Co171 O182 2.039 1_554 S
Co171 N185 2.140 . S
C172 O173 1.227 1_556 S
C172 O182 1.265 . S
O173 C172 1.227 1_554 S
N174 Co171 2.121 1_556 S
N174 C176 1.375 . S
N174 C177 1.313 . S
C175 C176 1.338 . S
C175 N178 1.377 . S
C175 H195 0.930 . S
C176 N174 1.375 . S
C176 C175 1.338 . S
C176 H180 0.931 . S
C177 N174 1.313 . S
C177 N178 1.344 . S
C177 H181 0.930 . S
N178 C175 1.377 . S
N178 C177 1.344 . S
O179 Co171 2.055 . S
O179 C183 1.253 . S
H180 C176 0.931 . S
H181 C177 0.930 . S
O182 Co171 2.039 1_556 S
O182 C172 1.265 . S
C183 O179 1.253 . S
C183 O184 1.227 . S
O184 C183 1.227 . S
N185 Co171 2.140 . S
N185 C188 1.346 . S
N185 C189 1.345 . S
C186 C187 1.387 . S
C186 C190 1.391 . S
C187 C186 1.387 . S
C187 C188 1.369 . S
C187 H196 0.929 . S
C188 N185 1.346 . S
C188 C187 1.369 . S
C188 H191 0.928 . S
C189 N185 1.345 . S
C189 C190 1.371 . S
C189 H192 0.931 . S
C190 C186 1.391 . S
C190 C189 1.371 . S
C190 H197 0.930 . S
H191 C188 0.928 . S
H192 C189 0.931 . S
H193 C169 0.930 . S
H194 C166 0.930 . S
H195 C175 0.930 . S
H196 C187 0.929 . S
H197 C190 0.930 . S
C198 C199 1.351 . S
C198 N201 1.368 . S
C198 H203 0.931 . S
C199 C198 1.351 . S
C199 N200 1.373 . S
C199 H227 0.930 . S
N200 C199 1.373 . S
N200 C202 1.340 . S
N201 C198 1.368 . S
N201 C202 1.321 . S
N201 Co204 2.135 . S
C202 N200 1.340 . S
C202 N201 1.321 . S
C202 H226 0.930 . S
H203 C198 0.931 . S
Co204 N201 2.135 . S
Co204 N207 2.121 1_556 S
Co204 O212 2.055 . S
Co204 O215 2.039 1_556 S
Co204 N218 2.140 . S
C205 O206 1.227 1_554 S
C205 O215 1.265 . S
O206 C205 1.227 1_556 S
N207 Co204 2.121 1_554 S
N207 C209 1.375 . S
N207 C210 1.313 . S
C208 C209 1.338 . S
C208 N211 1.377 . S
C208 H228 0.930 . S
C209 N207 1.375 . S
C209 C208 1.338 . S
C209 H213 0.931 . S
C210 N207 1.313 . S
C210 N211 1.344 . S
C210 H214 0.930 . S
N211 C208 1.377 . S
N211 C210 1.344 . S
O212 Co204 2.055 . S
O212 C216 1.253 . S
H213 C209 0.931 . S
H214 C210 0.930 . S
O215 Co204 2.039 1_554 S
O215 C205 1.265 . S
C216 O212 1.253 . S
C216 O217 1.227 . S
O217 C216 1.227 . S
N218 Co204 2.140 . S
N218 C221 1.346 . S
N218 C222 1.345 . S
C219 C220 1.387 . S
C219 C223 1.391 . S
C220 C219 1.387 . S
C220 C221 1.369 . S
C220 H229 0.929 . S
C221 N218 1.346 . S
C221 C220 1.369 . S
C221 H224 0.928 . S
C222 N218 1.345 . S
C222 C223 1.371 . S
C222 H225 0.931 . S
C223 C219 1.391 . S
C223 C222 1.371 . S
C223 H230 0.930 . S
H224 C221 0.928 . S
H225 C222 0.931 . S
H226 C202 0.930 . S
H227 C199 0.930 . S
H228 C208 0.930 . S
H229 C220 0.929 . S
H230 C223 0.930 . S
C231 C232 1.351 . S
C231 N234 1.368 . S
C231 H236 0.931 . S
C232 C231 1.351 . S
C232 N233 1.373 . S
C232 H260 0.930 . S
N233 C232 1.373 . S
N233 C235 1.340 . S
N234 C231 1.368 . S
N234 C235 1.321 . S
N234 Co237 2.135 . S
C235 N233 1.340 . S
C235 N234 1.321 . S
C235 H259 0.930 . S
H236 C231 0.931 . S
Co237 N234 2.135 . S
Co237 N240 2.121 1_554 S
Co237 O245 2.055 . S
Co237 O248 2.039 1_554 S
Co237 N251 2.140 . S
C238 O239 1.227 1_556 S
C238 O248 1.265 . S
O239 C238 1.227 1_554 S
N240 Co237 2.121 1_556 S
N240 C242 1.375 . S
N240 C243 1.313 . S
C241 C242 1.338 . S
C241 N244 1.377 . S
C241 H261 0.930 . S
C242 N240 1.375 . S
C242 C241 1.338 . S
C242 H246 0.931 . S
C243 N240 1.313 . S
C243 N244 1.344 . S
C243 H247 0.930 . S
N244 C241 1.377 . S
N244 C243 1.344 . S
O245 Co237 2.055 . S
O245 C249 1.253 . S
H246 C242 0.931 . S
H247 C243 0.930 . S
O248 Co237 2.039 1_556 S
O248 C238 1.265 . S
C249 O245 1.253 . S
C249 O250 1.227 . S
O250 C249 1.227 . S
N251 Co237 2.140 . S
N251 C254 1.346 . S
N251 C255 1.345 . S
C252 C253 1.387 . S
C252 C256 1.391 . S
C253 C252 1.387 . S
C253 C254 1.369 . S
C253 H262 0.929 . S
C254 N251 1.346 . S
C254 C253 1.369 . S
C254 H257 0.928 . S
C255 N251 1.345 . S
C255 C256 1.371 . S
C255 H258 0.931 . S
C256 C252 1.391 . S
C256 C255 1.371 . S
C256 H263 0.930 . S
H257 C254 0.928 . S
H258 C255 0.931 . S
H259 C235 0.930 . S
H260 C232 0.930 . S
H261 C241 0.930 . S
H262 C253 0.929 . S
H263 C256 0.930 . S
C264 C265 1.351 . S
C264 N267 1.368 . S
C264 H269 0.931 . S
C265 C264 1.351 . S
C265 N266 1.373 . S
C265 H293 0.930 . S
N266 C265 1.373 . S
N266 C268 1.340 . S
N267 C264 1.368 . S
N267 C268 1.321 . S
N267 Co270 2.135 . S
C268 N266 1.340 . S
C268 N267 1.321 . S
C268 H292 0.930 . S
H269 C264 0.931 . S
Co270 N267 2.135 . S
Co270 N273 2.121 . S
Co270 O278 2.055 . S
Co270 O281 2.039 . S
Co270 N284 2.140 . S
C271 O272 1.227 . S
C271 O281 1.265 . S
O272 C271 1.227 . S
N273 Co270 2.121 . S
N273 C275 1.375 . S
N273 C276 1.313 . S
C274 C275 1.338 . S
C274 N277 1.377 . S
C274 H294 0.930 . S
C275 N273 1.375 . S
C275 C274 1.338 . S
C275 H279 0.931 . S
C276 N273 1.313 . S
C276 N277 1.344 . S
C276 H280 0.930 . S
N277 C274 1.377 . S
N277 C276 1.344 . S
O278 Co270 2.055 . S
O278 C282 1.253 . S
H279 C275 0.931 . S
H280 C276 0.930 . S
O281 Co270 2.039 . S
O281 C271 1.265 . S
C282 O278 1.253 . S
C282 O283 1.227 . S
O283 C282 1.227 . S
N284 Co270 2.140 . S
N284 C287 1.346 . S
N284 C288 1.345 . S
C285 C286 1.387 . S
C285 C289 1.391 . S
C286 C285 1.387 . S
C286 C287 1.369 . S
C286 H295 0.929 . S
C287 N284 1.346 . S
C287 C286 1.369 . S
C287 H290 0.928 . S
C288 N284 1.345 . S
C288 C289 1.371 . S
C288 H291 0.931 . S
C289 C285 1.391 . S
C289 C288 1.371 . S
C289 H296 0.930 . S
H290 C287 0.928 . S
H291 C288 0.931 . S
H292 C268 0.930 . S
H293 C265 0.930 . S
H294 C274 0.930 . S
H295 C286 0.929 . S
H296 C289 0.930 . S
C297 C298 1.351 . S
C297 N300 1.368 . S
C297 H302 0.931 . S
C298 C297 1.351 . S
C298 N299 1.373 . S
C298 H326 0.930 . S
N299 C298 1.373 . S
N299 C301 1.340 . S
N300 C297 1.368 . S
N300 C301 1.321 . S
N300 Co303 2.135 . S
C301 N299 1.340 . S
C301 N300 1.321 . S
C301 H325 0.930 . S
H302 C297 0.931 . S
Co303 N300 2.135 . S
Co303 N306 2.121 . S
Co303 O311 2.055 . S
Co303 O314 2.039 . S
Co303 N317 2.140 . S
C304 O305 1.227 . S
C304 O314 1.265 . S
O305 C304 1.227 . S
N306 Co303 2.121 . S
N306 C308 1.375 . S
N306 C309 1.313 . S
C307 C308 1.338 . S
C307 N310 1.377 . S
C307 H327 0.930 . S
C308 N306 1.375 . S
C308 C307 1.338 . S
C308 H312 0.931 . S
C309 N306 1.313 . S
C309 N310 1.344 . S
C309 H313 0.930 . S
N310 C307 1.377 . S
N310 C309 1.344 . S
O311 Co303 2.055 . S
O311 C315 1.253 . S
H312 C308 0.931 . S
H313 C309 0.930 . S
O314 Co303 2.039 . S
O314 C304 1.265 . S
C315 O311 1.253 . S
C315 O316 1.227 . S
O316 C315 1.227 . S
N317 Co303 2.140 . S
N317 C320 1.346 . S
N317 C321 1.345 . S
C318 C319 1.387 . S
C318 C322 1.391 . S
C319 C318 1.387 . S
C319 C320 1.369 . S
C319 H328 0.929 . S
C320 N317 1.346 . S
C320 C319 1.369 . S
C320 H323 0.928 . S
C321 N317 1.345 . S
C321 C322 1.371 . S
C321 H324 0.931 . S
C322 C318 1.391 . S
C322 C321 1.371 . S
C322 H329 0.930 . S
H323 C320 0.928 . S
H324 C321 0.931 . S
H325 C301 0.930 . S
H326 C298 0.930 . S
H327 C307 0.930 . S
H328 C319 0.929 . S
H329 C322 0.930 . S
C330 C331 1.351 . S
C330 N333 1.368 . S
C330 H335 0.931 . S
C331 C330 1.351 . S
C331 N332 1.373 . S
C331 H359 0.930 . S
N332 C331 1.373 . S
N332 C334 1.340 . S
N333 C330 1.368 . S
N333 C334 1.321 . S
N333 Co336 2.135 . S
C334 N332 1.340 . S
C334 N333 1.321 . S
C334 H358 0.930 . S
H335 C330 0.931 . S
Co336 N333 2.135 . S
Co336 N339 2.121 . S
Co336 O344 2.055 . S
Co336 O347 2.039 . S
Co336 N350 2.140 . S
C337 O338 1.227 . S
C337 O347 1.265 . S
O338 C337 1.227 . S
N339 Co336 2.121 . S
N339 C341 1.375 . S
N339 C342 1.313 . S
C340 C341 1.338 . S
C340 N343 1.377 . S
C340 H360 0.930 . S
C341 N339 1.375 . S
C341 C340 1.338 . S
C341 H345 0.931 . S
C342 N339 1.313 . S
C342 N343 1.344 . S
C342 H346 0.930 . S
N343 C340 1.377 . S
N343 C342 1.344 . S
O344 Co336 2.055 . S
O344 C348 1.253 . S
H345 C341 0.931 . S
H346 C342 0.930 . S
O347 Co336 2.039 . S
O347 C337 1.265 . S
C348 O344 1.253 . S
C348 O349 1.227 . S
O349 C348 1.227 . S
N350 Co336 2.140 . S
N350 C353 1.346 . S
N350 C354 1.345 . S
C351 C352 1.387 . S
C351 C355 1.391 . S
C352 C351 1.387 . S
C352 C353 1.369 . S
C352 H361 0.929 . S
C353 N350 1.346 . S
C353 C352 1.369 . S
C353 H356 0.928 . S
C354 N350 1.345 . S
C354 C355 1.371 . S
C354 H357 0.931 . S
C355 C351 1.391 . S
C355 C354 1.371 . S
C355 H362 0.930 . S
H356 C353 0.928 . S
H357 C354 0.931 . S
H358 C334 0.930 . S
H359 C331 0.930 . S
H360 C340 0.930 . S
H361 C352 0.929 . S
H362 C355 0.930 . S
C363 C364 1.351 . S
C363 N366 1.368 . S
C363 H368 0.931 . S
C364 C363 1.351 . S
C364 N365 1.373 . S
C364 H392 0.930 . S
N365 C364 1.373 . S
N365 C367 1.340 . S
N366 C363 1.368 . S
N366 C367 1.321 . S
N366 Co369 2.135 . S
C367 N365 1.340 . S
C367 N366 1.321 . S
C367 H391 0.930 . S
H368 C363 0.931 . S
Co369 N366 2.135 . S
Co369 N372 2.121 . S
Co369 O377 2.055 . S
Co369 O380 2.039 . S
Co369 N383 2.140 . S
C370 O371 1.227 . S
C370 O380 1.265 . S
O371 C370 1.227 . S
N372 Co369 2.121 . S
N372 C374 1.375 . S
N372 C375 1.313 . S
C373 C374 1.338 . S
C373 N376 1.377 . S
C373 H393 0.930 . S
C374 N372 1.375 . S
C374 C373 1.338 . S
C374 H378 0.931 . S
C375 N372 1.313 . S
C375 N376 1.344 . S
C375 H379 0.930 . S
N376 C373 1.377 . S
N376 C375 1.344 . S
O377 Co369 2.055 . S
O377 C381 1.253 . S
H378 C374 0.931 . S
H379 C375 0.930 . S
O380 Co369 2.039 . S
O380 C370 1.265 . S
C381 O377 1.253 . S
C381 O382 1.227 . S
O382 C381 1.227 . S
N383 Co369 2.140 . S
N383 C386 1.346 . S
N383 C387 1.345 . S
C384 C385 1.387 . S
C384 C388 1.391 . S
C385 C384 1.387 . S
C385 C386 1.369 . S
C385 H394 0.929 . S
C386 N383 1.346 . S
C386 C385 1.369 . S
C386 H389 0.928 . S
C387 N383 1.345 . S
C387 C388 1.371 . S
C387 H390 0.931 . S
C388 C384 1.391 . S
C388 C387 1.371 . S
C388 H395 0.930 . S
H389 C386 0.928 . S
H390 C387 0.931 . S
H391 C367 0.930 . S
H392 C364 0.930 . S
H393 C373 0.930 . S
H394 C385 0.929 . S
H395 C388 0.930 . S
C396 C397 1.351 . S
C396 N399 1.368 . S
C396 H401 0.931 . S
C397 C396 1.351 . S
C397 N398 1.373 . S
C397 H425 0.930 . S
N398 C397 1.373 . S
N398 C400 1.340 . S
N399 C396 1.368 . S
N399 C400 1.321 . S
N399 Co402 2.135 . S
C400 N398 1.340 . S
C400 N399 1.321 . S
C400 H424 0.930 . S
H401 C396 0.931 . S
Co402 N399 2.135 . S
Co402 N405 2.121 . S
Co402 O410 2.055 . S
Co402 O413 2.039 . S
Co402 N416 2.140 . S
C403 O404 1.227 . S
C403 O413 1.265 . S
O404 C403 1.227 . S
N405 Co402 2.121 . S
N405 C407 1.375 . S
N405 C408 1.313 . S
C406 C407 1.338 . S
C406 N409 1.377 . S
C406 H426 0.930 . S
C407 N405 1.375 . S
C407 C406 1.338 . S
C407 H411 0.931 . S
C408 N405 1.313 . S
C408 N409 1.344 . S
C408 H412 0.930 . S
N409 C406 1.377 . S
N409 C408 1.344 . S
O410 Co402 2.055 . S
O410 C414 1.253 . S
H411 C407 0.931 . S
H412 C408 0.930 . S
O413 Co402 2.039 . S
O413 C403 1.265 . S
C414 O410 1.253 . S
C414 O415 1.227 . S
O415 C414 1.227 . S
N416 Co402 2.140 . S
N416 C419 1.346 . S
N416 C420 1.345 . S
C417 C418 1.387 . S
C417 C421 1.391 . S
C418 C417 1.387 . S
C418 C419 1.369 . S
C418 H427 0.929 . S
C419 N416 1.346 . S
C419 C418 1.369 . S
C419 H422 0.928 . S
C420 N416 1.345 . S
C420 C421 1.371 . S
C420 H423 0.931 . S
C421 C417 1.391 . S
C421 C420 1.371 . S
C421 H428 0.930 . S
H422 C419 0.928 . S
H423 C420 0.931 . S
H424 C400 0.930 . S
H425 C397 0.930 . S
H426 C406 0.930 . S
H427 C418 0.929 . S
H428 C421 0.930 . S
C429 C430 1.351 . S
C429 N432 1.368 . S
C429 H434 0.931 . S
C430 C429 1.351 . S
C430 N431 1.373 . S
C430 H458 0.930 . S
N431 C430 1.373 . S
N431 C433 1.340 . S
N432 C429 1.368 . S
N432 C433 1.321 . S
N432 Co435 2.135 . S
C433 N431 1.340 . S
C433 N432 1.321 . S
C433 H457 0.930 . S
H434 C429 0.931 . S
Co435 N432 2.135 . S
Co435 N438 2.121 . S
Co435 O443 2.055 . S
Co435 O446 2.039 . S
Co435 N449 2.140 . S
C436 O437 1.227 . S
C436 O446 1.265 . S
O437 C436 1.227 . S
N438 Co435 2.121 . S
N438 C440 1.375 . S
N438 C441 1.313 . S
C439 C440 1.338 . S
C439 N442 1.377 . S
C439 H459 0.930 . S
C440 N438 1.375 . S
C440 C439 1.338 . S
C440 H444 0.931 . S
C441 N438 1.313 . S
C441 N442 1.344 . S
C441 H445 0.930 . S
N442 C439 1.377 . S
N442 C441 1.344 . S
O443 Co435 2.055 . S
O443 C447 1.253 . S
H444 C440 0.931 . S
H445 C441 0.930 . S
O446 Co435 2.039 . S
O446 C436 1.265 . S
C447 O443 1.253 . S
C447 O448 1.227 . S
O448 C447 1.227 . S
N449 Co435 2.140 . S
N449 C452 1.346 . S
N449 C453 1.345 . S
C450 C451 1.387 . S
C450 C454 1.391 . S
C451 C450 1.387 . S
C451 C452 1.369 . S
C451 H460 0.929 . S
C452 N449 1.346 . S
C452 C451 1.369 . S
C452 H455 0.928 . S
C453 N449 1.345 . S
C453 C454 1.371 . S
C453 H456 0.931 . S
C454 C450 1.391 . S
C454 C453 1.371 . S
C454 H461 0.930 . S
H455 C452 0.928 . S
H456 C453 0.931 . S
H457 C433 0.930 . S
H458 C430 0.930 . S
H459 C439 0.930 . S
H460 C451 0.929 . S
H461 C454 0.930 . S
C462 C463 1.351 . S
C462 N465 1.368 . S
C462 H467 0.931 . S
C463 C462 1.351 . S
C463 N464 1.373 . S
C463 H491 0.930 . S
N464 C463 1.373 . S
N464 C466 1.340 . S
N465 C462 1.368 . S
N465 C466 1.321 . S
N465 Co468 2.135 . S
C466 N464 1.340 . S
C466 N465 1.321 . S
C466 H490 0.930 . S
H467 C462 0.931 . S
Co468 N465 2.135 . S
Co468 N471 2.121 . S
Co468 O476 2.055 . S
Co468 O479 2.039 . S
Co468 N482 2.140 . S
C469 O470 1.227 . S
C469 O479 1.265 . S
O470 C469 1.227 . S
N471 Co468 2.121 . S
N471 C473 1.375 . S
N471 C474 1.313 . S
C472 C473 1.338 . S
C472 N475 1.377 . S
C472 H492 0.930 . S
C473 N471 1.375 . S
C473 C472 1.338 . S
C473 H477 0.931 . S
C474 N471 1.313 . S
C474 N475 1.344 . S
C474 H478 0.930 . S
N475 C472 1.377 . S
N475 C474 1.344 . S
O476 Co468 2.055 . S
O476 C480 1.253 . S
H477 C473 0.931 . S
H478 C474 0.930 . S
O479 Co468 2.039 . S
O479 C469 1.265 . S
C480 O476 1.253 . S
C480 O481 1.227 . S
O481 C480 1.227 . S
N482 Co468 2.140 . S
N482 C485 1.346 . S
N482 C486 1.345 . S
C483 C484 1.387 . S
C483 C487 1.391 . S
C484 C483 1.387 . S
C484 C485 1.369 . S
C484 H493 0.929 . S
C485 N482 1.346 . S
C485 C484 1.369 . S
C485 H488 0.928 . S
C486 N482 1.345 . S
C486 C487 1.371 . S
C486 H489 0.931 . S
C487 C483 1.391 . S
C487 C486 1.371 . S
C487 H494 0.930 . S
H488 C485 0.928 . S
H489 C486 0.931 . S
H490 C466 0.930 . S
H491 C463 0.930 . S
H492 C472 0.930 . S
H493 C484 0.929 . S
H494 C487 0.930 . S
C495 C496 1.351 . S
C495 N498 1.368 . S
C495 H500 0.931 . S
C496 C495 1.351 . S
C496 N497 1.373 . S
C496 H524 0.930 . S
N497 C496 1.373 . S
N497 C499 1.340 . S
N498 C495 1.368 . S
N498 C499 1.321 . S
N498 Co501 2.135 . S
C499 N497 1.340 . S
C499 N498 1.321 . S
C499 H523 0.930 . S
H500 C495 0.931 . S
Co501 N498 2.135 . S
Co501 N504 2.121 . S
Co501 O509 2.055 . S
Co501 O512 2.039 . S
Co501 N515 2.140 . S
C502 O503 1.227 . S
C502 O512 1.265 . S
O503 C502 1.227 . S
N504 Co501 2.121 . S
N504 C506 1.375 . S
N504 C507 1.313 . S
C505 C506 1.338 . S
C505 N508 1.377 . S
C505 H525 0.930 . S
C506 N504 1.375 . S
C506 C505 1.338 . S
C506 H510 0.931 . S
C507 N504 1.313 . S
C507 N508 1.344 . S
C507 H511 0.930 . S
N508 C505 1.377 . S
N508 C507 1.344 . S
O509 Co501 2.055 . S
O509 C513 1.253 . S
H510 C506 0.931 . S
H511 C507 0.930 . S
O512 Co501 2.039 . S
O512 C502 1.265 . S
C513 O509 1.253 . S
C513 O514 1.227 . S
O514 C513 1.227 . S
N515 Co501 2.140 . S
N515 C518 1.346 . S
N515 C519 1.345 . S
C516 C517 1.387 . S
C516 C520 1.391 . S
C517 C516 1.387 . S
C517 C518 1.369 . S
C517 H526 0.929 . S
C518 N515 1.346 . S
C518 C517 1.369 . S
C518 H521 0.928 . S
C519 N515 1.345 . S
C519 C520 1.371 . S
C519 H522 0.931 . S
C520 C516 1.391 . S
C520 C519 1.371 . S
C520 H527 0.930 . S
H521 C518 0.928 . S
H522 C519 0.931 . S
H523 C499 0.930 . S
H524 C496 0.930 . S
H525 C505 0.930 . S
H526 C517 0.929 . S
H527 C520 0.930 . S
C528 C529 1.349 . S
C528 C530 1.327 . S
C528 H553 0.950 . S
C529 C528 1.349 . S
C529 C545 1.349 . S
C530 C528 1.327 . S
C530 C549 1.429 . S
C530 H554 0.950 . S
C531 C548 1.574 . S
C531 C550 1.368 . S
C531 H555 0.949 . S
H532 C536 0.949 . S
C533 C534 1.349 . S
C533 C535 1.327 . S
C533 H556 0.950 . S
C534 C533 1.349 . S
C534 C546 1.349 . S
C535 C533 1.327 . S
C535 C551 1.429 . S
C535 H557 0.950 . S
C536 H532 0.949 . S
C536 C544 1.574 . S
C536 C552 1.368 . S
H537 C545 0.950 . S
H538 C543 0.950 . S
H539 C544 0.949 . S
H540 C546 0.950 . S
H541 C547 0.950 . S
H542 C548 0.949 . S
C543 H538 0.950 . S
C543 C545 1.327 . S
C543 C549 1.429 . S
C544 C536 1.574 . S
C544 H539 0.949 . S
C544 C550 1.368 . S
C545 C529 1.349 . S
C545 H537 0.950 . S
C545 C543 1.327 . S
C546 C534 1.349 . S
C546 H540 0.950 . S
C546 C547 1.327 . S
C547 H541 0.950 . S
C547 C546 1.327 . S
C547 C551 1.429 . S
C548 C531 1.574 . S
C548 H542 0.949 . S
C548 C552 1.368 . S
C549 C530 1.429 . S
C549 C543 1.429 . S
C549 C550 1.523 . S
C550 C531 1.368 . S
C550 C544 1.368 . S
C550 C549 1.523 . S
C551 C535 1.429 . S
C551 C547 1.429 . S
C551 C552 1.523 . S
C552 C536 1.368 . S
C552 C548 1.368 . S
C552 C551 1.523 . S
H553 C528 0.950 . S
H554 C530 0.950 . S
H555 C531 0.949 . S
H556 C533 0.950 . S
H557 C535 0.950 . S
C558 C559 1.349 . S
C558 C560 1.327 . S
C558 H583 0.950 . S
C559 C558 1.349 . S
C559 C575 1.349 . S
C560 C558 1.327 . S
C560 C579 1.429 . S
C560 H584 0.950 . S
C561 C578 1.574 . S
C561 C580 1.368 . S
C561 H585 0.949 . S
H562 C566 0.949 . S
C563 C564 1.349 . S
C563 C565 1.327 . S
C563 H586 0.950 . S
C564 C563 1.349 . S
C564 C576 1.349 . S
C565 C563 1.327 . S
C565 C581 1.429 . S
C565 H587 0.950 . S
C566 H562 0.949 . S
C566 C574 1.574 . S
C566 C582 1.368 . S
H567 C575 0.950 . S
H568 C573 0.950 . S
H569 C574 0.949 . S
H570 C576 0.950 . S
H571 C577 0.950 . S
H572 C578 0.949 . S
C573 H568 0.950 . S
C573 C575 1.327 . S
C573 C579 1.429 . S
C574 C566 1.574 . S
C574 H569 0.949 . S
C574 C580 1.368 . S
C575 C559 1.349 . S
C575 H567 0.950 . S
C575 C573 1.327 . S
C576 C564 1.349 . S
C576 H570 0.950 . S
C576 C577 1.327 . S
C577 H571 0.950 . S
C577 C576 1.327 . S
C577 C581 1.429 . S
C578 C561 1.574 . S
C578 H572 0.949 . S
C578 C582 1.368 . S
C579 C560 1.429 . S
C579 C573 1.429 . S
C579 C580 1.523 . S
C580 C561 1.368 . S
C580 C574 1.368 . S
C580 C579 1.523 . S
C581 C565 1.429 . S
C581 C577 1.429 . S
C581 C582 1.523 . S
C582 C566 1.368 . S
C582 C578 1.368 . S
C582 C581 1.523 . S
H583 C558 0.950 . S
H584 C560 0.950 . S
H585 C561 0.949 . S
H586 C563 0.950 . S
H587 C565 0.950 . S
C588 C589 1.349 . S
C588 C590 1.327 . S
C588 H613 0.950 . S
C589 C588 1.349 . S
C589 C605 1.349 . S
C590 C588 1.327 . S
C590 C609 1.429 . S
C590 H614 0.950 . S
C591 C608 1.574 . S
C591 C610 1.368 . S
C591 H615 0.949 . S
H592 C596 0.949 . S
C593 C594 1.349 . S
C593 C595 1.327 . S
C593 H616 0.950 . S
C594 C593 1.349 . S
C594 C606 1.349 . S
C595 C593 1.327 . S
C595 C611 1.429 . S
C595 H617 0.950 . S
C596 H592 0.949 . S
C596 C604 1.574 . S
C596 C612 1.368 . S
H597 C605 0.950 . S
H598 C603 0.950 . S
H599 C604 0.949 . S
H600 C606 0.950 . S
H601 C607 0.950 . S
H602 C608 0.949 . S
C603 H598 0.950 . S
C603 C605 1.327 . S
C603 C609 1.429 . S
C604 C596 1.574 . S
C604 H599 0.949 . S
C604 C610 1.368 . S
C605 C589 1.349 . S
C605 H597 0.950 . S
C605 C603 1.327 . S
C606 C594 1.349 . S
C606 H600 0.950 . S
C606 C607 1.327 . S
C607 H601 0.950 . S
C607 C606 1.327 . S
C607 C611 1.429 . S
C608 C591 1.574 . S
C608 H602 0.949 . S
C608 C612 1.368 . S
C609 C590 1.429 . S
C609 C603 1.429 . S
C609 C610 1.523 . S
C610 C591 1.368 . S
C610 C604 1.368 . S
C610 C609 1.523 . S
C611 C595 1.429 . S
C611 C607 1.429 . S
C611 C612 1.523 . S
C612 C596 1.368 . S
C612 C608 1.368 . S
C612 C611 1.523 . S
H613 C588 0.950 . S
H614 C590 0.950 . S
H615 C591 0.949 . S
H616 C593 0.950 . S
H617 C595 0.950 . S
C618 C619 1.349 . S
C618 C620 1.327 . S
C618 H643 0.950 . S
C619 C618 1.349 . S
C619 C635 1.349 . S
C620 C618 1.327 . S
C620 C639 1.429 . S
C620 H644 0.950 . S
C621 C638 1.574 . S
C621 C640 1.368 . S
C621 H645 0.949 . S
H622 C626 0.949 . S
C623 C624 1.349 . S
C623 C625 1.327 . S
C623 H646 0.950 . S
C624 C623 1.349 . S
C624 C636 1.349 . S
C625 C623 1.327 . S
C625 C641 1.429 . S
C625 H647 0.950 . S
C626 H622 0.949 . S
C626 C634 1.574 . S
C626 C642 1.368 . S
H627 C635 0.950 . S
H628 C633 0.950 . S
H629 C634 0.949 . S
H630 C636 0.950 . S
H631 C637 0.950 . S
H632 C638 0.949 . S
C633 H628 0.950 . S
C633 C635 1.327 . S
C633 C639 1.429 . S
C634 C626 1.574 . S
C634 H629 0.949 . S
C634 C640 1.368 . S
C635 C619 1.349 . S
C635 H627 0.950 . S
C635 C633 1.327 . S
C636 C624 1.349 . S
C636 H630 0.950 . S
C636 C637 1.327 . S
C637 H631 0.950 . S
C637 C636 1.327 . S
C637 C641 1.429 . S
C638 C621 1.574 . S
C638 H632 0.949 . S
C638 C642 1.368 . S
C639 C620 1.429 . S
C639 C633 1.429 . S
C639 C640 1.523 . S
C640 C621 1.368 . S
C640 C634 1.368 . S
C640 C639 1.523 . S
C641 C625 1.429 . S
C641 C637 1.429 . S
C641 C642 1.523 . S
C642 C626 1.368 . S
C642 C638 1.368 . S
C642 C641 1.523 . S
H643 C618 0.950 . S
H644 C620 0.950 . S
H645 C621 0.949 . S
H646 C623 0.950 . S
H647 C625 0.950 . S
C648 C649 1.349 . S
C648 C650 1.327 . S
C648 H673 0.950 . S
C649 C648 1.349 . S
C649 C665 1.349 . S
C650 C648 1.327 . S
C650 C669 1.429 . S
C650 H674 0.950 . S
C651 C668 1.574 . S
C651 C670 1.368 . S
C651 H675 0.949 . S
H652 C656 0.949 . S
C653 C654 1.349 . S
C653 C655 1.327 . S
C653 H676 0.950 . S
C654 C653 1.349 . S
C654 C666 1.349 . S
C655 C653 1.327 . S
C655 C671 1.429 . S
C655 H677 0.950 . S
C656 H652 0.949 . S
C656 C664 1.574 . S
C656 C672 1.368 . S
H657 C665 0.950 . S
H658 C663 0.950 . S
H659 C664 0.949 . S
H660 C666 0.950 . S
H661 C667 0.950 . S
H662 C668 0.949 . S
C663 H658 0.950 . S
C663 C665 1.327 . S
C663 C669 1.429 . S
C664 C656 1.574 . S
C664 H659 0.949 . S
C664 C670 1.368 . S
C665 C649 1.349 . S
C665 H657 0.950 . S
C665 C663 1.327 . S
C666 C654 1.349 . S
C666 H660 0.950 . S
C666 C667 1.327 . S
C667 H661 0.950 . S
C667 C666 1.327 . S
C667 C671 1.429 . S
C668 C651 1.574 . S
C668 H662 0.949 . S
C668 C672 1.368 . S
C669 C650 1.429 . S
C669 C663 1.429 . S
C669 C670 1.523 . S
C670 C651 1.368 . S
C670 C664 1.368 . S
C670 C669 1.523 . S
C671 C655 1.429 . S
C671 C667 1.429 . S
C671 C672 1.523 . S
C672 C656 1.368 . S
C672 C668 1.368 . S
C672 C671 1.523 . S
H673 C648 0.950 . S
H674 C650 0.950 . S
H675 C651 0.949 . S
H676 C653 0.950 . S
H677 C655 0.950 . S
C678 C679 1.349 . S
C678 C680 1.327 . S
C678 H703 0.950 . S
C679 C678 1.349 . S
C679 C695 1.349 . S
C680 C678 1.327 . S
C680 C699 1.429 . S
C680 H704 0.950 . S
C681 C698 1.574 . S
C681 C700 1.368 . S
C681 H705 0.949 . S
H682 C686 0.949 . S
C683 C684 1.349 . S
C683 C685 1.327 . S
C683 H706 0.950 . S
C684 C683 1.349 . S
C684 C696 1.349 . S
C685 C683 1.327 . S
C685 C701 1.429 . S
C685 H707 0.950 . S
C686 H682 0.949 . S
C686 C694 1.574 . S
C686 C702 1.368 . S
H687 C695 0.950 . S
H688 C693 0.950 . S
H689 C694 0.949 . S
H690 C696 0.950 . S
H691 C697 0.950 . S
H692 C698 0.949 . S
C693 H688 0.950 . S
C693 C695 1.327 . S
C693 C699 1.429 . S
C694 C686 1.574 . S
C694 H689 0.949 . S
C694 C700 1.368 . S
C695 C679 1.349 . S
C695 H687 0.950 . S
C695 C693 1.327 . S
C696 C684 1.349 . S
C696 H690 0.950 . S
C696 C697 1.327 . S
C697 H691 0.950 . S
C697 C696 1.327 . S
C697 C701 1.429 . S
C698 C681 1.574 . S
C698 H692 0.949 . S
C698 C702 1.368 . S
C699 C680 1.429 . S
C699 C693 1.429 . S
C699 C700 1.523 . S
C700 C681 1.368 . S
C700 C694 1.368 . S
C700 C699 1.523 . S
C701 C685 1.429 . S
C701 C697 1.429 . S
C701 C702 1.523 . S
C702 C686 1.368 . S
C702 C698 1.368 . S
C702 C701 1.523 . S
H703 C678 0.950 . S
H704 C680 0.950 . S
H705 C681 0.949 . S
H706 C683 0.950 . S
H707 C685 0.950 . S
C708 C709 1.349 . S
C708 C710 1.327 . S
C708 H733 0.950 . S
C709 C708 1.349 . S
C709 C725 1.349 . S
C710 C708 1.327 . S
C710 C729 1.429 . S
C710 H734 0.950 . S
C711 C728 1.574 . S
C711 C730 1.368 . S
C711 H735 0.949 . S
H712 C716 0.949 . S
C713 C714 1.349 . S
C713 C715 1.327 . S
C713 H736 0.950 . S
C714 C713 1.349 . S
C714 C726 1.349 . S
C715 C713 1.327 . S
C715 C731 1.429 . S
C715 H737 0.950 . S
C716 H712 0.949 . S
C716 C724 1.574 . S
C716 C732 1.368 . S
H717 C725 0.950 . S
H718 C723 0.950 . S
H719 C724 0.949 . S
H720 C726 0.950 . S
H721 C727 0.950 . S
H722 C728 0.949 . S
C723 H718 0.950 . S
C723 C725 1.327 . S
C723 C729 1.429 . S
C724 C716 1.574 . S
C724 H719 0.949 . S
C724 C730 1.368 . S
C725 C709 1.349 . S
C725 H717 0.950 . S
C725 C723 1.327 . S
C726 C714 1.349 . S
C726 H720 0.950 . S
C726 C727 1.327 . S
C727 H721 0.950 . S
C727 C726 1.327 . S
C727 C731 1.429 . S
C728 C711 1.574 . S
C728 H722 0.949 . S
C728 C732 1.368 . S
C729 C710 1.429 . S
C729 C723 1.429 . S
C729 C730 1.523 . S
C730 C711 1.368 . S
C730 C724 1.368 . S
C730 C729 1.523 . S
C731 C715 1.429 . S
C731 C727 1.429 . S
C731 C732 1.523 . S
C732 C716 1.368 . S
C732 C728 1.368 . S
C732 C731 1.523 . S
H733 C708 0.950 . S
H734 C710 0.950 . S
H735 C711 0.949 . S
H736 C713 0.950 . S
H737 C715 0.950 . S
C738 C739 1.349 . S
C738 C740 1.327 . S
C738 H763 0.950 . S
C739 C738 1.349 . S
C739 C755 1.349 . S
C740 C738 1.327 . S
C740 C759 1.429 . S
C740 H764 0.950 . S
C741 C758 1.574 . S
C741 C760 1.368 . S
C741 H765 0.949 . S
H742 C746 0.949 . S
C743 C744 1.349 . S
C743 C745 1.327 . S
C743 H766 0.950 . S
C744 C743 1.349 . S
C744 C756 1.349 . S
C745 C743 1.327 . S
C745 C761 1.429 . S
C745 H767 0.950 . S
C746 H742 0.949 . S
C746 C754 1.574 . S
C746 C762 1.368 . S
H747 C755 0.950 . S
H748 C753 0.950 . S
H749 C754 0.949 . S
H750 C756 0.950 . S
H751 C757 0.950 . S
H752 C758 0.949 . S
C753 H748 0.950 . S
C753 C755 1.327 . S
C753 C759 1.429 . S
C754 C746 1.574 . S
C754 H749 0.949 . S
C754 C760 1.368 . S
C755 C739 1.349 . S
C755 H747 0.950 . S
C755 C753 1.327 . S
C756 C744 1.349 . S
C756 H750 0.950 . S
C756 C757 1.327 . S
C757 H751 0.950 . S
C757 C756 1.327 . S
C757 C761 1.429 . S
C758 C741 1.574 . S
C758 H752 0.949 . S
C758 C762 1.368 . S
C759 C740 1.429 . S
C759 C753 1.429 . S
C759 C760 1.523 . S
C760 C741 1.368 . S
C760 C754 1.368 . S
C760 C759 1.523 . S
C761 C745 1.429 . S
C761 C757 1.429 . S
C761 C762 1.523 . S
C762 C746 1.368 . S
C762 C758 1.368 . S
C762 C761 1.523 . S
H763 C738 0.950 . S
H764 C740 0.950 . S
H765 C741 0.949 . S
H766 C743 0.950 . S
H767 C745 0.950 . S
C768 C769 1.349 . S
C768 C770 1.327 . S
C768 H793 0.950 . S
C769 C768 1.349 . S
C769 C785 1.349 . S
C770 C768 1.327 . S
C770 C789 1.429 . S
C770 H794 0.950 . S
C771 C788 1.574 . S
C771 C790 1.368 . S
C771 H795 0.949 . S
H772 C776 0.949 . S
C773 C774 1.349 . S
C773 C775 1.327 . S
C773 H796 0.950 . S
C774 C773 1.349 . S
C774 C786 1.349 . S
C775 C773 1.327 . S
C775 C791 1.429 . S
C775 H797 0.950 . S
C776 H772 0.949 . S
C776 C784 1.574 . S
C776 C792 1.368 . S
H777 C785 0.950 . S
H778 C783 0.950 . S
H779 C784 0.949 . S
H780 C786 0.950 . S
H781 C787 0.950 . S
H782 C788 0.949 . S
C783 H778 0.950 . S
C783 C785 1.327 . S
C783 C789 1.429 . S
C784 C776 1.574 . S
C784 H779 0.949 . S
C784 C790 1.368 . S
C785 C769 1.349 . S
C785 H777 0.950 . S
C785 C783 1.327 . S
C786 C774 1.349 . S
C786 H780 0.950 . S
C786 C787 1.327 . S
C787 H781 0.950 . S
C787 C786 1.327 . S
C787 C791 1.429 . S
C788 C771 1.574 . S
C788 H782 0.949 . S
C788 C792 1.368 . S
C789 C770 1.429 . S
C789 C783 1.429 . S
C789 C790 1.523 . S
C790 C771 1.368 . S
C790 C784 1.368 . S
C790 C789 1.523 . S
C791 C775 1.429 . S
C791 C787 1.429 . S
C791 C792 1.523 . S
C792 C776 1.368 . S
C792 C788 1.368 . S
C792 C791 1.523 . S
H793 C768 0.950 . S
H794 C770 0.950 . S
H795 C771 0.949 . S
H796 C773 0.950 . S
H797 C775 0.950 . S
C798 C799 1.349 . S
C798 C800 1.327 . S
C798 H823 0.950 . S
C799 C798 1.349 . S
C799 C815 1.349 . S
C800 C798 1.327 . S
C800 C819 1.429 . S
C800 H824 0.950 . S
C801 C818 1.574 . S
C801 C820 1.368 . S
C801 H825 0.949 . S
H802 C806 0.949 . S
C803 C804 1.349 . S
C803 C805 1.327 . S
C803 H826 0.950 . S
C804 C803 1.349 . S
C804 C816 1.349 . S
C805 C803 1.327 . S
C805 C821 1.429 . S
C805 H827 0.950 . S
C806 H802 0.949 . S
C806 C814 1.574 . S
C806 C822 1.368 . S
H807 C815 0.950 . S
H808 C813 0.950 . S
H809 C814 0.949 . S
H810 C816 0.950 . S
H811 C817 0.950 . S
H812 C818 0.949 . S
C813 H808 0.950 . S
C813 C815 1.327 . S
C813 C819 1.429 . S
C814 C806 1.574 . S
C814 H809 0.949 . S
C814 C820 1.368 . S
C815 C799 1.349 . S
C815 H807 0.950 . S
C815 C813 1.327 . S
C816 C804 1.349 . S
C816 H810 0.950 . S
C816 C817 1.327 . S
C817 H811 0.950 . S
C817 C816 1.327 . S
C817 C821 1.429 . S
C818 C801 1.574 . S
C818 H812 0.949 . S
C818 C822 1.368 . S
C819 C800 1.429 . S
C819 C813 1.429 . S
C819 C820 1.523 . S
C820 C801 1.368 . S
C820 C814 1.368 . S
C820 C819 1.523 . S
C821 C805 1.429 . S
C821 C817 1.429 . S
C821 C822 1.523 . S
C822 C806 1.368 . S
C822 C818 1.368 . S
C822 C821 1.523 . S
H823 C798 0.950 . S
H824 C800 0.950 . S
H825 C801 0.949 . S
H826 C803 0.950 . S
H827 C805 0.950 . S
C828 C829 1.349 . S
C828 C830 1.327 . S
C828 H853 0.950 . S
C829 C828 1.349 . S
C829 C845 1.349 . S
C830 C828 1.327 . S
C830 C849 1.429 . S
C830 H854 0.950 . S
C831 C848 1.574 . S
C831 C850 1.368 . S
C831 H855 0.949 . S
H832 C836 0.949 . S
C833 C834 1.349 . S
C833 C835 1.327 . S
C833 H856 0.950 . S
C834 C833 1.349 . S
C834 C846 1.349 . S
C835 C833 1.327 . S
C835 C851 1.429 . S
C835 H857 0.950 . S
C836 H832 0.949 . S
C836 C844 1.574 . S
C836 C852 1.368 . S
H837 C845 0.950 . S
H838 C843 0.950 . S
H839 C844 0.949 . S
H840 C846 0.950 . S
H841 C847 0.950 . S
H842 C848 0.949 . S
C843 H838 0.950 . S
C843 C845 1.327 . S
C843 C849 1.429 . S
C844 C836 1.574 . S
C844 H839 0.949 . S
C844 C850 1.368 . S
C845 C829 1.349 . S
C845 H837 0.950 . S
C845 C843 1.327 . S
C846 C834 1.349 . S
C846 H840 0.950 . S
C846 C847 1.327 . S
C847 H841 0.950 . S
C847 C846 1.327 . S
C847 C851 1.429 . S
C848 C831 1.574 . S
C848 H842 0.949 . S
C848 C852 1.368 . S
C849 C830 1.429 . S
C849 C843 1.429 . S
C849 C850 1.523 . S
C850 C831 1.368 . S
C850 C844 1.368 . S
C850 C849 1.523 . S
C851 C835 1.429 . S
C851 C847 1.429 . S
C851 C852 1.523 . S
C852 C836 1.368 . S
C852 C848 1.368 . S
C852 C851 1.523 . S
H853 C828 0.950 . S
H854 C830 0.950 . S
H855 C831 0.949 . S
H856 C833 0.950 . S
H857 C835 0.950 . S
C858 C859 1.349 . S
C858 C860 1.327 . S
C858 H883 0.950 . S
C859 C858 1.349 . S
C859 C875 1.349 . S
C860 C858 1.327 . S
C860 C879 1.429 . S
C860 H884 0.950 . S
C861 C878 1.574 . S
C861 C880 1.368 . S
C861 H885 0.949 . S
H862 C866 0.949 . S
C863 C864 1.349 . S
C863 C865 1.327 . S
C863 H886 0.950 . S
C864 C863 1.349 . S
C864 C876 1.349 . S
C865 C863 1.327 . S
C865 C881 1.429 . S
C865 H887 0.950 . S
C866 H862 0.949 . S
C866 C874 1.574 . S
C866 C882 1.368 . S
H867 C875 0.950 . S
H868 C873 0.950 . S
H869 C874 0.949 . S
H870 C876 0.950 . S
H871 C877 0.950 . S
H872 C878 0.949 . S
C873 H868 0.950 . S
C873 C875 1.327 . S
C873 C879 1.429 . S
C874 C866 1.574 . S
C874 H869 0.949 . S
C874 C880 1.368 . S
C875 C859 1.349 . S
C875 H867 0.950 . S
C875 C873 1.327 . S
C876 C864 1.349 . S
C876 H870 0.950 . S
C876 C877 1.327 . S
C877 H871 0.950 . S
C877 C876 1.327 . S
C877 C881 1.429 . S
C878 C861 1.574 . S
C878 H872 0.949 . S
C878 C882 1.368 . S
C879 C860 1.429 . S
C879 C873 1.429 . S
C879 C880 1.523 . S
C880 C861 1.368 . S
C880 C874 1.368 . S
C880 C879 1.523 . S
C881 C865 1.429 . S
C881 C877 1.429 . S
C881 C882 1.523 . S
C882 C866 1.368 . S
C882 C878 1.368 . S
C882 C881 1.523 . S
H883 C858 0.950 . S
H884 C860 0.950 . S
H885 C861 0.949 . S
H886 C863 0.950 . S
H887 C865 0.950 . S
C888 C889 1.349 . S
C888 C890 1.327 . S
C888 H913 0.950 . S
C889 C888 1.349 . S
C889 C905 1.349 . S
C890 C888 1.327 . S
C890 C909 1.429 . S
C890 H914 0.950 . S
C891 C908 1.574 . S
C891 C910 1.368 . S
C891 H915 0.949 . S
H892 C896 0.949 . S
C893 C894 1.349 . S
C893 C895 1.327 . S
C893 H916 0.950 . S
C894 C893 1.349 . S
C894 C906 1.349 . S
C895 C893 1.327 . S
C895 C911 1.429 . S
C895 H917 0.950 . S
C896 H892 0.949 . S
C896 C904 1.574 . S
C896 C912 1.368 . S
H897 C905 0.950 . S
H898 C903 0.950 . S
H899 C904 0.949 . S
H900 C906 0.950 . S
H901 C907 0.950 . S
H902 C908 0.949 . S
C903 H898 0.950 . S
C903 C905 1.327 . S
C903 C909 1.429 . S
C904 C896 1.574 . S
C904 H899 0.949 . S
C904 C910 1.368 . S
C905 C889 1.349 . S
C905 H897 0.950 . S
C905 C903 1.327 . S
C906 C894 1.349 . S
C906 H900 0.950 . S
C906 C907 1.327 . S
C907 H901 0.950 . S
C907 C906 1.327 . S
C907 C911 1.429 . S
C908 C891 1.574 . S
C908 H902 0.949 . S
C908 C912 1.368 . S
C909 C890 1.429 . S
C909 C903 1.429 . S
C909 C910 1.523 . S
C910 C891 1.368 . S
C910 C904 1.368 . S
C910 C909 1.523 . S
C911 C895 1.429 . S
C911 C907 1.429 . S
C911 C912 1.523 . S
C912 C896 1.368 . S
C912 C908 1.368 . S
C912 C911 1.523 . S
H913 C888 0.950 . S
H914 C890 0.950 . S
H915 C891 0.949 . S
H916 C893 0.950 . S
H917 C895 0.950 . S
C918 C919 1.349 . S
C918 C920 1.327 . S
C918 H943 0.950 . S
C919 C918 1.349 . S
C919 C935 1.349 . S
C920 C918 1.327 . S
C920 C939 1.429 . S
C920 H944 0.950 . S
C921 C938 1.574 . S
C921 C940 1.368 . S
C921 H945 0.949 . S
H922 C926 0.949 . S
C923 C924 1.349 . S
C923 C925 1.327 . S
C923 H946 0.950 . S
C924 C923 1.349 . S
C924 C936 1.349 . S
C925 C923 1.327 . S
C925 C941 1.429 . S
C925 H947 0.950 . S
C926 H922 0.949 . S
C926 C934 1.574 . S
C926 C942 1.368 . S
H927 C935 0.950 . S
H928 C933 0.950 . S
H929 C934 0.949 . S
H930 C936 0.950 . S
H931 C937 0.950 . S
H932 C938 0.949 . S
C933 H928 0.950 . S
C933 C935 1.327 . S
C933 C939 1.429 . S
C934 C926 1.574 . S
C934 H929 0.949 . S
C934 C940 1.368 . S
C935 C919 1.349 . S
C935 H927 0.950 . S
C935 C933 1.327 . S
C936 C924 1.349 . S
C936 H930 0.950 . S
C936 C937 1.327 . S
C937 H931 0.950 . S
C937 C936 1.327 . S
C937 C941 1.429 . S
C938 C921 1.574 . S
C938 H932 0.949 . S
C938 C942 1.368 . S
C939 C920 1.429 . S
C939 C933 1.429 . S
C939 C940 1.523 . S
C940 C921 1.368 . S
C940 C934 1.368 . S
C940 C939 1.523 . S
C941 C925 1.429 . S
C941 C937 1.429 . S
C941 C942 1.523 . S
C942 C926 1.368 . S
C942 C938 1.368 . S
C942 C941 1.523 . S
H943 C918 0.950 . S
H944 C920 0.950 . S
H945 C921 0.949 . S
H946 C923 0.950 . S
H947 C925 0.950 . S
C948 C949 1.349 . S
C948 C950 1.327 . S
C948 H973 0.950 . S
C949 C948 1.349 . S
C949 C965 1.349 . S
C950 C948 1.327 . S
C950 C969 1.429 . S
C950 H974 0.950 . S
C951 C968 1.574 . S
C951 C970 1.368 . S
C951 H975 0.949 . S
H952 C956 0.949 . S
C953 C954 1.349 . S
C953 C955 1.327 . S
C953 H976 0.950 . S
C954 C953 1.349 . S
C954 C966 1.349 . S
C955 C953 1.327 . S
C955 C971 1.429 . S
C955 H977 0.950 . S
C956 H952 0.949 . S
C956 C964 1.574 . S
C956 C972 1.368 . S
H957 C965 0.950 . S
H958 C963 0.950 . S
H959 C964 0.949 . S
H960 C966 0.950 . S
H961 C967 0.950 . S
H962 C968 0.949 . S
C963 H958 0.950 . S
C963 C965 1.327 . S
C963 C969 1.429 . S
C964 C956 1.574 . S
C964 H959 0.949 . S
C964 C970 1.368 . S
C965 C949 1.349 . S
C965 H957 0.950 . S
C965 C963 1.327 . S
C966 C954 1.349 . S
C966 H960 0.950 . S
C966 C967 1.327 . S
C967 H961 0.950 . S
C967 C966 1.327 . S
C967 C971 1.429 . S
C968 C951 1.574 . S
C968 H962 0.949 . S
C968 C972 1.368 . S
C969 C950 1.429 . S
C969 C963 1.429 . S
C969 C970 1.523 . S
C970 C951 1.368 . S
C970 C964 1.368 . S
C970 C969 1.523 . S
C971 C955 1.429 . S
C971 C967 1.429 . S
C971 C972 1.523 . S
C972 C956 1.368 . S
C972 C968 1.368 . S
C972 C971 1.523 . S
H973 C948 0.950 . S
H974 C950 0.950 . S
H975 C951 0.949 . S
H976 C953 0.950 . S
H977 C955 0.950 . S
C978 C979 1.349 . S
C978 C980 1.327 . S
C978 H1003 0.936 1_554 S
C979 C978 1.349 . S
C979 C995 1.349 . S
C980 C978 1.327 . S
C980 C999 1.429 . S
C980 H1004 0.950 . S
C981 C998 1.574 . S
C981 C1000 1.368 . S
C981 H1005 0.949 . S
H982 C986 0.949 . S
C983 C984 1.349 . S
C983 C985 1.327 . S
C983 H1006 0.950 . S
C984 C983 1.349 . S
C984 C996 1.349 . S
C985 C983 1.327 . S
C985 C1001 1.429 . S
C985 H1007 0.950 . S
C986 H982 0.949 . S
C986 C994 1.574 . S
C986 C1002 1.368 . S
H987 C995 0.950 . S
H988 C993 0.950 . S
H989 C994 0.949 . S
H990 C996 0.950 . S
H991 C997 0.950 . S
H992 C998 0.949 . S
C993 H988 0.950 . S
C993 C995 1.327 . S
C993 C999 1.429 . S
C994 C986 1.574 . S
C994 H989 0.949 . S
C994 C1000 1.368 . S
C995 C979 1.349 . S
C995 H987 0.950 . S
C995 C993 1.327 . S
C996 C984 1.349 . S
C996 H990 0.950 . S
C996 C997 1.327 . S
C997 H991 0.950 . S
C997 C996 1.327 . S
C997 C1001 1.429 . S
C998 C981 1.574 . S
C998 H992 0.949 . S
C998 C1002 1.368 . S
C999 C980 1.429 . S
C999 C993 1.429 . S
C999 C1000 1.523 . S
C1000 C981 1.368 . S
C1000 C994 1.368 . S
C1000 C999 1.523 . S
C1001 C985 1.429 . S
C1001 C997 1.429 . S
C1001 C1002 1.523 . S
C1002 C986 1.368 . S
C1002 C998 1.368 . S
C1002 C1001 1.523 . S
H1003 C978 0.936 1_556 S
H1004 C980 0.950 . S
H1005 C981 0.949 . S
H1006 C983 0.950 . S
H1007 C985 0.950 . S
C1008 C1009 1.349 . S
C1008 C1010 1.327 . S
C1008 H1033 0.950 . S
C1009 C1008 1.349 . S
C1009 C1025 1.349 . S
C1010 C1008 1.327 . S
C1010 C1029 1.429 . S
C1010 H1034 0.950 . S
C1011 C1028 1.574 1_455 S
C1011 C1030 1.368 1_565 S
C1011 H1035 0.949 . S
H1012 C1016 0.949 . S
C1013 C1014 1.349 . S
C1013 C1015 1.327 . S
C1013 H1036 0.950 . S
C1014 C1013 1.349 . S
C1014 C1026 1.349 . S
C1015 C1013 1.327 . S
C1015 C1031 1.429 . S
C1015 H1037 0.950 . S
C1016 H1012 0.949 . S
C1016 C1024 1.574 1_655 S
C1016 C1032 1.368 1_545 S
H1017 C1025 0.950 . S
H1018 C1023 0.950 . S
H1019 C1024 0.949 . S
H1020 C1026 0.950 . S
H1021 C1027 0.950 . S
H1022 C1028 0.949 . S
C1023 H1018 0.950 . S
C1023 C1025 1.327 . S
C1023 C1029 1.429 . S
C1024 C1016 1.574 1_455 S
C1024 H1019 0.949 . S
C1024 C1030 1.368 . S
C1025 C1009 1.349 . S
C1025 H1017 0.950 . S
C1025 C1023 1.327 . S
C1026 C1014 1.349 . S
C1026 H1020 0.950 . S
C1026 C1027 1.327 . S
C1027 H1021 0.950 . S
C1027 C1026 1.327 . S
C1027 C1031 1.429 . S
C1028 C1011 1.574 1_655 S
C1028 H1022 0.949 . S
C1028 C1032 1.368 . S
C1029 C1010 1.429 . S
C1029 C1023 1.429 . S
C1029 C1030 1.523 . S
C1030 C1011 1.368 1_545 S
C1030 C1024 1.368 . S
C1030 C1029 1.523 . S
C1031 C1015 1.429 . S
C1031 C1027 1.429 . S
C1031 C1032 1.523 . S
C1032 C1016 1.368 1_565 S
C1032 C1028 1.368 . S
C1032 C1031 1.523 . S
H1033 C1008 0.950 . S
H1034 C1010 0.950 . S
H1035 C1011 0.949 . S
H1036 C1013 0.950 . S
H1037 C1015 0.950 . S
C1038 C1039 1.349 . S
C1038 C1040 1.327 . S
C1038 H1063 0.950 . S
C1039 C1038 1.349 . S
C1039 C1055 1.349 . S
C1040 C1038 1.327 . S
C1040 C1059 1.429 . S
C1040 H1064 0.950 . S
C1041 C1058 1.574 1_565 S
C1041 C1060 1.368 1_655 S
C1041 H1065 0.949 . S
H1042 C1046 0.949 . S
C1043 C1044 1.349 . S
C1043 C1045 1.327 . S
C1043 H1066 0.950 . S
C1044 C1043 1.349 . S
C1044 C1056 1.349 . S
C1045 C1043 1.327 . S
C1045 C1061 1.429 . S
C1045 H1067 0.950 . S
C1046 H1042 0.949 . S
C1046 C1054 1.574 1_545 S
C1046 C1062 1.368 1_455 S
H1047 C1055 0.950 . S
H1048 C1053 0.950 . S
H1049 C1054 0.949 . S
H1050 C1056 0.950 . S
H1051 C1057 0.950 . S
H1052 C1058 0.949 . S
C1053 H1048 0.950 . S
C1053 C1055 1.327 . S
C1053 C1059 1.429 . S
C1054 C1046 1.574 1_565 S
C1054 H1049 0.949 . S
C1054 C1060 1.368 . S
C1055 C1039 1.349 . S
C1055 H1047 0.950 . S
C1055 C1053 1.327 . S
C1056 C1044 1.349 . S
C1056 H1050 0.950 . S
C1056 C1057 1.327 . S
C1057 H1051 0.950 . S
C1057 C1056 1.327 . S
C1057 C1061 1.429 . S
C1058 C1041 1.574 1_545 S
C1058 H1052 0.949 . S
C1058 C1062 1.368 . S
C1059 C1040 1.429 . S
C1059 C1053 1.429 . S
C1059 C1060 1.523 . S
C1060 C1041 1.368 1_455 S
C1060 C1054 1.368 . S
C1060 C1059 1.523 . S
C1061 C1045 1.429 . S
C1061 C1057 1.429 . S
C1061 C1062 1.523 . S
C1062 C1046 1.368 1_655 S
C1062 C1058 1.368 . S
C1062 C1061 1.523 . S
H1063 C1038 0.950 . S
H1064 C1040 0.950 . S
H1065 C1041 0.949 . S
H1066 C1043 0.950 . S
H1067 C1045 0.950 . S
C1068 C1069 1.349 . S
C1068 C1070 1.327 . S
C1068 H1093 0.950 . S
C1069 C1068 1.349 . S
C1069 C1085 1.349 1_554 S
C1070 C1068 1.327 . S
C1070 C1089 1.429 . S
C1070 H1094 0.950 . S
C1071 C1088 1.574 1_455 S
C1071 C1090 1.368 1_556 S
C1071 H1095 0.949 . S
H1072 C1076 0.949 . S
C1073 C1074 1.349 1_556 S
C1073 C1075 1.327 . S
C1073 H1096 0.950 . S
C1074 C1073 1.349 1_554 S
C1074 C1086 1.349 . S
C1075 C1073 1.327 . S
C1075 C1091 1.429 1_556 S
C1075 H1097 0.950 . S
C1076 H1072 0.949 . S
C1076 C1084 1.574 1_655 S
C1076 C1092 1.368 . S
H1077 C1085 0.950 . S
H1078 C1083 0.950 . S
H1079 C1084 0.949 . S
H1080 C1086 0.950 . S
H1081 C1087 0.950 . S
H1082 C1088 0.949 . S
C1083 H1078 0.950 . S
C1083 C1085 1.327 . S
C1083 C1089 1.429 1_556 S
C1084 C1076 1.574 1_455 S
C1084 H1079 0.949 . S
C1084 C1090 1.368 . S
C1085 C1069 1.349 1_556 S
C1085 H1077 0.950 . S
C1085 C1083 1.327 . S
C1086 C1074 1.349 . S
C1086 H1080 0.950 . S
C1086 C1087 1.327 . S
C1087 H1081 0.950 . S
C1087 C1086 1.327 . S
C1087 C1091 1.429 . S
C1088 C1071 1.574 1_655 S
C1088 H1082 0.949 . S
C1088 C1092 1.368 1_556 S
C1089 C1070 1.429 . S
C1089 C1083 1.429 1_554 S
C1089 C1090 1.523 . S
C1090 C1071 1.368 1_554 S
C1090 C1084 1.368 . S
C1090 C1089 1.523 . S
C1091 C1075 1.429 1_554 S
C1091 C1087 1.429 . S
C1091 C1092 1.523 . S
C1092 C1076 1.368 . S
C1092 C1088 1.368 1_554 S
C1092 C1091 1.523 . S
H1093 C1068 0.950 . S
H1094 C1070 0.950 . S
H1095 C1071 0.949 . S
H1096 C1073 0.950 . S
H1097 C1075 0.950 . S
C1098 C1099 1.349 1_554 S
C1098 C1100 1.327 . S
C1098 H1123 0.950 . S
C1099 C1098 1.349 1_556 S
C1099 C1115 1.349 . S
C1100 C1098 1.327 . S
C1100 C1119 1.429 1_554 S
C1100 H1124 0.950 . S
C1101 C1118 1.574 1_565 S
C1101 C1120 1.368 . S
C1101 H1125 0.949 . S
H1102 C1106 0.949 . S
C1103 C1104 1.349 . S
C1103 C1105 1.327 . S
C1103 H1126 0.950 . S
C1104 C1103 1.349 . S
C1104 C1116 1.349 1_556 S
C1105 C1103 1.327 . S
C1105 C1121 1.429 . S
C1105 H1127 0.950 . S
C1106 H1102 0.949 . S
C1106 C1114 1.574 1_545 S
C1106 C1122 1.368 1_554 S
H1107 C1115 0.950 . S
H1108 C1113 0.950 . S
H1109 C1114 0.949 . S
H1110 C1116 0.950 . S
H1111 C1117 0.950 . S
H1112 C1118 0.949 . S
C1113 H1108 0.950 . S
C1113 C1115 1.327 . S
C1113 C1119 1.429 . S
C1114 C1106 1.574 1_565 S
C1114 H1109 0.949 . S
C1114 C1120 1.368 1_554 S
C1115 C1099 1.349 . S
C1115 H1107 0.950 . S
C1115 C1113 1.327 . S
C1116 C1104 1.349 1_554 S
C1116 H1110 0.950 . S
C1116 C1117 1.327 . S
C1117 H1111 0.950 . S
C1117 C1116 1.327 . S
C1117 C1121 1.429 1_554 S
C1118 C1101 1.574 1_545 S
C1118 H1112 0.949 . S
C1118 C1122 1.368 . S
C1119 C1100 1.429 1_556 S
C1119 C1113 1.429 . S
C1119 C1120 1.523 . S
C1120 C1101 1.368 . S
C1120 C1114 1.368 1_556 S
C1120 C1119 1.523 . S
C1121 C1105 1.429 . S
C1121 C1117 1.429 1_556 S
C1121 C1122 1.523 . S
C1122 C1106 1.368 1_556 S
C1122 C1118 1.368 . S
C1122 C1121 1.523 . S
H1123 C1098 0.950 . S
H1124 C1100 0.950 . S
H1125 C1101 0.949 . S
H1126 C1103 0.950 . S
H1127 C1105 0.950 . S
C1128 C1129 1.349 . S
C1128 C1130 1.327 . S
C1128 H1153 0.950 . S
C1129 C1128 1.349 . S
C1129 C1145 1.349 . S
C1130 C1128 1.327 . S
C1130 C1149 1.429 . S
C1130 H1154 0.950 . S
C1131 C1148 1.574 . S
C1131 C1150 1.368 . S
C1131 H1155 0.949 . S
H1132 C1136 0.949 . S
C1133 C1134 1.349 . S
C1133 C1135 1.327 . S
C1133 H1156 0.950 . S
C1134 C1133 1.349 . S
C1134 C1146 1.349 . S
C1135 C1133 1.327 . S
C1135 C1151 1.429 . S
C1135 H1157 0.950 . S
C1136 H1132 0.949 . S
C1136 C1144 1.574 . S
C1136 C1152 1.368 . S
H1137 C1145 0.950 . S
H1138 C1143 0.950 . S
H1139 C1144 0.949 . S
H1140 C1146 0.950 . S
H1141 C1147 0.950 . S
H1142 C1148 0.949 . S
C1143 H1138 0.950 . S
C1143 C1145 1.327 . S
C1143 C1149 1.429 . S
C1144 C1136 1.574 . S
C1144 H1139 0.949 . S
C1144 C1150 1.368 . S
C1145 C1129 1.349 . S
C1145 H1137 0.950 . S
C1145 C1143 1.327 . S
C1146 C1134 1.349 . S
C1146 H1140 0.950 . S
C1146 C1147 1.327 . S
C1147 H1141 0.950 . S
C1147 C1146 1.327 . S
C1147 C1151 1.429 . S
C1148 C1131 1.574 . S
C1148 H1142 0.949 . S
C1148 C1152 1.368 . S
C1149 C1130 1.429 . S
C1149 C1143 1.429 . S
C1149 C1150 1.523 . S
C1150 C1131 1.368 . S
C1150 C1144 1.368 . S
C1150 C1149 1.523 . S
C1151 C1135 1.429 . S
C1151 C1147 1.429 . S
C1151 C1152 1.523 . S
C1152 C1136 1.368 . S
C1152 C1148 1.368 . S
C1152 C1151 1.523 . S
H1153 C1128 0.950 . S
H1154 C1130 0.950 . S
H1155 C1131 0.949 . S
H1156 C1133 0.950 . S
H1157 C1135 0.950 . S
C1158 C1159 1.349 . S
C1158 C1160 1.327 . S
C1158 H1183 0.950 . S
C1159 C1158 1.349 . S
C1159 C1175 1.349 . S
C1160 C1158 1.327 . S
C1160 C1179 1.429 . S
C1160 H1184 0.950 . S
C1161 C1178 1.574 . S
C1161 C1180 1.368 . S
C1161 H1185 0.949 . S
H1162 C1166 0.949 . S
C1163 C1164 1.349 . S
C1163 C1165 1.327 . S
C1163 H1186 0.950 . S
C1164 C1163 1.349 . S
C1164 C1176 1.349 . S
C1165 C1163 1.327 . S
C1165 C1181 1.429 . S
C1165 H1187 0.950 . S
C1166 H1162 0.949 . S
C1166 C1174 1.574 . S
C1166 C1182 1.368 . S
H1167 C1175 0.950 . S
H1168 C1173 0.950 . S
H1169 C1174 0.949 . S
H1170 C1176 0.950 . S
H1171 C1177 0.950 . S
H1172 C1178 0.949 . S
C1173 H1168 0.950 . S
C1173 C1175 1.327 . S
C1173 C1179 1.429 . S
C1174 C1166 1.574 . S
C1174 H1169 0.949 . S
C1174 C1180 1.368 . S
C1175 C1159 1.349 . S
C1175 H1167 0.950 . S
C1175 C1173 1.327 . S
C1176 C1164 1.349 . S
C1176 H1170 0.950 . S
C1176 C1177 1.327 . S
C1177 H1171 0.950 . S
C1177 C1176 1.327 . S
C1177 C1181 1.429 . S
C1178 C1161 1.574 . S
C1178 H1172 0.949 . S
C1178 C1182 1.368 . S
C1179 C1160 1.429 . S
C1179 C1173 1.429 . S
C1179 C1180 1.523 . S
C1180 C1161 1.368 . S
C1180 C1174 1.368 . S
C1180 C1179 1.523 . S
C1181 C1165 1.429 . S
C1181 C1177 1.429 . S
C1181 C1182 1.523 . S
C1182 C1166 1.368 . S
C1182 C1178 1.368 . S
C1182 C1181 1.523 . S
H1183 C1158 0.950 . S
H1184 C1160 0.950 . S
H1185 C1161 0.949 . S
H1186 C1163 0.950 . S
H1187 C1165 0.950 . S
C1188 C1189 1.349 . S
C1188 C1190 1.327 . S
C1188 H1213 0.950 . S
C1189 C1188 1.349 . S
C1189 C1205 1.349 . S
C1190 C1188 1.327 . S
C1190 C1209 1.429 . S
C1190 H1214 0.950 . S
C1191 C1208 1.574 . S
C1191 C1210 1.368 1_545 S
C1191 H1215 0.949 . S
H1192 C1196 0.949 . S
C1193 C1194 1.349 . S
C1193 C1195 1.327 . S
C1193 H1216 0.950 . S
C1194 C1193 1.349 . S
C1194 C1206 1.349 . S
C1195 C1193 1.327 . S
C1195 C1211 1.429 . S
C1195 H1217 0.950 . S
C1196 H1192 0.949 . S
C1196 C1204 1.574 . S
C1196 C1212 1.368 1_565 S
H1197 C1205 0.950 . S
H1198 C1203 0.950 . S
H1199 C1204 0.949 . S
H1200 C1206 0.950 . S
H1201 C1207 0.950 . S
H1202 C1208 0.949 . S
C1203 H1198 0.950 . S
C1203 C1205 1.327 . S
C1203 C1209 1.429 . S
C1204 C1196 1.574 . S
C1204 H1199 0.949 . S
C1204 C1210 1.368 . S
C1205 C1189 1.349 . S
C1205 H1197 0.950 . S
C1205 C1203 1.327 . S
C1206 C1194 1.349 . S
C1206 H1200 0.950 . S
C1206 C1207 1.327 . S
C1207 H1201 0.950 . S
C1207 C1206 1.327 . S
C1207 C1211 1.429 . S
C1208 C1191 1.574 . S
C1208 H1202 0.949 . S
C1208 C1212 1.368 . S
C1209 C1190 1.429 . S
C1209 C1203 1.429 . S
C1209 C1210 1.523 . S
C1210 C1191 1.368 1_565 S
C1210 C1204 1.368 . S
C1210 C1209 1.523 . S
C1211 C1195 1.429 . S
C1211 C1207 1.429 . S
C1211 C1212 1.523 . S
C1212 C1196 1.368 1_545 S
C1212 C1208 1.368 . S
C1212 C1211 1.523 . S
H1213 C1188 0.950 . S
H1214 C1190 0.950 . S
H1215 C1191 0.949 . S
H1216 C1193 0.950 . S
H1217 C1195 0.950 . S
C1218 C1219 1.349 . S
C1218 C1220 1.327 . S
C1218 H1243 0.950 . S
C1219 C1218 1.349 . S
C1219 C1235 1.349 . S
C1220 C1218 1.327 . S
C1220 C1239 1.429 . S
C1220 H1244 0.950 . S
C1221 C1238 1.574 . S
C1221 C1240 1.368 1_455 S
C1221 H1245 0.949 . S
H1222 C1226 0.949 . S
C1223 C1224 1.349 . S
C1223 C1225 1.327 . S
C1223 H1246 0.950 . S
C1224 C1223 1.349 . S
C1224 C1236 1.349 . S
C1225 C1223 1.327 . S
C1225 C1241 1.429 . S
C1225 H1247 0.950 . S
C1226 H1222 0.949 . S
C1226 C1234 1.574 . S
C1226 C1242 1.368 1_655 S
H1227 C1235 0.950 . S
H1228 C1233 0.950 . S
H1229 C1234 0.949 . S
H1230 C1236 0.950 . S
H1231 C1237 0.950 . S
H1232 C1238 0.949 . S
C1233 H1228 0.950 . S
C1233 C1235 1.327 . S
C1233 C1239 1.429 . S
C1234 C1226 1.574 . S
C1234 H1229 0.949 . S
C1234 C1240 1.368 . S
C1235 C1219 1.349 . S
C1235 H1227 0.950 . S
C1235 C1233 1.327 . S
C1236 C1224 1.349 . S
C1236 H1230 0.950 . S
C1236 C1237 1.327 . S
C1237 H1231 0.950 . S
C1237 C1236 1.327 . S
C1237 C1241 1.429 . S
C1238 C1221 1.574 . S
C1238 H1232 0.949 . S
C1238 C1242 1.368 . S
C1239 C1220 1.429 . S
C1239 C1233 1.429 . S
C1239 C1240 1.523 . S
C1240 C1221 1.368 1_655 S
C1240 C1234 1.368 . S
C1240 C1239 1.523 . S
C1241 C1225 1.429 . S
C1241 C1237 1.429 . S
C1241 C1242 1.523 . S
C1242 C1226 1.368 1_455 S
C1242 C1238 1.368 . S
C1242 C1241 1.523 . S
H1243 C1218 0.950 . S
H1244 C1220 0.950 . S
H1245 C1221 0.949 . S
H1246 C1223 0.950 . S
H1247 C1225 0.950 . S
C1248 C1249 1.349 . S
C1248 C1250 1.327 . S
C1248 H1273 0.950 . S
C1249 C1248 1.349 . S
C1249 C1265 1.349 . S
C1250 C1248 1.327 . S
C1250 C1269 1.429 . S
C1250 H1274 0.950 . S
C1251 C1268 1.574 . S
C1251 C1270 1.368 . S
C1251 H1275 0.949 . S
H1252 C1256 0.949 1_545 S
C1253 C1254 1.349 . S
C1253 C1255 1.327 1_545 S
C1253 H1276 0.950 . S
C1254 C1253 1.349 . S
C1254 C1266 1.349 . S
C1255 C1253 1.327 1_565 S
C1255 C1271 1.429 1_565 S
C1255 H1277 0.950 . S
C1256 H1252 0.949 1_565 S
C1256 C1264 1.574 . S
C1256 C1272 1.368 . S
H1257 C1265 0.950 . S
H1258 C1263 0.950 . S
H1259 C1264 0.949 . S
H1260 C1266 0.950 . S
H1261 C1267 0.950 . S
H1262 C1268 0.949 . S
C1263 H1258 0.950 . S
C1263 C1265 1.327 . S
C1263 C1269 1.429 . S
C1264 C1256 1.574 . S
C1264 H1259 0.949 . S
C1264 C1270 1.368 . S
C1265 C1249 1.349 . S
C1265 H1257 0.950 . S
C1265 C1263 1.327 . S
C1266 C1254 1.349 . S
C1266 H1260 0.950 . S
C1266 C1267 1.327 . S
C1267 H1261 0.950 . S
C1267 C1266 1.327 . S
C1267 C1271 1.429 . S
C1268 C1251 1.574 . S
C1268 H1262 0.949 . S
C1268 C1272 1.368 . S
C1269 C1250 1.429 . S
C1269 C1263 1.429 . S
C1269 C1270 1.523 . S
C1270 C1251 1.368 . S
C1270 C1264 1.368 . S
C1270 C1269 1.523 . S
C1271 C1255 1.429 1_545 S
C1271 C1267 1.429 . S
C1271 C1272 1.523 1_545 S
C1272 C1256 1.368 . S
C1272 C1268 1.368 . S
C1272 C1271 1.523 1_565 S
H1273 C1248 0.950 . S
H1274 C1250 0.950 . S
H1275 C1251 0.949 . S
H1276 C1253 0.950 . S
H1277 C1255 0.950 . S
C1278 C1279 1.349 . S
C1278 C1280 1.327 . S
C1278 H1303 0.950 . S
C1279 C1278 1.349 . S
C1279 C1295 1.349 . S
C1280 C1278 1.327 . S
C1280 C1299 1.429 . S
C1280 H1304 0.950 . S
C1281 C1298 1.574 . S
C1281 C1300 1.368 . S
C1281 H1305 0.949 . S
H1282 C1286 0.949 . S
C1283 C1284 1.349 . S
C1283 C1285 1.327 . S
C1283 H1306 0.950 . S
C1284 C1283 1.349 . S
C1284 C1296 1.349 . S
C1285 C1283 1.327 . S
C1285 C1301 1.429 . S
C1285 H1307 0.950 . S
C1286 H1282 0.949 . S
C1286 C1294 1.574 . S
C1286 C1302 1.368 . S
H1287 C1295 0.950 . S
H1288 C1293 0.923 1_655 S
H1289 C1294 0.949 1_455 S
H1290 C1296 0.950 . S
H1291 C1297 0.950 . S
H1292 C1298 0.949 . S
C1293 H1288 0.923 1_455 S
C1293 C1295 1.350 . S
C1293 C1299 1.432 . S
C1294 C1286 1.574 . S
C1294 H1289 0.949 1_655 S
C1294 C1300 1.368 . S
C1295 C1279 1.349 . S
C1295 H1287 0.950 . S
C1295 C1293 1.350 . S
C1296 C1284 1.349 . S
C1296 H1290 0.950 . S
C1296 C1297 1.327 . S
C1297 H1291 0.950 . S
C1297 C1296 1.327 . S
C1297 C1301 1.429 . S
C1298 C1281 1.574 . S
C1298 H1292 0.949 . S
C1298 C1302 1.368 . S
C1299 C1280 1.429 . S
C1299 C1293 1.432 . S
C1299 C1300 1.523 1_455 S
C1300 C1281 1.368 . S
C1300 C1294 1.368 . S
C1300 C1299 1.523 1_655 S
C1301 C1285 1.429 . S
C1301 C1297 1.429 . S
C1301 C1302 1.523 . S
C1302 C1286 1.368 . S
C1302 C1298 1.368 . S
C1302 C1301 1.523 . S
H1303 C1278 0.950 . S
H1304 C1280 0.950 . S
H1305 C1281 0.949 . S
H1306 C1283 0.950 . S
H1307 C1285 0.950 . S
C1308 C1309 1.349 . S
C1308 C1310 1.327 . S
C1308 H1333 0.950 . S
C1309 C1308 1.349 . S
C1309 C1325 1.349 . S
C1310 C1308 1.327 . S
C1310 C1329 1.429 . S
C1310 H1334 0.950 . S
C1311 C1328 1.574 . S
C1311 C1330 1.368 . S
C1311 H1335 0.949 . S
H1312 C1316 0.949 . S
C1313 C1314 1.349 . S
C1313 C1315 1.327 . S
C1313 H1336 0.950 . S
C1314 C1313 1.349 . S
C1314 C1326 1.349 . S
C1315 C1313 1.327 . S
C1315 C1331 1.429 . S
C1315 H1337 0.950 . S
C1316 H1312 0.949 . S
C1316 C1324 1.574 . S
C1316 C1332 1.368 . S
H1317 C1325 0.950 . S
H1318 C1323 0.950 . S
H1319 C1324 0.949 . S
H1320 C1326 0.950 . S
H1321 C1327 0.954 . S
H1322 C1328 0.949 . S
C1323 H1318 0.950 . S
C1323 C1325 1.327 . S
C1323 C1329 1.429 . S
C1324 C1316 1.574 . S
C1324 H1319 0.949 . S
C1324 C1330 1.368 . S
C1325 C1309 1.349 . S
C1325 H1317 0.950 . S
C1325 C1323 1.327 . S
C1326 C1314 1.349 . S
C1326 H1320 0.950 . S
C1326 C1327 1.327 . S
C1327 H1321 0.954 . S
C1327 C1326 1.327 . S
C1327 C1331 1.429 . S
C1328 C1311 1.574 . S
C1328 H1322 0.949 . S
C1328 C1332 1.368 . S
C1329 C1310 1.429 . S
C1329 C1323 1.429 . S
C1329 C1330 1.523 . S
C1330 C1311 1.368 . S
C1330 C1324 1.368 . S
C1330 C1329 1.523 . S
C1331 C1315 1.429 . S
C1331 C1327 1.429 . S
C1331 C1332 1.523 1_565 S
C1332 C1316 1.368 . S
C1332 C1328 1.368 . S
C1332 C1331 1.523 1_545 S
H1333 C1308 0.950 . S
H1334 C1310 0.950 . S
H1335 C1311 0.949 . S
H1336 C1313 0.950 . S
H1337 C1315 0.950 . S
C1338 C1339 1.349 . S
C1338 C1340 1.327 . S
C1338 H1363 0.950 . S
C1339 C1338 1.349 . S
C1339 C1355 1.349 . S
C1340 C1338 1.327 . S
C1340 C1359 1.429 . S
C1340 H1364 0.950 1_655 S
C1341 C1358 1.574 . S
C1341 C1360 1.368 . S
C1341 H1365 0.949 1_455 S
H1342 C1346 0.949 . S
C1343 C1344 1.349 . S
C1343 C1345 1.327 . S
C1343 H1366 0.950 . S
C1344 C1343 1.349 . S
C1344 C1356 1.349 . S
C1345 C1343 1.327 . S
C1345 C1361 1.429 . S
C1345 H1367 0.950 . S
C1346 H1342 0.949 . S
C1346 C1354 1.574 . S
C1346 C1362 1.368 . S
H1347 C1355 0.950 . S
H1348 C1353 0.950 . S
H1349 C1354 0.949 . S
H1350 C1356 0.950 . S
H1351 C1357 0.950 . S
H1352 C1358 0.949 . S
C1353 H1348 0.950 . S
C1353 C1355 1.327 . S
C1353 C1359 1.429 . S
C1354 C1346 1.574 . S
C1354 H1349 0.949 . S
C1354 C1360 1.368 . S
C1355 C1339 1.349 . S
C1355 H1347 0.950 . S
C1355 C1353 1.327 . S
C1356 C1344 1.349 . S
C1356 H1350 0.950 . S
C1356 C1357 1.327 . S
C1357 H1351 0.950 . S
C1357 C1356 1.327 . S
C1357 C1361 1.429 . S
C1358 C1341 1.574 . S
C1358 H1352 0.949 . S
C1358 C1362 1.368 . S
C1359 C1340 1.429 . S
C1359 C1353 1.429 . S
C1359 C1360 1.523 1_655 S
C1360 C1341 1.368 . S
C1360 C1354 1.368 . S
C1360 C1359 1.523 1_455 S
C1361 C1345 1.429 . S
C1361 C1357 1.429 . S
C1361 C1362 1.523 . S
C1362 C1346 1.368 . S
C1362 C1358 1.368 . S
C1362 C1361 1.523 . S
H1363 C1338 0.950 . S
H1364 C1340 0.950 1_455 S
H1365 C1341 0.949 1_655 S
H1366 C1343 0.950 . S
H1367 C1345 0.950 . S
C1368 C1369 1.349 . S
C1368 C1370 1.327 . S
C1368 H1393 0.950 . S
C1369 C1368 1.349 . S
C1369 C1385 1.349 . S
C1370 C1368 1.327 . S
C1370 C1389 1.429 . S
C1370 H1394 0.950 . S
C1371 C1388 1.574 . S
C1371 C1390 1.368 . S
C1371 H1395 0.949 . S
H1372 C1376 0.949 . S
C1373 C1374 1.349 . S
C1373 C1375 1.327 . S
C1373 H1396 0.950 . S
C1374 C1373 1.349 . S
C1374 C1386 1.349 . S
C1375 C1373 1.327 . S
C1375 C1391 1.429 . S
C1375 H1397 0.950 . S
C1376 H1372 0.949 . S
C1376 C1384 1.574 . S
C1376 C1392 1.368 . S
H1377 C1385 0.950 . S
H1378 C1383 0.950 . S
H1379 C1384 0.949 . S
H1380 C1386 0.950 . S
H1381 C1387 0.950 . S
H1382 C1388 0.949 . S
C1383 H1378 0.950 . S
C1383 C1385 1.327 . S
C1383 C1389 1.429 . S
C1384 C1376 1.574 . S
C1384 H1379 0.949 . S
C1384 C1390 1.368 . S
C1385 C1369 1.349 . S
C1385 H1377 0.950 . S
C1385 C1383 1.327 . S
C1386 C1374 1.349 . S
C1386 H1380 0.950 . S
C1386 C1387 1.327 . S
C1387 H1381 0.950 . S
C1387 C1386 1.327 . S
C1387 C1391 1.429 . S
C1388 C1371 1.574 . S
C1388 H1382 0.949 . S
C1388 C1392 1.368 . S
C1389 C1370 1.429 . S
C1389 C1383 1.429 . S
C1389 C1390 1.523 . S
C1390 C1371 1.368 . S
C1390 C1384 1.368 . S
C1390 C1389 1.523 . S
C1391 C1375 1.429 . S
C1391 C1387 1.429 . S
C1391 C1392 1.523 . S
C1392 C1376 1.368 . S
C1392 C1388 1.368 . S
C1392 C1391 1.523 . S
H1393 C1368 0.950 . S
H1394 C1370 0.950 . S
H1395 C1371 0.949 . S
H1396 C1373 0.950 . S
H1397 C1375 0.950 . S
C1398 C1399 1.349 . S
C1398 C1400 1.327 . S
C1398 H1423 0.950 . S
C1399 C1398 1.349 . S
C1399 C1415 1.349 . S
C1400 C1398 1.327 . S
C1400 C1419 1.429 . S
C1400 H1424 0.950 . S
C1401 C1418 1.574 . S
C1401 C1420 1.368 . S
C1401 H1425 0.949 . S
H1402 C1406 0.949 . S
C1403 C1404 1.349 . S
C1403 C1405 1.327 . S
C1403 H1426 0.950 . S
C1404 C1403 1.349 . S
C1404 C1416 1.349 . S
C1405 C1403 1.327 . S
C1405 C1421 1.429 . S
C1405 H1427 0.950 . S
C1406 H1402 0.949 . S
C1406 C1414 1.574 . S
C1406 C1422 1.368 . S
H1407 C1415 0.950 . S
H1408 C1413 0.950 . S
H1409 C1414 0.949 . S
H1410 C1416 0.950 . S
H1411 C1417 0.950 . S
H1412 C1418 0.949 . S
C1413 H1408 0.950 . S
C1413 C1415 1.327 . S
C1413 C1419 1.429 . S
C1414 C1406 1.574 . S
C1414 H1409 0.949 . S
C1414 C1420 1.368 . S
C1415 C1399 1.349 . S
C1415 H1407 0.950 . S
C1415 C1413 1.327 . S
C1416 C1404 1.349 . S
C1416 H1410 0.950 . S
C1416 C1417 1.327 . S
C1417 H1411 0.950 . S
C1417 C1416 1.327 . S
C1417 C1421 1.429 . S
C1418 C1401 1.574 . S
C1418 H1412 0.949 . S
C1418 C1422 1.368 . S
C1419 C1400 1.429 . S
C1419 C1413 1.429 . S
C1419 C1420 1.523 . S
C1420 C1401 1.368 . S
C1420 C1414 1.368 . S
C1420 C1419 1.523 . S
C1421 C1405 1.429 . S
C1421 C1417 1.429 . S
C1421 C1422 1.523 . S
C1422 C1406 1.368 . S
C1422 C1418 1.368 . S
C1422 C1421 1.523 . S
H1423 C1398 0.950 . S
H1424 C1400 0.950 . S
H1425 C1401 0.949 . S
H1426 C1403 0.950 . S
H1427 C1405 0.950 . S
C1428 C1429 1.349 . S
C1428 C1430 1.327 . S
C1428 H1453 0.950 . S
C1429 C1428 1.349 . S
C1429 C1445 1.349 . S
C1430 C1428 1.327 . S
C1430 C1449 1.429 . S
C1430 H1454 0.950 . S
C1431 C1448 1.574 . S
C1431 C1450 1.368 . S
C1431 H1455 0.949 . S
H1432 C1436 0.949 . S
C1433 C1434 1.349 . S
C1433 C1435 1.327 . S
C1433 H1456 0.950 . S
C1434 C1433 1.349 . S
C1434 C1446 1.349 . S
C1435 C1433 1.327 . S
C1435 C1451 1.429 . S
C1435 H1457 0.950 . S
C1436 H1432 0.949 . S
C1436 C1444 1.574 . S
C1436 C1452 1.368 . S
H1437 C1445 0.950 . S
H1438 C1443 0.950 . S
H1439 C1444 0.949 . S
H1440 C1446 0.950 . S
H1441 C1447 0.950 . S
H1442 C1448 0.949 . S
C1443 H1438 0.950 . S
C1443 C1445 1.327 . S
C1443 C1449 1.429 . S
C1444 C1436 1.574 . S
C1444 H1439 0.949 . S
C1444 C1450 1.368 . S
C1445 C1429 1.349 . S
C1445 H1437 0.950 . S
C1445 C1443 1.327 . S
C1446 C1434 1.349 . S
C1446 H1440 0.950 . S
C1446 C1447 1.327 . S
C1447 H1441 0.950 . S
C1447 C1446 1.327 . S
C1447 C1451 1.429 . S
C1448 C1431 1.574 . S
C1448 H1442 0.949 . S
C1448 C1452 1.368 . S
C1449 C1430 1.429 . S
C1449 C1443 1.429 . S
C1449 C1450 1.523 . S
C1450 C1431 1.368 . S
C1450 C1444 1.368 . S
C1450 C1449 1.523 . S
C1451 C1435 1.429 . S
C1451 C1447 1.429 . S
C1451 C1452 1.523 . S
C1452 C1436 1.368 . S
C1452 C1448 1.368 . S
C1452 C1451 1.523 . S
H1453 C1428 0.950 . S
H1454 C1430 0.950 . S
H1455 C1431 0.949 . S
H1456 C1433 0.950 . S
H1457 C1435 0.950 . S
C1458 C1459 1.349 . S
C1458 C1460 1.327 . S
C1458 H1483 0.950 . S
C1459 C1458 1.349 . S
C1459 C1475 1.349 . S
C1460 C1458 1.327 . S
C1460 C1479 1.429 . S
C1460 H1484 0.950 . S
C1461 C1478 1.574 . S
C1461 C1480 1.368 . S
C1461 H1485 0.949 . S
H1462 C1466 0.949 . S
C1463 C1464 1.349 . S
C1463 C1465 1.327 . S
C1463 H1486 0.950 . S
C1464 C1463 1.349 . S
C1464 C1476 1.349 . S
C1465 C1463 1.327 . S
C1465 C1481 1.429 . S
C1465 H1487 0.950 . S
C1466 H1462 0.949 . S
C1466 C1474 1.574 . S
C1466 C1482 1.368 . S
H1467 C1475 0.950 . S
H1468 C1473 0.950 . S
H1469 C1474 0.949 . S
H1470 C1476 0.950 . S
H1471 C1477 0.950 . S
H1472 C1478 0.949 . S
C1473 H1468 0.950 . S
C1473 C1475 1.327 . S
C1473 C1479 1.429 . S
C1474 C1466 1.574 . S
C1474 H1469 0.949 . S
C1474 C1480 1.368 . S
C1475 C1459 1.349 . S
C1475 H1467 0.950 . S
C1475 C1473 1.327 . S
C1476 C1464 1.349 . S
C1476 H1470 0.950 . S
C1476 C1477 1.327 . S
C1477 H1471 0.950 . S
C1477 C1476 1.327 . S
C1477 C1481 1.429 . S
C1478 C1461 1.574 . S
C1478 H1472 0.949 . S
C1478 C1482 1.368 . S
C1479 C1460 1.429 . S
C1479 C1473 1.429 . S
C1479 C1480 1.523 . S
C1480 C1461 1.368 . S
C1480 C1474 1.368 . S
C1480 C1479 1.523 . S
C1481 C1465 1.429 . S
C1481 C1477 1.429 . S
C1481 C1482 1.523 . S
C1482 C1466 1.368 . S
C1482 C1478 1.368 . S
C1482 C1481 1.523 . S
H1483 C1458 0.950 . S
H1484 C1460 0.950 . S
H1485 C1461 0.949 . S
H1486 C1463 0.950 . S
H1487 C1465 0.950 . S
C1488 C1489 1.349 . S
C1488 C1490 1.327 . S
C1488 H1513 0.950 . S
C1489 C1488 1.349 . S
C1489 C1505 1.349 . S
C1490 C1488 1.327 . S
C1490 C1509 1.429 . S
C1490 H1514 0.950 . S
C1491 C1508 1.574 . S
C1491 C1510 1.368 . S
C1491 H1515 0.949 . S
H1492 C1496 0.949 . S
C1493 C1494 1.349 . S
C1493 C1495 1.327 . S
C1493 H1516 0.950 . S
C1494 C1493 1.349 . S
C1494 C1506 1.349 . S
C1495 C1493 1.327 . S
C1495 C1511 1.429 . S
C1495 H1517 0.950 . S
C1496 H1492 0.949 . S
C1496 C1504 1.574 1_554 S
C1496 C1512 1.368 . S
H1497 C1505 0.950 . S
H1498 C1503 0.950 . S
H1499 C1504 0.949 . S
H1500 C1506 0.950 . S
H1501 C1507 0.950 . S
H1502 C1508 0.949 . S
C1503 H1498 0.950 . S
C1503 C1505 1.327 . S
C1503 C1509 1.429 . S
C1504 C1496 1.574 1_556 S
C1504 H1499 0.949 . S
C1504 C1510 1.368 . S
C1505 C1489 1.349 . S
C1505 H1497 0.950 . S
C1505 C1503 1.327 . S
C1506 C1494 1.349 . S
C1506 H1500 0.950 . S
C1506 C1507 1.327 . S
C1507 H1501 0.950 . S
C1507 C1506 1.327 . S
C1507 C1511 1.429 . S
C1508 C1491 1.574 . S
C1508 H1502 0.949 . S
C1508 C1512 1.368 1_556 S
C1509 C1490 1.429 . S
C1509 C1503 1.429 . S
C1509 C1510 1.523 . S
C1510 C1491 1.368 . S
C1510 C1504 1.368 . S
C1510 C1509 1.523 . S
C1511 C1495 1.429 . S
C1511 C1507 1.429 . S
C1511 C1512 1.523 . S
C1512 C1496 1.368 . S
C1512 C1508 1.368 1_554 S
C1512 C1511 1.523 . S
H1513 C1488 0.950 . S
H1514 C1490 0.950 . S
H1515 C1491 0.949 . S
H1516 C1493 0.950 . S
H1517 C1495 0.950 . S
C1518 C1519 1.349 . S
C1518 C1520 1.327 . S
C1518 H1543 0.950 . S
C1519 C1518 1.349 . S
C1519 C1535 1.349 . S
C1520 C1518 1.327 . S
C1520 C1539 1.429 . S
C1520 H1544 0.950 . S
C1521 C1538 1.574 1_556 S
C1521 C1540 1.368 . S
C1521 H1545 0.949 . S
H1522 C1526 0.949 . S
C1523 C1524 1.349 . S
C1523 C1525 1.327 . S
C1523 H1546 0.950 . S
C1524 C1523 1.349 . S
C1524 C1536 1.349 . S
C1525 C1523 1.327 . S
C1525 C1541 1.429 . S
C1525 H1547 0.950 . S
C1526 H1522 0.949 . S
C1526 C1534 1.574 . S
C1526 C1542 1.368 . S
H1527 C1535 0.950 . S
H1528 C1533 0.950 . S
H1529 C1534 0.949 . S
H1530 C1536 0.950 . S
H1531 C1537 0.950 . S
H1532 C1538 0.949 . S
C1533 H1528 0.950 . S
C1533 C1535 1.327 . S
C1533 C1539 1.429 . S
C1534 C1526 1.574 . S
C1534 H1529 0.949 . S
C1534 C1540 1.368 1_554 S
C1535 C1519 1.349 . S
C1535 H1527 0.950 . S
C1535 C1533 1.327 . S
C1536 C1524 1.349 . S
C1536 H1530 0.950 . S
C1536 C1537 1.327 . S
C1537 H1531 0.950 . S
C1537 C1536 1.327 . S
C1537 C1541 1.429 . S
C1538 C1521 1.574 1_554 S
C1538 H1532 0.949 . S
C1538 C1542 1.368 . S
C1539 C1520 1.429 . S
C1539 C1533 1.429 . S
C1539 C1540 1.523 . S
C1540 C1521 1.368 . S
C1540 C1534 1.368 1_556 S
C1540 C1539 1.523 . S
C1541 C1525 1.429 . S
C1541 C1537 1.429 . S
C1541 C1542 1.523 . S
C1542 C1526 1.368 . S
C1542 C1538 1.368 . S
C1542 C1541 1.523 . S
H1543 C1518 0.950 . S
H1544 C1520 0.950 . S
H1545 C1521 0.949 . S
H1546 C1523 0.950 . S
H1547 C1525 0.950 . S
C1548 C1549 1.349 . S
C1548 C1550 1.327 . S
C1548 H1573 0.950 . S
C1549 C1548 1.349 . S
C1549 C1565 1.349 . S
C1550 C1548 1.327 . S
C1550 C1569 1.429 . S
C1550 H1574 0.950 . S
C1551 C1568 1.574 1_556 S
C1551 C1570 1.368 . S
C1551 H1575 0.949 . S
H1552 C1556 0.949 1_554 S
C1553 C1554 1.349 . S
C1553 C1555 1.327 . S
C1553 H1576 0.950 . S
C1554 C1553 1.349 . S
C1554 C1566 1.349 . S
C1555 C1553 1.327 . S
C1555 C1571 1.429 . S
C1555 H1577 0.950 . S
C1556 H1552 0.949 1_556 S
C1556 C1564 1.574 . S
C1556 C1572 1.368 1_556 S
H1557 C1565 0.950 . S
H1558 C1563 0.950 . S
H1559 C1564 0.949 . S
H1560 C1566 0.950 . S
H1561 C1567 0.950 . S
H1562 C1568 0.949 . S
C1563 H1558 0.950 . S
C1563 C1565 1.327 . S
C1563 C1569 1.429 . S
C1564 C1556 1.574 . S
C1564 H1559 0.949 . S
C1564 C1570 1.368 . S
C1565 C1549 1.349 . S
C1565 H1557 0.950 . S
C1565 C1563 1.327 . S
C1566 C1554 1.349 . S
C1566 H1560 0.950 . S
C1566 C1567 1.327 . S
C1567 H1561 0.950 . S
C1567 C1566 1.327 . S
C1567 C1571 1.429 . S
C1568 C1551 1.574 1_554 S
C1568 H1562 0.949 . S
C1568 C1572 1.368 . S
C1569 C1550 1.429 . S
C1569 C1563 1.429 . S
C1569 C1570 1.523 . S
C1570 C1551 1.368 . S
C1570 C1564 1.368 . S
C1570 C1569 1.523 . S
C1571 C1555 1.429 . S
C1571 C1567 1.429 . S
C1571 C1572 1.523 . S
C1572 C1556 1.368 1_554 S
C1572 C1568 1.368 . S
C1572 C1571 1.523 . S
H1573 C1548 0.950 . S
H1574 C1550 0.950 . S
H1575 C1551 0.949 . S
H1576 C1553 0.950 . S
H1577 C1555 0.950 . S
C1578 C1579 1.349 . S
C1578 C1580 1.327 . S
C1578 H1603 0.950 . S
C1579 C1578 1.349 . S
C1579 C1595 1.349 . S
C1580 C1578 1.327 . S
C1580 C1599 1.429 . S
C1580 H1604 0.950 . S
C1581 C1598 1.574 1_554 S
C1581 C1600 1.368 . S
C1581 H1605 0.949 . S
H1582 C1586 0.949 . S
C1583 C1584 1.349 . S
C1583 C1585 1.327 . S
C1583 H1606 0.950 . S
C1584 C1583 1.349 . S
C1584 C1596 1.349 . S
C1585 C1583 1.327 . S
C1585 C1601 1.429 . S
C1585 H1607 0.950 . S
C1586 H1582 0.949 . S
C1586 C1594 1.574 . S
C1586 C1602 1.368 1_554 S
H1587 C1595 0.950 . S
H1588 C1593 0.950 . S
H1589 C1594 0.949 . S
H1590 C1596 0.950 . S
H1591 C1597 0.950 . S
H1592 C1598 0.949 . S
C1593 H1588 0.950 . S
C1593 C1595 1.327 . S
C1593 C1599 1.429 . S
C1594 C1586 1.574 . S
C1594 H1589 0.949 . S
C1594 C1600 1.368 . S
C1595 C1579 1.349 . S
C1595 H1587 0.950 . S
C1595 C1593 1.327 . S
C1596 C1584 1.349 . S
C1596 H1590 0.950 . S
C1596 C1597 1.327 . S
C1597 H1591 0.950 . S
C1597 C1596 1.327 . S
C1597 C1601 1.429 . S
C1598 C1581 1.574 1_556 S
C1598 H1592 0.949 . S
C1598 C1602 1.368 . S
C1599 C1580 1.429 . S
C1599 C1593 1.429 . S
C1599 C1600 1.523 . S
C1600 C1581 1.368 . S
C1600 C1594 1.368 . S
C1600 C1599 1.523 . S
C1601 C1585 1.429 . S
C1601 C1597 1.429 . S
C1601 C1602 1.523 . S
C1602 C1586 1.368 1_556 S
C1602 C1598 1.368 . S
C1602 C1601 1.523 . S
H1603 C1578 0.950 . S
H1604 C1580 0.950 . S
H1605 C1581 0.949 . S
H1606 C1583 0.950 . S
H1607 C1585 0.950 . S
C1608 C1609 1.349 . S
C1608 C1610 1.327 . S
C1608 H1633 0.950 . S
C1609 C1608 1.349 . S
C1609 C1625 1.349 . S
C1610 C1608 1.327 . S
C1610 C1629 1.429 . S
C1610 H1634 0.950 . S
C1611 C1628 1.574 . S
C1611 C1630 1.368 . S
C1611 H1635 0.949 . S
H1612 C1616 0.949 1_565 S
C1613 C1614 1.349 . S
C1613 C1615 1.327 1_565 S
C1613 H1636 0.950 . S
C1614 C1613 1.349 . S
C1614 C1626 1.349 . S
C1615 C1613 1.327 1_545 S
C1615 C1631 1.429 1_545 S
C1615 H1637 0.950 . S
C1616 H1612 0.949 1_545 S
C1616 C1624 1.574 . S
C1616 C1632 1.368 . S
H1617 C1625 0.950 . S
H1618 C1623 0.950 . S
H1619 C1624 0.949 . S
H1620 C1626 0.950 . S
H1621 C1627 0.950 . S
H1622 C1628 0.949 . S
C1623 H1618 0.950 . S
C1623 C1625 1.327 . S
C1623 C1629 1.429 . S
C1624 C1616 1.574 . S
C1624 H1619 0.949 . S
C1624 C1630 1.368 . S
C1625 C1609 1.349 . S
C1625 H1617 0.950 . S
C1625 C1623 1.327 . S
C1626 C1614 1.349 . S
C1626 H1620 0.950 . S
C1626 C1627 1.327 . S
C1627 H1621 0.950 . S
C1627 C1626 1.327 . S
C1627 C1631 1.429 . S
C1628 C1611 1.574 . S
C1628 H1622 0.949 . S
C1628 C1632 1.368 . S
C1629 C1610 1.429 . S
C1629 C1623 1.429 . S
C1629 C1630 1.523 . S
C1630 C1611 1.368 . S
C1630 C1624 1.368 . S
C1630 C1629 1.523 . S
C1631 C1615 1.429 1_565 S
C1631 C1627 1.429 . S
C1631 C1632 1.523 1_565 S
C1632 C1616 1.368 . S
C1632 C1628 1.368 . S
C1632 C1631 1.523 1_545 S
H1633 C1608 0.950 . S
H1634 C1610 0.950 . S
H1635 C1611 0.949 . S
H1636 C1613 0.950 . S
H1637 C1615 0.950 . S
C1638 C1639 1.349 . S
C1638 C1640 1.327 . S
C1638 H1663 0.950 . S
C1639 C1638 1.349 . S
C1639 C1655 1.349 . S
C1640 C1638 1.327 . S
C1640 C1659 1.429 . S
C1640 H1664 0.950 . S
C1641 C1658 1.574 . S
C1641 C1660 1.368 . S
C1641 H1665 0.949 . S
H1642 C1646 0.949 . S
C1643 C1644 1.349 . S
C1643 C1645 1.327 . S
C1643 H1666 0.950 . S
C1644 C1643 1.349 . S
C1644 C1656 1.349 . S
C1645 C1643 1.327 . S
C1645 C1661 1.429 . S
C1645 H1667 0.950 . S
C1646 H1642 0.949 . S
C1646 C1654 1.574 . S
C1646 C1662 1.368 . S
H1647 C1655 0.950 . S
H1648 C1653 0.950 1_455 S
H1649 C1654 0.949 1_655 S
H1650 C1656 0.950 . S
H1651 C1657 0.950 . S
H1652 C1658 0.949 . S
C1653 H1648 0.950 1_655 S
C1653 C1655 1.327 . S
C1653 C1659 1.429 . S
C1654 C1646 1.574 . S
C1654 H1649 0.949 1_455 S
C1654 C1660 1.368 . S
C1655 C1639 1.349 . S
C1655 H1647 0.950 . S
C1655 C1653 1.327 . S
C1656 C1644 1.349 . S
C1656 H1650 0.950 . S
C1656 C1657 1.327 . S
C1657 H1651 0.950 . S
C1657 C1656 1.327 . S
C1657 C1661 1.429 . S
C1658 C1641 1.574 . S
C1658 H1652 0.949 . S
C1658 C1662 1.368 . S
C1659 C1640 1.429 . S
C1659 C1653 1.429 . S
C1659 C1660 1.523 1_655 S
C1660 C1641 1.368 . S
C1660 C1654 1.368 . S
C1660 C1659 1.523 1_455 S
C1661 C1645 1.429 . S
C1661 C1657 1.429 . S
C1661 C1662 1.523 . S
C1662 C1646 1.368 . S
C1662 C1658 1.368 . S
C1662 C1661 1.523 . S
H1663 C1638 0.950 . S
H1664 C1640 0.950 . S
H1665 C1641 0.949 . S
H1666 C1643 0.950 . S
H1667 C1645 0.950 . S
C1668 C1669 1.349 . S
C1668 C1670 1.327 . S
C1668 H1693 0.950 . S
C1669 C1668 1.349 . S
C1669 C1685 1.349 . S
C1670 C1668 1.327 . S
C1670 C1689 1.429 . S
C1670 H1694 0.950 . S
C1671 C1688 1.574 . S
C1671 C1690 1.368 . S
C1671 H1695 0.949 . S
H1672 C1676 0.949 . S
C1673 C1674 1.349 . S
C1673 C1675 1.327 . S
C1673 H1696 0.950 . S
C1674 C1673 1.349 . S
C1674 C1686 1.349 . S
C1675 C1673 1.327 . S
C1675 C1691 1.429 . S
C1675 H1697 0.950 . S
C1676 H1672 0.949 . S
C1676 C1684 1.574 . S
C1676 C1692 1.368 . S
H1677 C1685 0.950 . S
H1678 C1683 0.953 1_565 S
H1679 C1684 0.949 1_545 S
H1680 C1686 0.950 . S
H1681 C1687 0.950 . S
H1682 C1688 0.949 . S
C1683 H1678 0.953 1_545 S
C1683 C1685 1.324 . S
C1683 C1689 1.428 . S
C1684 C1676 1.574 . S
C1684 H1679 0.949 1_565 S
C1684 C1690 1.368 . S
C1685 C1669 1.349 . S
C1685 H1677 0.950 . S
C1685 C1683 1.324 . S
C1686 C1674 1.349 . S
C1686 H1680 0.950 . S
C1686 C1687 1.327 . S
C1687 H1681 0.950 . S
C1687 C1686 1.327 . S
C1687 C1691 1.429 . S
C1688 C1671 1.574 . S
C1688 H1682 0.949 . S
C1688 C1692 1.368 . S
C1689 C1670 1.429 . S
C1689 C1683 1.428 . S
C1689 C1690 1.523 1_545 S
C1690 C1671 1.368 . S
C1690 C1684 1.368 . S
C1690 C1689 1.523 1_565 S
C1691 C1675 1.429 . S
C1691 C1687 1.429 . S
C1691 C1692 1.523 . S
C1692 C1676 1.368 . S
C1692 C1688 1.368 . S
C1692 C1691 1.523 . S
H1693 C1668 0.950 . S
H1694 C1670 0.950 . S
H1695 C1671 0.949 . S
H1696 C1673 0.950 . S
H1697 C1675 0.950 . S
C1698 C1699 1.349 . S
C1698 C1700 1.327 . S
C1698 H1723 0.950 . S
C1699 C1698 1.349 . S
C1699 C1715 1.349 . S
C1700 C1698 1.327 . S
C1700 C1719 1.429 . S
C1700 H1724 0.950 . S
C1701 C1718 1.574 . S
C1701 C1720 1.368 . S
C1701 H1725 0.949 . S
H1702 C1706 0.949 . S
C1703 C1704 1.349 . S
C1703 C1705 1.327 . S
C1703 H1726 0.950 . S
C1704 C1703 1.349 . S
C1704 C1716 1.349 . S
C1705 C1703 1.327 . S
C1705 C1721 1.429 . S
C1705 H1727 0.950 . S
C1706 H1702 0.949 . S
C1706 C1714 1.574 . S
C1706 C1722 1.368 . S
H1707 C1715 0.950 . S
H1708 C1713 0.950 1_655 S
H1709 C1714 0.949 1_455 S
H1710 C1716 0.950 . S
H1711 C1717 0.950 . S
H1712 C1718 0.949 . S
C1713 H1708 0.950 1_455 S
C1713 C1715 1.327 . S
C1713 C1719 1.429 . S
C1714 C1706 1.574 . S
C1714 H1709 0.949 1_655 S
C1714 C1720 1.368 . S
C1715 C1699 1.349 . S
C1715 H1707 0.950 . S
C1715 C1713 1.327 . S
C1716 C1704 1.349 . S
C1716 H1710 0.950 . S
C1716 C1717 1.327 . S
C1717 H1711 0.950 . S
C1717 C1716 1.327 . S
C1717 C1721 1.429 . S
C1718 C1701 1.574 . S
C1718 H1712 0.949 . S
C1718 C1722 1.368 . S
C1719 C1700 1.429 . S
C1719 C1713 1.429 . S
C1719 C1720 1.523 1_455 S
C1720 C1701 1.368 . S
C1720 C1714 1.368 . S
C1720 C1719 1.523 1_655 S
C1721 C1705 1.429 . S
C1721 C1717 1.429 . S
C1721 C1722 1.523 . S
C1722 C1706 1.368 . S
C1722 C1718 1.368 . S
C1722 C1721 1.523 . S
H1723 C1698 0.950 . S
H1724 C1700 0.950 . S
H1725 C1701 0.949 . S
H1726 C1703 0.950 . S
H1727 C1705 0.950 . S
C529 N145 2.229 . S
C534 N13 2.229 . S
C559 N46 2.229 . S
C564 N178 2.229 . S
C589 N79 2.229 . S
C594 N211 2.229 . S
C619 N112 2.229 . S
C624 N244 2.229 . S
C649 N277 2.229 . S
C654 N409 2.229 . S
C679 N442 2.229 . S
C684 N310 2.229 . S
C709 N475 2.229 . S
C714 N343 2.229 . S
C739 N376 2.229 . S
C744 N508 2.229 . S
C769 C18 1.122 . S
C774 C480 1.122 . S
C799 C51 1.122 . S
C804 C513 1.122 . S
C829 C84 1.123 . S
C834 C414 1.123 . S
C859 C447 1.123 . S
C864 C117 1.123 . S
C889 C348 1.123 . S
C894 C150 1.123 . S
C919 C183 1.123 . S
C924 C381 1.123 . S
C949 C216 1.122 . S
C954 C282 1.122 . S
C979 C249 1.122 . S
C984 C315 1.122 . S
C1009 C7 1.208 . S
C1014 C73 1.208 . S
C1039 C40 1.208 . S
C1044 C106 1.208 . S
C1069 C139 1.208 . S
C1074 C205 1.208 . S
C1099 C172 1.208 . S
C1104 C238 1.208 . S
C1129 C337 1.208 . S
C1134 C271 1.208 . S
C1159 C370 1.208 . S
C1164 C304 1.208 . S
C1189 C403 1.208 . S
C1194 C469 1.208 . S
C1219 C436 1.208 . S
C1224 C502 1.208 . S
C1249 C54 0.450 . S
C1254 N2 0.527 . S
C1279 N35 0.527 . S
C1284 C87 0.450 . S
C1309 C120 0.450 . S
C1314 N68 0.527 . S
C1339 N101 0.527 . S
C1344 C21 0.450 . S
C1369 C516 0.450 . S
C1374 N134 0.527 . S
C1399 N167 0.527 . S
C1404 C417 0.450 . S
C1429 N200 0.527 . S
C1434 C450 0.450 . S
C1459 N233 0.527 . S
C1464 C483 0.450 . S
C1489 N266 0.527 . S
C1494 C318 0.450 . S
C1519 C351 0.450 . S
C1524 N299 0.527 . S
C1549 N332 0.527 . S
C1554 C384 0.450 . S
C1579 N365 0.527 . S
C1584 C285 0.450 . S
C1609 C252 0.450 . S
C1614 N398 0.527 . S
C1639 N431 0.527 . S
C1644 C153 0.450 . S
C1669 N464 0.527 . S
C1674 C186 0.450 . S
C1699 N497 0.527 . S
C1704 C219 0.450 . S
