# Generated by pormake.
# Topology mok, (4)-cn, num edge types: 1
# Building blocks:
#     Node 0, Type 0, BuildingBlock: NAHDIM_clean_sbu_0, # of connection points: 4
#     Node 1, Type 0, BuildingBlock: NAHDIM_clean_sbu_0, # of connection points: 4
#     Node 2, Type 0, BuildingBlock: NAHDIM_clean_sbu_0, # of connection points: 4
#     Node 3, Type 0, BuildingBlock: NAHDIM_clean_sbu_0, # of connection points: 4
#     Node 4, Type 0, BuildingBlock: NAHDIM_clean_sbu_0, # of connection points: 4
#     Node 5, Type 0, BuildingBlock: NAHDIM_clean_sbu_0, # of connection points: 4
#     Node 6, Type 0, BuildingBlock: NAHDIM_clean_sbu_0, # of connection points: 4
#     Node 7, Type 0, BuildingBlock: NAHDIM_clean_sbu_0, # of connection points: 4
#     Edge 8, Type (0, 0), BuildingBlock: XIVTED_clean_linker_0, # of connection points: 2
#     Edge 9, Type (0, 0), BuildingBlock: XIVTED_clean_linker_0, # of connection points: 2
#     Edge 10, Type (0, 0), BuildingBlock: XIVTED_clean_linker_0, # of connection points: 2
#     Edge 11, Type (0, 0), BuildingBlock: XIVTED_clean_linker_0, # of connection points: 2
#     Edge 12, Type (0, 0), BuildingBlock: XIVTED_clean_linker_0, # of connection points: 2
#     Edge 13, Type (0, 0), BuildingBlock: XIVTED_clean_linker_0, # of connection points: 2
#     Edge 14, Type (0, 0), BuildingBlock: XIVTED_clean_linker_0, # of connection points: 2
#     Edge 15, Type (0, 0), BuildingBlock: XIVTED_clean_linker_0, # of connection points: 2
#     Edge 16, Type (0, 0), BuildingBlock: XIVTED_clean_linker_0, # of connection points: 2
#     Edge 17, Type (0, 0), BuildingBlock: XIVTED_clean_linker_0, # of connection points: 2
#     Edge 18, Type (0, 0), BuildingBlock: XIVTED_clean_linker_0, # of connection points: 2
#     Edge 19, Type (0, 0), BuildingBlock: XIVTED_clean_linker_0, # of connection points: 2
#     Edge 20, Type (0, 0), BuildingBlock: XIVTED_clean_linker_0, # of connection points: 2
#     Edge 21, Type (0, 0), BuildingBlock: XIVTED_clean_linker_0, # of connection points: 2
#     Edge 22, Type (0, 0), BuildingBlock: XIVTED_clean_linker_0, # of connection points: 2
#     Edge 23, Type (0, 0), BuildingBlock: XIVTED_clean_linker_0, # of connection points: 2
# Relax obj value: 0.051
# Max RMSD: 0.062
# Mean RMSD: 0.062
data_MOF--net-mok--node1-NAHDIM_clean_sbu_0--edge1-XIVTED_clean_linker_0
_symmetry_space_group_name_H-M    P1
_symmetry_Int_Tables_number       1
_symmetry_cell_setting            triclinic
loop_
_symmetry_equiv_pos_as_xyz
'x, y, z'
_cell_length_a     50.271892
_cell_length_b     20.208381
_cell_length_c     25.156581
_cell_angle_alpha  90.058493
_cell_angle_beta   90.069641
_cell_angle_gamma 89.878123
loop_
_atom_site_label
_atom_site_type_symbol
_atom_site_fract_x
_atom_site_fract_y
_atom_site_fract_z
_atom_type_partial_charge
C0 C 0.55692 0.19442 0.01053 0.0
O1 O 0.54616 0.25323 0.00446 0.0
O2 O 0.59451 0.32201 0.94426 0.0
Zn3 Zn 0.60444 0.27165 0.01076 0.0
O4 O 0.59972 0.32405 0.07863 0.0
C5 C 0.6599 0.28659 0.9882 0.0
O6 O 0.6519 0.34626 0.97496 0.0
O7 O 0.58204 0.18958 0.0146 0.0
C8 C 0.60551 0.38487 0.08424 0.0
O9 O 0.61447 0.41845 0.04336 0.0
C10 C 0.57873 0.37098 0.94005 0.0
O11 O 0.56677 0.39442 0.98248 0.0
O12 O 0.64292 0.24496 0.00481 0.0
C13 C 0.4428 0.78788 0.01993 0.0
O14 O 0.45159 0.73184 0.03979 0.0
O15 O 0.39573 0.6531 0.94948 0.0
Zn16 Zn 0.3932 0.7162 0.01115 0.0
O17 O 0.39828 0.66919 0.08092 0.0
C18 C 0.33739 0.70861 0.00731 0.0
O19 O 0.34383 0.64555 0.00692 0.0
O20 O 0.41878 0.79194 0.00446 0.0
C21 C 0.40999 0.61379 0.08622 0.0
O22 O 0.42029 0.5847 0.04428 0.0
C23 C 0.41565 0.63874 0.92064 0.0
O24 O 0.43886 0.66578 0.93067 0.0
O25 O 0.35581 0.75148 0.00983 0.0
C26 C 0.55592 0.78307 0.51612 0.0
O27 O 0.545 0.72404 0.51632 0.0
O28 O 0.59193 0.65341 0.58649 0.0
Zn29 Zn 0.60236 0.7034 0.5203 0.0
O30 O 0.59606 0.65165 0.45288 0.0
C31 C 0.65123 0.76323 0.55855 0.0
O32 O 0.63522 0.79445 0.59139 0.0
O33 O 0.58112 0.78764 0.51741 0.0
C34 C 0.60774 0.59684 0.44429 0.0
O35 O 0.62329 0.57183 0.4812 0.0
C36 C 0.57961 0.5986 0.58828 0.0
O37 O 0.57227 0.5696 0.54391 0.0
O38 O 0.64148 0.72325 0.52476 0.0
C39 C 0.44294 0.19328 0.51078 0.0
O40 O 0.45374 0.25245 0.51086 0.0
O41 O 0.40407 0.32669 0.57341 0.0
Zn42 Zn 0.39575 0.27141 0.50836 0.0
O43 O 0.40432 0.32282 0.44207 0.0
C44 C 0.34608 0.21023 0.54063 0.0
O45 O 0.36116 0.18119 0.5764 0.0
O46 O 0.41776 0.18834 0.50985 0.0
C47 C 0.39522 0.38109 0.4364 0.0
O48 O 0.38076 0.40705 0.47458 0.0
C49 C 0.38556 0.35722 0.59765 0.0
O50 O 0.3611 0.35305 0.57959 0.0
O51 O 0.35669 0.24903 0.50709 0.0
C52 C 0.04503 0.71824 0.02441 0.0
O53 O 0.03243 0.77408 0.0337 0.0
O54 O 0.07276 0.85195 0.93769 0.0
Zn55 Zn 0.08765 0.80637 0.00225 0.0
O56 O 0.08287 0.85633 0.07051 0.0
C57 C 0.1442 0.83248 0.99278 0.0
O58 O 0.13681 0.89459 0.99752 0.0
O59 O 0.06921 0.7198 0.01007 0.0
C60 C 0.08363 0.91855 0.0774 0.0
O61 O 0.08704 0.95781 0.0364 0.0
C62 C 0.05292 0.89101 0.93569 0.0
O63 O 0.04046 0.90791 0.97951 0.0
O64 O 0.12661 0.78741 0.99259 0.0
C65 C 0.95239 0.28119 0.02959 0.0
O66 O 0.96548 0.22505 0.03329 0.0
O67 O 0.92459 0.14625 0.95068 0.0
Zn68 Zn 0.90895 0.19357 0.01382 0.0
O69 O 0.91288 0.14503 0.08303 0.0
C70 C 0.85343 0.16666 0.99187 0.0
O71 O 0.86165 0.10502 0.9893 0.0
O72 O 0.92749 0.28012 0.02127 0.0
C73 C 0.91007 0.08327 0.09032 0.0
O74 O 0.90496 0.04454 0.04963 0.0
C75 C 0.94313 0.10338 0.95028 0.0
O76 O 0.95375 0.08322 0.99516 0.0
O77 O 0.87017 0.21229 0.0011 0.0
C78 C 0.05063 0.28814 0.51586 0.0
O79 O 0.03846 0.23096 0.51113 0.0
O80 O 0.07775 0.15339 0.59061 0.0
Zn81 Zn 0.09317 0.20031 0.52714 0.0
O82 O 0.08558 0.1536 0.45855 0.0
C83 C 0.14724 0.17005 0.55989 0.0
O84 O 0.13578 0.12114 0.58543 0.0
O85 O 0.07563 0.28885 0.52313 0.0
C86 C 0.09384 0.09556 0.44839 0.0
O87 O 0.10699 0.06261 0.48498 0.0
C88 C 0.06062 0.10726 0.5889 0.0
O89 O 0.05243 0.08458 0.54277 0.0
O90 O 0.13291 0.21054 0.53379 0.0
C91 C 0.94754 0.71218 0.5237 0.0
O92 O 0.95945 0.76974 0.51947 0.0
O93 O 0.919 0.84371 0.60258 0.0
Zn94 Zn 0.90403 0.79758 0.53821 0.0
O95 O 0.91047 0.8466 0.47025 0.0
C96 C 0.84943 0.82244 0.57044 0.0
O97 O 0.85977 0.87449 0.59394 0.0
O98 O 0.92264 0.71063 0.53201 0.0
C99 C 0.90314 0.90572 0.46144 0.0
O100 O 0.89148 0.93966 0.49944 0.0
C101 C 0.93659 0.88883 0.60214 0.0
O102 O 0.9456 0.91126 0.55663 0.0
O103 O 0.86461 0.7827 0.54556 0.0
H104 H 0.81137 0.08087 0.98627 0.0
H105 H 0.70191 0.36801 0.96669 0.0
H106 H 0.83032 0.28917 0.98576 0.0
H107 H 0.68283 0.16455 0.00207 0.0
H108 H 0.74899 0.3383 0.96364 0.0
H109 H 0.76407 0.10911 0.98195 0.0
C110 C 0.80561 0.13252 0.98498 0.0
C111 C 0.82483 0.18274 0.98665 0.0
C112 C 0.7345 0.30013 0.972 0.0
C113 C 0.77078 0.21532 0.98167 0.0
C114 C 0.7076 0.31702 0.97365 0.0
C115 C 0.68839 0.26874 0.98489 0.0
C116 C 0.74229 0.23439 0.9813 0.0
C117 C 0.69696 0.20345 0.99354 0.0
C118 C 0.77861 0.14858 0.98268 0.0
C119 C 0.81619 0.24882 0.98484 0.0
N120 N 0.72329 0.18818 0.99156 0.0
N121 N 0.78981 0.26317 0.98248 0.0
H122 H 0.16603 0.70893 0.98374 0.0
H123 H 0.3166 0.83442 0.00787 0.0
H124 H 0.1874 0.91502 -0.00179 0.0
H125 H 0.29384 0.62883 -0.00152 0.0
H126 H 0.26964 0.86577 0.00155 0.0
H127 H 0.21306 0.67954 0.98551 0.0
C128 C 0.18062 0.74809 0.98708 0.0
C129 C 0.17272 0.81457 0.99102 0.0
C130 C 0.27495 0.81382 0.00085 0.0
C131 C 0.22675 0.78113 0.99329 0.0
C132 C 0.30175 0.79588 0.0045 0.0
C133 C 0.30916 0.72887 0.00382 0.0
C134 C 0.25545 0.7644 0.99643 0.0
C135 C 0.28907 0.68108 -0.00072 0.0
C136 C 0.20751 0.73124 0.98816 0.0
C137 C 0.19256 0.86313 0.99515 0.0
N138 N 0.26318 0.69978 0.99579 0.0
N139 N 0.21867 0.84543 0.99635 0.0
H140 H 0.8214 0.72514 0.51962 0.0
H141 H 0.67899 0.85032 0.6213 0.0
H142 H 0.81104 0.89532 0.62148 0.0
H143 H 0.68994 0.69785 0.50293 0.0
H144 H 0.7273 0.86407 0.62601 0.0
H145 H 0.77327 0.7104 0.51769 0.0
C146 C 0.80902 0.75933 0.54176 0.0
C147 C 0.82031 0.81167 0.57067 0.0
C148 C 0.7191 0.82767 0.59899 0.0
C149 C 0.76504 0.79509 0.56853 0.0
C150 C 0.69152 0.81977 0.59629 0.0
C151 C 0.68037 0.77293 0.5616 0.0
C152 C 0.73566 0.78821 0.56699 0.0
C153 C 0.69761 0.73471 0.53015 0.0
C154 C 0.78149 0.75096 0.54052 0.0
C155 C 0.80321 0.85436 0.59857 0.0
N156 N 0.72435 0.74313 0.53368 0.0
N157 N 0.77643 0.84516 0.59679 0.0
H158 H 0.18396 0.09586 0.61446 0.0
H159 H 0.30898 0.27276 0.47873 0.0
H160 H 0.17746 0.25714 0.50272 0.0
H161 H 0.31641 0.13029 0.6057 0.0
H162 H 0.2607 0.26305 0.48393 0.0
H163 H 0.23244 0.10404 0.6095 0.0
C164 C 0.1927 0.13311 0.589 0.0
C165 C 0.17658 0.17588 0.55896 0.0
C166 C 0.27287 0.23383 0.51065 0.0
C167 C 0.23207 0.1852 0.55286 0.0
C168 C 0.30048 0.23916 0.50758 0.0
C169 C 0.31681 0.2023 0.54187 0.0
C170 C 0.2614 0.19114 0.54816 0.0
C171 C 0.30461 0.15969 0.5785 0.0
C172 C 0.22039 0.13772 0.58619 0.0
C173 C 0.18905 0.22318 0.52666 0.0
N174 N 0.27763 0.15528 0.58069 0.0
N175 N 0.21601 0.2264 0.52436 0.0
H176 H 0.60469 0.51722 0.10748 0.0
H177 H 0.61983 0.46847 0.41928 0.0
H178 H 0.60184 0.32465 0.18129 0.0
H179 H 0.58969 0.64946 0.35073 0.0
H180 H 0.61729 0.41596 0.33164 0.0
H181 H 0.60313 0.56835 0.19577 0.0
C182 C 0.60367 0.48573 0.14223 0.0
C183 C 0.60342 0.4166 0.13706 0.0
C184 C 0.61107 0.46704 0.33593 0.0
C185 C 0.60195 0.47468 0.23798 0.0
C186 C 0.6126 0.49708 0.38584 0.0
C187 C 0.605 0.56344 0.39226 0.0
C188 C 0.60236 0.50398 0.29196 0.0
C189 C 0.59569 0.59812 0.34759 0.0
C190 C 0.60268 0.51492 0.19253 0.0
C191 C 0.60199 0.37815 0.18344 0.0
N192 N 0.59488 0.56818 0.2992 0.0
N193 N 0.60156 0.4077 0.23199 0.0
H194 H 0.43157 0.49315 0.11217 0.0
H195 H 0.37903 0.50677 0.41232 0.0
H196 H 0.38981 0.65983 0.18016 0.0
H197 H 0.42162 0.33986 0.34681 0.0
H198 H 0.38479 0.56541 0.32847 0.0
H199 H 0.43016 0.43803 0.19868 0.0
C200 C 0.42223 0.51832 0.1453 0.0
C201 C 0.41067 0.58108 0.13879 0.0
C202 C 0.39298 0.51606 0.33243 0.0
C203 C 0.40892 0.51822 0.23782 0.0
C204 C 0.38969 0.4825 0.38037 0.0
C205 C 0.39974 0.41814 0.38656 0.0
C206 C 0.40635 0.48507 0.29016 0.0
C207 C 0.41347 0.38934 0.34376 0.0
C208 C 0.42142 0.4868 0.19468 0.0
C209 C 0.39888 0.61135 0.18319 0.0
N210 N 0.41626 0.4229 0.29729 0.0
N211 N 0.39822 0.57954 0.23067 0.0
H212 H 0.36945 0.58255 0.88637 0.0
H213 H 0.4342 0.38913 0.64082 0.0
H214 H 0.45329 0.59282 0.85002 0.0
H215 H 0.34976 0.41556 0.66421 0.0
H216 H 0.44247 0.45565 0.72077 0.0
H217 H 0.36286 0.51242 0.80899 0.0
C218 C 0.38655 0.56991 0.86219 0.0
C219 C 0.41198 0.59394 0.87466 0.0
C220 C 0.42217 0.44681 0.70827 0.0
C221 C 0.40447 0.5133 0.78548 0.0
C222 C 0.41742 0.4088 0.66275 0.0
C223 C 0.39124 0.39686 0.64576 0.0
C224 C 0.40056 0.47248 0.7371 0.0
C225 C 0.37027 0.4236 0.67565 0.0
C226 C 0.38273 0.5299 0.81782 0.0
C227 C 0.43333 0.57561 0.84178 0.0
N228 N 0.3754 0.45996 0.71982 0.0
N229 N 0.42909 0.53635 0.79857 0.0
H230 H 0.58739 0.31682 0.84221 0.0
H231 H 0.57963 0.65558 0.68683 0.0
H232 H 0.56161 0.49704 0.91877 0.0
H233 H 0.56982 0.46763 0.60765 0.0
H234 H 0.57567 0.59955 0.77267 0.0
H235 H 0.5838 0.3718 0.75595 0.0
C236 C 0.58086 0.36791 0.84082 0.0
C237 C 0.57491 0.40259 0.88769 0.0
C238 C 0.57412 0.57073 0.73647 0.0
C239 C 0.57106 0.46585 0.78926 0.0
C240 C 0.5765 0.60256 0.68752 0.0
C241 C 0.5752 0.56608 0.64008 0.0
C242 C 0.57098 0.50179 0.73801 0.0
C243 C 0.57093 0.49761 0.64326 0.0
C244 C 0.57869 0.3991 0.79159 0.0
C245 C 0.56636 0.46853 0.88357 0.0
N246 N 0.56933 0.46749 0.69146 0.0
N247 N 0.56502 0.49838 0.83519 0.0
H248 H 0.07965 0.04844 0.10845 0.0
H249 H 0.10336 0.9686 0.41526 0.0
H250 H 0.08525 0.8498 0.17069 0.0
H251 H 0.07566 0.15862 0.35933 0.0
H252 H 0.09885 0.92495 0.32502 0.0
H253 H 0.0801 0.09115 0.19959 0.0
C254 C 0.08086 0.01384 0.14122 0.0
C255 C 0.0825 0.94551 0.13194 0.0
C256 C 0.0936 0.9761 0.33261 0.0
C257 C 0.08322 0.99392 0.23603 0.0
C258 C 0.09623 0.00105 0.38407 0.0
C259 C 0.08995 0.06734 0.3948 0.0
C260 C 0.08493 0.01796 0.2915 0.0
C261 C 0.08073 0.10715 0.35286 0.0
C262 C 0.08106 0.0382 0.19319 0.0
C263 C 0.08396 0.90288 0.17592 0.0
N264 N 0.07869 0.08197 0.30296 0.0
N265 N 0.08448 0.92782 0.226 0.0
H266 H 0.89542 0.03418 0.42988 0.0
H267 H 0.91105 0.95318 0.12105 0.0
H268 H 0.91786 0.84145 0.37051 0.0
H269 H 0.91145 0.15214 0.18383 0.0
H270 H 0.91109 0.91041 0.21202 0.0
H271 H 0.89879 0.07804 0.33947 0.0
C272 C 0.90114 0.00117 0.39791 0.0
C273 C 0.9063 0.93406 0.40773 0.0
C274 C 0.91131 0.96342 0.2058 0.0
C275 C 0.90998 0.98367 0.30433 0.0
C276 C 0.91123 0.98784 0.15392 0.0
C277 C 0.9112 0.05629 0.14483 0.0
C278 C 0.91105 0.0078 0.24884 0.0
C279 C 0.91149 0.09896 0.18895 0.0
C280 C 0.90312 0.02623 0.34637 0.0
C281 C 0.91371 0.89355 0.3648 0.0
N282 N 0.91123 0.07401 0.23903 0.0
N283 N 0.91514 0.91888 0.31493 0.0
H284 H 0.93601 0.83079 0.69983 0.0
H285 H 0.94271 0.16203 0.85313 0.0
H286 H 0.95861 0.01082 0.61979 0.0
H287 H 0.96202 0.97828 0.93143 0.0
H288 H 0.94997 0.10868 0.76713 0.0
H289 H 0.94671 0.88251 0.78505 0.0
C290 C 0.94345 0.88107 0.70022 0.0
C291 C 0.94595 0.91712 0.65287 0.0
C292 C 0.9531 0.08031 0.80311 0.0
C293 C 0.95795 0.9766 0.75009 0.0
C294 C 0.94879 0.11057 0.85213 0.0
C295 C 0.95132 0.07405 0.89922 0.0
C296 C 0.95919 0.0126 0.8012 0.0
C297 C 0.95962 0.00789 0.8959 0.0
C298 C 0.94977 0.91031 0.74879 0.0
C299 C 0.95612 0.98162 0.65548 0.0
N300 N 0.96265 0.97869 0.84753 0.0
N301 N 0.96121 0.00992 0.70348 0.0
H302 H 0.05724 0.83361 0.83843 0.0
H303 H 0.05853 0.16499 0.68674 0.0
H304 H 0.03087 0.01264 0.9158 0.0
H305 H 0.04067 0.98285 0.6046 0.0
H306 H 0.04752 0.1116 0.77106 0.0
H307 H 0.05022 0.88623 0.75213 0.0
C308 C 0.04968 0.88384 0.83713 0.0
C309 C 0.04507 0.91938 0.8841 0.0
C310 C 0.04555 0.08369 0.73449 0.0
C311 C 0.03743 0.98005 0.7858 0.0
C312 C 0.05205 0.1139 0.68647 0.0
C313 C 0.05097 0.0778 0.63886 0.0
C314 C 0.03866 0.01648 0.73499 0.0
C315 C 0.04202 0.01215 0.64055 0.0
C316 C 0.0455 0.91363 0.78793 0.0
C317 C 0.0349 0.98389 0.88037 0.0
N318 N 0.03677 0.98303 0.68807 0.0
N319 N 0.03203 0.01288 0.83192 0.0
H320 H 0.49591 0.79576 0.04408 0.0
H321 H 0.50311 0.18674 0.99589 0.0
H322 H 0.4295 0.9138 0.99006 0.0
H323 H 0.57221 0.06589 0.02801 0.0
H324 H 0.47554 0.08752 0.99735 0.0
H325 H 0.524 0.8944 0.04165 0.0
C326 C 0.48724 0.84234 0.03161 0.0
C327 C 0.4603 0.84651 0.01729 0.0
C328 C 0.49674 0.08265 0.00401 0.0
C329 C 0.49229 0.95957 0.01466 0.0
C330 C 0.5125 0.13935 0.00331 0.0
C331 C 0.54002 0.13465 0.01181 0.0
C332 C 0.50854 0.02071 0.01353 0.0
C333 C 0.55107 0.07184 0.02118 0.0
C334 C 0.50329 0.89862 0.0302 0.0
C335 C 0.45016 0.90819 0.00141 0.0
N336 N 0.53528 0.01733 0.02187 0.0
N337 N 0.46613 0.96227 0.00069 0.0
H338 H 0.50158 0.79023 0.51323 0.0
H339 H 0.49734 0.18644 0.51282 0.0
H340 H 0.57181 0.91282 0.5163 0.0
H341 H 0.4272 0.06351 0.51044 0.0
H342 H 0.52496 0.08688 0.51385 0.0
H343 H 0.47405 0.88984 0.51182 0.0
C344 C 0.51123 0.83809 0.51358 0.0
C345 C 0.53907 0.84314 0.51489 0.0
C346 C 0.50353 0.08166 0.5131 0.0
C347 C 0.50761 0.95755 0.51332 0.0
C348 C 0.48773 0.13853 0.51252 0.0
C349 C 0.45989 0.13335 0.51154 0.0
C350 C 0.49144 0.01907 0.51269 0.0
C351 C 0.44858 0.0699 0.51119 0.0
C352 C 0.49548 0.895 0.51279 0.0
C353 C 0.55043 0.90654 0.51529 0.0
N354 N 0.46439 0.01528 0.51176 0.0
N355 N 0.53466 0.96124 0.51452 0.0
H356 H 0.99221 0.69663 0.04392 0.0
H357 H 0.00607 0.30226 0.0353 0.0
H358 H 0.06646 0.59422 0.01678 0.0
H359 H 0.93072 0.40528 0.03271 0.0
H360 H 0.0289 0.40883 0.03821 0.0
H361 H 0.96965 0.58986 0.04952 0.0
C362 C 0.00378 0.65172 0.03932 0.0
C363 C 0.03122 0.65429 0.02957 0.0
C364 C 0.00737 0.40805 0.03711 0.0
C365 C 0.00558 0.53217 0.03601 0.0
C366 C 0.99433 0.34726 0.03557 0.0
C367 C 0.96647 0.34494 0.03345 0.0
C368 C 0.99242 0.46685 0.03681 0.0
C369 C 0.95225 0.40479 0.03398 0.0
C370 C 0.99089 0.59083 0.04243 0.0
C371 C 0.04524 0.59455 0.02403 0.0
N372 N 0.9654 0.46333 0.03553 0.0
N373 N 0.03225 0.53591 0.02727 0.0
H374 H 0.99674 0.30287 0.50817 0.0
H375 H 0.00142 0.69834 0.5137 0.0
H376 H 0.06955 0.41508 0.5195 0.0
H377 H 0.92889 0.58508 0.5248 0.0
H378 H 0.02672 0.59523 0.50916 0.0
H379 H 0.97155 0.40616 0.50752 0.0
C380 C 0.00745 0.34924 0.51039 0.0
C381 C 0.03529 0.35038 0.51408 0.0
C382 C 0.00527 0.59296 0.51255 0.0
C383 C 0.00656 0.46878 0.51334 0.0
C384 C 0.9908 0.6518 0.51506 0.0
C385 C 0.96301 0.65027 0.51981 0.0
C386 C 0.99183 0.53219 0.51459 0.0
C387 C 0.9503 0.58856 0.52134 0.0
C388 C 0.99304 0.40821 0.5101 0.0
C389 C 0.0481 0.41192 0.51679 0.0
N390 N 0.96482 0.53195 0.51876 0.0
N391 N 0.03362 0.46871 0.51641 0.0
loop_
_geom_bond_atom_site_label_1
_geom_bond_atom_site_label_2
_geom_bond_distance
_geom_bond_site_symmetry_2
_ccdc_geom_bond_type
C0 O1 1.160 1_554 S
C0 O7 1.185 . S
O1 C0 1.160 1_556 S
O2 Zn3 1.899 1_556 S
O2 C10 1.284 . S
Zn3 O2 1.899 1_554 S
Zn3 O4 2.032 . S
Zn3 O7 2.086 . S
Zn3 O12 1.977 . S
O4 Zn3 2.032 . S
O4 C8 1.278 . S
C5 O6 1.203 1_554 S
C5 O12 1.267 . S
O6 C5 1.203 1_556 S
O7 C0 1.185 . S
O7 Zn3 2.086 . S
C8 O4 1.278 . S
C8 O9 1.211 . S
O9 C8 1.211 . S
C10 O2 1.284 . S
C10 O11 1.273 . S
O11 C10 1.273 . S
O12 Zn3 1.977 . S
O12 C5 1.267 . S
C13 O14 1.160 1_554 S
C13 O20 1.185 . S
O14 C13 1.160 1_556 S
O15 Zn16 1.899 1_556 S
O15 C23 1.284 . S
Zn16 O15 1.899 1_554 S
Zn16 O17 2.032 . S
Zn16 O20 2.086 . S
Zn16 O25 1.977 . S
O17 Zn16 2.032 . S
O17 C21 1.278 . S
C18 O19 1.203 1_554 S
C18 O25 1.267 . S
O19 C18 1.203 1_556 S
O20 C13 1.185 . S
O20 Zn16 2.086 . S
C21 O17 1.278 . S
C21 O22 1.211 . S
O22 C21 1.211 . S
C23 O15 1.284 . S
C23 O24 1.273 . S
O24 C23 1.273 . S
O25 Zn16 1.977 . S
O25 C18 1.267 . S
C26 O27 1.160 . S
C26 O33 1.185 . S
O27 C26 1.160 . S
O28 Zn29 1.899 . S
O28 C36 1.284 . S
Zn29 O28 1.899 . S
Zn29 O30 2.032 . S
Zn29 O33 2.086 . S
Zn29 O38 1.977 . S
O30 Zn29 2.032 . S
O30 C34 1.278 . S
C31 O32 1.203 . S
C31 O38 1.267 . S
O32 C31 1.203 . S
O33 C26 1.185 . S
O33 Zn29 2.086 . S
C34 O30 1.278 . S
C34 O35 1.211 . S
O35 C34 1.211 . S
C36 O28 1.284 . S
C36 O37 1.273 . S
O37 C36 1.273 . S
O38 Zn29 1.977 . S
O38 C31 1.267 . S
C39 O40 1.160 . S
C39 O46 1.185 . S
O40 C39 1.160 . S
O41 Zn42 1.899 . S
O41 C49 1.284 . S
Zn42 O41 1.899 . S
Zn42 O43 2.032 . S
Zn42 O46 2.086 . S
Zn42 O51 1.977 . S
O43 Zn42 2.032 . S
O43 C47 1.278 . S
C44 O45 1.203 . S
C44 O51 1.267 . S
O45 C44 1.203 . S
O46 C39 1.185 . S
O46 Zn42 2.086 . S
C47 O43 1.278 . S
C47 O48 1.211 . S
O48 C47 1.211 . S
C49 O41 1.284 . S
C49 O50 1.273 . S
O50 C49 1.273 . S
O51 Zn42 1.977 . S
O51 C44 1.267 . S
C52 O53 1.160 1_554 S
C52 O59 1.185 . S
O53 C52 1.160 1_556 S
O54 Zn55 1.899 1_556 S
O54 C62 1.284 . S
Zn55 O54 1.899 1_554 S
Zn55 O56 2.032 . S
Zn55 O59 2.086 . S
Zn55 O64 1.977 . S
O56 Zn55 2.032 . S
O56 C60 1.278 . S
C57 O58 1.203 1_554 S
C57 O64 1.267 . S
O58 C57 1.203 1_556 S
O59 C52 1.185 . S
O59 Zn55 2.086 . S
C60 O56 1.278 . S
C60 O61 1.211 . S
O61 C60 1.211 . S
C62 O54 1.284 . S
C62 O63 1.273 . S
O63 C62 1.273 . S
O64 Zn55 1.977 . S
O64 C57 1.267 . S
C65 O66 1.160 1_554 S
C65 O72 1.185 . S
O66 C65 1.160 1_556 S
O67 Zn68 1.899 1_556 S
O67 C75 1.284 . S
Zn68 O67 1.899 1_554 S
Zn68 O69 2.032 . S
Zn68 O72 2.086 . S
Zn68 O77 1.977 . S
O69 Zn68 2.032 . S
O69 C73 1.278 . S
C70 O71 1.203 1_554 S
C70 O77 1.267 . S
O71 C70 1.203 1_556 S
O72 C65 1.185 . S
O72 Zn68 2.086 . S
C73 O69 1.278 . S
C73 O74 1.211 . S
O74 C73 1.211 . S
C75 O67 1.284 . S
C75 O76 1.273 . S
O76 C75 1.273 . S
O77 Zn68 1.977 . S
O77 C70 1.267 . S
C78 O79 1.160 . S
C78 O85 1.185 . S
O79 C78 1.160 . S
O80 Zn81 1.899 . S
O80 C88 1.284 . S
Zn81 O80 1.899 . S
Zn81 O82 2.032 . S
Zn81 O85 2.086 . S
Zn81 O90 1.977 . S
O82 Zn81 2.032 . S
O82 C86 1.278 . S
C83 O84 1.203 . S
C83 O90 1.267 . S
O84 C83 1.203 . S
O85 C78 1.185 . S
O85 Zn81 2.086 . S
C86 O82 1.278 . S
C86 O87 1.211 . S
O87 C86 1.211 . S
C88 O80 1.284 . S
C88 O89 1.273 . S
O89 C88 1.273 . S
O90 Zn81 1.977 . S
O90 C83 1.267 . S
C91 O92 1.160 . S
C91 O98 1.185 . S
O92 C91 1.160 . S
O93 Zn94 1.899 . S
O93 C101 1.284 . S
Zn94 O93 1.899 . S
Zn94 O95 2.032 . S
Zn94 O98 2.086 . S
Zn94 O103 1.977 . S
O95 Zn94 2.032 . S
O95 C99 1.278 . S
C96 O97 1.203 . S
C96 O103 1.267 . S
O97 C96 1.203 . S
O98 C91 1.185 . S
O98 Zn94 2.086 . S
C99 O95 1.278 . S
C99 O100 1.211 . S
O100 C99 1.211 . S
C101 O93 1.284 . S
C101 O102 1.273 . S
O102 C101 1.273 . S
O103 Zn94 1.977 . S
O103 C96 1.267 . S
H104 C110 0.930 . S
H105 C114 0.930 . S
H106 C119 0.929 . S
H107 C117 0.929 . S
H108 C112 0.929 . S
H109 C118 0.929 . S
C110 H104 0.930 . S
C110 C111 1.367 . S
C110 C118 1.378 . S
C111 C110 1.367 . S
C111 C119 1.433 . S
C112 H108 0.929 . S
C112 C114 1.378 . S
C112 C116 1.350 . S
C113 C116 1.463 . S
C113 C118 1.350 . S
C113 N121 1.427 . S
C114 H105 0.930 . S
C114 C112 1.378 . S
C114 C115 1.367 . S
C115 C114 1.367 . S
C115 C117 1.433 . S
C116 C112 1.350 . S
C116 C113 1.463 . S
C116 N120 1.427 . S
C117 H107 0.929 . S
C117 C115 1.433 . S
C117 N120 1.384 . S
C118 H109 0.929 . S
C118 C110 1.378 . S
C118 C113 1.350 . S
C119 H106 0.929 . S
C119 C111 1.433 . S
C119 N121 1.384 . S
N120 C116 1.427 . S
N120 C117 1.384 . S
N121 C113 1.427 . S
N121 C119 1.384 . S
H122 C128 0.930 . S
H123 C132 0.930 . S
H124 C137 0.929 . S
H125 C135 0.929 . S
H126 C130 0.929 . S
H127 C136 0.929 . S
C128 H122 0.930 . S
C128 C129 1.367 1_556 S
C128 C136 1.378 . S
C129 C128 1.367 1_554 S
C129 C137 1.433 . S
C130 H126 0.929 . S
C130 C132 1.378 . S
C130 C134 1.350 . S
C131 C134 1.463 . S
C131 C136 1.350 1_554 S
C131 N139 1.427 . S
C132 H123 0.930 . S
C132 C130 1.378 . S
C132 C133 1.367 . S
C133 C132 1.367 . S
C133 C135 1.433 1_554 S
C134 C130 1.350 . S
C134 C131 1.463 . S
C134 N138 1.427 1_554 S
C135 H125 0.929 . S
C135 C133 1.433 1_556 S
C135 N138 1.384 . S
C136 H127 0.929 . S
C136 C128 1.378 . S
C136 C131 1.350 1_556 S
C137 H124 0.929 . S
C137 C129 1.433 . S
C137 N139 1.384 . S
N138 C134 1.427 1_556 S
N138 C135 1.384 . S
N139 C131 1.427 . S
N139 C137 1.384 . S
H140 C146 0.930 . S
H141 C150 0.930 . S
H142 C155 0.929 . S
H143 C153 0.929 . S
H144 C148 0.929 . S
H145 C154 0.929 . S
C146 H140 0.930 . S
C146 C147 1.367 . S
C146 C154 1.378 . S
C147 C146 1.367 . S
C147 C155 1.433 . S
C148 H144 0.929 . S
C148 C150 1.378 . S
C148 C152 1.350 . S
C149 C152 1.463 . S
C149 C154 1.350 . S
C149 N157 1.427 . S
C150 H141 0.930 . S
C150 C148 1.378 . S
C150 C151 1.367 . S
C151 C150 1.367 . S
C151 C153 1.433 . S
C152 C148 1.350 . S
C152 C149 1.463 . S
C152 N156 1.427 . S
C153 H143 0.929 . S
C153 C151 1.433 . S
C153 N156 1.384 . S
C154 H145 0.929 . S
C154 C146 1.378 . S
C154 C149 1.350 . S
C155 H142 0.929 . S
C155 C147 1.433 . S
C155 N157 1.384 . S
N156 C152 1.427 . S
N156 C153 1.384 . S
N157 C149 1.427 . S
N157 C155 1.384 . S
H158 C164 0.930 . S
H159 C168 0.930 . S
H160 C173 0.929 . S
H161 C171 0.929 . S
H162 C166 0.929 . S
H163 C172 0.929 . S
C164 H158 0.930 . S
C164 C165 1.367 . S
C164 C172 1.378 . S
C165 C164 1.367 . S
C165 C173 1.433 . S
C166 H162 0.929 . S
C166 C168 1.378 . S
C166 C170 1.350 . S
C167 C170 1.463 . S
C167 C172 1.350 . S
C167 N175 1.427 . S
C168 H159 0.930 . S
C168 C166 1.378 . S
C168 C169 1.367 . S
C169 C168 1.367 . S
C169 C171 1.433 . S
C170 C166 1.350 . S
C170 C167 1.463 . S
C170 N174 1.427 . S
C171 H161 0.929 . S
C171 C169 1.433 . S
C171 N174 1.384 . S
C172 H163 0.929 . S
C172 C164 1.378 . S
C172 C167 1.350 . S
C173 H160 0.929 . S
C173 C165 1.433 . S
C173 N175 1.384 . S
N174 C170 1.427 . S
N174 C171 1.384 . S
N175 C167 1.427 . S
N175 C173 1.384 . S
H176 C182 0.930 . S
H177 C186 0.930 . S
H178 C191 0.929 . S
H179 C189 0.929 . S
H180 C184 0.929 . S
H181 C190 0.929 . S
C182 H176 0.930 . S
C182 C183 1.367 . S
C182 C190 1.378 . S
C183 C182 1.367 . S
C183 C191 1.433 . S
C184 H180 0.929 . S
C184 C186 1.378 . S
C184 C188 1.350 . S
C185 C188 1.463 . S
C185 C190 1.350 . S
C185 N193 1.427 . S
C186 H177 0.930 . S
C186 C184 1.378 . S
C186 C187 1.367 . S
C187 C186 1.367 . S
C187 C189 1.433 . S
C188 C184 1.350 . S
C188 C185 1.463 . S
C188 N192 1.427 . S
C189 H179 0.929 . S
C189 C187 1.433 . S
C189 N192 1.384 . S
C190 H181 0.929 . S
C190 C182 1.378 . S
C190 C185 1.350 . S
C191 H178 0.929 . S
C191 C183 1.433 . S
C191 N193 1.384 . S
N192 C188 1.427 . S
N192 C189 1.384 . S
N193 C185 1.427 . S
N193 C191 1.384 . S
H194 C200 0.930 . S
H195 C204 0.930 . S
H196 C209 0.929 . S
H197 C207 0.929 . S
H198 C202 0.929 . S
H199 C208 0.929 . S
C200 H194 0.930 . S
C200 C201 1.367 . S
C200 C208 1.378 . S
C201 C200 1.367 . S
C201 C209 1.433 . S
C202 H198 0.929 . S
C202 C204 1.378 . S
C202 C206 1.350 . S
C203 C206 1.463 . S
C203 C208 1.350 . S
C203 N211 1.427 . S
C204 H195 0.930 . S
C204 C202 1.378 . S
C204 C205 1.367 . S
C205 C204 1.367 . S
C205 C207 1.433 . S
C206 C202 1.350 . S
C206 C203 1.463 . S
C206 N210 1.427 . S
C207 H197 0.929 . S
C207 C205 1.433 . S
C207 N210 1.384 . S
C208 H199 0.929 . S
C208 C200 1.378 . S
C208 C203 1.350 . S
C209 H196 0.929 . S
C209 C201 1.433 . S
C209 N211 1.384 . S
N210 C206 1.427 . S
N210 C207 1.384 . S
N211 C203 1.427 . S
N211 C209 1.384 . S
H212 C218 0.930 . S
H213 C222 0.930 . S
H214 C227 0.929 . S
H215 C225 0.929 . S
H216 C220 0.929 . S
H217 C226 0.929 . S
C218 H212 0.930 . S
C218 C219 1.367 . S
C218 C226 1.378 . S
C219 C218 1.367 . S
C219 C227 1.433 . S
C220 H216 0.929 . S
C220 C222 1.378 . S
C220 C224 1.350 . S
C221 C224 1.463 . S
C221 C226 1.350 . S
C221 N229 1.427 . S
C222 H213 0.930 . S
C222 C220 1.378 . S
C222 C223 1.367 . S
C223 C222 1.367 . S
C223 C225 1.433 . S
C224 C220 1.350 . S
C224 C221 1.463 . S
C224 N228 1.427 . S
C225 H215 0.929 . S
C225 C223 1.433 . S
C225 N228 1.384 . S
C226 H217 0.929 . S
C226 C218 1.378 . S
C226 C221 1.350 . S
C227 H214 0.929 . S
C227 C219 1.433 . S
C227 N229 1.384 . S
N228 C224 1.427 . S
N228 C225 1.384 . S
N229 C221 1.427 . S
N229 C227 1.384 . S
H230 C236 0.930 . S
H231 C240 0.930 . S
H232 C245 0.929 . S
H233 C243 0.929 . S
H234 C238 0.929 . S
H235 C244 0.929 . S
C236 H230 0.930 . S
C236 C237 1.367 . S
C236 C244 1.378 . S
C237 C236 1.367 . S
C237 C245 1.433 . S
C238 H234 0.929 . S
C238 C240 1.378 . S
C238 C242 1.350 . S
C239 C242 1.463 . S
C239 C244 1.350 . S
C239 N247 1.427 . S
C240 H231 0.930 . S
C240 C238 1.378 . S
C240 C241 1.367 . S
C241 C240 1.367 . S
C241 C243 1.433 . S
C242 C238 1.350 . S
C242 C239 1.463 . S
C242 N246 1.427 . S
C243 H233 0.929 . S
C243 C241 1.433 . S
C243 N246 1.384 . S
C244 H235 0.929 . S
C244 C236 1.378 . S
C244 C239 1.350 . S
C245 H232 0.929 . S
C245 C237 1.433 . S
C245 N247 1.384 . S
N246 C242 1.427 . S
N246 C243 1.384 . S
N247 C239 1.427 . S
N247 C245 1.384 . S
H248 C254 0.930 1_545 S
H249 C258 0.930 1_565 S
H250 C263 0.929 . S
H251 C261 0.929 . S
H252 C256 0.929 . S
H253 C262 0.929 . S
C254 H248 0.930 1_565 S
C254 C255 1.367 . S
C254 C262 1.378 1_565 S
C255 C254 1.367 . S
C255 C263 1.433 . S
C256 H252 0.929 . S
C256 C258 1.378 1_565 S
C256 C260 1.350 1_565 S
C257 C260 1.463 1_565 S
C257 C262 1.350 1_565 S
C257 N265 1.427 . S
C258 H249 0.930 1_545 S
C258 C256 1.378 1_545 S
C258 C259 1.367 . S
C259 C258 1.367 . S
C259 C261 1.433 . S
C260 C256 1.350 1_545 S
C260 C257 1.463 1_545 S
C260 N264 1.427 . S
C261 H251 0.929 . S
C261 C259 1.433 . S
C261 N264 1.384 . S
C262 H253 0.929 . S
C262 C254 1.378 1_545 S
C262 C257 1.350 1_545 S
C263 H250 0.929 . S
C263 C255 1.433 . S
C263 N265 1.384 . S
N264 C260 1.427 . S
N264 C261 1.384 . S
N265 C257 1.427 . S
N265 C263 1.384 . S
H266 C272 0.930 1_545 S
H267 C276 0.930 1_565 S
H268 C281 0.929 . S
H269 C279 0.929 . S
H270 C274 0.929 . S
H271 C280 0.929 . S
C272 H266 0.930 1_565 S
C272 C273 1.367 . S
C272 C280 1.378 1_565 S
C273 C272 1.367 . S
C273 C281 1.433 . S
C274 H270 0.929 . S
C274 C276 1.378 1_565 S
C274 C278 1.350 1_565 S
C275 C278 1.463 1_565 S
C275 C280 1.350 1_565 S
C275 N283 1.427 . S
C276 H267 0.930 1_545 S
C276 C274 1.378 1_545 S
C276 C277 1.367 . S
C277 C276 1.367 . S
C277 C279 1.433 . S
C278 C274 1.350 1_545 S
C278 C275 1.463 1_545 S
C278 N282 1.427 . S
C279 H269 0.929 . S
C279 C277 1.433 . S
C279 N282 1.384 . S
C280 H271 0.929 . S
C280 C272 1.378 1_545 S
C280 C275 1.350 1_545 S
C281 H268 0.929 . S
C281 C273 1.433 . S
C281 N283 1.384 . S
N282 C278 1.427 . S
N282 C279 1.384 . S
N283 C275 1.427 . S
N283 C281 1.384 . S
H284 C290 0.930 . S
H285 C294 0.930 . S
H286 C299 0.929 . S
H287 C297 0.929 . S
H288 C292 0.929 . S
H289 C298 0.929 . S
C290 H284 0.930 . S
C290 C291 1.367 . S
C290 C298 1.378 . S
C291 C290 1.367 . S
C291 C299 1.433 . S
C292 H288 0.929 . S
C292 C294 1.378 . S
C292 C296 1.350 . S
C293 C296 1.463 1_565 S
C293 C298 1.350 . S
C293 N301 1.427 . S
C294 H285 0.930 . S
C294 C292 1.378 . S
C294 C295 1.367 . S
C295 C294 1.367 . S
C295 C297 1.433 . S
C296 C292 1.350 . S
C296 C293 1.463 1_545 S
C296 N300 1.427 . S
C297 H287 0.929 . S
C297 C295 1.433 . S
C297 N300 1.384 . S
C298 H289 0.929 . S
C298 C290 1.378 . S
C298 C293 1.350 . S
C299 H286 0.929 . S
C299 C291 1.433 . S
C299 N301 1.384 . S
N300 C296 1.427 . S
N300 C297 1.384 . S
N301 C293 1.427 . S
N301 C299 1.384 . S
H302 C308 0.930 . S
H303 C312 0.930 . S
H304 C317 0.929 1_545 S
H305 C315 0.929 1_565 S
H306 C310 0.929 . S
H307 C316 0.929 . S
C308 H302 0.930 . S
C308 C309 1.367 . S
C308 C316 1.378 . S
C309 C308 1.367 . S
C309 C317 1.433 . S
C310 H306 0.929 . S
C310 C312 1.378 . S
C310 C314 1.350 . S
C311 C314 1.463 1_565 S
C311 C316 1.350 . S
C311 N319 1.427 1_565 S
C312 H303 0.930 . S
C312 C310 1.378 . S
C312 C313 1.367 . S
C313 C312 1.367 . S
C313 C315 1.433 . S
C314 C310 1.350 . S
C314 C311 1.463 1_545 S
C314 N318 1.427 1_545 S
C315 H305 0.929 1_545 S
C315 C313 1.433 . S
C315 N318 1.384 1_545 S
C316 H307 0.929 . S
C316 C308 1.378 . S
C316 C311 1.350 . S
C317 H304 0.929 1_565 S
C317 C309 1.433 . S
C317 N319 1.384 1_565 S
N318 C314 1.427 1_565 S
N318 C315 1.384 1_565 S
N319 C311 1.427 1_545 S
N319 C317 1.384 1_545 S
H320 C326 0.930 . S
H321 C330 0.930 . S
H322 C335 0.929 . S
H323 C333 0.929 . S
H324 C328 0.929 . S
H325 C334 0.929 . S
C326 H320 0.930 . S
C326 C327 1.367 . S
C326 C334 1.378 . S
C327 C326 1.367 . S
C327 C335 1.433 1_554 S
C328 H324 0.929 . S
C328 C330 1.378 . S
C328 C332 1.350 1_556 S
C329 C332 1.463 1_565 S
C329 C334 1.350 . S
C329 N337 1.427 1_554 S
C330 H321 0.930 . S
C330 C328 1.378 . S
C330 C331 1.367 1_556 S
C331 C330 1.367 1_554 S
C331 C333 1.433 . S
C332 C328 1.350 1_554 S
C332 C329 1.463 1_545 S
C332 N336 1.427 . S
C333 H323 0.929 . S
C333 C331 1.433 . S
C333 N336 1.384 . S
C334 H325 0.929 . S
C334 C326 1.378 . S
C334 C329 1.350 . S
C335 H322 0.929 . S
C335 C327 1.433 1_556 S
C335 N337 1.384 . S
N336 C332 1.427 . S
N336 C333 1.384 . S
N337 C329 1.427 1_556 S
N337 C335 1.384 . S
H338 C344 0.930 . S
H339 C348 0.930 . S
H340 C353 0.929 . S
H341 C351 0.929 . S
H342 C346 0.929 . S
H343 C352 0.929 . S
C344 H338 0.930 . S
C344 C345 1.367 . S
C344 C352 1.378 . S
C345 C344 1.367 . S
C345 C353 1.433 . S
C346 H342 0.929 . S
C346 C348 1.378 . S
C346 C350 1.350 . S
C347 C350 1.463 1_565 S
C347 C352 1.350 . S
C347 N355 1.427 . S
C348 H339 0.930 . S
C348 C346 1.378 . S
C348 C349 1.367 . S
C349 C348 1.367 . S
C349 C351 1.433 . S
C350 C346 1.350 . S
C350 C347 1.463 1_545 S
C350 N354 1.427 . S
C351 H341 0.929 . S
C351 C349 1.433 . S
C351 N354 1.384 . S
C352 H343 0.929 . S
C352 C344 1.378 . S
C352 C347 1.350 . S
C353 H340 0.929 . S
C353 C345 1.433 . S
C353 N355 1.384 . S
N354 C350 1.427 . S
N354 C351 1.384 . S
N355 C347 1.427 . S
N355 C353 1.384 . S
H356 C362 0.930 . S
H357 C366 0.930 . S
H358 C371 0.929 . S
H359 C369 0.929 . S
H360 C364 0.929 1_455 S
H361 C370 0.929 1_655 S
C362 H356 0.930 . S
C362 C363 1.367 . S
C362 C370 1.378 . S
C363 C362 1.367 . S
C363 C371 1.433 1_554 S
C364 H360 0.929 1_655 S
C364 C366 1.378 . S
C364 C368 1.350 1_556 S
C365 C368 1.463 1_455 S
C365 C370 1.350 . S
C365 N373 1.427 1_554 S
C366 H357 0.930 . S
C366 C364 1.378 . S
C366 C367 1.367 1_556 S
C367 C366 1.367 1_554 S
C367 C369 1.433 . S
C368 C364 1.350 1_554 S
C368 C365 1.463 1_655 S
C368 N372 1.427 . S
C369 H359 0.929 . S
C369 C367 1.433 . S
C369 N372 1.384 . S
C370 H361 0.929 1_455 S
C370 C362 1.378 . S
C370 C365 1.350 . S
C371 H358 0.929 . S
C371 C363 1.433 1_556 S
C371 N373 1.384 . S
N372 C368 1.427 . S
N372 C369 1.384 . S
N373 C365 1.427 1_556 S
N373 C371 1.384 . S
H374 C380 0.930 . S
H375 C384 0.930 . S
H376 C389 0.929 . S
H377 C387 0.929 . S
H378 C382 0.929 . S
H379 C388 0.929 . S
C380 H374 0.930 . S
C380 C381 1.367 . S
C380 C388 1.378 1_455 S
C381 C380 1.367 . S
C381 C389 1.433 . S
C382 H378 0.929 . S
C382 C384 1.378 1_455 S
C382 C386 1.350 1_455 S
C383 C386 1.463 1_455 S
C383 C388 1.350 1_455 S
C383 N391 1.427 . S
C384 H375 0.930 . S
C384 C382 1.378 1_655 S
C384 C385 1.367 . S
C385 C384 1.367 . S
C385 C387 1.433 . S
C386 C382 1.350 1_655 S
C386 C383 1.463 1_655 S
C386 N390 1.427 . S
C387 H377 0.929 . S
C387 C385 1.433 . S
C387 N390 1.384 . S
C388 H379 0.929 . S
C388 C380 1.378 1_655 S
C388 C383 1.350 1_655 S
C389 H376 0.929 . S
C389 C381 1.433 . S
C389 N391 1.384 . S
N390 C386 1.427 . S
N390 C387 1.384 . S
N391 C383 1.427 . S
N391 C389 1.384 . S
C111 C70 1.468 . S
C115 C5 1.469 . S
C129 C57 1.475 . S
C133 C18 1.479 . S
C147 C96 1.479 . S
C151 C31 1.475 . S
C165 C83 1.471 . S
C169 C44 1.476 . S
C183 C8 1.325 . S
C187 C34 1.322 . S
C201 C21 1.329 . S
C205 C47 1.318 . S
C219 C23 1.358 . S
C223 C49 1.361 . S
C237 C10 1.362 . S
C241 C36 1.361 . S
C255 C60 1.327 . S
C259 C86 1.320 . S
C273 C99 1.327 . S
C277 C73 1.320 . S
C291 C101 1.359 . S
C295 C75 1.361 . S
C309 C62 1.361 . S
C313 C88 1.362 . S
C327 C13 1.499 . S
C331 C0 1.492 . S
C345 C26 1.496 . S
C349 C39 1.494 . S
C363 C52 1.500 . S
C367 C65 1.492 . S
C381 C78 1.493 . S
C385 C91 1.498 . S
