# Generated by pormake.
# Topology sxb, (6)-cn, num edge types: 1
# Building blocks:
#     Node 0, Type 0, BuildingBlock: UKALOJ_clean_sbu_0, # of connection points: 6
#     Node 1, Type 0, BuildingBlock: UKALOJ_clean_sbu_0, # of connection points: 6
#     Node 2, Type 0, BuildingBlock: UKALOJ_clean_sbu_0, # of connection points: 6
#     Node 3, Type 0, BuildingBlock: UKALOJ_clean_sbu_0, # of connection points: 6
#     Edge 4, Type (0, 0), BuildingBlock: UVAHIK_clean_linker_0, # of connection points: 2
#     Edge 5, Type (0, 0), BuildingBlock: UVAHIK_clean_linker_0, # of connection points: 2
#     Edge 6, Type (0, 0), BuildingBlock: UVAHIK_clean_linker_0, # of connection points: 2
#     Edge 7, Type (0, 0), BuildingBlock: UVAHIK_clean_linker_0, # of connection points: 2
#     Edge 8, Type (0, 0), BuildingBlock: UVAHIK_clean_linker_0, # of connection points: 2
#     Edge 9, Type (0, 0), BuildingBlock: UVAHIK_clean_linker_0, # of connection points: 2
#     Edge 10, Type (0, 0), BuildingBlock: UVAHIK_clean_linker_0, # of connection points: 2
#     Edge 11, Type (0, 0), BuildingBlock: UVAHIK_clean_linker_0, # of connection points: 2
#     Edge 12, Type (0, 0), BuildingBlock: UVAHIK_clean_linker_0, # of connection points: 2
#     Edge 13, Type (0, 0), BuildingBlock: UVAHIK_clean_linker_0, # of connection points: 2
#     Edge 14, Type (0, 0), BuildingBlock: UVAHIK_clean_linker_0, # of connection points: 2
#     Edge 15, Type (0, 0), BuildingBlock: UVAHIK_clean_linker_0, # of connection points: 2
# Relax obj value: 0.101
# Max RMSD: 0.145
# Mean RMSD: 0.145
data_MOF--net-sxb--node1-UKALOJ_clean_sbu_0--edge1-UVAHIK_clean_linker_0
_symmetry_space_group_name_H-M    P1
_symmetry_Int_Tables_number       1
_symmetry_cell_setting            triclinic
loop_
_symmetry_equiv_pos_as_xyz
'x, y, z'
_cell_length_a     18.6883
_cell_length_b     35.157786
_cell_length_c     49.453336
_cell_angle_alpha  99.428411
_cell_angle_beta   90.171326
_cell_angle_gamma 90.038144
loop_
_atom_site_label
_atom_site_type_symbol
_atom_site_fract_x
_atom_site_fract_y
_atom_site_fract_z
_atom_type_partial_charge
Zn0 Zn -0.02638 0.02681 0.05059 0.0
O1 O 0.01739 0.97135 0.05066 0.0
C2 C 0.1117 0.0554 0.03676 0.0
Zn3 Zn -0.01622 0.02059 1.00523 0.0
C4 C 0.03717 0.95161 0.02806 0.0
O5 O 0.02872 0.96531 1.006 0.0
C6 C 0.92018 0.09573 0.02756 0.0
O7 O 0.88221 -0.00415 0.99815 0.0
O8 O 0.87222 0.00224 0.04295 0.0
N9 N 0.00539 0.01453 0.96433 0.0
C10 C 0.96681 0.01929 0.94202 0.0
C11 C 0.07431 0.00746 0.92893 0.0
N12 N 0.072 0.00697 0.95605 0.0
N13 N 0.00893 0.01489 0.91963 0.0
C14 C -0.01222 0.02317 0.11316 0.0
C15 C 0.89793 0.05685 0.12908 0.0
N16 N 0.95366 0.03439 0.09172 0.0
N17 N 0.89788 0.05527 0.1017 0.0
N18 N 0.95368 0.03684 0.13679 0.0
H19 H 0.04355 0.96961 0.10892 0.0
H20 H 0.08905 0.0089 0.12992 0.0
H21 H 0.08765 0.00567 0.09304 0.0
C22 C 0.05628 0.00078 0.11111 0.0
C23 C 0.88925 0.03004 0.9423 0.0
H24 H 0.85711 0.00361 0.9356 0.0
H25 H 0.87895 0.05026 0.92769 0.0
H26 H 0.87165 0.04324 0.96306 0.0
O27 O 0.93938 0.07579 1.00498 0.0
O28 O 0.92937 0.08227 0.04965 0.0
C29 C 0.84581 0.99192 0.01917 0.0
O30 O 0.07545 0.05114 0.05771 0.0
O31 O 0.08494 0.04555 1.01304 0.0
Zn32 Zn 0.9696 0.0309 0.55057 0.0
O33 O 0.8683 0.05628 0.55496 0.0
C34 C 0.9057 0.95524 0.53131 0.0
Zn35 Zn 0.96105 0.02136 0.50506 0.0
C36 C 0.83249 0.05846 0.5334 0.0
O37 O 0.85945 0.04621 0.51005 0.0
C38 C 0.09833 -0.00598 0.52215 0.0
O39 O 0.0058 0.07599 0.50232 0.0
O40 O 0.0157 0.08502 0.54711 0.0
N41 N 0.94406 0.0091 0.46371 0.0
C42 C -0.02062 0.01809 0.44186 0.0
C43 C 0.89132 0.98223 0.42657 0.0
N44 N 0.88941 0.98684 0.45411 0.0
N45 N 0.94716 0.00163 0.41836 0.0
C46 C 0.95205 0.03469 0.61397 0.0
C47 C 0.04731 0.06489 0.62831 0.0
N48 N -0.0122 0.04238 0.59181 0.0
N49 N 0.04688 0.0611 0.60082 0.0
N50 N -0.01145 0.04851 0.6372 0.0
H51 H 0.85084 0.01931 0.59394 0.0
H52 H 0.84797 0.02698 0.63099 0.0
H53 H 0.88806 0.984 0.61225 0.0
C54 C 0.88034 0.01538 0.61272 0.0
C55 C 0.04726 0.04106 0.44351 0.0
H56 H 0.07831 0.03772 0.46209 0.0
H57 H 0.03371 0.07197 0.44457 0.0
H58 H 0.08069 0.03202 0.42508 0.0
O59 O 0.06291 -0.00328 0.50062 0.0
O60 O 0.07075 0.00551 0.54549 0.0
C61 C 0.0254 0.097 0.52451 0.0
O62 O 0.92399 0.97669 0.55348 0.0
O63 O 0.91611 0.96689 0.50862 0.0
Zn64 Zn 0.47441 0.52799 0.05075 0.0
O65 O 0.51989 0.47325 0.05249 0.0
C66 C 0.6105 0.55573 0.0328 0.0
Zn67 Zn 0.48051 0.51877 1.00513 0.0
C68 C 0.53847 0.4524 0.03015 0.0
O69 O 0.52762 0.46455 1.00765 0.0
C70 C 0.41643 0.59426 0.02553 0.0
O71 O 0.37915 0.4931 1.00147 0.0
O72 O 0.37283 0.50297 0.04642 0.0
N73 N 0.49521 0.5083 0.96361 0.0
C74 C 0.45679 0.51627 0.94206 0.0
C75 C 0.55156 0.48725 0.9262 0.0
N76 N 0.554 0.49032 0.95365 0.0
N77 N 0.49127 0.50341 0.91828 0.0
C78 C 0.4971 0.5293 0.11365 0.0
C79 C 0.40969 0.56447 0.13018 0.0
N80 N 0.46057 0.53933 0.09234 0.0
N81 N 0.4064 0.56122 0.1027 0.0
N82 N 0.46604 0.54464 0.1376 0.0
H83 H 0.5517 0.47538 0.10929 0.0
H84 H 0.59937 0.51466 0.12945 0.0
H85 H 0.59505 0.51083 0.09255 0.0
C86 C 0.56504 0.50643 0.11107 0.0
C87 C 0.3845 0.53493 0.94444 0.0
H88 H 0.35759 0.53078 0.96363 0.0
H89 H 0.35027 0.52304 0.92668 0.0
H90 H 0.39094 0.56637 0.94481 0.0
O91 O 0.43385 0.57303 1.0032 0.0
O92 O 0.42843 0.58252 0.0481 0.0
C93 C 0.34464 0.49075 0.02322 0.0
O94 O 0.57627 0.5528 0.05449 0.0
O95 O 0.58174 0.54438 1.00958 0.0
Zn96 Zn 0.48482 0.52472 0.55073 0.0
O97 O 0.38341 0.54981 0.55697 0.0
C98 C 0.4202 0.44988 0.52791 0.0
Zn99 Zn 0.47539 0.5187 0.50529 0.0
C100 C 0.34743 0.55383 0.53579 0.0
O101 O 0.37413 0.54345 0.51214 0.0
C102 C 0.61291 0.48976 0.52002 0.0
O103 O 0.52001 0.57402 0.50554 0.0
O104 O 0.5308 0.57988 0.55027 0.0
N105 N 0.45682 0.51095 0.46398 0.0
C106 C 0.49206 0.52138 0.44256 0.0
C107 C 0.4025 0.48737 0.42638 0.0
N108 N 0.40117 0.48992 0.45382 0.0
N109 N 0.45889 0.50694 0.41879 0.0
C110 C 0.46352 0.52694 0.61379 0.0
C111 C 0.57076 0.53638 0.6282 0.0
N112 N 0.50449 0.53052 0.59192 0.0
N113 N 0.57097 0.53654 0.601 0.0
N114 N 0.50393 0.53062 0.63673 0.0
H115 H 0.35471 0.54523 0.61698 0.0
H116 H 0.3707 0.49987 0.62815 0.0
H117 H 0.36937 0.50275 0.59195 0.0
C118 C 0.38514 0.51785 0.61252 0.0
C119 C 0.56067 0.54374 0.44482 0.0
H120 H 0.59103 0.53962 0.46337 0.0
H121 H 0.54814 0.57484 0.44625 0.0
H122 H 0.59428 0.53493 0.4264 0.0
O123 O 0.57701 0.49418 0.49894 0.0
O124 O 0.58587 0.49951 0.54365 0.0
C125 C 0.53972 0.59364 0.52827 0.0
O126 O 0.43924 0.46966 0.55062 0.0
O127 O 0.43025 0.46339 0.50591 0.0
C128 C 0.36617 0.64503 1.00062 0.0
C129 C 0.38015 0.63165 0.02538 0.0
C130 C 0.32942 0.67967 1.00057 0.0
C131 C 0.27868 0.77038 0.04558 0.0
H132 H 0.13329 0.77587 0.99024 0.0
C133 C 0.08501 0.89914 0.05183 0.0
C134 C 0.07238 0.91376 0.02744 0.0
C135 C 0.12158 0.86437 0.05134 0.0
C136 C 0.1742 0.77491 1.00567 0.0
H137 H 0.36671 0.64429 0.06952 0.0
H138 H 0.3022 0.70432 0.06938 0.0
H139 H 0.2007 0.71634 0.98966 0.0
H140 H 0.08735 0.90291 0.98334 0.0
H141 H 0.15129 0.84236 0.98255 0.0
H142 H 0.252 0.82888 0.06165 0.0
C143 C 0.32043 0.68839 0.05002 0.0
C144 C 0.21294 0.74082 1.00531 0.0
C145 C 0.35717 0.65383 0.05008 0.0
C146 C 0.09603 0.89246 1.00251 0.0
C147 C 0.13243 0.85764 1.00202 0.0
C148 C 0.23988 0.80441 0.04597 0.0
C149 C 0.30586 0.70167 0.02527 0.0
C150 C 0.26555 0.73813 0.0253 0.0
C151 C 0.14618 0.84337 0.02646 0.0
C152 C 0.1871 0.80706 0.02605 0.0
H153 H 0.38328 0.62869 0.98124 0.0
H154 H 0.31989 0.68933 0.98118 0.0
H155 H 0.31963 0.76951 0.06101 0.0
H156 H 0.06728 0.9147 0.07136 0.0
H157 H 0.1304 0.85386 0.07048 0.0
C158 C 0.59879 0.39323 1.00546 0.0
C159 C 0.57495 0.41502 0.03019 0.0
C160 C 0.63614 0.35883 1.00543 0.0
C161 C 0.67162 0.28258 0.04695 0.0
H162 H 0.83689 0.26175 0.99958 0.0
C163 C 0.86183 0.15502 0.05307 0.0
C164 C 0.88471 0.13349 0.02811 0.0
C165 C 0.82524 0.18976 0.05354 0.0
C166 C 0.79045 0.26694 1.01271 0.0
H167 H 0.57082 0.41733 0.07425 0.0
H168 H 0.63652 0.3574 0.07421 0.0
H169 H 0.76955 0.32122 1.00004 0.0
H170 H 0.88763 0.1318 0.98407 0.0
H171 H 0.82346 0.19235 0.9849 0.0
H172 H 0.69251 0.22826 0.05959 0.0
C173 C 0.62577 0.36681 0.05482 0.0
C174 C 0.75182 0.30102 1.01297 0.0
C175 C 0.58841 0.40128 0.05485 0.0
C176 C 0.87102 0.14776 1.00366 0.0
C177 C 0.83447 0.18255 1.00414 0.0
C178 C 0.71028 0.2485 0.04669 0.0
C179 C 0.65054 0.34534 0.03011 0.0
C180 C 0.69184 0.3092 0.03004 0.0
C181 C 0.8107 0.20381 0.02908 0.0
C182 C 0.77009 0.24025 0.02954 0.0
H183 H 0.5892 0.40288 0.98606 0.0
H184 H 0.65346 0.34268 0.98601 0.0
H185 H 0.62512 0.28775 0.06005 0.0
H186 H 0.8716 0.1449 0.07229 0.0
H187 H 0.80857 0.20571 0.07312 0.0
C188 C 0.0772 0.1472 0.49942 0.0
C189 C 0.06238 0.1342 0.52422 0.0
C190 C 0.11588 0.18127 0.49931 0.0
C191 C 0.2436 0.24613 0.54142 0.0
H192 H 0.18953 0.31902 0.49406 0.0
C193 C 0.36848 0.39815 0.5514 0.0
C194 C 0.3837 0.41232 0.52707 0.0
C195 C 0.3307 0.36366 0.55063 0.0
C196 C 0.20586 0.29873 0.50717 0.0
H197 H 0.07528 0.1473 0.56842 0.0
H198 H 0.14179 0.20672 0.56821 0.0
H199 H 0.11945 0.26029 0.49338 0.0
H200 H 0.3721 0.40102 0.48279 0.0
H201 H 0.30696 0.3407 0.48146 0.0
H202 H 0.32989 0.28454 0.55525 0.0
C203 C 0.12458 0.19032 0.5488 0.0
C204 C 0.16566 0.26509 0.50678 0.0
C205 C 0.08594 0.15636 0.54892 0.0
C206 C 0.36116 0.39097 0.50193 0.0
C207 C 0.32336 0.35651 0.50117 0.0
C208 C 0.28378 0.27974 0.5418 0.0
C209 C 0.14065 0.203 0.524 0.0
C210 C 0.18388 0.23849 0.524 0.0
C211 C 0.30724 0.34258 0.52551 0.0
C212 C 0.26525 0.3065 0.52475 0.0
H213 H 0.05993 0.1308 0.48004 0.0
H214 H 0.12783 0.19011 0.47984 0.0
H215 H 0.25984 0.22589 0.55458 0.0
H216 H 0.38476 0.41399 0.57112 0.0
H217 H 0.31847 0.35395 0.56978 0.0
C218 C 0.85797 0.90423 0.55655 0.0
C219 C 0.87079 0.91752 0.53169 0.0
C220 C 0.82304 0.86907 0.55674 0.0
C221 C 0.7769 0.7772 0.51202 0.0
H222 H 0.63175 0.76977 0.56678 0.0
C223 C 0.58781 0.64627 0.50479 0.0
C224 C 0.5749 0.63156 0.5291 0.0
C225 C 0.62367 0.68132 0.50551 0.0
C226 C 0.67266 0.77127 0.55152 0.0
H227 H 0.85702 0.90423 0.48755 0.0
H228 H 0.79572 0.84331 0.48794 0.0
H229 H 0.69637 0.83027 0.56752 0.0
H230 H 0.58888 0.64243 0.57328 0.0
H231 H 0.65166 0.70347 0.57448 0.0
H232 H 0.75299 0.71829 0.49594 0.0
C233 C 0.81349 0.85971 0.50726 0.0
C234 C 0.70977 0.80592 0.55197 0.0
C235 C 0.84835 0.89479 0.50706 0.0
C236 C 0.59779 0.65296 0.55417 0.0
C237 C 0.63351 0.68805 0.55489 0.0
C238 C 0.73975 0.74261 0.51155 0.0
C239 C 0.80025 0.84645 0.53209 0.0
C240 C 0.76213 0.80933 0.53215 0.0
C241 C 0.64731 0.7025 0.53055 0.0
C242 C 0.687 0.73928 0.53122 0.0
H243 H 0.87467 0.92102 0.57588 0.0
H244 H 0.81441 0.85946 0.57619 0.0
H245 H 0.81775 0.77864 0.49673 0.0
H246 H 0.5707 0.63061 0.48515 0.0
H247 H 0.63256 0.69194 0.48644 0.0
C248 C 0.22677 0.05595 0.06203 0.0
C249 C 0.1885 0.06392 0.03915 0.0
C250 C 0.3007 0.05088 0.06046 0.0
C251 C 0.42748 0.0146 1.00714 0.0
H252 H 0.56921 0.0375 0.06484 0.0
C253 C 0.73069 0.99054 0.99383 0.0
C254 C 0.76925 0.98282 0.01672 0.0
C255 C 0.65662 -0.0051 0.99535 0.0
C256 C 0.52973 0.03032 0.04872 0.0
H257 H 0.19765 0.07862 0.99837 0.0
H258 H 0.32702 0.07067 0.99593 0.0
H259 H 0.45007 0.06555 0.07155 0.0
H260 H 0.76066 0.96775 0.05741 0.0
H261 H 0.63106 0.97451 0.05977 0.0
H262 H 0.50721 0.97942 0.98429 0.0
C263 C 0.29976 0.06694 0.01462 0.0
C264 C 0.46194 0.0467 0.05249 0.0
C265 C 0.22594 0.07178 0.01612 0.0
C266 C 0.73212 0.97445 0.03967 0.0
C267 C 0.65815 0.97857 0.04112 0.0
C268 C 0.49529 -0.00178 1.00337 0.0
C269 C 0.33696 0.0541 0.0361 0.0
C270 C 0.41033 0.03908 0.0317 0.0
C271 C 0.62052 0.99123 0.01967 0.0
C272 C 0.54694 0.00591 0.02414 0.0
H273 H 0.19918 0.04988 0.08009 0.0
H274 H 0.32823 0.04116 0.07739 0.0
H275 H 0.38801 0.00747 0.99102 0.0
H276 H 0.75806 -0.00303 0.97584 0.0
H277 H 0.62875 0.0045 0.97846 0.0
C278 C 0.21241 0.98761 0.49613 0.0
C279 C 0.1752 0.98545 0.52046 0.0
C280 C 0.28638 -0.00735 0.49677 0.0
C281 C 0.4485 -0.00496 0.53991 0.0
H282 H 0.49412 0.08554 0.50757 0.0
C283 C 0.71895 0.06652 0.55975 0.0
C284 C 0.75591 0.06773 0.53523 0.0
C285 C 0.64482 0.06231 0.55939 0.0
C286 C 0.48201 0.06028 0.51667 0.0
H287 H 0.18645 0.98108 0.56354 0.0
H288 H 0.31534 0.98987 0.56461 0.0
H289 H 0.37526 0.05676 0.50094 0.0
H290 H 0.74426 0.07143 0.49205 0.0
H291 H 0.61504 0.06409 0.49147 0.0
H292 H 0.55525 -0.00146 0.55563 0.0
C293 C 0.28768 0.98819 0.54517 0.0
C294 C 0.41449 0.04351 0.51261 0.0
C295 C 0.2138 0.98325 0.54456 0.0
C296 C 0.71709 0.06992 0.51118 0.0
C297 C 0.64303 0.06585 0.51085 0.0
C298 C 0.51599 0.01182 0.54398 0.0
C299 C 0.32382 -0.00473 0.52166 0.0
C300 C 0.39726 0.01069 0.52414 0.0
C301 C 0.60698 0.05962 0.53459 0.0
C302 C 0.53328 0.04458 0.5324 0.0
H303 H 0.18407 0.98894 0.47717 0.0
H304 H 0.31358 -0.0029 0.47822 0.0
H305 H 0.43649 0.96972 0.54896 0.0
H306 H 0.74749 0.06527 0.57869 0.0
H307 H 0.6177 0.05846 0.57809 0.0
C308 C 0.72572 0.562 0.05831 0.0
C309 C 0.68744 0.56429 0.03415 0.0
C310 C 0.79961 0.55684 0.05738 0.0
C311 C 0.92645 0.50938 1.00788 0.0
H312 H 0.0678 0.54499 0.06379 0.0
C313 C 0.22945 0.48328 0.99769 0.0
C314 C 0.26802 0.48141 0.02184 0.0
C315 C 0.15537 0.48764 0.99864 0.0
C316 C 0.0284 0.53429 0.04828 0.0
H317 H 0.69685 0.56898 0.99109 0.0
H318 H 0.8262 0.56072 0.98964 0.0
H319 H 0.94884 0.57371 0.06697 0.0
H320 H 0.25922 0.47642 0.06487 0.0
H321 H 0.1296 0.48327 0.06635 0.0
H322 H 0.00609 0.47 0.98917 0.0
C323 C 0.79884 0.56152 1.00901 0.0
C324 C 0.96075 0.55103 0.04998 0.0
C325 C 0.72499 0.56654 1.00991 0.0
C326 C 0.2308 0.47863 0.04607 0.0
C327 C 0.15679 0.4828 0.04697 0.0
C328 C -0.00588 0.49264 1.00618 0.0
C329 C 0.83594 0.55425 0.03233 0.0
C330 C 0.90928 0.53879 0.02975 0.0
C331 C 0.1192 0.4898 0.02369 0.0
C332 C 0.04563 0.50492 0.02639 0.0
H333 H 0.69818 0.56048 0.07736 0.0
H334 H 0.82708 0.55152 0.07571 0.0
H335 H 0.88706 0.49873 0.99236 0.0
H336 H 0.25674 0.48513 0.97865 0.0
H337 H 0.12753 0.49276 0.98033 0.0
C338 C 0.23356 0.57018 0.5146 0.0
C339 C 0.27091 0.56308 0.53793 0.0
C340 C 0.15953 0.56613 0.51323 0.0
C341 C -0.00295 0.54894 0.55175 0.0
H342 H 0.95069 0.478 0.4852 0.0
C343 C 0.72767 0.4748 0.54123 0.0
C344 C 0.68974 0.48129 0.51786 0.0
C345 C 0.80151 0.4798 0.54256 0.0
C346 C 0.96288 0.49786 0.5038 0.0
H347 H 0.25998 0.55145 0.57947 0.0
H348 H 0.13067 0.54405 0.577 0.0
H349 H 0.06992 0.50635 0.49108 0.0
H350 H 0.69967 0.49288 0.47626 0.0
H351 H 0.82869 0.50182 0.47867 0.0
H352 H 0.89002 0.54039 0.56449 0.0
C353 C 0.1584 0.55255 0.55973 0.0
C354 C 0.03071 0.51441 0.50708 0.0
C355 C 0.23252 0.55681 0.56116 0.0
C356 C 0.72758 0.48794 0.4946 0.0
C357 C 0.80151 0.49312 0.49599 0.0
C358 C 0.92921 0.53239 0.54847 0.0
C359 C 0.12205 0.55486 0.53516 0.0
C360 C 0.04834 0.54011 0.53107 0.0
C361 C 0.83825 0.49136 0.52057 0.0
C362 C 0.91166 0.5066 0.52451 0.0
H363 H 0.26191 0.57578 0.49657 0.0
H364 H 0.13224 0.56914 0.49434 0.0
H365 H 0.0093 0.56874 0.57037 0.0
H366 H 0.69978 0.46898 0.55929 0.0
H367 H 0.82916 0.47719 0.56146 0.0
C368 C -0.02367 0.03934 0.38198 0.0
C369 C 0.965 0.00365 0.39042 0.0
C370 C -0.0137 0.04137 0.35423 0.0
C371 C 0.94926 0.98506 0.28541 0.0
H372 H 0.06752 0.06338 0.26092 0.0
C373 C -0.01683 -0.00478 0.17085 0.0
C374 C 0.97004 0.03199 0.1644 0.0
C375 C -0.00778 0.99031 0.19815 0.0
C376 C 0.03433 0.04137 0.26751 0.0
H377 H 0.95697 0.94216 0.37705 0.0
H378 H -0.02294 0.94521 0.32867 0.0
H379 H 0.06697 0.05704 0.30937 0.0
H380 H 0.95699 0.09239 0.18095 0.0
H381 H -0.02628 0.08406 0.22876 0.0
H382 H 0.91687 0.96941 0.24351 0.0
C383 C -0.02348 0.97185 0.3432 0.0
C384 C 0.03368 0.03782 0.29527 0.0
C385 C 0.96558 0.96996 0.37086 0.0
C386 C 0.96755 0.06385 0.18555 0.0
C387 C -0.0225 0.05907 0.21279 0.0
C388 C 0.95061 0.98832 0.25766 0.0
C389 C -0.01441 0.00765 0.33441 0.0
C390 C -0.00963 0.00994 0.30465 0.0
C391 C -0.01117 0.02217 0.2194 0.0
C392 C -0.0076 0.01682 0.24848 0.0
H393 H -0.02556 0.06575 0.3967 0.0
H394 H -0.0082 0.06951 0.34826 0.0
H395 H 0.91409 0.96377 0.29185 0.0
H396 H -0.01623 0.97017 0.15489 0.0
H397 H 0.00092 0.96156 0.2027 0.0
C398 C 0.9432 -0.00186 0.87602 0.0
C399 C -0.00704 0.02133 0.8924 0.0
C400 C 0.93427 0.0018 0.84842 0.0
C401 C 0.03181 0.03985 0.79299 0.0
H402 H 0.85165 0.02286 0.75371 0.0
C403 C -0.00546 0.07767 0.68579 0.0
C404 C -0.0268 0.04693 0.66553 0.0
C405 C -0.01105 0.07493 0.71351 0.0
C406 C 0.90222 0.02752 0.76451 0.0
H407 H 0.06958 0.06755 0.89385 0.0
H408 H 0.05183 0.07567 0.84629 0.0
H409 H 0.85652 0.01855 0.80266 0.0
H410 H 0.92956 0.98895 0.65867 0.0
H411 H 0.91695 0.98483 0.70735 0.0
H412 H 0.07688 0.04988 0.75507 0.0
C413 C 0.02157 0.05351 0.85404 0.0
C414 C 0.90524 0.0249 0.79247 0.0
C415 C 0.03137 0.04926 0.88133 0.0
C416 C 0.94399 0.0137 0.67367 0.0
C417 C 0.93741 0.01116 0.70153 0.0
C418 C 0.02845 0.0431 0.76531 0.0
C419 C -0.02556 0.02911 0.83694 0.0
C420 C 0.9701 0.03132 0.80712 0.0
C421 C 0.96143 0.04144 0.72162 0.0
C422 C 0.96369 0.03718 0.75086 0.0
H423 H 0.91361 0.97621 0.88431 0.0
H424 H 0.89795 0.98229 0.83591 0.0
H425 H 0.08325 0.04374 0.8032 0.0
H426 H 0.01735 0.10355 0.68011 0.0
H427 H 0.00757 0.09871 0.72866 0.0
C428 C 0.48963 0.54585 0.38322 0.0
C429 C 0.47755 0.50983 0.39107 0.0
C430 C 0.49974 0.54868 0.35558 0.0
C431 C 0.4616 0.49393 0.28626 0.0
H432 H 0.58059 0.57234 0.26225 0.0
C433 C 0.49659 0.50357 0.17191 0.0
C434 C 0.48386 0.54024 0.16519 0.0
C435 C 0.50579 0.49899 0.19926 0.0
C436 C 0.54716 0.55032 0.26872 0.0
H437 H 0.46902 0.44857 0.3768 0.0
H438 H 0.48954 0.45299 0.3287 0.0
H439 H 0.57952 0.56558 0.31067 0.0
H440 H 0.47187 0.60082 0.18142 0.0
H441 H 0.4888 0.59303 0.22935 0.0
H442 H 0.42952 0.47865 0.24432 0.0
C443 C 0.48918 0.4793 0.34355 0.0
C444 C 0.54622 0.54653 0.29645 0.0
C445 C 0.47803 0.47662 0.37107 0.0
C446 C 0.4822 0.57235 0.18619 0.0
C447 C 0.49222 0.56787 0.21351 0.0
C448 C 0.46323 0.49744 0.25856 0.0
C449 C 0.4985 0.51545 0.33531 0.0
C450 C 0.50289 0.51849 0.30564 0.0
C451 C 0.50279 0.53105 0.22036 0.0
C452 C 0.50547 0.52587 0.24952 0.0
H453 H 0.4881 0.57188 0.39832 0.0
H454 H 0.50567 0.57706 0.35005 0.0
H455 H 0.42624 0.4726 0.29252 0.0
H456 H 0.49642 0.4783 0.15613 0.0
H457 H 0.51396 0.47028 0.20397 0.0
C458 C 0.43207 0.54977 0.67849 0.0
C459 C 0.48426 0.52605 0.66402 0.0
C460 C 0.41771 0.54723 0.70592 0.0
C461 C 0.42952 0.48338 0.75702 0.0
H462 H 0.46231 0.57534 0.8106 0.0
C463 C 0.49178 0.4749 0.86945 0.0
C464 C 0.4721 0.50519 0.89025 0.0
C465 C 0.47999 0.4774 0.84193 0.0
C466 C 0.45117 0.54951 0.79602 0.0
H467 H 0.56107 0.48073 0.6661 0.0
H468 H 0.53457 0.47529 0.71382 0.0
H469 H 0.46323 0.57951 0.76186 0.0
H470 H 0.42601 0.56248 0.89821 0.0
H471 H 0.40134 0.56604 0.85032 0.0
H472 H 0.41699 0.45322 0.79085 0.0
C473 C 0.5051 0.49596 0.70413 0.0
C474 C 0.45201 0.55197 0.76808 0.0
C475 C 0.52048 0.49912 0.677 0.0
C476 C 0.43942 0.538 0.88286 0.0
C477 C 0.42669 0.54035 0.85526 0.0
C478 C 0.42738 0.48101 0.78493 0.0
C479 C 0.45431 0.52033 0.71896 0.0
C480 C 0.44309 0.51874 0.74836 0.0
C481 C 0.44769 0.51027 0.83438 0.0
C482 C 0.44033 0.51382 0.80483 0.0
H483 H 0.40425 0.57098 0.66879 0.0
H484 H 0.37844 0.56636 0.717 0.0
H485 H 0.4218 0.45742 0.74215 0.0
H486 H 0.51772 0.44944 0.87452 0.0
H487 H 0.49859 0.45399 0.82659 0.0
loop_
_geom_bond_atom_site_label_1
_geom_bond_atom_site_label_2
_geom_bond_distance
_geom_bond_site_symmetry_2
_ccdc_geom_bond_type
Zn0 O1 2.055 1_645 S
Zn0 O8 2.046 1_545 S
Zn0 N16 2.036 . S
Zn0 O28 2.053 . S
Zn0 O30 2.066 1_655 S
O1 Zn0 2.055 1_465 S
O1 C4 1.259 . S
C2 O30 1.256 . S
C2 O31 1.244 1_554 S
Zn3 O5 2.046 1_545 S
Zn3 O7 2.055 1_445 S
Zn3 N9 2.035 . S
Zn3 O27 2.066 1_455 S
Zn3 O31 2.053 . S
C4 O1 1.259 . S
C4 O5 1.254 1_554 S
O5 Zn3 2.046 1_565 S
O5 C4 1.254 1_556 S
C6 O27 1.256 1_554 S
C6 O28 1.244 . S
O7 Zn3 2.055 1_665 S
O7 C29 1.259 1_556 S
O8 Zn0 2.046 1_565 S
O8 C29 1.254 . S
N9 Zn3 2.035 . S
N9 C10 1.303 1_455 S
N9 N12 1.398 1_545 S
C10 N9 1.303 1_655 S
C10 N13 1.367 1_655 S
C10 C23 1.481 . S
C11 N12 1.299 1_545 S
C11 N13 1.379 . S
N12 N9 1.398 1_565 S
N12 C11 1.299 1_565 S
N13 C10 1.367 1_455 S
N13 C11 1.379 . S
C14 N16 1.298 1_455 S
C14 N18 1.367 . S
C14 C22 1.481 1_545 S
C15 N17 1.299 . S
C15 N18 1.379 1_655 S
N16 Zn0 2.036 . S
N16 C14 1.298 1_655 S
N16 N17 1.398 . S
N17 C15 1.299 . S
N17 N16 1.398 . S
N18 C14 1.367 . S
N18 C15 1.379 1_455 S
H19 C22 0.980 . S
H20 C22 0.981 . S
H21 C22 0.981 . S
C22 C14 1.481 1_565 S
C22 H19 0.980 . S
C22 H20 0.981 . S
C22 H21 0.981 . S
C23 C10 1.481 . S
C23 H24 0.980 . S
C23 H25 0.981 . S
C23 H26 0.981 . S
H24 C23 0.980 . S
H25 C23 0.981 . S
H26 C23 0.981 . S
O27 Zn3 2.066 1_655 S
O27 C6 1.256 1_556 S
O28 Zn0 2.053 . S
O28 C6 1.244 . S
C29 O7 1.259 1_554 S
C29 O8 1.254 . S
O30 Zn0 2.066 1_455 S
O30 C2 1.256 . S
O31 C2 1.244 1_556 S
O31 Zn3 2.053 . S
Zn32 O33 2.055 1_455 S
Zn32 O40 2.046 . S
Zn32 N48 2.036 . S
Zn32 O60 2.053 . S
Zn32 O62 2.087 1_455 S
O33 Zn32 2.055 1_655 S
O33 C36 1.259 . S
C34 O62 1.249 1_565 S
C34 O63 1.244 . S
Zn35 O37 2.046 . S
Zn35 O39 2.055 1_655 S
Zn35 N41 2.036 . S
Zn35 O59 2.066 1_655 S
Zn35 O63 2.053 1_545 S
C36 O33 1.259 . S
C36 O37 1.254 . S
O37 Zn35 2.046 . S
O37 C36 1.254 . S
C38 O59 1.256 . S
C38 O60 1.244 . S
O39 Zn35 2.055 1_455 S
O39 C61 1.259 . S
O40 Zn32 2.046 . S
O40 C61 1.254 . S
N41 Zn35 2.036 . S
N41 C42 1.298 1_655 S
N41 N44 1.398 . S
C42 N41 1.298 1_455 S
C42 N45 1.367 . S
C42 C55 1.481 . S
C43 N44 1.299 . S
C43 N45 1.379 1_655 S
N44 N41 1.398 . S
N44 C43 1.299 . S
N45 C42 1.367 . S
N45 C43 1.379 1_455 S
C46 N48 1.298 1_655 S
C46 N50 1.367 1_655 S
C46 C54 1.481 . S
C47 N49 1.299 . S
C47 N50 1.379 . S
N48 Zn32 2.036 . S
N48 C46 1.298 1_455 S
N48 N49 1.398 . S
N49 C47 1.299 . S
N49 N48 1.398 . S
N50 C46 1.367 1_455 S
N50 C47 1.379 . S
H51 C54 0.980 . S
H52 C54 0.981 . S
H53 C54 0.981 . S
C54 C46 1.481 . S
C54 H51 0.980 . S
C54 H52 0.981 . S
C54 H53 0.981 . S
C55 C42 1.481 . S
C55 H56 0.980 . S
C55 H57 0.981 . S
C55 H58 0.981 . S
H56 C55 0.980 . S
H57 C55 0.981 . S
H58 C55 0.981 . S
O59 Zn35 2.066 1_455 S
O59 C38 1.256 . S
O60 Zn32 2.053 . S
O60 C38 1.244 . S
C61 O39 1.259 . S
C61 O40 1.254 . S
O62 Zn32 2.087 1_655 S
O62 C34 1.249 1_545 S
O63 C34 1.244 . S
O63 Zn35 2.053 1_565 S
Zn64 O65 2.055 . S
Zn64 O72 2.046 . S
Zn64 N80 2.036 . S
Zn64 O92 2.053 . S
Zn64 O94 2.066 . S
O65 Zn64 2.055 . S
O65 C68 1.259 . S
C66 O94 1.256 . S
C66 O95 1.244 1_554 S
Zn67 O69 2.046 . S
Zn67 O71 2.055 . S
Zn67 N73 2.036 . S
Zn67 O91 2.066 . S
Zn67 O95 2.053 . S
C68 O65 1.259 . S
C68 O69 1.254 1_554 S
O69 Zn67 2.046 . S
O69 C68 1.254 1_556 S
C70 O91 1.256 1_554 S
C70 O92 1.244 . S
O71 Zn67 2.055 . S
O71 C93 1.259 1_556 S
O72 Zn64 2.046 . S
O72 C93 1.254 . S
N73 Zn67 2.036 . S
N73 C74 1.298 . S
N73 N76 1.398 . S
C74 N73 1.298 . S
C74 N77 1.367 . S
C74 C87 1.481 . S
C75 N76 1.299 . S
C75 N77 1.379 . S
N76 N73 1.398 . S
N76 C75 1.299 . S
N77 C74 1.367 . S
N77 C75 1.379 . S
C78 N80 1.298 . S
C78 N82 1.367 . S
C78 C86 1.481 . S
C79 N81 1.299 . S
C79 N82 1.379 . S
N80 Zn64 2.036 . S
N80 C78 1.298 . S
N80 N81 1.398 . S
N81 C79 1.299 . S
N81 N80 1.398 . S
N82 C78 1.367 . S
N82 C79 1.379 . S
H83 C86 0.980 . S
H84 C86 0.981 . S
H85 C86 0.981 . S
C86 C78 1.481 . S
C86 H83 0.980 . S
C86 H84 0.981 . S
C86 H85 0.981 . S
C87 C74 1.481 . S
C87 H88 0.980 . S
C87 H89 0.981 . S
C87 H90 0.981 . S
H88 C87 0.980 . S
H89 C87 0.981 . S
H90 C87 0.981 . S
O91 Zn67 2.066 . S
O91 C70 1.256 1_556 S
O92 Zn64 2.053 . S
O92 C70 1.244 . S
C93 O71 1.259 1_554 S
C93 O72 1.254 . S
O94 Zn64 2.066 . S
O94 C66 1.256 . S
O95 C66 1.244 1_556 S
O95 Zn67 2.053 . S
Zn96 O97 2.055 . S
Zn96 O104 2.046 . S
Zn96 N112 2.036 . S
Zn96 O124 2.053 . S
Zn96 O126 2.066 . S
O97 Zn96 2.055 . S
O97 C100 1.259 . S
C98 O126 1.256 . S
C98 O127 1.244 . S
Zn99 O101 2.046 . S
Zn99 O103 2.055 . S
Zn99 N105 2.036 . S
Zn99 O123 2.066 . S
Zn99 O127 2.053 . S
C100 O97 1.259 . S
C100 O101 1.254 . S
O101 Zn99 2.046 . S
O101 C100 1.254 . S
C102 O123 1.256 . S
C102 O124 1.244 . S
O103 Zn99 2.055 . S
O103 C125 1.259 . S
O104 Zn96 2.046 . S
O104 C125 1.254 . S
N105 Zn99 2.036 . S
N105 C106 1.298 . S
N105 N108 1.398 . S
C106 N105 1.298 . S
C106 N109 1.367 . S
C106 C119 1.481 . S
C107 N108 1.299 . S
C107 N109 1.379 . S
N108 N105 1.398 . S
N108 C107 1.299 . S
N109 C106 1.367 . S
N109 C107 1.379 . S
C110 N112 1.298 . S
C110 N114 1.367 . S
C110 C118 1.481 . S
C111 N113 1.299 . S
C111 N114 1.379 . S
N112 Zn96 2.036 . S
N112 C110 1.298 . S
N112 N113 1.398 . S
N113 C111 1.299 . S
N113 N112 1.398 . S
N114 C110 1.367 . S
N114 C111 1.379 . S
H115 C118 0.980 . S
H116 C118 0.981 . S
H117 C118 0.981 . S
C118 C110 1.481 . S
C118 H115 0.980 . S
C118 H116 0.981 . S
C118 H117 0.981 . S
C119 C106 1.481 . S
C119 H120 0.980 . S
C119 H121 0.981 . S
C119 H122 0.981 . S
H120 C119 0.980 . S
H121 C119 0.981 . S
H122 C119 0.981 . S
O123 Zn99 2.066 . S
O123 C102 1.256 . S
O124 Zn96 2.053 . S
O124 C102 1.244 . S
C125 O103 1.259 . S
C125 O104 1.254 . S
O126 Zn96 2.066 . S
O126 C98 1.256 . S
O127 C98 1.244 . S
O127 Zn99 2.053 . S
C128 C129 1.349 1_556 S
C128 C130 1.327 . S
C128 H153 0.950 . S
C129 C128 1.349 1_554 S
C129 C145 1.349 . S
C130 C128 1.327 . S
C130 C149 1.429 1_556 S
C130 H154 0.950 . S
C131 C148 1.574 . S
C131 C150 1.368 . S
C131 H155 0.949 . S
H132 C136 0.949 . S
C133 C134 1.349 . S
C133 C135 1.327 . S
C133 H156 0.950 . S
C134 C133 1.349 . S
C134 C146 1.349 1_554 S
C135 C133 1.327 . S
C135 C151 1.429 . S
C135 H157 0.950 . S
C136 H132 0.949 . S
C136 C144 1.574 . S
C136 C152 1.368 1_556 S
H137 C145 0.950 . S
H138 C143 0.950 . S
H139 C144 0.949 . S
H140 C146 0.950 . S
H141 C147 0.950 . S
H142 C148 0.949 . S
C143 H138 0.950 . S
C143 C145 1.327 . S
C143 C149 1.429 . S
C144 C136 1.574 . S
C144 H139 0.949 . S
C144 C150 1.368 1_556 S
C145 C129 1.349 . S
C145 H137 0.950 . S
C145 C143 1.327 . S
C146 C134 1.349 1_556 S
C146 H140 0.950 . S
C146 C147 1.327 . S
C147 H141 0.950 . S
C147 C146 1.327 . S
C147 C151 1.429 1_556 S
C148 C131 1.574 . S
C148 H142 0.949 . S
C148 C152 1.368 . S
C149 C130 1.429 1_554 S
C149 C143 1.429 . S
C149 C150 1.523 . S
C150 C131 1.368 . S
C150 C144 1.368 1_554 S
C150 C149 1.523 . S
C151 C135 1.429 . S
C151 C147 1.429 1_554 S
C151 C152 1.523 . S
C152 C136 1.368 1_554 S
C152 C148 1.368 . S
C152 C151 1.523 . S
H153 C128 0.950 . S
H154 C130 0.950 . S
H155 C131 0.949 . S
H156 C133 0.950 . S
H157 C135 0.950 . S
C158 C159 1.349 1_556 S
C158 C160 1.327 . S
C158 H183 0.950 . S
C159 C158 1.349 1_554 S
C159 C175 1.349 . S
C160 C158 1.327 . S
C160 C179 1.429 1_556 S
C160 H184 0.950 . S
C161 C178 1.574 . S
C161 C180 1.368 . S
C161 H185 0.949 . S
H162 C166 0.949 . S
C163 C164 1.349 . S
C163 C165 1.327 . S
C163 H186 0.950 . S
C164 C163 1.349 . S
C164 C176 1.349 1_554 S
C165 C163 1.327 . S
C165 C181 1.429 . S
C165 H187 0.950 . S
C166 H162 0.949 . S
C166 C174 1.574 . S
C166 C182 1.368 1_556 S
H167 C175 0.950 . S
H168 C173 0.950 . S
H169 C174 0.949 . S
H170 C176 0.950 . S
H171 C177 0.950 . S
H172 C178 0.949 . S
C173 H168 0.950 . S
C173 C175 1.327 . S
C173 C179 1.429 . S
C174 C166 1.574 . S
C174 H169 0.949 . S
C174 C180 1.368 1_556 S
C175 C159 1.349 . S
C175 H167 0.950 . S
C175 C173 1.327 . S
C176 C164 1.349 1_556 S
C176 H170 0.950 . S
C176 C177 1.327 . S
C177 H171 0.950 . S
C177 C176 1.327 . S
C177 C181 1.429 1_556 S
C178 C161 1.574 . S
C178 H172 0.949 . S
C178 C182 1.368 . S
C179 C160 1.429 1_554 S
C179 C173 1.429 . S
C179 C180 1.523 . S
C180 C161 1.368 . S
C180 C174 1.368 1_554 S
C180 C179 1.523 . S
C181 C165 1.429 . S
C181 C177 1.429 1_554 S
C181 C182 1.523 . S
C182 C166 1.368 1_554 S
C182 C178 1.368 . S
C182 C181 1.523 . S
H183 C158 0.950 . S
H184 C160 0.950 . S
H185 C161 0.949 . S
H186 C163 0.950 . S
H187 C165 0.950 . S
C188 C189 1.349 . S
C188 C190 1.327 . S
C188 H213 0.950 . S
C189 C188 1.349 . S
C189 C205 1.349 . S
C190 C188 1.327 . S
C190 C209 1.429 . S
C190 H214 0.950 . S
C191 C208 1.574 . S
C191 C210 1.368 . S
C191 H215 0.949 . S
H192 C196 0.949 . S
C193 C194 1.349 . S
C193 C195 1.327 . S
C193 H216 0.950 . S
C194 C193 1.349 . S
C194 C206 1.349 . S
C195 C193 1.327 . S
C195 C211 1.429 . S
C195 H217 0.950 . S
C196 H192 0.949 . S
C196 C204 1.574 . S
C196 C212 1.368 . S
H197 C205 0.950 . S
H198 C203 0.950 . S
H199 C204 0.949 . S
H200 C206 0.950 . S
H201 C207 0.950 . S
H202 C208 0.949 . S
C203 H198 0.950 . S
C203 C205 1.327 . S
C203 C209 1.429 . S
C204 C196 1.574 . S
C204 H199 0.949 . S
C204 C210 1.368 . S
C205 C189 1.349 . S
C205 H197 0.950 . S
C205 C203 1.327 . S
C206 C194 1.349 . S
C206 H200 0.950 . S
C206 C207 1.327 . S
C207 H201 0.950 . S
C207 C206 1.327 . S
C207 C211 1.429 . S
C208 C191 1.574 . S
C208 H202 0.949 . S
C208 C212 1.368 . S
C209 C190 1.429 . S
C209 C203 1.429 . S
C209 C210 1.523 . S
C210 C191 1.368 . S
C210 C204 1.368 . S
C210 C209 1.523 . S
C211 C195 1.429 . S
C211 C207 1.429 . S
C211 C212 1.523 . S
C212 C196 1.368 . S
C212 C208 1.368 . S
C212 C211 1.523 . S
H213 C188 0.950 . S
H214 C190 0.950 . S
H215 C191 0.949 . S
H216 C193 0.950 . S
H217 C195 0.950 . S
C218 C219 1.349 . S
C218 C220 1.327 . S
C218 H243 0.950 . S
C219 C218 1.349 . S
C219 C235 1.349 . S
C220 C218 1.327 . S
C220 C239 1.429 . S
C220 H244 0.950 . S
C221 C238 1.574 . S
C221 C240 1.368 . S
C221 H245 0.949 . S
H222 C226 0.949 . S
C223 C224 1.349 . S
C223 C225 1.327 . S
C223 H246 0.950 . S
C224 C223 1.349 . S
C224 C236 1.349 . S
C225 C223 1.327 . S
C225 C241 1.429 . S
C225 H247 0.950 . S
C226 H222 0.949 . S
C226 C234 1.574 . S
C226 C242 1.368 . S
H227 C235 0.950 . S
H228 C233 0.950 . S
H229 C234 0.949 . S
H230 C236 0.950 . S
H231 C237 0.950 . S
H232 C238 0.949 . S
C233 H228 0.950 . S
C233 C235 1.327 . S
C233 C239 1.429 . S
C234 C226 1.574 . S
C234 H229 0.949 . S
C234 C240 1.368 . S
C235 C219 1.349 . S
C235 H227 0.950 . S
C235 C233 1.327 . S
C236 C224 1.349 . S
C236 H230 0.950 . S
C236 C237 1.327 . S
C237 H231 0.950 . S
C237 C236 1.327 . S
C237 C241 1.429 . S
C238 C221 1.574 . S
C238 H232 0.949 . S
C238 C242 1.368 . S
C239 C220 1.429 . S
C239 C233 1.429 . S
C239 C240 1.523 . S
C240 C221 1.368 . S
C240 C234 1.368 . S
C240 C239 1.523 . S
C241 C225 1.429 . S
C241 C237 1.429 . S
C241 C242 1.523 . S
C242 C226 1.368 . S
C242 C238 1.368 . S
C242 C241 1.523 . S
H243 C218 0.950 . S
H244 C220 0.950 . S
H245 C221 0.949 . S
H246 C223 0.950 . S
H247 C225 0.950 . S
C248 C249 1.349 . S
C248 C250 1.327 1_545 S
C248 H273 0.950 1_545 S
C249 C248 1.349 . S
C249 C265 1.349 . S
C250 C248 1.327 1_565 S
C250 C269 1.429 1_565 S
C250 H274 0.950 . S
C251 C268 1.574 . S
C251 C270 1.368 1_556 S
C251 H275 0.949 . S
H252 C256 0.949 . S
C253 C254 1.349 1_546 S
C253 C255 1.327 . S
C253 H276 0.950 . S
C254 C253 1.349 1_564 S
C254 C266 1.349 . S
C255 C253 1.327 . S
C255 C271 1.429 1_556 S
C255 H277 0.950 . S
C256 H252 0.949 . S
C256 C264 1.574 . S
C256 C272 1.368 1_565 S
H257 C265 0.950 1_556 S
H258 C263 0.950 1_556 S
H259 C264 0.949 . S
H260 C266 0.950 . S
H261 C267 0.950 . S
H262 C268 0.949 . S
C263 H258 0.950 1_554 S
C263 C265 1.327 . S
C263 C269 1.429 . S
C264 C256 1.574 . S
C264 H259 0.949 . S
C264 C270 1.368 1_565 S
C265 C249 1.349 . S
C265 H257 0.950 1_554 S
C265 C263 1.327 . S
C266 C254 1.349 . S
C266 H260 0.950 . S
C266 C267 1.327 . S
C267 H261 0.950 . S
C267 C266 1.327 . S
C267 C271 1.429 1_565 S
C268 C251 1.574 . S
C268 H262 0.949 . S
C268 C272 1.368 1_556 S
C269 C250 1.429 1_545 S
C269 C263 1.429 . S
C269 C270 1.523 . S
C270 C251 1.368 1_554 S
C270 C264 1.368 1_545 S
C270 C269 1.523 . S
C271 C255 1.429 1_554 S
C271 C267 1.429 1_545 S
C271 C272 1.523 . S
C272 C256 1.368 1_545 S
C272 C268 1.368 1_554 S
C272 C271 1.523 . S
H273 C248 0.950 1_565 S
H274 C250 0.950 . S
H275 C251 0.949 . S
H276 C253 0.950 . S
H277 C255 0.950 . S
C278 C279 1.349 . S
C278 C280 1.327 . S
C278 H303 0.950 . S
C279 C278 1.349 . S
C279 C295 1.349 . S
C280 C278 1.327 . S
C280 C299 1.429 . S
C280 H304 0.950 . S
C281 C298 1.574 . S
C281 C300 1.368 . S
C281 H305 0.949 1_545 S
H282 C286 0.949 . S
C283 C284 1.349 . S
C283 C285 1.327 . S
C283 H306 0.950 . S
C284 C283 1.349 . S
C284 C296 1.349 . S
C285 C283 1.327 . S
C285 C301 1.429 . S
C285 H307 0.950 . S
C286 H282 0.949 . S
C286 C294 1.574 . S
C286 C302 1.368 . S
H287 C295 0.950 1_565 S
H288 C293 0.950 1_565 S
H289 C294 0.949 . S
H290 C296 0.950 . S
H291 C297 0.950 . S
H292 C298 0.972 . S
C293 H288 0.950 1_545 S
C293 C295 1.327 . S
C293 C299 1.429 . S
C294 C286 1.574 . S
C294 H289 0.949 . S
C294 C300 1.368 . S
C295 C279 1.349 . S
C295 H287 0.950 1_545 S
C295 C293 1.327 . S
C296 C284 1.349 . S
C296 H290 0.950 . S
C296 C297 1.327 . S
C297 H291 0.950 . S
C297 C296 1.327 . S
C297 C301 1.429 . S
C298 C281 1.574 . S
C298 H292 0.972 . S
C298 C302 1.368 . S
C299 C280 1.429 . S
C299 C293 1.429 . S
C299 C300 1.523 . S
C300 C281 1.368 . S
C300 C294 1.368 . S
C300 C299 1.523 . S
C301 C285 1.429 . S
C301 C297 1.429 . S
C301 C302 1.523 . S
C302 C286 1.368 . S
C302 C298 1.368 . S
C302 C301 1.523 . S
H303 C278 0.950 . S
H304 C280 0.950 . S
H305 C281 0.949 1_565 S
H306 C283 0.950 . S
H307 C285 0.950 . S
C308 C309 1.349 . S
C308 C310 1.327 . S
C308 H333 0.950 . S
C309 C308 1.349 . S
C309 C325 1.349 . S
C310 C308 1.327 . S
C310 C329 1.429 . S
C310 H334 0.950 . S
C311 C328 1.574 1_655 S
C311 C330 1.368 1_556 S
C311 H335 0.949 . S
H312 C316 0.949 . S
C313 C314 1.349 1_556 S
C313 C315 1.327 . S
C313 H336 0.950 . S
C314 C313 1.349 1_554 S
C314 C326 1.349 . S
C315 C313 1.327 . S
C315 C331 1.429 1_556 S
C315 H337 0.950 . S
C316 H312 0.949 . S
C316 C324 1.574 1_455 S
C316 C332 1.368 . S
H317 C325 0.950 1_556 S
H318 C323 0.950 1_556 S
H319 C324 0.949 . S
H320 C326 0.950 . S
H321 C327 0.950 . S
H322 C328 0.949 . S
C323 H318 0.950 1_554 S
C323 C325 1.327 . S
C323 C329 1.429 . S
C324 C316 1.574 1_655 S
C324 H319 0.949 . S
C324 C330 1.368 . S
C325 C309 1.349 . S
C325 H317 0.950 1_554 S
C325 C323 1.327 . S
C326 C314 1.349 . S
C326 H320 0.950 . S
C326 C327 1.327 . S
C327 H321 0.950 . S
C327 C326 1.327 . S
C327 C331 1.429 . S
C328 C311 1.574 1_455 S
C328 H322 0.949 . S
C328 C332 1.368 1_556 S
C329 C310 1.429 . S
C329 C323 1.429 . S
C329 C330 1.523 . S
C330 C311 1.368 1_554 S
C330 C324 1.368 . S
C330 C329 1.523 . S
C331 C315 1.429 1_554 S
C331 C327 1.429 . S
C331 C332 1.523 . S
C332 C316 1.368 . S
C332 C328 1.368 1_554 S
C332 C331 1.523 . S
H333 C308 0.950 . S
H334 C310 0.950 . S
H335 C311 0.949 . S
H336 C313 0.950 . S
H337 C315 0.950 . S
C338 C339 1.349 . S
C338 C340 1.327 . S
C338 H363 0.950 . S
C339 C338 1.349 . S
C339 C355 1.349 . S
C340 C338 1.327 . S
C340 C359 1.429 . S
C340 H364 0.950 . S
C341 C358 1.574 1_455 S
C341 C360 1.368 . S
C341 H365 0.949 . S
H342 C346 0.949 . S
C343 C344 1.349 . S
C343 C345 1.327 . S
C343 H366 0.950 . S
C344 C343 1.349 . S
C344 C356 1.349 . S
C345 C343 1.327 . S
C345 C361 1.429 . S
C345 H367 0.950 . S
C346 H342 0.949 . S
C346 C354 1.574 1_655 S
C346 C362 1.368 . S
H347 C355 0.950 . S
H348 C353 0.950 . S
H349 C354 0.949 . S
H350 C356 0.950 . S
H351 C357 0.950 . S
H352 C358 0.949 . S
C353 H348 0.950 . S
C353 C355 1.327 . S
C353 C359 1.429 . S
C354 C346 1.574 1_455 S
C354 H349 0.949 . S
C354 C360 1.368 . S
C355 C339 1.349 . S
C355 H347 0.950 . S
C355 C353 1.327 . S
C356 C344 1.349 . S
C356 H350 0.950 . S
C356 C357 1.327 . S
C357 H351 0.950 . S
C357 C356 1.327 . S
C357 C361 1.429 . S
C358 C341 1.574 1_655 S
C358 H352 0.949 . S
C358 C362 1.368 . S
C359 C340 1.429 . S
C359 C353 1.429 . S
C359 C360 1.523 . S
C360 C341 1.368 . S
C360 C354 1.368 . S
C360 C359 1.523 . S
C361 C345 1.429 . S
C361 C357 1.429 . S
C361 C362 1.523 . S
C362 C346 1.368 . S
C362 C358 1.368 . S
C362 C361 1.523 . S
H363 C338 0.950 . S
H364 C340 0.950 . S
H365 C341 0.949 . S
H366 C343 0.950 . S
H367 C345 0.950 . S
C368 C369 1.349 . S
C368 C370 1.327 . S
C368 H393 0.950 . S
C369 C368 1.349 . S
C369 C385 1.349 . S
C370 C368 1.327 . S
C370 C389 1.429 . S
C370 H394 0.950 . S
C371 C388 1.574 . S
C371 C390 1.368 . S
C371 H395 0.949 1_445 S
H372 C376 0.949 . S
C373 C374 1.327 1_565 S
C373 C375 1.329 . S
C373 H396 0.968 1_455 S
C374 C373 1.327 1_545 S
C374 C386 1.349 . S
C375 C373 1.329 . S
C375 C391 1.417 1_565 S
C375 H397 0.964 1_455 S
C376 H372 0.949 . S
C376 C384 1.574 . S
C376 C392 1.368 . S
H377 C385 0.950 1_665 S
H378 C383 0.950 1_665 S
H379 C384 0.949 . S
H380 C386 0.950 . S
H381 C387 0.950 . S
H382 C388 0.951 1_665 S
C383 H378 0.950 1_445 S
C383 C385 1.327 . S
C383 C389 1.429 . S
C384 C376 1.574 . S
C384 H379 0.949 . S
C384 C390 1.368 . S
C385 C369 1.349 . S
C385 H377 0.950 1_445 S
C385 C383 1.327 . S
C386 C374 1.349 . S
C386 H380 0.950 . S
C386 C387 1.327 . S
C387 H381 0.950 . S
C387 C386 1.327 . S
C387 C391 1.429 . S
C388 C371 1.574 . S
C388 H382 0.951 1_445 S
C388 C392 1.366 . S
C389 C370 1.429 . S
C389 C383 1.429 . S
C389 C390 1.523 . S
C390 C371 1.368 . S
C390 C384 1.368 . S
C390 C389 1.523 . S
C391 C375 1.417 1_545 S
C391 C387 1.429 . S
C391 C392 1.523 . S
C392 C376 1.368 . S
C392 C388 1.366 . S
C392 C391 1.523 . S
H393 C368 0.950 . S
H394 C370 0.950 . S
H395 C371 0.949 1_665 S
H396 C373 0.968 1_655 S
H397 C375 0.964 1_655 S
C398 C399 1.349 1_565 S
C398 C400 1.327 . S
C398 H423 0.950 . S
C399 C398 1.349 1_545 S
C399 C415 1.349 1_655 S
C400 C398 1.327 . S
C400 C419 1.429 1_565 S
C400 H424 0.950 . S
C401 C418 1.574 . S
C401 C420 1.368 1_455 S
C401 H425 0.949 . S
H402 C406 0.949 1_565 S
C403 C404 1.349 1_455 S
C403 C405 1.327 . S
C403 H426 0.950 . S
C404 C403 1.349 1_655 S
C404 C416 1.349 . S
C405 C403 1.327 . S
C405 C421 1.429 1_455 S
C405 H427 0.950 . S
C406 H402 0.949 1_545 S
C406 C414 1.578 . S
C406 C422 1.368 . S
H407 C415 0.950 . S
H408 C413 0.950 . S
H409 C414 0.934 1_565 S
H410 C416 0.950 1_565 S
H411 C417 0.950 1_565 S
H412 C418 0.949 . S
C413 H408 0.950 . S
C413 C415 1.327 . S
C413 C419 1.429 1_455 S
C414 C406 1.578 . S
C414 H409 0.934 1_545 S
C414 C420 1.381 . S
C415 C399 1.349 1_455 S
C415 H407 0.950 . S
C415 C413 1.327 . S
C416 C404 1.349 . S
C416 H410 0.950 1_545 S
C416 C417 1.327 . S
C417 H411 0.950 1_545 S
C417 C416 1.327 . S
C417 C421 1.429 . S
C418 C401 1.574 . S
C418 H412 0.949 . S
C418 C422 1.368 1_455 S
C419 C400 1.429 1_545 S
C419 C413 1.429 1_655 S
C419 C420 1.523 . S
C420 C401 1.368 1_655 S
C420 C414 1.381 . S
C420 C419 1.523 . S
C421 C405 1.429 1_655 S
C421 C417 1.429 . S
C421 C422 1.523 . S
C422 C406 1.368 . S
C422 C418 1.368 1_655 S
C422 C421 1.523 . S
H423 C398 0.950 . S
H424 C400 0.950 . S
H425 C401 0.949 . S
H426 C403 0.950 . S
H427 C405 0.950 . S
C428 C429 1.349 . S
C428 C430 1.327 . S
C428 H453 0.950 . S
C429 C428 1.349 . S
C429 C445 1.349 . S
C430 C428 1.327 . S
C430 C449 1.429 . S
C430 H454 0.950 . S
C431 C448 1.574 . S
C431 C450 1.368 . S
C431 H455 0.949 . S
H432 C436 0.949 . S
C433 C434 1.349 . S
C433 C435 1.327 . S
C433 H456 0.950 . S
C434 C433 1.349 . S
C434 C446 1.349 . S
C435 C433 1.327 . S
C435 C451 1.429 . S
C435 H457 0.950 . S
C436 H432 0.949 . S
C436 C444 1.574 . S
C436 C452 1.368 . S
H437 C445 0.950 . S
H438 C443 0.950 . S
H439 C444 0.949 . S
H440 C446 0.950 . S
H441 C447 0.950 . S
H442 C448 0.949 . S
C443 H438 0.950 . S
C443 C445 1.327 . S
C443 C449 1.429 . S
C444 C436 1.574 . S
C444 H439 0.949 . S
C444 C450 1.368 . S
C445 C429 1.349 . S
C445 H437 0.950 . S
C445 C443 1.327 . S
C446 C434 1.349 . S
C446 H440 0.950 . S
C446 C447 1.327 . S
C447 H441 0.950 . S
C447 C446 1.327 . S
C447 C451 1.429 . S
C448 C431 1.574 . S
C448 H442 0.949 . S
C448 C452 1.368 . S
C449 C430 1.429 . S
C449 C443 1.429 . S
C449 C450 1.523 . S
C450 C431 1.368 . S
C450 C444 1.368 . S
C450 C449 1.523 . S
C451 C435 1.429 . S
C451 C447 1.429 . S
C451 C452 1.523 . S
C452 C436 1.368 . S
C452 C448 1.368 . S
C452 C451 1.523 . S
H453 C428 0.950 . S
H454 C430 0.950 . S
H455 C431 0.949 . S
H456 C433 0.950 . S
H457 C435 0.950 . S
C458 C459 1.349 . S
C458 C460 1.327 . S
C458 H483 0.950 . S
C459 C458 1.349 . S
C459 C475 1.349 . S
C460 C458 1.327 . S
C460 C479 1.429 . S
C460 H484 0.950 . S
C461 C478 1.574 . S
C461 C480 1.368 . S
C461 H485 0.949 . S
H462 C466 0.949 . S
C463 C464 1.349 . S
C463 C465 1.327 . S
C463 H486 0.950 . S
C464 C463 1.349 . S
C464 C476 1.349 . S
C465 C463 1.327 . S
C465 C481 1.429 . S
C465 H487 0.950 . S
C466 H462 0.949 . S
C466 C474 1.574 . S
C466 C482 1.368 . S
H467 C475 0.950 . S
H468 C473 0.950 . S
H469 C474 0.949 . S
H470 C476 0.950 . S
H471 C477 0.950 . S
H472 C478 0.949 . S
C473 H468 0.950 . S
C473 C475 1.327 . S
C473 C479 1.429 . S
C474 C466 1.574 . S
C474 H469 0.949 . S
C474 C480 1.368 . S
C475 C459 1.349 . S
C475 H467 0.950 . S
C475 C473 1.327 . S
C476 C464 1.349 . S
C476 H470 0.950 . S
C476 C477 1.327 . S
C477 H471 0.950 . S
C477 C476 1.327 . S
C477 C481 1.429 . S
C478 C461 1.574 . S
C478 H472 0.949 . S
C478 C482 1.368 . S
C479 C460 1.429 . S
C479 C473 1.429 . S
C479 C480 1.523 . S
C480 C461 1.368 . S
C480 C474 1.368 . S
C480 C479 1.523 . S
C481 C465 1.429 . S
C481 C477 1.429 . S
C481 C482 1.523 . S
C482 C466 1.368 . S
C482 C478 1.368 . S
C482 C481 1.523 . S
H483 C458 0.950 . S
H484 C460 0.950 . S
H485 C461 0.949 . S
H486 C463 0.950 . S
H487 C465 0.950 . S
C129 C70 1.554 . S
C134 C4 1.560 . S
C159 C68 1.560 . S
C164 C6 1.554 . S
C189 C61 1.560 . S
C194 C98 1.554 . S
C219 C34 1.554 . S
C224 C125 1.560 . S
C249 C2 0.715 . S
C254 C29 0.714 . S
C279 C38 0.715 . S
C284 C36 0.714 . S
C309 C66 0.715 . S
C314 C93 0.714 . S
C339 C100 0.714 . S
C344 C102 0.715 . S
C369 N45 1.475 . S
C374 N18 1.475 . S
C399 N13 1.455 1_655 S
C404 N50 1.455 1_655 S
C429 N109 1.475 . S
C434 N82 1.475 . S
C459 N114 1.455 . S
C464 N77 1.455 . S
