# Generated by pormake.
# Topology wjt, (5)-cn, num edge types: 1
# Building blocks:
#     Node 0, Type 0, BuildingBlock: XOMCOT_clean_sbu_1, # of connection points: 5
#     Node 1, Type 0, BuildingBlock: XOMCOT_clean_sbu_1, # of connection points: 5
#     Node 2, Type 0, BuildingBlock: XOMCOT_clean_sbu_1, # of connection points: 5
#     Node 3, Type 0, BuildingBlock: XOMCOT_clean_sbu_1, # of connection points: 5
#     Node 4, Type 0, BuildingBlock: XOMCOT_clean_sbu_1, # of connection points: 5
#     Node 5, Type 0, BuildingBlock: XOMCOT_clean_sbu_1, # of connection points: 5
#     Node 6, Type 0, BuildingBlock: XOMCOT_clean_sbu_1, # of connection points: 5
#     Node 7, Type 0, BuildingBlock: XOMCOT_clean_sbu_1, # of connection points: 5
#     Node 8, Type 0, BuildingBlock: XOMCOT_clean_sbu_1, # of connection points: 5
#     Node 9, Type 0, BuildingBlock: XOMCOT_clean_sbu_1, # of connection points: 5
#     Node 10, Type 0, BuildingBlock: XOMCOT_clean_sbu_1, # of connection points: 5
#     Node 11, Type 0, BuildingBlock: XOMCOT_clean_sbu_1, # of connection points: 5
#     Edge 12, Type (0, 0), BuildingBlock: XUDNAN_clean_linker_2, # of connection points: 2
#     Edge 13, Type (0, 0), BuildingBlock: XUDNAN_clean_linker_2, # of connection points: 2
#     Edge 14, Type (0, 0), BuildingBlock: XUDNAN_clean_linker_2, # of connection points: 2
#     Edge 15, Type (0, 0), BuildingBlock: XUDNAN_clean_linker_2, # of connection points: 2
#     Edge 16, Type (0, 0), BuildingBlock: XUDNAN_clean_linker_2, # of connection points: 2
#     Edge 17, Type (0, 0), BuildingBlock: XUDNAN_clean_linker_2, # of connection points: 2
#     Edge 18, Type (0, 0), BuildingBlock: XUDNAN_clean_linker_2, # of connection points: 2
#     Edge 19, Type (0, 0), BuildingBlock: XUDNAN_clean_linker_2, # of connection points: 2
#     Edge 20, Type (0, 0), BuildingBlock: XUDNAN_clean_linker_2, # of connection points: 2
#     Edge 21, Type (0, 0), BuildingBlock: XUDNAN_clean_linker_2, # of connection points: 2
#     Edge 22, Type (0, 0), BuildingBlock: XUDNAN_clean_linker_2, # of connection points: 2
#     Edge 23, Type (0, 0), BuildingBlock: XUDNAN_clean_linker_2, # of connection points: 2
#     Edge 24, Type (0, 0), BuildingBlock: XUDNAN_clean_linker_2, # of connection points: 2
#     Edge 25, Type (0, 0), BuildingBlock: XUDNAN_clean_linker_2, # of connection points: 2
#     Edge 26, Type (0, 0), BuildingBlock: XUDNAN_clean_linker_2, # of connection points: 2
#     Edge 27, Type (0, 0), BuildingBlock: XUDNAN_clean_linker_2, # of connection points: 2
#     Edge 28, Type (0, 0), BuildingBlock: XUDNAN_clean_linker_2, # of connection points: 2
#     Edge 29, Type (0, 0), BuildingBlock: XUDNAN_clean_linker_2, # of connection points: 2
#     Edge 30, Type (0, 0), BuildingBlock: XUDNAN_clean_linker_2, # of connection points: 2
#     Edge 31, Type (0, 0), BuildingBlock: XUDNAN_clean_linker_2, # of connection points: 2
#     Edge 32, Type (0, 0), BuildingBlock: XUDNAN_clean_linker_2, # of connection points: 2
#     Edge 33, Type (0, 0), BuildingBlock: XUDNAN_clean_linker_2, # of connection points: 2
#     Edge 34, Type (0, 0), BuildingBlock: XUDNAN_clean_linker_2, # of connection points: 2
#     Edge 35, Type (0, 0), BuildingBlock: XUDNAN_clean_linker_2, # of connection points: 2
#     Edge 36, Type (0, 0), BuildingBlock: XUDNAN_clean_linker_2, # of connection points: 2
#     Edge 37, Type (0, 0), BuildingBlock: XUDNAN_clean_linker_2, # of connection points: 2
#     Edge 38, Type (0, 0), BuildingBlock: XUDNAN_clean_linker_2, # of connection points: 2
#     Edge 39, Type (0, 0), BuildingBlock: XUDNAN_clean_linker_2, # of connection points: 2
#     Edge 40, Type (0, 0), BuildingBlock: XUDNAN_clean_linker_2, # of connection points: 2
#     Edge 41, Type (0, 0), BuildingBlock: XUDNAN_clean_linker_2, # of connection points: 2
# Relax obj value: 0.215
# Max RMSD: 0.163
# Mean RMSD: 0.163
data_MOF--net-wjt--node1-XOMCOT_clean_sbu_1--edge1-XUDNAN_clean_linker_2
_symmetry_space_group_name_H-M    P1
_symmetry_Int_Tables_number       1
_symmetry_cell_setting            triclinic
loop_
_symmetry_equiv_pos_as_xyz
'x, y, z'
_cell_length_a     68.712199
_cell_length_b     68.768762
_cell_length_c     17.23686
_cell_angle_alpha  89.964599
_cell_angle_beta   90.045935
_cell_angle_gamma 119.96172
loop_
_atom_site_label
_atom_site_type_symbol
_atom_site_fract_x
_atom_site_fract_y
_atom_site_fract_z
_atom_type_partial_charge
C0 C 0.31169 0.45024 0.31123 0.0
C1 C 0.30817 0.44854 0.39026 0.0
N2 N 0.30034 0.427 0.41152 0.0
N3 N 0.30622 0.4299 0.2828 0.0
C4 C 0.29877 0.41604 0.34468 0.0
H5 H 0.31947 0.46559 0.27773 0.0
Co6 Co 0.31358 0.42389 0.18502 0.0
C7 C 0.30633 0.37776 0.21015 0.0
O8 O 0.2925 0.36958 0.15094 0.0
N9 N 0.32116 0.41782 0.08723 0.0
C10 C 0.33661 0.40736 0.99497 0.0
C11 C 0.33648 0.41143 0.0729 0.0
C12 C 0.31259 0.41804 0.0168 0.0
N13 N 0.32154 0.41149 0.95989 0.0
O14 O 0.28201 0.40596 0.15989 0.0
H15 H 0.34671 0.40954 0.11665 0.0
H16 H 0.29966 0.42235 0.00726 0.0
O17 O 0.31505 0.39846 0.22753 0.0
C18 C 0.27586 0.41958 0.13529 0.0
O19 O 0.29078 0.44113 0.13617 0.0
N20 N 0.34408 0.44305 0.20726 0.0
C21 C 0.38816 0.47645 0.23961 0.0
C22 C 0.37727 0.45703 0.28573 0.0
C23 C 0.35517 0.44055 0.26879 0.0
C24 C 0.35436 0.46168 0.16158 0.0
C25 C 0.37644 0.47847 0.17623 0.0
H26 H 0.34673 0.42629 0.307 0.0
H27 H 0.34519 0.46368 0.11416 0.0
H28 H 0.29351 0.39841 0.34133 0.0
H29 H 0.31285 0.46248 0.42944 0.0
H30 H 0.34699 0.40182 0.96628 0.0
H31 H 0.38542 0.45493 0.33624 0.0
H32 H 0.38415 0.49299 0.13849 0.0
C33 C 0.86288 0.3122 0.61486 0.0
C34 C 0.86057 0.30814 0.69352 0.0
N35 N 0.8739 0.29983 0.71495 0.0
N36 N 0.87769 0.30661 0.58654 0.0
C37 C 0.88358 0.29856 0.64821 0.0
H38 H 0.85562 0.32034 0.58157 0.0
Co39 Co 0.89119 0.31425 0.48856 0.0
C40 C 0.93298 0.31064 0.51425 0.0
O41 O 0.93165 0.30047 0.44833 0.0
N42 N 0.90467 0.32196 0.39075 0.0
C43 C 0.92977 0.33735 0.29607 0.0
C44 C 0.92606 0.3377 0.37428 0.0
C45 C 0.89552 0.31271 0.32144 0.0
N46 N 0.91053 0.32163 0.26311 0.0
O47 O 0.878 0.28273 0.46287 0.0
H48 H 0.93831 0.34847 0.41675 0.0
H49 H 0.87839 0.29929 0.31393 0.0
O50 O 0.91812 0.31583 0.5318 0.0
C51 C 0.85721 0.27463 0.44702 0.0
O52 O 0.84873 0.288 0.45239 0.0
N53 N 0.90247 0.3448 0.51192 0.0
C54 C 0.91395 0.38895 0.54854 0.0
C55 C 0.92092 0.37686 0.59574 0.0
C56 C 0.91507 0.35488 0.57636 0.0
C57 C 0.89546 0.35613 0.46535 0.0
C58 C 0.90126 0.37829 0.48193 0.0
H59 H 0.9199 0.34569 0.61517 0.0
H60 H 0.88503 0.34781 0.41547 0.0
H61 H 0.89575 0.29303 0.64462 0.0
H62 H 0.85118 0.31273 0.73239 0.0
H63 H 0.94538 0.3478 0.26571 0.0
H64 H 0.93015 0.38395 0.64892 0.0
H65 H 0.89565 0.38685 0.443 0.0
C66 C 0.57019 0.85515 0.9525 0.0
C67 C 0.57335 0.85379 0.03066 0.0
N68 N 0.58567 0.8748 0.05857 0.0
N69 N 0.58042 0.87692 0.93143 0.0
C70 C 0.58978 0.88851 0.99723 0.0
H71 H 0.56031 0.8412 0.91411 0.0
Co72 Co 0.5782 0.88716 0.83456 0.0
C73 C 0.61404 0.93567 0.82837 0.0
O74 O 0.60291 0.93962 0.77456 0.0
N75 N 0.57538 0.89684 0.73433 0.0
C76 C 0.5607 0.90198 0.62625 0.0
C77 C 0.55797 0.89845 0.70478 0.0
C78 C 0.58869 0.89997 0.67205 0.0
N79 N 0.58001 0.90294 0.60603 0.0
O80 O 0.59482 0.8738 0.79101 0.0
H81 H 0.54341 0.89604 0.73631 0.0
H82 H 0.6037 0.89859 0.67387 0.0
O83 O 0.60619 0.91571 0.8547 0.0
C84 C 0.58137 0.8553 0.75746 0.0
O85 O 0.55987 0.84893 0.75674 0.0
N86 N 0.55991 0.89762 0.87833 0.0
C87 C 0.52678 0.90666 0.93228 0.0
C88 C 0.54971 0.9225 0.94073 0.0
C89 C 0.56603 0.9176 0.91411 0.0
C90 C 0.53784 0.88139 0.8755 0.0
C91 C 0.52101 0.88567 0.90045 0.0
H92 H 0.58337 0.92984 0.92388 0.0
H93 H 0.53324 0.86529 0.84993 0.0
H94 H 0.59826 0.90662 0.00118 0.0
H95 H 0.56659 0.83856 0.06475 0.0
H96 H 0.54882 0.90253 0.58627 0.0
H97 H 0.55509 0.93855 0.96826 0.0
H98 H 0.50364 0.87278 0.89246 0.0
C99 C 0.69198 0.54361 0.30497 0.0
C100 C 0.6964 0.54504 0.38334 0.0
N101 N 0.70592 0.56676 0.4053 0.0
N102 N 0.69847 0.56426 0.27727 0.0
C103 C 0.70745 0.57802 0.33894 0.0
H104 H 0.68315 0.52833 0.27144 0.0
Co105 Co 0.69158 0.571 0.17929 0.0
C106 C 0.69427 0.61606 0.20619 0.0
O107 O 0.70282 0.62463 0.13809 0.0
N108 N 0.68458 0.57751 0.08076 0.0
C109 C 0.66961 0.58729 0.98449 0.0
C110 C 0.669 0.58331 0.06295 0.0
C111 C 0.6938 0.57722 0.01177 0.0
N112 N 0.68518 0.58336 0.95269 0.0
O113 O 0.72333 0.58889 0.15605 0.0
H114 H 0.65808 0.58487 0.10461 0.0
H115 H 0.70687 0.57299 0.00462 0.0
O116 O 0.6902 0.59636 0.22438 0.0
C117 C 0.72955 0.5751 0.13406 0.0
O118 O 0.71455 0.55358 0.13599 0.0
N119 N 0.66091 0.55192 0.19958 0.0
C120 C 0.61648 0.51886 0.22708 0.0
C121 C 0.62756 0.53719 0.27765 0.0
C122 C 0.64983 0.5537 0.26258 0.0
C123 C 0.65045 0.53406 0.15059 0.0
C124 C 0.62814 0.51753 0.16255 0.0
H125 H 0.65838 0.56744 0.30296 0.0
H126 H 0.65966 0.53244 0.1025 0.0
H127 H 0.71406 0.59589 0.33533 0.0
H128 H 0.69142 0.53086 0.42159 0.0
H129 H 0.65937 0.59256 0.95312 0.0
H130 H 0.61911 0.53867 0.32844 0.0
H131 H 0.6203 0.50342 0.12303 0.0
C132 C 0.15543 0.7223 0.65292 0.0
C133 C 0.15758 0.72775 0.73027 0.0
N134 N 0.13735 0.71547 0.76395 0.0
N135 N 0.13388 0.70687 0.63775 0.0
C136 C 0.12327 0.70283 0.70682 0.0
H137 H 0.16881 0.72909 0.61061 0.0
Co138 Co 0.12278 0.69478 0.54082 0.0
C139 C 0.07524 0.68721 0.53645 0.0
O140 O 0.07144 0.67907 0.46577 0.0
N141 N 0.11251 0.68282 0.44072 0.0
C142 C 0.10872 0.66432 0.33054 0.0
C143 C 0.11127 0.66418 0.4097 0.0
C144 C 0.11061 0.6939 0.37889 0.0
N145 N 0.10864 0.68323 0.31126 0.0
O146 O 0.13577 0.72506 0.4994 0.0
H147 H 0.11399 0.65214 0.44109 0.0
H148 H 0.11178 0.71014 0.38284 0.0
O149 O 0.09443 0.69399 0.56809 0.0
C150 C 0.15373 0.73054 0.46128 0.0
O151 O 0.1605 0.71577 0.4557 0.0
N152 N 0.11215 0.66566 0.58121 0.0
C153 C 0.10193 0.62231 0.62371 0.0
C154 C 0.08482 0.62707 0.60586 0.0
C155 C 0.09025 0.64884 0.58465 0.0
C156 C 0.12896 0.66151 0.60087 0.0
C157 C 0.12424 0.64001 0.62267 0.0
H158 H 0.0768 0.65161 0.5676 0.0
H159 H 0.14626 0.67484 0.59662 0.0
H160 H 0.10558 0.69097 0.715 0.0
H161 H 0.17293 0.73946 0.75986 0.0
H162 H 0.10904 0.65248 0.2899 0.0
H163 H 0.06734 0.61396 0.60645 0.0
H164 H 0.13803 0.63708 0.63499 0.0
C165 C 0.4569 0.14937 0.99303 0.0
C166 C 0.45651 0.15388 0.07043 0.0
N167 N 0.43802 0.13665 0.10164 0.0
N168 N 0.4385 0.1296 0.97552 0.0
C169 C 0.42742 0.12209 0.04341 0.0
H170 H 0.47014 0.15958 0.95266 0.0
Co171 Co 0.43237 0.11657 0.87807 0.0
C172 C 0.38504 0.08011 0.89362 0.0
O173 O 0.37911 0.08772 0.83346 0.0
N174 N 0.42677 0.10384 0.77926 0.0
C175 C 0.41464 0.08107 0.67701 0.0
C176 C 0.41733 0.0822 0.75659 0.0
C177 C 0.43046 0.11546 0.71284 0.0
N178 N 0.42269 0.1021 0.65001 0.0
O179 O 0.41603 0.13212 0.85147 0.0
H180 H 0.41203 0.0681 0.79552 0.0
H181 H 0.43871 0.13349 0.71025 0.0
O182 O 0.40537 0.09049 0.91684 0.0
C183 C 0.42941 0.15199 0.82724 0.0
O184 O 0.45103 0.15892 0.82719 0.0
N185 N 0.4497 0.10336 0.90217 0.0
C186 C 0.48142 0.091 0.94189 0.0
C187 C 0.45983 0.0799 0.97462 0.0
C188 C 0.44423 0.08648 0.95458 0.0
C189 C 0.47038 0.11398 0.86853 0.0
C190 C 0.48651 0.10808 0.88753 0.0
H191 H 0.42816 0.0785 0.9835 0.0
H192 H 0.47456 0.12757 0.82824 0.0
H193 H 0.41206 0.10623 0.05073 0.0
H194 H 0.46923 0.16822 0.10207 0.0
H195 H 0.40663 0.06592 0.64241 0.0
H196 H 0.45534 0.06686 0.01769 0.0
H197 H 0.50291 0.11698 0.86052 0.0
C198 C 0.57652 0.71607 0.33646 0.0
C199 C 0.58245 0.72139 0.26017 0.0
N200 N 0.59142 0.70908 0.23514 0.0
N201 N 0.58204 0.70071 0.35983 0.0
C202 C 0.59086 0.69653 0.29619 0.0
H203 H 0.56845 0.72289 0.3721 0.0
Co204 Co 0.5778 0.68924 0.4598 0.0
C205 C 0.61108 0.67394 0.48442 0.0
O206 O 0.5975 0.65932 0.5356 0.0
N207 N 0.57315 0.67825 0.56272 0.0
C208 C 0.55883 0.66073 0.67472 0.0
C209 C 0.5552 0.66063 0.59619 0.0
C210 C 0.58735 0.68871 0.62255 0.0
N211 N 0.57905 0.67851 0.69124 0.0
O212 O 0.59485 0.71968 0.49987 0.0
H213 H 0.54 0.64872 0.56693 0.0
H214 H 0.60355 0.7037 0.61579 0.0
O215 O 0.6054 0.68686 0.44966 0.0
C216 C 0.58137 0.7261 0.52374 0.0
O217 O 0.55968 0.71184 0.51909 0.0
N218 N 0.55923 0.6601 0.41958 0.0
C219 C 0.52618 0.61762 0.36856 0.0
C220 C 0.54909 0.62442 0.36222 0.0
C221 C 0.56537 0.64581 0.38722 0.0
C222 C 0.5372 0.65446 0.42032 0.0
C223 C 0.52039 0.63322 0.39664 0.0
H224 H 0.58273 0.6507 0.37892 0.0
H225 H 0.5326 0.6663 0.44283 0.0
H226 H 0.59678 0.68463 0.2944 0.0
H227 H 0.57977 0.73289 0.22498 0.0
H228 H 0.54696 0.64923 0.71675 0.0
H229 H 0.55446 0.61339 0.33761 0.0
H230 H 0.50301 0.62893 0.40261 0.0
C231 C 0.86043 0.573 0.68343 0.0
C232 C 0.86013 0.57618 0.60472 0.0
N233 N 0.88129 0.58516 0.57802 0.0
N234 N 0.8817 0.5799 0.70605 0.0
C235 C 0.89402 0.58725 0.64045 0.0
H236 H 0.84589 0.56511 0.72079 0.0
Co237 Co 0.89079 0.57568 0.80309 0.0
C238 C 0.93086 0.62289 0.81061 0.0
O239 O 0.92229 0.63071 0.86152 0.0
N240 N 0.89951 0.57094 0.90108 0.0
C241 C 0.90009 0.55232 0.00574 0.0
C242 C 0.89649 0.55108 0.92714 0.0
C243 C 0.90508 0.58402 0.96513 0.0
N244 N 0.90547 0.57302 0.02937 0.0
O245 O 0.87761 0.59195 0.8507 0.0
H246 H 0.89033 0.53603 0.89272 0.0
H247 H 0.90657 0.60042 0.96638 0.0
O248 O 0.91961 0.60258 0.78783 0.0
C249 C 0.85829 0.57767 0.87694 0.0
O250 O 0.85172 0.55626 0.8686 0.0
N251 N 0.90165 0.55814 0.75719 0.0
C252 C 0.91255 0.52652 0.7011 0.0
C253 C 0.92944 0.5485 0.71997 0.0
C254 C 0.92366 0.56394 0.74912 0.0
C255 C 0.88502 0.53731 0.73613 0.0
C256 C 0.89005 0.52121 0.70895 0.0
H257 H 0.93697 0.58027 0.7668 0.0
H258 H 0.86766 0.53288 0.74392 0.0
H259 H 0.91165 0.59244 0.63737 0.0
H260 H 0.84541 0.57152 0.5694 0.0
H261 H 0.89749 0.53864 0.04351 0.0
H262 H 0.94706 0.55377 0.71355 0.0
H263 H 0.87627 0.50451 0.69719 0.0
C264 C 0.31019 0.86096 0.03231 0.0
C265 C 0.30667 0.85969 0.95334 0.0
N266 N 0.30205 0.87587 0.93259 0.0
N267 N 0.30779 0.87783 0.06133 0.0
C268 C 0.30229 0.88618 -0.00045 0.0
H269 H 0.31608 0.85152 0.0653 0.0
Co270 Co 0.3174 0.89068 0.15937 0.0
C271 C 0.31553 0.93343 0.15212 0.0
O272 O 0.30908 0.932 0.22458 0.0
N273 N 0.32743 0.90362 0.25744 0.0
C274 C 0.34705 0.92813 0.35009 0.0
C275 C 0.3459 0.92365 0.27213 0.0
C276 C 0.31788 0.89604 0.32772 0.0
N277 N 0.32936 0.91079 0.3849 0.0
O278 O 0.28645 0.87811 0.19226 0.0
H279 H 0.35746 0.93468 0.22853 0.0
H280 H 0.30241 0.8804 0.33673 0.0
O281 O 0.31886 0.91831 0.12272 0.0
C282 C 0.27805 0.8572 0.20656 0.0
O283 O 0.2909 0.84825 0.19731 0.0
N284 N 0.34713 0.90093 0.12844 0.0
C285 C 0.39 0.91016 0.0835 0.0
C286 C 0.37938 0.92055 0.04604 0.0
C287 C 0.35787 0.91564 0.06918 0.0
C288 C 0.3571 0.89066 0.16536 0.0
C289 C 0.37857 0.89518 0.1444 0.0
H290 H 0.34966 0.92316 0.03789 0.0
H291 H 0.34815 0.87868 0.21103 0.0
H292 H 0.29997 0.90056 0.00261 0.0
H293 H 0.30941 0.8491 0.91369 0.0
H294 H 0.35982 0.94308 0.37887 0.0
H295 H 0.3873 0.93185 0.99771 0.0
H296 H 0.38609 0.88693 0.17572 0.0
C297 C 0.43508 0.28742 0.38757 0.0
C298 C 0.43101 0.28198 0.31033 0.0
N299 N 0.4212 0.293 0.28021 0.0
N300 N 0.42757 0.30157 0.40636 0.0
C301 C 0.41937 0.30483 0.33929 0.0
H302 H 0.44326 0.28157 0.42705 0.0
Co303 Co 0.42907 0.31352 0.50442 0.0
C304 C 0.39229 0.325 0.50892 0.0
O305 O 0.40246 0.33951 0.56504 0.0
N306 N 0.43097 0.3253 0.60525 0.0
C307 C 0.44363 0.34419 0.71611 0.0
C308 C 0.44729 0.34447 0.63754 0.0
C309 C 0.41742 0.31396 0.6656 0.0
N310 N 0.42494 0.32479 0.73387 0.0
O311 O 0.41266 0.28326 0.54636 0.0
H312 H 0.46171 0.35747 0.60761 0.0
H313 H 0.40262 0.29757 0.66011 0.0
O314 O 0.40093 0.31359 0.48247 0.0
C315 C 0.42639 0.27786 0.57568 0.0
O316 O 0.44792 0.29286 0.57442 0.0
N317 N 0.44714 0.34256 0.4626 0.0
C318 C 0.47963 0.38335 0.39809 0.0
C319 C 0.45669 0.37636 0.39217 0.0
C320 C 0.44067 0.35583 0.4243 0.0
C321 C 0.46933 0.3488 0.46669 0.0
C322 C 0.48585 0.36924 0.43601 0.0
H323 H 0.42326 0.35059 0.41536 0.0
H324 H 0.47419 0.33777 0.49452 0.0
H325 H 0.41211 0.31557 0.33369 0.0
H326 H 0.43545 0.27123 0.2782 0.0
H327 H 0.4548 0.35658 0.75751 0.0
H328 H 0.45111 0.38659 0.36245 0.0
H329 H 0.50332 0.37366 0.44023 0.0
C330 C 0.14974 0.43386 0.71184 0.0
C331 C 0.1519 0.43695 0.63264 0.0
N332 N 0.13262 0.4348 0.60502 0.0
N333 N 0.12907 0.42955 0.73383 0.0
C334 C 0.1191 0.43008 0.667 0.0
H335 H 0.16288 0.43552 0.75029 0.0
Co336 Co 0.11654 0.42693 0.83286 0.0
C337 C 0.0825 0.38423 0.75368 0.0
O338 O 0.09769 0.3814 0.71728 0.0
N339 N 0.10394 0.42469 0.93057 0.0
C340 C 0.07949 0.41963 0.02378 0.0
C341 C 0.08201 0.41693 0.9464 0.0
C342 C 0.11442 0.43198 -0.00038 0.0
N343 N 0.09989 0.42908 0.05699 0.0
O344 O 0.12856 0.4082 0.86748 0.0
H345 H 0.06861 0.41026 0.90437 0.0
H346 H 0.13238 0.43994 0.00771 0.0
O347 O 0.08852 0.40093 0.79911 0.0
C348 C 0.14834 0.42105 0.89364 0.0
O349 O 0.15622 0.44285 0.89135 0.0
N350 N 0.10678 0.44695 0.80262 0.0
C351 C 0.09865 0.48131 0.75702 0.0
C352 C 0.08127 0.45878 0.7573 0.0
C353 C 0.08567 0.44181 0.77998 0.0
C354 C 0.12374 0.46868 0.8042 0.0
C355 C 0.12012 0.48608 0.78117 0.0
H356 H 0.07213 0.42464 0.7782 0.0
H357 H 0.14035 0.47244 0.82213 0.0
H358 H 0.10218 0.42726 0.66382 0.0
H359 H 0.1668 0.44142 0.59867 0.0
H360 H 0.06389 0.41504 0.05342 0.0
H361 H 0.06434 0.45422 0.74034 0.0
H362 H 0.13421 0.50306 0.78077 0.0
C363 C 0.69522 0.14365 0.03704 0.0
C364 C 0.69967 0.14914 0.96 0.0
N365 N 0.70458 0.13441 0.9268 0.0
N366 N 0.69761 0.12573 0.05247 0.0
C367 C 0.70317 0.12034 0.98386 0.0
H368 H 0.69012 0.15192 0.07898 0.0
Co369 Co 0.69267 0.1125 0.14946 0.0
C370 C 0.70347 0.07615 0.11383 0.0
O371 O 0.71953 0.08314 0.16595 0.0
N372 N 0.68768 0.09981 0.24789 0.0
C373 C 0.68174 0.07878 0.35279 0.0
C374 C 0.67945 0.07855 0.27315 0.0
C375 C 0.69398 0.11237 0.31272 0.0
N376 N 0.69118 0.10023 0.37744 0.0
O377 O 0.72487 0.12791 0.16896 0.0
H378 H 0.67271 0.06389 0.23629 0.0
H379 H 0.70055 0.13024 0.3121 0.0
O380 O 0.69264 0.08658 0.10461 0.0
C381 C 0.73131 0.14775 0.19345 0.0
O382 O 0.71659 0.15465 0.19378 0.0
N383 N 0.66168 0.0994 0.13336 0.0
C384 C 0.61727 0.08792 0.10337 0.0
C385 C 0.62708 0.07702 0.06463 0.0
C386 C 0.64942 0.08318 0.07983 0.0
C387 C 0.65223 0.10969 0.17322 0.0
C388 C 0.63005 0.10423 0.15911 0.0
H389 H 0.65698 0.07556 0.04587 0.0
H390 H 0.66229 0.12285 0.21414 0.0
H391 H 0.70606 0.1064 0.97546 0.0
H392 H 0.69861 0.16243 0.93005 0.0
H393 H 0.67739 0.06432 0.38899 0.0
H394 H 0.61792 0.06461 0.02022 0.0
H395 H 0.62309 0.11299 0.19054 0.0
H396 H 0.26682 0.44324 0.03114 0.0
H397 H 0.2352 0.37973 0.1537 0.0
H398 H 0.19837 0.3706 0.09542 0.0
H399 H 0.22478 0.4563 0.05762 0.0
H400 H 0.22823 0.46909 0.96356 0.0
H401 H 0.25162 0.4689 0.00936 0.0
H402 H 0.2566 0.44938 0.88865 0.0
H403 H 0.23308 0.44932 0.84223 0.0
H404 H 0.23329 0.42339 0.85438 0.0
H405 H 0.1639 0.37085 0.02897 0.0
H406 H 0.13724 0.38056 0.96553 0.0
H407 H 0.19352 0.44369 0.88927 0.0
C408 C 0.25223 0.42726 0.04556 0.0
C409 C 0.25384 0.41226 0.09749 0.0
C410 C 0.23434 0.39146 0.11389 0.0
C411 C 0.21339 0.38618 0.08101 0.0
C412 C 0.21239 0.40174 0.03101 0.0
C413 C 0.23153 0.42177 0.01313 0.0
C414 C 0.22648 0.43636 0.96116 0.0
C415 C 0.23316 0.45898 0.0003 0.0
C416 C 0.23804 0.4398 0.88191 0.0
C417 C 0.20133 0.42188 0.9541 0.0
C418 C 0.19328 0.40181 0.99366 0.0
C419 C 0.17019 0.38643 0.99725 0.0
C420 C 0.15515 0.392 0.96087 0.0
C421 C 0.16332 0.41287 0.92256 0.0
C422 C 0.18671 0.4276 0.91817 0.0
H423 H 0.73958 0.17808 0.3058 0.0
H424 H 0.77246 0.14982 0.16985 0.0
H425 H 0.80907 0.17707 0.23055 0.0
H426 H 0.78044 0.23381 0.28871 0.0
H427 H 0.77679 0.24128 0.38563 0.0
H428 H 0.75371 0.21816 0.337 0.0
H429 H 0.74966 0.192 0.45138 0.0
H430 H 0.77292 0.21495 0.50064 0.0
H431 H 0.77344 0.18946 0.48121 0.0
H432 H 0.84306 0.21126 0.30008 0.0
H433 H 0.86914 0.24704 0.36731 0.0
H434 H 0.81201 0.25057 0.45594 0.0
C435 C 0.7544 0.17739 0.28895 0.0
C436 C 0.75322 0.16197 0.23252 0.0
C437 C 0.773 0.1615 0.2131 0.0
C438 C 0.79383 0.17692 0.24734 0.0
C439 C 0.79439 0.19233 0.30179 0.0
C440 C 0.77498 0.19233 0.32274 0.0
C441 C 0.77958 0.2109 0.37922 0.0
C442 C 0.7722 0.22698 0.34559 0.0
C443 C 0.76824 0.20125 0.45778 0.0
C444 C 0.80481 0.22207 0.38539 0.0
C445 C 0.81327 0.21116 0.34133 0.0
C446 C 0.83646 0.21964 0.33548 0.0
C447 C 0.85118 0.23991 0.37411 0.0
C448 C 0.8426 0.25153 0.41712 0.0
C449 C 0.81913 0.24206 0.42384 0.0
H450 H 0.55809 0.74811 0.51716 0.0
H451 H 0.62118 0.75565 0.59833 0.0
H452 H 0.63045 0.79211 0.65937 0.0
H453 H 0.57868 0.808 0.47752 0.0
H454 H 0.55258 0.80563 0.50892 0.0
H455 H 0.55273 0.78187 0.46564 0.0
H456 H 0.53242 0.75788 0.5869 0.0
H457 H 0.53236 0.78158 0.6305 0.0
H458 H 0.54473 0.76752 0.68147 0.0
H459 H 0.6304 0.82675 0.72236 0.0
H460 H 0.62111 0.85454 0.77786 0.0
H461 H 0.55812 0.82275 0.65157 0.0
C462 C 0.57405 0.75755 0.54677 0.0
C463 C 0.58893 0.74907 0.55308 0.0
C464 C 0.60964 0.76197 0.59221 0.0
C465 C 0.61497 0.78265 0.62714 0.0
C466 C 0.59956 0.79028 0.62115 0.0
C467 C 0.57963 0.77809 0.58088 0.0
C468 C 0.56517 0.78889 0.58528 0.0
C469 C 0.56213 0.79655 0.50454 0.0
C470 C 0.54234 0.77303 0.62333 0.0
C471 C 0.57959 0.80873 0.63668 0.0
C472 C 0.59953 0.80962 0.65637 0.0
C473 C 0.61492 0.82624 0.70639 0.0
C474 C 0.60955 0.84199 0.73758 0.0
C475 C 0.58887 0.84079 0.71929 0.0
C476 C 0.57406 0.82415 0.66707 0.0
H477 H 0.81395 0.55023 0.90276 0.0
H478 H 0.86705 0.61909 0.93519 0.0
H479 H 0.83994 0.62737 0.0028 0.0
H480 H 0.76905 0.56209 0.86758 0.0
H481 H 0.74874 0.53703 0.9172 0.0
H482 H 0.7723 0.53765 0.86911 0.0
H483 H 0.78348 0.52606 0.99765 0.0
H484 H 0.76006 0.52552 0.04617 0.0
H485 H 0.78809 0.54274 0.08361 0.0
H486 H 0.80526 0.6267 0.07253 0.0
H487 H 0.7686 0.61713 0.13323 0.0
H488 H 0.74068 0.54867 0.05173 0.0
C489 C 0.82004 0.56716 0.92365 0.0
C490 C 0.84268 0.584 0.91389 0.0
C491 C 0.84974 0.60592 0.9418 0.0
C492 C 0.83444 0.61072 0.98035 0.0
C493 C 0.81217 0.59346 0.98976 0.0
C494 C 0.80515 0.57216 0.96141 0.0
C495 C 0.78073 0.55616 0.97902 0.0
C496 C 0.7669 0.54775 0.90376 0.0
C497 C 0.77794 0.53647 0.02963 0.0
C498 C 0.77497 0.57149 0.02342 0.0
C499 C 0.79305 0.59305 0.02892 0.0
C500 C 0.79109 0.60983 0.0682 0.0
C501 C 0.77023 0.60428 0.10256 0.0
C502 C 0.75177 0.58211 0.09799 0.0
C503 C 0.75441 0.56575 0.05736 0.0
H504 H 0.17987 0.73893 0.33466 0.0
H505 H 0.15781 0.77163 0.49861 0.0
H506 H 0.18444 0.80861 0.43975 0.0
H507 H 0.236 0.77716 0.34099 0.0
H508 H 0.24122 0.77528 0.23956 0.0
H509 H 0.21828 0.75184 0.28738 0.0
H510 H 0.19047 0.7518 0.18537 0.0
H511 H 0.21342 0.77526 0.13682 0.0
H512 H 0.18939 0.7771 0.1685 0.0
H513 H 0.21777 0.8427 0.37068 0.0
H514 H 0.25307 0.869 0.30153 0.0
H515 H 0.25179 0.81259 0.18508 0.0
C516 C 0.18031 0.75382 0.35745 0.0
C517 C 0.16685 0.75245 0.4213 0.0
C518 C 0.16787 0.7723 0.44924 0.0
C519 C 0.18298 0.79335 0.41616 0.0
C520 C 0.19656 0.79413 0.35438 0.0
C521 C 0.19502 0.77471 0.32491 0.0
C522 C 0.21223 0.77968 0.26219 0.0
C523 C 0.22785 0.77046 0.28389 0.0
C524 C 0.20069 0.77042 0.18357 0.0
C525 C 0.22456 0.80504 0.26302 0.0
C526 C 0.21519 0.81326 0.31534 0.0
C527 C 0.22493 0.83635 0.32873 0.0
C528 C 0.24492 0.85121 0.28903 0.0
C529 C 0.25507 0.84282 0.23768 0.0
C530 C 0.24435 0.81951 0.22361 0.0
H531 H 0.45096 0.25722 0.57775 0.0
H532 H 0.38642 0.24795 0.64881 0.0
H533 H 0.37799 0.21242 0.71558 0.0
H534 H 0.4324 0.19753 0.5459 0.0
H535 H 0.45868 0.20103 0.58084 0.0
H536 H 0.45794 0.22402 0.53345 0.0
H537 H 0.47704 0.24924 0.65348 0.0
H538 H 0.4777 0.22636 0.7013 0.0
H539 H 0.46431 0.24009 0.74774 0.0
H540 H 0.37885 0.17856 0.78435 0.0
H541 H 0.38886 0.15164 0.84389 0.0
H542 H 0.4528 0.18508 0.72391 0.0
C543 C 0.43487 0.24759 0.60641 0.0
C544 C 0.41933 0.25531 0.60819 0.0
C545 C 0.39847 0.24218 0.64614 0.0
C546 C 0.39362 0.22204 0.68436 0.0
C547 C 0.40967 0.21517 0.68283 0.0
C548 C 0.42977 0.22758 0.64369 0.0
C549 C 0.44485 0.2176 0.65228 0.0
C550 C 0.44868 0.20957 0.57343 0.0
C551 C 0.46729 0.23431 0.69103 0.0
C552 C 0.43062 0.19802 0.70482 0.0
C553 C 0.41021 0.19646 0.72145 0.0
C554 C 0.39476 0.17967 0.77099 0.0
C555 C 0.40053 0.16443 0.80457 0.0
C556 C 0.42169 0.16637 0.78925 0.0
C557 C 0.43658 0.18322 0.73777 0.0
H558 H 0.48495 0.60379 0.30008 0.0
H559 H 0.52694 0.57844 0.39164 0.0
H560 H 0.49701 0.53976 0.36328 0.0
H561 H 0.4338 0.56092 0.38152 0.0
H562 H 0.41679 0.55967 0.29993 0.0
H563 H 0.44215 0.58544 0.3222 0.0
H564 H 0.45678 0.58655 0.18278 0.0
H565 H 0.43145 0.56075 0.1601 0.0
H566 H 0.45844 0.56281 0.14681 0.0
H567 H 0.46168 0.50352 0.32988 0.0
H568 H 0.42392 0.47282 0.29375 0.0
H569 H 0.40458 0.52198 0.23067 0.0
C570 C 0.48792 0.59016 0.3144 0.0
C571 C 0.50846 0.59432 0.34789 0.0
C572 C 0.51159 0.57586 0.36465 0.0
C573 C 0.4946 0.55376 0.34924 0.0
C574 C 0.47451 0.55031 0.31714 0.0
C575 C 0.47111 0.56801 0.29989 0.0
C576 C 0.44771 0.55976 0.26819 0.0
C577 C 0.43433 0.56687 0.32114 0.0
C578 C 0.44866 0.56796 0.1845 0.0
C579 C 0.4384 0.53464 0.27095 0.0
C580 C 0.45413 0.5295 0.29896 0.0
C581 C 0.44923 0.50736 0.3078 0.0
C582 C 0.42767 0.49002 0.2876 0.0
C583 C 0.4112 0.49489 0.25915 0.0
C584 C 0.41682 0.51758 0.25081 0.0
H585 H 0.88839 0.48946 0.60587 0.0
H586 H 0.94934 0.52289 0.74474 0.0
H587 H 0.95776 0.49316 0.71142 0.0
H588 H 0.87311 0.43472 0.67146 0.0
H589 H 0.86124 0.42136 0.57995 0.0
H590 H 0.86135 0.44672 0.60653 0.0
H591 H 0.88232 0.46558 0.47909 0.0
H592 H 0.88235 0.44027 0.45226 0.0
H593 H 0.90843 0.46654 0.45704 0.0
H594 H 0.95901 0.4589 0.66708 0.0
H595 H 0.95181 0.42191 0.62195 0.0
H596 H 0.88788 0.40878 0.52559 0.0
C597 C 0.90353 0.49068 0.62976 0.0
C598 C 0.91826 0.50896 0.67754 0.0
C599 C 0.93798 0.50964 0.70621 0.0
C600 C 0.94288 0.49264 0.68814 0.0
C601 C 0.92781 0.47482 0.64203 0.0
C602 C 0.90844 0.47363 0.61377 0.0
C603 C 0.89418 0.45183 0.57039 0.0
C604 C 0.87111 0.43784 0.60944 0.0
C605 C 0.89168 0.45633 0.4846 0.0
C606 C 0.90847 0.44086 0.57936 0.0
C607 C 0.92795 0.45454 0.61986 0.0
C608 C 0.94373 0.44799 0.63567 0.0
C609 C 0.93936 0.42679 0.61029 0.0
C610 C 0.91915 0.41211 0.57054 0.0
C611 C 0.90366 0.41952 0.55458 0.0
H612 H 0.48476 0.87826 0.99398 0.0
H613 H 0.52817 0.94729 0.92073 0.0
H614 H 0.49845 0.95597 0.95402 0.0
H615 H 0.4342 0.87318 0.91371 0.0
H616 H 0.41662 0.85559 0.99122 0.0
H617 H 0.44177 0.85513 0.96545 0.0
H618 H 0.45584 0.86469 0.10742 0.0
H619 H 0.43074 0.86521 0.1336 0.0
H620 H 0.45792 0.88929 0.15267 0.0
H621 H 0.46344 0.95696 0.99324 0.0
H622 H 0.42615 0.95007 0.03519 0.0
H623 H 0.40509 0.8799 0.07442 0.0
C624 C 0.48809 0.8952 0.98433 0.0
C625 C 0.50902 0.91208 0.95492 0.0
C626 C 0.51255 0.93409 0.94458 0.0
C627 C 0.49566 0.93918 0.96273 0.0
C628 C 0.47522 0.92207 0.99079 0.0
C629 C 0.47137 0.90052 0.00134 0.0
C630 C 0.44774 0.88502 0.03038 0.0
C631 C 0.43429 0.86612 0.97168 0.0
C632 C 0.44809 0.8755 0.1108 0.0
C633 C 0.43892 0.90124 0.03483 0.0
C634 C 0.45501 0.92254 0.01188 0.0
C635 C 0.45069 0.94031 0.01112 0.0
C636 C 0.42938 0.93619 0.03459 0.0
C637 C 0.41258 0.91445 0.05833 0.0
C638 C 0.41757 0.89681 0.05798 0.0
H639 H 0.59975 0.49468 0.3611 0.0
H640 H 0.58108 0.50137 0.12648 0.0
H641 H 0.54309 0.46881 0.14763 0.0
H642 H 0.57227 0.43563 0.3608 0.0
H643 H 0.56345 0.43226 0.46074 0.0
H644 H 0.5883 0.45746 0.43029 0.0
H645 H 0.57198 0.48152 0.48415 0.0
H646 H 0.5471 0.45636 0.51522 0.0
H647 H 0.54469 0.47598 0.45221 0.0
H648 H 0.50787 0.4344 0.19199 0.0
H649 H 0.47838 0.39988 0.25465 0.0
H650 H 0.52024 0.41491 0.45955 0.0
C651 C 0.58746 0.48956 0.31492 0.0
C652 C 0.59318 0.50063 0.24242 0.0
C653 C 0.57692 0.49312 0.18248 0.0
C654 C 0.55533 0.47471 0.19406 0.0
C655 C 0.5503 0.4639 0.26578 0.0
C656 C 0.5659 0.47102 0.3252 0.0
C657 C 0.55673 0.45552 0.39476 0.0
C658 C 0.57104 0.44457 0.41265 0.0
C659 C 0.55502 0.4681 0.46578 0.0
C660 C 0.53367 0.43843 0.36481 0.0
C661 C 0.53019 0.44372 0.29065 0.0
C662 C 0.51033 0.43019 0.2503 0.0
C663 C 0.49363 0.41067 0.2865 0.0
C664 C 0.49695 0.40472 0.36209 0.0
C665 C 0.51724 0.41894 0.40161 0.0
H666 H 0.11783 0.52481 0.8119 0.0
H667 H 0.07071 0.47971 0.63964 0.0
H668 H 0.06474 0.5102 0.59287 0.0
H669 H 0.08987 0.55649 0.85267 0.0
H670 H 0.11573 0.58287 0.86101 0.0
H671 H 0.1151 0.55706 0.88505 0.0
H672 H 0.1472 0.56658 0.78696 0.0
H673 H 0.14796 0.59241 0.76271 0.0
H674 H 0.14392 0.57254 0.68748 0.0
H675 H 0.06487 0.54594 0.56131 0.0
H676 H 0.07216 0.58463 0.54416 0.0
H677 H 0.12028 0.60692 0.73334 0.0
C678 C 0.10629 0.52126 0.76417 0.0
C679 C 0.09462 0.49965 0.73007 0.0
C680 C 0.0795 0.49587 0.66818 0.0
C681 C 0.07609 0.51316 0.64073 0.0
C682 C 0.08799 0.53423 0.67537 0.0
C683 C 0.10285 0.53838 0.73552 0.0
C684 C 0.11428 0.56278 0.76034 0.0
C685 C 0.10839 0.56492 0.84478 0.0
C686 C 0.13985 0.57425 0.74865 0.0
C687 C 0.1037 0.57176 0.70413 0.0
C688 C 0.08841 0.55496 0.65615 0.0
C689 C 0.0767 0.5592 0.59887 0.0
C690 C 0.08086 0.58123 0.58992 0.0
C691 C 0.0967 0.59883 0.63766 0.0
C692 C 0.10814 0.59388 0.69575 0.0
H693 H 0.60381 0.11862 0.07592 0.0
H694 H 0.57926 0.047 0.08127 0.0
H695 H 0.5415 0.03972 0.04209 0.0
H696 H 0.55357 0.11661 0.14989 0.0
H697 H 0.55627 0.13885 0.08739 0.0
H698 H 0.58096 0.13816 0.11826 0.0
H699 H 0.59257 0.13909 0.97466 0.0
H700 H 0.56786 0.13967 0.94334 0.0
H701 H 0.57317 0.11807 0.90827 0.0
H702 H 0.50624 0.0405 0.00259 0.0
H703 H 0.47697 0.04932 0.96123 0.0
H704 H 0.52523 0.12043 0.97953 0.0
C705 C 0.59041 0.10139 0.06992 0.0
C706 C 0.59439 0.08335 0.08231 0.0
C707 C 0.57655 0.06106 0.07196 0.0
C708 C 0.55506 0.05677 0.05 0.0
C709 C 0.55175 0.07497 0.03803 0.0
C710 C 0.56898 0.09684 0.04737 0.0
C711 C 0.56131 0.11347 0.02865 0.0
C712 C 0.56313 0.1276 0.10032 0.0
C713 C 0.57451 0.12845 0.95962 0.0
C714 C 0.53704 0.09758 0.00726 0.0
C715 C 0.53176 0.07543 0.01349 0.0
C716 C 0.51022 0.05779 0.99742 0.0
C717 C 0.49369 0.06294 0.97424 0.0
C718 C 0.49886 0.08554 0.96667 0.0
C719 C 0.52085 0.103 0.98362 0.0
H720 H 0.33014 0.38775 0.34605 0.0
H721 H 0.30027 0.33648 0.16813 0.0
H722 H 0.3164 0.31538 0.23148 0.0
H723 H 0.38138 0.38813 0.35755 0.0
H724 H 0.38454 0.3929 0.46075 0.0
H725 H 0.36893 0.40263 0.40498 0.0
H726 H 0.33483 0.38063 0.49479 0.0
H727 H 0.34989 0.37025 0.55066 0.0
H728 H 0.32317 0.35082 0.5078 0.0
H729 H 0.33929 0.30192 0.30798 0.0
H730 H 0.36563 0.29687 0.39235 0.0
H731 H 0.37944 0.35669 0.52077 0.0
C732 C 0.32677 0.37199 0.32061 0.0
C733 C 0.31397 0.36384 0.25183 0.0
C734 C 0.30991 0.34304 0.22096 0.0
C735 C 0.31905 0.33095 0.25651 0.0
C736 C 0.33202 0.33976 0.32334 0.0
C737 C 0.3357 0.35974 0.35532 0.0
C738 C 0.35111 0.36625 0.42505 0.0
C739 C 0.37277 0.38881 0.41121 0.0
C740 C 0.33901 0.367 0.49897 0.0
C741 C 0.35577 0.34694 0.42708 0.0
C742 C 0.34466 0.3318 0.36799 0.0
C743 C 0.34775 0.31347 0.35523 0.0
C744 C 0.36274 0.31071 0.40349 0.0
C745 C 0.3744 0.32616 0.46404 0.0
C746 C 0.37048 0.34426 0.47626 0.0
H747 H 0.06315 0.36094 0.61863 0.0
H748 H 0.04705 0.37532 0.84708 0.0
H749 H 0.00687 0.35557 0.81311 0.0
H750 H 0.02411 0.36971 0.51596 0.0
H751 H 0.01641 0.34734 0.44697 0.0
H752 H 0.04381 0.36062 0.49118 0.0
H753 H 0.03678 0.32202 0.53997 0.0
H754 H 0.00936 0.30857 0.49554 0.0
H755 H 0.01219 0.30459 0.59744 0.0
H756 H 0.96927 0.33811 0.75108 0.0
H757 H 0.93609 0.32257 0.66621 0.0
H758 H 0.9752 0.31749 0.47796 0.0
C759 C 0.05109 0.35943 0.66207 0.0
C760 C 0.05828 0.36979 0.73559 0.0
C761 C 0.04201 0.36783 0.79021 0.0
C762 C 0.0191 0.35648 0.77159 0.0
C763 C 0.0126 0.347 0.6981 0.0
C764 C 0.02803 0.34813 0.64426 0.0
C765 C 0.01653 0.33755 0.56789 0.0
C766 C 0.02577 0.35484 0.50161 0.0
C767 C 0.01886 0.31695 0.54912 0.0
C768 C 0.99236 0.33073 0.5869 0.0
C769 C 0.99055 0.33632 0.66251 0.0
C770 C 0.97038 0.33324 0.69228 0.0
C771 C 0.95156 0.32434 0.64353 0.0
C772 C 0.95282 0.31833 0.56586 0.0
C773 C 0.97352 0.32139 0.53758 0.0
H774 H 0.67707 0.06121 0.98396 0.0
H775 H 0.71174 0.04195 0.15052 0.0
H776 H 0.69488 0.00435 0.08957 0.0
H777 H 0.62606 0.00943 0.98727 0.0
H778 H 0.62012 0.01028 0.88586 0.0
H779 H 0.63658 0.03602 0.93857 0.0
H780 H 0.66848 0.04842 0.83863 0.0
H781 H 0.65238 0.02273 0.78515 0.0
H782 H 0.68025 0.03065 0.81851 0.0
H783 H 0.67076 0.96729 0.01714 0.0
H784 H 0.64326 0.93531 0.93745 0.0
H785 H 0.62515 0.97973 0.81901 0.0
C786 C 0.68121 0.04916 0.00772 0.0
C787 C 0.6956 0.05452 0.07256 0.0
C788 C 0.70085 0.03831 0.10068 0.0
C789 C 0.69128 0.01687 0.06657 0.0
C790 C 0.6766 0.01195 0.00406 0.0
C791 C 0.67175 0.02776 0.97474 0.0
C792 C 0.65465 0.01815 0.90991 0.0
C793 C 0.63308 0.01848 0.93174 0.0
C794 C 0.66455 0.03072 0.83345 0.0
C795 C 0.6506 0.99442 0.90686 0.0
C796 C 0.66328 0.99103 0.9618 0.0
C797 C 0.66107 0.9699 0.97309 0.0
C798 C 0.64541 0.95182 0.92751 0.0
C799 C 0.63227 0.955 0.87096 0.0
C800 C 0.63524 0.97672 0.86032 0.0
H801 H 0.62873 0.67939 0.33629 0.0
H802 H 0.63554 0.66142 0.57192 0.0
H803 H 0.66128 0.64871 0.52659 0.0
H804 H 0.62557 0.6332 0.24868 0.0
H805 H 0.64161 0.64693 0.16298 0.0
H806 H 0.62701 0.65863 0.21402 0.0
H807 H 0.66404 0.6964 0.2291 0.0
H808 H 0.6788 0.68496 0.17707 0.0
H809 H 0.68818 0.69687 0.27224 0.0
H810 H 0.67947 0.63114 0.45558 0.0
H811 H 0.69317 0.61354 0.36301 0.0
H812 H 0.67772 0.64437 0.17156 0.0
C813 C 0.63643 0.67368 0.37856 0.0
C814 C 0.63031 0.6716 0.45786 0.0
C815 C 0.64011 0.66329 0.5111 0.0
C816 C 0.65475 0.65601 0.48588 0.0
C817 C 0.65965 0.65727 0.40709 0.0
C818 C 0.65117 0.66625 0.3541 0.0
C819 C 0.65769 0.66377 0.27187 0.0
C820 C 0.63672 0.6498 0.22146 0.0
C821 C 0.6731 0.68688 0.23543 0.0
C822 C 0.67037 0.65125 0.28704 0.0
C823 C 0.67125 0.64776 0.36564 0.0
C824 C 0.67965 0.63446 0.39413 0.0
C825 C 0.68745 0.62451 0.34112 0.0
C826 C 0.68734 0.62821 0.26049 0.0
C827 C 0.67882 0.64195 0.23315 0.0
H828 H 0.0314 0.65531 0.51483 0.0
H829 H 0.07523 0.70897 0.67068 0.0
H830 H 0.04261 0.69991 0.75562 0.0
H831 H 0.98121 0.65987 0.53528 0.0
H832 H 0.9628 0.62988 0.53374 0.0
H833 H 0.98916 0.64225 0.48264 0.0
H834 H 1.00009 0.61654 0.55875 0.0
H835 H 0.97384 0.60431 0.61042 0.0
H836 H 0.99996 0.6169 0.66332 0.0
H837 H 1.00433 0.68414 0.82408 0.0
H838 H 0.96543 0.66153 0.8741 0.0
H839 H 0.9485 0.6168 0.67688 0.0
C840 C 0.03413 0.66552 0.56591 0.0
C841 C 0.0558 0.6832 0.58527 0.0
C842 C 0.05872 0.69557 0.65421 0.0
C843 C 0.04028 0.69053 0.7027 0.0
C844 C 0.01913 0.67284 0.68203 0.0
C845 C 0.0161 0.6604 0.6155 0.0
C846 C 0.99221 0.64111 0.60891 0.0
C847 C 0.98067 0.64344 0.53582 0.0
C848 C 0.9915 0.61838 0.61047 0.0
C849 C 0.98215 0.64463 0.68185 0.0
C850 C 0.99776 0.66314 0.72301 0.0
C851 C 0.99204 0.6696 0.79222 0.0
C852 C 0.9699 0.6567 0.82012 0.0
C853 C 0.95387 0.63735 0.77957 0.0
C854 C 0.96025 0.63142 0.70949 0.0
H855 H 0.38719 0.06286 0.03537 0.0
H856 H 0.34816 0.04596 0.82291 0.0
H857 H 0.32502 0.00688 0.86858 0.0
H858 H 0.38867 0.01278 0.05425 0.0
H859 H 0.38566 0.01094 0.15829 0.0
H860 H 0.39831 0.03791 0.11132 0.0
H861 H 0.36913 0.04631 0.175 0.0
H862 H 0.35674 0.01952 0.22341 0.0
H863 H 0.33959 0.02656 0.16369 0.0
H864 H 0.3091 0.96872 0.93038 0.0
H865 H 0.29856 0.93511 0.0112 0.0
H866 H 0.34573 0.97704 0.188 0.0
C867 C 0.37355 0.05102 0.99898 0.0
C868 C 0.36948 0.05749 0.92549 0.0
C869 C 0.35149 0.04148 0.87963 0.0
C870 C 0.33831 0.01919 0.90494 0.0
C871 C 0.34304 0.01325 0.97693 0.0
C872 C 0.35996 0.02879 0.02401 0.0
C873 C 0.3617 0.018 0.09855 0.0
C874 C 0.38496 0.02003 0.10599 0.0
C875 C 0.35647 0.0282 0.16936 0.0
C876 C 0.34343 0.99385 0.08532 0.0
C877 C 0.33301 0.99145 0.01444 0.0
C878 C 0.31679 0.97047 0.98668 0.0
C879 C 0.31097 0.95147 0.03267 0.0
C880 C 0.32105 0.95363 0.10605 0.0
C881 C 0.33737 0.97509 0.13286 0.0
H882 H 0.29654 0.44552 0.54712 0.0
H883 H 0.30216 0.3897 0.45475 0.0
H884 H 0.30438 0.37789 0.58666 0.0
H885 H 0.33656 0.45987 0.69236 0.0
H886 H 0.32223 0.46702 0.76461 0.0
H887 H 0.31764 0.46956 0.66324 0.0
H888 H 0.27478 0.44353 0.68203 0.0
H889 H 0.27928 0.44104 0.78372 0.0
H890 H 0.26442 0.41619 0.72494 0.0
H891 H 0.31131 0.37479 0.72562 0.0
H892 H 0.31984 0.37933 0.86573 0.0
H893 H 0.31004 0.43691 0.87106 0.0
C894 C 0.29794 0.43065 0.55442 0.0
C895 C 0.29905 0.41861 0.48949 0.0
C896 C 0.30084 0.39916 0.50241 0.0
C897 C 0.30228 0.39231 0.57759 0.0
C898 C 0.30184 0.40494 0.63975 0.0
C899 C 0.29945 0.42355 0.62933 0.0
C900 C 0.30087 0.43492 0.70625 0.0
C901 C 0.3205 0.45928 0.70659 0.0
C902 C 0.2785 0.43385 0.72533 0.0
C903 C 0.30525 0.42023 0.76085 0.0
C904 C 0.30557 0.40295 0.72114 0.0
C905 C 0.31075 0.38803 0.75768 0.0
C906 C 0.31576 0.39085 0.83701 0.0
C907 C 0.31555 0.40842 0.87904 0.0
C908 C 0.30995 0.42312 0.84049 0.0
H909 H 0.87412 0.31167 0.17404 0.0
H910 H 0.93975 0.31722 0.17096 0.0
H911 H 0.93523 0.30767 0.03143 0.0
H912 H 0.84679 0.26568 0.02988 0.0
H913 H 0.83131 0.27762 0.98594 0.0
H914 H 0.8384 0.28211 0.08757 0.0
H915 H 0.85796 0.32512 0.06658 0.0
H916 H 0.85092 0.32077 0.96511 0.0
H917 H 0.87978 0.33811 0.99456 0.0
H918 H 0.92471 0.29973 0.89237 0.0
H919 H 0.9108 0.29729 0.76036 0.0
H920 H 0.85206 0.29803 0.8503 0.0
C921 C 0.88727 0.31039 0.14401 0.0
C922 C 0.90723 0.31501 0.18292 0.0
C923 C 0.92439 0.31378 0.1418 0.0
C924 C 0.92189 0.30821 0.06287 0.0
C925 C 0.90214 0.30402 0.02581 0.0
C926 C 0.88516 0.30517 0.06472 0.0
C927 C 0.86661 0.30197 0.00936 0.0
C928 C 0.84447 0.28057 0.02939 0.0
C929 C 0.86366 0.32273 0.00888 0.0
C930 C 0.87612 0.29943 0.93308 0.0
C931 C 0.89639 0.30021 0.94436 0.0
C932 C 0.9088 0.29901 0.88278 0.0
C933 C 0.90063 0.29761 0.80735 0.0
C934 C 0.88035 0.29781 0.79338 0.0
C935 C 0.86772 0.29812 0.85794 0.0
H936 H 0.55912 0.85372 0.18173 0.0
H937 H 0.6228 0.91111 0.11576 0.0
H938 H 0.63 0.92344 0.25312 0.0
H939 H 0.54407 0.88225 0.31388 0.0
H940 H 0.53058 0.85927 0.38146 0.0
H941 H 0.53184 0.8537 0.28021 0.0
H942 H 0.55119 0.83063 0.31435 0.0
H943 H 0.54983 0.83605 0.41589 0.0
H944 H 0.57643 0.84331 0.37223 0.0
H945 H 0.62936 0.92988 0.39853 0.0
H946 H 0.61937 0.93139 0.53641 0.0
H947 H 0.55534 0.871 0.50234 0.0
C948 C 0.57483 0.86856 0.19649 0.0
C949 C 0.59057 0.88132 0.1386 0.0
C950 C 0.61059 0.90111 0.15961 0.0
C951 C 0.61485 0.90813 0.23735 0.0
C952 C 0.59882 0.89523 0.29304 0.0
C953 C 0.57916 0.87591 0.27332 0.0
C954 C 0.56373 0.86601 0.34238 0.0
C955 C 0.54124 0.86528 0.32863 0.0
C956 C 0.56009 0.84262 0.36237 0.0
C957 C 0.57756 0.88298 0.40386 0.0
C958 C 0.59796 0.89949 0.375 0.0
C959 C 0.61344 0.91703 0.42166 0.0
C960 C 0.60773 0.91779 0.49947 0.0
C961 C 0.5866 0.90143 0.52857 0.0
C962 C 0.57151 0.88376 0.48048 0.0
H963 H 0.69144 0.55446 0.86382 0.0
H964 H 0.69355 0.61843 0.86125 0.0
H965 H 0.70412 0.62319 0.72237 0.0
H966 H 0.73729 0.56862 0.72263 0.0
H967 H 0.72286 0.54135 0.67752 0.0
H968 H 0.71846 0.54432 0.77892 0.0
H969 H 0.67554 0.52526 0.75505 0.0
H970 H 0.67981 0.52218 0.65386 0.0
H971 H 0.66506 0.53656 0.68232 0.0
H972 H 0.71321 0.62045 0.58426 0.0
H973 H 0.71509 0.60864 0.45239 0.0
H974 H 0.70425 0.54473 0.54068 0.0
C975 C 0.69457 0.56961 0.83397 0.0
C976 C 0.69195 0.58623 0.87276 0.0
C977 C 0.69554 0.6056 0.83203 0.0
C978 C 0.70171 0.60849 0.75358 0.0
C979 C 0.70399 0.59172 0.7166 0.0
C980 C 0.70028 0.57252 0.75507 0.0
C981 C 0.70155 0.55605 0.69965 0.0
C982 C 0.72121 0.55237 0.72096 0.0
C983 C 0.67916 0.5337 0.6976 0.0
C984 C 0.70592 0.56875 0.62373 0.0
C985 C 0.70785 0.5895 0.6354 0.0
C986 C 0.71155 0.60415 0.5743 0.0
C987 C 0.71245 0.59711 0.49884 0.0
C988 C 0.70898 0.57527 0.48413 0.0
C989 C 0.70647 0.5613 0.54846 0.0
H990 H 0.09243 0.66044 0.17614 0.0
H991 H 0.13259 0.72732 0.27225 0.0
H992 H 0.14108 0.74317 0.14065 0.0
H993 H 0.12847 0.66742 0.0234 0.0
H994 H 0.1068 0.65132 0.95344 0.0
H995 H 0.10137 0.64534 0.05527 0.0
H996 H 0.06692 0.65108 0.04554 0.0
H997 H 0.07223 0.65703 0.94342 0.0
H998 H 0.07042 0.67697 0.00649 0.0
H999 H 0.14891 0.75138 0.00028 0.0
H1000 H 0.15468 0.75145 0.85879 0.0
H1001 H 0.10933 0.67956 0.85182 0.0
C1002 C 0.10264 0.67845 0.16932 0.0
C1003 C 0.11156 0.69263 0.2346 0.0
C1004 C 0.12507 0.71613 0.22345 0.0
C1005 C 0.1301 0.72531 0.14875 0.0
C1006 C 0.12132 0.71083 0.08571 0.0
C1007 C 0.10772 0.68792 0.09502 0.0
C1008 C 0.10172 0.67598 0.0174 0.0
C1009 C 0.1101 0.65902 0.0121 0.0
C1010 C 0.07631 0.6646 0.00234 0.0
C1011 C 0.11467 0.69569 0.96329 0.0
C1012 C 0.12572 0.71564 0.00397 0.0
C1013 C 0.14006 0.73594 0.96756 0.0
C1014 C 0.14334 0.73581 0.88747 0.0
C1015 C 0.13233 0.71555 0.84474 0.0
C1016 C 0.11754 0.69532 0.88304 0.0
H1017 H 0.42051 0.08037 0.51492 0.0
H1018 H 0.42248 0.14008 0.60775 0.0
H1019 H 0.42383 0.15393 0.47579 0.0
H1020 H 0.45785 0.10649 0.36153 0.0
H1021 H 0.44305 0.08426 0.29214 0.0
H1022 H 0.44059 0.07794 0.39418 0.0
H1023 H 0.39721 0.05916 0.3846 0.0
H1024 H 0.3997 0.06529 0.28224 0.0
H1025 H 0.38491 0.07473 0.34402 0.0
H1026 H 0.42923 0.16351 0.33634 0.0
H1027 H 0.43619 0.16696 0.19468 0.0
H1028 H 0.42773 0.10024 0.18932 0.0
C1029 C 0.42079 0.09613 0.50746 0.0
C1030 C 0.4218 0.10925 0.5721 0.0
C1031 C 0.42235 0.12993 0.55963 0.0
C1032 C 0.42283 0.13787 0.48467 0.0
C1033 C 0.42231 0.12479 0.42245 0.0
C1034 C 0.42101 0.10423 0.43269 0.0
C1035 C 0.4216 0.09402 0.35543 0.0
C1036 C 0.44199 0.09048 0.35057 0.0
C1037 C 0.39953 0.072 0.34073 0.0
C1038 C 0.42406 0.11237 0.3007 0.0
C1039 C 0.4244 0.12994 0.34075 0.0
C1040 C 0.42849 0.14967 0.30395 0.0
C1041 C 0.43249 0.15156 0.22398 0.0
C1042 C 0.43208 0.13373 0.18199 0.0
C1043 C 0.42749 0.11379 0.22048 0.0
H1044 H 0.57921 0.67211 0.14831 0.0
H1045 H 0.61745 0.74467 0.14549 0.0
H1046 H 0.62371 0.74415 0.00445 0.0
H1047 H 0.61076 0.66212 0.98603 0.0
H1048 H 0.5851 0.639 0.94871 0.0
H1049 H 0.58816 0.64486 0.05136 0.0
H1050 H 0.55172 0.64728 0.04975 0.0
H1051 H 0.5487 0.64174 0.94729 0.0
H1052 H 0.54965 0.66669 0.98455 0.0
H1053 H 0.62058 0.73624 0.86385 0.0
H1054 H 0.60786 0.72176 0.73223 0.0
H1055 H 0.57078 0.65393 0.82348 0.0
C1056 C 0.58969 0.68775 0.11811 0.0
C1057 C 0.59822 0.70844 0.15709 0.0
C1058 C 0.61105 0.72873 0.11603 0.0
C1059 C 0.61474 0.72855 0.03627 0.0
C1060 C 0.60538 0.7079 0.99856 0.0
C1061 C 0.59319 0.68782 0.03806 0.0
C1062 C 0.58231 0.66819 0.9823 0.0
C1063 C 0.59218 0.65262 0.99272 0.0
C1064 C 0.55658 0.65523 0.99154 0.0
C1065 C 0.58933 0.68049 0.90542 0.0
C1066 C 0.60309 0.70331 0.91623 0.0
C1067 C 0.61027 0.71835 0.85443 0.0
C1068 C 0.60298 0.70992 0.77962 0.0
C1069 C 0.58842 0.68664 0.76714 0.0
C1070 C 0.58191 0.67178 0.83101 0.0
H1071 H 0.87381 0.55034 0.13689 0.0
H1072 H 0.93736 0.61097 0.09821 0.0
H1073 H 0.93814 0.62169 0.23663 0.0
H1074 H 0.85099 0.57565 0.26606 0.0
H1075 H 0.83641 0.55081 0.32518 0.0
H1076 H 0.84124 0.54833 0.22389 0.0
H1077 H 0.8611 0.52589 0.25984 0.0
H1078 H 0.85633 0.5283 0.36114 0.0
H1079 H 0.88444 0.53791 0.32652 0.0
H1080 H 0.93277 0.62374 0.38262 0.0
H1081 H 0.92008 0.61895 0.51968 0.0
H1082 H 0.8588 0.55825 0.4573 0.0
C1083 C 0.88787 0.56585 0.15794 0.0
C1084 C 0.90571 0.57978 0.10817 0.0
C1085 C 0.92366 0.60016 0.13637 0.0
C1086 C 0.92421 0.60629 0.21452 0.0
C1087 C 0.90639 0.592 0.26261 0.0
C1088 C 0.88839 0.57237 0.23487 0.0
C1089 C 0.87109 0.56009 0.29733 0.0
C1090 C 0.84861 0.55865 0.27688 0.0
C1091 C 0.86808 0.53667 0.31206 0.0
C1092 C 0.88231 0.5756 0.36526 0.0
C1093 C 0.90273 0.59385 0.34453 0.0
C1094 C 0.91664 0.60972 0.39909 0.0
C1095 C 0.90939 0.60686 0.4766 0.0
C1096 C 0.88835 0.58846 0.49833 0.0
C1097 C 0.87469 0.57277 0.44172 0.0
H1098 H 0.3092 0.873 0.47335 0.0
H1099 H 0.33641 0.94505 0.47928 0.0
H1100 H 0.3284 0.94301 0.61936 0.0
H1101 H 0.26447 0.85861 0.62058 0.0
H1102 H 0.2681 0.83657 0.66223 0.0
H1103 H 0.2736 0.84322 0.56055 0.0
H1104 H 0.31375 0.84937 0.57792 0.0
H1105 H 0.3084 0.84278 0.67943 0.0
H1106 H 0.33213 0.86909 0.64967 0.0
H1107 H 0.32043 0.93391 0.75873 0.0
H1108 H 0.31473 0.91879 0.8906 0.0
H1109 H 0.29219 0.85218 0.79733 0.0
C1110 C 0.31301 0.88823 0.50401 0.0
C1111 C 0.32343 0.90919 0.46562 0.0
C1112 C 0.32864 0.92887 0.50781 0.0
C1113 C 0.32396 0.92784 0.58718 0.0
C1114 C 0.314 0.907 0.6236 0.0
C1115 C 0.30858 0.88752 0.58364 0.0
C1116 C 0.2996 0.86756 0.63819 0.0
C1117 C 0.27498 0.85048 0.61925 0.0
C1118 C 0.31436 0.85657 0.63617 0.0
C1119 C 0.30157 0.87906 0.71524 0.0
C1120 C 0.30952 0.90172 0.70507 0.0
C1121 C 0.31384 0.91612 0.76748 0.0
C1122 C 0.31037 0.90726 0.84254 0.0
C1123 C 0.30276 0.88414 0.85498 0.0
C1124 C 0.29796 0.86987 0.79 0.0
H1125 H 0.43119 0.34786 0.86874 0.0
H1126 H 0.40287 0.28062 0.77388 0.0
H1127 H 0.39446 0.26497 0.90553 0.0
H1128 H 0.45918 0.34014 0.02168 0.0
H1129 H 0.45419 0.3567 0.09138 0.0
H1130 H 0.45482 0.36263 0.9895 0.0
H1131 H 0.41506 0.35795 -0.00083 0.0
H1132 H 0.41436 0.35206 0.1014 0.0
H1133 H 0.39231 0.3324 0.03859 0.0
H1134 H 0.39436 0.25685 0.04574 0.0
H1135 H 0.40112 0.25691 0.18671 0.0
H1136 H 0.42875 0.32892 0.19327 0.0
C1137 C 0.42283 0.32983 0.87562 0.0
C1138 C 0.41754 0.31554 0.81048 0.0
C1139 C 0.40668 0.29199 0.82219 0.0
C1140 C 0.40191 0.28289 0.89706 0.0
C1141 C 0.40786 0.29747 0.95989 0.0
C1142 C 0.41787 0.32043 0.95013 0.0
C1143 C 0.42414 0.33246 0.02769 0.0
C1144 C 0.44959 0.34895 0.03283 0.0
C1145 C 0.41066 0.34442 0.04257 0.0
C1146 C 0.41695 0.31273 0.08218 0.0
C1147 C 0.40742 0.29269 0.04178 0.0
C1148 C 0.40133 0.27236 0.07828 0.0
C1149 C 0.40532 0.27254 0.15803 0.0
C1150 C 0.41516 0.29285 0.2004 0.0
C1151 C 0.42065 0.31312 0.16223 0.0
H1152 H 0.14826 0.42656 0.47151 0.0
H1153 H 0.1059 0.45144 0.56232 0.0
H1154 H 0.09539 0.45556 0.42938 0.0
H1155 H 0.16757 0.46299 0.29728 0.0
H1156 H 0.16699 0.44127 0.23713 0.0
H1157 H 0.1728 0.44203 0.33943 0.0
H1158 H 0.13998 0.40115 0.35366 0.0
H1159 H 0.13407 0.40029 0.25162 0.0
H1160 H 0.11226 0.3942 0.32156 0.0
H1161 H 0.08674 0.45379 0.28954 0.0
H1162 H 0.08087 0.44667 0.14867 0.0
H1163 H 0.12953 0.4241 0.14624 0.0
C1164 C 0.13714 0.43328 0.46314 0.0
C1165 C 0.12776 0.4385 0.52712 0.0
C1166 C 0.11296 0.44693 0.51416 0.0
C1167 C 0.10707 0.44956 0.43888 0.0
C1168 C 0.11627 0.44388 0.37713 0.0
C1169 C 0.13108 0.43604 0.38815 0.0
C1170 C 0.13748 0.42993 0.3116 0.0
C1171 C 0.16271 0.44496 0.29542 0.0
C1172 C 0.13052 0.40491 0.30952 0.0
C1173 C 0.12349 0.43505 0.25627 0.0
C1174 C 0.11151 0.44322 0.29542 0.0
C1175 C 0.09625 0.44772 0.25794 0.0
C1176 C 0.09292 0.44352 0.17828 0.0
C1177 C 0.10486 0.43499 0.13716 0.0
C1178 C 0.12059 0.43106 0.17641 0.0
H1179 H 0.67877 0.07675 0.51419 0.0
H1180 H 0.72022 0.14374 0.41865 0.0
H1181 H 0.73027 0.15901 0.54982 0.0
H1182 H 0.65732 0.09053 0.67372 0.0
H1183 H 0.65948 0.07158 0.74082 0.0
H1184 H 0.6563 0.06532 0.63877 0.0
H1185 H 0.69197 0.06212 0.64205 0.0
H1186 H 0.69694 0.06974 0.74319 0.0
H1187 H 0.71828 0.08573 0.67273 0.0
H1188 H 0.73285 0.16796 0.68973 0.0
H1189 H 0.729 0.16937 0.83187 0.0
H1190 H 0.68872 0.09682 0.839 0.0
C1191 C 0.69018 0.09457 0.52042 0.0
C1192 C 0.69815 0.10894 0.45505 0.0
C1193 C 0.71314 0.13224 0.4668 0.0
C1194 C 0.71927 0.14117 0.54147 0.0
C1195 C 0.71078 0.12663 0.60422 0.0
C1196 C 0.69683 0.1038 0.59474 0.0
C1197 C 0.68995 0.09199 0.67253 0.0
C1198 C 0.66424 0.0791 0.68199 0.0
C1199 C 0.69985 0.07645 0.68321 0.0
C1200 C 0.70105 0.11194 0.72686 0.0
C1201 C 0.71325 0.13173 0.68605 0.0
C1202 C 0.7237 0.15257 0.72259 0.0
C1203 C 0.72135 0.15324 0.80301 0.0
C1204 C 0.70875 0.13323 0.84588 0.0
C1205 C 0.69885 0.1123 0.80749 0.0
loop_
_geom_bond_atom_site_label_1
_geom_bond_atom_site_label_2
_geom_bond_distance
_geom_bond_site_symmetry_2
_ccdc_geom_bond_type
C0 C1 1.351 . S
C0 N3 1.368 . S
C0 H5 0.931 . S
C1 C0 1.351 . S
C1 N2 1.373 . S
C1 H29 0.930 . S
N2 C1 1.373 . S
N2 C4 1.340 . S
N3 C0 1.368 . S
N3 C4 1.321 . S
N3 Co6 2.135 . S
C4 N2 1.340 . S
C4 N3 1.321 . S
C4 H28 0.930 . S
H5 C0 0.931 . S
Co6 N3 2.135 . S
Co6 N9 2.121 . S
Co6 O14 2.055 . S
Co6 O17 2.039 . S
Co6 N20 2.140 . S
C7 O8 1.227 . S
C7 O17 1.265 . S
O8 C7 1.227 . S
N9 Co6 2.121 . S
N9 C11 1.375 . S
N9 C12 1.313 . S
C10 C11 1.338 . S
C10 N13 1.377 1_554 S
C10 H30 0.930 1_554 S
C11 N9 1.375 . S
C11 C10 1.338 . S
C11 H15 0.931 . S
C12 N9 1.313 . S
C12 N13 1.344 1_554 S
C12 H16 0.930 . S
N13 C10 1.377 1_556 S
N13 C12 1.344 1_556 S
O14 Co6 2.055 . S
O14 C18 1.253 . S
H15 C11 0.931 . S
H16 C12 0.930 . S
O17 Co6 2.039 . S
O17 C7 1.265 . S
C18 O14 1.253 . S
C18 O19 1.227 . S
O19 C18 1.227 . S
N20 Co6 2.140 . S
N20 C23 1.346 . S
N20 C24 1.345 . S
C21 C22 1.387 . S
C21 C25 1.391 . S
C22 C21 1.387 . S
C22 C23 1.369 . S
C22 H31 0.929 . S
C23 N20 1.346 . S
C23 C22 1.369 . S
C23 H26 0.928 . S
C24 N20 1.345 . S
C24 C25 1.371 . S
C24 H27 0.931 . S
C25 C21 1.391 . S
C25 C24 1.371 . S
C25 H32 0.930 . S
H26 C23 0.928 . S
H27 C24 0.931 . S
H28 C4 0.930 . S
H29 C1 0.930 . S
H30 C10 0.930 1_556 S
H31 C22 0.929 . S
H32 C25 0.930 . S
C33 C34 1.351 . S
C33 N36 1.368 . S
C33 H38 0.931 . S
C34 C33 1.351 . S
C34 N35 1.373 . S
C34 H62 0.930 . S
N35 C34 1.373 . S
N35 C37 1.340 . S
N36 C33 1.368 . S
N36 C37 1.321 . S
N36 Co39 2.135 . S
C37 N35 1.340 . S
C37 N36 1.321 . S
C37 H61 0.930 . S
H38 C33 0.931 . S
Co39 N36 2.135 . S
Co39 N42 2.121 . S
Co39 O47 2.055 . S
Co39 O50 2.039 . S
Co39 N53 2.140 . S
C40 O41 1.227 . S
C40 O50 1.265 . S
O41 C40 1.227 . S
N42 Co39 2.121 . S
N42 C44 1.375 . S
N42 C45 1.313 . S
C43 C44 1.338 . S
C43 N46 1.377 . S
C43 H63 0.930 . S
C44 N42 1.375 . S
C44 C43 1.338 . S
C44 H48 0.931 . S
C45 N42 1.313 . S
C45 N46 1.344 . S
C45 H49 0.930 . S
N46 C43 1.377 . S
N46 C45 1.344 . S
O47 Co39 2.055 . S
O47 C51 1.253 . S
H48 C44 0.931 . S
H49 C45 0.930 . S
O50 Co39 2.039 . S
O50 C40 1.265 . S
C51 O47 1.253 . S
C51 O52 1.227 . S
O52 C51 1.227 . S
N53 Co39 2.140 . S
N53 C56 1.346 . S
N53 C57 1.345 . S
C54 C55 1.387 . S
C54 C58 1.391 . S
C55 C54 1.387 . S
C55 C56 1.369 . S
C55 H64 0.929 . S
C56 N53 1.346 . S
C56 C55 1.369 . S
C56 H59 0.928 . S
C57 N53 1.345 . S
C57 C58 1.371 . S
C57 H60 0.931 . S
C58 C54 1.391 . S
C58 C57 1.371 . S
C58 H65 0.930 . S
H59 C56 0.928 . S
H60 C57 0.931 . S
H61 C37 0.930 . S
H62 C34 0.930 . S
H63 C43 0.930 . S
H64 C55 0.929 . S
H65 C58 0.930 . S
C66 C67 1.351 . S
C66 N69 1.368 . S
C66 H71 0.931 . S
C67 C66 1.351 . S
C67 N68 1.373 . S
C67 H95 0.930 . S
N68 C67 1.373 . S
N68 C70 1.340 . S
N69 C66 1.368 . S
N69 C70 1.321 . S
N69 Co72 2.135 1_554 S
C70 N68 1.340 . S
C70 N69 1.321 . S
C70 H94 0.930 . S
H71 C66 0.931 . S
Co72 N69 2.135 1_556 S
Co72 N75 2.121 . S
Co72 O80 2.055 . S
Co72 O83 2.039 . S
Co72 N86 2.140 . S
C73 O74 1.227 . S
C73 O83 1.265 . S
O74 C73 1.227 . S
N75 Co72 2.121 . S
N75 C77 1.375 . S
N75 C78 1.313 . S
C76 C77 1.338 . S
C76 N79 1.377 . S
C76 H96 0.930 . S
C77 N75 1.375 . S
C77 C76 1.338 . S
C77 H81 0.931 . S
C78 N75 1.313 . S
C78 N79 1.344 . S
C78 H82 0.930 . S
N79 C76 1.377 . S
N79 C78 1.344 . S
O80 Co72 2.055 . S
O80 C84 1.253 . S
H81 C77 0.931 . S
H82 C78 0.930 . S
O83 Co72 2.039 . S
O83 C73 1.265 . S
C84 O80 1.253 . S
C84 O85 1.227 . S
O85 C84 1.227 . S
N86 Co72 2.140 . S
N86 C89 1.346 . S
N86 C90 1.345 . S
C87 C88 1.387 . S
C87 C91 1.391 . S
C88 C87 1.387 . S
C88 C89 1.369 . S
C88 H97 0.929 1_556 S
C89 N86 1.346 . S
C89 C88 1.369 . S
C89 H92 0.928 1_556 S
C90 N86 1.345 . S
C90 C91 1.371 . S
C90 H93 0.931 . S
C91 C87 1.391 . S
C91 C90 1.371 . S
C91 H98 0.930 . S
H92 C89 0.928 1_554 S
H93 C90 0.931 . S
H94 C70 0.930 . S
H95 C67 0.930 . S
H96 C76 0.930 . S
H97 C88 0.929 1_554 S
H98 C91 0.930 . S
C99 C100 1.351 . S
C99 N102 1.368 . S
C99 H104 0.931 . S
C100 C99 1.351 . S
C100 N101 1.373 . S
C100 H128 0.930 . S
N101 C100 1.373 . S
N101 C103 1.340 . S
N102 C99 1.368 . S
N102 C103 1.321 . S
N102 Co105 2.135 . S
C103 N101 1.340 . S
C103 N102 1.321 . S
C103 H127 0.930 . S
H104 C99 0.931 . S
Co105 N102 2.135 . S
Co105 N108 2.121 . S
Co105 O113 2.055 . S
Co105 O116 2.039 . S
Co105 N119 2.140 . S
C106 O107 1.227 . S
C106 O116 1.265 . S
O107 C106 1.227 . S
N108 Co105 2.121 . S
N108 C110 1.375 . S
N108 C111 1.313 . S
C109 C110 1.338 . S
C109 N112 1.377 1_554 S
C109 H129 0.930 1_554 S
C110 N108 1.375 . S
C110 C109 1.338 . S
C110 H114 0.931 . S
C111 N108 1.313 . S
C111 N112 1.344 1_554 S
C111 H115 0.930 . S
N112 C109 1.377 1_556 S
N112 C111 1.344 1_556 S
O113 Co105 2.055 . S
O113 C117 1.253 . S
H114 C110 0.931 . S
H115 C111 0.930 . S
O116 Co105 2.039 . S
O116 C106 1.265 . S
C117 O113 1.253 . S
C117 O118 1.227 . S
O118 C117 1.227 . S
N119 Co105 2.140 . S
N119 C122 1.346 . S
N119 C123 1.345 . S
C120 C121 1.387 . S
C120 C124 1.391 . S
C121 C120 1.387 . S
C121 C122 1.369 . S
C121 H130 0.929 . S
C122 N119 1.346 . S
C122 C121 1.369 . S
C122 H125 0.928 . S
C123 N119 1.345 . S
C123 C124 1.371 . S
C123 H126 0.931 . S
C124 C120 1.391 . S
C124 C123 1.371 . S
C124 H131 0.930 . S
H125 C122 0.928 . S
H126 C123 0.931 . S
H127 C103 0.930 . S
H128 C100 0.930 . S
H129 C109 0.930 1_556 S
H130 C121 0.929 . S
H131 C124 0.930 . S
C132 C133 1.351 . S
C132 N135 1.368 . S
C132 H137 0.931 . S
C133 C132 1.351 . S
C133 N134 1.373 . S
C133 H161 0.930 . S
N134 C133 1.373 . S
N134 C136 1.340 . S
N135 C132 1.368 . S
N135 C136 1.321 . S
N135 Co138 2.135 . S
C136 N134 1.340 . S
C136 N135 1.321 . S
C136 H160 0.930 . S
H137 C132 0.931 . S
Co138 N135 2.135 . S
Co138 N141 2.121 . S
Co138 O146 2.055 . S
Co138 O149 2.039 . S
Co138 N152 2.140 . S
C139 O140 1.227 . S
C139 O149 1.265 . S
O140 C139 1.227 . S
N141 Co138 2.121 . S
N141 C143 1.375 . S
N141 C144 1.313 . S
C142 C143 1.338 . S
C142 N145 1.377 . S
C142 H162 0.930 . S
C143 N141 1.375 . S
C143 C142 1.338 . S
C143 H147 0.931 . S
C144 N141 1.313 . S
C144 N145 1.344 . S
C144 H148 0.930 . S
N145 C142 1.377 . S
N145 C144 1.344 . S
O146 Co138 2.055 . S
O146 C150 1.253 . S
H147 C143 0.931 . S
H148 C144 0.930 . S
O149 Co138 2.039 . S
O149 C139 1.265 . S
C150 O146 1.253 . S
C150 O151 1.227 . S
O151 C150 1.227 . S
N152 Co138 2.140 . S
N152 C155 1.346 . S
N152 C156 1.345 . S
C153 C154 1.387 . S
C153 C157 1.391 . S
C154 C153 1.387 . S
C154 C155 1.369 . S
C154 H163 0.929 . S
C155 N152 1.346 . S
C155 C154 1.369 . S
C155 H158 0.928 . S
C156 N152 1.345 . S
C156 C157 1.371 . S
C156 H159 0.931 . S
C157 C153 1.391 . S
C157 C156 1.371 . S
C157 H164 0.930 . S
H158 C155 0.928 . S
H159 C156 0.931 . S
H160 C136 0.930 . S
H161 C133 0.930 . S
H162 C142 0.930 . S
H163 C154 0.929 . S
H164 C157 0.930 . S
C165 C166 1.351 . S
C165 N168 1.368 . S
C165 H170 0.931 . S
C166 C165 1.351 . S
C166 N167 1.373 . S
C166 H194 0.930 . S
N167 C166 1.373 . S
N167 C169 1.340 . S
N168 C165 1.368 . S
N168 C169 1.321 . S
N168 Co171 2.135 1_554 S
C169 N167 1.340 . S
C169 N168 1.321 . S
C169 H193 0.930 . S
H170 C165 0.931 . S
Co171 N168 2.135 1_556 S
Co171 N174 2.121 . S
Co171 O179 2.055 . S
Co171 O182 2.039 . S
Co171 N185 2.140 . S
C172 O173 1.227 . S
C172 O182 1.265 . S
O173 C172 1.227 . S
N174 Co171 2.121 . S
N174 C176 1.375 . S
N174 C177 1.313 . S
C175 C176 1.338 . S
C175 N178 1.377 . S
C175 H195 0.930 . S
C176 N174 1.375 . S
C176 C175 1.338 . S
C176 H180 0.931 . S
C177 N174 1.313 . S
C177 N178 1.344 . S
C177 H181 0.930 . S
N178 C175 1.377 . S
N178 C177 1.344 . S
O179 Co171 2.055 . S
O179 C183 1.253 . S
H180 C176 0.931 . S
H181 C177 0.930 . S
O182 Co171 2.039 . S
O182 C172 1.265 . S
C183 O179 1.253 . S
C183 O184 1.227 . S
O184 C183 1.227 . S
N185 Co171 2.140 . S
N185 C188 1.346 . S
N185 C189 1.345 . S
C186 C187 1.387 . S
C186 C190 1.391 . S
C187 C186 1.387 . S
C187 C188 1.369 . S
C187 H196 0.929 1_556 S
C188 N185 1.346 . S
C188 C187 1.369 . S
C188 H191 0.928 1_556 S
C189 N185 1.345 . S
C189 C190 1.371 . S
C189 H192 0.931 . S
C190 C186 1.391 . S
C190 C189 1.371 . S
C190 H197 0.930 . S
H191 C188 0.928 1_554 S
H192 C189 0.931 . S
H193 C169 0.930 . S
H194 C166 0.930 . S
H195 C175 0.930 . S
H196 C187 0.929 1_554 S
H197 C190 0.930 . S
C198 C199 1.351 . S
C198 N201 1.368 . S
C198 H203 0.931 . S
C199 C198 1.351 . S
C199 N200 1.373 . S
C199 H227 0.930 . S
N200 C199 1.373 . S
N200 C202 1.340 . S
N201 C198 1.368 . S
N201 C202 1.321 . S
N201 Co204 2.135 . S
C202 N200 1.340 . S
C202 N201 1.321 . S
C202 H226 0.930 . S
H203 C198 0.931 . S
Co204 N201 2.135 . S
Co204 N207 2.121 . S
Co204 O212 2.055 . S
Co204 O215 2.039 . S
Co204 N218 2.140 . S
C205 O206 1.227 . S
C205 O215 1.265 . S
O206 C205 1.227 . S
N207 Co204 2.121 . S
N207 C209 1.375 . S
N207 C210 1.313 . S
C208 C209 1.338 . S
C208 N211 1.377 . S
C208 H228 0.930 . S
C209 N207 1.375 . S
C209 C208 1.338 . S
C209 H213 0.931 . S
C210 N207 1.313 . S
C210 N211 1.344 . S
C210 H214 0.930 . S
N211 C208 1.377 . S
N211 C210 1.344 . S
O212 Co204 2.055 . S
O212 C216 1.253 . S
H213 C209 0.931 . S
H214 C210 0.930 . S
O215 Co204 2.039 . S
O215 C205 1.265 . S
C216 O212 1.253 . S
C216 O217 1.227 . S
O217 C216 1.227 . S
N218 Co204 2.140 . S
N218 C221 1.346 . S
N218 C222 1.345 . S
C219 C220 1.387 . S
C219 C223 1.391 . S
C220 C219 1.387 . S
C220 C221 1.369 . S
C220 H229 0.929 . S
C221 N218 1.346 . S
C221 C220 1.369 . S
C221 H224 0.928 . S
C222 N218 1.345 . S
C222 C223 1.371 . S
C222 H225 0.931 . S
C223 C219 1.391 . S
C223 C222 1.371 . S
C223 H230 0.930 . S
H224 C221 0.928 . S
H225 C222 0.931 . S
H226 C202 0.930 . S
H227 C199 0.930 . S
H228 C208 0.930 . S
H229 C220 0.929 . S
H230 C223 0.930 . S
C231 C232 1.351 . S
C231 N234 1.368 . S
C231 H236 0.931 . S
C232 C231 1.351 . S
C232 N233 1.373 . S
C232 H260 0.930 . S
N233 C232 1.373 . S
N233 C235 1.340 . S
N234 C231 1.368 . S
N234 C235 1.321 . S
N234 Co237 2.135 . S
C235 N233 1.340 . S
C235 N234 1.321 . S
C235 H259 0.930 . S
H236 C231 0.931 . S
Co237 N234 2.135 . S
Co237 N240 2.121 . S
Co237 O245 2.055 . S
Co237 O248 2.039 . S
Co237 N251 2.140 . S
C238 O239 1.227 . S
C238 O248 1.265 . S
O239 C238 1.227 . S
N240 Co237 2.121 . S
N240 C242 1.375 . S
N240 C243 1.313 . S
C241 C242 1.338 . S
C241 N244 1.377 1_556 S
C241 H261 0.930 1_556 S
C242 N240 1.375 . S
C242 C241 1.338 . S
C242 H246 0.931 . S
C243 N240 1.313 . S
C243 N244 1.344 1_556 S
C243 H247 0.930 . S
N244 C241 1.377 1_554 S
N244 C243 1.344 1_554 S
O245 Co237 2.055 . S
O245 C249 1.253 . S
H246 C242 0.931 . S
H247 C243 0.930 . S
O248 Co237 2.039 . S
O248 C238 1.265 . S
C249 O245 1.253 . S
C249 O250 1.227 . S
O250 C249 1.227 . S
N251 Co237 2.140 . S
N251 C254 1.346 . S
N251 C255 1.345 . S
C252 C253 1.387 . S
C252 C256 1.391 . S
C253 C252 1.387 . S
C253 C254 1.369 . S
C253 H262 0.929 . S
C254 N251 1.346 . S
C254 C253 1.369 . S
C254 H257 0.928 . S
C255 N251 1.345 . S
C255 C256 1.371 . S
C255 H258 0.931 . S
C256 C252 1.391 . S
C256 C255 1.371 . S
C256 H263 0.930 . S
H257 C254 0.928 . S
H258 C255 0.931 . S
H259 C235 0.930 . S
H260 C232 0.930 . S
H261 C241 0.930 1_554 S
H262 C253 0.929 . S
H263 C256 0.930 . S
C264 C265 1.351 . S
C264 N267 1.368 . S
C264 H269 0.931 . S
C265 C264 1.351 . S
C265 N266 1.373 . S
C265 H293 0.930 . S
N266 C265 1.373 . S
N266 C268 1.340 . S
N267 C264 1.368 . S
N267 C268 1.321 . S
N267 Co270 2.135 1_556 S
C268 N266 1.340 . S
C268 N267 1.321 . S
C268 H292 0.930 . S
H269 C264 0.931 . S
Co270 N267 2.135 1_554 S
Co270 N273 2.121 . S
Co270 O278 2.055 . S
Co270 O281 2.039 . S
Co270 N284 2.140 . S
C271 O272 1.227 . S
C271 O281 1.265 . S
O272 C271 1.227 . S
N273 Co270 2.121 . S
N273 C275 1.375 . S
N273 C276 1.313 . S
C274 C275 1.338 . S
C274 N277 1.377 . S
C274 H294 0.930 . S
C275 N273 1.375 . S
C275 C274 1.338 . S
C275 H279 0.931 . S
C276 N273 1.313 . S
C276 N277 1.344 . S
C276 H280 0.930 . S
N277 C274 1.377 . S
N277 C276 1.344 . S
O278 Co270 2.055 . S
O278 C282 1.253 . S
H279 C275 0.931 . S
H280 C276 0.930 . S
O281 Co270 2.039 . S
O281 C271 1.265 . S
C282 O278 1.253 . S
C282 O283 1.227 . S
O283 C282 1.227 . S
N284 Co270 2.140 . S
N284 C287 1.346 . S
N284 C288 1.345 . S
C285 C286 1.387 . S
C285 C289 1.391 . S
C286 C285 1.387 . S
C286 C287 1.369 . S
C286 H295 0.929 1_554 S
C287 N284 1.346 . S
C287 C286 1.369 . S
C287 H290 0.928 1_554 S
C288 N284 1.345 . S
C288 C289 1.371 . S
C288 H291 0.931 . S
C289 C285 1.391 . S
C289 C288 1.371 . S
C289 H296 0.930 . S
H290 C287 0.928 1_556 S
H291 C288 0.931 . S
H292 C268 0.930 . S
H293 C265 0.930 . S
H294 C274 0.930 . S
H295 C286 0.929 1_556 S
H296 C289 0.930 . S
C297 C298 1.351 . S
C297 N300 1.368 . S
C297 H302 0.931 . S
C298 C297 1.351 . S
C298 N299 1.373 . S
C298 H326 0.930 . S
N299 C298 1.373 . S
N299 C301 1.340 . S
N300 C297 1.368 . S
N300 C301 1.321 . S
N300 Co303 2.135 . S
C301 N299 1.340 . S
C301 N300 1.321 . S
C301 H325 0.930 . S
H302 C297 0.931 . S
Co303 N300 2.135 . S
Co303 N306 2.121 . S
Co303 O311 2.055 . S
Co303 O314 2.039 . S
Co303 N317 2.140 . S
C304 O305 1.227 . S
C304 O314 1.265 . S
O305 C304 1.227 . S
N306 Co303 2.121 . S
N306 C308 1.375 . S
N306 C309 1.313 . S
C307 C308 1.338 . S
C307 N310 1.377 . S
C307 H327 0.930 . S
C308 N306 1.375 . S
C308 C307 1.338 . S
C308 H312 0.931 . S
C309 N306 1.313 . S
C309 N310 1.344 . S
C309 H313 0.930 . S
N310 C307 1.377 . S
N310 C309 1.344 . S
O311 Co303 2.055 . S
O311 C315 1.253 . S
H312 C308 0.931 . S
H313 C309 0.930 . S
O314 Co303 2.039 . S
O314 C304 1.265 . S
C315 O311 1.253 . S
C315 O316 1.227 . S
O316 C315 1.227 . S
N317 Co303 2.140 . S
N317 C320 1.346 . S
N317 C321 1.345 . S
C318 C319 1.387 . S
C318 C322 1.391 . S
C319 C318 1.387 . S
C319 C320 1.369 . S
C319 H328 0.929 . S
C320 N317 1.346 . S
C320 C319 1.369 . S
C320 H323 0.928 . S
C321 N317 1.345 . S
C321 C322 1.371 . S
C321 H324 0.931 . S
C322 C318 1.391 . S
C322 C321 1.371 . S
C322 H329 0.930 . S
H323 C320 0.928 . S
H324 C321 0.931 . S
H325 C301 0.930 . S
H326 C298 0.930 . S
H327 C307 0.930 . S
H328 C319 0.929 . S
H329 C322 0.930 . S
C330 C331 1.351 . S
C330 N333 1.368 . S
C330 H335 0.931 . S
C331 C330 1.351 . S
C331 N332 1.373 . S
C331 H359 0.930 . S
N332 C331 1.373 . S
N332 C334 1.340 . S
N333 C330 1.368 . S
N333 C334 1.321 . S
N333 Co336 2.135 . S
C334 N332 1.340 . S
C334 N333 1.321 . S
C334 H358 0.930 . S
H335 C330 0.931 . S
Co336 N333 2.135 . S
Co336 N339 2.121 . S
Co336 O344 2.055 . S
Co336 O347 2.039 . S
Co336 N350 2.140 . S
C337 O338 1.227 . S
C337 O347 1.265 . S
O338 C337 1.227 . S
N339 Co336 2.121 . S
N339 C341 1.375 . S
N339 C342 1.313 . S
C340 C341 1.338 . S
C340 N343 1.377 1_556 S
C340 H360 0.930 1_556 S
C341 N339 1.375 . S
C341 C340 1.338 . S
C341 H345 0.931 . S
C342 N339 1.313 . S
C342 N343 1.344 1_556 S
C342 H346 0.930 . S
N343 C340 1.377 1_554 S
N343 C342 1.344 1_554 S
O344 Co336 2.055 . S
O344 C348 1.253 . S
H345 C341 0.931 . S
H346 C342 0.930 . S
O347 Co336 2.039 . S
O347 C337 1.265 . S
C348 O344 1.253 . S
C348 O349 1.227 . S
O349 C348 1.227 . S
N350 Co336 2.140 . S
N350 C353 1.346 . S
N350 C354 1.345 . S
C351 C352 1.387 . S
C351 C355 1.391 . S
C352 C351 1.387 . S
C352 C353 1.369 . S
C352 H361 0.929 . S
C353 N350 1.346 . S
C353 C352 1.369 . S
C353 H356 0.928 . S
C354 N350 1.345 . S
C354 C355 1.371 . S
C354 H357 0.931 . S
C355 C351 1.391 . S
C355 C354 1.371 . S
C355 H362 0.930 . S
H356 C353 0.928 . S
H357 C354 0.931 . S
H358 C334 0.930 . S
H359 C331 0.930 . S
H360 C340 0.930 1_554 S
H361 C352 0.929 . S
H362 C355 0.930 . S
C363 C364 1.351 . S
C363 N366 1.368 . S
C363 H368 0.931 . S
C364 C363 1.351 . S
C364 N365 1.373 . S
C364 H392 0.930 . S
N365 C364 1.373 . S
N365 C367 1.340 . S
N366 C363 1.368 . S
N366 C367 1.321 . S
N366 Co369 2.135 1_556 S
C367 N365 1.340 . S
C367 N366 1.321 . S
C367 H391 0.930 . S
H368 C363 0.931 . S
Co369 N366 2.135 1_554 S
Co369 N372 2.121 . S
Co369 O377 2.055 . S
Co369 O380 2.039 . S
Co369 N383 2.140 . S
C370 O371 1.227 . S
C370 O380 1.265 . S
O371 C370 1.227 . S
N372 Co369 2.121 . S
N372 C374 1.375 . S
N372 C375 1.313 . S
C373 C374 1.338 . S
C373 N376 1.377 . S
C373 H393 0.930 . S
C374 N372 1.375 . S
C374 C373 1.338 . S
C374 H378 0.931 . S
C375 N372 1.313 . S
C375 N376 1.344 . S
C375 H379 0.930 . S
N376 C373 1.377 . S
N376 C375 1.344 . S
O377 Co369 2.055 . S
O377 C381 1.253 . S
H378 C374 0.931 . S
H379 C375 0.930 . S
O380 Co369 2.039 . S
O380 C370 1.265 . S
C381 O377 1.253 . S
C381 O382 1.227 . S
O382 C381 1.227 . S
N383 Co369 2.140 . S
N383 C386 1.346 . S
N383 C387 1.345 . S
C384 C385 1.387 . S
C384 C388 1.391 . S
C385 C384 1.387 . S
C385 C386 1.369 . S
C385 H394 0.929 1_554 S
C386 N383 1.346 . S
C386 C385 1.369 . S
C386 H389 0.928 1_554 S
C387 N383 1.345 . S
C387 C388 1.371 . S
C387 H390 0.931 . S
C388 C384 1.391 . S
C388 C387 1.371 . S
C388 H395 0.930 . S
H389 C386 0.928 1_556 S
H390 C387 0.931 . S
H391 C367 0.930 . S
H392 C364 0.930 . S
H393 C373 0.930 . S
H394 C385 0.929 1_556 S
H395 C388 0.930 . S
H396 C408 0.930 . S
H397 C410 0.930 . S
H398 C411 0.930 . S
H399 C415 0.959 . S
H400 C415 0.959 . S
H401 C415 0.961 . S
H402 C416 0.960 . S
H403 C416 0.961 . S
H404 C416 0.959 . S
H405 C419 0.929 1_554 S
H406 C420 0.931 . S
H407 C422 0.930 . S
C408 H396 0.930 . S
C408 C409 1.399 . S
C408 C413 1.399 . S
C409 C408 1.399 . S
C409 C410 1.376 . S
C410 H397 0.930 . S
C410 C409 1.376 . S
C410 C411 1.388 . S
C411 H398 0.930 . S
C411 C410 1.388 . S
C411 C412 1.390 . S
C412 C411 1.390 . S
C412 C413 1.394 . S
C412 C418 1.465 1_554 S
C413 C408 1.399 . S
C413 C412 1.394 . S
C413 C414 1.516 1_554 S
C414 C413 1.516 1_556 S
C414 C415 1.502 . S
C414 C416 1.561 . S
C414 C417 1.526 . S
C415 H399 0.959 . S
C415 H400 0.959 . S
C415 H401 0.961 . S
C415 C414 1.502 . S
C416 H402 0.960 . S
C416 H403 0.961 . S
C416 H404 0.959 . S
C416 C414 1.561 . S
C417 C414 1.526 . S
C417 C418 1.396 . S
C417 C422 1.390 . S
C418 C412 1.465 1_556 S
C418 C417 1.396 . S
C418 C419 1.399 . S
C419 H405 0.929 1_556 S
C419 C418 1.399 . S
C419 C420 1.385 . S
C420 H406 0.931 . S
C420 C419 1.385 . S
C420 C421 1.389 . S
C421 C420 1.389 . S
C421 C422 1.387 . S
C422 H407 0.930 . S
C422 C417 1.390 . S
C422 C421 1.387 . S
H423 C435 0.930 . S
H424 C437 0.930 . S
H425 C438 0.930 . S
H426 C442 0.959 . S
H427 C442 0.959 . S
H428 C442 0.961 . S
H429 C443 0.960 . S
H430 C443 0.961 . S
H431 C443 0.959 . S
H432 C446 0.929 . S
H433 C447 0.931 . S
H434 C449 0.930 . S
C435 H423 0.930 . S
C435 C436 1.399 . S
C435 C440 1.399 . S
C436 C435 1.399 . S
C436 C437 1.376 . S
C437 H424 0.930 . S
C437 C436 1.376 . S
C437 C438 1.388 . S
C438 H425 0.930 . S
C438 C437 1.388 . S
C438 C439 1.390 . S
C439 C438 1.390 . S
C439 C440 1.394 . S
C439 C445 1.465 . S
C440 C435 1.399 . S
C440 C439 1.394 . S
C440 C441 1.516 . S
C441 C440 1.516 . S
C441 C442 1.502 . S
C441 C443 1.561 . S
C441 C444 1.526 . S
C442 H426 0.959 . S
C442 H427 0.959 . S
C442 H428 0.961 . S
C442 C441 1.502 . S
C443 H429 0.960 . S
C443 H430 0.961 . S
C443 H431 0.959 . S
C443 C441 1.561 . S
C444 C441 1.526 . S
C444 C445 1.396 . S
C444 C449 1.390 . S
C445 C439 1.465 . S
C445 C444 1.396 . S
C445 C446 1.399 . S
C446 H432 0.929 . S
C446 C445 1.399 . S
C446 C447 1.385 . S
C447 H433 0.931 . S
C447 C446 1.385 . S
C447 C448 1.389 . S
C448 C447 1.389 . S
C448 C449 1.387 . S
C449 H434 0.930 . S
C449 C444 1.390 . S
C449 C448 1.387 . S
H450 C462 0.930 . S
H451 C464 0.930 . S
H452 C465 0.930 . S
H453 C469 0.959 . S
H454 C469 0.959 . S
H455 C469 0.961 . S
H456 C470 0.960 . S
H457 C470 0.961 . S
H458 C470 0.959 . S
H459 C473 0.929 . S
H460 C474 0.931 . S
H461 C476 0.930 . S
C462 H450 0.930 . S
C462 C463 1.399 . S
C462 C467 1.399 . S
C463 C462 1.399 . S
C463 C464 1.376 . S
C464 H451 0.930 . S
C464 C463 1.376 . S
C464 C465 1.388 . S
C465 H452 0.930 . S
C465 C464 1.388 . S
C465 C466 1.390 . S
C466 C465 1.390 . S
C466 C467 1.394 . S
C466 C472 1.465 . S
C467 C462 1.399 . S
C467 C466 1.394 . S
C467 C468 1.516 . S
C468 C467 1.516 . S
C468 C469 1.502 . S
C468 C470 1.561 . S
C468 C471 1.526 . S
C469 H453 0.959 . S
C469 H454 0.959 . S
C469 H455 0.961 . S
C469 C468 1.502 . S
C470 H456 0.960 . S
C470 H457 0.961 . S
C470 H458 0.959 . S
C470 C468 1.561 . S
C471 C468 1.526 . S
C471 C472 1.396 . S
C471 C476 1.390 . S
C472 C466 1.465 . S
C472 C471 1.396 . S
C472 C473 1.399 . S
C473 H459 0.929 . S
C473 C472 1.399 . S
C473 C474 1.385 . S
C474 H460 0.931 . S
C474 C473 1.385 . S
C474 C475 1.389 . S
C475 C474 1.389 . S
C475 C476 1.387 . S
C476 H461 0.930 . S
C476 C471 1.390 . S
C476 C475 1.387 . S
H477 C489 0.930 . S
H478 C491 0.930 . S
H479 C492 0.930 . S
H480 C496 0.959 . S
H481 C496 0.959 . S
H482 C496 0.961 . S
H483 C497 0.960 1_556 S
H484 C497 0.961 . S
H485 C497 0.959 . S
H486 C500 0.929 . S
H487 C501 0.931 . S
H488 C503 0.930 . S
C489 H477 0.930 . S
C489 C490 1.399 . S
C489 C494 1.399 . S
C490 C489 1.399 . S
C490 C491 1.376 . S
C491 H478 0.930 . S
C491 C490 1.376 . S
C491 C492 1.388 . S
C492 H479 0.930 . S
C492 C491 1.388 . S
C492 C493 1.390 . S
C493 C492 1.390 . S
C493 C494 1.394 . S
C493 C499 1.465 1_556 S
C494 C489 1.399 . S
C494 C493 1.394 . S
C494 C495 1.516 . S
C495 C494 1.516 . S
C495 C496 1.502 . S
C495 C497 1.561 1_556 S
C495 C498 1.526 1_556 S
C496 H480 0.959 . S
C496 H481 0.959 . S
C496 H482 0.961 . S
C496 C495 1.502 . S
C497 H483 0.960 1_554 S
C497 H484 0.961 . S
C497 H485 0.959 . S
C497 C495 1.561 1_554 S
C498 C495 1.526 1_554 S
C498 C499 1.396 . S
C498 C503 1.390 . S
C499 C493 1.465 1_554 S
C499 C498 1.396 . S
C499 C500 1.399 . S
C500 H486 0.929 . S
C500 C499 1.399 . S
C500 C501 1.385 . S
C501 H487 0.931 . S
C501 C500 1.385 . S
C501 C502 1.389 . S
C502 C501 1.389 . S
C502 C503 1.387 . S
C503 H488 0.930 . S
C503 C498 1.390 . S
C503 C502 1.387 . S
H504 C516 0.930 . S
H505 C518 0.930 . S
H506 C519 0.930 . S
H507 C523 0.959 . S
H508 C523 0.959 . S
H509 C523 0.961 . S
H510 C524 0.960 . S
H511 C524 0.961 . S
H512 C524 0.959 . S
H513 C527 0.929 . S
H514 C528 0.931 . S
H515 C530 0.930 . S
C516 H504 0.930 . S
C516 C517 1.399 . S
C516 C521 1.399 . S
C517 C516 1.399 . S
C517 C518 1.376 . S
C518 H505 0.930 . S
C518 C517 1.376 . S
C518 C519 1.388 . S
C519 H506 0.930 . S
C519 C518 1.388 . S
C519 C520 1.390 . S
C520 C519 1.390 . S
C520 C521 1.394 . S
C520 C526 1.465 . S
C521 C516 1.399 . S
C521 C520 1.394 . S
C521 C522 1.516 . S
C522 C521 1.516 . S
C522 C523 1.502 . S
C522 C524 1.561 . S
C522 C525 1.526 . S
C523 H507 0.959 . S
C523 H508 0.959 . S
C523 H509 0.961 . S
C523 C522 1.502 . S
C524 H510 0.960 . S
C524 H511 0.961 . S
C524 H512 0.959 . S
C524 C522 1.561 . S
C525 C522 1.526 . S
C525 C526 1.396 . S
C525 C530 1.390 . S
C526 C520 1.465 . S
C526 C525 1.396 . S
C526 C527 1.399 . S
C527 H513 0.929 . S
C527 C526 1.399 . S
C527 C528 1.385 . S
C528 H514 0.931 . S
C528 C527 1.385 . S
C528 C529 1.389 . S
C529 C528 1.389 . S
C529 C530 1.387 . S
C530 H515 0.930 . S
C530 C525 1.390 . S
C530 C529 1.387 . S
H531 C543 0.930 . S
H532 C545 0.930 . S
H533 C546 0.930 . S
H534 C550 0.959 . S
H535 C550 0.959 . S
H536 C550 0.961 . S
H537 C551 0.960 . S
H538 C551 0.961 . S
H539 C551 0.959 . S
H540 C554 0.929 . S
H541 C555 0.931 . S
H542 C557 0.930 . S
C543 H531 0.930 . S
C543 C544 1.399 . S
C543 C548 1.399 . S
C544 C543 1.399 . S
C544 C545 1.376 . S
C545 H532 0.930 . S
C545 C544 1.376 . S
C545 C546 1.388 . S
C546 H533 0.930 . S
C546 C545 1.388 . S
C546 C547 1.390 . S
C547 C546 1.390 . S
C547 C548 1.394 . S
C547 C553 1.465 . S
C548 C543 1.399 . S
C548 C547 1.394 . S
C548 C549 1.516 . S
C549 C548 1.516 . S
C549 C550 1.502 . S
C549 C551 1.561 . S
C549 C552 1.526 . S
C550 H534 0.959 . S
C550 H535 0.959 . S
C550 H536 0.961 . S
C550 C549 1.502 . S
C551 H537 0.960 . S
C551 H538 0.961 . S
C551 H539 0.959 . S
C551 C549 1.561 . S
C552 C549 1.526 . S
C552 C553 1.396 . S
C552 C557 1.390 . S
C553 C547 1.465 . S
C553 C552 1.396 . S
C553 C554 1.399 . S
C554 H540 0.929 . S
C554 C553 1.399 . S
C554 C555 1.385 . S
C555 H541 0.931 . S
C555 C554 1.385 . S
C555 C556 1.389 . S
C556 C555 1.389 . S
C556 C557 1.387 . S
C557 H542 0.930 . S
C557 C552 1.390 . S
C557 C556 1.387 . S
H558 C570 0.930 . S
H559 C572 0.930 . S
H560 C573 0.930 . S
H561 C577 0.959 . S
H562 C577 0.959 . S
H563 C577 0.961 . S
H564 C578 0.960 . S
H565 C578 0.961 . S
H566 C578 0.959 . S
H567 C581 0.929 . S
H568 C582 0.931 . S
H569 C584 0.930 . S
C570 H558 0.930 . S
C570 C571 1.399 . S
C570 C575 1.399 . S
C571 C570 1.399 . S
C571 C572 1.376 . S
C572 H559 0.930 . S
C572 C571 1.376 . S
C572 C573 1.388 . S
C573 H560 0.930 . S
C573 C572 1.388 . S
C573 C574 1.390 . S
C574 C573 1.390 . S
C574 C575 1.394 . S
C574 C580 1.465 . S
C575 C570 1.399 . S
C575 C574 1.394 . S
C575 C576 1.516 . S
C576 C575 1.516 . S
C576 C577 1.502 . S
C576 C578 1.561 . S
C576 C579 1.526 . S
C577 H561 0.959 . S
C577 H562 0.959 . S
C577 H563 0.961 . S
C577 C576 1.502 . S
C578 H564 0.960 . S
C578 H565 0.961 . S
C578 H566 0.959 . S
C578 C576 1.561 . S
C579 C576 1.526 . S
C579 C580 1.396 . S
C579 C584 1.390 . S
C580 C574 1.465 . S
C580 C579 1.396 . S
C580 C581 1.399 . S
C581 H567 0.929 . S
C581 C580 1.399 . S
C581 C582 1.385 . S
C582 H568 0.931 . S
C582 C581 1.385 . S
C582 C583 1.389 . S
C583 C582 1.389 . S
C583 C584 1.387 . S
C584 H569 0.930 . S
C584 C579 1.390 . S
C584 C583 1.387 . S
H585 C597 0.930 . S
H586 C599 0.930 . S
H587 C600 0.930 . S
H588 C604 0.959 . S
H589 C604 0.959 . S
H590 C604 0.961 . S
H591 C605 0.960 . S
H592 C605 0.961 . S
H593 C605 0.959 . S
H594 C608 0.929 . S
H595 C609 0.931 . S
H596 C611 0.930 . S
C597 H585 0.930 . S
C597 C598 1.399 . S
C597 C602 1.399 . S
C598 C597 1.399 . S
C598 C599 1.376 . S
C599 H586 0.930 . S
C599 C598 1.376 . S
C599 C600 1.388 . S
C600 H587 0.930 . S
C600 C599 1.388 . S
C600 C601 1.390 . S
C601 C600 1.390 . S
C601 C602 1.394 . S
C601 C607 1.465 . S
C602 C597 1.399 . S
C602 C601 1.394 . S
C602 C603 1.516 . S
C603 C602 1.516 . S
C603 C604 1.502 . S
C603 C605 1.561 . S
C603 C606 1.526 . S
C604 H588 0.959 . S
C604 H589 0.959 . S
C604 H590 0.961 . S
C604 C603 1.502 . S
C605 H591 0.960 . S
C605 H592 0.961 . S
C605 H593 0.959 . S
C605 C603 1.561 . S
C606 C603 1.526 . S
C606 C607 1.396 . S
C606 C611 1.390 . S
C607 C601 1.465 . S
C607 C606 1.396 . S
C607 C608 1.399 . S
C608 H594 0.929 . S
C608 C607 1.399 . S
C608 C609 1.385 . S
C609 H595 0.931 . S
C609 C608 1.385 . S
C609 C610 1.389 . S
C610 C609 1.389 . S
C610 C611 1.387 . S
C611 H596 0.930 . S
C611 C606 1.390 . S
C611 C610 1.387 . S
H612 C624 0.930 . S
H613 C626 0.930 1_554 S
H614 C627 0.930 . S
H615 C631 0.959 . S
H616 C631 0.959 . S
H617 C631 0.961 . S
H618 C632 0.960 . S
H619 C632 0.961 . S
H620 C632 0.959 . S
H621 C635 0.929 . S
H622 C636 0.931 . S
H623 C638 0.930 . S
C624 H612 0.930 . S
C624 C625 1.399 . S
C624 C629 1.399 . S
C625 C624 1.399 . S
C625 C626 1.376 . S
C626 H613 0.930 1_556 S
C626 C625 1.376 . S
C626 C627 1.388 1_556 S
C627 H614 0.930 . S
C627 C626 1.388 1_554 S
C627 C628 1.390 . S
C628 C627 1.390 . S
C628 C629 1.394 1_554 S
C628 C634 1.465 . S
C629 C624 1.399 . S
C629 C628 1.394 1_556 S
C629 C630 1.516 . S
C630 C629 1.516 . S
C630 C631 1.502 . S
C630 C632 1.561 1_556 S
C630 C633 1.526 1_556 S
C631 H615 0.959 . S
C631 H616 0.959 . S
C631 H617 0.961 . S
C631 C630 1.502 . S
C632 H618 0.960 . S
C632 H619 0.961 . S
C632 H620 0.959 . S
C632 C630 1.561 1_554 S
C633 C630 1.526 1_554 S
C633 C634 1.396 . S
C633 C638 1.390 . S
C634 C628 1.465 . S
C634 C633 1.396 . S
C634 C635 1.399 . S
C635 H621 0.929 . S
C635 C634 1.399 . S
C635 C636 1.385 . S
C636 H622 0.931 . S
C636 C635 1.385 . S
C636 C637 1.389 . S
C637 C636 1.389 . S
C637 C638 1.387 . S
C638 H623 0.930 . S
C638 C633 1.390 . S
C638 C637 1.387 . S
H639 C651 0.930 . S
H640 C653 0.930 . S
H641 C654 0.930 . S
H642 C658 0.959 . S
H643 C658 0.959 . S
H644 C658 0.961 . S
H645 C659 0.960 . S
H646 C659 0.961 . S
H647 C659 0.959 . S
H648 C662 0.929 . S
H649 C663 0.931 . S
H650 C665 0.930 . S
C651 H639 0.930 . S
C651 C652 1.399 . S
C651 C656 1.399 . S
C652 C651 1.399 . S
C652 C653 1.376 . S
C653 H640 0.930 . S
C653 C652 1.376 . S
C653 C654 1.388 . S
C654 H641 0.930 . S
C654 C653 1.388 . S
C654 C655 1.390 . S
C655 C654 1.390 . S
C655 C656 1.394 . S
C655 C661 1.465 . S
C656 C651 1.399 . S
C656 C655 1.394 . S
C656 C657 1.516 . S
C657 C656 1.516 . S
C657 C658 1.502 . S
C657 C659 1.561 . S
C657 C660 1.526 . S
C658 H642 0.959 . S
C658 H643 0.959 . S
C658 H644 0.961 . S
C658 C657 1.502 . S
C659 H645 0.960 . S
C659 H646 0.961 . S
C659 H647 0.959 . S
C659 C657 1.561 . S
C660 C657 1.526 . S
C660 C661 1.396 . S
C660 C665 1.390 . S
C661 C655 1.465 . S
C661 C660 1.396 . S
C661 C662 1.399 . S
C662 H648 0.929 . S
C662 C661 1.399 . S
C662 C663 1.385 . S
C663 H649 0.931 . S
C663 C662 1.385 . S
C663 C664 1.389 . S
C664 C663 1.389 . S
C664 C665 1.387 . S
C665 H650 0.930 . S
C665 C660 1.390 . S
C665 C664 1.387 . S
H666 C678 0.930 . S
H667 C680 0.930 . S
H668 C681 0.930 . S
H669 C685 0.959 . S
H670 C685 0.959 . S
H671 C685 0.961 . S
H672 C686 0.960 . S
H673 C686 0.961 . S
H674 C686 0.959 . S
H675 C689 0.929 . S
H676 C690 0.931 . S
H677 C692 0.930 . S
C678 H666 0.930 . S
C678 C679 1.399 . S
C678 C683 1.399 . S
C679 C678 1.399 . S
C679 C680 1.376 . S
C680 H667 0.930 . S
C680 C679 1.376 . S
C680 C681 1.388 . S
C681 H668 0.930 . S
C681 C680 1.388 . S
C681 C682 1.390 . S
C682 C681 1.390 . S
C682 C683 1.394 . S
C682 C688 1.465 . S
C683 C678 1.399 . S
C683 C682 1.394 . S
C683 C684 1.516 . S
C684 C683 1.516 . S
C684 C685 1.502 . S
C684 C686 1.561 . S
C684 C687 1.526 . S
C685 H669 0.959 . S
C685 H670 0.959 . S
C685 H671 0.961 . S
C685 C684 1.502 . S
C686 H672 0.960 . S
C686 H673 0.961 . S
C686 H674 0.959 . S
C686 C684 1.561 . S
C687 C684 1.526 . S
C687 C688 1.396 . S
C687 C692 1.390 . S
C688 C682 1.465 . S
C688 C687 1.396 . S
C688 C689 1.399 . S
C689 H675 0.929 . S
C689 C688 1.399 . S
C689 C690 1.385 . S
C690 H676 0.931 . S
C690 C689 1.385 . S
C690 C691 1.389 . S
C691 C690 1.389 . S
C691 C692 1.387 . S
C692 H677 0.930 . S
C692 C687 1.390 . S
C692 C691 1.387 . S
H693 C705 0.930 . S
H694 C707 0.930 . S
H695 C708 0.930 . S
H696 C712 0.959 . S
H697 C712 0.959 . S
H698 C712 0.961 . S
H699 C713 0.960 . S
H700 C713 0.961 . S
H701 C713 0.959 . S
H702 C716 0.929 . S
H703 C717 0.931 . S
H704 C719 0.930 . S
C705 H693 0.930 . S
C705 C706 1.399 . S
C705 C710 1.399 . S
C706 C705 1.399 . S
C706 C707 1.376 . S
C707 H694 0.930 . S
C707 C706 1.376 . S
C707 C708 1.388 1_554 S
C708 H695 0.930 . S
C708 C707 1.388 1_556 S
C708 C709 1.390 . S
C709 C708 1.390 . S
C709 C710 1.394 1_556 S
C709 C715 1.465 . S
C710 C705 1.399 . S
C710 C709 1.394 1_554 S
C710 C711 1.516 . S
C711 C710 1.516 . S
C711 C712 1.502 . S
C711 C713 1.561 1_554 S
C711 C714 1.526 1_554 S
C712 H696 0.959 . S
C712 H697 0.959 . S
C712 H698 0.961 . S
C712 C711 1.502 . S
C713 H699 0.960 . S
C713 H700 0.961 . S
C713 H701 0.959 . S
C713 C711 1.561 1_556 S
C714 C711 1.526 1_556 S
C714 C715 1.396 . S
C714 C719 1.390 . S
C715 C709 1.465 . S
C715 C714 1.396 . S
C715 C716 1.399 . S
C716 H702 0.929 . S
C716 C715 1.399 . S
C716 C717 1.385 . S
C717 H703 0.931 . S
C717 C716 1.385 . S
C717 C718 1.389 . S
C718 C717 1.389 . S
C718 C719 1.387 . S
C719 H704 0.930 . S
C719 C714 1.390 . S
C719 C718 1.387 . S
H720 C732 0.930 . S
H721 C734 0.930 . S
H722 C735 0.930 . S
H723 C739 0.959 . S
H724 C739 0.959 . S
H725 C739 0.961 . S
H726 C740 0.960 . S
H727 C740 0.961 . S
H728 C740 0.959 . S
H729 C743 0.929 . S
H730 C744 0.931 . S
H731 C746 0.930 . S
C732 H720 0.930 . S
C732 C733 1.399 . S
C732 C737 1.399 . S
C733 C732 1.399 . S
C733 C734 1.376 . S
C734 H721 0.930 . S
C734 C733 1.376 . S
C734 C735 1.388 . S
C735 H722 0.930 . S
C735 C734 1.388 . S
C735 C736 1.390 . S
C736 C735 1.390 . S
C736 C737 1.394 . S
C736 C742 1.465 . S
C737 C732 1.399 . S
C737 C736 1.394 . S
C737 C738 1.516 . S
C738 C737 1.516 . S
C738 C739 1.502 . S
C738 C740 1.561 . S
C738 C741 1.526 . S
C739 H723 0.959 . S
C739 H724 0.959 . S
C739 H725 0.961 . S
C739 C738 1.502 . S
C740 H726 0.960 . S
C740 H727 0.961 . S
C740 H728 0.959 . S
C740 C738 1.561 . S
C741 C738 1.526 . S
C741 C742 1.396 . S
C741 C746 1.390 . S
C742 C736 1.465 . S
C742 C741 1.396 . S
C742 C743 1.399 . S
C743 H729 0.929 . S
C743 C742 1.399 . S
C743 C744 1.385 . S
C744 H730 0.931 . S
C744 C743 1.385 . S
C744 C745 1.389 . S
C745 C744 1.389 . S
C745 C746 1.387 . S
C746 H731 0.930 . S
C746 C741 1.390 . S
C746 C745 1.387 . S
H747 C759 0.930 . S
H748 C761 0.930 . S
H749 C762 0.930 . S
H750 C766 0.959 1_455 S
H751 C766 0.961 . S
H752 C766 0.958 1_455 S
H753 C767 0.960 1_455 S
H754 C767 0.961 . S
H755 C767 0.959 . S
H756 C770 0.929 . S
H757 C771 0.931 . S
H758 C773 0.930 . S
C759 H747 0.930 . S
C759 C760 1.399 . S
C759 C764 1.399 . S
C760 C759 1.399 . S
C760 C761 1.376 . S
C761 H748 0.930 . S
C761 C760 1.376 . S
C761 C762 1.388 . S
C762 H749 0.930 . S
C762 C761 1.388 . S
C762 C763 1.390 . S
C763 C762 1.390 . S
C763 C764 1.394 . S
C763 C769 1.465 1_455 S
C764 C759 1.399 . S
C764 C763 1.394 . S
C764 C765 1.516 1_455 S
C765 C764 1.516 1_655 S
C765 C766 1.504 . S
C765 C767 1.561 . S
C765 C768 1.526 . S
C766 H750 0.959 1_655 S
C766 H751 0.961 . S
C766 H752 0.958 1_655 S
C766 C765 1.504 . S
C767 H753 0.960 1_655 S
C767 H754 0.961 . S
C767 H755 0.959 . S
C767 C765 1.561 . S
C768 C765 1.526 . S
C768 C769 1.396 . S
C768 C773 1.390 . S
C769 C763 1.465 1_655 S
C769 C768 1.396 . S
C769 C770 1.399 . S
C770 H756 0.929 . S
C770 C769 1.399 . S
C770 C771 1.385 . S
C771 H757 0.931 . S
C771 C770 1.385 . S
C771 C772 1.389 . S
C772 C771 1.389 . S
C772 C773 1.387 . S
C773 H758 0.930 . S
C773 C768 1.390 . S
C773 C772 1.387 . S
H774 C786 0.930 . S
H775 C788 0.930 . S
H776 C789 0.930 . S
H777 C793 0.959 . S
H778 C793 0.959 1_565 S
H779 C793 0.961 . S
H780 C794 0.960 . S
H781 C794 0.941 1_565 S
H782 C794 0.959 . S
H783 C797 0.929 . S
H784 C798 0.931 . S
H785 C800 0.930 . S
C786 H774 0.930 . S
C786 C787 1.399 1_556 S
C786 C791 1.399 . S
C787 C786 1.399 1_554 S
C787 C788 1.376 . S
C788 H775 0.930 . S
C788 C787 1.376 . S
C788 C789 1.388 . S
C789 H776 0.930 . S
C789 C788 1.388 . S
C789 C790 1.390 . S
C790 C789 1.390 . S
C790 C791 1.394 1_554 S
C790 C796 1.465 1_545 S
C791 C786 1.399 . S
C791 C790 1.394 1_556 S
C791 C792 1.516 . S
C792 C791 1.516 . S
C792 C793 1.502 . S
C792 C794 1.561 . S
C792 C795 1.526 1_545 S
C793 H777 0.959 . S
C793 H778 0.959 1_545 S
C793 H779 0.961 . S
C793 C792 1.502 . S
C794 H780 0.960 . S
C794 H781 0.941 1_545 S
C794 H782 0.959 . S
C794 C792 1.561 . S
C795 C792 1.526 1_565 S
C795 C796 1.396 1_556 S
C795 C800 1.390 . S
C796 C790 1.465 1_565 S
C796 C795 1.396 1_554 S
C796 C797 1.399 . S
C797 H783 0.929 . S
C797 C796 1.399 . S
C797 C798 1.385 . S
C798 H784 0.931 . S
C798 C797 1.385 . S
C798 C799 1.389 1_554 S
C799 C798 1.389 1_556 S
C799 C800 1.387 . S
C800 H785 0.930 . S
C800 C795 1.390 . S
C800 C799 1.387 . S
H801 C813 0.930 . S
H802 C815 0.930 . S
H803 C816 0.930 . S
H804 C820 0.959 . S
H805 C820 0.959 . S
H806 C820 0.961 . S
H807 C821 0.960 . S
H808 C821 0.961 . S
H809 C821 0.959 . S
H810 C824 0.929 . S
H811 C825 0.931 . S
H812 C827 0.930 . S
C813 H801 0.930 . S
C813 C814 1.399 . S
C813 C818 1.399 . S
C814 C813 1.399 . S
C814 C815 1.376 . S
C815 H802 0.930 . S
C815 C814 1.376 . S
C815 C816 1.388 . S
C816 H803 0.930 . S
C816 C815 1.388 . S
C816 C817 1.390 . S
C817 C816 1.390 . S
C817 C818 1.394 . S
C817 C823 1.465 . S
C818 C813 1.399 . S
C818 C817 1.394 . S
C818 C819 1.516 . S
C819 C818 1.516 . S
C819 C820 1.502 . S
C819 C821 1.561 . S
C819 C822 1.526 . S
C820 H804 0.959 . S
C820 H805 0.959 . S
C820 H806 0.961 . S
C820 C819 1.502 . S
C821 H807 0.960 . S
C821 H808 0.961 . S
C821 H809 0.959 . S
C821 C819 1.561 . S
C822 C819 1.526 . S
C822 C823 1.396 . S
C822 C827 1.390 . S
C823 C817 1.465 . S
C823 C822 1.396 . S
C823 C824 1.399 . S
C824 H810 0.929 . S
C824 C823 1.399 . S
C824 C825 1.385 . S
C825 H811 0.931 . S
C825 C824 1.385 . S
C825 C826 1.389 . S
C826 C825 1.389 . S
C826 C827 1.387 . S
C827 H812 0.930 . S
C827 C822 1.390 . S
C827 C826 1.387 . S
H828 C840 0.930 . S
H829 C842 0.930 . S
H830 C843 0.930 . S
H831 C847 0.959 . S
H832 C847 0.959 . S
H833 C847 0.961 1_455 S
H834 C848 0.960 1_455 S
H835 C848 0.961 . S
H836 C848 0.956 1_455 S
H837 C851 0.929 . S
H838 C852 0.931 . S
H839 C854 0.930 . S
C840 H828 0.930 . S
C840 C841 1.399 . S
C840 C845 1.399 . S
C841 C840 1.399 . S
C841 C842 1.376 . S
C842 H829 0.930 . S
C842 C841 1.376 . S
C842 C843 1.388 . S
C843 H830 0.930 . S
C843 C842 1.388 . S
C843 C844 1.390 . S
C844 C843 1.390 . S
C844 C845 1.394 . S
C844 C850 1.465 1_455 S
C845 C840 1.399 . S
C845 C844 1.394 . S
C845 C846 1.516 1_455 S
C846 C845 1.516 1_655 S
C846 C847 1.502 . S
C846 C848 1.561 . S
C846 C849 1.526 . S
C847 H831 0.959 . S
C847 H832 0.959 . S
C847 H833 0.961 1_655 S
C847 C846 1.502 . S
C848 H834 0.960 1_655 S
C848 H835 0.961 . S
C848 H836 0.956 1_655 S
C848 C846 1.561 . S
C849 C846 1.526 . S
C849 C850 1.396 . S
C849 C854 1.390 . S
C850 C844 1.465 1_655 S
C850 C849 1.396 . S
C850 C851 1.399 . S
C851 H837 0.929 . S
C851 C850 1.399 . S
C851 C852 1.385 . S
C852 H838 0.931 . S
C852 C851 1.385 . S
C852 C853 1.389 . S
C853 C852 1.389 . S
C853 C854 1.387 . S
C854 H839 0.930 . S
C854 C849 1.390 . S
C854 C853 1.387 . S
H855 C867 0.930 . S
H856 C869 0.930 . S
H857 C870 0.930 . S
H858 C874 0.959 . S
H859 C874 0.959 1_565 S
H860 C874 0.961 . S
H861 C875 0.960 . S
H862 C875 0.947 1_565 S
H863 C875 0.959 . S
H864 C878 0.929 . S
H865 C879 0.931 . S
H866 C881 0.930 . S
C867 H855 0.930 . S
C867 C868 1.399 1_554 S
C867 C872 1.399 . S
C868 C867 1.399 1_556 S
C868 C869 1.376 . S
C869 H856 0.930 . S
C869 C868 1.376 . S
C869 C870 1.388 . S
C870 H857 0.930 . S
C870 C869 1.388 . S
C870 C871 1.390 . S
C871 C870 1.390 . S
C871 C872 1.394 1_556 S
C871 C877 1.465 1_545 S
C872 C867 1.399 . S
C872 C871 1.394 1_554 S
C872 C873 1.516 . S
C873 C872 1.516 . S
C873 C874 1.502 . S
C873 C875 1.561 . S
C873 C876 1.526 1_545 S
C874 H858 0.959 . S
C874 H859 0.959 1_545 S
C874 H860 0.961 . S
C874 C873 1.502 . S
C875 H861 0.960 . S
C875 H862 0.947 1_545 S
C875 H863 0.959 . S
C875 C873 1.561 . S
C876 C873 1.526 1_565 S
C876 C877 1.396 1_554 S
C876 C881 1.390 . S
C877 C871 1.465 1_565 S
C877 C876 1.396 1_556 S
C877 C878 1.399 . S
C878 H864 0.929 . S
C878 C877 1.399 . S
C878 C879 1.385 . S
C879 H865 0.931 . S
C879 C878 1.385 . S
C879 C880 1.389 1_556 S
C880 C879 1.389 1_554 S
C880 C881 1.387 . S
C881 H866 0.930 . S
C881 C876 1.390 . S
C881 C880 1.387 . S
H882 C894 0.930 . S
H883 C896 0.930 . S
H884 C897 0.930 . S
H885 C901 0.959 . S
H886 C901 0.959 . S
H887 C901 0.961 . S
H888 C902 0.960 . S
H889 C902 0.961 . S
H890 C902 0.959 . S
H891 C905 0.929 . S
H892 C906 0.931 . S
H893 C908 0.930 . S
C894 H882 0.930 . S
C894 C895 1.399 . S
C894 C899 1.399 . S
C895 C894 1.399 . S
C895 C896 1.376 . S
C896 H883 0.930 . S
C896 C895 1.376 . S
C896 C897 1.388 . S
C897 H884 0.930 . S
C897 C896 1.388 . S
C897 C898 1.390 . S
C898 C897 1.390 . S
C898 C899 1.394 . S
C898 C904 1.465 . S
C899 C894 1.399 . S
C899 C898 1.394 . S
C899 C900 1.516 . S
C900 C899 1.516 . S
C900 C901 1.502 . S
C900 C902 1.561 . S
C900 C903 1.526 . S
C901 H885 0.959 . S
C901 H886 0.959 . S
C901 H887 0.961 . S
C901 C900 1.502 . S
C902 H888 0.960 . S
C902 H889 0.961 . S
C902 H890 0.959 . S
C902 C900 1.561 . S
C903 C900 1.526 . S
C903 C904 1.396 . S
C903 C908 1.390 . S
C904 C898 1.465 . S
C904 C903 1.396 . S
C904 C905 1.399 . S
C905 H891 0.929 . S
C905 C904 1.399 . S
C905 C906 1.385 . S
C906 H892 0.931 . S
C906 C905 1.385 . S
C906 C907 1.389 . S
C907 C906 1.389 . S
C907 C908 1.387 . S
C908 H893 0.930 . S
C908 C903 1.390 . S
C908 C907 1.387 . S
H909 C921 0.930 . S
H910 C923 0.930 . S
H911 C924 0.930 . S
H912 C928 0.959 . S
H913 C928 0.959 . S
H914 C928 0.961 . S
H915 C929 0.960 . S
H916 C929 0.961 . S
H917 C929 0.959 . S
H918 C932 0.929 . S
H919 C933 0.931 . S
H920 C935 0.930 . S
C921 H909 0.930 . S
C921 C922 1.399 . S
C921 C926 1.399 . S
C922 C921 1.399 . S
C922 C923 1.376 . S
C923 H910 0.930 . S
C923 C922 1.376 . S
C923 C924 1.388 . S
C924 H911 0.930 . S
C924 C923 1.388 . S
C924 C925 1.390 . S
C925 C924 1.390 . S
C925 C926 1.394 . S
C925 C931 1.465 . S
C926 C921 1.399 . S
C926 C925 1.394 . S
C926 C927 1.516 . S
C927 C926 1.516 . S
C927 C928 1.502 . S
C927 C929 1.561 . S
C927 C930 1.526 . S
C928 H912 0.959 . S
C928 H913 0.959 . S
C928 H914 0.961 . S
C928 C927 1.502 . S
C929 H915 0.960 . S
C929 H916 0.961 . S
C929 H917 0.959 . S
C929 C927 1.561 . S
C930 C927 1.526 . S
C930 C931 1.396 . S
C930 C935 1.390 1_554 S
C931 C925 1.465 . S
C931 C930 1.396 . S
C931 C932 1.399 1_554 S
C932 H918 0.929 . S
C932 C931 1.399 1_556 S
C932 C933 1.385 . S
C933 H919 0.931 . S
C933 C932 1.385 . S
C933 C934 1.389 . S
C934 C933 1.389 . S
C934 C935 1.387 . S
C935 H920 0.930 . S
C935 C930 1.390 1_556 S
C935 C934 1.387 . S
H936 C948 0.930 . S
H937 C950 0.930 . S
H938 C951 0.930 . S
H939 C955 0.959 . S
H940 C955 0.959 . S
H941 C955 0.961 . S
H942 C956 0.960 . S
H943 C956 0.961 . S
H944 C956 0.959 . S
H945 C959 0.929 . S
H946 C960 0.931 . S
H947 C962 0.930 . S
C948 H936 0.930 . S
C948 C949 1.399 . S
C948 C953 1.399 . S
C949 C948 1.399 . S
C949 C950 1.376 . S
C950 H937 0.930 . S
C950 C949 1.376 . S
C950 C951 1.388 . S
C951 H938 0.930 . S
C951 C950 1.388 . S
C951 C952 1.390 . S
C952 C951 1.390 . S
C952 C953 1.394 . S
C952 C958 1.465 . S
C953 C948 1.399 . S
C953 C952 1.394 . S
C953 C954 1.516 . S
C954 C953 1.516 . S
C954 C955 1.502 . S
C954 C956 1.561 . S
C954 C957 1.526 . S
C955 H939 0.959 . S
C955 H940 0.959 . S
C955 H941 0.961 . S
C955 C954 1.502 . S
C956 H942 0.960 . S
C956 H943 0.961 . S
C956 H944 0.959 . S
C956 C954 1.561 . S
C957 C954 1.526 . S
C957 C958 1.396 . S
C957 C962 1.390 . S
C958 C952 1.465 . S
C958 C957 1.396 . S
C958 C959 1.399 . S
C959 H945 0.929 . S
C959 C958 1.399 . S
C959 C960 1.385 . S
C960 H946 0.931 . S
C960 C959 1.385 . S
C960 C961 1.389 . S
C961 C960 1.389 . S
C961 C962 1.387 . S
C962 H947 0.930 . S
C962 C957 1.390 . S
C962 C961 1.387 . S
H963 C975 0.930 . S
H964 C977 0.930 . S
H965 C978 0.930 . S
H966 C982 0.959 . S
H967 C982 0.959 . S
H968 C982 0.961 . S
H969 C983 0.960 . S
H970 C983 0.961 . S
H971 C983 0.959 . S
H972 C986 0.929 . S
H973 C987 0.931 . S
H974 C989 0.930 . S
C975 H963 0.930 . S
C975 C976 1.399 . S
C975 C980 1.399 . S
C976 C975 1.399 . S
C976 C977 1.376 . S
C977 H964 0.930 . S
C977 C976 1.376 . S
C977 C978 1.388 . S
C978 H965 0.930 . S
C978 C977 1.388 . S
C978 C979 1.390 . S
C979 C978 1.390 . S
C979 C980 1.394 . S
C979 C985 1.465 . S
C980 C975 1.399 . S
C980 C979 1.394 . S
C980 C981 1.516 . S
C981 C980 1.516 . S
C981 C982 1.502 . S
C981 C983 1.561 . S
C981 C984 1.526 . S
C982 H966 0.959 . S
C982 H967 0.959 . S
C982 H968 0.961 . S
C982 C981 1.502 . S
C983 H969 0.960 . S
C983 H970 0.961 . S
C983 H971 0.959 . S
C983 C981 1.561 . S
C984 C981 1.526 . S
C984 C985 1.396 . S
C984 C989 1.390 . S
C985 C979 1.465 . S
C985 C984 1.396 . S
C985 C986 1.399 . S
C986 H972 0.929 . S
C986 C985 1.399 . S
C986 C987 1.385 . S
C987 H973 0.931 . S
C987 C986 1.385 . S
C987 C988 1.389 . S
C988 C987 1.389 . S
C988 C989 1.387 . S
C989 H974 0.930 . S
C989 C984 1.390 . S
C989 C988 1.387 . S
H990 C1002 0.930 . S
H991 C1004 0.930 . S
H992 C1005 0.930 . S
H993 C1009 0.959 . S
H994 C1009 0.959 . S
H995 C1009 0.961 . S
H996 C1010 0.960 . S
H997 C1010 0.961 1_556 S
H998 C1010 0.959 . S
H999 C1013 0.929 1_554 S
H1000 C1014 0.931 . S
H1001 C1016 0.930 . S
C1002 H990 0.930 . S
C1002 C1003 1.399 . S
C1002 C1007 1.399 . S
C1003 C1002 1.399 . S
C1003 C1004 1.376 . S
C1004 H991 0.930 . S
C1004 C1003 1.376 . S
C1004 C1005 1.388 . S
C1005 H992 0.930 . S
C1005 C1004 1.388 . S
C1005 C1006 1.390 . S
C1006 C1005 1.390 . S
C1006 C1007 1.394 . S
C1006 C1012 1.465 . S
C1007 C1002 1.399 . S
C1007 C1006 1.394 . S
C1007 C1008 1.516 . S
C1008 C1007 1.516 . S
C1008 C1009 1.502 . S
C1008 C1010 1.561 . S
C1008 C1011 1.523 1_554 S
C1009 H993 0.959 . S
C1009 H994 0.959 . S
C1009 H995 0.961 . S
C1009 C1008 1.502 . S
C1010 H996 0.960 . S
C1010 H997 0.961 1_554 S
C1010 H998 0.959 . S
C1010 C1008 1.561 . S
C1011 C1008 1.523 1_556 S
C1011 C1012 1.394 1_556 S
C1011 C1016 1.394 . S
C1012 C1006 1.465 . S
C1012 C1011 1.394 1_554 S
C1012 C1013 1.399 1_554 S
C1013 H999 0.929 1_556 S
C1013 C1012 1.399 1_556 S
C1013 C1014 1.385 . S
C1014 H1000 0.931 . S
C1014 C1013 1.385 . S
C1014 C1015 1.389 . S
C1015 C1014 1.389 . S
C1015 C1016 1.387 . S
C1016 H1001 0.930 . S
C1016 C1011 1.394 . S
C1016 C1015 1.387 . S
H1017 C1029 0.930 . S
H1018 C1031 0.930 . S
H1019 C1032 0.930 . S
H1020 C1036 0.959 . S
H1021 C1036 0.959 . S
H1022 C1036 0.961 . S
H1023 C1037 0.960 . S
H1024 C1037 0.961 . S
H1025 C1037 0.959 . S
H1026 C1040 0.929 . S
H1027 C1041 0.931 . S
H1028 C1043 0.930 . S
C1029 H1017 0.930 . S
C1029 C1030 1.399 . S
C1029 C1034 1.399 . S
C1030 C1029 1.399 . S
C1030 C1031 1.376 . S
C1031 H1018 0.930 . S
C1031 C1030 1.376 . S
C1031 C1032 1.388 . S
C1032 H1019 0.930 . S
C1032 C1031 1.388 . S
C1032 C1033 1.390 . S
C1033 C1032 1.390 . S
C1033 C1034 1.394 . S
C1033 C1039 1.465 . S
C1034 C1029 1.399 . S
C1034 C1033 1.394 . S
C1034 C1035 1.516 . S
C1035 C1034 1.516 . S
C1035 C1036 1.502 . S
C1035 C1037 1.561 . S
C1035 C1038 1.526 . S
C1036 H1020 0.959 . S
C1036 H1021 0.959 . S
C1036 H1022 0.961 . S
C1036 C1035 1.502 . S
C1037 H1023 0.960 . S
C1037 H1024 0.961 . S
C1037 H1025 0.959 . S
C1037 C1035 1.561 . S
C1038 C1035 1.526 . S
C1038 C1039 1.396 . S
C1038 C1043 1.390 . S
C1039 C1033 1.465 . S
C1039 C1038 1.396 . S
C1039 C1040 1.399 . S
C1040 H1026 0.929 . S
C1040 C1039 1.399 . S
C1040 C1041 1.385 . S
C1041 H1027 0.931 . S
C1041 C1040 1.385 . S
C1041 C1042 1.389 . S
C1042 C1041 1.389 . S
C1042 C1043 1.387 . S
C1043 H1028 0.930 . S
C1043 C1038 1.390 . S
C1043 C1042 1.387 . S
H1044 C1056 0.930 . S
H1045 C1058 0.930 . S
H1046 C1059 0.930 1_556 S
H1047 C1063 0.959 . S
H1048 C1063 0.959 . S
H1049 C1063 0.961 1_554 S
H1050 C1064 0.960 1_554 S
H1051 C1064 0.961 . S
H1052 C1064 0.959 . S
H1053 C1067 0.929 . S
H1054 C1068 0.931 . S
H1055 C1070 0.930 . S
C1056 H1044 0.930 . S
C1056 C1057 1.399 . S
C1056 C1061 1.408 . S
C1057 C1056 1.399 . S
C1057 C1058 1.376 . S
C1058 H1045 0.930 . S
C1058 C1057 1.376 . S
C1058 C1059 1.388 . S
C1059 H1046 0.930 1_554 S
C1059 C1058 1.388 . S
C1059 C1060 1.390 1_554 S
C1060 C1059 1.390 1_556 S
C1060 C1061 1.389 1_556 S
C1060 C1066 1.465 . S
C1061 C1056 1.408 . S
C1061 C1060 1.389 1_554 S
C1061 C1062 1.510 1_554 S
C1062 C1061 1.510 1_556 S
C1062 C1063 1.502 . S
C1062 C1064 1.561 . S
C1062 C1065 1.526 . S
C1063 H1047 0.959 . S
C1063 H1048 0.959 . S
C1063 H1049 0.961 1_556 S
C1063 C1062 1.502 . S
C1064 H1050 0.960 1_556 S
C1064 H1051 0.961 . S
C1064 H1052 0.959 . S
C1064 C1062 1.561 . S
C1065 C1062 1.526 . S
C1065 C1066 1.396 . S
C1065 C1070 1.390 . S
C1066 C1060 1.465 . S
C1066 C1065 1.396 . S
C1066 C1067 1.399 . S
C1067 H1053 0.929 . S
C1067 C1066 1.399 . S
C1067 C1068 1.385 . S
C1068 H1054 0.931 . S
C1068 C1067 1.385 . S
C1068 C1069 1.389 . S
C1069 C1068 1.389 . S
C1069 C1070 1.387 . S
C1070 H1055 0.930 . S
C1070 C1065 1.390 . S
C1070 C1069 1.387 . S
H1071 C1083 0.930 . S
H1072 C1085 0.930 . S
H1073 C1086 0.930 . S
H1074 C1090 0.959 . S
H1075 C1090 0.959 . S
H1076 C1090 0.961 . S
H1077 C1091 0.960 . S
H1078 C1091 0.961 . S
H1079 C1091 0.959 . S
H1080 C1094 0.929 . S
H1081 C1095 0.931 . S
H1082 C1097 0.930 . S
C1083 H1071 0.930 . S
C1083 C1084 1.399 . S
C1083 C1088 1.399 . S
C1084 C1083 1.399 . S
C1084 C1085 1.376 . S
C1085 H1072 0.930 . S
C1085 C1084 1.376 . S
C1085 C1086 1.388 . S
C1086 H1073 0.930 . S
C1086 C1085 1.388 . S
C1086 C1087 1.390 . S
C1087 C1086 1.390 . S
C1087 C1088 1.394 . S
C1087 C1093 1.465 . S
C1088 C1083 1.399 . S
C1088 C1087 1.394 . S
C1088 C1089 1.516 . S
C1089 C1088 1.516 . S
C1089 C1090 1.502 . S
C1089 C1091 1.561 . S
C1089 C1092 1.526 . S
C1090 H1074 0.959 . S
C1090 H1075 0.959 . S
C1090 H1076 0.961 . S
C1090 C1089 1.502 . S
C1091 H1077 0.960 . S
C1091 H1078 0.961 . S
C1091 H1079 0.959 . S
C1091 C1089 1.561 . S
C1092 C1089 1.526 . S
C1092 C1093 1.396 . S
C1092 C1097 1.390 . S
C1093 C1087 1.465 . S
C1093 C1092 1.396 . S
C1093 C1094 1.399 . S
C1094 H1080 0.929 . S
C1094 C1093 1.399 . S
C1094 C1095 1.385 . S
C1095 H1081 0.931 . S
C1095 C1094 1.385 . S
C1095 C1096 1.389 . S
C1096 C1095 1.389 . S
C1096 C1097 1.387 . S
C1097 H1082 0.930 . S
C1097 C1092 1.390 . S
C1097 C1096 1.387 . S
H1098 C1110 0.930 . S
H1099 C1112 0.930 . S
H1100 C1113 0.930 . S
H1101 C1117 0.959 . S
H1102 C1117 0.959 . S
H1103 C1117 0.961 . S
H1104 C1118 0.960 . S
H1105 C1118 0.961 . S
H1106 C1118 0.959 . S
H1107 C1121 0.929 . S
H1108 C1122 0.931 . S
H1109 C1124 0.930 . S
C1110 H1098 0.930 . S
C1110 C1111 1.399 . S
C1110 C1115 1.399 . S
C1111 C1110 1.399 . S
C1111 C1112 1.376 . S
C1112 H1099 0.930 . S
C1112 C1111 1.376 . S
C1112 C1113 1.388 . S
C1113 H1100 0.930 . S
C1113 C1112 1.388 . S
C1113 C1114 1.390 . S
C1114 C1113 1.390 . S
C1114 C1115 1.394 . S
C1114 C1120 1.465 . S
C1115 C1110 1.399 . S
C1115 C1114 1.394 . S
C1115 C1116 1.516 . S
C1116 C1115 1.516 . S
C1116 C1117 1.502 . S
C1116 C1118 1.561 . S
C1116 C1119 1.526 . S
C1117 H1101 0.959 . S
C1117 H1102 0.959 . S
C1117 H1103 0.961 . S
C1117 C1116 1.502 . S
C1118 H1104 0.960 . S
C1118 H1105 0.961 . S
C1118 H1106 0.959 . S
C1118 C1116 1.561 . S
C1119 C1116 1.526 . S
C1119 C1120 1.396 . S
C1119 C1124 1.390 . S
C1120 C1114 1.465 . S
C1120 C1119 1.396 . S
C1120 C1121 1.399 . S
C1121 H1107 0.929 . S
C1121 C1120 1.399 . S
C1121 C1122 1.385 . S
C1122 H1108 0.931 . S
C1122 C1121 1.385 . S
C1122 C1123 1.389 . S
C1123 C1122 1.389 . S
C1123 C1124 1.387 . S
C1124 H1109 0.930 . S
C1124 C1119 1.390 . S
C1124 C1123 1.387 . S
H1125 C1137 0.930 . S
H1126 C1139 0.930 . S
H1127 C1140 0.930 . S
H1128 C1144 0.959 . S
H1129 C1144 0.970 . S
H1130 C1144 0.961 . S
H1131 C1145 0.960 . S
H1132 C1145 0.961 . S
H1133 C1145 0.959 . S
H1134 C1148 0.929 1_556 S
H1135 C1149 0.931 . S
H1136 C1151 0.930 . S
C1137 H1125 0.930 . S
C1137 C1138 1.399 . S
C1137 C1142 1.399 . S
C1138 C1137 1.399 . S
C1138 C1139 1.376 . S
C1139 H1126 0.930 . S
C1139 C1138 1.376 . S
C1139 C1140 1.388 . S
C1140 H1127 0.930 . S
C1140 C1139 1.388 . S
C1140 C1141 1.390 . S
C1141 C1140 1.390 . S
C1141 C1142 1.394 . S
C1141 C1147 1.465 . S
C1142 C1137 1.399 . S
C1142 C1141 1.394 . S
C1142 C1143 1.516 . S
C1143 C1142 1.516 . S
C1143 C1144 1.502 . S
C1143 C1145 1.561 . S
C1143 C1146 1.526 . S
C1144 H1128 0.959 . S
C1144 H1129 0.970 . S
C1144 H1130 0.961 . S
C1144 C1143 1.502 . S
C1145 H1131 0.960 . S
C1145 H1132 0.961 . S
C1145 H1133 0.959 . S
C1145 C1143 1.561 . S
C1146 C1143 1.526 . S
C1146 C1147 1.396 . S
C1146 C1151 1.390 1_556 S
C1147 C1141 1.465 . S
C1147 C1146 1.396 . S
C1147 C1148 1.399 1_556 S
C1148 H1134 0.929 1_554 S
C1148 C1147 1.399 1_554 S
C1148 C1149 1.385 . S
C1149 H1135 0.931 . S
C1149 C1148 1.385 . S
C1149 C1150 1.389 . S
C1150 C1149 1.389 . S
C1150 C1151 1.387 . S
C1151 H1136 0.930 . S
C1151 C1146 1.390 1_554 S
C1151 C1150 1.387 . S
H1152 C1164 0.930 . S
H1153 C1166 0.930 . S
H1154 C1167 0.930 . S
H1155 C1171 0.959 . S
H1156 C1171 0.959 . S
H1157 C1171 0.961 . S
H1158 C1172 0.960 . S
H1159 C1172 0.961 . S
H1160 C1172 0.959 . S
H1161 C1175 0.929 . S
H1162 C1176 0.931 . S
H1163 C1178 0.930 . S
C1164 H1152 0.930 . S
C1164 C1165 1.399 . S
C1164 C1169 1.399 . S
C1165 C1164 1.399 . S
C1165 C1166 1.376 . S
C1166 H1153 0.930 . S
C1166 C1165 1.376 . S
C1166 C1167 1.388 . S
C1167 H1154 0.930 . S
C1167 C1166 1.388 . S
C1167 C1168 1.390 . S
C1168 C1167 1.390 . S
C1168 C1169 1.394 . S
C1168 C1174 1.465 . S
C1169 C1164 1.399 . S
C1169 C1168 1.394 . S
C1169 C1170 1.516 . S
C1170 C1169 1.516 . S
C1170 C1171 1.502 . S
C1170 C1172 1.561 . S
C1170 C1173 1.526 . S
C1171 H1155 0.959 . S
C1171 H1156 0.959 . S
C1171 H1157 0.961 . S
C1171 C1170 1.502 . S
C1172 H1158 0.960 . S
C1172 H1159 0.961 . S
C1172 H1160 0.959 . S
C1172 C1170 1.561 . S
C1173 C1170 1.526 . S
C1173 C1174 1.396 . S
C1173 C1178 1.390 . S
C1174 C1168 1.465 . S
C1174 C1173 1.396 . S
C1174 C1175 1.399 . S
C1175 H1161 0.929 . S
C1175 C1174 1.399 . S
C1175 C1176 1.385 . S
C1176 H1162 0.931 . S
C1176 C1175 1.385 . S
C1176 C1177 1.389 . S
C1177 C1176 1.389 . S
C1177 C1178 1.387 . S
C1178 H1163 0.930 . S
C1178 C1173 1.390 . S
C1178 C1177 1.387 . S
H1179 C1191 0.930 . S
H1180 C1193 0.930 . S
H1181 C1194 0.930 . S
H1182 C1198 0.959 . S
H1183 C1198 0.959 . S
H1184 C1198 0.961 . S
H1185 C1199 0.960 . S
H1186 C1199 0.961 . S
H1187 C1199 0.959 . S
H1188 C1202 0.929 . S
H1189 C1203 0.931 . S
H1190 C1205 0.930 . S
C1191 H1179 0.930 . S
C1191 C1192 1.399 . S
C1191 C1196 1.399 . S
C1192 C1191 1.399 . S
C1192 C1193 1.376 . S
C1193 H1180 0.930 . S
C1193 C1192 1.376 . S
C1193 C1194 1.388 . S
C1194 H1181 0.930 . S
C1194 C1193 1.388 . S
C1194 C1195 1.390 . S
C1195 C1194 1.390 . S
C1195 C1196 1.394 . S
C1195 C1201 1.465 . S
C1196 C1191 1.399 . S
C1196 C1195 1.394 . S
C1196 C1197 1.516 . S
C1197 C1196 1.516 . S
C1197 C1198 1.502 . S
C1197 C1199 1.561 . S
C1197 C1200 1.526 . S
C1198 H1182 0.959 . S
C1198 H1183 0.959 . S
C1198 H1184 0.961 . S
C1198 C1197 1.502 . S
C1199 H1185 0.960 . S
C1199 H1186 0.961 . S
C1199 H1187 0.959 . S
C1199 C1197 1.561 . S
C1200 C1197 1.526 . S
C1200 C1201 1.396 . S
C1200 C1205 1.390 . S
C1201 C1195 1.465 . S
C1201 C1200 1.396 . S
C1201 C1202 1.399 . S
C1202 H1188 0.929 . S
C1202 C1201 1.399 . S
C1202 C1203 1.385 . S
C1203 H1189 0.931 . S
C1203 C1202 1.385 . S
C1203 C1204 1.389 . S
C1204 C1203 1.389 . S
C1204 C1205 1.387 . S
C1205 H1190 0.930 . S
C1205 C1200 1.390 . S
C1205 C1204 1.387 . S
C409 C18 1.438 . S
C421 C348 1.353 . S
C436 C381 1.437 . S
C448 C51 1.353 . S
C463 C216 1.376 . S
C475 C84 1.406 . S
C490 C249 1.373 . S
C502 C117 1.430 . S
C517 C150 1.441 . S
C529 C282 1.356 . S
C544 C315 1.395 . S
C556 C183 1.387 . S
C571 C219 1.578 . S
C583 C21 1.572 . S
C598 C252 1.578 . S
C610 C54 1.572 . S
C625 C87 1.572 . S
C637 C285 1.580 . S
C652 C120 1.590 . S
C664 C318 1.578 . S
C679 C351 1.583 . S
C691 C153 1.595 . S
C706 C384 1.572 . S
C718 C186 1.579 . S
C733 C7 1.357 . S
C745 C304 1.318 . S
C760 C337 1.308 . S
C772 C40 1.309 . S
C787 C370 1.368 . S
C799 C73 1.335 . S
C814 C205 1.351 . S
C826 C106 1.314 . S
C841 C139 1.336 . S
C853 C238 1.368 . S
C868 C172 1.370 . S
C880 C271 1.340 . S
C895 N2 1.058 . S
C907 N13 1.013 . S
C922 N46 1.043 . S
C934 N35 1.037 . S
C949 N68 1.049 . S
C961 N79 1.017 . S
C976 N112 1.013 . S
C988 N101 1.059 . S
C1003 N145 1.019 . S
C1015 N134 1.046 . S
C1030 N178 1.044 . S
C1042 N167 1.020 . S
C1057 N200 1.016 . S
C1069 N211 1.049 . S
C1084 N244 1.015 . S
C1096 N233 1.059 . S
C1111 N277 1.026 . S
C1123 N266 1.053 . S
C1138 N310 1.051 . S
C1150 N299 1.015 . S
C1165 N332 1.036 . S
C1177 N343 1.044 . S
C1192 N376 1.050 . S
C1204 N365 1.016 . S
