# Generated by pormake.
# Topology bsn, (6)-cn, num edge types: 1
# Building blocks:
#     Node 0, Type 0, BuildingBlock: LEVNOQ01_clean_sbu_1, # of connection points: 6
#     Node 1, Type 0, BuildingBlock: LEVNOQ01_clean_sbu_1, # of connection points: 6
#     Node 2, Type 0, BuildingBlock: LEVNOQ01_clean_sbu_1, # of connection points: 6
#     Node 3, Type 0, BuildingBlock: LEVNOQ01_clean_sbu_1, # of connection points: 6
#     Edge 4, Type (0, 0), BuildingBlock: TEMPAE_clean_linker_10, # of connection points: 2
#     Edge 5, Type (0, 0), BuildingBlock: TEMPAE_clean_linker_10, # of connection points: 2
#     Edge 6, Type (0, 0), BuildingBlock: TEMPAE_clean_linker_10, # of connection points: 2
#     Edge 7, Type (0, 0), BuildingBlock: TEMPAE_clean_linker_10, # of connection points: 2
#     Edge 8, Type (0, 0), BuildingBlock: TEMPAE_clean_linker_10, # of connection points: 2
#     Edge 9, Type (0, 0), BuildingBlock: TEMPAE_clean_linker_10, # of connection points: 2
#     Edge 10, Type (0, 0), BuildingBlock: TEMPAE_clean_linker_10, # of connection points: 2
#     Edge 11, Type (0, 0), BuildingBlock: TEMPAE_clean_linker_10, # of connection points: 2
#     Edge 12, Type (0, 0), BuildingBlock: TEMPAE_clean_linker_10, # of connection points: 2
#     Edge 13, Type (0, 0), BuildingBlock: TEMPAE_clean_linker_10, # of connection points: 2
#     Edge 14, Type (0, 0), BuildingBlock: TEMPAE_clean_linker_10, # of connection points: 2
#     Edge 15, Type (0, 0), BuildingBlock: TEMPAE_clean_linker_10, # of connection points: 2
# Relax obj value: 0.176
# Max RMSD: 0.189
# Mean RMSD: 0.189
data_MOF--net-bsn--node1-LEVNOQ01_clean_sbu_1--edge1-TEMPAE_clean_linker_10
_symmetry_space_group_name_H-M    P1
_symmetry_Int_Tables_number       1
_symmetry_cell_setting            triclinic
loop_
_symmetry_equiv_pos_as_xyz
'x, y, z'
_cell_length_a     31.538091
_cell_length_b     30.609089
_cell_length_c     15.709411
_cell_angle_alpha  90.165909
_cell_angle_beta   100.17591
_cell_angle_gamma 90.164243
loop_
_atom_site_label
_atom_site_type_symbol
_atom_site_fract_x
_atom_site_fract_y
_atom_site_fract_z
_atom_type_partial_charge
O0 O 0.99284 0.26853 0.46939 0.0
Mg1 Mg 0.99216 0.20855 0.3941 0.0
O2 O 0.05553 0.24389 0.47983 0.0
Mg3 Mg 0.03006 0.2469 0.33043 0.0
O4 O 0.02663 0.17089 0.31945 0.0
O5 O 0.02165 0.15535 0.45617 0.0
O6 O 0.01256 0.24958 0.18621 0.0
O7 O 0.10175 0.22944 0.31834 0.0
Mg8 Mg 0.08492 0.30797 0.29753 0.0
O9 O 0.03269 0.32393 0.35171 0.0
O10 O 0.07211 0.28359 0.16825 0.0
O11 O 0.14014 0.2836 0.37959 0.0
O12 O 0.0773 0.37312 0.30854 0.0
C13 C 0.92016 0.23495 0.31979 0.0
C14 C 0.02892 0.26435 0.51531 0.0
C15 C 0.03174 0.14362 0.38349 0.0
C16 C 0.03823 0.26231 0.13796 0.0
C17 C 0.13862 0.24561 0.34807 0.0
C18 C 0.04503 0.36431 0.34602 0.0
O19 O 0.92805 0.19741 0.35146 0.0
O20 O 0.95147 0.26085 0.31285 0.0
O21 O 0.98733 0.71066 0.39964 0.0
Mg22 Mg 0.03402 0.69921 0.51029 0.0
O23 O 0.0013 0.77204 0.46507 0.0
Mg24 Mg 0.0091 0.75349 0.61066 0.0
O25 O 0.00822 0.67386 0.60928 0.0
O26 O 0.03931 0.6351 0.5145 0.0
O27 O 0.02078 0.74405 0.75577 0.0
O28 O 0.93506 0.74283 0.6058 0.0
Mg29 Mg 0.96117 0.82878 0.68972 0.0
O30 O 0.00769 0.82867 0.61569 0.0
O31 O 0.98789 0.79951 0.80848 0.0
O32 O 0.90248 0.80518 0.61913 0.0
O33 O 0.98184 0.88991 0.66349 0.0
C34 C 0.11146 0.74607 0.59078 0.0
C35 C 0.99046 0.75133 0.39488 0.0
C36 C 0.01873 0.63659 0.57816 0.0
C37 C 0.01097 0.76538 0.81874 0.0
C38 C 0.90057 0.76437 0.60648 0.0
C39 C 0.00698 0.87098 0.61839 0.0
O40 O 0.09967 0.71891 0.53064 0.0
O41 O 0.08349 0.76279 0.62994 0.0
O42 O 0.51959 0.68603 0.03434 0.0
Mg43 Mg 0.49069 0.68079 0.90574 0.0
O44 O 0.54069 0.74702 -0.01753 0.0
Mg45 Mg 0.5323 0.74223 0.83457 0.0
O46 O 0.53342 0.66352 0.82555 0.0
O47 O 0.48345 0.619 0.86456 0.0
O48 O 0.52321 0.7444 0.68733 0.0
O49 O 0.6078 0.73032 0.84059 0.0
Mg50 Mg 0.58336 0.80998 0.80493 0.0
O51 O 0.5302 0.81918 0.8568 0.0
O52 O 0.57264 0.79382 0.67265 0.0
O53 O 0.63675 0.79069 0.89516 0.0
O54 O 0.57132 0.87348 0.81819 0.0
C55 C 0.42408 0.73819 0.83547 0.0
C56 C 0.53522 0.72397 0.04646 0.0
C57 C 0.51759 0.62433 0.83145 0.0
C58 C 0.54343 0.76722 0.64013 0.0
C59 C 0.64162 0.75234 0.87008 0.0
C60 C 0.53968 0.86055 0.85383 0.0
O61 O 0.42834 0.70488 0.88244 0.0
O62 O 0.45699 0.75441 0.81053 0.0
O63 O 0.47148 0.23873 0.89922 0.0
Mg64 Mg 0.52107 0.21267 -0.00373 0.0
O65 O 0.50671 0.28878 -0.02409 0.0
Mg66 Mg 0.50744 0.25814 0.11559 0.0
O67 O 0.50525 0.17848 0.09624 0.0
O68 O 0.51826 0.14963 0.97072 0.0
O69 O 0.51643 0.23734 0.26174 0.0
O70 O 0.43244 0.25481 0.10119 0.0
Mg71 Mg 0.47451 0.33547 0.23638 0.0
O72 O 0.50717 0.33095 0.13858 0.0
O73 O 0.51199 0.2993 0.33461 0.0
O74 O 0.4135 0.30822 0.18414 0.0
O75 O 0.49449 0.39518 0.19149 0.0
C76 C 0.60501 0.2472 0.08821 0.0
C77 C 0.48768 0.27621 0.90208 0.0
C78 C 0.50955 0.1448 0.04713 0.0
C79 C 0.52205 0.25925 0.3322 0.0
C80 C 0.40385 0.27613 0.13261 0.0
C81 C 0.5097 0.37287 0.13415 0.0
O82 O 0.58901 0.22692 0.01962 0.0
O83 O 0.58059 0.26171 0.13767 0.0
C84 C 0.03326 0.44366 0.3663 0.0
C85 C 0.02494 0.40045 0.38774 0.0
C86 C 0.02127 0.47889 0.41376 0.0
C87 C 1.00023 0.47087 0.48488 0.0
C88 C 0.98893 0.42753 0.50321 0.0
C89 C 0.00147 0.39268 0.45434 0.0
C90 C 0.03352 0.52457 0.39049 0.0
C91 C 0.96523 0.41795 0.57651 0.0
C92 C 0.03311 0.56376 0.6376 0.0
C93 C 0.00232 0.59461 0.60279 0.0
C94 C 0.02968 0.52029 0.60857 0.0
C95 C 0.99451 0.5079 0.54362 0.0
C96 C 0.95957 0.53706 0.52105 0.0
C97 C 0.9637 0.58021 0.55221 0.0
C98 C 0.06722 0.49006 0.63668 0.0
C99 C 0.92103 0.52528 0.45348 0.0
H100 H 0.0507 0.45001 0.31399 0.0
H101 H 0.99463 0.3594 0.47095 0.0
H102 H 0.00502 0.54629 0.38204 0.0
H103 H 0.05783 0.5383 0.44367 0.0
H104 H 0.04722 0.52529 0.33001 0.0
H105 H 0.95594 0.38297 0.57842 0.0
H106 H 0.98579 0.42662 0.63909 0.0
H107 H 0.93577 0.43827 0.57033 0.0
H108 H 0.06299 0.57496 0.67685 0.0
H109 H 0.93982 0.60417 0.52515 0.0
H110 H 0.08774 0.48937 0.5861 0.0
H111 H 0.05599 0.45624 0.64496 0.0
H112 H 0.08735 0.50109 0.69832 0.0
H113 H 0.9285 0.53208 0.38834 0.0
H114 H 0.8925 0.54509 0.46137 0.0
H115 H 0.91281 0.49012 0.45618 0.0
C116 C 0.70153 0.77861 0.80142 0.0
C117 C 0.68172 0.74344 0.83642 0.0
C118 C 0.73637 0.77239 0.75908 0.0
C119 C 0.75295 0.72986 0.75285 0.0
C120 C 0.73361 0.69401 0.78873 0.0
C121 C 0.6976 0.70113 0.82912 0.0
C122 C 0.75547 0.81168 0.72122 0.0
C123 C 0.75122 0.64843 0.78509 0.0
C124 C 0.826 0.73251 0.58602 0.0
C125 C 0.86531 0.74232 0.63899 0.0
C126 C 0.78953 0.72258 0.62298 0.0
C127 C 0.7925 0.72467 0.71424 0.0
C128 C 0.83308 0.73163 0.76742 0.0
C129 C 0.86905 0.73967 0.72898 0.0
C130 C 0.74711 0.71389 0.56422 0.0
C131 C 0.83777 0.73619 0.86444 0.0
H132 H 0.68879 0.81134 0.80443 0.0
H133 H 0.68206 0.67386 0.85517 0.0
H134 H 0.78975 0.81581 0.75183 0.0
H135 H 0.75445 0.80679 0.65091 0.0
H136 H 0.73811 0.8424 0.73041 0.0
H137 H 0.73005 0.62353 0.80762 0.0
H138 H 0.75529 0.64029 0.71813 0.0
H139 H 0.78351 0.6466 0.82656 0.0
H140 H 0.8232 0.73489 0.51641 0.0
H141 H 0.89956 0.74795 0.76964 0.0
H142 H 0.72745 0.74409 0.55792 0.0
H143 H 0.72867 0.68812 0.59154 0.0
H144 H 0.75178 0.70369 0.49857 0.0
H145 H 0.82488 0.76838 0.8801 0.0
H146 H 0.87198 0.73432 0.89705 0.0
H147 H 0.81909 0.71061 0.89147 0.0
C148 C 0.56124 0.39586 0.0372 0.0
C149 C 0.51988 0.39583 0.05804 0.0
C150 C 0.57247 0.42669 -0.02182 0.0
C151 C 0.54175 0.45824 0.94113 0.0
C152 C 0.49882 0.45511 0.95646 0.0
C153 C 0.48858 0.42387 0.01439 0.0
C154 C 0.61796 0.42721 0.96083 0.0
C155 C 0.46451 0.48758 0.91907 0.0
C156 C 0.56639 0.57766 0.92521 0.0
C157 C 0.54569 0.58583 0.84032 0.0
C158 C 0.56916 0.53509 0.95826 0.0
C159 C 0.55506 0.4995 0.90231 0.0
C160 C 0.54298 0.50731 0.81235 0.0
C161 C 0.53648 0.55066 0.78271 0.0
C162 C 0.58028 0.52929 0.05519 0.0
C163 C 0.53278 0.46994 0.74929 0.0
H164 H 0.58545 0.37391 0.07086 0.0
H165 H 0.45643 0.42324 0.03014 0.0
H166 H 0.61985 0.4421 0.89726 0.0
H167 H 0.63876 0.44638 0.01202 0.0
H168 H 0.63119 0.39356 0.96263 0.0
H169 H 0.43271 0.47999 0.93679 0.0
H170 H 0.47425 0.52095 0.9428 0.0
H171 H 0.46047 0.48795 0.84759 0.0
H172 H 0.57309 0.60496 0.9699 0.0
H173 H 0.52062 0.55681 0.71685 0.0
H174 H 0.60566 0.50429 0.07175 0.0
H175 H 0.55138 0.51781 0.08019 0.0
H176 H 0.59165 0.56014 0.08931 0.0
H177 H 0.55933 0.44574 0.76036 0.0
H178 H 0.52825 0.48122 0.68112 0.0
H179 H 0.50306 0.45286 0.75956 0.0
C180 C 0.86212 0.26289 0.20555 0.0
C181 C 0.87519 0.24722 0.28952 0.0
C182 C 0.81815 0.26642 0.17032 0.0
C183 C 0.78701 0.25498 0.22138 0.0
C184 C 0.80037 0.24162 0.30815 0.0
C185 C 0.84441 0.23731 0.34077 0.0
C186 C 0.80501 0.28028 0.0773 0.0
C187 C 0.76828 0.2296 0.36516 0.0
C188 C 0.67018 0.28868 0.15604 0.0
C189 C 0.6519 0.25068 0.11513 0.0
C190 C 0.7145 0.29111 0.18848 0.0
C191 C 0.74059 0.25408 0.18248 0.0
C192 C 0.7221 0.21553 0.14138 0.0
C193 C 0.67798 0.21458 0.10678 0.0
C194 C 0.73326 0.33295 0.23045 0.0
C195 C 0.74864 0.17491 0.13624 0.0
H196 H 0.88616 0.2698 0.16582 0.0
H197 H 0.85487 0.22506 0.4058 0.0
H198 H 0.78804 0.25295 0.03885 0.0
H199 H 0.78219 0.30803 0.07284 0.0
H200 H 0.83309 0.29005 0.0477 0.0
H201 H 0.78394 0.22483 0.4336 0.0
H202 H 0.74339 0.2553 0.36288 0.0
H203 H 0.75154 0.19885 0.34121 0.0
H204 H 0.64974 0.31648 0.16262 0.0
H205 H 0.66349 0.18493 0.07655 0.0
H206 H 0.76065 0.34394 0.20011 0.0
H207 H 0.74602 0.32722 0.29994 0.0
H208 H 0.70908 0.35958 0.22504 0.0
H209 H 0.77571 0.18215 0.10193 0.0
H210 H 0.72929 0.14763 0.10226 0.0
H211 H 0.76289 0.16394 0.20237 0.0
C212 C 0.32579 0.28919 0.12121 0.0
C213 C 0.35953 0.2593 0.12422 0.0
C214 C 0.28714 0.27704 0.14696 0.0
C215 C 0.28254 0.23413 0.17771 0.0
C216 C 0.3145 0.20251 0.17109 0.0
C217 C 0.35273 0.21546 0.14362 0.0
C218 C 0.25309 0.31139 0.14941 0.0
C219 C 0.31015 0.15617 0.20079 0.0
C220 C 0.21813 0.23974 0.3585 0.0
C221 C 0.17671 0.22973 0.3145 0.0
C222 C 0.25383 0.23689 0.31663 0.0
C223 C 0.24762 0.22501 0.22788 0.0
C224 C 0.20642 0.21123 0.18544 0.0
C225 C 0.17149 0.21322 0.22971 0.0
C226 C 0.29752 0.25043 0.36539 0.0
C227 C 0.19794 0.1988 0.0909 0.0
H228 H 0.33103 0.32305 0.10554 0.0
H229 H 0.37889 0.19232 0.14611 0.0
H230 H 0.22067 0.29825 0.12244 0.0
H231 H 0.25298 0.32108 0.21751 0.0
H232 H 0.2589 0.34108 0.11252 0.0
H233 H 0.33499 0.1344 0.18157 0.0
H234 H 0.31355 0.15565 0.27231 0.0
H235 H 0.27778 0.14292 0.17374 0.0
H236 H 0.22223 0.25235 0.42405 0.0
H237 H 0.13944 0.20571 0.19494 0.0
H238 H 0.30601 0.28312 0.34287 0.0
H239 H 0.32263 0.22717 0.35281 0.0
H240 H 0.29817 0.25221 0.43627 0.0
H241 H 0.1905 0.22877 0.05152 0.0
H242 H 0.16982 0.17642 0.07565 0.0
H243 H 0.22629 0.18301 0.07109 0.0
C244 C 0.36763 0.76725 0.71802 0.0
C245 C 0.38027 0.75473 0.80434 0.0
C246 C 0.32381 0.77282 0.68276 0.0
C247 C 0.29227 0.76644 0.7357 0.0
C248 C 0.30542 0.75756 0.82486 0.0
C249 C 0.34926 0.75144 0.85788 0.0
C250 C 0.31109 0.78219 0.58744 0.0
C251 C 0.2731 0.75077 0.88402 0.0
C252 C 0.17394 0.79359 0.65591 0.0
C253 C 0.15785 0.753 0.62331 0.0
C254 C 0.21799 0.799 0.69061 0.0
C255 C 0.24592 0.76254 0.69575 0.0
C256 C 0.22944 0.72139 0.66396 0.0
C257 C 0.18585 0.71737 0.62671 0.0
C258 C 0.23463 0.84351 0.72206 0.0
C259 C 0.25766 0.68127 0.67085 0.0
H260 H 0.39161 0.7695 0.67652 0.0
H261 H 0.35917 0.74205 0.92497 0.0
H262 H 0.29537 0.75288 0.55385 0.0
H263 H 0.28741 0.80922 0.57685 0.0
H264 H 0.33929 0.79095 0.55734 0.0
H265 H 0.28862 0.75092 0.95328 0.0
H266 H 0.24801 0.77645 0.8739 0.0
H267 H 0.2567 0.71883 0.86909 0.0
H268 H 0.15219 0.8211 0.65351 0.0
H269 H 0.17326 0.68576 0.60303 0.0
H270 H 0.26152 0.85331 0.68911 0.0
H271 H 0.24764 0.84241 0.79238 0.0
H272 H 0.20918 0.86889 0.7102 0.0
H273 H 0.28427 0.68625 0.63419 0.0
H274 H 0.23945 0.65144 0.64564 0.0
H275 H 0.27245 0.67558 0.7394 0.0
C276 C 0.52061 0.89009 -0.01053 0.0
C277 C 0.51868 0.89348 0.89991 0.0
C278 C 0.51429 0.92712 0.03903 0.0
C279 C 0.50552 0.96792 -0.00271 0.0
C280 C 0.49991 0.97024 0.90577 0.0
C281 C 0.50686 0.933 0.85843 0.0
C282 C 0.52061 0.92324 0.13619 0.0
C283 C 0.49072 0.01295 0.85806 0.0
C284 C 0.4715 0.07666 0.07395 0.0
C285 C 0.51014 0.0998 0.07848 0.0
C286 C 0.47041 0.03118 0.06016 0.0
C287 C 0.50844 0.00944 0.04749 0.0
C288 C 0.54831 0.03206 0.06345 0.0
C289 C 0.54864 0.07697 0.08023 0.0
C290 C 0.42776 0.0076 0.0481 0.0
C291 C 0.58973 0.0106 0.05009 0.0
H292 H 0.5307 0.85956 0.02159 0.0
H293 H 0.50595 0.93544 0.78924 0.0
H294 H 0.55271 0.93648 0.16517 0.0
H295 H 0.4961 0.94258 0.16238 0.0
H296 H 0.51894 0.88871 0.15706 0.0
H297 H 0.48379 0.00831 0.78675 0.0
H298 H 0.46279 0.0295 0.87795 0.0
H299 H 0.519 0.03502 0.87429 0.0
H300 H 0.44166 0.09445 0.0719 0.0
H301 H 0.57842 0.09523 0.08307 0.0
H302 H 0.4317 0.97406 0.07491 0.0
H303 H 0.41452 0.00477 -0.022 0.0
H304 H 0.40407 0.02547 0.07964 0.0
H305 H 0.59394 0.97872 0.08371 0.0
H306 H 0.61837 0.03137 0.07377 0.0
H307 H 0.58852 0.00429 -0.01994 0.0
C308 C 0.04911 0.93769 0.60758 0.0
C309 C 0.03226 0.89863 0.56929 0.0
C310 C 0.05958 0.97231 0.55726 0.0
C311 C 0.05306 0.96755 0.46607 0.0
C312 C 0.04193 0.926 0.42839 0.0
C313 C 0.03129 0.89177 0.48071 0.0
C314 C 0.07171 0.0157 0.60118 0.0
C315 C 0.03683 0.91913 0.332 0.0
C316 C 1.00044 0.07084 0.37531 0.0
C317 C 0.03641 0.09668 0.37003 0.0
C318 C 0.00494 0.02682 0.39787 0.0
C319 C 0.04656 0.00787 0.41268 0.0
C320 C 0.08215 0.03239 0.39459 0.0
C321 C 0.07687 0.07721 0.37527 0.0
C322 C 0.9659 0.00273 0.41759 0.0
C323 C 0.12644 0.01264 0.40388 0.0
H324 H 0.05039 0.94256 0.67643 0.0
H325 H 0.01841 0.8614 0.45105 0.0
H326 H 0.09939 0.03056 0.57714 0.0
H327 H 0.04412 0.03853 0.58634 0.0
H328 H 0.0803 0.01245 0.67258 0.0
H329 H 0.03692 0.88387 0.31499 0.0
H330 H 0.00584 0.9333 0.29957 0.0
H331 H 0.06301 0.936 0.30607 0.0
H332 H 0.96922 0.08634 0.37112 0.0
H333 H 0.10471 0.0974 0.37092 0.0
H334 H 0.96931 0.998 0.48852 0.0
H335 H 0.96303 0.97003 0.38675 0.0
H336 H 0.93552 0.02086 0.39508 0.0
H337 H 0.14328 0.01614 0.47176 0.0
H338 H 0.14607 0.02959 0.36178 0.0
H339 H 0.12465 0.97732 0.38741 0.0
C340 C 0.06374 0.23551 0.00896 0.0
C341 C 0.02982 0.25073 0.04704 0.0
C342 C 0.05809 0.22933 0.91993 0.0
C343 C 0.01816 0.24058 0.8688 0.0
C344 C 0.98256 0.25188 0.9078 0.0
C345 C 0.9888 0.25645 -0.0023 0.0
C346 C 0.09602 0.21473 0.88032 0.0
C347 C 0.9392 0.26276 0.85471 0.0
C348 C 0.03684 0.29404 0.66365 0.0
C349 C 0.02903 0.25888 0.60657 0.0
C350 C 0.03106 0.28901 0.74933 0.0
C351 C 0.01681 0.24812 0.77636 0.0
C352 C 0.00687 0.2134 0.71711 0.0
C353 C 0.01334 0.21928 0.6327 0.0
C354 C 0.04102 0.32696 0.81141 0.0
C355 C 0.991 0.16959 0.74279 0.0
H356 H 0.09504 0.22978 0.04853 0.0
H357 H 0.96252 0.26733 0.02862 0.0
H358 H 0.08572 0.19165 0.82601 0.0
H359 H 0.11075 0.24361 0.85426 0.0
H360 H 0.12105 0.19864 0.92857 0.0
H361 H 0.91339 0.26279 0.89459 0.0
H362 H 0.94069 0.2957 0.82607 0.0
H363 H 0.93038 0.23923 0.80062 0.0
H364 H 0.04713 0.32516 0.64126 0.0
H365 H 0.00516 0.19308 0.58637 0.0
H366 H 0.06936 0.31896 0.86151 0.0
H367 H 0.01348 0.333 0.84511 0.0
H368 H 0.04808 0.35747 0.77836 0.0
H369 H 0.01886 0.15019 0.77517 0.0
H370 H 0.97468 0.15076 0.6856 0.0
H371 H 0.96838 0.17327 0.78889 0.0
C372 C 0.01827 0.72058 0.95061 0.0
C373 C 0.03239 0.7553 0.90556 0.0
C374 C 0.02834 0.72005 0.04087 0.0
C375 C 0.05143 0.75584 0.08425 0.0
C376 C 0.07197 0.78631 0.03795 0.0
C377 C 0.06178 0.78586 0.94799 0.0
C378 C 0.00884 0.68505 0.0896 0.0
C379 C 0.09911 0.82317 0.08241 0.0
C380 C 0.98566 0.78634 0.25071 0.0
C381 C 0.00965 0.76625 0.32272 0.0
C382 C 0.0023 0.78855 0.17384 0.0
C383 C 0.0423 0.768 0.16962 0.0
C384 C 0.06822 0.75192 0.24505 0.0
C385 C 0.05169 0.75209 0.32131 0.0
C386 C 0.97508 0.80858 0.0949 0.0
C387 C 0.11066 0.72932 0.24466 0.0
H388 H 0.9962 0.69654 0.91648 0.0
H389 H 0.07344 0.8119 0.91135 0.0
H390 H 0.03126 0.676 0.14958 0.0
H391 H 0.97883 0.69763 0.10846 0.0
H392 H 1.00064 0.65528 0.0494 0.0
H393 H 0.12128 0.83627 0.04093 0.0
H394 H 0.07769 0.85004 0.096 0.0
H395 H 0.11831 0.81251 0.14487 0.0
H396 H 0.95331 0.79764 0.2528 0.0
H397 H 0.07003 0.73671 0.37787 0.0
H398 H 0.9597 0.78225 0.05124 0.0
H399 H 0.99529 0.82845 0.0585 0.0
H400 H 0.94928 0.82968 0.11227 0.0
H401 H 0.1051 0.69348 0.2409 0.0
H402 H 0.1334 0.73608 0.30586 0.0
H403 H 0.12595 0.73912 0.1893 0.0
C404 C 0.55976 0.77179 0.17441 0.0
C405 C 0.52771 0.74718 0.12298 0.0
C406 C 0.55148 0.79038 0.25139 0.0
C407 C 0.51087 0.78303 0.27575 0.0
C408 C 0.47647 0.76609 0.21518 0.0
C409 C 0.48555 0.74738 0.13969 0.0
C410 C 0.5874 0.81314 0.3114 0.0
C411 C 0.43146 0.76244 0.23443 0.0
C412 C 0.53178 0.73237 0.49601 0.0
C413 C 0.52835 0.76878 0.54747 0.0
C414 C 0.52285 0.73608 0.40604 0.0
C415 C 0.50989 0.77717 0.3682 0.0
C416 C 0.5022 0.81274 0.42064 0.0
C417 C 0.51236 0.80827 0.51034 0.0
C418 C 0.52993 0.69673 0.35182 0.0
C419 C 0.48548 0.8561 0.38371 0.0
H420 H 0.59155 0.7742 0.15743 0.0
H421 H 0.45993 0.73131 0.09525 0.0
H422 H 0.57488 0.84195 0.342 0.0
H423 H 0.60144 0.79039 0.36368 0.0
H424 H 0.61338 0.82404 0.27684 0.0
H425 H 0.40721 0.76333 0.17379 0.0
H426 H 0.42793 0.73077 0.2667 0.0
H427 H 0.42456 0.78911 0.27791 0.0
H428 H 0.54365 0.70185 0.52597 0.0
H429 H 0.50874 0.83601 0.55161 0.0
H430 H 0.55674 0.70332 0.31637 0.0
H431 H 0.5006 0.68985 0.30329 0.0
H432 H 0.53794 0.66693 0.3915 0.0
H433 H 0.51268 0.87959 0.38868 0.0
H434 H 0.46213 0.86978 0.42197 0.0
H435 H 0.46961 0.8537 0.31498 0.0
C436 C 0.51859 0.21208 0.45855 0.0
C437 C 0.54233 0.24028 0.41489 0.0
C438 C 0.52293 0.21486 0.54899 0.0
C439 C 0.54904 0.24848 0.59346 0.0
C440 C 0.57858 0.27091 0.55116 0.0
C441 C 0.57607 0.26475 0.46221 0.0
C442 C 0.49548 0.18596 0.5951 0.0
C443 C 0.60782 0.30637 0.59567 0.0
C444 C 0.48239 0.29748 0.74714 0.0
C445 C 0.50751 0.28756 0.82712 0.0
C446 C 0.49852 0.28991 0.67049 0.0
C447 C 0.53786 0.26668 0.67435 0.0
C448 C 0.56413 0.25921 0.75547 0.0
C449 C 0.54989 0.27338 0.83009 0.0
C450 C 0.47208 0.30415 0.58545 0.0
C451 C 0.60433 0.23161 0.76705 0.0
H452 H 0.49327 0.19199 0.42218 0.0
H453 H 0.59534 0.28529 0.42755 0.0
H454 H 0.51149 0.17987 0.66287 0.0
H455 H 0.46419 0.20209 0.59671 0.0
H456 H 0.48871 0.15417 0.56104 0.0
H457 H 0.6288 0.32048 0.55283 0.0
H458 H 0.58812 0.33301 0.61657 0.0
H459 H 0.62878 0.29347 0.65415 0.0
H460 H 0.44977 0.30923 0.74423 0.0
H461 H 0.56991 0.26738 0.89172 0.0
H462 H 0.45142 0.27671 0.55625 0.0
H463 H 0.49309 0.3141 0.53905 0.0
H464 H 0.45074 0.33193 0.59461 0.0
H465 H 0.59757 0.20019 0.79733 0.0
H466 H 0.63063 0.24798 0.81247 0.0
H467 H 0.61566 0.22397 0.70591 0.0
loop_
_geom_bond_atom_site_label_1
_geom_bond_atom_site_label_2
_geom_bond_distance
_geom_bond_site_symmetry_2
_ccdc_geom_bond_type
O0 Mg1 1.990 1_455 S
O0 C14 1.253 . S
Mg1 O0 1.990 1_655 S
Mg1 O4 2.180 1_655 S
Mg1 O5 2.117 1_655 S
Mg1 O19 2.030 . S
O2 Mg3 2.072 . S
O2 C14 1.260 . S
Mg3 O2 2.072 . S
Mg3 O4 2.099 . S
Mg3 O6 2.079 . S
Mg3 O7 2.072 . S
Mg3 O9 2.099 . S
Mg3 O20 2.079 1_455 S
O4 Mg1 2.180 1_455 S
O4 Mg3 2.099 . S
O4 C15 1.279 . S
O5 Mg1 2.117 1_455 S
O5 C15 1.250 . S
O6 Mg3 2.079 . S
O6 C16 1.264 . S
O7 Mg3 2.072 . S
O7 C17 1.260 . S
Mg8 O9 2.180 . S
Mg8 O10 2.030 . S
Mg8 O11 1.990 . S
Mg8 O12 2.117 . S
O9 Mg3 2.099 . S
O9 Mg8 2.180 . S
O9 C18 1.279 . S
O10 Mg8 2.030 . S
O10 C16 1.248 . S
O11 Mg8 1.990 . S
O11 C17 1.253 . S
O12 Mg8 2.117 . S
O12 C18 1.250 . S
C13 O19 1.248 . S
C13 O20 1.264 . S
C14 O0 1.253 . S
C14 O2 1.260 . S
C15 O4 1.279 . S
C15 O5 1.250 . S
C16 O6 1.264 . S
C16 O10 1.248 . S
C17 O7 1.260 . S
C17 O11 1.253 . S
C18 O9 1.279 . S
C18 O12 1.250 . S
O19 Mg1 2.030 . S
O19 C13 1.248 . S
O20 Mg3 2.079 1_655 S
O20 C13 1.264 . S
O21 Mg22 1.990 . S
O21 C35 1.253 . S
Mg22 O21 1.990 . S
Mg22 O25 2.180 . S
Mg22 O26 2.117 . S
Mg22 O40 2.030 . S
O23 Mg24 2.072 . S
O23 C35 1.260 . S
Mg24 O23 2.072 . S
Mg24 O25 2.099 . S
Mg24 O27 2.079 . S
Mg24 O28 2.072 1_455 S
Mg24 O30 2.099 . S
Mg24 O41 2.079 . S
O25 Mg22 2.180 . S
O25 Mg24 2.099 . S
O25 C36 1.279 . S
O26 Mg22 2.117 . S
O26 C36 1.250 . S
O27 Mg24 2.079 . S
O27 C37 1.264 . S
O28 Mg24 2.072 1_655 S
O28 C38 1.260 . S
Mg29 O30 2.180 1_655 S
Mg29 O31 2.030 . S
Mg29 O32 1.990 . S
Mg29 O33 2.117 . S
O30 Mg24 2.099 . S
O30 Mg29 2.180 1_455 S
O30 C39 1.279 . S
O31 Mg29 2.030 . S
O31 C37 1.248 1_655 S
O32 Mg29 1.990 . S
O32 C38 1.253 . S
O33 Mg29 2.117 . S
O33 C39 1.250 1_655 S
C34 O40 1.248 . S
C34 O41 1.264 . S
C35 O21 1.253 . S
C35 O23 1.260 . S
C36 O25 1.279 . S
C36 O26 1.250 . S
C37 O27 1.264 . S
C37 O31 1.248 1_455 S
C38 O28 1.260 . S
C38 O32 1.253 . S
C39 O30 1.279 . S
C39 O33 1.250 1_455 S
O40 Mg22 2.030 . S
O40 C34 1.248 . S
O41 Mg24 2.079 . S
O41 C34 1.264 . S
O42 Mg43 1.990 1_554 S
O42 C56 1.253 . S
Mg43 O42 1.990 1_556 S
Mg43 O46 2.180 . S
Mg43 O47 2.117 . S
Mg43 O61 2.030 . S
O44 Mg45 2.072 . S
O44 C56 1.260 1_556 S
Mg45 O44 2.072 . S
Mg45 O46 2.099 . S
Mg45 O48 2.079 . S
Mg45 O49 2.072 . S
Mg45 O51 2.099 . S
Mg45 O62 2.079 . S
O46 Mg43 2.180 . S
O46 Mg45 2.099 . S
O46 C57 1.279 . S
O47 Mg43 2.117 . S
O47 C57 1.250 . S
O48 Mg45 2.079 . S
O48 C58 1.264 . S
O49 Mg45 2.072 . S
O49 C59 1.260 . S
Mg50 O51 2.180 . S
Mg50 O52 2.030 . S
Mg50 O53 1.990 . S
Mg50 O54 2.117 . S
O51 Mg45 2.099 . S
O51 Mg50 2.180 . S
O51 C60 1.279 . S
O52 Mg50 2.030 . S
O52 C58 1.248 . S
O53 Mg50 1.990 . S
O53 C59 1.253 . S
O54 Mg50 2.117 . S
O54 C60 1.250 . S
C55 O61 1.248 . S
C55 O62 1.264 . S
C56 O42 1.253 . S
C56 O44 1.260 1_554 S
C57 O46 1.279 . S
C57 O47 1.250 . S
C58 O48 1.264 . S
C58 O52 1.248 . S
C59 O49 1.260 . S
C59 O53 1.253 . S
C60 O51 1.279 . S
C60 O54 1.250 . S
O61 Mg43 2.030 . S
O61 C55 1.248 . S
O62 Mg45 2.079 . S
O62 C55 1.264 . S
O63 Mg64 1.990 1_556 S
O63 C77 1.253 . S
Mg64 O63 1.990 1_554 S
Mg64 O67 2.180 . S
Mg64 O68 2.117 . S
Mg64 O82 2.030 . S
O65 Mg66 2.072 . S
O65 C77 1.260 1_554 S
Mg66 O65 2.072 . S
Mg66 O67 2.099 . S
Mg66 O69 2.079 . S
Mg66 O70 2.072 . S
Mg66 O72 2.099 . S
Mg66 O83 2.079 . S
O67 Mg64 2.180 . S
O67 Mg66 2.099 . S
O67 C78 1.279 . S
O68 Mg64 2.117 . S
O68 C78 1.250 . S
O69 Mg66 2.079 . S
O69 C79 1.264 . S
O70 Mg66 2.072 . S
O70 C80 1.260 . S
Mg71 O72 2.180 . S
Mg71 O73 2.030 . S
Mg71 O74 1.990 . S
Mg71 O75 2.117 . S
O72 Mg66 2.099 . S
O72 Mg71 2.180 . S
O72 C81 1.279 . S
O73 Mg71 2.030 . S
O73 C79 1.248 . S
O74 Mg71 1.990 . S
O74 C80 1.253 . S
O75 Mg71 2.117 . S
O75 C81 1.250 . S
C76 O82 1.248 . S
C76 O83 1.264 . S
C77 O63 1.253 . S
C77 O65 1.260 1_556 S
C78 O67 1.279 . S
C78 O68 1.250 . S
C79 O69 1.264 . S
C79 O73 1.248 . S
C80 O70 1.260 . S
C80 O74 1.253 . S
C81 O72 1.279 . S
C81 O75 1.250 . S
O82 Mg64 2.030 . S
O82 C76 1.248 . S
O83 Mg66 2.079 . S
O83 C76 1.264 . S
C84 C85 1.391 . S
C84 C86 1.394 . S
C84 H100 0.931 . S
C85 C84 1.391 . S
C85 C89 1.376 1_455 S
C86 C84 1.394 . S
C86 C87 1.369 . S
C86 C90 1.531 . S
C87 C86 1.369 . S
C87 C88 1.410 1_455 S
C87 C95 1.503 . S
C88 C87 1.410 1_655 S
C88 C89 1.392 . S
C88 C91 1.511 . S
C89 C85 1.376 1_655 S
C89 C88 1.392 . S
C89 H101 0.929 . S
C90 C86 1.531 . S
C90 H102 0.960 . S
C90 H103 0.962 . S
C90 H104 0.960 . S
C91 C88 1.511 . S
C91 H105 0.961 . S
C91 H106 0.961 . S
C91 H107 0.961 . S
C92 C93 1.370 . S
C92 C94 1.363 . S
C92 H108 0.931 . S
C93 C92 1.370 . S
C93 C97 1.408 1_455 S
C94 C92 1.363 . S
C94 C95 1.370 . S
C94 C98 1.524 . S
C95 C87 1.503 . S
C95 C94 1.370 . S
C95 C96 1.403 1_455 S
C96 C95 1.403 1_655 S
C96 C97 1.404 . S
C96 C99 1.539 . S
C97 C93 1.408 1_655 S
C97 C96 1.404 . S
C97 H109 0.930 . S
C98 C94 1.524 . S
C98 H110 0.956 . S
C98 H111 0.961 . S
C98 H112 0.961 . S
C99 C96 1.539 . S
C99 H113 0.958 . S
C99 H114 0.961 . S
C99 H115 0.960 . S
H100 C84 0.931 . S
H101 C89 0.929 . S
H102 C90 0.960 . S
H103 C90 0.962 . S
H104 C90 0.960 . S
H105 C91 0.961 . S
H106 C91 0.961 . S
H107 C91 0.961 . S
H108 C92 0.931 . S
H109 C97 0.930 . S
H110 C98 0.956 . S
H111 C98 0.961 . S
H112 C98 0.961 . S
H113 C99 0.958 . S
H114 C99 0.961 . S
H115 C99 0.960 . S
C116 C117 1.391 . S
C116 C118 1.394 . S
C116 H132 0.931 . S
C117 C116 1.391 . S
C117 C121 1.376 . S
C118 C116 1.394 . S
C118 C119 1.369 . S
C118 C122 1.531 . S
C119 C118 1.369 . S
C119 C120 1.410 . S
C119 C127 1.503 . S
C120 C119 1.410 . S
C120 C121 1.392 . S
C120 C123 1.511 . S
C121 C117 1.376 . S
C121 C120 1.392 . S
C121 H133 0.929 . S
C122 C118 1.531 . S
C122 H134 0.960 . S
C122 H135 0.962 . S
C122 H136 0.960 . S
C123 C120 1.511 . S
C123 H137 0.961 . S
C123 H138 0.961 . S
C123 H139 0.961 . S
C124 C125 1.370 . S
C124 C126 1.363 . S
C124 H140 0.931 . S
C125 C124 1.370 . S
C125 C129 1.408 . S
C126 C124 1.363 . S
C126 C127 1.370 . S
C126 C130 1.524 . S
C127 C119 1.503 . S
C127 C126 1.370 . S
C127 C128 1.403 . S
C128 C127 1.403 . S
C128 C129 1.404 . S
C128 C131 1.539 . S
C129 C125 1.408 . S
C129 C128 1.404 . S
C129 H141 0.930 . S
C130 C126 1.524 . S
C130 H142 0.956 . S
C130 H143 0.961 . S
C130 H144 0.961 . S
C131 C128 1.539 . S
C131 H145 0.958 . S
C131 H146 0.961 . S
C131 H147 0.960 . S
H132 C116 0.931 . S
H133 C121 0.929 . S
H134 C122 0.960 . S
H135 C122 0.962 . S
H136 C122 0.960 . S
H137 C123 0.961 . S
H138 C123 0.961 . S
H139 C123 0.961 . S
H140 C124 0.931 . S
H141 C129 0.930 . S
H142 C130 0.956 . S
H143 C130 0.961 . S
H144 C130 0.961 . S
H145 C131 0.958 . S
H146 C131 0.961 . S
H147 C131 0.960 . S
C148 C149 1.391 . S
C148 C150 1.394 . S
C148 H164 0.931 . S
C149 C148 1.391 . S
C149 C153 1.376 . S
C150 C148 1.394 . S
C150 C151 1.369 1_554 S
C150 C154 1.531 . S
C151 C150 1.369 1_556 S
C151 C152 1.410 . S
C151 C159 1.503 . S
C152 C151 1.410 . S
C152 C153 1.392 1_556 S
C152 C155 1.511 . S
C153 C149 1.376 . S
C153 C152 1.392 1_554 S
C153 H165 0.929 . S
C154 C150 1.531 . S
C154 H166 0.960 1_554 S
C154 H167 0.962 . S
C154 H168 0.960 1_554 S
C155 C152 1.511 . S
C155 H169 0.961 . S
C155 H170 0.961 . S
C155 H171 0.961 . S
C156 C157 1.370 . S
C156 C158 1.363 1_556 S
C156 H172 0.931 1_556 S
C157 C156 1.370 . S
C157 C161 1.408 . S
C158 C156 1.363 1_554 S
C158 C159 1.370 1_554 S
C158 C162 1.524 . S
C159 C151 1.503 . S
C159 C158 1.370 1_556 S
C159 C160 1.403 . S
C160 C159 1.403 . S
C160 C161 1.404 . S
C160 C163 1.539 . S
C161 C157 1.408 . S
C161 C160 1.404 . S
C161 H173 0.930 . S
C162 C158 1.524 . S
C162 H174 0.956 . S
C162 H175 0.961 . S
C162 H176 0.961 . S
C163 C160 1.539 . S
C163 H177 0.958 . S
C163 H178 0.961 . S
C163 H179 0.960 . S
H164 C148 0.931 . S
H165 C153 0.929 . S
H166 C154 0.960 1_556 S
H167 C154 0.962 . S
H168 C154 0.960 1_556 S
H169 C155 0.961 . S
H170 C155 0.961 . S
H171 C155 0.961 . S
H172 C156 0.931 1_554 S
H173 C161 0.930 . S
H174 C162 0.956 . S
H175 C162 0.961 . S
H176 C162 0.961 . S
H177 C163 0.958 . S
H178 C163 0.961 . S
H179 C163 0.960 . S
C180 C181 1.391 . S
C180 C182 1.394 . S
C180 H196 0.931 . S
C181 C180 1.391 . S
C181 C185 1.376 . S
C182 C180 1.394 . S
C182 C183 1.369 . S
C182 C186 1.531 . S
C183 C182 1.369 . S
C183 C184 1.410 . S
C183 C191 1.503 . S
C184 C183 1.410 . S
C184 C185 1.392 . S
C184 C187 1.511 . S
C185 C181 1.376 . S
C185 C184 1.392 . S
C185 H197 0.929 . S
C186 C182 1.531 . S
C186 H198 0.960 . S
C186 H199 0.962 . S
C186 H200 0.960 . S
C187 C184 1.511 . S
C187 H201 0.961 . S
C187 H202 0.961 . S
C187 H203 0.961 . S
C188 C189 1.370 . S
C188 C190 1.363 . S
C188 H204 0.931 . S
C189 C188 1.370 . S
C189 C193 1.408 . S
C190 C188 1.363 . S
C190 C191 1.370 . S
C190 C194 1.524 . S
C191 C183 1.503 . S
C191 C190 1.370 . S
C191 C192 1.403 . S
C192 C191 1.403 . S
C192 C193 1.404 . S
C192 C195 1.539 . S
C193 C189 1.408 . S
C193 C192 1.404 . S
C193 H205 0.930 . S
C194 C190 1.524 . S
C194 H206 0.956 . S
C194 H207 0.961 . S
C194 H208 0.961 . S
C195 C192 1.539 . S
C195 H209 0.958 . S
C195 H210 0.961 . S
C195 H211 0.960 . S
H196 C180 0.931 . S
H197 C185 0.929 . S
H198 C186 0.960 . S
H199 C186 0.962 . S
H200 C186 0.960 . S
H201 C187 0.961 . S
H202 C187 0.961 . S
H203 C187 0.961 . S
H204 C188 0.931 . S
H205 C193 0.930 . S
H206 C194 0.956 . S
H207 C194 0.961 . S
H208 C194 0.961 . S
H209 C195 0.958 . S
H210 C195 0.961 . S
H211 C195 0.960 . S
C212 C213 1.391 . S
C212 C214 1.394 . S
C212 H228 0.931 . S
C213 C212 1.391 . S
C213 C217 1.376 . S
C214 C212 1.394 . S
C214 C215 1.369 . S
C214 C218 1.531 . S
C215 C214 1.369 . S
C215 C216 1.410 . S
C215 C223 1.503 . S
C216 C215 1.410 . S
C216 C217 1.392 . S
C216 C219 1.511 . S
C217 C213 1.376 . S
C217 C216 1.392 . S
C217 H229 0.929 . S
C218 C214 1.531 . S
C218 H230 0.960 . S
C218 H231 0.962 . S
C218 H232 0.960 . S
C219 C216 1.511 . S
C219 H233 0.961 . S
C219 H234 0.961 . S
C219 H235 0.961 . S
C220 C221 1.370 . S
C220 C222 1.363 . S
C220 H236 0.931 . S
C221 C220 1.370 . S
C221 C225 1.408 . S
C222 C220 1.363 . S
C222 C223 1.370 . S
C222 C226 1.524 . S
C223 C215 1.503 . S
C223 C222 1.370 . S
C223 C224 1.403 . S
C224 C223 1.403 . S
C224 C225 1.404 . S
C224 C227 1.539 . S
C225 C221 1.408 . S
C225 C224 1.404 . S
C225 H237 0.930 . S
C226 C222 1.524 . S
C226 H238 0.956 . S
C226 H239 0.961 . S
C226 H240 0.961 . S
C227 C224 1.539 . S
C227 H241 0.958 . S
C227 H242 0.961 . S
C227 H243 0.960 . S
H228 C212 0.931 . S
H229 C217 0.929 . S
H230 C218 0.960 . S
H231 C218 0.962 . S
H232 C218 0.960 . S
H233 C219 0.961 . S
H234 C219 0.961 . S
H235 C219 0.961 . S
H236 C220 0.931 . S
H237 C225 0.930 . S
H238 C226 0.956 . S
H239 C226 0.961 . S
H240 C226 0.961 . S
H241 C227 0.958 . S
H242 C227 0.961 . S
H243 C227 0.960 . S
C244 C245 1.391 . S
C244 C246 1.394 . S
C244 H260 0.931 . S
C245 C244 1.391 . S
C245 C249 1.376 . S
C246 C244 1.394 . S
C246 C247 1.369 . S
C246 C250 1.531 . S
C247 C246 1.369 . S
C247 C248 1.410 . S
C247 C255 1.503 . S
C248 C247 1.410 . S
C248 C249 1.392 . S
C248 C251 1.511 . S
C249 C245 1.376 . S
C249 C248 1.392 . S
C249 H261 0.929 . S
C250 C246 1.531 . S
C250 H262 0.960 . S
C250 H263 0.962 . S
C250 H264 0.960 . S
C251 C248 1.511 . S
C251 H265 0.961 . S
C251 H266 0.961 . S
C251 H267 0.961 . S
C252 C253 1.370 . S
C252 C254 1.363 . S
C252 H268 0.931 . S
C253 C252 1.370 . S
C253 C257 1.408 . S
C254 C252 1.363 . S
C254 C255 1.370 . S
C254 C258 1.524 . S
C255 C247 1.503 . S
C255 C254 1.370 . S
C255 C256 1.403 . S
C256 C255 1.403 . S
C256 C257 1.404 . S
C256 C259 1.539 . S
C257 C253 1.408 . S
C257 C256 1.404 . S
C257 H269 0.930 . S
C258 C254 1.524 . S
C258 H270 0.956 . S
C258 H271 0.961 . S
C258 H272 0.961 . S
C259 C256 1.539 . S
C259 H273 0.958 . S
C259 H274 0.961 . S
C259 H275 0.960 . S
H260 C244 0.931 . S
H261 C249 0.929 . S
H262 C250 0.960 . S
H263 C250 0.962 . S
H264 C250 0.960 . S
H265 C251 0.961 . S
H266 C251 0.961 . S
H267 C251 0.961 . S
H268 C252 0.931 . S
H269 C257 0.930 . S
H270 C258 0.956 . S
H271 C258 0.961 . S
H272 C258 0.961 . S
H273 C259 0.958 . S
H274 C259 0.961 . S
H275 C259 0.960 . S
C276 C277 1.391 1_554 S
C276 C278 1.394 . S
C276 H292 0.931 . S
C277 C276 1.391 1_556 S
C277 C281 1.376 . S
C278 C276 1.394 . S
C278 C279 1.369 1_554 S
C278 C282 1.531 . S
C279 C278 1.369 1_556 S
C279 C280 1.410 . S
C279 C287 1.503 1_566 S
C280 C279 1.410 . S
C280 C281 1.392 . S
C280 C283 1.511 1_565 S
C281 C277 1.376 . S
C281 C280 1.392 . S
C281 H293 0.929 . S
C282 C278 1.531 . S
C282 H294 0.960 . S
C282 H295 0.962 . S
C282 H296 0.960 . S
C283 C280 1.511 1_545 S
C283 H297 0.952 1_545 S
C283 H298 0.961 . S
C283 H299 0.961 . S
C284 C285 1.370 . S
C284 C286 1.363 . S
C284 H300 0.931 . S
C285 C284 1.370 . S
C285 C289 1.408 . S
C286 C284 1.363 . S
C286 C287 1.370 . S
C286 C290 1.524 . S
C287 C279 1.503 1_544 S
C287 C286 1.370 . S
C287 C288 1.403 . S
C288 C287 1.403 . S
C288 C289 1.404 . S
C288 C291 1.539 . S
C289 C285 1.408 . S
C289 C288 1.404 . S
C289 H301 0.930 . S
C290 C286 1.524 . S
C290 H302 0.956 1_545 S
C290 H303 0.961 1_544 S
C290 H304 0.961 . S
C291 C288 1.539 . S
C291 H305 0.958 . S
C291 H306 0.961 1_554 S
C291 H307 0.960 1_554 S
H292 C276 0.931 . S
H293 C281 0.929 . S
H294 C282 0.960 . S
H295 C282 0.962 . S
H296 C282 0.960 . S
H297 C283 0.952 1_565 S
H298 C283 0.961 . S
H299 C283 0.961 . S
H300 C284 0.931 . S
H301 C289 0.930 . S
H302 C290 0.956 1_565 S
H303 C290 0.961 1_566 S
H304 C290 0.961 . S
H305 C291 0.958 . S
H306 C291 0.961 1_556 S
H307 C291 0.960 1_556 S
C308 C309 1.391 . S
C308 C310 1.394 . S
C308 H324 0.931 . S
C309 C308 1.391 . S
C309 C313 1.376 . S
C310 C308 1.394 . S
C310 C311 1.369 . S
C310 C314 1.531 1_565 S
C311 C310 1.369 . S
C311 C312 1.410 . S
C311 C319 1.503 1_565 S
C312 C311 1.410 . S
C312 C313 1.392 . S
C312 C315 1.511 . S
C313 C309 1.376 . S
C313 C312 1.392 . S
C313 H325 0.929 . S
C314 C310 1.531 1_545 S
C314 H326 0.960 . S
C314 H327 0.962 . S
C314 H328 0.960 1_545 S
C315 C312 1.511 . S
C315 H329 0.961 1_455 S
C315 H330 0.961 . S
C315 H331 0.961 . S
C316 C317 1.370 . S
C316 C318 1.363 . S
C316 H332 0.931 1_455 S
C317 C316 1.370 . S
C317 C321 1.408 . S
C318 C316 1.363 . S
C318 C319 1.370 . S
C318 C322 1.524 1_455 S
C319 C311 1.503 1_545 S
C319 C318 1.370 . S
C319 C320 1.403 . S
C320 C319 1.403 . S
C320 C321 1.404 . S
C320 C323 1.539 . S
C321 C317 1.408 . S
C321 C320 1.404 . S
C321 H333 0.930 . S
C322 C318 1.524 1_655 S
C322 H334 0.956 . S
C322 H335 0.961 . S
C322 H336 0.961 . S
C323 C320 1.539 . S
C323 H337 0.958 . S
C323 H338 0.961 . S
C323 H339 0.960 1_545 S
H324 C308 0.931 . S
H325 C313 0.929 . S
H326 C314 0.960 . S
H327 C314 0.962 . S
H328 C314 0.960 1_565 S
H329 C315 0.961 1_655 S
H330 C315 0.961 . S
H331 C315 0.961 . S
H332 C316 0.931 1_655 S
H333 C321 0.930 . S
H334 C322 0.956 . S
H335 C322 0.961 . S
H336 C322 0.961 . S
H337 C323 0.958 . S
H338 C323 0.961 . S
H339 C323 0.960 1_565 S
C340 C341 1.391 . S
C340 C342 1.394 1_554 S
C340 H356 0.931 . S
C341 C340 1.391 . S
C341 C345 1.376 1_455 S
C342 C340 1.394 1_556 S
C342 C343 1.369 . S
C342 C346 1.531 . S
C343 C342 1.369 . S
C343 C344 1.410 1_455 S
C343 C351 1.503 . S
C344 C343 1.410 1_655 S
C344 C345 1.392 1_556 S
C344 C347 1.511 . S
C345 C341 1.376 1_655 S
C345 C344 1.392 1_554 S
C345 H357 0.929 . S
C346 C342 1.531 . S
C346 H358 0.960 . S
C346 H359 0.962 . S
C346 H360 0.960 . S
C347 C344 1.511 . S
C347 H361 0.961 . S
C347 H362 0.961 . S
C347 H363 0.961 . S
C348 C349 1.370 . S
C348 C350 1.363 . S
C348 H364 0.931 . S
C349 C348 1.370 . S
C349 C353 1.408 . S
C350 C348 1.363 . S
C350 C351 1.370 . S
C350 C354 1.524 . S
C351 C343 1.503 . S
C351 C350 1.370 . S
C351 C352 1.403 . S
C352 C351 1.403 . S
C352 C353 1.404 . S
C352 C355 1.539 1_455 S
C353 C349 1.408 . S
C353 C352 1.404 . S
C353 H365 0.930 . S
C354 C350 1.524 . S
C354 H366 0.956 . S
C354 H367 0.961 . S
C354 H368 0.961 . S
C355 C352 1.539 1_655 S
C355 H369 0.958 1_655 S
C355 H370 0.961 . S
C355 H371 0.960 . S
H356 C340 0.931 . S
H357 C345 0.929 . S
H358 C346 0.960 . S
H359 C346 0.962 . S
H360 C346 0.960 . S
H361 C347 0.961 . S
H362 C347 0.961 . S
H363 C347 0.961 . S
H364 C348 0.931 . S
H365 C353 0.930 . S
H366 C354 0.956 . S
H367 C354 0.961 . S
H368 C354 0.961 . S
H369 C355 0.958 1_455 S
H370 C355 0.961 . S
H371 C355 0.960 . S
C372 C373 1.391 . S
C372 C374 1.394 1_556 S
C372 H388 0.931 1_455 S
C373 C372 1.391 . S
C373 C377 1.376 . S
C374 C372 1.394 1_554 S
C374 C375 1.369 . S
C374 C378 1.531 1_455 S
C375 C374 1.369 . S
C375 C376 1.410 . S
C375 C383 1.503 . S
C376 C375 1.410 . S
C376 C377 1.392 1_554 S
C376 C379 1.511 . S
C377 C373 1.376 . S
C377 C376 1.392 1_556 S
C377 H389 0.929 . S
C378 C374 1.531 1_655 S
C378 H390 0.960 . S
C378 H391 0.962 . S
C378 H392 0.960 . S
C379 C376 1.511 . S
C379 H393 0.961 . S
C379 H394 0.961 . S
C379 H395 0.961 . S
C380 C381 1.370 1_655 S
C380 C382 1.363 . S
C380 H396 0.931 . S
C381 C380 1.370 1_455 S
C381 C385 1.408 . S
C382 C380 1.363 . S
C382 C383 1.370 1_655 S
C382 C386 1.524 . S
C383 C375 1.503 . S
C383 C382 1.370 1_455 S
C383 C384 1.403 . S
C384 C383 1.403 . S
C384 C385 1.404 . S
C384 C387 1.539 . S
C385 C381 1.408 . S
C385 C384 1.404 . S
C385 H397 0.930 . S
C386 C382 1.524 . S
C386 H398 0.956 . S
C386 H399 0.961 . S
C386 H400 0.961 . S
C387 C384 1.539 . S
C387 H401 0.958 . S
C387 H402 0.961 . S
C387 H403 0.960 . S
H388 C372 0.931 1_655 S
H389 C377 0.929 . S
H390 C378 0.960 . S
H391 C378 0.962 . S
H392 C378 0.960 . S
H393 C379 0.961 . S
H394 C379 0.961 . S
H395 C379 0.961 . S
H396 C380 0.931 . S
H397 C385 0.930 . S
H398 C386 0.956 . S
H399 C386 0.961 . S
H400 C386 0.961 . S
H401 C387 0.958 . S
H402 C387 0.961 . S
H403 C387 0.960 . S
C404 C405 1.391 . S
C404 C406 1.394 . S
C404 H420 0.931 . S
C405 C404 1.391 . S
C405 C409 1.376 . S
C406 C404 1.394 . S
C406 C407 1.369 . S
C406 C410 1.531 . S
C407 C406 1.369 . S
C407 C408 1.410 . S
C407 C415 1.503 . S
C408 C407 1.410 . S
C408 C409 1.392 . S
C408 C411 1.511 . S
C409 C405 1.376 . S
C409 C408 1.392 . S
C409 H421 0.929 . S
C410 C406 1.531 . S
C410 H422 0.960 . S
C410 H423 0.962 . S
C410 H424 0.960 . S
C411 C408 1.511 . S
C411 H425 0.961 . S
C411 H426 0.961 . S
C411 H427 0.961 . S
C412 C413 1.370 . S
C412 C414 1.363 . S
C412 H428 0.931 . S
C413 C412 1.370 . S
C413 C417 1.408 . S
C414 C412 1.363 . S
C414 C415 1.370 . S
C414 C418 1.524 . S
C415 C407 1.503 . S
C415 C414 1.370 . S
C415 C416 1.403 . S
C416 C415 1.403 . S
C416 C417 1.404 . S
C416 C419 1.539 . S
C417 C413 1.408 . S
C417 C416 1.404 . S
C417 H429 0.930 . S
C418 C414 1.524 . S
C418 H430 0.956 . S
C418 H431 0.961 . S
C418 H432 0.961 . S
C419 C416 1.539 . S
C419 H433 0.958 . S
C419 H434 0.961 . S
C419 H435 0.960 . S
H420 C404 0.931 . S
H421 C409 0.929 . S
H422 C410 0.960 . S
H423 C410 0.962 . S
H424 C410 0.960 . S
H425 C411 0.961 . S
H426 C411 0.961 . S
H427 C411 0.961 . S
H428 C412 0.931 . S
H429 C417 0.930 . S
H430 C418 0.956 . S
H431 C418 0.961 . S
H432 C418 0.961 . S
H433 C419 0.958 . S
H434 C419 0.961 . S
H435 C419 0.960 . S
C436 C437 1.391 . S
C436 C438 1.394 . S
C436 H452 0.931 . S
C437 C436 1.391 . S
C437 C441 1.376 . S
C438 C436 1.394 . S
C438 C439 1.369 . S
C438 C442 1.531 . S
C439 C438 1.369 . S
C439 C440 1.410 . S
C439 C447 1.503 . S
C440 C439 1.410 . S
C440 C441 1.392 . S
C440 C443 1.511 . S
C441 C437 1.376 . S
C441 C440 1.392 . S
C441 H453 0.929 . S
C442 C438 1.531 . S
C442 H454 0.960 . S
C442 H455 0.962 . S
C442 H456 0.960 . S
C443 C440 1.511 . S
C443 H457 0.961 . S
C443 H458 0.961 . S
C443 H459 0.961 . S
C444 C445 1.370 . S
C444 C446 1.363 . S
C444 H460 0.931 . S
C445 C444 1.370 . S
C445 C449 1.408 . S
C446 C444 1.363 . S
C446 C447 1.370 . S
C446 C450 1.524 . S
C447 C439 1.503 . S
C447 C446 1.370 . S
C447 C448 1.403 . S
C448 C447 1.403 . S
C448 C449 1.404 . S
C448 C451 1.539 . S
C449 C445 1.408 . S
C449 C448 1.404 . S
C449 H461 0.930 . S
C450 C446 1.524 . S
C450 H462 0.956 . S
C450 H463 0.961 . S
C450 H464 0.961 . S
C451 C448 1.539 . S
C451 H465 0.958 . S
C451 H466 0.961 . S
C451 H467 0.960 . S
H452 C436 0.931 . S
H453 C441 0.929 . S
H454 C442 0.960 . S
H455 C442 0.962 . S
H456 C442 0.960 . S
H457 C443 0.961 . S
H458 C443 0.961 . S
H459 C443 0.961 . S
H460 C444 0.931 . S
H461 C449 0.930 . S
H462 C450 0.956 . S
H463 C450 0.961 . S
H464 C450 0.961 . S
H465 C451 0.958 . S
H466 C451 0.961 . S
H467 C451 0.960 . S
C85 C18 1.678 . S
C93 C36 1.351 . S
C117 C59 1.994 . S
C125 C38 1.982 . S
C149 C81 1.690 . S
C157 C57 1.362 . S
C181 C13 1.324 . S
C189 C76 1.345 . S
C213 C80 2.006 . S
C221 C17 1.986 . S
C245 C55 1.324 . S
C253 C34 1.345 . S
C277 C60 1.630 . S
C285 C78 1.319 . S
C309 C39 1.702 . S
C317 C15 1.370 . S
C341 C16 0.988 . S
C349 C14 0.907 . S
C373 C37 0.983 . S
C381 C35 0.918 . S
C405 C56 0.982 . S
C413 C58 0.925 . S
C437 C79 0.986 . S
C445 C77 0.915 . S
