# Generated by pormake.
# Topology vmv, (8)-cn, num edge types: 1
# Building blocks:
#     Node 0, Type 0, BuildingBlock: TAGTUT_clean_sbu_1, # of connection points: 8
#     Node 1, Type 0, BuildingBlock: TAGTUT_clean_sbu_1, # of connection points: 8
#     Node 2, Type 0, BuildingBlock: TAGTUT_clean_sbu_1, # of connection points: 8
#     Node 3, Type 0, BuildingBlock: TAGTUT_clean_sbu_1, # of connection points: 8
#     Edge 4, Type (0, 0), BuildingBlock: ZUJKAS_clean_linker_0, # of connection points: 2
#     Edge 5, Type (0, 0), BuildingBlock: ZUJKAS_clean_linker_0, # of connection points: 2
#     Edge 6, Type (0, 0), BuildingBlock: ZUJKAS_clean_linker_0, # of connection points: 2
#     Edge 7, Type (0, 0), BuildingBlock: ZUJKAS_clean_linker_0, # of connection points: 2
#     Edge 8, Type (0, 0), BuildingBlock: ZUJKAS_clean_linker_0, # of connection points: 2
#     Edge 9, Type (0, 0), BuildingBlock: ZUJKAS_clean_linker_0, # of connection points: 2
#     Edge 10, Type (0, 0), BuildingBlock: ZUJKAS_clean_linker_0, # of connection points: 2
#     Edge 11, Type (0, 0), BuildingBlock: ZUJKAS_clean_linker_0, # of connection points: 2
#     Edge 12, Type (0, 0), BuildingBlock: ZUJKAS_clean_linker_0, # of connection points: 2
#     Edge 13, Type (0, 0), BuildingBlock: ZUJKAS_clean_linker_0, # of connection points: 2
#     Edge 14, Type (0, 0), BuildingBlock: ZUJKAS_clean_linker_0, # of connection points: 2
#     Edge 15, Type (0, 0), BuildingBlock: ZUJKAS_clean_linker_0, # of connection points: 2
#     Edge 16, Type (0, 0), BuildingBlock: ZUJKAS_clean_linker_0, # of connection points: 2
#     Edge 17, Type (0, 0), BuildingBlock: ZUJKAS_clean_linker_0, # of connection points: 2
#     Edge 18, Type (0, 0), BuildingBlock: ZUJKAS_clean_linker_0, # of connection points: 2
#     Edge 19, Type (0, 0), BuildingBlock: ZUJKAS_clean_linker_0, # of connection points: 2
# Relax obj value: 0.279
# Max RMSD: 0.288
# Mean RMSD: 0.280
data_MOF--net-vmv--node1-TAGTUT_clean_sbu_1--edge1-ZUJKAS_clean_linker_0
_symmetry_space_group_name_H-M    P1
_symmetry_Int_Tables_number       1
_symmetry_cell_setting            triclinic
loop_
_symmetry_equiv_pos_as_xyz
'x, y, z'
_cell_length_a     20.588567
_cell_length_b     39.200104
_cell_length_c     40.040305
_cell_angle_alpha  90.584948
_cell_angle_beta   104.90164
_cell_angle_gamma 88.219277
loop_
_atom_site_label
_atom_site_type_symbol
_atom_site_fract_x
_atom_site_fract_y
_atom_site_fract_z
_atom_type_partial_charge
C0 C 0.33588 0.22256 0.78229 0.0
C1 C 0.50351 0.28737 0.78743 0.0
C2 C 0.34401 0.39405 0.74629 0.0
Mg3 Mg 0.40527 0.25071 0.72843 0.0
O4 O 0.33836 0.28536 0.72816 0.0
Mg5 Mg 0.33845 0.30963 0.77213 0.0
Mg6 Mg 0.33984 0.32469 0.69791 0.0
O7 O 0.34452 0.36275 0.66587 0.0
Mg8 Mg 0.29864 0.40428 0.66371 0.0
Mg9 Mg 0.33231 0.33528 0.62233 0.0
C10 C 0.34592 0.25928 0.64743 0.0
C11 C 0.48039 0.31928 0.67427 0.0
O12 O 0.32082 0.25315 0.79109 0.0
O13 O 0.36766 0.2166 0.75919 0.0
O14 O 0.45059 0.30153 0.79281 0.0
O15 O 0.50107 0.26735 0.76171 0.0
O16 O 0.3814 0.24038 0.67192 0.0
O17 O 0.32136 0.2885 0.65304 0.0
C18 C 0.19482 0.3272 0.71812 0.0
O19 O 0.22497 0.33139 0.6941 0.0
O20 O 0.2273 0.31876 0.74877 0.0
O21 O 0.35043 0.38339 0.59543 0.0
O22 O 0.34234 0.4303 0.62693 0.0
O23 O 0.21779 0.34899 0.60485 0.0
C24 C 0.35468 0.4156 0.60035 0.0
O25 O 0.19798 0.39185 0.63862 0.0
O26 O 0.32442 0.41282 0.71918 0.0
C27 C 0.17751 0.37049 0.61418 0.0
O28 O 0.35532 0.36144 0.74453 0.0
O29 O 0.45388 0.31795 0.70008 0.0
O30 O 0.44454 0.32483 0.64343 0.0
C31 C 0.05848 0.7436 0.73386 0.0
C32 C 0.25775 0.72966 0.80294 0.0
C33 C 0.16856 0.77846 0.90833 0.0
Mg34 Mg 0.17597 0.79251 0.76561 0.0
O35 O 0.12417 0.79432 0.79881 0.0
Mg36 Mg 0.11178 0.7516 0.82279 0.0
Mg37 Mg 0.15629 0.82523 0.83849 0.0
O38 O 0.19226 0.85772 0.87715 0.0
Mg39 Mg 0.16446 0.86064 0.91757 0.0
Mg40 Mg 0.18395 0.90008 0.84853 0.0
C41 C 0.16358 0.87396 0.77523 0.0
C42 C 0.30492 0.84982 0.83613 0.0
O43 O 0.05547 0.73426 0.76446 0.0
O44 O 0.10027 0.76554 0.7292 0.0
O45 O 0.20918 0.72712 0.81693 0.0
O46 O 0.25975 0.75449 0.78265 0.0
O47 O 0.18539 0.8492 0.75907 0.0
O48 O 0.13916 0.8686 0.80096 0.0
C49 C 1.00169 0.80638 0.83773 0.0
O50 O 0.04541 0.82976 0.84267 0.0
O51 O 0.01599 0.77601 0.82971 0.0
O52 O 0.23521 0.92829 0.8974 0.0
O53 O 0.23614 0.89835 0.94505 0.0
O54 O 0.08156 0.91678 0.85879 0.0
C55 C 0.25246 0.92446 0.93018 0.0
O56 O 0.06741 0.88464 0.90205 0.0
O57 O 0.16832 0.80578 0.92643 0.0
C58 C 0.04686 0.90799 0.87952 0.0
O59 O 0.16931 0.7793 0.87604 0.0
O60 O 0.26721 0.82385 0.83437 0.0
O61 O 0.28387 0.8802 0.84083 0.0
C62 C 0.69357 0.54903 0.37606 0.0
C63 C 0.85159 0.61737 0.40139 0.0
C64 C 0.66358 0.71627 0.386 0.0
Mg65 Mg 0.7605 0.59391 0.332 0.0
O66 O 0.68755 0.62228 0.33754 0.0
Mg67 Mg 0.68515 0.63409 0.38616 0.0
Mg68 Mg 0.67842 0.66976 0.31853 0.0
O69 O 0.67135 0.7169 0.30098 0.0
Mg70 Mg 0.60136 0.74592 0.30877 0.0
Mg71 Mg 0.67581 0.70613 0.25277 0.0
C72 C 0.70311 0.62152 0.25962 0.0
C73 C 0.82282 0.68633 0.30221 0.0
O74 O 0.68121 0.57639 0.39152 0.0
O75 O 0.71988 0.54876 0.35015 0.0
O76 O 0.79881 0.62889 0.40925 0.0
O77 O 0.84887 0.60509 0.37153 0.0
O78 O 0.7594 0.61641 0.28174 0.0
O79 O 0.66567 0.64744 0.26341 0.0
C80 C 0.53649 0.65317 0.33652 0.0
O81 O 0.56382 0.66677 0.31463 0.0
O82 O 0.57224 0.63924 0.36418 0.0
O83 O 0.68206 0.76567 0.24748 0.0
O84 O 0.6352 0.78989 0.2874 0.0
O85 O 0.56269 0.71023 0.2324 0.0
C86 C 0.6649 0.79214 0.26302 0.0
O87 O 0.50817 0.73167 0.26978 0.0
O88 O 0.62829 0.74014 0.36693 0.0
C89 C 0.5082 0.71864 0.24022 0.0
O90 O 0.68811 0.69069 0.37264 0.0
O91 O 0.79385 0.67293 0.32351 0.0
O92 O 0.78845 0.70034 0.27432 0.0
C93 C 0.76433 0.14907 0.05814 0.0
C94 C 0.95046 0.12239 0.12541 0.0
C95 C 0.81632 0.14095 0.22529 0.0
Mg96 Mg 0.87905 0.19176 0.10313 0.0
O97 O 0.82089 0.18659 0.1326 0.0
Mg98 Mg 0.80219 0.13874 0.14427 0.0
Mg99 Mg 0.8478 0.20528 0.18101 0.0
O100 O 0.87575 0.22227 0.22872 0.0
Mg101 Mg 0.81882 0.21598 0.25814 0.0
Mg102 Mg 0.89943 0.26941 0.21944 0.0
C103 C 0.87671 0.26242 0.13365 0.0
C104 C 0.00954 0.21884 0.19809 0.0
O105 O 0.76219 0.13351 0.08587 0.0
O106 O 0.80153 0.17484 0.05777 0.0
O107 O 0.90207 0.11512 0.13833 0.0
O108 O 0.95356 0.15163 0.11252 0.0
O109 O 0.91851 0.23909 0.12969 0.0
O110 O 0.8499 0.26035 0.1593 0.0
C111 C 0.68807 0.1887 0.16382 0.0
O112 O 0.73312 0.21017 0.17781 0.0
O113 O 0.70321 0.16127 0.14965 0.0
O114 O 0.94577 0.27138 0.27971 0.0
O115 O 0.8916 0.2328 0.30323 0.0
O116 O 0.7999 0.29212 0.22632 0.0
C117 C 0.93699 0.2551 0.306 0.0
O118 O 0.73853 0.25494 0.24594 0.0
O119 O 0.80178 0.1609 0.24829 0.0
C120 C 0.74644 0.28451 0.23473 0.0
O121 O 0.84257 0.15203 0.20183 0.0
O122 O 0.96258 0.19833 0.18449 0.0
O123 O 0.99673 0.24666 0.21223 0.0
H124 H 0.86613 0.62551 0.47102 0.0
H125 H 0.92547 0.58357 0.51329 0.0
H126 H 0.02633 0.54231 0.43916 0.0
H127 H 0.96828 0.58435 0.39697 0.0
H128 H 0.88922 0.51787 0.49308 0.0
H129 H 0.16643 0.52591 0.52923 0.0
H130 H 0.11154 0.56181 0.51174 0.0
H131 H 0.13144 0.5294 0.48346 0.0
C132 C 0.90356 0.60873 0.4642 0.0
C133 C 0.91003 0.60716 0.43002 0.0
C134 C 0.93709 0.58455 0.48841 0.0
C135 C 0.97876 0.55925 0.47901 0.0
C136 C 0.99421 0.56152 0.44698 0.0
H137 H 0.14302 0.36275 0.54434 0.0
H138 H 0.07412 0.40549 0.50652 0.0
C139 C 0.9608 0.58571 0.42278 0.0
C140 C 0.99439 0.52713 0.49895 0.0
H141 H 0.12207 0.47096 0.53499 0.0
C142 C 0.94024 0.50779 0.50273 0.0
C143 C 0.06072 0.51389 0.51103 0.0
C144 C 0.12085 0.534 0.50896 0.0
C145 C 0.95072 0.47514 0.51757 0.0
C146 C 0.01694 0.46163 0.52886 0.0
C147 C 0.07109 0.48119 0.52561 0.0
C148 C 0.03293 0.42826 0.54632 0.0
C149 C 0.89114 0.455 0.52038 0.0
C150 C 0.0269 0.42478 0.5802 0.0
C151 C 0.06578 0.39999 0.60188 0.0
C152 C 0.1121 0.37915 0.58998 0.0
C153 C 0.10828 0.37854 0.55441 0.0
C154 C 0.06943 0.40333 0.53275 0.0
H155 H 0.84317 0.46577 0.50385 0.0
H156 H 0.8972 0.42794 0.51297 0.0
H157 H 0.88775 0.45546 0.5476 0.0
H158 H 0.99888 0.44373 0.59114 0.0
H159 H 0.067 0.40064 0.6291 0.0
H160 H 0.64151 0.17577 0.02727 0.0
H161 H 0.54718 0.14036 0.99853 0.0
H162 H 0.68583 0.05698 0.99342 0.0
H163 H 0.77996 0.09221 0.02241 0.0
H164 H 0.55027 0.06629 0.93426 0.0
H165 H 0.53676 0.05936 0.07128 0.0
H166 H 0.54066 0.10102 0.05346 0.0
H167 H 0.61166 0.07193 0.05964 0.0
C168 C 0.65199 0.15068 0.01792 0.0
C169 C 0.71774 0.13673 0.02663 0.0
C170 C 0.5981 0.13032 1.00196 0.0
C171 C 0.60977 0.09598 0.99445 0.0
C172 C 0.67598 0.08345 0.99904 0.0
H173 H 0.36836 0.91561 0.98189 0.0
H174 H 0.45574 0.95838 1.00027 0.0
C175 C 0.72976 0.10372 0.01519 0.0
C176 C 0.55436 0.07173 0.98822 0.0
H177 H 0.45727 0.02848 0.03019 0.0
C178 C 0.52955 0.05813 0.95508 0.0
C179 C 0.52879 0.06066 0.01578 0.0
C180 C 0.55585 0.07372 0.05217 0.0
C181 C 0.47867 0.03404 0.94863 0.0
C182 C 0.45196 0.02358 0.97603 0.0
C183 C 0.47765 0.03676 0.00929 0.0
C184 C 0.3964 0.99938 0.97018 0.0
C185 C 0.45451 0.01948 0.91267 0.0
C186 C 0.33326 0.00896 0.94902 0.0
C187 C 0.28374 0.98484 0.93876 0.0
C188 C 0.29624 0.95075 0.94974 0.0
C189 C 0.3573 0.94181 0.97346 0.0
C190 C 0.4073 0.96609 0.98363 0.0
H191 H 0.48917 0.02492 0.89634 0.0
H192 H 0.44916 0.99144 0.9137 0.0
H193 H 0.40438 0.03094 0.90003 0.0
H194 H 0.32352 0.0347 0.93898 0.0
H195 H 0.23696 0.99234 0.92044 0.0
H196 H 0.57493 0.51937 0.35145 0.0
H197 H 0.51752 0.48925 0.38825 0.0
H198 H 0.70229 0.48283 0.46881 0.0
H199 H 0.7599 0.51272 0.43184 0.0
H200 H 0.59859 0.42463 0.46164 0.0
H201 H 0.50815 0.55878 0.47176 0.0
H202 H 0.49838 0.542 0.4288 0.0
H203 H 0.58111 0.54806 0.45617 0.0
C204 C 0.60428 0.50928 0.37598 0.0
C205 C 0.67188 0.51768 0.38868 0.0
C206 C 0.57126 0.49261 0.3972 0.0
C207 C 0.60563 0.48443 0.43131 0.0
C208 C 0.67513 0.48897 0.4425 0.0
H209 H 0.44487 0.46719 0.6122 0.0
H210 H 0.50687 0.48669 0.57122 0.0
C211 C 0.70816 0.50565 0.42125 0.0
C212 C 0.56733 0.47759 0.45685 0.0
H213 H 0.46421 0.51678 0.50105 0.0
C214 C 0.56918 0.44467 0.4703 0.0
C215 C 0.53046 0.50415 0.46858 0.0
C216 C 0.52951 0.54035 0.45588 0.0
C217 C 0.53308 0.43734 0.49456 0.0
C218 C 0.49397 0.46361 0.50523 0.0
C219 C 0.49388 0.49675 0.49256 0.0
C220 C 0.45082 0.45653 0.52847 0.0
C221 C 0.53706 0.40157 0.50867 0.0
C222 C 0.39668 0.43489 0.51723 0.0
C223 C 0.36145 0.42399 0.5403 0.0
C224 C 0.37943 0.43475 0.57497 0.0
C225 C 0.42982 0.4588 0.58553 0.0
C226 C 0.46552 0.46964 0.5623 0.0
H227 H 0.58132 0.38683 0.50455 0.0
H228 H 0.53987 0.402 0.53675 0.0
H229 H 0.4911 0.38797 0.49526 0.0
H230 H 0.38374 0.42516 0.49099 0.0
H231 H 0.3224 0.4056 0.5315 0.0
H232 H 0.9349 0.05378 0.13179 0.0
H233 H 0.95044 0.01231 0.08862 0.0
H234 H 0.06421 0.08483 0.04846 0.0
H235 H 0.05034 0.12614 0.09189 0.0
H236 H 0.88793 0.03184 0.02252 0.0
H237 H 0.15398 0.99606 0.03146 0.0
H238 H 0.12693 0.01396 0.06757 0.0
H239 H 0.14128 0.04132 0.03449 0.0
C240 C 0.96636 0.06037 0.11503 0.0
C241 C 0.98884 0.09385 0.11427 0.0
C242 C 0.97463 0.03664 0.0901 0.0
C243 C 0.00687 0.04582 0.06478 0.0
C244 C 0.03901 0.07716 0.06769 0.0
H245 H 0.03417 0.97639 0.86728 0.0
H246 H 1.00332 0.01555 0.90855 0.0
C247 C 0.03099 0.10085 0.09268 0.0
C248 C 0.99582 0.02616 0.03216 0.0
H249 H 0.07642 0.98962 0.97587 0.0
C250 C 0.92914 0.02219 0.01249 0.0
C251 C 0.04953 0.01405 0.01894 0.0
C252 C 0.12189 0.01626 0.03939 0.0
C253 C 0.9149 0.00694 0.97964 0.0
C254 C 0.96867 0.99549 0.96623 0.0
C255 C 0.03522 0.99913 0.98601 0.0
C256 C 0.95844 0.97705 0.93302 0.0
C257 C 0.84279 1.00365 0.95925 0.0
C258 C 0.93677 0.94336 0.93083 0.0
C259 C 0.95403 0.92087 0.90704 0.0
C260 C 0.99456 0.93183 0.88601 0.0
C261 C 1.00402 0.967 0.88357 0.0
C262 C 0.98693 0.98947 0.90743 0.0
H263 H 0.808 0.02028 0.96976 0.0
H264 H 0.83691 0.01024 0.9317 0.0
H265 H 0.82788 0.9768 0.9603 0.0
H266 H 0.91447 0.93331 0.95027 0.0
H267 H 0.94483 0.89397 0.90894 0.0
H268 H 0.60584 0.24009 0.81207 0.0
H269 H 0.68228 0.24101 0.87036 0.0
H270 H 0.61105 0.3433 0.88543 0.0
H271 H 0.53871 0.34319 0.82708 0.0
H272 H 0.73212 0.33752 0.92014 0.0
H273 H 0.60193 0.22367 0.94853 0.0
H274 H 0.64791 0.21569 0.9167 0.0
H275 H 0.57689 0.24529 0.90754 0.0
C276 C 0.60901 0.26325 0.82731 0.0
C277 C 0.56558 0.29135 0.81532 0.0
C278 C 0.6515 0.26352 0.86093 0.0
C279 C 0.65001 0.29161 0.88298 0.0
C280 C 0.61244 0.32104 0.86934 0.0
H281 H 0.73865 0.26999 0.10786 0.0
H282 H 0.67969 0.28214 0.04728 0.0
C283 C 0.57113 0.32099 0.83582 0.0
C284 C 0.68241 0.29005 0.92079 0.0
H285 H 0.68803 0.2449 0.99413 0.0
C286 C 0.72234 0.31723 0.93627 0.0
C287 C 0.66806 0.2642 0.94218 0.0
C288 C 0.62081 0.23577 0.928 0.0
C289 C 0.74845 0.31926 0.97223 0.0
C290 C 0.73711 0.29251 0.99338 0.0
C291 C 0.69686 0.26542 0.97801 0.0
C292 C 0.77048 0.29071 0.03101 0.0
C293 C 0.78641 0.35059 0.98708 0.0
C294 C 0.84062 0.29242 0.04222 0.0
C295 C 0.87378 0.28637 0.07665 0.0
C296 C 0.83797 0.27757 0.10067 0.0
C297 C 0.76742 0.27731 0.09005 0.0
C298 C 0.73391 0.28382 0.05538 0.0
H299 H 0.76809 0.37326 0.97051 0.0
H300 H 0.78156 0.35639 0.01355 0.0
H301 H 0.84043 0.34638 0.98812 0.0
H302 H 0.87036 0.2966 0.02401 0.0
H303 H 0.92827 0.28635 0.08409 0.0
H304 H 0.66309 0.66603 0.43288 0.0
H305 H 0.71555 0.6667 0.49492 0.0
H306 H 0.76122 0.77269 0.48845 0.0
H307 H 0.70782 0.77204 0.42616 0.0
H308 H 0.84251 0.67516 0.52469 0.0
H309 H 0.69893 0.77568 0.57516 0.0
H310 H 0.66971 0.75819 0.53222 0.0
H311 H 0.73087 0.79117 0.54069 0.0
C312 C 0.68347 0.68961 0.44468 0.0
C313 C 0.6816 0.71891 0.42443 0.0
C314 C 0.71341 0.69002 0.48032 0.0
C315 C 0.74245 0.71976 0.49681 0.0
C316 C 0.73804 0.74954 0.47682 0.0
H317 H 0.08241 0.73517 0.67081 0.0
H318 H 1.00192 0.72562 0.61562 0.0
C319 C 0.70741 0.7492 0.44109 0.0
C320 C 0.78245 0.71853 0.5339 0.0
H321 H 0.8072 0.7594 0.61203 0.0
C322 C 0.83399 0.69339 0.54379 0.0
C323 C 0.7713 0.74182 0.55934 0.0
C324 C 0.71423 0.76799 0.55143 0.0
C325 C 0.87594 0.69175 0.57765 0.0
C326 C 0.86755 0.71637 0.6025 0.0
C327 C 0.81428 0.74063 0.5931 0.0
C328 C 0.91692 0.71915 0.63715 0.0
C329 C 0.92912 0.66357 0.58636 0.0
C330 C 0.89661 0.71879 0.66821 0.0
C331 C 0.94323 0.72428 0.70031 0.0
C332 C 0.01078 0.7308 0.70183 0.0
C333 C 0.03095 0.7301 0.67075 0.0
C334 C 0.98483 0.72447 0.63899 0.0
H335 H 0.91442 0.64088 0.56954 0.0
H336 H 0.97669 0.67276 0.58199 0.0
H337 H 0.93869 0.6556 0.61377 0.0
H338 H 0.84443 0.71495 0.66755 0.0
H339 H 0.92573 0.72519 0.72361 0.0
H340 H 0.28196 0.73837 0.92275 0.0
H341 H 0.32818 0.71386 0.98026 0.0
H342 H 0.13504 0.72813 1.00244 0.0
H343 H 0.08901 0.75206 0.94502 0.0
H344 H 0.33348 0.75752 0.033 0.0
H345 H 0.20298 0.64295 0.05765 0.0
H346 H 0.19967 0.65734 0.01451 0.0
H347 H 0.14548 0.67692 0.03849 0.0
C348 C 0.24816 0.73389 0.9389 0.0
C349 C 0.18169 0.74698 0.92922 0.0
C350 C 0.27499 0.7205 0.97217 0.0
C351 C 0.23548 0.71944 0.9961 0.0
C352 C 0.16668 0.72815 0.98463 0.0
H353 H 0.40687 0.76611 0.21509 0.0
H354 H 0.33023 0.76533 0.15673 0.0
C355 C 0.14 0.74153 0.95143 0.0
C356 C 0.26804 0.71595 0.03397 0.0
H357 H 0.26189 0.67415 0.10776 0.0
C358 C 0.31808 0.73904 0.04921 0.0
C359 C 0.24798 0.69205 0.0554 0.0
C360 C 0.19653 0.66569 0.04064 0.0
C361 C 0.34806 0.73914 0.08498 0.0
C362 C 0.32662 0.71598 0.10662 0.0
C363 C 0.27734 0.69245 0.0914 0.0
C364 C 0.35948 0.71409 0.14452 0.0
C365 C 0.4037 0.76365 0.09915 0.0
C366 C 0.39738 0.68474 0.1581 0.0
C367 C 0.44031 0.68506 0.19145 0.0
C368 C 0.44595 0.71462 0.21215 0.0
C369 C 0.40291 0.74283 0.19999 0.0
C370 C 0.35994 0.74255 0.16639 0.0
H371 H 0.42421 0.77423 0.07845 0.0
H372 H 0.38373 0.78531 0.11198 0.0
H373 H 0.44555 0.75094 0.11859 0.0
H374 H 0.39777 0.66241 0.14197 0.0
H375 H 0.47325 0.66302 0.20006 0.0
H376 H 0.05835 0.28726 0.32271 0.0
H377 H 0.14061 0.28791 0.37929 0.0
H378 H 0.00482 0.23285 0.42345 0.0
H379 H 0.9224 0.23265 0.36773 0.0
H380 H 0.06423 0.28564 0.46465 0.0
H381 H 0.25523 0.20432 0.4226 0.0
H382 H 0.22832 0.2428 0.39829 0.0
H383 H 0.16966 0.2095 0.39679 0.0
C384 C 0.0457 0.27572 0.34459 0.0
C385 C 0.98394 0.25967 0.34057 0.0
C386 C 0.09306 0.27577 0.3768 0.0
C387 C 0.07936 0.25974 0.40536 0.0
C388 C 0.01669 0.2451 0.40168 0.0
H389 H 0.258 0.21103 0.61852 0.0
H390 H 0.19921 0.20785 0.55695 0.0
C391 C 0.96957 0.24502 0.36971 0.0
C392 C 0.12969 0.25771 0.43929 0.0
H393 H 0.28252 0.22215 0.48102 0.0
C394 C 0.11203 0.27187 0.46818 0.0
C395 C 0.192 0.23963 0.44382 0.0
C396 C 0.21253 0.22292 0.41385 0.0
C397 C 0.15457 0.26815 0.5015 0.0
C398 C 0.21613 0.24952 0.50611 0.0
C399 C 0.23487 0.23609 0.47726 0.0
C400 C 0.2615 0.24456 0.54099 0.0
C401 C 0.13338 0.28411 0.53167 0.0
C402 C 0.31823 0.26465 0.55183 0.0
C403 C 0.35194 0.26628 0.58685 0.0
C404 C 0.32962 0.24767 0.61134 0.0
C405 C 0.27693 0.22506 0.6 0.0
C406 C 0.24297 0.22352 0.56496 0.0
H407 H 0.09019 0.30248 0.52316 0.0
H408 H 0.11826 0.26377 0.54698 0.0
H409 H 0.1759 0.29757 0.54895 0.0
H410 H 0.33317 0.28106 0.53367 0.0
H411 H 0.39216 0.28401 0.59497 0.0
H412 H 0.10008 0.32828 0.65512 0.0
H413 H 0.97703 0.3291 0.64535 0.0
H414 H 0.9996 0.33457 0.75533 0.0
H415 H 0.1211 0.33415 0.76528 0.0
H416 H 0.90415 0.27955 0.67245 0.0
H417 H 0.85777 0.40998 0.71762 0.0
H418 H 0.93414 0.39757 0.70581 0.0
H419 H 0.92344 0.38646 0.7475 0.0
C420 C 0.07869 0.33025 0.67712 0.0
C421 C 0.12054 0.33103 0.71096 0.0
C422 C 0.00846 0.33058 0.67153 0.0
C423 C 0.97919 0.33222 0.69964 0.0
C424 C 0.02092 0.33387 0.73325 0.0
H425 H 0.58005 0.32131 0.73536 0.0
H426 H 0.70201 0.32223 0.74189 0.0
C427 C 0.09061 0.33337 0.73885 0.0
C428 C 0.90545 0.32987 0.69456 0.0
H429 H 0.76928 0.37078 0.71247 0.0
C430 C 0.87441 0.29964 0.6808 0.0
C431 C 0.86698 0.35594 0.7059 0.0
C432 C 0.89706 0.38946 0.71975 0.0
C433 C 0.8063 0.29442 0.67887 0.0
C434 C 0.76795 0.32038 0.69048 0.0
C435 C 0.79888 0.35075 0.70394 0.0
C436 C 0.69481 0.31733 0.68716 0.0
C437 C 0.77647 0.26079 0.66521 0.0
C438 C 0.65049 0.3141 0.65435 0.0
C439 C 0.58129 0.31346 0.65057 0.0
C440 C 0.55444 0.31632 0.67953 0.0
C441 C 0.59898 0.31884 0.71257 0.0
C442 C 0.66861 0.31954 0.71631 0.0
H443 H 0.81595 0.24041 0.66701 0.0
H444 H 0.74016 0.25245 0.67952 0.0
H445 H 0.74929 0.26373 0.63757 0.0
H446 H 0.66931 0.31301 0.63145 0.0
H447 H 0.54872 0.31148 0.6247 0.0
H448 H 0.37939 0.79006 0.83621 0.0
H449 H 0.49895 0.78451 0.83688 0.0
H450 H 0.50871 0.89393 0.83119 0.0
H451 H 0.39052 0.89983 0.83067 0.0
H452 H 0.56761 0.8085 0.78836 0.0
H453 H 0.66069 0.86914 0.91711 0.0
H454 H 0.57632 0.85384 0.90196 0.0
H455 H 0.5978 0.89394 0.88689 0.0
C456 C 0.40696 0.8129 0.83496 0.0
C457 C 0.37547 0.84538 0.83385 0.0
C458 C 0.47523 0.8097 0.83542 0.0
C459 C 0.51297 0.83889 0.83492 0.0
C460 C 0.481 0.87115 0.83252 0.0
H461 H 0.93538 0.86882 0.83736 0.0
H462 H 0.81652 0.87881 0.83691 0.0
C463 C 0.41317 0.87439 0.83207 0.0
C464 C 0.58568 0.83588 0.83656 0.0
H465 H 0.74112 0.85794 0.88497 0.0
C466 C 0.60557 0.81917 0.80953 0.0
C467 C 0.63502 0.85019 0.86406 0.0
C468 C 0.61666 0.86755 0.89433 0.0
C469 C 0.67352 0.81652 0.80915 0.0
C470 C 0.72295 0.83041 0.83687 0.0
C471 C 0.70306 0.84749 0.86371 0.0
C472 C 0.79568 0.82524 0.83944 0.0
C473 C 0.6918 0.79913 0.77887 0.0
C474 C 0.82361 0.79205 0.84231 0.0
C475 C 0.89089 0.78635 0.84272 0.0
C476 C 0.93219 0.81375 0.8405 0.0
C477 C 0.90499 0.84722 0.83917 0.0
C478 C 0.83712 0.85293 0.83874 0.0
H479 H 0.64827 0.7987 0.75575 0.0
H480 H 0.73384 0.81203 0.77199 0.0
H481 H 0.70809 0.77232 0.78586 0.0
H482 H 0.79298 0.77041 0.84377 0.0
H483 H 0.91026 0.76024 0.84433 0.0
H484 H 0.91782 0.65843 0.3577 0.0
H485 H 0.03978 0.65293 0.36487 0.0
H486 H 0.01771 0.70387 0.2675 0.0
H487 H 0.89703 0.70957 0.26018 0.0
H488 H 0.10818 0.61944 0.32093 0.0
H489 H 0.1669 0.75674 0.33168 0.0
H490 H 0.08844 0.74098 0.33663 0.0
H491 H 0.10084 0.74689 0.29422 0.0
C492 C 0.93897 0.66858 0.33793 0.0
C493 C 0.89727 0.68436 0.30836 0.0
C494 C 0.00871 0.66547 0.34207 0.0
C495 C 0.03803 0.67844 0.31694 0.0
C496 C 0.99656 0.69433 0.28759 0.0
H497 H 0.43846 0.67815 0.28068 0.0
H498 H 0.31697 0.68323 0.27498 0.0
C499 C 0.92723 0.69739 0.28341 0.0
C500 C 0.11145 0.67425 0.32029 0.0
H501 H 0.25221 0.71868 0.32123 0.0
C502 C 0.13983 0.64113 0.32132 0.0
C503 C 0.15263 0.70258 0.32053 0.0
C504 C 0.12587 0.73881 0.32104 0.0
C505 C 0.20787 0.63556 0.32183 0.0
C506 C 0.24885 0.66388 0.32176 0.0
C507 C 0.22058 0.697 0.32091 0.0
C508 C 0.32193 0.65974 0.3243 0.0
C509 C 0.23503 0.59937 0.32169 0.0
C510 C 0.36494 0.64501 0.35387 0.0
C511 C 0.43411 0.64235 0.35728 0.0
C512 C 0.46222 0.65455 0.33125 0.0
C513 C 0.41884 0.6689 0.30136 0.0
C514 C 0.34935 0.6717 0.29803 0.0
H515 H 0.1941 0.58106 0.31239 0.0
H516 H 0.27072 0.59697 0.30514 0.0
H517 H 0.26241 0.59204 0.34841 0.0
H518 H 0.34515 0.63616 0.37472 0.0
H519 H 0.46563 0.63119 0.38075 0.0
H520 H 0.11838 0.25742 0.22521 0.0
H521 H 0.23172 0.25006 0.21827 0.0
H522 H 0.17539 0.15793 0.15959 0.0
H523 H 0.06046 0.16526 0.16619 0.0
H524 H 0.32564 0.19706 0.23776 0.0
H525 H 0.25488 0.21537 0.09526 0.0
H526 H 0.19789 0.22578 0.12165 0.0
H527 H 0.21241 0.18209 0.11093 0.0
C528 C 0.12967 0.23545 0.21084 0.0
C529 C 0.07969 0.21212 0.19584 0.0
C530 C 0.19479 0.2313 0.20697 0.0
C531 C 0.21179 0.20382 0.18794 0.0
C532 C 0.16292 0.17976 0.17378 0.0
H533 H 0.58208 0.1489 0.13433 0.0
H534 H 0.46767 0.15355 0.14038 0.0
C535 C 0.09733 0.18388 0.1777 0.0
C536 C 0.28079 0.20099 0.18304 0.0
H537 H 0.36965 0.20403 0.12195 0.0
C538 C 0.33534 0.19852 0.21245 0.0
C539 C 0.29323 0.20307 0.14999 0.0
C540 C 0.23668 0.207 0.11761 0.0
C541 C 0.40201 0.19779 0.20971 0.0
C542 C 0.41449 0.20027 0.17669 0.0
C543 C 0.35994 0.20242 0.14725 0.0
C544 C 0.48376 0.19907 0.17202 0.0
C545 C 0.45843 0.19365 0.24213 0.0
C546 C 0.53075 0.22368 0.18713 0.0
C547 C 0.59689 0.22105 0.18384 0.0
C548 C 0.61703 0.19391 0.16523 0.0
C549 C 0.56886 0.1701 0.14911 0.0
C550 C 0.50312 0.17269 0.15245 0.0
H551 H 0.44036 0.18387 0.26399 0.0
H552 H 0.49854 0.17592 0.23771 0.0
H553 H 0.48089 0.21882 0.24982 0.0
H554 H 0.51645 0.24474 0.20172 0.0
H555 H 0.63239 0.23985 0.19632 0.0
H556 H 0.20731 0.2017 0.77099 0.0
H557 H 0.17482 0.14209 0.77296 0.0
H558 H 0.38059 0.11304 0.82213 0.0
H559 H 0.41298 0.17235 0.81988 0.0
H560 H 0.23616 0.09078 0.73707 0.0
H561 H 0.27139 0.05696 0.87528 0.0
H562 H 0.25507 0.10033 0.85976 0.0
H563 H 0.33709 0.08085 0.8652 0.0
C564 C 0.24478 0.18289 0.78394 0.0
C565 C 0.31236 0.19181 0.79613 0.0
C566 C 0.22644 0.14872 0.78455 0.0
C567 C 0.27523 0.123 0.79775 0.0
C568 C 0.34182 0.13237 0.81231 0.0
H569 H 0.27071 0.90131 0.75556 0.0
H570 H 0.30028 0.96204 0.75879 0.0
C571 C 0.36022 0.16638 0.81133 0.0
C572 C 0.25865 0.08623 0.79245 0.0
H573 H 0.2528 0.01154 0.83488 0.0
C574 C 0.23968 0.07348 0.75846 0.0
C575 C 0.26372 0.06357 0.82034 0.0
C576 C 0.28246 0.07597 0.85726 0.0
C577 C 0.22579 0.03876 0.75168 0.0
C578 C 0.2309 0.01615 0.77954 0.0
C579 C 0.24969 0.02886 0.81353 0.0
C580 C 0.21139 0.97986 0.77393 0.0
C581 C 0.20446 0.02643 0.7148 0.0
C582 C 0.15102 0.96996 0.78036 0.0
C583 C 0.13376 0.93571 0.77802 0.0
C584 C 0.17672 0.91027 0.76953 0.0
C585 C 0.23602 0.92029 0.76155 0.0
C586 C 0.25324 0.95491 0.76376 0.0
H587 H 0.1982 0.04765 0.69595 0.0
H588 H 0.24281 0.00785 0.70994 0.0
H589 H 0.15624 0.01301 0.71031 0.0
H590 H 0.11786 0.98871 0.78807 0.0
H591 H 0.08774 0.9289 0.78437 0.0
H592 H 0.4632 0.41949 0.77937 0.0
H593 H 0.46967 0.47763 0.80176 0.0
H594 H 0.2625 0.4748 0.80555 0.0
H595 H 0.25552 0.41707 0.7816 0.0
H596 H 0.27698 0.52245 0.76333 0.0
H597 H 0.4787 0.53831 0.88325 0.0
H598 H 0.50841 0.51584 0.85059 0.0
H599 H 0.44601 0.49708 0.86843 0.0
C600 C 0.42049 0.43031 0.78737 0.0
C601 C 0.35893 0.41354 0.77885 0.0
C602 C 0.42396 0.46398 0.79983 0.0
C603 C 0.36633 0.48111 0.80502 0.0
C604 C 0.30764 0.46241 0.80151 0.0
H605 H 0.30199 0.69004 0.85981 0.0
H606 H 0.33976 0.63044 0.86046 0.0
C607 C 0.30401 0.42896 0.78855 0.0
C608 C 0.3631 0.5193 0.80727 0.0
H609 H 0.44074 0.58911 0.84991 0.0
C610 C 0.31261 0.5369 0.78252 0.0
C611 C 0.40965 0.53849 0.83204 0.0
C612 C 0.46332 0.52144 0.86028 0.0
C613 C 0.30698 0.57273 0.78188 0.0
C614 C 0.35461 0.59202 0.80598 0.0
C615 C 0.40507 0.57451 0.8309 0.0
C616 C 0.34805 0.6301 0.80771 0.0
C617 C 0.2484 0.58947 0.75598 0.0
C618 C 0.34483 0.65077 0.77867 0.0
C619 C 0.32301 0.68519 0.77821 0.0
C620 C 0.30456 0.69946 0.80691 0.0
C621 C 0.31555 0.67977 0.83721 0.0
C622 C 0.33699 0.64554 0.8376 0.0
H623 H 0.20816 0.57116 0.74519 0.0
H624 H 0.22621 0.61105 0.76791 0.0
H625 H 0.2661 0.59954 0.73417 0.0
H626 H 0.3549 0.63973 0.75555 0.0
H627 H 0.31475 0.69952 0.75443 0.0
H628 H 0.73642 0.81025 0.21664 0.0
H629 H 0.76223 0.86821 0.20227 0.0
H630 H 0.65342 0.91007 0.27269 0.0
H631 H 0.62686 0.85294 0.28687 0.0
H632 H 0.62297 0.94286 0.20763 0.0
H633 H 0.89861 0.93039 0.26745 0.0
H634 H 0.86242 0.8988 0.23578 0.0
H635 H 0.83999 0.9006 0.27622 0.0
C636 C 0.71788 0.83181 0.22898 0.0
C637 C 0.6799 0.82682 0.25307 0.0
C638 C 0.73292 0.86487 0.22086 0.0
C639 C 0.71027 0.89336 0.23672 0.0
C640 C 0.67145 0.88843 0.26021 0.0
H641 H 0.73492 0.1101 0.25973 0.0
H642 H 0.70816 0.04966 0.25869 0.0
C643 C 0.65654 0.85562 0.26835 0.0
C644 C 0.72697 0.92856 0.22956 0.0
H645 H 0.85618 0.98391 0.24446 0.0
C646 C 0.67403 0.9518 0.21536 0.0
C647 C 0.79362 0.94008 0.23966 0.0
C648 C 0.85211 0.91635 0.25585 0.0
C649 C 0.68579 0.98645 0.21165 0.0
C650 C 0.75208 0.99821 0.22299 0.0
C651 C 0.80535 0.97478 0.23598 0.0
C652 C 0.76695 0.03492 0.22288 0.0
C653 C 0.62714 0.0102 0.19577 0.0
C654 C 0.80996 0.0465 0.20368 0.0
C655 C 0.82562 0.08096 0.20438 0.0
C656 C 0.7989 0.1045 0.22446 0.0
C657 C 0.75619 0.09272 0.2439 0.0
C658 C 0.74042 0.05823 0.24312 0.0
H659 H 0.58389 0.99607 0.17994 0.0
H660 H 0.61023 0.02372 0.21667 0.0
H661 H 0.64171 0.02963 0.17926 0.0
H662 H 0.83147 0.02886 0.18817 0.0
H663 H 0.85949 0.08901 0.18954 0.0
H664 H 0.62607 0.30144 0.18865 0.0
H665 H 0.56703 0.35736 0.1848 0.0
H666 H 0.70875 0.38896 0.27859 0.0
H667 H 0.76467 0.33292 0.28326 0.0
H668 H 0.59064 0.41854 0.27489 0.0
H669 H 0.65228 0.43338 0.14826 0.0
H670 H 0.59467 0.40066 0.15069 0.0
H671 H 0.68099 0.39668 0.17526 0.0
C672 C 0.64235 0.31989 0.20916 0.0
C673 C 0.69925 0.31294 0.23649 0.0
C674 C 0.60945 0.35205 0.20666 0.0
C675 C 0.63451 0.37784 0.23088 0.0
C676 C 0.68826 0.3697 0.25951 0.0
H677 H 0.76336 0.56946 0.23422 0.0
H678 H 0.72298 0.5121 0.22079 0.0
C679 C 0.72025 0.33762 0.26225 0.0
C680 C 0.61194 0.41431 0.22514 0.0
H681 H 0.62312 0.48244 0.17455 0.0
C682 C 0.59618 0.43252 0.25259 0.0
C683 C 0.61905 0.43257 0.19595 0.0
C684 C 0.63806 0.415 0.16592 0.0
C685 C 0.59427 0.4684 0.25333 0.0
C686 C 0.60583 0.48663 0.22514 0.0
C687 C 0.61439 0.4684 0.19612 0.0
C688 C 0.62395 0.52321 0.22826 0.0
C689 C 0.58633 0.48629 0.28567 0.0
C690 C 0.58088 0.5492 0.2356 0.0
C691 C 0.60435 0.58237 0.24357 0.0
C692 C 0.67105 0.58983 0.2441 0.0
C693 C 0.7119 0.56439 0.2342 0.0
C694 C 0.68873 0.53154 0.22646 0.0
H695 H 0.58682 0.46809 0.30684 0.0
H696 H 0.62733 0.50451 0.29506 0.0
H697 H 0.53778 0.50093 0.27988 0.0
H698 H 0.53017 0.54359 0.23641 0.0
H699 H 0.57171 0.60147 0.25115 0.0
loop_
_geom_bond_atom_site_label_1
_geom_bond_atom_site_label_2
_geom_bond_distance
_geom_bond_site_symmetry_2
_ccdc_geom_bond_type
C0 O12 1.241 . S
C0 O13 1.280 . S
C1 O14 1.277 . S
C1 O15 1.245 . S
C2 O26 1.247 . S
C2 O28 1.289 . S
Mg3 O4 1.926 . S
Mg3 O13 1.984 . S
Mg3 O15 1.988 . S
Mg3 O16 2.061 . S
O4 Mg3 1.926 . S
O4 Mg5 1.986 . S
O4 Mg6 1.917 . S
Mg5 O4 1.986 . S
Mg5 O12 2.042 . S
Mg5 O14 2.041 . S
Mg5 O20 2.038 . S
Mg5 O28 2.238 . S
Mg6 O4 1.917 . S
Mg6 O7 1.917 . S
Mg6 O17 2.106 . S
Mg6 O19 2.079 . S
Mg6 O28 2.106 . S
Mg6 O29 2.079 . S
O7 Mg6 1.917 . S
O7 Mg8 1.926 . S
O7 Mg9 1.986 . S
Mg8 O7 1.926 . S
Mg8 O22 1.984 . S
Mg8 O25 1.988 . S
Mg8 O26 2.061 . S
Mg9 O7 1.986 . S
Mg9 O17 2.238 . S
Mg9 O21 2.042 . S
Mg9 O23 2.041 . S
Mg9 O30 2.038 . S
C10 O16 1.247 . S
C10 O17 1.289 . S
C11 O29 1.245 . S
C11 O30 1.274 . S
O12 C0 1.241 . S
O12 Mg5 2.042 . S
O13 C0 1.280 . S
O13 Mg3 1.984 . S
O14 C1 1.277 . S
O14 Mg5 2.041 . S
O15 C1 1.245 . S
O15 Mg3 1.988 . S
O16 Mg3 2.061 . S
O16 C10 1.247 . S
O17 Mg6 2.106 . S
O17 Mg9 2.238 . S
O17 C10 1.289 . S
C18 O19 1.245 . S
C18 O20 1.274 . S
O19 Mg6 2.079 . S
O19 C18 1.245 . S
O20 Mg5 2.038 . S
O20 C18 1.274 . S
O21 Mg9 2.042 . S
O21 C24 1.241 . S
O22 Mg8 1.984 . S
O22 C24 1.280 . S
O23 Mg9 2.041 . S
O23 C27 1.277 . S
C24 O21 1.241 . S
C24 O22 1.280 . S
O25 Mg8 1.988 . S
O25 C27 1.245 . S
O26 C2 1.247 . S
O26 Mg8 2.061 . S
C27 O23 1.277 . S
C27 O25 1.245 . S
O28 C2 1.289 . S
O28 Mg5 2.238 . S
O28 Mg6 2.106 . S
O29 Mg6 2.079 . S
O29 C11 1.245 . S
O30 Mg9 2.038 . S
O30 C11 1.274 . S
C31 O43 1.241 . S
C31 O44 1.280 . S
C32 O45 1.277 . S
C32 O46 1.245 . S
C33 O57 1.247 . S
C33 O59 1.289 . S
Mg34 O35 1.926 . S
Mg34 O44 1.984 . S
Mg34 O46 1.988 . S
Mg34 O47 2.061 . S
O35 Mg34 1.926 . S
O35 Mg36 1.986 . S
O35 Mg37 1.917 . S
Mg36 O35 1.986 . S
Mg36 O43 2.042 . S
Mg36 O45 2.041 . S
Mg36 O51 2.038 . S
Mg36 O59 2.238 . S
Mg37 O35 1.917 . S
Mg37 O38 1.917 . S
Mg37 O48 2.106 . S
Mg37 O50 2.079 . S
Mg37 O59 2.106 . S
Mg37 O60 2.079 . S
O38 Mg37 1.917 . S
O38 Mg39 1.926 . S
O38 Mg40 1.986 . S
Mg39 O38 1.926 . S
Mg39 O53 1.984 . S
Mg39 O56 1.988 . S
Mg39 O57 2.061 . S
Mg40 O38 1.986 . S
Mg40 O48 2.238 . S
Mg40 O52 2.042 . S
Mg40 O54 2.041 . S
Mg40 O61 2.038 . S
C41 O47 1.247 . S
C41 O48 1.289 . S
C42 O60 1.245 . S
C42 O61 1.274 . S
O43 C31 1.241 . S
O43 Mg36 2.042 . S
O44 C31 1.280 . S
O44 Mg34 1.984 . S
O45 C32 1.277 . S
O45 Mg36 2.041 . S
O46 C32 1.245 . S
O46 Mg34 1.988 . S
O47 Mg34 2.061 . S
O47 C41 1.247 . S
O48 Mg37 2.106 . S
O48 Mg40 2.238 . S
O48 C41 1.289 . S
C49 O50 1.245 . S
C49 O51 1.274 . S
O50 Mg37 2.079 . S
O50 C49 1.245 . S
O51 Mg36 2.038 . S
O51 C49 1.274 . S
O52 Mg40 2.042 . S
O52 C55 1.241 . S
O53 Mg39 1.984 . S
O53 C55 1.280 . S
O54 Mg40 2.041 . S
O54 C58 1.277 . S
C55 O52 1.241 . S
C55 O53 1.280 . S
O56 Mg39 1.988 . S
O56 C58 1.245 . S
O57 C33 1.247 . S
O57 Mg39 2.061 . S
C58 O54 1.277 . S
C58 O56 1.245 . S
O59 C33 1.289 . S
O59 Mg36 2.238 . S
O59 Mg37 2.106 . S
O60 Mg37 2.079 . S
O60 C42 1.245 . S
O61 Mg40 2.038 . S
O61 C42 1.274 . S
C62 O74 1.241 . S
C62 O75 1.280 . S
C63 O76 1.277 . S
C63 O77 1.245 . S
C64 O88 1.247 . S
C64 O90 1.289 . S
Mg65 O66 1.926 . S
Mg65 O75 1.984 . S
Mg65 O77 1.988 . S
Mg65 O78 2.061 . S
O66 Mg65 1.926 . S
O66 Mg67 1.986 . S
O66 Mg68 1.917 . S
Mg67 O66 1.986 . S
Mg67 O74 2.042 . S
Mg67 O76 2.041 . S
Mg67 O82 2.038 . S
Mg67 O90 2.238 . S
Mg68 O66 1.917 . S
Mg68 O69 1.917 . S
Mg68 O79 2.106 . S
Mg68 O81 2.079 . S
Mg68 O90 2.106 . S
Mg68 O91 2.079 . S
O69 Mg68 1.917 . S
O69 Mg70 1.926 . S
O69 Mg71 1.986 . S
Mg70 O69 1.926 . S
Mg70 O84 1.984 . S
Mg70 O87 1.988 . S
Mg70 O88 2.061 . S
Mg71 O69 1.986 . S
Mg71 O79 2.238 . S
Mg71 O83 2.042 . S
Mg71 O85 2.041 . S
Mg71 O92 2.038 . S
C72 O78 1.247 . S
C72 O79 1.289 . S
C73 O91 1.245 . S
C73 O92 1.274 . S
O74 C62 1.241 . S
O74 Mg67 2.042 . S
O75 C62 1.280 . S
O75 Mg65 1.984 . S
O76 C63 1.277 . S
O76 Mg67 2.041 . S
O77 C63 1.245 . S
O77 Mg65 1.988 . S
O78 Mg65 2.061 . S
O78 C72 1.247 . S
O79 Mg68 2.106 . S
O79 Mg71 2.238 . S
O79 C72 1.289 . S
C80 O81 1.245 . S
C80 O82 1.274 . S
O81 Mg68 2.079 . S
O81 C80 1.245 . S
O82 Mg67 2.038 . S
O82 C80 1.274 . S
O83 Mg71 2.042 . S
O83 C86 1.241 . S
O84 Mg70 1.984 . S
O84 C86 1.280 . S
O85 Mg71 2.041 . S
O85 C89 1.277 . S
C86 O83 1.241 . S
C86 O84 1.280 . S
O87 Mg70 1.988 . S
O87 C89 1.245 . S
O88 C64 1.247 . S
O88 Mg70 2.061 . S
C89 O85 1.277 . S
C89 O87 1.245 . S
O90 C64 1.289 . S
O90 Mg67 2.238 . S
O90 Mg68 2.106 . S
O91 Mg68 2.079 . S
O91 C73 1.245 . S
O92 Mg71 2.038 . S
O92 C73 1.274 . S
C93 O105 1.241 . S
C93 O106 1.280 . S
C94 O107 1.277 . S
C94 O108 1.245 . S
C95 O119 1.247 . S
C95 O121 1.289 . S
Mg96 O97 1.926 . S
Mg96 O106 1.984 . S
Mg96 O108 1.988 . S
Mg96 O109 2.061 . S
O97 Mg96 1.926 . S
O97 Mg98 1.986 . S
O97 Mg99 1.917 . S
Mg98 O97 1.986 . S
Mg98 O105 2.042 . S
Mg98 O107 2.041 . S
Mg98 O113 2.038 . S
Mg98 O121 2.238 . S
Mg99 O97 1.917 . S
Mg99 O100 1.917 . S
Mg99 O110 2.106 . S
Mg99 O112 2.079 . S
Mg99 O121 2.106 . S
Mg99 O122 2.079 . S
O100 Mg99 1.917 . S
O100 Mg101 1.926 . S
O100 Mg102 1.986 . S
Mg101 O100 1.926 . S
Mg101 O115 1.984 . S
Mg101 O118 1.988 . S
Mg101 O119 2.061 . S
Mg102 O100 1.986 . S
Mg102 O110 2.238 . S
Mg102 O114 2.042 . S
Mg102 O116 2.041 . S
Mg102 O123 2.038 . S
C103 O109 1.247 . S
C103 O110 1.289 . S
C104 O122 1.245 . S
C104 O123 1.274 . S
O105 C93 1.241 . S
O105 Mg98 2.042 . S
O106 C93 1.280 . S
O106 Mg96 1.984 . S
O107 C94 1.277 . S
O107 Mg98 2.041 . S
O108 C94 1.245 . S
O108 Mg96 1.988 . S
O109 Mg96 2.061 . S
O109 C103 1.247 . S
O110 Mg99 2.106 . S
O110 Mg102 2.238 . S
O110 C103 1.289 . S
C111 O112 1.245 . S
C111 O113 1.274 . S
O112 Mg99 2.079 . S
O112 C111 1.245 . S
O113 Mg98 2.038 . S
O113 C111 1.274 . S
O114 Mg102 2.042 . S
O114 C117 1.241 . S
O115 Mg101 1.984 . S
O115 C117 1.280 . S
O116 Mg102 2.041 . S
O116 C120 1.277 . S
C117 O114 1.241 . S
C117 O115 1.280 . S
O118 Mg101 1.988 . S
O118 C120 1.245 . S
O119 C95 1.247 . S
O119 Mg101 2.061 . S
C120 O116 1.277 . S
C120 O118 1.245 . S
O121 C95 1.289 . S
O121 Mg98 2.238 . S
O121 Mg99 2.106 . S
O122 Mg99 2.079 . S
O122 C104 1.245 . S
O123 Mg102 2.038 . S
O123 C104 1.274 . S
H124 C132 0.929 . S
H125 C134 0.930 . S
H126 C136 0.930 . S
H127 C139 0.929 . S
H128 C142 0.930 . S
H129 C144 0.960 . S
H130 C144 0.960 . S
H131 C144 0.960 . S
C132 H124 0.929 . S
C132 C133 1.377 . S
C132 C134 1.384 . S
C133 C132 1.377 . S
C133 C139 1.390 . S
C134 H125 0.930 . S
C134 C132 1.384 . S
C134 C135 1.372 . S
C135 C134 1.372 . S
C135 C136 1.400 . S
C135 C140 1.490 . S
C136 H126 0.930 . S
C136 C135 1.400 . S
C136 C139 1.386 . S
H137 C153 0.930 . S
H138 C154 0.931 . S
C139 H127 0.929 . S
C139 C133 1.390 . S
C139 C136 1.386 . S
C140 C135 1.490 . S
C140 C142 1.395 . S
C140 C143 1.403 1_655 S
H141 C147 0.930 . S
C142 H128 0.930 . S
C142 C140 1.395 . S
C142 C145 1.403 . S
C143 C140 1.403 1_455 S
C143 C144 1.524 . S
C143 C147 1.400 . S
C144 H129 0.960 . S
C144 H130 0.960 . S
C144 H131 0.960 . S
C144 C143 1.524 . S
C145 C142 1.403 . S
C145 C146 1.392 1_655 S
C145 C149 1.495 . S
C146 C145 1.392 1_455 S
C146 C147 1.385 . S
C146 C148 1.478 . S
C147 H141 0.930 . S
C147 C143 1.400 . S
C147 C146 1.385 . S
C148 C146 1.478 . S
C148 C150 1.381 . S
C148 C154 1.383 . S
C149 C145 1.495 . S
C149 H155 0.959 . S
C149 H156 0.961 . S
C149 H157 0.960 . S
C150 C148 1.381 . S
C150 C151 1.394 . S
C150 H158 0.930 . S
C151 C150 1.394 . S
C151 C152 1.383 . S
C151 H159 0.929 . S
C152 C151 1.383 . S
C152 C153 1.377 . S
C153 H137 0.930 . S
C153 C152 1.377 . S
C153 C154 1.379 . S
C154 H138 0.931 . S
C154 C148 1.383 . S
C154 C153 1.379 . S
H155 C149 0.959 . S
H156 C149 0.961 . S
H157 C149 0.960 . S
H158 C150 0.930 . S
H159 C151 0.929 . S
H160 C168 0.929 . S
H161 C170 0.930 . S
H162 C172 0.930 1_556 S
H163 C175 0.929 1_556 S
H164 C178 0.930 . S
H165 C180 0.960 . S
H166 C180 0.960 . S
H167 C180 0.960 1_546 S
C168 H160 0.929 . S
C168 C169 1.377 . S
C168 C170 1.384 . S
C169 C168 1.377 . S
C169 C175 1.390 . S
C170 H161 0.930 . S
C170 C168 1.384 . S
C170 C171 1.372 . S
C171 C170 1.372 . S
C171 C172 1.400 . S
C171 C176 1.490 . S
C172 H162 0.930 1_554 S
C172 C171 1.400 . S
C172 C175 1.386 . S
H173 C189 0.930 . S
H174 C190 0.931 . S
C175 H163 0.929 1_554 S
C175 C169 1.390 . S
C175 C172 1.386 . S
C176 C171 1.490 . S
C176 C178 1.395 . S
C176 C179 1.403 1_545 S
H177 C183 0.930 . S
C178 H164 0.930 . S
C178 C176 1.395 . S
C178 C181 1.403 1_554 S
C179 C176 1.403 1_565 S
C179 C180 1.524 . S
C179 C183 1.400 1_554 S
C180 H165 0.960 . S
C180 H166 0.960 . S
C180 H167 0.960 1_564 S
C180 C179 1.524 . S
C181 C178 1.403 1_556 S
C181 C182 1.392 1_545 S
C181 C185 1.495 . S
C182 C181 1.392 1_565 S
C182 C183 1.385 . S
C182 C184 1.478 . S
C183 H177 0.930 . S
C183 C179 1.400 1_556 S
C183 C182 1.385 . S
C184 C182 1.478 . S
C184 C186 1.366 1_556 S
C184 C190 1.383 . S
C185 C181 1.495 . S
C185 H191 0.967 . S
C185 H192 0.961 . S
C185 H193 0.960 1_546 S
C186 C184 1.366 1_554 S
C186 C187 1.391 1_554 S
C186 H194 0.948 . S
C187 C186 1.391 1_556 S
C187 C188 1.383 . S
C187 H195 0.929 1_556 S
C188 C187 1.383 . S
C188 C189 1.377 . S
C189 H173 0.930 . S
C189 C188 1.377 . S
C189 C190 1.379 . S
C190 H174 0.931 . S
C190 C184 1.383 . S
C190 C189 1.379 . S
H191 C185 0.967 . S
H192 C185 0.961 . S
H193 C185 0.960 1_564 S
H194 C186 0.948 . S
H195 C187 0.929 1_554 S
H196 C204 0.929 . S
H197 C206 0.930 . S
H198 C208 0.930 . S
H199 C211 0.929 . S
H200 C214 0.930 . S
H201 C216 0.960 . S
H202 C216 0.960 . S
H203 C216 0.960 . S
C204 H196 0.929 . S
C204 C205 1.377 . S
C204 C206 1.384 . S
C205 C204 1.377 . S
C205 C211 1.390 . S
C206 H197 0.930 . S
C206 C204 1.384 . S
C206 C207 1.372 . S
C207 C206 1.372 . S
C207 C208 1.400 . S
C207 C212 1.490 . S
C208 H198 0.930 . S
C208 C207 1.400 . S
C208 C211 1.386 . S
H209 C225 0.930 . S
H210 C226 0.931 . S
C211 H199 0.929 . S
C211 C205 1.390 . S
C211 C208 1.386 . S
C212 C207 1.490 . S
C212 C214 1.395 . S
C212 C215 1.403 . S
H213 C219 0.930 . S
C214 H200 0.930 . S
C214 C212 1.395 . S
C214 C217 1.403 . S
C215 C212 1.403 . S
C215 C216 1.524 . S
C215 C219 1.400 . S
C216 H201 0.960 . S
C216 H202 0.960 . S
C216 H203 0.960 . S
C216 C215 1.524 . S
C217 C214 1.403 . S
C217 C218 1.392 . S
C217 C221 1.495 . S
C218 C217 1.392 . S
C218 C219 1.385 . S
C218 C220 1.478 . S
C219 H213 0.930 . S
C219 C215 1.400 . S
C219 C218 1.385 . S
C220 C218 1.478 . S
C220 C222 1.381 . S
C220 C226 1.383 . S
C221 C217 1.495 . S
C221 H227 0.959 . S
C221 H228 0.961 . S
C221 H229 0.960 . S
C222 C220 1.381 . S
C222 C223 1.394 . S
C222 H230 0.930 . S
C223 C222 1.394 . S
C223 C224 1.383 . S
C223 H231 0.929 . S
C224 C223 1.383 . S
C224 C225 1.377 . S
C225 H209 0.930 . S
C225 C224 1.377 . S
C225 C226 1.379 . S
C226 H210 0.931 . S
C226 C220 1.383 . S
C226 C225 1.379 . S
H227 C221 0.959 . S
H228 C221 0.961 . S
H229 C221 0.960 . S
H230 C222 0.930 . S
H231 C223 0.929 . S
H232 C240 0.929 . S
H233 C242 0.930 1_565 S
H234 C244 0.930 . S
H235 C247 0.929 . S
H236 C250 0.930 . S
H237 C252 0.960 . S
H238 C252 0.960 . S
H239 C252 0.960 . S
C240 H232 0.929 . S
C240 C241 1.377 . S
C240 C242 1.384 . S
C241 C240 1.377 . S
C241 C247 1.390 . S
C242 H233 0.930 1_545 S
C242 C240 1.384 . S
C242 C243 1.372 . S
C243 C242 1.372 . S
C243 C244 1.400 . S
C243 C248 1.490 . S
C244 H234 0.930 . S
C244 C243 1.400 . S
C244 C247 1.386 . S
H245 C261 0.930 . S
H246 C262 0.931 1_545 S
C247 H235 0.929 . S
C247 C241 1.390 . S
C247 C244 1.386 . S
C248 C243 1.490 . S
C248 C250 1.395 1_544 S
C248 C251 1.403 1_655 S
H249 C255 0.930 . S
C250 H236 0.930 . S
C250 C248 1.395 1_566 S
C250 C253 1.403 . S
C251 C248 1.403 1_455 S
C251 C252 1.524 . S
C251 C255 1.400 1_545 S
C252 H237 0.960 . S
C252 H238 0.960 . S
C252 H239 0.960 . S
C252 C251 1.524 . S
C253 C250 1.403 . S
C253 C254 1.392 1_655 S
C253 C257 1.495 . S
C254 C253 1.392 1_455 S
C254 C255 1.385 1_556 S
C254 C256 1.478 . S
C255 H249 0.930 . S
C255 C251 1.400 1_565 S
C255 C254 1.385 1_554 S
C256 C254 1.478 . S
C256 C258 1.381 . S
C256 C262 1.383 . S
C257 C253 1.495 . S
C257 H263 0.959 . S
C257 H264 0.961 . S
C257 H265 0.960 . S
C258 C256 1.381 . S
C258 C259 1.394 . S
C258 H266 0.930 . S
C259 C258 1.394 . S
C259 C260 1.383 . S
C259 H267 0.929 . S
C260 C259 1.383 . S
C260 C261 1.377 . S
C261 H245 0.930 . S
C261 C260 1.377 . S
C261 C262 1.379 . S
C262 H246 0.931 1_565 S
C262 C256 1.383 . S
C262 C261 1.379 . S
H263 C257 0.959 . S
H264 C257 0.961 . S
H265 C257 0.960 . S
H266 C258 0.930 . S
H267 C259 0.929 . S
H268 C276 0.929 . S
H269 C278 0.930 . S
H270 C280 0.930 . S
H271 C283 0.929 . S
H272 C286 0.930 . S
H273 C288 0.960 . S
H274 C288 0.960 . S
H275 C288 0.960 . S
C276 H268 0.929 . S
C276 C277 1.377 . S
C276 C278 1.384 . S
C277 C276 1.377 . S
C277 C283 1.390 . S
C278 H269 0.930 . S
C278 C276 1.384 . S
C278 C279 1.372 . S
C279 C278 1.372 . S
C279 C280 1.400 . S
C279 C284 1.490 . S
C280 H270 0.930 . S
C280 C279 1.400 . S
C280 C283 1.386 . S
H281 C297 0.930 . S
H282 C298 0.931 . S
C283 H271 0.929 . S
C283 C277 1.390 . S
C283 C280 1.386 . S
C284 C279 1.490 . S
C284 C286 1.395 . S
C284 C287 1.403 . S
H285 C291 0.930 . S
C286 H272 0.930 . S
C286 C284 1.395 . S
C286 C289 1.403 . S
C287 C284 1.403 . S
C287 C288 1.524 . S
C287 C291 1.400 . S
C288 H273 0.960 . S
C288 H274 0.960 . S
C288 H275 0.960 . S
C288 C287 1.524 . S
C289 C286 1.403 . S
C289 C290 1.392 . S
C289 C293 1.495 . S
C290 C289 1.392 . S
C290 C291 1.385 . S
C290 C292 1.478 . S
C291 H285 0.930 . S
C291 C287 1.400 . S
C291 C290 1.385 . S
C292 C290 1.478 . S
C292 C294 1.381 . S
C292 C298 1.383 1_556 S
C293 C289 1.495 . S
C293 H299 0.959 . S
C293 H300 0.961 . S
C293 H301 0.960 . S
C294 C292 1.381 . S
C294 C295 1.394 1_556 S
C294 H302 0.930 . S
C295 C294 1.394 1_554 S
C295 C296 1.383 . S
C295 H303 0.929 . S
C296 C295 1.383 . S
C296 C297 1.377 . S
C297 H281 0.930 . S
C297 C296 1.377 . S
C297 C298 1.379 . S
C298 H282 0.931 . S
C298 C292 1.383 1_554 S
C298 C297 1.379 . S
H299 C293 0.959 . S
H300 C293 0.961 . S
H301 C293 0.960 . S
H302 C294 0.930 . S
H303 C295 0.929 . S
H304 C312 0.929 . S
H305 C314 0.930 . S
H306 C316 0.930 . S
H307 C319 0.929 . S
H308 C322 0.930 . S
H309 C324 0.960 . S
H310 C324 0.960 . S
H311 C324 0.960 . S
C312 H304 0.929 . S
C312 C313 1.377 . S
C312 C314 1.384 . S
C313 C312 1.377 . S
C313 C319 1.390 . S
C314 H305 0.930 . S
C314 C312 1.384 . S
C314 C315 1.372 . S
C315 C314 1.372 . S
C315 C316 1.400 . S
C315 C320 1.490 . S
C316 H306 0.930 . S
C316 C315 1.400 . S
C316 C319 1.386 . S
H317 C333 0.930 . S
H318 C334 0.931 . S
C319 H307 0.929 . S
C319 C313 1.390 . S
C319 C316 1.386 . S
C320 C315 1.490 . S
C320 C322 1.395 . S
C320 C323 1.403 . S
H321 C327 0.930 . S
C322 H308 0.930 . S
C322 C320 1.395 . S
C322 C325 1.403 . S
C323 C320 1.403 . S
C323 C324 1.524 . S
C323 C327 1.400 . S
C324 H309 0.960 . S
C324 H310 0.960 . S
C324 H311 0.960 . S
C324 C323 1.524 . S
C325 C322 1.403 . S
C325 C326 1.392 . S
C325 C329 1.495 1_655 S
C326 C325 1.392 . S
C326 C327 1.385 . S
C326 C328 1.478 . S
C327 H321 0.930 . S
C327 C323 1.400 . S
C327 C326 1.385 . S
C328 C326 1.478 . S
C328 C330 1.381 . S
C328 C334 1.383 . S
C329 C325 1.495 1_455 S
C329 H335 0.959 . S
C329 H336 0.961 . S
C329 H337 0.960 . S
C330 C328 1.381 . S
C330 C331 1.394 . S
C330 H338 0.930 . S
C331 C330 1.394 . S
C331 C332 1.383 1_655 S
C331 H339 0.929 1_655 S
C332 C331 1.383 1_455 S
C332 C333 1.377 1_455 S
C333 H317 0.930 . S
C333 C332 1.377 1_655 S
C333 C334 1.379 . S
C334 H318 0.931 . S
C334 C328 1.383 . S
C334 C333 1.379 . S
H335 C329 0.959 . S
H336 C329 0.961 . S
H337 C329 0.960 . S
H338 C330 0.930 . S
H339 C331 0.929 1_455 S
H340 C348 0.929 . S
H341 C350 0.930 . S
H342 C352 0.930 . S
H343 C355 0.929 . S
H344 C358 0.930 . S
H345 C360 0.960 . S
H346 C360 0.960 . S
H347 C360 0.960 . S
C348 H340 0.929 . S
C348 C349 1.377 . S
C348 C350 1.384 . S
C349 C348 1.377 . S
C349 C355 1.390 . S
C350 H341 0.930 . S
C350 C348 1.384 . S
C350 C351 1.372 1_556 S
C351 C350 1.372 1_554 S
C351 C352 1.400 . S
C351 C356 1.490 . S
C352 H342 0.930 . S
C352 C351 1.400 . S
C352 C355 1.386 1_554 S
H353 C369 0.930 . S
H354 C370 0.931 . S
C355 H343 0.929 . S
C355 C349 1.390 . S
C355 C352 1.386 1_556 S
C356 C351 1.490 . S
C356 C358 1.395 . S
C356 C359 1.403 . S
H357 C363 0.930 . S
C358 H344 0.930 . S
C358 C356 1.395 . S
C358 C361 1.403 . S
C359 C356 1.403 . S
C359 C360 1.524 . S
C359 C363 1.400 . S
C360 H345 0.960 . S
C360 H346 0.960 . S
C360 H347 0.960 . S
C360 C359 1.524 . S
C361 C358 1.403 . S
C361 C362 1.392 . S
C361 C365 1.495 . S
C362 C361 1.392 . S
C362 C363 1.385 . S
C362 C364 1.478 . S
C363 H357 0.930 . S
C363 C359 1.400 . S
C363 C362 1.385 . S
C364 C362 1.478 . S
C364 C366 1.381 . S
C364 C370 1.383 . S
C365 C361 1.495 . S
C365 H371 0.959 . S
C365 H372 0.961 . S
C365 H373 0.960 . S
C366 C364 1.381 . S
C366 C367 1.394 . S
C366 H374 0.930 . S
C367 C366 1.394 . S
C367 C368 1.383 . S
C367 H375 0.929 . S
C368 C367 1.383 . S
C368 C369 1.377 . S
C369 H353 0.930 . S
C369 C368 1.377 . S
C369 C370 1.379 . S
C370 H354 0.931 . S
C370 C364 1.383 . S
C370 C369 1.379 . S
H371 C365 0.959 . S
H372 C365 0.961 . S
H373 C365 0.960 . S
H374 C366 0.930 . S
H375 C367 0.929 . S
H376 C384 0.929 . S
H377 C386 0.930 . S
H378 C388 0.930 . S
H379 C391 0.929 . S
H380 C394 0.930 1_655 S
H381 C396 0.960 . S
H382 C396 0.960 . S
H383 C396 0.960 . S
C384 H376 0.929 . S
C384 C385 1.377 1_655 S
C384 C386 1.384 1_655 S
C385 C384 1.377 1_455 S
C385 C391 1.391 . S
C386 H377 0.930 . S
C386 C384 1.384 1_455 S
C386 C387 1.372 . S
C387 C386 1.372 . S
C387 C388 1.400 . S
C387 C392 1.490 . S
C388 H378 0.930 . S
C388 C387 1.400 . S
C388 C391 1.386 . S
H389 C405 0.930 . S
H390 C406 0.931 . S
C391 H379 0.929 . S
C391 C385 1.391 . S
C391 C388 1.386 . S
C392 C387 1.490 . S
C392 C394 1.395 . S
C392 C395 1.403 . S
H393 C399 0.930 . S
C394 H380 0.930 1_455 S
C394 C392 1.395 . S
C394 C397 1.403 . S
C395 C392 1.403 . S
C395 C396 1.524 . S
C395 C399 1.400 . S
C396 H381 0.960 . S
C396 H382 0.960 . S
C396 H383 0.960 . S
C396 C395 1.524 . S
C397 C394 1.403 . S
C397 C398 1.392 . S
C397 C401 1.495 . S
C398 C397 1.392 . S
C398 C399 1.385 . S
C398 C400 1.478 . S
C399 H393 0.930 . S
C399 C395 1.400 . S
C399 C398 1.385 . S
C400 C398 1.478 . S
C400 C402 1.381 . S
C400 C406 1.383 . S
C401 C397 1.495 . S
C401 H407 0.959 1_455 S
C401 H408 0.961 . S
C401 H409 0.960 . S
C402 C400 1.381 . S
C402 C403 1.394 . S
C402 H410 0.930 . S
C403 C402 1.394 . S
C403 C404 1.383 . S
C403 H411 0.929 . S
C404 C403 1.383 . S
C404 C405 1.377 . S
C405 H389 0.930 . S
C405 C404 1.377 . S
C405 C406 1.379 . S
C406 H390 0.931 . S
C406 C400 1.383 . S
C406 C405 1.379 . S
H407 C401 0.959 1_655 S
H408 C401 0.961 . S
H409 C401 0.960 . S
H410 C402 0.930 . S
H411 C403 0.929 . S
H412 C420 0.929 . S
H413 C422 0.930 . S
H414 C424 0.930 . S
H415 C427 0.929 . S
H416 C430 0.930 . S
H417 C432 0.960 . S
H418 C432 0.960 . S
H419 C432 0.960 . S
C420 H412 0.929 . S
C420 C421 1.377 . S
C420 C422 1.384 1_455 S
C421 C420 1.377 . S
C421 C427 1.390 . S
C422 H413 0.930 . S
C422 C420 1.384 1_655 S
C422 C423 1.372 . S
C423 C422 1.372 . S
C423 C424 1.400 . S
C423 C428 1.490 . S
C424 H414 0.930 . S
C424 C423 1.400 . S
C424 C427 1.386 1_655 S
H425 C441 0.930 . S
H426 C442 0.931 . S
C427 H415 0.929 . S
C427 C421 1.390 . S
C427 C424 1.386 1_455 S
C428 C423 1.490 . S
C428 C430 1.395 . S
C428 C431 1.403 . S
H429 C435 0.930 . S
C430 H416 0.930 . S
C430 C428 1.395 . S
C430 C433 1.403 . S
C431 C428 1.403 . S
C431 C432 1.524 . S
C431 C435 1.400 . S
C432 H417 0.960 . S
C432 H418 0.960 . S
C432 H419 0.960 . S
C432 C431 1.524 . S
C433 C430 1.403 . S
C433 C434 1.392 . S
C433 C437 1.495 . S
C434 C433 1.392 . S
C434 C435 1.385 . S
C434 C436 1.478 . S
C435 H429 0.930 . S
C435 C431 1.400 . S
C435 C434 1.385 . S
C436 C434 1.478 . S
C436 C438 1.381 . S
C436 C442 1.383 . S
C437 C433 1.495 . S
C437 H443 0.959 . S
C437 H444 0.961 . S
C437 H445 0.960 . S
C438 C436 1.381 . S
C438 C439 1.394 . S
C438 H446 0.930 . S
C439 C438 1.394 . S
C439 C440 1.383 . S
C439 H447 0.929 . S
C440 C439 1.383 . S
C440 C441 1.377 . S
C441 H425 0.930 . S
C441 C440 1.377 . S
C441 C442 1.379 . S
C442 H426 0.931 . S
C442 C436 1.383 . S
C442 C441 1.379 . S
H443 C437 0.959 . S
H444 C437 0.961 . S
H445 C437 0.960 . S
H446 C438 0.930 . S
H447 C439 0.929 . S
H448 C456 0.929 . S
H449 C458 0.930 . S
H450 C460 0.930 . S
H451 C463 0.929 . S
H452 C466 0.930 . S
H453 C468 0.960 . S
H454 C468 0.960 . S
H455 C468 0.960 . S
C456 H448 0.929 . S
C456 C457 1.377 . S
C456 C458 1.384 . S
C457 C456 1.377 . S
C457 C463 1.390 . S
C458 H449 0.930 . S
C458 C456 1.384 . S
C458 C459 1.372 . S
C459 C458 1.372 . S
C459 C460 1.400 . S
C459 C464 1.490 . S
C460 H450 0.930 . S
C460 C459 1.400 . S
C460 C463 1.386 . S
H461 C477 0.930 . S
H462 C478 0.931 . S
C463 H451 0.929 . S
C463 C457 1.390 . S
C463 C460 1.386 . S
C464 C459 1.490 . S
C464 C466 1.395 . S
C464 C467 1.403 . S
H465 C471 0.930 . S
C466 H452 0.930 . S
C466 C464 1.395 . S
C466 C469 1.403 . S
C467 C464 1.403 . S
C467 C468 1.524 . S
C467 C471 1.400 . S
C468 H453 0.960 . S
C468 H454 0.960 . S
C468 H455 0.960 . S
C468 C467 1.524 . S
C469 C466 1.403 . S
C469 C470 1.392 . S
C469 C473 1.495 . S
C470 C469 1.392 . S
C470 C471 1.385 . S
C470 C472 1.478 . S
C471 H465 0.930 . S
C471 C467 1.400 . S
C471 C470 1.385 . S
C472 C470 1.478 . S
C472 C474 1.381 . S
C472 C478 1.383 . S
C473 C469 1.495 . S
C473 H479 0.959 . S
C473 H480 0.961 . S
C473 H481 0.960 . S
C474 C472 1.381 . S
C474 C475 1.394 . S
C474 H482 0.930 . S
C475 C474 1.394 . S
C475 C476 1.383 . S
C475 H483 0.929 . S
C476 C475 1.383 . S
C476 C477 1.377 . S
C477 H461 0.930 . S
C477 C476 1.377 . S
C477 C478 1.379 . S
C478 H462 0.931 . S
C478 C472 1.383 . S
C478 C477 1.379 . S
H479 C473 0.959 . S
H480 C473 0.961 . S
H481 C473 0.960 . S
H482 C474 0.930 . S
H483 C475 0.929 . S
H484 C492 0.929 . S
H485 C494 0.930 . S
H486 C496 0.930 . S
H487 C499 0.929 . S
H488 C502 0.930 . S
H489 C504 0.960 . S
H490 C504 0.960 . S
H491 C504 0.960 . S
C492 H484 0.929 . S
C492 C493 1.377 . S
C492 C494 1.384 1_655 S
C493 C492 1.377 . S
C493 C499 1.390 . S
C494 H485 0.930 . S
C494 C492 1.384 1_455 S
C494 C495 1.372 . S
C495 C494 1.372 . S
C495 C496 1.400 . S
C495 C500 1.490 . S
C496 H486 0.930 . S
C496 C495 1.400 . S
C496 C499 1.386 1_455 S
H497 C513 0.930 . S
H498 C514 0.931 . S
C499 H487 0.929 . S
C499 C493 1.390 . S
C499 C496 1.386 1_655 S
C500 C495 1.490 . S
C500 C502 1.395 . S
C500 C503 1.403 . S
H501 C507 0.930 . S
C502 H488 0.930 . S
C502 C500 1.395 . S
C502 C505 1.403 . S
C503 C500 1.403 . S
C503 C504 1.524 . S
C503 C507 1.400 . S
C504 H489 0.960 . S
C504 H490 0.960 . S
C504 H491 0.960 . S
C504 C503 1.524 . S
C505 C502 1.403 . S
C505 C506 1.392 . S
C505 C509 1.495 . S
C506 C505 1.392 . S
C506 C507 1.385 . S
C506 C508 1.478 . S
C507 H501 0.930 . S
C507 C503 1.400 . S
C507 C506 1.385 . S
C508 C506 1.478 . S
C508 C510 1.381 . S
C508 C514 1.383 . S
C509 C505 1.495 . S
C509 H515 0.959 . S
C509 H516 0.961 . S
C509 H517 0.960 . S
C510 C508 1.381 . S
C510 C511 1.394 . S
C510 H518 0.930 . S
C511 C510 1.394 . S
C511 C512 1.383 . S
C511 H519 0.929 . S
C512 C511 1.383 . S
C512 C513 1.377 . S
C513 H497 0.930 . S
C513 C512 1.377 . S
C513 C514 1.379 . S
C514 H498 0.931 . S
C514 C508 1.383 . S
C514 C513 1.379 . S
H515 C509 0.959 . S
H516 C509 0.961 . S
H517 C509 0.960 . S
H518 C510 0.930 . S
H519 C511 0.929 . S
H520 C528 0.929 . S
H521 C530 0.930 . S
H522 C532 0.930 . S
H523 C535 0.929 . S
H524 C538 0.930 . S
H525 C540 0.960 . S
H526 C540 0.960 . S
H527 C540 0.960 . S
C528 H520 0.929 . S
C528 C529 1.377 . S
C528 C530 1.384 . S
C529 C528 1.377 . S
C529 C535 1.390 . S
C530 H521 0.930 . S
C530 C528 1.384 . S
C530 C531 1.372 . S
C531 C530 1.372 . S
C531 C532 1.400 . S
C531 C536 1.490 . S
C532 H522 0.930 . S
C532 C531 1.400 . S
C532 C535 1.386 . S
H533 C549 0.930 . S
H534 C550 0.931 . S
C535 H523 0.929 . S
C535 C529 1.390 . S
C535 C532 1.386 . S
C536 C531 1.490 . S
C536 C538 1.395 . S
C536 C539 1.403 . S
H537 C543 0.930 . S
C538 H524 0.930 . S
C538 C536 1.395 . S
C538 C541 1.403 . S
C539 C536 1.403 . S
C539 C540 1.524 . S
C539 C543 1.400 . S
C540 H525 0.960 . S
C540 H526 0.960 . S
C540 H527 0.960 . S
C540 C539 1.524 . S
C541 C538 1.403 . S
C541 C542 1.392 . S
C541 C545 1.495 . S
C542 C541 1.392 . S
C542 C543 1.385 . S
C542 C544 1.478 . S
C543 H537 0.930 . S
C543 C539 1.400 . S
C543 C542 1.385 . S
C544 C542 1.478 . S
C544 C546 1.381 . S
C544 C550 1.383 . S
C545 C541 1.495 . S
C545 H551 0.959 . S
C545 H552 0.961 . S
C545 H553 0.960 . S
C546 C544 1.381 . S
C546 C547 1.394 . S
C546 H554 0.930 . S
C547 C546 1.394 . S
C547 C548 1.383 . S
C547 H555 0.929 . S
C548 C547 1.383 . S
C548 C549 1.377 . S
C549 H533 0.930 . S
C549 C548 1.377 . S
C549 C550 1.379 . S
C550 H534 0.931 . S
C550 C544 1.383 . S
C550 C549 1.379 . S
H551 C545 0.959 . S
H552 C545 0.961 . S
H553 C545 0.960 . S
H554 C546 0.930 . S
H555 C547 0.929 . S
H556 C564 0.929 . S
H557 C566 0.930 . S
H558 C568 0.930 . S
H559 C571 0.929 . S
H560 C574 0.930 . S
H561 C576 0.960 . S
H562 C576 0.960 . S
H563 C576 0.960 . S
C564 H556 0.929 . S
C564 C565 1.377 . S
C564 C566 1.384 . S
C565 C564 1.377 . S
C565 C571 1.390 . S
C566 H557 0.930 . S
C566 C564 1.384 . S
C566 C567 1.372 . S
C567 C566 1.372 . S
C567 C568 1.400 . S
C567 C572 1.490 . S
C568 H558 0.930 . S
C568 C567 1.400 . S
C568 C571 1.386 . S
H569 C585 0.930 . S
H570 C586 0.931 . S
C571 H559 0.929 . S
C571 C565 1.390 . S
C571 C568 1.386 . S
C572 C567 1.490 . S
C572 C574 1.395 . S
C572 C575 1.403 . S
H573 C579 0.930 . S
C574 H560 0.930 . S
C574 C572 1.395 . S
C574 C577 1.403 . S
C575 C572 1.403 . S
C575 C576 1.524 . S
C575 C579 1.400 . S
C576 H561 0.960 . S
C576 H562 0.960 . S
C576 H563 0.960 . S
C576 C575 1.524 . S
C577 C574 1.403 . S
C577 C578 1.392 . S
C577 C581 1.495 . S
C578 C577 1.392 . S
C578 C579 1.385 . S
C578 C580 1.478 . S
C579 H573 0.930 . S
C579 C575 1.400 . S
C579 C578 1.385 . S
C580 C578 1.478 . S
C580 C582 1.368 1_545 S
C580 C586 1.383 1_545 S
C581 C577 1.495 . S
C581 H587 0.959 . S
C581 H588 0.961 . S
C581 H589 0.960 . S
C582 C580 1.368 1_565 S
C582 C583 1.427 . S
C582 H590 0.911 1_565 S
C583 C582 1.427 . S
C583 C584 1.383 . S
C583 H591 0.929 . S
C584 C583 1.383 . S
C584 C585 1.377 . S
C585 H569 0.930 . S
C585 C584 1.377 . S
C585 C586 1.379 . S
C586 H570 0.931 . S
C586 C580 1.383 1_565 S
C586 C585 1.379 . S
H587 C581 0.959 . S
H588 C581 0.961 . S
H589 C581 0.960 . S
H590 C582 0.911 1_545 S
H591 C583 0.929 . S
H592 C600 0.929 . S
H593 C602 0.930 . S
H594 C604 0.930 . S
H595 C607 0.929 . S
H596 C610 0.930 . S
H597 C612 0.960 . S
H598 C612 0.960 . S
H599 C612 0.960 . S
C600 H592 0.929 . S
C600 C601 1.377 . S
C600 C602 1.384 . S
C601 C600 1.377 . S
C601 C607 1.390 . S
C602 H593 0.930 . S
C602 C600 1.384 . S
C602 C603 1.372 . S
C603 C602 1.372 . S
C603 C604 1.400 . S
C603 C608 1.490 . S
C604 H594 0.930 . S
C604 C603 1.400 . S
C604 C607 1.386 . S
H605 C621 0.930 . S
H606 C622 0.931 . S
C607 H595 0.929 . S
C607 C601 1.390 . S
C607 C604 1.386 . S
C608 C603 1.490 . S
C608 C610 1.395 . S
C608 C611 1.403 . S
H609 C615 0.930 . S
C610 H596 0.930 . S
C610 C608 1.395 . S
C610 C613 1.403 . S
C611 C608 1.403 . S
C611 C612 1.524 . S
C611 C615 1.400 . S
C612 H597 0.960 . S
C612 H598 0.960 . S
C612 H599 0.960 . S
C612 C611 1.524 . S
C613 C610 1.403 . S
C613 C614 1.392 . S
C613 C617 1.495 . S
C614 C613 1.392 . S
C614 C615 1.385 . S
C614 C616 1.478 . S
C615 H609 0.930 . S
C615 C611 1.400 . S
C615 C614 1.385 . S
C616 C614 1.478 . S
C616 C618 1.381 . S
C616 C622 1.383 . S
C617 C613 1.495 . S
C617 H623 0.959 . S
C617 H624 0.961 . S
C617 H625 0.960 . S
C618 C616 1.381 . S
C618 C619 1.394 . S
C618 H626 0.930 . S
C619 C618 1.394 . S
C619 C620 1.383 . S
C619 H627 0.929 . S
C620 C619 1.383 . S
C620 C621 1.377 . S
C621 H605 0.930 . S
C621 C620 1.377 . S
C621 C622 1.379 . S
C622 H606 0.931 . S
C622 C616 1.383 . S
C622 C621 1.379 . S
H623 C617 0.959 . S
H624 C617 0.961 . S
H625 C617 0.960 . S
H626 C618 0.930 . S
H627 C619 0.929 . S
H628 C636 0.929 . S
H629 C638 0.930 . S
H630 C640 0.930 . S
H631 C643 0.929 . S
H632 C646 0.930 . S
H633 C648 0.960 . S
H634 C648 0.960 . S
H635 C648 0.960 . S
C636 H628 0.929 . S
C636 C637 1.377 . S
C636 C638 1.384 . S
C637 C636 1.377 . S
C637 C643 1.390 . S
C638 H629 0.930 . S
C638 C636 1.384 . S
C638 C639 1.372 . S
C639 C638 1.372 . S
C639 C640 1.400 . S
C639 C644 1.490 . S
C640 H630 0.930 . S
C640 C639 1.400 . S
C640 C643 1.386 . S
H641 C657 0.930 . S
H642 C658 0.931 1_565 S
C643 H631 0.929 . S
C643 C637 1.390 . S
C643 C640 1.386 . S
C644 C639 1.490 . S
C644 C646 1.395 . S
C644 C647 1.403 . S
H645 C651 0.930 . S
C646 H632 0.930 . S
C646 C644 1.395 . S
C646 C649 1.403 . S
C647 C644 1.403 . S
C647 C648 1.524 . S
C647 C651 1.400 . S
C648 H633 0.960 . S
C648 H634 0.960 . S
C648 H635 0.960 . S
C648 C647 1.524 . S
C649 C646 1.403 . S
C649 C650 1.392 . S
C649 C653 1.495 . S
C650 C649 1.392 . S
C650 C651 1.385 . S
C650 C652 1.478 . S
C651 H645 0.930 . S
C651 C647 1.400 . S
C651 C650 1.385 . S
C652 C650 1.478 . S
C652 C654 1.381 1_565 S
C652 C658 1.383 1_565 S
C653 C649 1.495 . S
C653 H659 0.959 . S
C653 H660 0.961 . S
C653 H661 0.960 . S
C654 C652 1.381 1_545 S
C654 C655 1.394 . S
C654 H662 0.930 1_545 S
C655 C654 1.394 . S
C655 C656 1.383 . S
C655 H663 0.929 . S
C656 C655 1.383 . S
C656 C657 1.377 . S
C657 H641 0.930 . S
C657 C656 1.377 . S
C657 C658 1.379 . S
C658 H642 0.931 1_545 S
C658 C652 1.383 1_545 S
C658 C657 1.379 . S
H659 C653 0.959 . S
H660 C653 0.961 . S
H661 C653 0.960 . S
H662 C654 0.930 1_565 S
H663 C655 0.929 . S
H664 C672 0.929 . S
H665 C674 0.930 . S
H666 C676 0.930 . S
H667 C679 0.929 . S
H668 C682 0.930 . S
H669 C684 0.960 . S
H670 C684 0.960 . S
H671 C684 0.960 . S
C672 H664 0.929 . S
C672 C673 1.377 . S
C672 C674 1.384 . S
C673 C672 1.377 . S
C673 C679 1.390 . S
C674 H665 0.930 . S
C674 C672 1.384 . S
C674 C675 1.372 . S
C675 C674 1.372 . S
C675 C676 1.400 . S
C675 C680 1.490 . S
C676 H666 0.930 . S
C676 C675 1.400 . S
C676 C679 1.386 . S
H677 C693 0.930 . S
H678 C694 0.931 . S
C679 H667 0.929 . S
C679 C673 1.390 . S
C679 C676 1.386 . S
C680 C675 1.490 . S
C680 C682 1.395 . S
C680 C683 1.403 . S
H681 C687 0.930 . S
C682 H668 0.930 . S
C682 C680 1.395 . S
C682 C685 1.403 . S
C683 C680 1.403 . S
C683 C684 1.524 . S
C683 C687 1.400 . S
C684 H669 0.960 . S
C684 H670 0.960 . S
C684 H671 0.960 . S
C684 C683 1.524 . S
C685 C682 1.403 . S
C685 C686 1.392 . S
C685 C689 1.495 . S
C686 C685 1.392 . S
C686 C687 1.385 . S
C686 C688 1.478 . S
C687 H681 0.930 . S
C687 C683 1.400 . S
C687 C686 1.385 . S
C688 C686 1.478 . S
C688 C690 1.381 . S
C688 C694 1.383 . S
C689 C685 1.495 . S
C689 H695 0.959 . S
C689 H696 0.961 . S
C689 H697 0.960 . S
C690 C688 1.381 . S
C690 C691 1.394 . S
C690 H698 0.930 . S
C691 C690 1.394 . S
C691 C692 1.383 . S
C691 H699 0.929 . S
C692 C691 1.383 . S
C692 C693 1.377 . S
C693 H677 0.930 . S
C693 C692 1.377 . S
C693 C694 1.379 . S
C694 H678 0.931 . S
C694 C688 1.383 . S
C694 C693 1.379 . S
H695 C689 0.959 . S
H696 C689 0.961 . S
H697 C689 0.960 . S
H698 C690 0.930 . S
H699 C691 0.929 . S
C133 C63 0.841 . S
C152 C27 0.892 . S
C169 C93 0.830 . S
C188 C55 0.791 . S
C205 C62 0.523 . S
C224 C24 0.499 . S
C241 C94 0.557 . S
C260 C58 0.603 . S
C277 C1 1.724 . S
C296 C103 1.620 . S
C313 C64 1.992 . S
C332 C31 1.840 . S
C349 C33 1.629 . S
C368 C89 1.702 . S
C385 C117 1.872 1_455 S
C404 C10 1.997 . S
C421 C18 1.697 . S
C440 C11 1.678 . S
C457 C42 1.699 . S
C476 C49 1.691 1_655 S
C493 C73 1.700 . S
C512 C80 1.709 . S
C529 C104 1.693 1_455 S
C548 C111 1.686 . S
C565 C0 1.918 . S
C584 C41 2.005 . S
C601 C2 1.521 . S
C620 C32 1.609 . S
C637 C86 1.916 . S
C656 C95 1.975 . S
C673 C120 1.641 . S
C692 C72 1.524 . S
