# Generated by pormake.
# Topology umc, (4)-cn, num edge types: 1
# Building blocks:
#     Node 0, Type 0, BuildingBlock: NAWXER_clean_sbu_0, # of connection points: 4
#     Node 1, Type 0, BuildingBlock: NAWXER_clean_sbu_0, # of connection points: 4
#     Node 2, Type 0, BuildingBlock: NAWXER_clean_sbu_0, # of connection points: 4
#     Node 3, Type 0, BuildingBlock: NAWXER_clean_sbu_0, # of connection points: 4
#     Node 4, Type 0, BuildingBlock: NAWXER_clean_sbu_0, # of connection points: 4
#     Node 5, Type 0, BuildingBlock: NAWXER_clean_sbu_0, # of connection points: 4
#     Node 6, Type 0, BuildingBlock: NAWXER_clean_sbu_0, # of connection points: 4
#     Node 7, Type 0, BuildingBlock: NAWXER_clean_sbu_0, # of connection points: 4
#     Node 8, Type 0, BuildingBlock: NAWXER_clean_sbu_0, # of connection points: 4
#     Node 9, Type 0, BuildingBlock: NAWXER_clean_sbu_0, # of connection points: 4
#     Node 10, Type 0, BuildingBlock: NAWXER_clean_sbu_0, # of connection points: 4
#     Node 11, Type 0, BuildingBlock: NAWXER_clean_sbu_0, # of connection points: 4
#     Node 12, Type 0, BuildingBlock: NAWXER_clean_sbu_0, # of connection points: 4
#     Node 13, Type 0, BuildingBlock: NAWXER_clean_sbu_0, # of connection points: 4
#     Node 14, Type 0, BuildingBlock: NAWXER_clean_sbu_0, # of connection points: 4
#     Node 15, Type 0, BuildingBlock: NAWXER_clean_sbu_0, # of connection points: 4
#     Edge 16, Type (0, 0), BuildingBlock: ZUJKAS_clean_linker_0, # of connection points: 2
#     Edge 17, Type (0, 0), BuildingBlock: ZUJKAS_clean_linker_0, # of connection points: 2
#     Edge 18, Type (0, 0), BuildingBlock: ZUJKAS_clean_linker_0, # of connection points: 2
#     Edge 19, Type (0, 0), BuildingBlock: ZUJKAS_clean_linker_0, # of connection points: 2
#     Edge 20, Type (0, 0), BuildingBlock: ZUJKAS_clean_linker_0, # of connection points: 2
#     Edge 21, Type (0, 0), BuildingBlock: ZUJKAS_clean_linker_0, # of connection points: 2
#     Edge 22, Type (0, 0), BuildingBlock: ZUJKAS_clean_linker_0, # of connection points: 2
#     Edge 23, Type (0, 0), BuildingBlock: ZUJKAS_clean_linker_0, # of connection points: 2
#     Edge 24, Type (0, 0), BuildingBlock: ZUJKAS_clean_linker_0, # of connection points: 2
#     Edge 25, Type (0, 0), BuildingBlock: ZUJKAS_clean_linker_0, # of connection points: 2
#     Edge 26, Type (0, 0), BuildingBlock: ZUJKAS_clean_linker_0, # of connection points: 2
#     Edge 27, Type (0, 0), BuildingBlock: ZUJKAS_clean_linker_0, # of connection points: 2
#     Edge 28, Type (0, 0), BuildingBlock: ZUJKAS_clean_linker_0, # of connection points: 2
#     Edge 29, Type (0, 0), BuildingBlock: ZUJKAS_clean_linker_0, # of connection points: 2
#     Edge 30, Type (0, 0), BuildingBlock: ZUJKAS_clean_linker_0, # of connection points: 2
#     Edge 31, Type (0, 0), BuildingBlock: ZUJKAS_clean_linker_0, # of connection points: 2
#     Edge 32, Type (0, 0), BuildingBlock: ZUJKAS_clean_linker_0, # of connection points: 2
#     Edge 33, Type (0, 0), BuildingBlock: ZUJKAS_clean_linker_0, # of connection points: 2
#     Edge 34, Type (0, 0), BuildingBlock: ZUJKAS_clean_linker_0, # of connection points: 2
#     Edge 35, Type (0, 0), BuildingBlock: ZUJKAS_clean_linker_0, # of connection points: 2
#     Edge 36, Type (0, 0), BuildingBlock: ZUJKAS_clean_linker_0, # of connection points: 2
#     Edge 37, Type (0, 0), BuildingBlock: ZUJKAS_clean_linker_0, # of connection points: 2
#     Edge 38, Type (0, 0), BuildingBlock: ZUJKAS_clean_linker_0, # of connection points: 2
#     Edge 39, Type (0, 0), BuildingBlock: ZUJKAS_clean_linker_0, # of connection points: 2
#     Edge 40, Type (0, 0), BuildingBlock: ZUJKAS_clean_linker_0, # of connection points: 2
#     Edge 41, Type (0, 0), BuildingBlock: ZUJKAS_clean_linker_0, # of connection points: 2
#     Edge 42, Type (0, 0), BuildingBlock: ZUJKAS_clean_linker_0, # of connection points: 2
#     Edge 43, Type (0, 0), BuildingBlock: ZUJKAS_clean_linker_0, # of connection points: 2
#     Edge 44, Type (0, 0), BuildingBlock: ZUJKAS_clean_linker_0, # of connection points: 2
#     Edge 45, Type (0, 0), BuildingBlock: ZUJKAS_clean_linker_0, # of connection points: 2
#     Edge 46, Type (0, 0), BuildingBlock: ZUJKAS_clean_linker_0, # of connection points: 2
#     Edge 47, Type (0, 0), BuildingBlock: ZUJKAS_clean_linker_0, # of connection points: 2
# Relax obj value: 0.015
# Max RMSD: 0.104
# Mean RMSD: 0.104
data_MOF--net-umc--node1-NAWXER_clean_sbu_0--edge1-ZUJKAS_clean_linker_0
_symmetry_space_group_name_H-M    P1
_symmetry_Int_Tables_number       1
_symmetry_cell_setting            triclinic
loop_
_symmetry_equiv_pos_as_xyz
'x, y, z'
_cell_length_a     71.343111
_cell_length_b     28.484363
_cell_length_c     76.660942
_cell_angle_alpha  90.021504
_cell_angle_beta   89.990356
_cell_angle_gamma 89.995497
loop_
_atom_site_label
_atom_site_type_symbol
_atom_site_fract_x
_atom_site_fract_y
_atom_site_fract_z
_atom_type_partial_charge
C0 C 0.36791 0.03606 0.40462 0.0
C1 C 0.36724 0.03161 0.34107 0.0
O2 O 0.37392 0.0743 0.39778 0.0
Zn3 Zn 0.37851 0.1024 0.37208 0.0
O4 O 0.36278 0.00251 0.39479 0.0
Zn5 Zn 0.36772 0.03323 0.37285 0.0
O6 O 0.39783 0.03803 0.3726 0.0
O7 O 0.40528 0.11309 0.37171 0.0
O8 O 0.36254 0.99931 0.35162 0.0
O9 O 0.37328 0.07089 0.34703 0.0
O10 O 0.36194 0.15599 0.37175 0.0
O11 O 0.34694 0.08831 0.37243 0.0
C12 C 0.41035 0.07034 0.37215 0.0
C13 C 0.34659 0.13336 0.37203 0.0
C14 C 0.66775 0.86559 0.37147 0.0
C15 C 0.60479 0.93342 0.37205 0.0
O16 O 0.66794 0.91059 0.37197 0.0
Zn17 Zn 0.64799 0.96714 0.37241 0.0
O18 O 0.65214 0.84416 0.37114 0.0
Zn19 Zn 0.63614 0.89904 0.37178 0.0
O20 O 0.64078 0.93079 0.34669 0.0
O21 O 0.65388 3e-05 0.35113 0.0
O22 O 0.60934 0.89027 0.37187 0.0
O23 O 0.6177 0.96484 0.37223 0.0
O24 O 0.65341 0.99766 0.3943 0.0
O25 O 0.64131 0.92691 0.39741 0.0
C26 C 0.6477 0.96908 0.34067 0.0
C27 C 0.64789 0.96466 0.40419 0.0
C28 C 0.3679 0.96562 0.09164 0.0
C29 C 0.36739 0.96775 0.15518 0.0
O30 O 0.37391 0.92703 0.09823 0.0
Zn31 Zn 0.37856 0.89796 0.12381 0.0
O32 O 0.36286 0.99876 0.10169 0.0
Zn33 Zn 0.36781 0.96704 0.1234 0.0
O34 O 0.39796 0.96216 0.12364 0.0
O35 O 0.40529 0.88701 0.12406 0.0
O36 O 0.36263 0.00024 0.14473 0.0
O37 O 0.37344 0.92863 0.14906 0.0
O38 O 0.36202 0.84436 0.12391 0.0
O39 O 0.34698 0.912 0.12353 0.0
C40 C 0.41043 0.92972 0.1239 0.0
C41 C 0.34666 0.86694 0.12372 0.0
C42 C 0.64822 0.02658 0.1542 0.0
C43 C 0.64812 0.029 0.09067 0.0
O44 O 0.6414 0.06484 0.14806 0.0
Zn45 Zn 0.63682 0.09598 0.12285 0.0
O46 O 0.65431 0.99529 0.14383 0.0
Zn47 Zn 0.6485 0.02774 0.12245 0.0
O48 O 0.66862 0.08391 0.12264 0.0
O49 O 0.65297 0.15057 0.12321 0.0
O50 O 0.65378 0.99642 0.10069 0.0
O51 O 0.64164 0.06706 0.09731 0.0
O52 O 0.61006 0.10537 0.12286 0.0
O53 O 0.61818 0.03062 0.12265 0.0
C54 C 0.66854 0.12893 0.12296 0.0
C55 C 0.60537 0.06232 0.12278 0.0
C56 C 0.6475 0.9655 0.59117 0.0
C57 C 0.64825 0.97137 0.65467 0.0
O58 O 0.65263 0.99918 0.60094 0.0
Zn59 Zn 0.64776 0.96874 0.62283 0.0
O60 O 0.6416 0.92717 0.59808 0.0
Zn61 Zn 0.63742 0.89936 0.62405 0.0
O62 O 0.61079 0.8874 0.62511 0.0
O63 O 0.61764 0.9627 0.62257 0.0
O64 O 0.64259 0.93161 0.64887 0.0
O65 O 0.65257 0.00364 0.64397 0.0
O66 O 0.66892 0.91443 0.6233 0.0
O67 O 0.65422 0.84639 0.62445 0.0
C68 C 0.60544 0.92975 0.62369 0.0
C69 C 0.66947 0.8694 0.6239 0.0
C70 C 0.36851 0.03491 0.59168 0.0
C71 C 0.36772 0.02847 0.65515 0.0
O72 O 0.36282 0.00171 0.6014 0.0
Zn73 Zn 0.368 0.03155 0.62336 0.0
O74 O 0.37495 0.07261 0.59865 0.0
Zn75 Zn 0.37946 0.09987 0.62465 0.0
O76 O 0.40617 0.10965 0.62556 0.0
O77 O 0.39829 0.03485 0.62331 0.0
O78 O 0.3744 0.06729 0.64942 0.0
O79 O 0.36212 0.99748 0.64444 0.0
O80 O 0.34773 0.0875 0.62383 0.0
O81 O 0.36325 0.15427 0.62529 0.0
C82 C 0.41093 0.0668 0.62434 0.0
C83 C 0.34773 0.13248 0.6246 0.0
C84 C 0.64723 0.03486 0.90402 0.0
C85 C 0.64835 0.03618 0.8405 0.0
O86 O 0.65264 0.00252 0.89377 0.0
Zn87 Zn 0.64779 0.03531 0.87226 0.0
O88 O 0.64119 0.07369 0.89766 0.0
Zn89 Zn 0.63692 0.1043 0.87227 0.0
O90 O 0.61016 0.11507 0.8719 0.0
O91 O 0.61763 0.03997 0.87197 0.0
O92 O 0.64224 0.07495 0.84685 0.0
O93 O 0.65308 0.00318 0.85074 0.0
O94 O 0.66853 0.09043 0.8726 0.0
O95 O 0.65343 0.15798 0.87271 0.0
C96 C 0.6051 0.0723 0.87185 0.0
C97 C 0.66882 0.13549 0.87275 0.0
C98 C 0.36769 0.96903 0.90481 0.0
C99 C 0.36704 0.97126 0.84128 0.0
O100 O 0.36207 0.0017 0.89482 0.0
Zn101 Zn 0.36729 0.97048 0.87302 0.0
O102 O 0.37421 0.93105 0.89815 0.0
Zn103 Zn 0.37909 0.90236 0.87257 0.0
O104 O 0.40589 0.89356 0.87237 0.0
O105 O 0.39758 0.96815 0.87257 0.0
O106 O 0.37402 0.93315 0.84738 0.0
O107 O 0.36113 0.00268 0.85168 0.0
O108 O 0.34732 0.91392 0.87297 0.0
O109 O 0.36311 0.84745 0.87234 0.0
C110 C 0.41047 0.93669 0.87237 0.0
C111 C 0.34749 0.8689 0.87266 0.0
C112 C 0.86728 0.52604 0.40522 0.0
C113 C 0.86578 0.52404 0.34166 0.0
O114 O 0.87317 0.56459 0.39851 0.0
Zn115 Zn 0.87726 0.59381 0.37292 0.0
O116 O 0.86195 0.49297 0.39527 0.0
Zn117 Zn 0.86656 0.52459 0.37343 0.0
O118 O 0.89668 0.52968 0.37285 0.0
O119 O 0.90399 0.60485 0.3723 0.0
O120 O 0.8612 0.49137 0.35211 0.0
O121 O 0.87183 0.56315 0.34776 0.0
O122 O 0.86062 0.64724 0.37303 0.0
O123 O 0.84569 0.57946 0.37347 0.0
C124 C 0.90914 0.56215 0.37243 0.0
C125 C 0.8453 0.62451 0.3733 0.0
C126 C 0.14738 0.47073 0.40458 0.0
C127 C 0.1472 0.47063 0.34102 0.0
O128 O 0.14136 0.43193 0.39818 0.0
Zn129 Zn 0.13643 0.402 0.37281 0.0
O130 O 0.15225 0.50368 0.39437 0.0
Zn131 Zn 0.1471 0.47128 0.3728 0.0
O132 O 0.11699 0.4662 0.37288 0.0
O133 O 0.10968 0.39103 0.37284 0.0
O134 O 0.15198 0.5037 0.35121 0.0
O135 O 0.1413 0.43173 0.34742 0.0
O136 O 0.15305 0.34853 0.3728 0.0
O137 O 0.16797 0.41636 0.37272 0.0
C138 C 0.10453 0.43373 0.37288 0.0
C139 C 0.16838 0.3713 0.37273 0.0
C140 C 0.86757 0.47128 0.09186 0.0
C141 C 0.86668 0.46877 0.15542 0.0
O142 O 0.87359 0.43235 0.09814 0.0
Zn143 Zn 0.87797 0.40133 0.12342 0.0
O144 O 0.86224 0.50357 0.10217 0.0
Zn145 Zn 0.86712 0.47044 0.12364 0.0
O146 O 0.89727 0.46568 0.12383 0.0
O147 O 0.90473 0.39058 0.12368 0.0
O148 O 0.86193 0.50208 0.14533 0.0
O149 O 0.87275 0.43017 0.1489 0.0
O150 O 0.86142 0.34774 0.12291 0.0
O151 O 0.84636 0.41535 0.1232 0.0
C152 C 0.9098 0.43336 0.12383 0.0
C153 C 0.84605 0.37029 0.12294 0.0
C154 C 0.10489 0.56467 0.12349 0.0
C155 C 0.16852 0.62845 0.12342 0.0
O156 O 0.11746 0.53245 0.12328 0.0
Zn157 Zn 0.14759 0.52802 0.12308 0.0
O158 O 0.10991 0.60747 0.1236 0.0
Zn159 Zn 0.13669 0.59703 0.12338 0.0
O160 O 0.1415 0.56788 0.09786 0.0
O161 O 0.15267 0.49629 0.10136 0.0
O162 O 0.15311 0.65086 0.12348 0.0
O163 O 0.16828 0.58338 0.12328 0.0
O164 O 0.15277 0.49508 0.14448 0.0
O165 O 0.14186 0.56671 0.14864 0.0
C166 C 0.14761 0.52936 0.09129 0.0
C167 C 0.14796 0.52775 0.15484 0.0
C168 C 0.14864 0.47219 0.59123 0.0
C169 C 0.14913 0.47231 0.6548 0.0
O170 O 0.15371 0.50506 0.60139 0.0
Zn171 Zn 0.14879 0.47276 0.62303 0.0
O172 O 0.14265 0.43344 0.59769 0.0
Zn173 Zn 0.13805 0.40355 0.6231 0.0
O174 O 0.11131 0.39262 0.62335 0.0
O175 O 0.11867 0.46777 0.62328 0.0
O176 O 0.14313 0.43342 0.64845 0.0
O177 O 0.15389 0.50529 0.64456 0.0
O178 O 0.16963 0.41776 0.623 0.0
O179 O 0.15464 0.35005 0.623 0.0
C180 C 0.10619 0.43535 0.6234 0.0
C181 C 0.16999 0.3727 0.623 0.0
C182 C 0.84765 0.63124 0.62371 0.0
C183 C 0.91113 0.56665 0.62429 0.0
O184 O 0.86312 0.65338 0.62379 0.0
Zn185 Zn 0.87943 0.59931 0.62399 0.0
O186 O 0.84777 0.58618 0.6237 0.0
Zn187 Zn 0.86832 0.53057 0.62377 0.0
O188 O 0.86293 0.49802 0.64519 0.0
O189 O 0.87406 0.56943 0.64932 0.0
O190 O 0.8985 0.53458 0.62407 0.0
O191 O 0.9062 0.60952 0.62438 0.0
O192 O 0.87502 0.56947 0.59849 0.0
O193 O 0.86334 0.49845 0.60213 0.0
C194 C 0.86781 0.53065 0.65554 0.0
C195 C 0.86884 0.53092 0.592 0.0
C196 C 0.14808 0.52931 0.90455 0.0
C197 C 0.14903 0.52893 0.841 0.0
O198 O 0.15313 0.49634 0.89443 0.0
Zn199 Zn 0.1484 0.52864 0.87277 0.0
O200 O 0.1422 0.56812 0.89804 0.0
Zn201 Zn 0.13781 0.59795 0.87257 0.0
O202 O 0.11108 0.60919 0.8722 0.0
O203 O 0.11828 0.53395 0.87239 0.0
O204 O 0.14306 0.56795 0.84726 0.0
O205 O 0.15361 0.49596 0.85131 0.0
O206 O 0.16935 0.58337 0.87293 0.0
O207 O 0.15449 0.65127 0.87276 0.0
C208 C 0.10587 0.56654 0.87219 0.0
C209 C 0.1698 0.62843 0.87291 0.0
C210 C 0.86867 0.4749 0.90528 0.0
C211 C 0.86713 0.47467 0.84173 0.0
O212 O 0.8633 0.50759 0.89517 0.0
Zn213 Zn 0.86792 0.47516 0.8735 0.0
O214 O 0.87457 0.43612 0.89875 0.0
Zn215 Zn 0.87862 0.40595 0.87328 0.0
O216 O 0.90533 0.39478 0.87269 0.0
O217 O 0.89807 0.47 0.873 0.0
O218 O 0.87318 0.43575 0.84799 0.0
O219 O 0.86257 0.50768 0.85204 0.0
O220 O 0.84704 0.4203 0.87383 0.0
O221 O 0.86199 0.35253 0.87366 0.0
C222 C 0.91051 0.43746 0.87271 0.0
C223 C 0.84665 0.37524 0.87387 0.0
H224 H 0.35609 0.96054 0.42402 0.0
H225 H 0.35419 0.95501 0.45591 0.0
H226 H 0.37579 0.09584 0.46047 0.0
H227 H 0.37758 0.10194 0.42881 0.0
H228 H 0.38333 0.96566 0.48091 0.0
H229 H 0.32765 0.09928 0.48983 0.0
H230 H 0.33264 0.07265 0.46895 0.0
H231 H 0.34706 0.11971 0.477 0.0
C232 C 0.36038 0.99037 0.43182 0.0
C233 C 0.36688 0.03179 0.42385 0.0
C234 C 0.35929 0.98712 0.45002 0.0
C235 C 0.36455 0.02531 0.46051 0.0
C236 C 0.37129 0.06634 0.4526 0.0
H237 H 0.37885 0.10025 0.56749 0.0
H238 H 0.37724 0.09384 0.53578 0.0
C239 C 0.3724 0.06963 0.43447 0.0
C240 C 0.36342 0.02237 0.47976 0.0
H241 H 0.34467 0.07701 0.51534 0.0
C242 C 0.3747 0.98951 0.48848 0.0
C243 C 0.35212 0.05353 0.48954 0.0
C244 C 0.33904 0.088 0.48087 0.0
C245 C 0.37561 0.98845 0.50678 0.0
C246 C 0.36474 0.02064 0.51653 0.0
C247 C 0.35306 0.05253 0.50781 0.0
C248 C 0.3659 0.02342 0.53579 0.0
C249 C 0.38873 0.95424 0.51553 0.0
C250 C 0.35994 0.98597 0.5463 0.0
C251 C 0.36084 0.98949 0.56449 0.0
C252 C 0.36766 0.03062 0.57245 0.0
C253 C 0.37356 0.06805 0.56182 0.0
C254 C 0.37263 0.0645 0.54368 0.0
H255 H 0.39879 0.93842 0.50615 0.0
H256 H 0.39675 0.97181 0.52609 0.0
H257 H 0.38043 0.92546 0.52149 0.0
H258 H 0.35442 0.95425 0.54044 0.0
H259 H 0.35612 0.96009 0.57229 0.0
H260 H 0.65939 0.04102 0.57191 0.0
H261 H 0.66119 0.04712 0.54007 0.0
H262 H 0.63943 0.90651 0.53518 0.0
H263 H 0.63776 0.89982 0.56688 0.0
H264 H 0.67169 0.92445 0.51482 0.0
H265 H 0.61704 0.06171 0.5057 0.0
H266 H 0.63537 0.07537 0.52097 0.0
H267 H 0.61929 0.02857 0.52567 0.0
C268 C 0.65492 0.01146 0.56406 0.0
C269 C 0.64839 0.96996 0.57195 0.0
C270 C 0.65587 0.01511 0.54587 0.0
C271 C 0.65024 0.97746 0.5353 0.0
C272 C 0.64379 0.93601 0.54313 0.0
H273 H 0.63823 0.89905 0.42846 0.0
H274 H 0.64021 0.90532 0.46011 0.0
C275 C 0.64283 0.93231 0.56126 0.0
C276 C 0.65143 0.9804 0.51605 0.0
H277 H 0.63269 0.03509 0.48045 0.0
C278 C 0.66323 0.94878 0.5073 0.0
C279 C 0.64047 0.0124 0.50631 0.0
C280 C 0.6272 0.04628 0.51507 0.0
C281 C 0.66417 0.94782 0.48904 0.0
C282 C 0.65277 0.97878 0.47928 0.0
C283 C 0.64139 0.01141 0.48801 0.0
C284 C 0.6516 0.9757 0.46004 0.0
C285 C 0.67731 0.91355 0.48033 0.0
C286 C 0.65692 0.01373 0.44951 0.0
C287 C 0.65575 0.01035 0.43131 0.0
C288 C 0.64908 0.96901 0.42341 0.0
C289 C 0.64353 0.93132 0.43408 0.0
C290 C 0.64474 0.93471 0.45219 0.0
H291 H 0.68869 0.90223 0.48929 0.0
H292 H 0.66934 0.88184 0.47638 0.0
H293 H 0.68372 0.9291 0.46846 0.0
H294 H 0.66212 0.0458 0.45536 0.0
H295 H 0.66007 0.04006 0.42347 0.0
H296 H 0.35607 0.04217 0.07284 0.0
H297 H 0.35375 0.04914 0.04101 0.0
H298 H 0.37494 0.9082 0.03534 0.0
H299 H 0.37717 0.90069 0.06695 0.0
H300 H 0.38247 0.03906 0.01551 0.0
H301 H 0.32625 0.90691 0.00669 0.0
H302 H 0.33164 0.93269 0.02763 0.0
H303 H 0.34576 0.88557 0.01917 0.0
C304 C 0.36019 0.01263 0.06481 0.0
C305 C 0.3667 0.97076 0.07245 0.0
C306 C 0.35886 0.0167 0.04665 0.0
C307 C 0.36387 0.9789 0.03587 0.0
C308 C 0.37063 0.93743 0.04345 0.0
H309 H 0.37786 0.90456 0.92932 0.0
H310 H 0.37601 0.91179 0.96096 0.0
C311 C 0.37199 0.93333 0.06154 0.0
C312 C 0.36244 0.98266 0.01665 0.0
H313 H 0.34314 0.92927 0.98107 0.0
C314 C 0.37368 0.01559 0.00795 0.0
C315 C 0.35089 0.95205 0.00688 0.0
C316 C 0.33781 0.9176 0.01556 0.0
C317 C 0.3744 0.0171 0.98963 0.0
C318 C 0.36337 0.98526 0.97988 0.0
C319 C 0.35164 0.95348 0.98861 0.0
C320 C 0.36464 0.98218 0.96064 0.0
C321 C 0.38753 0.05124 0.98086 0.0
C322 C 0.35876 0.01937 0.94996 0.0
C323 C 0.3598 0.01539 0.93178 0.0
C324 C 0.36668 0.97405 0.92402 0.0
C325 C 0.37251 0.93692 0.93482 0.0
C326 C 0.37145 0.94093 0.95293 0.0
H327 H 0.3975 0.06739 0.99024 0.0
H328 H 0.39565 0.03346 0.97041 0.0
H329 H 0.37924 0.07977 0.97474 0.0
H330 H 0.3532 0.05124 0.95567 0.0
H331 H 0.35513 0.04455 0.92382 0.0
H332 H 0.66003 0.95852 0.92239 0.0
H333 H 0.66026 0.94814 0.95416 0.0
H334 H 0.63596 0.08565 0.96059 0.0
H335 H 0.63553 0.09627 0.92904 0.0
H336 H 0.67802 0.00561 0.97993 0.0
H337 H 0.60097 0.99938 0.98886 0.0
H338 H 0.61203 0.99097 0.9679 0.0
H339 H 0.60875 0.04917 0.97648 0.0
C340 C 0.65468 0.98647 0.93058 0.0
C341 C 0.64766 0.02812 0.92317 0.0
C342 C 0.65484 0.98048 0.9487 0.0
C343 C 0.64784 0.01582 0.95967 0.0
C344 C 0.64107 0.05757 0.95233 0.0
H345 H 0.63677 0.09211 0.06614 0.0
H346 H 0.6374 0.08347 0.0345 0.0
C347 C 0.64093 0.06365 0.93427 0.0
C348 C 0.64792 0.00998 0.97886 0.0
H349 H 0.61928 0.013 0.01449 0.0
C350 C 0.6652 0.00648 0.98752 0.0
C351 C 0.63114 0.01098 0.98866 0.0
C352 C 0.61215 0.01237 0.98001 0.0
C353 C 0.66617 0.00645 0.00583 0.0
C354 C 0.6494 0.00932 0.01562 0.0
C355 C 0.63211 0.01103 0.00693 0.0
C356 C 0.64947 0.01383 0.03486 0.0
C357 C 0.68512 0.00557 0.01455 0.0
C358 C 0.65599 0.97735 0.04556 0.0
C359 C 0.65567 0.98216 0.06374 0.0
C360 C 0.64876 0.02349 0.07147 0.0
C361 C 0.64221 0.05982 0.06065 0.0
C362 C 0.64253 0.05496 0.04255 0.0
H363 H 0.6967 0.01199 0.00516 0.0
H364 H 0.68585 0.0324 0.02505 0.0
H365 H 0.68736 0.97065 0.02061 0.0
H366 H 0.66114 0.94502 0.03986 0.0
H367 H 0.66075 0.95345 0.0717 0.0
H368 H 0.85609 0.45495 0.57338 0.0
H369 H 0.85584 0.44527 0.54158 0.0
H370 H 0.87997 0.58309 0.53558 0.0
H371 H 0.88043 0.593 0.56717 0.0
H372 H 0.838 0.50258 0.51604 0.0
H373 H 0.91506 0.49822 0.50697 0.0
H374 H 0.90408 0.48945 0.52795 0.0
H375 H 0.90712 0.54778 0.51941 0.0
C376 C 0.86139 0.48313 0.56528 0.0
C377 C 0.86838 0.52465 0.57283 0.0
C378 C 0.86122 0.47753 0.54714 0.0
C379 C 0.86817 0.51314 0.53628 0.0
C380 C 0.8749 0.55479 0.54376 0.0
H381 H 0.8785 0.58973 0.42963 0.0
H382 H 0.87809 0.5814 0.46128 0.0
C383 C 0.87505 0.56046 0.56183 0.0
C384 C 0.86808 0.50766 0.51707 0.0
H385 H 0.89664 0.51152 0.48139 0.0
C386 C 0.85081 0.50381 0.50843 0.0
C387 C 0.88484 0.50915 0.50724 0.0
C388 C 0.90384 0.51091 0.51586 0.0
C389 C 0.8498 0.5038 0.49012 0.0
C390 C 0.86654 0.50705 0.4803 0.0
C391 C 0.88383 0.50923 0.48897 0.0
C392 C 0.86641 0.51134 0.46106 0.0
C393 C 0.83084 0.50245 0.48142 0.0
C394 C 0.86006 0.47449 0.45043 0.0
C395 C 0.86026 0.47911 0.43224 0.0
C396 C 0.86688 0.52063 0.42443 0.0
C397 C 0.87328 0.5573 0.43518 0.0
C398 C 0.87309 0.55262 0.45329 0.0
H399 H 0.81926 0.50863 0.49084 0.0
H400 H 0.83 0.52923 0.47093 0.0
H401 H 0.82872 0.46746 0.47537 0.0
H402 H 0.85512 0.44206 0.45619 0.0
H403 H 0.85531 0.45015 0.42433 0.0
H404 H 0.16026 0.54928 0.57258 0.0
H405 H 0.16218 0.55709 0.54077 0.0
H406 H 0.14127 0.41598 0.53481 0.0
H407 H 0.13944 0.40764 0.56641 0.0
H408 H 0.17387 0.43672 0.51483 0.0
H409 H 0.11776 0.57066 0.50621 0.0
H410 H 0.13587 0.58401 0.52176 0.0
H411 H 0.12004 0.53636 0.5259 0.0
C412 C 0.15601 0.51999 0.56449 0.0
C413 C 0.14966 0.47786 0.57205 0.0
C414 C 0.15704 0.5246 0.54633 0.0
C415 C 0.15169 0.48726 0.53547 0.0
C416 C 0.14542 0.44524 0.54298 0.0
H417 H 0.13899 0.40575 0.42948 0.0
H418 H 0.14159 0.41378 0.46104 0.0
C419 C 0.14437 0.44059 0.56106 0.0
C420 C 0.15293 0.49102 0.51624 0.0
H421 H 0.13295 0.54377 0.48082 0.0
C422 C 0.16503 0.46038 0.50739 0.0
C423 C 0.14146 0.52214 0.50661 0.0
C424 C 0.12793 0.55503 0.51552 0.0
C425 C 0.16569 0.45926 0.48911 0.0
C426 C 0.15369 0.48902 0.47946 0.0
C427 C 0.14209 0.52095 0.4883 0.0
C428 C 0.15206 0.48502 0.46027 0.0
C429 C 0.17912 0.42591 0.48028 0.0
C430 C 0.15661 0.52294 0.44939 0.0
C431 C 0.15508 0.51856 0.43125 0.0
C432 C 0.14881 0.47627 0.42375 0.0
C433 C 0.14397 0.43872 0.43478 0.0
C434 C 0.14554 0.44313 0.45284 0.0
H435 H 0.19087 0.416 0.48906 0.0
H436 H 0.17153 0.39333 0.47667 0.0
H437 H 0.18501 0.44159 0.46821 0.0
H438 H 0.16153 0.5557 0.45492 0.0
H439 H 0.15885 0.54819 0.42312 0.0
H440 H 0.85612 0.55087 0.92406 0.0
H441 H 0.85594 0.56011 0.95589 0.0
H442 H 0.87995 0.42205 0.96156 0.0
H443 H 0.88032 0.41256 0.92997 0.0
H444 H 0.83805 0.50202 0.98133 0.0
H445 H 0.9151 0.50652 0.99035 0.0
H446 H 0.90409 0.51591 0.96943 0.0
H447 H 0.90722 0.45732 0.97768 0.0
C448 C 0.86142 0.52256 0.93209 0.0
C449 C 0.86833 0.48107 0.92446 0.0
C450 C 0.86129 0.52791 0.95025 0.0
C451 C 0.86822 0.49208 0.96103 0.0
C452 C 0.8749 0.45051 0.95345 0.0
H453 H 0.87865 0.4094 0.06677 0.0
H454 H 0.87816 0.42011 0.03522 0.0
C455 C 0.875 0.44507 0.93537 0.0
C456 C 0.86813 0.49714 0.98025 0.0
H457 H 0.89671 0.49166 0.01587 0.0
C458 C 0.85086 0.50053 0.98892 0.0
C459 C 0.8849 0.49533 0.99006 0.0
C460 C 0.9039 0.49403 0.98141 0.0
C461 C 0.84986 0.4996 0.00723 0.0
C462 C 0.86661 0.49585 0.01701 0.0
C463 C 0.8839 0.49431 0.00832 0.0
C464 C 0.86649 0.49014 0.0362 0.0
C465 C 0.83091 0.50038 0.01595 0.0
C466 C 0.86015 0.52616 0.04722 0.0
C467 C 0.8604 0.52018 0.06535 0.0
C468 C 0.86705 0.47809 0.07272 0.0
C469 C 0.87341 0.44223 0.06157 0.0
C470 C 0.87317 0.44828 0.04352 0.0
H471 H 0.81931 0.49499 0.00649 0.0
H472 H 0.83005 0.4728 0.02616 0.0
H473 H 0.82882 0.53489 0.02238 0.0
H474 H 0.8552 0.55902 0.04181 0.0
H475 H 0.85547 0.54853 0.07357 0.0
H476 H 0.15909 0.45245 0.07246 0.0
H477 H 0.16149 0.44554 0.04063 0.0
H478 H 0.14119 0.58731 0.03503 0.0
H479 H 0.13887 0.59473 0.06663 0.0
H480 H 0.13263 0.45753 0.01502 0.0
H481 H 0.19021 0.5862 0.00659 0.0
H482 H 0.18459 0.56019 0.02743 0.0
H483 H 0.17092 0.60836 0.01917 0.0
C484 C 0.15519 0.48218 0.06444 0.0
C485 C 0.14889 0.52424 0.0721 0.0
C486 C 0.15655 0.47814 0.04628 0.0
C487 C 0.15181 0.51618 0.03553 0.0
C488 C 0.14528 0.55787 0.04313 0.0
H489 H 0.13877 0.59392 0.92933 0.0
H490 H 0.14058 0.5857 0.96094 0.0
C491 C 0.14387 0.56192 0.06121 0.0
C492 C 0.15327 0.51252 0.01632 0.0
H493 H 0.17314 0.56531 0.9809 0.0
C494 C 0.14168 0.48053 0.00752 0.0
C495 C 0.16514 0.54253 0.00663 0.0
C496 C 0.17856 0.57596 0.01543 0.0
C497 C 0.14094 0.47947 0.9892 0.0
C498 C 0.1523 0.51076 0.97954 0.0
C499 C 0.16438 0.54152 0.98837 0.0
C500 C 0.15103 0.51444 0.96032 0.0
C501 C 0.12742 0.44646 0.98034 0.0
C502 C 0.1564 0.47706 0.94948 0.0
C503 C 0.15538 0.48161 0.93132 0.0
C504 C 0.14903 0.52369 0.92373 0.0
C505 C 0.1437 0.56099 0.93469 0.0
C506 C 0.14474 0.55641 0.95278 0.0
H507 H 0.11727 0.43086 0.98967 0.0
H508 H 0.11951 0.46501 0.96994 0.0
H509 H 0.13538 0.41745 0.97413 0.0
H510 H 0.16156 0.44462 0.95506 0.0
H511 H 0.15966 0.45229 0.92324 0.0
H512 H 0.57364 0.87689 0.37232 0.0
H513 H 0.54071 0.90134 0.37207 0.0
H514 H 0.55776 0.04654 0.37164 0.0
H515 H 0.59064 0.0226 0.37172 0.0
H516 H 0.52169 0.9584 0.39654 0.0
H517 H 0.52104 0.0384 0.33049 0.0
H518 H 0.53948 0.99962 0.33774 0.0
H519 H 0.53919 0.05993 0.34463 0.0
C520 C 0.57039 0.91403 0.3721 0.0
C521 C 0.5848 0.94777 0.37197 0.0
C522 C 0.55157 0.92793 0.37197 0.0
C523 C 0.5468 0.97573 0.37157 0.0
C524 C 0.56113 0.00946 0.3716 0.0
H525 H 0.44096 0.12884 0.37143 0.0
H526 H 0.47413 0.10636 0.37179 0.0
C527 C 0.57993 0.99565 0.37175 0.0
C528 C 0.52685 0.99041 0.37157 0.0
H529 H 0.49398 0.05007 0.34793 0.0
C530 C 0.5156 0.97826 0.38588 0.0
C531 C 0.51897 0.01654 0.35768 0.0
C532 C 0.53022 0.02911 0.34168 0.0
C533 C 0.49672 0.99207 0.38681 0.0
C534 C 0.48881 0.01799 0.37289 0.0
C535 C 0.50009 0.03031 0.3586 0.0
C536 C 0.46874 0.03165 0.37272 0.0
C537 C 0.48552 0.97956 0.40285 0.0
C538 C 0.45473 0.99711 0.37286 0.0
C539 C 0.43582 0.00979 0.37267 0.0
C540 C 0.43049 0.05735 0.37222 0.0
C541 C 0.44457 0.09193 0.37184 0.0
C542 C 0.46352 0.07915 0.37203 0.0
H543 H 0.49474 0.97137 0.41412 0.0
H544 H 0.47594 0.00861 0.40658 0.0
H545 H 0.4769 0.948 0.40006 0.0
H546 H 0.45844 0.96023 0.37301 0.0
H547 H 0.42538 0.98219 0.37286 0.0
H548 H 0.44089 0.87073 0.12404 0.0
H549 H 0.47411 0.89265 0.12433 0.0
H550 H 0.45882 0.03908 0.12402 0.0
H551 H 0.42569 0.01769 0.12391 0.0
H552 H 0.49404 0.947 0.09982 0.0
H553 H 0.49515 0.03014 0.16529 0.0
H554 H 0.47627 0.99258 0.15814 0.0
H555 H 0.47734 0.05265 0.15101 0.0
C556 C 0.44459 0.9076 0.12411 0.0
C557 C 0.4306 0.94243 0.12403 0.0
C558 C 0.46358 0.92005 0.12426 0.0
C559 C 0.46892 0.96749 0.12448 0.0
C560 C 0.45501 0.00227 0.12423 0.0
H561 H 0.57443 0.11959 0.12304 0.0
H562 H 0.54142 0.09596 0.12306 0.0
C563 C 0.43606 0.98991 0.12406 0.0
C564 C 0.48904 0.98076 0.1245 0.0
H565 H 0.52218 0.04093 0.14763 0.0
C566 C 0.50025 0.96727 0.11031 0.0
C567 C 0.49706 0.00735 0.1382 0.0
C568 C 0.4859 0.02122 0.15411 0.0
C569 C 0.51918 0.9805 0.10926 0.0
C570 C 0.52719 0.00724 0.12293 0.0
C571 C 0.516 0.02058 0.13715 0.0
C572 C 0.54721 0.0214 0.12279 0.0
C573 C 0.53033 0.96672 0.09333 0.0
C574 C 0.56141 0.98733 0.12285 0.0
C575 C 0.58027 0.00068 0.12282 0.0
C576 C 0.58532 0.04844 0.12284 0.0
C577 C 0.57105 0.08252 0.12296 0.0
C578 C 0.55217 0.0691 0.123 0.0
H579 H 0.52108 0.95735 0.0822 0.0
H580 H 0.5398 0.9956 0.08921 0.0
H581 H 0.53906 0.93562 0.09646 0.0
H582 H 0.55791 0.95034 0.12306 0.0
H583 H 0.59087 0.97347 0.12283 0.0
H584 H 0.58788 0.99285 0.60285 0.0
H585 H 0.55472 0.01451 0.60301 0.0
H586 H 0.54493 0.91775 0.64541 0.0
H587 H 0.57784 0.89327 0.64417 0.0
H588 H 0.51724 0.91284 0.62575 0.0
H589 H 0.52981 0.1024 0.63441 0.0
H590 H 0.54043 0.08289 0.61455 0.0
H591 H 0.5486 0.06027 0.6352 0.0
C592 C 0.57857 0.97615 0.61213 0.0
C593 C 0.58534 0.94162 0.62355 0.0
C594 C 0.55966 0.98895 0.61239 0.0
C595 C 0.54731 0.96911 0.62464 0.0
C596 C 0.5541 0.93394 0.63589 0.0
H597 H 0.43895 0.10266 0.64444 0.0
H598 H 0.47169 0.07695 0.64554 0.0
C599 C 0.5729 0.91993 0.63521 0.0
C600 C 0.5273 0.98419 0.62549 0.0
H601 H 0.49885 0.08064 0.62538 0.0
C602 C 0.51326 0.94959 0.62589 0.0
C603 C 0.52193 0.03211 0.6261 0.0
C604 C 0.53602 0.07142 0.62775 0.0
C605 C 0.49416 0.96141 0.62657 0.0
C606 C 0.48877 0.0093 0.62577 0.0
C607 C 0.50282 0.04389 0.62568 0.0
C608 C 0.46875 0.02446 0.62521 0.0
C609 C 0.4801 0.9222 0.62871 0.0
C610 C 0.45611 0.00421 0.61331 0.0
C611 C 0.43727 0.01775 0.61315 0.0
C612 C 0.43088 0.05337 0.62431 0.0
C613 C 0.4436 0.07517 0.63568 0.0
C614 C 0.4623 0.06046 0.63628 0.0
H615 H 0.48644 0.89153 0.63545 0.0
H616 H 0.46766 0.93372 0.63629 0.0
H617 H 0.47544 0.91013 0.61565 0.0
H618 H 0.46078 0.97795 0.60408 0.0
H619 H 0.42775 0.00093 0.60408 0.0
H620 H 0.57451 0.13089 0.87188 0.0
H621 H 0.54133 0.10849 0.87221 0.0
H622 H 0.55696 0.96229 0.87172 0.0
H623 H 0.59003 0.98414 0.87159 0.0
H624 H 0.52119 0.05398 0.84793 0.0
H625 H 0.52112 0.97059 0.91334 0.0
H626 H 0.53985 0.00835 0.90598 0.0
H627 H 0.53878 0.94826 0.89885 0.0
C628 C 0.57089 0.09397 0.8719 0.0
C629 C 0.58495 0.05933 0.87181 0.0
C630 C 0.55193 0.08125 0.87207 0.0
C631 C 0.54669 0.03373 0.87229 0.0
C632 C 0.56068 0.99915 0.87195 0.0
H633 H 0.44156 0.87994 0.87202 0.0
H634 H 0.4745 0.90412 0.87154 0.0
C635 C 0.5796 0.01177 0.87177 0.0
C636 C 0.5266 0.02015 0.87252 0.0
H637 H 0.49392 0.95932 0.89597 0.0
C638 C 0.51517 0.03355 0.85848 0.0
C639 C 0.51882 0.99336 0.88628 0.0
C640 C 0.53021 0.97961 0.90206 0.0
C641 C 0.49625 0.02003 0.85764 0.0
C642 C 0.4885 0.99307 0.87136 0.0
C643 C 0.49991 0.97983 0.88543 0.0
C644 C 0.46851 0.97858 0.87146 0.0
C645 C 0.48485 0.03377 0.84187 0.0
C646 C 0.45423 0.01242 0.87179 0.0
C647 C 0.43541 0.99875 0.87206 0.0
C648 C 0.43048 0.95091 0.87211 0.0
C649 C 0.44484 0.91706 0.87194 0.0
C650 C 0.46368 0.93081 0.87168 0.0
H651 H 0.49392 0.04342 0.83064 0.0
H652 H 0.47541 0.00476 0.83781 0.0
H653 H 0.47607 0.06468 0.84515 0.0
H654 H 0.45763 0.04947 0.872 0.0
H655 H 0.42473 0.02578 0.87228 0.0
H656 H 0.93961 0.6211 0.3721 0.0
H657 H 0.97282 0.59912 0.37171 0.0
H658 H 0.9575 0.45271 0.37209 0.0
H659 H 0.92438 0.47416 0.3723 0.0
H660 H 0.99269 0.54476 0.39628 0.0
H661 H 0.9939 0.46139 0.33083 0.0
H662 H 0.97501 0.49902 0.33794 0.0
H663 H 0.97607 0.43902 0.34514 0.0
C664 C 0.9433 0.58423 0.37201 0.0
C665 C 0.92931 0.54942 0.37214 0.0
C666 C 0.96229 0.57174 0.3718 0.0
C667 C 0.96762 0.52429 0.37159 0.0
C668 C 0.9537 0.48952 0.37188 0.0
H669 H 0.07405 0.3748 0.37279 0.0
H670 H 0.04083 0.39682 0.37292 0.0
C671 C 0.93476 0.50192 0.3721 0.0
C672 C 0.98773 0.51099 0.37159 0.0
H673 H 0.02098 0.45119 0.34843 0.0
C674 C 0.99892 0.52455 0.38578 0.0
C675 C 0.99579 0.48441 0.3579 0.0
C676 C 0.98464 0.47041 0.342 0.0
C677 C 0.01788 0.51154 0.38681 0.0
C678 C 0.02594 0.48497 0.37313 0.0
C679 C 0.01476 0.47141 0.35893 0.0
C680 C 0.04605 0.47164 0.37315 0.0
C681 C 0.02901 0.52549 0.40273 0.0
C682 C 0.05998 0.50639 0.37299 0.0
C683 C 0.07892 0.49397 0.37293 0.0
C684 C 0.08436 0.44647 0.37291 0.0
C685 C 0.07036 0.41168 0.37286 0.0
C686 C 0.05138 0.42419 0.37292 0.0
H687 H 0.01974 0.53438 0.4139 0.0
H688 H 0.03866 0.4969 0.40677 0.0
H689 H 0.03755 0.55695 0.39964 0.0
H690 H 0.05619 0.54321 0.37278 0.0
H691 H 0.0893 0.52172 0.37285 0.0
H692 H 0.07425 0.62305 0.12387 0.0
H693 H 0.0411 0.60045 0.12436 0.0
H694 H 0.05686 0.45434 0.12372 0.0
H695 H 0.08991 0.4764 0.12342 0.0
H696 H 0.02114 0.54607 0.09995 0.0
H697 H 0.02085 0.46196 0.16525 0.0
H698 H 0.03958 0.49989 0.15802 0.0
H699 H 0.03855 0.43994 0.15074 0.0
C700 C 0.07067 0.5861 0.1239 0.0
C701 C 0.08476 0.55156 0.12369 0.0
C702 C 0.05172 0.57327 0.12417 0.0
C703 C 0.04653 0.52572 0.12436 0.0
C704 C 0.06055 0.49122 0.12396 0.0
H705 H 0.94039 0.3748 0.1237 0.0
H706 H 0.97357 0.39724 0.12344 0.0
C707 C 0.07946 0.50396 0.12368 0.0
C708 C 0.02645 0.51207 0.12452 0.0
H709 H 0.99359 0.45156 0.14789 0.0
C710 C 0.01507 0.52565 0.11047 0.0
C711 C 0.01861 0.48522 0.13824 0.0
C712 C 0.02996 0.4712 0.154 0.0
C713 C 0.99613 0.51241 0.10961 0.0
C714 C 0.98828 0.48558 0.12332 0.0
C715 C 0.99966 0.47199 0.13737 0.0
C716 C 0.9682 0.472 0.12347 0.0
C717 C 0.98478 0.52642 0.09383 0.0
C718 C 0.9542 0.50656 0.12385 0.0
C719 C 0.93528 0.49391 0.12399 0.0
C720 C 0.92994 0.44634 0.12387 0.0
C721 C 0.94401 0.41172 0.12374 0.0
C722 C 0.96297 0.42447 0.1236 0.0
H723 H 0.99389 0.53562 0.08259 0.0
H724 H 0.97516 0.49774 0.08982 0.0
H725 H 0.9762 0.5577 0.09708 0.0
H726 H 0.95792 0.54342 0.12413 0.0
H727 H 0.92485 0.52152 0.12421 0.0
H728 H 0.94185 0.62471 0.62449 0.0
H729 H 0.97497 0.60179 0.62419 0.0
H730 H 0.95899 0.45582 0.62419 0.0
H731 H 0.92596 0.47822 0.62429 0.0
H732 H 0.99478 0.54657 0.64844 0.0
H733 H 0.99511 0.46432 0.58278 0.0
H734 H 0.97641 0.50219 0.59014 0.0
H735 H 0.97736 0.44204 0.59718 0.0
C736 C 0.94538 0.58773 0.62437 0.0
C737 C 0.93123 0.55332 0.62431 0.0
C738 C 0.9643 0.57471 0.62421 0.0
C739 C 0.96943 0.52712 0.62388 0.0
C740 C 0.95535 0.49274 0.62407 0.0
H741 H 0.07569 0.37651 0.62361 0.0
H742 H 0.04249 0.39863 0.62426 0.0
C743 C 0.93646 0.50567 0.62422 0.0
C744 C 0.98948 0.5133 0.62372 0.0
H745 H 0.02235 0.45353 0.60009 0.0
C746 C 1.00085 0.52644 0.63784 0.0
C747 C 0.99733 0.48685 0.60989 0.0
C748 C 0.98599 0.47333 0.59405 0.0
C749 C 0.01979 0.5132 0.63865 0.0
C750 C 0.02765 0.48682 0.62481 0.0
C751 C 0.01628 0.47361 0.6107 0.0
C752 C 0.04775 0.47343 0.62455 0.0
C753 C 0.03114 0.52678 0.65447 0.0
C754 C 0.06168 0.50814 0.62426 0.0
C755 C 0.08062 0.49567 0.62389 0.0
C756 C 0.08603 0.44815 0.6237 0.0
C757 C 0.07202 0.4134 0.6238 0.0
C758 C 0.05305 0.42596 0.62416 0.0
H759 H 0.02203 0.53556 0.66577 0.0
H760 H 0.0408 0.49804 0.65834 0.0
H761 H 0.03969 0.55822 0.65136 0.0
H762 H 0.05791 0.54497 0.62418 0.0
H763 H 0.09101 0.52338 0.62371 0.0
H764 H 0.09048 0.47872 0.87173 0.0
H765 H 0.05732 0.45762 0.87135 0.0
H766 H 0.04226 0.60421 0.8721 0.0
H767 H 0.0755 0.62581 0.87225 0.0
H768 H 0.02978 0.4788 0.89579 0.0
H769 H 0.01188 0.55319 0.83096 0.0
H770 H 0.03577 0.54411 0.83794 0.0
H771 H 0.02276 0.59399 0.84568 0.0
C772 C 0.08015 0.50659 0.87174 0.0
C773 C 0.08568 0.55402 0.87195 0.0
C774 C 0.06118 0.4944 0.87154 0.0
C775 C 0.04732 0.5293 0.87145 0.0
C776 C 0.05274 0.57669 0.8718 0.0
H777 H 0.92588 0.52533 0.87285 0.0
H778 H 0.95905 0.54646 0.87281 0.0
C779 C 0.07174 0.58897 0.87199 0.0
C780 C 0.02721 0.51585 0.87144 0.0
H781 H 0.98658 0.52528 0.84813 0.0
C782 C 0.02034 0.48879 0.88534 0.0
C783 C 0.01493 0.52893 0.85778 0.0
C784 C 0.02169 0.5563 0.84215 0.0
C785 C 1.00143 0.47513 0.88613 0.0
C786 C 0.98916 0.48821 0.87248 0.0
C787 C 0.99603 0.51528 0.85857 0.0
C788 C 0.96905 0.47479 0.8725 0.0
C789 C 0.99468 0.44776 0.90176 0.0
C790 C 0.96363 0.42739 0.87214 0.0
C791 C 0.94463 0.4151 0.87219 0.0
C792 C 0.93069 0.45003 0.8725 0.0
C793 C 0.93621 0.49748 0.87265 0.0
C794 C 0.95518 0.50968 0.87261 0.0
H795 H 1.00452 0.45073 0.91294 0.0
H796 H 0.98063 0.46006 0.90601 0.0
H797 H 0.99355 0.41009 0.89822 0.0
H798 H 0.97411 0.39989 0.87171 0.0
H799 H 0.94088 0.37826 0.87197 0.0
H800 H 0.17484 0.27626 0.37276 0.0
H801 H 0.20521 0.23606 0.37287 0.0
H802 H 0.23354 0.36975 0.37237 0.0
H803 H 0.20338 0.41018 0.37246 0.0
H804 H 0.23443 0.24197 0.34828 0.0
H805 H 0.25804 0.30194 0.41357 0.0
H806 H 0.23397 0.30642 0.4065 0.0
H807 H 0.25103 0.34854 0.39922 0.0
C808 C 0.18753 0.29712 0.37275 0.0
C809 C 0.18665 0.34647 0.3727 0.0
C810 C 0.20487 0.27409 0.37279 0.0
C811 C 0.22162 0.29993 0.37291 0.0
C812 C 0.22079 0.34912 0.37266 0.0
H813 H 0.34023 0.22843 0.37161 0.0
H814 H 0.3099 0.26883 0.37129 0.0
C815 C 0.2035 0.37216 0.37261 0.0
C816 C 0.24 0.27556 0.37289 0.0
H817 H 0.28065 0.26313 0.39599 0.0
C818 C 0.2445 0.24636 0.35875 0.0
C819 C 0.25315 0.28153 0.38654 0.0
C820 C 0.24879 0.31096 0.40241 0.0
C821 C 0.26193 0.22357 0.35773 0.0
C822 C 0.27507 0.22955 0.37138 0.0
C823 C 0.27058 0.25876 0.38552 0.0
C824 C 0.29342 0.20507 0.3714 0.0
C825 C 0.26628 0.19406 0.34189 0.0
C826 C 0.2942 0.15588 0.37179 0.0
C827 C 0.31146 0.13273 0.37197 0.0
C828 C 0.32834 0.15831 0.37186 0.0
C829 C 0.32752 0.20766 0.37164 0.0
C830 C 0.31021 0.23081 0.37148 0.0
H831 H 0.25702 0.20299 0.33072 0.0
H832 H 0.2811 0.19862 0.33778 0.0
H833 H 0.26407 0.1565 0.34511 0.0
H834 H 0.28143 0.13535 0.3721 0.0
H835 H 0.31155 0.09472 0.37224 0.0
H836 H 0.70315 0.90192 0.37135 0.0
H837 H 0.73285 0.85945 0.3714 0.0
H838 H 0.70305 0.72777 0.37185 0.0
H839 H 0.67313 0.77005 0.37156 0.0
H840 H 0.74632 0.79688 0.39615 0.0
H841 H 0.73985 0.71111 0.33135 0.0
H842 H 0.72499 0.75919 0.33801 0.0
H843 H 0.72051 0.7008 0.34585 0.0
C844 C 0.70285 0.8639 0.37137 0.0
C845 C 0.68572 0.83938 0.37138 0.0
C846 C 0.71987 0.8397 0.37142 0.0
C847 C 0.72018 0.79048 0.37141 0.0
C848 C 0.70314 0.76578 0.37152 0.0
H849 H 0.81026 0.58575 0.3737 0.0
H850 H 0.7801 0.62636 0.37367 0.0
C851 C 0.68605 0.79 0.37145 0.0
C852 C 0.7384 0.76532 0.37172 0.0
H853 H 0.76574 0.6886 0.34879 0.0
C854 C 0.7506 0.77329 0.38578 0.0
C855 C 0.74393 0.73456 0.35817 0.0
C856 C 0.73174 0.7261 0.3424 0.0
C857 C 0.76811 0.75089 0.38677 0.0
C858 C 0.77367 0.72028 0.37319 0.0
C859 C 0.76144 0.71212 0.35917 0.0
C860 C 0.79209 0.69609 0.37334 0.0
C861 C 0.78033 0.75946 0.40252 0.0
C862 C 0.80887 0.72184 0.37299 0.0
C863 C 0.82619 0.69873 0.37303 0.0
C864 C 0.82703 0.64939 0.37332 0.0
C865 C 0.81016 0.62377 0.37352 0.0
C866 C 0.79288 0.6469 0.37348 0.0
H867 H 0.77218 0.77402 0.41363 0.0
H868 H 0.78725 0.72652 0.40682 0.0
H869 H 0.79141 0.78517 0.39909 0.0
H870 H 0.80858 0.75983 0.37253 0.0
H871 H 0.83889 0.71952 0.37276 0.0
H872 H 0.20368 0.5904 0.12376 0.0
H873 H 0.23369 0.63159 0.12413 0.0
H874 H 0.20481 0.76454 0.12343 0.0
H875 H 0.17462 0.72362 0.12329 0.0
H876 H 0.24813 0.69432 0.09975 0.0
H877 H 0.24079 0.77877 0.1647 0.0
H878 H 0.22582 0.73136 0.15762 0.0
H879 H 0.22175 0.79012 0.14996 0.0
C880 C 0.20365 0.62843 0.12375 0.0
C881 C 0.1867 0.65371 0.12357 0.0
C882 C 0.22085 0.65189 0.12395 0.0
C883 C 0.22149 0.7011 0.12406 0.0
C884 C 0.20463 0.72653 0.12371 0.0
H885 H 0.31155 0.90531 0.12327 0.0
H886 H 0.28147 0.86436 0.12302 0.0
C887 C 0.18739 0.70307 0.12353 0.0
C888 C 0.23985 0.7256 0.12414 0.0
H889 H 0.26693 0.80168 0.14762 0.0
C890 C 0.25228 0.71767 0.11024 0.0
C891 C 0.24523 0.75602 0.13785 0.0
C892 C 0.2328 0.76436 0.15347 0.0
C893 C 0.26983 0.73996 0.10953 0.0
C894 C 0.2752 0.77038 0.12324 0.0
C895 C 0.26277 0.77834 0.13713 0.0
C896 C 0.29359 0.79476 0.12332 0.0
C897 C 0.28228 0.73158 0.09392 0.0
C898 C 0.31041 0.7692 0.12377 0.0
C899 C 0.32768 0.79251 0.12389 0.0
C900 C 0.32844 0.84186 0.12366 0.0
C901 C 0.31152 0.86729 0.1234 0.0
C902 C 0.29429 0.84396 0.12328 0.0
H903 H 0.27431 0.71706 0.0827 0.0
H904 H 0.28923 0.7646 0.08975 0.0
H905 H 0.29334 0.70591 0.09746 0.0
H906 H 0.31018 0.73119 0.12415 0.0
H907 H 0.34043 0.77185 0.12419 0.0
H908 H 0.70389 0.09224 0.12282 0.0
H909 H 0.73366 0.13445 0.123 0.0
H910 H 0.70404 0.26639 0.12312 0.0
H911 H 0.67406 0.22439 0.12316 0.0
H912 H 0.74737 0.19825 0.09864 0.0
H913 H 0.74057 0.28069 0.16401 0.0
H914 H 0.72575 0.23295 0.15695 0.0
H915 H 0.7213 0.29172 0.14951 0.0
C916 C 0.70365 0.13026 0.12295 0.0
C917 C 0.68655 0.15493 0.12305 0.0
C918 C 0.72071 0.15431 0.12304 0.0
C919 C 0.72108 0.20352 0.12331 0.0
C920 C 0.70407 0.22837 0.12325 0.0
H921 H 0.81094 0.40867 0.12287 0.0
H922 H 0.78086 0.36774 0.12254 0.0
C923 C 0.68695 0.20431 0.12318 0.0
C924 C 0.73932 0.22858 0.12326 0.0
H925 H 0.76653 0.30414 0.14683 0.0
C926 C 0.7516 0.22131 0.10919 0.0
C927 C 0.74479 0.25862 0.13704 0.0
C928 C 0.73251 0.26626 0.15282 0.0
C929 C 0.7691 0.24382 0.10842 0.0
C930 C 0.77459 0.27376 0.12223 0.0
C931 C 0.76229 0.28114 0.13626 0.0
C932 C 0.79297 0.29814 0.1223 0.0
C933 C 0.78138 0.23611 0.09265 0.0
C934 C 0.8098 0.27256 0.12245 0.0
C935 C 0.82708 0.29586 0.12261 0.0
C936 C 0.82783 0.34521 0.12273 0.0
C937 C 0.81091 0.37065 0.12274 0.0
C938 C 0.79368 0.34733 0.12257 0.0
H939 H 0.77329 0.2221 0.08141 0.0
H940 H 0.78831 0.26928 0.08861 0.0
H941 H 0.79247 0.21025 0.09593 0.0
H942 H 0.80957 0.23454 0.12259 0.0
H943 H 0.83982 0.27519 0.12271 0.0
H944 H 0.70443 0.90862 0.623 0.0
H945 H 0.73467 0.86831 0.6227 0.0
H946 H 0.70645 0.73458 0.62475 0.0
H947 H 0.67607 0.77455 0.62486 0.0
H948 H 0.74967 0.8064 0.64749 0.0
H949 H 0.74191 0.7202 0.58291 0.0
H950 H 0.72696 0.76775 0.58993 0.0
H951 H 0.723 0.70919 0.59783 0.0
C952 C 0.70461 0.87061 0.62333 0.0
C953 C 0.68779 0.84481 0.62387 0.0
C954 C 0.72193 0.84765 0.62318 0.0
C955 C 0.7228 0.79847 0.62345 0.0
C956 C 0.70608 0.77256 0.62419 0.0
H957 H 0.8124 0.59383 0.6242 0.0
H958 H 0.7825 0.63554 0.62447 0.0
C959 C 0.68873 0.79549 0.62435 0.0
C960 C 0.74125 0.77443 0.62328 0.0
H961 H 0.76817 0.69775 0.59992 0.0
C962 C 0.75377 0.7828 0.63706 0.0
C963 C 0.74655 0.74369 0.60965 0.0
C964 C 0.734 0.73489 0.59415 0.0
C965 C 0.77132 0.76048 0.63777 0.0
C966 C 0.77659 0.72963 0.62415 0.0
C967 C 0.76409 0.7214 0.61035 0.0
C968 C 0.79489 0.70484 0.62412 0.0
C969 C 0.78384 0.76919 0.65329 0.0
C970 C 0.81182 0.72996 0.62364 0.0
C971 C 0.829 0.7062 0.62352 0.0
C972 C 0.82955 0.65683 0.62375 0.0
C973 C 0.81253 0.63185 0.62405 0.0
C974 C 0.7954 0.65562 0.62418 0.0
H975 H 0.77593 0.78405 0.6645 0.0
H976 H 0.79078 0.73625 0.65756 0.0
H977 H 0.79491 0.7947 0.64962 0.0
H978 H 0.81175 0.76797 0.62322 0.0
H979 H 0.84182 0.72651 0.62319 0.0
H980 H 0.20506 0.41124 0.62314 0.0
H981 H 0.23518 0.37044 0.62319 0.0
H982 H 0.20656 0.23712 0.62334 0.0
H983 H 0.17629 0.27763 0.6231 0.0
H984 H 0.24924 0.30693 0.64783 0.0
H985 H 0.24329 0.22458 0.58239 0.0
H986 H 0.22822 0.27189 0.58939 0.0
H987 H 0.22393 0.21296 0.59674 0.0
C988 C 0.20512 0.37322 0.62311 0.0
C989 C 0.18823 0.34771 0.62303 0.0
C990 C 0.22237 0.34998 0.62316 0.0
C991 C 0.22312 0.30079 0.62303 0.0
C992 C 0.20631 0.27513 0.6231 0.0
H993 H 0.31243 0.09544 0.62407 0.0
H994 H 0.2826 0.13737 0.62411 0.0
C995 C 0.18902 0.29836 0.62306 0.0
C996 C 0.24151 0.27648 0.62315 0.0
H997 H 0.26906 0.20109 0.59984 0.0
C998 C 0.25363 0.28393 0.63731 0.0
C999 C 0.24718 0.24654 0.60941 0.0
C1000 C 0.23507 0.23872 0.59353 0.0
C1001 C 0.27114 0.26148 0.63827 0.0
C1002 C 0.27679 0.23146 0.62454 0.0
C1003 C 0.26469 0.22413 0.61036 0.0
C1004 C 0.29507 0.20656 0.62475 0.0
C1005 C 0.28321 0.26917 0.65418 0.0
C1006 C 0.31204 0.23156 0.62494 0.0
C1007 C 0.32919 0.20766 0.62496 0.0
C1008 C 0.32967 0.15829 0.62466 0.0
C1009 C 0.31262 0.13346 0.62433 0.0
C1010 C 0.29552 0.15736 0.62434 0.0
H1011 H 0.27497 0.28334 0.66531 0.0
H1012 H 0.29002 0.23595 0.65833 0.0
H1013 H 0.29438 0.29489 0.65101 0.0
H1014 H 0.31202 0.26958 0.6249 0.0
H1015 H 0.34205 0.22786 0.62511 0.0
H1016 H 0.675 0.23063 0.87317 0.0
H1017 H 0.70526 0.27139 0.87312 0.0
H1018 H 0.73398 0.13822 0.8729 0.0
H1019 H 0.70394 0.09723 0.87275 0.0
H1020 H 0.73465 0.26506 0.8976 0.0
H1021 H 0.75803 0.20803 0.83186 0.0
H1022 H 0.73401 0.20296 0.83903 0.0
H1023 H 0.75119 0.16079 0.84599 0.0
C1024 C 0.68775 0.21 0.87305 0.0
C1025 C 0.68702 0.16064 0.87287 0.0
C1026 C 0.70502 0.23336 0.87303 0.0
C1027 C 0.72186 0.20783 0.87273 0.0
C1028 C 0.72117 0.15862 0.87276 0.0
H1029 H 0.84029 0.2802 0.87368 0.0
H1030 H 0.80997 0.23978 0.87392 0.0
C1031 C 0.70395 0.13526 0.87278 0.0
C1032 C 0.74016 0.23254 0.87277 0.0
H1033 H 0.78064 0.24647 0.84953 0.0
C1034 C 0.74467 0.26124 0.88705 0.0
C1035 C 0.75324 0.22732 0.85902 0.0
C1036 C 0.74886 0.19846 0.84302 0.0
C1037 C 0.76206 0.28422 0.88811 0.0
C1038 C 0.77514 0.27897 0.87436 0.0
C1039 C 0.77062 0.2503 0.86008 0.0
C1040 C 0.79348 0.30352 0.87443 0.0
C1041 C 0.76643 0.31309 0.9041 0.0
C1042 C 0.79425 0.35272 0.87442 0.0
C1043 C 0.81152 0.37589 0.87429 0.0
C1044 C 0.8284 0.35032 0.87407 0.0
C1045 C 0.82758 0.30097 0.87392 0.0
C1046 C 0.81027 0.27781 0.87403 0.0
H1047 H 0.75725 0.30355 0.91526 0.0
H1048 H 0.78128 0.30855 0.90811 0.0
H1049 H 0.76412 0.35076 0.90112 0.0
H1050 H 0.78148 0.37326 0.87434 0.0
H1051 H 0.8116 0.41392 0.87431 0.0
H1052 H 0.2048 0.58944 0.87313 0.0
H1053 H 0.23499 0.62986 0.87344 0.0
H1054 H 0.20665 0.76354 0.87295 0.0
H1055 H 0.17629 0.72341 0.87284 0.0
H1056 H 0.24961 0.69301 0.84904 0.0
H1057 H 0.24276 0.77581 0.91431 0.0
H1058 H 0.22768 0.72871 0.90713 0.0
H1059 H 0.22365 0.78771 0.89972 0.0
C1060 C 0.20494 0.62746 0.87316 0.0
C1061 C 0.18809 0.65318 0.87305 0.0
C1062 C 0.22223 0.65048 0.87331 0.0
C1063 C 0.22307 0.69966 0.87346 0.0
C1064 C 0.20631 0.72553 0.87318 0.0
H1065 H 0.31209 0.90526 0.8728 0.0
H1066 H 0.28239 0.86283 0.87268 0.0
C1067 C 0.18898 0.70252 0.87303 0.0
C1068 C 0.24151 0.72375 0.87357 0.0
H1069 H 0.26874 0.79933 0.89711 0.0
C1070 C 0.25385 0.71609 0.85958 0.0
C1071 C 0.24701 0.75378 0.88735 0.0
C1072 C 0.23468 0.76177 0.90307 0.0
C1073 C 0.27138 0.73849 0.85881 0.0
C1074 C 0.27683 0.76869 0.87256 0.0
C1075 C 0.26453 0.77616 0.88658 0.0
C1076 C 0.29505 0.79384 0.87247 0.0
C1077 C 0.28368 0.73061 0.84306 0.0
C1078 C 0.31209 0.76913 0.87255 0.0
C1079 C 0.32918 0.79333 0.87258 0.0
C1080 C 0.32952 0.84272 0.87264 0.0
C1081 C 0.31239 0.86725 0.87272 0.0
C1082 C 0.29536 0.84306 0.87267 0.0
H1083 H 0.27565 0.716 0.8319 0.0
H1084 H 0.29044 0.76387 0.83888 0.0
H1085 H 0.2949 0.70523 0.84646 0.0
H1086 H 0.31218 0.73111 0.87273 0.0
H1087 H 0.3421 0.77336 0.87261 0.0
H1088 H 0.3705 0.09784 0.31559 0.0
H1089 H 0.36874 0.08656 0.28408 0.0
H1090 H 0.35981 0.93819 0.29171 0.0
H1091 H 0.36103 0.9494 0.32336 0.0
H1092 H 0.39114 0.03528 0.26345 0.0
H1093 H 0.31821 0.9694 0.25803 0.0
H1094 H 0.32716 0.99589 0.27773 0.0
H1095 H 0.33242 0.93561 0.27269 0.0
C1096 C 0.36803 0.06281 0.3106 0.0
C1097 C 0.36585 0.0245 0.32199 0.0
C1098 C 0.36703 0.05644 0.29257 0.0
C1099 C 0.36387 0.01167 0.28553 0.0
C1100 C 0.36179 0.97325 0.29685 0.0
H1101 H 0.37168 0.90165 0.18065 0.0
H1102 H 0.37035 0.91315 0.21225 0.0
C1103 C 0.36261 0.97966 0.31493 0.0
C1104 C 0.3636 0.00519 0.26633 0.0
H1105 H 0.33713 0.96398 0.23247 0.0
C1106 C 0.37927 0.01998 0.25669 0.0
C1107 C 0.34808 0.98529 0.2575 0.0
C1108 C 0.33044 0.97105 0.26699 0.0
C1109 C 0.37994 0.01481 0.2385 0.0
C1110 C 0.36457 0.99437 0.22977 0.0
C1111 C 0.34889 0.97957 0.23931 0.0
C1112 C 0.36472 0.98757 0.21068 0.0
C1113 C 0.39716 0.03058 0.22869 0.0
C1114 C 0.36181 0.02569 0.19943 0.0
C1115 C 0.36245 0.01928 0.18135 0.0
C1116 C 0.36615 0.97466 0.17428 0.0
C1117 C 0.36889 0.93651 0.18566 0.0
C1118 C 0.36809 0.94292 0.20371 0.0
H1119 H 0.40869 0.04129 0.23758 0.0
H1120 H 0.40226 0.00194 0.22008 0.0
H1121 H 0.39351 0.0609 0.22025 0.0
H1122 H 0.35913 0.06039 0.20466 0.0
H1123 H 0.36029 0.04935 0.17295 0.0
H1124 H 0.67247 0.97176 0.17286 0.0
H1125 H 0.67384 0.96262 0.2046 0.0
H1126 H 0.62607 0.05449 0.21006 0.0
H1127 H 0.62535 0.06574 0.1785 0.0
H1128 H 0.65062 0.07629 0.23322 0.0
H1129 H 0.64211 0.88313 0.23496 0.0
H1130 H 0.66233 0.90054 0.2227 0.0
H1131 H 0.63927 0.91653 0.21518 0.0
C1132 C 0.66223 0.98977 0.18087 0.0
C1133 C 0.64877 0.01932 0.17325 0.0
C1134 C 0.66293 0.98429 0.199 0.0
C1135 C 0.64981 0.00708 0.20976 0.0
C1136 C 0.63634 0.03648 0.20208 0.0
H1137 H 0.62467 0.93109 0.31626 0.0
H1138 H 0.62555 0.94265 0.28472 0.0
C1139 C 0.63591 0.04282 0.18403 0.0
C1140 C 0.65027 0.00148 0.22903 0.0
H1141 H 0.65013 0.92011 0.2617 0.0
C1142 C 0.65042 0.0421 0.23944 0.0
C1143 C 0.64978 0.95692 0.2372 0.0
C1144 C 0.64816 0.91185 0.22693 0.0
C1145 C 0.64992 0.0395 0.25772 0.0
C1146 C 0.65013 0.99492 0.26589 0.0
C1147 C 0.65014 0.9543 0.25548 0.0
C1148 C 0.64952 0.98932 0.28516 0.0
C1149 C 0.64847 0.08461 0.26798 0.0
C1150 C 0.6627 0.01164 0.29599 0.0
C1151 C 0.6619 0.00599 0.31411 0.0
C1152 C 0.64829 0.97673 0.32165 0.0
C1153 C 0.63535 0.95376 0.31079 0.0
C1154 C 0.63587 0.96029 0.29276 0.0
H1155 H 0.64261 0.11353 0.25993 0.0
H1156 H 0.63949 0.08022 0.27969 0.0
H1157 H 0.66267 0.09547 0.27228 0.0
H1158 H 0.67374 0.03301 0.29045 0.0
H1159 H 0.67221 0.02358 0.32217 0.0
H1160 H 0.65488 0.95516 0.8222 0.0
H1161 H 0.65606 0.94561 0.79043 0.0
H1162 H 0.6461 0.09378 0.78381 0.0
H1163 H 0.64474 0.10376 0.81548 0.0
H1164 H 0.62405 0.98061 0.76605 0.0
H1165 H 0.69497 0.05539 0.75368 0.0
H1166 H 0.68863 0.02951 0.77438 0.0
H1167 H 0.67965 0.08608 0.76849 0.0
C1168 C 0.65305 0.98576 0.814 0.0
C1169 C 0.64969 0.03021 0.82136 0.0
C1170 C 0.65371 0.98022 0.79588 0.0
C1171 C 0.6513 0.01907 0.78488 0.0
C1172 C 0.64815 0.0635 0.79215 0.0
H1173 H 0.6533 0.05458 0.67209 0.0
H1174 H 0.6538 0.06682 0.70375 0.0
C1175 C 0.64731 0.06904 0.81024 0.0
C1176 C 0.65129 0.01295 0.76576 0.0
H1177 H 0.67713 0.03344 0.72909 0.0
C1178 C 0.63565 0.99196 0.75793 0.0
C1179 C 0.66636 0.02846 0.75531 0.0
C1180 C 0.68345 0.05097 0.76329 0.0
C1181 C 0.63461 0.9863 0.73978 0.0
C1182 C 0.64988 0.00082 0.72928 0.0
C1183 C 0.66547 0.0222 0.73716 0.0
C1184 C 0.65004 0.9934 0.71013 0.0
C1185 C 0.61696 0.96582 0.73202 0.0
C1186 C 0.64818 0.94801 0.70325 0.0
C1187 C 0.64772 0.941 0.68524 0.0
C1188 C 0.64942 0.97917 0.67372 0.0
C1189 C 0.6519 0.02449 0.68063 0.0
C1190 C 0.65219 0.03153 0.69869 0.0
H1191 H 0.60479 0.97012 0.74093 0.0
H1192 H 0.61353 0.98254 0.71934 0.0
H1193 H 0.619 0.92767 0.72981 0.0
H1194 H 0.64705 0.91792 0.71182 0.0
H1195 H 0.64604 0.90555 0.68036 0.0
H1196 H 0.34218 0.02563 0.82315 0.0
H1197 H 0.33941 0.03308 0.79141 0.0
H1198 H 0.3871 0.94146 0.78487 0.0
H1199 H 0.38922 0.93191 0.81644 0.0
H1200 H 0.36087 0.06741 0.76789 0.0
H1201 H 0.35217 0.8797 0.75215 0.0
H1202 H 0.35134 0.90119 0.77426 0.0
H1203 H 0.37353 0.88866 0.76395 0.0
C1204 C 0.35199 0.00694 0.81489 0.0
C1205 C 0.36579 0.97783 0.82222 0.0
C1206 C 0.35039 0.01114 0.79677 0.0
C1207 C 0.36273 0.98682 0.78567 0.0
C1208 C 0.37694 0.95909 0.79307 0.0
H1209 H 0.38962 0.06715 0.6803 0.0
H1210 H 0.3873 0.05644 0.7118 0.0
C1211 C 0.37826 0.95403 0.81113 0.0
C1212 C 0.36127 0.99185 0.76642 0.0
H1213 H 0.36161 0.92956 0.72836 0.0
C1214 C 0.36079 0.03721 0.75927 0.0
C1215 C 0.36069 0.95256 0.75509 0.0
C1216 C 0.35923 0.90286 0.76179 0.0
C1217 C 0.36045 0.04437 0.74116 0.0
C1218 C 0.36147 0.00511 0.72984 0.0
C1219 C 0.36121 0.95974 0.73698 0.0
C1220 C 0.36318 0.01032 0.71061 0.0
C1221 C 0.35872 0.094 0.73445 0.0
C1222 C 0.3511 0.98586 0.69933 0.0
C1223 C 0.35281 0.99075 0.68123 0.0
C1224 C 0.36647 0.02068 0.67414 0.0
C1225 C 0.37875 0.04442 0.68542 0.0
C1226 C 0.37732 0.03869 0.70345 0.0
H1227 H 0.35138 0.11684 0.74402 0.0
H1228 H 0.37294 0.10884 0.73243 0.0
H1229 H 0.35097 0.09533 0.7219 0.0
H1230 H 0.34019 0.9634 0.70452 0.0
H1231 H 0.34316 0.97207 0.67282 0.0
H1232 H 0.86055 0.54925 0.17421 0.0
H1233 H 0.85971 0.55759 0.20601 0.0
H1234 H 0.86844 0.40853 0.21165 0.0
H1235 H 0.86982 0.40008 0.18001 0.0
H1236 H 0.8366 0.51953 0.23044 0.0
H1237 H 0.90959 0.46046 0.24211 0.0
H1238 H 0.90094 0.47448 0.22062 0.0
H1239 H 0.8959 0.4183 0.23029 0.0
C1240 C 0.86233 0.51828 0.18223 0.0
C1241 C 0.86545 0.47409 0.17459 0.0
C1242 C 0.86183 0.52309 0.20039 0.0
C1243 C 0.8644 0.48383 0.2112 0.0
C1244 C 0.86696 0.43951 0.20358 0.0
H1245 H 0.85981 0.44216 0.32368 0.0
H1246 H 0.85853 0.43182 0.29191 0.0
C1247 C 0.86764 0.43472 0.18547 0.0
C1248 C 0.86425 0.48908 0.23045 0.0
H1249 H 0.89017 0.46876 0.26716 0.0
C1250 C 0.84834 0.50862 0.23845 0.0
C1251 C 0.87962 0.47495 0.24089 0.0
C1252 C 0.89755 0.45632 0.23304 0.0
C1253 C 0.84732 0.5138 0.25664 0.0
C1254 C 0.86257 0.49906 0.26702 0.0
C1255 C 0.87845 0.47953 0.25909 0.0
C1256 C 0.86261 0.5054 0.28613 0.0
C1257 C 0.82995 0.53469 0.26473 0.0
C1258 C 0.86541 0.55014 0.29325 0.0
C1259 C 0.86631 0.55612 0.3113 0.0
C1260 C 0.86434 0.51744 0.32256 0.0
C1261 C 0.86132 0.47265 0.31536 0.0
C1262 C 0.8606 0.46665 0.29725 0.0
H1263 H 0.81832 0.5381 0.25517 0.0
H1264 H 0.82514 0.51272 0.27583 0.0
H1265 H 0.83327 0.5701 0.26993 0.0
H1266 H 0.86714 0.58035 0.28481 0.0
H1267 H 0.86861 0.5911 0.31642 0.0
H1268 H 0.15286 0.55177 0.32252 0.0
H1269 H 0.15349 0.56096 0.29075 0.0
H1270 H 0.14534 0.41183 0.28457 0.0
H1271 H 0.14416 0.40253 0.31618 0.0
H1272 H 0.17665 0.52417 0.26613 0.0
H1273 H 0.10391 0.46335 0.25439 0.0
H1274 H 0.11256 0.47705 0.27591 0.0
H1275 H 0.11779 0.42122 0.26603 0.0
C1276 C 0.15116 0.52098 0.31438 0.0
C1277 C 0.14826 0.47651 0.32187 0.0
C1278 C 0.15153 0.52627 0.29624 0.0
C1279 C 0.14906 0.48722 0.28529 0.0
C1280 C 0.14673 0.44264 0.29275 0.0
H1281 H 0.15419 0.4462 0.17292 0.0
H1282 H 0.1553 0.43611 0.20469 0.0
C1283 C 0.14617 0.43737 0.31084 0.0
C1284 C 0.14915 0.49292 0.26607 0.0
H1285 H 0.12331 0.47226 0.22933 0.0
C1286 C 0.16495 0.51304 0.2581 0.0
C1287 C 0.13382 0.47851 0.2556 0.0
C1288 C 0.11599 0.45927 0.26342 0.0
C1289 C 0.16594 0.51845 0.23992 0.0
C1290 C 0.15077 0.50334 0.22952 0.0
C1291 C 0.13498 0.48331 0.23742 0.0
C1292 C 0.15075 0.50957 0.2104 0.0
C1293 C 0.18322 0.5399 0.23186 0.0
C1294 C 0.14773 0.55416 0.20324 0.0
C1295 C 0.14692 0.56 0.18518 0.0
C1296 C 0.14922 0.52132 0.17395 0.0
C1297 C 0.15243 0.47669 0.18121 0.0
C1298 C 0.15306 0.47083 0.19932 0.0
H1299 H 0.19479 0.54381 0.24144 0.0
H1300 H 0.18818 0.51801 0.22079 0.0
H1301 H 0.1797 0.57514 0.22662 0.0
H1302 H 0.14578 0.58435 0.21165 0.0
H1303 H 0.14447 0.59486 0.18002 0.0
H1304 H 0.15513 0.44754 0.82277 0.0
H1305 H 0.15643 0.43789 0.79098 0.0
H1306 H 0.14745 0.58642 0.78431 0.0
H1307 H 0.14596 0.59651 0.81595 0.0
H1308 H 0.12472 0.4749 0.76631 0.0
H1309 H 0.19646 0.54541 0.75462 0.0
H1310 H 0.18968 0.51952 0.7752 0.0
H1311 H 0.18136 0.57682 0.76942 0.0
C1312 C 0.15353 0.47818 0.81454 0.0
C1313 C 0.15042 0.52278 0.82188 0.0
C1314 C 0.15426 0.47258 0.79642 0.0
C1315 C 0.15216 0.51152 0.78541 0.0
C1316 C 0.14925 0.55607 0.79266 0.0
H1317 H 0.15494 0.55354 0.67323 0.0
H1318 H 0.15549 0.56298 0.705 0.0
C1319 C 0.14834 0.56167 0.81073 0.0
C1320 C 0.15227 0.50552 0.76628 0.0
H1321 H 0.17844 0.52602 0.72983 0.0
C1322 C 0.13647 0.48579 0.75829 0.0
C1323 C 0.16754 0.52044 0.75598 0.0
C1324 C 0.18482 0.54158 0.76414 0.0
C1325 C 0.13543 0.48104 0.7401 0.0
C1326 C 0.15087 0.49519 0.72973 0.0
C1327 C 0.16666 0.51508 0.73779 0.0
C1328 C 0.15092 0.48933 0.71051 0.0
C1329 C 0.1176 0.4621 0.73217 0.0
C1330 C 0.14855 0.44471 0.70308 0.0
C1331 C 0.14805 0.4393 0.68499 0.0
C1332 C 0.15023 0.47832 0.67394 0.0
C1333 C 0.15318 0.52282 0.68139 0.0
C1334 C 0.1535 0.52826 0.69953 0.0
H1335 H 0.10547 0.4664 0.74112 0.0
H1336 H 0.11431 0.47991 0.71966 0.0
H1337 H 0.11931 0.42402 0.72956 0.0
H1338 H 0.14707 0.41399 0.71128 0.0
H1339 H 0.146 0.40443 0.67968 0.0
H1340 H 0.87228 0.5973 0.68079 0.0
H1341 H 0.87074 0.58671 0.71242 0.0
H1342 H 0.85891 0.43959 0.70531 0.0
H1343 H 0.86026 0.44973 0.67356 0.0
H1344 H 0.83719 0.53741 0.73267 0.0
H1345 H 0.90838 0.45819 0.73838 0.0
H1346 H 0.90223 0.49723 0.72071 0.0
H1347 H 0.89318 0.43856 0.72107 0.0
C1348 C 0.86931 0.56265 0.68592 0.0
C1349 C 0.86645 0.52428 0.67465 0.0
C1350 C 0.86839 0.55677 0.70398 0.0
C1351 C 0.86479 0.51241 0.7111 0.0
C1352 C 0.86176 0.47407 0.69997 0.0
H1353 H 0.87004 0.40686 0.81677 0.0
H1354 H 0.86825 0.41636 0.78518 0.0
C1355 C 0.86252 0.47996 0.68187 0.0
C1356 C 0.86451 0.50618 0.73021 0.0
H1357 H 0.89081 0.46589 0.76417 0.0
C1358 C 0.84887 0.52175 0.73963 0.0
C1359 C 0.87977 0.48563 0.73909 0.0
C1360 C 0.89694 0.469 0.7294 0.0
C1361 C 0.84798 0.51678 0.75784 0.0
C1362 C 0.86339 0.49686 0.76682 0.0
C1363 C 0.87902 0.48121 0.75729 0.0
C1364 C 0.86363 0.49141 0.78606 0.0
C1365 C 0.83037 0.5319 0.7672 0.0
C1366 C 0.86169 0.53051 0.79709 0.0
C1367 C 0.86253 0.52513 0.81521 0.0
C1368 C 0.86564 0.48064 0.8226 0.0
C1369 C 0.86767 0.44164 0.81151 0.0
C1370 C 0.86664 0.44699 0.79343 0.0
H1371 H 0.81816 0.5333 0.75822 0.0
H1372 H 0.827 0.50772 0.77812 0.0
H1373 H 0.83246 0.56762 0.77264 0.0
H1374 H 0.85983 0.56532 0.79169 0.0
H1375 H 0.86108 0.55591 0.8234 0.0
loop_
_geom_bond_atom_site_label_1
_geom_bond_atom_site_label_2
_geom_bond_distance
_geom_bond_site_symmetry_2
_ccdc_geom_bond_type
C0 O2 1.247 . S
C0 O4 1.258 . S
C1 O8 1.247 . S
C1 O9 1.258 . S
O2 C0 1.247 . S
O2 Zn3 2.028 . S
Zn3 O2 2.028 . S
Zn3 O7 2.035 . S
Zn3 O9 2.035 . S
Zn3 O10 2.028 . S
O4 C0 1.258 . S
O4 Zn5 2.035 . S
Zn5 O4 2.035 . S
Zn5 O6 2.028 . S
Zn5 O8 2.028 . S
Zn5 O11 2.035 . S
O6 Zn5 2.028 . S
O6 C12 1.247 . S
O7 Zn3 2.035 . S
O7 C12 1.258 . S
O8 C1 1.247 . S
O8 Zn5 2.028 . S
O9 C1 1.258 . S
O9 Zn3 2.035 . S
O10 Zn3 2.028 . S
O10 C13 1.247 . S
O11 Zn5 2.035 . S
O11 C13 1.258 . S
C12 O6 1.247 . S
C12 O7 1.258 . S
C13 O10 1.247 . S
C13 O11 1.258 . S
C14 O16 1.247 . S
C14 O18 1.258 . S
C15 O22 1.247 . S
C15 O23 1.258 . S
O16 C14 1.247 . S
O16 Zn17 2.028 . S
Zn17 O16 2.028 . S
Zn17 O21 2.035 . S
Zn17 O23 2.035 . S
Zn17 O24 2.028 . S
O18 C14 1.258 . S
O18 Zn19 2.035 . S
Zn19 O18 2.035 . S
Zn19 O20 2.028 . S
Zn19 O22 2.028 . S
Zn19 O25 2.035 . S
O20 Zn19 2.028 . S
O20 C26 1.247 . S
O21 Zn17 2.035 . S
O21 C26 1.258 . S
O22 C15 1.247 . S
O22 Zn19 2.028 . S
O23 C15 1.258 . S
O23 Zn17 2.035 . S
O24 Zn17 2.028 . S
O24 C27 1.247 . S
O25 Zn19 2.035 . S
O25 C27 1.258 . S
C26 O20 1.247 . S
C26 O21 1.258 . S
C27 O24 1.247 . S
C27 O25 1.258 . S
C28 O30 1.247 . S
C28 O32 1.258 . S
C29 O36 1.247 . S
C29 O37 1.258 . S
O30 C28 1.247 . S
O30 Zn31 2.028 . S
Zn31 O30 2.028 . S
Zn31 O35 2.035 . S
Zn31 O37 2.035 . S
Zn31 O38 2.028 . S
O32 C28 1.258 . S
O32 Zn33 2.035 . S
Zn33 O32 2.035 . S
Zn33 O34 2.028 . S
Zn33 O36 2.028 . S
Zn33 O39 2.035 . S
O34 Zn33 2.028 . S
O34 C40 1.247 . S
O35 Zn31 2.035 . S
O35 C40 1.258 . S
O36 C29 1.247 . S
O36 Zn33 2.028 . S
O37 C29 1.258 . S
O37 Zn31 2.035 . S
O38 Zn31 2.028 . S
O38 C41 1.247 . S
O39 Zn33 2.035 . S
O39 C41 1.258 . S
C40 O34 1.247 . S
C40 O35 1.258 . S
C41 O38 1.247 . S
C41 O39 1.258 . S
C42 O44 1.247 . S
C42 O46 1.258 . S
C43 O50 1.247 . S
C43 O51 1.258 . S
O44 C42 1.247 . S
O44 Zn45 2.028 . S
Zn45 O44 2.028 . S
Zn45 O49 2.035 . S
Zn45 O51 2.035 . S
Zn45 O52 2.028 . S
O46 C42 1.258 . S
O46 Zn47 2.035 . S
Zn47 O46 2.035 . S
Zn47 O48 2.028 . S
Zn47 O50 2.028 . S
Zn47 O53 2.035 . S
O48 Zn47 2.028 . S
O48 C54 1.247 . S
O49 Zn45 2.035 . S
O49 C54 1.258 . S
O50 C43 1.247 . S
O50 Zn47 2.028 . S
O51 C43 1.258 . S
O51 Zn45 2.035 . S
O52 Zn45 2.028 . S
O52 C55 1.247 . S
O53 Zn47 2.035 . S
O53 C55 1.258 . S
C54 O48 1.247 . S
C54 O49 1.258 . S
C55 O52 1.247 . S
C55 O53 1.258 . S
C56 O58 1.247 . S
C56 O60 1.258 . S
C57 O64 1.247 . S
C57 O65 1.258 . S
O58 C56 1.247 . S
O58 Zn59 2.028 . S
Zn59 O58 2.028 . S
Zn59 O63 2.035 . S
Zn59 O65 2.035 . S
Zn59 O66 2.028 . S
O60 C56 1.258 . S
O60 Zn61 2.035 . S
Zn61 O60 2.035 . S
Zn61 O62 2.028 . S
Zn61 O64 2.028 . S
Zn61 O67 2.035 . S
O62 Zn61 2.028 . S
O62 C68 1.247 . S
O63 Zn59 2.035 . S
O63 C68 1.258 . S
O64 C57 1.247 . S
O64 Zn61 2.028 . S
O65 C57 1.258 . S
O65 Zn59 2.035 . S
O66 Zn59 2.028 . S
O66 C69 1.247 . S
O67 Zn61 2.035 . S
O67 C69 1.258 . S
C68 O62 1.247 . S
C68 O63 1.258 . S
C69 O66 1.247 . S
C69 O67 1.258 . S
C70 O72 1.247 . S
C70 O74 1.258 . S
C71 O78 1.247 . S
C71 O79 1.258 . S
O72 C70 1.247 . S
O72 Zn73 2.028 . S
Zn73 O72 2.028 . S
Zn73 O77 2.035 . S
Zn73 O79 2.035 . S
Zn73 O80 2.028 . S
O74 C70 1.258 . S
O74 Zn75 2.035 . S
Zn75 O74 2.035 . S
Zn75 O76 2.028 . S
Zn75 O78 2.028 . S
Zn75 O81 2.035 . S
O76 Zn75 2.028 . S
O76 C82 1.247 . S
O77 Zn73 2.035 . S
O77 C82 1.258 . S
O78 C71 1.247 . S
O78 Zn75 2.028 . S
O79 C71 1.258 . S
O79 Zn73 2.035 . S
O80 Zn73 2.028 . S
O80 C83 1.247 . S
O81 Zn75 2.035 . S
O81 C83 1.258 . S
C82 O76 1.247 . S
C82 O77 1.258 . S
C83 O80 1.247 . S
C83 O81 1.258 . S
C84 O86 1.247 . S
C84 O88 1.258 . S
C85 O92 1.247 . S
C85 O93 1.258 . S
O86 C84 1.247 . S
O86 Zn87 2.028 . S
Zn87 O86 2.028 . S
Zn87 O91 2.035 . S
Zn87 O93 2.035 . S
Zn87 O94 2.028 . S
O88 C84 1.258 . S
O88 Zn89 2.035 . S
Zn89 O88 2.035 . S
Zn89 O90 2.028 . S
Zn89 O92 2.028 . S
Zn89 O95 2.035 . S
O90 Zn89 2.028 . S
O90 C96 1.247 . S
O91 Zn87 2.035 . S
O91 C96 1.258 . S
O92 C85 1.247 . S
O92 Zn89 2.028 . S
O93 C85 1.258 . S
O93 Zn87 2.035 . S
O94 Zn87 2.028 . S
O94 C97 1.247 . S
O95 Zn89 2.035 . S
O95 C97 1.258 . S
C96 O90 1.247 . S
C96 O91 1.258 . S
C97 O94 1.247 . S
C97 O95 1.258 . S
C98 O100 1.247 . S
C98 O102 1.258 . S
C99 O106 1.247 . S
C99 O107 1.258 . S
O100 C98 1.247 . S
O100 Zn101 2.028 . S
Zn101 O100 2.028 . S
Zn101 O105 2.035 . S
Zn101 O107 2.035 . S
Zn101 O108 2.028 . S
O102 C98 1.258 . S
O102 Zn103 2.035 . S
Zn103 O102 2.035 . S
Zn103 O104 2.028 . S
Zn103 O106 2.028 . S
Zn103 O109 2.035 . S
O104 Zn103 2.028 . S
O104 C110 1.247 . S
O105 Zn101 2.035 . S
O105 C110 1.258 . S
O106 C99 1.247 . S
O106 Zn103 2.028 . S
O107 C99 1.258 . S
O107 Zn101 2.035 . S
O108 Zn101 2.028 . S
O108 C111 1.247 . S
O109 Zn103 2.035 . S
O109 C111 1.258 . S
C110 O104 1.247 . S
C110 O105 1.258 . S
C111 O108 1.247 . S
C111 O109 1.258 . S
C112 O114 1.247 . S
C112 O116 1.258 . S
C113 O120 1.247 . S
C113 O121 1.258 . S
O114 C112 1.247 . S
O114 Zn115 2.028 . S
Zn115 O114 2.028 . S
Zn115 O119 2.035 . S
Zn115 O121 2.035 . S
Zn115 O122 2.028 . S
O116 C112 1.258 . S
O116 Zn117 2.035 . S
Zn117 O116 2.035 . S
Zn117 O118 2.028 . S
Zn117 O120 2.028 . S
Zn117 O123 2.035 . S
O118 Zn117 2.028 . S
O118 C124 1.247 . S
O119 Zn115 2.035 . S
O119 C124 1.258 . S
O120 C113 1.247 . S
O120 Zn117 2.028 . S
O121 C113 1.258 . S
O121 Zn115 2.035 . S
O122 Zn115 2.028 . S
O122 C125 1.247 . S
O123 Zn117 2.035 . S
O123 C125 1.258 . S
C124 O118 1.247 . S
C124 O119 1.258 . S
C125 O122 1.247 . S
C125 O123 1.258 . S
C126 O128 1.247 . S
C126 O130 1.258 . S
C127 O134 1.247 . S
C127 O135 1.258 . S
O128 C126 1.247 . S
O128 Zn129 2.028 . S
Zn129 O128 2.028 . S
Zn129 O133 2.035 . S
Zn129 O135 2.035 . S
Zn129 O136 2.028 . S
O130 C126 1.258 . S
O130 Zn131 2.035 . S
Zn131 O130 2.035 . S
Zn131 O132 2.028 . S
Zn131 O134 2.028 . S
Zn131 O137 2.035 . S
O132 Zn131 2.028 . S
O132 C138 1.247 . S
O133 Zn129 2.035 . S
O133 C138 1.258 . S
O134 C127 1.247 . S
O134 Zn131 2.028 . S
O135 C127 1.258 . S
O135 Zn129 2.035 . S
O136 Zn129 2.028 . S
O136 C139 1.247 . S
O137 Zn131 2.035 . S
O137 C139 1.258 . S
C138 O132 1.247 . S
C138 O133 1.258 . S
C139 O136 1.247 . S
C139 O137 1.258 . S
C140 O142 1.247 . S
C140 O144 1.258 . S
C141 O148 1.247 . S
C141 O149 1.258 . S
O142 C140 1.247 . S
O142 Zn143 2.028 . S
Zn143 O142 2.028 . S
Zn143 O147 2.035 . S
Zn143 O149 2.035 . S
Zn143 O150 2.028 . S
O144 C140 1.258 . S
O144 Zn145 2.035 . S
Zn145 O144 2.035 . S
Zn145 O146 2.028 . S
Zn145 O148 2.028 . S
Zn145 O151 2.035 . S
O146 Zn145 2.028 . S
O146 C152 1.247 . S
O147 Zn143 2.035 . S
O147 C152 1.258 . S
O148 C141 1.247 . S
O148 Zn145 2.028 . S
O149 C141 1.258 . S
O149 Zn143 2.035 . S
O150 Zn143 2.028 . S
O150 C153 1.247 . S
O151 Zn145 2.035 . S
O151 C153 1.258 . S
C152 O146 1.247 . S
C152 O147 1.258 . S
C153 O150 1.247 . S
C153 O151 1.258 . S
C154 O156 1.247 . S
C154 O158 1.258 . S
C155 O162 1.247 . S
C155 O163 1.258 . S
O156 C154 1.247 . S
O156 Zn157 2.028 . S
Zn157 O156 2.028 . S
Zn157 O161 2.035 . S
Zn157 O163 2.035 . S
Zn157 O164 2.028 . S
O158 C154 1.258 . S
O158 Zn159 2.035 . S
Zn159 O158 2.035 . S
Zn159 O160 2.028 . S
Zn159 O162 2.028 . S
Zn159 O165 2.035 . S
O160 Zn159 2.028 . S
O160 C166 1.247 . S
O161 Zn157 2.035 . S
O161 C166 1.258 . S
O162 C155 1.247 . S
O162 Zn159 2.028 . S
O163 C155 1.258 . S
O163 Zn157 2.035 . S
O164 Zn157 2.028 . S
O164 C167 1.247 . S
O165 Zn159 2.035 . S
O165 C167 1.258 . S
C166 O160 1.247 . S
C166 O161 1.258 . S
C167 O164 1.247 . S
C167 O165 1.258 . S
C168 O170 1.247 . S
C168 O172 1.258 . S
C169 O176 1.247 . S
C169 O177 1.258 . S
O170 C168 1.247 . S
O170 Zn171 2.028 . S
Zn171 O170 2.028 . S
Zn171 O175 2.035 . S
Zn171 O177 2.035 . S
Zn171 O178 2.028 . S
O172 C168 1.258 . S
O172 Zn173 2.035 . S
Zn173 O172 2.035 . S
Zn173 O174 2.028 . S
Zn173 O176 2.028 . S
Zn173 O179 2.035 . S
O174 Zn173 2.028 . S
O174 C180 1.247 . S
O175 Zn171 2.035 . S
O175 C180 1.258 . S
O176 C169 1.247 . S
O176 Zn173 2.028 . S
O177 C169 1.258 . S
O177 Zn171 2.035 . S
O178 Zn171 2.028 . S
O178 C181 1.247 . S
O179 Zn173 2.035 . S
O179 C181 1.258 . S
C180 O174 1.247 . S
C180 O175 1.258 . S
C181 O178 1.247 . S
C181 O179 1.258 . S
C182 O184 1.247 . S
C182 O186 1.258 . S
C183 O190 1.247 . S
C183 O191 1.258 . S
O184 C182 1.247 . S
O184 Zn185 2.028 . S
Zn185 O184 2.028 . S
Zn185 O189 2.035 . S
Zn185 O191 2.035 . S
Zn185 O192 2.028 . S
O186 C182 1.258 . S
O186 Zn187 2.035 . S
Zn187 O186 2.035 . S
Zn187 O188 2.028 . S
Zn187 O190 2.028 . S
Zn187 O193 2.035 . S
O188 Zn187 2.028 . S
O188 C194 1.247 . S
O189 Zn185 2.035 . S
O189 C194 1.258 . S
O190 C183 1.247 . S
O190 Zn187 2.028 . S
O191 C183 1.258 . S
O191 Zn185 2.035 . S
O192 Zn185 2.028 . S
O192 C195 1.247 . S
O193 Zn187 2.035 . S
O193 C195 1.258 . S
C194 O188 1.247 . S
C194 O189 1.258 . S
C195 O192 1.247 . S
C195 O193 1.258 . S
C196 O198 1.247 . S
C196 O200 1.258 . S
C197 O204 1.247 . S
C197 O205 1.258 . S
O198 C196 1.247 . S
O198 Zn199 2.028 . S
Zn199 O198 2.028 . S
Zn199 O203 2.035 . S
Zn199 O205 2.035 . S
Zn199 O206 2.028 . S
O200 C196 1.258 . S
O200 Zn201 2.035 . S
Zn201 O200 2.035 . S
Zn201 O202 2.028 . S
Zn201 O204 2.028 . S
Zn201 O207 2.035 . S
O202 Zn201 2.028 . S
O202 C208 1.247 . S
O203 Zn199 2.035 . S
O203 C208 1.258 . S
O204 C197 1.247 . S
O204 Zn201 2.028 . S
O205 C197 1.258 . S
O205 Zn199 2.035 . S
O206 Zn199 2.028 . S
O206 C209 1.247 . S
O207 Zn201 2.035 . S
O207 C209 1.258 . S
C208 O202 1.247 . S
C208 O203 1.258 . S
C209 O206 1.247 . S
C209 O207 1.258 . S
C210 O212 1.247 . S
C210 O214 1.258 . S
C211 O218 1.247 . S
C211 O219 1.258 . S
O212 C210 1.247 . S
O212 Zn213 2.028 . S
Zn213 O212 2.028 . S
Zn213 O217 2.035 . S
Zn213 O219 2.035 . S
Zn213 O220 2.028 . S
O214 C210 1.258 . S
O214 Zn215 2.035 . S
Zn215 O214 2.035 . S
Zn215 O216 2.028 . S
Zn215 O218 2.028 . S
Zn215 O221 2.035 . S
O216 Zn215 2.028 . S
O216 C222 1.247 . S
O217 Zn213 2.035 . S
O217 C222 1.258 . S
O218 C211 1.247 . S
O218 Zn215 2.028 . S
O219 C211 1.258 . S
O219 Zn213 2.035 . S
O220 Zn213 2.028 . S
O220 C223 1.247 . S
O221 Zn215 2.035 . S
O221 C223 1.258 . S
C222 O216 1.247 . S
C222 O217 1.258 . S
C223 O220 1.247 . S
C223 O221 1.258 . S
H224 C232 0.929 . S
H225 C234 0.930 . S
H226 C236 0.930 . S
H227 C239 0.929 . S
H228 C242 0.930 . S
H229 C244 0.960 . S
H230 C244 0.960 . S
H231 C244 0.960 . S
C232 H224 0.929 . S
C232 C233 1.377 . S
C232 C234 1.384 . S
C233 C232 1.377 . S
C233 C239 1.390 . S
C234 H225 0.930 . S
C234 C232 1.384 . S
C234 C235 1.372 . S
C235 C234 1.372 . S
C235 C236 1.400 . S
C235 C240 1.490 . S
C236 H226 0.930 . S
C236 C235 1.400 . S
C236 C239 1.386 . S
H237 C253 0.930 . S
H238 C254 0.931 . S
C239 H227 0.929 . S
C239 C233 1.390 . S
C239 C236 1.386 . S
C240 C235 1.490 . S
C240 C242 1.395 . S
C240 C243 1.403 . S
H241 C247 0.930 . S
C242 H228 0.930 . S
C242 C240 1.395 . S
C242 C245 1.403 . S
C243 C240 1.403 . S
C243 C244 1.524 . S
C243 C247 1.400 . S
C244 H229 0.960 . S
C244 H230 0.960 . S
C244 H231 0.960 . S
C244 C243 1.524 . S
C245 C242 1.403 . S
C245 C246 1.392 . S
C245 C249 1.495 . S
C246 C245 1.392 . S
C246 C247 1.385 . S
C246 C248 1.478 . S
C247 H241 0.930 . S
C247 C243 1.400 . S
C247 C246 1.385 . S
C248 C246 1.478 . S
C248 C250 1.381 . S
C248 C254 1.383 . S
C249 C245 1.495 . S
C249 H255 0.959 . S
C249 H256 0.961 . S
C249 H257 0.960 . S
C250 C248 1.381 . S
C250 C251 1.394 . S
C250 H258 0.930 . S
C251 C250 1.394 . S
C251 C252 1.383 . S
C251 H259 0.929 . S
C252 C251 1.383 . S
C252 C253 1.377 . S
C253 H237 0.930 . S
C253 C252 1.377 . S
C253 C254 1.379 . S
C254 H238 0.931 . S
C254 C248 1.383 . S
C254 C253 1.379 . S
H255 C249 0.959 . S
H256 C249 0.961 . S
H257 C249 0.960 . S
H258 C250 0.930 . S
H259 C251 0.929 . S
H260 C268 0.929 . S
H261 C270 0.930 . S
H262 C272 0.930 . S
H263 C275 0.929 . S
H264 C278 0.930 . S
H265 C280 0.960 . S
H266 C280 0.960 . S
H267 C280 0.960 . S
C268 H260 0.929 . S
C268 C269 1.377 . S
C268 C270 1.384 . S
C269 C268 1.377 . S
C269 C275 1.390 . S
C270 H261 0.930 . S
C270 C268 1.384 . S
C270 C271 1.372 . S
C271 C270 1.372 . S
C271 C272 1.400 . S
C271 C276 1.490 . S
C272 H262 0.930 . S
C272 C271 1.400 . S
C272 C275 1.386 . S
H273 C289 0.930 . S
H274 C290 0.931 . S
C275 H263 0.929 . S
C275 C269 1.390 . S
C275 C272 1.386 . S
C276 C271 1.490 . S
C276 C278 1.395 . S
C276 C279 1.403 . S
H277 C283 0.930 . S
C278 H264 0.930 . S
C278 C276 1.395 . S
C278 C281 1.403 . S
C279 C276 1.403 . S
C279 C280 1.524 . S
C279 C283 1.400 . S
C280 H265 0.960 . S
C280 H266 0.960 . S
C280 H267 0.960 . S
C280 C279 1.524 . S
C281 C278 1.403 . S
C281 C282 1.392 . S
C281 C285 1.495 . S
C282 C281 1.392 . S
C282 C283 1.385 . S
C282 C284 1.478 . S
C283 H277 0.930 . S
C283 C279 1.400 . S
C283 C282 1.385 . S
C284 C282 1.478 . S
C284 C286 1.381 . S
C284 C290 1.383 . S
C285 C281 1.495 . S
C285 H291 0.959 . S
C285 H292 0.961 . S
C285 H293 0.960 . S
C286 C284 1.381 . S
C286 C287 1.394 . S
C286 H294 0.930 . S
C287 C286 1.394 . S
C287 C288 1.383 . S
C287 H295 0.929 . S
C288 C287 1.383 . S
C288 C289 1.377 . S
C289 H273 0.930 . S
C289 C288 1.377 . S
C289 C290 1.379 . S
C290 H274 0.931 . S
C290 C284 1.383 . S
C290 C289 1.379 . S
H291 C285 0.959 . S
H292 C285 0.961 . S
H293 C285 0.960 . S
H294 C286 0.930 . S
H295 C287 0.929 . S
H296 C304 0.929 . S
H297 C306 0.930 . S
H298 C308 0.930 . S
H299 C311 0.929 . S
H300 C314 0.930 . S
H301 C316 0.960 . S
H302 C316 0.960 . S
H303 C316 0.960 . S
C304 H296 0.929 . S
C304 C305 1.377 . S
C304 C306 1.384 . S
C305 C304 1.377 . S
C305 C311 1.390 . S
C306 H297 0.930 . S
C306 C304 1.384 . S
C306 C307 1.372 . S
C307 C306 1.372 . S
C307 C308 1.400 . S
C307 C312 1.490 . S
C308 H298 0.930 . S
C308 C307 1.400 . S
C308 C311 1.386 . S
H309 C325 0.930 . S
H310 C326 0.931 . S
C311 H299 0.929 . S
C311 C305 1.390 . S
C311 C308 1.386 . S
C312 C307 1.490 . S
C312 C314 1.395 . S
C312 C315 1.403 . S
H313 C319 0.930 . S
C314 H300 0.930 . S
C314 C312 1.395 . S
C314 C317 1.403 1_554 S
C315 C312 1.403 . S
C315 C316 1.524 . S
C315 C319 1.400 1_554 S
C316 H301 0.960 . S
C316 H302 0.960 . S
C316 H303 0.960 . S
C316 C315 1.524 . S
C317 C314 1.403 1_556 S
C317 C318 1.392 . S
C317 C321 1.495 . S
C318 C317 1.392 . S
C318 C319 1.385 . S
C318 C320 1.478 . S
C319 H313 0.930 . S
C319 C315 1.400 1_556 S
C319 C318 1.385 . S
C320 C318 1.478 . S
C320 C322 1.381 . S
C320 C326 1.383 . S
C321 C317 1.495 . S
C321 H327 0.959 . S
C321 H328 0.961 . S
C321 H329 0.960 . S
C322 C320 1.381 . S
C322 C323 1.394 . S
C322 H330 0.930 . S
C323 C322 1.394 . S
C323 C324 1.383 . S
C323 H331 0.929 . S
C324 C323 1.383 . S
C324 C325 1.377 . S
C325 H309 0.930 . S
C325 C324 1.377 . S
C325 C326 1.379 . S
C326 H310 0.931 . S
C326 C320 1.383 . S
C326 C325 1.379 . S
H327 C321 0.959 . S
H328 C321 0.961 . S
H329 C321 0.960 . S
H330 C322 0.930 . S
H331 C323 0.929 . S
H332 C340 0.929 . S
H333 C342 0.930 . S
H334 C344 0.930 . S
H335 C347 0.929 . S
H336 C350 0.930 . S
H337 C352 0.960 . S
H338 C352 0.960 . S
H339 C352 0.960 . S
C340 H332 0.929 . S
C340 C341 1.377 . S
C340 C342 1.384 . S
C341 C340 1.377 . S
C341 C347 1.390 . S
C342 H333 0.930 . S
C342 C340 1.384 . S
C342 C343 1.372 . S
C343 C342 1.372 . S
C343 C344 1.400 . S
C343 C348 1.490 . S
C344 H334 0.930 . S
C344 C343 1.400 . S
C344 C347 1.386 . S
H345 C361 0.930 . S
H346 C362 0.931 . S
C347 H335 0.929 . S
C347 C341 1.390 . S
C347 C344 1.386 . S
C348 C343 1.490 . S
C348 C350 1.395 . S
C348 C351 1.403 . S
H349 C355 0.930 . S
C350 H336 0.930 . S
C350 C348 1.395 . S
C350 C353 1.403 1_556 S
C351 C348 1.403 . S
C351 C352 1.524 . S
C351 C355 1.400 1_556 S
C352 H337 0.960 . S
C352 H338 0.960 . S
C352 H339 0.960 . S
C352 C351 1.524 . S
C353 C350 1.403 1_554 S
C353 C354 1.392 . S
C353 C357 1.495 . S
C354 C353 1.392 . S
C354 C355 1.385 . S
C354 C356 1.478 . S
C355 H349 0.930 . S
C355 C351 1.400 1_554 S
C355 C354 1.385 . S
C356 C354 1.478 . S
C356 C358 1.381 . S
C356 C362 1.383 . S
C357 C353 1.495 . S
C357 H363 0.959 . S
C357 H364 0.961 . S
C357 H365 0.960 . S
C358 C356 1.381 . S
C358 C359 1.394 . S
C358 H366 0.930 . S
C359 C358 1.394 . S
C359 C360 1.383 . S
C359 H367 0.929 . S
C360 C359 1.383 . S
C360 C361 1.377 . S
C361 H345 0.930 . S
C361 C360 1.377 . S
C361 C362 1.379 . S
C362 H346 0.931 . S
C362 C356 1.383 . S
C362 C361 1.379 . S
H363 C357 0.959 . S
H364 C357 0.961 . S
H365 C357 0.960 . S
H366 C358 0.930 . S
H367 C359 0.929 . S
H368 C376 0.929 . S
H369 C378 0.930 . S
H370 C380 0.930 . S
H371 C383 0.929 . S
H372 C386 0.930 . S
H373 C388 0.960 . S
H374 C388 0.960 . S
H375 C388 0.960 . S
C376 H368 0.929 . S
C376 C377 1.377 . S
C376 C378 1.384 . S
C377 C376 1.377 . S
C377 C383 1.390 . S
C378 H369 0.930 . S
C378 C376 1.384 . S
C378 C379 1.372 . S
C379 C378 1.372 . S
C379 C380 1.400 . S
C379 C384 1.490 . S
C380 H370 0.930 . S
C380 C379 1.400 . S
C380 C383 1.386 . S
H381 C397 0.930 . S
H382 C398 0.931 . S
C383 H371 0.929 . S
C383 C377 1.390 . S
C383 C380 1.386 . S
C384 C379 1.490 . S
C384 C386 1.395 . S
C384 C387 1.403 . S
H385 C391 0.930 . S
C386 H372 0.930 . S
C386 C384 1.395 . S
C386 C389 1.403 . S
C387 C384 1.403 . S
C387 C388 1.524 . S
C387 C391 1.400 . S
C388 H373 0.960 . S
C388 H374 0.960 . S
C388 H375 0.960 . S
C388 C387 1.524 . S
C389 C386 1.403 . S
C389 C390 1.392 . S
C389 C393 1.495 . S
C390 C389 1.392 . S
C390 C391 1.385 . S
C390 C392 1.478 . S
C391 H385 0.930 . S
C391 C387 1.400 . S
C391 C390 1.385 . S
C392 C390 1.478 . S
C392 C394 1.381 . S
C392 C398 1.383 . S
C393 C389 1.495 . S
C393 H399 0.959 . S
C393 H400 0.961 . S
C393 H401 0.960 . S
C394 C392 1.381 . S
C394 C395 1.394 . S
C394 H402 0.930 . S
C395 C394 1.394 . S
C395 C396 1.383 . S
C395 H403 0.929 . S
C396 C395 1.383 . S
C396 C397 1.377 . S
C397 H381 0.930 . S
C397 C396 1.377 . S
C397 C398 1.379 . S
C398 H382 0.931 . S
C398 C392 1.383 . S
C398 C397 1.379 . S
H399 C393 0.959 . S
H400 C393 0.961 . S
H401 C393 0.960 . S
H402 C394 0.930 . S
H403 C395 0.929 . S
H404 C412 0.929 . S
H405 C414 0.930 . S
H406 C416 0.930 . S
H407 C419 0.929 . S
H408 C422 0.930 . S
H409 C424 0.960 . S
H410 C424 0.960 . S
H411 C424 0.960 . S
C412 H404 0.929 . S
C412 C413 1.377 . S
C412 C414 1.384 . S
C413 C412 1.377 . S
C413 C419 1.390 . S
C414 H405 0.930 . S
C414 C412 1.384 . S
C414 C415 1.372 . S
C415 C414 1.372 . S
C415 C416 1.400 . S
C415 C420 1.490 . S
C416 H406 0.930 . S
C416 C415 1.400 . S
C416 C419 1.386 . S
H417 C433 0.930 . S
H418 C434 0.931 . S
C419 H407 0.929 . S
C419 C413 1.390 . S
C419 C416 1.386 . S
C420 C415 1.490 . S
C420 C422 1.395 . S
C420 C423 1.403 . S
H421 C427 0.930 . S
C422 H408 0.930 . S
C422 C420 1.395 . S
C422 C425 1.403 . S
C423 C420 1.403 . S
C423 C424 1.524 . S
C423 C427 1.400 . S
C424 H409 0.960 . S
C424 H410 0.960 . S
C424 H411 0.960 . S
C424 C423 1.524 . S
C425 C422 1.403 . S
C425 C426 1.392 . S
C425 C429 1.495 . S
C426 C425 1.392 . S
C426 C427 1.385 . S
C426 C428 1.478 . S
C427 H421 0.930 . S
C427 C423 1.400 . S
C427 C426 1.385 . S
C428 C426 1.478 . S
C428 C430 1.381 . S
C428 C434 1.383 . S
C429 C425 1.495 . S
C429 H435 0.959 . S
C429 H436 0.961 . S
C429 H437 0.960 . S
C430 C428 1.381 . S
C430 C431 1.394 . S
C430 H438 0.930 . S
C431 C430 1.394 . S
C431 C432 1.383 . S
C431 H439 0.929 . S
C432 C431 1.383 . S
C432 C433 1.377 . S
C433 H417 0.930 . S
C433 C432 1.377 . S
C433 C434 1.379 . S
C434 H418 0.931 . S
C434 C428 1.383 . S
C434 C433 1.379 . S
H435 C429 0.959 . S
H436 C429 0.961 . S
H437 C429 0.960 . S
H438 C430 0.930 . S
H439 C431 0.929 . S
H440 C448 0.929 . S
H441 C450 0.930 . S
H442 C452 0.930 . S
H443 C455 0.929 . S
H444 C458 0.930 . S
H445 C460 0.960 . S
H446 C460 0.960 . S
H447 C460 0.960 . S
C448 H440 0.929 . S
C448 C449 1.377 . S
C448 C450 1.384 . S
C449 C448 1.377 . S
C449 C455 1.390 . S
C450 H441 0.930 . S
C450 C448 1.384 . S
C450 C451 1.372 . S
C451 C450 1.372 . S
C451 C452 1.400 . S
C451 C456 1.490 . S
C452 H442 0.930 . S
C452 C451 1.400 . S
C452 C455 1.386 . S
H453 C469 0.930 . S
H454 C470 0.931 . S
C455 H443 0.929 . S
C455 C449 1.390 . S
C455 C452 1.386 . S
C456 C451 1.490 . S
C456 C458 1.395 . S
C456 C459 1.403 . S
H457 C463 0.930 . S
C458 H444 0.930 . S
C458 C456 1.395 . S
C458 C461 1.403 1_556 S
C459 C456 1.403 . S
C459 C460 1.524 . S
C459 C463 1.400 1_556 S
C460 H445 0.960 . S
C460 H446 0.960 . S
C460 H447 0.960 . S
C460 C459 1.524 . S
C461 C458 1.403 1_554 S
C461 C462 1.392 . S
C461 C465 1.495 . S
C462 C461 1.392 . S
C462 C463 1.385 . S
C462 C464 1.478 . S
C463 H457 0.930 . S
C463 C459 1.400 1_554 S
C463 C462 1.385 . S
C464 C462 1.478 . S
C464 C466 1.381 . S
C464 C470 1.383 . S
C465 C461 1.495 . S
C465 H471 0.959 . S
C465 H472 0.961 . S
C465 H473 0.960 . S
C466 C464 1.381 . S
C466 C467 1.394 . S
C466 H474 0.930 . S
C467 C466 1.394 . S
C467 C468 1.383 . S
C467 H475 0.929 . S
C468 C467 1.383 . S
C468 C469 1.377 . S
C469 H453 0.930 . S
C469 C468 1.377 . S
C469 C470 1.379 . S
C470 H454 0.931 . S
C470 C464 1.383 . S
C470 C469 1.379 . S
H471 C465 0.959 . S
H472 C465 0.961 . S
H473 C465 0.960 . S
H474 C466 0.930 . S
H475 C467 0.929 . S
H476 C484 0.929 . S
H477 C486 0.930 . S
H478 C488 0.930 . S
H479 C491 0.929 . S
H480 C494 0.930 . S
H481 C496 0.960 . S
H482 C496 0.960 . S
H483 C496 0.960 . S
C484 H476 0.929 . S
C484 C485 1.377 . S
C484 C486 1.384 . S
C485 C484 1.377 . S
C485 C491 1.390 . S
C486 H477 0.930 . S
C486 C484 1.384 . S
C486 C487 1.372 . S
C487 C486 1.372 . S
C487 C488 1.400 . S
C487 C492 1.490 . S
C488 H478 0.930 . S
C488 C487 1.400 . S
C488 C491 1.386 . S
H489 C505 0.930 . S
H490 C506 0.931 . S
C491 H479 0.929 . S
C491 C485 1.390 . S
C491 C488 1.386 . S
C492 C487 1.490 . S
C492 C494 1.395 . S
C492 C495 1.403 . S
H493 C499 0.930 . S
C494 H480 0.930 . S
C494 C492 1.395 . S
C494 C497 1.403 1_554 S
C495 C492 1.403 . S
C495 C496 1.524 . S
C495 C499 1.400 1_554 S
C496 H481 0.960 . S
C496 H482 0.960 . S
C496 H483 0.960 . S
C496 C495 1.524 . S
C497 C494 1.403 1_556 S
C497 C498 1.392 . S
C497 C501 1.495 . S
C498 C497 1.392 . S
C498 C499 1.385 . S
C498 C500 1.478 . S
C499 H493 0.930 . S
C499 C495 1.400 1_556 S
C499 C498 1.385 . S
C500 C498 1.478 . S
C500 C502 1.381 . S
C500 C506 1.383 . S
C501 C497 1.495 . S
C501 H507 0.959 . S
C501 H508 0.961 . S
C501 H509 0.960 . S
C502 C500 1.381 . S
C502 C503 1.394 . S
C502 H510 0.930 . S
C503 C502 1.394 . S
C503 C504 1.383 . S
C503 H511 0.929 . S
C504 C503 1.383 . S
C504 C505 1.377 . S
C505 H489 0.930 . S
C505 C504 1.377 . S
C505 C506 1.379 . S
C506 H490 0.931 . S
C506 C500 1.383 . S
C506 C505 1.379 . S
H507 C501 0.959 . S
H508 C501 0.961 . S
H509 C501 0.960 . S
H510 C502 0.930 . S
H511 C503 0.929 . S
H512 C520 0.929 . S
H513 C522 0.930 . S
H514 C524 0.930 1_545 S
H515 C527 0.929 . S
H516 C530 0.930 . S
H517 C532 0.960 . S
H518 C532 0.960 . S
H519 C532 0.960 . S
C520 H512 0.929 . S
C520 C521 1.377 . S
C520 C522 1.384 . S
C521 C520 1.377 . S
C521 C527 1.390 . S
C522 H513 0.930 . S
C522 C520 1.384 . S
C522 C523 1.372 . S
C523 C522 1.372 . S
C523 C524 1.400 . S
C523 C528 1.490 . S
C524 H514 0.930 1_565 S
C524 C523 1.400 . S
C524 C527 1.386 . S
H525 C541 0.930 . S
H526 C542 0.931 . S
C527 H515 0.929 . S
C527 C521 1.390 . S
C527 C524 1.386 . S
C528 C523 1.490 . S
C528 C530 1.395 1_565 S
C528 C531 1.403 . S
H529 C535 0.930 . S
C530 H516 0.930 . S
C530 C528 1.395 1_545 S
C530 C533 1.403 . S
C531 C528 1.403 . S
C531 C532 1.524 . S
C531 C535 1.400 . S
C532 H517 0.960 . S
C532 H518 0.960 . S
C532 H519 0.960 . S
C532 C531 1.524 . S
C533 C530 1.403 . S
C533 C534 1.392 . S
C533 C537 1.495 . S
C534 C533 1.392 . S
C534 C535 1.385 1_545 S
C534 C536 1.478 . S
C535 H529 0.930 . S
C535 C531 1.400 . S
C535 C534 1.385 1_565 S
C536 C534 1.478 . S
C536 C538 1.381 . S
C536 C542 1.383 . S
C537 C533 1.495 . S
C537 H543 0.959 . S
C537 H544 0.961 . S
C537 H545 0.960 . S
C538 C536 1.381 . S
C538 C539 1.394 . S
C538 H546 0.930 1_545 S
C539 C538 1.394 . S
C539 C540 1.383 . S
C539 H547 0.929 . S
C540 C539 1.383 . S
C540 C541 1.377 . S
C541 H525 0.930 . S
C541 C540 1.377 . S
C541 C542 1.379 . S
C542 H526 0.931 . S
C542 C536 1.383 . S
C542 C541 1.379 . S
H543 C537 0.959 . S
H544 C537 0.961 . S
H545 C537 0.960 . S
H546 C538 0.930 1_565 S
H547 C539 0.929 . S
H548 C556 0.929 . S
H549 C558 0.930 . S
H550 C560 0.930 1_545 S
H551 C563 0.929 1_545 S
H552 C566 0.930 . S
H553 C568 0.960 . S
H554 C568 0.960 . S
H555 C568 0.960 . S
C556 H548 0.929 . S
C556 C557 1.377 . S
C556 C558 1.384 . S
C557 C556 1.377 . S
C557 C563 1.390 . S
C558 H549 0.930 . S
C558 C556 1.384 . S
C558 C559 1.372 . S
C559 C558 1.372 . S
C559 C560 1.400 . S
C559 C564 1.490 . S
C560 H550 0.930 1_565 S
C560 C559 1.400 . S
C560 C563 1.386 . S
H561 C577 0.930 . S
H562 C578 0.931 . S
C563 H551 0.929 1_565 S
C563 C557 1.390 . S
C563 C560 1.386 . S
C564 C559 1.490 . S
C564 C566 1.395 . S
C564 C567 1.403 1_565 S
H565 C571 0.930 . S
C566 H552 0.930 . S
C566 C564 1.395 . S
C566 C569 1.403 . S
C567 C564 1.403 1_545 S
C567 C568 1.524 . S
C567 C571 1.400 . S
C568 H553 0.960 . S
C568 H554 0.960 . S
C568 H555 0.960 . S
C568 C567 1.524 . S
C569 C566 1.403 . S
C569 C570 1.392 1_565 S
C569 C573 1.495 . S
C570 C569 1.392 1_545 S
C570 C571 1.385 . S
C570 C572 1.478 . S
C571 H565 0.930 . S
C571 C567 1.400 . S
C571 C570 1.385 . S
C572 C570 1.478 . S
C572 C574 1.381 1_545 S
C572 C578 1.383 . S
C573 C569 1.495 . S
C573 H579 0.959 . S
C573 H580 0.961 . S
C573 H581 0.960 . S
C574 C572 1.381 1_565 S
C574 C575 1.394 1_565 S
C574 H582 0.930 . S
C575 C574 1.394 1_545 S
C575 C576 1.383 . S
C575 H583 0.929 1_545 S
C576 C575 1.383 . S
C576 C577 1.377 . S
C577 H561 0.930 . S
C577 C576 1.377 . S
C577 C578 1.379 . S
C578 H562 0.931 . S
C578 C572 1.383 . S
C578 C577 1.379 . S
H579 C573 0.959 . S
H580 C573 0.961 . S
H581 C573 0.960 . S
H582 C574 0.930 . S
H583 C575 0.929 1_565 S
H584 C592 0.929 . S
H585 C594 0.930 . S
H586 C596 0.930 . S
H587 C599 0.929 . S
H588 C602 0.930 . S
H589 C604 0.960 . S
H590 C604 0.960 . S
H591 C604 0.960 . S
C592 H584 0.929 . S
C592 C593 1.377 . S
C592 C594 1.384 . S
C593 C592 1.377 . S
C593 C599 1.390 . S
C594 H585 0.930 . S
C594 C592 1.384 . S
C594 C595 1.372 . S
C595 C594 1.372 . S
C595 C596 1.400 . S
C595 C600 1.490 . S
C596 H586 0.930 . S
C596 C595 1.400 . S
C596 C599 1.386 . S
H597 C613 0.930 . S
H598 C614 0.931 . S
C599 H587 0.929 . S
C599 C593 1.390 . S
C599 C596 1.386 . S
C600 C595 1.490 . S
C600 C602 1.395 . S
C600 C603 1.403 1_565 S
H601 C607 0.930 . S
C602 H588 0.930 . S
C602 C600 1.395 . S
C602 C605 1.403 . S
C603 C600 1.403 1_545 S
C603 C604 1.524 . S
C603 C607 1.400 . S
C604 H589 0.960 . S
C604 H590 0.960 . S
C604 H591 0.960 . S
C604 C603 1.524 . S
C605 C602 1.403 . S
C605 C606 1.392 1_565 S
C605 C609 1.495 . S
C606 C605 1.392 1_545 S
C606 C607 1.385 . S
C606 C608 1.478 . S
C607 H601 0.930 . S
C607 C603 1.400 . S
C607 C606 1.385 . S
C608 C606 1.478 . S
C608 C610 1.381 . S
C608 C614 1.383 . S
C609 C605 1.495 . S
C609 H615 0.959 . S
C609 H616 0.961 . S
C609 H617 0.960 . S
C610 C608 1.381 . S
C610 C611 1.394 . S
C610 H618 0.930 . S
C611 C610 1.394 . S
C611 C612 1.383 . S
C611 H619 0.929 . S
C612 C611 1.383 . S
C612 C613 1.377 . S
C613 H597 0.930 . S
C613 C612 1.377 . S
C613 C614 1.379 . S
C614 H598 0.931 . S
C614 C608 1.383 . S
C614 C613 1.379 . S
H615 C609 0.959 . S
H616 C609 0.961 . S
H617 C609 0.960 . S
H618 C610 0.930 . S
H619 C611 0.929 . S
H620 C628 0.929 . S
H621 C630 0.930 . S
H622 C632 0.930 . S
H623 C635 0.929 . S
H624 C638 0.930 . S
H625 C640 0.960 . S
H626 C640 0.960 . S
H627 C640 0.960 . S
C628 H620 0.929 . S
C628 C629 1.377 . S
C628 C630 1.384 . S
C629 C628 1.377 . S
C629 C635 1.390 . S
C630 H621 0.930 . S
C630 C628 1.384 . S
C630 C631 1.372 . S
C631 C630 1.372 . S
C631 C632 1.400 . S
C631 C636 1.490 . S
C632 H622 0.930 . S
C632 C631 1.400 . S
C632 C635 1.386 . S
H633 C649 0.930 . S
H634 C650 0.931 . S
C635 H623 0.929 . S
C635 C629 1.390 . S
C635 C632 1.386 . S
C636 C631 1.490 . S
C636 C638 1.395 . S
C636 C639 1.403 1_545 S
H637 C643 0.930 . S
C638 H624 0.930 . S
C638 C636 1.395 . S
C638 C641 1.403 . S
C639 C636 1.403 1_565 S
C639 C640 1.524 . S
C639 C643 1.400 . S
C640 H625 0.960 . S
C640 H626 0.960 . S
C640 H627 0.960 . S
C640 C639 1.524 . S
C641 C638 1.403 . S
C641 C642 1.392 1_545 S
C641 C645 1.495 . S
C642 C641 1.392 1_565 S
C642 C643 1.385 . S
C642 C644 1.478 . S
C643 H637 0.930 . S
C643 C639 1.400 . S
C643 C642 1.385 . S
C644 C642 1.478 . S
C644 C646 1.381 . S
C644 C650 1.383 . S
C645 C641 1.495 . S
C645 H651 0.959 . S
C645 H652 0.961 . S
C645 H653 0.960 . S
C646 C644 1.381 . S
C646 C647 1.394 . S
C646 H654 0.930 . S
C647 C646 1.394 . S
C647 C648 1.383 . S
C647 H655 0.929 . S
C648 C647 1.383 . S
C648 C649 1.377 . S
C649 H633 0.930 . S
C649 C648 1.377 . S
C649 C650 1.379 . S
C650 H634 0.931 . S
C650 C644 1.383 . S
C650 C649 1.379 . S
H651 C645 0.959 . S
H652 C645 0.961 . S
H653 C645 0.960 . S
H654 C646 0.930 . S
H655 C647 0.929 . S
H656 C664 0.929 . S
H657 C666 0.930 . S
H658 C668 0.930 . S
H659 C671 0.929 . S
H660 C674 0.930 . S
H661 C676 0.960 . S
H662 C676 0.960 . S
H663 C676 0.960 . S
C664 H656 0.929 . S
C664 C665 1.377 . S
C664 C666 1.384 . S
C665 C664 1.377 . S
C665 C671 1.390 . S
C666 H657 0.930 . S
C666 C664 1.384 . S
C666 C667 1.372 . S
C667 C666 1.372 . S
C667 C668 1.400 . S
C667 C672 1.490 . S
C668 H658 0.930 . S
C668 C667 1.400 . S
C668 C671 1.386 . S
H669 C685 0.930 . S
H670 C686 0.931 . S
C671 H659 0.929 . S
C671 C665 1.390 . S
C671 C668 1.386 . S
C672 C667 1.490 . S
C672 C674 1.395 . S
C672 C675 1.403 . S
H673 C679 0.930 . S
C674 H660 0.930 . S
C674 C672 1.395 . S
C674 C677 1.403 1_655 S
C675 C672 1.403 . S
C675 C676 1.524 . S
C675 C679 1.400 1_655 S
C676 H661 0.960 . S
C676 H662 0.960 . S
C676 H663 0.960 . S
C676 C675 1.524 . S
C677 C674 1.403 1_455 S
C677 C678 1.392 . S
C677 C681 1.495 . S
C678 C677 1.392 . S
C678 C679 1.385 . S
C678 C680 1.478 . S
C679 H673 0.930 . S
C679 C675 1.400 1_455 S
C679 C678 1.385 . S
C680 C678 1.478 . S
C680 C682 1.381 . S
C680 C686 1.383 . S
C681 C677 1.495 . S
C681 H687 0.959 . S
C681 H688 0.961 . S
C681 H689 0.960 . S
C682 C680 1.381 . S
C682 C683 1.394 . S
C682 H690 0.930 . S
C683 C682 1.394 . S
C683 C684 1.383 . S
C683 H691 0.929 . S
C684 C683 1.383 . S
C684 C685 1.377 . S
C685 H669 0.930 . S
C685 C684 1.377 . S
C685 C686 1.379 . S
C686 H670 0.931 . S
C686 C680 1.383 . S
C686 C685 1.379 . S
H687 C681 0.959 . S
H688 C681 0.961 . S
H689 C681 0.960 . S
H690 C682 0.930 . S
H691 C683 0.929 . S
H692 C700 0.929 . S
H693 C702 0.930 . S
H694 C704 0.930 . S
H695 C707 0.929 . S
H696 C710 0.930 . S
H697 C712 0.960 . S
H698 C712 0.960 . S
H699 C712 0.960 . S
C700 H692 0.929 . S
C700 C701 1.377 . S
C700 C702 1.384 . S
C701 C700 1.377 . S
C701 C707 1.390 . S
C702 H693 0.930 . S
C702 C700 1.384 . S
C702 C703 1.372 . S
C703 C702 1.372 . S
C703 C704 1.400 . S
C703 C708 1.490 . S
C704 H694 0.930 . S
C704 C703 1.400 . S
C704 C707 1.386 . S
H705 C721 0.930 . S
H706 C722 0.931 . S
C707 H695 0.929 . S
C707 C701 1.390 . S
C707 C704 1.386 . S
C708 C703 1.490 . S
C708 C710 1.395 . S
C708 C711 1.403 . S
H709 C715 0.930 . S
C710 H696 0.930 . S
C710 C708 1.395 . S
C710 C713 1.403 1_455 S
C711 C708 1.403 . S
C711 C712 1.524 . S
C711 C715 1.400 1_455 S
C712 H697 0.960 . S
C712 H698 0.960 . S
C712 H699 0.960 . S
C712 C711 1.524 . S
C713 C710 1.403 1_655 S
C713 C714 1.392 . S
C713 C717 1.495 . S
C714 C713 1.392 . S
C714 C715 1.385 . S
C714 C716 1.478 . S
C715 H709 0.930 . S
C715 C711 1.400 1_655 S
C715 C714 1.385 . S
C716 C714 1.478 . S
C716 C718 1.381 . S
C716 C722 1.383 . S
C717 C713 1.495 . S
C717 H723 0.959 . S
C717 H724 0.961 . S
C717 H725 0.960 . S
C718 C716 1.381 . S
C718 C719 1.394 . S
C718 H726 0.930 . S
C719 C718 1.394 . S
C719 C720 1.383 . S
C719 H727 0.929 . S
C720 C719 1.383 . S
C720 C721 1.377 . S
C721 H705 0.930 . S
C721 C720 1.377 . S
C721 C722 1.379 . S
C722 H706 0.931 . S
C722 C716 1.383 . S
C722 C721 1.379 . S
H723 C717 0.959 . S
H724 C717 0.961 . S
H725 C717 0.960 . S
H726 C718 0.930 . S
H727 C719 0.929 . S
H728 C736 0.929 . S
H729 C738 0.930 . S
H730 C740 0.930 . S
H731 C743 0.929 . S
H732 C746 0.930 . S
H733 C748 0.960 . S
H734 C748 0.960 . S
H735 C748 0.960 . S
C736 H728 0.929 . S
C736 C737 1.377 . S
C736 C738 1.384 . S
C737 C736 1.377 . S
C737 C743 1.390 . S
C738 H729 0.930 . S
C738 C736 1.384 . S
C738 C739 1.372 . S
C739 C738 1.372 . S
C739 C740 1.400 . S
C739 C744 1.490 . S
C740 H730 0.930 . S
C740 C739 1.400 . S
C740 C743 1.386 . S
H741 C757 0.930 . S
H742 C758 0.931 . S
C743 H731 0.929 . S
C743 C737 1.390 . S
C743 C740 1.386 . S
C744 C739 1.490 . S
C744 C746 1.395 . S
C744 C747 1.403 . S
H745 C751 0.930 . S
C746 H732 0.930 . S
C746 C744 1.395 . S
C746 C749 1.403 1_655 S
C747 C744 1.403 . S
C747 C748 1.524 . S
C747 C751 1.400 1_655 S
C748 H733 0.960 . S
C748 H734 0.960 . S
C748 H735 0.960 . S
C748 C747 1.524 . S
C749 C746 1.403 1_455 S
C749 C750 1.392 . S
C749 C753 1.495 . S
C750 C749 1.392 . S
C750 C751 1.385 . S
C750 C752 1.478 . S
C751 H745 0.930 . S
C751 C747 1.400 1_455 S
C751 C750 1.385 . S
C752 C750 1.478 . S
C752 C754 1.381 . S
C752 C758 1.383 . S
C753 C749 1.495 . S
C753 H759 0.959 . S
C753 H760 0.961 . S
C753 H761 0.960 . S
C754 C752 1.381 . S
C754 C755 1.394 . S
C754 H762 0.930 . S
C755 C754 1.394 . S
C755 C756 1.383 . S
C755 H763 0.929 . S
C756 C755 1.383 . S
C756 C757 1.377 . S
C757 H741 0.930 . S
C757 C756 1.377 . S
C757 C758 1.379 . S
C758 H742 0.931 . S
C758 C752 1.383 . S
C758 C757 1.379 . S
H759 C753 0.959 . S
H760 C753 0.961 . S
H761 C753 0.960 . S
H762 C754 0.930 . S
H763 C755 0.929 . S
H764 C772 0.929 . S
H765 C774 0.930 . S
H766 C776 0.930 . S
H767 C779 0.929 . S
H768 C782 0.930 . S
H769 C784 0.960 1_655 S
H770 C784 0.960 . S
H771 C784 0.960 . S
C772 H764 0.929 . S
C772 C773 1.377 . S
C772 C774 1.384 . S
C773 C772 1.377 . S
C773 C779 1.390 . S
C774 H765 0.930 . S
C774 C772 1.384 . S
C774 C775 1.372 . S
C775 C774 1.372 . S
C775 C776 1.400 . S
C775 C780 1.490 . S
C776 H766 0.930 . S
C776 C775 1.400 . S
C776 C779 1.386 . S
H777 C793 0.930 . S
H778 C794 0.931 . S
C779 H767 0.929 . S
C779 C773 1.390 . S
C779 C776 1.386 . S
C780 C775 1.490 . S
C780 C782 1.395 . S
C780 C783 1.403 . S
H781 C787 0.930 . S
C782 H768 0.930 . S
C782 C780 1.395 . S
C782 C785 1.403 1_455 S
C783 C780 1.403 . S
C783 C784 1.524 . S
C783 C787 1.400 1_455 S
C784 H769 0.960 1_455 S
C784 H770 0.960 . S
C784 H771 0.960 . S
C784 C783 1.524 . S
C785 C782 1.403 1_655 S
C785 C786 1.392 . S
C785 C789 1.495 . S
C786 C785 1.392 . S
C786 C787 1.385 . S
C786 C788 1.478 . S
C787 H781 0.930 . S
C787 C783 1.400 1_655 S
C787 C786 1.385 . S
C788 C786 1.478 . S
C788 C790 1.381 . S
C788 C794 1.383 . S
C789 C785 1.495 . S
C789 H795 0.959 1_655 S
C789 H796 0.961 . S
C789 H797 0.960 . S
C790 C788 1.381 . S
C790 C791 1.394 . S
C790 H798 0.930 . S
C791 C790 1.394 . S
C791 C792 1.383 . S
C791 H799 0.929 . S
C792 C791 1.383 . S
C792 C793 1.377 . S
C793 H777 0.930 . S
C793 C792 1.377 . S
C793 C794 1.379 . S
C794 H778 0.931 . S
C794 C788 1.383 . S
C794 C793 1.379 . S
H795 C789 0.959 1_455 S
H796 C789 0.961 . S
H797 C789 0.960 . S
H798 C790 0.930 . S
H799 C791 0.929 . S
H800 C808 0.929 . S
H801 C810 0.930 . S
H802 C812 0.930 . S
H803 C815 0.929 . S
H804 C818 0.930 . S
H805 C820 0.960 . S
H806 C820 0.960 . S
H807 C820 0.960 . S
C808 H800 0.929 . S
C808 C809 1.377 . S
C808 C810 1.384 . S
C809 C808 1.377 . S
C809 C815 1.390 . S
C810 H801 0.930 . S
C810 C808 1.384 . S
C810 C811 1.372 . S
C811 C810 1.372 . S
C811 C812 1.400 . S
C811 C816 1.490 . S
C812 H802 0.930 . S
C812 C811 1.400 . S
C812 C815 1.386 . S
H813 C829 0.930 . S
H814 C830 0.931 . S
C815 H803 0.929 . S
C815 C809 1.390 . S
C815 C812 1.386 . S
C816 C811 1.490 . S
C816 C818 1.395 . S
C816 C819 1.403 . S
H817 C823 0.930 . S
C818 H804 0.930 . S
C818 C816 1.395 . S
C818 C821 1.403 . S
C819 C816 1.403 . S
C819 C820 1.524 . S
C819 C823 1.400 . S
C820 H805 0.960 . S
C820 H806 0.960 . S
C820 H807 0.960 . S
C820 C819 1.524 . S
C821 C818 1.403 . S
C821 C822 1.392 . S
C821 C825 1.495 . S
C822 C821 1.392 . S
C822 C823 1.385 . S
C822 C824 1.478 . S
C823 H817 0.930 . S
C823 C819 1.400 . S
C823 C822 1.385 . S
C824 C822 1.478 . S
C824 C826 1.381 . S
C824 C830 1.383 . S
C825 C821 1.495 . S
C825 H831 0.959 . S
C825 H832 0.961 . S
C825 H833 0.960 . S
C826 C824 1.381 . S
C826 C827 1.394 . S
C826 H834 0.930 . S
C827 C826 1.394 . S
C827 C828 1.383 . S
C827 H835 0.929 . S
C828 C827 1.383 . S
C828 C829 1.377 . S
C829 H813 0.930 . S
C829 C828 1.377 . S
C829 C830 1.379 . S
C830 H814 0.931 . S
C830 C824 1.383 . S
C830 C829 1.379 . S
H831 C825 0.959 . S
H832 C825 0.961 . S
H833 C825 0.960 . S
H834 C826 0.930 . S
H835 C827 0.929 . S
H836 C844 0.929 . S
H837 C846 0.930 . S
H838 C848 0.930 . S
H839 C851 0.929 . S
H840 C854 0.930 . S
H841 C856 0.960 . S
H842 C856 0.960 . S
H843 C856 0.960 . S
C844 H836 0.929 . S
C844 C845 1.377 . S
C844 C846 1.384 . S
C845 C844 1.377 . S
C845 C851 1.390 . S
C846 H837 0.930 . S
C846 C844 1.384 . S
C846 C847 1.372 . S
C847 C846 1.372 . S
C847 C848 1.400 . S
C847 C852 1.490 . S
C848 H838 0.930 . S
C848 C847 1.400 . S
C848 C851 1.386 . S
H849 C865 0.930 . S
H850 C866 0.931 . S
C851 H839 0.929 . S
C851 C845 1.390 . S
C851 C848 1.386 . S
C852 C847 1.490 . S
C852 C854 1.395 . S
C852 C855 1.403 . S
H853 C859 0.930 . S
C854 H840 0.930 . S
C854 C852 1.395 . S
C854 C857 1.403 . S
C855 C852 1.403 . S
C855 C856 1.524 . S
C855 C859 1.400 . S
C856 H841 0.960 . S
C856 H842 0.960 . S
C856 H843 0.960 . S
C856 C855 1.524 . S
C857 C854 1.403 . S
C857 C858 1.392 . S
C857 C861 1.495 . S
C858 C857 1.392 . S
C858 C859 1.385 . S
C858 C860 1.478 . S
C859 H853 0.930 . S
C859 C855 1.400 . S
C859 C858 1.385 . S
C860 C858 1.478 . S
C860 C862 1.381 . S
C860 C866 1.383 . S
C861 C857 1.495 . S
C861 H867 0.959 . S
C861 H868 0.961 . S
C861 H869 0.960 . S
C862 C860 1.381 . S
C862 C863 1.394 . S
C862 H870 0.930 . S
C863 C862 1.394 . S
C863 C864 1.383 . S
C863 H871 0.929 . S
C864 C863 1.383 . S
C864 C865 1.377 . S
C865 H849 0.930 . S
C865 C864 1.377 . S
C865 C866 1.379 . S
C866 H850 0.931 . S
C866 C860 1.383 . S
C866 C865 1.379 . S
H867 C861 0.959 . S
H868 C861 0.961 . S
H869 C861 0.960 . S
H870 C862 0.930 . S
H871 C863 0.929 . S
H872 C880 0.929 . S
H873 C882 0.930 . S
H874 C884 0.930 . S
H875 C887 0.929 . S
H876 C890 0.930 . S
H877 C892 0.960 . S
H878 C892 0.960 . S
H879 C892 0.960 . S
C880 H872 0.929 . S
C880 C881 1.377 . S
C880 C882 1.384 . S
C881 C880 1.377 . S
C881 C887 1.390 . S
C882 H873 0.930 . S
C882 C880 1.384 . S
C882 C883 1.372 . S
C883 C882 1.372 . S
C883 C884 1.400 . S
C883 C888 1.490 . S
C884 H874 0.930 . S
C884 C883 1.400 . S
C884 C887 1.386 . S
H885 C901 0.930 . S
H886 C902 0.931 . S
C887 H875 0.929 . S
C887 C881 1.390 . S
C887 C884 1.386 . S
C888 C883 1.490 . S
C888 C890 1.395 . S
C888 C891 1.403 . S
H889 C895 0.930 . S
C890 H876 0.930 . S
C890 C888 1.395 . S
C890 C893 1.403 . S
C891 C888 1.403 . S
C891 C892 1.524 . S
C891 C895 1.400 . S
C892 H877 0.960 . S
C892 H878 0.960 . S
C892 H879 0.960 . S
C892 C891 1.524 . S
C893 C890 1.403 . S
C893 C894 1.392 . S
C893 C897 1.495 . S
C894 C893 1.392 . S
C894 C895 1.385 . S
C894 C896 1.478 . S
C895 H889 0.930 . S
C895 C891 1.400 . S
C895 C894 1.385 . S
C896 C894 1.478 . S
C896 C898 1.381 . S
C896 C902 1.383 . S
C897 C893 1.495 . S
C897 H903 0.959 . S
C897 H904 0.961 . S
C897 H905 0.960 . S
C898 C896 1.381 . S
C898 C899 1.394 . S
C898 H906 0.930 . S
C899 C898 1.394 . S
C899 C900 1.383 . S
C899 H907 0.929 . S
C900 C899 1.383 . S
C900 C901 1.377 . S
C901 H885 0.930 . S
C901 C900 1.377 . S
C901 C902 1.379 . S
C902 H886 0.931 . S
C902 C896 1.383 . S
C902 C901 1.379 . S
H903 C897 0.959 . S
H904 C897 0.961 . S
H905 C897 0.960 . S
H906 C898 0.930 . S
H907 C899 0.929 . S
H908 C916 0.929 . S
H909 C918 0.930 . S
H910 C920 0.930 . S
H911 C923 0.929 . S
H912 C926 0.930 . S
H913 C928 0.960 . S
H914 C928 0.960 . S
H915 C928 0.960 . S
C916 H908 0.929 . S
C916 C917 1.377 . S
C916 C918 1.384 . S
C917 C916 1.377 . S
C917 C923 1.390 . S
C918 H909 0.930 . S
C918 C916 1.384 . S
C918 C919 1.372 . S
C919 C918 1.372 . S
C919 C920 1.400 . S
C919 C924 1.490 . S
C920 H910 0.930 . S
C920 C919 1.400 . S
C920 C923 1.386 . S
H921 C937 0.930 . S
H922 C938 0.931 . S
C923 H911 0.929 . S
C923 C917 1.390 . S
C923 C920 1.386 . S
C924 C919 1.490 . S
C924 C926 1.395 . S
C924 C927 1.403 . S
H925 C931 0.930 . S
C926 H912 0.930 . S
C926 C924 1.395 . S
C926 C929 1.403 . S
C927 C924 1.403 . S
C927 C928 1.524 . S
C927 C931 1.400 . S
C928 H913 0.960 . S
C928 H914 0.960 . S
C928 H915 0.960 . S
C928 C927 1.524 . S
C929 C926 1.403 . S
C929 C930 1.392 . S
C929 C933 1.495 . S
C930 C929 1.392 . S
C930 C931 1.385 . S
C930 C932 1.478 . S
C931 H925 0.930 . S
C931 C927 1.400 . S
C931 C930 1.385 . S
C932 C930 1.478 . S
C932 C934 1.381 . S
C932 C938 1.383 . S
C933 C929 1.495 . S
C933 H939 0.959 . S
C933 H940 0.961 . S
C933 H941 0.960 . S
C934 C932 1.381 . S
C934 C935 1.394 . S
C934 H942 0.930 . S
C935 C934 1.394 . S
C935 C936 1.383 . S
C935 H943 0.929 . S
C936 C935 1.383 . S
C936 C937 1.377 . S
C937 H921 0.930 . S
C937 C936 1.377 . S
C937 C938 1.379 . S
C938 H922 0.931 . S
C938 C932 1.383 . S
C938 C937 1.379 . S
H939 C933 0.959 . S
H940 C933 0.961 . S
H941 C933 0.960 . S
H942 C934 0.930 . S
H943 C935 0.929 . S
H944 C952 0.929 . S
H945 C954 0.930 . S
H946 C956 0.930 . S
H947 C959 0.929 . S
H948 C962 0.930 . S
H949 C964 0.960 . S
H950 C964 0.960 . S
H951 C964 0.960 . S
C952 H944 0.929 . S
C952 C953 1.377 . S
C952 C954 1.384 . S
C953 C952 1.377 . S
C953 C959 1.390 . S
C954 H945 0.930 . S
C954 C952 1.384 . S
C954 C955 1.372 . S
C955 C954 1.372 . S
C955 C956 1.400 . S
C955 C960 1.490 . S
C956 H946 0.930 . S
C956 C955 1.400 . S
C956 C959 1.386 . S
H957 C973 0.930 . S
H958 C974 0.931 . S
C959 H947 0.929 . S
C959 C953 1.390 . S
C959 C956 1.386 . S
C960 C955 1.490 . S
C960 C962 1.395 . S
C960 C963 1.403 . S
H961 C967 0.930 . S
C962 H948 0.930 . S
C962 C960 1.395 . S
C962 C965 1.403 . S
C963 C960 1.403 . S
C963 C964 1.524 . S
C963 C967 1.400 . S
C964 H949 0.960 . S
C964 H950 0.960 . S
C964 H951 0.960 . S
C964 C963 1.524 . S
C965 C962 1.403 . S
C965 C966 1.392 . S
C965 C969 1.495 . S
C966 C965 1.392 . S
C966 C967 1.385 . S
C966 C968 1.478 . S
C967 H961 0.930 . S
C967 C963 1.400 . S
C967 C966 1.385 . S
C968 C966 1.478 . S
C968 C970 1.381 . S
C968 C974 1.383 . S
C969 C965 1.495 . S
C969 H975 0.959 . S
C969 H976 0.961 . S
C969 H977 0.960 . S
C970 C968 1.381 . S
C970 C971 1.394 . S
C970 H978 0.930 . S
C971 C970 1.394 . S
C971 C972 1.383 . S
C971 H979 0.929 . S
C972 C971 1.383 . S
C972 C973 1.377 . S
C973 H957 0.930 . S
C973 C972 1.377 . S
C973 C974 1.379 . S
C974 H958 0.931 . S
C974 C968 1.383 . S
C974 C973 1.379 . S
H975 C969 0.959 . S
H976 C969 0.961 . S
H977 C969 0.960 . S
H978 C970 0.930 . S
H979 C971 0.929 . S
H980 C988 0.929 . S
H981 C990 0.930 . S
H982 C992 0.930 . S
H983 C995 0.929 . S
H984 C998 0.930 . S
H985 C1000 0.960 . S
H986 C1000 0.960 . S
H987 C1000 0.960 . S
C988 H980 0.929 . S
C988 C989 1.377 . S
C988 C990 1.384 . S
C989 C988 1.377 . S
C989 C995 1.390 . S
C990 H981 0.930 . S
C990 C988 1.384 . S
C990 C991 1.372 . S
C991 C990 1.372 . S
C991 C992 1.400 . S
C991 C996 1.490 . S
C992 H982 0.930 . S
C992 C991 1.400 . S
C992 C995 1.386 . S
H993 C1009 0.930 . S
H994 C1010 0.931 . S
C995 H983 0.929 . S
C995 C989 1.390 . S
C995 C992 1.386 . S
C996 C991 1.490 . S
C996 C998 1.395 . S
C996 C999 1.403 . S
H997 C1003 0.930 . S
C998 H984 0.930 . S
C998 C996 1.395 . S
C998 C1001 1.403 . S
C999 C996 1.403 . S
C999 C1000 1.524 . S
C999 C1003 1.400 . S
C1000 H985 0.960 . S
C1000 H986 0.960 . S
C1000 H987 0.960 . S
C1000 C999 1.524 . S
C1001 C998 1.403 . S
C1001 C1002 1.392 . S
C1001 C1005 1.495 . S
C1002 C1001 1.392 . S
C1002 C1003 1.385 . S
C1002 C1004 1.478 . S
C1003 H997 0.930 . S
C1003 C999 1.400 . S
C1003 C1002 1.385 . S
C1004 C1002 1.478 . S
C1004 C1006 1.381 . S
C1004 C1010 1.383 . S
C1005 C1001 1.495 . S
C1005 H1011 0.959 . S
C1005 H1012 0.961 . S
C1005 H1013 0.960 . S
C1006 C1004 1.381 . S
C1006 C1007 1.394 . S
C1006 H1014 0.930 . S
C1007 C1006 1.394 . S
C1007 C1008 1.383 . S
C1007 H1015 0.929 . S
C1008 C1007 1.383 . S
C1008 C1009 1.377 . S
C1009 H993 0.930 . S
C1009 C1008 1.377 . S
C1009 C1010 1.379 . S
C1010 H994 0.931 . S
C1010 C1004 1.383 . S
C1010 C1009 1.379 . S
H1011 C1005 0.959 . S
H1012 C1005 0.961 . S
H1013 C1005 0.960 . S
H1014 C1006 0.930 . S
H1015 C1007 0.929 . S
H1016 C1024 0.929 . S
H1017 C1026 0.930 . S
H1018 C1028 0.930 . S
H1019 C1031 0.929 . S
H1020 C1034 0.930 . S
H1021 C1036 0.960 . S
H1022 C1036 0.960 . S
H1023 C1036 0.960 . S
C1024 H1016 0.929 . S
C1024 C1025 1.377 . S
C1024 C1026 1.384 . S
C1025 C1024 1.377 . S
C1025 C1031 1.390 . S
C1026 H1017 0.930 . S
C1026 C1024 1.384 . S
C1026 C1027 1.372 . S
C1027 C1026 1.372 . S
C1027 C1028 1.400 . S
C1027 C1032 1.490 . S
C1028 H1018 0.930 . S
C1028 C1027 1.400 . S
C1028 C1031 1.386 . S
H1029 C1045 0.930 . S
H1030 C1046 0.931 . S
C1031 H1019 0.929 . S
C1031 C1025 1.390 . S
C1031 C1028 1.386 . S
C1032 C1027 1.490 . S
C1032 C1034 1.395 . S
C1032 C1035 1.403 . S
H1033 C1039 0.930 . S
C1034 H1020 0.930 . S
C1034 C1032 1.395 . S
C1034 C1037 1.403 . S
C1035 C1032 1.403 . S
C1035 C1036 1.524 . S
C1035 C1039 1.400 . S
C1036 H1021 0.960 . S
C1036 H1022 0.960 . S
C1036 H1023 0.960 . S
C1036 C1035 1.524 . S
C1037 C1034 1.403 . S
C1037 C1038 1.392 . S
C1037 C1041 1.495 . S
C1038 C1037 1.392 . S
C1038 C1039 1.385 . S
C1038 C1040 1.478 . S
C1039 H1033 0.930 . S
C1039 C1035 1.400 . S
C1039 C1038 1.385 . S
C1040 C1038 1.478 . S
C1040 C1042 1.381 . S
C1040 C1046 1.383 . S
C1041 C1037 1.495 . S
C1041 H1047 0.959 . S
C1041 H1048 0.961 . S
C1041 H1049 0.960 . S
C1042 C1040 1.381 . S
C1042 C1043 1.394 . S
C1042 H1050 0.930 . S
C1043 C1042 1.394 . S
C1043 C1044 1.383 . S
C1043 H1051 0.929 . S
C1044 C1043 1.383 . S
C1044 C1045 1.377 . S
C1045 H1029 0.930 . S
C1045 C1044 1.377 . S
C1045 C1046 1.379 . S
C1046 H1030 0.931 . S
C1046 C1040 1.383 . S
C1046 C1045 1.379 . S
H1047 C1041 0.959 . S
H1048 C1041 0.961 . S
H1049 C1041 0.960 . S
H1050 C1042 0.930 . S
H1051 C1043 0.929 . S
H1052 C1060 0.929 . S
H1053 C1062 0.930 . S
H1054 C1064 0.930 . S
H1055 C1067 0.929 . S
H1056 C1070 0.930 . S
H1057 C1072 0.960 . S
H1058 C1072 0.960 . S
H1059 C1072 0.960 . S
C1060 H1052 0.929 . S
C1060 C1061 1.377 . S
C1060 C1062 1.384 . S
C1061 C1060 1.377 . S
C1061 C1067 1.390 . S
C1062 H1053 0.930 . S
C1062 C1060 1.384 . S
C1062 C1063 1.372 . S
C1063 C1062 1.372 . S
C1063 C1064 1.400 . S
C1063 C1068 1.490 . S
C1064 H1054 0.930 . S
C1064 C1063 1.400 . S
C1064 C1067 1.386 . S
H1065 C1081 0.930 . S
H1066 C1082 0.931 . S
C1067 H1055 0.929 . S
C1067 C1061 1.390 . S
C1067 C1064 1.386 . S
C1068 C1063 1.490 . S
C1068 C1070 1.395 . S
C1068 C1071 1.403 . S
H1069 C1075 0.930 . S
C1070 H1056 0.930 . S
C1070 C1068 1.395 . S
C1070 C1073 1.403 . S
C1071 C1068 1.403 . S
C1071 C1072 1.524 . S
C1071 C1075 1.400 . S
C1072 H1057 0.960 . S
C1072 H1058 0.960 . S
C1072 H1059 0.960 . S
C1072 C1071 1.524 . S
C1073 C1070 1.403 . S
C1073 C1074 1.392 . S
C1073 C1077 1.495 . S
C1074 C1073 1.392 . S
C1074 C1075 1.385 . S
C1074 C1076 1.478 . S
C1075 H1069 0.930 . S
C1075 C1071 1.400 . S
C1075 C1074 1.385 . S
C1076 C1074 1.478 . S
C1076 C1078 1.381 . S
C1076 C1082 1.383 . S
C1077 C1073 1.495 . S
C1077 H1083 0.959 . S
C1077 H1084 0.961 . S
C1077 H1085 0.960 . S
C1078 C1076 1.381 . S
C1078 C1079 1.394 . S
C1078 H1086 0.930 . S
C1079 C1078 1.394 . S
C1079 C1080 1.383 . S
C1079 H1087 0.929 . S
C1080 C1079 1.383 . S
C1080 C1081 1.377 . S
C1081 H1065 0.930 . S
C1081 C1080 1.377 . S
C1081 C1082 1.379 . S
C1082 H1066 0.931 . S
C1082 C1076 1.383 . S
C1082 C1081 1.379 . S
H1083 C1077 0.959 . S
H1084 C1077 0.961 . S
H1085 C1077 0.960 . S
H1086 C1078 0.930 . S
H1087 C1079 0.929 . S
H1088 C1096 0.929 . S
H1089 C1098 0.930 . S
H1090 C1100 0.930 1_565 S
H1091 C1103 0.929 . S
H1092 C1106 0.930 . S
H1093 C1108 0.960 . S
H1094 C1108 0.960 . S
H1095 C1108 0.960 . S
C1096 H1088 0.929 . S
C1096 C1097 1.377 . S
C1096 C1098 1.384 . S
C1097 C1096 1.377 . S
C1097 C1103 1.390 . S
C1098 H1089 0.930 . S
C1098 C1096 1.384 . S
C1098 C1099 1.372 . S
C1099 C1098 1.372 . S
C1099 C1100 1.400 . S
C1099 C1104 1.490 . S
C1100 H1090 0.930 1_545 S
C1100 C1099 1.400 . S
C1100 C1103 1.386 . S
H1101 C1117 0.930 . S
H1102 C1118 0.931 . S
C1103 H1091 0.929 . S
C1103 C1097 1.390 . S
C1103 C1100 1.386 . S
C1104 C1099 1.490 . S
C1104 C1106 1.395 . S
C1104 C1107 1.403 1_545 S
H1105 C1111 0.930 . S
C1106 H1092 0.930 . S
C1106 C1104 1.395 . S
C1106 C1109 1.403 . S
C1107 C1104 1.403 1_565 S
C1107 C1108 1.524 . S
C1107 C1111 1.400 . S
C1108 H1093 0.960 . S
C1108 H1094 0.960 . S
C1108 H1095 0.960 . S
C1108 C1107 1.524 . S
C1109 C1106 1.403 . S
C1109 C1110 1.392 1_545 S
C1109 C1113 1.495 . S
C1110 C1109 1.392 1_565 S
C1110 C1111 1.385 . S
C1110 C1112 1.478 . S
C1111 H1105 0.930 . S
C1111 C1107 1.400 . S
C1111 C1110 1.385 . S
C1112 C1110 1.478 . S
C1112 C1114 1.381 . S
C1112 C1118 1.383 . S
C1113 C1109 1.495 . S
C1113 H1119 0.959 . S
C1113 H1120 0.961 . S
C1113 H1121 0.960 . S
C1114 C1112 1.381 . S
C1114 C1115 1.394 . S
C1114 H1122 0.930 1_565 S
C1115 C1114 1.394 . S
C1115 C1116 1.383 . S
C1115 H1123 0.929 . S
C1116 C1115 1.383 . S
C1116 C1117 1.377 . S
C1117 H1101 0.930 . S
C1117 C1116 1.377 . S
C1117 C1118 1.379 . S
C1118 H1102 0.931 . S
C1118 C1112 1.383 . S
C1118 C1117 1.379 . S
H1119 C1113 0.959 . S
H1120 C1113 0.961 . S
H1121 C1113 0.960 . S
H1122 C1114 0.930 1_545 S
H1123 C1115 0.929 . S
H1124 C1132 0.929 . S
H1125 C1134 0.930 . S
H1126 C1136 0.930 . S
H1127 C1139 0.929 . S
H1128 C1142 0.930 . S
H1129 C1144 0.960 . S
H1130 C1144 0.960 . S
H1131 C1144 0.960 . S
C1132 H1124 0.929 . S
C1132 C1133 1.377 . S
C1132 C1134 1.384 . S
C1133 C1132 1.377 . S
C1133 C1139 1.390 . S
C1134 H1125 0.930 . S
C1134 C1132 1.384 . S
C1134 C1135 1.372 . S
C1135 C1134 1.372 . S
C1135 C1136 1.400 . S
C1135 C1140 1.490 . S
C1136 H1126 0.930 . S
C1136 C1135 1.400 . S
C1136 C1139 1.386 . S
H1137 C1153 0.930 . S
H1138 C1154 0.931 . S
C1139 H1127 0.929 . S
C1139 C1133 1.390 . S
C1139 C1136 1.386 . S
C1140 C1135 1.490 . S
C1140 C1142 1.395 . S
C1140 C1143 1.403 1_545 S
H1141 C1147 0.930 . S
C1142 H1128 0.930 . S
C1142 C1140 1.395 . S
C1142 C1145 1.403 . S
C1143 C1140 1.403 1_565 S
C1143 C1144 1.524 . S
C1143 C1147 1.400 . S
C1144 H1129 0.960 . S
C1144 H1130 0.960 . S
C1144 H1131 0.960 . S
C1144 C1143 1.524 . S
C1145 C1142 1.403 . S
C1145 C1146 1.392 1_545 S
C1145 C1149 1.495 . S
C1146 C1145 1.392 1_565 S
C1146 C1147 1.385 . S
C1146 C1148 1.478 . S
C1147 H1141 0.930 . S
C1147 C1143 1.400 . S
C1147 C1146 1.385 . S
C1148 C1146 1.478 . S
C1148 C1150 1.381 . S
C1148 C1154 1.383 . S
C1149 C1145 1.495 . S
C1149 H1155 0.959 . S
C1149 H1156 0.961 . S
C1149 H1157 0.960 . S
C1150 C1148 1.381 . S
C1150 C1151 1.394 . S
C1150 H1158 0.930 . S
C1151 C1150 1.394 . S
C1151 C1152 1.383 . S
C1151 H1159 0.929 . S
C1152 C1151 1.383 . S
C1152 C1153 1.377 . S
C1153 H1137 0.930 . S
C1153 C1152 1.377 . S
C1153 C1154 1.379 . S
C1154 H1138 0.931 . S
C1154 C1148 1.383 . S
C1154 C1153 1.379 . S
H1155 C1149 0.959 . S
H1156 C1149 0.961 . S
H1157 C1149 0.960 . S
H1158 C1150 0.930 . S
H1159 C1151 0.929 . S
H1160 C1168 0.929 . S
H1161 C1170 0.930 . S
H1162 C1172 0.930 . S
H1163 C1175 0.929 . S
H1164 C1178 0.930 . S
H1165 C1180 0.960 . S
H1166 C1180 0.960 . S
H1167 C1180 0.960 . S
C1168 H1160 0.929 . S
C1168 C1169 1.377 . S
C1168 C1170 1.384 . S
C1169 C1168 1.377 . S
C1169 C1175 1.390 . S
C1170 H1161 0.930 . S
C1170 C1168 1.384 . S
C1170 C1171 1.372 . S
C1171 C1170 1.372 . S
C1171 C1172 1.400 . S
C1171 C1176 1.490 . S
C1172 H1162 0.930 . S
C1172 C1171 1.400 . S
C1172 C1175 1.386 . S
H1173 C1189 0.930 . S
H1174 C1190 0.931 . S
C1175 H1163 0.929 . S
C1175 C1169 1.390 . S
C1175 C1172 1.386 . S
C1176 C1171 1.490 . S
C1176 C1178 1.395 1_545 S
C1176 C1179 1.403 . S
H1177 C1183 0.930 . S
C1178 H1164 0.930 . S
C1178 C1176 1.395 1_565 S
C1178 C1181 1.403 . S
C1179 C1176 1.403 . S
C1179 C1180 1.524 . S
C1179 C1183 1.400 . S
C1180 H1165 0.960 . S
C1180 H1166 0.960 . S
C1180 H1167 0.960 . S
C1180 C1179 1.524 . S
C1181 C1178 1.403 . S
C1181 C1182 1.392 . S
C1181 C1185 1.495 . S
C1182 C1181 1.392 . S
C1182 C1183 1.385 1_565 S
C1182 C1184 1.478 . S
C1183 H1177 0.930 . S
C1183 C1179 1.400 . S
C1183 C1182 1.385 1_545 S
C1184 C1182 1.478 . S
C1184 C1186 1.381 . S
C1184 C1190 1.383 . S
C1185 C1181 1.495 . S
C1185 H1191 0.959 . S
C1185 H1192 0.961 . S
C1185 H1193 0.960 . S
C1186 C1184 1.381 . S
C1186 C1187 1.394 . S
C1186 H1194 0.930 . S
C1187 C1186 1.394 . S
C1187 C1188 1.383 . S
C1187 H1195 0.929 . S
C1188 C1187 1.383 . S
C1188 C1189 1.377 . S
C1189 H1173 0.930 . S
C1189 C1188 1.377 . S
C1189 C1190 1.379 . S
C1190 H1174 0.931 . S
C1190 C1184 1.383 . S
C1190 C1189 1.379 . S
H1191 C1185 0.959 . S
H1192 C1185 0.961 . S
H1193 C1185 0.960 . S
H1194 C1186 0.930 . S
H1195 C1187 0.929 . S
H1196 C1204 0.929 . S
H1197 C1206 0.930 . S
H1198 C1208 0.930 . S
H1199 C1211 0.929 . S
H1200 C1214 0.930 . S
H1201 C1216 0.960 . S
H1202 C1216 0.960 . S
H1203 C1216 0.960 . S
C1204 H1196 0.929 . S
C1204 C1205 1.377 . S
C1204 C1206 1.384 . S
C1205 C1204 1.377 . S
C1205 C1211 1.390 . S
C1206 H1197 0.930 . S
C1206 C1204 1.384 . S
C1206 C1207 1.372 . S
C1207 C1206 1.372 . S
C1207 C1208 1.400 . S
C1207 C1212 1.490 . S
C1208 H1198 0.930 . S
C1208 C1207 1.400 . S
C1208 C1211 1.386 . S
H1209 C1225 0.930 . S
H1210 C1226 0.931 . S
C1211 H1199 0.929 . S
C1211 C1205 1.390 . S
C1211 C1208 1.386 . S
C1212 C1207 1.490 . S
C1212 C1214 1.395 1_565 S
C1212 C1215 1.403 . S
H1213 C1219 0.930 . S
C1214 H1200 0.930 . S
C1214 C1212 1.395 1_545 S
C1214 C1217 1.403 . S
C1215 C1212 1.403 . S
C1215 C1216 1.524 . S
C1215 C1219 1.400 . S
C1216 H1201 0.960 . S
C1216 H1202 0.960 . S
C1216 H1203 0.960 . S
C1216 C1215 1.524 . S
C1217 C1214 1.403 . S
C1217 C1218 1.392 . S
C1217 C1221 1.495 . S
C1218 C1217 1.392 . S
C1218 C1219 1.385 1_545 S
C1218 C1220 1.478 . S
C1219 H1213 0.930 . S
C1219 C1215 1.400 . S
C1219 C1218 1.385 1_565 S
C1220 C1218 1.478 . S
C1220 C1222 1.381 . S
C1220 C1226 1.383 . S
C1221 C1217 1.495 . S
C1221 H1227 0.959 . S
C1221 H1228 0.961 . S
C1221 H1229 0.960 . S
C1222 C1220 1.381 . S
C1222 C1223 1.394 . S
C1222 H1230 0.930 . S
C1223 C1222 1.394 . S
C1223 C1224 1.383 . S
C1223 H1231 0.929 . S
C1224 C1223 1.383 . S
C1224 C1225 1.377 . S
C1225 H1209 0.930 . S
C1225 C1224 1.377 . S
C1225 C1226 1.379 . S
C1226 H1210 0.931 . S
C1226 C1220 1.383 . S
C1226 C1225 1.379 . S
H1227 C1221 0.959 . S
H1228 C1221 0.961 . S
H1229 C1221 0.960 . S
H1230 C1222 0.930 . S
H1231 C1223 0.929 . S
H1232 C1240 0.929 . S
H1233 C1242 0.930 . S
H1234 C1244 0.930 . S
H1235 C1247 0.929 . S
H1236 C1250 0.930 . S
H1237 C1252 0.960 . S
H1238 C1252 0.960 . S
H1239 C1252 0.960 . S
C1240 H1232 0.929 . S
C1240 C1241 1.377 . S
C1240 C1242 1.384 . S
C1241 C1240 1.377 . S
C1241 C1247 1.390 . S
C1242 H1233 0.930 . S
C1242 C1240 1.384 . S
C1242 C1243 1.372 . S
C1243 C1242 1.372 . S
C1243 C1244 1.400 . S
C1243 C1248 1.490 . S
C1244 H1234 0.930 . S
C1244 C1243 1.400 . S
C1244 C1247 1.386 . S
H1245 C1261 0.930 . S
H1246 C1262 0.931 . S
C1247 H1235 0.929 . S
C1247 C1241 1.390 . S
C1247 C1244 1.386 . S
C1248 C1243 1.490 . S
C1248 C1250 1.395 . S
C1248 C1251 1.403 . S
H1249 C1255 0.930 . S
C1250 H1236 0.930 . S
C1250 C1248 1.395 . S
C1250 C1253 1.403 . S
C1251 C1248 1.403 . S
C1251 C1252 1.524 . S
C1251 C1255 1.400 . S
C1252 H1237 0.960 . S
C1252 H1238 0.960 . S
C1252 H1239 0.960 . S
C1252 C1251 1.524 . S
C1253 C1250 1.403 . S
C1253 C1254 1.392 . S
C1253 C1257 1.495 . S
C1254 C1253 1.392 . S
C1254 C1255 1.385 . S
C1254 C1256 1.478 . S
C1255 H1249 0.930 . S
C1255 C1251 1.400 . S
C1255 C1254 1.385 . S
C1256 C1254 1.478 . S
C1256 C1258 1.381 . S
C1256 C1262 1.383 . S
C1257 C1253 1.495 . S
C1257 H1263 0.959 . S
C1257 H1264 0.961 . S
C1257 H1265 0.960 . S
C1258 C1256 1.381 . S
C1258 C1259 1.394 . S
C1258 H1266 0.930 . S
C1259 C1258 1.394 . S
C1259 C1260 1.383 . S
C1259 H1267 0.929 . S
C1260 C1259 1.383 . S
C1260 C1261 1.377 . S
C1261 H1245 0.930 . S
C1261 C1260 1.377 . S
C1261 C1262 1.379 . S
C1262 H1246 0.931 . S
C1262 C1256 1.383 . S
C1262 C1261 1.379 . S
H1263 C1257 0.959 . S
H1264 C1257 0.961 . S
H1265 C1257 0.960 . S
H1266 C1258 0.930 . S
H1267 C1259 0.929 . S
H1268 C1276 0.929 . S
H1269 C1278 0.930 . S
H1270 C1280 0.930 . S
H1271 C1283 0.929 . S
H1272 C1286 0.930 . S
H1273 C1288 0.960 . S
H1274 C1288 0.960 . S
H1275 C1288 0.960 . S
C1276 H1268 0.929 . S
C1276 C1277 1.377 . S
C1276 C1278 1.384 . S
C1277 C1276 1.377 . S
C1277 C1283 1.390 . S
C1278 H1269 0.930 . S
C1278 C1276 1.384 . S
C1278 C1279 1.372 . S
C1279 C1278 1.372 . S
C1279 C1280 1.400 . S
C1279 C1284 1.490 . S
C1280 H1270 0.930 . S
C1280 C1279 1.400 . S
C1280 C1283 1.386 . S
H1281 C1297 0.930 . S
H1282 C1298 0.931 . S
C1283 H1271 0.929 . S
C1283 C1277 1.390 . S
C1283 C1280 1.386 . S
C1284 C1279 1.490 . S
C1284 C1286 1.395 . S
C1284 C1287 1.403 . S
H1285 C1291 0.930 . S
C1286 H1272 0.930 . S
C1286 C1284 1.395 . S
C1286 C1289 1.403 . S
C1287 C1284 1.403 . S
C1287 C1288 1.524 . S
C1287 C1291 1.400 . S
C1288 H1273 0.960 . S
C1288 H1274 0.960 . S
C1288 H1275 0.960 . S
C1288 C1287 1.524 . S
C1289 C1286 1.403 . S
C1289 C1290 1.392 . S
C1289 C1293 1.495 . S
C1290 C1289 1.392 . S
C1290 C1291 1.385 . S
C1290 C1292 1.478 . S
C1291 H1285 0.930 . S
C1291 C1287 1.400 . S
C1291 C1290 1.385 . S
C1292 C1290 1.478 . S
C1292 C1294 1.381 . S
C1292 C1298 1.383 . S
C1293 C1289 1.495 . S
C1293 H1299 0.959 . S
C1293 H1300 0.961 . S
C1293 H1301 0.960 . S
C1294 C1292 1.381 . S
C1294 C1295 1.394 . S
C1294 H1302 0.930 . S
C1295 C1294 1.394 . S
C1295 C1296 1.383 . S
C1295 H1303 0.929 . S
C1296 C1295 1.383 . S
C1296 C1297 1.377 . S
C1297 H1281 0.930 . S
C1297 C1296 1.377 . S
C1297 C1298 1.379 . S
C1298 H1282 0.931 . S
C1298 C1292 1.383 . S
C1298 C1297 1.379 . S
H1299 C1293 0.959 . S
H1300 C1293 0.961 . S
H1301 C1293 0.960 . S
H1302 C1294 0.930 . S
H1303 C1295 0.929 . S
H1304 C1312 0.929 . S
H1305 C1314 0.930 . S
H1306 C1316 0.930 . S
H1307 C1319 0.929 . S
H1308 C1322 0.930 . S
H1309 C1324 0.960 . S
H1310 C1324 0.960 . S
H1311 C1324 0.960 . S
C1312 H1304 0.929 . S
C1312 C1313 1.377 . S
C1312 C1314 1.384 . S
C1313 C1312 1.377 . S
C1313 C1319 1.390 . S
C1314 H1305 0.930 . S
C1314 C1312 1.384 . S
C1314 C1315 1.372 . S
C1315 C1314 1.372 . S
C1315 C1316 1.400 . S
C1315 C1320 1.490 . S
C1316 H1306 0.930 . S
C1316 C1315 1.400 . S
C1316 C1319 1.386 . S
H1317 C1333 0.930 . S
H1318 C1334 0.931 . S
C1319 H1307 0.929 . S
C1319 C1313 1.390 . S
C1319 C1316 1.386 . S
C1320 C1315 1.490 . S
C1320 C1322 1.395 . S
C1320 C1323 1.403 . S
H1321 C1327 0.930 . S
C1322 H1308 0.930 . S
C1322 C1320 1.395 . S
C1322 C1325 1.403 . S
C1323 C1320 1.403 . S
C1323 C1324 1.524 . S
C1323 C1327 1.400 . S
C1324 H1309 0.960 . S
C1324 H1310 0.960 . S
C1324 H1311 0.960 . S
C1324 C1323 1.524 . S
C1325 C1322 1.403 . S
C1325 C1326 1.392 . S
C1325 C1329 1.495 . S
C1326 C1325 1.392 . S
C1326 C1327 1.385 . S
C1326 C1328 1.478 . S
C1327 H1321 0.930 . S
C1327 C1323 1.400 . S
C1327 C1326 1.385 . S
C1328 C1326 1.478 . S
C1328 C1330 1.381 . S
C1328 C1334 1.383 . S
C1329 C1325 1.495 . S
C1329 H1335 0.959 . S
C1329 H1336 0.961 . S
C1329 H1337 0.960 . S
C1330 C1328 1.381 . S
C1330 C1331 1.394 . S
C1330 H1338 0.930 . S
C1331 C1330 1.394 . S
C1331 C1332 1.383 . S
C1331 H1339 0.929 . S
C1332 C1331 1.383 . S
C1332 C1333 1.377 . S
C1333 H1317 0.930 . S
C1333 C1332 1.377 . S
C1333 C1334 1.379 . S
C1334 H1318 0.931 . S
C1334 C1328 1.383 . S
C1334 C1333 1.379 . S
H1335 C1329 0.959 . S
H1336 C1329 0.961 . S
H1337 C1329 0.960 . S
H1338 C1330 0.930 . S
H1339 C1331 0.929 . S
H1340 C1348 0.929 . S
H1341 C1350 0.930 . S
H1342 C1352 0.930 . S
H1343 C1355 0.929 . S
H1344 C1358 0.930 . S
H1345 C1360 0.960 . S
H1346 C1360 0.960 . S
H1347 C1360 0.960 . S
C1348 H1340 0.929 . S
C1348 C1349 1.377 . S
C1348 C1350 1.384 . S
C1349 C1348 1.377 . S
C1349 C1355 1.390 . S
C1350 H1341 0.930 . S
C1350 C1348 1.384 . S
C1350 C1351 1.372 . S
C1351 C1350 1.372 . S
C1351 C1352 1.400 . S
C1351 C1356 1.490 . S
C1352 H1342 0.930 . S
C1352 C1351 1.400 . S
C1352 C1355 1.386 . S
H1353 C1369 0.930 . S
H1354 C1370 0.931 . S
C1355 H1343 0.929 . S
C1355 C1349 1.390 . S
C1355 C1352 1.386 . S
C1356 C1351 1.490 . S
C1356 C1358 1.395 . S
C1356 C1359 1.403 . S
H1357 C1363 0.930 . S
C1358 H1344 0.930 . S
C1358 C1356 1.395 . S
C1358 C1361 1.403 . S
C1359 C1356 1.403 . S
C1359 C1360 1.524 . S
C1359 C1363 1.400 . S
C1360 H1345 0.960 . S
C1360 H1346 0.960 . S
C1360 H1347 0.960 . S
C1360 C1359 1.524 . S
C1361 C1358 1.403 . S
C1361 C1362 1.392 . S
C1361 C1365 1.495 . S
C1362 C1361 1.392 . S
C1362 C1363 1.385 . S
C1362 C1364 1.478 . S
C1363 H1357 0.930 . S
C1363 C1359 1.400 . S
C1363 C1362 1.385 . S
C1364 C1362 1.478 . S
C1364 C1366 1.381 . S
C1364 C1370 1.383 . S
C1365 C1361 1.495 . S
C1365 H1371 0.959 . S
C1365 H1372 0.961 . S
C1365 H1373 0.960 . S
C1366 C1364 1.381 . S
C1366 C1367 1.394 . S
C1366 H1374 0.930 . S
C1367 C1366 1.394 . S
C1367 C1368 1.383 . S
C1367 H1375 0.929 . S
C1368 C1367 1.383 . S
C1368 C1369 1.377 . S
C1369 H1353 0.930 . S
C1369 C1368 1.377 . S
C1369 C1370 1.379 . S
C1370 H1354 0.931 . S
C1370 C1364 1.383 . S
C1370 C1369 1.379 . S
H1371 C1365 0.959 . S
H1372 C1365 0.961 . S
H1373 C1365 0.960 . S
H1374 C1366 0.930 . S
H1375 C1367 0.929 . S
C233 C0 1.635 . S
C252 C70 1.619 . S
C269 C56 1.631 . S
C288 C27 1.640 . S
C305 C28 1.635 . S
C324 C98 1.620 . S
C341 C84 1.632 . S
C360 C43 1.622 . S
C377 C195 1.632 . S
C396 C112 1.640 . S
C413 C168 1.631 . S
C432 C126 1.641 . S
C449 C210 1.630 . S
C468 C140 1.638 . S
C485 C166 1.632 . S
C504 C196 1.623 . S
C521 C15 1.504 . S
C540 C12 1.494 . S
C557 C40 1.505 . S
C576 C55 1.497 . S
C593 C68 1.504 . S
C612 C82 1.502 . S
C629 C96 1.504 . S
C648 C110 1.503 . S
C665 C124 1.505 . S
C684 C138 1.498 . S
C701 C154 1.506 . S
C720 C152 1.505 . S
C737 C183 1.504 . S
C756 C180 1.504 . S
C773 C208 1.505 . S
C792 C222 1.497 . S
C809 C139 1.506 . S
C828 C13 1.498 . S
C845 C14 1.503 . S
C864 C125 1.500 . S
C881 C155 1.503 . S
C900 C41 1.498 . S
C917 C54 1.503 . S
C936 C153 1.506 . S
C953 C69 1.506 . S
C972 C182 1.498 . S
C989 C181 1.506 . S
C1008 C83 1.502 . S
C1025 C97 1.503 . S
C1044 C223 1.504 . S
C1061 C209 1.506 . S
C1080 C111 1.497 . S
C1097 C1 1.649 . S
C1116 C29 1.641 . S
C1133 C42 1.649 . S
C1152 C26 1.637 . S
C1169 C85 1.651 . S
C1188 C57 1.657 . S
C1205 C99 1.651 . S
C1224 C71 1.656 . S
C1241 C141 1.650 . S
C1260 C113 1.646 . S
C1277 C127 1.652 . S
C1296 C167 1.655 . S
C1313 C197 1.650 . S
C1332 C169 1.658 . S
C1349 C194 1.650 . S
C1368 C211 1.639 . S
