# Generated by pormake.
# Topology fca, (5)-cn, num edge types: 1
# Building blocks:
#     Node 0, Type 0, BuildingBlock: BEQFEK_clean_sbu_0, # of connection points: 5
#     Node 1, Type 0, BuildingBlock: BEQFEK_clean_sbu_0, # of connection points: 5
#     Node 2, Type 0, BuildingBlock: BEQFEK_clean_sbu_0, # of connection points: 5
#     Node 3, Type 0, BuildingBlock: BEQFEK_clean_sbu_0, # of connection points: 5
#     Node 4, Type 0, BuildingBlock: BEQFEK_clean_sbu_0, # of connection points: 5
#     Node 5, Type 0, BuildingBlock: BEQFEK_clean_sbu_0, # of connection points: 5
#     Node 6, Type 0, BuildingBlock: BEQFEK_clean_sbu_0, # of connection points: 5
#     Node 7, Type 0, BuildingBlock: BEQFEK_clean_sbu_0, # of connection points: 5
#     Node 8, Type 0, BuildingBlock: BEQFEK_clean_sbu_0, # of connection points: 5
#     Node 9, Type 0, BuildingBlock: BEQFEK_clean_sbu_0, # of connection points: 5
#     Node 10, Type 0, BuildingBlock: BEQFEK_clean_sbu_0, # of connection points: 5
#     Node 11, Type 0, BuildingBlock: BEQFEK_clean_sbu_0, # of connection points: 5
#     Node 12, Type 0, BuildingBlock: BEQFEK_clean_sbu_0, # of connection points: 5
#     Node 13, Type 0, BuildingBlock: BEQFEK_clean_sbu_0, # of connection points: 5
#     Node 14, Type 0, BuildingBlock: BEQFEK_clean_sbu_0, # of connection points: 5
#     Node 15, Type 0, BuildingBlock: BEQFEK_clean_sbu_0, # of connection points: 5
#     Node 16, Type 0, BuildingBlock: BEQFEK_clean_sbu_0, # of connection points: 5
#     Node 17, Type 0, BuildingBlock: BEQFEK_clean_sbu_0, # of connection points: 5
#     Node 18, Type 0, BuildingBlock: BEQFEK_clean_sbu_0, # of connection points: 5
#     Node 19, Type 0, BuildingBlock: BEQFEK_clean_sbu_0, # of connection points: 5
#     Node 20, Type 0, BuildingBlock: BEQFEK_clean_sbu_0, # of connection points: 5
#     Node 21, Type 0, BuildingBlock: BEQFEK_clean_sbu_0, # of connection points: 5
#     Node 22, Type 0, BuildingBlock: BEQFEK_clean_sbu_0, # of connection points: 5
#     Node 23, Type 0, BuildingBlock: BEQFEK_clean_sbu_0, # of connection points: 5
#     Edge 24, Type (0, 0), None
#     Edge 25, Type (0, 0), None
#     Edge 26, Type (0, 0), None
#     Edge 27, Type (0, 0), None
#     Edge 28, Type (0, 0), None
#     Edge 29, Type (0, 0), None
#     Edge 30, Type (0, 0), None
#     Edge 31, Type (0, 0), None
#     Edge 32, Type (0, 0), None
#     Edge 33, Type (0, 0), None
#     Edge 34, Type (0, 0), None
#     Edge 35, Type (0, 0), None
#     Edge 36, Type (0, 0), None
#     Edge 37, Type (0, 0), None
#     Edge 38, Type (0, 0), None
#     Edge 39, Type (0, 0), None
#     Edge 40, Type (0, 0), None
#     Edge 41, Type (0, 0), None
#     Edge 42, Type (0, 0), None
#     Edge 43, Type (0, 0), None
#     Edge 44, Type (0, 0), None
#     Edge 45, Type (0, 0), None
#     Edge 46, Type (0, 0), None
#     Edge 47, Type (0, 0), None
#     Edge 48, Type (0, 0), None
#     Edge 49, Type (0, 0), None
#     Edge 50, Type (0, 0), None
#     Edge 51, Type (0, 0), None
#     Edge 52, Type (0, 0), None
#     Edge 53, Type (0, 0), None
#     Edge 54, Type (0, 0), None
#     Edge 55, Type (0, 0), None
#     Edge 56, Type (0, 0), None
#     Edge 57, Type (0, 0), None
#     Edge 58, Type (0, 0), None
#     Edge 59, Type (0, 0), None
#     Edge 60, Type (0, 0), None
#     Edge 61, Type (0, 0), None
#     Edge 62, Type (0, 0), None
#     Edge 63, Type (0, 0), None
#     Edge 64, Type (0, 0), None
#     Edge 65, Type (0, 0), None
#     Edge 66, Type (0, 0), None
#     Edge 67, Type (0, 0), None
#     Edge 68, Type (0, 0), None
#     Edge 69, Type (0, 0), None
#     Edge 70, Type (0, 0), None
#     Edge 71, Type (0, 0), None
#     Edge 72, Type (0, 0), None
#     Edge 73, Type (0, 0), None
#     Edge 74, Type (0, 0), None
#     Edge 75, Type (0, 0), None
#     Edge 76, Type (0, 0), None
#     Edge 77, Type (0, 0), None
#     Edge 78, Type (0, 0), None
#     Edge 79, Type (0, 0), None
#     Edge 80, Type (0, 0), None
#     Edge 81, Type (0, 0), None
#     Edge 82, Type (0, 0), None
#     Edge 83, Type (0, 0), None
# Relax obj value: 0.849
# Max RMSD: 0.302
# Mean RMSD: 0.302
data_MOF--net-fca--node1-BEQFEK_clean_sbu_0--edge1-none
_symmetry_space_group_name_H-M    P1
_symmetry_Int_Tables_number       1
_symmetry_cell_setting            triclinic
loop_
_symmetry_equiv_pos_as_xyz
'x, y, z'
_cell_length_a     27.140725
_cell_length_b     27.141281
_cell_length_c     27.141052
_cell_angle_alpha  90.003289
_cell_angle_beta   89.999978
_cell_angle_gamma 90.000919
loop_
_atom_site_label
_atom_site_type_symbol
_atom_site_fract_x
_atom_site_fract_y
_atom_site_fract_z
_atom_type_partial_charge
Co0 Co 0.11207 0.45976 0.29712 0.0
Co1 Co 0.16148 0.49179 0.39468 0.0
C2 C 0.20467 0.51804 0.29084 0.0
O3 O 0.1749 0.48898 0.26868 0.0
O4 O 0.20476 0.51962 0.33798 0.0
C5 C 0.07346 0.42619 0.20099 0.0
O6 O 0.11855 0.42443 0.18353 0.0
C7 C 0.21158 0.45889 0.48169 0.0
C8 C 0.20187 0.52166 0.53244 0.0
C9 C 0.21531 0.47248 0.53089 0.0
N10 N 0.19474 0.49739 0.45601 0.0
N11 N 0.19057 0.53546 0.48611 0.0
C12 C 0.22044 0.40935 0.45928 0.0
H13 H 0.21666 0.41104 0.4186 0.0
H14 H 0.19415 0.3818 0.47404 0.0
H15 H 0.25838 0.39751 0.46845 0.0
C16 C 0.07112 0.3791 0.35919 0.0
N17 N 0.10718 0.41325 0.35092 0.0
N18 N 0.12094 0.43177 0.39345 0.0
C19 C 0.09127 0.4127 0.42926 0.0
C20 C 0.05838 0.37824 0.40909 0.0
C21 C 1.04348 0.35287 0.31967 0.0
H22 H 1.00673 0.37016 0.316 0.0
H23 H 0.06365 0.35422 0.2842 0.0
H24 H 1.03755 0.31387 0.33046 0.0
O25 O 0.08241 0.52059 0.32204 0.0
O26 O 0.11279 0.54081 0.39593 0.0
H27 H 0.10562 0.4692 0.48317 0.0
H28 H 0.05168 0.43276 0.49545 0.0
C29 C 0.08989 0.43163 0.48111 0.0
H30 H 0.11147 0.40662 0.50516 0.0
H31 H 0.17563 0.56942 0.47603 0.0
O32 O 0.06611 0.43939 0.24515 0.0
C33 C 0.08459 0.54841 0.35969 0.0
Co34 Co 1.02802 0.68035 0.29713 0.0
Co35 Co 0.97861 0.64832 0.39469 0.0
C36 C 0.93542 0.62207 0.29084 0.0
O37 O 0.96518 0.65113 0.26869 0.0
O38 O 0.93533 0.62049 0.33798 0.0
C39 C 0.06662 0.71392 0.201 0.0
O40 O 1.02154 0.71568 0.18354 0.0
C41 C 0.92851 0.68121 0.4817 0.0
C42 C 0.93822 0.61845 0.53244 0.0
C43 C 0.92477 0.66763 0.53089 0.0
N44 N 0.94535 0.64272 0.45601 0.0
N45 N 0.94952 0.60465 0.48611 0.0
C46 C 0.91965 0.73075 0.45928 0.0
H47 H 0.92342 0.72906 0.4186 0.0
H48 H 0.94593 0.7583 0.47405 0.0
H49 H 0.8817 0.74259 0.46846 0.0
C50 C 0.06896 0.76101 0.3592 0.0
N51 N 1.0329 0.72686 0.35092 0.0
N52 N 1.01914 0.70834 0.39346 0.0
C53 C 0.04882 0.72741 0.42927 0.0
C54 C 0.0817 0.76187 0.4091 0.0
C55 C 0.09659 0.78725 0.31968 0.0
H56 H 0.13334 0.76996 0.316 0.0
H57 H 0.07642 0.78589 0.28421 0.0
H58 H 0.10251 0.82625 0.33048 0.0
O59 O 0.05768 0.61952 0.32204 0.0
O60 O 1.0273 0.5993 0.39593 0.0
H61 H 1.03447 0.67091 0.48317 0.0
H62 H 0.08841 0.70735 0.49545 0.0
C63 C 0.0502 0.70848 0.48112 0.0
H64 H 1.02862 0.73348 0.50517 0.0
H65 H 0.96447 0.57068 0.47603 0.0
O66 O 0.07397 0.70072 0.24516 0.0
C67 C 0.05551 0.59171 0.35969 0.0
Co68 Co 0.11207 0.68035 0.84293 0.0
Co69 Co 0.16148 0.64832 0.74537 0.0
C70 C 0.20467 0.62207 0.84922 0.0
O71 O 0.1749 0.65113 0.87137 0.0
O72 O 0.20476 0.62049 0.80207 0.0
C73 C 0.07346 0.71393 0.93905 0.0
O74 O 0.11855 0.71571 0.95651 0.0
C75 C 0.21158 0.68122 0.65836 0.0
C76 C 0.20187 0.61845 0.60762 0.0
C77 C 0.21531 0.66764 0.60916 0.0
N78 N 0.19474 0.64273 0.68405 0.0
N79 N 0.19057 0.60466 0.65395 0.0
C80 C 0.22043 0.73076 0.68077 0.0
H81 H 0.21666 0.72908 0.72146 0.0
H82 H 0.19415 0.75831 0.66601 0.0
H83 H 0.25838 0.74261 0.6716 0.0
C84 C 0.07112 0.76101 0.78086 0.0
N85 N 0.10718 0.72686 0.78914 0.0
N86 N 0.12094 0.70834 0.7466 0.0
C87 C 0.09127 0.72741 0.71079 0.0
C88 C 0.05838 0.76187 0.73096 0.0
C89 C 1.04349 0.78724 0.82038 0.0
H90 H 1.00674 0.76995 0.82405 0.0
H91 H 0.06365 0.78589 0.85585 0.0
H92 H 1.03756 0.82625 0.80959 0.0
O93 O 0.08241 0.61952 0.81801 0.0
O94 O 0.11279 0.5993 0.74412 0.0
H95 H 0.10563 0.67091 0.65688 0.0
H96 H 0.05168 0.70735 0.64461 0.0
C97 C 0.08989 0.70848 0.65894 0.0
H98 H 0.11146 0.73349 0.63489 0.0
H99 H 0.17564 0.57069 0.66402 0.0
O100 O 0.06611 0.70072 0.8949 0.0
C101 C 0.08459 0.5917 0.78036 0.0
Co102 Co 1.02802 0.45976 0.84293 0.0
Co103 Co 0.97861 0.49179 0.74537 0.0
C104 C 0.93542 0.51804 0.84921 0.0
O105 O 0.96519 0.48898 0.87137 0.0
O106 O 0.93533 0.51962 0.80207 0.0
C107 C 0.06662 0.42618 0.93904 0.0
O108 O 1.02154 0.42441 0.95651 0.0
C109 C 0.92851 0.45889 0.65836 0.0
C110 C 0.93822 0.52166 0.60761 0.0
C111 C 0.92477 0.47248 0.60916 0.0
N112 N 0.94535 0.49739 0.68404 0.0
N113 N 0.94952 0.53546 0.65395 0.0
C114 C 0.91965 0.40936 0.68077 0.0
H115 H 0.92342 0.41105 0.72145 0.0
H116 H 0.94593 0.38181 0.66601 0.0
H117 H 0.8817 0.39751 0.67159 0.0
C118 C 0.06895 0.3791 0.78085 0.0
N119 N 1.0329 0.41325 0.78913 0.0
N120 N 1.01914 0.43177 0.74659 0.0
C121 C 0.04882 0.4127 0.71078 0.0
C122 C 0.0817 0.37824 0.73096 0.0
C123 C 0.09658 0.35286 0.82037 0.0
H124 H 0.13334 0.37014 0.82404 0.0
H125 H 0.07641 0.35422 0.85584 0.0
H126 H 0.10251 0.31386 0.80957 0.0
O127 O 0.05768 0.52059 0.81801 0.0
O128 O 1.0273 0.54081 0.74412 0.0
H129 H 1.03446 0.4692 0.65688 0.0
H130 H 0.08841 0.43277 0.6446 0.0
C131 C 0.0502 0.43164 0.65893 0.0
H132 H 1.02862 0.40663 0.63488 0.0
H133 H 0.96446 0.56942 0.66402 0.0
O134 O 0.07397 0.43939 0.89489 0.0
C135 C 0.05551 0.5484 0.78036 0.0
Co136 Co 0.29714 0.11208 0.45974 0.0
Co137 Co 0.3947 0.16149 0.49176 0.0
C138 C 0.29085 0.20468 0.51801 0.0
O139 O 0.2687 0.17491 0.48895 0.0
O140 O 0.338 0.20477 0.51959 0.0
C141 C 0.20101 0.07347 0.42616 0.0
O142 O 0.18355 0.11855 0.4244 0.0
C143 C 0.48171 0.21159 0.45887 0.0
C144 C 0.53246 0.20188 0.52164 0.0
C145 C 0.53091 0.21533 0.47245 0.0
N146 N 0.45603 0.19475 0.49736 0.0
N147 N 0.48613 0.19058 0.53543 0.0
C148 C 0.4593 0.22045 0.40933 0.0
H149 H 0.41861 0.21668 0.41102 0.0
H150 H 0.47406 0.19417 0.38178 0.0
H151 H 0.46847 0.25839 0.39749 0.0
C152 C 0.35921 0.07114 0.37908 0.0
N153 N 0.35094 0.10719 0.41322 0.0
N154 N 0.39347 0.12096 0.43174 0.0
C155 C 0.42928 0.09128 0.41267 0.0
C156 C 0.40911 0.0584 0.37821 0.0
C157 C 0.31969 1.0435 0.35284 0.0
H158 H 0.31602 1.00675 0.37013 0.0
H159 H 0.28422 0.06367 0.35419 0.0
H160 H 0.33048 1.03757 0.31384 0.0
O161 O 0.32205 0.08242 0.52057 0.0
O162 O 0.39595 0.11281 0.54078 0.0
H163 H 0.48319 0.10564 0.46917 0.0
H164 H 0.49547 0.05169 0.43272 0.0
C165 C 0.48113 0.0899 0.4316 0.0
H166 H 0.50519 0.11148 0.40659 0.0
H167 H 0.47605 0.17564 0.5694 0.0
O168 O 0.24517 0.06612 0.43936 0.0
C169 C 0.35971 0.0846 0.54838 0.0
Co170 Co 0.84295 1.02803 0.45974 0.0
Co171 Co 0.74539 0.97862 0.49176 0.0
C172 C 0.84924 0.93543 0.51801 0.0
O173 O 0.87139 0.9652 0.48895 0.0
O174 O 0.80209 0.93534 0.51959 0.0
C175 C 0.93907 0.06664 0.42615 0.0
O176 O 0.95653 1.02155 0.42437 0.0
C177 C 0.65838 0.92852 0.45886 0.0
C178 C 0.60763 0.93823 0.52163 0.0
C179 C 0.60918 0.92478 0.47244 0.0
N180 N 0.68406 0.94536 0.49735 0.0
N181 N 0.65396 0.94953 0.53542 0.0
C182 C 0.68079 0.91966 0.40932 0.0
H183 H 0.72147 0.92344 0.411 0.0
H184 H 0.66602 0.94595 0.38177 0.0
H185 H 0.67161 0.88172 0.39747 0.0
C186 C 0.78087 0.06897 0.37907 0.0
N187 N 0.78915 1.03292 0.41322 0.0
N188 N 0.74661 1.01916 0.43174 0.0
C189 C 0.7108 0.04883 0.41267 0.0
C190 C 0.73098 0.08171 0.37821 0.0
C191 C 0.8204 0.0966 0.35283 0.0
H192 H 0.82406 0.13336 0.37012 0.0
H193 H 0.85587 0.07644 0.3542 0.0
H194 H 0.8096 0.10252 0.31383 0.0
O195 O 0.81803 0.05769 0.52057 0.0
O196 O 0.74414 1.0273 0.54078 0.0
H197 H 0.6569 1.03447 0.46917 0.0
H198 H 0.64462 0.08842 0.43273 0.0
C199 C 0.65895 0.05021 0.4316 0.0
H200 H 0.6349 1.02864 0.40659 0.0
H201 H 0.66404 0.96446 0.56939 0.0
O202 O 0.89491 0.07398 0.43936 0.0
C203 C 0.78038 0.05551 0.54838 0.0
Co204 Co 0.29714 1.02804 0.68032 0.0
Co205 Co 0.3947 0.97862 0.64829 0.0
C206 C 0.29085 0.93543 0.62204 0.0
O207 O 0.2687 0.9652 0.6511 0.0
O208 O 0.338 0.93534 0.62046 0.0
C209 C 0.20101 0.06664 0.71389 0.0
O210 O 0.18354 1.02156 0.71564 0.0
C211 C 0.48171 0.92853 0.68118 0.0
C212 C 0.53246 0.93824 0.61841 0.0
C213 C 0.53091 0.92479 0.6676 0.0
N214 N 0.45603 0.94537 0.64268 0.0
N215 N 0.48612 0.94954 0.60462 0.0
C216 C 0.4593 0.91966 0.73072 0.0
H217 H 0.41861 0.92343 0.72903 0.0
H218 H 0.47406 0.94595 0.75827 0.0
H219 H 0.46848 0.88172 0.74256 0.0
C220 C 0.35921 0.06897 0.76098 0.0
N221 N 0.35093 1.03291 0.72683 0.0
N222 N 0.39347 1.01916 0.70831 0.0
C223 C 0.42928 0.04883 0.72738 0.0
C224 C 0.40911 0.08171 0.76184 0.0
C225 C 0.31969 0.09661 0.78722 0.0
H226 H 0.31601 0.13335 0.76993 0.0
H227 H 0.28422 0.07643 0.78587 0.0
H228 H 0.33048 0.10254 0.82622 0.0
O229 O 0.32205 0.0577 0.61949 0.0
O230 O 0.39594 1.02731 0.59927 0.0
H231 H 0.48318 1.03448 0.67088 0.0
H232 H 0.49547 0.08842 0.70733 0.0
C233 C 0.48113 0.05021 0.70845 0.0
H234 H 0.50519 1.02863 0.73345 0.0
H235 H 0.47605 0.96449 0.57065 0.0
O236 O 0.24517 0.07399 0.7007 0.0
C237 C 0.35971 0.05553 0.59168 0.0
Co238 Co 0.84295 0.11208 0.68032 0.0
Co239 Co 0.74539 0.16149 0.6483 0.0
C240 C 0.84924 0.20468 0.62204 0.0
O241 O 0.87139 0.17491 0.6511 0.0
O242 O 0.80209 0.20477 0.62046 0.0
C243 C 0.93907 0.07347 0.71391 0.0
O244 O 0.95654 0.11856 0.71568 0.0
C245 C 0.65838 0.21158 0.68119 0.0
C246 C 0.60763 0.20187 0.61842 0.0
C247 C 0.60918 0.21532 0.66761 0.0
N248 N 0.68406 0.19474 0.64269 0.0
N249 N 0.65397 0.19057 0.60463 0.0
C250 C 0.68079 0.22044 0.73073 0.0
H251 H 0.72147 0.21667 0.72905 0.0
H252 H 0.66602 0.19416 0.75828 0.0
H253 H 0.67161 0.25839 0.74258 0.0
C254 C 0.78087 0.07114 0.76098 0.0
N255 N 0.78915 0.1072 0.72684 0.0
N256 N 0.74662 0.12095 0.70832 0.0
C257 C 0.71081 0.09128 0.72738 0.0
C258 C 0.73098 0.0584 0.76184 0.0
C259 C 0.8204 1.04351 0.78722 0.0
H260 H 0.82407 1.00676 0.76994 0.0
H261 H 0.85587 0.06368 0.78587 0.0
H262 H 0.8096 1.03759 0.82623 0.0
O263 O 0.81803 0.08241 0.6195 0.0
O264 O 0.74414 0.1128 0.59928 0.0
H265 H 0.6569 0.10563 0.67088 0.0
H266 H 0.64463 0.05168 0.70732 0.0
C267 C 0.65896 0.08989 0.70845 0.0
H268 H 0.6349 0.11147 0.73346 0.0
H269 H 0.66404 0.17563 0.57066 0.0
O270 O 0.89492 0.06613 0.7007 0.0
C271 C 0.78038 0.08458 0.59168 0.0
Co272 Co 0.45975 0.29715 0.11205 0.0
Co273 Co 0.49178 0.39471 0.16147 0.0
C274 C 0.51802 0.29087 0.20466 0.0
O275 O 0.48897 0.26871 0.17488 0.0
O276 O 0.51961 0.33801 0.20475 0.0
C277 C 0.42617 0.20103 0.07345 0.0
O278 O 0.4244 0.18357 0.11853 0.0
C279 C 0.45888 0.48172 0.21156 0.0
C280 C 0.52165 0.53246 0.20186 0.0
C281 C 0.47247 0.53092 0.2153 0.0
N282 N 0.49738 0.45604 0.19473 0.0
N283 N 0.53545 0.48613 0.19056 0.0
C284 C 0.40934 0.45931 0.22042 0.0
H285 H 0.41102 0.41863 0.21664 0.0
H286 H 0.38179 0.47408 0.19414 0.0
H287 H 0.39749 0.46849 0.25837 0.0
C288 C 0.37909 0.35923 0.0711 0.0
N289 N 0.41324 0.35095 0.10716 0.0
N290 N 0.43176 0.39349 0.12093 0.0
C291 C 0.41269 0.42929 0.09125 0.0
C292 C 0.37823 0.40912 0.05837 0.0
C293 C 0.35285 0.3197 1.04347 0.0
H294 H 0.37014 0.31603 1.00672 0.0
H295 H 0.35421 0.28423 0.06363 0.0
H296 H 0.31385 0.3305 1.03754 0.0
O297 O 0.52058 0.32207 0.0824 0.0
O298 O 0.5408 0.39596 0.11278 0.0
H299 H 0.46919 0.4832 0.10561 0.0
H300 H 0.43275 0.49548 0.05166 0.0
C301 C 0.43162 0.48114 0.08987 0.0
H302 H 0.40661 0.5052 0.11145 0.0
H303 H 0.56941 0.47606 0.17562 0.0
O304 O 0.43938 0.24519 0.0661 0.0
C305 C 0.5484 0.35972 0.08458 0.0
Co306 Co 0.45975 0.84296 1.028 0.0
Co307 Co 0.49178 0.7454 0.97858 0.0
C308 C 0.51802 0.84924 0.93539 0.0
O309 O 0.48897 0.8714 0.96517 0.0
O310 O 0.51961 0.8021 0.9353 0.0
C311 C 0.42617 0.93908 0.06661 0.0
O312 O 0.4244 0.95654 1.02152 0.0
C313 C 0.45888 0.65839 0.92849 0.0
C314 C 0.52165 0.60765 0.93819 0.0
C315 C 0.47247 0.60919 0.92475 0.0
N316 N 0.49738 0.68407 0.94532 0.0
N317 N 0.53545 0.65398 0.94949 0.0
C318 C 0.40934 0.6808 0.91963 0.0
H319 H 0.41103 0.72148 0.92341 0.0
H320 H 0.38179 0.66603 0.94591 0.0
H321 H 0.3975 0.67162 0.88168 0.0
C322 C 0.37909 0.78088 0.06895 0.0
N323 N 0.41324 0.78916 1.03289 0.0
N324 N 0.43176 0.74662 1.01912 0.0
C325 C 0.41269 0.71081 0.0488 0.0
C326 C 0.37823 0.73099 0.08168 0.0
C327 C 0.35285 0.8204 0.09658 0.0
H328 H 0.37014 0.82407 0.13333 0.0
H329 H 0.35421 0.85587 0.07641 0.0
H330 H 0.31385 0.80961 0.10251 0.0
O331 O 0.52059 0.81804 0.05765 0.0
O332 O 0.5408 0.74415 1.02727 0.0
H333 H 0.46919 0.65691 1.03444 0.0
H334 H 0.43275 0.64463 0.08839 0.0
C335 C 0.43162 0.65896 0.05018 0.0
H336 H 0.40661 0.63491 1.0286 0.0
H337 H 0.56941 0.66405 0.96443 0.0
O338 O 0.43938 0.89492 0.07396 0.0
C339 C 0.5484 0.78039 0.05548 0.0
Co340 Co 0.68034 0.29715 1.028 0.0
Co341 Co 0.64831 0.39471 0.97859 0.0
C342 C 0.62206 0.29086 0.9354 0.0
O343 O 0.65112 0.26871 0.96517 0.0
O344 O 0.62048 0.33801 0.93531 0.0
C345 C 0.71392 0.20103 0.06661 0.0
O346 O 0.71568 0.18357 1.02153 0.0
C347 C 0.6812 0.48172 0.9285 0.0
C348 C 0.61843 0.53246 0.93822 0.0
C349 C 0.66762 0.53092 0.92477 0.0
N350 N 0.6427 0.45603 0.94534 0.0
N351 N 0.60464 0.48613 0.94951 0.0
C352 C 0.73074 0.45931 0.91964 0.0
H353 H 0.72905 0.41863 0.92341 0.0
H354 H 0.75829 0.47407 0.94592 0.0
H355 H 0.74258 0.46849 0.88169 0.0
C356 C 0.761 0.35923 0.06894 0.0
N357 N 0.72685 0.35095 1.03288 0.0
N358 N 0.70833 0.39348 1.01912 0.0
C359 C 0.7274 0.42929 0.0488 0.0
C360 C 0.76186 0.40912 0.08168 0.0
C361 C 0.78724 0.3197 0.09657 0.0
H362 H 0.76995 0.31603 0.13332 0.0
H363 H 0.78589 0.28424 0.0764 0.0
H364 H 0.82624 0.33051 0.1025 0.0
O365 O 0.61951 0.32207 0.05767 0.0
O366 O 0.59929 0.39595 1.02729 0.0
H367 H 0.67089 0.48319 1.03445 0.0
H368 H 0.70734 0.49547 0.0884 0.0
C369 C 0.70846 0.48114 0.05019 0.0
H370 H 0.73347 0.5052 1.02861 0.0
H371 H 0.57067 0.47605 0.96446 0.0
O372 O 0.70072 0.24519 0.07396 0.0
C373 C 0.5917 0.35972 0.0555 0.0
Co374 Co 0.68034 0.84296 0.11205 0.0
Co375 Co 0.64831 0.7454 0.16146 0.0
C376 C 0.62206 0.84925 0.20465 0.0
O377 O 0.65111 0.8714 0.17488 0.0
O378 O 0.62048 0.80211 0.20474 0.0
C379 C 0.71392 0.93908 0.07344 0.0
O380 O 0.71568 0.95655 0.11853 0.0
C381 C 0.6812 0.65839 0.21155 0.0
C382 C 0.61843 0.60765 0.20184 0.0
C383 C 0.66761 0.6092 0.21528 0.0
N384 N 0.64271 0.68408 0.19471 0.0
N385 N 0.60464 0.65398 0.19054 0.0
C386 C 0.73074 0.6808 0.22041 0.0
H387 H 0.72906 0.72149 0.21664 0.0
H388 H 0.75829 0.66604 0.19413 0.0
H389 H 0.74258 0.67163 0.25836 0.0
C390 C 0.761 0.78089 0.07111 0.0
N391 N 0.72685 0.78917 0.10717 0.0
N392 N 0.70833 0.74663 0.12093 0.0
C393 C 0.7274 0.71082 0.09125 0.0
C394 C 0.76186 0.73099 0.05837 0.0
C395 C 0.78724 0.82041 1.04348 0.0
H396 H 0.76995 0.82409 1.00673 0.0
H397 H 0.78589 0.85588 0.06365 0.0
H398 H 0.82624 0.80961 1.03754 0.0
O399 O 0.61951 0.81804 0.08238 0.0
O400 O 0.59929 0.74416 0.11276 0.0
H401 H 0.67089 0.65692 0.1056 0.0
H402 H 0.70734 0.64464 0.05165 0.0
C403 C 0.70846 0.65897 0.08986 0.0
H404 H 0.73347 0.63492 0.11144 0.0
H405 H 0.57067 0.66406 0.1756 0.0
O406 O 0.70072 0.89493 0.06609 0.0
C407 C 0.5917 0.78039 0.08455 0.0
Co408 Co 0.61203 0.95976 0.79707 0.0
Co409 Co 0.66146 0.99178 0.89464 0.0
C410 C 0.70463 1.01805 0.79081 0.0
O411 O 0.67486 0.989 0.76864 0.0
O412 O 0.70474 1.01961 0.83795 0.0
C413 C 0.57345 0.92606 0.70098 0.0
O414 O 0.61854 0.92421 0.68355 0.0
C415 C 0.71144 0.95885 0.98169 0.0
C416 C 0.70177 1.02167 1.03241 0.0
C417 C 0.71506 0.97245 1.03088 0.0
N418 N 0.69471 0.99737 0.95597 0.0
N419 N 0.69057 1.03546 0.98605 0.0
C420 C 0.72028 0.90929 0.9593 0.0
H421 H 0.71652 0.91096 0.91862 0.0
H422 H 0.69398 0.88176 0.97408 0.0
H423 H 0.75821 0.89744 0.9685 0.0
C424 C 0.57111 0.87908 0.85915 0.0
N425 N 0.60716 0.91324 0.85087 0.0
N426 N 0.6209 0.93177 0.89341 0.0
C427 C 0.59122 0.9127 0.92921 0.0
C428 C 0.55835 0.87823 0.90904 0.0
C429 C 0.54349 0.85282 0.81962 0.0
H430 H 0.50674 0.8701 0.81593 0.0
H431 H 0.56368 0.85417 0.78416 0.0
H432 H 0.53757 0.81382 0.83042 0.0
O433 O 0.58238 1.02059 0.822 0.0
O434 O 0.61279 1.0408 0.89589 0.0
H435 H 0.60557 0.96922 0.98311 0.0
H436 H 0.55157 0.93284 0.99533 0.0
C437 C 0.5898 0.93166 0.98105 0.0
H438 H 0.61131 0.90664 1.00515 0.0
H439 H 0.67572 0.06946 0.97594 0.0
O440 O 0.56607 0.93937 0.74511 0.0
C441 C 0.58458 0.04841 0.85965 0.0
Co442 Co 0.52805 0.18035 0.79708 0.0
Co443 Co 0.47863 0.14833 0.89465 0.0
C444 C 0.43546 0.12206 0.79081 0.0
O445 O 0.46523 0.1511 0.76864 0.0
O446 O 0.43535 0.1205 0.83795 0.0
C447 C 0.56664 0.21405 0.70099 0.0
O448 O 0.52155 0.2159 0.68356 0.0
C449 C 0.42865 0.18125 0.98169 0.0
C450 C 0.43832 0.11844 1.03241 0.0
C451 C 0.42503 0.16766 1.03089 0.0
N452 N 0.44538 0.14273 0.95597 0.0
N453 N 0.44952 0.10465 0.98605 0.0
C454 C 0.4198 0.23081 0.95931 0.0
H455 H 0.42356 0.22914 0.91862 0.0
H456 H 0.4461 0.25834 0.97408 0.0
H457 H 0.38187 0.24266 0.96851 0.0
C458 C 0.56897 0.26103 0.85916 0.0
N459 N 0.53292 0.22687 0.85088 0.0
N460 N 0.51918 0.20834 0.89341 0.0
C461 C 0.54886 0.2274 0.92922 0.0
C462 C 0.58173 0.26187 0.90905 0.0
C463 C 0.59657 0.2873 0.81963 0.0
H464 H 0.63333 0.27002 0.81594 0.0
H465 H 0.57639 0.28594 0.78417 0.0
H466 H 0.60249 0.3263 0.83044 0.0
O467 O 0.55771 0.11953 0.82201 0.0
O468 O 0.5273 0.09931 0.89589 0.0
H469 H 0.53452 0.17089 0.98311 0.0
H470 H 0.58852 0.20727 0.99534 0.0
C471 C 0.55029 0.20844 0.98106 0.0
H472 H 0.52877 0.23346 1.00516 0.0
H473 H 0.46437 0.07065 0.97594 0.0
O474 O 0.57401 0.20075 0.74512 0.0
C475 C 0.55552 0.09171 0.85965 0.0
Co476 Co 0.61203 0.18035 0.34298 0.0
Co477 Co 0.66146 0.14834 0.24541 0.0
C478 C 0.70463 0.12206 0.34925 0.0
O479 O 0.67486 0.15111 0.37142 0.0
O480 O 0.70474 0.1205 0.30211 0.0
C481 C 0.57345 0.21407 0.43906 0.0
O482 O 0.61854 0.21592 0.4565 0.0
C483 C 0.71144 0.18127 0.15836 0.0
C484 C 0.70178 0.11845 0.10764 0.0
C485 C 0.71506 0.16767 0.10917 0.0
N486 N 0.69471 0.14274 0.18408 0.0
N487 N 0.69058 0.10465 0.154 0.0
C488 C 0.72027 0.23082 0.18075 0.0
H489 H 0.71652 0.22916 0.22143 0.0
H490 H 0.69398 0.25835 0.16597 0.0
H491 H 0.75821 0.24268 0.17156 0.0
C492 C 0.57111 0.26103 0.2809 0.0
N493 N 0.60716 0.22688 0.28918 0.0
N494 N 0.6209 0.20835 0.24664 0.0
C495 C 0.59122 0.22741 0.21084 0.0
C496 C 0.55835 0.26188 0.23101 0.0
C497 C 0.5435 0.28729 0.32043 0.0
H498 H 0.50674 0.27002 0.32412 0.0
H499 H 0.56368 0.28594 0.35589 0.0
H500 H 0.53758 0.32629 0.30963 0.0
O501 O 0.58238 0.11953 0.31805 0.0
O502 O 0.61279 0.09931 0.24417 0.0
H503 H 0.60557 0.17089 0.15694 0.0
H504 H 0.55157 0.20726 0.14472 0.0
C505 C 0.58979 0.20844 0.159 0.0
H506 H 0.61131 0.23347 0.1349 0.0
H507 H 0.67573 0.07066 0.16412 0.0
O508 O 0.56607 0.20075 0.39494 0.0
C509 C 0.58458 0.09171 0.2804 0.0
Co510 Co 0.52805 0.95976 0.34297 0.0
Co511 Co 0.47863 0.99178 0.24541 0.0
C512 C 0.43546 1.01805 0.34924 0.0
O513 O 0.46523 0.98901 0.37141 0.0
O514 O 0.43535 1.01961 0.3021 0.0
C515 C 0.56664 0.92605 0.43905 0.0
O516 O 0.52154 0.92419 0.45649 0.0
C517 C 0.42865 0.95885 0.15836 0.0
C518 C 0.43832 1.02167 0.10764 0.0
C519 C 0.42503 0.97244 0.10916 0.0
N520 N 0.44538 0.99737 0.18408 0.0
N521 N 0.44952 1.03546 0.154 0.0
C522 C 0.41981 0.9093 0.18074 0.0
H523 H 0.42356 0.91097 0.22143 0.0
H524 H 0.44611 0.88176 0.16597 0.0
H525 H 0.38187 0.89744 0.17155 0.0
C526 C 0.56897 0.87908 0.28089 0.0
N527 N 0.53292 0.91323 0.28917 0.0
N528 N 0.51918 0.93177 0.24664 0.0
C529 C 0.54886 0.91271 0.21083 0.0
C530 C 0.58173 0.87824 0.231 0.0
C531 C 0.59657 0.85281 0.32042 0.0
H532 H 0.63333 0.87008 0.32411 0.0
H533 H 0.57639 0.85417 0.35588 0.0
H534 H 0.60248 0.81381 0.30961 0.0
O535 O 0.55771 1.02058 0.31804 0.0
O536 O 0.5273 1.0408 0.24417 0.0
H537 H 0.53452 0.96923 0.15694 0.0
H538 H 0.58852 0.93285 0.14472 0.0
C539 C 0.55029 0.93167 0.159 0.0
H540 H 0.52878 0.90665 0.13489 0.0
H541 H 0.46437 0.06946 0.16412 0.0
O542 O 0.57401 0.93936 0.39493 0.0
C543 C 0.55552 0.0484 0.2804 0.0
Co544 Co 0.79709 0.61204 0.95973 0.0
Co545 Co 0.89466 0.66147 0.99175 0.0
C546 C 0.79082 0.70464 1.01802 0.0
O547 O 0.76865 0.67487 0.98897 0.0
O548 O 0.83797 0.70475 1.01958 0.0
C549 C 0.701 0.57346 0.92603 0.0
O550 O 0.68357 0.61855 0.92418 0.0
C551 C 0.98171 0.71145 0.95882 0.0
C552 C 1.03243 0.70179 1.02164 0.0
C553 C 1.0309 0.71507 0.97242 0.0
N554 N 0.95599 0.69472 0.99735 0.0
N555 N 0.98607 0.69059 1.03543 0.0
C556 C 0.95932 0.72029 0.90927 0.0
H557 H 0.91864 0.71654 0.91094 0.0
H558 H 0.9741 0.69399 0.88174 0.0
H559 H 0.96851 0.75823 0.89742 0.0
C560 C 0.85917 0.57112 0.87905 0.0
N561 N 0.85089 0.60717 0.91321 0.0
N562 N 0.89343 0.62092 0.93174 0.0
C563 C 0.92923 0.59123 0.91267 0.0
C564 C 0.90906 0.55836 0.8782 0.0
C565 C 0.81964 0.54351 0.85279 0.0
H566 H 0.81595 0.50676 0.87007 0.0
H567 H 0.78418 0.56369 0.85414 0.0
H568 H 0.83045 0.53759 0.81379 0.0
O569 O 0.82202 0.5824 1.02056 0.0
O570 O 0.8959 0.6128 1.04077 0.0
H571 H 0.98313 0.60558 0.96919 0.0
H572 H 0.99535 0.55159 0.93281 0.0
C573 C 0.98107 0.58981 0.93164 0.0
H574 H 1.00517 0.61133 0.90662 0.0
H575 H 0.97596 0.67574 0.06943 0.0
O576 O 0.74513 0.56609 0.93934 0.0
C577 C 0.85967 0.58459 0.04838 0.0
Co578 Co 0.34299 0.52806 0.95973 0.0
Co579 Co 0.24543 0.47864 0.99174 0.0
C580 C 0.34927 0.43547 1.01802 0.0
O581 O 0.37144 0.46524 0.98897 0.0
O582 O 0.30212 0.43536 1.01958 0.0
C583 C 0.43908 0.56665 0.92601 0.0
O584 O 0.45651 0.52156 0.92415 0.0
C585 C 0.15838 0.42866 0.95881 0.0
C586 C 0.10766 0.43832 1.02163 0.0
C587 C 0.10918 0.42504 0.97241 0.0
N588 N 0.1841 0.44539 0.99734 0.0
N589 N 0.15402 0.44952 1.03543 0.0
C590 C 0.18076 0.41982 0.90926 0.0
H591 H 0.22145 0.42358 0.91092 0.0
H592 H 0.16598 0.44612 0.88172 0.0
H593 H 0.17157 0.38189 0.8974 0.0
C594 C 0.28092 0.56899 0.87905 0.0
N595 N 0.28919 0.53294 0.9132 0.0
N596 N 0.24666 0.51919 0.93174 0.0
C597 C 0.21085 0.54888 0.91268 0.0
C598 C 0.23103 0.58175 0.87821 0.0
C599 C 0.32044 0.59659 0.85279 0.0
H600 H 0.32413 0.63335 0.87005 0.0
H601 H 0.35591 0.57641 0.85415 0.0
H602 H 0.30964 0.6025 0.81378 0.0
O603 O 0.31807 0.55772 1.02056 0.0
O604 O 0.24418 0.52731 1.04077 0.0
H605 H 0.15696 0.53453 0.96919 0.0
H606 H 0.14474 0.58853 0.93282 0.0
C607 C 0.15901 0.5503 0.93164 0.0
H608 H 0.13492 0.52879 0.90661 0.0
H609 H 0.16413 0.46437 0.06942 0.0
O610 O 0.39496 0.57402 0.93934 0.0
C611 C 0.28042 0.55552 0.04838 0.0
Co612 Co 0.79709 0.52807 0.18033 0.0
Co613 Co 0.89466 0.47864 0.1483 0.0
C614 C 0.79082 0.43547 0.12203 0.0
O615 O 0.76865 0.46525 0.15107 0.0
O616 O 0.83797 0.43536 0.12047 0.0
C617 C 0.701 0.56665 0.21402 0.0
O618 O 0.68356 0.52156 0.21586 0.0
C619 C 0.98171 0.42867 0.18122 0.0
C620 C 1.03243 0.43834 0.11841 0.0
C621 C 1.0309 0.42505 0.16763 0.0
N622 N 0.95599 0.4454 0.1427 0.0
N623 N 0.98607 0.44954 0.10461 0.0
C624 C 0.95932 0.41982 0.23078 0.0
H625 H 0.91864 0.42357 0.22911 0.0
H626 H 0.9741 0.44612 0.25831 0.0
H627 H 0.96852 0.38189 0.24262 0.0
C628 C 0.85917 0.56898 0.26101 0.0
N629 N 0.85089 0.53294 0.22685 0.0
N630 N 0.89343 0.51919 0.20832 0.0
C631 C 0.92923 0.54888 0.22738 0.0
C632 C 0.90906 0.58175 0.26185 0.0
C633 C 0.81964 0.59659 0.28727 0.0
H634 H 0.81595 0.63335 0.26999 0.0
H635 H 0.78418 0.57641 0.28592 0.0
H636 H 0.83045 0.60252 0.32627 0.0
O637 O 0.82202 0.55773 0.1195 0.0
O638 O 0.8959 0.52732 0.09928 0.0
H639 H 0.98312 0.53454 0.17086 0.0
H640 H 0.99535 0.58853 0.20724 0.0
C641 C 0.98107 0.5503 0.20841 0.0
H642 H 1.00517 0.52878 0.23343 0.0
H643 H 0.97595 0.46439 0.07062 0.0
O644 O 0.74512 0.57403 0.20072 0.0
C645 C 0.85967 0.55554 0.09169 0.0
Co646 Co 0.343 0.61204 0.18033 0.0
Co647 Co 0.24543 0.66147 0.14831 0.0
C648 C 0.34927 0.70464 0.12203 0.0
O649 O 0.37144 0.67487 0.15107 0.0
O650 O 0.30212 0.70475 0.12047 0.0
C651 C 0.43908 0.57346 0.21404 0.0
O652 O 0.45652 0.61855 0.2159 0.0
C653 C 0.15838 0.71144 0.18123 0.0
C654 C 0.10766 0.70177 0.11842 0.0
C655 C 0.10918 0.71506 0.16764 0.0
N656 N 0.1841 0.69472 0.14271 0.0
N657 N 0.15402 0.69057 0.10462 0.0
C658 C 0.18076 0.72028 0.23079 0.0
H659 H 0.22145 0.71653 0.22912 0.0
H660 H 0.16599 0.69399 0.25832 0.0
H661 H 0.17157 0.75822 0.24265 0.0
C662 C 0.28092 0.57113 0.26101 0.0
N663 N 0.2892 0.60718 0.22685 0.0
N664 N 0.24666 0.62092 0.20832 0.0
C665 C 0.21086 0.59123 0.22738 0.0
C666 C 0.23103 0.55836 0.26185 0.0
C667 C 0.32044 0.54353 0.28727 0.0
H668 H 0.32413 0.50677 0.27 0.0
H669 H 0.35591 0.56371 0.28592 0.0
H670 H 0.30964 0.53762 0.32627 0.0
O671 O 0.31807 0.58238 0.11951 0.0
O672 O 0.24419 0.61279 0.09928 0.0
H673 H 0.15696 0.60557 0.17086 0.0
H674 H 0.14474 0.55157 0.20723 0.0
C675 C 0.15902 0.5898 0.20841 0.0
H676 H 0.13492 0.61132 0.23343 0.0
H677 H 0.16414 0.67572 0.07063 0.0
O678 O 0.39496 0.56609 0.20072 0.0
C679 C 0.28042 0.58457 0.09169 0.0
Co680 Co 0.95974 0.79711 0.61202 0.0
Co681 Co 0.99176 0.89467 0.66145 0.0
C682 C 1.01803 0.79084 0.70462 0.0
O683 O 0.98899 0.76867 0.67484 0.0
O684 O 1.0196 0.83798 0.70472 0.0
C685 C 0.92604 0.70102 0.57343 0.0
O686 O 0.92419 0.68359 0.61852 0.0
C687 C 0.95884 0.98172 0.71142 0.0
C688 C 1.02166 1.03244 0.70176 0.0
C689 C 0.97243 1.03092 0.71505 0.0
N690 N 0.99736 0.956 0.6947 0.0
N691 N 1.03545 0.98608 0.69057 0.0
C692 C 0.90928 0.95934 0.72026 0.0
H693 H 0.91094 0.91865 0.7165 0.0
H694 H 0.88175 0.97412 0.69397 0.0
H695 H 0.89743 0.96853 0.7582 0.0
C696 C 0.87907 0.85918 0.57109 0.0
N697 N 0.91322 0.85091 0.60714 0.0
N698 N 0.93175 0.89344 0.62089 0.0
C699 C 0.91269 0.92924 0.5912 0.0
C700 C 0.87822 0.90907 0.55833 0.0
C701 C 0.85281 0.81966 0.54348 0.0
H702 H 0.87008 0.81597 0.50672 0.0
H703 H 0.85416 0.7842 0.56366 0.0
H704 H 0.8138 0.83046 0.53757 0.0
O705 O 1.02057 0.82203 0.58237 0.0
O706 O 1.04079 0.89591 0.61278 0.0
H707 H 0.96921 0.98314 0.60556 0.0
H708 H 0.93284 0.99536 0.55156 0.0
C709 C 0.93166 0.98108 0.58978 0.0
H710 H 0.90663 1.00518 0.6113 0.0
H711 H 0.06945 0.97596 0.67572 0.0
O712 O 0.93935 0.74514 0.56606 0.0
C713 C 0.0484 0.85968 0.58457 0.0
Co714 Co 0.95975 0.343 0.52803 0.0
Co715 Co 0.99176 0.24544 0.4786 0.0
C716 C 1.01803 0.34927 0.43543 0.0
O717 O 0.98899 0.37144 0.46521 0.0
O718 O 1.0196 0.30213 0.43533 0.0
C719 C 0.92604 0.43909 0.56662 0.0
O720 O 0.92419 0.45652 0.52153 0.0
C721 C 0.95884 0.15839 0.42863 0.0
C722 C 1.02166 0.10767 0.43829 0.0
C723 C 0.97243 0.10919 0.42501 0.0
N724 N 0.99736 0.18411 0.44535 0.0
N725 N 1.03545 0.15403 0.44949 0.0
C726 C 0.90928 0.18077 0.41979 0.0
H727 H 0.91095 0.22146 0.42355 0.0
H728 H 0.88175 0.16599 0.44608 0.0
H729 H 0.89743 0.17158 0.38185 0.0
C730 C 0.87907 0.28092 0.56896 0.0
N731 N 0.91322 0.2892 0.53291 0.0
N732 N 0.93176 0.24667 0.51916 0.0
C733 C 0.9127 0.21086 0.54885 0.0
C734 C 0.87822 0.23104 0.58172 0.0
C735 C 0.85281 0.32045 0.59657 0.0
H736 H 0.87008 0.32414 0.63333 0.0
H737 H 0.85416 0.35591 0.57639 0.0
H738 H 0.8138 0.30964 0.60248 0.0
O739 O 1.02058 0.31808 0.55768 0.0
O740 O 1.04079 0.2442 0.52727 0.0
H741 H 0.96921 0.15697 0.53449 0.0
H742 H 0.93284 0.14475 0.5885 0.0
C743 C 0.93166 0.15903 0.55027 0.0
H744 H 0.90664 0.13493 0.52875 0.0
H745 H 0.06945 0.16415 0.46433 0.0
O746 O 0.93935 0.39497 0.57399 0.0
C747 C 0.0484 0.28043 0.55549 0.0
Co748 Co 0.18035 0.7971 0.52804 0.0
Co749 Co 0.14832 0.89467 0.47861 0.0
C750 C 0.12205 0.79083 0.43544 0.0
O751 O 0.15109 0.76867 0.46522 0.0
O752 O 0.12049 0.83798 0.43534 0.0
C753 C 0.21405 0.70102 0.56662 0.0
O754 O 0.2159 0.68358 0.52153 0.0
C755 C 0.18124 0.98172 0.42864 0.0
C756 C 0.11843 1.03243 0.43831 0.0
C757 C 0.16765 1.03091 0.42503 0.0
N758 N 0.14272 0.956 0.44537 0.0
N759 N 0.10463 0.98608 0.44951 0.0
C760 C 0.2308 0.95933 0.41979 0.0
H761 H 0.22913 0.91865 0.42355 0.0
H762 H 0.25833 0.97411 0.44609 0.0
H763 H 0.24265 0.96853 0.38186 0.0
C764 C 0.26102 0.85918 0.56895 0.0
N765 N 0.22687 0.8509 0.5329 0.0
N766 N 0.20833 0.89344 0.51916 0.0
C767 C 0.22739 0.92924 0.54885 0.0
C768 C 0.26187 0.90907 0.58172 0.0
C769 C 0.28729 0.81966 0.59656 0.0
H770 H 0.27001 0.81596 0.63331 0.0
H771 H 0.28594 0.7842 0.57637 0.0
H772 H 0.32629 0.83047 0.60248 0.0
O773 O 0.11952 0.82203 0.5577 0.0
O774 O 0.0993 0.89591 0.52729 0.0
H775 H 0.17087 0.98313 0.53451 0.0
H776 H 0.20725 0.99536 0.58851 0.0
C777 C 0.20843 0.98108 0.55028 0.0
H778 H 0.23344 1.00518 0.52876 0.0
H779 H 0.07064 0.97596 0.46436 0.0
O780 O 0.20074 0.74514 0.57399 0.0
C781 C 0.0917 0.85968 0.55551 0.0
Co782 Co 0.18035 0.34301 0.61201 0.0
Co783 Co 0.14832 0.24544 0.66144 0.0
C784 C 0.12205 0.34928 0.70461 0.0
O785 O 0.15109 0.37145 0.67483 0.0
O786 O 0.12049 0.30214 0.70471 0.0
C787 C 0.21405 0.43909 0.57343 0.0
O788 O 0.2159 0.45653 0.61852 0.0
C789 C 0.18124 0.1584 0.71141 0.0
C790 C 0.11842 0.10768 0.70174 0.0
C791 C 0.16765 0.1092 0.71503 0.0
N792 N 0.14272 0.18412 0.69468 0.0
N793 N 0.10463 0.15404 0.69054 0.0
C794 C 0.2308 0.18078 0.72026 0.0
H795 H 0.22914 0.22146 0.7165 0.0
H796 H 0.25833 0.166 0.69396 0.0
H797 H 0.24265 0.17158 0.75819 0.0
C798 C 0.26102 0.28093 0.5711 0.0
N799 N 0.22687 0.28921 0.60715 0.0
N800 N 0.20833 0.24668 0.62089 0.0
C801 C 0.22739 0.21087 0.5912 0.0
C802 C 0.26187 0.23104 0.55833 0.0
C803 C 0.28729 0.32046 0.54349 0.0
H804 H 0.27001 0.32415 0.50674 0.0
H805 H 0.28594 0.35592 0.56367 0.0
H806 H 0.32629 0.30965 0.53757 0.0
O807 O 0.11952 0.31808 0.58235 0.0
O808 O 0.0993 0.2442 0.61276 0.0
H809 H 0.17087 0.15698 0.60554 0.0
H810 H 0.20725 0.14475 0.55155 0.0
C811 C 0.20843 0.15903 0.58977 0.0
H812 H 0.23345 0.13493 0.61129 0.0
H813 H 0.07064 0.16415 0.67569 0.0
O814 O 0.20074 0.39497 0.56606 0.0
C815 C 0.09171 0.28043 0.58454 0.0
loop_
_geom_bond_atom_site_label_1
_geom_bond_atom_site_label_2
_geom_bond_distance
_geom_bond_site_symmetry_2
_ccdc_geom_bond_type
Co0 O3 1.970 . S
Co0 N17 1.989 1_455 S
Co0 O25 1.967 . S
Co0 O32 1.920 1_455 S
Co1 O4 1.966 . S
Co1 N10 2.022 . S
Co1 N18 1.993 . S
Co1 O26 1.941 . S
C2 O3 1.258 . S
C2 O4 1.263 . S
O3 Co0 1.970 . S
O3 C2 1.258 . S
O4 Co1 1.966 . S
O4 C2 1.263 . S
C5 O6 1.235 . S
C5 O32 1.289 . S
O6 C5 1.235 . S
C7 C9 1.400 . S
C7 N10 1.351 . S
C7 C12 1.501 . S
C8 C9 1.387 . S
C8 N11 1.341 . S
C9 C7 1.400 . S
C9 C8 1.387 . S
N10 Co1 2.022 . S
N10 C7 1.351 . S
N10 N11 1.365 . S
N11 C8 1.341 . S
N11 N10 1.365 . S
N11 H31 0.862 . S
C12 C7 1.501 . S
C12 H13 0.961 . S
C12 H14 0.961 . S
C12 H15 0.960 . S
H13 C12 0.961 . S
H14 C12 0.961 . S
H15 C12 0.960 . S
C16 N17 1.342 . S
C16 C20 1.401 . S
C16 C21 1.499 . S
N17 Co0 1.989 1_655 S
N17 C16 1.342 . S
N17 N18 1.388 1_655 S
N18 Co1 1.993 . S
N18 N17 1.388 1_455 S
N18 C19 1.346 . S
C19 N18 1.346 . S
C19 C20 1.396 1_455 S
C19 C29 1.510 . S
C20 C16 1.401 . S
C20 C19 1.396 1_655 S
C21 C16 1.499 . S
C21 H22 0.959 . S
C21 H23 0.960 . S
C21 H24 0.961 . S
H22 C21 0.959 . S
H23 C21 0.960 . S
H24 C21 0.961 . S
O25 Co0 1.967 . S
O25 C33 1.258 . S
O26 Co1 1.941 . S
O26 C33 1.266 . S
H27 C29 0.959 . S
H28 C29 0.961 . S
C29 C19 1.510 . S
C29 H27 0.959 . S
C29 H28 0.961 . S
C29 H30 0.960 . S
H30 C29 0.960 . S
H31 N11 0.862 . S
O32 Co0 1.920 1_655 S
O32 C5 1.289 . S
C33 O25 1.258 . S
C33 O26 1.266 . S
Co34 O37 1.970 1_455 S
Co34 N51 1.989 . S
Co34 O59 1.967 . S
Co34 O66 1.920 . S
Co35 O38 1.966 . S
Co35 N44 2.022 . S
Co35 N52 1.993 1_655 S
Co35 O60 1.941 . S
C36 O37 1.258 . S
C36 O38 1.263 . S
O37 Co34 1.970 1_655 S
O37 C36 1.258 . S
O38 Co35 1.966 . S
O38 C36 1.263 . S
C39 O40 1.235 . S
C39 O66 1.289 . S
O40 C39 1.235 . S
C41 C43 1.400 . S
C41 N44 1.351 . S
C41 C46 1.501 . S
C42 C43 1.387 . S
C42 N45 1.341 . S
C43 C41 1.400 . S
C43 C42 1.387 . S
N44 Co35 2.022 . S
N44 C41 1.351 . S
N44 N45 1.365 . S
N45 C42 1.341 . S
N45 N44 1.365 . S
N45 H65 0.862 . S
C46 C41 1.501 . S
C46 H47 0.961 . S
C46 H48 0.961 . S
C46 H49 0.960 . S
H47 C46 0.961 . S
H48 C46 0.961 . S
H49 C46 0.960 . S
C50 N51 1.342 . S
C50 C54 1.401 . S
C50 C55 1.499 . S
N51 Co34 1.989 . S
N51 C50 1.342 . S
N51 N52 1.388 . S
N52 Co35 1.993 1_455 S
N52 N51 1.388 . S
N52 C53 1.346 . S
C53 N52 1.346 . S
C53 C54 1.396 . S
C53 C63 1.510 . S
C54 C50 1.401 . S
C54 C53 1.396 . S
C55 C50 1.499 . S
C55 H56 0.959 . S
C55 H57 0.960 . S
C55 H58 0.961 . S
H56 C55 0.959 . S
H57 C55 0.960 . S
H58 C55 0.961 . S
O59 Co34 1.967 . S
O59 C67 1.258 . S
O60 Co35 1.941 . S
O60 C67 1.266 1_655 S
H61 C63 0.959 . S
H62 C63 0.961 . S
C63 C53 1.510 . S
C63 H61 0.959 . S
C63 H62 0.961 . S
C63 H64 0.960 1_455 S
H64 C63 0.960 1_655 S
H65 N45 0.862 . S
O66 Co34 1.920 . S
O66 C39 1.289 . S
C67 O59 1.258 . S
C67 O60 1.266 1_455 S
Co68 O71 1.970 . S
Co68 N85 1.989 1_455 S
Co68 O93 1.967 . S
Co68 O100 1.920 1_455 S
Co69 O72 1.966 . S
Co69 N78 2.022 . S
Co69 N86 1.993 . S
Co69 O94 1.941 . S
C70 O71 1.258 . S
C70 O72 1.263 . S
O71 Co68 1.970 . S
O71 C70 1.258 . S
O72 Co69 1.966 . S
O72 C70 1.263 . S
C73 O74 1.235 . S
C73 O100 1.289 . S
O74 C73 1.235 . S
C75 C77 1.400 . S
C75 N78 1.351 . S
C75 C80 1.501 . S
C76 C77 1.387 . S
C76 N79 1.341 . S
C77 C75 1.400 . S
C77 C76 1.387 . S
N78 Co69 2.022 . S
N78 C75 1.351 . S
N78 N79 1.365 . S
N79 C76 1.341 . S
N79 N78 1.365 . S
N79 H99 0.862 . S
C80 C75 1.501 . S
C80 H81 0.961 . S
C80 H82 0.961 . S
C80 H83 0.960 . S
H81 C80 0.961 . S
H82 C80 0.961 . S
H83 C80 0.960 . S
C84 N85 1.342 . S
C84 C88 1.401 . S
C84 C89 1.499 . S
N85 Co68 1.989 1_655 S
N85 C84 1.342 . S
N85 N86 1.388 1_655 S
N86 Co69 1.993 . S
N86 N85 1.388 1_455 S
N86 C87 1.346 . S
C87 N86 1.346 . S
C87 C88 1.396 1_455 S
C87 C97 1.510 . S
C88 C84 1.401 . S
C88 C87 1.396 1_655 S
C89 C84 1.499 . S
C89 H90 0.959 . S
C89 H91 0.960 . S
C89 H92 0.961 . S
H90 C89 0.959 . S
H91 C89 0.960 . S
H92 C89 0.961 . S
O93 Co68 1.967 . S
O93 C101 1.258 . S
O94 Co69 1.941 . S
O94 C101 1.266 . S
H95 C97 0.959 . S
H96 C97 0.961 . S
C97 C87 1.510 . S
C97 H95 0.959 . S
C97 H96 0.961 . S
C97 H98 0.960 . S
H98 C97 0.960 . S
H99 N79 0.862 . S
O100 Co68 1.920 1_655 S
O100 C73 1.289 . S
C101 O93 1.258 . S
C101 O94 1.266 . S
Co102 O105 1.970 1_455 S
Co102 N119 1.989 . S
Co102 O127 1.967 . S
Co102 O134 1.920 . S
Co103 O106 1.966 . S
Co103 N112 2.022 . S
Co103 N120 1.993 1_655 S
Co103 O128 1.941 . S
C104 O105 1.258 . S
C104 O106 1.263 . S
O105 Co102 1.970 1_655 S
O105 C104 1.258 . S
O106 Co103 1.966 . S
O106 C104 1.263 . S
C107 O108 1.235 . S
C107 O134 1.289 . S
O108 C107 1.235 . S
C109 C111 1.400 . S
C109 N112 1.351 . S
C109 C114 1.501 . S
C110 C111 1.387 . S
C110 N113 1.341 . S
C111 C109 1.400 . S
C111 C110 1.387 . S
N112 Co103 2.022 . S
N112 C109 1.351 . S
N112 N113 1.365 . S
N113 C110 1.341 . S
N113 N112 1.365 . S
N113 H133 0.862 . S
C114 C109 1.501 . S
C114 H115 0.961 . S
C114 H116 0.961 . S
C114 H117 0.960 . S
H115 C114 0.961 . S
H116 C114 0.961 . S
H117 C114 0.960 . S
C118 N119 1.342 . S
C118 C122 1.401 . S
C118 C123 1.499 . S
N119 Co102 1.989 . S
N119 C118 1.342 . S
N119 N120 1.388 . S
N120 Co103 1.993 1_455 S
N120 N119 1.388 . S
N120 C121 1.346 . S
C121 N120 1.346 . S
C121 C122 1.396 . S
C121 C131 1.510 . S
C122 C118 1.401 . S
C122 C121 1.396 . S
C123 C118 1.499 . S
C123 H124 0.959 . S
C123 H125 0.960 . S
C123 H126 0.961 . S
H124 C123 0.959 . S
H125 C123 0.960 . S
H126 C123 0.961 . S
O127 Co102 1.967 . S
O127 C135 1.258 . S
O128 Co103 1.941 . S
O128 C135 1.266 1_655 S
H129 C131 0.959 . S
H130 C131 0.961 . S
C131 C121 1.510 . S
C131 H129 0.959 . S
C131 H130 0.961 . S
C131 H132 0.960 1_455 S
H132 C131 0.960 1_655 S
H133 N113 0.862 . S
O134 Co102 1.920 . S
O134 C107 1.289 . S
C135 O127 1.258 . S
C135 O128 1.266 1_455 S
Co136 O139 1.970 . S
Co136 N153 1.989 1_545 S
Co136 O161 1.967 . S
Co136 O168 1.920 1_545 S
Co137 O140 1.966 . S
Co137 N146 2.022 . S
Co137 N154 1.993 . S
Co137 O162 1.941 . S
C138 O139 1.258 . S
C138 O140 1.263 . S
O139 Co136 1.970 . S
O139 C138 1.258 . S
O140 Co137 1.966 . S
O140 C138 1.263 . S
C141 O142 1.235 . S
C141 O168 1.289 . S
O142 C141 1.235 . S
C143 C145 1.400 . S
C143 N146 1.351 . S
C143 C148 1.501 . S
C144 C145 1.387 . S
C144 N147 1.341 . S
C145 C143 1.400 . S
C145 C144 1.387 . S
N146 Co137 2.022 . S
N146 C143 1.351 . S
N146 N147 1.365 . S
N147 C144 1.341 . S
N147 N146 1.365 . S
N147 H167 0.862 . S
C148 C143 1.501 . S
C148 H149 0.961 . S
C148 H150 0.961 . S
C148 H151 0.960 . S
H149 C148 0.961 . S
H150 C148 0.961 . S
H151 C148 0.960 . S
C152 N153 1.342 . S
C152 C156 1.401 . S
C152 C157 1.499 . S
N153 Co136 1.989 1_565 S
N153 C152 1.342 . S
N153 N154 1.388 1_565 S
N154 Co137 1.993 . S
N154 N153 1.388 1_545 S
N154 C155 1.346 . S
C155 N154 1.346 . S
C155 C156 1.396 1_545 S
C155 C165 1.510 . S
C156 C152 1.401 . S
C156 C155 1.396 1_565 S
C157 C152 1.499 . S
C157 H158 0.959 . S
C157 H159 0.960 . S
C157 H160 0.961 . S
H158 C157 0.959 . S
H159 C157 0.960 . S
H160 C157 0.961 . S
O161 Co136 1.967 . S
O161 C169 1.258 . S
O162 Co137 1.941 . S
O162 C169 1.266 . S
H163 C165 0.959 . S
H164 C165 0.961 . S
C165 C155 1.510 . S
C165 H163 0.959 . S
C165 H164 0.961 . S
C165 H166 0.960 . S
H166 C165 0.960 . S
H167 N147 0.862 . S
O168 Co136 1.920 1_565 S
O168 C141 1.289 . S
C169 O161 1.258 . S
C169 O162 1.266 . S
Co170 O173 1.970 1_545 S
Co170 N187 1.989 . S
Co170 O195 1.967 . S
Co170 O202 1.920 . S
Co171 O174 1.966 . S
Co171 N180 2.022 . S
Co171 N188 1.993 1_565 S
Co171 O196 1.941 . S
C172 O173 1.258 . S
C172 O174 1.263 . S
O173 Co170 1.970 1_565 S
O173 C172 1.258 . S
O174 Co171 1.966 . S
O174 C172 1.263 . S
C175 O176 1.235 . S
C175 O202 1.289 . S
O176 C175 1.235 . S
C177 C179 1.400 . S
C177 N180 1.351 . S
C177 C182 1.501 . S
C178 C179 1.387 . S
C178 N181 1.341 . S
C179 C177 1.400 . S
C179 C178 1.387 . S
N180 Co171 2.022 . S
N180 C177 1.351 . S
N180 N181 1.365 . S
N181 C178 1.341 . S
N181 N180 1.365 . S
N181 H201 0.862 . S
C182 C177 1.501 . S
C182 H183 0.961 . S
C182 H184 0.961 . S
C182 H185 0.960 . S
H183 C182 0.961 . S
H184 C182 0.961 . S
H185 C182 0.960 . S
C186 N187 1.342 . S
C186 C190 1.401 . S
C186 C191 1.499 . S
N187 Co170 1.989 . S
N187 C186 1.342 . S
N187 N188 1.388 . S
N188 Co171 1.993 1_545 S
N188 N187 1.388 . S
N188 C189 1.346 . S
C189 N188 1.346 . S
C189 C190 1.396 . S
C189 C199 1.510 . S
C190 C186 1.401 . S
C190 C189 1.396 . S
C191 C186 1.499 . S
C191 H192 0.959 . S
C191 H193 0.960 . S
C191 H194 0.961 . S
H192 C191 0.959 . S
H193 C191 0.960 . S
H194 C191 0.961 . S
O195 Co170 1.967 . S
O195 C203 1.258 . S
O196 Co171 1.941 . S
O196 C203 1.266 1_565 S
H197 C199 0.959 . S
H198 C199 0.961 . S
C199 C189 1.510 . S
C199 H197 0.959 . S
C199 H198 0.961 . S
C199 H200 0.960 1_545 S
H200 C199 0.960 1_565 S
H201 N181 0.862 . S
O202 Co170 1.920 . S
O202 C175 1.289 . S
C203 O195 1.258 . S
C203 O196 1.266 1_545 S
Co204 O207 1.970 1_545 S
Co204 N221 1.989 . S
Co204 O229 1.967 . S
Co204 O236 1.920 . S
Co205 O208 1.966 . S
Co205 N214 2.022 . S
Co205 N222 1.993 1_565 S
Co205 O230 1.941 . S
C206 O207 1.258 . S
C206 O208 1.263 . S
O207 Co204 1.970 1_565 S
O207 C206 1.258 . S
O208 Co205 1.966 . S
O208 C206 1.263 . S
C209 O210 1.235 . S
C209 O236 1.289 . S
O210 C209 1.235 . S
C211 C213 1.400 . S
C211 N214 1.351 . S
C211 C216 1.501 . S
C212 C213 1.387 . S
C212 N215 1.341 . S
C213 C211 1.400 . S
C213 C212 1.387 . S
N214 Co205 2.022 . S
N214 C211 1.351 . S
N214 N215 1.365 . S
N215 C212 1.341 . S
N215 N214 1.365 . S
N215 H235 0.862 . S
C216 C211 1.501 . S
C216 H217 0.961 . S
C216 H218 0.961 . S
C216 H219 0.960 . S
H217 C216 0.961 . S
H218 C216 0.961 . S
H219 C216 0.960 . S
C220 N221 1.342 . S
C220 C224 1.401 . S
C220 C225 1.499 . S
N221 Co204 1.989 . S
N221 C220 1.342 . S
N221 N222 1.388 . S
N222 Co205 1.993 1_545 S
N222 N221 1.388 . S
N222 C223 1.346 . S
C223 N222 1.346 . S
C223 C224 1.396 . S
C223 C233 1.510 . S
C224 C220 1.401 . S
C224 C223 1.396 . S
C225 C220 1.499 . S
C225 H226 0.959 . S
C225 H227 0.960 . S
C225 H228 0.961 . S
H226 C225 0.959 . S
H227 C225 0.960 . S
H228 C225 0.961 . S
O229 Co204 1.967 . S
O229 C237 1.258 . S
O230 Co205 1.941 . S
O230 C237 1.266 1_565 S
H231 C233 0.959 . S
H232 C233 0.961 . S
C233 C223 1.510 . S
C233 H231 0.959 . S
C233 H232 0.961 . S
C233 H234 0.960 1_545 S
H234 C233 0.960 1_565 S
H235 N215 0.862 . S
O236 Co204 1.920 . S
O236 C209 1.289 . S
C237 O229 1.258 . S
C237 O230 1.266 1_545 S
Co238 O241 1.970 . S
Co238 N255 1.989 1_545 S
Co238 O263 1.967 . S
Co238 O270 1.920 1_545 S
Co239 O242 1.966 . S
Co239 N248 2.022 . S
Co239 N256 1.993 . S
Co239 O264 1.941 . S
C240 O241 1.258 . S
C240 O242 1.263 . S
O241 Co238 1.970 . S
O241 C240 1.258 . S
O242 Co239 1.966 . S
O242 C240 1.263 . S
C243 O244 1.235 . S
C243 O270 1.289 . S
O244 C243 1.235 . S
C245 C247 1.400 . S
C245 N248 1.351 . S
C245 C250 1.501 . S
C246 C247 1.387 . S
C246 N249 1.341 . S
C247 C245 1.400 . S
C247 C246 1.387 . S
N248 Co239 2.022 . S
N248 C245 1.351 . S
N248 N249 1.365 . S
N249 C246 1.341 . S
N249 N248 1.365 . S
N249 H269 0.862 . S
C250 C245 1.501 . S
C250 H251 0.961 . S
C250 H252 0.961 . S
C250 H253 0.960 . S
H251 C250 0.961 . S
H252 C250 0.961 . S
H253 C250 0.960 . S
C254 N255 1.342 . S
C254 C258 1.401 . S
C254 C259 1.499 . S
N255 Co238 1.989 1_565 S
N255 C254 1.342 . S
N255 N256 1.388 1_565 S
N256 Co239 1.993 . S
N256 N255 1.388 1_545 S
N256 C257 1.346 . S
C257 N256 1.346 . S
C257 C258 1.396 1_545 S
C257 C267 1.510 . S
C258 C254 1.401 . S
C258 C257 1.396 1_565 S
C259 C254 1.499 . S
C259 H260 0.959 . S
C259 H261 0.960 . S
C259 H262 0.961 . S
H260 C259 0.959 . S
H261 C259 0.960 . S
H262 C259 0.961 . S
O263 Co238 1.967 . S
O263 C271 1.258 . S
O264 Co239 1.941 . S
O264 C271 1.266 . S
H265 C267 0.959 . S
H266 C267 0.961 . S
C267 C257 1.510 . S
C267 H265 0.959 . S
C267 H266 0.961 . S
C267 H268 0.960 . S
H268 C267 0.960 . S
H269 N249 0.862 . S
O270 Co238 1.920 1_565 S
O270 C243 1.289 . S
C271 O263 1.258 . S
C271 O264 1.266 . S
Co272 O275 1.970 . S
Co272 N289 1.989 1_554 S
Co272 O297 1.967 . S
Co272 O304 1.920 1_554 S
Co273 O276 1.966 . S
Co273 N282 2.022 . S
Co273 N290 1.993 . S
Co273 O298 1.941 . S
C274 O275 1.258 . S
C274 O276 1.263 . S
O275 Co272 1.970 . S
O275 C274 1.258 . S
O276 Co273 1.966 . S
O276 C274 1.263 . S
C277 O278 1.235 . S
C277 O304 1.289 . S
O278 C277 1.235 . S
C279 C281 1.400 . S
C279 N282 1.351 . S
C279 C284 1.501 . S
C280 C281 1.387 . S
C280 N283 1.341 . S
C281 C279 1.400 . S
C281 C280 1.387 . S
N282 Co273 2.022 . S
N282 C279 1.351 . S
N282 N283 1.365 . S
N283 C280 1.341 . S
N283 N282 1.365 . S
N283 H303 0.862 . S
C284 C279 1.501 . S
C284 H285 0.961 . S
C284 H286 0.961 . S
C284 H287 0.960 . S
H285 C284 0.961 . S
H286 C284 0.961 . S
H287 C284 0.960 . S
C288 N289 1.342 . S
C288 C292 1.401 . S
C288 C293 1.499 . S
N289 Co272 1.989 1_556 S
N289 C288 1.342 . S
N289 N290 1.388 1_556 S
N290 Co273 1.993 . S
N290 N289 1.388 1_554 S
N290 C291 1.346 . S
C291 N290 1.346 . S
C291 C292 1.396 1_554 S
C291 C301 1.510 . S
C292 C288 1.401 . S
C292 C291 1.396 1_556 S
C293 C288 1.499 . S
C293 H294 0.959 . S
C293 H295 0.960 . S
C293 H296 0.961 . S
H294 C293 0.959 . S
H295 C293 0.960 . S
H296 C293 0.961 . S
O297 Co272 1.967 . S
O297 C305 1.258 . S
O298 Co273 1.941 . S
O298 C305 1.266 . S
H299 C301 0.959 . S
H300 C301 0.961 . S
C301 C291 1.510 . S
C301 H299 0.959 . S
C301 H300 0.961 . S
C301 H302 0.960 . S
H302 C301 0.960 . S
H303 N283 0.862 . S
O304 Co272 1.920 1_556 S
O304 C277 1.289 . S
C305 O297 1.258 . S
C305 O298 1.266 . S
Co306 O309 1.970 1_554 S
Co306 N323 1.989 . S
Co306 O331 1.967 . S
Co306 O338 1.920 . S
Co307 O310 1.966 . S
Co307 N316 2.022 . S
Co307 N324 1.993 1_556 S
Co307 O332 1.941 . S
C308 O309 1.258 . S
C308 O310 1.263 . S
O309 Co306 1.970 1_556 S
O309 C308 1.258 . S
O310 Co307 1.966 . S
O310 C308 1.263 . S
C311 O312 1.235 . S
C311 O338 1.289 . S
O312 C311 1.235 . S
C313 C315 1.400 . S
C313 N316 1.351 . S
C313 C318 1.501 . S
C314 C315 1.387 . S
C314 N317 1.341 . S
C315 C313 1.400 . S
C315 C314 1.387 . S
N316 Co307 2.022 . S
N316 C313 1.351 . S
N316 N317 1.365 . S
N317 C314 1.341 . S
N317 N316 1.365 . S
N317 H337 0.862 . S
C318 C313 1.501 . S
C318 H319 0.961 . S
C318 H320 0.961 . S
C318 H321 0.960 . S
H319 C318 0.961 . S
H320 C318 0.961 . S
H321 C318 0.960 . S
C322 N323 1.342 . S
C322 C326 1.401 . S
C322 C327 1.499 . S
N323 Co306 1.989 . S
N323 C322 1.342 . S
N323 N324 1.388 . S
N324 Co307 1.993 1_554 S
N324 N323 1.388 . S
N324 C325 1.346 . S
C325 N324 1.346 . S
C325 C326 1.396 . S
C325 C335 1.510 . S
C326 C322 1.401 . S
C326 C325 1.396 . S
C327 C322 1.499 . S
C327 H328 0.959 . S
C327 H329 0.960 . S
C327 H330 0.961 . S
H328 C327 0.959 . S
H329 C327 0.960 . S
H330 C327 0.961 . S
O331 Co306 1.967 . S
O331 C339 1.258 . S
O332 Co307 1.941 . S
O332 C339 1.266 1_556 S
H333 C335 0.959 . S
H334 C335 0.961 . S
C335 C325 1.510 . S
C335 H333 0.959 . S
C335 H334 0.961 . S
C335 H336 0.960 1_554 S
H336 C335 0.960 1_556 S
H337 N317 0.862 . S
O338 Co306 1.920 . S
O338 C311 1.289 . S
C339 O331 1.258 . S
C339 O332 1.266 1_554 S
Co340 O343 1.970 1_554 S
Co340 N357 1.989 . S
Co340 O365 1.967 . S
Co340 O372 1.920 . S
Co341 O344 1.966 . S
Co341 N350 2.022 . S
Co341 N358 1.993 1_556 S
Co341 O366 1.941 . S
C342 O343 1.258 . S
C342 O344 1.263 . S
O343 Co340 1.970 1_556 S
O343 C342 1.258 . S
O344 Co341 1.966 . S
O344 C342 1.263 . S
C345 O346 1.235 . S
C345 O372 1.289 . S
O346 C345 1.235 . S
C347 C349 1.400 . S
C347 N350 1.351 . S
C347 C352 1.501 . S
C348 C349 1.387 . S
C348 N351 1.341 . S
C349 C347 1.400 . S
C349 C348 1.387 . S
N350 Co341 2.022 . S
N350 C347 1.351 . S
N350 N351 1.365 . S
N351 C348 1.341 . S
N351 N350 1.365 . S
N351 H371 0.862 . S
C352 C347 1.501 . S
C352 H353 0.961 . S
C352 H354 0.961 . S
C352 H355 0.960 . S
H353 C352 0.961 . S
H354 C352 0.961 . S
H355 C352 0.960 . S
C356 N357 1.342 . S
C356 C360 1.401 . S
C356 C361 1.499 . S
N357 Co340 1.989 . S
N357 C356 1.342 . S
N357 N358 1.388 . S
N358 Co341 1.993 1_554 S
N358 N357 1.388 . S
N358 C359 1.346 . S
C359 N358 1.346 . S
C359 C360 1.396 . S
C359 C369 1.510 . S
C360 C356 1.401 . S
C360 C359 1.396 . S
C361 C356 1.499 . S
C361 H362 0.959 . S
C361 H363 0.960 . S
C361 H364 0.961 . S
H362 C361 0.959 . S
H363 C361 0.960 . S
H364 C361 0.961 . S
O365 Co340 1.967 . S
O365 C373 1.258 . S
O366 Co341 1.941 . S
O366 C373 1.266 1_556 S
H367 C369 0.959 . S
H368 C369 0.961 . S
C369 C359 1.510 . S
C369 H367 0.959 . S
C369 H368 0.961 . S
C369 H370 0.960 1_554 S
H370 C369 0.960 1_556 S
H371 N351 0.862 . S
O372 Co340 1.920 . S
O372 C345 1.289 . S
C373 O365 1.258 . S
C373 O366 1.266 1_554 S
Co374 O377 1.970 . S
Co374 N391 1.989 1_554 S
Co374 O399 1.967 . S
Co374 O406 1.920 1_554 S
Co375 O378 1.966 . S
Co375 N384 2.022 . S
Co375 N392 1.993 . S
Co375 O400 1.941 . S
C376 O377 1.258 . S
C376 O378 1.263 . S
O377 Co374 1.970 . S
O377 C376 1.258 . S
O378 Co375 1.966 . S
O378 C376 1.263 . S
C379 O380 1.235 . S
C379 O406 1.289 . S
O380 C379 1.235 . S
C381 C383 1.400 . S
C381 N384 1.351 . S
C381 C386 1.501 . S
C382 C383 1.387 . S
C382 N385 1.341 . S
C383 C381 1.400 . S
C383 C382 1.387 . S
N384 Co375 2.022 . S
N384 C381 1.351 . S
N384 N385 1.365 . S
N385 C382 1.341 . S
N385 N384 1.365 . S
N385 H405 0.862 . S
C386 C381 1.501 . S
C386 H387 0.961 . S
C386 H388 0.961 . S
C386 H389 0.960 . S
H387 C386 0.961 . S
H388 C386 0.961 . S
H389 C386 0.960 . S
C390 N391 1.342 . S
C390 C394 1.401 . S
C390 C395 1.499 . S
N391 Co374 1.989 1_556 S
N391 C390 1.342 . S
N391 N392 1.388 1_556 S
N392 Co375 1.993 . S
N392 N391 1.388 1_554 S
N392 C393 1.346 . S
C393 N392 1.346 . S
C393 C394 1.396 1_554 S
C393 C403 1.510 . S
C394 C390 1.401 . S
C394 C393 1.396 1_556 S
C395 C390 1.499 . S
C395 H396 0.959 . S
C395 H397 0.960 . S
C395 H398 0.961 . S
H396 C395 0.959 . S
H397 C395 0.960 . S
H398 C395 0.961 . S
O399 Co374 1.967 . S
O399 C407 1.258 . S
O400 Co375 1.941 . S
O400 C407 1.266 . S
H401 C403 0.959 . S
H402 C403 0.961 . S
C403 C393 1.510 . S
C403 H401 0.959 . S
C403 H402 0.961 . S
C403 H404 0.960 . S
H404 C403 0.960 . S
H405 N385 0.862 . S
O406 Co374 1.920 1_556 S
O406 C379 1.289 . S
C407 O399 1.258 . S
C407 O400 1.266 . S
Co408 O411 1.970 . S
Co408 N425 1.989 . S
Co408 O433 1.967 . S
Co408 O440 1.920 . S
Co409 O412 1.966 . S
Co409 N418 2.022 . S
Co409 N426 1.993 . S
Co409 O434 1.941 . S
C410 O411 1.258 . S
C410 O412 1.263 . S
O411 Co408 1.970 . S
O411 C410 1.258 . S
O412 Co409 1.966 . S
O412 C410 1.263 . S
C413 O414 1.235 . S
C413 O440 1.289 . S
O414 C413 1.235 . S
C415 C417 1.400 . S
C415 N418 1.351 . S
C415 C420 1.501 . S
C416 C417 1.387 . S
C416 N419 1.341 . S
C417 C415 1.400 . S
C417 C416 1.387 . S
N418 Co409 2.022 . S
N418 C415 1.351 . S
N418 N419 1.365 . S
N419 C416 1.341 . S
N419 N418 1.365 . S
N419 H439 0.862 . S
C420 C415 1.501 . S
C420 H421 0.961 . S
C420 H422 0.961 . S
C420 H423 0.960 . S
H421 C420 0.961 . S
H422 C420 0.961 . S
H423 C420 0.960 . S
C424 N425 1.342 . S
C424 C428 1.401 . S
C424 C429 1.499 . S
N425 Co408 1.989 . S
N425 C424 1.342 . S
N425 N426 1.388 . S
N426 Co409 1.993 . S
N426 N425 1.388 . S
N426 C427 1.346 . S
C427 N426 1.346 . S
C427 C428 1.396 . S
C427 C437 1.510 . S
C428 C424 1.401 . S
C428 C427 1.396 . S
C429 C424 1.499 . S
C429 H430 0.959 . S
C429 H431 0.960 . S
C429 H432 0.961 . S
H430 C429 0.959 . S
H431 C429 0.960 . S
H432 C429 0.961 . S
O433 Co408 1.967 . S
O433 C441 1.258 . S
O434 Co409 1.941 . S
O434 C441 1.266 . S
H435 C437 0.959 . S
H436 C437 0.961 . S
C437 C427 1.510 . S
C437 H435 0.959 . S
C437 H436 0.961 . S
C437 H438 0.960 . S
H438 C437 0.960 . S
H439 N419 0.862 . S
O440 Co408 1.920 . S
O440 C413 1.289 . S
C441 O433 1.258 . S
C441 O434 1.266 . S
Co442 O445 1.970 . S
Co442 N459 1.989 . S
Co442 O467 1.967 . S
Co442 O474 1.920 . S
Co443 O446 1.966 . S
Co443 N452 2.022 . S
Co443 N460 1.993 . S
Co443 O468 1.941 . S
C444 O445 1.258 . S
C444 O446 1.263 . S
O445 Co442 1.970 . S
O445 C444 1.258 . S
O446 Co443 1.966 . S
O446 C444 1.263 . S
C447 O448 1.235 . S
C447 O474 1.289 . S
O448 C447 1.235 . S
C449 C451 1.400 . S
C449 N452 1.351 . S
C449 C454 1.501 . S
C450 C451 1.387 . S
C450 N453 1.341 . S
C451 C449 1.400 . S
C451 C450 1.387 . S
N452 Co443 2.022 . S
N452 C449 1.351 . S
N452 N453 1.365 . S
N453 C450 1.341 . S
N453 N452 1.365 . S
N453 H473 0.862 . S
C454 C449 1.501 . S
C454 H455 0.961 . S
C454 H456 0.961 . S
C454 H457 0.960 . S
H455 C454 0.961 . S
H456 C454 0.961 . S
H457 C454 0.960 . S
C458 N459 1.342 . S
C458 C462 1.401 . S
C458 C463 1.499 . S
N459 Co442 1.989 . S
N459 C458 1.342 . S
N459 N460 1.388 . S
N460 Co443 1.993 . S
N460 N459 1.388 . S
N460 C461 1.346 . S
C461 N460 1.346 . S
C461 C462 1.396 . S
C461 C471 1.510 . S
C462 C458 1.401 . S
C462 C461 1.396 . S
C463 C458 1.499 . S
C463 H464 0.959 . S
C463 H465 0.960 . S
C463 H466 0.961 . S
H464 C463 0.959 . S
H465 C463 0.960 . S
H466 C463 0.961 . S
O467 Co442 1.967 . S
O467 C475 1.258 . S
O468 Co443 1.941 . S
O468 C475 1.266 . S
H469 C471 0.959 . S
H470 C471 0.961 . S
C471 C461 1.510 . S
C471 H469 0.959 . S
C471 H470 0.961 . S
C471 H472 0.960 . S
H472 C471 0.960 . S
H473 N453 0.862 . S
O474 Co442 1.920 . S
O474 C447 1.289 . S
C475 O467 1.258 . S
C475 O468 1.266 . S
Co476 O479 1.970 . S
Co476 N493 1.989 . S
Co476 O501 1.967 . S
Co476 O508 1.920 . S
Co477 O480 1.966 . S
Co477 N486 2.022 . S
Co477 N494 1.993 . S
Co477 O502 1.941 . S
C478 O479 1.258 . S
C478 O480 1.263 . S
O479 Co476 1.970 . S
O479 C478 1.258 . S
O480 Co477 1.966 . S
O480 C478 1.263 . S
C481 O482 1.235 . S
C481 O508 1.289 . S
O482 C481 1.235 . S
C483 C485 1.400 . S
C483 N486 1.351 . S
C483 C488 1.501 . S
C484 C485 1.387 . S
C484 N487 1.341 . S
C485 C483 1.400 . S
C485 C484 1.387 . S
N486 Co477 2.022 . S
N486 C483 1.351 . S
N486 N487 1.365 . S
N487 C484 1.341 . S
N487 N486 1.365 . S
N487 H507 0.862 . S
C488 C483 1.501 . S
C488 H489 0.961 . S
C488 H490 0.961 . S
C488 H491 0.960 . S
H489 C488 0.961 . S
H490 C488 0.961 . S
H491 C488 0.960 . S
C492 N493 1.342 . S
C492 C496 1.401 . S
C492 C497 1.499 . S
N493 Co476 1.989 . S
N493 C492 1.342 . S
N493 N494 1.388 . S
N494 Co477 1.993 . S
N494 N493 1.388 . S
N494 C495 1.346 . S
C495 N494 1.346 . S
C495 C496 1.396 . S
C495 C505 1.510 . S
C496 C492 1.401 . S
C496 C495 1.396 . S
C497 C492 1.499 . S
C497 H498 0.959 . S
C497 H499 0.960 . S
C497 H500 0.961 . S
H498 C497 0.959 . S
H499 C497 0.960 . S
H500 C497 0.961 . S
O501 Co476 1.967 . S
O501 C509 1.258 . S
O502 Co477 1.941 . S
O502 C509 1.266 . S
H503 C505 0.959 . S
H504 C505 0.961 . S
C505 C495 1.510 . S
C505 H503 0.959 . S
C505 H504 0.961 . S
C505 H506 0.960 . S
H506 C505 0.960 . S
H507 N487 0.862 . S
O508 Co476 1.920 . S
O508 C481 1.289 . S
C509 O501 1.258 . S
C509 O502 1.266 . S
Co510 O513 1.970 . S
Co510 N527 1.989 . S
Co510 O535 1.967 . S
Co510 O542 1.920 . S
Co511 O514 1.966 . S
Co511 N520 2.022 . S
Co511 N528 1.993 . S
Co511 O536 1.941 . S
C512 O513 1.258 . S
C512 O514 1.263 . S
O513 Co510 1.970 . S
O513 C512 1.258 . S
O514 Co511 1.966 . S
O514 C512 1.263 . S
C515 O516 1.235 . S
C515 O542 1.289 . S
O516 C515 1.235 . S
C517 C519 1.400 . S
C517 N520 1.351 . S
C517 C522 1.501 . S
C518 C519 1.387 . S
C518 N521 1.341 . S
C519 C517 1.400 . S
C519 C518 1.387 . S
N520 Co511 2.022 . S
N520 C517 1.351 . S
N520 N521 1.365 . S
N521 C518 1.341 . S
N521 N520 1.365 . S
N521 H541 0.862 . S
C522 C517 1.501 . S
C522 H523 0.961 . S
C522 H524 0.961 . S
C522 H525 0.960 . S
H523 C522 0.961 . S
H524 C522 0.961 . S
H525 C522 0.960 . S
C526 N527 1.342 . S
C526 C530 1.401 . S
C526 C531 1.499 . S
N527 Co510 1.989 . S
N527 C526 1.342 . S
N527 N528 1.388 . S
N528 Co511 1.993 . S
N528 N527 1.388 . S
N528 C529 1.346 . S
C529 N528 1.346 . S
C529 C530 1.396 . S
C529 C539 1.510 . S
C530 C526 1.401 . S
C530 C529 1.396 . S
C531 C526 1.499 . S
C531 H532 0.959 . S
C531 H533 0.960 . S
C531 H534 0.961 . S
H532 C531 0.959 . S
H533 C531 0.960 . S
H534 C531 0.961 . S
O535 Co510 1.967 . S
O535 C543 1.258 . S
O536 Co511 1.941 . S
O536 C543 1.266 . S
H537 C539 0.959 . S
H538 C539 0.961 . S
C539 C529 1.510 . S
C539 H537 0.959 . S
C539 H538 0.961 . S
C539 H540 0.960 . S
H540 C539 0.960 . S
H541 N521 0.862 . S
O542 Co510 1.920 . S
O542 C515 1.289 . S
C543 O535 1.258 . S
C543 O536 1.266 . S
Co544 O547 1.970 . S
Co544 N561 1.989 . S
Co544 O569 1.967 . S
Co544 O576 1.920 . S
Co545 O548 1.966 . S
Co545 N554 2.022 . S
Co545 N562 1.993 . S
Co545 O570 1.941 . S
C546 O547 1.258 . S
C546 O548 1.263 . S
O547 Co544 1.970 . S
O547 C546 1.258 . S
O548 Co545 1.966 . S
O548 C546 1.263 . S
C549 O550 1.235 . S
C549 O576 1.289 . S
O550 C549 1.235 . S
C551 C553 1.400 . S
C551 N554 1.351 . S
C551 C556 1.501 . S
C552 C553 1.387 . S
C552 N555 1.341 . S
C553 C551 1.400 . S
C553 C552 1.387 . S
N554 Co545 2.022 . S
N554 C551 1.351 . S
N554 N555 1.365 . S
N555 C552 1.341 . S
N555 N554 1.365 . S
N555 H575 0.862 . S
C556 C551 1.501 . S
C556 H557 0.961 . S
C556 H558 0.961 . S
C556 H559 0.960 . S
H557 C556 0.961 . S
H558 C556 0.961 . S
H559 C556 0.960 . S
C560 N561 1.342 . S
C560 C564 1.401 . S
C560 C565 1.499 . S
N561 Co544 1.989 . S
N561 C560 1.342 . S
N561 N562 1.388 . S
N562 Co545 1.993 . S
N562 N561 1.388 . S
N562 C563 1.346 . S
C563 N562 1.346 . S
C563 C564 1.396 . S
C563 C573 1.510 . S
C564 C560 1.401 . S
C564 C563 1.396 . S
C565 C560 1.499 . S
C565 H566 0.959 . S
C565 H567 0.960 . S
C565 H568 0.961 . S
H566 C565 0.959 . S
H567 C565 0.960 . S
H568 C565 0.961 . S
O569 Co544 1.967 . S
O569 C577 1.258 . S
O570 Co545 1.941 . S
O570 C577 1.266 . S
H571 C573 0.959 . S
H572 C573 0.961 . S
C573 C563 1.510 . S
C573 H571 0.959 . S
C573 H572 0.961 . S
C573 H574 0.960 . S
H574 C573 0.960 . S
H575 N555 0.862 . S
O576 Co544 1.920 . S
O576 C549 1.289 . S
C577 O569 1.258 . S
C577 O570 1.266 . S
Co578 O581 1.970 . S
Co578 N595 1.989 . S
Co578 O603 1.967 . S
Co578 O610 1.920 . S
Co579 O582 1.966 . S
Co579 N588 2.022 . S
Co579 N596 1.993 . S
Co579 O604 1.941 . S
C580 O581 1.258 . S
C580 O582 1.263 . S
O581 Co578 1.970 . S
O581 C580 1.258 . S
O582 Co579 1.966 . S
O582 C580 1.263 . S
C583 O584 1.235 . S
C583 O610 1.289 . S
O584 C583 1.235 . S
C585 C587 1.400 . S
C585 N588 1.351 . S
C585 C590 1.501 . S
C586 C587 1.387 . S
C586 N589 1.341 . S
C587 C585 1.400 . S
C587 C586 1.387 . S
N588 Co579 2.022 . S
N588 C585 1.351 . S
N588 N589 1.365 . S
N589 C586 1.341 . S
N589 N588 1.365 . S
N589 H609 0.862 . S
C590 C585 1.501 . S
C590 H591 0.961 . S
C590 H592 0.961 . S
C590 H593 0.960 . S
H591 C590 0.961 . S
H592 C590 0.961 . S
H593 C590 0.960 . S
C594 N595 1.342 . S
C594 C598 1.401 . S
C594 C599 1.499 . S
N595 Co578 1.989 . S
N595 C594 1.342 . S
N595 N596 1.388 . S
N596 Co579 1.993 . S
N596 N595 1.388 . S
N596 C597 1.346 . S
C597 N596 1.346 . S
C597 C598 1.396 . S
C597 C607 1.510 . S
C598 C594 1.401 . S
C598 C597 1.396 . S
C599 C594 1.499 . S
C599 H600 0.959 . S
C599 H601 0.960 . S
C599 H602 0.961 . S
H600 C599 0.959 . S
H601 C599 0.960 . S
H602 C599 0.961 . S
O603 Co578 1.967 . S
O603 C611 1.258 . S
O604 Co579 1.941 . S
O604 C611 1.266 . S
H605 C607 0.959 . S
H606 C607 0.961 . S
C607 C597 1.510 . S
C607 H605 0.959 . S
C607 H606 0.961 . S
C607 H608 0.960 . S
H608 C607 0.960 . S
H609 N589 0.862 . S
O610 Co578 1.920 . S
O610 C583 1.289 . S
C611 O603 1.258 . S
C611 O604 1.266 . S
Co612 O615 1.970 . S
Co612 N629 1.989 . S
Co612 O637 1.967 . S
Co612 O644 1.920 . S
Co613 O616 1.966 . S
Co613 N622 2.022 . S
Co613 N630 1.993 . S
Co613 O638 1.941 . S
C614 O615 1.258 . S
C614 O616 1.263 . S
O615 Co612 1.970 . S
O615 C614 1.258 . S
O616 Co613 1.966 . S
O616 C614 1.263 . S
C617 O618 1.235 . S
C617 O644 1.289 . S
O618 C617 1.235 . S
C619 C621 1.400 . S
C619 N622 1.351 . S
C619 C624 1.501 . S
C620 C621 1.387 . S
C620 N623 1.341 . S
C621 C619 1.400 . S
C621 C620 1.387 . S
N622 Co613 2.022 . S
N622 C619 1.351 . S
N622 N623 1.365 . S
N623 C620 1.341 . S
N623 N622 1.365 . S
N623 H643 0.862 . S
C624 C619 1.501 . S
C624 H625 0.961 . S
C624 H626 0.961 . S
C624 H627 0.960 . S
H625 C624 0.961 . S
H626 C624 0.961 . S
H627 C624 0.960 . S
C628 N629 1.342 . S
C628 C632 1.401 . S
C628 C633 1.499 . S
N629 Co612 1.989 . S
N629 C628 1.342 . S
N629 N630 1.388 . S
N630 Co613 1.993 . S
N630 N629 1.388 . S
N630 C631 1.346 . S
C631 N630 1.346 . S
C631 C632 1.396 . S
C631 C641 1.510 . S
C632 C628 1.401 . S
C632 C631 1.396 . S
C633 C628 1.499 . S
C633 H634 0.959 . S
C633 H635 0.960 . S
C633 H636 0.961 . S
H634 C633 0.959 . S
H635 C633 0.960 . S
H636 C633 0.961 . S
O637 Co612 1.967 . S
O637 C645 1.258 . S
O638 Co613 1.941 . S
O638 C645 1.266 . S
H639 C641 0.959 . S
H640 C641 0.961 . S
C641 C631 1.510 . S
C641 H639 0.959 . S
C641 H640 0.961 . S
C641 H642 0.960 . S
H642 C641 0.960 . S
H643 N623 0.862 . S
O644 Co612 1.920 . S
O644 C617 1.289 . S
C645 O637 1.258 . S
C645 O638 1.266 . S
Co646 O649 1.970 . S
Co646 N663 1.989 . S
Co646 O671 1.967 . S
Co646 O678 1.920 . S
Co647 O650 1.966 . S
Co647 N656 2.022 . S
Co647 N664 1.993 . S
Co647 O672 1.941 . S
C648 O649 1.258 . S
C648 O650 1.263 . S
O649 Co646 1.970 . S
O649 C648 1.258 . S
O650 Co647 1.966 . S
O650 C648 1.263 . S
C651 O652 1.235 . S
C651 O678 1.289 . S
O652 C651 1.235 . S
C653 C655 1.400 . S
C653 N656 1.351 . S
C653 C658 1.501 . S
C654 C655 1.387 . S
C654 N657 1.341 . S
C655 C653 1.400 . S
C655 C654 1.387 . S
N656 Co647 2.022 . S
N656 C653 1.351 . S
N656 N657 1.365 . S
N657 C654 1.341 . S
N657 N656 1.365 . S
N657 H677 0.862 . S
C658 C653 1.501 . S
C658 H659 0.961 . S
C658 H660 0.961 . S
C658 H661 0.960 . S
H659 C658 0.961 . S
H660 C658 0.961 . S
H661 C658 0.960 . S
C662 N663 1.342 . S
C662 C666 1.401 . S
C662 C667 1.499 . S
N663 Co646 1.989 . S
N663 C662 1.342 . S
N663 N664 1.388 . S
N664 Co647 1.993 . S
N664 N663 1.388 . S
N664 C665 1.346 . S
C665 N664 1.346 . S
C665 C666 1.396 . S
C665 C675 1.510 . S
C666 C662 1.401 . S
C666 C665 1.396 . S
C667 C662 1.499 . S
C667 H668 0.959 . S
C667 H669 0.960 . S
C667 H670 0.961 . S
H668 C667 0.959 . S
H669 C667 0.960 . S
H670 C667 0.961 . S
O671 Co646 1.967 . S
O671 C679 1.258 . S
O672 Co647 1.941 . S
O672 C679 1.266 . S
H673 C675 0.959 . S
H674 C675 0.961 . S
C675 C665 1.510 . S
C675 H673 0.959 . S
C675 H674 0.961 . S
C675 H676 0.960 . S
H676 C675 0.960 . S
H677 N657 0.862 . S
O678 Co646 1.920 . S
O678 C651 1.289 . S
C679 O671 1.258 . S
C679 O672 1.266 . S
Co680 O683 1.970 . S
Co680 N697 1.989 . S
Co680 O705 1.967 . S
Co680 O712 1.920 . S
Co681 O684 1.966 . S
Co681 N690 2.022 . S
Co681 N698 1.993 . S
Co681 O706 1.941 . S
C682 O683 1.258 . S
C682 O684 1.263 . S
O683 Co680 1.970 . S
O683 C682 1.258 . S
O684 Co681 1.966 . S
O684 C682 1.263 . S
C685 O686 1.235 . S
C685 O712 1.289 . S
O686 C685 1.235 . S
C687 C689 1.400 . S
C687 N690 1.351 . S
C687 C692 1.501 . S
C688 C689 1.387 . S
C688 N691 1.341 . S
C689 C687 1.400 . S
C689 C688 1.387 . S
N690 Co681 2.022 . S
N690 C687 1.351 . S
N690 N691 1.365 . S
N691 C688 1.341 . S
N691 N690 1.365 . S
N691 H711 0.862 . S
C692 C687 1.501 . S
C692 H693 0.961 . S
C692 H694 0.961 . S
C692 H695 0.960 . S
H693 C692 0.961 . S
H694 C692 0.961 . S
H695 C692 0.960 . S
C696 N697 1.342 . S
C696 C700 1.401 . S
C696 C701 1.499 . S
N697 Co680 1.989 . S
N697 C696 1.342 . S
N697 N698 1.388 . S
N698 Co681 1.993 . S
N698 N697 1.388 . S
N698 C699 1.346 . S
C699 N698 1.346 . S
C699 C700 1.396 . S
C699 C709 1.510 . S
C700 C696 1.401 . S
C700 C699 1.396 . S
C701 C696 1.499 . S
C701 H702 0.959 . S
C701 H703 0.960 . S
C701 H704 0.961 . S
H702 C701 0.959 . S
H703 C701 0.960 . S
H704 C701 0.961 . S
O705 Co680 1.967 . S
O705 C713 1.258 . S
O706 Co681 1.941 . S
O706 C713 1.266 . S
H707 C709 0.959 . S
H708 C709 0.961 . S
C709 C699 1.510 . S
C709 H707 0.959 . S
C709 H708 0.961 . S
C709 H710 0.960 . S
H710 C709 0.960 . S
H711 N691 0.862 . S
O712 Co680 1.920 . S
O712 C685 1.289 . S
C713 O705 1.258 . S
C713 O706 1.266 . S
Co714 O717 1.970 . S
Co714 N731 1.989 . S
Co714 O739 1.967 . S
Co714 O746 1.920 . S
Co715 O718 1.966 . S
Co715 N724 2.022 . S
Co715 N732 1.993 . S
Co715 O740 1.941 . S
C716 O717 1.258 . S
C716 O718 1.263 . S
O717 Co714 1.970 . S
O717 C716 1.258 . S
O718 Co715 1.966 . S
O718 C716 1.263 . S
C719 O720 1.235 . S
C719 O746 1.289 . S
O720 C719 1.235 . S
C721 C723 1.400 . S
C721 N724 1.351 . S
C721 C726 1.501 . S
C722 C723 1.387 . S
C722 N725 1.341 . S
C723 C721 1.400 . S
C723 C722 1.387 . S
N724 Co715 2.022 . S
N724 C721 1.351 . S
N724 N725 1.365 . S
N725 C722 1.341 . S
N725 N724 1.365 . S
N725 H745 0.862 . S
C726 C721 1.501 . S
C726 H727 0.961 . S
C726 H728 0.961 . S
C726 H729 0.960 . S
H727 C726 0.961 . S
H728 C726 0.961 . S
H729 C726 0.960 . S
C730 N731 1.342 . S
C730 C734 1.401 . S
C730 C735 1.499 . S
N731 Co714 1.989 . S
N731 C730 1.342 . S
N731 N732 1.388 . S
N732 Co715 1.993 . S
N732 N731 1.388 . S
N732 C733 1.346 . S
C733 N732 1.346 . S
C733 C734 1.396 . S
C733 C743 1.510 . S
C734 C730 1.401 . S
C734 C733 1.396 . S
C735 C730 1.499 . S
C735 H736 0.959 . S
C735 H737 0.960 . S
C735 H738 0.961 . S
H736 C735 0.959 . S
H737 C735 0.960 . S
H738 C735 0.961 . S
O739 Co714 1.967 . S
O739 C747 1.258 . S
O740 Co715 1.941 . S
O740 C747 1.266 . S
H741 C743 0.959 . S
H742 C743 0.961 . S
C743 C733 1.510 . S
C743 H741 0.959 . S
C743 H742 0.961 . S
C743 H744 0.960 . S
H744 C743 0.960 . S
H745 N725 0.862 . S
O746 Co714 1.920 . S
O746 C719 1.289 . S
C747 O739 1.258 . S
C747 O740 1.266 . S
Co748 O751 1.970 . S
Co748 N765 1.989 . S
Co748 O773 1.967 . S
Co748 O780 1.920 . S
Co749 O752 1.966 . S
Co749 N758 2.022 . S
Co749 N766 1.993 . S
Co749 O774 1.941 . S
C750 O751 1.258 . S
C750 O752 1.263 . S
O751 Co748 1.970 . S
O751 C750 1.258 . S
O752 Co749 1.966 . S
O752 C750 1.263 . S
C753 O754 1.235 . S
C753 O780 1.289 . S
O754 C753 1.235 . S
C755 C757 1.400 . S
C755 N758 1.351 . S
C755 C760 1.501 . S
C756 C757 1.387 . S
C756 N759 1.341 . S
C757 C755 1.400 . S
C757 C756 1.387 . S
N758 Co749 2.022 . S
N758 C755 1.351 . S
N758 N759 1.365 . S
N759 C756 1.341 . S
N759 N758 1.365 . S
N759 H779 0.862 . S
C760 C755 1.501 . S
C760 H761 0.961 . S
C760 H762 0.961 . S
C760 H763 0.960 . S
H761 C760 0.961 . S
H762 C760 0.961 . S
H763 C760 0.960 . S
C764 N765 1.342 . S
C764 C768 1.401 . S
C764 C769 1.499 . S
N765 Co748 1.989 . S
N765 C764 1.342 . S
N765 N766 1.388 . S
N766 Co749 1.993 . S
N766 N765 1.388 . S
N766 C767 1.346 . S
C767 N766 1.346 . S
C767 C768 1.396 . S
C767 C777 1.510 . S
C768 C764 1.401 . S
C768 C767 1.396 . S
C769 C764 1.499 . S
C769 H770 0.959 . S
C769 H771 0.960 . S
C769 H772 0.961 . S
H770 C769 0.959 . S
H771 C769 0.960 . S
H772 C769 0.961 . S
O773 Co748 1.967 . S
O773 C781 1.258 . S
O774 Co749 1.941 . S
O774 C781 1.266 . S
H775 C777 0.959 . S
H776 C777 0.961 . S
C777 C767 1.510 . S
C777 H775 0.959 . S
C777 H776 0.961 . S
C777 H778 0.960 . S
H778 C777 0.960 . S
H779 N759 0.862 . S
O780 Co748 1.920 . S
O780 C753 1.289 . S
C781 O773 1.258 . S
C781 O774 1.266 . S
Co782 O785 1.970 . S
Co782 N799 1.989 . S
Co782 O807 1.967 . S
Co782 O814 1.920 . S
Co783 O786 1.966 . S
Co783 N792 2.022 . S
Co783 N800 1.993 . S
Co783 O808 1.941 . S
C784 O785 1.258 . S
C784 O786 1.263 . S
O785 Co782 1.970 . S
O785 C784 1.258 . S
O786 Co783 1.966 . S
O786 C784 1.263 . S
C787 O788 1.235 . S
C787 O814 1.289 . S
O788 C787 1.235 . S
C789 C791 1.400 . S
C789 N792 1.351 . S
C789 C794 1.501 . S
C790 C791 1.387 . S
C790 N793 1.341 . S
C791 C789 1.400 . S
C791 C790 1.387 . S
N792 Co783 2.022 . S
N792 C789 1.351 . S
N792 N793 1.365 . S
N793 C790 1.341 . S
N793 N792 1.365 . S
N793 H813 0.862 . S
C794 C789 1.501 . S
C794 H795 0.961 . S
C794 H796 0.961 . S
C794 H797 0.960 . S
H795 C794 0.961 . S
H796 C794 0.961 . S
H797 C794 0.960 . S
C798 N799 1.342 . S
C798 C802 1.401 . S
C798 C803 1.499 . S
N799 Co782 1.989 . S
N799 C798 1.342 . S
N799 N800 1.388 . S
N800 Co783 1.993 . S
N800 N799 1.388 . S
N800 C801 1.346 . S
C801 N800 1.346 . S
C801 C802 1.396 . S
C801 C811 1.510 . S
C802 C798 1.401 . S
C802 C801 1.396 . S
C803 C798 1.499 . S
C803 H804 0.959 . S
C803 H805 0.960 . S
C803 H806 0.961 . S
H804 C803 0.959 . S
H805 C803 0.960 . S
H806 C803 0.961 . S
O807 Co782 1.967 . S
O807 C815 1.258 . S
O808 Co783 1.941 . S
O808 C815 1.266 . S
H809 C811 0.959 . S
H810 C811 0.961 . S
C811 C801 1.510 . S
C811 H809 0.959 . S
C811 H810 0.961 . S
C811 H812 0.960 . S
H812 C811 0.960 . S
H813 N793 0.862 . S
O814 Co782 1.920 . S
O814 C787 1.289 . S
C815 O807 1.258 . S
C815 O808 1.266 . S
C9 C787 1.464 . S
C43 C685 1.464 . S
C77 C753 1.464 . S
C111 C719 1.464 . S
C481 C145 1.464 . S
C179 C515 1.464 . S
C413 C213 1.464 . S
C447 C247 1.464 . S
C651 C281 1.464 . S
C315 C583 1.464 . S
C549 C349 1.464 . S
C383 C617 1.464 . S
C88 C682 3.530 . S
C122 C784 3.530 . S
C716 C20 3.530 . S
C750 C54 3.530 . S
C410 C258 3.530 . S
C444 C224 3.530 . S
C478 C190 3.530 . S
C156 C512 3.530 . S
C394 C546 3.530 . S
C614 C360 3.530 . S
C326 C648 3.530 . S
C580 C292 3.530 . S
C417 C379 1.464 . S
C277 C451 1.464 . S
C345 C485 1.464 . S
C311 C519 1.464 . S
C73 C553 1.464 . S
C107 C587 1.464 . S
C5 C621 1.464 . S
C655 C39 1.464 . S
C689 C243 1.464 . S
C723 C175 1.464 . S
C141 C757 1.464 . S
C791 C209 1.464 . S
C274 C496 3.530 . S
C376 C530 3.530 . S
C308 C428 3.530 . S
C462 C342 3.530 . S
C2 C666 3.530 . S
C36 C632 3.530 . S
C70 C598 3.530 . S
C564 C104 3.530 . S
C802 C138 3.530 . S
C768 C206 3.530 . S
C240 C734 3.530 . S
C700 C172 3.530 . S
C33 C67 2.126 . S
C101 C135 2.126 . S
C169 C237 2.126 . S
C271 C203 2.126 . S
C305 C373 2.126 . S
C407 C339 2.126 . S
C475 C441 2.126 1_545 S
C543 C509 2.126 1_565 S
C645 C577 2.126 1_554 S
C611 C679 2.126 1_556 S
C713 C781 2.126 1_655 S
C815 C747 2.126 1_455 S
