# Generated by pormake.
# Topology pcl, (4)-cn, num edge types: 1
# Building blocks:
#     Node 0, Type 0, BuildingBlock: CEKHIL_clean_sbu_0, # of connection points: 4
#     Node 1, Type 0, BuildingBlock: CEKHIL_clean_sbu_0, # of connection points: 4
#     Node 2, Type 0, BuildingBlock: CEKHIL_clean_sbu_0, # of connection points: 4
#     Node 3, Type 0, BuildingBlock: CEKHIL_clean_sbu_0, # of connection points: 4
#     Node 4, Type 0, BuildingBlock: CEKHIL_clean_sbu_0, # of connection points: 4
#     Node 5, Type 0, BuildingBlock: CEKHIL_clean_sbu_0, # of connection points: 4
#     Node 6, Type 0, BuildingBlock: CEKHIL_clean_sbu_0, # of connection points: 4
#     Node 7, Type 0, BuildingBlock: CEKHIL_clean_sbu_0, # of connection points: 4
#     Node 8, Type 0, BuildingBlock: CEKHIL_clean_sbu_0, # of connection points: 4
#     Node 9, Type 0, BuildingBlock: CEKHIL_clean_sbu_0, # of connection points: 4
#     Node 10, Type 0, BuildingBlock: CEKHIL_clean_sbu_0, # of connection points: 4
#     Node 11, Type 0, BuildingBlock: CEKHIL_clean_sbu_0, # of connection points: 4
#     Node 12, Type 0, BuildingBlock: CEKHIL_clean_sbu_0, # of connection points: 4
#     Node 13, Type 0, BuildingBlock: CEKHIL_clean_sbu_0, # of connection points: 4
#     Node 14, Type 0, BuildingBlock: CEKHIL_clean_sbu_0, # of connection points: 4
#     Node 15, Type 0, BuildingBlock: CEKHIL_clean_sbu_0, # of connection points: 4
#     Edge 16, Type (0, 0), BuildingBlock: TEMPAE_clean_linker_10, # of connection points: 2
#     Edge 17, Type (0, 0), BuildingBlock: TEMPAE_clean_linker_10, # of connection points: 2
#     Edge 18, Type (0, 0), BuildingBlock: TEMPAE_clean_linker_10, # of connection points: 2
#     Edge 19, Type (0, 0), BuildingBlock: TEMPAE_clean_linker_10, # of connection points: 2
#     Edge 20, Type (0, 0), BuildingBlock: TEMPAE_clean_linker_10, # of connection points: 2
#     Edge 21, Type (0, 0), BuildingBlock: TEMPAE_clean_linker_10, # of connection points: 2
#     Edge 22, Type (0, 0), BuildingBlock: TEMPAE_clean_linker_10, # of connection points: 2
#     Edge 23, Type (0, 0), BuildingBlock: TEMPAE_clean_linker_10, # of connection points: 2
#     Edge 24, Type (0, 0), BuildingBlock: TEMPAE_clean_linker_10, # of connection points: 2
#     Edge 25, Type (0, 0), BuildingBlock: TEMPAE_clean_linker_10, # of connection points: 2
#     Edge 26, Type (0, 0), BuildingBlock: TEMPAE_clean_linker_10, # of connection points: 2
#     Edge 27, Type (0, 0), BuildingBlock: TEMPAE_clean_linker_10, # of connection points: 2
#     Edge 28, Type (0, 0), BuildingBlock: TEMPAE_clean_linker_10, # of connection points: 2
#     Edge 29, Type (0, 0), BuildingBlock: TEMPAE_clean_linker_10, # of connection points: 2
#     Edge 30, Type (0, 0), BuildingBlock: TEMPAE_clean_linker_10, # of connection points: 2
#     Edge 31, Type (0, 0), BuildingBlock: TEMPAE_clean_linker_10, # of connection points: 2
#     Edge 32, Type (0, 0), BuildingBlock: TEMPAE_clean_linker_10, # of connection points: 2
#     Edge 33, Type (0, 0), BuildingBlock: TEMPAE_clean_linker_10, # of connection points: 2
#     Edge 34, Type (0, 0), BuildingBlock: TEMPAE_clean_linker_10, # of connection points: 2
#     Edge 35, Type (0, 0), BuildingBlock: TEMPAE_clean_linker_10, # of connection points: 2
#     Edge 36, Type (0, 0), BuildingBlock: TEMPAE_clean_linker_10, # of connection points: 2
#     Edge 37, Type (0, 0), BuildingBlock: TEMPAE_clean_linker_10, # of connection points: 2
#     Edge 38, Type (0, 0), BuildingBlock: TEMPAE_clean_linker_10, # of connection points: 2
#     Edge 39, Type (0, 0), BuildingBlock: TEMPAE_clean_linker_10, # of connection points: 2
#     Edge 40, Type (0, 0), BuildingBlock: TEMPAE_clean_linker_10, # of connection points: 2
#     Edge 41, Type (0, 0), BuildingBlock: TEMPAE_clean_linker_10, # of connection points: 2
#     Edge 42, Type (0, 0), BuildingBlock: TEMPAE_clean_linker_10, # of connection points: 2
#     Edge 43, Type (0, 0), BuildingBlock: TEMPAE_clean_linker_10, # of connection points: 2
#     Edge 44, Type (0, 0), BuildingBlock: TEMPAE_clean_linker_10, # of connection points: 2
#     Edge 45, Type (0, 0), BuildingBlock: TEMPAE_clean_linker_10, # of connection points: 2
#     Edge 46, Type (0, 0), BuildingBlock: TEMPAE_clean_linker_10, # of connection points: 2
#     Edge 47, Type (0, 0), BuildingBlock: TEMPAE_clean_linker_10, # of connection points: 2
# Relax obj value: 0.073
# Max RMSD: 0.055
# Mean RMSD: 0.054
data_MOF--net-pcl--node1-CEKHIL_clean_sbu_0--edge1-TEMPAE_clean_linker_10
_symmetry_space_group_name_H-M    P1
_symmetry_Int_Tables_number       1
_symmetry_cell_setting            triclinic
loop_
_symmetry_equiv_pos_as_xyz
'x, y, z'
_cell_length_a     53.262609
_cell_length_b     41.36124
_cell_length_c     43.217469
_cell_angle_alpha  89.98425
_cell_angle_beta   90.000016
_cell_angle_gamma 89.992763
loop_
_atom_site_label
_atom_site_type_symbol
_atom_site_fract_x
_atom_site_fract_y
_atom_site_fract_z
_atom_type_partial_charge
Co0 Co 0.14101 0.34342 0.07206 0.0
O1 O 0.17702 0.33708 0.0708 0.0
O2 O 0.14895 0.30046 0.05682 0.0
C3 C 0.14154 0.39249 0.04888 0.0
O4 O 0.10242 0.34133 0.06901 0.0
Co5 Co 0.11667 0.40082 0.10784 0.0
O6 O 0.08676 0.38964 0.08303 0.0
C7 C 0.13377 0.34245 0.14201 0.0
C8 C 0.17242 0.30864 0.05954 0.0
C9 C 0.08405 0.3616 0.07137 0.0
O10 O 0.14 0.32803 0.11667 0.0
O11 O 0.12542 0.37148 0.14307 0.0
O12 O 0.14257 0.3663 0.0324 0.0
O13 O 0.1421 0.38839 0.07845 0.0
Co14 Co 0.86929 0.66 0.56858 0.0
O15 O 0.83322 0.66438 0.56668 0.0
O16 O 0.85994 0.70344 0.55543 0.0
C17 C 0.87029 0.61195 0.54349 0.0
O18 O 0.90785 0.66397 0.56623 0.0
Co19 Co 0.89468 0.60198 0.60252 0.0
O20 O 0.92431 0.61546 0.57825 0.0
C21 C 0.87596 0.65813 0.63866 0.0
C22 C 0.83674 0.69365 0.55685 0.0
C23 C 0.92654 0.64408 0.56775 0.0
O24 O 0.86949 0.67333 0.61382 0.0
O25 O 0.88498 0.62942 0.6387 0.0
O26 O 0.86874 0.63875 0.52795 0.0
O27 O 0.86941 0.61484 0.57315 0.0
Co28 Co 0.14223 0.66324 0.93031 0.0
O29 O 0.17805 0.66691 0.93544 0.0
O30 O 0.15135 0.70674 0.94389 0.0
C31 C 0.13919 0.61555 0.95567 0.0
O32 O 0.10363 0.66717 0.92872 0.0
Co33 Co 0.12034 0.60504 0.89309 0.0
O34 O 0.08856 0.61897 0.9129 0.0
C35 C 0.14467 0.65924 0.86026 0.0
C36 C 0.17445 0.69638 0.94448 0.0
C37 C 0.08533 0.64717 0.9241 0.0
O38 O 0.1451 0.67622 0.88524 0.0
O39 O 0.13778 0.62961 0.85927 0.0
O40 O 0.13997 0.64249 0.97106 0.0
O41 O 0.14227 0.61815 0.92621 0.0
Co42 Co 0.86857 0.33849 0.43058 0.0
O43 O 0.83306 0.33293 0.43755 0.0
O44 O 0.8615 0.29501 0.44587 0.0
C45 C 0.87068 0.38732 0.45402 0.0
O46 O 0.90719 0.33659 0.42757 0.0
Co47 Co 0.88767 0.39637 0.39054 0.0
O48 O 0.92042 0.38467 0.4092 0.0
C49 C 0.86469 0.33954 0.36044 0.0
C50 C 0.83809 0.30401 0.44721 0.0
C51 C 0.9248 0.35716 0.42138 0.0
O52 O 0.86497 0.32363 0.38608 0.0
O53 O 0.8708 0.36936 0.35812 0.0
O54 O 0.87121 0.36102 0.47044 0.0
O55 O 0.86692 0.38332 0.42483 0.0
Co56 Co 0.84424 0.66846 0.91321 0.0
O57 O 0.80884 0.67579 0.91911 0.0
O58 O 0.83834 0.69309 0.951 0.0
C59 C 0.84418 0.68126 0.86225 0.0
O60 O 0.88284 0.66658 0.9136 0.0
Co61 Co 0.8621 0.61521 0.86725 0.0
O62 O 0.89549 0.63547 0.87382 0.0
C63 C 0.84058 0.59673 0.92744 0.0
C64 C 0.81456 0.69138 0.94412 0.0
C65 C 0.90028 0.65471 0.89612 0.0
O66 O 0.84201 0.62626 0.93684 0.0
O67 O 0.84512 0.58809 0.89956 0.0
O68 O 0.8457 0.70407 0.88288 0.0
O69 O 0.84103 0.65259 0.87311 0.0
Co70 Co 0.16644 0.33111 0.41567 0.0
O71 O 0.2018 0.32348 0.42176 0.0
O72 O 0.1721 0.30662 0.45361 0.0
C73 C 0.16651 0.31821 0.36471 0.0
O74 O 0.12787 0.33329 0.41587 0.0
Co75 Co 0.14882 0.3843 0.36938 0.0
O76 O 0.11556 0.36332 0.37514 0.0
C77 C 0.17011 0.40287 0.42967 0.0
C78 C 0.1959 0.30808 0.44683 0.0
C79 C 0.11064 0.34452 0.39776 0.0
O80 O 0.16871 0.37337 0.43915 0.0
O81 O 0.16564 0.4115 0.40176 0.0
O82 O 0.16493 0.29543 0.38539 0.0
O83 O 0.16976 0.34686 0.37555 0.0
Co84 Co 0.8443 0.33432 0.08439 0.0
O85 O 0.80858 0.32826 0.08008 0.0
O86 O 0.83685 0.3098 0.04708 0.0
C87 C 0.84619 0.3217 0.13533 0.0
O88 O 0.88282 0.33481 0.08218 0.0
Co89 Co 0.86449 0.38783 0.1288 0.0
O90 O 0.89711 0.36598 0.12111 0.0
C91 C 0.84169 0.40606 0.06952 0.0
C92 C 0.81333 0.31234 0.05491 0.0
C93 C 0.90086 0.34626 0.09888 0.0
O94 O 0.84241 0.37638 0.0605 0.0
O95 O 0.84703 0.41511 0.09704 0.0
O96 O 0.84571 0.29876 0.11475 0.0
O97 O 0.84313 0.35048 0.12461 0.0
Co98 Co 0.16603 0.66709 0.58376 0.0
O99 O 0.20181 0.67307 0.57961 0.0
O100 O 0.17364 0.69145 0.54642 0.0
C101 C 0.16389 0.67977 0.63465 0.0
O102 O 0.12751 0.66689 0.58129 0.0
Co103 Co 0.14538 0.61377 0.62814 0.0
O104 O 0.11277 0.63529 0.61964 0.0
C105 C 0.16889 0.59529 0.56936 0.0
C106 C 0.19713 0.68892 0.55436 0.0
C107 C 0.10927 0.65531 0.59759 0.0
O108 O 0.16797 0.62488 0.56004 0.0
O109 O 0.16347 0.58652 0.59695 0.0
O110 O 0.1646 0.70271 0.61408 0.0
O111 O 0.16691 0.65097 0.62401 0.0
Co112 Co 0.64403 0.8421 0.07335 0.0
O113 O 0.67961 0.83805 0.06669 0.0
O114 O 0.65236 0.79876 0.0586 0.0
C115 C 0.64047 0.89034 0.04907 0.0
O116 O 0.60545 0.83893 0.07646 0.0
Co117 Co 0.62446 0.89985 0.11311 0.0
O118 O 0.59176 0.88667 0.0952 0.0
C119 C 0.64966 0.8447 0.14319 0.0
C120 C 0.67554 0.80879 0.05735 0.0
C121 C 0.58763 0.85912 0.08295 0.0
O122 O 0.64813 0.82807 0.11804 0.0
O123 O 0.64368 0.87463 0.1449 0.0
O124 O 0.64069 0.86374 0.03312 0.0
O125 O 0.64461 0.88702 0.07827 0.0
Co126 Co 0.36854 0.16096 0.57469 0.0
O127 O 0.33261 0.16502 0.57114 0.0
O128 O 0.35935 0.20408 0.5601 0.0
C129 C 0.36996 0.11241 0.55061 0.0
O130 O 0.40715 0.16476 0.57402 0.0
Co131 Co 0.39264 0.1038 0.61057 0.0
O132 O 0.42265 0.11586 0.58626 0.0
C133 C 0.37331 0.16076 0.64497 0.0
C134 C 0.33616 0.19407 0.56087 0.0
C135 C 0.42554 0.14443 0.57585 0.0
O136 O 0.36725 0.1753 0.61962 0.0
O137 O 0.38249 0.13216 0.64591 0.0
O138 O 0.36968 0.13894 0.53453 0.0
O139 O 0.36797 0.11593 0.58014 0.0
Co140 Co 0.64088 0.16065 0.93093 0.0
O141 O 0.67649 0.1645 0.93747 0.0
O142 O 0.64943 0.20423 0.94469 0.0
C143 C 0.63712 0.1131 0.95628 0.0
O144 O 0.60238 0.16438 0.92779 0.0
Co145 Co 0.62055 0.10231 0.89264 0.0
O146 O 0.58793 0.11667 0.90992 0.0
C147 C 0.64566 0.15657 0.86107 0.0
C148 C 0.67254 0.19401 0.94618 0.0
C149 C 0.58426 0.14459 0.92157 0.0
O150 O 0.64493 0.17359 0.886 0.0
O151 O 0.63918 0.12681 0.85978 0.0
O152 O 0.63752 0.14007 0.97163 0.0
O153 O 0.64117 0.11555 0.92698 0.0
Co154 Co 0.36845 0.84239 0.4302 0.0
O155 O 0.3327 0.83717 0.43474 0.0
O156 O 0.36047 0.799 0.44499 0.0
C157 C 0.36941 0.89094 0.45413 0.0
O158 O 0.40707 0.83977 0.42994 0.0
Co159 Co 0.39094 0.90004 0.39362 0.0
O160 O 0.42163 0.88893 0.41707 0.0
C161 C 0.37269 0.84213 0.35989 0.0
C162 C 0.33708 0.80824 0.44485 0.0
C163 C 0.42512 0.8605 0.42755 0.0
O164 O 0.36675 0.82782 0.38538 0.0
O165 O 0.38158 0.87086 0.35856 0.0
O166 O 0.36992 0.86447 0.47026 0.0
O167 O 0.36689 0.88744 0.42466 0.0
Co168 Co 0.34364 0.1732 0.91869 0.0
O169 O 0.30837 0.17832 0.92772 0.0
O170 O 0.33908 0.19829 0.95639 0.0
C171 C 0.34065 0.18575 0.86777 0.0
O172 O 0.38218 0.17336 0.91625 0.0
Co173 Co 0.36138 0.1213 0.87117 0.0
O174 O 0.39428 0.14347 0.87537 0.0
C175 C 0.34281 0.1015 0.93264 0.0
C176 C 0.31507 0.19479 0.95186 0.0
C177 C 0.39925 0.16268 0.89764 0.0
O178 O 0.34396 0.13094 0.94242 0.0
O179 O 0.34637 0.09344 0.90438 0.0
O180 O 0.34237 0.20868 0.88823 0.0
O181 O 0.33899 0.15696 0.87888 0.0
Co182 Co 0.66524 0.82939 0.41459 0.0
O183 O 0.70109 0.82421 0.41935 0.0
O184 O 0.67301 0.80904 0.45406 0.0
C185 C 0.66365 0.81123 0.36516 0.0
O186 O 0.62662 0.82918 0.41723 0.0
Co187 Co 0.64349 0.8764 0.36464 0.0
O188 O 0.61109 0.85642 0.37635 0.0
C189 C 0.66467 0.90279 0.42252 0.0
C190 C 0.69649 0.81072 0.44585 0.0
C191 C 0.60809 0.83876 0.40023 0.0
O192 O 0.6668 0.87407 0.43399 0.0
O193 O 0.65794 0.90818 0.39455 0.0
O194 O 0.66427 0.79064 0.38787 0.0
O195 O 0.66609 0.8411 0.37287 0.0
Co196 Co 0.34595 0.83517 0.08486 0.0
O197 O 0.31036 0.82963 0.07878 0.0
O198 O 0.33939 0.81065 0.04715 0.0
C199 C 0.34523 0.82254 0.1359 0.0
O200 O 0.38459 0.83507 0.08471 0.0
Co201 Co 0.36552 0.8873 0.13111 0.0
O202 O 0.39781 0.86387 0.12582 0.0
C203 C 0.34476 0.907 0.07079 0.0
C204 C 0.31566 0.81347 0.05395 0.0
C205 C 0.40212 0.84497 0.1031 0.0
O206 O 0.34517 0.87747 0.06122 0.0
O207 O 0.3496 0.91533 0.09868 0.0
O208 O 0.34606 0.79961 0.11534 0.0
O209 O 0.34316 0.85131 0.12489 0.0
Co210 Co 0.66565 0.16375 0.58454 0.0
O211 O 0.70164 0.16689 0.5795 0.0
O212 O 0.67393 0.18831 0.54752 0.0
C213 C 0.6652 0.17582 0.63568 0.0
O214 O 0.62701 0.16691 0.5828 0.0
Co215 Co 0.64179 0.11301 0.62915 0.0
O216 O 0.61133 0.13972 0.62353 0.0
C217 C 0.66041 0.09225 0.56794 0.0
C218 C 0.6974 0.18381 0.55476 0.0
C219 C 0.60855 0.15876 0.6006 0.0
O220 O 0.66528 0.12175 0.56024 0.0
O221 O 0.65237 0.08391 0.59467 0.0
O222 O 0.66652 0.1989 0.61532 0.0
O223 O 0.66633 0.14693 0.62468 0.0
C224 C 0.04956 0.32003 0.07015 0.0
C225 C 0.05791 0.35161 0.06423 0.0
C226 C 0.02367 0.31288 0.07124 0.0
C227 C 0.00587 0.33787 0.06624 0.0
C228 C 0.01438 0.36893 0.05727 0.0
C229 C 0.04021 0.37538 0.05643 0.0
C230 C 0.01546 0.27929 0.08029 0.0
C231 C 0.99622 0.3963 0.05135 0.0
C232 C 0.93466 0.32815 0.06164 0.0
C233 C 0.92746 0.33839 0.09133 0.0
C234 C 0.96026 0.32572 0.05347 0.0
C235 C 0.979 0.33372 0.07549 0.0
C236 C 0.97175 0.34187 0.10603 0.0
C237 C 0.9462 0.34408 0.11352 0.0
C238 C 0.96715 0.31646 0.0208 0.0
C239 C 0.99097 0.35033 0.13044 0.0
H240 H 0.0631 0.30152 0.0762 0.0
H241 H 0.04656 0.39975 0.05141 0.0
H242 H 0.01013 0.27914 0.10511 0.0
H243 H 0.99876 0.27169 0.06678 0.0
H244 H 0.0307 0.26132 0.07683 0.0
H245 H 0.0056 0.41765 0.04087 0.0
H246 H 0.98088 0.38834 0.03577 0.0
H247 H 0.98754 0.40387 0.07354 0.0
H248 H 0.92037 0.32357 0.04433 0.0
H249 H 0.9409 0.35144 0.13669 0.0
H250 H 0.98338 0.29964 0.02063 0.0
H251 H 0.97275 0.33843 0.0078 0.0
H252 H 0.95118 0.30495 0.00848 0.0
H253 H 1.00551 0.3312 0.13195 0.0
H254 H 0.9824 0.3535 0.15368 0.0
H255 H 1.00058 0.37318 0.12401 0.0
C256 C 0.97005 0.6318 0.55069 0.0
C257 C 0.95252 0.65481 0.5608 0.0
C258 C 0.99591 0.63791 0.55195 0.0
C259 C 1.00461 0.66784 0.5637 0.0
C260 C 0.98697 0.69242 0.57092 0.0
C261 C 0.96103 0.68561 0.56939 0.0
C262 C 0.01388 0.61102 0.54364 0.0
C263 C 0.9954 0.7249 0.58287 0.0
C264 C 0.06367 0.65623 0.61122 0.0
C265 C 0.08275 0.66368 0.58994 0.0
C266 C 0.03824 0.65945 0.60347 0.0
C267 C 0.03143 0.67058 0.57364 0.0
C268 C 0.05051 0.68026 0.5527 0.0
C269 C 0.07599 0.67665 0.56107 0.0
C270 C 0.01865 0.64899 0.62672 0.0
C271 C 0.0441 0.69278 0.52089 0.0
H272 H 0.96355 0.60807 0.54363 0.0
H273 H 0.9476 0.70352 0.57725 0.0
H274 H 0.02938 0.62029 0.529 0.0
H275 H 0.02236 0.60108 0.56509 0.0
H276 H 1.00438 0.59099 0.53115 0.0
H277 H 0.98031 0.74333 0.58081 0.0
H278 H 1.00055 0.72267 0.60765 0.0
H279 H 0.01224 0.73349 0.57019 0.0
H280 H 0.06858 0.64677 0.63381 0.0
H281 H 0.09052 0.68268 0.5445 0.0
H282 H 0.00878 0.62717 0.61804 0.0
H283 H 1.00439 0.66825 0.62985 0.0
H284 H 0.02694 0.64321 0.64966 0.0
H285 H 0.03859 0.67225 0.50585 0.0
H286 H 0.06029 0.70531 0.50998 0.0
H287 H 0.02795 0.7097 0.52191 0.0
C288 C 0.94582 0.65129 0.88185 0.0
C289 C 0.92728 0.66182 0.90271 0.0
C290 C 0.97149 0.65436 0.88856 0.0
C291 C 0.97917 0.66849 0.91686 0.0
C292 C 0.96068 0.68068 0.93742 0.0
C293 C 0.93496 0.67716 0.93013 0.0
C294 C 0.99041 0.64103 0.86582 0.0
C295 C 0.96803 0.69618 0.96767 0.0
C296 C 0.04201 0.63406 0.94137 0.0
C297 C 0.05888 0.65695 0.92951 0.0
C298 C 0.01595 0.63894 0.93991 0.0
C299 C 0.00637 0.66725 0.92573 0.0
C300 C 0.02335 0.69163 0.91588 0.0
C301 C 0.04949 0.68626 0.91803 0.0
C302 C 0.99873 0.61243 0.95118 0.0
C303 C 0.01402 0.7222 0.90074 0.0
H304 H 0.94032 0.63977 0.86041 0.0
H305 H 0.9209 0.68554 0.94642 0.0
H306 H 1.00471 0.65963 0.86021 0.0
H307 H 1.00038 0.62019 0.87634 0.0
H308 H 0.98152 0.63284 0.84394 0.0
H309 H 0.95189 0.70841 0.979 0.0
H310 H 0.97535 0.67741 0.98364 0.0
H311 H 0.98325 0.71408 0.96404 0.0
H312 H 0.04922 0.61141 0.9504 0.0
H313 H 0.06244 0.7039 0.90858 0.0
H314 H 0.99022 0.59998 0.931 0.0
H315 H 0.9832 0.62266 0.96518 0.0
H316 H 0.00885 0.59418 0.96533 0.0
H317 H 0.0078 0.7167 0.87681 0.0
H318 H 0.02888 0.74101 0.89958 0.0
H319 H 0.99761 0.7321 0.9134 0.0
C320 C 0.06584 0.34202 0.38042 0.0
C321 C 0.08364 0.3374 0.40399 0.0
C322 C 0.03998 0.33992 0.38634 0.0
C323 C 0.03143 0.33318 0.4167 0.0
C324 C 0.04927 0.3266 0.44027 0.0
C325 C 0.07518 0.32869 0.43362 0.0
C326 C 0.02177 0.3468 0.36035 0.0
C327 C 0.04102 0.31919 0.47289 0.0
C328 C 0.96887 0.37381 0.43221 0.0
C329 C 0.95166 0.34884 0.42638 0.0
C330 C 0.99486 0.3684 0.43128 0.0
C331 C 1.00412 0.3372 0.42409 0.0
C332 C 0.98687 0.31132 0.42026 0.0
C333 C 0.96079 0.31742 0.42157 0.0
C334 C 0.01238 0.39671 0.43592 0.0
C335 C 0.99589 0.27767 0.41274 0.0
H336 H 0.07212 0.34826 0.35732 0.0
H337 H 0.08873 0.32502 0.452 0.0
H338 H 0.00726 0.32762 0.3591 0.0
H339 H 0.01198 0.37002 0.36485 0.0
H340 H 0.03129 0.34849 0.33753 0.0
H341 H 0.0567 0.30976 0.48724 0.0
H342 H 0.03376 0.34156 0.48387 0.0
H343 H 0.02554 0.30125 0.4729 0.0
H344 H 0.96196 0.3981 0.43633 0.0
H345 H 0.94764 0.29802 0.41696 0.0
H346 H 0.0215 0.40289 0.4136 0.0
H347 H 0.02745 0.39037 0.45255 0.0
H348 H 1.0024 0.4185 0.44457 0.0
H349 H 1.00246 0.27692 0.38838 0.0
H350 H 0.98078 0.2594 0.41562 0.0
H351 H 0.01202 0.2709 0.42765 0.0
C352 C 0.43764 0.83053 0.06689 0.0
C353 C 0.42886 0.83647 0.09699 0.0
C354 C 0.46361 0.82834 0.06068 0.0
C355 C 0.48116 0.83196 0.08514 0.0
C356 C 0.47222 0.83538 0.11584 0.0
C357 C 0.4463 0.83772 0.12133 0.0
C358 C 0.47227 0.82439 0.02767 0.0
C359 C 0.49007 0.83896 0.14277 0.0
C360 C 0.55214 0.81852 0.07957 0.0
C361 C 0.56079 0.85052 0.07778 0.0
C362 C 0.52614 0.81164 0.08007 0.0
C363 C 0.50849 0.83735 0.07868 0.0
C364 C 0.51727 0.86938 0.07469 0.0
C365 C 0.54315 0.87551 0.07429 0.0
C366 C 0.51763 0.77711 0.08395 0.0
C367 C 0.49933 0.89763 0.07284 0.0
H368 H 0.42434 0.82948 0.04794 0.0
H369 H 0.43971 0.84178 0.14475 0.0
H370 H 0.47929 0.84792 0.01889 0.0
H371 H 0.48799 0.80685 0.02624 0.0
H372 H 0.45683 0.81613 0.0123 0.0
H373 H 0.48026 0.83763 0.16542 0.0
H374 H 0.50469 0.81988 0.14205 0.0
H375 H 0.49976 0.86267 0.14122 0.0
H376 H 0.56559 0.79905 0.08225 0.0
H377 H 0.54962 0.90028 0.07235 0.0
H378 H 0.5015 0.77178 0.06853 0.0
H379 H 0.51125 0.77331 0.10812 0.0
H380 H 0.53298 0.75968 0.07899 0.0
H381 H 0.48465 0.89303 0.05518 0.0
H382 H 0.50903 0.92062 0.067 0.0
H383 H 0.48972 0.90073 0.09544 0.0
C384 C 0.57491 0.1773 0.56321 0.0
C385 C 0.58233 0.16883 0.59332 0.0
C386 C 0.54924 0.18038 0.55552 0.0
C387 C 0.53067 0.17462 0.57841 0.0
C388 C 0.53823 0.16874 0.60931 0.0
C389 C 0.56384 0.16609 0.61635 0.0
C390 C 0.54205 0.18765 0.5225 0.0
C391 C 0.51925 0.16257 0.63463 0.0
C392 C 0.4598 0.1866 0.57325 0.0
C393 C 0.45178 0.15457 0.56908 0.0
C394 C 0.48563 0.19433 0.57361 0.0
C395 C 0.50372 0.16944 0.56988 0.0
C396 C 0.49553 0.1377 0.56287 0.0
C397 C 0.46978 0.13074 0.56248 0.0
C398 C 0.49349 0.22865 0.58026 0.0
C399 C 0.51397 0.11032 0.55848 0.0
H400 H 0.58901 0.17971 0.54526 0.0
H401 H 0.56933 0.16022 0.63985 0.0
H402 H 0.53678 0.16484 0.51067 0.0
H403 H 0.52559 0.20406 0.52155 0.0
H404 H 0.55784 0.19881 0.50952 0.0
H405 H 0.5281 0.16122 0.65787 0.0
H406 H 0.50485 0.18192 0.63495 0.0
H407 H 0.50945 0.13936 0.63012 0.0
H408 H 0.44606 0.20523 0.5782 0.0
H409 H 0.46376 0.10602 0.55863 0.0
H410 H 0.5102 0.23543 0.56636 0.0
H411 H 0.49863 0.23089 0.60504 0.0
H412 H 0.47809 0.24604 0.57535 0.0
H413 H 0.52878 0.11724 0.54172 0.0
H414 H 0.50472 0.08789 0.55011 0.0
H415 H 0.52333 0.10493 0.58085 0.0
C416 C 0.54949 0.18611 0.92112 0.0
C417 C 0.55763 0.15427 0.92612 0.0
C418 C 0.52362 0.1935 0.91955 0.0
C419 C 0.5056 0.1685 0.92326 0.0
C420 C 0.51387 0.13687 0.9306 0.0
C421 C 0.53965 0.13019 0.93184 0.0
C422 C 0.51566 0.22758 0.91196 0.0
C423 C 0.49549 0.10945 0.93512 0.0
C424 C 0.43485 0.17914 0.93288 0.0
C425 C 0.42621 0.17036 0.90334 0.0
C426 C 0.46078 0.18089 0.93938 0.0
C427 C 0.47846 0.17383 0.91578 0.0
C428 C 0.46976 0.16733 0.88543 0.0
C429 C 0.44386 0.16561 0.87964 0.0
C430 C 0.46919 0.1882 0.97196 0.0
C431 C 0.48782 0.15998 0.85941 0.0
H432 H 0.56324 0.20484 0.91662 0.0
H433 H 0.5458 0.10559 0.93615 0.0
H434 H 0.5095 0.22873 0.88746 0.0
H435 H 0.49952 0.23504 0.92652 0.0
H436 H 0.53124 0.24511 0.91525 0.0
H437 H 0.50478 0.0871 0.94363 0.0
H438 H 0.48066 0.11645 0.95183 0.0
H439 H 0.48613 0.10389 0.9128 0.0
H440 H 0.42141 0.18294 0.95136 0.0
H441 H 0.43744 0.15932 0.85661 0.0
H442 H 0.48524 0.2053 0.97189 0.0
H443 H 0.47566 0.16556 0.98319 0.0
H444 H 0.45377 0.19859 0.98613 0.0
H445 H 0.5028 0.17856 0.85833 0.0
H446 H 0.47827 0.15891 0.83657 0.0
H447 H 0.49701 0.13632 0.86372 0.0
C448 C 0.45931 0.81843 0.4325 0.0
C449 C 0.45158 0.85086 0.43376 0.0
C450 C 0.48505 0.8103 0.43226 0.0
C451 C 0.50338 0.83518 0.4331 0.0
C452 C 0.49556 0.86764 0.437 0.0
C453 C 0.46988 0.87501 0.4374 0.0
C454 C 0.49254 0.77532 0.42889 0.0
C455 C 0.51429 0.89505 0.43815 0.0
C456 C 0.57447 0.82606 0.43971 0.0
C457 C 0.58172 0.83099 0.40885 0.0
C458 C 0.54884 0.82478 0.44797 0.0
C459 C 0.53016 0.82859 0.42483 0.0
C460 C 0.53752 0.83095 0.39343 0.0
C461 C 0.56309 0.83205 0.38589 0.0
C462 C 0.54181 0.8215 0.48163 0.0
C463 C 0.51841 0.83483 0.36785 0.0
H464 H 0.44536 0.79954 0.42991 0.0
H465 H 0.46414 0.90011 0.43904 0.0
H466 H 0.49759 0.77043 0.40444 0.0
H467 H 0.50924 0.76975 0.44331 0.0
H468 H 0.47701 0.75878 0.4355 0.0
H469 H 0.50536 0.91844 0.44438 0.0
H470 H 0.52931 0.88979 0.45519 0.0
H471 H 0.52334 0.89776 0.41516 0.0
H472 H 0.58872 0.82503 0.4576 0.0
H473 H 0.5685 0.8352 0.36188 0.0
H474 H 0.52536 0.8053 0.48445 0.0
H475 H 0.53654 0.84556 0.49092 0.0
H476 H 0.55765 0.81196 0.49565 0.0
H477 H 0.50371 0.81595 0.36964 0.0
H478 H 0.52707 0.83337 0.3445 0.0
H479 H 0.50901 0.85867 0.3701 0.0
C480 C 0.15816 0.30772 0.179 0.0
C481 C 0.13662 0.32579 0.17207 0.0
C482 C 0.16346 0.29862 0.20975 0.0
C483 C 0.1467 0.30763 0.23377 0.0
C484 C 0.12372 0.3229 0.22619 0.0
C485 C 0.11907 0.33196 0.19551 0.0
C486 C 0.18802 0.28204 0.2168 0.0
C487 C 0.10509 0.33258 0.25087 0.0
C488 C 0.15324 0.28453 0.31889 0.0
C489 C 0.16375 0.31292 0.33101 0.0
C490 C 0.14871 0.28146 0.28686 0.0
C491 C 0.15496 0.30733 0.26674 0.0
C492 C 0.16677 0.33525 0.27885 0.0
C493 C 0.17091 0.3377 0.31073 0.0
C494 C 0.13616 0.25129 0.27484 0.0
C495 C 0.17394 0.3634 0.25836 0.0
H496 H 0.17173 0.30285 0.1609 0.0
H497 H 0.10219 0.34549 0.19008 0.0
H498 H 0.20155 0.30006 0.22595 0.0
H499 H 0.1855 0.26315 0.23477 0.0
H500 H 0.19631 0.27081 0.1958 0.0
H501 H 0.0867 0.33973 0.24086 0.0
H502 H 0.10202 0.31249 0.26743 0.0
H503 H 0.11265 0.3534 0.26412 0.0
H504 H 0.14775 0.26525 0.33448 0.0
H505 H 0.17936 0.35954 0.31988 0.0
H506 H 0.1453 0.24292 0.25321 0.0
H507 H 0.11626 0.25668 0.26929 0.0
H508 H 0.13662 0.23137 0.29209 0.0
H509 H 0.18535 0.3549 0.23849 0.0
H510 H 0.18479 0.38214 0.27101 0.0
H511 H 0.15674 0.37482 0.24886 0.0
C512 C 0.85191 0.6927 0.67629 0.0
C513 C 0.87289 0.6736 0.66931 0.0
C514 C 0.84665 0.70154 0.70712 0.0
C515 C 0.86288 0.69117 0.73119 0.0
C516 C 0.88528 0.67455 0.72369 0.0
C517 C 0.88992 0.66586 0.69292 0.0
C518 C 0.82272 0.71961 0.71412 0.0
C519 C 0.90332 0.66331 0.74844 0.0
C520 C 0.85787 0.71443 0.81633 0.0
C521 C 0.8465 0.68664 0.82853 0.0
C522 C 0.86213 0.71738 0.78425 0.0
C523 C 0.85464 0.69205 0.76415 0.0
C524 C 0.84183 0.66491 0.77636 0.0
C525 C 0.83807 0.66249 0.80831 0.0
C526 C 0.87579 0.7467 0.77214 0.0
C527 C 0.83328 0.63741 0.75587 0.0
H528 H 0.83875 0.69885 0.65807 0.0
H529 H 0.90644 0.65161 0.68751 0.0
H530 H 0.80848 0.7024 0.72307 0.0
H531 H 0.82588 0.73817 0.73224 0.0
H532 H 0.81496 0.73152 0.69315 0.0
H533 H 0.92137 0.65469 0.73855 0.0
H534 H 0.90731 0.68311 0.76503 0.0
H535 H 0.89471 0.64315 0.76165 0.0
H536 H 0.86433 0.73321 0.83191 0.0
H537 H 0.82892 0.64116 0.81757 0.0
H538 H 0.86683 0.75576 0.75064 0.0
H539 H 0.89539 0.73998 0.76632 0.0
H540 H 0.8763 0.76655 0.78944 0.0
H541 H 0.82229 0.64681 0.73602 0.0
H542 H 0.82157 0.61958 0.76856 0.0
H543 H 0.8499 0.62464 0.74635 0.0
C544 C 0.17167 0.66264 0.81377 0.0
C545 C 0.15116 0.67438 0.83054 0.0
C546 C 0.17487 0.67068 0.78248 0.0
C547 C 0.1566 0.69001 0.76743 0.0
C548 C 0.13678 0.70376 0.78494 0.0
C549 C 0.1344 0.69591 0.81648 0.0
C550 C 0.19659 0.65608 0.76492 0.0
C551 C 0.11675 0.72414 0.76982 0.0
C552 C 0.16963 0.71223 0.6832 0.0
C553 C 0.15939 0.6854 0.66794 0.0
C554 C 0.16825 0.71487 0.71569 0.0
C555 C 0.15579 0.69053 0.73295 0.0
C556 C 0.14408 0.66454 0.71724 0.0
C557 C 0.1464 0.66206 0.68507 0.0
C558 C 0.18132 0.74263 0.73158 0.0
C559 C 0.12999 0.63846 0.73451 0.0
H560 H 0.18452 0.64583 0.82474 0.0
H561 H 0.11834 0.70457 0.82949 0.0
H562 H 0.18967 0.63598 0.75023 0.0
H563 H 0.20531 0.6743 0.74943 0.0
H564 H 0.21123 0.64638 0.78072 0.0
H565 H 0.10551 0.73772 0.78715 0.0
H566 H 0.12511 0.74154 0.75324 0.0
H567 H 0.10387 0.70821 0.75659 0.0
H568 H 0.17985 0.7302 0.66996 0.0
H569 H 0.13828 0.64143 0.67336 0.0
H570 H 0.19834 0.7335 0.74353 0.0
H571 H 0.169 0.75354 0.74946 0.0
H572 H 0.18708 0.76174 0.71497 0.0
H573 H 0.14334 0.62395 0.74849 0.0
H574 H 0.11981 0.62187 0.71866 0.0
H575 H 0.11622 0.6494 0.75068 0.0
C576 C 0.8426 0.28725 0.18302 0.0
C577 C 0.85032 0.31601 0.16871 0.0
C578 C 0.84401 0.28369 0.21543 0.0
C579 C 0.85385 0.30924 0.23362 0.0
C580 C 0.86285 0.33757 0.21892 0.0
C581 C 0.86067 0.34072 0.18679 0.0
C582 C 0.83394 0.25332 0.23024 0.0
C583 C 0.87404 0.36517 0.23723 0.0
C584 C 0.83656 0.33105 0.31563 0.0
C585 C 0.8586 0.3229 0.33137 0.0
C586 C 0.83354 0.32334 0.28423 0.0
C587 C 0.85342 0.30801 0.26809 0.0
C588 C 0.87487 0.29739 0.28464 0.0
C589 C 0.87717 0.30492 0.31624 0.0
C590 C 0.81014 0.33451 0.26768 0.0
C591 C 0.89656 0.28118 0.2684 0.0
H592 H 0.83446 0.26815 0.16908 0.0
H593 H 0.86689 0.36286 0.17585 0.0
H594 H 0.84741 0.24375 0.24754 0.0
H595 H 0.81627 0.25902 0.2427 0.0
H596 H 0.82996 0.23417 0.2129 0.0
H597 H 0.88199 0.38431 0.22208 0.0
H598 H 0.85939 0.37624 0.25209 0.0
H599 H 0.88915 0.35615 0.25265 0.0
H600 H 0.82235 0.34526 0.32739 0.0
H601 H 0.89439 0.29912 0.32843 0.0
H602 H 0.80329 0.31561 0.25155 0.0
H603 H 0.81453 0.35636 0.25379 0.0
H604 H 0.79485 0.34067 0.28415 0.0
H605 H 0.88977 0.26315 0.25136 0.0
H606 H 0.90935 0.26898 0.28502 0.0
H607 H 0.90749 0.29966 0.25555 0.0
C608 C 0.67775 0.78363 0.31679 0.0
C609 C 0.65986 0.8022 0.33254 0.0
C610 C 0.67776 0.78224 0.28419 0.0
C611 C 0.6593 0.7996 0.26734 0.0
C612 C 0.63987 0.81574 0.28352 0.0
C613 C 0.64063 0.81718 0.31584 0.0
C614 C 0.69873 0.76463 0.26793 0.0
C615 C 0.61947 0.83406 0.26668 0.0
C616 C 0.67148 0.84602 0.19387 0.0
C617 C 0.65709 0.82876 0.17238 0.0
C618 C 0.67447 0.83487 0.22425 0.0
C619 C 0.66228 0.80603 0.2336 0.0
C620 C 0.64944 0.7871 0.21131 0.0
C621 C 0.64713 0.79863 0.18076 0.0
C622 C 0.68884 0.85553 0.24698 0.0
C623 C 0.63628 0.7562 0.22025 0.0
H624 H 0.69279 0.77228 0.32975 0.0
H625 H 0.62676 0.83142 0.32795 0.0
H626 H 0.69178 0.75214 0.24689 0.0
H627 H 0.71317 0.78236 0.26052 0.0
H628 H 0.70785 0.74663 0.28335 0.0
H629 H 0.60401 0.84146 0.28243 0.0
H630 H 0.62756 0.85615 0.25605 0.0
H631 H 0.61146 0.81913 0.24779 0.0
H632 H 0.67946 0.86915 0.18728 0.0
H633 H 0.63596 0.78525 0.16415 0.0
H634 H 0.70166 0.84042 0.26113 0.0
H635 H 0.67545 0.8675 0.26299 0.0
H636 H 0.70005 0.87456 0.23523 0.0
H637 H 0.64777 0.74195 0.23676 0.0
H638 H 0.63205 0.74101 0.19971 0.0
H639 H 0.6183 0.76217 0.2319 0.0
C640 C 0.33479 0.16612 0.81406 0.0
C641 C 0.34233 0.19101 0.83397 0.0
C642 C 0.33848 0.16831 0.78207 0.0
C643 C 0.35025 0.19606 0.76951 0.0
C644 C 0.35669 0.22214 0.78927 0.0
C645 C 0.35259 0.21935 0.8214 0.0
C646 C 0.3311 0.13997 0.76196 0.0
C647 C 0.36917 0.25215 0.77679 0.0
C648 C 0.38686 0.17083 0.69899 0.0
C649 C 0.36964 0.17694 0.67516 0.0
C650 C 0.38177 0.17988 0.72955 0.0
C651 C 0.35869 0.19515 0.73662 0.0
C652 C 0.34218 0.20396 0.71226 0.0
C653 C 0.34792 0.19482 0.68163 0.0
C654 C 0.40013 0.17038 0.75461 0.0
C655 C 0.31755 0.22058 0.71879 0.0
H656 H 0.32652 0.14433 0.8236 0.0
H657 H 0.35837 0.23871 0.83672 0.0
H658 H 0.31984 0.14831 0.7419 0.0
H659 H 0.34824 0.12813 0.75275 0.0
H660 H 0.32004 0.12161 0.77487 0.0
H661 H 0.36857 0.27237 0.79369 0.0
H662 H 0.38912 0.24677 0.77149 0.0
H663 H 0.36011 0.26008 0.75495 0.0
H664 H 0.40391 0.15749 0.69393 0.0
H665 H 0.33461 0.19968 0.66323 0.0
H666 H 0.39228 0.14995 0.76817 0.0
H667 H 0.40326 0.19076 0.77083 0.0
H668 H 0.41854 0.16277 0.74498 0.0
H669 H 0.30396 0.20265 0.72796 0.0
H670 H 0.30944 0.23156 0.69756 0.0
H671 H 0.3199 0.23967 0.73658 0.0
C672 C 0.63591 0.19314 0.81711 0.0
C673 C 0.65265 0.17194 0.83163 0.0
C674 C 0.63871 0.20093 0.78562 0.0
C675 C 0.65895 0.18747 0.76865 0.0
C676 C 0.67726 0.16866 0.78424 0.0
C677 C 0.67362 0.16063 0.81546 0.0
C678 C 0.61861 0.22071 0.76992 0.0
C679 C 0.69944 0.15446 0.76728 0.0
C680 C 0.649 0.15797 0.68675 0.0
C681 C 0.66145 0.18144 0.66915 0.0
C682 C 0.64696 0.16075 0.71891 0.0
C683 C 0.65835 0.18725 0.73417 0.0
C684 C 0.67041 0.21161 0.7165 0.0
C685 C 0.67155 0.20861 0.68402 0.0
C686 C 0.63334 0.13456 0.73663 0.0
C687 C 0.68314 0.2399 0.73193 0.0
H688 H 0.61951 0.20149 0.82966 0.0
H689 H 0.68648 0.1441 0.8268 0.0
H690 H 0.62695 0.23807 0.75328 0.0
H691 H 0.60608 0.20435 0.75666 0.0
H692 H 0.60701 0.23426 0.78689 0.0
H693 H 0.71409 0.14558 0.78349 0.0
H694 H 0.69306 0.13381 0.7529 0.0
H695 H 0.70794 0.17262 0.75156 0.0
H696 H 0.64099 0.13705 0.67544 0.0
H697 H 0.68134 0.2267 0.67045 0.0
H698 H 0.61931 0.1454 0.75253 0.0
H699 H 0.64693 0.1208 0.75095 0.0
H700 H 0.62353 0.11731 0.72108 0.0
H701 H 0.67068 0.25091 0.74958 0.0
H702 H 0.68872 0.2588 0.71501 0.0
H703 H 0.70024 0.2313 0.74408 0.0
C704 C 0.34281 0.84323 0.18969 0.0
C705 C 0.34731 0.81719 0.16969 0.0
C706 C 0.34586 0.84014 0.2217 0.0
C707 C 0.35376 0.81021 0.23428 0.0
C708 C 0.35746 0.78336 0.21439 0.0
C709 C 0.35417 0.78716 0.1822 0.0
C710 C 0.3416 0.86946 0.24192 0.0
C711 C 0.36582 0.75108 0.22693 0.0
C712 C 0.38872 0.82787 0.30795 0.0
C713 C 0.36954 0.82539 0.33 0.0
C714 C 0.38458 0.81941 0.277 0.0
C715 C 0.36047 0.80879 0.26774 0.0
C716 C 0.34171 0.80337 0.29048 0.0
C717 C 0.34652 0.81163 0.32155 0.0
C718 C 0.40529 0.82511 0.25376 0.0
C719 C 0.31583 0.79187 0.28161 0.0
H720 H 0.33722 0.86643 0.18027 0.0
H721 H 0.35757 0.76692 0.16684 0.0
H722 H 0.32844 0.86353 0.26099 0.0
H723 H 0.35962 0.87706 0.25256 0.0
H724 H 0.33384 0.89026 0.22875 0.0
H725 H 0.36405 0.73155 0.20941 0.0
H726 H 0.38576 0.75264 0.23418 0.0
H727 H 0.35468 0.74441 0.24766 0.0
H728 H 0.40664 0.8382 0.31463 0.0
H729 H 0.33168 0.80974 0.33862 0.0
H730 H 0.40112 0.84734 0.24031 0.0
H731 H 0.40653 0.80474 0.23716 0.0
H732 H 0.42385 0.82821 0.26512 0.0
H733 H 0.3051 0.81233 0.27154 0.0
H734 H 0.30529 0.78257 0.30194 0.0
H735 H 0.31688 0.7726 0.2638 0.0
C736 C 0.29854 0.24116 0.98313 0.0
C737 C 0.2959 0.20939 0.97238 0.0
C738 C 0.27884 0.25659 0.99913 0.0
C739 C 0.25637 0.23939 0.00555 0.0
C740 C 0.25431 0.20666 0.99622 0.0
C741 C 0.27385 0.19232 0.97918 0.0
C742 C 0.28156 0.29179 0.00769 0.0
C743 C 0.23119 0.18699 0.00353 0.0
C744 C 0.21155 0.27562 0.0654 0.0
C745 C 0.19286 0.2888 0.04643 0.0
C746 C 0.23202 0.25869 0.05254 0.0
C747 C 0.23435 0.25621 0.01991 0.0
C748 C 0.21551 0.26991 1.00077 0.0
C749 C 0.1948 0.28553 0.0143 0.0
C750 C 0.25113 0.24346 0.07381 0.0
C751 C 0.21754 0.2688 0.96593 0.0
H752 H 0.31548 0.25449 0.97758 0.0
H753 H 0.27185 0.16766 0.97101 0.0
H754 H 0.26737 0.30628 0.99498 0.0
H755 H 0.27799 0.29527 0.03274 0.0
H756 H 0.30051 0.30139 0.00214 0.0
H757 H 0.23376 0.16096 0.99804 0.0
H758 H 0.2263 0.18935 0.0284 0.0
H759 H 0.21502 0.1962 0.98998 0.0
H760 H 0.21007 0.27842 0.09028 0.0
H761 H 0.18051 0.29629 0.99968 0.0
H762 H 0.26972 0.25498 0.07037 0.0
H763 H 0.25327 0.21742 0.06821 0.0
H764 H 0.24581 0.24582 0.09857 0.0
H765 H 0.23554 0.27984 0.95844 0.0
H766 H 0.20186 0.28176 0.95436 0.0
H767 H 0.21757 0.24336 0.95786 0.0
C768 C 0.81734 0.74685 0.54123 0.0
C769 C 0.81542 0.71324 0.54486 0.0
C770 C 0.79763 0.76486 0.52784 0.0
C771 C 0.77584 0.74875 0.5169 0.0
C772 C 0.77375 0.71487 0.52095 0.0
C773 C 0.79334 0.69768 0.53524 0.0
C774 C 0.80032 0.80104 0.52486 0.0
C775 C 0.75127 0.69648 0.50895 0.0
C776 C 0.71465 0.7924 0.49674 0.0
C777 C 0.71705 0.79642 0.46465 0.0
C778 C 0.73406 0.77819 0.51431 0.0
C779 C 0.75601 0.76671 0.49928 0.0
C780 C 0.75843 0.77079 0.46686 0.0
C781 C 0.73915 0.78602 0.45009 0.0
C782 C 0.73101 0.77523 0.54891 0.0
C783 C 0.78107 0.75812 0.44965 0.0
H784 H 0.83428 0.75906 0.54875 0.0
H785 H 0.79176 0.67168 0.53771 0.0
H786 H 0.8021 0.80773 0.50011 0.0
H787 H 0.78332 0.8133 0.53396 0.0
H788 H 0.81703 0.81031 0.53743 0.0
H789 H 0.75221 0.67029 0.51454 0.0
H790 H 0.73372 0.7065 0.51889 0.0
H791 H 0.75004 0.69923 0.48344 0.0
H792 H 0.69769 0.80062 0.50816 0.0
H793 H 0.74105 0.78883 0.42526 0.0
H794 H 0.7477 0.78537 0.56084 0.0
H795 H 0.72969 0.74937 0.55549 0.0
H796 H 0.71397 0.78789 0.55742 0.0
H797 H 0.79847 0.76907 0.45906 0.0
H798 H 0.78014 0.76329 0.42444 0.0
H799 H 0.78257 0.73158 0.45293 0.0
C800 C 0.27244 0.79063 0.04978 0.0
C801 C 0.29535 0.79818 0.03547 0.0
C802 C 0.25292 0.77549 0.03341 0.0
C803 C 0.25598 0.76849 0.00155 0.0
C804 C 0.27885 0.77687 0.9867 0.0
C805 C 0.29843 0.79114 0.00396 0.0
C806 C 0.22928 0.76612 0.05051 0.0
C807 C 0.28265 0.77063 0.95263 0.0
C808 C 0.21663 0.69942 0.96935 0.0
C809 C 0.19565 0.71561 0.95725 0.0
C810 C 0.23646 0.71636 0.98335 0.0
C811 C 0.2358 0.75055 0.98456 0.0
C812 C 0.21506 0.76717 0.97137 0.0
C813 C 0.19501 0.74948 0.95834 0.0
C814 C 0.25769 0.69749 0.99791 0.0
C815 C 0.21394 0.80362 0.97137 0.0
H816 H 0.26996 0.79582 0.07418 0.0
H817 H 0.316 0.79718 0.99271 0.0
H818 H 0.2127 0.77755 0.03951 0.0
H819 H 0.22658 0.73955 0.04924 0.0
H820 H 0.22981 0.77336 0.07526 0.0
H821 H 0.30058 0.78096 0.94398 0.0
H822 H 0.2827 0.74423 0.94815 0.0
H823 H 0.2669 0.78116 0.93917 0.0
H824 H 0.2172 0.67323 0.96885 0.0
H825 H 0.17893 0.76214 0.94886 0.0
H826 H 0.25845 0.70261 0.0231 0.0
H827 H 0.27592 0.7051 0.98789 0.0
H828 H 0.2556 0.67099 0.99462 0.0
H829 H 0.21213 0.81261 0.99544 0.0
H830 H 0.19787 0.81295 0.95763 0.0
H831 H 0.2316 0.81375 0.96179 0.0
C832 C 0.7141 0.21357 0.50821 0.0
C833 C 0.71842 0.19823 0.53668 0.0
C834 C 0.73382 0.22856 0.49184 0.0
C835 C 0.75841 0.22873 0.50445 0.0
C836 C 0.76292 0.21274 0.53291 0.0
C837 C 0.74297 0.19752 0.5485 0.0
C838 C 0.72823 0.24483 0.46135 0.0
C839 C 0.78866 0.21277 0.54756 0.0
C840 C 0.81578 0.25096 0.45536 0.0
C841 C 0.81818 0.28404 0.46166 0.0
C842 C 0.79602 0.23273 0.46843 0.0
C843 C 0.77897 0.2477 0.48924 0.0
C844 C 0.78182 0.28099 0.49611 0.0
C845 C 0.80102 0.29881 0.48178 0.0
C846 C 0.79318 0.19762 0.45968 0.0
C847 C 0.76475 0.29778 0.51893 0.0
H848 H 0.69524 0.21409 0.49878 0.0
H849 H 0.74654 0.18579 0.57049 0.0
H850 H 0.73063 0.27135 0.46372 0.0
H851 H 0.74164 0.23649 0.44339 0.0
H852 H 0.7088 0.23994 0.45324 0.0
H853 H 0.78935 0.19809 0.56908 0.0
H854 H 0.8028 0.20318 0.53111 0.0
H855 H 0.79421 0.23794 0.55324 0.0
H856 H 0.82891 0.23958 0.43959 0.0
H857 H 0.80298 0.32436 0.48686 0.0
H858 H 0.77416 0.19337 0.44999 0.0
H859 H 0.79501 0.18216 0.48052 0.0
H860 H 0.80737 0.18985 0.44237 0.0
H861 H 0.74506 0.29681 0.51066 0.0
H862 H 0.77 0.3235 0.52253 0.0
H863 H 0.76541 0.28516 0.54158 0.0
C864 C 0.71759 0.80541 0.03222 0.0
C865 C 0.69633 0.78941 0.0438 0.0
C866 C 0.73713 0.78843 0.0177 0.0
C867 C 0.73585 0.75433 0.01534 0.0
C868 C 0.71482 0.73785 0.02793 0.0
C869 C 0.69509 0.75563 0.04159 0.0
C870 C 0.75874 0.80718 0.00386 0.0
C871 C 0.71303 0.70147 0.02665 0.0
C872 C 0.7719 0.71576 0.94884 0.0
C873 C 0.79461 0.70694 0.96296 0.0
C874 C 0.75263 0.73084 0.96568 0.0
C875 C 0.75573 0.73647 0.99778 0.0
C876 C 0.7784 0.72684 0.0124 0.0
C877 C 0.79775 0.71265 0.9947 0.0
C878 C 0.7292 0.74157 0.94886 0.0
C879 C 0.78222 0.73162 0.04668 0.0
H880 H 0.71864 0.83155 0.03362 0.0
H881 H 0.6788 0.74311 0.05067 0.0
H882 H 0.7768 0.79862 0.01364 0.0
H883 H 0.75945 0.80301 0.9785 0.0
H884 H 0.75713 0.83359 0.00808 0.0
H885 H 0.69675 0.69212 0.03999 0.0
H886 H 0.71113 0.69348 0.00227 0.0
H887 H 0.73047 0.69044 0.03592 0.0
H888 H 0.7694 0.71156 0.92427 0.0
H889 H 0.81516 0.70556 0.00579 0.0
H890 H 0.72696 0.76815 0.95107 0.0
H891 H 0.71239 0.73023 0.95942 0.0
H892 H 0.72965 0.73528 0.92388 0.0
H893 H 0.78265 0.75781 0.05213 0.0
H894 H 0.79996 0.72049 0.055 0.0
H895 H 0.76628 0.72095 0.0597 0.0
C896 C 0.29256 0.19698 0.53982 0.0
C897 C 0.31481 0.21305 0.54807 0.0
C898 C 0.2727 0.21332 0.52522 0.0
C899 C 0.27471 0.24689 0.51934 0.0
C900 C 0.2967 0.26359 0.52879 0.0
C901 C 0.31665 0.24639 0.54263 0.0
C902 C 0.25001 0.19426 0.51485 0.0
C903 C 0.29934 0.29952 0.52373 0.0
C904 C 0.23742 0.2807 0.45144 0.0
C905 C 0.21568 0.29247 0.46587 0.0
C906 C 0.25666 0.26589 0.46857 0.0
C907 C 0.25462 0.26374 0.50119 0.0
C908 C 0.2329 0.27624 0.51601 0.0
C909 C 0.21346 0.28994 0.4981 0.0
C910 C 0.27897 0.25194 0.45161 0.0
C911 C 0.23029 0.2753 0.55076 0.0
H912 H 0.29098 0.17117 0.54372 0.0
H913 H 0.3337 0.259 0.54907 0.0
H914 H 0.23263 0.20499 0.52452 0.0
H915 H 0.24844 0.19532 0.48926 0.0
H916 H 0.25099 0.16849 0.52198 0.0
H917 H 0.31626 0.30952 0.53531 0.0
H918 H 0.30069 0.30469 0.4986 0.0
H919 H 0.28249 0.31234 0.53258 0.0
H920 H 0.23915 0.28246 0.4265 0.0
H921 H 0.19681 0.29935 0.50936 0.0
H922 H 0.2806 0.22572 0.45668 0.0
H923 H 0.29652 0.26361 0.45971 0.0
H924 H 0.27754 0.25518 0.42615 0.0
H925 H 0.22966 0.24987 0.55885 0.0
H926 H 0.21306 0.28785 0.55887 0.0
H927 H 0.24688 0.2868 0.56173 0.0
C928 C 0.79555 0.28999 0.00536 0.0
C929 C 0.79272 0.29721 0.03687 0.0
C930 C 0.77587 0.27561 0.98844 0.0
C931 C 0.75313 0.26736 0.00361 0.0
C932 C 0.75026 0.27466 0.03544 0.0
C933 C 0.76991 0.28987 0.05151 0.0
C934 C 0.77948 0.26899 0.95439 0.0
C935 C 0.72673 0.26546 0.05283 0.0
C936 C 0.69246 0.24739 0.96026 0.0
C937 C 0.69336 0.21353 0.95938 0.0
C938 C 0.71225 0.26539 0.97348 0.0
C939 C 0.73298 0.24907 0.98698 0.0
C940 C 0.73388 0.21488 0.98608 0.0
C941 C 0.7143 0.19764 0.97195 0.0
C942 C 0.7109 0.30182 0.9732 0.0
C943 C 0.75517 0.19637 1.00093 0.0
H944 H 0.81305 0.29588 0.99387 0.0
H945 H 0.76764 0.29524 0.0759 0.0
H946 H 0.7797 0.24254 0.95023 0.0
H947 H 0.76355 0.27915 0.94097 0.0
H948 H 0.79726 0.27943 0.94543 0.0
H949 H 0.72729 0.27324 0.07742 0.0
H950 H 0.71004 0.27646 0.04167 0.0
H951 H 0.72419 0.23884 0.05211 0.0
H952 H 0.6764 0.25979 0.95043 0.0
H953 H 0.71506 0.17145 0.9716 0.0
H954 H 0.7284 0.31202 0.96325 0.0
H955 H 0.70931 0.31102 0.99722 0.0
H956 H 0.69464 0.31088 0.95964 0.0
H957 H 0.77335 0.20383 0.9907 0.0
H958 H 0.75312 0.1698 0.99812 0.0
H959 H 0.75598 0.20199 0.02602 0.0
C960 C 0.2402 0.71257 0.55118 0.0
C961 C 0.21774 0.70405 0.53632 0.0
C962 C 0.25975 0.72795 0.53506 0.0
C963 C 0.25719 0.73413 0.50297 0.0
C964 C 0.23484 0.72462 0.4876 0.0
C965 C 0.21521 0.71018 0.50457 0.0
C966 C 0.28283 0.73856 0.55265 0.0
C967 C 0.2316 0.72993 0.45328 0.0
C968 C 0.29495 0.80404 0.46961 0.0
C969 C 0.31641 0.78847 0.45807 0.0
C970 C 0.27557 0.78663 0.48401 0.0
C971 C 0.2772 0.75253 0.48616 0.0
C972 C 0.29846 0.73649 0.47363 0.0
C973 C 0.31804 0.75471 0.4602 0.0
C974 C 0.25371 0.8049 0.49782 0.0
C975 C 0.30058 0.70013 0.47462 0.0
H976 H 0.24221 0.70805 0.57577 0.0
H977 H 0.19798 0.70336 0.49291 0.0
H978 H 0.2999 0.72774 0.54223 0.0
H979 H 0.28485 0.76522 0.55109 0.0
H980 H 0.28205 0.73162 0.57747 0.0
H981 H 0.21419 0.71852 0.44428 0.0
H982 H 0.23084 0.75621 0.44826 0.0
H983 H 0.24794 0.71993 0.44054 0.0
H984 H 0.29364 0.83016 0.46832 0.0
H985 H 0.33451 0.74254 0.45118 0.0
H986 H 0.25266 0.80011 0.52305 0.0
H987 H 0.23583 0.79648 0.48746 0.0
H988 H 0.25527 0.83142 0.4942 0.0
H989 H 0.3021 0.69188 0.49897 0.0
H990 H 0.31719 0.69118 0.46165 0.0
H991 H 0.28342 0.68895 0.46474 0.0
C992 C 0.15204 0.57673 0.99665 0.0
C993 C 0.13717 0.58378 0.97082 0.0
C994 C 0.15242 0.54546 0.00935 0.0
C995 C 0.13666 0.52119 0.99674 0.0
C996 C 0.12078 0.52874 0.97145 0.0
C997 C 0.12172 0.55976 0.95828 0.0
C998 C 0.17035 0.53811 0.03549 0.0
C999 C 0.10289 0.50403 0.95822 0.0
C1000 C 0.1533 0.43252 0.00829 0.0
C1001 C 0.1395 0.4249 0.03487 0.0
C1002 C 0.15283 0.46392 0.99587 0.0
C1003 C 0.13725 0.48775 0.00956 0.0
C1004 C 0.12258 0.47973 0.03579 0.0
C1005 C 0.1244 0.44862 0.04861 0.0
C1006 C 0.16952 0.47181 0.96865 0.0
C1007 C 0.10491 0.50395 0.05024 0.0
H1008 H 0.16425 0.59529 0.006 0.0
H1009 H 0.11023 0.5653 0.93828 0.0
H1010 H 0.15984 0.52963 0.0561 0.0
H1011 H 0.18325 0.51832 0.02855 0.0
H1012 H 0.18173 0.5595 0.04219 0.0
H1013 H 0.09013 0.51466 0.9406 0.0
H1014 H 0.11361 0.4841 0.94727 0.0
H1015 H 0.09137 0.49325 0.97697 0.0
H1016 H 0.16519 0.41421 0.9979 0.0
H1017 H 0.11368 0.44273 0.06914 0.0
H1018 H 0.1821 0.49227 0.97462 0.0
H1019 H 0.15797 0.47954 0.94863 0.0
H1020 H 0.18123 0.45088 0.96148 0.0
H1021 H 0.11572 0.52437 0.06014 0.0
H1022 H 0.09331 0.49307 0.06891 0.0
H1023 H 0.09221 0.5141 0.03234 0.0
C1024 C 0.85703 0.57196 0.5036 0.0
C1025 C 0.87251 0.58004 0.52859 0.0
C1026 C 0.85709 0.54047 0.49135 0.0
C1027 C 0.8739 0.51709 0.50349 0.0
C1028 C 0.89036 0.52572 0.52785 0.0
C1029 C 0.88896 0.55683 0.54067 0.0
C1030 C 0.83852 0.5319 0.46626 0.0
C1031 C 0.90934 0.50204 0.54052 0.0
C1032 C 0.85963 0.42741 0.49474 0.0
C1033 C 0.87281 0.41981 0.4677 0.0
C1034 C 0.85947 0.45913 0.50637 0.0
C1035 C 0.8738 0.48338 0.49133 0.0
C1036 C 0.88793 0.4754 0.46463 0.0
C1037 C 0.88673 0.44387 0.45269 0.0
C1038 C 0.8434 0.46689 0.53417 0.0
C1039 C 0.90433 0.50011 0.44874 0.0
H1040 H 0.84406 0.58985 0.4946 0.0
H1041 H 0.90088 0.56304 0.56006 0.0
H1042 H 0.84855 0.5234 0.44531 0.0
H1043 H 0.82635 0.51176 0.47421 0.0
H1044 H 0.82642 0.55269 0.45976 0.0
H1045 H 0.92244 0.51356 0.55721 0.0
H1046 H 0.89956 0.48192 0.55242 0.0
H1047 H 0.92046 0.49136 0.52135 0.0
H1048 H 0.84858 0.40882 0.50605 0.0
H1049 H 0.89692 0.43794 0.43175 0.0
H1050 H 0.83005 0.48659 0.52836 0.0
H1051 H 0.85531 0.47565 0.55347 0.0
H1052 H 0.83255 0.44561 0.54235 0.0
H1053 H 0.89256 0.51973 0.43897 0.0
H1054 H 0.91561 0.48936 0.42972 0.0
H1055 H 0.91729 0.51134 0.46573 0.0
C1056 C 0.85285 0.43512 0.02125 0.0
C1057 C 0.83687 0.43167 0.0467 0.0
C1058 C 0.85136 0.46252 0.00215 0.0
C1059 C 0.83284 0.48634 0.00812 0.0
C1060 C 0.81576 0.48196 0.03289 0.0
C1061 C 0.81836 0.45497 0.05235 0.0
C1062 C 0.87037 0.46669 0.97653 0.0
C1063 C 0.79516 0.50613 0.03926 0.0
C1064 C 0.84689 0.57121 0.97916 0.0
C1065 C 0.83547 0.57076 0.94999 0.0
C1066 C 0.84571 0.5441 0.9987 0.0
C1067 C 0.83211 0.51637 0.98915 0.0
C1068 C 0.8192 0.51668 0.96053 0.0
C1069 C 0.82141 0.54367 0.94104 0.0
C1070 C 0.8602 0.54446 0.02872 0.0
C1071 C 0.80379 0.48809 0.95 0.0
H1072 H 0.86742 0.41727 0.01733 0.0
H1073 H 0.8061 0.4522 0.07221 0.0
H1074 H 0.8607 0.46948 0.95397 0.0
H1075 H 0.88143 0.48904 0.98053 0.0
H1076 H 0.88353 0.44592 0.97493 0.0
H1077 H 0.78188 0.49745 0.05726 0.0
H1078 H 0.80346 0.52928 0.04717 0.0
H1079 H 0.78449 0.51125 0.01776 0.0
H1080 H 0.85799 0.59202 0.98591 0.0
H1081 H 0.81246 0.54341 0.91851 0.0
H1082 H 0.87515 0.52578 0.02796 0.0
H1083 H 0.84767 0.5384 0.04837 0.0
H1084 H 0.86905 0.5683 0.03332 0.0
H1085 H 0.81636 0.46747 0.94461 0.0
H1086 H 0.7925 0.49369 0.92906 0.0
H1087 H 0.79093 0.48016 0.96873 0.0
C1088 C 0.19163 0.45387 0.44478 0.0
C1089 C 0.17495 0.42886 0.45217 0.0
C1090 C 0.19389 0.48114 0.46391 0.0
C1091 C 0.17829 0.48399 0.49029 0.0
C1092 C 0.16178 0.45838 0.49817 0.0
C1093 C 0.16064 0.43081 0.47925 0.0
C1094 C 0.21243 0.50728 0.45541 0.0
C1095 C 0.14435 0.46083 0.52562 0.0
C1096 C 0.19028 0.54394 0.55513 0.0
C1097 C 0.17424 0.56938 0.54694 0.0
C1098 C 0.19286 0.5167 0.53602 0.0
C1099 C 0.17822 0.51435 0.50878 0.0
C1100 C 0.16242 0.54041 0.50007 0.0
C1101 C 0.16096 0.56792 0.51904 0.0
C1102 C 0.21064 0.49005 0.54549 0.0
C1103 C 0.146 0.53851 0.47164 0.0
H1104 H 0.20268 0.45226 0.42376 0.0
H1105 H 0.14747 0.41162 0.48464 0.0
H1106 H 0.20221 0.52931 0.44795 0.0
H1107 H 0.22396 0.51395 0.47582 0.0
H1108 H 0.22515 0.49969 0.43637 0.0
H1109 H 0.13291 0.43862 0.52884 0.0
H1110 H 0.15523 0.46525 0.54707 0.0
H1111 H 0.13147 0.48168 0.52248 0.0
H1112 H 0.20055 0.54517 0.57677 0.0
H1113 H 0.14827 0.58744 0.51302 0.0
H1114 H 0.22276 0.48303 0.52571 0.0
H1115 H 0.1998 0.46833 0.5524 0.0
H1116 H 0.22281 0.49729 0.56519 0.0
H1117 H 0.15759 0.53368 0.45084 0.0
H1118 H 0.13515 0.56109 0.46777 0.0
H1119 H 0.13261 0.5181 0.47406 0.0
C1120 C 0.65239 0.07256 0.99414 0.0
C1121 C 0.63496 0.08145 0.97149 0.0
C1122 C 0.65237 0.04122 0.00664 0.0
C1123 C 0.63378 0.0188 0.99713 0.0
C1124 C 0.61547 0.02827 0.97514 0.0
C1125 C 0.61668 0.0593 0.96198 0.0
C1126 C 0.67278 0.03176 0.02915 0.0
C1127 C 0.59473 0.0056 0.96536 0.0
C1128 C 0.64754 0.92901 0.00576 0.0
C1129 C 0.63708 0.92241 0.03479 0.0
C1130 C 0.64662 0.96032 0.99321 0.0
C1131 C 0.63401 0.98521 0.00956 0.0
C1132 C 0.62244 0.97819 0.03829 0.0
C1133 C 0.62462 0.94703 0.0509 0.0
C1134 C 0.65996 0.96704 0.96305 0.0
C1135 C 0.60797 0.00366 0.05585 0.0
H1136 H 0.66672 0.08973 0.00108 0.0
H1137 H 0.60322 0.06632 0.94443 0.0
H1138 H 0.66441 0.02409 0.05146 0.0
H1139 H 0.68345 0.01084 0.01988 0.0
H1140 H 0.68612 0.05186 0.03368 0.0
H1141 H 0.58067 0.01769 0.95029 0.0
H1142 H 0.60275 0.98478 0.95258 0.0
H1143 H 0.58499 0.99579 0.98604 0.0
H1144 H 0.65742 0.91 0.9935 0.0
H1145 H 0.61644 0.94186 0.07332 0.0
H1146 H 0.67451 0.98588 0.96664 0.0
H1147 H 0.64652 0.97654 0.94569 0.0
H1148 H 0.66911 0.94511 0.95341 0.0
H1149 H 0.62095 0.02284 0.06394 0.0
H1150 H 0.59806 0.99349 0.07627 0.0
H1151 H 0.59397 0.01531 0.04043 0.0
C1152 C 0.38919 0.93028 0.49053 0.0
C1153 C 0.37096 0.92323 0.46823 0.0
C1154 C 0.39098 0.96146 0.50332 0.0
C1155 C 0.3734 0.98552 0.49452 0.0
C1156 C 0.35476 0.97819 0.47223 0.0
C1157 C 0.35414 0.94731 0.45885 0.0
C1158 C 0.4117 0.9687 0.52611 0.0
C1159 C 0.33507 0.00267 0.46307 0.0
C1160 C 0.36025 0.05367 0.55107 0.0
C1161 C 0.37173 0.08005 0.53644 0.0
C1162 C 0.36069 0.0228 0.53767 0.0
C1163 C 0.37372 0.01795 0.50949 0.0
C1164 C 0.38604 0.04437 0.49511 0.0
C1165 C 0.38449 0.07531 0.50849 0.0
C1166 C 0.34657 0.99561 0.55322 0.0
C1167 C 0.4008 0.03994 0.4656 0.0
H1168 H 0.40237 0.91163 0.49739 0.0
H1169 H 0.34 0.94165 0.44163 0.0
H1170 H 0.42233 0.99039 0.51857 0.0
H1171 H 0.40356 0.9742 0.54913 0.0
H1172 H 0.42499 0.94816 0.52864 0.0
H1173 H 0.32156 0.99287 0.44588 0.0
H1174 H 0.32447 0.01057 0.48385 0.0
H1175 H 0.34412 0.02445 0.4531 0.0
H1176 H 0.35023 0.05739 0.57261 0.0
H1177 H 0.39357 0.09568 0.49735 0.0
H1178 H 0.35957 0.97551 0.55886 0.0
H1179 H 0.33214 0.98586 0.53721 0.0
H1180 H 0.33714 0.00351 0.57487 0.0
H1181 H 0.41461 0.02006 0.46841 0.0
H1182 H 0.41097 0.06228 0.45875 0.0
H1183 H 0.38799 0.03299 0.4465 0.0
C1184 C 0.32261 0.95733 0.05526 0.0
C1185 C 0.34032 0.9333 0.04853 0.0
C1186 C 0.32041 0.98492 0.03653 0.0
C1187 C 0.33705 0.98912 0.01131 0.0
C1188 C 0.35477 0.96461 0.00423 0.0
C1189 C 0.3559 0.93667 0.02268 0.0
C1190 C 0.30065 0.00986 0.04414 0.0
C1191 C 0.37327 0.96853 0.97802 0.0
C1192 C 0.32408 0.04822 0.94607 0.0
C1193 C 0.33865 0.07492 0.95485 0.0
C1194 C 0.32246 0.0207 0.96493 0.0
C1195 C 0.33642 0.01945 0.99275 0.0
C1196 C 0.35068 0.04672 0.00212 0.0
C1197 C 0.35131 0.07438 0.98322 0.0
C1198 C 0.30638 0.99263 0.95462 0.0
C1199 C 0.36625 0.04607 0.0313 0.0
H1200 H 0.31066 0.95463 0.07541 0.0
H1201 H 0.36987 0.91827 0.01791 0.0
H1202 H 0.30978 0.0326 0.05176 0.0
H1203 H 0.2894 0.0156 0.02323 0.0
H1204 H 0.28777 0.00159 0.06274 0.0
H1205 H 0.38585 0.94725 0.97557 0.0
H1206 H 0.36316 0.97221 0.95588 0.0
H1207 H 0.38499 0.99032 0.98204 0.0
H1208 H 0.31419 0.04872 0.92413 0.0
H1209 H 0.36282 0.09488 0.9898 0.0
H1210 H 0.29378 0.98488 0.97369 0.0
H1211 H 0.31849 0.97171 0.9487 0.0
H1212 H 0.29475 0.99871 0.93409 0.0
H1213 H 0.3543 0.04011 0.05152 0.0
H1214 H 0.37577 0.06952 0.03573 0.0
H1215 H 0.38074 0.02688 0.02947 0.0
C1216 C 0.64508 0.04159 0.5439 0.0
C1217 C 0.66315 0.06619 0.5449 0.0
C1218 C 0.64749 0.01546 0.52355 0.0
C1219 C 0.6689 0.01335 0.50426 0.0
C1220 C 0.68735 0.03805 0.50526 0.0
C1221 C 0.68405 0.06455 0.52531 0.0
C1222 C 0.62695 0.99027 0.52251 0.0
C1223 C 0.71065 0.03624 0.48548 0.0
C1224 C 0.67938 0.92881 0.47207 0.0
C1225 C 0.66836 0.93149 0.4427 0.0
C1226 C 0.68106 0.95581 0.49179 0.0
C1227 C 0.67106 0.98593 0.48212 0.0
C1228 C 0.66064 0.98896 0.45218 0.0
C1229 C 0.65961 0.96186 0.43282 0.0
C1230 C 0.69274 0.95184 0.52338 0.0
C1231 C 0.64925 0.0204 0.44117 0.0
H1232 H 0.62881 0.04299 0.55894 0.0
H1233 H 0.69815 0.08342 0.52638 0.0
H1234 H 0.61918 0.9886 0.49873 0.0
H1235 H 0.63471 0.96619 0.52847 0.0
H1236 H 0.61134 0.9958 0.53871 0.0
H1237 H 0.72357 0.05686 0.48967 0.0
H1238 H 0.72082 0.01336 0.49025 0.0
H1239 H 0.70542 0.03603 0.46064 0.0
H1240 H 0.68637 0.90557 0.47982 0.0
H1241 H 0.65099 0.96434 0.41023 0.0
H1242 H 0.67797 0.95363 0.5414 0.0
H1243 H 0.70648 0.97147 0.52777 0.0
H1244 H 0.70238 0.92816 0.52595 0.0
H1245 H 0.63248 0.02617 0.45536 0.0
H1246 H 0.64349 0.01938 0.41648 0.0
H1247 H 0.66276 0.04056 0.44412 0.0
loop_
_geom_bond_atom_site_label_1
_geom_bond_atom_site_label_2
_geom_bond_distance
_geom_bond_site_symmetry_2
_ccdc_geom_bond_type
Co0 O1 2.216 . S
Co0 O2 2.091 . S
Co0 O4 2.004 . S
Co0 O10 2.021 . S
Co0 O12 2.137 . S
Co0 O13 2.244 . S
O1 Co0 2.216 . S
O1 C8 1.247 . S
O2 Co0 2.091 . S
O2 C8 1.261 . S
C3 O12 1.247 . S
C3 O13 1.272 . S
O4 Co0 2.004 . S
O4 C9 1.259 . S
Co5 O6 2.061 . S
Co5 O11 2.052 . S
Co5 O13 2.135 . S
O6 Co5 2.061 . S
O6 C9 1.235 . S
C7 O10 1.238 . S
C7 O11 1.241 . S
C8 O1 1.247 . S
C8 O2 1.261 . S
C9 O4 1.259 . S
C9 O6 1.235 . S
O10 Co0 2.021 . S
O10 C7 1.238 . S
O11 Co5 2.052 . S
O11 C7 1.241 . S
O12 Co0 2.137 . S
O12 C3 1.247 . S
O13 Co0 2.244 . S
O13 C3 1.272 . S
O13 Co5 2.135 . S
Co14 O15 2.216 . S
Co14 O16 2.091 . S
Co14 O18 2.004 . S
Co14 O24 2.021 . S
Co14 O26 2.137 . S
Co14 O27 2.244 . S
O15 Co14 2.216 . S
O15 C22 1.247 . S
O16 Co14 2.091 . S
O16 C22 1.261 . S
C17 O26 1.247 . S
C17 O27 1.272 . S
O18 Co14 2.004 . S
O18 C23 1.259 . S
Co19 O20 2.061 . S
Co19 O25 2.052 . S
Co19 O27 2.135 . S
O20 Co19 2.061 . S
O20 C23 1.235 . S
C21 O24 1.238 . S
C21 O25 1.241 . S
C22 O15 1.247 . S
C22 O16 1.261 . S
C23 O18 1.259 . S
C23 O20 1.235 . S
O24 Co14 2.021 . S
O24 C21 1.238 . S
O25 Co19 2.052 . S
O25 C21 1.241 . S
O26 Co14 2.137 . S
O26 C17 1.247 . S
O27 Co14 2.244 . S
O27 C17 1.272 . S
O27 Co19 2.135 . S
Co28 O29 2.216 . S
Co28 O30 2.091 . S
Co28 O32 2.004 . S
Co28 O38 2.021 . S
Co28 O40 2.137 . S
Co28 O41 2.244 . S
O29 Co28 2.216 . S
O29 C36 1.247 . S
O30 Co28 2.091 . S
O30 C36 1.261 . S
C31 O40 1.247 . S
C31 O41 1.272 . S
O32 Co28 2.004 . S
O32 C37 1.259 . S
Co33 O34 2.061 . S
Co33 O39 2.052 . S
Co33 O41 2.135 . S
O34 Co33 2.061 . S
O34 C37 1.235 . S
C35 O38 1.238 . S
C35 O39 1.241 . S
C36 O29 1.247 . S
C36 O30 1.261 . S
C37 O32 1.259 . S
C37 O34 1.235 . S
O38 Co28 2.021 . S
O38 C35 1.238 . S
O39 Co33 2.052 . S
O39 C35 1.241 . S
O40 Co28 2.137 . S
O40 C31 1.247 . S
O41 Co28 2.244 . S
O41 C31 1.272 . S
O41 Co33 2.135 . S
Co42 O43 2.216 . S
Co42 O44 2.091 . S
Co42 O46 2.004 . S
Co42 O52 2.021 . S
Co42 O54 2.137 . S
Co42 O55 2.244 . S
O43 Co42 2.216 . S
O43 C50 1.247 . S
O44 Co42 2.091 . S
O44 C50 1.261 . S
C45 O54 1.247 . S
C45 O55 1.272 . S
O46 Co42 2.004 . S
O46 C51 1.259 . S
Co47 O48 2.061 . S
Co47 O53 2.052 . S
Co47 O55 2.135 . S
O48 Co47 2.061 . S
O48 C51 1.235 . S
C49 O52 1.238 . S
C49 O53 1.241 . S
C50 O43 1.247 . S
C50 O44 1.261 . S
C51 O46 1.259 . S
C51 O48 1.235 . S
O52 Co42 2.021 . S
O52 C49 1.238 . S
O53 Co47 2.052 . S
O53 C49 1.241 . S
O54 Co42 2.137 . S
O54 C45 1.247 . S
O55 Co42 2.244 . S
O55 C45 1.272 . S
O55 Co47 2.135 . S
Co56 O57 2.216 . S
Co56 O58 2.091 . S
Co56 O60 2.004 . S
Co56 O66 2.021 . S
Co56 O68 2.137 . S
Co56 O69 2.244 . S
O57 Co56 2.216 . S
O57 C64 1.247 . S
O58 Co56 2.091 . S
O58 C64 1.261 . S
C59 O68 1.247 . S
C59 O69 1.272 . S
O60 Co56 2.004 . S
O60 C65 1.259 . S
Co61 O62 2.061 . S
Co61 O67 2.052 . S
Co61 O69 2.135 . S
O62 Co61 2.061 . S
O62 C65 1.235 . S
C63 O66 1.238 . S
C63 O67 1.241 . S
C64 O57 1.247 . S
C64 O58 1.261 . S
C65 O60 1.259 . S
C65 O62 1.235 . S
O66 Co56 2.021 . S
O66 C63 1.238 . S
O67 Co61 2.052 . S
O67 C63 1.241 . S
O68 Co56 2.137 . S
O68 C59 1.247 . S
O69 Co56 2.244 . S
O69 C59 1.272 . S
O69 Co61 2.135 . S
Co70 O71 2.216 . S
Co70 O72 2.091 . S
Co70 O74 2.004 . S
Co70 O80 2.021 . S
Co70 O82 2.137 . S
Co70 O83 2.244 . S
O71 Co70 2.216 . S
O71 C78 1.247 . S
O72 Co70 2.091 . S
O72 C78 1.261 . S
C73 O82 1.247 . S
C73 O83 1.272 . S
O74 Co70 2.004 . S
O74 C79 1.259 . S
Co75 O76 2.061 . S
Co75 O81 2.052 . S
Co75 O83 2.135 . S
O76 Co75 2.061 . S
O76 C79 1.235 . S
C77 O80 1.238 . S
C77 O81 1.241 . S
C78 O71 1.247 . S
C78 O72 1.261 . S
C79 O74 1.259 . S
C79 O76 1.235 . S
O80 Co70 2.021 . S
O80 C77 1.238 . S
O81 Co75 2.052 . S
O81 C77 1.241 . S
O82 Co70 2.137 . S
O82 C73 1.247 . S
O83 Co70 2.244 . S
O83 C73 1.272 . S
O83 Co75 2.135 . S
Co84 O85 2.216 . S
Co84 O86 2.091 . S
Co84 O88 2.004 . S
Co84 O94 2.021 . S
Co84 O96 2.137 . S
Co84 O97 2.244 . S
O85 Co84 2.216 . S
O85 C92 1.247 . S
O86 Co84 2.091 . S
O86 C92 1.261 . S
C87 O96 1.247 . S
C87 O97 1.272 . S
O88 Co84 2.004 . S
O88 C93 1.259 . S
Co89 O90 2.061 . S
Co89 O95 2.052 . S
Co89 O97 2.135 . S
O90 Co89 2.061 . S
O90 C93 1.235 . S
C91 O94 1.238 . S
C91 O95 1.241 . S
C92 O85 1.247 . S
C92 O86 1.261 . S
C93 O88 1.259 . S
C93 O90 1.235 . S
O94 Co84 2.021 . S
O94 C91 1.238 . S
O95 Co89 2.052 . S
O95 C91 1.241 . S
O96 Co84 2.137 . S
O96 C87 1.247 . S
O97 Co84 2.244 . S
O97 C87 1.272 . S
O97 Co89 2.135 . S
Co98 O99 2.216 . S
Co98 O100 2.091 . S
Co98 O102 2.004 . S
Co98 O108 2.021 . S
Co98 O110 2.137 . S
Co98 O111 2.244 . S
O99 Co98 2.216 . S
O99 C106 1.247 . S
O100 Co98 2.091 . S
O100 C106 1.261 . S
C101 O110 1.247 . S
C101 O111 1.272 . S
O102 Co98 2.004 . S
O102 C107 1.259 . S
Co103 O104 2.061 . S
Co103 O109 2.052 . S
Co103 O111 2.135 . S
O104 Co103 2.061 . S
O104 C107 1.235 . S
C105 O108 1.238 . S
C105 O109 1.241 . S
C106 O99 1.247 . S
C106 O100 1.261 . S
C107 O102 1.259 . S
C107 O104 1.235 . S
O108 Co98 2.021 . S
O108 C105 1.238 . S
O109 Co103 2.052 . S
O109 C105 1.241 . S
O110 Co98 2.137 . S
O110 C101 1.247 . S
O111 Co98 2.244 . S
O111 C101 1.272 . S
O111 Co103 2.135 . S
Co112 O113 2.216 . S
Co112 O114 2.091 . S
Co112 O116 2.004 . S
Co112 O122 2.021 . S
Co112 O124 2.137 . S
Co112 O125 2.244 . S
O113 Co112 2.216 . S
O113 C120 1.247 . S
O114 Co112 2.091 . S
O114 C120 1.261 . S
C115 O124 1.247 . S
C115 O125 1.272 . S
O116 Co112 2.004 . S
O116 C121 1.259 . S
Co117 O118 2.061 . S
Co117 O123 2.052 . S
Co117 O125 2.135 . S
O118 Co117 2.061 . S
O118 C121 1.235 . S
C119 O122 1.238 . S
C119 O123 1.241 . S
C120 O113 1.247 . S
C120 O114 1.261 . S
C121 O116 1.259 . S
C121 O118 1.235 . S
O122 Co112 2.021 . S
O122 C119 1.238 . S
O123 Co117 2.052 . S
O123 C119 1.241 . S
O124 Co112 2.137 . S
O124 C115 1.247 . S
O125 Co112 2.244 . S
O125 C115 1.272 . S
O125 Co117 2.135 . S
Co126 O127 2.216 . S
Co126 O128 2.091 . S
Co126 O130 2.004 . S
Co126 O136 2.021 . S
Co126 O138 2.137 . S
Co126 O139 2.244 . S
O127 Co126 2.216 . S
O127 C134 1.247 . S
O128 Co126 2.091 . S
O128 C134 1.261 . S
C129 O138 1.247 . S
C129 O139 1.272 . S
O130 Co126 2.004 . S
O130 C135 1.259 . S
Co131 O132 2.061 . S
Co131 O137 2.052 . S
Co131 O139 2.135 . S
O132 Co131 2.061 . S
O132 C135 1.235 . S
C133 O136 1.238 . S
C133 O137 1.241 . S
C134 O127 1.247 . S
C134 O128 1.261 . S
C135 O130 1.259 . S
C135 O132 1.235 . S
O136 Co126 2.021 . S
O136 C133 1.238 . S
O137 Co131 2.052 . S
O137 C133 1.241 . S
O138 Co126 2.137 . S
O138 C129 1.247 . S
O139 Co126 2.244 . S
O139 C129 1.272 . S
O139 Co131 2.135 . S
Co140 O141 2.216 . S
Co140 O142 2.091 . S
Co140 O144 2.004 . S
Co140 O150 2.021 . S
Co140 O152 2.137 . S
Co140 O153 2.244 . S
O141 Co140 2.216 . S
O141 C148 1.247 . S
O142 Co140 2.091 . S
O142 C148 1.261 . S
C143 O152 1.247 . S
C143 O153 1.272 . S
O144 Co140 2.004 . S
O144 C149 1.259 . S
Co145 O146 2.061 . S
Co145 O151 2.052 . S
Co145 O153 2.135 . S
O146 Co145 2.061 . S
O146 C149 1.235 . S
C147 O150 1.238 . S
C147 O151 1.241 . S
C148 O141 1.247 . S
C148 O142 1.261 . S
C149 O144 1.259 . S
C149 O146 1.235 . S
O150 Co140 2.021 . S
O150 C147 1.238 . S
O151 Co145 2.052 . S
O151 C147 1.241 . S
O152 Co140 2.137 . S
O152 C143 1.247 . S
O153 Co140 2.244 . S
O153 C143 1.272 . S
O153 Co145 2.135 . S
Co154 O155 2.216 . S
Co154 O156 2.091 . S
Co154 O158 2.004 . S
Co154 O164 2.021 . S
Co154 O166 2.137 . S
Co154 O167 2.244 . S
O155 Co154 2.216 . S
O155 C162 1.247 . S
O156 Co154 2.091 . S
O156 C162 1.261 . S
C157 O166 1.247 . S
C157 O167 1.272 . S
O158 Co154 2.004 . S
O158 C163 1.259 . S
Co159 O160 2.061 . S
Co159 O165 2.052 . S
Co159 O167 2.135 . S
O160 Co159 2.061 . S
O160 C163 1.235 . S
C161 O164 1.238 . S
C161 O165 1.241 . S
C162 O155 1.247 . S
C162 O156 1.261 . S
C163 O158 1.259 . S
C163 O160 1.235 . S
O164 Co154 2.021 . S
O164 C161 1.238 . S
O165 Co159 2.052 . S
O165 C161 1.241 . S
O166 Co154 2.137 . S
O166 C157 1.247 . S
O167 Co154 2.244 . S
O167 C157 1.272 . S
O167 Co159 2.135 . S
Co168 O169 2.216 . S
Co168 O170 2.091 . S
Co168 O172 2.004 . S
Co168 O178 2.021 . S
Co168 O180 2.137 . S
Co168 O181 2.244 . S
O169 Co168 2.216 . S
O169 C176 1.247 . S
O170 Co168 2.091 . S
O170 C176 1.261 . S
C171 O180 1.247 . S
C171 O181 1.272 . S
O172 Co168 2.004 . S
O172 C177 1.259 . S
Co173 O174 2.061 . S
Co173 O179 2.052 . S
Co173 O181 2.135 . S
O174 Co173 2.061 . S
O174 C177 1.235 . S
C175 O178 1.238 . S
C175 O179 1.241 . S
C176 O169 1.247 . S
C176 O170 1.261 . S
C177 O172 1.259 . S
C177 O174 1.235 . S
O178 Co168 2.021 . S
O178 C175 1.238 . S
O179 Co173 2.052 . S
O179 C175 1.241 . S
O180 Co168 2.137 . S
O180 C171 1.247 . S
O181 Co168 2.244 . S
O181 C171 1.272 . S
O181 Co173 2.135 . S
Co182 O183 2.216 . S
Co182 O184 2.091 . S
Co182 O186 2.004 . S
Co182 O192 2.021 . S
Co182 O194 2.137 . S
Co182 O195 2.244 . S
O183 Co182 2.216 . S
O183 C190 1.247 . S
O184 Co182 2.091 . S
O184 C190 1.261 . S
C185 O194 1.247 . S
C185 O195 1.272 . S
O186 Co182 2.004 . S
O186 C191 1.259 . S
Co187 O188 2.061 . S
Co187 O193 2.052 . S
Co187 O195 2.135 . S
O188 Co187 2.061 . S
O188 C191 1.235 . S
C189 O192 1.238 . S
C189 O193 1.241 . S
C190 O183 1.247 . S
C190 O184 1.261 . S
C191 O186 1.259 . S
C191 O188 1.235 . S
O192 Co182 2.021 . S
O192 C189 1.238 . S
O193 Co187 2.052 . S
O193 C189 1.241 . S
O194 Co182 2.137 . S
O194 C185 1.247 . S
O195 Co182 2.244 . S
O195 C185 1.272 . S
O195 Co187 2.135 . S
Co196 O197 2.216 . S
Co196 O198 2.091 . S
Co196 O200 2.004 . S
Co196 O206 2.021 . S
Co196 O208 2.137 . S
Co196 O209 2.244 . S
O197 Co196 2.216 . S
O197 C204 1.247 . S
O198 Co196 2.091 . S
O198 C204 1.261 . S
C199 O208 1.247 . S
C199 O209 1.272 . S
O200 Co196 2.004 . S
O200 C205 1.259 . S
Co201 O202 2.061 . S
Co201 O207 2.052 . S
Co201 O209 2.135 . S
O202 Co201 2.061 . S
O202 C205 1.235 . S
C203 O206 1.238 . S
C203 O207 1.241 . S
C204 O197 1.247 . S
C204 O198 1.261 . S
C205 O200 1.259 . S
C205 O202 1.235 . S
O206 Co196 2.021 . S
O206 C203 1.238 . S
O207 Co201 2.052 . S
O207 C203 1.241 . S
O208 Co196 2.137 . S
O208 C199 1.247 . S
O209 Co196 2.244 . S
O209 C199 1.272 . S
O209 Co201 2.135 . S
Co210 O211 2.216 . S
Co210 O212 2.091 . S
Co210 O214 2.004 . S
Co210 O220 2.021 . S
Co210 O222 2.137 . S
Co210 O223 2.244 . S
O211 Co210 2.216 . S
O211 C218 1.247 . S
O212 Co210 2.091 . S
O212 C218 1.261 . S
C213 O222 1.247 . S
C213 O223 1.272 . S
O214 Co210 2.004 . S
O214 C219 1.259 . S
Co215 O216 2.061 . S
Co215 O221 2.052 . S
Co215 O223 2.135 . S
O216 Co215 2.061 . S
O216 C219 1.235 . S
C217 O220 1.238 . S
C217 O221 1.241 . S
C218 O211 1.247 . S
C218 O212 1.261 . S
C219 O214 1.259 . S
C219 O216 1.235 . S
O220 Co210 2.021 . S
O220 C217 1.238 . S
O221 Co215 2.052 . S
O221 C217 1.241 . S
O222 Co210 2.137 . S
O222 C213 1.247 . S
O223 Co210 2.244 . S
O223 C213 1.272 . S
O223 Co215 2.135 . S
C224 C225 1.391 . S
C224 C226 1.394 . S
C224 H240 0.931 . S
C225 C224 1.391 . S
C225 C229 1.376 . S
C226 C224 1.394 . S
C226 C227 1.369 . S
C226 C230 1.531 . S
C227 C226 1.369 . S
C227 C228 1.410 . S
C227 C235 1.503 1_455 S
C228 C227 1.410 . S
C228 C229 1.392 . S
C228 C231 1.511 . S
C229 C225 1.376 . S
C229 C228 1.392 . S
C229 H241 0.929 . S
C230 C226 1.531 . S
C230 H242 0.960 1_455 S
C230 H243 0.962 . S
C230 H244 0.960 . S
C231 C228 1.511 . S
C231 H245 0.961 . S
C231 H246 0.961 1_455 S
C231 H247 0.961 . S
C232 C233 1.370 . S
C232 C234 1.363 . S
C232 H248 0.931 . S
C233 C232 1.370 . S
C233 C237 1.408 . S
C234 C232 1.363 . S
C234 C235 1.370 . S
C234 C238 1.524 . S
C235 C227 1.503 1_655 S
C235 C234 1.370 . S
C235 C236 1.403 . S
C236 C235 1.403 . S
C236 C237 1.404 . S
C236 C239 1.539 . S
C237 C233 1.408 . S
C237 C236 1.404 . S
C237 H249 0.930 . S
C238 C234 1.524 . S
C238 H250 0.956 . S
C238 H251 0.961 . S
C238 H252 0.961 . S
C239 C236 1.539 . S
C239 H253 0.958 . S
C239 H254 0.961 . S
C239 H255 0.960 . S
H240 C224 0.931 . S
H241 C229 0.929 . S
H242 C230 0.960 1_655 S
H243 C230 0.962 . S
H244 C230 0.960 . S
H245 C231 0.961 . S
H246 C231 0.961 1_655 S
H247 C231 0.961 . S
H248 C232 0.931 . S
H249 C237 0.930 . S
H250 C238 0.956 . S
H251 C238 0.961 . S
H252 C238 0.961 . S
H253 C239 0.958 . S
H254 C239 0.961 . S
H255 C239 0.960 . S
C256 C257 1.391 . S
C256 C258 1.394 . S
C256 H272 0.931 . S
C257 C256 1.391 . S
C257 C261 1.376 . S
C258 C256 1.394 . S
C258 C259 1.369 . S
C258 C262 1.531 . S
C259 C258 1.369 . S
C259 C260 1.410 . S
C259 C267 1.503 1_655 S
C260 C259 1.410 . S
C260 C261 1.392 . S
C260 C263 1.511 . S
C261 C257 1.376 . S
C261 C260 1.392 . S
C261 H273 0.929 . S
C262 C258 1.531 . S
C262 H274 0.960 1_655 S
C262 H275 0.962 . S
C262 H276 0.960 . S
C263 C260 1.511 . S
C263 H277 0.961 . S
C263 H278 0.961 1_655 S
C263 H279 0.961 . S
C264 C265 1.370 . S
C264 C266 1.363 . S
C264 H280 0.931 . S
C265 C264 1.370 . S
C265 C269 1.408 . S
C266 C264 1.363 . S
C266 C267 1.370 . S
C266 C270 1.524 . S
C267 C259 1.503 1_455 S
C267 C266 1.370 . S
C267 C268 1.403 . S
C268 C267 1.403 . S
C268 C269 1.404 . S
C268 C271 1.539 . S
C269 C265 1.408 . S
C269 C268 1.404 . S
C269 H281 0.930 . S
C270 C266 1.524 . S
C270 H282 0.956 . S
C270 H283 0.961 . S
C270 H284 0.961 . S
C271 C268 1.539 . S
C271 H285 0.958 . S
C271 H286 0.961 . S
C271 H287 0.960 . S
H272 C256 0.931 . S
H273 C261 0.929 . S
H274 C262 0.960 1_455 S
H275 C262 0.962 . S
H276 C262 0.960 . S
H277 C263 0.961 . S
H278 C263 0.961 1_455 S
H279 C263 0.961 . S
H280 C264 0.931 . S
H281 C269 0.930 . S
H282 C270 0.956 . S
H283 C270 0.961 . S
H284 C270 0.961 . S
H285 C271 0.958 . S
H286 C271 0.961 . S
H287 C271 0.960 . S
C288 C289 1.391 . S
C288 C290 1.394 . S
C288 H304 0.931 . S
C289 C288 1.391 . S
C289 C293 1.376 . S
C290 C288 1.394 . S
C290 C291 1.369 . S
C290 C294 1.531 . S
C291 C290 1.369 . S
C291 C292 1.410 . S
C291 C299 1.503 1_655 S
C292 C291 1.410 . S
C292 C293 1.392 . S
C292 C295 1.511 . S
C293 C289 1.376 . S
C293 C292 1.392 . S
C293 H305 0.929 . S
C294 C290 1.531 . S
C294 H306 0.960 . S
C294 H307 0.962 . S
C294 H308 0.960 . S
C295 C292 1.511 . S
C295 H309 0.961 . S
C295 H310 0.961 . S
C295 H311 0.961 . S
C296 C297 1.370 . S
C296 C298 1.363 . S
C296 H312 0.931 . S
C297 C296 1.370 . S
C297 C301 1.408 . S
C298 C296 1.363 . S
C298 C299 1.370 . S
C298 C302 1.524 . S
C299 C291 1.503 1_455 S
C299 C298 1.370 . S
C299 C300 1.403 . S
C300 C299 1.403 . S
C300 C301 1.404 . S
C300 C303 1.539 . S
C301 C297 1.408 . S
C301 C300 1.404 . S
C301 H313 0.930 . S
C302 C298 1.524 . S
C302 H314 0.956 1_455 S
C302 H315 0.961 1_455 S
C302 H316 0.961 . S
C303 C300 1.539 . S
C303 H317 0.958 . S
C303 H318 0.961 . S
C303 H319 0.960 1_455 S
H304 C288 0.931 . S
H305 C293 0.929 . S
H306 C294 0.960 . S
H307 C294 0.962 . S
H308 C294 0.960 . S
H309 C295 0.961 . S
H310 C295 0.961 . S
H311 C295 0.961 . S
H312 C296 0.931 . S
H313 C301 0.930 . S
H314 C302 0.956 1_655 S
H315 C302 0.961 1_655 S
H316 C302 0.961 . S
H317 C303 0.958 . S
H318 C303 0.961 . S
H319 C303 0.960 1_655 S
C320 C321 1.391 . S
C320 C322 1.394 . S
C320 H336 0.931 . S
C321 C320 1.391 . S
C321 C325 1.376 . S
C322 C320 1.394 . S
C322 C323 1.369 . S
C322 C326 1.531 . S
C323 C322 1.369 . S
C323 C324 1.410 . S
C323 C331 1.503 1_455 S
C324 C323 1.410 . S
C324 C325 1.392 . S
C324 C327 1.511 . S
C325 C321 1.376 . S
C325 C324 1.392 . S
C325 H337 0.929 . S
C326 C322 1.531 . S
C326 H338 0.960 . S
C326 H339 0.962 . S
C326 H340 0.960 . S
C327 C324 1.511 . S
C327 H341 0.961 . S
C327 H342 0.961 . S
C327 H343 0.961 . S
C328 C329 1.370 . S
C328 C330 1.363 . S
C328 H344 0.931 . S
C329 C328 1.370 . S
C329 C333 1.408 . S
C330 C328 1.363 . S
C330 C331 1.370 . S
C330 C334 1.524 . S
C331 C323 1.503 1_655 S
C331 C330 1.370 . S
C331 C332 1.403 . S
C332 C331 1.403 . S
C332 C333 1.404 . S
C332 C335 1.539 . S
C333 C329 1.408 . S
C333 C332 1.404 . S
C333 H345 0.930 . S
C334 C330 1.524 . S
C334 H346 0.956 1_655 S
C334 H347 0.961 1_655 S
C334 H348 0.961 . S
C335 C332 1.539 . S
C335 H349 0.958 . S
C335 H350 0.961 . S
C335 H351 0.960 1_655 S
H336 C320 0.931 . S
H337 C325 0.929 . S
H338 C326 0.960 . S
H339 C326 0.962 . S
H340 C326 0.960 . S
H341 C327 0.961 . S
H342 C327 0.961 . S
H343 C327 0.961 . S
H344 C328 0.931 . S
H345 C333 0.930 . S
H346 C334 0.956 1_455 S
H347 C334 0.961 1_455 S
H348 C334 0.961 . S
H349 C335 0.958 . S
H350 C335 0.961 . S
H351 C335 0.960 1_455 S
C352 C353 1.391 . S
C352 C354 1.394 . S
C352 H368 0.931 . S
C353 C352 1.391 . S
C353 C357 1.376 . S
C354 C352 1.394 . S
C354 C355 1.369 . S
C354 C358 1.531 . S
C355 C354 1.369 . S
C355 C356 1.410 . S
C355 C363 1.503 . S
C356 C355 1.410 . S
C356 C357 1.392 . S
C356 C359 1.511 . S
C357 C353 1.376 . S
C357 C356 1.392 . S
C357 H369 0.929 . S
C358 C354 1.531 . S
C358 H370 0.960 . S
C358 H371 0.962 . S
C358 H372 0.960 . S
C359 C356 1.511 . S
C359 H373 0.961 . S
C359 H374 0.961 . S
C359 H375 0.961 . S
C360 C361 1.370 . S
C360 C362 1.363 . S
C360 H376 0.931 . S
C361 C360 1.370 . S
C361 C365 1.408 . S
C362 C360 1.363 . S
C362 C363 1.370 . S
C362 C366 1.524 . S
C363 C355 1.503 . S
C363 C362 1.370 . S
C363 C364 1.403 . S
C364 C363 1.403 . S
C364 C365 1.404 . S
C364 C367 1.539 . S
C365 C361 1.408 . S
C365 C364 1.404 . S
C365 H377 0.930 . S
C366 C362 1.524 . S
C366 H378 0.956 . S
C366 H379 0.961 . S
C366 H380 0.961 . S
C367 C364 1.539 . S
C367 H381 0.958 . S
C367 H382 0.961 . S
C367 H383 0.960 . S
H368 C352 0.931 . S
H369 C357 0.929 . S
H370 C358 0.960 . S
H371 C358 0.962 . S
H372 C358 0.960 . S
H373 C359 0.961 . S
H374 C359 0.961 . S
H375 C359 0.961 . S
H376 C360 0.931 . S
H377 C365 0.930 . S
H378 C366 0.956 . S
H379 C366 0.961 . S
H380 C366 0.961 . S
H381 C367 0.958 . S
H382 C367 0.961 . S
H383 C367 0.960 . S
C384 C385 1.391 . S
C384 C386 1.394 . S
C384 H400 0.931 . S
C385 C384 1.391 . S
C385 C389 1.376 . S
C386 C384 1.394 . S
C386 C387 1.369 . S
C386 C390 1.531 . S
C387 C386 1.369 . S
C387 C388 1.410 . S
C387 C395 1.503 . S
C388 C387 1.410 . S
C388 C389 1.392 . S
C388 C391 1.511 . S
C389 C385 1.376 . S
C389 C388 1.392 . S
C389 H401 0.929 . S
C390 C386 1.531 . S
C390 H402 0.960 . S
C390 H403 0.962 . S
C390 H404 0.960 . S
C391 C388 1.511 . S
C391 H405 0.961 . S
C391 H406 0.961 . S
C391 H407 0.961 . S
C392 C393 1.370 . S
C392 C394 1.363 . S
C392 H408 0.931 . S
C393 C392 1.370 . S
C393 C397 1.408 . S
C394 C392 1.363 . S
C394 C395 1.370 . S
C394 C398 1.524 . S
C395 C387 1.503 . S
C395 C394 1.370 . S
C395 C396 1.403 . S
C396 C395 1.403 . S
C396 C397 1.404 . S
C396 C399 1.539 . S
C397 C393 1.408 . S
C397 C396 1.404 . S
C397 H409 0.930 . S
C398 C394 1.524 . S
C398 H410 0.956 . S
C398 H411 0.961 . S
C398 H412 0.961 . S
C399 C396 1.539 . S
C399 H413 0.958 . S
C399 H414 0.961 . S
C399 H415 0.960 . S
H400 C384 0.931 . S
H401 C389 0.929 . S
H402 C390 0.960 . S
H403 C390 0.962 . S
H404 C390 0.960 . S
H405 C391 0.961 . S
H406 C391 0.961 . S
H407 C391 0.961 . S
H408 C392 0.931 . S
H409 C397 0.930 . S
H410 C398 0.956 . S
H411 C398 0.961 . S
H412 C398 0.961 . S
H413 C399 0.958 . S
H414 C399 0.961 . S
H415 C399 0.960 . S
C416 C417 1.391 . S
C416 C418 1.394 . S
C416 H432 0.931 . S
C417 C416 1.391 . S
C417 C421 1.376 . S
C418 C416 1.394 . S
C418 C419 1.369 . S
C418 C422 1.531 . S
C419 C418 1.369 . S
C419 C420 1.410 . S
C419 C427 1.503 . S
C420 C419 1.410 . S
C420 C421 1.392 . S
C420 C423 1.511 . S
C421 C417 1.376 . S
C421 C420 1.392 . S
C421 H433 0.929 . S
C422 C418 1.531 . S
C422 H434 0.960 . S
C422 H435 0.962 . S
C422 H436 0.960 . S
C423 C420 1.511 . S
C423 H437 0.961 . S
C423 H438 0.961 . S
C423 H439 0.961 . S
C424 C425 1.370 . S
C424 C426 1.363 . S
C424 H440 0.931 . S
C425 C424 1.370 . S
C425 C429 1.408 . S
C426 C424 1.363 . S
C426 C427 1.370 . S
C426 C430 1.524 . S
C427 C419 1.503 . S
C427 C426 1.370 . S
C427 C428 1.403 . S
C428 C427 1.403 . S
C428 C429 1.404 . S
C428 C431 1.539 . S
C429 C425 1.408 . S
C429 C428 1.404 . S
C429 H441 0.930 . S
C430 C426 1.524 . S
C430 H442 0.956 . S
C430 H443 0.961 . S
C430 H444 0.961 . S
C431 C428 1.539 . S
C431 H445 0.958 . S
C431 H446 0.961 . S
C431 H447 0.960 . S
H432 C416 0.931 . S
H433 C421 0.929 . S
H434 C422 0.960 . S
H435 C422 0.962 . S
H436 C422 0.960 . S
H437 C423 0.961 . S
H438 C423 0.961 . S
H439 C423 0.961 . S
H440 C424 0.931 . S
H441 C429 0.930 . S
H442 C430 0.956 . S
H443 C430 0.961 . S
H444 C430 0.961 . S
H445 C431 0.958 . S
H446 C431 0.961 . S
H447 C431 0.960 . S
C448 C449 1.391 . S
C448 C450 1.394 . S
C448 H464 0.931 . S
C449 C448 1.391 . S
C449 C453 1.376 . S
C450 C448 1.394 . S
C450 C451 1.369 . S
C450 C454 1.531 . S
C451 C450 1.369 . S
C451 C452 1.410 . S
C451 C459 1.503 . S
C452 C451 1.410 . S
C452 C453 1.392 . S
C452 C455 1.511 . S
C453 C449 1.376 . S
C453 C452 1.392 . S
C453 H465 0.929 . S
C454 C450 1.531 . S
C454 H466 0.960 . S
C454 H467 0.962 . S
C454 H468 0.960 . S
C455 C452 1.511 . S
C455 H469 0.961 . S
C455 H470 0.961 . S
C455 H471 0.961 . S
C456 C457 1.370 . S
C456 C458 1.363 . S
C456 H472 0.931 . S
C457 C456 1.370 . S
C457 C461 1.408 . S
C458 C456 1.363 . S
C458 C459 1.370 . S
C458 C462 1.524 . S
C459 C451 1.503 . S
C459 C458 1.370 . S
C459 C460 1.403 . S
C460 C459 1.403 . S
C460 C461 1.404 . S
C460 C463 1.539 . S
C461 C457 1.408 . S
C461 C460 1.404 . S
C461 H473 0.930 . S
C462 C458 1.524 . S
C462 H474 0.956 . S
C462 H475 0.961 . S
C462 H476 0.961 . S
C463 C460 1.539 . S
C463 H477 0.958 . S
C463 H478 0.961 . S
C463 H479 0.960 . S
H464 C448 0.931 . S
H465 C453 0.929 . S
H466 C454 0.960 . S
H467 C454 0.962 . S
H468 C454 0.960 . S
H469 C455 0.961 . S
H470 C455 0.961 . S
H471 C455 0.961 . S
H472 C456 0.931 . S
H473 C461 0.930 . S
H474 C462 0.956 . S
H475 C462 0.961 . S
H476 C462 0.961 . S
H477 C463 0.958 . S
H478 C463 0.961 . S
H479 C463 0.960 . S
C480 C481 1.391 . S
C480 C482 1.394 . S
C480 H496 0.931 . S
C481 C480 1.391 . S
C481 C485 1.376 . S
C482 C480 1.394 . S
C482 C483 1.369 . S
C482 C486 1.531 . S
C483 C482 1.369 . S
C483 C484 1.410 . S
C483 C491 1.503 . S
C484 C483 1.410 . S
C484 C485 1.392 . S
C484 C487 1.511 . S
C485 C481 1.376 . S
C485 C484 1.392 . S
C485 H497 0.929 . S
C486 C482 1.531 . S
C486 H498 0.960 . S
C486 H499 0.962 . S
C486 H500 0.960 . S
C487 C484 1.511 . S
C487 H501 0.961 . S
C487 H502 0.961 . S
C487 H503 0.961 . S
C488 C489 1.370 . S
C488 C490 1.363 . S
C488 H504 0.931 . S
C489 C488 1.370 . S
C489 C493 1.408 . S
C490 C488 1.363 . S
C490 C491 1.370 . S
C490 C494 1.524 . S
C491 C483 1.503 . S
C491 C490 1.370 . S
C491 C492 1.403 . S
C492 C491 1.403 . S
C492 C493 1.404 . S
C492 C495 1.539 . S
C493 C489 1.408 . S
C493 C492 1.404 . S
C493 H505 0.930 . S
C494 C490 1.524 . S
C494 H506 0.956 . S
C494 H507 0.961 . S
C494 H508 0.961 . S
C495 C492 1.539 . S
C495 H509 0.958 . S
C495 H510 0.961 . S
C495 H511 0.960 . S
H496 C480 0.931 . S
H497 C485 0.929 . S
H498 C486 0.960 . S
H499 C486 0.962 . S
H500 C486 0.960 . S
H501 C487 0.961 . S
H502 C487 0.961 . S
H503 C487 0.961 . S
H504 C488 0.931 . S
H505 C493 0.930 . S
H506 C494 0.956 . S
H507 C494 0.961 . S
H508 C494 0.961 . S
H509 C495 0.958 . S
H510 C495 0.961 . S
H511 C495 0.960 . S
C512 C513 1.391 . S
C512 C514 1.394 . S
C512 H528 0.931 . S
C513 C512 1.391 . S
C513 C517 1.376 . S
C514 C512 1.394 . S
C514 C515 1.369 . S
C514 C518 1.531 . S
C515 C514 1.369 . S
C515 C516 1.410 . S
C515 C523 1.503 . S
C516 C515 1.410 . S
C516 C517 1.392 . S
C516 C519 1.511 . S
C517 C513 1.376 . S
C517 C516 1.392 . S
C517 H529 0.929 . S
C518 C514 1.531 . S
C518 H530 0.960 . S
C518 H531 0.962 . S
C518 H532 0.960 . S
C519 C516 1.511 . S
C519 H533 0.961 . S
C519 H534 0.961 . S
C519 H535 0.961 . S
C520 C521 1.370 . S
C520 C522 1.363 . S
C520 H536 0.931 . S
C521 C520 1.370 . S
C521 C525 1.408 . S
C522 C520 1.363 . S
C522 C523 1.370 . S
C522 C526 1.524 . S
C523 C515 1.503 . S
C523 C522 1.370 . S
C523 C524 1.403 . S
C524 C523 1.403 . S
C524 C525 1.404 . S
C524 C527 1.539 . S
C525 C521 1.408 . S
C525 C524 1.404 . S
C525 H537 0.930 . S
C526 C522 1.524 . S
C526 H538 0.956 . S
C526 H539 0.961 . S
C526 H540 0.961 . S
C527 C524 1.539 . S
C527 H541 0.958 . S
C527 H542 0.961 . S
C527 H543 0.960 . S
H528 C512 0.931 . S
H529 C517 0.929 . S
H530 C518 0.960 . S
H531 C518 0.962 . S
H532 C518 0.960 . S
H533 C519 0.961 . S
H534 C519 0.961 . S
H535 C519 0.961 . S
H536 C520 0.931 . S
H537 C525 0.930 . S
H538 C526 0.956 . S
H539 C526 0.961 . S
H540 C526 0.961 . S
H541 C527 0.958 . S
H542 C527 0.961 . S
H543 C527 0.960 . S
C544 C545 1.391 . S
C544 C546 1.394 . S
C544 H560 0.931 . S
C545 C544 1.391 . S
C545 C549 1.376 . S
C546 C544 1.394 . S
C546 C547 1.369 . S
C546 C550 1.531 . S
C547 C546 1.369 . S
C547 C548 1.410 . S
C547 C555 1.503 . S
C548 C547 1.410 . S
C548 C549 1.392 . S
C548 C551 1.511 . S
C549 C545 1.376 . S
C549 C548 1.392 . S
C549 H561 0.929 . S
C550 C546 1.531 . S
C550 H562 0.960 . S
C550 H563 0.962 . S
C550 H564 0.960 . S
C551 C548 1.511 . S
C551 H565 0.961 . S
C551 H566 0.961 . S
C551 H567 0.961 . S
C552 C553 1.370 . S
C552 C554 1.363 . S
C552 H568 0.931 . S
C553 C552 1.370 . S
C553 C557 1.408 . S
C554 C552 1.363 . S
C554 C555 1.370 . S
C554 C558 1.524 . S
C555 C547 1.503 . S
C555 C554 1.370 . S
C555 C556 1.403 . S
C556 C555 1.403 . S
C556 C557 1.404 . S
C556 C559 1.539 . S
C557 C553 1.408 . S
C557 C556 1.404 . S
C557 H569 0.930 . S
C558 C554 1.524 . S
C558 H570 0.956 . S
C558 H571 0.961 . S
C558 H572 0.961 . S
C559 C556 1.539 . S
C559 H573 0.958 . S
C559 H574 0.961 . S
C559 H575 0.960 . S
H560 C544 0.931 . S
H561 C549 0.929 . S
H562 C550 0.960 . S
H563 C550 0.962 . S
H564 C550 0.960 . S
H565 C551 0.961 . S
H566 C551 0.961 . S
H567 C551 0.961 . S
H568 C552 0.931 . S
H569 C557 0.930 . S
H570 C558 0.956 . S
H571 C558 0.961 . S
H572 C558 0.961 . S
H573 C559 0.958 . S
H574 C559 0.961 . S
H575 C559 0.960 . S
C576 C577 1.391 . S
C576 C578 1.394 . S
C576 H592 0.931 . S
C577 C576 1.391 . S
C577 C581 1.376 . S
C578 C576 1.394 . S
C578 C579 1.369 . S
C578 C582 1.531 . S
C579 C578 1.369 . S
C579 C580 1.410 . S
C579 C587 1.503 . S
C580 C579 1.410 . S
C580 C581 1.392 . S
C580 C583 1.511 . S
C581 C577 1.376 . S
C581 C580 1.392 . S
C581 H593 0.929 . S
C582 C578 1.531 . S
C582 H594 0.960 . S
C582 H595 0.962 . S
C582 H596 0.960 . S
C583 C580 1.511 . S
C583 H597 0.961 . S
C583 H598 0.961 . S
C583 H599 0.961 . S
C584 C585 1.370 . S
C584 C586 1.363 . S
C584 H600 0.931 . S
C585 C584 1.370 . S
C585 C589 1.408 . S
C586 C584 1.363 . S
C586 C587 1.370 . S
C586 C590 1.524 . S
C587 C579 1.503 . S
C587 C586 1.370 . S
C587 C588 1.403 . S
C588 C587 1.403 . S
C588 C589 1.404 . S
C588 C591 1.539 . S
C589 C585 1.408 . S
C589 C588 1.404 . S
C589 H601 0.930 . S
C590 C586 1.524 . S
C590 H602 0.956 . S
C590 H603 0.961 . S
C590 H604 0.961 . S
C591 C588 1.539 . S
C591 H605 0.958 . S
C591 H606 0.961 . S
C591 H607 0.960 . S
H592 C576 0.931 . S
H593 C581 0.929 . S
H594 C582 0.960 . S
H595 C582 0.962 . S
H596 C582 0.960 . S
H597 C583 0.961 . S
H598 C583 0.961 . S
H599 C583 0.961 . S
H600 C584 0.931 . S
H601 C589 0.930 . S
H602 C590 0.956 . S
H603 C590 0.961 . S
H604 C590 0.961 . S
H605 C591 0.958 . S
H606 C591 0.961 . S
H607 C591 0.960 . S
C608 C609 1.391 . S
C608 C610 1.394 . S
C608 H624 0.931 . S
C609 C608 1.391 . S
C609 C613 1.376 . S
C610 C608 1.394 . S
C610 C611 1.369 . S
C610 C614 1.531 . S
C611 C610 1.369 . S
C611 C612 1.410 . S
C611 C619 1.503 . S
C612 C611 1.410 . S
C612 C613 1.392 . S
C612 C615 1.511 . S
C613 C609 1.376 . S
C613 C612 1.392 . S
C613 H625 0.929 . S
C614 C610 1.531 . S
C614 H626 0.960 . S
C614 H627 0.962 . S
C614 H628 0.960 . S
C615 C612 1.511 . S
C615 H629 0.961 . S
C615 H630 0.961 . S
C615 H631 0.961 . S
C616 C617 1.370 . S
C616 C618 1.363 . S
C616 H632 0.931 . S
C617 C616 1.370 . S
C617 C621 1.408 . S
C618 C616 1.363 . S
C618 C619 1.370 . S
C618 C622 1.524 . S
C619 C611 1.503 . S
C619 C618 1.370 . S
C619 C620 1.403 . S
C620 C619 1.403 . S
C620 C621 1.404 . S
C620 C623 1.539 . S
C621 C617 1.408 . S
C621 C620 1.404 . S
C621 H633 0.930 . S
C622 C618 1.524 . S
C622 H634 0.956 . S
C622 H635 0.961 . S
C622 H636 0.961 . S
C623 C620 1.539 . S
C623 H637 0.958 . S
C623 H638 0.961 . S
C623 H639 0.960 . S
H624 C608 0.931 . S
H625 C613 0.929 . S
H626 C614 0.960 . S
H627 C614 0.962 . S
H628 C614 0.960 . S
H629 C615 0.961 . S
H630 C615 0.961 . S
H631 C615 0.961 . S
H632 C616 0.931 . S
H633 C621 0.930 . S
H634 C622 0.956 . S
H635 C622 0.961 . S
H636 C622 0.961 . S
H637 C623 0.958 . S
H638 C623 0.961 . S
H639 C623 0.960 . S
C640 C641 1.391 . S
C640 C642 1.394 . S
C640 H656 0.931 . S
C641 C640 1.391 . S
C641 C645 1.376 . S
C642 C640 1.394 . S
C642 C643 1.369 . S
C642 C646 1.531 . S
C643 C642 1.369 . S
C643 C644 1.410 . S
C643 C651 1.503 . S
C644 C643 1.410 . S
C644 C645 1.392 . S
C644 C647 1.511 . S
C645 C641 1.376 . S
C645 C644 1.392 . S
C645 H657 0.929 . S
C646 C642 1.531 . S
C646 H658 0.960 . S
C646 H659 0.962 . S
C646 H660 0.960 . S
C647 C644 1.511 . S
C647 H661 0.961 . S
C647 H662 0.961 . S
C647 H663 0.961 . S
C648 C649 1.370 . S
C648 C650 1.363 . S
C648 H664 0.931 . S
C649 C648 1.370 . S
C649 C653 1.408 . S
C650 C648 1.363 . S
C650 C651 1.370 . S
C650 C654 1.524 . S
C651 C643 1.503 . S
C651 C650 1.370 . S
C651 C652 1.403 . S
C652 C651 1.403 . S
C652 C653 1.404 . S
C652 C655 1.539 . S
C653 C649 1.408 . S
C653 C652 1.404 . S
C653 H665 0.930 . S
C654 C650 1.524 . S
C654 H666 0.956 . S
C654 H667 0.961 . S
C654 H668 0.961 . S
C655 C652 1.539 . S
C655 H669 0.958 . S
C655 H670 0.961 . S
C655 H671 0.960 . S
H656 C640 0.931 . S
H657 C645 0.929 . S
H658 C646 0.960 . S
H659 C646 0.962 . S
H660 C646 0.960 . S
H661 C647 0.961 . S
H662 C647 0.961 . S
H663 C647 0.961 . S
H664 C648 0.931 . S
H665 C653 0.930 . S
H666 C654 0.956 . S
H667 C654 0.961 . S
H668 C654 0.961 . S
H669 C655 0.958 . S
H670 C655 0.961 . S
H671 C655 0.960 . S
C672 C673 1.391 . S
C672 C674 1.394 . S
C672 H688 0.931 . S
C673 C672 1.391 . S
C673 C677 1.376 . S
C674 C672 1.394 . S
C674 C675 1.369 . S
C674 C678 1.531 . S
C675 C674 1.369 . S
C675 C676 1.410 . S
C675 C683 1.503 . S
C676 C675 1.410 . S
C676 C677 1.392 . S
C676 C679 1.511 . S
C677 C673 1.376 . S
C677 C676 1.392 . S
C677 H689 0.929 . S
C678 C674 1.531 . S
C678 H690 0.960 . S
C678 H691 0.962 . S
C678 H692 0.960 . S
C679 C676 1.511 . S
C679 H693 0.961 . S
C679 H694 0.961 . S
C679 H695 0.961 . S
C680 C681 1.370 . S
C680 C682 1.363 . S
C680 H696 0.931 . S
C681 C680 1.370 . S
C681 C685 1.408 . S
C682 C680 1.363 . S
C682 C683 1.370 . S
C682 C686 1.524 . S
C683 C675 1.503 . S
C683 C682 1.370 . S
C683 C684 1.403 . S
C684 C683 1.403 . S
C684 C685 1.404 . S
C684 C687 1.539 . S
C685 C681 1.408 . S
C685 C684 1.404 . S
C685 H697 0.930 . S
C686 C682 1.524 . S
C686 H698 0.956 . S
C686 H699 0.961 . S
C686 H700 0.961 . S
C687 C684 1.539 . S
C687 H701 0.958 . S
C687 H702 0.961 . S
C687 H703 0.960 . S
H688 C672 0.931 . S
H689 C677 0.929 . S
H690 C678 0.960 . S
H691 C678 0.962 . S
H692 C678 0.960 . S
H693 C679 0.961 . S
H694 C679 0.961 . S
H695 C679 0.961 . S
H696 C680 0.931 . S
H697 C685 0.930 . S
H698 C686 0.956 . S
H699 C686 0.961 . S
H700 C686 0.961 . S
H701 C687 0.958 . S
H702 C687 0.961 . S
H703 C687 0.960 . S
C704 C705 1.391 . S
C704 C706 1.394 . S
C704 H720 0.931 . S
C705 C704 1.391 . S
C705 C709 1.376 . S
C706 C704 1.394 . S
C706 C707 1.369 . S
C706 C710 1.531 . S
C707 C706 1.369 . S
C707 C708 1.410 . S
C707 C715 1.503 . S
C708 C707 1.410 . S
C708 C709 1.392 . S
C708 C711 1.511 . S
C709 C705 1.376 . S
C709 C708 1.392 . S
C709 H721 0.929 . S
C710 C706 1.531 . S
C710 H722 0.960 . S
C710 H723 0.962 . S
C710 H724 0.960 . S
C711 C708 1.511 . S
C711 H725 0.961 . S
C711 H726 0.961 . S
C711 H727 0.961 . S
C712 C713 1.370 . S
C712 C714 1.363 . S
C712 H728 0.931 . S
C713 C712 1.370 . S
C713 C717 1.408 . S
C714 C712 1.363 . S
C714 C715 1.370 . S
C714 C718 1.524 . S
C715 C707 1.503 . S
C715 C714 1.370 . S
C715 C716 1.403 . S
C716 C715 1.403 . S
C716 C717 1.404 . S
C716 C719 1.539 . S
C717 C713 1.408 . S
C717 C716 1.404 . S
C717 H729 0.930 . S
C718 C714 1.524 . S
C718 H730 0.956 . S
C718 H731 0.961 . S
C718 H732 0.961 . S
C719 C716 1.539 . S
C719 H733 0.958 . S
C719 H734 0.961 . S
C719 H735 0.960 . S
H720 C704 0.931 . S
H721 C709 0.929 . S
H722 C710 0.960 . S
H723 C710 0.962 . S
H724 C710 0.960 . S
H725 C711 0.961 . S
H726 C711 0.961 . S
H727 C711 0.961 . S
H728 C712 0.931 . S
H729 C717 0.930 . S
H730 C718 0.956 . S
H731 C718 0.961 . S
H732 C718 0.961 . S
H733 C719 0.958 . S
H734 C719 0.961 . S
H735 C719 0.960 . S
C736 C737 1.391 . S
C736 C738 1.394 . S
C736 H752 0.931 . S
C737 C736 1.391 . S
C737 C741 1.376 . S
C738 C736 1.394 . S
C738 C739 1.369 . S
C738 C742 1.531 . S
C739 C738 1.369 . S
C739 C740 1.410 . S
C739 C747 1.503 1_556 S
C740 C739 1.410 . S
C740 C741 1.392 . S
C740 C743 1.511 . S
C741 C737 1.376 . S
C741 C740 1.392 . S
C741 H753 0.929 . S
C742 C738 1.531 . S
C742 H754 0.960 . S
C742 H755 0.962 1_556 S
C742 H756 0.960 . S
C743 C740 1.511 . S
C743 H757 0.961 . S
C743 H758 0.961 1_556 S
C743 H759 0.961 . S
C744 C745 1.370 . S
C744 C746 1.363 . S
C744 H760 0.931 . S
C745 C744 1.370 . S
C745 C749 1.408 . S
C746 C744 1.363 . S
C746 C747 1.370 . S
C746 C750 1.524 . S
C747 C739 1.503 1_554 S
C747 C746 1.370 . S
C747 C748 1.403 1_554 S
C748 C747 1.403 1_556 S
C748 C749 1.404 1_556 S
C748 C751 1.539 . S
C749 C745 1.408 . S
C749 C748 1.404 1_554 S
C749 H761 0.930 1_554 S
C750 C746 1.524 . S
C750 H762 0.956 . S
C750 H763 0.961 . S
C750 H764 0.961 . S
C751 C748 1.539 . S
C751 H765 0.958 . S
C751 H766 0.961 . S
C751 H767 0.960 . S
H752 C736 0.931 . S
H753 C741 0.929 . S
H754 C742 0.960 . S
H755 C742 0.962 1_554 S
H756 C742 0.960 . S
H757 C743 0.961 . S
H758 C743 0.961 1_554 S
H759 C743 0.961 . S
H760 C744 0.931 . S
H761 C749 0.930 1_556 S
H762 C750 0.956 . S
H763 C750 0.961 . S
H764 C750 0.961 . S
H765 C751 0.958 . S
H766 C751 0.961 . S
H767 C751 0.960 . S
C768 C769 1.391 . S
C768 C770 1.394 . S
C768 H784 0.931 . S
C769 C768 1.391 . S
C769 C773 1.376 . S
C770 C768 1.394 . S
C770 C771 1.369 . S
C770 C774 1.531 . S
C771 C770 1.369 . S
C771 C772 1.410 . S
C771 C779 1.503 . S
C772 C771 1.410 . S
C772 C773 1.392 . S
C772 C775 1.511 . S
C773 C769 1.376 . S
C773 C772 1.392 . S
C773 H785 0.929 . S
C774 C770 1.531 . S
C774 H786 0.960 . S
C774 H787 0.962 . S
C774 H788 0.960 . S
C775 C772 1.511 . S
C775 H789 0.961 . S
C775 H790 0.961 . S
C775 H791 0.961 . S
C776 C777 1.370 . S
C776 C778 1.363 . S
C776 H792 0.931 . S
C777 C776 1.370 . S
C777 C781 1.408 . S
C778 C776 1.363 . S
C778 C779 1.370 . S
C778 C782 1.524 . S
C779 C771 1.503 . S
C779 C778 1.370 . S
C779 C780 1.403 . S
C780 C779 1.403 . S
C780 C781 1.404 . S
C780 C783 1.539 . S
C781 C777 1.408 . S
C781 C780 1.404 . S
C781 H793 0.930 . S
C782 C778 1.524 . S
C782 H794 0.956 . S
C782 H795 0.961 . S
C782 H796 0.961 . S
C783 C780 1.539 . S
C783 H797 0.958 . S
C783 H798 0.961 . S
C783 H799 0.960 . S
H784 C768 0.931 . S
H785 C773 0.929 . S
H786 C774 0.960 . S
H787 C774 0.962 . S
H788 C774 0.960 . S
H789 C775 0.961 . S
H790 C775 0.961 . S
H791 C775 0.961 . S
H792 C776 0.931 . S
H793 C781 0.930 . S
H794 C782 0.956 . S
H795 C782 0.961 . S
H796 C782 0.961 . S
H797 C783 0.958 . S
H798 C783 0.961 . S
H799 C783 0.960 . S
C800 C801 1.391 . S
C800 C802 1.394 . S
C800 H816 0.931 . S
C801 C800 1.391 . S
C801 C805 1.376 . S
C802 C800 1.394 . S
C802 C803 1.369 . S
C802 C806 1.531 . S
C803 C802 1.369 . S
C803 C804 1.410 1_554 S
C803 C811 1.503 1_554 S
C804 C803 1.410 1_556 S
C804 C805 1.392 1_556 S
C804 C807 1.511 . S
C805 C801 1.376 . S
C805 C804 1.392 1_554 S
C805 H817 0.929 . S
C806 C802 1.531 . S
C806 H818 0.960 . S
C806 H819 0.962 . S
C806 H820 0.960 . S
C807 C804 1.511 . S
C807 H821 0.961 . S
C807 H822 0.961 . S
C807 H823 0.961 . S
C808 C809 1.370 . S
C808 C810 1.363 . S
C808 H824 0.931 . S
C809 C808 1.370 . S
C809 C813 1.408 . S
C810 C808 1.363 . S
C810 C811 1.370 . S
C810 C814 1.524 1_556 S
C811 C803 1.503 1_556 S
C811 C810 1.370 . S
C811 C812 1.403 . S
C812 C811 1.403 . S
C812 C813 1.404 . S
C812 C815 1.539 . S
C813 C809 1.408 . S
C813 C812 1.404 . S
C813 H825 0.930 . S
C814 C810 1.524 1_554 S
C814 H826 0.956 . S
C814 H827 0.961 . S
C814 H828 0.961 . S
C815 C812 1.539 . S
C815 H829 0.958 . S
C815 H830 0.961 . S
C815 H831 0.960 . S
H816 C800 0.931 . S
H817 C805 0.929 . S
H818 C806 0.960 . S
H819 C806 0.962 . S
H820 C806 0.960 . S
H821 C807 0.961 . S
H822 C807 0.961 . S
H823 C807 0.961 . S
H824 C808 0.931 . S
H825 C813 0.930 . S
H826 C814 0.956 . S
H827 C814 0.961 . S
H828 C814 0.961 . S
H829 C815 0.958 . S
H830 C815 0.961 . S
H831 C815 0.960 . S
C832 C833 1.391 . S
C832 C834 1.394 . S
C832 H848 0.931 . S
C833 C832 1.391 . S
C833 C837 1.376 . S
C834 C832 1.394 . S
C834 C835 1.369 . S
C834 C838 1.531 . S
C835 C834 1.369 . S
C835 C836 1.410 . S
C835 C843 1.503 . S
C836 C835 1.410 . S
C836 C837 1.392 . S
C836 C839 1.511 . S
C837 C833 1.376 . S
C837 C836 1.392 . S
C837 H849 0.929 . S
C838 C834 1.531 . S
C838 H850 0.960 . S
C838 H851 0.962 . S
C838 H852 0.960 . S
C839 C836 1.511 . S
C839 H853 0.961 . S
C839 H854 0.961 . S
C839 H855 0.961 . S
C840 C841 1.370 . S
C840 C842 1.363 . S
C840 H856 0.931 . S
C841 C840 1.370 . S
C841 C845 1.408 . S
C842 C840 1.363 . S
C842 C843 1.370 . S
C842 C846 1.524 . S
C843 C835 1.503 . S
C843 C842 1.370 . S
C843 C844 1.403 . S
C844 C843 1.403 . S
C844 C845 1.404 . S
C844 C847 1.539 . S
C845 C841 1.408 . S
C845 C844 1.404 . S
C845 H857 0.930 . S
C846 C842 1.524 . S
C846 H858 0.956 . S
C846 H859 0.961 . S
C846 H860 0.961 . S
C847 C844 1.539 . S
C847 H861 0.958 . S
C847 H862 0.961 . S
C847 H863 0.960 . S
H848 C832 0.931 . S
H849 C837 0.929 . S
H850 C838 0.960 . S
H851 C838 0.962 . S
H852 C838 0.960 . S
H853 C839 0.961 . S
H854 C839 0.961 . S
H855 C839 0.961 . S
H856 C840 0.931 . S
H857 C845 0.930 . S
H858 C846 0.956 . S
H859 C846 0.961 . S
H860 C846 0.961 . S
H861 C847 0.958 . S
H862 C847 0.961 . S
H863 C847 0.960 . S
C864 C865 1.391 . S
C864 C866 1.394 . S
C864 H880 0.931 . S
C865 C864 1.391 . S
C865 C869 1.376 . S
C866 C864 1.394 . S
C866 C867 1.369 . S
C866 C870 1.531 1_554 S
C867 C866 1.369 . S
C867 C868 1.410 . S
C867 C875 1.503 1_554 S
C868 C867 1.410 . S
C868 C869 1.392 . S
C868 C871 1.511 . S
C869 C865 1.376 . S
C869 C868 1.392 . S
C869 H881 0.929 . S
C870 C866 1.531 1_556 S
C870 H882 0.960 . S
C870 H883 0.962 . S
C870 H884 0.960 1_556 S
C871 C868 1.511 . S
C871 H885 0.961 . S
C871 H886 0.961 . S
C871 H887 0.961 . S
C872 C873 1.370 . S
C872 C874 1.363 . S
C872 H888 0.931 . S
C873 C872 1.370 . S
C873 C877 1.408 . S
C874 C872 1.363 . S
C874 C875 1.370 . S
C874 C878 1.524 . S
C875 C867 1.503 1_556 S
C875 C874 1.370 . S
C875 C876 1.403 1_556 S
C876 C875 1.403 1_554 S
C876 C877 1.404 1_554 S
C876 C879 1.539 . S
C877 C873 1.408 . S
C877 C876 1.404 1_556 S
C877 H889 0.930 . S
C878 C874 1.524 . S
C878 H890 0.956 . S
C878 H891 0.961 . S
C878 H892 0.961 . S
C879 C876 1.539 . S
C879 H893 0.958 . S
C879 H894 0.961 . S
C879 H895 0.960 . S
H880 C864 0.931 . S
H881 C869 0.929 . S
H882 C870 0.960 . S
H883 C870 0.962 . S
H884 C870 0.960 1_554 S
H885 C871 0.961 . S
H886 C871 0.961 . S
H887 C871 0.961 . S
H888 C872 0.931 . S
H889 C877 0.930 . S
H890 C878 0.956 . S
H891 C878 0.961 . S
H892 C878 0.961 . S
H893 C879 0.958 . S
H894 C879 0.961 . S
H895 C879 0.960 . S
C896 C897 1.391 . S
C896 C898 1.394 . S
C896 H912 0.931 . S
C897 C896 1.391 . S
C897 C901 1.376 . S
C898 C896 1.394 . S
C898 C899 1.369 . S
C898 C902 1.531 . S
C899 C898 1.369 . S
C899 C900 1.410 . S
C899 C907 1.503 . S
C900 C899 1.410 . S
C900 C901 1.392 . S
C900 C903 1.511 . S
C901 C897 1.376 . S
C901 C900 1.392 . S
C901 H913 0.929 . S
C902 C898 1.531 . S
C902 H914 0.960 . S
C902 H915 0.962 . S
C902 H916 0.960 . S
C903 C900 1.511 . S
C903 H917 0.961 . S
C903 H918 0.961 . S
C903 H919 0.961 . S
C904 C905 1.370 . S
C904 C906 1.363 . S
C904 H920 0.931 . S
C905 C904 1.370 . S
C905 C909 1.408 . S
C906 C904 1.363 . S
C906 C907 1.370 . S
C906 C910 1.524 . S
C907 C899 1.503 . S
C907 C906 1.370 . S
C907 C908 1.403 . S
C908 C907 1.403 . S
C908 C909 1.404 . S
C908 C911 1.539 . S
C909 C905 1.408 . S
C909 C908 1.404 . S
C909 H921 0.930 . S
C910 C906 1.524 . S
C910 H922 0.956 . S
C910 H923 0.961 . S
C910 H924 0.961 . S
C911 C908 1.539 . S
C911 H925 0.958 . S
C911 H926 0.961 . S
C911 H927 0.960 . S
H912 C896 0.931 . S
H913 C901 0.929 . S
H914 C902 0.960 . S
H915 C902 0.962 . S
H916 C902 0.960 . S
H917 C903 0.961 . S
H918 C903 0.961 . S
H919 C903 0.961 . S
H920 C904 0.931 . S
H921 C909 0.930 . S
H922 C910 0.956 . S
H923 C910 0.961 . S
H924 C910 0.961 . S
H925 C911 0.958 . S
H926 C911 0.961 . S
H927 C911 0.960 . S
C928 C929 1.391 . S
C928 C930 1.396 . S
C928 H944 0.931 . S
C929 C928 1.391 . S
C929 C933 1.376 . S
C930 C928 1.396 . S
C930 C931 1.371 . S
C930 C934 1.527 1_554 S
C931 C930 1.371 . S
C931 C932 1.410 . S
C931 C939 1.503 1_554 S
C932 C931 1.410 . S
C932 C933 1.392 . S
C932 C935 1.511 . S
C933 C929 1.376 . S
C933 C932 1.392 . S
C933 H945 0.929 . S
C934 C930 1.527 1_556 S
C934 H946 0.960 . S
C934 H947 0.962 . S
C934 H948 0.960 . S
C935 C932 1.511 . S
C935 H949 0.961 . S
C935 H950 0.961 . S
C935 H951 0.961 . S
C936 C937 1.370 . S
C936 C938 1.363 . S
C936 H952 0.931 . S
C937 C936 1.370 . S
C937 C941 1.408 . S
C938 C936 1.363 . S
C938 C939 1.370 . S
C938 C942 1.524 . S
C939 C931 1.503 1_556 S
C939 C938 1.370 . S
C939 C940 1.403 . S
C940 C939 1.403 . S
C940 C941 1.404 . S
C940 C943 1.539 1_556 S
C941 C937 1.408 . S
C941 C940 1.404 . S
C941 H953 0.930 . S
C942 C938 1.524 . S
C942 H954 0.956 . S
C942 H955 0.961 . S
C942 H956 0.961 . S
C943 C940 1.539 1_554 S
C943 H957 0.958 . S
C943 H958 0.961 . S
C943 H959 0.960 . S
H944 C928 0.931 . S
H945 C933 0.929 . S
H946 C934 0.960 . S
H947 C934 0.962 . S
H948 C934 0.960 . S
H949 C935 0.961 . S
H950 C935 0.961 . S
H951 C935 0.961 . S
H952 C936 0.931 . S
H953 C941 0.930 . S
H954 C942 0.956 . S
H955 C942 0.961 . S
H956 C942 0.961 . S
H957 C943 0.958 . S
H958 C943 0.961 . S
H959 C943 0.960 . S
C960 C961 1.391 . S
C960 C962 1.394 . S
C960 H976 0.931 . S
C961 C960 1.391 . S
C961 C965 1.376 . S
C962 C960 1.394 . S
C962 C963 1.369 . S
C962 C966 1.531 . S
C963 C962 1.369 . S
C963 C964 1.410 . S
C963 C971 1.503 . S
C964 C963 1.410 . S
C964 C965 1.392 . S
C964 C967 1.511 . S
C965 C961 1.376 . S
C965 C964 1.392 . S
C965 H977 0.929 . S
C966 C962 1.531 . S
C966 H978 0.960 . S
C966 H979 0.962 . S
C966 H980 0.960 . S
C967 C964 1.511 . S
C967 H981 0.961 . S
C967 H982 0.961 . S
C967 H983 0.961 . S
C968 C969 1.370 . S
C968 C970 1.363 . S
C968 H984 0.931 . S
C969 C968 1.370 . S
C969 C973 1.408 . S
C970 C968 1.363 . S
C970 C971 1.370 . S
C970 C974 1.524 . S
C971 C963 1.503 . S
C971 C970 1.370 . S
C971 C972 1.403 . S
C972 C971 1.403 . S
C972 C973 1.404 . S
C972 C975 1.539 . S
C973 C969 1.408 . S
C973 C972 1.404 . S
C973 H985 0.930 . S
C974 C970 1.524 . S
C974 H986 0.956 . S
C974 H987 0.961 . S
C974 H988 0.961 . S
C975 C972 1.539 . S
C975 H989 0.958 . S
C975 H990 0.961 . S
C975 H991 0.960 . S
H976 C960 0.931 . S
H977 C965 0.929 . S
H978 C966 0.960 . S
H979 C966 0.962 . S
H980 C966 0.960 . S
H981 C967 0.961 . S
H982 C967 0.961 . S
H983 C967 0.961 . S
H984 C968 0.931 . S
H985 C973 0.930 . S
H986 C974 0.956 . S
H987 C974 0.961 . S
H988 C974 0.961 . S
H989 C975 0.958 . S
H990 C975 0.961 . S
H991 C975 0.960 . S
C992 C993 1.391 . S
C992 C994 1.394 1_556 S
C992 H1008 0.931 1_556 S
C993 C992 1.391 . S
C993 C997 1.376 . S
C994 C992 1.394 1_554 S
C994 C995 1.369 1_554 S
C994 C998 1.531 . S
C995 C994 1.369 1_556 S
C995 C996 1.410 . S
C995 C1003 1.503 1_556 S
C996 C995 1.410 . S
C996 C997 1.392 . S
C996 C999 1.511 . S
C997 C993 1.376 . S
C997 C996 1.392 . S
C997 H1009 0.929 . S
C998 C994 1.531 . S
C998 H1010 0.960 . S
C998 H1011 0.962 . S
C998 H1012 0.960 . S
C999 C996 1.511 . S
C999 H1013 0.961 . S
C999 H1014 0.961 . S
C999 H1015 0.961 . S
C1000 C1001 1.370 . S
C1000 C1002 1.363 1_554 S
C1000 H1016 0.931 . S
C1001 C1000 1.370 . S
C1001 C1005 1.408 . S
C1002 C1000 1.363 1_556 S
C1002 C1003 1.370 1_556 S
C1002 C1006 1.524 . S
C1003 C995 1.503 1_554 S
C1003 C1002 1.370 1_554 S
C1003 C1004 1.403 . S
C1004 C1003 1.403 . S
C1004 C1005 1.404 . S
C1004 C1007 1.539 . S
C1005 C1001 1.408 . S
C1005 C1004 1.404 . S
C1005 H1017 0.930 . S
C1006 C1002 1.524 . S
C1006 H1018 0.956 . S
C1006 H1019 0.961 . S
C1006 H1020 0.961 . S
C1007 C1004 1.539 . S
C1007 H1021 0.958 . S
C1007 H1022 0.961 . S
C1007 H1023 0.960 . S
H1008 C992 0.931 1_554 S
H1009 C997 0.929 . S
H1010 C998 0.960 . S
H1011 C998 0.962 . S
H1012 C998 0.960 . S
H1013 C999 0.961 . S
H1014 C999 0.961 . S
H1015 C999 0.961 . S
H1016 C1000 0.931 . S
H1017 C1005 0.930 . S
H1018 C1006 0.956 . S
H1019 C1006 0.961 . S
H1020 C1006 0.961 . S
H1021 C1007 0.958 . S
H1022 C1007 0.961 . S
H1023 C1007 0.960 . S
C1024 C1025 1.391 . S
C1024 C1026 1.394 . S
C1024 H1040 0.931 . S
C1025 C1024 1.391 . S
C1025 C1029 1.376 . S
C1026 C1024 1.394 . S
C1026 C1027 1.369 . S
C1026 C1030 1.531 . S
C1027 C1026 1.369 . S
C1027 C1028 1.410 . S
C1027 C1035 1.503 . S
C1028 C1027 1.410 . S
C1028 C1029 1.392 . S
C1028 C1031 1.511 . S
C1029 C1025 1.376 . S
C1029 C1028 1.392 . S
C1029 H1041 0.929 . S
C1030 C1026 1.531 . S
C1030 H1042 0.960 . S
C1030 H1043 0.962 . S
C1030 H1044 0.960 . S
C1031 C1028 1.511 . S
C1031 H1045 0.961 . S
C1031 H1046 0.961 . S
C1031 H1047 0.961 . S
C1032 C1033 1.370 . S
C1032 C1034 1.363 . S
C1032 H1048 0.931 . S
C1033 C1032 1.370 . S
C1033 C1037 1.408 . S
C1034 C1032 1.363 . S
C1034 C1035 1.370 . S
C1034 C1038 1.524 . S
C1035 C1027 1.503 . S
C1035 C1034 1.370 . S
C1035 C1036 1.403 . S
C1036 C1035 1.403 . S
C1036 C1037 1.404 . S
C1036 C1039 1.539 . S
C1037 C1033 1.408 . S
C1037 C1036 1.404 . S
C1037 H1049 0.930 . S
C1038 C1034 1.524 . S
C1038 H1050 0.956 . S
C1038 H1051 0.961 . S
C1038 H1052 0.961 . S
C1039 C1036 1.539 . S
C1039 H1053 0.958 . S
C1039 H1054 0.961 . S
C1039 H1055 0.960 . S
H1040 C1024 0.931 . S
H1041 C1029 0.929 . S
H1042 C1030 0.960 . S
H1043 C1030 0.962 . S
H1044 C1030 0.960 . S
H1045 C1031 0.961 . S
H1046 C1031 0.961 . S
H1047 C1031 0.961 . S
H1048 C1032 0.931 . S
H1049 C1037 0.930 . S
H1050 C1038 0.956 . S
H1051 C1038 0.961 . S
H1052 C1038 0.961 . S
H1053 C1039 0.958 . S
H1054 C1039 0.961 . S
H1055 C1039 0.960 . S
C1056 C1057 1.391 . S
C1056 C1058 1.394 . S
C1056 H1072 0.931 . S
C1057 C1056 1.391 . S
C1057 C1061 1.376 . S
C1058 C1056 1.394 . S
C1058 C1059 1.370 . S
C1058 C1062 1.531 1_554 S
C1059 C1058 1.370 . S
C1059 C1060 1.414 . S
C1059 C1067 1.499 1_554 S
C1060 C1059 1.414 . S
C1060 C1061 1.392 . S
C1060 C1063 1.511 . S
C1061 C1057 1.376 . S
C1061 C1060 1.392 . S
C1061 H1073 0.929 . S
C1062 C1058 1.531 1_556 S
C1062 H1074 0.960 . S
C1062 H1075 0.962 1_556 S
C1062 H1076 0.960 . S
C1063 C1060 1.511 . S
C1063 H1077 0.961 . S
C1063 H1078 0.961 . S
C1063 H1079 0.961 1_554 S
C1064 C1065 1.370 . S
C1064 C1066 1.363 1_556 S
C1064 H1080 0.931 1_556 S
C1065 C1064 1.370 . S
C1065 C1069 1.408 . S
C1066 C1064 1.363 1_554 S
C1066 C1067 1.370 1_554 S
C1066 C1070 1.524 . S
C1067 C1059 1.499 1_556 S
C1067 C1066 1.370 1_556 S
C1067 C1068 1.403 . S
C1068 C1067 1.403 . S
C1068 C1069 1.404 . S
C1068 C1071 1.539 . S
C1069 C1065 1.408 . S
C1069 C1068 1.404 . S
C1069 H1081 0.930 . S
C1070 C1066 1.524 . S
C1070 H1082 0.956 . S
C1070 H1083 0.961 . S
C1070 H1084 0.961 . S
C1071 C1068 1.539 . S
C1071 H1085 0.958 . S
C1071 H1086 0.961 . S
C1071 H1087 0.960 . S
H1072 C1056 0.931 . S
H1073 C1061 0.929 . S
H1074 C1062 0.960 . S
H1075 C1062 0.962 1_554 S
H1076 C1062 0.960 . S
H1077 C1063 0.961 . S
H1078 C1063 0.961 . S
H1079 C1063 0.961 1_556 S
H1080 C1064 0.931 1_554 S
H1081 C1069 0.930 . S
H1082 C1070 0.956 . S
H1083 C1070 0.961 . S
H1084 C1070 0.961 . S
H1085 C1071 0.958 . S
H1086 C1071 0.961 . S
H1087 C1071 0.960 . S
C1088 C1089 1.391 . S
C1088 C1090 1.394 . S
C1088 H1104 0.931 . S
C1089 C1088 1.391 . S
C1089 C1093 1.376 . S
C1090 C1088 1.394 . S
C1090 C1091 1.369 . S
C1090 C1094 1.531 . S
C1091 C1090 1.369 . S
C1091 C1092 1.410 . S
C1091 C1099 1.503 . S
C1092 C1091 1.410 . S
C1092 C1093 1.392 . S
C1092 C1095 1.511 . S
C1093 C1089 1.376 . S
C1093 C1092 1.392 . S
C1093 H1105 0.929 . S
C1094 C1090 1.531 . S
C1094 H1106 0.960 . S
C1094 H1107 0.962 . S
C1094 H1108 0.960 . S
C1095 C1092 1.511 . S
C1095 H1109 0.961 . S
C1095 H1110 0.961 . S
C1095 H1111 0.961 . S
C1096 C1097 1.370 . S
C1096 C1098 1.363 . S
C1096 H1112 0.931 . S
C1097 C1096 1.370 . S
C1097 C1101 1.408 . S
C1098 C1096 1.363 . S
C1098 C1099 1.370 . S
C1098 C1102 1.524 . S
C1099 C1091 1.503 . S
C1099 C1098 1.370 . S
C1099 C1100 1.403 . S
C1100 C1099 1.403 . S
C1100 C1101 1.404 . S
C1100 C1103 1.539 . S
C1101 C1097 1.408 . S
C1101 C1100 1.404 . S
C1101 H1113 0.930 . S
C1102 C1098 1.524 . S
C1102 H1114 0.956 . S
C1102 H1115 0.961 . S
C1102 H1116 0.961 . S
C1103 C1100 1.539 . S
C1103 H1117 0.958 . S
C1103 H1118 0.961 . S
C1103 H1119 0.960 . S
H1104 C1088 0.931 . S
H1105 C1093 0.929 . S
H1106 C1094 0.960 . S
H1107 C1094 0.962 . S
H1108 C1094 0.960 . S
H1109 C1095 0.961 . S
H1110 C1095 0.961 . S
H1111 C1095 0.961 . S
H1112 C1096 0.931 . S
H1113 C1101 0.930 . S
H1114 C1102 0.956 . S
H1115 C1102 0.961 . S
H1116 C1102 0.961 . S
H1117 C1103 0.958 . S
H1118 C1103 0.961 . S
H1119 C1103 0.960 . S
C1120 C1121 1.391 . S
C1120 C1122 1.394 1_556 S
C1120 H1136 0.931 . S
C1121 C1120 1.391 . S
C1121 C1125 1.376 . S
C1122 C1120 1.394 1_554 S
C1122 C1123 1.367 1_554 S
C1122 C1126 1.531 . S
C1123 C1122 1.367 1_556 S
C1123 C1124 1.419 . S
C1123 C1131 1.498 1_546 S
C1124 C1123 1.419 . S
C1124 C1125 1.392 . S
C1124 C1127 1.511 . S
C1125 C1121 1.376 . S
C1125 C1124 1.392 . S
C1125 H1137 0.929 . S
C1126 C1122 1.531 . S
C1126 H1138 0.960 . S
C1126 H1139 0.962 . S
C1126 H1140 0.960 . S
C1127 C1124 1.511 . S
C1127 H1141 0.961 . S
C1127 H1142 0.961 1_545 S
C1127 H1143 0.961 . S
C1128 C1129 1.370 . S
C1128 C1130 1.363 1_554 S
C1128 H1144 0.931 1_554 S
C1129 C1128 1.370 . S
C1129 C1133 1.408 . S
C1130 C1128 1.363 1_556 S
C1130 C1131 1.370 1_556 S
C1130 C1134 1.524 . S
C1131 C1123 1.498 1_564 S
C1131 C1130 1.370 1_554 S
C1131 C1132 1.403 . S
C1132 C1131 1.403 . S
C1132 C1133 1.404 . S
C1132 C1135 1.539 1_565 S
C1133 C1129 1.408 . S
C1133 C1132 1.404 . S
C1133 H1145 0.930 . S
C1134 C1130 1.524 . S
C1134 H1146 0.956 . S
C1134 H1147 0.961 . S
C1134 H1148 0.961 . S
C1135 C1132 1.539 1_545 S
C1135 H1149 0.958 . S
C1135 H1150 0.961 1_545 S
C1135 H1151 0.960 . S
H1136 C1120 0.931 . S
H1137 C1125 0.929 . S
H1138 C1126 0.960 . S
H1139 C1126 0.962 . S
H1140 C1126 0.960 . S
H1141 C1127 0.961 . S
H1142 C1127 0.961 1_565 S
H1143 C1127 0.961 . S
H1144 C1128 0.931 1_556 S
H1145 C1133 0.930 . S
H1146 C1134 0.956 . S
H1147 C1134 0.961 . S
H1148 C1134 0.961 . S
H1149 C1135 0.958 . S
H1150 C1135 0.961 1_565 S
H1151 C1135 0.960 . S
C1152 C1153 1.391 . S
C1152 C1154 1.394 . S
C1152 H1168 0.931 . S
C1153 C1152 1.391 . S
C1153 C1157 1.376 . S
C1154 C1152 1.394 . S
C1154 C1155 1.369 . S
C1154 C1158 1.531 . S
C1155 C1154 1.369 . S
C1155 C1156 1.410 . S
C1155 C1163 1.503 1_565 S
C1156 C1155 1.410 . S
C1156 C1157 1.392 . S
C1156 C1159 1.511 . S
C1157 C1153 1.376 . S
C1157 C1156 1.392 . S
C1157 H1169 0.929 . S
C1158 C1154 1.531 . S
C1158 H1170 0.960 1_565 S
C1158 H1171 0.962 . S
C1158 H1172 0.960 . S
C1159 C1156 1.511 . S
C1159 H1173 0.961 . S
C1159 H1174 0.961 1_565 S
C1159 H1175 0.961 1_565 S
C1160 C1161 1.370 . S
C1160 C1162 1.363 . S
C1160 H1176 0.931 . S
C1161 C1160 1.370 . S
C1161 C1165 1.408 . S
C1162 C1160 1.363 . S
C1162 C1163 1.370 . S
C1162 C1166 1.524 1_545 S
C1163 C1155 1.503 1_545 S
C1163 C1162 1.370 . S
C1163 C1164 1.403 . S
C1164 C1163 1.403 . S
C1164 C1165 1.404 . S
C1164 C1167 1.539 . S
C1165 C1161 1.408 . S
C1165 C1164 1.404 . S
C1165 H1177 0.930 . S
C1166 C1162 1.524 1_565 S
C1166 H1178 0.956 . S
C1166 H1179 0.961 . S
C1166 H1180 0.961 . S
C1167 C1164 1.539 . S
C1167 H1181 0.958 . S
C1167 H1182 0.961 . S
C1167 H1183 0.960 . S
H1168 C1152 0.931 . S
H1169 C1157 0.929 . S
H1170 C1158 0.960 1_545 S
H1171 C1158 0.962 . S
H1172 C1158 0.960 . S
H1173 C1159 0.961 . S
H1174 C1159 0.961 1_545 S
H1175 C1159 0.961 1_545 S
H1176 C1160 0.931 . S
H1177 C1165 0.930 . S
H1178 C1166 0.956 . S
H1179 C1166 0.961 . S
H1180 C1166 0.961 . S
H1181 C1167 0.958 . S
H1182 C1167 0.961 . S
H1183 C1167 0.960 . S
C1184 C1185 1.391 . S
C1184 C1186 1.394 . S
C1184 H1200 0.931 . S
C1185 C1184 1.391 . S
C1185 C1189 1.376 . S
C1186 C1184 1.394 . S
C1186 C1187 1.369 . S
C1186 C1190 1.531 . S
C1187 C1186 1.369 . S
C1187 C1188 1.410 . S
C1187 C1195 1.503 1_564 S
C1188 C1187 1.410 . S
C1188 C1189 1.392 . S
C1188 C1191 1.504 1_554 S
C1189 C1185 1.376 . S
C1189 C1188 1.392 . S
C1189 H1201 0.929 . S
C1190 C1186 1.531 . S
C1190 H1202 0.960 1_565 S
C1190 H1203 0.962 . S
C1190 H1204 0.960 . S
C1191 C1188 1.504 1_556 S
C1191 H1205 0.968 . S
C1191 H1206 0.976 . S
C1191 H1207 0.946 1_556 S
C1192 C1193 1.370 . S
C1192 C1194 1.363 . S
C1192 H1208 0.931 . S
C1193 C1192 1.370 . S
C1193 C1197 1.421 . S
C1194 C1192 1.363 . S
C1194 C1195 1.370 . S
C1194 C1198 1.524 1_545 S
C1195 C1187 1.503 1_546 S
C1195 C1194 1.370 . S
C1195 C1196 1.403 1_556 S
C1196 C1195 1.403 1_554 S
C1196 C1197 1.398 1_554 S
C1196 C1199 1.539 . S
C1197 C1193 1.421 . S
C1197 C1196 1.398 1_556 S
C1197 H1209 0.924 1_556 S
C1198 C1194 1.524 1_565 S
C1198 H1210 0.956 . S
C1198 H1211 0.961 . S
C1198 H1212 0.961 . S
C1199 C1196 1.539 . S
C1199 H1213 0.958 . S
C1199 H1214 0.961 . S
C1199 H1215 0.960 . S
H1200 C1184 0.931 . S
H1201 C1189 0.929 . S
H1202 C1190 0.960 1_545 S
H1203 C1190 0.962 . S
H1204 C1190 0.960 . S
H1205 C1191 0.968 . S
H1206 C1191 0.976 . S
H1207 C1191 0.946 1_554 S
H1208 C1192 0.931 . S
H1209 C1197 0.924 1_554 S
H1210 C1198 0.956 . S
H1211 C1198 0.961 . S
H1212 C1198 0.961 . S
H1213 C1199 0.958 . S
H1214 C1199 0.961 . S
H1215 C1199 0.960 . S
C1216 C1217 1.391 . S
C1216 C1218 1.394 . S
C1216 H1232 0.931 . S
C1217 C1216 1.391 . S
C1217 C1221 1.376 . S
C1218 C1216 1.394 . S
C1218 C1219 1.369 . S
C1218 C1222 1.531 . S
C1219 C1218 1.369 . S
C1219 C1220 1.410 . S
C1219 C1227 1.503 1_545 S
C1220 C1219 1.410 . S
C1220 C1221 1.392 . S
C1220 C1223 1.511 . S
C1221 C1217 1.376 . S
C1221 C1220 1.392 . S
C1221 H1233 0.929 . S
C1222 C1218 1.531 . S
C1222 H1234 0.960 . S
C1222 H1235 0.963 . S
C1222 H1236 0.960 . S
C1223 C1220 1.511 . S
C1223 H1237 0.961 . S
C1223 H1238 0.992 . S
C1223 H1239 0.961 . S
C1224 C1225 1.370 . S
C1224 C1226 1.363 . S
C1224 H1240 0.931 . S
C1225 C1224 1.370 . S
C1225 C1229 1.408 . S
C1226 C1224 1.363 . S
C1226 C1227 1.370 . S
C1226 C1230 1.524 . S
C1227 C1219 1.503 1_565 S
C1227 C1226 1.370 . S
C1227 C1228 1.403 . S
C1228 C1227 1.403 . S
C1228 C1229 1.404 . S
C1228 C1231 1.539 1_565 S
C1229 C1225 1.408 . S
C1229 C1228 1.404 . S
C1229 H1241 0.930 . S
C1230 C1226 1.524 . S
C1230 H1242 0.956 . S
C1230 H1243 0.961 . S
C1230 H1244 0.961 . S
C1231 C1228 1.539 1_545 S
C1231 H1245 0.958 . S
C1231 H1246 0.961 . S
C1231 H1247 0.960 . S
H1232 C1216 0.931 . S
H1233 C1221 0.929 . S
H1234 C1222 0.960 . S
H1235 C1222 0.963 . S
H1236 C1222 0.960 . S
H1237 C1223 0.961 . S
H1238 C1223 0.992 . S
H1239 C1223 0.961 . S
H1240 C1224 0.931 . S
H1241 C1229 0.930 . S
H1242 C1230 0.956 . S
H1243 C1230 0.961 . S
H1244 C1230 0.961 . S
H1245 C1231 0.958 . S
H1246 C1231 0.961 . S
H1247 C1231 0.960 . S
C225 C9 1.394 . S
C233 C93 1.409 . S
C257 C23 1.434 . S
C265 C107 1.429 . S
C289 C65 1.405 . S
C297 C37 1.418 . S
C321 C79 1.423 . S
C329 C51 1.425 . S
C353 C205 1.391 . S
C361 C121 1.409 . S
C385 C219 1.412 . S
C393 C135 1.413 . S
C417 C149 1.401 . S
C425 C177 1.410 . S
C449 C163 1.418 . S
C457 C191 1.416 . S
C481 C7 1.427 . S
C489 C73 1.492 . S
C513 C21 1.437 . S
C521 C59 1.493 . S
C545 C35 1.393 . S
C553 C101 1.487 . S
C577 C87 1.480 . S
C585 C49 1.430 . S
C609 C185 1.483 . S
C617 C119 1.435 . S
C641 C171 1.492 . S
C649 C133 1.445 . S
C673 C147 1.461 . S
C681 C213 1.493 . S
C705 C199 1.494 . S
C713 C161 1.444 . S
C737 C176 1.397 . S
C745 C8 1.381 . S
C769 C22 1.368 . S
C777 C190 1.396 . S
C801 C204 1.388 . S
C809 C36 1.391 . S
C833 C218 1.397 . S
C841 C50 1.380 . S
C865 C120 1.395 . S
C873 C64 1.391 . S
C897 C134 1.396 . S
C905 C78 1.392 . S
C929 C92 1.393 . S
C937 C148 1.381 . S
C961 C106 1.389 . S
C969 C162 1.391 . S
C993 C31 1.498 . S
C1001 C3 1.501 . S
C1025 C17 1.499 . S
C1033 C45 1.501 . S
C1057 C91 1.445 . S
C1065 C63 1.411 . S
C1089 C77 1.382 . S
C1097 C105 1.421 . S
C1121 C143 1.500 . S
C1129 C115 1.501 . S
C1153 C157 1.496 . S
C1161 C129 1.504 . S
C1185 C203 1.384 . S
C1193 C175 1.425 . S
C1217 C217 1.438 . S
C1225 C189 1.408 . S
