# Generated by pormake.
# Topology sol, (6)-cn, num edge types: 1
# Building blocks:
#     Node 0, Type 0, BuildingBlock: IZENUY_clean_sbu_0, # of connection points: 6
#     Node 1, Type 0, BuildingBlock: IZENUY_clean_sbu_0, # of connection points: 6
#     Node 2, Type 0, BuildingBlock: IZENUY_clean_sbu_0, # of connection points: 6
#     Node 3, Type 0, BuildingBlock: IZENUY_clean_sbu_0, # of connection points: 6
#     Node 4, Type 0, BuildingBlock: IZENUY_clean_sbu_0, # of connection points: 6
#     Node 5, Type 0, BuildingBlock: IZENUY_clean_sbu_0, # of connection points: 6
#     Node 6, Type 0, BuildingBlock: IZENUY_clean_sbu_0, # of connection points: 6
#     Node 7, Type 0, BuildingBlock: IZENUY_clean_sbu_0, # of connection points: 6
#     Edge 8, Type (0, 0), BuildingBlock: AJUNOK_clean_linker_0, # of connection points: 2
#     Edge 9, Type (0, 0), BuildingBlock: AJUNOK_clean_linker_0, # of connection points: 2
#     Edge 10, Type (0, 0), BuildingBlock: AJUNOK_clean_linker_0, # of connection points: 2
#     Edge 11, Type (0, 0), BuildingBlock: AJUNOK_clean_linker_0, # of connection points: 2
#     Edge 12, Type (0, 0), BuildingBlock: AJUNOK_clean_linker_0, # of connection points: 2
#     Edge 13, Type (0, 0), BuildingBlock: AJUNOK_clean_linker_0, # of connection points: 2
#     Edge 14, Type (0, 0), BuildingBlock: AJUNOK_clean_linker_0, # of connection points: 2
#     Edge 15, Type (0, 0), BuildingBlock: AJUNOK_clean_linker_0, # of connection points: 2
#     Edge 16, Type (0, 0), BuildingBlock: AJUNOK_clean_linker_0, # of connection points: 2
#     Edge 17, Type (0, 0), BuildingBlock: AJUNOK_clean_linker_0, # of connection points: 2
#     Edge 18, Type (0, 0), BuildingBlock: AJUNOK_clean_linker_0, # of connection points: 2
#     Edge 19, Type (0, 0), BuildingBlock: AJUNOK_clean_linker_0, # of connection points: 2
#     Edge 20, Type (0, 0), BuildingBlock: AJUNOK_clean_linker_0, # of connection points: 2
#     Edge 21, Type (0, 0), BuildingBlock: AJUNOK_clean_linker_0, # of connection points: 2
#     Edge 22, Type (0, 0), BuildingBlock: AJUNOK_clean_linker_0, # of connection points: 2
#     Edge 23, Type (0, 0), BuildingBlock: AJUNOK_clean_linker_0, # of connection points: 2
#     Edge 24, Type (0, 0), BuildingBlock: AJUNOK_clean_linker_0, # of connection points: 2
#     Edge 25, Type (0, 0), BuildingBlock: AJUNOK_clean_linker_0, # of connection points: 2
#     Edge 26, Type (0, 0), BuildingBlock: AJUNOK_clean_linker_0, # of connection points: 2
#     Edge 27, Type (0, 0), BuildingBlock: AJUNOK_clean_linker_0, # of connection points: 2
#     Edge 28, Type (0, 0), BuildingBlock: AJUNOK_clean_linker_0, # of connection points: 2
#     Edge 29, Type (0, 0), BuildingBlock: AJUNOK_clean_linker_0, # of connection points: 2
#     Edge 30, Type (0, 0), BuildingBlock: AJUNOK_clean_linker_0, # of connection points: 2
#     Edge 31, Type (0, 0), BuildingBlock: AJUNOK_clean_linker_0, # of connection points: 2
# Relax obj value: 0.162
# Max RMSD: 0.159
# Mean RMSD: 0.159
data_MOF--net-sol--node1-IZENUY_clean_sbu_0--edge1-AJUNOK_clean_linker_0
_symmetry_space_group_name_H-M    P1
_symmetry_Int_Tables_number       1
_symmetry_cell_setting            triclinic
loop_
_symmetry_equiv_pos_as_xyz
'x, y, z'
_cell_length_a     25.818537
_cell_length_b     20.785235
_cell_length_c     20.864675
_cell_angle_alpha  90.417431
_cell_angle_beta   90.768848
_cell_angle_gamma 89.590628
loop_
_atom_site_label
_atom_site_type_symbol
_atom_site_fract_x
_atom_site_fract_y
_atom_site_fract_z
_atom_type_partial_charge
Fe0 Fe 0.18744 0.12919 0.16851 0.0
Fe1 Fe 0.26679 0.19845 0.08646 0.0
O2 O 0.20165 0.17997 0.1038 0.0
Fe3 Fe 0.15009 0.21319 0.05761 0.0
O4 O 0.10409 0.21613 0.12438 0.0
O5 O 0.15228 0.193 0.20818 0.0
O6 O 0.24372 0.1523 0.21809 0.0
C7 C 0.27207 0.20164 0.21754 0.0
C8 C 0.11358 0.09119 0.07264 0.0
O9 O 0.27858 0.23204 0.16631 0.0
C10 C 0.22938 0.19193 0.96466 0.0
O11 O 0.2225 0.06365 0.13296 0.0
O12 O 0.29238 0.11886 0.10946 0.0
O13 O 0.12785 0.13338 1.03313 0.0
O14 O 0.12817 0.09505 0.13097 0.0
C15 C 0.21353 0.31648 0.07133 0.0
O16 O 0.26003 0.16752 1.00545 0.0
O17 O 0.18717 0.21765 0.98252 0.0
C18 C 0.26963 0.06593 0.11853 0.0
O19 O 0.25219 0.28054 0.06053 0.0
O20 O 0.16897 0.29411 0.08024 0.0
C21 C 0.11237 0.21872 0.1844 0.0
Fe22 Fe 0.39215 0.35424 0.66649 0.0
Fe23 Fe 0.31089 0.27803 0.59136 0.0
O24 O 0.37671 0.29698 0.60623 0.0
Fe25 Fe 0.4266 0.25761 0.5626 0.0
O26 O 0.45662 0.22597 0.63555 0.0
O27 O 0.45321 0.31678 0.68981 0.0
O28 O 0.36214 0.30539 0.72758 0.0
C29 C 0.31586 0.28628 0.72588 0.0
C30 C 0.46228 0.38755 0.57539 0.0
O31 O 0.28956 0.29086 0.67448 0.0
C32 C 0.35434 0.27384 0.46666 0.0
O33 O 0.33317 0.4024 0.65434 0.0
O34 O 0.29579 0.35979 0.56903 0.0
O35 O 0.46958 0.32819 0.56309 0.0
O36 O 0.42443 0.40571 0.60927 0.0
C37 C 0.35412 0.15902 0.58565 0.0
O38 O 0.31948 0.26008 0.50614 0.0
O39 O 0.40016 0.28503 0.48562 0.0
C40 C 0.30257 0.40658 0.60666 0.0
O41 O 0.32222 0.19579 0.61273 0.0
O42 O 0.39221 0.18062 0.55509 0.0
C43 C 0.4686 0.25944 0.68405 0.0
Fe44 Fe 0.69354 0.36689 0.902 0.0
Fe45 Fe 0.77472 0.2834 0.97 0.0
O46 O 0.70908 0.3069 0.95893 0.0
Fe47 Fe 0.65958 0.26829 1.00301 0.0
O48 O 0.62752 0.24019 0.93002 0.0
O49 O 0.63266 0.33056 0.87629 0.0
O50 O 0.72341 0.32129 0.83776 0.0
C51 C 0.76951 0.30127 0.83726 0.0
C52 C 0.624 0.39958 0.99561 0.0
O53 O 0.79594 0.29962 0.88835 0.0
C54 C 0.73507 0.27717 0.09553 0.0
O55 O 0.75256 0.41321 0.91771 0.0
O56 O 0.7924 0.36312 0.99737 0.0
O57 O 0.61718 0.34034 1.00762 0.0
O58 O 0.66137 0.41693 0.96143 0.0
C59 C 0.72636 0.1674 0.96688 0.0
O60 O 0.7674 0.26136 0.0534 0.0
O61 O 0.68883 0.29162 0.0801 0.0
C62 C 0.78448 0.41289 0.96439 0.0
O63 O 0.75995 0.20324 0.94275 0.0
O64 O 0.69271 0.18969 1.00483 0.0
C65 C 0.61702 0.27345 0.88128 0.0
Fe66 Fe 0.88572 0.10512 0.40257 0.0
Fe67 Fe 0.80539 0.19102 0.46625 0.0
O68 O 0.87093 0.16685 0.45825 0.0
Fe69 Fe 0.92109 0.20651 0.50196 0.0
O70 O 0.95366 0.22955 0.4281 0.0
O71 O 0.94865 0.13529 0.38175 0.0
O72 O 0.85879 0.15339 0.33703 0.0
C73 C 0.81304 0.17513 0.33495 0.0
C74 C 0.95263 0.0726 0.50021 0.0
O75 O 0.78516 0.17198 0.38382 0.0
C76 C 0.84592 0.2085 0.59272 0.0
O77 O 0.82501 0.06266 0.4137 0.0
O78 O 0.78742 0.11206 0.49432 0.0
O79 O 0.96089 0.13228 0.51075 0.0
O80 O 0.91514 0.05479 0.46447 0.0
C81 C 0.85404 0.30736 0.46296 0.0
O82 O 0.81249 0.21612 0.54891 0.0
O83 O 0.8915 0.18976 0.57972 0.0
C84 C 0.79412 0.06248 0.46023 0.0
O85 O 0.82022 0.27069 0.4387 0.0
O86 O 0.88971 0.2862 0.49953 0.0
C87 C 0.96421 0.19227 0.38208 0.0
Fe88 Fe 0.80913 0.77915 0.98915 0.0
Fe89 Fe 0.88589 0.85238 0.90735 0.0
O90 O 0.87374 0.80057 0.97161 0.0
Fe91 Fe 0.92659 0.7694 1.01705 0.0
O92 O 0.90952 0.68784 0.99427 0.0
O93 O 0.82609 0.69752 1.01459 0.0
O94 O 0.79803 0.74522 0.90944 0.0
C95 C 0.80431 0.7755 0.85815 0.0
C96 C 0.84644 0.78609 0.11041 0.0
O97 O 0.82991 0.82717 0.85857 0.0
C98 C 0.96041 0.89258 1.00146 0.0
O99 O 0.78117 0.85765 0.96658 0.0
O100 O 0.84958 0.91601 0.94422 0.0
O101 O 0.88969 0.76321 0.09229 0.0
O102 O 0.81547 0.81025 0.06994 0.0
C103 C 0.96294 0.7655 0.88949 0.0
O104 O 0.94449 0.88817 0.94383 0.0
O105 O 0.94762 0.85016 0.04165 0.0
C106 C 0.80266 0.91162 0.959 0.0
O107 O 0.92236 0.79072 0.86679 0.0
O108 O 0.97218 0.76794 0.9494 0.0
C109 C 0.86564 0.66344 1.00295 0.0
Fe110 Fe 0.76491 0.68995 0.47843 0.0
Fe111 Fe 0.67979 0.61945 0.40532 0.0
O112 O 0.69838 0.67223 0.46805 0.0
Fe113 Fe 0.65113 0.70892 0.51826 0.0
O114 O 0.68538 0.78594 0.52533 0.0
O115 O 0.75208 0.77319 0.46108 0.0
O116 O 0.78239 0.68013 0.39412 0.0
C117 C 0.75471 0.68781 0.34449 0.0
C118 C 0.72863 0.69184 0.60679 0.0
O119 O 0.70752 0.67212 0.34487 0.0
C120 C 0.61566 0.57941 0.5011 0.0
O121 O 0.78087 0.60652 0.49544 0.0
O122 O 0.73858 0.57059 0.41048 0.0
O123 O 0.6823 0.67863 0.59165 0.0
O124 O 0.76093 0.70509 0.56411 0.0
C125 C 0.60204 0.71403 0.4004 0.0
O126 O 0.65039 0.56437 0.4613 0.0
O127 O 0.60879 0.63763 0.51848 0.0
C128 C 0.77202 0.56267 0.45461 0.0
O129 O 0.61786 0.65782 0.38908 0.0
O130 O 0.61633 0.74415 0.45004 0.0
C131 C 0.71983 0.80874 0.48954 0.0
Fe132 Fe 0.39052 0.61043 0.16531 0.0
Fe133 Fe 0.42358 0.71549 0.07123 0.0
O134 O 0.37431 0.67222 0.1107 0.0
Fe135 Fe 0.30833 0.69285 0.09865 0.0
O136 O 0.28694 0.6716 0.17947 0.0
O137 O 0.35992 0.65436 0.23085 0.0
O138 O 0.45111 0.64596 0.19202 0.0
C139 C 0.46356 0.70439 0.19386 0.0
C140 C 0.30095 0.56387 0.10076 0.0
O141 O 0.45262 0.74099 0.14765 0.0
C142 C 0.3511 0.71049 0.97474 0.0
O143 O 0.42359 0.5638 0.10364 0.0
O144 O 0.46749 0.64493 0.0645 0.0
O145 O 0.2938 0.61354 0.0675 0.0
O146 O 0.33204 0.56359 0.14821 0.0
C147 C 0.35231 0.81143 0.10878 0.0
O148 O 0.39698 0.69543 0.99146 0.0
O149 O 0.31657 0.71936 1.01632 0.0
C150 C 0.46127 0.58464 0.07163 0.0
O151 O 0.38835 0.79279 0.07228 0.0
O152 O 0.31955 0.7725 0.12967 0.0
C153 C 0.31324 0.67257 0.23088 0.0
Fe154 Fe 0.14988 0.75877 0.56828 0.0
Fe155 Fe 0.26761 0.77511 0.59081 0.0
O156 O 0.2027 0.79617 0.60842 0.0
Fe157 Fe 0.19079 0.85519 0.66747 0.0
O158 O 0.15845 0.79768 0.71649 0.0
O159 O 0.10755 0.76153 0.63916 0.0
O160 O 0.17067 0.67995 0.59528 0.0
C161 C 0.21512 0.6566 0.5864 0.0
C162 C 0.112 0.88217 0.57509 0.0
O163 O 0.2534 0.69111 0.57288 0.0
C164 C 0.26856 0.90949 0.60145 0.0
O165 O 0.18451 0.74786 0.49146 0.0
O166 O 0.25867 0.7971 0.50777 0.0
O167 O 0.12938 0.88414 0.63208 0.0
O168 O 0.12435 0.83574 0.53857 0.0
C169 C 0.27525 0.78662 0.72117 0.0
O170 O 0.29298 0.85656 0.60487 0.0
O171 O 0.22261 0.91451 0.62037 0.0
C172 C 0.22676 0.77004 0.47023 0.0
O173 O 0.28095 0.75023 0.67318 0.0
O174 O 0.24972 0.83844 0.71511 0.0
C175 C 0.11941 0.76611 0.69846 0.0
C176 C 0.07721 0.25671 0.2889 0.0
C177 C 0.06884 0.22842 0.22809 0.0
C178 C 0.04105 0.24965 0.33808 0.0
C179 C 0.99669 0.212 0.32819 0.0
H180 H 0.11323 0.28131 0.29948 0.0
H181 H 0.0498 0.26948 0.38511 0.0
S182 S 0.95576 0.13152 0.17614 0.0
N183 N 1.01088 0.1667 0.15915 0.0
N184 N 0.94499 0.14945 0.25194 0.0
C185 C 0.98685 0.18641 0.26649 0.0
C186 C 1.02241 0.19576 0.21618 0.0
C187 C 0.49302 0.23259 0.7952 0.0
C188 C 0.50753 0.23746 0.73069 0.0
C189 C 0.52987 0.2376 0.8449 0.0
C190 C 0.58201 0.24878 0.83108 0.0
H191 H 0.45247 0.23038 0.80737 0.0
H192 H 0.51685 0.23864 0.89406 0.0
S193 S 0.64048 0.25575 0.67004 0.0
N194 N 0.57793 0.24616 0.65558 0.0
N195 N 0.64744 0.25643 0.74889 0.0
C196 C 0.59757 0.24796 0.7668 0.0
C197 C 0.56016 0.24195 0.7164 0.0
C198 C 0.991 0.74192 0.77803 0.0
C199 C 1.00406 0.74823 0.84361 0.0
C200 C 1.02905 0.74214 0.73101 0.0
C201 C 0.08158 0.74869 0.74786 0.0
H202 H 0.95079 0.7409 0.76248 0.0
H203 H 1.01677 0.74185 0.68115 0.0
S204 S 0.13714 0.75129 0.91306 0.0
N205 N 0.07384 0.75004 0.92325 0.0
N206 N 0.14556 0.74958 0.83479 0.0
C207 C 0.09559 0.74758 0.8134 0.0
C208 C 0.05677 0.74745 0.86136 0.0
C209 C 0.51207 0.7067 0.364 0.0
C210 C 0.55984 0.73769 0.35916 0.0
C211 C 0.47896 0.70128 0.31083 0.0
C212 C 0.49236 0.727 0.25111 0.0
H213 H 0.50282 0.68042 0.40703 0.0
H214 H 0.44444 0.67241 0.31533 0.0
S215 S 0.60858 0.82364 0.21751 0.0
N216 N 0.61582 0.80245 0.29336 0.0
N217 N 0.55269 0.79324 0.19295 0.0
C218 C 0.53704 0.76474 0.24768 0.0
C219 C 0.57112 0.7698 0.30203 0.0
C220 C 0.05363 -0.00054 0.09921 0.0
C221 C 0.07489 0.04074 0.053 0.0
C222 C 1.01678 0.9522 0.08253 0.0
C223 C 0.99919 0.94383 1.01882 0.0
H224 H 0.06535 0.00369 0.14908 0.0
H225 H 1.00192 0.92206 0.12012 0.0
S226 S 0.04303 0.03854 0.87882 0.0
N227 N 0.07565 0.06908 0.94022 0.0
N228 N 1.00686 0.98132 0.90886 0.0
C229 C 1.02021 0.98483 0.97204 0.0
C230 C 0.05779 0.0328 0.98908 0.0
C231 C 0.52893 0.54783 0.54439 0.0
C232 C 0.57814 0.52948 0.52178 0.0
C233 C 0.49179 0.50189 0.56105 0.0
C234 C 0.50211 0.43539 0.55597 0.0
H235 H 0.51851 0.59826 0.54833 0.0
H236 H 0.45452 0.51883 0.57768 0.0
S237 S 0.62668 0.36175 0.5041 0.0
N238 N 0.63609 0.43993 0.49834 0.0
N239 N 0.56682 0.35378 0.52952 0.0
C240 C 0.55161 0.41637 0.53443 0.0
C241 C 0.5894 0.46321 0.51744 0.0
C242 C 0.49953 0.47242 0.06454 0.0
C243 C 0.50271 0.53845 0.04988 0.0
C244 C 0.53907 0.42855 0.04796 0.0
C245 C 0.58392 0.44827 1.01578 0.0
H246 H 0.46627 0.45418 0.08955 0.0
H247 H 0.53409 0.37848 0.0603 0.0
S248 S 0.61184 0.61577 0.96562 0.0
N249 N 0.55499 0.62114 1.00056 0.0
N250 N 0.62884 0.53923 0.96977 0.0
C251 C 0.58768 0.51422 1.0007 0.0
C252 C 0.54732 0.55891 1.01754 0.0
C253 C 0.99451 0.96206 0.49287 0.0
C254 C 0.99236 0.02378 0.52173 0.0
C255 C 1.03382 0.91712 0.50881 0.0
C256 C 0.0724 0.93143 0.55501 0.0
H257 H 0.96602 0.94848 0.45679 0.0
H258 H 1.03342 0.87042 0.48543 0.0
S259 S 0.08541 0.08601 0.64439 0.0
N260 N 1.03343 0.09642 0.59863 0.0
N261 N 0.10639 0.01248 0.62863 0.0
C262 C 0.07074 -0.00715 0.58423 0.0
C263 C 1.0311 0.03872 0.56766 0.0
C264 C 0.35161 0.92422 0.06861 0.0
C265 C 0.34158 0.88026 0.11785 0.0
C266 C 0.33075 0.98664 0.07063 0.0
C267 C 0.29955 0.00614 0.12187 0.0
H268 H 0.37262 0.9091 1.02644 0.0
H269 H 0.33627 0.01821 1.03023 0.0
S270 S 0.27202 0.9141 0.26889 0.0
N271 N 0.30607 0.86415 0.22393 0.0
N272 N 0.26655 0.98117 0.22732 0.0
C273 C 0.29337 0.9647 0.17391 0.0
C274 C 0.31463 0.90169 0.17205 0.0
C275 C 0.23227 0.55968 0.64968 0.0
C276 C 0.22387 0.58762 0.58958 0.0
C277 C 0.25578 0.4992 0.65458 0.0
C278 C 0.27101 0.465 0.59942 0.0
H279 H 0.22401 0.58657 0.69312 0.0
H280 H 0.26391 0.4802 0.70192 0.0
S281 S 0.25301 0.5165 0.43084 0.0
N282 N 0.22933 0.57658 0.47398 0.0
N283 N 0.27244 0.46146 0.48284 0.0
C284 C 0.25945 0.49078 0.53886 0.0
C285 C 0.23621 0.55279 0.53403 0.0
C286 C 0.8307 0.50818 0.9243 0.0
C287 C 0.81512 0.47095 0.97657 0.0
C288 C 0.85229 0.56897 0.93385 0.0
C289 C 0.85819 0.59443 0.99583 0.0
H290 H 0.82418 0.49134 0.8756 0.0
H291 H 0.86093 0.598 0.89243 0.0
S292 S 0.82653 0.51526 0.14846 0.0
N293 N 0.81039 0.46207 0.09253 0.0
N294 N 0.84956 0.57797 0.11016 0.0
C295 C 0.84522 0.55677 0.04857 0.0
C296 C 0.82413 0.49429 0.03901 0.0
C297 C 0.75364 0.96489 0.41547 0.0
C298 C 0.76305 0.00458 0.46917 0.0
C299 C 0.73572 0.90254 0.42264 0.0
C300 C 0.72594 0.87811 0.48361 0.0
H301 H 0.76304 0.98076 0.36766 0.0
H302 H 0.7321 0.87203 0.38044 0.0
S303 S 0.737 0.96524 0.63858 0.0
N304 N 0.75608 0.01767 0.58473 0.0
N305 N 0.72088 0.8996 0.59804 0.0
C306 C 0.73027 0.91892 0.53727 0.0
C307 C 0.74919 0.98269 0.53005 0.0
C308 C 0.72757 0.05701 1.01253 0.0
C309 C 0.73362 0.09784 0.95969 0.0
C310 C 0.74643 -0.00637 1.01066 0.0
C311 C 0.77149 0.97022 0.95592 0.0
H312 H 0.71186 0.07545 0.05697 0.0
H313 H 0.74485 0.96461 0.05351 0.0
S314 S 0.78676 0.0536 0.80111 0.0
N315 N 0.75859 0.10722 0.84818 0.0
N316 N 0.79437 0.9883 0.84497 0.0
C317 C 0.77319 0.00853 0.90102 0.0
C318 C 0.75404 0.07252 0.90281 0.0
C319 C 0.82625 0.47912 0.51014 0.0
C320 C 0.80297 0.50285 0.45368 0.0
C321 C 0.84747 0.41683 0.51176 0.0
C322 C 0.84518 0.37672 0.45724 0.0
H323 H 0.82531 0.50714 0.55409 0.0
H324 H 0.86223 0.39846 0.55695 0.0
S325 S 0.79897 0.42084 0.29471 0.0
N326 N 0.78765 0.48526 0.33916 0.0
N327 N 0.8256 0.36774 0.34364 0.0
C328 C 0.8264 0.40193 0.39944 0.0
C329 C 0.80569 0.46522 0.3973 0.0
C330 C 0.24481 0.41653 1.02256 0.0
C331 C 0.22249 0.38547 0.07491 0.0
C332 C 0.26674 0.47756 1.02989 0.0
C333 C 0.26824 0.50765 0.09024 0.0
H334 H 0.2478 0.39199 0.97672 0.0
H335 H 0.28592 0.49904 0.98951 0.0
S336 S 0.21137 0.44804 0.24062 0.0
N337 N 0.19935 0.39082 0.18718 0.0
N338 N 0.2421 0.50493 0.20177 0.0
C339 C 0.24345 0.47859 0.14197 0.0
C340 C 0.22009 0.41736 0.13407 0.0
C341 C 0.34627 0.97998 0.60577 0.0
C342 C 0.2952 0.96861 0.58442 0.0
C343 C 0.36756 0.04169 0.60187 0.0
C344 C 0.33808 0.09259 0.57644 0.0
H345 H 0.36839 0.9424 0.62953 0.0
H346 H 0.40557 0.05054 0.62261 0.0
S347 S 0.20687 0.08404 0.50287 0.0
N348 N 0.21906 0.01043 0.52843 0.0
N349 N 0.25886 0.1263 0.52172 0.0
C350 C 0.28895 0.08026 0.54992 0.0
C351 C 0.26751 0.01803 0.55369 0.0
C352 C 0.30363 0.21826 0.89395 0.0
C353 C 0.25003 0.20849 0.9006 0.0
C354 C 0.32407 0.24378 0.83775 0.0
C355 C 0.29213 0.25978 0.78494 0.0
H356 H 0.3301 0.20861 0.9335 0.0
H357 H 0.36541 0.25144 0.8361 0.0
S358 S 0.14925 0.23927 0.77601 0.0
N359 N 0.16543 0.21458 0.84867 0.0
N360 N 0.20385 0.26085 0.74213 0.0
C361 C 0.23852 0.24823 0.79005 0.0
C362 C 0.21755 0.22309 0.84796 0.0
C363 C 0.30808 0.28567 0.29348 0.0
C364 C 0.30042 0.2204 0.27717 0.0
C365 C 0.3289 0.30361 0.35387 0.0
C366 C 0.3438 0.25674 0.39891 0.0
H367 H 0.29543 0.32307 0.26082 0.0
H368 H 0.33114 0.35419 0.36642 0.0
S369 S 0.33727 0.07979 0.37703 0.0
N370 N 0.31314 0.10917 0.30957 0.0
N371 N 0.35307 0.14289 0.42145 0.0
C372 C 0.33901 0.19163 0.38163 0.0
C373 C 0.3172 0.17342 0.32113 0.0
C374 C 0.73928 0.19932 0.25889 0.0
C375 C 0.79193 0.20604 0.27635 0.0
C376 C 0.71908 0.22733 0.20253 0.0
C377 C 0.75083 0.26366 0.16248 0.0
H378 H 0.71401 0.17021 0.28767 0.0
H379 H 0.6794 0.21734 0.18841 0.0
S380 S 0.88824 0.30633 0.19367 0.0
N381 N 0.87296 0.25949 0.25402 0.0
N382 N 0.83546 0.31157 0.1484 0.0
C383 C 0.80241 0.27446 0.18206 0.0
C384 C 0.82291 0.2457 0.23882 0.0
C385 C 0.84886 0.20819 0.71412 0.0
C386 C 0.83216 0.23604 0.6562 0.0
C387 C 0.8298 0.23096 0.77321 0.0
C388 C 0.79343 0.28198 0.77594 0.0
H389 H 0.87502 0.16723 0.71365 0.0
H390 H 0.84206 0.2069 0.81678 0.0
S391 S 0.74427 0.37813 0.63894 0.0
N392 N 0.78179 0.32263 0.60643 0.0
N393 N 0.74644 0.36416 0.71665 0.0
C394 C 0.77883 0.31227 0.71876 0.0
C395 C 0.79814 0.28964 0.65914 0.0
C396 C 0.77171 0.77253 0.18511 0.0
C397 C 0.82542 0.76696 0.1738 0.0
C398 C 0.7491 0.74569 0.2395 0.0
C399 C 0.77913 0.71313 0.28568 0.0
H400 H 0.74634 0.79611 0.15067 0.0
H401 H 0.70775 0.75066 0.24551 0.0
S402 S 0.92137 0.68512 0.2801 0.0
N403 N 0.90797 0.7261 0.21441 0.0
N404 N 0.86562 0.6767 0.3168 0.0
C405 C 0.83296 0.70807 0.27581 0.0
C406 C 0.856 0.7348 0.22006 0.0
C407 C 0.79115 0.78779 0.74054 0.0
C408 C 0.78072 0.75299 0.79641 0.0
C409 C 0.77304 0.76748 0.68061 0.0
C410 C 0.74294 0.7117 0.67307 0.0
H411 H 0.81449 0.83089 0.74248 0.0
H412 H 0.78326 0.79592 0.63939 0.0
S413 S 0.70282 0.60342 0.80333 0.0
N414 N 0.73719 0.65966 0.84035 0.0
N415 N 0.70216 0.62231 0.72646 0.0
C416 C 0.73063 0.67698 0.72824 0.0
C417 C 0.74983 0.69732 0.79006 0.0
C418 C 0.32959 0.71377 0.79305 0.0
C419 C 0.29943 0.77029 0.78471 0.0
C420 C 0.34903 0.69561 0.85401 0.0
C421 C 0.33848 0.73297 0.90881 0.0
H422 H 0.33725 0.68247 0.7525 0.0
H423 H 0.37045 0.65085 0.85864 0.0
S424 S 0.26518 0.88737 0.91342 0.0
N425 N 0.26307 0.8651 0.83741 0.0
N426 N 0.29893 0.83081 0.95043 0.0
C427 C 0.31008 0.79049 0.90075 0.0
C428 C 0.29073 0.80917 0.83924 0.0
C429 C 0.29818 0.75899 0.39038 0.0
C430 C 0.24555 0.75008 0.40553 0.0
C431 C 0.31968 0.73271 0.3346 0.0
C432 C 0.28946 0.69727 0.29067 0.0
H433 H 0.32374 0.78507 0.42273 0.0
H434 H 0.3603 0.74093 0.32549 0.0
S435 S 0.14958 0.6613 0.30513 0.0
N436 N 0.16359 0.70363 0.3703 0.0
N437 N 0.20396 0.65577 0.26461 0.0
C438 C 0.23657 0.68937 0.30379 0.0
C439 C 0.21467 0.71536 0.36128 0.0
loop_
_geom_bond_atom_site_label_1
_geom_bond_atom_site_label_2
_geom_bond_distance
_geom_bond_site_symmetry_2
_ccdc_geom_bond_type
Fe0 O2 1.918 . S
Fe0 O5 1.997 . S
Fe0 O6 2.002 . S
Fe0 O11 1.976 . S
Fe0 O14 1.996 . S
Fe1 O2 1.918 . S
Fe1 O9 1.997 . S
Fe1 O12 1.996 . S
Fe1 O16 1.976 . S
Fe1 O19 2.002 . S
O2 Fe0 1.918 . S
O2 Fe1 1.918 . S
O2 Fe3 1.918 . S
Fe3 O2 1.918 . S
Fe3 O4 2.002 . S
Fe3 O13 1.976 . S
Fe3 O17 1.996 1_554 S
Fe3 O20 1.997 . S
O4 Fe3 2.002 . S
O4 C21 1.295 . S
O5 Fe0 1.997 . S
O5 C21 1.235 . S
O6 Fe0 2.002 . S
O6 C7 1.295 . S
C7 O6 1.295 . S
C7 O9 1.235 . S
C8 O13 1.287 . S
C8 O14 1.255 . S
O9 Fe1 1.997 . S
O9 C7 1.235 . S
C10 O16 1.287 1_556 S
C10 O17 1.255 . S
O11 Fe0 1.976 . S
O11 C18 1.287 . S
O12 Fe1 1.996 . S
O12 C18 1.255 . S
O13 Fe3 1.976 . S
O13 C8 1.287 . S
O14 Fe0 1.996 . S
O14 C8 1.255 . S
C15 O19 1.295 . S
C15 O20 1.235 . S
O16 Fe1 1.976 . S
O16 C10 1.287 1_554 S
O17 Fe3 1.996 1_556 S
O17 C10 1.255 . S
C18 O11 1.287 . S
C18 O12 1.255 . S
O19 Fe1 2.002 . S
O19 C15 1.295 . S
O20 Fe3 1.997 . S
O20 C15 1.235 . S
C21 O4 1.295 . S
C21 O5 1.235 . S
Fe22 O24 1.918 . S
Fe22 O27 1.997 . S
Fe22 O28 2.002 . S
Fe22 O33 1.976 . S
Fe22 O36 1.996 . S
Fe23 O24 1.918 . S
Fe23 O31 1.997 . S
Fe23 O34 1.996 . S
Fe23 O38 1.976 . S
Fe23 O41 2.002 . S
O24 Fe22 1.918 . S
O24 Fe23 1.918 . S
O24 Fe25 1.918 . S
Fe25 O24 1.918 . S
Fe25 O26 2.002 . S
Fe25 O35 1.976 . S
Fe25 O39 1.996 . S
Fe25 O42 1.997 . S
O26 Fe25 2.002 . S
O26 C43 1.295 . S
O27 Fe22 1.997 . S
O27 C43 1.235 . S
O28 Fe22 2.002 . S
O28 C29 1.295 . S
C29 O28 1.295 . S
C29 O31 1.235 . S
C30 O35 1.287 . S
C30 O36 1.255 . S
O31 Fe23 1.997 . S
O31 C29 1.235 . S
C32 O38 1.287 . S
C32 O39 1.255 . S
O33 Fe22 1.976 . S
O33 C40 1.287 . S
O34 Fe23 1.996 . S
O34 C40 1.255 . S
O35 Fe25 1.976 . S
O35 C30 1.287 . S
O36 Fe22 1.996 . S
O36 C30 1.255 . S
C37 O41 1.295 . S
C37 O42 1.235 . S
O38 Fe23 1.976 . S
O38 C32 1.287 . S
O39 Fe25 1.996 . S
O39 C32 1.255 . S
C40 O33 1.287 . S
C40 O34 1.255 . S
O41 Fe23 2.002 . S
O41 C37 1.295 . S
O42 Fe25 1.997 . S
O42 C37 1.235 . S
C43 O26 1.295 . S
C43 O27 1.235 . S
Fe44 O46 1.918 . S
Fe44 O49 1.997 . S
Fe44 O50 2.002 . S
Fe44 O55 1.976 . S
Fe44 O58 1.996 . S
Fe45 O46 1.918 . S
Fe45 O53 1.997 . S
Fe45 O56 1.996 . S
Fe45 O60 1.976 . S
Fe45 O63 2.002 . S
O46 Fe44 1.918 . S
O46 Fe45 1.918 . S
O46 Fe47 1.918 . S
Fe47 O46 1.918 . S
Fe47 O48 2.002 . S
Fe47 O57 1.976 . S
Fe47 O61 1.996 1_556 S
Fe47 O64 1.997 . S
O48 Fe47 2.002 . S
O48 C65 1.295 . S
O49 Fe44 1.997 . S
O49 C65 1.235 . S
O50 Fe44 2.002 . S
O50 C51 1.295 . S
C51 O50 1.295 . S
C51 O53 1.235 . S
C52 O57 1.287 . S
C52 O58 1.255 . S
O53 Fe45 1.997 . S
O53 C51 1.235 . S
C54 O60 1.287 1_554 S
C54 O61 1.255 . S
O55 Fe44 1.976 . S
O55 C62 1.287 . S
O56 Fe45 1.996 . S
O56 C62 1.255 . S
O57 Fe47 1.976 . S
O57 C52 1.287 . S
O58 Fe44 1.996 . S
O58 C52 1.255 . S
C59 O63 1.295 . S
C59 O64 1.235 . S
O60 Fe45 1.976 . S
O60 C54 1.287 1_556 S
O61 Fe47 1.996 1_554 S
O61 C54 1.255 . S
C62 O55 1.287 . S
C62 O56 1.255 . S
O63 Fe45 2.002 . S
O63 C59 1.295 . S
O64 Fe47 1.997 . S
O64 C59 1.235 . S
C65 O48 1.295 . S
C65 O49 1.235 . S
Fe66 O68 1.918 . S
Fe66 O71 1.997 . S
Fe66 O72 2.002 . S
Fe66 O77 1.976 . S
Fe66 O80 1.996 . S
Fe67 O68 1.918 . S
Fe67 O75 1.997 . S
Fe67 O78 1.996 . S
Fe67 O82 1.976 . S
Fe67 O85 2.002 . S
O68 Fe66 1.918 . S
O68 Fe67 1.918 . S
O68 Fe69 1.918 . S
Fe69 O68 1.918 . S
Fe69 O70 2.002 . S
Fe69 O79 1.976 . S
Fe69 O83 1.996 . S
Fe69 O86 1.997 . S
O70 Fe69 2.002 . S
O70 C87 1.295 . S
O71 Fe66 1.997 . S
O71 C87 1.235 . S
O72 Fe66 2.002 . S
O72 C73 1.295 . S
C73 O72 1.295 . S
C73 O75 1.235 . S
C74 O79 1.287 . S
C74 O80 1.255 . S
O75 Fe67 1.997 . S
O75 C73 1.235 . S
C76 O82 1.287 . S
C76 O83 1.255 . S
O77 Fe66 1.976 . S
O77 C84 1.287 . S
O78 Fe67 1.996 . S
O78 C84 1.255 . S
O79 Fe69 1.976 . S
O79 C74 1.287 . S
O80 Fe66 1.996 . S
O80 C74 1.255 . S
C81 O85 1.295 . S
C81 O86 1.235 . S
O82 Fe67 1.976 . S
O82 C76 1.287 . S
O83 Fe69 1.996 . S
O83 C76 1.255 . S
C84 O77 1.287 . S
C84 O78 1.255 . S
O85 Fe67 2.002 . S
O85 C81 1.295 . S
O86 Fe69 1.997 . S
O86 C81 1.235 . S
C87 O70 1.295 . S
C87 O71 1.235 . S
Fe88 O90 1.918 . S
Fe88 O93 1.997 . S
Fe88 O94 2.002 . S
Fe88 O99 1.976 . S
Fe88 O102 1.996 . S
Fe89 O90 1.918 . S
Fe89 O97 1.997 . S
Fe89 O100 1.996 . S
Fe89 O104 1.976 . S
Fe89 O107 2.002 . S
O90 Fe88 1.918 . S
O90 Fe89 1.918 . S
O90 Fe91 1.918 . S
Fe91 O90 1.918 . S
Fe91 O92 2.002 . S
Fe91 O101 1.976 1_556 S
Fe91 O105 1.996 . S
Fe91 O108 1.997 . S
O92 Fe91 2.002 . S
O92 C109 1.295 . S
O93 Fe88 1.997 . S
O93 C109 1.235 . S
O94 Fe88 2.002 . S
O94 C95 1.295 . S
C95 O94 1.295 . S
C95 O97 1.235 . S
C96 O101 1.287 . S
C96 O102 1.255 1_554 S
O97 Fe89 1.997 . S
O97 C95 1.235 . S
C98 O104 1.287 . S
C98 O105 1.255 . S
O99 Fe88 1.976 . S
O99 C106 1.287 . S
O100 Fe89 1.996 . S
O100 C106 1.255 . S
O101 Fe91 1.976 1_554 S
O101 C96 1.287 . S
O102 Fe88 1.996 . S
O102 C96 1.255 1_556 S
C103 O107 1.295 . S
C103 O108 1.235 . S
O104 Fe89 1.976 . S
O104 C98 1.287 . S
O105 Fe91 1.996 . S
O105 C98 1.255 . S
C106 O99 1.287 . S
C106 O100 1.255 . S
O107 Fe89 2.002 . S
O107 C103 1.295 . S
O108 Fe91 1.997 . S
O108 C103 1.235 . S
C109 O92 1.295 . S
C109 O93 1.235 . S
Fe110 O112 1.918 . S
Fe110 O115 1.997 . S
Fe110 O116 2.002 . S
Fe110 O121 1.976 . S
Fe110 O124 1.996 . S
Fe111 O112 1.918 . S
Fe111 O119 1.997 . S
Fe111 O122 1.996 . S
Fe111 O126 1.976 . S
Fe111 O129 2.002 . S
O112 Fe110 1.918 . S
O112 Fe111 1.918 . S
O112 Fe113 1.918 . S
Fe113 O112 1.918 . S
Fe113 O114 2.002 . S
Fe113 O123 1.976 . S
Fe113 O127 1.996 . S
Fe113 O130 1.997 . S
O114 Fe113 2.002 . S
O114 C131 1.295 . S
O115 Fe110 1.997 . S
O115 C131 1.235 . S
O116 Fe110 2.002 . S
O116 C117 1.295 . S
C117 O116 1.295 . S
C117 O119 1.235 . S
C118 O123 1.287 . S
C118 O124 1.255 . S
O119 Fe111 1.997 . S
O119 C117 1.235 . S
C120 O126 1.287 . S
C120 O127 1.255 . S
O121 Fe110 1.976 . S
O121 C128 1.287 . S
O122 Fe111 1.996 . S
O122 C128 1.255 . S
O123 Fe113 1.976 . S
O123 C118 1.287 . S
O124 Fe110 1.996 . S
O124 C118 1.255 . S
C125 O129 1.295 . S
C125 O130 1.235 . S
O126 Fe111 1.976 . S
O126 C120 1.287 . S
O127 Fe113 1.996 . S
O127 C120 1.255 . S
C128 O121 1.287 . S
C128 O122 1.255 . S
O129 Fe111 2.002 . S
O129 C125 1.295 . S
O130 Fe113 1.997 . S
O130 C125 1.235 . S
C131 O114 1.295 . S
C131 O115 1.235 . S
Fe132 O134 1.918 . S
Fe132 O137 1.997 . S
Fe132 O138 2.002 . S
Fe132 O143 1.976 . S
Fe132 O146 1.996 . S
Fe133 O134 1.918 . S
Fe133 O141 1.997 . S
Fe133 O144 1.996 . S
Fe133 O148 1.976 1_554 S
Fe133 O151 2.002 . S
O134 Fe132 1.918 . S
O134 Fe133 1.918 . S
O134 Fe135 1.918 . S
Fe135 O134 1.918 . S
Fe135 O136 2.002 . S
Fe135 O145 1.976 . S
Fe135 O149 1.996 . S
Fe135 O152 1.997 . S
O136 Fe135 2.002 . S
O136 C153 1.295 . S
O137 Fe132 1.997 . S
O137 C153 1.235 . S
O138 Fe132 2.002 . S
O138 C139 1.295 . S
C139 O138 1.295 . S
C139 O141 1.235 . S
C140 O145 1.287 . S
C140 O146 1.255 . S
O141 Fe133 1.997 . S
O141 C139 1.235 . S
C142 O148 1.287 . S
C142 O149 1.255 1_556 S
O143 Fe132 1.976 . S
O143 C150 1.287 . S
O144 Fe133 1.996 . S
O144 C150 1.255 . S
O145 Fe135 1.976 . S
O145 C140 1.287 . S
O146 Fe132 1.996 . S
O146 C140 1.255 . S
C147 O151 1.295 . S
C147 O152 1.235 . S
O148 Fe133 1.976 1_556 S
O148 C142 1.287 . S
O149 Fe135 1.996 . S
O149 C142 1.255 1_554 S
C150 O143 1.287 . S
C150 O144 1.255 . S
O151 Fe133 2.002 . S
O151 C147 1.295 . S
O152 Fe135 1.997 . S
O152 C147 1.235 . S
C153 O136 1.295 . S
C153 O137 1.235 . S
Fe154 O156 1.918 . S
Fe154 O159 1.997 . S
Fe154 O160 2.002 . S
Fe154 O165 1.976 . S
Fe154 O168 1.996 . S
Fe155 O156 1.918 . S
Fe155 O163 1.997 . S
Fe155 O166 1.996 . S
Fe155 O170 1.976 . S
Fe155 O173 2.002 . S
O156 Fe154 1.918 . S
O156 Fe155 1.918 . S
O156 Fe157 1.918 . S
Fe157 O156 1.918 . S
Fe157 O158 2.002 . S
Fe157 O167 1.976 . S
Fe157 O171 1.996 . S
Fe157 O174 1.997 . S
O158 Fe157 2.002 . S
O158 C175 1.295 . S
O159 Fe154 1.997 . S
O159 C175 1.235 . S
O160 Fe154 2.002 . S
O160 C161 1.295 . S
C161 O160 1.295 . S
C161 O163 1.235 . S
C162 O167 1.287 . S
C162 O168 1.255 . S
O163 Fe155 1.997 . S
O163 C161 1.235 . S
C164 O170 1.287 . S
C164 O171 1.255 . S
O165 Fe154 1.976 . S
O165 C172 1.287 . S
O166 Fe155 1.996 . S
O166 C172 1.255 . S
O167 Fe157 1.976 . S
O167 C162 1.287 . S
O168 Fe154 1.996 . S
O168 C162 1.255 . S
C169 O173 1.295 . S
C169 O174 1.235 . S
O170 Fe155 1.976 . S
O170 C164 1.287 . S
O171 Fe157 1.996 . S
O171 C164 1.255 . S
C172 O165 1.287 . S
C172 O166 1.255 . S
O173 Fe155 2.002 . S
O173 C169 1.295 . S
O174 Fe157 1.997 . S
O174 C169 1.235 . S
C175 O158 1.295 . S
C175 O159 1.235 . S
C176 C177 1.369 . S
C176 C178 1.419 . S
C176 H180 0.930 . S
C177 C176 1.369 . S
C177 C186 1.429 1_455 S
C178 C176 1.419 . S
C178 C179 1.363 1_455 S
C178 H181 0.929 . S
C179 C178 1.363 1_655 S
C179 C185 1.428 . S
H180 C176 0.930 . S
H181 C178 0.929 . S
S182 N183 1.613 . S
S182 N184 1.610 . S
N183 S182 1.613 . S
N183 C186 1.350 . S
N184 S182 1.610 . S
N184 C185 1.351 . S
C185 C179 1.428 . S
C185 N184 1.351 . S
C185 C186 1.434 . S
C186 C177 1.429 1_655 S
C186 N183 1.350 . S
C186 C185 1.434 . S
C187 C188 1.369 . S
C187 C189 1.419 . S
C187 H191 0.930 . S
C188 C187 1.369 . S
C188 C197 1.429 . S
C189 C187 1.419 . S
C189 C190 1.363 . S
C189 H192 0.929 . S
C190 C189 1.363 . S
C190 C196 1.428 . S
H191 C187 0.930 . S
H192 C189 0.929 . S
S193 N194 1.613 . S
S193 N195 1.610 . S
N194 S193 1.613 . S
N194 C197 1.350 . S
N195 S193 1.610 . S
N195 C196 1.351 . S
C196 C190 1.428 . S
C196 N195 1.351 . S
C196 C197 1.434 . S
C197 C188 1.429 . S
C197 N194 1.350 . S
C197 C196 1.434 . S
C198 C199 1.369 . S
C198 C200 1.419 1_655 S
C198 H202 0.930 . S
C199 C198 1.369 . S
C199 C208 1.429 . S
C200 C198 1.419 1_455 S
C200 C201 1.363 . S
C200 H203 0.929 . S
C201 C200 1.363 . S
C201 C207 1.428 . S
H202 C198 0.930 . S
H203 C200 0.929 . S
S204 N205 1.613 1_455 S
S204 N206 1.610 . S
N205 S204 1.613 1_655 S
N205 C208 1.350 . S
N206 S204 1.610 . S
N206 C207 1.351 . S
C207 C201 1.428 . S
C207 N206 1.351 . S
C207 C208 1.434 1_455 S
C208 C199 1.429 . S
C208 N205 1.350 . S
C208 C207 1.434 1_655 S
C209 C210 1.369 . S
C209 C211 1.419 . S
C209 H213 0.930 . S
C210 C209 1.369 . S
C210 C219 1.429 . S
C211 C209 1.419 . S
C211 C212 1.363 . S
C211 H214 0.929 . S
C212 C211 1.363 . S
C212 C218 1.428 . S
H213 C209 0.930 . S
H214 C211 0.929 . S
S215 N216 1.613 . S
S215 N217 1.610 . S
N216 S215 1.613 . S
N216 C219 1.350 . S
N217 S215 1.610 . S
N217 C218 1.351 . S
C218 C212 1.428 . S
C218 N217 1.351 . S
C218 C219 1.434 . S
C219 C210 1.429 . S
C219 N216 1.350 . S
C219 C218 1.434 . S
C220 C221 1.369 1_565 S
C220 C222 1.419 1_455 S
C220 H224 0.930 . S
C221 C220 1.369 1_545 S
C221 C230 1.429 1_554 S
C222 C220 1.419 1_655 S
C222 C223 1.363 1_554 S
C222 H225 0.929 . S
C223 C222 1.363 1_556 S
C223 C229 1.428 1_565 S
H224 C220 0.930 . S
H225 C222 0.929 . S
S226 N227 1.622 . S
S226 N228 1.610 . S
N227 S226 1.622 . S
N227 C230 1.349 1_655 S
N228 S226 1.610 . S
N228 C229 1.351 . S
C229 C223 1.428 1_545 S
C229 N228 1.351 . S
C229 C230 1.434 1_655 S
C230 C221 1.429 1_556 S
C230 N227 1.349 1_455 S
C230 C229 1.434 1_455 S
C231 C232 1.369 . S
C231 C233 1.419 . S
C231 H235 0.930 . S
C232 C231 1.369 . S
C232 C241 1.429 . S
C233 C231 1.419 . S
C233 C234 1.363 . S
C233 H236 0.929 . S
C234 C233 1.363 . S
C234 C240 1.428 . S
H235 C231 0.930 . S
H236 C233 0.929 . S
S237 N238 1.613 . S
S237 N239 1.610 . S
N238 S237 1.613 . S
N238 C241 1.350 . S
N239 S237 1.610 . S
N239 C240 1.351 . S
C240 C234 1.428 . S
C240 N239 1.351 . S
C240 C241 1.434 . S
C241 C232 1.429 . S
C241 N238 1.350 . S
C241 C240 1.434 . S
C242 C243 1.369 . S
C242 C244 1.419 . S
C242 H246 0.930 . S
C243 C242 1.369 . S
C243 C252 1.429 1_554 S
C244 C242 1.419 . S
C244 C245 1.363 1_554 S
C244 H247 0.929 . S
C245 C244 1.363 1_556 S
C245 C251 1.428 . S
H246 C242 0.930 . S
H247 C244 0.929 . S
S248 N249 1.613 . S
S248 N250 1.610 . S
N249 S248 1.613 . S
N249 C252 1.350 . S
N250 S248 1.610 . S
N250 C251 1.351 . S
C251 C245 1.428 . S
C251 N250 1.351 . S
C251 C252 1.434 . S
C252 C243 1.429 1_556 S
C252 N249 1.350 . S
C252 C251 1.434 . S
C253 C254 1.369 1_565 S
C253 C255 1.431 . S
C253 H257 0.930 . S
C254 C253 1.369 1_545 S
C254 C263 1.429 1_655 S
C255 C253 1.431 . S
C255 C256 1.350 1_655 S
C255 H258 0.930 . S
C256 C255 1.350 1_455 S
C256 C262 1.428 1_565 S
H257 C253 0.930 . S
H258 C255 0.930 . S
S259 N260 1.613 . S
S259 N261 1.610 . S
N260 S259 1.613 . S
N260 C263 1.350 . S
N261 S259 1.610 . S
N261 C262 1.351 . S
C262 C256 1.428 1_545 S
C262 N261 1.351 . S
C262 C263 1.434 . S
C263 C254 1.429 1_455 S
C263 N260 1.350 . S
C263 C262 1.434 . S
C264 C265 1.369 . S
C264 C266 1.419 . S
C264 H268 0.930 . S
C265 C264 1.369 . S
C265 C274 1.429 . S
C266 C264 1.419 . S
C266 C267 1.363 1_565 S
C266 H269 0.929 . S
C267 C266 1.363 1_545 S
C267 C273 1.428 . S
H268 C264 0.930 . S
H269 C266 0.929 . S
S270 N271 1.613 1_545 S
S270 N272 1.610 . S
N271 S270 1.613 1_565 S
N271 C274 1.350 . S
N272 S270 1.610 . S
N272 C273 1.351 . S
C273 C267 1.428 . S
C273 N272 1.351 . S
C273 C274 1.434 1_545 S
C274 C265 1.429 . S
C274 N271 1.350 . S
C274 C273 1.434 1_565 S
C275 C276 1.369 . S
C275 C277 1.419 . S
C275 H279 0.930 . S
C276 C275 1.369 . S
C276 C285 1.429 . S
C277 C275 1.419 . S
C277 C278 1.363 . S
C277 H280 0.929 . S
C278 C277 1.363 . S
C278 C284 1.428 . S
H279 C275 0.930 . S
H280 C277 0.929 . S
S281 N282 1.613 . S
S281 N283 1.610 . S
N282 S281 1.613 . S
N282 C285 1.350 . S
N283 S281 1.610 . S
N283 C284 1.351 . S
C284 C278 1.428 . S
C284 N283 1.351 . S
C284 C285 1.434 . S
C285 C276 1.429 . S
C285 N282 1.350 . S
C285 C284 1.434 . S
C286 C287 1.369 . S
C286 C288 1.419 . S
C286 H290 0.930 . S
C287 C286 1.369 . S
C287 C296 1.429 . S
C288 C286 1.419 . S
C288 C289 1.363 . S
C288 H291 0.929 . S
C289 C288 1.363 . S
C289 C295 1.428 . S
H290 C286 0.930 . S
H291 C288 0.929 . S
S292 N293 1.613 . S
S292 N294 1.610 . S
N293 S292 1.613 . S
N293 C296 1.350 . S
N294 S292 1.610 . S
N294 C295 1.351 . S
C295 C289 1.428 . S
C295 N294 1.351 . S
C295 C296 1.434 . S
C296 C287 1.429 . S
C296 N293 1.350 . S
C296 C295 1.434 . S
C297 C298 1.369 1_565 S
C297 C299 1.419 . S
C297 H301 0.930 . S
C298 C297 1.369 1_545 S
C298 C307 1.429 . S
C299 C297 1.419 . S
C299 C300 1.363 . S
C299 H302 0.929 . S
C300 C299 1.363 . S
C300 C306 1.428 . S
H301 C297 0.930 . S
H302 C299 0.929 . S
S303 N304 1.613 . S
S303 N305 1.610 1_545 S
N304 S303 1.613 . S
N304 C307 1.350 . S
N305 S303 1.610 1_565 S
N305 C306 1.351 . S
C306 C300 1.428 . S
C306 N305 1.351 . S
C306 C307 1.434 1_565 S
C307 C298 1.429 . S
C307 N304 1.350 . S
C307 C306 1.434 1_545 S
C308 C309 1.369 . S
C308 C310 1.419 . S
C308 H312 0.930 . S
C309 C308 1.369 . S
C309 C318 1.429 . S
C310 C308 1.419 . S
C310 C311 1.363 1_545 S
C310 H313 0.929 . S
C311 C310 1.363 1_565 S
C311 C317 1.428 . S
H312 C308 0.930 . S
H313 C310 0.929 . S
S314 N315 1.613 1_565 S
S314 N316 1.610 . S
N315 S314 1.613 1_545 S
N315 C318 1.350 . S
N316 S314 1.610 . S
N316 C317 1.351 . S
C317 C311 1.428 . S
C317 N316 1.351 . S
C317 C318 1.434 1_565 S
C318 C309 1.429 . S
C318 N315 1.350 . S
C318 C317 1.434 1_545 S
C319 C320 1.369 . S
C319 C321 1.419 . S
C319 H323 0.930 . S
C320 C319 1.369 . S
C320 C329 1.429 . S
C321 C319 1.419 . S
C321 C322 1.363 . S
C321 H324 0.929 . S
C322 C321 1.363 . S
C322 C328 1.428 . S
H323 C319 0.930 . S
H324 C321 0.929 . S
S325 N326 1.613 . S
S325 N327 1.610 . S
N326 S325 1.613 . S
N326 C329 1.350 . S
N327 S325 1.610 . S
N327 C328 1.351 . S
C328 C322 1.428 . S
C328 N327 1.351 . S
C328 C329 1.434 . S
C329 C320 1.429 . S
C329 N326 1.350 . S
C329 C328 1.434 . S
C330 C331 1.369 . S
C330 C332 1.419 . S
C330 H334 0.930 . S
C331 C330 1.369 . S
C331 C340 1.429 . S
C332 C330 1.419 . S
C332 C333 1.363 . S
C332 H335 0.929 . S
C333 C332 1.363 . S
C333 C339 1.428 . S
H334 C330 0.930 . S
H335 C332 0.929 . S
S336 N337 1.613 . S
S336 N338 1.610 . S
N337 S336 1.613 . S
N337 C340 1.350 . S
N338 S336 1.610 . S
N338 C339 1.351 . S
C339 C333 1.428 . S
C339 N338 1.351 . S
C339 C340 1.434 . S
C340 C331 1.429 . S
C340 N337 1.350 . S
C340 C339 1.434 . S
C341 C342 1.369 . S
C341 C343 1.419 1_565 S
C341 H345 0.930 . S
C342 C341 1.369 . S
C342 C351 1.429 1_565 S
C343 C341 1.419 1_545 S
C343 C344 1.363 . S
C343 H346 0.929 . S
C344 C343 1.363 . S
C344 C350 1.428 . S
H345 C341 0.930 . S
H346 C343 0.929 . S
S347 N348 1.613 . S
S347 N349 1.610 . S
N348 S347 1.613 . S
N348 C351 1.350 . S
N349 S347 1.610 . S
N349 C350 1.351 . S
C350 C344 1.428 . S
C350 N349 1.351 . S
C350 C351 1.434 . S
C351 C342 1.429 1_545 S
C351 N348 1.350 . S
C351 C350 1.434 . S
C352 C353 1.369 . S
C352 C354 1.419 . S
C352 H356 0.930 . S
C353 C352 1.369 . S
C353 C362 1.429 . S
C354 C352 1.419 . S
C354 C355 1.363 . S
C354 H357 0.929 . S
C355 C354 1.363 . S
C355 C361 1.428 . S
H356 C352 0.930 . S
H357 C354 0.929 . S
S358 N359 1.613 . S
S358 N360 1.610 . S
N359 S358 1.613 . S
N359 C362 1.350 . S
N360 S358 1.610 . S
N360 C361 1.351 . S
C361 C355 1.428 . S
C361 N360 1.351 . S
C361 C362 1.434 . S
C362 C353 1.429 . S
C362 N359 1.350 . S
C362 C361 1.434 . S
C363 C364 1.369 . S
C363 C365 1.419 . S
C363 H367 0.930 . S
C364 C363 1.369 . S
C364 C373 1.429 . S
C365 C363 1.419 . S
C365 C366 1.363 . S
C365 H368 0.929 . S
C366 C365 1.363 . S
C366 C372 1.428 . S
H367 C363 0.930 . S
H368 C365 0.929 . S
S369 N370 1.613 . S
S369 N371 1.610 . S
N370 S369 1.613 . S
N370 C373 1.350 . S
N371 S369 1.610 . S
N371 C372 1.351 . S
C372 C366 1.428 . S
C372 N371 1.351 . S
C372 C373 1.434 . S
C373 C364 1.429 . S
C373 N370 1.350 . S
C373 C372 1.434 . S
C374 C375 1.369 . S
C374 C376 1.419 . S
C374 H378 0.930 . S
C375 C374 1.369 . S
C375 C384 1.429 . S
C376 C374 1.419 . S
C376 C377 1.363 . S
C376 H379 0.929 . S
C377 C376 1.363 . S
C377 C383 1.428 . S
H378 C374 0.930 . S
H379 C376 0.929 . S
S380 N381 1.613 . S
S380 N382 1.610 . S
N381 S380 1.613 . S
N381 C384 1.350 . S
N382 S380 1.610 . S
N382 C383 1.351 . S
C383 C377 1.428 . S
C383 N382 1.351 . S
C383 C384 1.434 . S
C384 C375 1.429 . S
C384 N381 1.350 . S
C384 C383 1.434 . S
C385 C386 1.369 . S
C385 C387 1.419 . S
C385 H389 0.930 . S
C386 C385 1.369 . S
C386 C395 1.429 . S
C387 C385 1.419 . S
C387 C388 1.363 . S
C387 H390 0.929 . S
C388 C387 1.363 . S
C388 C394 1.428 . S
H389 C385 0.930 . S
H390 C387 0.929 . S
S391 N392 1.613 . S
S391 N393 1.610 . S
N392 S391 1.613 . S
N392 C395 1.350 . S
N393 S391 1.610 . S
N393 C394 1.351 . S
C394 C388 1.428 . S
C394 N393 1.351 . S
C394 C395 1.434 . S
C395 C386 1.429 . S
C395 N392 1.350 . S
C395 C394 1.434 . S
C396 C397 1.369 . S
C396 C398 1.419 . S
C396 H400 0.930 . S
C397 C396 1.369 . S
C397 C406 1.429 . S
C398 C396 1.419 . S
C398 C399 1.363 . S
C398 H401 0.929 . S
C399 C398 1.363 . S
C399 C405 1.428 . S
H400 C396 0.930 . S
H401 C398 0.929 . S
S402 N403 1.613 . S
S402 N404 1.610 . S
N403 S402 1.613 . S
N403 C406 1.350 . S
N404 S402 1.610 . S
N404 C405 1.351 . S
C405 C399 1.428 . S
C405 N404 1.351 . S
C405 C406 1.434 . S
C406 C397 1.429 . S
C406 N403 1.350 . S
C406 C405 1.434 . S
C407 C408 1.369 . S
C407 C409 1.419 . S
C407 H411 0.930 . S
C408 C407 1.369 . S
C408 C417 1.429 . S
C409 C407 1.419 . S
C409 C410 1.363 . S
C409 H412 0.929 . S
C410 C409 1.363 . S
C410 C416 1.428 . S
H411 C407 0.930 . S
H412 C409 0.929 . S
S413 N414 1.613 . S
S413 N415 1.610 . S
N414 S413 1.613 . S
N414 C417 1.350 . S
N415 S413 1.610 . S
N415 C416 1.351 . S
C416 C410 1.428 . S
C416 N415 1.351 . S
C416 C417 1.434 . S
C417 C408 1.429 . S
C417 N414 1.350 . S
C417 C416 1.434 . S
C418 C419 1.369 . S
C418 C420 1.419 . S
C418 H422 0.930 . S
C419 C418 1.369 . S
C419 C428 1.429 . S
C420 C418 1.419 . S
C420 C421 1.363 . S
C420 H423 0.929 . S
C421 C420 1.363 . S
C421 C427 1.428 . S
H422 C418 0.930 . S
H423 C420 0.929 . S
S424 N425 1.613 . S
S424 N426 1.610 . S
N425 S424 1.613 . S
N425 C428 1.350 . S
N426 S424 1.610 . S
N426 C427 1.351 . S
C427 C421 1.428 . S
C427 N426 1.351 . S
C427 C428 1.434 . S
C428 C419 1.429 . S
C428 N425 1.350 . S
C428 C427 1.434 . S
C429 C430 1.369 . S
C429 C431 1.419 . S
C429 H433 0.930 . S
C430 C429 1.369 . S
C430 C439 1.429 . S
C431 C429 1.419 . S
C431 C432 1.363 . S
C431 H434 0.929 . S
C432 C431 1.363 . S
C432 C438 1.428 . S
H433 C429 0.930 . S
H434 C431 0.929 . S
S435 N436 1.613 . S
S435 N437 1.610 . S
N436 S435 1.613 . S
N436 C439 1.350 . S
N437 S435 1.610 . S
N437 C438 1.351 . S
C438 C432 1.428 . S
C438 N437 1.351 . S
C438 C439 1.434 . S
C439 C430 1.429 . S
C439 N436 1.350 . S
C439 C438 1.434 . S
C177 C21 1.131 . S
C179 C87 1.128 . S
C188 C43 1.130 . S
C190 C65 1.127 . S
C199 C103 1.110 . S
C201 C175 1.108 . S
C210 C125 1.101 . S
C212 C139 1.104 . S
C221 C8 1.849 . S
C223 C98 1.854 . S
C232 C120 1.854 . S
C234 C30 1.848 . S
C243 C150 1.856 . S
C245 C52 1.846 . S
C254 C74 1.849 . S
C256 C162 1.854 . S
C265 C147 1.073 . S
C267 C18 1.089 . S
C276 C161 1.070 . S
C278 C40 1.089 . S
C287 C62 1.089 . S
C289 C109 1.072 . S
C298 C84 1.089 . S
C300 C131 1.069 . S
C309 C59 1.067 . S
C311 C106 1.087 . S
C320 C128 1.087 . S
C322 C81 1.058 . S
C331 C15 1.061 . S
C333 C140 1.086 . S
C342 C164 1.087 . S
C344 C37 1.059 . S
C353 C10 1.549 . S
C355 C29 1.555 . S
C364 C7 1.556 . S
C366 C32 1.546 . S
C375 C73 1.555 . S
C377 C54 1.549 . S
C386 C76 1.546 . S
C388 C51 1.556 . S
C397 C96 1.550 . S
C399 C117 1.559 . S
C408 C95 1.559 . S
C410 C118 1.553 . S
C419 C169 1.560 . S
C421 C142 1.550 . S
C430 C172 1.554 . S
C432 C153 1.559 . S
