# Generated by pormake.
# Topology lcy-e, (6)-cn, num edge types: 1
# Building blocks:
#     Node 0, Type 0, BuildingBlock: BETFEN_clean_sbu_0, # of connection points: 6
#     Node 1, Type 0, BuildingBlock: BETFEN_clean_sbu_0, # of connection points: 6
#     Node 2, Type 0, BuildingBlock: BETFEN_clean_sbu_0, # of connection points: 6
#     Node 3, Type 0, BuildingBlock: BETFEN_clean_sbu_0, # of connection points: 6
#     Node 4, Type 0, BuildingBlock: BETFEN_clean_sbu_0, # of connection points: 6
#     Node 5, Type 0, BuildingBlock: BETFEN_clean_sbu_0, # of connection points: 6
#     Node 6, Type 0, BuildingBlock: BETFEN_clean_sbu_0, # of connection points: 6
#     Node 7, Type 0, BuildingBlock: BETFEN_clean_sbu_0, # of connection points: 6
#     Node 8, Type 0, BuildingBlock: BETFEN_clean_sbu_0, # of connection points: 6
#     Node 9, Type 0, BuildingBlock: BETFEN_clean_sbu_0, # of connection points: 6
#     Node 10, Type 0, BuildingBlock: BETFEN_clean_sbu_0, # of connection points: 6
#     Node 11, Type 0, BuildingBlock: BETFEN_clean_sbu_0, # of connection points: 6
#     Edge 12, Type (0, 0), BuildingBlock: EZIPEK_clean_linker_0, # of connection points: 2
#     Edge 13, Type (0, 0), BuildingBlock: EZIPEK_clean_linker_0, # of connection points: 2
#     Edge 14, Type (0, 0), BuildingBlock: EZIPEK_clean_linker_0, # of connection points: 2
#     Edge 15, Type (0, 0), BuildingBlock: EZIPEK_clean_linker_0, # of connection points: 2
#     Edge 16, Type (0, 0), BuildingBlock: EZIPEK_clean_linker_0, # of connection points: 2
#     Edge 17, Type (0, 0), BuildingBlock: EZIPEK_clean_linker_0, # of connection points: 2
#     Edge 18, Type (0, 0), BuildingBlock: EZIPEK_clean_linker_0, # of connection points: 2
#     Edge 19, Type (0, 0), BuildingBlock: EZIPEK_clean_linker_0, # of connection points: 2
#     Edge 20, Type (0, 0), BuildingBlock: EZIPEK_clean_linker_0, # of connection points: 2
#     Edge 21, Type (0, 0), BuildingBlock: EZIPEK_clean_linker_0, # of connection points: 2
#     Edge 22, Type (0, 0), BuildingBlock: EZIPEK_clean_linker_0, # of connection points: 2
#     Edge 23, Type (0, 0), BuildingBlock: EZIPEK_clean_linker_0, # of connection points: 2
#     Edge 24, Type (0, 0), BuildingBlock: EZIPEK_clean_linker_0, # of connection points: 2
#     Edge 25, Type (0, 0), BuildingBlock: EZIPEK_clean_linker_0, # of connection points: 2
#     Edge 26, Type (0, 0), BuildingBlock: EZIPEK_clean_linker_0, # of connection points: 2
#     Edge 27, Type (0, 0), BuildingBlock: EZIPEK_clean_linker_0, # of connection points: 2
#     Edge 28, Type (0, 0), BuildingBlock: EZIPEK_clean_linker_0, # of connection points: 2
#     Edge 29, Type (0, 0), BuildingBlock: EZIPEK_clean_linker_0, # of connection points: 2
#     Edge 30, Type (0, 0), BuildingBlock: EZIPEK_clean_linker_0, # of connection points: 2
#     Edge 31, Type (0, 0), BuildingBlock: EZIPEK_clean_linker_0, # of connection points: 2
#     Edge 32, Type (0, 0), BuildingBlock: EZIPEK_clean_linker_0, # of connection points: 2
#     Edge 33, Type (0, 0), BuildingBlock: EZIPEK_clean_linker_0, # of connection points: 2
#     Edge 34, Type (0, 0), BuildingBlock: EZIPEK_clean_linker_0, # of connection points: 2
#     Edge 35, Type (0, 0), BuildingBlock: EZIPEK_clean_linker_0, # of connection points: 2
#     Edge 36, Type (0, 0), BuildingBlock: EZIPEK_clean_linker_0, # of connection points: 2
#     Edge 37, Type (0, 0), BuildingBlock: EZIPEK_clean_linker_0, # of connection points: 2
#     Edge 38, Type (0, 0), BuildingBlock: EZIPEK_clean_linker_0, # of connection points: 2
#     Edge 39, Type (0, 0), BuildingBlock: EZIPEK_clean_linker_0, # of connection points: 2
#     Edge 40, Type (0, 0), BuildingBlock: EZIPEK_clean_linker_0, # of connection points: 2
#     Edge 41, Type (0, 0), BuildingBlock: EZIPEK_clean_linker_0, # of connection points: 2
#     Edge 42, Type (0, 0), BuildingBlock: EZIPEK_clean_linker_0, # of connection points: 2
#     Edge 43, Type (0, 0), BuildingBlock: EZIPEK_clean_linker_0, # of connection points: 2
#     Edge 44, Type (0, 0), BuildingBlock: EZIPEK_clean_linker_0, # of connection points: 2
#     Edge 45, Type (0, 0), BuildingBlock: EZIPEK_clean_linker_0, # of connection points: 2
#     Edge 46, Type (0, 0), BuildingBlock: EZIPEK_clean_linker_0, # of connection points: 2
#     Edge 47, Type (0, 0), BuildingBlock: EZIPEK_clean_linker_0, # of connection points: 2
# Relax obj value: 0.213
# Max RMSD: 0.315
# Mean RMSD: 0.302
data_MOF--net-lcy-e--node1-BETFEN_clean_sbu_0--edge1-EZIPEK_clean_linker_0
_symmetry_space_group_name_H-M    P1
_symmetry_Int_Tables_number       1
_symmetry_cell_setting            triclinic
loop_
_symmetry_equiv_pos_as_xyz
'x, y, z'
_cell_length_a     35.100138
_cell_length_b     34.259979
_cell_length_c     36.122393
_cell_angle_alpha  89.985615
_cell_angle_beta   88.025311
_cell_angle_gamma 88.604063
loop_
_atom_site_label
_atom_site_type_symbol
_atom_site_fract_x
_atom_site_fract_y
_atom_site_fract_z
_atom_type_partial_charge
Pr0 Pr 0.13538 0.24657 0.5362 0.0
Pr1 Pr 0.1164 0.31153 0.47268 0.0
C2 C 0.13322 0.20134 0.59736 0.0
C3 C 0.11427 0.16601 0.61206 0.0
C4 C 0.13407 0.12976 0.61108 0.0
C5 C 0.11785 0.09666 0.62706 0.0
C6 C 0.08157 0.09913 0.64445 0.0
C7 C 0.06127 0.13496 0.64489 0.0
C8 C 0.07748 0.16818 0.62885 0.0
C9 C 0.18832 0.23776 0.47666 0.0
C10 C 0.06536 0.23051 0.47721 0.0
C11 C 0.11095 0.34829 0.40669 0.0
C12 C 0.1322 0.36652 0.37499 0.0
C13 C 0.12102 0.40379 0.36309 0.0
C14 C 0.13842 0.42074 0.3317 0.0
C15 C 0.16941 0.40218 0.31181 0.0
C16 C 0.17763 0.36293 0.32214 0.0
C17 C 0.16022 0.34592 0.35369 0.0
C18 C 0.08326 0.32495 0.5442 0.0
C19 C 0.18364 0.32942 0.52931 0.0
O20 O 0.113 0.2338 0.59462 0.0
O21 O 0.15788 0.19606 0.56978 0.0
O22 O 0.1609 0.26238 0.479 0.0
O23 O 0.18873 0.21624 0.50613 0.0
O24 O 0.06961 0.26578 0.46308 0.0
O25 O 0.08749 0.21583 0.50313 0.0
O26 O 0.1135 0.31026 0.41031 0.0
O27 O 0.10853 0.36689 0.43848 0.0
O28 O 0.08863 0.29243 0.52799 0.0
O29 O 0.08946 0.35277 0.52019 0.0
O30 O 0.16779 0.30375 0.55249 0.0
O31 O 0.17385 0.33131 0.49441 0.0
H32 H 0.16251 0.12711 0.59856 0.0
H33 H 0.13392 0.06924 0.62655 0.0
H34 H 0.03322 0.13732 0.65829 0.0
H35 H 0.06148 0.1956 0.63018 0.0
H36 H 0.09793 0.41961 0.3776 0.0
H37 H 0.12669 0.44857 0.32294 0.0
H38 H 0.19624 0.34385 0.30587 0.0
H39 H 0.16805 0.31612 0.36073 0.0
Pr40 Pr 0.96691 0.88521 0.72751 0.0
Pr41 Pr 0.02545 0.90049 0.78531 0.0
C42 C 0.92174 0.89616 0.67014 0.0
C43 C 0.89701 0.90219 0.63881 0.0
C44 C 0.90677 0.88354 0.60517 0.0
C45 C 0.89168 0.89732 0.57222 0.0
C46 C 0.86598 0.92942 0.57263 0.0
C47 C 0.85476 0.94679 0.60659 0.0
C48 C 0.87071 0.9337 0.63936 0.0
C49 C 0.03081 0.83689 0.71977 0.0
C50 C 0.02687 0.96069 0.71945 0.0
C51 C 0.08436 0.8843 0.82816 0.0
C52 C 0.11692 0.87194 0.85052 0.0
C53 C 0.13672 0.89889 0.87141 0.0
C54 C 0.16937 0.88688 0.88999 0.0
C55 C 0.18247 0.84785 0.88779 0.0
C56 C 0.16245 0.82087 0.86746 0.0
C57 C 0.13 0.83277 0.84898 0.0
C58 C 0.95522 0.94251 0.7967 0.0
C59 C 0.95768 0.83855 0.80731 0.0
O60 O 0.94577 0.92226 0.67994 0.0
O61 O 0.92012 0.8647 0.69079 0.0
O62 O 0.03171 0.87303 0.72696 0.0
O63 O 0.99656 0.82547 0.7145 0.0
O64 O 0.04996 0.94329 0.74223 0.0
O65 O 0.99234 0.94763 0.71445 0.0
O66 O 0.06925 0.85902 0.80631 0.0
O67 O 0.06797 0.91921 0.82885 0.0
O68 O 0.96021 0.90847 0.78537 0.0
O69 O 0.98774 0.95586 0.80706 0.0
O70 O 0.93733 0.85445 0.78036 0.0
O71 O 0.99397 0.84657 0.80959 0.0
H72 H 0.92807 0.8601 0.60404 0.0
H73 H 0.90083 0.88367 0.54626 0.0
H74 H 0.83505 0.97163 0.60748 0.0
H75 H 0.86391 0.94948 0.66471 0.0
H76 H 0.1274 0.92924 0.87283 0.0
H77 H 0.1846 0.90796 0.90579 0.0
H78 H 0.17215 0.79063 0.86571 0.0
H79 H 0.11547 0.81124 0.83306 0.0
Pr80 Pr 0.38756 0.73346 0.98344 0.0
Pr81 Pr 0.36592 0.79988 0.03726 0.0
C82 C 0.39586 0.6706 0.93844 0.0
C83 C 0.37781 0.6599 0.90325 0.0
C84 C 0.39781 0.63616 0.87713 0.0
C85 C 0.38125 0.62611 0.84371 0.0
C86 C 0.34436 0.63974 0.83559 0.0
C87 C 0.32447 0.66399 0.86145 0.0
C88 C 0.341 0.67397 0.89495 0.0
C89 C 0.42779 0.80218 0.96956 0.0
C90 C 0.31685 0.79412 0.96251 0.0
C91 C 0.35641 0.8699 0.07112 0.0
C92 C 0.37882 0.89892 0.09096 0.0
C93 C 0.36309 0.91635 0.12333 0.0
C94 C 0.38235 0.94577 0.14132 0.0
C95 C 0.41777 0.95833 0.12726 0.0
C96 C 0.43409 0.94036 0.09535 0.0
C97 C 0.41479 0.91086 0.0773 0.0
C98 C 0.32825 0.72756 0.05041 0.0
C99 C 0.42961 0.74347 0.06536 0.0
O100 O 0.37393 0.67113 0.96847 0.0
O101 O 0.41896 0.69993 0.93685 0.0
O102 O 0.42099 0.7876 1.00119 0.0
O103 O 0.4123 0.78178 0.94414 0.0
O104 O 0.32976 0.81803 0.98721 0.0
O105 O 0.33103 0.75834 0.95822 0.0
O106 O 0.36365 0.86575 0.03553 0.0
O107 O 0.34921 0.83696 0.08797 0.0
O108 O 0.33505 0.74382 0.0197 0.0
O109 O 0.33623 0.75195 0.07641 0.0
O110 O 0.41633 0.71745 0.04168 0.0
O111 O 0.42418 0.78075 0.05919 0.0
H112 H 0.42631 0.62532 0.88262 0.0
H113 H 0.39723 0.60758 0.82412 0.0
H114 H 0.29609 0.67505 0.85574 0.0
H115 H 0.325 0.69266 0.91436 0.0
H116 H 0.33554 0.90757 0.13443 0.0
H117 H 0.36946 0.95904 0.16608 0.0
H118 H 0.46157 0.94942 0.0843 0.0
H119 H 0.42776 0.89778 0.05249 0.0
Pr120 Pr 0.54298 0.15857 0.22606 0.0
Pr121 Pr 0.47725 0.13376 0.28711 0.0
C122 C 0.6052 0.14968 0.18129 0.0
C123 C 0.61335 0.13694 0.14246 0.0
C124 C 0.63891 0.15784 0.1198 0.0
C125 C 0.65016 0.1438 0.08456 0.0
C126 C 0.63611 0.10851 0.07143 0.0
C127 C 0.60946 0.08826 0.0934 0.0
C128 C 0.59793 0.10247 0.1285 0.0
C129 C 0.47657 0.20208 0.21285 0.0
C130 C 0.48211 0.08469 0.20996 0.0
C131 C 0.41468 0.131 0.33263 0.0
C132 C 0.38383 0.15478 0.35132 0.0
C133 C 0.37414 0.14714 0.38859 0.0
C134 C 0.3422 0.16548 0.40587 0.0
C135 C 0.3193 0.1919 0.38621 0.0
C136 C 0.32969 0.20078 0.34931 0.0
C137 C 0.36166 0.1823 0.33193 0.0
C138 C 0.55129 0.09685 0.29031 0.0
C139 C 0.53247 0.20341 0.30927 0.0
O140 O 0.59318 0.12262 0.20423 0.0
O141 O 0.58825 0.18395 0.18686 0.0
O142 O 0.48047 0.17634 0.23775 0.0
O143 O 0.50828 0.20598 0.19376 0.0
O144 O 0.46035 0.09445 0.23892 0.0
O145 O 0.51469 0.10201 0.2016 0.0
O146 O 0.41391 0.1276 0.29657 0.0
O147 O 0.44922 0.13264 0.34505 0.0
O148 O 0.54229 0.13112 0.2822 0.0
O149 O 0.52013 0.07918 0.30081 0.0
O150 O 0.55723 0.19293 0.28175 0.0
O151 O 0.49635 0.19388 0.30867 0.0
H152 H 0.65117 0.18438 0.12985 0.0
H153 H 0.67105 0.15962 0.06812 0.0
H154 H 0.59855 0.06085 0.08385 0.0
H155 H 0.57791 0.08576 0.14515 0.0
H156 H 0.3907 0.12607 0.40408 0.0
H157 H 0.3349 0.15851 0.43445 0.0
H158 H 0.3126 0.22136 0.3338 0.0
H159 H 0.36847 0.18888 0.30316 0.0
Pr160 Pr 0.63584 0.2431 0.5292 0.0
Pr161 Pr 0.65501 0.30807 0.47638 0.0
C162 C 0.63057 0.18641 0.58117 0.0
C163 C 0.64824 0.17098 0.61529 0.0
C164 C 0.63564 0.18548 0.65026 0.0
C165 C 0.64884 0.16879 0.68286 0.0
C166 C 0.67475 0.13702 0.68139 0.0
C167 C 0.68817 0.1229 0.64667 0.0
C168 C 0.675 0.13971 0.61388 0.0
C169 C 0.58054 0.30278 0.53144 0.0
C170 C 0.71127 0.30007 0.54532 0.0
C171 C 0.66076 0.3764 0.43965 0.0
C172 C 0.63616 0.40676 0.42257 0.0
C173 C 0.63777 0.41176 0.38392 0.0
C174 C 0.61744 0.44241 0.36746 0.0
C175 C 0.59507 0.4685 0.38937 0.0
C176 C 0.5923 0.46293 0.42783 0.0
C177 C 0.61281 0.43243 0.44434 0.0
C178 C 0.68832 0.23392 0.45685 0.0
C179 C 0.58978 0.25152 0.4514 0.0
O180 O 0.64752 0.18042 0.54863 0.0
O181 O 0.61376 0.2207 0.58399 0.0
O182 O 0.61622 0.30862 0.53038 0.0
O183 O 0.57341 0.26592 0.52998 0.0
O184 O 0.70559 0.31794 0.51381 0.0
O185 O 0.68822 0.27257 0.558 0.0
O186 O 0.65979 0.37378 0.4758 0.0
O187 O 0.66372 0.34243 0.42321 0.0
O188 O 0.68532 0.24882 0.48865 0.0
O189 O 0.67814 0.2602 0.43302 0.0
O190 O 0.60715 0.22531 0.47275 0.0
O191 O 0.5973 0.28842 0.45569 0.0
H192 H 0.61473 0.20921 0.65258 0.0
H193 H 0.63814 0.18009 0.70934 0.0
H194 H 0.70822 0.09838 0.645 0.0
H195 H 0.68509 0.12766 0.58751 0.0
H196 H 0.65558 0.39256 0.36648 0.0
H197 H 0.61994 0.44639 0.33773 0.0
H198 H 0.57518 0.48291 0.44511 0.0
H199 H 0.61098 0.42956 0.4742 0.0
Pr200 Pr 0.99377 0.4046 0.71472 0.0
Pr201 Pr 0.05036 0.37486 0.77959 0.0
C202 C 0.94993 0.40462 0.65466 0.0
C203 C 0.91415 0.38626 0.643 0.0
C204 C 0.88143 0.40982 0.63745 0.0
C205 C 0.84807 0.39369 0.62451 0.0
C206 C 0.84666 0.35362 0.61681 0.0
C207 C 0.87886 0.32971 0.62327 0.0
C208 C 0.91229 0.34584 0.63625 0.0
C209 C 0.98472 0.45497 0.77588 0.0
C210 C 0.96715 0.3328 0.77455 0.0
C211 C 0.08269 0.36381 0.84561 0.0
C212 C 0.1003 0.38631 0.87555 0.0
C213 C 0.13968 0.38227 0.88115 0.0
C214 C 0.15616 0.40059 0.91115 0.0
C215 C 0.13352 0.42313 0.93623 0.0
C216 C 0.09441 0.4281 0.93028 0.0
C217 C 0.07793 0.40992 0.90022 0.0
C218 C 0.06287 0.3421 0.70757 0.0
C219 C 0.07937 0.44292 0.72695 0.0
O220 O 0.98063 0.38244 0.65739 0.0
O221 O 0.9465 0.43103 0.68075 0.0
O222 O 1.00663 0.42506 0.7733 0.0
O223 O 0.96708 0.46001 0.74521 0.0
O224 O 1.00108 0.33219 0.78901 0.0
O225 O 0.95709 0.35805 0.74843 0.0
O226 O 0.04581 0.36817 0.84177 0.0
O227 O 0.10184 0.35992 0.81401 0.0
O228 O 0.03142 0.35125 0.72368 0.0
O229 O 0.08937 0.34395 0.73184 0.0
O230 O 0.05557 0.43146 0.70106 0.0
O231 O 0.07189 0.43573 0.76214 0.0
H232 H 0.88187 0.44097 0.64248 0.0
H233 H 0.8236 0.41265 0.61964 0.0
H234 H 0.87838 0.29872 0.61741 0.0
H235 H 0.9368 0.32674 0.64039 0.0
H236 H 0.15765 0.36429 0.8627 0.0
H237 H 0.18645 0.39666 0.91519 0.0
H238 H 0.07658 0.44566 0.94921 0.0
H239 H 0.04754 0.41384 0.89677 0.0
Pr240 Pr 0.88985 0.79603 0.0424 0.0
Pr241 Pr 0.87121 0.73466 0.97797 0.0
C242 C 0.87885 0.85134 0.09521 0.0
C243 C 0.86862 0.86017 0.13449 0.0
C244 C 0.89246 0.88366 0.15496 0.0
C245 C 0.87979 0.89907 0.18923 0.0
C246 C 0.84301 0.89137 0.20343 0.0
C247 C 0.81981 0.86635 0.18401 0.0
C248 C 0.83254 0.8507 0.1499 0.0
C249 C 0.94024 0.73277 0.03891 0.0
C250 C 0.81946 0.73062 0.05453 0.0
C251 C 0.87248 0.67174 0.93266 0.0
C252 C 0.89573 0.64083 0.91307 0.0
C253 C 0.88739 0.63201 0.87632 0.0
C254 C 0.90642 0.6012 0.85746 0.0
C255 C 0.9344 0.57849 0.87487 0.0
C256 C 0.94355 0.58773 0.91144 0.0
C257 C 0.92421 0.61853 0.93049 0.0
C258 C 0.83259 0.80967 0.97004 0.0
C259 C 0.93225 0.79777 0.95869 0.0
O260 O 0.85175 0.83788 0.07524 0.0
O261 O 0.91286 0.83696 0.08596 0.0
O262 O 0.90449 0.73025 0.03388 0.0
O263 O 0.94951 0.76818 0.0474 0.0
O264 O 0.82224 0.71994 0.0195 0.0
O265 O 0.84325 0.75503 0.06968 0.0
O266 O 0.86754 0.66942 0.96873 0.0
O267 O 0.87479 0.70764 0.92048 0.0
O268 O 0.85459 0.79661 0.99351 0.0
O269 O 0.82872 0.78089 0.9469 0.0
O270 O 0.91652 0.82033 0.98514 0.0
O271 O 0.92949 0.75979 0.96172 0.0
H272 H 0.9201 0.89178 0.14356 0.0
H273 H 0.89789 0.91867 0.20375 0.0
H274 H 0.79122 0.86043 0.19444 0.0
H275 H 0.8133 0.83285 0.13482 0.0
H276 H 0.86554 0.64863 0.86231 0.0
H277 H 0.89907 0.59484 0.82925 0.0
H278 H 0.96526 0.57079 0.92531 0.0
H279 H 0.93119 0.62456 0.95886 0.0
Pr280 Pr 0.53617 0.6276 0.2311 0.0
Pr281 Pr 0.47568 0.65801 0.28437 0.0
C282 C 0.59353 0.60567 0.18277 0.0
C283 C 0.6267 0.6259 0.16574 0.0
C284 C 0.66353 0.61752 0.17815 0.0
C285 C 0.69518 0.63601 0.16231 0.0
C286 C 0.69068 0.66296 0.13345 0.0
C287 C 0.65395 0.67199 0.12131 0.0
C288 C 0.62218 0.65373 0.13737 0.0
C289 C 0.53963 0.59616 0.30266 0.0
C290 C 0.55366 0.70754 0.2768 0.0
C291 C 0.43771 0.67663 0.34841 0.0
C292 C 0.41818 0.65745 0.38 0.0
C293 C 0.40192 0.68044 0.40848 0.0
C294 C 0.38377 0.66319 0.43913 0.0
C295 C 0.37857 0.6223 0.4412 0.0
C296 C 0.40009 0.59952 0.41469 0.0
C297 C 0.41852 0.61679 0.38394 0.0
C298 C 0.47037 0.69164 0.21318 0.0
C299 C 0.44742 0.5893 0.23412 0.0
O300 O 0.5598 0.61616 0.17228 0.0
O301 O 0.59422 0.59925 0.21829 0.0
O302 O 0.50996 0.59976 0.2842 0.0
O303 O 0.5681 0.61132 0.2847 0.0
O304 O 0.52628 0.69672 0.29984 0.0
O305 O 0.55961 0.68982 0.24461 0.0
O306 O 0.47464 0.671 0.34561 0.0
O307 O 0.42125 0.67603 0.31643 0.0
O308 O 0.50132 0.68467 0.22907 0.0
O309 O 0.44143 0.68646 0.23598 0.0
O310 O 0.47933 0.59427 0.21375 0.0
O311 O 0.4433 0.60401 0.26745 0.0
H312 H 0.6679 0.59641 0.20002 0.0
H313 H 0.72333 0.62875 0.17204 0.0
H314 H 0.64997 0.69279 0.0991 0.0
H315 H 0.59421 0.66122 0.12734 0.0
H316 H 0.40381 0.71195 0.40737 0.0
H317 H 0.37446 0.68266 0.46129 0.0
H318 H 0.40407 0.56839 0.41747 0.0
H319 H 0.43357 0.5984 0.36361 0.0
Pr320 Pr 0.22152 0.54898 0.13392 0.0
Pr321 Pr 0.28303 0.48949 0.11162 0.0
C322 C 0.17517 0.61275 0.13883 0.0
C323 C 0.13738 0.6243 0.12451 0.0
C324 C 0.10422 0.60342 0.1334 0.0
C325 C 0.06911 0.61495 0.11887 0.0
C326 C 0.06664 0.64743 0.09523 0.0
C327 C 0.09981 0.66771 0.08578 0.0
C328 C 0.13478 0.65629 0.10028 0.0
C329 C 0.21037 0.4775 0.17115 0.0
C330 C 0.207 0.49112 0.06229 0.0
C331 C 0.33058 0.42628 0.10767 0.0
C332 C 0.34829 0.39521 0.13067 0.0
C333 C 0.38816 0.39041 0.13042 0.0
C334 C 0.4052 0.3584 0.14815 0.0
C335 C 0.3827 0.33055 0.16654 0.0
C336 C 0.34294 0.33601 0.16808 0.0
C337 C 0.32589 0.36785 0.15013 0.0
C338 C 0.2888 0.56307 0.07432 0.0
C339 C 0.30281 0.54499 0.18112 0.0
O340 O 0.20269 0.6085 0.11373 0.0
O341 O 0.17663 0.58645 0.1651 0.0
O342 O 0.2421 0.49313 0.16409 0.0
O343 O 0.18334 0.49781 0.15589 0.0
O344 O 0.23479 0.46884 0.07439 0.0
O345 O 0.1989 0.52515 0.0779 0.0
O346 O 0.29373 0.42498 0.1036 0.0
O347 O 0.34299 0.46196 0.10987 0.0
O348 O 0.28037 0.55655 0.10761 0.0
O349 O 0.29777 0.52977 0.05844 0.0
O350 O 0.2703 0.56472 0.1755 0.0
O351 O 0.31207 0.51294 0.16266 0.0
H352 H 0.10532 0.57832 0.15159 0.0
H353 H 0.04377 0.59896 0.12649 0.0
H354 H 0.09849 0.69281 0.06757 0.0
H355 H 0.15992 0.67259 0.09261 0.0
H356 H 0.40613 0.41083 0.11554 0.0
H357 H 0.43597 0.35487 0.14686 0.0
H358 H 0.32508 0.31501 0.1823 0.0
H359 H 0.29514 0.37031 0.1506 0.0
Pr360 Pr 0.77766 0.04951 0.88826 0.0
Pr361 Pr 0.72022 0.98351 0.87181 0.0
C362 C 0.83958 0.09404 0.87622 0.0
C363 C 0.85344 0.13192 0.86238 0.0
C364 C 0.83718 0.16807 0.87369 0.0
C365 C 0.85151 0.20295 0.85888 0.0
C366 C 0.88222 0.20199 0.83272 0.0
C367 C 0.89787 0.16582 0.82115 0.0
C368 C 0.88357 0.13122 0.83576 0.0
C369 C 0.71588 0.06366 0.93631 0.0
C370 C 0.72005 0.06133 0.81776 0.0
C371 C 0.65774 0.94036 0.86282 0.0
C372 C 0.62652 0.9204 0.88346 0.0
C373 C 0.61255 0.88573 0.86903 0.0
C374 C 0.58103 0.86776 0.88592 0.0
C375 C 0.5628 0.88403 0.91773 0.0
C376 C 0.57733 0.9182 0.93291 0.0
C377 C 0.60891 0.93631 0.91589 0.0
C378 C 0.79705 0.97205 0.84626 0.0
C379 C 0.76948 0.96559 0.93936 0.0
O380 O 0.82558 0.07151 0.85124 0.0
O381 O 0.82206 0.0915 0.9088 0.0
O382 O 0.71797 0.03555 0.91314 0.0
O383 O 0.74511 0.08606 0.93336 0.0
O384 O 0.71068 0.02447 0.82128 0.0
O385 O 0.74089 0.07903 0.84219 0.0
O386 O 0.65706 0.97861 0.86317 0.0
O387 O 0.69224 0.92497 0.86389 0.0
O388 O 0.77692 1.00278 0.84463 0.0
O389 O 0.77588 0.94343 0.85773 0.0
O390 O 0.79322 0.99126 0.92421 0.0
O391 O 0.73363 0.96827 0.93125 0.0
H392 H 0.81361 0.16937 0.89384 0.0
H393 H 0.83909 0.23066 0.86815 0.0
H394 H 0.92149 0.16441 0.80104 0.0
H395 H 0.89623 0.10366 0.8263 0.0
H396 H 0.62561 0.87292 0.84413 0.0
H397 H 0.5705 0.84133 0.87387 0.0
H398 H 0.56387 0.9311 0.95758 0.0
H399 H 0.61916 0.96298 0.9277 0.0
Pr400 Pr 0.78373 0.05645 0.36949 0.0
Pr401 Pr 0.72222 0.99302 0.39294 0.0
C402 C 0.82456 0.1211 0.37831 0.0
C403 C 0.86195 0.13345 0.39145 0.0
C404 C 0.896 0.1119 0.38395 0.0
C405 C 0.93057 0.12437 0.39792 0.0
C406 C 0.93152 0.15845 0.4196 0.0
C407 C 0.89741 0.1795 0.42742 0.0
C408 C 0.86302 0.16707 0.41356 0.0
C409 C 0.80141 0.98942 0.32811 0.0
C410 C 0.79918 0.99318 0.44058 0.0
C411 C 0.67444 0.93304 0.39772 0.0
C412 C 0.65676 0.9035 0.37499 0.0
C413 C 0.62752 0.88139 0.39103 0.0
C414 C 0.61222 0.8508 0.37138 0.0
C415 C 0.62604 0.84192 0.33542 0.0
C416 C 0.6548 0.86455 0.31889 0.0
C417 C 0.67017 0.89527 0.33864 0.0
C418 C 0.71435 0.06724 0.42661 0.0
C419 C 0.70444 0.04677 0.32081 0.0
O420 O 0.80111 0.10745 0.40389 0.0
O421 O 0.82326 0.10279 0.34638 0.0
O422 O 0.77436 0.99319 0.35224 0.0
O423 O 0.82029 0.02155 0.32503 0.0
O424 O 0.76673 0.9763 0.43527 0.0
O425 O 0.81118 0.02264 0.41987 0.0
O426 O 0.71136 0.92915 0.40121 0.0
O427 O 0.66245 0.96934 0.39423 0.0
O428 O 0.72345 0.05948 0.39365 0.0
O429 O 0.70521 0.03537 0.44399 0.0
O430 O 0.73011 0.07187 0.33246 0.0
O431 O 0.7028 0.01145 0.33498 0.0
H432 H 0.89586 0.08549 0.36749 0.0
H433 H 0.95658 0.10761 0.39177 0.0
H434 H 0.89744 0.20568 0.44423 0.0
H435 H 0.83707 0.18376 0.42021 0.0
H436 H 0.61703 0.88733 0.41908 0.0
H437 H 0.58994 0.83368 0.38439 0.0
H438 H 0.66556 0.85808 0.29105 0.0
H439 H 0.69284 0.91209 0.3259 0.0
Pr440 Pr 0.23932 0.56178 0.62095 0.0
Pr441 Pr 0.29933 0.50684 0.64443 0.0
C442 C 0.18667 0.61875 0.60917 0.0
C443 C 0.16671 0.65045 0.62981 0.0
C444 C 0.13802 0.67208 0.61255 0.0
C445 C 0.12028 0.70402 0.63056 0.0
C446 C 0.13112 0.71481 0.66607 0.0
C447 C 0.15988 0.69316 0.6835 0.0
C448 C 0.17754 0.66101 0.66548 0.0
C449 C 0.30043 0.55806 0.57013 0.0
C450 C 0.28969 0.58126 0.69694 0.0
C451 C 0.3615 0.45949 0.64968 0.0
C452 C 0.39089 0.43654 0.62853 0.0
C453 C 0.4088 0.40526 0.64604 0.0
C454 C 0.43837 0.38411 0.62802 0.0
C455 C 0.44942 0.39136 0.59052 0.0
C456 C 0.43392 0.42606 0.57491 0.0
C457 C 0.40442 0.44766 0.59322 0.0
C458 C 0.22945 0.50224 0.68651 0.0
C459 C 0.24097 0.47337 0.58529 0.0
O460 O 0.22323 0.62296 0.60349 0.0
O461 O 0.17764 0.58298 0.61754 0.0
O462 O 0.30404 0.56036 0.60495 0.0
O463 O 0.26506 0.55594 0.56167 0.0
O464 O 0.31453 0.55449 0.68564 0.0
O465 O 0.25757 0.58743 0.67938 0.0
O466 O 0.3629 0.49745 0.64704 0.0
O467 O 0.32674 0.4465 0.65162 0.0
O468 O 0.23359 0.5059 0.65237 0.0
O469 O 0.26279 0.49845 0.701 0.0
O470 O 0.2173 0.50218 0.59648 0.0
O471 O 0.2772 0.47389 0.59327 0.0
H472 H 0.1296 0.66449 0.58494 0.0
H473 H 0.09805 0.72037 0.61682 0.0
H474 H 0.16841 0.70107 0.71099 0.0
H475 H 0.19984 0.64472 0.67915 0.0
H476 H 0.40069 0.39781 0.67435 0.0
H477 H 0.45289 0.36266 0.64464 0.0
H478 H 0.44495 0.43816 0.54932 0.0
H479 H 0.39302 0.47368 0.5802 0.0
C480 C 0.21935 0.39203 0.51866 0.0
C481 C 0.20775 0.36178 0.54329 0.0
C482 C 0.22226 0.40365 0.59581 0.0
C483 C 0.2267 0.43589 0.57111 0.0
N484 N 0.22739 0.46139 0.50907 0.0
N485 N 0.21646 0.33346 0.60337 0.0
C486 C 0.22455 0.43024 0.53254 0.0
C487 C 0.21421 0.366 0.58156 0.0
N488 N 0.22945 0.38327 0.48272 0.0
N489 N 0.22576 0.40911 0.63295 0.0
H490 H 0.21793 0.30539 0.5922 0.0
H491 H 0.22216 0.33357 0.63141 0.0
H492 H 0.23415 0.43528 0.64408 0.0
H493 H 0.21901 0.38847 0.65306 0.0
H494 H 0.24064 0.40352 0.46406 0.0
H495 H 0.23242 0.35451 0.47335 0.0
H496 H 0.22199 0.45961 0.48094 0.0
H497 H 0.23194 0.4897 0.51831 0.0
C498 C 0.84718 0.95468 0.79657 0.0
C499 C 0.83821 0.9684 0.83285 0.0
C500 C 0.90679 0.96558 0.8461 0.0
C501 C 0.91602 0.95631 0.80877 0.0
N502 N 0.89461 0.95191 0.7465 0.0
N503 N 0.86318 1.00129 0.8859 0.0
C504 C 0.88599 0.9536 0.78345 0.0
C505 C 0.86899 0.97791 0.85594 0.0
N506 N 0.81883 0.94292 0.77442 0.0
N507 N 0.9332 0.9613 0.87281 0.0
H508 H 0.83823 0.01724 0.88931 0.0
H509 H 0.88505 0.01092 0.90218 0.0
H510 H 0.96083 0.95053 0.8676 0.0
H511 H 0.92619 0.96445 0.90096 0.0
H512 H 0.82418 0.92858 0.74926 0.0
H513 H 0.78999 0.94499 0.78238 0.0
H514 H 0.87404 0.95296 0.72647 0.0
H515 H 0.9224 0.95503 0.73628 0.0
C516 C 0.34123 0.65951 0.07888 0.0
C517 C 0.31906 0.68442 0.05546 0.0
C518 C 0.28216 0.62652 0.03804 0.0
C519 C 0.3034 0.60249 0.06222 0.0
N520 N 0.35825 0.59327 0.09914 0.0
N521 N 0.27127 0.68969 1.00902 0.0
C522 C 0.33473 0.61825 0.08038 0.0
C523 C 0.29057 0.66717 0.03378 0.0
N524 N 0.36861 0.67514 0.09986 0.0
N525 N 0.25302 0.61037 0.01985 0.0
H526 H 0.27287 0.71997 1.00786 0.0
H527 H 0.25427 0.67846 0.98875 0.0
H528 H 0.2497 0.58026 0.01919 0.0
H529 H 0.23225 0.62622 1.00601 0.0
H530 H 0.38809 0.65922 0.11499 0.0
H531 H 0.37162 0.70476 0.1036 0.0
H532 H 0.38296 0.601 0.112 0.0
H533 H 0.35452 0.56315 0.09976 0.0
C534 C 0.62128 0.11012 0.30094 0.0
C535 C 0.59252 0.08272 0.29301 0.0
C536 C 0.64353 0.03197 0.28754 0.0
C537 C 0.67083 0.05967 0.29839 0.0
N538 N 0.68776 0.12692 0.29324 0.0
N539 N 0.57936 0.01968 0.26751 0.0
C540 C 0.66043 0.09944 0.29725 0.0
C541 C 0.60451 0.04406 0.28304 0.0
N542 N 0.61138 0.14535 0.31579 0.0
N543 N 0.65532 0.99432 0.28069 0.0
H544 H 0.55151 0.02835 0.26216 0.0
H545 H 0.5867 0.99218 0.25693 0.0
H546 H 0.68417 0.98655 0.27712 0.0
H547 H 0.63691 0.97114 0.27844 0.0
H548 H 0.63044 0.16753 0.3201 0.0
H549 H 0.58518 0.14916 0.32931 0.0
H550 H 0.68147 0.15659 0.29009 0.0
H551 H 0.71625 0.11927 0.28726 0.0
C552 C 0.72165 0.16848 0.47044 0.0
C553 C 0.69487 0.19059 0.44929 0.0
C554 C 0.67486 0.12868 0.42102 0.0
C555 C 0.70427 0.10796 0.43894 0.0
N556 N 0.7564 0.10711 0.48004 0.0
N557 N 0.64845 0.19027 0.40065 0.0
C558 C 0.72749 0.12753 0.46384 0.0
C559 C 0.67221 0.1703 0.42351 0.0
N560 N 0.74202 0.18651 0.49677 0.0
N561 N 0.64864 0.10813 0.40226 0.0
H562 H 0.6446 0.22023 0.3997 0.0
H563 H 0.63343 0.17717 0.38008 0.0
H564 H 0.64992 0.07778 0.39983 0.0
H565 H 0.62335 0.12019 0.39264 0.0
H566 H 0.75697 0.17156 0.51697 0.0
H567 H 0.74339 0.21661 0.49935 0.0
H568 H 0.77822 0.12 0.4941 0.0
H569 H 0.75953 0.07684 0.47782 0.0
C570 C 0.12201 0.49497 0.69901 0.0
C571 C 0.11815 0.45871 0.71744 0.0
C572 C 0.18847 0.45191 0.71882 0.0
C573 C 0.19215 0.48933 0.70282 0.0
N574 N 0.16189 0.55082 0.68812 0.0
N575 N 0.14933 0.408 0.75367 0.0
C576 C 0.15869 0.51206 0.69582 0.0
C577 C 0.15179 0.43919 0.73039 0.0
N578 N 0.09078 0.51354 0.68505 0.0
N579 N 0.21936 0.42699 0.72106 0.0
H580 H 0.12415 0.39427 0.76004 0.0
H581 H 0.17242 0.39694 0.76814 0.0
H582 H 0.247 0.4341 0.71286 0.0
H583 H 0.21695 0.39751 0.72766 0.0
H584 H 0.09262 0.53796 0.66793 0.0
H585 H 0.06326 0.50302 0.68842 0.0
H586 H 0.13855 0.57002 0.68635 0.0
H587 H 0.1881 0.5645 0.6876 0.0
C588 C 0.82185 0.9225 0.96763 0.0
C589 C 0.78365 0.92795 0.95694 0.0
C590 C 0.77632 0.85632 0.95811 0.0
C591 C 0.81464 0.85061 0.96878 0.0
N592 N 0.86399 0.88236 1.00253 0.0
N593 N 0.72128 0.89948 0.96484 0.0
C594 C 0.8348 0.88474 0.97889 0.0
C595 C 0.75972 0.89476 0.95863 0.0
N596 N 0.84559 0.95336 0.96955 0.0
N597 N 0.75454 0.82528 0.94972 0.0
H598 H 0.70877 0.92595 0.97359 0.0
H599 H 0.703 0.87612 0.96816 0.0
H600 H 0.76289 0.79633 0.954 0.0
H601 H 0.72823 0.82874 0.93737 0.0
H602 H 0.8751 0.94966 0.97107 0.0
H603 H 0.83593 0.98232 0.97036 0.0
H604 H 0.87725 0.9066 1.01321 0.0
H605 H 0.87077 0.857 0.01609 0.0
C606 C 0.39485 0.54089 0.23192 0.0
C607 C 0.41144 0.57539 0.21796 0.0
C608 C 0.34881 0.59727 0.19495 0.0
C609 C 0.33386 0.5603 0.20395 0.0
N610 N 0.34077 0.49786 0.23375 0.0
N611 N 0.40498 0.6358 0.18527 0.0
C612 C 0.35634 0.53264 0.22374 0.0
C613 C 0.38842 0.60326 0.1991 0.0
N614 N 0.41585 0.51643 0.2536 0.0
N615 N 0.32562 0.62592 0.18092 0.0
H616 H 0.43413 0.63602 0.18057 0.0
H617 H 0.39081 0.66125 0.17737 0.0
H618 H 0.29609 0.62441 0.18158 0.0
H619 H 0.33458 0.65285 0.17128 0.0
H620 H 0.40459 0.49313 0.26845 0.0
H621 H 0.44476 0.52046 0.2578 0.0
H622 H 0.35637 0.47403 0.24352 0.0
H623 H 0.31176 0.4927 0.23128 0.0
C624 C 0.5426 0.18992 0.37752 0.0
C625 C 0.54635 0.21556 0.34626 0.0
C626 C 0.56246 0.26769 0.38854 0.0
C627 C 0.56719 0.24036 0.41814 0.0
N628 N 0.5562 0.17546 0.44141 0.0
N629 N 0.56487 0.27797 0.32217 0.0
C630 C 0.55556 0.20147 0.41278 0.0
C631 C 0.55844 0.25396 0.35177 0.0
N632 N 0.52627 0.15442 0.37382 0.0
N633 N 0.55756 0.30667 0.39568 0.0
H634 H 0.56091 0.2693 0.2949 0.0
H635 H 0.57725 0.30516 0.32471 0.0
H636 H 0.55123 0.31744 0.42221 0.0
H637 H 0.55243 0.32726 0.37509 0.0
H638 H 0.51775 0.13702 0.39609 0.0
H639 H 0.51979 0.14268 0.34842 0.0
H640 H 0.55605 0.1453 0.43772 0.0
H641 H 0.55627 0.18418 0.46903 0.0
C642 C 0.09905 0.35734 0.60584 0.0
C643 C 0.07707 0.33042 0.58588 0.0
C644 C 0.04489 0.31193 0.64571 0.0
C645 C 0.06917 0.33647 0.6658 0.0
N646 N 0.12571 0.37578 0.66361 0.0
N647 N 0.02938 0.28092 0.58772 0.0
C648 C 0.09795 0.35711 0.64547 0.0
C649 C 0.05022 0.30735 0.60621 0.0
N650 N 0.12107 0.384 0.58746 0.0
N651 N 0.0164 0.29282 0.66438 0.0
H652 H 0.02803 0.28037 0.55898 0.0
H653 H 0.01421 0.25874 0.6007 0.0
H654 H 0.01407 0.29145 0.69317 0.0
H655 H 0.99417 0.27928 0.65149 0.0
H656 H 0.1317 0.40849 0.60032 0.0
H657 H 0.12707 0.38397 0.55918 0.0
H658 H 0.15 0.38672 0.6504 0.0
H659 H 0.12702 0.37723 0.69203 0.0
C660 C 0.9612 0.7902 0.85749 0.0
C661 C 0.94078 0.82204 0.84216 0.0
C662 C 0.92239 0.84482 0.90492 0.0
C663 C 0.94243 0.8125 0.92042 0.0
N664 N 0.99078 0.76215 0.91138 0.0
N665 N 0.89219 0.87214 0.85099 0.0
C666 C 0.96456 0.78724 0.89652 0.0
C667 C 0.91816 0.84692 0.86582 0.0
N668 N 0.97702 0.76253 0.83411 0.0
N669 N 0.91084 0.87552 0.92687 0.0
H670 H 0.88728 0.87296 0.82274 0.0
H671 H 0.87223 0.88834 0.86697 0.0
H672 H 0.92065 0.87873 0.95352 0.0
H673 H 0.89735 0.90063 0.91701 0.0
H674 H 0.99009 0.73674 0.84294 0.0
H675 H 0.97321 0.76389 0.80559 0.0
H676 H 1.01 0.74483 0.89569 0.0
H677 H 0.99621 0.76202 0.93963 0.0
C678 C 0.47906 0.68714 0.14225 0.0
C679 C 0.46657 0.70827 0.17475 0.0
C680 C 0.42935 0.75177 0.13566 0.0
C681 C 0.44381 0.73211 0.10279 0.0
N682 N 0.48993 0.68658 0.0756 0.0
N683 N 0.43857 0.76752 0.20001 0.0
C684 C 0.47115 0.70163 0.10634 0.0
C685 C 0.44478 0.74289 0.17055 0.0
N686 N 0.4956 0.65132 0.1456 0.0
N687 N 0.3985 0.77659 0.1346 0.0
H688 H 0.44944 0.76186 0.22602 0.0
H689 H 0.42629 0.79537 0.19751 0.0
H690 H 0.38401 0.78205 0.11076 0.0
H691 H 0.38429 0.78782 0.15822 0.0
H692 H 0.50086 0.63202 0.12361 0.0
H693 H 0.4994 0.63975 0.17149 0.0
H694 H 0.51288 0.66682 0.07696 0.0
H695 H 0.48516 0.69678 0.04891 0.0
C696 C 0.18522 0.46445 0.27497 0.0
C697 C 0.18936 0.42331 0.27906 0.0
C698 C 0.21489 0.41955 0.21469 0.0
C699 C 0.20324 0.45885 0.20841 0.0
N700 N 0.18052 0.52046 0.23473 0.0
N701 N 0.2387 0.3762 0.26128 0.0
C702 C 0.1893 0.48179 0.23919 0.0
C703 C 0.21252 0.40389 0.25129 0.0
N704 N 0.18353 0.48743 0.30594 0.0
N705 N 0.22862 0.39698 0.18592 0.0
H706 H 0.24599 0.37287 0.28888 0.0
H707 H 0.25816 0.36295 0.24247 0.0
H708 H 0.23159 0.40755 0.15889 0.0
H709 H 0.23417 0.3671 0.18878 0.0
H710 H 0.18395 0.5178 0.30533 0.0
H711 H 0.18705 0.47577 0.33234 0.0
H712 H 0.16439 0.53679 0.25422 0.0
H713 H 0.18862 0.53599 0.21121 0.0
C714 C 0.83126 0.92185 0.51349 0.0
C715 C 0.85179 0.94567 0.53734 0.0
C716 C 0.84007 1.00201 0.49698 0.0
C717 C 0.82224 0.97727 0.4714 0.0
N718 N 0.81351 0.91096 0.45061 0.0
N719 N 0.88528 1.00562 0.54587 0.0
C720 C 0.82184 0.93632 0.47819 0.0
C721 C 0.8592 0.98491 0.52726 0.0
N722 N 0.81923 0.88602 0.52492 0.0
N723 N 0.83732 0.04172 0.49405 0.0
H724 H 0.90088 0.99374 0.56739 0.0
H725 H 0.89437 0.03301 0.53725 0.0
H726 H 0.82379 0.05632 0.47283 0.0
H727 H 0.84586 0.06044 0.51478 0.0
H728 H 0.80098 0.86927 0.50964 0.0
H729 H 0.82405 0.87485 0.55125 0.0
H730 H 0.81608 0.88073 0.45345 0.0
H731 H 0.80862 0.92008 0.42366 0.0
C732 C 0.28031 0.59096 0.76579 0.0
C733 C 0.29806 0.6025 0.7317 0.0
C734 C 0.34112 0.64401 0.76584 0.0
C735 C 0.3268 0.62849 0.79991 0.0
N736 N 0.28556 0.58366 0.83232 0.0
N737 N 0.34713 0.63781 0.6989 0.0
C738 C 0.29684 0.60127 0.79992 0.0
C739 C 0.32889 0.62856 0.73167 0.0
N740 N 0.24773 0.56994 0.76556 0.0
N741 N 0.36575 0.6743 0.76619 0.0
H742 H 0.3375 0.62912 0.67323 0.0
H743 H 0.37283 0.65236 0.69719 0.0
H744 H 0.37506 0.68652 0.79063 0.0
H745 H 0.37431 0.68958 0.74254 0.0
H746 H 0.23137 0.56362 0.78929 0.0
H747 H 0.23494 0.56196 0.7412 0.0
H748 H 0.26715 0.56029 0.8337 0.0
H749 H 0.29697 0.59024 0.85778 0.0
C750 C 0.68873 0.07062 0.03806 0.0
C751 C 0.65295 0.09068 0.03674 0.0
C752 C 0.6542 0.08439 0.96878 0.0
C753 C 0.6906 0.06577 0.97009 0.0
N754 N 0.73989 0.03483 1.00541 0.0
N755 N 0.59824 0.11105 1.00259 0.0
C756 C 0.70683 0.05669 1.00466 0.0
C757 C 0.63448 0.09554 1.00257 0.0
N758 N 0.70622 0.06653 0.07119 0.0
N759 N 0.63954 0.0931 0.93511 0.0
H760 H 0.58367 0.12057 0.0267 0.0
H761 H 0.58163 0.11241 0.97931 0.0
H762 H 0.65269 0.0837 0.91021 0.0
H763 H 0.61531 0.11058 0.93153 0.0
H764 H 0.7344 0.0571 0.07378 0.0
H765 H 0.69307 0.07435 0.09653 0.0
H766 H 0.75093 0.02271 0.0293 0.0
H767 H 0.75538 0.02669 0.98152 0.0
C768 C 0.72419 0.12196 0.7288 0.0
C769 C 0.68658 0.11783 0.71642 0.0
C770 C 0.66964 0.0823 0.77348 0.0
C771 C 0.70831 0.08256 0.78383 0.0
N772 N 0.77406 0.09526 0.76658 0.0
N773 N 0.62534 0.0877 0.72365 0.0
C774 C 0.73609 0.10052 0.76029 0.0
C775 C 0.65979 0.09615 0.73783 0.0
N776 N 0.74835 0.14703 0.71102 0.0
N777 N 0.64202 0.07019 0.79821 0.0
H778 H 0.61721 0.09694 0.69749 0.0
H779 H 0.60637 0.06849 0.73629 0.0
H780 H 0.64788 0.0612 0.82506 0.0
H781 H 0.61297 0.07291 0.79349 0.0
H782 H 0.7746 0.15442 0.72129 0.0
H783 H 0.74072 0.16318 0.68782 0.0
H784 H 0.79551 0.10442 0.74816 0.0
H785 H 0.78431 0.07816 0.78808 0.0
C786 C 0.17707 0.49876 0.99903 0.0
C787 C 0.18389 0.47598 0.03137 0.0
C788 C 0.15582 0.41904 1.00167 0.0
C789 C 0.15064 0.44137 0.96907 0.0
N790 N 0.16014 0.50038 0.93429 0.0
N791 N 0.17025 0.41801 0.0669 0.0
C792 C 0.16204 0.48075 0.96722 0.0
C793 C 0.17083 0.43696 0.03351 0.0
N794 N 0.18356 0.53791 0.99891 0.0
N795 N 0.14731 0.38027 1.0018 0.0
H796 H 0.17838 0.43104 0.09139 0.0
H797 H 0.15801 0.39102 0.0715 0.0
H798 H 0.13456 0.3666 0.97977 0.0
H799 H 0.15505 0.36087 0.02256 0.0
H800 H 0.17545 0.55686 0.97794 0.0
H801 H 0.19364 0.55288 0.02128 0.0
H802 H 0.17269 0.52711 0.92907 0.0
H803 H 0.14837 0.4886 0.91076 0.0
C804 C 0.7951 0.97239 0.26156 0.0
C805 C 0.80389 0.95994 0.29786 0.0
C806 C 0.83124 0.89848 0.27238 0.0
C807 C 0.82712 0.91349 0.23608 0.0
N808 N 0.80697 0.96534 0.19541 0.0
N809 N 0.83068 0.91192 0.33854 0.0
C810 C 0.80911 0.95042 0.23046 0.0
C811 C 0.82153 0.92284 0.30354 0.0
N812 N 0.77306 1.00533 0.25689 0.0
N813 N 0.84453 0.86101 0.2769 0.0
H814 H 0.82301 0.92891 0.36165 0.0
H815 H 0.84726 0.8873 0.3446 0.0
H816 H 0.85273 0.84296 0.25461 0.0
H817 H 0.84506 0.84683 0.30235 0.0
H818 H 0.76161 0.01357 0.23177 0.0
H819 H 0.76354 0.0229 0.27893 0.0
H820 H 0.79888 0.99411 0.18978 0.0
H821 H 0.81566 0.94972 0.17169 0.0
C822 C 0.32418 0.61472 0.53447 0.0
C823 C 0.32711 0.5742 0.5418 0.0
C824 C 0.35139 0.56335 0.47805 0.0
C825 C 0.35422 0.60441 0.47269 0.0
N826 N 0.31358 0.66084 0.48571 0.0
N827 N 0.34604 0.50964 0.52147 0.0
C828 C 0.33263 0.6285 0.49819 0.0
C829 C 0.34205 0.54854 0.51397 0.0
N830 N 0.31179 0.64008 0.56169 0.0
N831 N 0.34893 0.5394 0.44813 0.0
H832 H 0.33849 0.49797 0.54732 0.0
H833 H 0.35996 0.49001 0.50323 0.0
H834 H 0.34508 0.55064 0.42162 0.0
H835 H 0.34377 0.50964 0.45025 0.0
H836 H 0.31193 0.6703 0.55814 0.0
H837 H 0.30503 0.63106 0.58864 0.0
H838 H 0.29461 0.67756 0.50236 0.0
H839 H 0.3123 0.66713 0.45749 0.0
C840 C 0.2148 0.21288 0.41572 0.0
C841 C 0.21965 0.23553 0.44791 0.0
C842 C 0.28854 0.23765 0.43337 0.0
C843 C 0.28443 0.20992 0.40473 0.0
N844 N 0.24396 0.16846 0.37005 0.0
N845 N 0.26127 0.26793 0.48913 0.0
C846 C 0.24754 0.19722 0.39585 0.0
C847 C 0.25655 0.24789 0.45697 0.0
N848 N 0.1788 0.20583 0.40462 0.0
N849 N 0.32306 0.25438 0.43778 0.0
H850 H 0.23846 0.27696 0.50649 0.0
H851 H 0.28777 0.27358 0.49976 0.0
H852 H 0.34703 0.24749 0.42093 0.0
H853 H 0.32715 0.27754 0.45575 0.0
H854 H 0.173 0.1924 0.37966 0.0
H855 H 0.15458 0.21677 0.41903 0.0
H856 H 0.21842 0.1548 0.3653 0.0
H857 H 0.26716 0.1561 0.3551 0.0
C858 C 0.06604 0.0621 0.70287 0.0
C859 C 0.06577 0.06437 0.66366 0.0
C860 C 0.04191 0.99772 0.66086 0.0
C861 C 0.0393 0.99669 0.70016 0.0
N862 N 0.04138 0.03083 0.75848 0.0
N863 N 0.04761 0.03742 0.60542 0.0
C864 C 0.04928 0.02971 0.72117 0.0
C865 C 0.05193 0.03306 0.64267 0.0
N866 N 0.08352 0.09019 0.72262 0.0
N867 N 0.03657 0.96447 0.64095 0.0
H868 H 0.05483 0.06283 0.59117 0.0
H869 H 0.03389 0.0173 0.58924 0.0
H870 H 0.02961 0.9379 0.65322 0.0
H871 H 0.04224 0.96228 0.61254 0.0
H872 H 0.0885 0.08773 0.75079 0.0
H873 H 0.09602 0.1145 0.71033 0.0
H874 H 0.04408 0.05579 0.77455 0.0
H875 H 0.02865 1.00797 0.77287 0.0
C876 C 0.25221 0.82998 0.88666 0.0
C877 C 0.21708 0.83464 0.90705 0.0
C878 C 0.2474 0.81262 0.9637 0.0
C879 C 0.28225 0.8064 0.94296 0.0
N880 N 0.31739 0.80432 0.8845 0.0
N881 N 0.17908 0.82548 0.96306 0.0
C882 C 0.28447 0.81349 0.9043 0.0
C883 C 0.21409 0.82473 0.94511 0.0
N884 N 0.2549 0.84253 0.85073 0.0
N885 N 0.24617 0.80699 1.00123 0.0
H886 H 0.15415 0.83491 0.95054 0.0
H887 H 0.17401 0.81431 0.98951 0.0
H888 H 0.2688 0.79485 0.01563 0.0
H889 H 0.22335 0.81594 0.0186 0.0
H890 H 0.28042 0.84385 0.83532 0.0
H891 H 0.23176 0.85441 0.83685 0.0
H892 H 0.31968 0.80443 0.85571 0.0
H893 H 0.34218 0.79411 0.89678 0.0
C894 C 0.46718 0.0136 0.20269 0.0
C895 C 0.46952 0.05162 0.18694 0.0
C896 C 0.43807 0.02847 0.13153 0.0
C897 C 0.43771 0.9901 0.14653 0.0
N898 N 0.45874 0.94437 0.1926 0.0
N899 N 0.46201 0.09431 0.13447 0.0
C900 C 0.45436 0.98218 0.181 0.0
C901 C 0.45675 0.05865 0.1506 0.0
N902 N 0.47628 1.0076 0.23878 0.0
N903 N 0.41886 0.03649 0.10002 0.0
H904 H 0.47375 0.11771 0.14814 0.0
H905 H 0.45723 0.10004 0.10669 0.0
H906 H 0.40502 0.01522 0.08522 0.0
H907 H 0.41412 0.06459 0.08993 0.0
H908 H 0.47081 0.98187 0.25314 0.0
H909 H 0.48683 0.02931 0.25545 0.0
H910 H 0.47438 0.93618 0.21544 0.0
H911 H 0.44968 0.92061 0.17743 0.0
C912 C 0.81392 0.32744 0.56139 0.0
C913 C 0.81231 0.33735 0.59954 0.0
C914 C 0.74384 0.32306 0.60272 0.0
C915 C 0.74624 0.31017 0.56531 0.0
N916 N 0.78588 0.29232 0.51155 0.0
N917 N 0.77766 0.33814 0.65828 0.0
C918 C 0.78199 0.31006 0.54542 0.0
C919 C 0.77781 0.33313 0.62076 0.0
N920 N 0.84538 0.3362 0.53986 0.0
N921 N 0.709 0.32786 0.62044 0.0
H922 H 0.80191 0.3457 0.6723 0.0
H923 H 0.75451 0.3315 0.67577 0.0
H924 H 0.68344 0.32163 0.60809 0.0
H925 H 0.70513 0.34126 0.64621 0.0
H926 H 0.84632 0.334 0.51107 0.0
H927 H 0.86941 0.34905 0.55028 0.0
H928 H 0.81214 0.2873 0.49784 0.0
H929 H 0.76345 0.27923 0.49858 0.0
C930 C 0.99138 0.5236 0.79863 0.0
C931 C 0.98177 0.48435 0.80648 0.0
C932 C 0.94507 0.50607 0.86228 0.0
C933 C 0.95408 0.54547 0.85404 0.0
N934 N 0.99281 0.59092 0.81974 0.0
N935 N 0.95804 0.43713 0.84996 0.0
C936 C 0.97955 0.55391 0.82387 0.0
C937 C 0.96164 0.47528 0.83993 0.0
N938 N 1.01108 0.53194 0.7664 0.0
N939 N 0.91891 0.49822 0.89004 0.0
H940 H 0.9702 0.41454 0.83394 0.0
H941 H 0.94655 0.42814 0.87542 0.0
H942 H 0.90615 0.51983 0.90694 0.0
H943 H 0.90781 0.4707 0.89479 0.0
H944 H 0.01467 0.56009 0.75625 0.0
H945 H 0.02284 0.51024 0.74893 0.0
H946 H 0.01401 0.59852 0.80041 0.0
H947 H 0.9849 0.61361 0.8379 0.0
C948 C 0.76109 0.73805 0.09688 0.0
C949 C 0.78838 0.71354 0.0777 0.0
C950 C 0.75016 0.65644 0.09294 0.0
C951 C 0.72471 0.6804 0.11484 0.0
N952 N 0.71035 0.74261 0.14402 0.0
N953 N 0.81358 0.64851 0.06514 0.0
C954 C 0.73154 0.72083 0.11879 0.0
C955 C 0.7843 0.67242 0.07802 0.0
N956 N 0.76197 0.77767 0.09259 0.0
N957 N 0.74106 0.61882 0.08511 0.0
H958 H 0.83963 0.65907 0.05525 0.0
H959 H 0.81355 0.61824 0.06796 0.0
H960 H 0.71598 0.60609 0.09491 0.0
H961 H 0.75662 0.60145 0.06603 0.0
H962 H 0.74042 0.79658 0.10283 0.0
H963 H 0.78231 0.79155 0.07589 0.0
H964 H 0.71671 0.77121 0.15084 0.0
H965 H 0.68858 0.73094 0.16067 0.0
C966 C 0.5411 0.50003 0.35519 0.0
C967 C 0.57672 0.50333 0.37225 0.0
C968 C 0.57893 0.57237 0.35463 0.0
C969 C 0.54612 0.56771 0.33338 0.0
N970 N 0.48762 0.53309 0.32684 0.0
N971 N 0.63083 0.54166 0.3873 0.0
C972 C 0.52455 0.53328 0.33753 0.0
C973 C 0.59571 0.53944 0.37224 0.0
N974 N 0.52377 0.46471 0.35489 0.0
N975 N 0.59287 0.60892 0.35923 0.0
H976 H 0.64386 0.51844 0.40108 0.0
H977 H 0.64835 0.56558 0.38403 0.0
H978 H 0.57939 0.63385 0.34871 0.0
H979 H 0.61479 0.61524 0.37678 0.0
H980 H 0.50048 0.45872 0.33895 0.0
H981 H 0.53413 0.44035 0.36905 0.0
H982 H 0.46959 0.50972 0.33098 0.0
H983 H 0.473 0.55821 0.31872 0.0
C984 C 0.39847 0.25803 0.16652 0.0
C985 C 0.40107 0.29533 0.18347 0.0
C986 C 0.44744 0.26832 0.22652 0.0
C987 C 0.44469 0.23105 0.2097 0.0
N988 N 0.41145 0.18806 0.17037 0.0
N989 N 0.42046 0.33377 0.23505 0.0
C990 C 0.41786 0.22517 0.18204 0.0
C991 C 0.42306 0.29967 0.21537 0.0
N992 N 0.3795 0.25443 0.13432 0.0
N993 N 0.47485 0.27428 0.25171 0.0
H994 H 0.40287 0.35726 0.22756 0.0
H995 H 0.43296 0.33754 0.26048 0.0
H996 H 0.49254 0.2518 0.26104 0.0
H997 H 0.48161 0.3017 0.26163 0.0
H998 H 0.38018 0.22905 0.11845 0.0
H999 H 0.36534 0.27775 0.12179 0.0
H1000 H 0.39008 0.18108 0.15239 0.0
H1001 H 0.42527 0.16375 0.1817 0.0
C1002 C 0.93686 0.29689 0.82807 0.0
C1003 C 0.93998 0.30313 0.78911 0.0
C1004 C 0.89755 0.24816 0.78015 0.0
C1005 C 0.89956 0.23858 0.81831 0.0
N1006 N 0.92717 0.25023 0.8775 0.0
N1007 N 0.92783 0.27994 0.72743 0.0
C1008 C 0.92071 0.26206 0.84205 0.0
C1009 C 0.92123 0.27775 0.76488 0.0
N1010 N 0.94858 0.32471 0.85193 0.0
N1011 N 0.87269 0.22922 0.75855 0.0
H1012 H 0.94559 0.30026 0.71481 0.0
H1013 H 0.91834 0.25925 0.70897 0.0
H1014 H 0.8548 0.20761 0.7689 0.0
H1015 H 0.86721 0.23759 0.73148 0.0
H1016 H 0.94359 0.32341 0.88051 0.0
H1017 H 0.9595 0.35113 0.84291 0.0
H1018 H 0.94616 0.26396 0.89449 0.0
H1019 H 0.91644 0.2246 0.88887 0.0
C1020 C 0.02027 0.65695 0.04396 0.0
C1021 C 0.02917 0.66193 0.08175 0.0
C1022 C 0.9695 0.69959 0.0923 0.0
C1023 C 0.96425 0.70048 0.05358 0.0
N1024 N 0.98305 0.67947 0.99213 0.0
N1025 N 0.01378 0.69052 0.14168 0.0
C1026 C 0.98888 0.67844 0.0293 0.0
C1027 C 1.00386 0.68339 0.10607 0.0
N1028 N 0.04179 0.63155 0.02232 0.0
N1029 N 0.94162 0.71483 0.11578 0.0
H1030 H 0.0387 0.67933 0.15297 0.0
H1031 H 0.9988 0.70996 0.15928 0.0
H1032 H 0.9161 0.72674 0.10628 0.0
H1033 H 0.94203 0.7122 0.14449 0.0
H1034 H 0.03508 0.62399 0.99545 0.0
H1035 H 0.06489 0.61553 0.03238 0.0
H1036 H 1.00238 0.66821 0.97216 0.0
H1037 H 0.95884 0.69278 0.98127 0.0
C1038 C 0.62931 0.77162 0.31547 0.0
C1039 C 0.61003 0.80856 0.31548 0.0
C1040 C 0.55508 0.77981 0.28672 0.0
C1041 C 0.57462 0.74295 0.28613 0.0
N1042 N 0.63188 0.70426 0.29425 0.0
N1043 N 0.55818 0.84994 0.2957 0.0
C1044 C 0.61239 0.73912 0.29848 0.0
C1045 C 0.57397 0.81329 0.29935 0.0
N1046 N 0.66287 0.76727 0.33336 0.0
N1047 N 0.51812 0.78255 0.27599 0.0
H1048 H 0.57126 0.87502 0.30487 0.0
H1049 H 0.53371 0.85607 0.28108 0.0
H1050 H 0.50418 0.75923 0.26441 0.0
H1051 H 0.50058 0.80721 0.28008 0.0
H1052 H 0.67618 0.7404 0.33829 0.0
H1053 H 0.67648 0.79052 0.34549 0.0
H1054 H 0.66076 0.70042 0.29916 0.0
H1055 H 0.61983 0.67951 0.28315 0.0
C1056 C 0.53172 0.31813 0.58049 0.0
C1057 C 0.55074 0.32998 0.5474 0.0
C1058 C 0.49607 0.37363 0.53478 0.0
C1059 C 0.47972 0.36521 0.57055 0.0
N1060 N 0.46932 0.30683 0.6064 0.0
N1061 N 0.55219 0.3709 0.49335 0.0
C1062 C 0.49381 0.33098 0.588 0.0
C1063 C 0.53341 0.35864 0.52476 0.0
N1064 N 0.54969 0.29412 0.60483 0.0
N1065 N 0.47337 0.38831 0.50798 0.0
H1066 H 0.57922 0.35997 0.48534 0.0
H1067 H 0.54244 0.39417 0.47737 0.0
H1068 H 0.44374 0.38946 0.51167 0.0
H1069 H 0.48266 0.39253 0.48061 0.0
H1070 H 0.53721 0.28654 0.6304 0.0
H1071 H 0.57833 0.28574 0.60108 0.0
H1072 H 0.47789 0.27973 0.61683 0.0
H1073 H 0.43983 0.3117 0.60641 0.0
C1074 C 0.08405 0.74125 0.71407 0.0
C1075 C 0.11117 0.74825 0.68505 0.0
C1076 C 0.09117 0.81741 0.68354 0.0
C1077 C 0.06413 0.81023 0.71272 0.0
N1078 N 0.04368 0.76912 0.76322 0.0
N1079 N 0.14751 0.79406 0.6486 0.0
C1080 C 0.06361 0.77332 0.73043 0.0
C1081 C 0.11708 0.78681 0.67199 0.0
N1082 N 0.07609 0.70389 0.72459 0.0
N1083 N 0.0906 0.85233 0.66527 0.0
H1084 H 0.16688 0.77218 0.63965 0.0
H1085 H 0.1555 0.82205 0.64086 0.0
H1086 H 0.07278 0.87581 0.6732 0.0
H1087 H 0.10629 0.85735 0.64081 0.0
H1088 H 0.05331 0.69703 0.74248 0.0
H1089 H 0.09022 0.67937 0.71321 0.0
H1090 H 0.04489 0.74388 0.77928 0.0
H1091 H 0.02944 0.79259 0.77624 0.0
C1092 C 0.45881 0.86335 0.94637 0.0
C1093 C 0.46264 0.82489 0.96048 0.0
C1094 C 0.53248 0.82849 0.95285 0.0
C1095 C 0.52835 0.86502 0.93467 0.0
N1096 N 0.48722 0.91536 0.90998 0.0
N1097 N 0.50291 0.76845 0.97276 0.0
C1098 C 0.4914 0.88214 0.93057 0.0
C1099 C 0.49946 0.80687 0.96279 0.0
N1100 N 0.424 0.88214 0.94854 0.0
N1101 N 0.56807 0.81477 0.96121 0.0
H1102 H 0.47972 0.75143 0.98036 0.0
H1103 H 0.52848 0.75243 0.97066 0.0
H1104 H 0.59284 0.82981 0.95439 0.0
H1105 H 0.5729 0.79041 0.9778 0.0
H1106 H 0.41992 0.91161 0.94243 0.0
H1107 H 0.3996 0.86903 0.95957 0.0
H1108 H 0.46088 0.92683 0.9024 0.0
H1109 H 0.51023 0.92995 0.89791 0.0
C1110 C 0.99546 0.18987 0.40974 0.0
C1111 C 0.96806 0.17273 0.43412 0.0
C1112 C 1.00506 0.19206 0.48746 0.0
C1113 C 0.03368 0.20708 0.46293 0.0
N1114 N 0.06031 0.21141 0.4006 0.0
N1115 N 0.95093 0.14981 0.49539 0.0
C1116 C 0.03011 0.20326 0.424 0.0
C1117 C 0.97423 0.1714 0.47276 0.0
N1118 N 0.98774 0.195 0.3732 0.0
N1119 N 1.0059 0.19934 0.52462 0.0
H1120 H 0.9282 0.13419 0.48556 0.0
H1121 H 0.9563 0.14436 0.52312 0.0
H1122 H 0.02767 0.21426 0.53683 0.0
H1123 H 0.98335 0.19337 0.54309 0.0
H1124 H 1.00464 0.21141 0.35509 0.0
H1125 H 0.96272 0.18571 0.36159 0.0
H1126 H 0.06075 0.20552 0.37229 0.0
H1127 H 0.08651 0.2202 0.41 0.0
loop_
_geom_bond_atom_site_label_1
_geom_bond_atom_site_label_2
_geom_bond_distance
_geom_bond_site_symmetry_2
_ccdc_geom_bond_type
Pr0 C2 2.880 . S
Pr0 O20 2.562 . S
Pr0 O21 2.490 . S
Pr0 O22 2.695 . S
Pr0 O23 2.512 . S
Pr0 O25 2.437 . S
Pr0 O28 2.436 . S
Pr0 O30 2.438 . S
Pr1 C11 2.880 . S
Pr1 O22 2.436 . S
Pr1 O24 2.438 . S
Pr1 O26 2.562 . S
Pr1 O27 2.490 . S
Pr1 O28 2.695 . S
Pr1 O29 2.512 . S
Pr1 O31 2.437 . S
C2 Pr0 2.880 . S
C2 C3 1.491 . S
C2 O20 1.254 . S
C2 O21 1.225 . S
C3 C2 1.491 . S
C3 C4 1.392 . S
C3 C8 1.356 . S
C4 C3 1.392 . S
C4 C5 1.368 . S
C4 H32 0.929 . S
C5 C4 1.368 . S
C5 C6 1.386 . S
C5 H33 0.929 . S
C6 C5 1.386 . S
C6 C7 1.373 . S
C7 C6 1.373 . S
C7 C8 1.409 . S
C7 H34 0.931 . S
C8 C3 1.356 . S
C8 C7 1.409 . S
C8 H35 0.930 . S
C9 O22 1.270 . S
C9 O23 1.248 . S
C10 O24 1.267 . S
C10 O25 1.278 . S
C11 Pr1 2.880 . S
C11 C12 1.491 . S
C11 O26 1.254 . S
C11 O27 1.225 . S
C12 C11 1.491 . S
C12 C13 1.392 . S
C12 C17 1.356 . S
C13 C12 1.392 . S
C13 C14 1.368 . S
C13 H36 0.929 . S
C14 C13 1.368 . S
C14 C15 1.386 . S
C14 H37 0.929 . S
C15 C14 1.386 . S
C15 C16 1.373 . S
C16 C15 1.373 . S
C16 C17 1.409 . S
C16 H38 0.931 . S
C17 C12 1.356 . S
C17 C16 1.409 . S
C17 H39 0.930 . S
C18 O28 1.270 . S
C18 O29 1.248 . S
C19 O30 1.267 . S
C19 O31 1.278 . S
O20 Pr0 2.562 . S
O20 C2 1.254 . S
O21 Pr0 2.490 . S
O21 C2 1.225 . S
O22 Pr0 2.695 . S
O22 Pr1 2.436 . S
O22 C9 1.270 . S
O23 Pr0 2.512 . S
O23 C9 1.248 . S
O24 Pr1 2.438 . S
O24 C10 1.267 . S
O25 Pr0 2.437 . S
O25 C10 1.278 . S
O26 Pr1 2.562 . S
O26 C11 1.254 . S
O27 Pr1 2.490 . S
O27 C11 1.225 . S
O28 Pr0 2.436 . S
O28 Pr1 2.695 . S
O28 C18 1.270 . S
O29 Pr1 2.512 . S
O29 C18 1.248 . S
O30 Pr0 2.438 . S
O30 C19 1.267 . S
O31 Pr1 2.437 . S
O31 C19 1.278 . S
H32 C4 0.929 . S
H33 C5 0.929 . S
H34 C7 0.931 . S
H35 C8 0.930 . S
H36 C13 0.929 . S
H37 C14 0.929 . S
H38 C16 0.931 . S
H39 C17 0.930 . S
Pr40 C42 2.880 . S
Pr40 O60 2.562 . S
Pr40 O61 2.490 . S
Pr40 O62 2.695 1_655 S
Pr40 O63 2.512 1_655 S
Pr40 O65 2.437 1_655 S
Pr40 O68 2.436 . S
Pr40 O70 2.438 . S
Pr41 C51 2.880 . S
Pr41 O62 2.436 . S
Pr41 O64 2.438 . S
Pr41 O66 2.562 . S
Pr41 O67 2.490 . S
Pr41 O68 2.695 1_455 S
Pr41 O69 2.512 1_455 S
Pr41 O71 2.437 1_455 S
C42 Pr40 2.880 . S
C42 C43 1.491 . S
C42 O60 1.254 . S
C42 O61 1.225 . S
C43 C42 1.491 . S
C43 C44 1.392 . S
C43 C48 1.356 . S
C44 C43 1.392 . S
C44 C45 1.368 . S
C44 H72 0.929 . S
C45 C44 1.368 . S
C45 C46 1.386 . S
C45 H73 0.929 . S
C46 C45 1.386 . S
C46 C47 1.373 . S
C47 C46 1.373 . S
C47 C48 1.409 . S
C47 H74 0.931 . S
C48 C43 1.356 . S
C48 C47 1.409 . S
C48 H75 0.930 . S
C49 O62 1.270 . S
C49 O63 1.248 . S
C50 O64 1.267 . S
C50 O65 1.278 . S
C51 Pr41 2.880 . S
C51 C52 1.491 . S
C51 O66 1.254 . S
C51 O67 1.225 . S
C52 C51 1.491 . S
C52 C53 1.392 . S
C52 C57 1.356 . S
C53 C52 1.392 . S
C53 C54 1.368 . S
C53 H76 0.929 . S
C54 C53 1.368 . S
C54 C55 1.386 . S
C54 H77 0.929 . S
C55 C54 1.386 . S
C55 C56 1.373 . S
C56 C55 1.373 . S
C56 C57 1.409 . S
C56 H78 0.931 . S
C57 C52 1.356 . S
C57 C56 1.409 . S
C57 H79 0.930 . S
C58 O68 1.270 . S
C58 O69 1.248 . S
C59 O70 1.267 . S
C59 O71 1.278 . S
O60 Pr40 2.562 . S
O60 C42 1.254 . S
O61 Pr40 2.490 . S
O61 C42 1.225 . S
O62 Pr40 2.695 1_455 S
O62 Pr41 2.436 . S
O62 C49 1.270 . S
O63 Pr40 2.512 1_455 S
O63 C49 1.248 . S
O64 Pr41 2.438 . S
O64 C50 1.267 . S
O65 Pr40 2.437 1_455 S
O65 C50 1.278 . S
O66 Pr41 2.562 . S
O66 C51 1.254 . S
O67 Pr41 2.490 . S
O67 C51 1.225 . S
O68 Pr40 2.436 . S
O68 Pr41 2.695 1_655 S
O68 C58 1.270 . S
O69 Pr41 2.512 1_655 S
O69 C58 1.248 . S
O70 Pr40 2.438 . S
O70 C59 1.267 . S
O71 Pr41 2.437 1_655 S
O71 C59 1.278 . S
H72 C44 0.929 . S
H73 C45 0.929 . S
H74 C47 0.931 . S
H75 C48 0.930 . S
H76 C53 0.929 . S
H77 C54 0.929 . S
H78 C56 0.931 . S
H79 C57 0.930 . S
Pr80 C82 2.880 . S
Pr80 O100 2.562 . S
Pr80 O101 2.490 . S
Pr80 O102 2.695 . S
Pr80 O103 2.512 . S
Pr80 O105 2.437 . S
Pr80 O108 2.436 1_556 S
Pr80 O110 2.438 1_556 S
Pr81 C91 2.880 . S
Pr81 O102 2.436 1_554 S
Pr81 O104 2.438 1_554 S
Pr81 O106 2.562 . S
Pr81 O107 2.490 . S
Pr81 O108 2.695 . S
Pr81 O109 2.512 . S
Pr81 O111 2.437 . S
C82 Pr80 2.880 . S
C82 C83 1.491 . S
C82 O100 1.254 . S
C82 O101 1.225 . S
C83 C82 1.491 . S
C83 C84 1.392 . S
C83 C88 1.356 . S
C84 C83 1.392 . S
C84 C85 1.368 . S
C84 H112 0.929 . S
C85 C84 1.368 . S
C85 C86 1.386 . S
C85 H113 0.929 . S
C86 C85 1.386 . S
C86 C87 1.373 . S
C87 C86 1.373 . S
C87 C88 1.409 . S
C87 H114 0.931 . S
C88 C83 1.356 . S
C88 C87 1.409 . S
C88 H115 0.930 . S
C89 O102 1.270 . S
C89 O103 1.248 . S
C90 O104 1.267 . S
C90 O105 1.278 . S
C91 Pr81 2.880 . S
C91 C92 1.491 . S
C91 O106 1.254 . S
C91 O107 1.225 . S
C92 C91 1.491 . S
C92 C93 1.392 . S
C92 C97 1.356 . S
C93 C92 1.392 . S
C93 C94 1.368 . S
C93 H116 0.929 . S
C94 C93 1.368 . S
C94 C95 1.386 . S
C94 H117 0.929 . S
C95 C94 1.386 . S
C95 C96 1.373 . S
C96 C95 1.373 . S
C96 C97 1.409 . S
C96 H118 0.931 . S
C97 C92 1.356 . S
C97 C96 1.409 . S
C97 H119 0.930 . S
C98 O108 1.270 . S
C98 O109 1.248 . S
C99 O110 1.267 . S
C99 O111 1.278 . S
O100 Pr80 2.562 . S
O100 C82 1.254 . S
O101 Pr80 2.490 . S
O101 C82 1.225 . S
O102 Pr80 2.695 . S
O102 Pr81 2.436 1_556 S
O102 C89 1.270 . S
O103 Pr80 2.512 . S
O103 C89 1.248 . S
O104 Pr81 2.438 1_556 S
O104 C90 1.267 . S
O105 Pr80 2.437 . S
O105 C90 1.278 . S
O106 Pr81 2.562 . S
O106 C91 1.254 . S
O107 Pr81 2.490 . S
O107 C91 1.225 . S
O108 Pr80 2.436 1_554 S
O108 Pr81 2.695 . S
O108 C98 1.270 . S
O109 Pr81 2.512 . S
O109 C98 1.248 . S
O110 Pr80 2.438 1_554 S
O110 C99 1.267 . S
O111 Pr81 2.437 . S
O111 C99 1.278 . S
H112 C84 0.929 . S
H113 C85 0.929 . S
H114 C87 0.931 . S
H115 C88 0.930 . S
H116 C93 0.929 . S
H117 C94 0.929 . S
H118 C96 0.931 . S
H119 C97 0.930 . S
Pr120 C122 2.880 . S
Pr120 O140 2.562 . S
Pr120 O141 2.490 . S
Pr120 O142 2.695 . S
Pr120 O143 2.512 . S
Pr120 O145 2.437 . S
Pr120 O148 2.436 . S
Pr120 O150 2.438 . S
Pr121 C131 2.880 . S
Pr121 O142 2.436 . S
Pr121 O144 2.438 . S
Pr121 O146 2.562 . S
Pr121 O147 2.490 . S
Pr121 O148 2.695 . S
Pr121 O149 2.512 . S
Pr121 O151 2.437 . S
C122 Pr120 2.880 . S
C122 C123 1.491 . S
C122 O140 1.254 . S
C122 O141 1.225 . S
C123 C122 1.491 . S
C123 C124 1.392 . S
C123 C128 1.356 . S
C124 C123 1.392 . S
C124 C125 1.368 . S
C124 H152 0.929 . S
C125 C124 1.368 . S
C125 C126 1.386 . S
C125 H153 0.929 . S
C126 C125 1.386 . S
C126 C127 1.373 . S
C127 C126 1.373 . S
C127 C128 1.409 . S
C127 H154 0.931 . S
C128 C123 1.356 . S
C128 C127 1.409 . S
C128 H155 0.930 . S
C129 O142 1.270 . S
C129 O143 1.248 . S
C130 O144 1.267 . S
C130 O145 1.278 . S
C131 Pr121 2.880 . S
C131 C132 1.491 . S
C131 O146 1.254 . S
C131 O147 1.225 . S
C132 C131 1.491 . S
C132 C133 1.392 . S
C132 C137 1.356 . S
C133 C132 1.392 . S
C133 C134 1.368 . S
C133 H156 0.929 . S
C134 C133 1.368 . S
C134 C135 1.386 . S
C134 H157 0.929 . S
C135 C134 1.386 . S
C135 C136 1.373 . S
C136 C135 1.373 . S
C136 C137 1.409 . S
C136 H158 0.931 . S
C137 C132 1.356 . S
C137 C136 1.409 . S
C137 H159 0.930 . S
C138 O148 1.270 . S
C138 O149 1.248 . S
C139 O150 1.267 . S
C139 O151 1.278 . S
O140 Pr120 2.562 . S
O140 C122 1.254 . S
O141 Pr120 2.490 . S
O141 C122 1.225 . S
O142 Pr120 2.695 . S
O142 Pr121 2.436 . S
O142 C129 1.270 . S
O143 Pr120 2.512 . S
O143 C129 1.248 . S
O144 Pr121 2.438 . S
O144 C130 1.267 . S
O145 Pr120 2.437 . S
O145 C130 1.278 . S
O146 Pr121 2.562 . S
O146 C131 1.254 . S
O147 Pr121 2.490 . S
O147 C131 1.225 . S
O148 Pr120 2.436 . S
O148 Pr121 2.695 . S
O148 C138 1.270 . S
O149 Pr121 2.512 . S
O149 C138 1.248 . S
O150 Pr120 2.438 . S
O150 C139 1.267 . S
O151 Pr121 2.437 . S
O151 C139 1.278 . S
H152 C124 0.929 . S
H153 C125 0.929 . S
H154 C127 0.931 . S
H155 C128 0.930 . S
H156 C133 0.929 . S
H157 C134 0.929 . S
H158 C136 0.931 . S
H159 C137 0.930 . S
Pr160 C162 2.880 . S
Pr160 O180 2.562 . S
Pr160 O181 2.490 . S
Pr160 O182 2.695 . S
Pr160 O183 2.512 . S
Pr160 O185 2.437 . S
Pr160 O188 2.436 . S
Pr160 O190 2.438 . S
Pr161 C171 2.880 . S
Pr161 O182 2.436 . S
Pr161 O184 2.438 . S
Pr161 O186 2.562 . S
Pr161 O187 2.490 . S
Pr161 O188 2.695 . S
Pr161 O189 2.512 . S
Pr161 O191 2.437 . S
C162 Pr160 2.880 . S
C162 C163 1.491 . S
C162 O180 1.254 . S
C162 O181 1.225 . S
C163 C162 1.491 . S
C163 C164 1.392 . S
C163 C168 1.356 . S
C164 C163 1.392 . S
C164 C165 1.368 . S
C164 H192 0.929 . S
C165 C164 1.368 . S
C165 C166 1.386 . S
C165 H193 0.929 . S
C166 C165 1.386 . S
C166 C167 1.373 . S
C167 C166 1.373 . S
C167 C168 1.409 . S
C167 H194 0.931 . S
C168 C163 1.356 . S
C168 C167 1.409 . S
C168 H195 0.930 . S
C169 O182 1.270 . S
C169 O183 1.248 . S
C170 O184 1.267 . S
C170 O185 1.278 . S
C171 Pr161 2.880 . S
C171 C172 1.491 . S
C171 O186 1.254 . S
C171 O187 1.225 . S
C172 C171 1.491 . S
C172 C173 1.392 . S
C172 C177 1.356 . S
C173 C172 1.392 . S
C173 C174 1.368 . S
C173 H196 0.929 . S
C174 C173 1.368 . S
C174 C175 1.386 . S
C174 H197 0.929 . S
C175 C174 1.386 . S
C175 C176 1.373 . S
C176 C175 1.373 . S
C176 C177 1.409 . S
C176 H198 0.931 . S
C177 C172 1.356 . S
C177 C176 1.409 . S
C177 H199 0.930 . S
C178 O188 1.270 . S
C178 O189 1.248 . S
C179 O190 1.267 . S
C179 O191 1.278 . S
O180 Pr160 2.562 . S
O180 C162 1.254 . S
O181 Pr160 2.490 . S
O181 C162 1.225 . S
O182 Pr160 2.695 . S
O182 Pr161 2.436 . S
O182 C169 1.270 . S
O183 Pr160 2.512 . S
O183 C169 1.248 . S
O184 Pr161 2.438 . S
O184 C170 1.267 . S
O185 Pr160 2.437 . S
O185 C170 1.278 . S
O186 Pr161 2.562 . S
O186 C171 1.254 . S
O187 Pr161 2.490 . S
O187 C171 1.225 . S
O188 Pr160 2.436 . S
O188 Pr161 2.695 . S
O188 C178 1.270 . S
O189 Pr161 2.512 . S
O189 C178 1.248 . S
O190 Pr160 2.438 . S
O190 C179 1.267 . S
O191 Pr161 2.437 . S
O191 C179 1.278 . S
H192 C164 0.929 . S
H193 C165 0.929 . S
H194 C167 0.931 . S
H195 C168 0.930 . S
H196 C173 0.929 . S
H197 C174 0.929 . S
H198 C176 0.931 . S
H199 C177 0.930 . S
Pr200 C202 2.880 . S
Pr200 O220 2.562 . S
Pr200 O221 2.490 . S
Pr200 O222 2.695 . S
Pr200 O223 2.512 . S
Pr200 O225 2.437 . S
Pr200 O228 2.436 1_655 S
Pr200 O230 2.438 1_655 S
Pr201 C211 2.880 . S
Pr201 O222 2.436 1_455 S
Pr201 O224 2.438 1_455 S
Pr201 O226 2.562 . S
Pr201 O227 2.490 . S
Pr201 O228 2.695 . S
Pr201 O229 2.512 . S
Pr201 O231 2.437 . S
C202 Pr200 2.880 . S
C202 C203 1.491 . S
C202 O220 1.254 . S
C202 O221 1.225 . S
C203 C202 1.491 . S
C203 C204 1.392 . S
C203 C208 1.356 . S
C204 C203 1.392 . S
C204 C205 1.368 . S
C204 H232 0.929 . S
C205 C204 1.368 . S
C205 C206 1.386 . S
C205 H233 0.929 . S
C206 C205 1.386 . S
C206 C207 1.373 . S
C207 C206 1.373 . S
C207 C208 1.409 . S
C207 H234 0.931 . S
C208 C203 1.356 . S
C208 C207 1.409 . S
C208 H235 0.930 . S
C209 O222 1.270 . S
C209 O223 1.248 . S
C210 O224 1.267 . S
C210 O225 1.278 . S
C211 Pr201 2.880 . S
C211 C212 1.491 . S
C211 O226 1.254 . S
C211 O227 1.225 . S
C212 C211 1.491 . S
C212 C213 1.392 . S
C212 C217 1.356 . S
C213 C212 1.392 . S
C213 C214 1.368 . S
C213 H236 0.929 . S
C214 C213 1.368 . S
C214 C215 1.386 . S
C214 H237 0.929 . S
C215 C214 1.386 . S
C215 C216 1.373 . S
C216 C215 1.373 . S
C216 C217 1.409 . S
C216 H238 0.931 . S
C217 C212 1.356 . S
C217 C216 1.409 . S
C217 H239 0.930 . S
C218 O228 1.270 . S
C218 O229 1.248 . S
C219 O230 1.267 . S
C219 O231 1.278 . S
O220 Pr200 2.562 . S
O220 C202 1.254 . S
O221 Pr200 2.490 . S
O221 C202 1.225 . S
O222 Pr200 2.695 . S
O222 Pr201 2.436 1_655 S
O222 C209 1.270 . S
O223 Pr200 2.512 . S
O223 C209 1.248 . S
O224 Pr201 2.438 1_655 S
O224 C210 1.267 . S
O225 Pr200 2.437 . S
O225 C210 1.278 . S
O226 Pr201 2.562 . S
O226 C211 1.254 . S
O227 Pr201 2.490 . S
O227 C211 1.225 . S
O228 Pr200 2.436 1_455 S
O228 Pr201 2.695 . S
O228 C218 1.270 . S
O229 Pr201 2.512 . S
O229 C218 1.248 . S
O230 Pr200 2.438 1_455 S
O230 C219 1.267 . S
O231 Pr201 2.437 . S
O231 C219 1.278 . S
H232 C204 0.929 . S
H233 C205 0.929 . S
H234 C207 0.931 . S
H235 C208 0.930 . S
H236 C213 0.929 . S
H237 C214 0.929 . S
H238 C216 0.931 . S
H239 C217 0.930 . S
Pr240 C242 2.880 . S
Pr240 O260 2.562 . S
Pr240 O261 2.490 . S
Pr240 O262 2.695 . S
Pr240 O263 2.512 . S
Pr240 O265 2.437 . S
Pr240 O268 2.436 1_554 S
Pr240 O270 2.438 1_554 S
Pr241 C251 2.880 . S
Pr241 O262 2.436 1_556 S
Pr241 O264 2.438 1_556 S
Pr241 O266 2.562 . S
Pr241 O267 2.490 . S
Pr241 O268 2.695 . S
Pr241 O269 2.512 . S
Pr241 O271 2.437 . S
C242 Pr240 2.880 . S
C242 C243 1.491 . S
C242 O260 1.254 . S
C242 O261 1.225 . S
C243 C242 1.491 . S
C243 C244 1.392 . S
C243 C248 1.356 . S
C244 C243 1.392 . S
C244 C245 1.368 . S
C244 H272 0.929 . S
C245 C244 1.368 . S
C245 C246 1.386 . S
C245 H273 0.929 . S
C246 C245 1.386 . S
C246 C247 1.373 . S
C247 C246 1.373 . S
C247 C248 1.409 . S
C247 H274 0.931 . S
C248 C243 1.356 . S
C248 C247 1.409 . S
C248 H275 0.930 . S
C249 O262 1.270 . S
C249 O263 1.248 . S
C250 O264 1.267 . S
C250 O265 1.278 . S
C251 Pr241 2.880 . S
C251 C252 1.491 . S
C251 O266 1.254 . S
C251 O267 1.225 . S
C252 C251 1.491 . S
C252 C253 1.392 . S
C252 C257 1.356 . S
C253 C252 1.392 . S
C253 C254 1.368 . S
C253 H276 0.929 . S
C254 C253 1.368 . S
C254 C255 1.386 . S
C254 H277 0.929 . S
C255 C254 1.386 . S
C255 C256 1.373 . S
C256 C255 1.373 . S
C256 C257 1.409 . S
C256 H278 0.931 . S
C257 C252 1.356 . S
C257 C256 1.409 . S
C257 H279 0.930 . S
C258 O268 1.270 . S
C258 O269 1.248 . S
C259 O270 1.267 . S
C259 O271 1.278 . S
O260 Pr240 2.562 . S
O260 C242 1.254 . S
O261 Pr240 2.490 . S
O261 C242 1.225 . S
O262 Pr240 2.695 . S
O262 Pr241 2.436 1_554 S
O262 C249 1.270 . S
O263 Pr240 2.512 . S
O263 C249 1.248 . S
O264 Pr241 2.438 1_554 S
O264 C250 1.267 . S
O265 Pr240 2.437 . S
O265 C250 1.278 . S
O266 Pr241 2.562 . S
O266 C251 1.254 . S
O267 Pr241 2.490 . S
O267 C251 1.225 . S
O268 Pr240 2.436 1_556 S
O268 Pr241 2.695 . S
O268 C258 1.270 . S
O269 Pr241 2.512 . S
O269 C258 1.248 . S
O270 Pr240 2.438 1_556 S
O270 C259 1.267 . S
O271 Pr241 2.437 . S
O271 C259 1.278 . S
H272 C244 0.929 . S
H273 C245 0.929 . S
H274 C247 0.931 . S
H275 C248 0.930 . S
H276 C253 0.929 . S
H277 C254 0.929 . S
H278 C256 0.931 . S
H279 C257 0.930 . S
Pr280 C282 2.880 . S
Pr280 O300 2.562 . S
Pr280 O301 2.490 . S
Pr280 O302 2.695 . S
Pr280 O303 2.512 . S
Pr280 O305 2.437 . S
Pr280 O308 2.436 . S
Pr280 O310 2.438 . S
Pr281 C291 2.880 . S
Pr281 O302 2.436 . S
Pr281 O304 2.438 . S
Pr281 O306 2.562 . S
Pr281 O307 2.490 . S
Pr281 O308 2.695 . S
Pr281 O309 2.512 . S
Pr281 O311 2.437 . S
C282 Pr280 2.880 . S
C282 C283 1.491 . S
C282 O300 1.254 . S
C282 O301 1.225 . S
C283 C282 1.491 . S
C283 C284 1.392 . S
C283 C288 1.356 . S
C284 C283 1.392 . S
C284 C285 1.368 . S
C284 H312 0.929 . S
C285 C284 1.368 . S
C285 C286 1.386 . S
C285 H313 0.929 . S
C286 C285 1.386 . S
C286 C287 1.373 . S
C287 C286 1.373 . S
C287 C288 1.409 . S
C287 H314 0.931 . S
C288 C283 1.356 . S
C288 C287 1.409 . S
C288 H315 0.930 . S
C289 O302 1.270 . S
C289 O303 1.248 . S
C290 O304 1.267 . S
C290 O305 1.278 . S
C291 Pr281 2.880 . S
C291 C292 1.491 . S
C291 O306 1.254 . S
C291 O307 1.225 . S
C292 C291 1.491 . S
C292 C293 1.392 . S
C292 C297 1.356 . S
C293 C292 1.392 . S
C293 C294 1.368 . S
C293 H316 0.929 . S
C294 C293 1.368 . S
C294 C295 1.386 . S
C294 H317 0.929 . S
C295 C294 1.386 . S
C295 C296 1.373 . S
C296 C295 1.373 . S
C296 C297 1.409 . S
C296 H318 0.931 . S
C297 C292 1.356 . S
C297 C296 1.409 . S
C297 H319 0.930 . S
C298 O308 1.270 . S
C298 O309 1.248 . S
C299 O310 1.267 . S
C299 O311 1.278 . S
O300 Pr280 2.562 . S
O300 C282 1.254 . S
O301 Pr280 2.490 . S
O301 C282 1.225 . S
O302 Pr280 2.695 . S
O302 Pr281 2.436 . S
O302 C289 1.270 . S
O303 Pr280 2.512 . S
O303 C289 1.248 . S
O304 Pr281 2.438 . S
O304 C290 1.267 . S
O305 Pr280 2.437 . S
O305 C290 1.278 . S
O306 Pr281 2.562 . S
O306 C291 1.254 . S
O307 Pr281 2.490 . S
O307 C291 1.225 . S
O308 Pr280 2.436 . S
O308 Pr281 2.695 . S
O308 C298 1.270 . S
O309 Pr281 2.512 . S
O309 C298 1.248 . S
O310 Pr280 2.438 . S
O310 C299 1.267 . S
O311 Pr281 2.437 . S
O311 C299 1.278 . S
H312 C284 0.929 . S
H313 C285 0.929 . S
H314 C287 0.931 . S
H315 C288 0.930 . S
H316 C293 0.929 . S
H317 C294 0.929 . S
H318 C296 0.931 . S
H319 C297 0.930 . S
Pr320 C322 2.880 . S
Pr320 O340 2.562 . S
Pr320 O341 2.490 . S
Pr320 O342 2.695 . S
Pr320 O343 2.512 . S
Pr320 O345 2.437 . S
Pr320 O348 2.436 . S
Pr320 O350 2.438 . S
Pr321 C331 2.880 . S
Pr321 O342 2.436 . S
Pr321 O344 2.438 . S
Pr321 O346 2.562 . S
Pr321 O347 2.490 . S
Pr321 O348 2.695 . S
Pr321 O349 2.512 . S
Pr321 O351 2.437 . S
C322 Pr320 2.880 . S
C322 C323 1.491 . S
C322 O340 1.254 . S
C322 O341 1.225 . S
C323 C322 1.491 . S
C323 C324 1.392 . S
C323 C328 1.356 . S
C324 C323 1.392 . S
C324 C325 1.368 . S
C324 H352 0.929 . S
C325 C324 1.368 . S
C325 C326 1.386 . S
C325 H353 0.929 . S
C326 C325 1.386 . S
C326 C327 1.373 . S
C327 C326 1.373 . S
C327 C328 1.409 . S
C327 H354 0.931 . S
C328 C323 1.356 . S
C328 C327 1.409 . S
C328 H355 0.930 . S
C329 O342 1.270 . S
C329 O343 1.248 . S
C330 O344 1.267 . S
C330 O345 1.278 . S
C331 Pr321 2.880 . S
C331 C332 1.491 . S
C331 O346 1.254 . S
C331 O347 1.225 . S
C332 C331 1.491 . S
C332 C333 1.392 . S
C332 C337 1.356 . S
C333 C332 1.392 . S
C333 C334 1.368 . S
C333 H356 0.929 . S
C334 C333 1.368 . S
C334 C335 1.386 . S
C334 H357 0.929 . S
C335 C334 1.386 . S
C335 C336 1.373 . S
C336 C335 1.373 . S
C336 C337 1.409 . S
C336 H358 0.931 . S
C337 C332 1.356 . S
C337 C336 1.409 . S
C337 H359 0.930 . S
C338 O348 1.270 . S
C338 O349 1.248 . S
C339 O350 1.267 . S
C339 O351 1.278 . S
O340 Pr320 2.562 . S
O340 C322 1.254 . S
O341 Pr320 2.490 . S
O341 C322 1.225 . S
O342 Pr320 2.695 . S
O342 Pr321 2.436 . S
O342 C329 1.270 . S
O343 Pr320 2.512 . S
O343 C329 1.248 . S
O344 Pr321 2.438 . S
O344 C330 1.267 . S
O345 Pr320 2.437 . S
O345 C330 1.278 . S
O346 Pr321 2.562 . S
O346 C331 1.254 . S
O347 Pr321 2.490 . S
O347 C331 1.225 . S
O348 Pr320 2.436 . S
O348 Pr321 2.695 . S
O348 C338 1.270 . S
O349 Pr321 2.512 . S
O349 C338 1.248 . S
O350 Pr320 2.438 . S
O350 C339 1.267 . S
O351 Pr321 2.437 . S
O351 C339 1.278 . S
H352 C324 0.929 . S
H353 C325 0.929 . S
H354 C327 0.931 . S
H355 C328 0.930 . S
H356 C333 0.929 . S
H357 C334 0.929 . S
H358 C336 0.931 . S
H359 C337 0.930 . S
Pr360 C362 2.880 . S
Pr360 O380 2.562 . S
Pr360 O381 2.490 . S
Pr360 O382 2.695 . S
Pr360 O383 2.512 . S
Pr360 O385 2.437 . S
Pr360 O388 2.436 1_545 S
Pr360 O390 2.438 1_545 S
Pr361 C371 2.880 . S
Pr361 O382 2.436 1_565 S
Pr361 O384 2.438 1_565 S
Pr361 O386 2.562 . S
Pr361 O387 2.490 . S
Pr361 O388 2.695 . S
Pr361 O389 2.512 . S
Pr361 O391 2.437 . S
C362 Pr360 2.880 . S
C362 C363 1.491 . S
C362 O380 1.254 . S
C362 O381 1.225 . S
C363 C362 1.491 . S
C363 C364 1.392 . S
C363 C368 1.356 . S
C364 C363 1.392 . S
C364 C365 1.368 . S
C364 H392 0.929 . S
C365 C364 1.368 . S
C365 C366 1.386 . S
C365 H393 0.929 . S
C366 C365 1.386 . S
C366 C367 1.373 . S
C367 C366 1.373 . S
C367 C368 1.409 . S
C367 H394 0.931 . S
C368 C363 1.356 . S
C368 C367 1.409 . S
C368 H395 0.930 . S
C369 O382 1.270 . S
C369 O383 1.248 . S
C370 O384 1.267 . S
C370 O385 1.278 . S
C371 Pr361 2.880 . S
C371 C372 1.491 . S
C371 O386 1.254 . S
C371 O387 1.225 . S
C372 C371 1.491 . S
C372 C373 1.392 . S
C372 C377 1.356 . S
C373 C372 1.392 . S
C373 C374 1.368 . S
C373 H396 0.929 . S
C374 C373 1.368 . S
C374 C375 1.386 . S
C374 H397 0.929 . S
C375 C374 1.386 . S
C375 C376 1.373 . S
C376 C375 1.373 . S
C376 C377 1.409 . S
C376 H398 0.931 . S
C377 C372 1.356 . S
C377 C376 1.409 . S
C377 H399 0.930 . S
C378 O388 1.270 . S
C378 O389 1.248 . S
C379 O390 1.267 . S
C379 O391 1.278 . S
O380 Pr360 2.562 . S
O380 C362 1.254 . S
O381 Pr360 2.490 . S
O381 C362 1.225 . S
O382 Pr360 2.695 . S
O382 Pr361 2.436 1_545 S
O382 C369 1.270 . S
O383 Pr360 2.512 . S
O383 C369 1.248 . S
O384 Pr361 2.438 1_545 S
O384 C370 1.267 . S
O385 Pr360 2.437 . S
O385 C370 1.278 . S
O386 Pr361 2.562 . S
O386 C371 1.254 . S
O387 Pr361 2.490 . S
O387 C371 1.225 . S
O388 Pr360 2.436 1_565 S
O388 Pr361 2.695 . S
O388 C378 1.270 . S
O389 Pr361 2.512 . S
O389 C378 1.248 . S
O390 Pr360 2.438 1_565 S
O390 C379 1.267 . S
O391 Pr361 2.437 . S
O391 C379 1.278 . S
H392 C364 0.929 . S
H393 C365 0.929 . S
H394 C367 0.931 . S
H395 C368 0.930 . S
H396 C373 0.929 . S
H397 C374 0.929 . S
H398 C376 0.931 . S
H399 C377 0.930 . S
Pr400 C402 2.880 . S
Pr400 O420 2.562 . S
Pr400 O421 2.490 . S
Pr400 O422 2.695 1_545 S
Pr400 O423 2.512 1_545 S
Pr400 O425 2.437 1_545 S
Pr400 O428 2.436 . S
Pr400 O430 2.438 . S
Pr401 C411 2.880 . S
Pr401 O422 2.436 . S
Pr401 O424 2.438 . S
Pr401 O426 2.562 . S
Pr401 O427 2.490 . S
Pr401 O428 2.695 1_565 S
Pr401 O429 2.512 1_565 S
Pr401 O431 2.437 1_565 S
C402 Pr400 2.880 . S
C402 C403 1.491 . S
C402 O420 1.254 . S
C402 O421 1.225 . S
C403 C402 1.491 . S
C403 C404 1.392 . S
C403 C408 1.356 . S
C404 C403 1.392 . S
C404 C405 1.368 . S
C404 H432 0.929 . S
C405 C404 1.368 . S
C405 C406 1.386 . S
C405 H433 0.929 . S
C406 C405 1.386 . S
C406 C407 1.373 . S
C407 C406 1.373 . S
C407 C408 1.409 . S
C407 H434 0.931 . S
C408 C403 1.356 . S
C408 C407 1.409 . S
C408 H435 0.930 . S
C409 O422 1.270 . S
C409 O423 1.248 . S
C410 O424 1.267 . S
C410 O425 1.278 . S
C411 Pr401 2.880 . S
C411 C412 1.491 . S
C411 O426 1.254 . S
C411 O427 1.225 . S
C412 C411 1.491 . S
C412 C413 1.392 . S
C412 C417 1.356 . S
C413 C412 1.392 . S
C413 C414 1.368 . S
C413 H436 0.929 . S
C414 C413 1.368 . S
C414 C415 1.386 . S
C414 H437 0.929 . S
C415 C414 1.386 . S
C415 C416 1.373 . S
C416 C415 1.373 . S
C416 C417 1.409 . S
C416 H438 0.931 . S
C417 C412 1.356 . S
C417 C416 1.409 . S
C417 H439 0.930 . S
C418 O428 1.270 . S
C418 O429 1.248 . S
C419 O430 1.267 . S
C419 O431 1.278 . S
O420 Pr400 2.562 . S
O420 C402 1.254 . S
O421 Pr400 2.490 . S
O421 C402 1.225 . S
O422 Pr400 2.695 1_565 S
O422 Pr401 2.436 . S
O422 C409 1.270 . S
O423 Pr400 2.512 1_565 S
O423 C409 1.248 . S
O424 Pr401 2.438 . S
O424 C410 1.267 . S
O425 Pr400 2.437 1_565 S
O425 C410 1.278 . S
O426 Pr401 2.562 . S
O426 C411 1.254 . S
O427 Pr401 2.490 . S
O427 C411 1.225 . S
O428 Pr400 2.436 . S
O428 Pr401 2.695 1_545 S
O428 C418 1.270 . S
O429 Pr401 2.512 1_545 S
O429 C418 1.248 . S
O430 Pr400 2.438 . S
O430 C419 1.267 . S
O431 Pr401 2.437 1_545 S
O431 C419 1.278 . S
H432 C404 0.929 . S
H433 C405 0.929 . S
H434 C407 0.931 . S
H435 C408 0.930 . S
H436 C413 0.929 . S
H437 C414 0.929 . S
H438 C416 0.931 . S
H439 C417 0.930 . S
Pr440 C442 2.880 . S
Pr440 O460 2.562 . S
Pr440 O461 2.490 . S
Pr440 O462 2.695 . S
Pr440 O463 2.512 . S
Pr440 O465 2.437 . S
Pr440 O468 2.436 . S
Pr440 O470 2.438 . S
Pr441 C451 2.880 . S
Pr441 O462 2.436 . S
Pr441 O464 2.438 . S
Pr441 O466 2.562 . S
Pr441 O467 2.490 . S
Pr441 O468 2.695 . S
Pr441 O469 2.512 . S
Pr441 O471 2.437 . S
C442 Pr440 2.880 . S
C442 C443 1.491 . S
C442 O460 1.254 . S
C442 O461 1.225 . S
C443 C442 1.491 . S
C443 C444 1.392 . S
C443 C448 1.356 . S
C444 C443 1.392 . S
C444 C445 1.368 . S
C444 H472 0.929 . S
C445 C444 1.368 . S
C445 C446 1.386 . S
C445 H473 0.929 . S
C446 C445 1.386 . S
C446 C447 1.373 . S
C447 C446 1.373 . S
C447 C448 1.409 . S
C447 H474 0.931 . S
C448 C443 1.356 . S
C448 C447 1.409 . S
C448 H475 0.930 . S
C449 O462 1.270 . S
C449 O463 1.248 . S
C450 O464 1.267 . S
C450 O465 1.278 . S
C451 Pr441 2.880 . S
C451 C452 1.491 . S
C451 O466 1.254 . S
C451 O467 1.225 . S
C452 C451 1.491 . S
C452 C453 1.392 . S
C452 C457 1.356 . S
C453 C452 1.392 . S
C453 C454 1.368 . S
C453 H476 0.929 . S
C454 C453 1.368 . S
C454 C455 1.386 . S
C454 H477 0.929 . S
C455 C454 1.386 . S
C455 C456 1.373 . S
C456 C455 1.373 . S
C456 C457 1.409 . S
C456 H478 0.931 . S
C457 C452 1.356 . S
C457 C456 1.409 . S
C457 H479 0.930 . S
C458 O468 1.270 . S
C458 O469 1.248 . S
C459 O470 1.267 . S
C459 O471 1.278 . S
O460 Pr440 2.562 . S
O460 C442 1.254 . S
O461 Pr440 2.490 . S
O461 C442 1.225 . S
O462 Pr440 2.695 . S
O462 Pr441 2.436 . S
O462 C449 1.270 . S
O463 Pr440 2.512 . S
O463 C449 1.248 . S
O464 Pr441 2.438 . S
O464 C450 1.267 . S
O465 Pr440 2.437 . S
O465 C450 1.278 . S
O466 Pr441 2.562 . S
O466 C451 1.254 . S
O467 Pr441 2.490 . S
O467 C451 1.225 . S
O468 Pr440 2.436 . S
O468 Pr441 2.695 . S
O468 C458 1.270 . S
O469 Pr441 2.512 . S
O469 C458 1.248 . S
O470 Pr440 2.438 . S
O470 C459 1.267 . S
O471 Pr441 2.437 . S
O471 C459 1.278 . S
H472 C444 0.929 . S
H473 C445 0.929 . S
H474 C447 0.931 . S
H475 C448 0.930 . S
H476 C453 0.929 . S
H477 C454 0.929 . S
H478 C456 0.931 . S
H479 C457 0.930 . S
C480 C481 1.363 . S
C480 C486 1.379 . S
C480 N488 1.356 . S
C481 C480 1.363 . S
C481 C487 1.363 . S
C482 C483 1.363 . S
C482 C487 1.379 . S
C482 N489 1.356 . S
C483 C482 1.363 . S
C483 C486 1.363 . S
N484 C486 1.356 . S
N484 H496 0.984 . S
N484 H497 0.985 . S
N485 C487 1.356 . S
N485 H490 0.984 . S
N485 H491 0.985 . S
C486 C480 1.379 . S
C486 C483 1.363 . S
C486 N484 1.356 . S
C487 C481 1.363 . S
C487 C482 1.379 . S
C487 N485 1.356 . S
N488 C480 1.356 . S
N488 H494 0.984 . S
N488 H495 0.984 . S
N489 C482 1.356 . S
N489 H492 0.984 . S
N489 H493 0.985 . S
H490 N485 0.984 . S
H491 N485 0.985 . S
H492 N489 0.984 . S
H493 N489 0.985 . S
H494 N488 0.984 . S
H495 N488 0.984 . S
H496 N484 0.984 . S
H497 N484 0.985 . S
C498 C499 1.363 . S
C498 C504 1.379 . S
C498 N506 1.356 . S
C499 C498 1.363 . S
C499 C505 1.363 . S
C500 C501 1.363 . S
C500 C505 1.379 . S
C500 N507 1.356 . S
C501 C500 1.363 . S
C501 C504 1.363 . S
N502 C504 1.356 . S
N502 H514 0.984 . S
N502 H515 0.985 . S
N503 C505 1.356 . S
N503 H508 0.984 . S
N503 H509 0.985 . S
C504 C498 1.379 . S
C504 C501 1.363 . S
C504 N502 1.356 . S
C505 C499 1.363 . S
C505 C500 1.379 . S
C505 N503 1.356 . S
N506 C498 1.356 . S
N506 H512 0.984 . S
N506 H513 0.984 . S
N507 C500 1.356 . S
N507 H510 0.984 . S
N507 H511 0.985 . S
H508 N503 0.984 . S
H509 N503 0.985 . S
H510 N507 0.984 . S
H511 N507 0.985 . S
H512 N506 0.984 . S
H513 N506 0.984 . S
H514 N502 0.984 . S
H515 N502 0.985 . S
C516 C517 1.363 . S
C516 C522 1.379 . S
C516 N524 1.356 . S
C517 C516 1.363 . S
C517 C523 1.363 . S
C518 C519 1.363 . S
C518 C523 1.379 . S
C518 N525 1.356 . S
C519 C518 1.363 . S
C519 C522 1.363 . S
N520 C522 1.356 . S
N520 H532 0.984 . S
N520 H533 0.985 . S
N521 C523 1.356 . S
N521 H526 0.984 . S
N521 H527 0.986 . S
C522 C516 1.379 . S
C522 C519 1.363 . S
C522 N520 1.356 . S
C523 C517 1.363 . S
C523 C518 1.379 . S
C523 N521 1.356 . S
N524 C516 1.356 . S
N524 H530 0.984 . S
N524 H531 0.984 . S
N525 C518 1.356 . S
N525 H528 0.984 . S
N525 H529 0.985 . S
H526 N521 0.984 . S
H527 N521 0.986 . S
H528 N525 0.984 . S
H529 N525 0.985 . S
H530 N524 0.984 . S
H531 N524 0.984 . S
H532 N520 0.984 . S
H533 N520 0.985 . S
C534 C535 1.363 . S
C534 C540 1.379 . S
C534 N542 1.356 . S
C535 C534 1.363 . S
C535 C541 1.363 . S
C536 C537 1.363 . S
C536 C541 1.379 . S
C536 N543 1.356 1_545 S
C537 C536 1.363 . S
C537 C540 1.363 . S
N538 C540 1.356 . S
N538 H550 0.984 . S
N538 H551 0.985 . S
N539 C541 1.356 . S
N539 H544 0.984 . S
N539 H545 0.985 1_545 S
C540 C534 1.379 . S
C540 C537 1.363 . S
C540 N538 1.356 . S
C541 C535 1.363 . S
C541 C536 1.379 . S
C541 N539 1.356 . S
N542 C534 1.356 . S
N542 H548 0.984 . S
N542 H549 0.984 . S
N543 C536 1.356 1_565 S
N543 H546 0.984 . S
N543 H547 0.985 . S
H544 N539 0.984 . S
H545 N539 0.985 1_565 S
H546 N543 0.984 . S
H547 N543 0.985 . S
H548 N542 0.984 . S
H549 N542 0.984 . S
H550 N538 0.984 . S
H551 N538 0.985 . S
C552 C553 1.363 . S
C552 C558 1.379 . S
C552 N560 1.356 . S
C553 C552 1.363 . S
C553 C559 1.363 . S
C554 C555 1.363 . S
C554 C559 1.379 . S
C554 N561 1.356 . S
C555 C554 1.363 . S
C555 C558 1.363 . S
N556 C558 1.356 . S
N556 H568 0.984 . S
N556 H569 0.985 . S
N557 C559 1.356 . S
N557 H562 0.984 . S
N557 H563 0.985 . S
C558 C552 1.379 . S
C558 C555 1.363 . S
C558 N556 1.356 . S
C559 C553 1.363 . S
C559 C554 1.379 . S
C559 N557 1.356 . S
N560 C552 1.356 . S
N560 H566 0.984 . S
N560 H567 0.984 . S
N561 C554 1.356 . S
N561 H564 0.984 . S
N561 H565 0.985 . S
H562 N557 0.984 . S
H563 N557 0.985 . S
H564 N561 0.984 . S
H565 N561 0.985 . S
H566 N560 0.984 . S
H567 N560 0.984 . S
H568 N556 0.984 . S
H569 N556 0.985 . S
C570 C571 1.363 . S
C570 C576 1.379 . S
C570 N578 1.356 . S
C571 C570 1.363 . S
C571 C577 1.363 . S
C572 C573 1.363 . S
C572 C577 1.379 . S
C572 N579 1.356 . S
C573 C572 1.363 . S
C573 C576 1.363 . S
N574 C576 1.356 . S
N574 H586 0.984 . S
N574 H587 0.985 . S
N575 C577 1.356 . S
N575 H580 0.984 . S
N575 H581 0.985 . S
C576 C570 1.379 . S
C576 C573 1.363 . S
C576 N574 1.356 . S
C577 C571 1.363 . S
C577 C572 1.379 . S
C577 N575 1.356 . S
N578 C570 1.356 . S
N578 H584 0.984 . S
N578 H585 0.984 . S
N579 C572 1.356 . S
N579 H582 0.984 . S
N579 H583 0.985 . S
H580 N575 0.984 . S
H581 N575 0.985 . S
H582 N579 0.984 . S
H583 N579 0.985 . S
H584 N578 0.984 . S
H585 N578 0.984 . S
H586 N574 0.984 . S
H587 N574 0.985 . S
C588 C589 1.363 . S
C588 C594 1.379 . S
C588 N596 1.356 . S
C589 C588 1.363 . S
C589 C595 1.363 . S
C590 C591 1.363 . S
C590 C595 1.379 . S
C590 N597 1.356 . S
C591 C590 1.363 . S
C591 C594 1.363 . S
N592 C594 1.356 . S
N592 H604 0.984 . S
N592 H605 0.985 . S
N593 C595 1.356 . S
N593 H598 0.984 . S
N593 H599 0.985 . S
C594 C588 1.379 . S
C594 C591 1.363 . S
C594 N592 1.356 . S
C595 C589 1.363 . S
C595 C590 1.379 . S
C595 N593 1.356 . S
N596 C588 1.356 . S
N596 H602 0.984 . S
N596 H603 0.984 . S
N597 C590 1.356 . S
N597 H600 0.984 . S
N597 H601 0.985 . S
H598 N593 0.984 . S
H599 N593 0.985 . S
H600 N597 0.984 . S
H601 N597 0.985 . S
H602 N596 0.984 . S
H603 N596 0.984 . S
H604 N592 0.984 . S
H605 N592 0.985 . S
C606 C607 1.363 . S
C606 C612 1.379 . S
C606 N614 1.356 . S
C607 C606 1.363 . S
C607 C613 1.363 . S
C608 C609 1.363 . S
C608 C613 1.379 . S
C608 N615 1.356 . S
C609 C608 1.363 . S
C609 C612 1.363 . S
N610 C612 1.356 . S
N610 H622 0.984 . S
N610 H623 0.985 . S
N611 C613 1.356 . S
N611 H616 0.984 . S
N611 H617 0.985 . S
C612 C606 1.379 . S
C612 C609 1.363 . S
C612 N610 1.356 . S
C613 C607 1.363 . S
C613 C608 1.379 . S
C613 N611 1.356 . S
N614 C606 1.356 . S
N614 H620 0.984 . S
N614 H621 0.984 . S
N615 C608 1.356 . S
N615 H618 0.984 . S
N615 H619 0.985 . S
H616 N611 0.984 . S
H617 N611 0.985 . S
H618 N615 0.984 . S
H619 N615 0.985 . S
H620 N614 0.984 . S
H621 N614 0.984 . S
H622 N610 0.984 . S
H623 N610 0.985 . S
C624 C625 1.363 . S
C624 C630 1.379 . S
C624 N632 1.356 . S
C625 C624 1.363 . S
C625 C631 1.363 . S
C626 C627 1.363 . S
C626 C631 1.379 . S
C626 N633 1.356 . S
C627 C626 1.363 . S
C627 C630 1.363 . S
N628 C630 1.356 . S
N628 H640 0.984 . S
N628 H641 0.985 . S
N629 C631 1.356 . S
N629 H634 0.984 . S
N629 H635 0.985 . S
C630 C624 1.379 . S
C630 C627 1.363 . S
C630 N628 1.356 . S
C631 C625 1.363 . S
C631 C626 1.379 . S
C631 N629 1.356 . S
N632 C624 1.356 . S
N632 H638 0.984 . S
N632 H639 0.984 . S
N633 C626 1.356 . S
N633 H636 0.984 . S
N633 H637 0.985 . S
H634 N629 0.984 . S
H635 N629 0.985 . S
H636 N633 0.984 . S
H637 N633 0.985 . S
H638 N632 0.984 . S
H639 N632 0.984 . S
H640 N628 0.984 . S
H641 N628 0.985 . S
C642 C643 1.363 . S
C642 C648 1.379 . S
C642 N650 1.356 . S
C643 C642 1.363 . S
C643 C649 1.363 . S
C644 C645 1.363 . S
C644 C649 1.379 . S
C644 N651 1.356 . S
C645 C644 1.363 . S
C645 C648 1.363 . S
N646 C648 1.356 . S
N646 H658 0.984 . S
N646 H659 0.985 . S
N647 C649 1.356 . S
N647 H652 0.984 . S
N647 H653 0.985 . S
C648 C642 1.379 . S
C648 C645 1.363 . S
C648 N646 1.356 . S
C649 C643 1.363 . S
C649 C644 1.379 . S
C649 N647 1.356 . S
N650 C642 1.356 . S
N650 H656 0.984 . S
N650 H657 0.984 . S
N651 C644 1.356 . S
N651 H654 0.984 . S
N651 H655 0.988 . S
H652 N647 0.984 . S
H653 N647 0.985 . S
H654 N651 0.984 . S
H655 N651 0.988 . S
H656 N650 0.984 . S
H657 N650 0.984 . S
H658 N646 0.984 . S
H659 N646 0.985 . S
C660 C661 1.363 . S
C660 C666 1.379 . S
C660 N668 1.356 1_655 S
C661 C660 1.363 . S
C661 C667 1.363 . S
C662 C663 1.363 . S
C662 C667 1.379 . S
C662 N669 1.356 . S
C663 C662 1.363 . S
C663 C666 1.363 . S
N664 C666 1.356 . S
N664 H676 0.984 . S
N664 H677 0.985 . S
N665 C667 1.356 . S
N665 H670 0.984 . S
N665 H671 0.985 . S
C666 C660 1.379 . S
C666 C663 1.363 . S
C666 N664 1.356 . S
C667 C661 1.363 . S
C667 C662 1.379 . S
C667 N665 1.356 . S
N668 C660 1.356 1_455 S
N668 H674 0.984 . S
N668 H675 0.984 . S
N669 C662 1.356 . S
N669 H672 0.984 . S
N669 H673 0.985 . S
H670 N665 0.984 . S
H671 N665 0.985 . S
H672 N669 0.984 . S
H673 N669 0.985 . S
H674 N668 0.984 . S
H675 N668 0.984 . S
H676 N664 0.984 . S
H677 N664 0.985 . S
C678 C679 1.363 . S
C678 C684 1.379 . S
C678 N686 1.356 . S
C679 C678 1.363 . S
C679 C685 1.363 . S
C680 C681 1.363 . S
C680 C685 1.379 . S
C680 N687 1.356 . S
C681 C680 1.363 . S
C681 C684 1.363 . S
N682 C684 1.356 . S
N682 H694 0.984 . S
N682 H695 0.985 . S
N683 C685 1.356 . S
N683 H688 0.984 . S
N683 H689 0.985 . S
C684 C678 1.379 . S
C684 C681 1.363 . S
C684 N682 1.356 . S
C685 C679 1.363 . S
C685 C680 1.379 . S
C685 N683 1.356 . S
N686 C678 1.356 . S
N686 H692 0.984 . S
N686 H693 0.984 . S
N687 C680 1.356 . S
N687 H690 0.984 . S
N687 H691 0.985 . S
H688 N683 0.984 . S
H689 N683 0.985 . S
H690 N687 0.984 . S
H691 N687 0.985 . S
H692 N686 0.984 . S
H693 N686 0.984 . S
H694 N682 0.984 . S
H695 N682 0.985 . S
C696 C697 1.363 . S
C696 C702 1.379 . S
C696 N704 1.356 . S
C697 C696 1.363 . S
C697 C703 1.363 . S
C698 C699 1.363 . S
C698 C703 1.379 . S
C698 N705 1.356 . S
C699 C698 1.363 . S
C699 C702 1.363 . S
N700 C702 1.356 . S
N700 H712 0.984 . S
N700 H713 0.985 . S
N701 C703 1.356 . S
N701 H706 0.984 . S
N701 H707 0.985 . S
C702 C696 1.379 . S
C702 C699 1.363 . S
C702 N700 1.356 . S
C703 C697 1.363 . S
C703 C698 1.379 . S
C703 N701 1.356 . S
N704 C696 1.356 . S
N704 H710 0.984 . S
N704 H711 0.984 . S
N705 C698 1.356 . S
N705 H708 0.984 . S
N705 H709 0.985 . S
H706 N701 0.984 . S
H707 N701 0.985 . S
H708 N705 0.984 . S
H709 N705 0.985 . S
H710 N704 0.984 . S
H711 N704 0.984 . S
H712 N700 0.984 . S
H713 N700 0.985 . S
C714 C715 1.363 . S
C714 C720 1.379 . S
C714 N722 1.356 . S
C715 C714 1.363 . S
C715 C721 1.363 . S
C716 C717 1.363 . S
C716 C721 1.379 . S
C716 N723 1.356 1_565 S
C717 C716 1.363 . S
C717 C720 1.363 . S
N718 C720 1.356 . S
N718 H730 0.984 . S
N718 H731 0.985 . S
N719 C721 1.356 . S
N719 H724 0.984 . S
N719 H725 0.985 1_565 S
C720 C714 1.379 . S
C720 C717 1.363 . S
C720 N718 1.356 . S
C721 C715 1.363 . S
C721 C716 1.379 . S
C721 N719 1.356 . S
N722 C714 1.356 . S
N722 H728 0.984 . S
N722 H729 0.984 . S
N723 C716 1.356 1_545 S
N723 H726 0.984 . S
N723 H727 0.985 . S
H724 N719 0.984 . S
H725 N719 0.985 1_545 S
H726 N723 0.984 . S
H727 N723 0.985 . S
H728 N722 0.984 . S
H729 N722 0.984 . S
H730 N718 0.984 . S
H731 N718 0.985 . S
C732 C733 1.363 . S
C732 C738 1.379 . S
C732 N740 1.356 . S
C733 C732 1.363 . S
C733 C739 1.363 . S
C734 C735 1.363 . S
C734 C739 1.379 . S
C734 N741 1.356 . S
C735 C734 1.363 . S
C735 C738 1.363 . S
N736 C738 1.356 . S
N736 H748 0.984 . S
N736 H749 0.985 . S
N737 C739 1.356 . S
N737 H742 0.984 . S
N737 H743 0.985 . S
C738 C732 1.379 . S
C738 C735 1.363 . S
C738 N736 1.356 . S
C739 C733 1.363 . S
C739 C734 1.379 . S
C739 N737 1.356 . S
N740 C732 1.356 . S
N740 H746 0.984 . S
N740 H747 0.984 . S
N741 C734 1.356 . S
N741 H744 0.984 . S
N741 H745 0.985 . S
H742 N737 0.984 . S
H743 N737 0.985 . S
H744 N741 0.984 . S
H745 N741 0.985 . S
H746 N740 0.984 . S
H747 N740 0.984 . S
H748 N736 0.984 . S
H749 N736 0.985 . S
C750 C751 1.363 1_556 S
C750 C756 1.376 . S
C750 N758 1.359 1_556 S
C751 C750 1.363 1_554 S
C751 C757 1.363 1_554 S
C752 C753 1.363 . S
C752 C757 1.379 . S
C752 N759 1.356 . S
C753 C752 1.363 . S
C753 C756 1.363 . S
N754 C756 1.356 . S
N754 H766 0.984 1_545 S
N754 H767 0.985 . S
N755 C757 1.356 . S
N755 H760 0.984 1_556 S
N755 H761 0.985 . S
C756 C750 1.376 . S
C756 C753 1.363 . S
C756 N754 1.356 . S
C757 C751 1.363 1_556 S
C757 C752 1.379 . S
C757 N755 1.356 . S
N758 C750 1.359 1_554 S
N758 H764 0.984 . S
N758 H765 0.984 . S
N759 C752 1.356 . S
N759 H762 0.984 . S
N759 H763 0.985 . S
H760 N755 0.984 1_554 S
H761 N755 0.985 . S
H762 N759 0.984 . S
H763 N759 0.985 . S
H764 N758 0.984 . S
H765 N758 0.984 . S
H766 N754 0.984 1_565 S
H767 N754 0.985 . S
C768 C769 1.363 . S
C768 C774 1.379 . S
C768 N776 1.356 . S
C769 C768 1.363 . S
C769 C775 1.363 . S
C770 C771 1.363 . S
C770 C775 1.379 . S
C770 N777 1.356 . S
C771 C770 1.363 . S
C771 C774 1.363 . S
N772 C774 1.356 . S
N772 H784 0.984 . S
N772 H785 0.985 . S
N773 C775 1.356 . S
N773 H778 0.984 . S
N773 H779 0.985 . S
C774 C768 1.379 . S
C774 C771 1.363 . S
C774 N772 1.356 . S
C775 C769 1.363 . S
C775 C770 1.379 . S
C775 N773 1.356 . S
N776 C768 1.356 . S
N776 H782 0.984 . S
N776 H783 0.984 . S
N777 C770 1.356 . S
N777 H780 0.984 . S
N777 H781 0.985 . S
H778 N773 0.984 . S
H779 N773 0.985 . S
H780 N777 0.984 . S
H781 N777 0.985 . S
H782 N776 0.984 . S
H783 N776 0.984 . S
H784 N772 0.984 . S
H785 N772 0.985 . S
C786 C787 1.372 . S
C786 C792 1.379 . S
C786 N794 1.356 . S
C787 C786 1.372 . S
C787 C793 1.366 . S
C788 C789 1.363 . S
C788 C793 1.379 . S
C788 N795 1.356 . S
C789 C788 1.363 . S
C789 C792 1.363 . S
N790 C792 1.356 . S
N790 H802 0.984 . S
N790 H803 0.985 . S
N791 C793 1.356 1_554 S
N791 H796 0.984 . S
N791 H797 0.985 . S
C792 C786 1.379 . S
C792 C789 1.363 . S
C792 N790 1.356 . S
C793 C787 1.366 . S
C793 C788 1.379 . S
C793 N791 1.356 1_556 S
N794 C786 1.356 . S
N794 H800 0.984 . S
N794 H801 0.984 1_556 S
N795 C788 1.356 . S
N795 H798 0.984 . S
N795 H799 0.985 . S
H796 N791 0.984 . S
H797 N791 0.985 . S
H798 N795 0.984 . S
H799 N795 0.985 . S
H800 N794 0.984 . S
H801 N794 0.984 1_554 S
H802 N790 0.984 . S
H803 N790 0.985 . S
C804 C805 1.363 . S
C804 C810 1.379 . S
C804 N812 1.356 . S
C805 C804 1.363 . S
C805 C811 1.363 . S
C806 C807 1.363 . S
C806 C811 1.379 . S
C806 N813 1.356 . S
C807 C806 1.363 . S
C807 C810 1.363 . S
N808 C810 1.356 . S
N808 H820 0.984 . S
N808 H821 0.985 . S
N809 C811 1.356 . S
N809 H814 0.984 . S
N809 H815 0.985 . S
C810 C804 1.379 . S
C810 C807 1.363 . S
C810 N808 1.356 . S
C811 C805 1.363 . S
C811 C806 1.379 . S
C811 N809 1.356 . S
N812 C804 1.356 . S
N812 H818 0.984 1_565 S
N812 H819 0.984 . S
N813 C806 1.356 . S
N813 H816 0.984 . S
N813 H817 0.985 . S
H814 N809 0.984 . S
H815 N809 0.985 . S
H816 N813 0.984 . S
H817 N813 0.985 . S
H818 N812 0.984 1_545 S
H819 N812 0.984 . S
H820 N808 0.984 . S
H821 N808 0.985 . S
C822 C823 1.363 . S
C822 C828 1.379 . S
C822 N830 1.356 . S
C823 C822 1.363 . S
C823 C829 1.363 . S
C824 C825 1.363 . S
C824 C829 1.379 . S
C824 N831 1.356 . S
C825 C824 1.363 . S
C825 C828 1.363 . S
N826 C828 1.356 . S
N826 H838 0.984 . S
N826 H839 0.985 . S
N827 C829 1.356 . S
N827 H832 0.984 . S
N827 H833 0.985 . S
C828 C822 1.379 . S
C828 C825 1.363 . S
C828 N826 1.356 . S
C829 C823 1.363 . S
C829 C824 1.379 . S
C829 N827 1.356 . S
N830 C822 1.356 . S
N830 H836 0.984 . S
N830 H837 0.984 . S
N831 C824 1.356 . S
N831 H834 0.984 . S
N831 H835 0.985 . S
H832 N827 0.984 . S
H833 N827 0.985 . S
H834 N831 0.984 . S
H835 N831 0.985 . S
H836 N830 0.984 . S
H837 N830 0.984 . S
H838 N826 0.984 . S
H839 N826 0.985 . S
C840 C841 1.363 . S
C840 C846 1.379 . S
C840 N848 1.356 . S
C841 C840 1.363 . S
C841 C847 1.363 . S
C842 C843 1.363 . S
C842 C847 1.379 . S
C842 N849 1.356 . S
C843 C842 1.363 . S
C843 C846 1.363 . S
N844 C846 1.356 . S
N844 H856 0.984 . S
N844 H857 0.985 . S
N845 C847 1.356 . S
N845 H850 0.984 . S
N845 H851 0.985 . S
C846 C840 1.379 . S
C846 C843 1.363 . S
C846 N844 1.356 . S
C847 C841 1.363 . S
C847 C842 1.379 . S
C847 N845 1.356 . S
N848 C840 1.356 . S
N848 H854 0.984 . S
N848 H855 0.984 . S
N849 C842 1.356 . S
N849 H852 0.984 . S
N849 H853 0.985 . S
H850 N845 0.984 . S
H851 N845 0.985 . S
H852 N849 0.984 . S
H853 N849 0.985 . S
H854 N848 0.984 . S
H855 N848 0.984 . S
H856 N844 0.984 . S
H857 N844 0.985 . S
C858 C859 1.363 . S
C858 C864 1.379 1_545 S
C858 N866 1.356 . S
C859 C858 1.363 . S
C859 C865 1.380 . S
C860 C861 1.363 . S
C860 C865 1.359 1_565 S
C860 N867 1.356 . S
C861 C860 1.363 . S
C861 C864 1.363 . S
N862 C864 1.356 . S
N862 H874 0.984 . S
N862 H875 0.985 . S
N863 C865 1.366 . S
N863 H868 0.984 . S
N863 H869 0.985 . S
C864 C858 1.379 1_565 S
C864 C861 1.363 . S
C864 N862 1.356 . S
C865 C859 1.380 . S
C865 C860 1.359 1_545 S
C865 N863 1.366 . S
N866 C858 1.356 . S
N866 H872 0.984 . S
N866 H873 0.984 . S
N867 C860 1.356 . S
N867 H870 0.984 . S
N867 H871 0.985 . S
H868 N863 0.984 . S
H869 N863 0.985 . S
H870 N867 0.984 . S
H871 N867 0.985 . S
H872 N866 0.984 . S
H873 N866 0.984 . S
H874 N862 0.984 . S
H875 N862 0.985 . S
C876 C877 1.363 . S
C876 C882 1.379 . S
C876 N884 1.356 . S
C877 C876 1.363 . S
C877 C883 1.363 . S
C878 C879 1.363 . S
C878 C883 1.379 . S
C878 N885 1.356 . S
C879 C878 1.363 . S
C879 C882 1.363 . S
N880 C882 1.356 . S
N880 H892 0.984 . S
N880 H893 0.985 . S
N881 C883 1.356 . S
N881 H886 0.984 . S
N881 H887 0.985 1_556 S
C882 C876 1.379 . S
C882 C879 1.363 . S
C882 N880 1.356 . S
C883 C877 1.363 . S
C883 C878 1.379 . S
C883 N881 1.356 . S
N884 C876 1.356 . S
N884 H890 0.984 . S
N884 H891 0.984 . S
N885 C878 1.356 . S
N885 H888 0.984 . S
N885 H889 0.985 1_556 S
H886 N881 0.984 . S
H887 N881 0.985 1_554 S
H888 N885 0.984 . S
H889 N885 0.985 1_554 S
H890 N884 0.984 . S
H891 N884 0.984 . S
H892 N880 0.984 . S
H893 N880 0.985 . S
C894 C895 1.368 . S
C894 C900 1.371 1_545 S
C894 N902 1.362 . S
C895 C894 1.368 . S
C895 C901 1.363 . S
C896 C897 1.363 . S
C896 C901 1.379 1_565 S
C896 N903 1.356 . S
C897 C896 1.363 . S
C897 C900 1.363 . S
N898 C900 1.356 . S
N898 H910 0.984 . S
N898 H911 0.985 . S
N899 C901 1.356 . S
N899 H904 0.984 . S
N899 H905 0.985 . S
C900 C894 1.371 1_565 S
C900 C897 1.363 . S
C900 N898 1.356 . S
C901 C895 1.363 . S
C901 C896 1.379 1_545 S
C901 N899 1.356 . S
N902 C894 1.362 . S
N902 H908 0.984 . S
N902 H909 0.984 . S
N903 C896 1.356 . S
N903 H906 0.984 . S
N903 H907 0.985 . S
H904 N899 0.984 . S
H905 N899 0.985 . S
H906 N903 0.984 . S
H907 N903 0.985 . S
H908 N902 0.984 . S
H909 N902 0.984 . S
H910 N898 0.984 . S
H911 N898 0.985 . S
C912 C913 1.363 . S
C912 C918 1.379 . S
C912 N920 1.356 . S
C913 C912 1.363 . S
C913 C919 1.363 . S
C914 C915 1.363 . S
C914 C919 1.379 . S
C914 N921 1.356 . S
C915 C914 1.363 . S
C915 C918 1.363 . S
N916 C918 1.356 . S
N916 H928 0.984 . S
N916 H929 0.985 . S
N917 C919 1.356 . S
N917 H922 0.984 . S
N917 H923 0.985 . S
C918 C912 1.379 . S
C918 C915 1.363 . S
C918 N916 1.356 . S
C919 C913 1.363 . S
C919 C914 1.379 . S
C919 N917 1.356 . S
N920 C912 1.356 . S
N920 H926 0.984 . S
N920 H927 0.984 . S
N921 C914 1.356 . S
N921 H924 0.984 . S
N921 H925 0.985 . S
H922 N917 0.984 . S
H923 N917 0.985 . S
H924 N921 0.984 . S
H925 N921 0.985 . S
H926 N920 0.984 . S
H927 N920 0.984 . S
H928 N916 0.984 . S
H929 N916 0.985 . S
C930 C931 1.363 . S
C930 C936 1.379 . S
C930 N938 1.356 . S
C931 C930 1.363 . S
C931 C937 1.363 . S
C932 C933 1.363 . S
C932 C937 1.379 . S
C932 N939 1.356 . S
C933 C932 1.363 . S
C933 C936 1.363 . S
N934 C936 1.356 . S
N934 H946 0.984 . S
N934 H947 0.985 . S
N935 C937 1.356 . S
N935 H940 0.984 . S
N935 H941 0.985 . S
C936 C930 1.379 . S
C936 C933 1.363 . S
C936 N934 1.356 . S
C937 C931 1.363 . S
C937 C932 1.379 . S
C937 N935 1.356 . S
N938 C930 1.356 . S
N938 H944 0.984 . S
N938 H945 0.984 . S
N939 C932 1.356 . S
N939 H942 0.984 . S
N939 H943 0.985 . S
H940 N935 0.984 . S
H941 N935 0.985 . S
H942 N939 0.984 . S
H943 N939 0.985 . S
H944 N938 0.984 . S
H945 N938 0.984 . S
H946 N934 0.984 . S
H947 N934 0.985 . S
C948 C949 1.363 . S
C948 C954 1.379 . S
C948 N956 1.356 . S
C949 C948 1.363 . S
C949 C955 1.363 . S
C950 C951 1.363 . S
C950 C955 1.379 . S
C950 N957 1.356 . S
C951 C950 1.363 . S
C951 C954 1.363 . S
N952 C954 1.356 . S
N952 H964 0.984 . S
N952 H965 0.985 . S
N953 C955 1.356 . S
N953 H958 0.984 . S
N953 H959 0.985 . S
C954 C948 1.379 . S
C954 C951 1.363 . S
C954 N952 1.356 . S
C955 C949 1.363 . S
C955 C950 1.379 . S
C955 N953 1.356 . S
N956 C948 1.356 . S
N956 H962 0.984 . S
N956 H963 0.984 . S
N957 C950 1.356 . S
N957 H960 0.984 . S
N957 H961 0.985 . S
H958 N953 0.984 . S
H959 N953 0.985 . S
H960 N957 0.984 . S
H961 N957 0.985 . S
H962 N956 0.984 . S
H963 N956 0.984 . S
H964 N952 0.984 . S
H965 N952 0.985 . S
C966 C967 1.363 . S
C966 C972 1.379 . S
C966 N974 1.356 . S
C967 C966 1.363 . S
C967 C973 1.363 . S
C968 C969 1.363 . S
C968 C973 1.379 . S
C968 N975 1.356 . S
C969 C968 1.363 . S
C969 C972 1.363 . S
N970 C972 1.356 . S
N970 H982 0.984 . S
N970 H983 0.985 . S
N971 C973 1.356 . S
N971 H976 0.984 . S
N971 H977 0.985 . S
C972 C966 1.379 . S
C972 C969 1.363 . S
C972 N970 1.356 . S
C973 C967 1.363 . S
C973 C968 1.379 . S
C973 N971 1.356 . S
N974 C966 1.356 . S
N974 H980 0.984 . S
N974 H981 0.984 . S
N975 C968 1.356 . S
N975 H978 0.984 . S
N975 H979 0.985 . S
H976 N971 0.984 . S
H977 N971 0.985 . S
H978 N975 0.984 . S
H979 N975 0.985 . S
H980 N974 0.984 . S
H981 N974 0.984 . S
H982 N970 0.984 . S
H983 N970 0.985 . S
C984 C985 1.363 . S
C984 C990 1.379 . S
C984 N992 1.356 . S
C985 C984 1.363 . S
C985 C991 1.363 . S
C986 C987 1.363 . S
C986 C991 1.379 . S
C986 N993 1.356 . S
C987 C986 1.363 . S
C987 C990 1.363 . S
N988 C990 1.356 . S
N988 H1000 0.984 . S
N988 H1001 0.985 . S
N989 C991 1.356 . S
N989 H994 0.984 . S
N989 H995 0.985 . S
C990 C984 1.379 . S
C990 C987 1.363 . S
C990 N988 1.356 . S
C991 C985 1.363 . S
C991 C986 1.379 . S
C991 N989 1.356 . S
N992 C984 1.356 . S
N992 H998 0.984 . S
N992 H999 0.984 . S
N993 C986 1.356 . S
N993 H996 0.984 . S
N993 H997 0.985 . S
H994 N989 0.984 . S
H995 N989 0.985 . S
H996 N993 0.984 . S
H997 N993 0.985 . S
H998 N992 0.984 . S
H999 N992 0.984 . S
H1000 N988 0.984 . S
H1001 N988 0.985 . S
C1002 C1003 1.363 . S
C1002 C1008 1.379 . S
C1002 N1010 1.356 . S
C1003 C1002 1.363 . S
C1003 C1009 1.363 . S
C1004 C1005 1.363 . S
C1004 C1009 1.379 . S
C1004 N1011 1.356 . S
C1005 C1004 1.363 . S
C1005 C1008 1.363 . S
N1006 C1008 1.356 . S
N1006 H1018 0.984 . S
N1006 H1019 0.985 . S
N1007 C1009 1.356 . S
N1007 H1012 0.984 . S
N1007 H1013 0.985 . S
C1008 C1002 1.379 . S
C1008 C1005 1.363 . S
C1008 N1006 1.356 . S
C1009 C1003 1.363 . S
C1009 C1004 1.379 . S
C1009 N1007 1.356 . S
N1010 C1002 1.356 . S
N1010 H1016 0.984 . S
N1010 H1017 0.984 . S
N1011 C1004 1.356 . S
N1011 H1014 0.984 . S
N1011 H1015 0.985 . S
H1012 N1007 0.984 . S
H1013 N1007 0.985 . S
H1014 N1011 0.984 . S
H1015 N1011 0.985 . S
H1016 N1010 0.984 . S
H1017 N1010 0.984 . S
H1018 N1006 0.984 . S
H1019 N1006 0.985 . S
C1020 C1021 1.362 . S
C1020 C1026 1.381 1_455 S
C1020 N1028 1.355 . S
C1021 C1020 1.362 . S
C1021 C1027 1.362 . S
C1022 C1023 1.363 . S
C1022 C1027 1.380 1_655 S
C1022 N1029 1.356 . S
C1023 C1022 1.363 . S
C1023 C1026 1.363 . S
N1024 C1026 1.356 . S
N1024 H1036 0.984 1_554 S
N1024 H1037 0.985 . S
N1025 C1027 1.355 . S
N1025 H1030 0.984 . S
N1025 H1031 0.985 . S
C1026 C1020 1.381 1_655 S
C1026 C1023 1.363 . S
C1026 N1024 1.356 . S
C1027 C1021 1.362 . S
C1027 C1022 1.380 1_455 S
C1027 N1025 1.355 . S
N1028 C1020 1.355 . S
N1028 H1034 0.984 . S
N1028 H1035 0.984 . S
N1029 C1022 1.356 . S
N1029 H1032 0.984 . S
N1029 H1033 0.985 . S
H1030 N1025 0.984 . S
H1031 N1025 0.985 . S
H1032 N1029 0.984 . S
H1033 N1029 0.985 . S
H1034 N1028 0.984 . S
H1035 N1028 0.984 . S
H1036 N1024 0.984 1_556 S
H1037 N1024 0.985 . S
C1038 C1039 1.363 . S
C1038 C1044 1.379 . S
C1038 N1046 1.356 . S
C1039 C1038 1.363 . S
C1039 C1045 1.363 . S
C1040 C1041 1.363 . S
C1040 C1045 1.379 . S
C1040 N1047 1.356 . S
C1041 C1040 1.363 . S
C1041 C1044 1.363 . S
N1042 C1044 1.356 . S
N1042 H1054 0.984 . S
N1042 H1055 0.985 . S
N1043 C1045 1.356 . S
N1043 H1048 0.984 . S
N1043 H1049 0.985 . S
C1044 C1038 1.379 . S
C1044 C1041 1.363 . S
C1044 N1042 1.356 . S
C1045 C1039 1.363 . S
C1045 C1040 1.379 . S
C1045 N1043 1.356 . S
N1046 C1038 1.356 . S
N1046 H1052 0.984 . S
N1046 H1053 0.984 . S
N1047 C1040 1.356 . S
N1047 H1050 0.984 . S
N1047 H1051 0.985 . S
H1048 N1043 0.984 . S
H1049 N1043 0.985 . S
H1050 N1047 0.984 . S
H1051 N1047 0.985 . S
H1052 N1046 0.984 . S
H1053 N1046 0.984 . S
H1054 N1042 0.984 . S
H1055 N1042 0.985 . S
C1056 C1057 1.363 . S
C1056 C1062 1.379 . S
C1056 N1064 1.356 . S
C1057 C1056 1.363 . S
C1057 C1063 1.363 . S
C1058 C1059 1.363 . S
C1058 C1063 1.379 . S
C1058 N1065 1.356 . S
C1059 C1058 1.363 . S
C1059 C1062 1.363 . S
N1060 C1062 1.356 . S
N1060 H1072 0.984 . S
N1060 H1073 0.985 . S
N1061 C1063 1.356 . S
N1061 H1066 0.984 . S
N1061 H1067 0.985 . S
C1062 C1056 1.379 . S
C1062 C1059 1.363 . S
C1062 N1060 1.356 . S
C1063 C1057 1.363 . S
C1063 C1058 1.379 . S
C1063 N1061 1.356 . S
N1064 C1056 1.356 . S
N1064 H1070 0.984 . S
N1064 H1071 0.984 . S
N1065 C1058 1.356 . S
N1065 H1068 0.984 . S
N1065 H1069 0.985 . S
H1066 N1061 0.984 . S
H1067 N1061 0.985 . S
H1068 N1065 0.984 . S
H1069 N1065 0.985 . S
H1070 N1064 0.984 . S
H1071 N1064 0.984 . S
H1072 N1060 0.984 . S
H1073 N1060 0.985 . S
C1074 C1075 1.363 . S
C1074 C1080 1.379 . S
C1074 N1082 1.356 . S
C1075 C1074 1.363 . S
C1075 C1081 1.363 . S
C1076 C1077 1.363 . S
C1076 C1081 1.379 . S
C1076 N1083 1.356 . S
C1077 C1076 1.363 . S
C1077 C1080 1.363 . S
N1078 C1080 1.356 . S
N1078 H1090 0.984 1_455 S
N1078 H1091 0.985 . S
N1079 C1081 1.356 . S
N1079 H1084 0.984 . S
N1079 H1085 0.985 . S
C1080 C1074 1.379 . S
C1080 C1077 1.363 . S
C1080 N1078 1.356 . S
C1081 C1075 1.363 . S
C1081 C1076 1.379 . S
C1081 N1079 1.356 . S
N1082 C1074 1.356 . S
N1082 H1088 0.984 . S
N1082 H1089 0.984 . S
N1083 C1076 1.356 . S
N1083 H1086 0.984 . S
N1083 H1087 0.985 . S
H1084 N1079 0.984 . S
H1085 N1079 0.985 . S
H1086 N1083 0.984 . S
H1087 N1083 0.985 . S
H1088 N1082 0.984 . S
H1089 N1082 0.984 . S
H1090 N1078 0.984 1_655 S
H1091 N1078 0.985 . S
C1092 C1093 1.363 . S
C1092 C1098 1.379 . S
C1092 N1100 1.356 . S
C1093 C1092 1.363 . S
C1093 C1099 1.363 . S
C1094 C1095 1.363 . S
C1094 C1099 1.379 . S
C1094 N1101 1.356 . S
C1095 C1094 1.363 . S
C1095 C1098 1.363 . S
N1096 C1098 1.356 . S
N1096 H1108 0.984 . S
N1096 H1109 0.985 . S
N1097 C1099 1.356 . S
N1097 H1102 0.984 . S
N1097 H1103 0.985 . S
C1098 C1092 1.379 . S
C1098 C1095 1.363 . S
C1098 N1096 1.356 . S
C1099 C1093 1.363 . S
C1099 C1094 1.379 . S
C1099 N1097 1.356 . S
N1100 C1092 1.356 . S
N1100 H1106 0.984 . S
N1100 H1107 0.984 . S
N1101 C1094 1.356 . S
N1101 H1104 0.984 . S
N1101 H1105 0.985 . S
H1102 N1097 0.984 . S
H1103 N1097 0.985 . S
H1104 N1101 0.984 . S
H1105 N1101 0.985 . S
H1106 N1100 0.984 . S
H1107 N1100 0.984 . S
H1108 N1096 0.984 . S
H1109 N1096 0.985 . S
C1110 C1111 1.363 1_455 S
C1110 C1116 1.379 . S
C1110 N1118 1.356 . S
C1111 C1110 1.363 1_655 S
C1111 C1117 1.363 . S
C1112 C1113 1.363 . S
C1112 C1117 1.379 1_455 S
C1112 N1119 1.356 . S
C1113 C1112 1.363 . S
C1113 C1116 1.363 . S
N1114 C1116 1.356 . S
N1114 H1126 0.984 . S
N1114 H1127 0.985 . S
N1115 C1117 1.356 . S
N1115 H1120 0.984 . S
N1115 H1121 0.985 . S
C1116 C1110 1.379 . S
C1116 C1113 1.363 . S
C1116 N1114 1.356 . S
C1117 C1111 1.363 . S
C1117 C1112 1.379 1_655 S
C1117 N1115 1.356 . S
N1118 C1110 1.356 . S
N1118 H1124 0.984 . S
N1118 H1125 0.984 1_455 S
N1119 C1112 1.356 . S
N1119 H1122 0.984 . S
N1119 H1123 0.985 . S
H1120 N1115 0.984 . S
H1121 N1115 0.985 . S
H1122 N1119 0.984 . S
H1123 N1119 0.985 . S
H1124 N1118 0.984 . S
H1125 N1118 0.984 1_655 S
H1126 N1114 0.984 . S
H1127 N1114 0.985 . S
C481 C19 1.457 . S
C483 C459 1.459 . S
C499 C378 2.266 . S
C501 C58 2.275 . S
C517 C98 1.613 . S
C519 C338 1.623 . S
C535 C138 1.858 . S
C537 C419 1.731 . S
C553 C178 2.114 . S
C555 C418 2.109 . S
C571 C219 1.672 . S
C573 C458 1.839 . S
C589 C379 1.868 . S
C591 C258 1.955 . S
C607 C299 1.375 . S
C609 C339 1.392 . S
C625 C139 1.524 . S
C627 C179 1.505 . S
C643 C18 2.078 . S
C645 C218 2.082 . S
C661 C59 1.907 . S
C663 C259 1.925 . S
C679 C298 1.966 . S
C681 C99 1.833 . S
C697 C15 2.134 . S
C699 C329 2.089 . S
C715 C46 1.501 . S
C717 C410 1.471 . S
C733 C450 1.795 . S
C735 C86 1.836 . S
C751 C126 1.694 . S
C753 C369 1.567 . S
C769 C166 1.412 . S
C771 C370 1.386 . S
C787 C330 2.801 1_556 S
C789 C215 2.670 . S
C805 C409 1.293 . S
C807 C246 1.362 . S
C823 C449 1.939 . S
C825 C295 1.998 . S
C841 C9 2.050 . S
C843 C135 2.090 . S
C859 C6 1.556 . S
C861 C50 1.514 . S
C877 C55 2.145 . S
C879 C90 2.261 . S
C895 C130 2.304 . S
C897 C95 2.210 . S
C913 C206 1.738 . S
C915 C170 1.696 . S
C931 C209 1.514 . S
C933 C255 1.579 . S
C949 C250 1.506 . S
C951 C286 1.520 . S
C967 C175 2.241 . S
C969 C289 2.169 . S
C985 C335 2.124 . S
C987 C129 2.088 . S
C1003 C210 1.643 . S
C1005 C366 1.663 . S
C1021 C326 1.330 . S
C1023 C249 1.235 . S
C1039 C415 1.646 . S
C1041 C290 1.737 . S
C1057 C169 1.886 . S
C1059 C455 1.935 . S
C1075 C446 0.884 . S
C1077 C49 0.861 . S
C1093 C89 1.987 . S
C1095 C375 2.047 . S
C1111 C406 1.645 . S
C1113 C10 1.614 . S
