# Generated by pormake.
# Topology sra, (4)-cn, num edge types: 1
# Building blocks:
#     Node 0, Type 0, BuildingBlock: UXUYUI_clean_sbu_0, # of connection points: 4
#     Node 1, Type 0, BuildingBlock: UXUYUI_clean_sbu_0, # of connection points: 4
#     Node 2, Type 0, BuildingBlock: UXUYUI_clean_sbu_0, # of connection points: 4
#     Node 3, Type 0, BuildingBlock: UXUYUI_clean_sbu_0, # of connection points: 4
#     Node 4, Type 0, BuildingBlock: UXUYUI_clean_sbu_0, # of connection points: 4
#     Node 5, Type 0, BuildingBlock: UXUYUI_clean_sbu_0, # of connection points: 4
#     Node 6, Type 0, BuildingBlock: UXUYUI_clean_sbu_0, # of connection points: 4
#     Node 7, Type 0, BuildingBlock: UXUYUI_clean_sbu_0, # of connection points: 4
#     Edge 8, Type (0, 0), None
#     Edge 9, Type (0, 0), None
#     Edge 10, Type (0, 0), None
#     Edge 11, Type (0, 0), None
#     Edge 12, Type (0, 0), None
#     Edge 13, Type (0, 0), None
#     Edge 14, Type (0, 0), None
#     Edge 15, Type (0, 0), None
#     Edge 16, Type (0, 0), None
#     Edge 17, Type (0, 0), None
#     Edge 18, Type (0, 0), None
#     Edge 19, Type (0, 0), None
#     Edge 20, Type (0, 0), None
#     Edge 21, Type (0, 0), None
#     Edge 22, Type (0, 0), None
#     Edge 23, Type (0, 0), None
# Relax obj value: 0.133
# Max RMSD: 0.099
# Mean RMSD: 0.099
data_MOF--net-sra--node1-UXUYUI_clean_sbu_0--edge1-none
_symmetry_space_group_name_H-M    P1
_symmetry_Int_Tables_number       1
_symmetry_cell_setting            triclinic
loop_
_symmetry_equiv_pos_as_xyz
'x, y, z'
_cell_length_a     23.668479
_cell_length_b     39.951162
_cell_length_c     39.259474
_cell_angle_alpha  89.999891
_cell_angle_beta   89.999986
_cell_angle_gamma 89.999996
loop_
_atom_site_label
_atom_site_type_symbol
_atom_site_fract_x
_atom_site_fract_y
_atom_site_fract_z
_atom_type_partial_charge
Li0 Li 0.00803 0.11495 0.15871 0.0
Li1 Li 0.05925 0.0697 0.18777 0.0
Li2 Li 0.00787 0.06002 0.13161 0.0
Li3 Li 0.95447 0.07053 0.18589 0.0
C4 C 0.114 0.10085 0.12101 0.0
N5 N 0.1971 0.12537 0.07834 0.0
C6 C 0.16742 0.10865 0.13395 0.0
C7 C 0.10296 0.1053 0.08632 0.0
C8 C 0.20883 0.12109 0.11198 0.0
C9 C 0.14551 0.11777 0.06518 0.0
C10 C 1.00515 0.10003 0.24227 0.0
C11 C 1.00323 0.06547 0.2926 0.0
N12 N 1.00223 0.09349 0.31228 0.0
C13 C 1.00408 0.12848 0.26296 0.0
C14 C 1.00471 0.06825 0.25715 0.0
C15 C 1.00262 0.12465 0.29832 0.0
C16 C 0.96305 0.17944 0.16446 0.0
N17 N 0.00848 0.16249 0.1521 0.0
C18 C 0.05324 0.2139 0.13632 0.0
C19 C 0.05316 0.17898 0.13817 0.0
C20 C 0.00668 0.23192 0.14865 0.0
C21 C 0.96087 0.2143 0.16252 0.0
H22 H 0.92892 0.16587 0.17645 0.0
H23 H 0.08942 0.16534 0.12916 0.0
C24 C 0.15659 0.03325 0.21338 0.0
N25 N 0.12644 0.06224 0.21357 0.0
C26 C 0.20821 0.03126 0.23089 0.0
C27 C 0.19531 0.08854 0.24905 0.0
C28 C 0.14473 0.08951 0.23102 0.0
C29 C 0.22865 0.05942 0.24862 0.0
H30 H 0.14133 0.012 0.19898 0.0
H31 H 0.12053 0.11244 0.23029 0.0
C32 C 0.9105 0.11314 0.1237 0.0
N33 N 0.8476 0.162 0.0914 0.0
C34 C 0.85819 0.12284 0.13694 0.0
C35 C 0.93046 0.12796 0.09378 0.0
C36 C 0.8271 0.14766 0.12029 0.0
C37 C 0.89816 0.15271 0.07791 0.0
C38 C 0.98276 0.00137 0.17634 0.0
C39 C 0.94374 0.99185 0.15144 0.0
C40 C 0.99677 0.97907 0.20242 0.0
C41 C 0.9191 0.96011 0.15316 0.0
C42 C 0.97109 0.94759 0.20331 0.0
N43 N 0.93314 0.93884 0.17886 0.0
C44 C 0.05666 0.02142 0.07792 0.0
C45 C 0.9629 0.04003 0.06845 0.0
C46 C 0.05818 0.00651 0.04566 0.0
N47 N 0.00947 0.03777 0.08857 0.0
C48 C 0.96246 0.0254 0.03617 0.0
C49 C 0.01055 0.00836 0.02431 0.0
H50 H 0.09326 0.02023 0.09439 0.0
H51 H 0.92604 0.05333 0.07746 0.0
C52 C 0.86779 0.09184 0.22801 0.0
N53 N 0.88588 0.06389 0.21156 0.0
C54 C 0.81767 0.09157 0.24665 0.0
C55 C 0.80429 0.03376 0.23078 0.0
C56 C 0.85539 0.03503 0.21278 0.0
C57 C 0.78444 0.06241 0.24789 0.0
H58 H 0.89201 0.11472 0.22622 0.0
H59 H 0.86984 0.01311 0.19941 0.0
O60 O 0.07309 0.08857 0.14219 0.0
O61 O 1.00644 0.10348 0.2076 0.0
O62 O 0.94188 0.08919 0.13989 0.0
O63 O 0.00816 0.03206 0.17489 0.0
H64 H 0.17676 0.10526 0.1607 0.0
H65 H 0.06211 0.09914 0.07578 0.0
H66 H 0.2503 0.12734 0.12167 0.0
H67 H 0.13753 0.12138 0.0383 0.0
H68 H 1.00286 0.04104 0.30447 0.0
H69 H 1.00434 0.15325 0.25176 0.0
H70 H 1.00543 0.04599 0.24154 0.0
H71 H 1.00178 0.14644 0.31466 0.0
H72 H 0.0894 0.22671 0.12554 0.0
H73 H 0.92464 0.22741 0.17283 0.0
H74 H 0.23257 0.00836 0.22965 0.0
H75 H 0.20838 0.11065 0.2629 0.0
H76 H 0.84181 0.1114 0.15986 0.0
H77 H 0.97067 0.12063 0.08312 0.0
H78 H 0.78668 0.15554 0.13036 0.0
H79 H 0.91331 0.16457 0.05488 0.0
H80 H 0.93186 0.00894 0.13136 0.0
H81 H 0.02724 0.98599 0.22175 0.0
H82 H 0.88863 0.95246 0.13416 0.0
H83 H 0.98144 0.93008 0.22338 0.0
H84 H 0.09596 0.99338 0.0377 0.0
H85 H 0.92509 0.02786 0.02046 0.0
H86 H 0.80523 0.11415 0.25989 0.0
H87 H 0.78006 0.01078 0.23055 0.0
Li88 Li 1.00577 0.44085 0.13161 0.0
Li89 Li 0.05917 0.43034 0.18589 0.0
Li90 Li 1.00561 0.38592 0.15871 0.0
Li91 Li 0.95438 0.43117 0.18777 0.0
C92 C 0.10314 0.38773 0.12369 0.0
N93 N 0.16604 0.33888 0.0914 0.0
C94 C 0.15545 0.37804 0.13694 0.0
C95 C 0.08317 0.37292 0.09378 0.0
C96 C 0.18654 0.35321 0.12029 0.0
C97 C 0.11548 0.34816 0.07791 0.0
C98 C 0.03088 0.4995 0.17634 0.0
C99 C 0.04255 0.55329 0.2033 0.0
N100 N 0.08051 0.56203 0.17885 0.0
C101 C 0.0699 0.50902 0.15144 0.0
C102 C 0.01688 0.52181 0.20242 0.0
C103 C 0.09455 0.54076 0.15316 0.0
C104 C 0.95697 0.47945 0.07793 0.0
N105 N 1.00416 0.4631 0.08857 0.0
C106 C 0.05117 0.47547 0.03617 0.0
C107 C 0.05074 0.46085 0.06845 0.0
C108 C 1.00309 0.49251 0.02431 0.0
C109 C 0.95546 0.49436 0.04567 0.0
H110 H 0.92038 0.48065 0.0944 0.0
H111 H 0.0876 0.44755 0.07746 0.0
C112 C 0.14585 0.40902 0.22801 0.0
N113 N 0.12776 0.43698 0.21156 0.0
C114 C 0.19597 0.4093 0.24665 0.0
C115 C 0.20935 0.46711 0.23078 0.0
C116 C 0.15824 0.46584 0.21278 0.0
C117 C 0.22919 0.43845 0.24789 0.0
H118 H 0.12163 0.38615 0.22622 0.0
H119 H 0.14379 0.48777 0.19941 0.0
C120 C 0.89963 0.40003 0.12101 0.0
N121 N 0.81653 0.37551 0.07834 0.0
C122 C 0.84622 0.39223 0.13395 0.0
C123 C 0.91067 0.39558 0.08632 0.0
C124 C 0.80481 0.37979 0.11198 0.0
C125 C 0.86813 0.3831 0.06518 0.0
C126 C 0.00849 0.40084 0.24227 0.0
C127 C 0.00955 0.3724 0.26296 0.0
C128 C 0.00893 0.43262 0.25715 0.0
C129 C 0.01102 0.37623 0.29832 0.0
C130 C 0.01041 0.4354 0.2926 0.0
N131 N 0.01141 0.40739 0.31228 0.0
C132 C 0.05058 0.32143 0.16445 0.0
C133 C 0.96046 0.32189 0.13817 0.0
C134 C 0.05277 0.28657 0.16251 0.0
N135 N 1.00515 0.33839 0.1521 0.0
C136 C 0.96039 0.28697 0.13633 0.0
C137 C 0.00695 0.26895 0.14865 0.0
H138 H 0.08473 0.335 0.17644 0.0
H139 H 0.92421 0.33554 0.12917 0.0
C140 C 0.85705 0.46763 0.21339 0.0
N141 N 0.8872 0.43863 0.21358 0.0
C142 C 0.80543 0.46962 0.23089 0.0
C143 C 0.81832 0.41234 0.24904 0.0
C144 C 0.86891 0.41136 0.23102 0.0
C145 C 0.78499 0.44146 0.24862 0.0
H146 H 0.87231 0.48887 0.19898 0.0
H147 H 0.89311 0.38843 0.23028 0.0
O148 O 0.07176 0.41169 0.13989 0.0
O149 O 1.00548 0.46881 0.17489 0.0
O150 O 0.94055 0.41231 0.14219 0.0
O151 O 0.00719 0.3974 0.2076 0.0
H152 H 0.17184 0.38948 0.15985 0.0
H153 H 0.04296 0.38024 0.08312 0.0
H154 H 0.22696 0.34534 0.13035 0.0
H155 H 0.10033 0.33631 0.05488 0.0
H156 H 0.03221 0.57079 0.22338 0.0
H157 H 0.08178 0.49192 0.13136 0.0
H158 H 0.9864 0.51488 0.22174 0.0
H159 H 0.12503 0.5484 0.13416 0.0
H160 H 0.08855 0.47301 0.02046 0.0
H161 H 0.91768 0.5075 0.0377 0.0
H162 H 0.20841 0.38671 0.25989 0.0
H163 H 0.23357 0.49009 0.23055 0.0
H164 H 0.83687 0.39562 0.1607 0.0
H165 H 0.95153 0.40174 0.07578 0.0
H166 H 0.76334 0.37355 0.12166 0.0
H167 H 0.87611 0.3795 0.0383 0.0
H168 H 0.0093 0.34763 0.25176 0.0
H169 H 0.0082 0.45489 0.24154 0.0
H170 H 0.01187 0.35443 0.31466 0.0
H171 H 0.01078 0.45984 0.30447 0.0
H172 H 0.089 0.27346 0.17282 0.0
H173 H 0.92422 0.27417 0.12555 0.0
H174 H 0.78107 0.49252 0.22965 0.0
H175 H 0.80525 0.39022 0.26289 0.0
Li176 Li 0.00787 0.94085 0.88266 0.0
Li177 Li 0.95447 0.93034 0.82839 0.0
Li178 Li 0.00803 0.88592 0.85557 0.0
Li179 Li 0.05925 0.93117 0.8265 0.0
C180 C 0.91051 0.88773 0.89058 0.0
N181 N 0.84762 0.83887 0.92288 0.0
C182 C 0.8582 0.87802 0.87734 0.0
C183 C 0.93047 0.87292 0.9205 0.0
C184 C 0.82712 0.8532 0.89398 0.0
C185 C 0.89818 0.84815 0.93637 0.0
C186 C 0.98276 0.9995 0.83794 0.0
C187 C 0.97109 0.05329 0.81097 0.0
N188 N 0.93314 0.06203 0.83542 0.0
C189 C 0.94374 0.00903 0.86284 0.0
C190 C 0.99677 0.02181 0.81185 0.0
C191 C 0.9191 0.04076 0.86112 0.0
C192 C 0.05666 0.97945 0.93635 0.0
N193 N 0.00947 0.9631 0.92571 0.0
C194 C 0.96246 0.97548 0.97811 0.0
C195 C 0.9629 0.96085 0.94583 0.0
C196 C 0.01055 0.99251 0.98997 0.0
C197 C 0.05818 0.99436 0.96861 0.0
H198 H 0.09325 0.98065 0.91988 0.0
H199 H 0.92604 0.94755 0.93682 0.0
C200 C 0.86779 0.90903 0.78627 0.0
N201 N 0.88588 0.93698 0.80272 0.0
C202 C 0.81767 0.9093 0.76763 0.0
C203 C 0.80429 0.96711 0.7835 0.0
C204 C 0.85539 0.96584 0.8015 0.0
C205 C 0.78444 0.93846 0.76639 0.0
H206 H 0.89201 0.88615 0.78805 0.0
H207 H 0.86984 0.98777 0.81487 0.0
C208 C 0.114 0.90003 0.89327 0.0
N209 N 0.1971 0.8755 0.93593 0.0
C210 C 0.16742 0.89222 0.88032 0.0
C211 C 0.10297 0.89558 0.92795 0.0
C212 C 0.20882 0.87977 0.9023 0.0
C213 C 0.14551 0.8831 0.94909 0.0
C214 C 1.00515 0.90084 0.77201 0.0
C215 C 1.00408 0.87239 0.75132 0.0
C216 C 1.00471 0.93262 0.75713 0.0
C217 C 1.00262 0.87623 0.71596 0.0
C218 C 1.00323 0.9354 0.72167 0.0
N219 N 1.00222 0.90738 0.702 0.0
C220 C 0.96306 0.82143 0.84981 0.0
C221 C 0.05315 0.82189 0.87612 0.0
C222 C 0.96088 0.78657 0.85175 0.0
N223 N 0.00848 0.83839 0.86218 0.0
C224 C 0.05323 0.78697 0.87797 0.0
C225 C 0.00668 0.76895 0.86563 0.0
H226 H 0.92893 0.835 0.83781 0.0
H227 H 0.0894 0.83554 0.88514 0.0
C228 C 0.15659 0.96763 0.80089 0.0
N229 N 0.12644 0.93863 0.8007 0.0
C230 C 0.20821 0.96961 0.78338 0.0
C231 C 0.19531 0.91234 0.76523 0.0
C232 C 0.14473 0.91136 0.78326 0.0
C233 C 0.22865 0.94145 0.76566 0.0
H234 H 0.14133 0.98887 0.8153 0.0
H235 H 0.12053 0.88843 0.78399 0.0
O236 O 0.94188 0.91169 0.87439 0.0
O237 O 0.00816 0.96881 0.83939 0.0
O238 O 0.07309 0.91231 0.87209 0.0
O239 O 1.00645 0.8974 0.80668 0.0
H240 H 0.84182 0.88946 0.85442 0.0
H241 H 0.97068 0.88024 0.93116 0.0
H242 H 0.78671 0.84531 0.88392 0.0
H243 H 0.91332 0.8363 0.9594 0.0
H244 H 0.98144 0.07079 0.79089 0.0
H245 H 0.93186 0.99193 0.88292 0.0
H246 H 0.02724 0.01488 0.79253 0.0
H247 H 0.88863 0.04841 0.88012 0.0
H248 H 0.92509 0.97301 0.99382 0.0
H249 H 0.09596 0.0075 0.97658 0.0
H250 H 0.80523 0.88672 0.75438 0.0
H251 H 0.78006 0.99009 0.78373 0.0
H252 H 0.17675 0.89561 0.85358 0.0
H253 H 0.06212 0.90174 0.9385 0.0
H254 H 0.25029 0.87352 0.8926 0.0
H255 H 0.13753 0.8795 0.97598 0.0
H256 H 1.00434 0.84763 0.76252 0.0
H257 H 1.00543 0.95489 0.77274 0.0
H258 H 1.00177 0.85443 0.69962 0.0
H259 H 1.00286 0.95984 0.7098 0.0
H260 H 0.92465 0.77346 0.84143 0.0
H261 H 0.08939 0.77417 0.88875 0.0
H262 H 0.23257 0.99252 0.78463 0.0
H263 H 0.20838 0.89022 0.75138 0.0
Li264 Li 0.95438 0.5697 0.8265 0.0
Li265 Li 1.00561 0.61495 0.85557 0.0
Li266 Li 0.05917 0.57053 0.82839 0.0
Li267 Li 1.00577 0.56002 0.88266 0.0
C268 C 0.00849 0.60003 0.77201 0.0
N269 N 0.01141 0.59348 0.70199 0.0
C270 C 0.00956 0.62848 0.75132 0.0
C271 C 0.00893 0.56825 0.75713 0.0
C272 C 0.01102 0.62464 0.71596 0.0
C273 C 0.01041 0.56547 0.72167 0.0
C274 C 0.89963 0.60084 0.89327 0.0
C275 C 0.86813 0.61777 0.9491 0.0
N276 N 0.81653 0.62536 0.93594 0.0
C277 C 0.84621 0.60864 0.88033 0.0
C278 C 0.91068 0.6053 0.92795 0.0
C279 C 0.8048 0.62108 0.9023 0.0
C280 C 0.85705 0.53324 0.80089 0.0
N281 N 0.8872 0.56224 0.8007 0.0
C282 C 0.81832 0.58853 0.76523 0.0
C283 C 0.86891 0.58951 0.78326 0.0
C284 C 0.78499 0.55942 0.76566 0.0
C285 C 0.80543 0.53126 0.78338 0.0
H286 H 0.87231 0.512 0.8153 0.0
H287 H 0.89311 0.61244 0.78399 0.0
C288 C 0.05059 0.67944 0.84983 0.0
N289 N 1.00515 0.66249 0.86217 0.0
C290 C 0.05277 0.71431 0.85177 0.0
C291 C 0.96038 0.7139 0.87794 0.0
C292 C 0.96046 0.67898 0.87609 0.0
C293 C 0.00695 0.73192 0.86563 0.0
H294 H 0.08474 0.66587 0.83785 0.0
H295 H 0.92419 0.66533 0.88509 0.0
C296 C 0.03088 0.50137 0.83794 0.0
N297 N 0.08051 0.43884 0.83543 0.0
C298 C 0.0699 0.49185 0.86284 0.0
C299 C 0.01687 0.47906 0.81186 0.0
C300 C 0.09455 0.46012 0.86112 0.0
C301 C 0.04255 0.44758 0.81098 0.0
C302 C 0.10314 0.61314 0.89058 0.0
C303 C 0.15546 0.62283 0.87734 0.0
C304 C 0.08318 0.62795 0.92049 0.0
C305 C 0.18656 0.64765 0.89399 0.0
C306 C 0.11549 0.65271 0.93637 0.0
N307 N 0.16606 0.66198 0.92288 0.0
C308 C 0.14585 0.59185 0.78627 0.0
C309 C 0.15824 0.53503 0.80149 0.0
C310 C 0.19597 0.59157 0.76763 0.0
N311 N 0.12776 0.56389 0.80272 0.0
C312 C 0.20935 0.53376 0.78349 0.0
C313 C 0.22919 0.56242 0.76638 0.0
H314 H 0.12163 0.61472 0.78806 0.0
H315 H 0.14379 0.5131 0.81486 0.0
C316 C 0.95697 0.52142 0.93635 0.0
N317 N 1.00416 0.53777 0.92571 0.0
C318 C 0.95546 0.50651 0.96861 0.0
C319 C 0.05117 0.5254 0.97811 0.0
C320 C 0.05074 0.54003 0.94583 0.0
C321 C 1.00309 0.50836 0.98997 0.0
H322 H 0.92038 0.52023 0.91988 0.0
H323 H 0.0876 0.55333 0.93681 0.0
O324 O 0.00719 0.60347 0.80668 0.0
O325 O 0.94055 0.58857 0.87209 0.0
O326 O 1.00548 0.53206 0.83939 0.0
O327 O 0.07176 0.58919 0.87438 0.0
H328 H 0.0093 0.65325 0.76251 0.0
H329 H 0.0082 0.54598 0.77274 0.0
H330 H 0.01187 0.64644 0.69962 0.0
H331 H 0.01078 0.54103 0.7098 0.0
H332 H 0.87612 0.62138 0.97598 0.0
H333 H 0.83687 0.60524 0.85358 0.0
H334 H 0.95154 0.59914 0.93849 0.0
H335 H 0.76333 0.62732 0.89262 0.0
H336 H 0.80525 0.61065 0.75138 0.0
H337 H 0.78107 0.50835 0.78463 0.0
H338 H 0.08901 0.72742 0.84147 0.0
H339 H 0.9242 0.7267 0.8887 0.0
H340 H 0.08178 0.50895 0.88292 0.0
H341 H 0.9864 0.48599 0.79253 0.0
H342 H 0.12503 0.45247 0.88012 0.0
H343 H 0.03221 0.43008 0.7909 0.0
H344 H 0.17184 0.61139 0.85443 0.0
H345 H 0.04297 0.62064 0.93116 0.0
H346 H 0.22698 0.65551 0.88393 0.0
H347 H 0.10035 0.66456 0.9594 0.0
H348 H 0.20841 0.61416 0.75439 0.0
H349 H 0.23357 0.51078 0.78372 0.0
H350 H 0.91768 0.49338 0.97658 0.0
H351 H 0.08855 0.52786 0.99382 0.0
Li352 Li 0.55923 0.5697 0.68777 0.0
Li353 Li 0.50801 0.61495 0.65871 0.0
Li354 Li 0.45445 0.57053 0.68588 0.0
Li355 Li 0.50785 0.56002 0.63161 0.0
C356 C 0.50514 0.60003 0.74226 0.0
N357 N 0.50222 0.59349 0.81228 0.0
C358 C 0.50408 0.62848 0.76295 0.0
C359 C 0.50469 0.56825 0.75715 0.0
C360 C 0.50261 0.62465 0.79831 0.0
C361 C 0.50321 0.56547 0.7926 0.0
C362 C 0.61399 0.60084 0.621 0.0
C363 C 0.6455 0.61776 0.56518 0.0
N364 N 0.69709 0.62536 0.57834 0.0
C365 C 0.6674 0.60865 0.63395 0.0
C366 C 0.60295 0.60529 0.58632 0.0
C367 C 0.70881 0.6211 0.61198 0.0
C368 C 0.65657 0.53324 0.71338 0.0
N369 N 0.62642 0.56224 0.71357 0.0
C370 C 0.6953 0.58854 0.74904 0.0
C371 C 0.64471 0.58952 0.73102 0.0
C372 C 0.72863 0.55942 0.74861 0.0
C373 C 0.70819 0.53126 0.73089 0.0
H374 H 0.6413 0.512 0.69898 0.0
H375 H 0.62051 0.61245 0.73028 0.0
C376 C 0.46306 0.67945 0.66448 0.0
N377 N 0.50847 0.66249 0.6521 0.0
C378 C 0.46088 0.71431 0.66254 0.0
C379 C 0.5532 0.7139 0.63629 0.0
C380 C 0.55313 0.67898 0.63813 0.0
C381 C 0.50667 0.73192 0.64865 0.0
H382 H 0.42894 0.66588 0.67649 0.0
H383 H 0.58936 0.66533 0.6291 0.0
C384 C 0.48274 0.50137 0.67634 0.0
N385 N 0.43312 0.43884 0.67886 0.0
C386 C 0.44372 0.49185 0.65144 0.0
C387 C 0.49674 0.47907 0.70243 0.0
C388 C 0.41908 0.46011 0.65317 0.0
C389 C 0.47107 0.44759 0.70331 0.0
C390 C 0.4105 0.61315 0.6237 0.0
C391 C 0.3582 0.62287 0.63695 0.0
C392 C 0.43046 0.62796 0.59378 0.0
C393 C 0.32713 0.6477 0.62031 0.0
C394 C 0.39817 0.65273 0.57791 0.0
N395 N 0.34763 0.66203 0.59141 0.0
C396 C 0.36777 0.59185 0.72802 0.0
C397 C 0.35537 0.53504 0.71277 0.0
C398 C 0.31765 0.59157 0.74665 0.0
N399 N 0.38586 0.5639 0.71156 0.0
C400 C 0.30427 0.53377 0.73077 0.0
C401 C 0.28442 0.56242 0.74789 0.0
H402 H 0.392 0.61472 0.72623 0.0
H403 H 0.36981 0.51312 0.6994 0.0
C404 C 0.55664 0.52142 0.57793 0.0
N405 N 0.50945 0.53777 0.58857 0.0
C406 C 0.55815 0.50651 0.54566 0.0
C407 C 0.46244 0.5254 0.53617 0.0
C408 C 0.46288 0.54003 0.56845 0.0
C409 C 0.51052 0.50836 0.52431 0.0
H410 H 0.59323 0.52022 0.5944 0.0
H411 H 0.42602 0.55333 0.57746 0.0
O412 O 0.50643 0.60348 0.70759 0.0
O413 O 0.57307 0.58856 0.64219 0.0
O414 O 0.50814 0.53206 0.67489 0.0
O415 O 0.44186 0.58919 0.63989 0.0
H416 H 0.50433 0.65325 0.75176 0.0
H417 H 0.50541 0.54599 0.74154 0.0
H418 H 0.50177 0.64645 0.81465 0.0
H419 H 0.50284 0.54104 0.80447 0.0
H420 H 0.63752 0.62136 0.5383 0.0
H421 H 0.67673 0.60527 0.6607 0.0
H422 H 0.5621 0.59912 0.57578 0.0
H423 H 0.75027 0.62735 0.62167 0.0
H424 H 0.70837 0.61065 0.76289 0.0
H425 H 0.73255 0.50835 0.72965 0.0
H426 H 0.42467 0.72742 0.67288 0.0
H427 H 0.58935 0.7267 0.62549 0.0
H428 H 0.43184 0.50894 0.63136 0.0
H429 H 0.52722 0.486 0.72175 0.0
H430 H 0.38861 0.45246 0.63417 0.0
H431 H 0.48142 0.43009 0.72339 0.0
H432 H 0.34181 0.61144 0.65987 0.0
H433 H 0.47066 0.62063 0.58311 0.0
H434 H 0.28672 0.65559 0.63038 0.0
H435 H 0.41332 0.66458 0.55488 0.0
H436 H 0.30522 0.61416 0.7599 0.0
H437 H 0.28004 0.51079 0.73054 0.0
H438 H 0.59593 0.49338 0.5377 0.0
H439 H 0.42506 0.52786 0.52046 0.0
Li440 Li 0.50579 0.94085 0.63161 0.0
Li441 Li 0.55919 0.93035 0.68589 0.0
Li442 Li 0.50563 0.88592 0.65871 0.0
Li443 Li 0.4544 0.93117 0.68777 0.0
C444 C 0.60318 0.88775 0.6237 0.0
N445 N 0.66613 0.83891 0.5914 0.0
C446 C 0.65551 0.87807 0.63694 0.0
C447 C 0.58323 0.87292 0.59379 0.0
C448 C 0.68662 0.85326 0.62029 0.0
C449 C 0.61556 0.84817 0.57791 0.0
C450 C 0.5309 0.99951 0.67634 0.0
C451 C 0.54257 0.05329 0.7033 0.0
N452 N 0.58053 0.06203 0.67885 0.0
C453 C 0.56992 0.00902 0.65144 0.0
C454 C 0.5169 0.02181 0.70242 0.0
C455 C 0.59457 0.04076 0.65316 0.0
C456 C 0.45699 0.97945 0.57793 0.0
N457 N 0.50418 0.9631 0.58857 0.0
C458 C 0.55119 0.97547 0.53617 0.0
C459 C 0.55076 0.96085 0.56845 0.0
C460 C 0.5031 0.99251 0.52431 0.0
C461 C 0.45548 0.99436 0.54567 0.0
H462 H 0.4204 0.98065 0.5944 0.0
H463 H 0.58761 0.94755 0.57746 0.0
C464 C 0.64586 0.90903 0.72801 0.0
N465 N 0.62778 0.93698 0.71156 0.0
C466 C 0.69599 0.90931 0.74665 0.0
C467 C 0.70937 0.96712 0.73078 0.0
C468 C 0.65827 0.96585 0.71278 0.0
C469 C 0.72921 0.93846 0.74789 0.0
H470 H 0.62164 0.88616 0.72623 0.0
H471 H 0.64382 0.98777 0.69941 0.0
C472 C 0.39966 0.90004 0.621 0.0
N473 N 0.31656 0.87555 0.57831 0.0
C474 C 0.34622 0.89226 0.63393 0.0
C475 C 0.41072 0.89557 0.58632 0.0
C476 C 0.30482 0.87983 0.61195 0.0
C477 C 0.36818 0.88311 0.56517 0.0
C478 C 0.5085 0.90085 0.74227 0.0
C479 C 0.50956 0.8724 0.76296 0.0
C480 C 0.50894 0.93263 0.75715 0.0
C481 C 0.51102 0.87623 0.79832 0.0
C482 C 0.51042 0.93541 0.7926 0.0
N483 N 0.51142 0.90739 0.81228 0.0
C484 C 0.55062 0.82143 0.66442 0.0
C485 C 0.46045 0.82189 0.63821 0.0
C486 C 0.55279 0.78656 0.66248 0.0
N487 N 0.50517 0.83839 0.6521 0.0
C488 C 0.46036 0.78698 0.63636 0.0
C489 C 0.50694 0.76895 0.64865 0.0
H490 H 0.58479 0.83499 0.67639 0.0
H491 H 0.42418 0.83555 0.62923 0.0
C492 C 0.35707 0.96763 0.71339 0.0
N493 N 0.38721 0.93863 0.71357 0.0
C494 C 0.30545 0.96962 0.73089 0.0
C495 C 0.31833 0.91234 0.74904 0.0
C496 C 0.36892 0.91136 0.73101 0.0
C497 C 0.285 0.94145 0.74861 0.0
H498 H 0.37234 0.98888 0.69899 0.0
H499 H 0.39312 0.88843 0.73028 0.0
O500 O 0.57178 0.91169 0.63989 0.0
O501 O 0.5055 0.96882 0.67489 0.0
O502 O 0.44057 0.91231 0.64219 0.0
O503 O 0.50721 0.8974 0.7076 0.0
H504 H 0.67188 0.88951 0.65985 0.0
H505 H 0.54301 0.88022 0.58312 0.0
H506 H 0.72705 0.8454 0.63035 0.0
H507 H 0.60042 0.83631 0.55489 0.0
H508 H 0.53223 0.07079 0.72338 0.0
H509 H 0.5818 0.99193 0.63136 0.0
H510 H 0.48642 0.01489 0.72174 0.0
H511 H 0.62504 0.04841 0.63416 0.0
H512 H 0.58857 0.97301 0.52046 0.0
H513 H 0.4177 0.0075 0.5377 0.0
H514 H 0.70842 0.88672 0.7599 0.0
H515 H 0.7336 0.99009 0.73055 0.0
H516 H 0.33686 0.89567 0.66067 0.0
H517 H 0.45159 0.90171 0.57579 0.0
H518 H 0.26333 0.87361 0.62163 0.0
H519 H 0.37618 0.8795 0.53829 0.0
H520 H 0.50931 0.84763 0.75176 0.0
H521 H 0.50822 0.95489 0.74154 0.0
H522 H 0.51186 0.85443 0.81466 0.0
H523 H 0.5108 0.95984 0.80447 0.0
H524 H 0.58904 0.77345 0.67276 0.0
H525 H 0.42417 0.77418 0.62561 0.0
H526 H 0.28109 0.99252 0.72965 0.0
H527 H 0.30526 0.89022 0.76288 0.0
Li528 Li 0.45445 0.43034 0.32839 0.0
Li529 Li 0.50785 0.44085 0.38267 0.0
Li530 Li 0.55923 0.43117 0.32651 0.0
Li531 Li 0.50801 0.38592 0.35557 0.0
C532 C 0.48274 0.4995 0.33793 0.0
N533 N 0.43312 0.56203 0.33541 0.0
C534 C 0.44372 0.50903 0.36284 0.0
C535 C 0.49674 0.5218 0.31185 0.0
C536 C 0.41908 0.54076 0.36111 0.0
C537 C 0.47107 0.55328 0.31097 0.0
C538 C 0.4105 0.38772 0.39058 0.0
C539 C 0.39819 0.34814 0.43636 0.0
N540 N 0.34764 0.33884 0.42287 0.0
C541 C 0.35821 0.378 0.37733 0.0
C542 C 0.43047 0.37291 0.4205 0.0
C543 C 0.32714 0.35316 0.39397 0.0
C544 C 0.36777 0.40902 0.28626 0.0
N545 N 0.38586 0.43697 0.30272 0.0
C546 C 0.30427 0.46711 0.2835 0.0
C547 C 0.35537 0.46584 0.3015 0.0
C548 C 0.28442 0.43846 0.26639 0.0
C549 C 0.31765 0.4093 0.26762 0.0
H550 H 0.392 0.38615 0.28805 0.0
H551 H 0.36981 0.48776 0.31488 0.0
C552 C 0.55664 0.47946 0.43635 0.0
N553 N 0.50945 0.4631 0.42571 0.0
C554 C 0.55815 0.49437 0.46861 0.0
C555 C 0.46244 0.47548 0.47811 0.0
C556 C 0.46288 0.46085 0.44583 0.0
C557 C 0.51052 0.49251 0.48997 0.0
H558 H 0.59323 0.48065 0.41988 0.0
H559 H 0.42602 0.44755 0.43681 0.0
C560 C 0.50514 0.40084 0.27201 0.0
N561 N 0.50221 0.40738 0.202 0.0
C562 C 0.50407 0.37239 0.25133 0.0
C563 C 0.50469 0.43262 0.25713 0.0
C564 C 0.50261 0.37622 0.21596 0.0
C565 C 0.50321 0.4354 0.22168 0.0
C566 C 0.61399 0.40003 0.39327 0.0
C567 C 0.66739 0.39221 0.38032 0.0
C568 C 0.60296 0.39559 0.42796 0.0
C569 C 0.7088 0.37977 0.40229 0.0
C570 C 0.6455 0.38311 0.4491 0.0
N571 N 0.69709 0.37551 0.43594 0.0
C572 C 0.65657 0.46763 0.30089 0.0
C573 C 0.64471 0.41136 0.28326 0.0
C574 C 0.70819 0.46962 0.28339 0.0
N575 N 0.62642 0.43863 0.3007 0.0
C576 C 0.6953 0.41234 0.26524 0.0
C577 C 0.72863 0.44146 0.26566 0.0
H578 H 0.6413 0.48887 0.31529 0.0
H579 H 0.62051 0.38843 0.284 0.0
C580 C 0.46307 0.32143 0.34979 0.0
N581 N 0.50847 0.33839 0.36218 0.0
C582 C 0.46089 0.28657 0.35173 0.0
C583 C 0.55319 0.28698 0.378 0.0
C584 C 0.55312 0.32189 0.37615 0.0
C585 C 0.50667 0.26895 0.36563 0.0
H586 H 0.42896 0.335 0.33777 0.0
H587 H 0.58935 0.33554 0.38519 0.0
O588 O 0.50813 0.46881 0.33939 0.0
O589 O 0.44185 0.41168 0.37439 0.0
O590 O 0.50643 0.39739 0.30668 0.0
O591 O 0.57307 0.41231 0.37209 0.0
H592 H 0.43184 0.49193 0.38292 0.0
H593 H 0.52722 0.51487 0.29253 0.0
H594 H 0.38861 0.54841 0.38011 0.0
H595 H 0.48142 0.57078 0.29089 0.0
H596 H 0.41334 0.33629 0.4594 0.0
H597 H 0.34182 0.38942 0.35441 0.0
H598 H 0.47066 0.38025 0.43117 0.0
H599 H 0.28674 0.34527 0.3839 0.0
H600 H 0.28003 0.49008 0.28374 0.0
H601 H 0.30522 0.38672 0.25438 0.0
H602 H 0.59593 0.5075 0.47658 0.0
H603 H 0.42506 0.47301 0.49382 0.0
H604 H 0.50433 0.34762 0.26252 0.0
H605 H 0.50541 0.45488 0.27274 0.0
H606 H 0.50177 0.35442 0.19963 0.0
H607 H 0.50284 0.45983 0.20981 0.0
H608 H 0.67673 0.3956 0.35357 0.0
H609 H 0.56211 0.40176 0.4385 0.0
H610 H 0.75027 0.37352 0.3926 0.0
H611 H 0.63753 0.37952 0.47598 0.0
H612 H 0.73255 0.49252 0.28463 0.0
H613 H 0.70837 0.39022 0.25139 0.0
H614 H 0.42468 0.27346 0.34138 0.0
H615 H 0.58934 0.27417 0.38881 0.0
Li616 Li 0.50563 0.11495 0.35557 0.0
Li617 Li 0.4544 0.0697 0.3265 0.0
Li618 Li 0.50579 0.06002 0.38266 0.0
Li619 Li 0.55919 0.07052 0.32839 0.0
C620 C 0.39966 0.10083 0.39328 0.0
N621 N 0.31656 0.12532 0.43597 0.0
C622 C 0.34622 0.1086 0.38035 0.0
C623 C 0.41072 0.1053 0.42796 0.0
C624 C 0.30481 0.12103 0.40233 0.0
C625 C 0.36818 0.11776 0.44911 0.0
C626 C 0.5085 0.10003 0.27201 0.0
C627 C 0.51042 0.06547 0.22167 0.0
N628 N 0.51142 0.09348 0.20199 0.0
C629 C 0.50956 0.12847 0.25132 0.0
C630 C 0.50894 0.06825 0.25712 0.0
C631 C 0.51102 0.12464 0.21596 0.0
C632 C 0.55063 0.17945 0.34986 0.0
N633 N 0.50517 0.16249 0.36217 0.0
C634 C 0.46036 0.21389 0.37791 0.0
C635 C 0.46044 0.17898 0.37606 0.0
C636 C 0.50694 0.23192 0.36563 0.0
C637 C 0.5528 0.21431 0.35181 0.0
H638 H 0.5848 0.16588 0.3379 0.0
H639 H 0.42416 0.16533 0.38503 0.0
C640 C 0.35707 0.03324 0.30089 0.0
N641 N 0.38721 0.06224 0.3007 0.0
C642 C 0.30545 0.03126 0.28338 0.0
C643 C 0.31833 0.08854 0.26524 0.0
C644 C 0.36892 0.08952 0.28326 0.0
C645 C 0.285 0.05942 0.26566 0.0
H646 H 0.37234 0.012 0.31529 0.0
H647 H 0.39312 0.11244 0.284 0.0
C648 C 0.60318 0.11312 0.39058 0.0
N649 N 0.66615 0.16195 0.42288 0.0
C650 C 0.65551 0.1228 0.37734 0.0
C651 C 0.58324 0.12795 0.42049 0.0
C652 C 0.68663 0.14761 0.39398 0.0
C653 C 0.61557 0.1527 0.43636 0.0
C654 C 0.5309 0.00137 0.33794 0.0
C655 C 0.56992 0.99185 0.36284 0.0
C656 C 0.5169 0.97906 0.31186 0.0
C657 C 0.59456 0.96011 0.36112 0.0
C658 C 0.54257 0.94758 0.31098 0.0
N659 N 0.58053 0.93884 0.33543 0.0
C660 C 0.45699 0.02142 0.43635 0.0
C661 C 0.55076 0.04003 0.44583 0.0
C662 C 0.45547 0.00651 0.46861 0.0
N663 N 0.50418 0.03777 0.42571 0.0
C664 C 0.55119 0.0254 0.47811 0.0
C665 C 0.5031 0.00836 0.48997 0.0
H666 H 0.4204 0.02023 0.41988 0.0
H667 H 0.58762 0.05333 0.43681 0.0
C668 C 0.64586 0.09184 0.28626 0.0
N669 N 0.62778 0.06389 0.30272 0.0
C670 C 0.69599 0.09156 0.26763 0.0
C671 C 0.70937 0.03376 0.2835 0.0
C672 C 0.65826 0.03503 0.3015 0.0
C673 C 0.72921 0.06241 0.26638 0.0
H674 H 0.62164 0.11471 0.28805 0.0
H675 H 0.64382 0.0131 0.31487 0.0
O676 O 0.44057 0.08857 0.37208 0.0
O677 O 0.50721 0.10347 0.30668 0.0
O678 O 0.57178 0.08919 0.37438 0.0
O679 O 0.5055 0.03206 0.33939 0.0
H680 H 0.33686 0.1052 0.35361 0.0
H681 H 0.4516 0.09916 0.43849 0.0
H682 H 0.26333 0.12725 0.39266 0.0
H683 H 0.37618 0.12138 0.47599 0.0
H684 H 0.51079 0.04103 0.2098 0.0
H685 H 0.50931 0.15324 0.26251 0.0
H686 H 0.50822 0.04598 0.27274 0.0
H687 H 0.51186 0.14644 0.19962 0.0
H688 H 0.42415 0.2267 0.38865 0.0
H689 H 0.58905 0.22742 0.34153 0.0
H690 H 0.28109 0.00835 0.28462 0.0
H691 H 0.30526 0.11066 0.2514 0.0
H692 H 0.67189 0.11135 0.35442 0.0
H693 H 0.54301 0.12065 0.43115 0.0
H694 H 0.72707 0.15546 0.38393 0.0
H695 H 0.60044 0.16456 0.45939 0.0
H696 H 0.5818 0.00895 0.38292 0.0
H697 H 0.48642 0.98599 0.29253 0.0
H698 H 0.62504 0.95246 0.38012 0.0
H699 H 0.53223 0.93008 0.2909 0.0
H700 H 0.4177 0.99338 0.47658 0.0
H701 H 0.58857 0.02786 0.49382 0.0
H702 H 0.70842 0.11415 0.25438 0.0
H703 H 0.7336 0.01078 0.28373 0.0
loop_
_geom_bond_atom_site_label_1
_geom_bond_atom_site_label_2
_geom_bond_distance
_geom_bond_site_symmetry_2
_ccdc_geom_bond_type
Li0 N17 1.990 . S
Li0 O60 1.956 . S
Li0 O61 1.970 1_455 S
Li0 O62 1.961 1_455 S
Li1 N25 1.990 . S
Li1 O60 1.970 . S
Li1 O61 1.956 1_455 S
Li1 O63 1.961 . S
Li2 N47 1.990 . S
Li2 O60 1.961 1_655 S
Li2 O62 1.956 . S
Li2 O63 1.970 1_655 S
Li3 N53 1.990 . S
Li3 O61 1.961 . S
Li3 O62 1.970 . S
Li3 O63 1.956 1_655 S
C4 C6 1.348 . S
C4 C7 1.356 . S
C4 O60 1.325 . S
N5 C8 1.314 . S
N5 C9 1.279 . S
C6 C4 1.348 . S
C6 C8 1.353 . S
C6 H64 0.929 . S
C7 C4 1.356 . S
C7 C9 1.358 . S
C7 H65 0.930 . S
C8 N5 1.314 . S
C8 C6 1.353 . S
C8 H66 0.930 . S
C9 N5 1.279 . S
C9 C7 1.358 . S
C9 H67 0.930 . S
C10 C13 1.349 . S
C10 C14 1.355 1_455 S
C10 O61 1.325 1_455 S
C11 N12 1.279 1_655 S
C11 C14 1.358 . S
C11 H68 0.930 . S
N12 C11 1.279 1_455 S
N12 C15 1.314 . S
C13 C10 1.349 . S
C13 C15 1.353 . S
C13 H69 0.929 . S
C14 C10 1.355 1_655 S
C14 C11 1.358 . S
C14 H70 0.930 . S
C15 N12 1.314 . S
C15 C13 1.353 . S
C15 H71 0.930 . S
C16 N17 1.314 1_655 S
C16 C21 1.353 . S
C16 H22 0.930 . S
N17 Li0 1.990 . S
N17 C16 1.314 1_455 S
N17 C19 1.279 . S
C18 C19 1.358 . S
C18 C20 1.364 . S
C18 H72 0.930 . S
C19 N17 1.279 . S
C19 C18 1.358 . S
C19 H23 0.930 . S
C20 C18 1.364 . S
C20 C21 1.339 1_455 S
C21 C16 1.353 . S
C21 C20 1.339 1_655 S
C21 H73 0.929 . S
H22 C16 0.930 . S
H23 C19 0.930 . S
C24 N25 1.314 . S
C24 C26 1.353 . S
C24 H30 0.930 . S
N25 Li1 1.990 . S
N25 C24 1.314 . S
N25 C28 1.279 . S
C26 C24 1.353 . S
C26 C29 1.348 . S
C26 H74 0.929 1_545 S
C27 C28 1.358 . S
C27 C29 1.356 . S
C27 H75 0.930 . S
C28 N25 1.279 . S
C28 C27 1.358 . S
C28 H31 0.930 . S
C29 C26 1.348 . S
C29 C27 1.356 . S
H30 C24 0.930 . S
H31 C28 0.930 . S
C32 C34 1.348 . S
C32 C35 1.356 . S
C32 O62 1.325 . S
N33 C36 1.314 . S
N33 C37 1.279 . S
C34 C32 1.348 . S
C34 C36 1.353 . S
C34 H76 0.929 . S
C35 C32 1.356 . S
C35 C37 1.358 . S
C35 H77 0.930 . S
C36 N33 1.314 . S
C36 C34 1.353 . S
C36 H78 0.930 . S
C37 N33 1.279 . S
C37 C35 1.358 . S
C37 H79 0.930 . S
C38 C39 1.344 1_455 S
C38 C40 1.358 . S
C38 O63 1.325 1_565 S
C39 C38 1.344 1_655 S
C39 C41 1.353 . S
C39 H80 0.929 . S
C40 C38 1.358 . S
C40 C42 1.358 . S
C40 H81 0.930 . S
C41 C39 1.353 . S
C41 N43 1.314 . S
C41 H82 0.930 . S
C42 C40 1.358 . S
C42 N43 1.279 1_455 S
C42 H83 0.930 . S
N43 C41 1.314 . S
N43 C42 1.279 1_655 S
C44 C46 1.353 1_545 S
C44 N47 1.314 1_455 S
C44 H50 0.930 . S
C45 N47 1.279 . S
C45 C48 1.358 . S
C45 H51 0.930 . S
C46 C44 1.353 1_565 S
C46 C49 1.352 . S
C46 H84 0.929 . S
N47 Li2 1.990 . S
N47 C44 1.314 1_655 S
N47 C45 1.279 . S
C48 C45 1.358 . S
C48 C49 1.352 1_645 S
C48 H85 0.930 . S
C49 C46 1.352 . S
C49 C48 1.352 1_465 S
H50 C44 0.930 . S
H51 C45 0.930 . S
C52 N53 1.314 . S
C52 C54 1.353 . S
C52 H58 0.930 . S
N53 Li3 1.990 . S
N53 C52 1.314 . S
N53 C56 1.279 . S
C54 C52 1.353 . S
C54 C57 1.348 . S
C54 H86 0.929 . S
C55 C56 1.358 . S
C55 C57 1.356 . S
C55 H87 0.930 1_545 S
C56 N53 1.279 . S
C56 C55 1.358 . S
C56 H59 0.904 1_545 S
C57 C54 1.348 . S
C57 C55 1.356 . S
H58 C52 0.930 . S
H59 C56 0.904 1_565 S
O60 Li0 1.956 . S
O60 Li1 1.970 . S
O60 Li2 1.961 1_455 S
O60 C4 1.325 . S
O61 Li0 1.970 1_655 S
O61 Li1 1.956 1_655 S
O61 Li3 1.961 . S
O61 C10 1.325 1_655 S
O62 Li0 1.961 1_655 S
O62 Li2 1.956 . S
O62 Li3 1.970 . S
O62 C32 1.325 . S
O63 Li1 1.961 . S
O63 Li2 1.970 1_455 S
O63 Li3 1.956 1_455 S
O63 C38 1.325 1_545 S
H64 C6 0.929 . S
H65 C7 0.930 . S
H66 C8 0.930 . S
H67 C9 0.930 . S
H68 C11 0.930 . S
H69 C13 0.929 . S
H70 C14 0.930 . S
H71 C15 0.930 . S
H72 C18 0.930 . S
H73 C21 0.929 . S
H74 C26 0.929 1_565 S
H75 C27 0.930 . S
H76 C34 0.929 . S
H77 C35 0.930 . S
H78 C36 0.930 . S
H79 C37 0.930 . S
H80 C39 0.929 . S
H81 C40 0.930 . S
H82 C41 0.930 . S
H83 C42 0.930 . S
H84 C46 0.929 . S
H85 C48 0.930 . S
H86 C54 0.929 . S
H87 C55 0.930 1_565 S
Li88 N105 1.990 . S
Li88 O148 1.956 . S
Li88 O149 1.970 1_455 S
Li88 O150 1.961 1_455 S
Li89 N113 1.990 . S
Li89 O148 1.970 . S
Li89 O149 1.956 1_455 S
Li89 O151 1.961 . S
Li90 N135 1.990 . S
Li90 O148 1.961 1_655 S
Li90 O150 1.956 . S
Li90 O151 1.970 1_655 S
Li91 N141 1.990 . S
Li91 O149 1.961 . S
Li91 O150 1.970 . S
Li91 O151 1.956 1_655 S
C92 C94 1.348 . S
C92 C95 1.356 . S
C92 O148 1.325 . S
N93 C96 1.314 . S
N93 C97 1.279 . S
C94 C92 1.348 . S
C94 C96 1.353 . S
C94 H152 0.929 . S
C95 C92 1.356 . S
C95 C97 1.358 . S
C95 H153 0.930 . S
C96 N93 1.314 . S
C96 C94 1.353 . S
C96 H154 0.930 . S
C97 N93 1.279 . S
C97 C95 1.358 . S
C97 H155 0.930 . S
C98 C101 1.348 1_655 S
C98 C102 1.356 . S
C98 O149 1.325 . S
C99 N100 1.279 1_655 S
C99 C102 1.358 . S
C99 H156 0.930 . S
N100 C99 1.279 1_455 S
N100 C103 1.314 . S
C101 C98 1.348 1_455 S
C101 C103 1.353 . S
C101 H157 0.929 . S
C102 C98 1.356 . S
C102 C99 1.358 . S
C102 H158 0.930 . S
C103 N100 1.314 . S
C103 C101 1.353 . S
C103 H159 0.930 . S
C104 N105 1.314 1_655 S
C104 C109 1.353 . S
C104 H110 0.930 . S
N105 Li88 1.990 . S
N105 C104 1.314 1_455 S
N105 C107 1.279 . S
C106 C107 1.358 . S
C106 C108 1.359 . S
C106 H160 0.930 . S
C107 N105 1.279 . S
C107 C106 1.358 . S
C107 H111 0.930 . S
C108 C106 1.359 . S
C108 C109 1.345 1_455 S
C109 C104 1.353 . S
C109 C108 1.345 1_655 S
C109 H161 0.929 . S
H110 C104 0.930 . S
H111 C107 0.930 . S
C112 N113 1.314 . S
C112 C114 1.353 . S
C112 H118 0.930 . S
N113 Li89 1.990 . S
N113 C112 1.314 . S
N113 C116 1.279 . S
C114 C112 1.353 . S
C114 C117 1.348 . S
C114 H162 0.929 . S
C115 C116 1.358 . S
C115 C117 1.356 . S
C115 H163 0.930 . S
C116 N113 1.279 . S
C116 C115 1.358 . S
C116 H119 0.930 . S
C117 C114 1.348 . S
C117 C115 1.356 . S
H118 C112 0.930 . S
H119 C116 0.930 . S
C120 C122 1.348 . S
C120 C123 1.356 . S
C120 O150 1.325 . S
N121 C124 1.314 . S
N121 C125 1.279 . S
C122 C120 1.348 . S
C122 C124 1.353 . S
C122 H164 0.929 . S
C123 C120 1.356 . S
C123 C125 1.358 . S
C123 H165 0.930 . S
C124 N121 1.314 . S
C124 C122 1.353 . S
C124 H166 0.930 . S
C125 N121 1.279 . S
C125 C123 1.358 . S
C125 H167 0.930 . S
C126 C127 1.346 1_455 S
C126 C128 1.357 . S
C126 O151 1.325 . S
C127 C126 1.346 1_655 S
C127 C129 1.353 . S
C127 H168 0.929 . S
C128 C126 1.357 . S
C128 C130 1.358 . S
C128 H169 0.930 . S
C129 C127 1.353 . S
C129 N131 1.314 . S
C129 H170 0.930 . S
C130 C128 1.358 . S
C130 N131 1.279 1_455 S
C130 H171 0.930 . S
N131 C129 1.314 . S
N131 C130 1.279 1_655 S
C132 C134 1.353 . S
C132 N135 1.314 1_455 S
C132 H138 0.930 . S
C133 N135 1.279 . S
C133 C136 1.358 . S
C133 H139 0.930 . S
C134 C132 1.353 . S
C134 C137 1.347 . S
C134 H172 0.929 . S
N135 Li90 1.990 . S
N135 C132 1.314 1_655 S
N135 C133 1.279 . S
C136 C133 1.358 . S
C136 C137 1.357 1_655 S
C136 H173 0.930 . S
C137 C134 1.347 . S
C137 C136 1.357 1_455 S
H138 C132 0.930 . S
H139 C133 0.930 . S
C140 N141 1.314 . S
C140 C142 1.353 . S
C140 H146 0.930 . S
N141 Li91 1.990 . S
N141 C140 1.314 . S
N141 C144 1.279 . S
C142 C140 1.353 . S
C142 C145 1.348 . S
C142 H174 0.929 . S
C143 C144 1.358 . S
C143 C145 1.356 . S
C143 H175 0.930 . S
C144 N141 1.279 . S
C144 C143 1.358 . S
C144 H147 0.930 . S
C145 C142 1.348 . S
C145 C143 1.356 . S
H146 C140 0.930 . S
H147 C144 0.930 . S
O148 Li88 1.956 . S
O148 Li89 1.970 . S
O148 Li90 1.961 1_455 S
O148 C92 1.325 . S
O149 Li88 1.970 1_655 S
O149 Li89 1.956 1_655 S
O149 Li91 1.961 . S
O149 C98 1.325 . S
O150 Li88 1.961 1_655 S
O150 Li90 1.956 . S
O150 Li91 1.970 . S
O150 C120 1.325 . S
O151 Li89 1.961 . S
O151 Li90 1.970 1_455 S
O151 Li91 1.956 1_455 S
O151 C126 1.325 . S
H152 C94 0.929 . S
H153 C95 0.930 . S
H154 C96 0.930 . S
H155 C97 0.930 . S
H156 C99 0.930 . S
H157 C101 0.929 . S
H158 C102 0.930 . S
H159 C103 0.930 . S
H160 C106 0.930 . S
H161 C109 0.929 . S
H162 C114 0.929 . S
H163 C115 0.930 . S
H164 C122 0.929 . S
H165 C123 0.930 . S
H166 C124 0.930 . S
H167 C125 0.930 . S
H168 C127 0.929 . S
H169 C128 0.930 . S
H170 C129 0.930 . S
H171 C130 0.930 . S
H172 C134 0.929 . S
H173 C136 0.930 . S
H174 C142 0.929 . S
H175 C143 0.930 . S
Li176 N193 1.990 . S
Li176 O236 1.956 . S
Li176 O237 1.970 1_655 S
Li176 O238 1.961 1_655 S
Li177 N201 1.990 . S
Li177 O236 1.970 . S
Li177 O237 1.956 1_655 S
Li177 O239 1.961 . S
Li178 N223 1.990 . S
Li178 O236 1.961 1_455 S
Li178 O238 1.956 . S
Li178 O239 1.970 1_455 S
Li179 N229 1.990 . S
Li179 O237 1.961 . S
Li179 O238 1.970 . S
Li179 O239 1.956 1_455 S
C180 C182 1.348 . S
C180 C183 1.356 . S
C180 O236 1.325 . S
N181 C184 1.314 . S
N181 C185 1.279 . S
C182 C180 1.348 . S
C182 C184 1.353 . S
C182 H240 0.929 . S
C183 C180 1.356 . S
C183 C185 1.358 . S
C183 H241 0.930 . S
C184 N181 1.314 . S
C184 C182 1.353 . S
C184 H242 0.930 . S
C185 N181 1.279 . S
C185 C183 1.358 . S
C185 H243 0.930 . S
C186 C189 1.344 1_455 S
C186 C190 1.358 . S
C186 O237 1.325 1_545 S
C187 N188 1.279 1_455 S
C187 C190 1.358 . S
C187 H244 0.930 . S
N188 C187 1.279 1_655 S
N188 C191 1.314 . S
C189 C186 1.344 1_655 S
C189 C191 1.353 . S
C189 H245 0.929 . S
C190 C186 1.358 . S
C190 C187 1.358 . S
C190 H246 0.930 . S
C191 N188 1.314 . S
C191 C189 1.353 . S
C191 H247 0.930 . S
C192 N193 1.314 1_455 S
C192 C197 1.353 1_565 S
C192 H198 0.930 . S
N193 Li176 1.990 . S
N193 C192 1.314 1_655 S
N193 C195 1.279 . S
C194 C195 1.358 . S
C194 C196 1.352 1_665 S
C194 H248 0.930 . S
C195 N193 1.279 . S
C195 C194 1.358 . S
C195 H199 0.930 . S
C196 C194 1.352 1_445 S
C196 C197 1.352 . S
C197 C192 1.353 1_545 S
C197 C196 1.352 . S
C197 H249 0.929 . S
H198 C192 0.930 . S
H199 C195 0.930 . S
C200 N201 1.314 . S
C200 C202 1.353 . S
C200 H206 0.930 . S
N201 Li177 1.990 . S
N201 C200 1.314 . S
N201 C204 1.279 . S
C202 C200 1.353 . S
C202 C205 1.348 . S
C202 H250 0.929 . S
C203 C204 1.358 . S
C203 C205 1.356 . S
C203 H251 0.930 1_565 S
C204 N201 1.279 . S
C204 C203 1.358 . S
C204 H207 0.904 1_565 S
C205 C202 1.348 . S
C205 C203 1.356 . S
H206 C200 0.930 . S
H207 C204 0.904 1_545 S
C208 C210 1.348 . S
C208 C211 1.356 . S
C208 O238 1.325 . S
N209 C212 1.314 . S
N209 C213 1.279 . S
C210 C208 1.348 . S
C210 C212 1.353 . S
C210 H252 0.929 . S
C211 C208 1.356 . S
C211 C213 1.358 . S
C211 H253 0.930 . S
C212 N209 1.314 . S
C212 C210 1.353 . S
C212 H254 0.930 . S
C213 N209 1.279 . S
C213 C211 1.358 . S
C213 H255 0.930 . S
C214 C215 1.349 . S
C214 C216 1.355 1_455 S
C214 O239 1.325 1_455 S
C215 C214 1.349 . S
C215 C217 1.353 . S
C215 H256 0.929 . S
C216 C214 1.355 1_655 S
C216 C218 1.358 . S
C216 H257 0.930 . S
C217 C215 1.353 . S
C217 N219 1.314 . S
C217 H258 0.930 . S
C218 C216 1.358 . S
C218 N219 1.279 1_655 S
C218 H259 0.930 . S
N219 C217 1.314 . S
N219 C218 1.279 1_455 S
C220 C222 1.353 . S
C220 N223 1.314 1_655 S
C220 H226 0.930 . S
C221 N223 1.279 . S
C221 C224 1.358 . S
C221 H227 0.930 . S
C222 C220 1.353 . S
C222 C225 1.339 1_655 S
C222 H260 0.929 . S
N223 Li178 1.990 . S
N223 C220 1.314 1_455 S
N223 C221 1.279 . S
C224 C221 1.358 . S
C224 C225 1.364 . S
C224 H261 0.930 . S
C225 C222 1.339 1_455 S
C225 C224 1.364 . S
H226 C220 0.930 . S
H227 C221 0.930 . S
C228 N229 1.314 . S
C228 C230 1.353 . S
C228 H234 0.930 . S
N229 Li179 1.990 . S
N229 C228 1.314 . S
N229 C232 1.279 . S
C230 C228 1.353 . S
C230 C233 1.348 . S
C230 H262 0.929 1_565 S
C231 C232 1.358 . S
C231 C233 1.356 . S
C231 H263 0.930 . S
C232 N229 1.279 . S
C232 C231 1.358 . S
C232 H235 0.930 . S
C233 C230 1.348 . S
C233 C231 1.356 . S
H234 C228 0.930 . S
H235 C232 0.930 . S
O236 Li176 1.956 . S
O236 Li177 1.970 . S
O236 Li178 1.961 1_655 S
O236 C180 1.325 . S
O237 Li176 1.970 1_455 S
O237 Li177 1.956 1_455 S
O237 Li179 1.961 . S
O237 C186 1.325 1_565 S
O238 Li176 1.961 1_455 S
O238 Li178 1.956 . S
O238 Li179 1.970 . S
O238 C208 1.325 . S
O239 Li177 1.961 . S
O239 Li178 1.970 1_655 S
O239 Li179 1.956 1_655 S
O239 C214 1.325 1_655 S
H240 C182 0.929 . S
H241 C183 0.930 . S
H242 C184 0.930 . S
H243 C185 0.930 . S
H244 C187 0.930 . S
H245 C189 0.929 . S
H246 C190 0.930 . S
H247 C191 0.930 . S
H248 C194 0.930 . S
H249 C197 0.929 . S
H250 C202 0.929 . S
H251 C203 0.930 1_545 S
H252 C210 0.929 . S
H253 C211 0.930 . S
H254 C212 0.930 . S
H255 C213 0.930 . S
H256 C215 0.929 . S
H257 C216 0.930 . S
H258 C217 0.930 . S
H259 C218 0.930 . S
H260 C222 0.929 . S
H261 C224 0.930 . S
H262 C230 0.929 1_545 S
H263 C231 0.930 . S
Li264 N281 1.990 . S
Li264 O324 1.956 1_655 S
Li264 O325 1.970 . S
Li264 O326 1.961 . S
Li265 N289 1.990 . S
Li265 O324 1.970 1_655 S
Li265 O325 1.956 . S
Li265 O327 1.961 1_655 S
Li266 N311 1.990 . S
Li266 O324 1.961 . S
Li266 O326 1.956 1_455 S
Li266 O327 1.970 . S
Li267 N317 1.990 . S
Li267 O325 1.961 1_455 S
Li267 O326 1.970 1_455 S
Li267 O327 1.956 . S
C268 C270 1.346 1_455 S
C268 C271 1.357 . S
C268 O324 1.325 . S
N269 C272 1.314 . S
N269 C273 1.279 1_655 S
C270 C268 1.346 1_655 S
C270 C272 1.353 . S
C270 H328 0.929 . S
C271 C268 1.357 . S
C271 C273 1.358 . S
C271 H329 0.930 . S
C272 N269 1.314 . S
C272 C270 1.353 . S
C272 H330 0.930 . S
C273 N269 1.279 1_455 S
C273 C271 1.358 . S
C273 H331 0.930 . S
C274 C277 1.348 . S
C274 C278 1.356 . S
C274 O325 1.325 . S
C275 N276 1.279 . S
C275 C278 1.358 . S
C275 H332 0.930 . S
N276 C275 1.279 . S
N276 C279 1.314 . S
C277 C274 1.348 . S
C277 C279 1.353 . S
C277 H333 0.929 . S
C278 C274 1.356 . S
C278 C275 1.358 . S
C278 H334 0.930 . S
C279 N276 1.314 . S
C279 C277 1.353 . S
C279 H335 0.930 . S
C280 N281 1.314 . S
C280 C285 1.353 . S
C280 H286 0.930 . S
N281 Li264 1.990 . S
N281 C280 1.314 . S
N281 C283 1.279 . S
C282 C283 1.358 . S
C282 C284 1.356 . S
C282 H336 0.930 . S
C283 N281 1.279 . S
C283 C282 1.358 . S
C283 H287 0.930 . S
C284 C282 1.356 . S
C284 C285 1.348 . S
C285 C280 1.353 . S
C285 C284 1.348 . S
C285 H337 0.929 . S
H286 C280 0.930 . S
H287 C283 0.930 . S
C288 N289 1.314 1_455 S
C288 C290 1.353 . S
C288 H294 0.930 . S
N289 Li265 1.990 . S
N289 C288 1.314 1_655 S
N289 C292 1.279 . S
C290 C288 1.353 . S
C290 C293 1.347 . S
C290 H338 0.929 . S
C291 C292 1.358 . S
C291 C293 1.357 1_655 S
C291 H339 0.930 . S
C292 N289 1.279 . S
C292 C291 1.358 . S
C292 H295 0.930 . S
C293 C290 1.347 . S
C293 C291 1.357 1_455 S
H294 C288 0.930 . S
H295 C292 0.930 . S
C296 C298 1.348 1_655 S
C296 C299 1.356 . S
C296 O326 1.325 . S
N297 C300 1.314 . S
N297 C301 1.279 1_455 S
C298 C296 1.348 1_455 S
C298 C300 1.353 . S
C298 H340 0.929 . S
C299 C296 1.356 . S
C299 C301 1.358 . S
C299 H341 0.930 . S
C300 N297 1.314 . S
C300 C298 1.353 . S
C300 H342 0.930 . S
C301 N297 1.279 1_655 S
C301 C299 1.358 . S
C301 H343 0.930 . S
C302 C303 1.348 . S
C302 C304 1.356 . S
C302 O327 1.325 . S
C303 C302 1.348 . S
C303 C305 1.353 . S
C303 H344 0.929 . S
C304 C302 1.356 . S
C304 C306 1.358 . S
C304 H345 0.930 . S
C305 C303 1.353 . S
C305 N307 1.314 . S
C305 H346 0.930 . S
C306 C304 1.358 . S
C306 N307 1.279 . S
C306 H347 0.930 . S
N307 C305 1.314 . S
N307 C306 1.279 . S
C308 C310 1.353 . S
C308 N311 1.314 . S
C308 H314 0.930 . S
C309 N311 1.279 . S
C309 C312 1.358 . S
C309 H315 0.930 . S
C310 C308 1.353 . S
C310 C313 1.348 . S
C310 H348 0.929 . S
N311 Li266 1.990 . S
N311 C308 1.314 . S
N311 C309 1.279 . S
C312 C309 1.358 . S
C312 C313 1.356 . S
C312 H349 0.930 . S
C313 C310 1.348 . S
C313 C312 1.356 . S
H314 C308 0.930 . S
H315 C309 0.930 . S
C316 N317 1.314 1_655 S
C316 C318 1.353 . S
C316 H322 0.930 . S
N317 Li267 1.990 . S
N317 C316 1.314 1_455 S
N317 C320 1.279 . S
C318 C316 1.353 . S
C318 C321 1.345 1_655 S
C318 H350 0.929 . S
C319 C320 1.358 . S
C319 C321 1.359 . S
C319 H351 0.930 . S
C320 N317 1.279 . S
C320 C319 1.358 . S
C320 H323 0.930 . S
C321 C318 1.345 1_455 S
C321 C319 1.359 . S
H322 C316 0.930 . S
H323 C320 0.930 . S
O324 Li264 1.956 1_455 S
O324 Li265 1.970 1_455 S
O324 Li266 1.961 . S
O324 C268 1.325 . S
O325 Li264 1.970 . S
O325 Li265 1.956 . S
O325 Li267 1.961 1_655 S
O325 C274 1.325 . S
O326 Li264 1.961 . S
O326 Li266 1.956 1_655 S
O326 Li267 1.970 1_655 S
O326 C296 1.325 . S
O327 Li265 1.961 1_455 S
O327 Li266 1.970 . S
O327 Li267 1.956 . S
O327 C302 1.325 . S
H328 C270 0.929 . S
H329 C271 0.930 . S
H330 C272 0.930 . S
H331 C273 0.930 . S
H332 C275 0.930 . S
H333 C277 0.929 . S
H334 C278 0.930 . S
H335 C279 0.930 . S
H336 C282 0.930 . S
H337 C285 0.929 . S
H338 C290 0.929 . S
H339 C291 0.930 . S
H340 C298 0.929 . S
H341 C299 0.930 . S
H342 C300 0.930 . S
H343 C301 0.930 . S
H344 C303 0.929 . S
H345 C304 0.930 . S
H346 C305 0.930 . S
H347 C306 0.930 . S
H348 C310 0.929 . S
H349 C312 0.930 . S
H350 C318 0.929 . S
H351 C319 0.930 . S
Li352 N369 1.990 . S
Li352 O412 1.956 . S
Li352 O413 1.970 . S
Li352 O414 1.961 . S
Li353 N377 1.990 . S
Li353 O412 1.970 . S
Li353 O413 1.956 . S
Li353 O415 1.961 . S
Li354 N399 1.990 . S
Li354 O412 1.961 . S
Li354 O414 1.956 . S
Li354 O415 1.970 . S
Li355 N405 1.990 . S
Li355 O413 1.961 . S
Li355 O414 1.970 . S
Li355 O415 1.956 . S
C356 C358 1.348 . S
C356 C359 1.356 . S
C356 O412 1.325 . S
N357 C360 1.314 . S
N357 C361 1.279 . S
C358 C356 1.348 . S
C358 C360 1.353 . S
C358 H416 0.929 . S
C359 C356 1.356 . S
C359 C361 1.358 . S
C359 H417 0.930 . S
C360 N357 1.314 . S
C360 C358 1.353 . S
C360 H418 0.930 . S
C361 N357 1.279 . S
C361 C359 1.358 . S
C361 H419 0.930 . S
C362 C365 1.348 . S
C362 C366 1.356 . S
C362 O413 1.325 . S
C363 N364 1.279 . S
C363 C366 1.358 . S
C363 H420 0.930 . S
N364 C363 1.279 . S
N364 C367 1.314 . S
C365 C362 1.348 . S
C365 C367 1.353 . S
C365 H421 0.929 . S
C366 C362 1.356 . S
C366 C363 1.358 . S
C366 H422 0.930 . S
C367 N364 1.314 . S
C367 C365 1.353 . S
C367 H423 0.930 . S
C368 N369 1.314 . S
C368 C373 1.353 . S
C368 H374 0.930 . S
N369 Li352 1.990 . S
N369 C368 1.314 . S
N369 C371 1.279 . S
C370 C371 1.358 . S
C370 C372 1.356 . S
C370 H424 0.930 . S
C371 N369 1.279 . S
C371 C370 1.358 . S
C371 H375 0.930 . S
C372 C370 1.356 . S
C372 C373 1.348 . S
C373 C368 1.353 . S
C373 C372 1.348 . S
C373 H425 0.929 . S
H374 C368 0.930 . S
H375 C371 0.930 . S
C376 N377 1.314 . S
C376 C378 1.353 . S
C376 H382 0.930 . S
N377 Li353 1.990 . S
N377 C376 1.314 . S
N377 C380 1.279 . S
C378 C376 1.353 . S
C378 C381 1.348 . S
C378 H426 0.929 . S
C379 C380 1.358 . S
C379 C381 1.356 . S
C379 H427 0.930 . S
C380 N377 1.279 . S
C380 C379 1.358 . S
C380 H383 0.930 . S
C381 C378 1.348 . S
C381 C379 1.356 . S
H382 C376 0.930 . S
H383 C380 0.930 . S
C384 C386 1.348 . S
C384 C387 1.356 . S
C384 O414 1.325 . S
N385 C388 1.314 . S
N385 C389 1.279 . S
C386 C384 1.348 . S
C386 C388 1.353 . S
C386 H428 0.929 . S
C387 C384 1.356 . S
C387 C389 1.358 . S
C387 H429 0.930 . S
C388 N385 1.314 . S
C388 C386 1.353 . S
C388 H430 0.930 . S
C389 N385 1.279 . S
C389 C387 1.358 . S
C389 H431 0.930 . S
C390 C391 1.348 . S
C390 C392 1.356 . S
C390 O415 1.325 . S
C391 C390 1.348 . S
C391 C393 1.353 . S
C391 H432 0.929 . S
C392 C390 1.356 . S
C392 C394 1.358 . S
C392 H433 0.930 . S
C393 C391 1.353 . S
C393 N395 1.314 . S
C393 H434 0.930 . S
C394 C392 1.358 . S
C394 N395 1.279 . S
C394 H435 0.930 . S
N395 C393 1.314 . S
N395 C394 1.279 . S
C396 C398 1.353 . S
C396 N399 1.314 . S
C396 H402 0.930 . S
C397 N399 1.279 . S
C397 C400 1.358 . S
C397 H403 0.930 . S
C398 C396 1.353 . S
C398 C401 1.348 . S
C398 H436 0.929 . S
N399 Li354 1.990 . S
N399 C396 1.314 . S
N399 C397 1.279 . S
C400 C397 1.358 . S
C400 C401 1.356 . S
C400 H437 0.930 . S
C401 C398 1.348 . S
C401 C400 1.356 . S
H402 C396 0.930 . S
H403 C397 0.930 . S
C404 N405 1.314 . S
C404 C406 1.353 . S
C404 H410 0.930 . S
N405 Li355 1.990 . S
N405 C404 1.314 . S
N405 C408 1.279 . S
C406 C404 1.353 . S
C406 C409 1.348 . S
C406 H438 0.929 . S
C407 C408 1.358 . S
C407 C409 1.356 . S
C407 H439 0.930 . S
C408 N405 1.279 . S
C408 C407 1.358 . S
C408 H411 0.930 . S
C409 C406 1.348 . S
C409 C407 1.356 . S
H410 C404 0.930 . S
H411 C408 0.930 . S
O412 Li352 1.956 . S
O412 Li353 1.970 . S
O412 Li354 1.961 . S
O412 C356 1.325 . S
O413 Li352 1.970 . S
O413 Li353 1.956 . S
O413 Li355 1.961 . S
O413 C362 1.325 . S
O414 Li352 1.961 . S
O414 Li354 1.956 . S
O414 Li355 1.970 . S
O414 C384 1.325 . S
O415 Li353 1.961 . S
O415 Li354 1.970 . S
O415 Li355 1.956 . S
O415 C390 1.325 . S
H416 C358 0.929 . S
H417 C359 0.930 . S
H418 C360 0.930 . S
H419 C361 0.930 . S
H420 C363 0.930 . S
H421 C365 0.929 . S
H422 C366 0.930 . S
H423 C367 0.930 . S
H424 C370 0.930 . S
H425 C373 0.929 . S
H426 C378 0.929 . S
H427 C379 0.930 . S
H428 C386 0.929 . S
H429 C387 0.930 . S
H430 C388 0.930 . S
H431 C389 0.930 . S
H432 C391 0.929 . S
H433 C392 0.930 . S
H434 C393 0.930 . S
H435 C394 0.930 . S
H436 C398 0.929 . S
H437 C400 0.930 . S
H438 C406 0.929 . S
H439 C407 0.930 . S
Li440 N457 1.990 . S
Li440 O500 1.956 . S
Li440 O501 1.970 . S
Li440 O502 1.961 . S
Li441 N465 1.990 . S
Li441 O500 1.970 . S
Li441 O501 1.956 . S
Li441 O503 1.961 . S
Li442 N487 1.990 . S
Li442 O500 1.961 . S
Li442 O502 1.956 . S
Li442 O503 1.970 . S
Li443 N493 1.990 . S
Li443 O501 1.961 . S
Li443 O502 1.970 . S
Li443 O503 1.956 . S
C444 C446 1.348 . S
C444 C447 1.356 . S
C444 O500 1.325 . S
N445 C448 1.314 . S
N445 C449 1.279 . S
C446 C444 1.348 . S
C446 C448 1.353 . S
C446 H504 0.929 . S
C447 C444 1.356 . S
C447 C449 1.358 . S
C447 H505 0.930 . S
C448 N445 1.314 . S
C448 C446 1.353 . S
C448 H506 0.930 . S
C449 N445 1.279 . S
C449 C447 1.358 . S
C449 H507 0.930 . S
C450 C453 1.348 . S
C450 C454 1.356 . S
C450 O501 1.325 1_545 S
C451 N452 1.279 . S
C451 C454 1.358 . S
C451 H508 0.930 . S
N452 C451 1.279 . S
N452 C455 1.314 . S
C453 C450 1.348 . S
C453 C455 1.353 . S
C453 H509 0.929 . S
C454 C450 1.356 . S
C454 C451 1.358 . S
C454 H510 0.930 . S
C455 N452 1.314 . S
C455 C453 1.353 . S
C455 H511 0.930 . S
C456 N457 1.314 . S
C456 C461 1.353 1_565 S
C456 H462 0.930 . S
N457 Li440 1.990 . S
N457 C456 1.314 . S
N457 C459 1.279 . S
C458 C459 1.358 . S
C458 C460 1.356 1_565 S
C458 H512 0.930 . S
C459 N457 1.279 . S
C459 C458 1.358 . S
C459 H463 0.930 . S
C460 C458 1.356 1_545 S
C460 C461 1.348 . S
C461 C456 1.353 1_545 S
C461 C460 1.348 . S
C461 H513 0.929 . S
H462 C456 0.930 . S
H463 C459 0.930 . S
C464 N465 1.314 . S
C464 C466 1.353 . S
C464 H470 0.930 . S
N465 Li441 1.990 . S
N465 C464 1.314 . S
N465 C468 1.279 . S
C466 C464 1.353 . S
C466 C469 1.348 . S
C466 H514 0.929 . S
C467 C468 1.358 . S
C467 C469 1.356 . S
C467 H515 0.930 1_565 S
C468 N465 1.279 . S
C468 C467 1.358 . S
C468 H471 0.904 1_565 S
C469 C466 1.348 . S
C469 C467 1.356 . S
H470 C464 0.930 . S
H471 C468 0.904 1_545 S
C472 C474 1.348 . S
C472 C475 1.356 . S
C472 O502 1.325 . S
N473 C476 1.314 . S
N473 C477 1.279 . S
C474 C472 1.348 . S
C474 C476 1.353 . S
C474 H516 0.929 . S
C475 C472 1.356 . S
C475 C477 1.358 . S
C475 H517 0.930 . S
C476 N473 1.314 . S
C476 C474 1.353 . S
C476 H518 0.930 . S
C477 N473 1.279 . S
C477 C475 1.358 . S
C477 H519 0.930 . S
C478 C479 1.348 . S
C478 C480 1.356 . S
C478 O503 1.325 . S
C479 C478 1.348 . S
C479 C481 1.353 . S
C479 H520 0.929 . S
C480 C478 1.356 . S
C480 C482 1.358 . S
C480 H521 0.930 . S
C481 C479 1.353 . S
C481 N483 1.314 . S
C481 H522 0.930 . S
C482 C480 1.358 . S
C482 N483 1.279 . S
C482 H523 0.930 . S
N483 C481 1.314 . S
N483 C482 1.279 . S
C484 C486 1.353 . S
C484 N487 1.314 . S
C484 H490 0.930 . S
C485 N487 1.279 . S
C485 C488 1.358 . S
C485 H491 0.930 . S
C486 C484 1.353 . S
C486 C489 1.348 . S
C486 H524 0.929 . S
N487 Li442 1.990 . S
N487 C484 1.314 . S
N487 C485 1.279 . S
C488 C485 1.358 . S
C488 C489 1.356 . S
C488 H525 0.930 . S
C489 C486 1.348 . S
C489 C488 1.356 . S
H490 C484 0.930 . S
H491 C485 0.930 . S
C492 N493 1.314 . S
C492 C494 1.353 . S
C492 H498 0.930 . S
N493 Li443 1.990 . S
N493 C492 1.314 . S
N493 C496 1.279 . S
C494 C492 1.353 . S
C494 C497 1.348 . S
C494 H526 0.929 1_565 S
C495 C496 1.358 . S
C495 C497 1.356 . S
C495 H527 0.930 . S
C496 N493 1.279 . S
C496 C495 1.358 . S
C496 H499 0.930 . S
C497 C494 1.348 . S
C497 C495 1.356 . S
H498 C492 0.930 . S
H499 C496 0.930 . S
O500 Li440 1.956 . S
O500 Li441 1.970 . S
O500 Li442 1.961 . S
O500 C444 1.325 . S
O501 Li440 1.970 . S
O501 Li441 1.956 . S
O501 Li443 1.961 . S
O501 C450 1.325 1_565 S
O502 Li440 1.961 . S
O502 Li442 1.956 . S
O502 Li443 1.970 . S
O502 C472 1.325 . S
O503 Li441 1.961 . S
O503 Li442 1.970 . S
O503 Li443 1.956 . S
O503 C478 1.325 . S
H504 C446 0.929 . S
H505 C447 0.930 . S
H506 C448 0.930 . S
H507 C449 0.930 . S
H508 C451 0.930 . S
H509 C453 0.929 . S
H510 C454 0.930 . S
H511 C455 0.930 . S
H512 C458 0.930 . S
H513 C461 0.929 . S
H514 C466 0.929 . S
H515 C467 0.930 1_545 S
H516 C474 0.929 . S
H517 C475 0.930 . S
H518 C476 0.930 . S
H519 C477 0.930 . S
H520 C479 0.929 . S
H521 C480 0.930 . S
H522 C481 0.930 . S
H523 C482 0.930 . S
H524 C486 0.929 . S
H525 C488 0.930 . S
H526 C494 0.929 1_545 S
H527 C495 0.930 . S
Li528 N545 1.990 . S
Li528 O588 1.956 . S
Li528 O589 1.970 . S
Li528 O590 1.961 . S
Li529 N553 1.990 . S
Li529 O588 1.970 . S
Li529 O589 1.956 . S
Li529 O591 1.961 . S
Li530 N575 1.990 . S
Li530 O588 1.961 . S
Li530 O590 1.956 . S
Li530 O591 1.970 . S
Li531 N581 1.990 . S
Li531 O589 1.961 . S
Li531 O590 1.970 . S
Li531 O591 1.956 . S
C532 C534 1.348 . S
C532 C535 1.356 . S
C532 O588 1.325 . S
N533 C536 1.314 . S
N533 C537 1.279 . S
C534 C532 1.348 . S
C534 C536 1.353 . S
C534 H592 0.929 . S
C535 C532 1.356 . S
C535 C537 1.358 . S
C535 H593 0.930 . S
C536 N533 1.314 . S
C536 C534 1.353 . S
C536 H594 0.930 . S
C537 N533 1.279 . S
C537 C535 1.358 . S
C537 H595 0.930 . S
C538 C541 1.348 . S
C538 C542 1.356 . S
C538 O589 1.325 . S
C539 N540 1.279 . S
C539 C542 1.358 . S
C539 H596 0.930 . S
N540 C539 1.279 . S
N540 C543 1.314 . S
C541 C538 1.348 . S
C541 C543 1.353 . S
C541 H597 0.929 . S
C542 C538 1.356 . S
C542 C539 1.358 . S
C542 H598 0.930 . S
C543 N540 1.314 . S
C543 C541 1.353 . S
C543 H599 0.930 . S
C544 N545 1.314 . S
C544 C549 1.353 . S
C544 H550 0.930 . S
N545 Li528 1.990 . S
N545 C544 1.314 . S
N545 C547 1.279 . S
C546 C547 1.358 . S
C546 C548 1.356 . S
C546 H600 0.930 . S
C547 N545 1.279 . S
C547 C546 1.358 . S
C547 H551 0.930 . S
C548 C546 1.356 . S
C548 C549 1.348 . S
C549 C544 1.353 . S
C549 C548 1.348 . S
C549 H601 0.929 . S
H550 C544 0.930 . S
H551 C547 0.930 . S
C552 N553 1.314 . S
C552 C554 1.353 . S
C552 H558 0.930 . S
N553 Li529 1.990 . S
N553 C552 1.314 . S
N553 C556 1.279 . S
C554 C552 1.353 . S
C554 C557 1.348 . S
C554 H602 0.929 . S
C555 C556 1.358 . S
C555 C557 1.356 . S
C555 H603 0.930 . S
C556 N553 1.279 . S
C556 C555 1.358 . S
C556 H559 0.930 . S
C557 C554 1.348 . S
C557 C555 1.356 . S
H558 C552 0.930 . S
H559 C556 0.930 . S
C560 C562 1.348 . S
C560 C563 1.356 . S
C560 O590 1.325 . S
N561 C564 1.314 . S
N561 C565 1.279 . S
C562 C560 1.348 . S
C562 C564 1.353 . S
C562 H604 0.929 . S
C563 C560 1.356 . S
C563 C565 1.358 . S
C563 H605 0.930 . S
C564 N561 1.314 . S
C564 C562 1.353 . S
C564 H606 0.930 . S
C565 N561 1.279 . S
C565 C563 1.358 . S
C565 H607 0.930 . S
C566 C567 1.348 . S
C566 C568 1.356 . S
C566 O591 1.325 . S
C567 C566 1.348 . S
C567 C569 1.353 . S
C567 H608 0.929 . S
C568 C566 1.356 . S
C568 C570 1.358 . S
C568 H609 0.930 . S
C569 C567 1.353 . S
C569 N571 1.314 . S
C569 H610 0.930 . S
C570 C568 1.358 . S
C570 N571 1.279 . S
C570 H611 0.930 . S
N571 C569 1.314 . S
N571 C570 1.279 . S
C572 C574 1.353 . S
C572 N575 1.314 . S
C572 H578 0.930 . S
C573 N575 1.279 . S
C573 C576 1.358 . S
C573 H579 0.930 . S
C574 C572 1.353 . S
C574 C577 1.348 . S
C574 H612 0.929 . S
N575 Li530 1.990 . S
N575 C572 1.314 . S
N575 C573 1.279 . S
C576 C573 1.358 . S
C576 C577 1.356 . S
C576 H613 0.930 . S
C577 C574 1.348 . S
C577 C576 1.356 . S
H578 C572 0.930 . S
H579 C573 0.930 . S
C580 N581 1.314 . S
C580 C582 1.353 . S
C580 H586 0.930 . S
N581 Li531 1.990 . S
N581 C580 1.314 . S
N581 C584 1.279 . S
C582 C580 1.353 . S
C582 C585 1.348 . S
C582 H614 0.929 . S
C583 C584 1.358 . S
C583 C585 1.356 . S
C583 H615 0.930 . S
C584 N581 1.279 . S
C584 C583 1.358 . S
C584 H587 0.930 . S
C585 C582 1.348 . S
C585 C583 1.356 . S
H586 C580 0.930 . S
H587 C584 0.930 . S
O588 Li528 1.956 . S
O588 Li529 1.970 . S
O588 Li530 1.961 . S
O588 C532 1.325 . S
O589 Li528 1.970 . S
O589 Li529 1.956 . S
O589 Li531 1.961 . S
O589 C538 1.325 . S
O590 Li528 1.961 . S
O590 Li530 1.956 . S
O590 Li531 1.970 . S
O590 C560 1.325 . S
O591 Li529 1.961 . S
O591 Li530 1.970 . S
O591 Li531 1.956 . S
O591 C566 1.325 . S
H592 C534 0.929 . S
H593 C535 0.930 . S
H594 C536 0.930 . S
H595 C537 0.930 . S
H596 C539 0.930 . S
H597 C541 0.929 . S
H598 C542 0.930 . S
H599 C543 0.930 . S
H600 C546 0.930 . S
H601 C549 0.929 . S
H602 C554 0.929 . S
H603 C555 0.930 . S
H604 C562 0.929 . S
H605 C563 0.930 . S
H606 C564 0.930 . S
H607 C565 0.930 . S
H608 C567 0.929 . S
H609 C568 0.930 . S
H610 C569 0.930 . S
H611 C570 0.930 . S
H612 C574 0.929 . S
H613 C576 0.930 . S
H614 C582 0.929 . S
H615 C583 0.930 . S
Li616 N633 1.990 . S
Li616 O676 1.956 . S
Li616 O677 1.970 . S
Li616 O678 1.961 . S
Li617 N641 1.990 . S
Li617 O676 1.970 . S
Li617 O677 1.956 . S
Li617 O679 1.961 . S
Li618 N663 1.990 . S
Li618 O676 1.961 . S
Li618 O678 1.956 . S
Li618 O679 1.970 . S
Li619 N669 1.990 . S
Li619 O677 1.961 . S
Li619 O678 1.970 . S
Li619 O679 1.956 . S
C620 C622 1.348 . S
C620 C623 1.356 . S
C620 O676 1.325 . S
N621 C624 1.314 . S
N621 C625 1.279 . S
C622 C620 1.348 . S
C622 C624 1.353 . S
C622 H680 0.929 . S
C623 C620 1.356 . S
C623 C625 1.358 . S
C623 H681 0.930 . S
C624 N621 1.314 . S
C624 C622 1.353 . S
C624 H682 0.930 . S
C625 N621 1.279 . S
C625 C623 1.358 . S
C625 H683 0.930 . S
C626 C629 1.348 . S
C626 C630 1.356 . S
C626 O677 1.325 . S
C627 N628 1.279 . S
C627 C630 1.358 . S
C627 H684 0.930 . S
N628 C627 1.279 . S
N628 C631 1.314 . S
C629 C626 1.348 . S
C629 C631 1.353 . S
C629 H685 0.929 . S
C630 C626 1.356 . S
C630 C627 1.358 . S
C630 H686 0.930 . S
C631 N628 1.314 . S
C631 C629 1.353 . S
C631 H687 0.930 . S
C632 N633 1.314 . S
C632 C637 1.353 . S
C632 H638 0.930 . S
N633 Li616 1.990 . S
N633 C632 1.314 . S
N633 C635 1.279 . S
C634 C635 1.358 . S
C634 C636 1.356 . S
C634 H688 0.930 . S
C635 N633 1.279 . S
C635 C634 1.358 . S
C635 H639 0.930 . S
C636 C634 1.356 . S
C636 C637 1.348 . S
C637 C632 1.353 . S
C637 C636 1.348 . S
C637 H689 0.929 . S
H638 C632 0.930 . S
H639 C635 0.930 . S
C640 N641 1.314 . S
C640 C642 1.353 . S
C640 H646 0.930 . S
N641 Li617 1.990 . S
N641 C640 1.314 . S
N641 C644 1.279 . S
C642 C640 1.353 . S
C642 C645 1.348 . S
C642 H690 0.929 1_545 S
C643 C644 1.358 . S
C643 C645 1.356 . S
C643 H691 0.930 . S
C644 N641 1.279 . S
C644 C643 1.358 . S
C644 H647 0.930 . S
C645 C642 1.348 . S
C645 C643 1.356 . S
H646 C640 0.930 . S
H647 C644 0.930 . S
C648 C650 1.348 . S
C648 C651 1.356 . S
C648 O678 1.325 . S
N649 C652 1.314 . S
N649 C653 1.279 . S
C650 C648 1.348 . S
C650 C652 1.353 . S
C650 H692 0.929 . S
C651 C648 1.356 . S
C651 C653 1.358 . S
C651 H693 0.930 . S
C652 N649 1.314 . S
C652 C650 1.353 . S
C652 H694 0.930 . S
C653 N649 1.279 . S
C653 C651 1.358 . S
C653 H695 0.930 . S
C654 C655 1.348 . S
C654 C656 1.356 . S
C654 O679 1.325 1_565 S
C655 C654 1.348 . S
C655 C657 1.353 . S
C655 H696 0.929 . S
C656 C654 1.356 . S
C656 C658 1.358 . S
C656 H697 0.930 . S
C657 C655 1.353 . S
C657 N659 1.314 . S
C657 H698 0.930 . S
C658 C656 1.358 . S
C658 N659 1.279 . S
C658 H699 0.930 . S
N659 C657 1.314 . S
N659 C658 1.279 . S
C660 C662 1.353 1_545 S
C660 N663 1.314 . S
C660 H666 0.930 . S
C661 N663 1.279 . S
C661 C664 1.358 . S
C661 H667 0.930 . S
C662 C660 1.353 1_565 S
C662 C665 1.348 . S
C662 H700 0.929 . S
N663 Li618 1.990 . S
N663 C660 1.314 . S
N663 C661 1.279 . S
C664 C661 1.358 . S
C664 C665 1.356 1_545 S
C664 H701 0.930 . S
C665 C662 1.348 . S
C665 C664 1.356 1_565 S
H666 C660 0.930 . S
H667 C661 0.930 . S
C668 N669 1.314 . S
C668 C670 1.353 . S
C668 H674 0.930 . S
N669 Li619 1.990 . S
N669 C668 1.314 . S
N669 C672 1.279 . S
C670 C668 1.353 . S
C670 C673 1.348 . S
C670 H702 0.929 . S
C671 C672 1.358 . S
C671 C673 1.356 . S
C671 H703 0.930 1_545 S
C672 N669 1.279 . S
C672 C671 1.358 . S
C672 H675 0.904 1_545 S
C673 C670 1.348 . S
C673 C671 1.356 . S
H674 C668 0.930 . S
H675 C672 0.904 1_565 S
O676 Li616 1.956 . S
O676 Li617 1.970 . S
O676 Li618 1.961 . S
O676 C620 1.325 . S
O677 Li616 1.970 . S
O677 Li617 1.956 . S
O677 Li619 1.961 . S
O677 C626 1.325 . S
O678 Li616 1.961 . S
O678 Li618 1.956 . S
O678 Li619 1.970 . S
O678 C648 1.325 . S
O679 Li617 1.961 . S
O679 Li618 1.970 . S
O679 Li619 1.956 . S
O679 C654 1.325 1_545 S
H680 C622 0.929 . S
H681 C623 0.930 . S
H682 C624 0.930 . S
H683 C625 0.930 . S
H684 C627 0.930 . S
H685 C629 0.929 . S
H686 C630 0.930 . S
H687 C631 0.930 . S
H688 C634 0.930 . S
H689 C637 0.929 . S
H690 C642 0.929 1_565 S
H691 C643 0.930 . S
H692 C650 0.929 . S
H693 C651 0.930 . S
H694 C652 0.930 . S
H695 C653 0.930 . S
H696 C655 0.929 . S
H697 C656 0.930 . S
H698 C657 0.930 . S
H699 C658 0.930 . S
H700 C662 0.929 . S
H701 C664 0.930 . S
H702 C670 0.929 . S
H703 C671 0.930 1_565 S
C137 C20 1.591 . S
C225 C293 1.591 . S
C381 C489 1.591 . S
C585 C636 1.591 . S
C645 C29 1.574 . S
C577 C145 1.574 . S
C233 C497 1.574 . S
C372 C284 1.574 . S
C469 C205 1.586 . S
C401 C313 1.586 . S
C673 C57 1.586 . S
C117 C548 1.586 . S
C49 C196 1.468 1_564 S
C321 C108 1.468 1_556 S
C557 C409 1.468 . S
C460 C665 1.468 1_545 S
