# Generated by pormake.
# Topology smm, (6)-cn, num edge types: 1
# Building blocks:
#     Node 0, Type 0, BuildingBlock: PAMTUU_clean_sbu_0, # of connection points: 6
#     Node 1, Type 0, BuildingBlock: PAMTUU_clean_sbu_0, # of connection points: 6
#     Node 2, Type 0, BuildingBlock: PAMTUU_clean_sbu_0, # of connection points: 6
#     Node 3, Type 0, BuildingBlock: PAMTUU_clean_sbu_0, # of connection points: 6
#     Node 4, Type 0, BuildingBlock: PAMTUU_clean_sbu_0, # of connection points: 6
#     Node 5, Type 0, BuildingBlock: PAMTUU_clean_sbu_0, # of connection points: 6
#     Node 6, Type 0, BuildingBlock: PAMTUU_clean_sbu_0, # of connection points: 6
#     Node 7, Type 0, BuildingBlock: PAMTUU_clean_sbu_0, # of connection points: 6
#     Node 8, Type 0, BuildingBlock: PAMTUU_clean_sbu_0, # of connection points: 6
#     Edge 9, Type (0, 0), BuildingBlock: KIFKEQ_clean_linker_1, # of connection points: 2
#     Edge 10, Type (0, 0), BuildingBlock: KIFKEQ_clean_linker_1, # of connection points: 2
#     Edge 11, Type (0, 0), BuildingBlock: KIFKEQ_clean_linker_1, # of connection points: 2
#     Edge 12, Type (0, 0), BuildingBlock: KIFKEQ_clean_linker_1, # of connection points: 2
#     Edge 13, Type (0, 0), BuildingBlock: KIFKEQ_clean_linker_1, # of connection points: 2
#     Edge 14, Type (0, 0), BuildingBlock: KIFKEQ_clean_linker_1, # of connection points: 2
#     Edge 15, Type (0, 0), BuildingBlock: KIFKEQ_clean_linker_1, # of connection points: 2
#     Edge 16, Type (0, 0), BuildingBlock: KIFKEQ_clean_linker_1, # of connection points: 2
#     Edge 17, Type (0, 0), BuildingBlock: KIFKEQ_clean_linker_1, # of connection points: 2
#     Edge 18, Type (0, 0), BuildingBlock: KIFKEQ_clean_linker_1, # of connection points: 2
#     Edge 19, Type (0, 0), BuildingBlock: KIFKEQ_clean_linker_1, # of connection points: 2
#     Edge 20, Type (0, 0), BuildingBlock: KIFKEQ_clean_linker_1, # of connection points: 2
#     Edge 21, Type (0, 0), BuildingBlock: KIFKEQ_clean_linker_1, # of connection points: 2
#     Edge 22, Type (0, 0), BuildingBlock: KIFKEQ_clean_linker_1, # of connection points: 2
#     Edge 23, Type (0, 0), BuildingBlock: KIFKEQ_clean_linker_1, # of connection points: 2
#     Edge 24, Type (0, 0), BuildingBlock: KIFKEQ_clean_linker_1, # of connection points: 2
#     Edge 25, Type (0, 0), BuildingBlock: KIFKEQ_clean_linker_1, # of connection points: 2
#     Edge 26, Type (0, 0), BuildingBlock: KIFKEQ_clean_linker_1, # of connection points: 2
#     Edge 27, Type (0, 0), BuildingBlock: KIFKEQ_clean_linker_1, # of connection points: 2
#     Edge 28, Type (0, 0), BuildingBlock: KIFKEQ_clean_linker_1, # of connection points: 2
#     Edge 29, Type (0, 0), BuildingBlock: KIFKEQ_clean_linker_1, # of connection points: 2
#     Edge 30, Type (0, 0), BuildingBlock: KIFKEQ_clean_linker_1, # of connection points: 2
#     Edge 31, Type (0, 0), BuildingBlock: KIFKEQ_clean_linker_1, # of connection points: 2
#     Edge 32, Type (0, 0), BuildingBlock: KIFKEQ_clean_linker_1, # of connection points: 2
#     Edge 33, Type (0, 0), BuildingBlock: KIFKEQ_clean_linker_1, # of connection points: 2
#     Edge 34, Type (0, 0), BuildingBlock: KIFKEQ_clean_linker_1, # of connection points: 2
#     Edge 35, Type (0, 0), BuildingBlock: KIFKEQ_clean_linker_1, # of connection points: 2
# Relax obj value: 0.109
# Max RMSD: 0.202
# Mean RMSD: 0.160
data_MOF--net-smm--node1-PAMTUU_clean_sbu_0--edge1-KIFKEQ_clean_linker_1
_symmetry_space_group_name_H-M    P1
_symmetry_Int_Tables_number       1
_symmetry_cell_setting            triclinic
loop_
_symmetry_equiv_pos_as_xyz
'x, y, z'
_cell_length_a     60.034095
_cell_length_b     78.054503
_cell_length_c     15.168951
_cell_angle_alpha  93.91441
_cell_angle_beta   95.244037
_cell_angle_gamma 122.55389
loop_
_atom_site_label
_atom_site_type_symbol
_atom_site_fract_x
_atom_site_fract_y
_atom_site_fract_z
_atom_type_partial_charge
Tb0 Tb 1.0608 0.20384 0.07928 0.0
Tb1 Tb 0.1192 0.24777 0.10312 0.0
C2 C 0.08878 0.2243 0.91894 0.0
C3 C 1.01658 0.14821 0.06185 0.0
C4 C 1.01311 0.11048 0.05149 0.0
C5 C 0.9983 0.11386 -0.01449 0.0
C6 C 0.99999 0.13251 -0.00917 0.0
C7 C 1.03155 0.14494 0.12749 0.0
C8 C 1.02974 0.12629 0.12254 0.0
C9 C 1.01932 0.16825 0.06459 0.0
O10 O 0.09025 0.19643 0.11481 0.0
O11 O 0.12701 0.22392 0.07156 0.0
O12 O 0.1166 0.23581 0.22885 0.0
O13 O 0.07117 0.21845 0.21621 0.0
O14 O 0.15616 0.26524 0.05912 0.0
O15 O 0.14671 0.27763 0.17108 0.0
O16 O 0.08994 0.25572 0.12189 0.0
O17 O 1.0499 0.22602 0.05877 0.0
O18 O 0.07708 0.20728 0.9547 0.0
O19 O 0.09963 0.24209 0.96825 0.0
C20 C 0.11427 0.20518 0.09246 0.0
O21 O 1.03088 0.18054 0.1399 0.0
O22 O 1.02798 0.17802 -0.00357 0.0
C23 C 0.09465 0.22649 0.26455 0.0
C24 C 0.17499 0.30098 0.07873 0.0
C25 C 0.2022 0.33859 0.01011 0.0
C26 C 0.20524 0.33807 0.10269 0.0
C27 C 0.19182 0.31942 0.13657 0.0
C28 C 0.17092 0.30151 -0.01356 0.0
C29 C 0.18449 0.32016 0.95244 0.0
C30 C 0.16365 0.28144 0.11536 0.0
C31 C 1.06413 0.24574 0.09106 0.0
H32 H 0.98566 0.10219 0.92895 0.0
H33 H 0.98855 0.13476 0.93883 0.0
H34 H 1.04481 0.15683 0.18273 0.0
H35 H 1.04119 0.12421 0.17513 0.0
H36 H 0.21893 0.35199 0.1487 0.0
H37 H 0.19526 0.31933 0.20788 0.0
H38 H 0.15785 0.28749 0.9403 0.0
H39 H 0.18151 0.32014 0.8809 0.0
Tb40 Tb 0.96739 0.87835 0.00141 0.0
Tb41 Tb 0.97011 0.83597 -0.01524 0.0
C42 C 0.97134 0.85843 0.16473 0.0
C43 C 0.97639 0.9312 0.01928 0.0
C44 C 0.99271 0.97278 0.02975 0.0
C45 C 0.98594 0.96254 0.10528 0.0
C46 C 0.97774 0.94194 0.09993 0.0
C47 C 0.98458 0.94177 0.94516 0.0
C48 C 0.9927 0.96234 0.95045 0.0
C49 C 0.96224 0.90855 0.00879 0.0
O50 O 1.00786 0.89052 -0.01845 0.0
O51 O 1.01283 0.86373 0.01065 0.0
O52 O 0.97754 0.84803 0.85918 0.0
O53 O 0.95291 0.86245 0.86544 0.0
O54 O 0.98143 0.81729 0.04404 0.0
O55 O 0.95882 0.80769 0.91196 0.0
O56 O 0.92769 0.8263 0.94844 0.0
O57 O 0.92968 0.85341 0.02674 0.0
O58 O 0.98294 0.87579 0.13123 0.0
O59 O 0.96018 0.84074 0.11362 0.0
C60 C 1.02296 0.8834 -0.00059 0.0
O61 O 0.9629 0.89926 0.93535 0.0
O62 O 0.9635 0.89992 0.07801 0.0
C63 C 0.96448 0.85527 0.82017 0.0
C64 C 0.95426 0.78023 -0.00747 0.0
C65 C 0.93146 0.73722 0.00929 0.0
C66 C 0.92174 0.74341 0.93785 0.0
C67 C 0.9329 0.76438 0.9296 0.0
C68 C 0.96375 0.77415 0.06467 0.0
C69 C 0.95256 0.75317 0.07312 0.0
C70 C 0.96908 0.80254 -0.02367 0.0
C71 C 0.91582 0.83509 -0.01932 0.0
H72 H 0.98551 0.97008 0.16714 0.0
H73 H 0.97115 0.93413 0.15775 0.0
H74 H 0.98358 0.93395 0.88169 0.0
H75 H 0.99819 0.96989 0.89147 0.0
H76 H 0.90595 0.73206 0.88584 0.0
H77 H 0.9252 0.76813 0.8719 0.0
H78 H 0.9804 0.78569 0.114 0.0
H79 H 0.96065 0.74954 0.13018 0.0
Tb80 Tb 0.24818 0.06168 0.01615 0.0
Tb81 Tb 0.27218 1.03266 -0.00871 0.0
C82 C 0.25466 0.04707 0.83425 0.0
C83 C 0.21735 0.09587 0.0367 0.0
C84 C 0.19581 0.1204 0.04945 0.0
C85 C 0.18685 0.10511 -0.02429 0.0
C86 C 0.19748 0.093 0.96946 0.0
C87 C 0.22637 0.11112 0.11045 0.0
C88 C 0.21573 0.12325 0.11676 0.0
C89 C 0.22882 0.0832 0.02922 0.0
O90 O 0.21284 1.02939 -0.00758 0.0
O91 O 0.23225 1.01133 0.0225 0.0
O92 O 0.28297 0.04462 0.13272 0.0
O93 O 0.25061 0.05174 0.14454 0.0
O94 O 0.28209 1.01892 0.89309 0.0
O95 O 0.28441 1.01313 0.02992 0.0
O96 O 0.30675 0.06379 -0.01298 0.0
O97 O 0.29195 0.08387 0.03983 0.0
O98 O 0.26046 0.06353 0.88504 0.0
O99 O 0.24824 1.03065 0.87059 0.0
C100 C 0.21087 1.01211 0.00785 0.0
O101 O 0.24706 0.08504 0.09023 0.0
O102 O 0.22137 0.06911 0.96121 0.0
C103 C 0.26885 0.04882 0.1803 0.0
C104 C 0.3115 1.0086 0.93562 0.0
C105 C 0.34946 0.99915 0.90326 0.0
C106 C 0.34706 1.00408 -0.00867 0.0
C107 C 0.32809 1.00867 0.00746 0.0
C108 C 0.31488 1.00463 0.8478 0.0
C109 C 0.33369 1.00002 0.83179 0.0
C110 C 0.2882 1.00963 0.94903 0.0
C111 C 0.31128 0.0819 0.01666 0.0
H112 H 0.17183 0.10266 0.92196 0.0
H113 H 0.19018 0.08143 0.9116 0.0
H114 H 0.24166 0.1137 0.16343 0.0
H115 H 0.22288 0.13467 0.17507 0.0
H116 H 0.35888 1.00339 0.04765 0.0
H117 H 0.32573 1.01144 0.07585 0.0
H118 H 0.30217 1.00424 0.79107 0.0
H119 H 0.33534 0.99654 0.76325 0.0
Tb120 Tb 0.84026 0.5383 0.06512 0.0
Tb121 Tb 0.7879 0.5427 0.06377 0.0
C122 C 0.82242 0.54629 0.24289 0.0
C123 C 0.8842 0.51713 0.07393 0.0
C124 C 0.89727 0.48742 0.09701 0.0
C125 C 0.89112 0.4958 0.16898 0.0
C126 C 0.88468 0.51048 0.15764 0.0
C127 C 0.88995 0.50858 0.002 0.0
C128 C 0.89626 0.49391 0.01315 0.0
C129 C 0.87864 0.5333 0.05962 0.0
O130 O 0.80711 0.50746 0.08441 0.0
O131 O 0.77137 0.5098 0.03737 0.0
O132 O 0.79779 0.54562 0.93012 0.0
O133 O 0.81805 0.52779 0.93199 0.0
O134 O 0.75286 0.53374 0.11772 0.0
O135 O 0.76392 0.55284 0.01244 0.0
O136 O 0.82123 0.57436 0.0879 0.0
O137 O 0.85565 0.57136 0.05117 0.0
O138 O 0.83366 0.53828 0.202 0.0
O139 O 0.80744 0.55154 0.20075 0.0
C140 C 0.78111 0.49892 0.06167 0.0
O141 O 0.86097 0.52912 -0.00893 0.0
O142 O 0.87622 0.54281 0.12852 0.0
C143 C 0.80809 0.53677 0.88961 0.0
C144 C 0.74533 0.56026 0.12655 0.0
C145 C 0.73944 0.58831 0.23186 0.0
C146 C 0.71944 0.57459 0.16035 0.0
C147 C 0.72236 0.56065 0.10826 0.0
C148 C 0.76558 0.57413 0.19662 0.0
C149 C 0.76264 0.58802 0.24898 0.0
C150 C 0.74823 0.54545 0.07265 0.0
C151 C 0.84545 0.58263 0.06741 0.0
H152 H 0.89188 0.49141 0.2348 0.0
H153 H 0.88038 0.51674 0.21466 0.0
H154 H 0.88973 0.51335 0.93668 0.0
H155 H 0.90026 0.4876 0.95549 0.0
H156 H 0.70152 0.57464 0.14453 0.0
H157 H 0.70666 0.55014 0.05394 0.0
H158 H 0.78354 0.57408 0.21139 0.0
H159 H 0.77826 0.59817 0.3041 0.0
Tb160 Tb 0.56175 0.2462 0.07323 0.0
Tb161 Tb 0.55803 0.2017 0.06999 0.0
C162 C 0.56211 0.22629 0.24567 0.0
C163 C 0.59531 0.3036 0.06851 0.0
C164 C 0.63871 0.34536 0.06604 0.0
C165 C 0.63402 0.33654 0.14618 0.0
C166 C 0.6127 0.31608 0.14743 0.0
C167 C 0.60023 0.31225 -0.0117 0.0
C168 C 0.62152 0.33264 -0.01302 0.0
C169 C 0.57126 0.2822 0.06922 0.0
O170 O 0.60105 0.25218 0.05714 0.0
O171 O 0.59841 0.22623 0.12709 0.0
O172 O 0.57023 0.21284 0.945 0.0
O173 O 0.54994 0.23065 0.93752 0.0
O174 O 0.57737 0.1862 0.09136 0.0
O175 O 0.53514 0.16938 0.0445 0.0
O176 O 0.51907 0.19491 0.01384 0.0
O177 O 0.51921 0.2222 0.08294 0.0
O178 O 0.573 0.24328 0.20907 0.0
O179 O 0.54899 0.2081 0.1975 0.0
C180 C 0.6125 0.24368 0.09577 0.0
O181 O 0.56389 0.2688 -0.00123 0.0
O182 O 0.5689 0.27369 0.14183 0.0
C183 C 0.56166 0.22253 0.9003 0.0
C184 C 0.55079 0.15327 0.13425 0.0
C185 C 0.54506 0.12477 0.25025 0.0
C186 C 0.5399 0.11922 0.15693 0.0
C187 C 0.54277 0.13335 0.09965 0.0
C188 C 0.55526 0.15878 0.22725 0.0
C189 C 0.55241 0.14464 0.2848 0.0
C190 C 0.55532 0.16813 0.07194 0.0
C191 C 0.50612 0.20267 0.04508 0.0
H192 H 0.64636 0.34562 0.20893 0.0
H193 H 0.6096 0.31017 0.2108 0.0
H194 H 0.58735 0.30328 0.92605 0.0
H195 H 0.62444 0.3384 0.92331 0.0
H196 H 0.53454 0.10417 0.12798 0.0
H197 H 0.53929 0.12884 0.02805 0.0
H198 H 0.56142 0.17409 0.25525 0.0
H199 H 0.55621 0.14933 0.35631 0.0
Tb200 Tb 0.93609 0.33868 0.15047 0.0
Tb201 Tb 0.9985 0.37672 0.1887 0.0
C202 C 0.9657 0.36056 0.3381 0.0
C203 C 0.86118 0.30776 0.12612 0.0
C204 C 0.80889 0.29932 0.1151 0.0
C205 C 0.8272 0.30949 0.19444 0.0
C206 C 0.853 0.31362 0.20002 0.0
C207 C 0.84326 0.29829 0.04576 0.0
C208 C 0.81739 0.29418 0.04014 0.0
C209 C 0.88738 0.30996 0.13448 0.0
O210 O 0.9345 0.36613 0.17257 0.0
O211 O 0.9777 0.39198 0.15908 0.0
O212 O 0.98994 0.36582 0.04701 0.0
O213 O 0.94499 0.35273 0.02976 0.0
O214 O 1.03183 0.38886 0.28456 0.0
O215 O 1.03477 0.40305 0.16227 0.0
O216 O 0.99747 0.34864 0.20228 0.0
O217 O 0.95776 0.32451 0.11546 0.0
O218 O 0.9533 0.34271 0.28825 0.0
O219 O 0.97982 0.37719 0.30249 0.0
C220 C 0.95249 0.38538 0.16333 0.0
O221 O 0.9006 0.31555 0.06714 0.0
O222 O 0.90304 0.31912 0.21064 0.0
C223 C 0.96739 0.36007 -0.00322 0.0
C224 C 0.07516 0.41836 0.27628 0.0
C225 C 0.12892 0.44647 0.35223 0.0
C226 C 0.1199 0.44663 0.2635 0.0
C227 C 0.09312 0.43266 0.22575 0.0
C228 C 0.08433 0.41816 0.3645 0.0
C229 C 0.11087 0.43199 0.40186 0.0
C230 C 1.04694 0.40333 0.239 0.0
C231 C 0.98172 0.33042 0.15478 0.0
H232 H 0.82142 0.31395 0.25296 0.0
H233 H 0.86627 0.32097 0.26311 0.0
H234 H 0.84899 0.2935 -0.01199 0.0
H235 H 0.80371 0.28619 -0.02175 0.0
H236 H 0.13343 0.45772 0.22389 0.0
H237 H 0.08649 0.43303 0.15746 0.0
H238 H 0.07101 0.40727 0.40521 0.0
H239 H 0.1173 0.43119 0.4697 0.0
Tb240 Tb 0.46051 0.90115 0.76127 0.0
Tb241 Tb 0.51587 0.94671 0.78619 0.0
C242 C 0.48064 0.92433 0.60083 0.0
C243 C 0.41698 0.84732 0.77568 0.0
C244 C 0.42008 0.8141 0.8122 0.0
C245 C 0.40174 0.81169 0.74036 0.0
C246 C 0.40015 0.82829 0.72219 0.0
C247 C 0.43456 0.84943 0.84986 0.0
C248 C 0.43603 0.83282 0.86821 0.0
C249 C 0.4195 0.86554 0.74576 0.0
O250 O 0.49245 0.8966 0.73873 0.0
O251 O 0.52895 0.92619 0.81838 0.0
O252 O 0.50402 0.94173 0.91737 0.0
O253 O 0.47984 0.90657 0.8971 0.0
O254 O 0.55267 0.96671 0.74353 0.0
O255 O 0.53857 0.97767 0.84437 0.0
O256 O 0.48299 0.95097 0.75659 0.0
O257 O 0.45026 0.92237 0.80745 0.0
O258 O 0.45943 0.9135 0.63866 0.0
O259 O 0.50467 0.93384 0.64661 0.0
C260 C 0.51723 0.90698 0.78063 0.0
O261 O 0.42532 0.88012 0.80897 0.0
O262 O 0.43435 0.87251 0.68305 0.0
C263 C 0.49139 0.92418 0.94908 0.0
C264 C 0.55544 0.99753 0.72973 0.0
C265 C 0.55326 1.02542 0.62605 0.0
C266 C 0.57503 1.03222 0.69411 0.0
C267 C 0.57612 1.01835 0.74557 0.0
C268 C 0.53381 0.99072 0.66167 0.0
C269 C 0.53275 1.00447 0.61021 0.0
C270 C 0.55503 0.9828 0.78627 0.0
C271 C 0.46007 0.94088 0.78703 0.0
H272 H 0.38943 0.79721 0.69651 0.0
H273 H 0.38685 0.82656 0.66399 0.0
H274 H 0.44808 0.86414 0.89099 0.0
H275 H 0.45037 0.8348 0.92346 0.0
H276 H 0.59125 0.04826 0.70738 0.0
H277 H 0.59287 1.0239 0.79816 0.0
H278 H 0.51744 0.97475 0.64917 0.0
H279 H 0.51553 0.99876 0.55939 0.0
Tb280 Tb 0.35836 0.58869 0.69388 0.0
Tb281 Tb 0.37921 0.55792 0.69971 0.0
C282 C 0.3724 0.57729 0.86964 0.0
C283 C 0.35679 0.63463 0.70455 0.0
C284 C 0.38638 0.67729 0.75156 0.0
C285 C 0.36317 0.66477 0.78889 0.0
C286 C 0.3484 0.64355 0.76518 0.0
C287 C 0.3802 0.64716 0.66791 0.0
C288 C 0.39477 0.66837 0.69082 0.0
C289 C 0.34216 0.61225 0.68515 0.0
O290 O 0.40092 0.60937 0.70078 0.0
O291 O 0.41588 0.58844 0.73654 0.0
O292 O 0.39152 0.57184 0.57996 0.0
O293 O 0.35775 0.57733 0.55823 0.0
O294 O 0.39894 0.54693 0.77456 0.0
O295 O 0.37743 0.53186 0.642 0.0
O296 O 0.33797 0.54057 0.63224 0.0
O297 O 0.32455 0.55889 0.70633 0.0
O298 O 0.37669 0.59293 0.83003 0.0
O299 O 0.36392 0.55971 0.82181 0.0
C300 C 0.42015 0.60663 0.72651 0.0
O301 O 0.34766 0.60504 0.61638 0.0
O302 O 0.34104 0.60286 0.75401 0.0
C303 C 0.37705 0.57636 0.52909 0.0
C304 C 0.37103 0.51085 0.75272 0.0
C305 C 0.33368 0.47306 0.80716 0.0
C306 C 0.34973 0.47396 0.74303 0.0
C307 C 0.36825 0.49272 0.71605 0.0
C308 C 0.35521 0.50999 0.81722 0.0
C309 C 0.33692 0.49136 0.84466 0.0
C310 C 0.38801 0.53023 0.71732 0.0
C311 C 0.31885 0.54238 0.6564 0.0
H312 H 0.35618 0.67143 0.83497 0.0
H313 H 0.33055 0.63408 0.79464 0.0
H314 H 0.3874 0.64064 0.62208 0.0
H315 H 0.41266 0.67781 0.66148 0.0
H316 H 0.34746 0.4601 0.71181 0.0
H317 H 0.37987 0.493 0.66491 0.0
H318 H 0.35656 0.52368 0.84524 0.0
H319 H 0.32523 0.49133 0.89505 0.0
Tb320 Tb 0.66144 0.77239 0.83897 0.0
Tb321 Tb 0.66348 0.73058 0.81175 0.0
C322 C 0.66309 0.75327 0.65555 0.0
C323 C 0.64043 0.81109 0.84177 0.0
C324 C 0.61162 0.83045 0.82122 0.0
C325 C 0.63137 0.83406 0.76786 0.0
C326 C 0.64561 0.8246 0.77826 0.0
C327 C 0.62016 0.80698 0.89342 0.0
C328 C 0.60593 0.81646 0.88311 0.0
C329 C 0.65845 0.80365 0.86152 0.0
O330 O 0.62004 0.74607 0.83234 0.0
O331 O 0.62372 0.72123 0.75812 0.0
O332 O 0.64759 0.73028 0.93507 0.0
O333 O 0.66994 0.76525 0.96818 0.0
O334 O 0.64983 0.70256 0.73442 0.0
O335 O 0.67844 0.71303 0.85455 0.0
O336 O 0.70214 0.75462 0.87975 0.0
O337 O 0.70414 0.78334 0.84107 0.0
O338 O 0.65069 0.76012 0.69803 0.0
O339 O 0.67708 0.74731 0.6993 0.0
C340 C 0.60925 0.72757 0.78785 0.0
O341 O 0.65202 0.79025 0.91712 0.0
O342 O 0.66857 0.79989 0.79598 0.0
C343 C 0.65675 0.74685 -0.00762 0.0
C344 C 0.68153 0.69345 0.73564 0.0
C345 C 0.70505 0.67676 0.63873 0.0
C346 C 0.7023 0.67407 0.72877 0.0
C347 C 0.69053 0.68225 0.77653 0.0
C348 C 0.68584 0.69735 0.6476 0.0
C349 C 0.69745 0.68904 0.59949 0.0
C350 C 0.6659 0.6994 0.78342 0.0
C351 C 0.71593 0.77396 0.86875 0.0
H352 H 0.63609 0.84441 0.71836 0.0
H353 H 0.66125 0.82833 0.73806 0.0
H354 H 0.61581 0.79692 0.94405 0.0
H355 H 0.59115 0.81338 0.92627 0.0
H356 H 0.70848 0.66508 0.76159 0.0
H357 H 0.6876 0.67923 0.84459 0.0
H358 H 0.67927 0.70612 0.6147 0.0
H359 H 0.69917 0.69135 0.53022 0.0
H360 H 0.2134 0.37667 0.07077 0.0
H361 H 0.22929 0.34453 0.86864 0.0
H362 H 0.24457 0.40921 0.01945 0.0
H363 H 0.25993 0.37694 0.81628 0.0
H364 H 0.33803 0.44061 0.83501 0.0
H365 H 0.3047 0.40798 0.87944 0.0
H366 H 0.25017 0.42786 0.88664 0.0
H367 H 0.28324 0.46037 0.84043 0.0
C368 C 0.22339 0.37656 0.01495 0.0
C369 C 0.21896 0.35808 -0.02616 0.0
C370 C 0.24106 0.39514 -0.01478 0.0
C371 C 0.25479 0.3956 0.91426 0.0
C372 C 0.24986 0.37706 0.8718 0.0
C373 C 0.23208 0.35849 0.9011 0.0
C374 C 0.31882 0.43795 0.84488 0.0
C375 C 0.31335 0.45313 0.83406 0.0
C376 C 0.29975 0.41927 0.87047 0.0
C377 C 0.27483 0.41538 0.88625 0.0
C378 C 0.26933 0.43054 0.87582 0.0
C379 C 0.28833 0.44917 0.8496 0.0
H380 H 0.88907 0.85327 0.01772 0.0
H381 H 0.8756 0.79601 0.89706 0.0
H382 H 0.84184 0.83949 -0.01421 0.0
H383 H 0.82756 0.78212 0.86441 0.0
H384 H 0.74342 0.75762 0.93128 0.0
H385 H 0.7908 0.77212 0.95078 0.0
H386 H 0.80447 0.82815 0.86447 0.0
H387 H 0.75605 0.81343 0.84419 0.0
C388 C 0.87607 0.83764 -0.01569 0.0
C389 C 0.88637 0.82566 0.96085 0.0
C390 C 0.84884 0.82986 0.96505 0.0
C391 C 0.83082 0.80976 0.92223 0.0
C392 C 0.84094 0.79769 0.89812 0.0
C393 C 0.86845 0.80559 0.91678 0.0
C394 C 0.75625 0.77307 0.91601 0.0
C395 C 0.7456 0.78431 0.88558 0.0
C396 C 0.78362 0.7813 0.92657 0.0
C397 C 0.80151 0.80114 0.90787 0.0
C398 C 0.79117 0.81273 0.87932 0.0
C399 C 0.76345 0.80436 0.86788 0.0
H400 H 0.33636 0.96591 0.78729 0.0
H401 H 0.40122 1.01494 -0.02068 0.0
H402 H 0.36407 0.95288 0.75634 0.0
H403 H 0.429 1.00158 0.94918 0.0
H404 H 0.47678 0.98141 0.79122 0.0
H405 H 0.45079 0.99643 0.82021 0.0
H406 H 0.38281 0.93637 0.84324 0.0
H407 H 0.40833 0.92143 0.81411 0.0
C408 C 0.35666 0.97401 0.82236 0.0
C409 C 0.36673 0.99154 0.88522 0.0
C410 C 0.37243 0.96644 0.80518 0.0
C411 C 0.39868 0.97625 0.85028 0.0
C412 C 0.40891 0.99387 0.91284 0.0
C413 C 0.39298 1.00139 0.93063 0.0
C414 C 0.45623 0.97145 0.80183 0.0
C415 C 0.44459 0.95024 0.79998 0.0
C416 C 0.44147 0.98006 0.81917 0.0
C417 C 0.4148 0.96754 0.8337 0.0
C418 C 0.40323 0.94636 0.83129 0.0
C419 C 0.41794 0.93783 0.81487 0.0
H420 H 0.46963 0.20192 0.15072 0.0
H421 H 0.4742 0.16922 0.9196 0.0
H422 H 0.4225 0.17379 0.14597 0.0
H423 H 0.42786 0.14179 0.91373 0.0
H424 H 0.35669 0.084 -0.01994 0.0
H425 H 0.40177 0.11388 -0.01212 0.0
H426 H 0.37573 0.1533 0.07412 0.0
H427 H 0.33027 0.12302 0.06813 0.0
C428 C 0.46054 0.18904 0.09778 0.0
C429 C 0.4761 0.188 0.03592 0.0
C430 C 0.43342 0.17276 0.09513 0.0
C431 C 0.42107 0.15496 0.03064 0.0
C432 C 0.43644 0.15466 0.96643 0.0
C433 C 0.46324 0.1707 0.96926 0.0
C434 C 0.36035 0.09896 0.00071 0.0
C435 C 0.33935 0.10078 0.02284 0.0
C436 C 0.38646 0.11633 0.00465 0.0
C437 C 0.39287 0.13641 0.03049 0.0
C438 C 0.37197 0.13828 0.05421 0.0
C439 C 0.34569 0.12079 0.05027 0.0
H440 H 1.02731 0.3362 0.245 0.0
H441 H 0.95934 0.29329 0.04605 0.0
H442 H 1.04551 0.31519 0.22893 0.0
H443 H 0.97815 0.27236 0.02753 0.0
H444 H 1.01013 0.23055 0.07288 0.0
H445 H 0.98906 0.24988 0.08882 0.0
H446 H 0.067 0.30657 0.13196 0.0
H447 H 0.08786 0.28734 0.1193 0.0
C448 C 1.0162 0.32227 0.19735 0.0
C449 C 0.99182 0.3166 0.14648 0.0
C450 C 1.02684 0.31022 0.18749 0.0
C451 C 1.01368 0.29209 0.12572 0.0
C452 C 0.98892 0.28611 0.07615 0.0
C453 C 0.97813 0.29818 0.08648 0.0
C454 C 1.02274 0.24716 0.08556 0.0
C455 C 1.05078 0.25731 0.09546 0.0
C456 C 1.01063 0.25829 0.09438 0.0
C457 C 1.02619 0.27992 0.11282 0.0
C458 C 1.0542 0.28998 0.12027 0.0
C459 C 0.06625 0.27889 0.11229 0.0
H460 H 0.87997 0.70307 0.94936 0.0
H461 H 0.95629 0.71868 0.08481 0.0
H462 H 0.86171 0.66707 0.95783 0.0
H463 H 0.9374 0.6825 0.09768 0.0
H464 H 0.89924 0.61117 0.04717 0.0
H465 H 0.92062 0.64783 0.03149 0.0
H466 H 0.84602 0.6425 0.05291 0.0
H467 H 0.82505 0.60665 0.06685 0.0
C468 C 0.89309 0.69903 -0.01897 0.0
C469 C 0.91992 0.71447 0.01635 0.0
C470 C 0.88234 0.67806 -0.01281 0.0
C471 C 0.89771 0.67131 0.02959 0.0
C472 C 0.92464 0.68666 0.06404 0.0
C473 C 0.93547 0.70771 0.05769 0.0
C474 C 0.88742 0.61783 0.04843 0.0
C475 C 0.8602 0.60547 0.05877 0.0
C476 C 0.89976 0.63904 0.03977 0.0
C477 C 0.88525 0.64862 0.0399 0.0
C478 C 0.85814 0.63612 0.05036 0.0
C479 C 0.84601 0.61522 0.05954 0.0
H480 H 0.29825 0.50606 0.54737 0.0
H481 H 0.27614 0.54514 0.67275 0.0
H482 H 0.25224 0.48295 0.47179 0.0
H483 H 0.23083 0.52262 0.59542 0.0
H484 H 0.14644 0.46741 0.5206 0.0
H485 H 0.19219 0.48937 0.59598 0.0
H486 H 0.22078 0.48186 0.35407 0.0
H487 H 0.17458 0.45881 0.27968 0.0
C488 C 0.28359 0.50966 0.55913 0.0
C489 C 0.29079 0.52734 0.61642 0.0
C490 C 0.25735 0.49656 0.51515 0.0
C491 C 0.23794 0.50099 0.52753 0.0
C492 C 0.24518 0.51858 0.58551 0.0
C493 C 0.27124 0.53153 0.6298 0.0
C494 C 0.16247 0.47032 0.4836 0.0
C495 C 0.15695 0.46127 0.39445 0.0
C496 C 0.18871 0.48308 0.52653 0.0
C497 C 0.21011 0.48733 0.48104 0.0
C498 C 0.20467 0.47863 0.39122 0.0
C499 C 0.17828 0.4657 0.34825 0.0
H500 H 0.73769 0.68973 0.5088 0.0
H501 H 0.69031 0.6372 0.64292 0.0
H502 H 0.74705 0.66903 0.40957 0.0
H503 H 0.70056 0.61698 0.54709 0.0
H504 H 0.69371 0.57969 0.2937 0.0
H505 H 0.68724 0.6021 0.39158 0.0
H506 H 0.7703 0.65079 0.40479 0.0
H507 H 0.77655 0.62853 0.30311 0.0
C508 C 0.7295 0.67386 0.51768 0.0
C509 C 0.71323 0.66513 0.58378 0.0
C510 C 0.73505 0.66207 0.4614 0.0
C511 C 0.72431 0.64131 0.46992 0.0
C512 C 0.70877 0.63283 0.53777 0.0
C513 C 0.70322 0.64455 0.59371 0.0
C514 C 0.71053 0.59526 0.31626 0.0
C515 C 0.73563 0.60231 0.29038 0.0
C516 C 0.70691 0.60803 0.37344 0.0
C517 C 0.72833 0.62816 0.40671 0.0
C518 C 0.75338 0.63538 0.38 0.0
C519 C 0.75702 0.62256 0.32252 0.0
H520 H 0.58046 0.13334 0.39951 0.0
H521 H 0.50826 0.08326 0.2368 0.0
H522 H 0.5816 0.10937 0.49125 0.0
H523 H 0.50922 0.0592 0.32929 0.0
H524 H 0.53812 1.0204 0.44554 0.0
H525 H 0.53462 0.04415 0.35815 0.0
H526 H 0.56019 0.08705 0.5989 0.0
H527 H 0.56403 0.06337 0.68592 0.0
C528 C 0.56453 0.11725 0.3843 0.0
C529 C 0.54431 0.11024 0.31062 0.0
C530 C 0.56518 0.10346 0.43697 0.0
C531 C 0.54557 0.0823 0.41762 0.0
C532 C 0.52494 0.07534 0.34521 0.0
C533 C 0.52434 0.08914 0.29231 0.0
C534 C 0.54288 1.03488 0.47982 0.0
C535 C 0.55151 1.04006 0.57264 0.0
C536 C 0.54076 0.04847 0.42977 0.0
C537 C 0.54711 0.06756 0.47134 0.0
C538 C 0.55557 0.07265 0.56434 0.0
C539 C 0.55781 0.05909 0.61431 0.0
H540 H 0.22184 0.16164 0.10988 0.0
H541 H 0.14356 0.1082 0.00429 0.0
H542 H 0.20269 0.18229 0.12284 0.0
H543 H 0.12468 0.12899 0.01334 0.0
H544 H 0.094 0.16611 0.13064 0.0
H545 H 0.11409 0.1462 0.12174 0.0
H546 H 0.18315 0.19695 0.03461 0.0
H547 H 0.16327 0.21712 0.04544 0.0
C548 C 0.20055 0.15427 0.08949 0.0
C549 C 0.18427 0.13319 0.05622 0.0
C550 C 0.18961 0.16619 0.09588 0.0
C551 C 0.1621 0.15734 0.06928 0.0
C552 C 0.14588 0.1363 0.03562 0.0
C553 C 0.15679 0.1244 0.02933 0.0
C554 C 0.11352 0.17311 0.10991 0.0
C555 C 0.12699 0.19328 0.08885 0.0
C556 C 0.12499 0.1616 0.10416 0.0
C557 C 0.15023 0.16989 0.07703 0.0
C558 C 0.16383 0.19013 0.05671 0.0
C559 C 0.15234 0.20168 0.06251 0.0
H560 H 1.02218 1.00589 0.16186 0.0
H561 H 0.97359 0.9866 0.90212 0.0
H562 H 1.02761 1.03937 0.16697 0.0
H563 H 0.97953 1.02008 0.90638 0.0
H564 H 0.96835 0.0719 -0.00185 0.0
H565 H 0.96459 1.03918 -0.00799 0.0
H566 H 1.04894 0.07079 0.09079 0.0
H567 H 1.05295 0.10367 0.09525 0.0
C568 C 1.01281 1.00884 0.10572 0.0
C569 C 0.99756 0.99361 0.03143 0.0
C570 C 1.01608 1.02804 0.10834 0.0
C571 C 1.00396 1.03234 0.03712 0.0
C572 C 0.98892 1.01718 0.96264 0.0
C573 C 0.9858 0.99807 0.95976 0.0
C574 C 0.98621 0.07196 0.01737 0.0
C575 C 1.01096 0.09049 0.04699 0.0
C576 C 0.98402 0.05317 0.0141 0.0
C577 C 1.00647 0.0524 0.04084 0.0
C578 C 1.03122 0.07088 0.07078 0.0
C579 C 1.03347 0.08971 0.07345 0.0
H580 H 1.04688 0.92148 0.08951 0.0
H581 H 0.06602 0.88368 0.93715 0.0
H582 H 0.09144 0.95135 0.09095 0.0
H583 H 0.11149 0.91413 0.93807 0.0
H584 H 0.19877 0.97281 0.01852 0.0
H585 H 0.15538 0.94122 0.0199 0.0
H586 H 0.11743 0.97482 -0.00446 0.0
H587 H 0.16086 1.00644 -0.00479 0.0
C588 C 1.06081 0.91943 0.05707 0.0
C589 C 1.05252 0.8999 0.01343 0.0
C590 C 0.08651 0.93682 0.0569 0.0
C591 C 0.10539 0.93565 0.01289 0.0
C592 C 0.09771 0.91588 -0.0272 0.0
C593 C 0.07161 0.89827 -0.02722 0.0
C594 C 0.18122 0.97357 0.01356 0.0
C595 C 0.18375 0.99254 0.00737 0.0
C596 C 0.1561 0.95524 0.01372 0.0
C597 C 0.13244 0.9551 0.00855 0.0
C598 C 0.13498 0.97406 0.00138 0.0
C599 C 0.16006 0.99236 0.00062 0.0
H600 H 0.87818 0.45634 0.20292 0.0
H601 H 0.93464 0.48416 0.01864 0.0
H602 H 0.89159 0.43218 0.22233 0.0
H603 H 0.94694 0.45943 0.03436 0.0
H604 H 0.9838 0.4263 0.14683 0.0
H605 H 0.97057 0.45059 0.13423 0.0
H606 H 0.88899 0.40273 0.15053 0.0
H607 H 0.90242 0.37845 0.16547 0.0
C608 C 0.89345 0.45737 0.16648 0.0
C609 C 0.90521 0.47234 0.10901 0.0
C610 C 0.90092 0.44328 0.17677 0.0
C611 C 0.92042 0.44371 0.12999 0.0
C612 C 0.93214 0.45867 0.0726 0.0
C613 C 0.92474 0.47276 0.06251 0.0
C614 C 0.96302 0.42089 0.14809 0.0
C615 C 0.94422 0.40029 0.15723 0.0
C616 C 0.95535 0.43487 0.14014 0.0
C617 C 0.92861 0.42875 0.14079 0.0
C618 C 0.90983 0.40818 0.15075 0.0
C619 C 0.91752 0.39416 0.15883 0.0
H620 H 0.72635 0.47729 0.02745 0.0
H621 H 0.79045 0.46856 0.09933 0.0
H622 H 0.69377 0.44124 0.03042 0.0
H623 H 0.75743 0.43185 0.09992 0.0
H624 H 0.68891 0.3695 0.17129 0.0
H625 H 0.7233 0.40573 0.17145 0.0
H626 H 0.67366 0.40829 0.95519 0.0
H627 H 0.63897 0.37266 0.95821 0.0
C628 C 0.73367 0.46768 0.04315 0.0
C629 C 0.76139 0.47619 0.06256 0.0
C630 C 0.71473 0.4467 0.04426 0.0
C631 C 0.72253 0.43312 0.06438 0.0
C632 C 0.75031 0.4416 0.08462 0.0
C633 C 0.7694 0.46276 0.08372 0.0
C634 C 0.68511 0.37779 0.12425 0.0
C635 C 0.6607 0.36772 0.06488 0.0
C636 C 0.70517 0.39868 0.12357 0.0
C637 C 0.70162 0.41041 0.06369 0.0
C638 C 0.67735 0.40022 0.00373 0.0
C639 C 0.65736 0.37943 0.00449 0.0
H640 H 0.64153 0.22879 0.16185 0.0
H641 H 0.64948 0.27967 0.03767 0.0
H642 H 0.68877 0.243 0.16398 0.0
H643 H 0.69735 0.29426 0.04197 0.0
H644 H 0.776 0.30058 -0.01928 0.0
H645 H 0.72864 0.28792 -0.02442 0.0
H646 H 0.73096 0.27133 0.24069 0.0
H647 H 0.77761 0.28307 0.24421 0.0
C648 C 0.6534 0.24316 0.13583 0.0
C649 C 0.64167 0.25315 0.10017 0.0
C650 C 0.6806 0.25137 0.13742 0.0
C651 C 0.69693 0.26988 0.10392 0.0
C652 C 0.68527 0.2799 0.06781 0.0
C653 C 0.6579 0.27163 0.066 0.0
C654 C 0.7663 0.29416 0.03766 0.0
C655 C 0.78058 0.29285 0.11287 0.0
C656 C 0.73927 0.28711 0.03511 0.0
C657 C 0.72598 0.27853 0.10757 0.0
C658 C 0.74046 0.27759 0.18322 0.0
C659 C 0.76735 0.28459 0.18573 0.0
H660 H 0.55903 0.81623 0.83538 0.0
H661 H 0.63268 0.87052 0.7929 0.0
H662 H 0.53708 0.8349 0.82857 0.0
H663 H 0.6104 0.88889 0.78188 0.0
H664 H 0.56939 0.92242 0.85502 0.0
H665 H 0.592 0.90414 0.86595 0.0
H666 H 0.52033 0.84883 0.72807 0.0
H667 H 0.4977 0.86686 0.71908 0.0
C668 C 0.57061 0.83214 0.8245 0.0
C669 C 0.59775 0.84174 0.81453 0.0
C670 C 0.55788 0.84284 0.81951 0.0
C671 C 0.57183 0.86351 0.80438 0.0
C672 C 0.59896 0.87311 0.79456 0.0
C673 C 0.6117 0.86241 0.79958 0.0
C674 C 0.55847 0.90637 0.82701 0.0
C675 C 0.53167 0.89623 0.78608 0.0
C676 C 0.5715 0.89586 0.83281 0.0
C677 C 0.55809 0.87489 0.79807 0.0
C678 C 0.53131 0.86483 0.75695 0.0
C679 C 0.51834 0.8753 0.75108 0.0
H680 H 0.40048 0.70418 0.63202 0.0
H681 H 0.40373 0.70049 0.91516 0.0
H682 H 0.41707 0.74038 0.66195 0.0
H683 H 0.42109 0.73707 0.94596 0.0
H684 H 0.3972 0.78524 0.92104 0.0
H685 H 0.39749 0.75405 0.91936 0.0
H686 H 0.45244 0.77501 0.72641 0.0
H687 H 0.45132 0.8059 0.72689 0.0
C688 C 0.40562 0.71136 0.70085 0.0
C689 C 0.40065 0.69969 0.77137 0.0
C690 C 0.41526 0.7321 0.71816 0.0
C691 C 0.42026 0.74151 0.80639 0.0
C692 C 0.41705 0.7301 0.87733 0.0
C693 C 0.40715 0.70927 0.85987 0.0
C694 C 0.40974 0.78324 0.88014 0.0
C695 C 0.424 0.79749 0.82346 0.0
C696 C 0.41015 0.76557 0.87958 0.0
C697 C 0.42487 0.76208 0.82219 0.0
C698 C 0.44069 0.77723 0.77037 0.0
C699 C 0.44013 0.79482 0.77067 0.0
H700 H 0.58213 0.69175 0.67542 0.0
H701 H 0.57075 0.72774 0.87407 0.0
H702 H 0.53674 0.66312 0.67182 0.0
H703 H 0.52432 0.69861 0.8686 0.0
H704 H 0.43553 0.64666 0.73466 0.0
H705 H 0.4808 0.67707 0.75523 0.0
H706 H 0.51242 0.63909 0.78239 0.0
H707 H 0.46705 0.60846 0.76112 0.0
C708 C 0.56986 0.69367 0.71793 0.0
C709 C 0.5802 0.71203 0.77589 0.0
C710 C 0.54386 0.67712 0.7162 0.0
C711 C 0.5273 0.67851 0.77139 0.0
C712 C 0.53691 0.69717 0.82592 0.0
C713 C 0.56331 0.71384 0.82853 0.0
C714 C 0.45208 0.64472 0.74545 0.0
C715 C 0.44768 0.62506 0.74482 0.0
C716 C 0.47799 0.66221 0.75811 0.0
C717 C 0.5 0.66038 0.76977 0.0
C718 C 0.49568 0.64084 0.77247 0.0
C719 C 0.46975 0.62333 0.76037 0.0
H720 H 0.0701 0.1904 0.79621 0.0
H721 H 0.11498 0.25674 0.827 0.0
H722 H 0.07496 0.18954 0.63817 0.0
H723 H 0.11954 0.25577 0.66945 0.0
H724 H 1.05425 0.20029 0.35047 0.0
H725 H 1.05567 0.19835 0.50994 0.0
H726 H 0.1399 0.24609 0.55485 0.0
H727 H 0.13851 0.24817 0.39445 0.0
C728 C 0.08098 0.20477 0.76937 0.0
C729 C 0.09179 0.22363 0.82369 0.0
C730 C 0.08381 0.20426 0.67912 0.0
C731 C 0.09758 0.22258 0.64184 0.0
C732 C 0.10909 0.24143 0.69676 0.0
C733 C 0.10618 0.24195 0.78676 0.0
C734 C 0.07311 0.21035 0.39425 0.0
C735 C 0.09615 0.22468 0.36044 0.0
C736 C 0.07398 0.20904 0.48539 0.0
C737 C 0.09785 0.22214 0.54456 0.0
C738 C 0.12118 0.23597 0.5105 0.0
C739 C 0.12037 0.23714 0.41895 0.0
H740 H 0.97049 0.83141 0.69853 0.0
H741 H 0.95406 0.87895 0.72251 0.0
H742 H 0.9695 0.83237 0.53815 0.0
H743 H 0.95323 0.87994 0.56125 0.0
H744 H 0.99412 0.89134 0.29754 0.0
H745 H 0.98915 0.89034 0.45597 0.0
H746 H 0.93544 0.82439 0.40326 0.0
H747 H 0.94042 0.82521 0.24629 0.0
C748 C 0.96661 0.84202 0.66943 0.0
C749 C 0.96251 0.85518 0.72282 0.0
C750 C 0.96586 0.84247 0.57769 0.0
C751 C 0.96134 0.85626 0.53782 0.0
C752 C 0.95692 0.86928 0.59083 0.0
C753 C 0.95726 0.86861 0.68269 0.0
C754 C 0.98122 0.87666 0.31987 0.0
C755 C 0.96815 0.85833 0.25989 0.0
C756 C 0.9782 0.87612 0.41014 0.0
C757 C 0.96213 0.85726 0.44141 0.0
C758 C 0.94829 0.83907 0.38083 0.0
C759 C 0.95127 0.83959 0.29105 0.0
H760 H 0.25755 1.01939 0.72491 0.0
H761 H 0.26004 0.07578 0.72866 0.0
H762 H 0.26537 1.02058 0.57064 0.0
H763 H 0.26644 0.07646 0.57219 0.0
H764 H 0.29696 0.08173 0.30954 0.0
H765 H 0.2962 0.08175 0.47064 0.0
H766 H 0.24381 1.01546 0.42644 0.0
H767 H 0.24594 1.0157 0.2667 0.0
C768 C 0.25941 1.03192 0.69234 0.0
C769 C 0.25798 0.04742 0.73886 0.0
C770 C 0.26383 1.03258 0.60352 0.0
C771 C 0.26647 0.04857 0.55828 0.0
C772 C 0.265 0.06409 0.60502 0.0
C773 C 0.261 0.06359 0.69451 0.0
C774 C 0.28589 0.06722 0.33534 0.0
C775 C 0.27174 0.0487 0.27703 0.0
C776 C 0.28511 0.06719 0.4272 0.0
C777 C 0.26967 0.04862 0.46193 0.0
C778 C 0.25622 1.03005 0.40283 0.0
C779 C 0.25734 1.03012 0.31128 0.0
H780 H 0.81252 0.56947 0.35472 0.0
H781 H 0.83838 0.52735 0.35152 0.0
H782 H 0.81186 0.56931 0.51488 0.0
H783 H 0.83656 0.52644 0.51014 0.0
H784 H 0.84712 0.53822 0.80819 0.0
H785 H 0.85492 0.54418 0.65577 0.0
H786 H 0.78377 0.54556 0.60678 0.0
H787 H 0.77692 0.54074 0.76151 0.0
C788 C 0.81814 0.56024 0.38835 0.0
C789 C 0.82514 0.5482 0.3407 0.0
C790 C 0.8176 0.56004 0.47984 0.0
C791 C 0.82369 0.54758 0.52483 0.0
C792 C 0.83196 0.53634 0.47772 0.0
C793 C 0.83287 0.53677 0.3866 0.0
C794 C 0.83305 0.53964 0.76449 0.0
C795 C 0.8112 0.53875 0.79569 0.0
C796 C 0.83754 0.5431 0.6773 0.0
C797 C 0.81994 0.5453 0.61911 0.0
C798 C 0.79799 0.54432 0.65049 0.0
C799 C 0.79383 0.54129 0.73849 0.0
H800 H 0.54921 0.19487 0.34174 0.0
H801 H 0.58456 0.26044 0.37092 0.0
H802 H 0.5548 0.19633 0.5029 0.0
H803 H 0.59004 0.26179 0.53354 0.0
H804 H 0.54994 0.24405 0.79311 0.0
H805 H 0.55561 0.24744 0.63749 0.0
H806 H 0.58939 0.21059 0.64059 0.0
H807 H 0.58354 0.20697 0.79698 0.0
C808 C 0.55835 0.20963 0.38248 0.0
C809 C 0.56614 0.2275 0.34359 0.0
C810 C 0.5618 0.21047 0.47486 0.0
C811 C 0.57286 0.22916 0.5303 0.0
C812 C 0.58132 0.24717 0.49183 0.0
C813 C 0.57811 0.24637 0.39902 0.0
C814 C 0.55865 0.23669 0.76092 0.0
C815 C 0.56579 0.22488 0.80671 0.0
C816 C 0.56222 0.23888 0.67214 0.0
C817 C 0.57289 0.22926 0.62738 0.0
C818 C 0.5809 0.21802 0.67379 0.0
C819 C 0.57744 0.21589 0.76295 0.0
H820 H 0.99708 0.39421 0.46404 0.0
H821 H 0.93199 0.33033 0.42942 0.0
H822 H 0.99682 0.39617 0.62525 0.0
H823 H 0.93182 0.33237 0.59047 0.0
H824 H 0.92404 0.34823 0.8733 0.0
H825 H 0.92287 0.35055 0.714 0.0
H826 H 1.00843 0.37934 0.7444 0.0
H827 H 1.00981 0.37716 0.90436 0.0
C828 C 0.98263 0.38064 0.49079 0.0
C829 C 0.96472 0.36203 0.43453 0.0
C830 C 0.98255 0.38178 0.58285 0.0
C831 C 0.96438 0.36441 0.61978 0.0
C832 C 0.94591 0.34601 0.56328 0.0
C833 C 0.94616 0.3448 0.47138 0.0
C834 C 0.94266 0.35513 0.8463 0.0
C835 C 0.967 0.36223 0.90114 0.0
C836 C 0.94193 0.35644 0.75517 0.0
C837 C 0.96552 0.36499 0.71734 0.0
C838 C 0.98999 0.37279 0.77241 0.0
C839 C 0.99073 0.37137 0.86365 0.0
H840 H 0.51684 0.95384 0.51431 0.0
H841 H 0.43886 0.89712 0.47013 0.0
H842 H 0.51596 0.95396 0.35445 0.0
H843 H 0.43797 0.89725 0.30813 0.0
H844 H 0.47176 0.89198 0.04596 0.0
H845 H 0.46454 0.89243 0.20175 0.0
H846 H 0.49345 0.95678 0.21892 0.0
H847 H 0.50125 0.95653 0.06458 0.0
C848 C 0.49932 0.94151 0.47025 0.0
C849 C 0.47806 0.92532 0.50438 0.0
C850 C 0.49874 0.94167 0.37858 0.0
C851 C 0.47699 0.92553 0.31894 0.0
C852 C 0.4551 0.90975 0.35291 0.0
C853 C 0.45555 0.90973 0.44527 0.0
C854 C 0.47664 0.90622 0.08316 0.0
C855 C 0.48764 0.92432 0.04368 0.0
C856 C 0.47215 0.9064 0.17184 0.0
C857 C 0.47849 0.92465 0.22226 0.0
C858 C 0.48874 0.94257 0.18188 0.0
C859 C 0.49337 0.94243 0.09367 0.0
H860 H 0.38845 0.61099 -0.00933 0.0
H861 H 0.36779 0.54844 -0.02841 0.0
H862 H 0.39531 0.61384 0.15376 0.0
H863 H 0.37441 0.55126 0.13349 0.0
H864 H 0.40455 0.5658 0.428 0.0
H865 H 0.40864 0.56901 0.27005 0.0
H866 H 0.364 0.59772 0.26334 0.0
H867 H 0.36005 0.59466 0.42048 0.0
C868 C 0.38541 0.59788 0.0211 0.0
C869 C 0.37718 0.57937 0.96816 0.0
C870 C 0.3894 0.59954 0.11436 0.0
C871 C 0.38539 0.58277 0.15621 0.0
C872 C 0.37799 0.56453 0.10317 0.0
C873 C 0.37389 0.56284 0.01024 0.0
C874 C 0.39586 0.57297 0.3929 0.0
C875 C 0.38149 0.57958 0.43596 0.0
C876 C 0.39817 0.57478 0.30263 0.0
C877 C 0.38644 0.58346 0.25435 0.0
C878 C 0.37336 0.59107 0.29889 0.0
C879 C 0.37082 0.58908 0.38864 0.0
H880 H 0.63269 0.76136 0.54307 0.0
H881 H 0.68367 0.73796 0.54463 0.0
H882 H 0.62589 0.75643 0.38015 0.0
H883 H 0.67701 0.73326 0.38166 0.0
H884 H 0.6593 0.77529 0.11327 0.0
H885 H 0.65668 0.77424 0.27179 0.0
H886 H 0.6424 0.71353 0.24402 0.0
H887 H 0.64512 0.71458 0.08396 0.0
C888 C 0.6425 0.75522 0.50879 0.0
C889 C 0.6591 0.75038 0.55684 0.0
C890 C 0.63851 0.75233 0.41551 0.0
C891 C 0.65098 0.74452 0.3684 0.0
C892 C 0.66692 0.7391 0.41629 0.0
C893 C 0.67098 0.74204 0.50963 0.0
C894 C 0.65546 0.76165 0.1407 0.0
C895 C 0.65287 0.74515 0.08665 0.0
C896 C 0.65367 0.76097 0.23137 0.0
C897 C 0.64949 0.74386 0.27024 0.0
C898 C 0.64592 0.72699 0.21571 0.0
C899 C 0.64739 0.72757 0.12432 0.0
loop_
_geom_bond_atom_site_label_1
_geom_bond_atom_site_label_2
_geom_bond_distance
_geom_bond_site_symmetry_2
_ccdc_geom_bond_type
Tb0 C9 2.764 1_455 S
Tb0 O10 2.325 . S
Tb0 O13 2.303 . S
Tb0 O17 2.322 . S
Tb0 O18 2.349 1_554 S
Tb0 O21 2.415 . S
Tb0 O22 2.399 1_455 S
Tb1 O11 2.322 . S
Tb1 O12 2.349 . S
Tb1 O14 2.415 . S
Tb1 O15 2.399 . S
Tb1 O16 2.325 . S
Tb1 O19 2.303 1_554 S
Tb1 C30 2.764 . S
C2 O18 1.261 . S
C2 O19 1.257 . S
C3 C6 1.358 . S
C3 C7 1.332 . S
C3 C9 1.504 . S
C4 C5 1.373 . S
C4 C8 1.308 . S
C5 C4 1.373 . S
C5 C6 1.429 . S
C5 H32 0.932 1_554 S
C6 C3 1.358 . S
C6 C5 1.429 . S
C6 H33 0.930 1_554 S
C7 C3 1.332 . S
C7 C8 1.394 . S
C7 H34 0.932 . S
C8 C4 1.308 . S
C8 C7 1.394 . S
C8 H35 0.929 . S
C9 Tb0 2.764 1_655 S
C9 C3 1.504 . S
C9 O21 1.239 1_655 S
C9 O22 1.263 . S
O10 Tb0 2.325 . S
O10 C20 1.236 . S
O11 Tb1 2.322 . S
O11 C20 1.257 . S
O12 Tb1 2.349 . S
O12 C23 1.261 . S
O13 Tb0 2.303 . S
O13 C23 1.257 . S
O14 Tb1 2.415 . S
O14 C30 1.239 . S
O15 Tb1 2.399 . S
O15 C30 1.263 . S
O16 Tb1 2.325 . S
O16 C31 1.236 . S
O17 Tb0 2.322 . S
O17 C31 1.257 . S
O18 Tb0 2.349 1_556 S
O18 C2 1.261 . S
O19 Tb1 2.303 1_556 S
O19 C2 1.257 . S
C20 O10 1.236 . S
C20 O11 1.257 . S
O21 Tb0 2.415 . S
O21 C9 1.239 1_455 S
O22 Tb0 2.399 1_655 S
O22 C9 1.263 . S
C23 O12 1.261 . S
C23 O13 1.257 . S
C24 C27 1.358 . S
C24 C28 1.332 . S
C24 C30 1.504 . S
C25 C26 1.373 . S
C25 C29 1.308 . S
C26 C25 1.373 . S
C26 C27 1.429 . S
C26 H36 0.932 . S
C27 C24 1.358 . S
C27 C26 1.429 . S
C27 H37 0.930 . S
C28 C24 1.332 . S
C28 C29 1.394 . S
C28 H38 0.932 1_554 S
C29 C25 1.308 . S
C29 C28 1.394 . S
C29 H39 0.929 1_554 S
C30 Tb1 2.764 . S
C30 O14 1.239 . S
C30 O15 1.263 . S
C30 C24 1.504 . S
C31 O16 1.236 . S
C31 O17 1.257 . S
H32 C5 0.932 1_556 S
H33 C6 0.930 1_556 S
H34 C7 0.932 . S
H35 C8 0.929 . S
H36 C26 0.932 . S
H37 C27 0.930 . S
H38 C28 0.932 1_556 S
H39 C29 0.929 1_556 S
Tb40 C49 2.764 . S
Tb40 O50 2.325 . S
Tb40 O53 2.303 1_554 S
Tb40 O57 2.322 . S
Tb40 O58 2.349 . S
Tb40 O61 2.415 1_554 S
Tb40 O62 2.399 . S
Tb41 O51 2.322 . S
Tb41 O52 2.349 1_554 S
Tb41 O54 2.415 . S
Tb41 O55 2.399 1_554 S
Tb41 O56 2.325 . S
Tb41 O59 2.303 . S
Tb41 C70 2.764 . S
C42 O58 1.261 . S
C42 O59 1.257 . S
C43 C46 1.358 . S
C43 C47 1.332 1_554 S
C43 C49 1.504 . S
C44 C45 1.373 . S
C44 C48 1.308 1_554 S
C45 C44 1.373 . S
C45 C46 1.429 . S
C45 H72 0.932 . S
C46 C43 1.358 . S
C46 C45 1.429 . S
C46 H73 0.930 . S
C47 C43 1.332 1_556 S
C47 C48 1.394 . S
C47 H74 0.932 . S
C48 C44 1.308 1_556 S
C48 C47 1.394 . S
C48 H75 0.929 . S
C49 Tb40 2.764 . S
C49 C43 1.504 . S
C49 O61 1.239 1_554 S
C49 O62 1.263 . S
O50 Tb40 2.325 . S
O50 C60 1.236 . S
O51 Tb41 2.322 . S
O51 C60 1.257 . S
O52 Tb41 2.349 1_556 S
O52 C63 1.261 . S
O53 Tb40 2.303 1_556 S
O53 C63 1.257 . S
O54 Tb41 2.415 . S
O54 C70 1.239 . S
O55 Tb41 2.399 1_556 S
O55 C70 1.263 1_556 S
O56 Tb41 2.325 . S
O56 C71 1.236 . S
O57 Tb40 2.322 . S
O57 C71 1.257 . S
O58 Tb40 2.349 . S
O58 C42 1.261 . S
O59 Tb41 2.303 . S
O59 C42 1.257 . S
C60 O50 1.236 . S
C60 O51 1.257 . S
O61 Tb40 2.415 1_556 S
O61 C49 1.239 1_556 S
O62 Tb40 2.399 . S
O62 C49 1.263 . S
C63 O52 1.261 . S
C63 O53 1.257 . S
C64 C67 1.358 1_554 S
C64 C68 1.332 . S
C64 C70 1.504 . S
C65 C66 1.373 1_554 S
C65 C69 1.308 . S
C66 C65 1.373 1_556 S
C66 C67 1.429 . S
C66 H76 0.932 . S
C67 C64 1.358 1_556 S
C67 C66 1.429 . S
C67 H77 0.930 . S
C68 C64 1.332 . S
C68 C69 1.394 . S
C68 H78 0.932 . S
C69 C65 1.308 . S
C69 C68 1.394 . S
C69 H79 0.929 . S
C70 Tb41 2.764 . S
C70 O54 1.239 . S
C70 O55 1.263 1_554 S
C70 C64 1.504 . S
C71 O56 1.236 . S
C71 O57 1.257 . S
H72 C45 0.932 . S
H73 C46 0.930 . S
H74 C47 0.932 . S
H75 C48 0.929 . S
H76 C66 0.932 . S
H77 C67 0.930 . S
H78 C68 0.932 . S
H79 C69 0.929 . S
Tb80 C89 2.764 . S
Tb80 O90 2.325 1_554 S
Tb80 O93 2.303 . S
Tb80 O97 2.322 . S
Tb80 O98 2.349 1_554 S
Tb80 O101 2.415 . S
Tb80 O102 2.399 1_554 S
Tb81 O91 2.322 . S
Tb81 O92 2.349 . S
Tb81 O94 2.415 1_554 S
Tb81 O95 2.399 . S
Tb81 O96 2.325 1_565 S
Tb81 O99 2.303 1_564 S
Tb81 C110 2.764 1_554 S
C82 O98 1.261 . S
C82 O99 1.257 . S
C83 C86 1.358 1_554 S
C83 C87 1.332 . S
C83 C89 1.504 . S
C84 C85 1.373 . S
C84 C88 1.308 . S
C85 C84 1.373 . S
C85 C86 1.429 1_554 S
C85 H112 0.932 1_554 S
C86 C83 1.358 1_556 S
C86 C85 1.429 1_556 S
C86 H113 0.930 . S
C87 C83 1.332 . S
C87 C88 1.394 . S
C87 H114 0.932 . S
C88 C84 1.308 . S
C88 C87 1.394 . S
C88 H115 0.929 . S
C89 Tb80 2.764 . S
C89 C83 1.504 . S
C89 O101 1.239 . S
C89 O102 1.263 1_554 S
O90 Tb80 2.325 1_556 S
O90 C100 1.236 1_546 S
O91 Tb81 2.322 . S
O91 C100 1.257 . S
O92 Tb81 2.349 . S
O92 C103 1.261 1_565 S
O93 Tb80 2.303 . S
O93 C103 1.257 . S
O94 Tb81 2.415 1_556 S
O94 C110 1.239 . S
O95 Tb81 2.399 . S
O95 C110 1.263 1_554 S
O96 Tb81 2.325 1_545 S
O96 C111 1.236 . S
O97 Tb80 2.322 . S
O97 C111 1.257 . S
O98 Tb80 2.349 1_556 S
O98 C82 1.261 . S
O99 Tb81 2.303 1_546 S
O99 C82 1.257 . S
C100 O90 1.236 1_564 S
C100 O91 1.257 . S
O101 Tb80 2.415 . S
O101 C89 1.239 . S
O102 Tb80 2.399 1_556 S
O102 C89 1.263 1_556 S
C103 O92 1.261 1_545 S
C103 O93 1.257 . S
C104 C107 1.358 1_556 S
C104 C108 1.332 . S
C104 C110 1.504 . S
C105 C106 1.373 1_556 S
C105 C109 1.308 . S
C106 C105 1.373 1_554 S
C106 C107 1.429 . S
C106 H116 0.932 . S
C107 C104 1.358 1_554 S
C107 C106 1.429 . S
C107 H117 0.930 . S
C108 C104 1.332 . S
C108 C109 1.394 . S
C108 H118 0.932 . S
C109 C105 1.308 . S
C109 C108 1.394 . S
C109 H119 0.929 . S
C110 Tb81 2.764 1_556 S
C110 O94 1.239 . S
C110 O95 1.263 1_556 S
C110 C104 1.504 . S
C111 O96 1.236 . S
C111 O97 1.257 . S
H112 C85 0.932 1_556 S
H113 C86 0.930 . S
H114 C87 0.932 . S
H115 C88 0.929 . S
H116 C106 0.932 . S
H117 C107 0.930 . S
H118 C108 0.932 . S
H119 C109 0.929 . S
Tb120 C129 2.764 . S
Tb120 O130 2.325 . S
Tb120 O133 2.303 . S
Tb120 O137 2.322 . S
Tb120 O138 2.349 . S
Tb120 O141 2.415 . S
Tb120 O142 2.399 . S
Tb121 O131 2.322 . S
Tb121 O132 2.349 1_554 S
Tb121 O134 2.415 . S
Tb121 O135 2.399 . S
Tb121 O136 2.325 . S
Tb121 O139 2.303 . S
Tb121 C150 2.764 . S
C122 O138 1.261 . S
C122 O139 1.257 . S
C123 C126 1.358 . S
C123 C127 1.332 . S
C123 C129 1.504 . S
C124 C125 1.373 . S
C124 C128 1.308 . S
C125 C124 1.373 . S
C125 C126 1.429 . S
C125 H152 0.932 . S
C126 C123 1.358 . S
C126 C125 1.429 . S
C126 H153 0.930 . S
C127 C123 1.332 . S
C127 C128 1.394 . S
C127 H154 0.932 1_554 S
C128 C124 1.308 . S
C128 C127 1.394 . S
C128 H155 0.929 1_554 S
C129 Tb120 2.764 . S
C129 C123 1.504 . S
C129 O141 1.239 . S
C129 O142 1.263 . S
O130 Tb120 2.325 . S
O130 C140 1.236 . S
O131 Tb121 2.322 . S
O131 C140 1.257 . S
O132 Tb121 2.349 1_556 S
O132 C143 1.261 . S
O133 Tb120 2.303 . S
O133 C143 1.257 1_554 S
O134 Tb121 2.415 . S
O134 C150 1.239 . S
O135 Tb121 2.399 . S
O135 C150 1.263 . S
O136 Tb121 2.325 . S
O136 C151 1.236 . S
O137 Tb120 2.322 . S
O137 C151 1.257 . S
O138 Tb120 2.349 . S
O138 C122 1.261 . S
O139 Tb121 2.303 . S
O139 C122 1.257 . S
C140 O130 1.236 . S
C140 O131 1.257 . S
O141 Tb120 2.415 . S
O141 C129 1.239 . S
O142 Tb120 2.399 . S
O142 C129 1.263 . S
C143 O132 1.261 . S
C143 O133 1.257 1_556 S
C144 C147 1.358 . S
C144 C148 1.332 . S
C144 C150 1.504 . S
C145 C146 1.373 . S
C145 C149 1.308 . S
C146 C145 1.373 . S
C146 C147 1.429 . S
C146 H156 0.932 . S
C147 C144 1.358 . S
C147 C146 1.429 . S
C147 H157 0.930 . S
C148 C144 1.332 . S
C148 C149 1.394 . S
C148 H158 0.932 . S
C149 C145 1.308 . S
C149 C148 1.394 . S
C149 H159 0.929 . S
C150 Tb121 2.764 . S
C150 O134 1.239 . S
C150 O135 1.263 . S
C150 C144 1.504 . S
C151 O136 1.236 . S
C151 O137 1.257 . S
H152 C125 0.932 . S
H153 C126 0.930 . S
H154 C127 0.932 1_556 S
H155 C128 0.929 1_556 S
H156 C146 0.932 . S
H157 C147 0.930 . S
H158 C148 0.932 . S
H159 C149 0.929 . S
Tb160 C169 2.764 . S
Tb160 O170 2.325 . S
Tb160 O173 2.303 . S
Tb160 O177 2.322 . S
Tb160 O178 2.349 . S
Tb160 O181 2.415 . S
Tb160 O182 2.399 . S
Tb161 O171 2.322 . S
Tb161 O172 2.349 1_554 S
Tb161 O174 2.415 . S
Tb161 O175 2.399 . S
Tb161 O176 2.325 . S
Tb161 O179 2.303 . S
Tb161 C190 2.764 . S
C162 O178 1.261 . S
C162 O179 1.257 . S
C163 C166 1.358 . S
C163 C167 1.332 . S
C163 C169 1.504 . S
C164 C165 1.373 . S
C164 C168 1.308 1_554 S
C165 C164 1.373 . S
C165 C166 1.429 . S
C165 H192 0.932 . S
C166 C163 1.358 . S
C166 C165 1.429 . S
C166 H193 0.930 . S
C167 C163 1.332 . S
C167 C168 1.394 1_554 S
C167 H194 0.932 1_554 S
C168 C164 1.308 1_556 S
C168 C167 1.394 1_556 S
C168 H195 0.929 . S
C169 Tb160 2.764 . S
C169 C163 1.504 . S
C169 O181 1.239 . S
C169 O182 1.263 . S
O170 Tb160 2.325 . S
O170 C180 1.236 . S
O171 Tb161 2.322 . S
O171 C180 1.257 . S
O172 Tb161 2.349 1_556 S
O172 C183 1.261 . S
O173 Tb160 2.303 . S
O173 C183 1.257 1_554 S
O174 Tb161 2.415 . S
O174 C190 1.239 . S
O175 Tb161 2.399 . S
O175 C190 1.263 . S
O176 Tb161 2.325 . S
O176 C191 1.236 . S
O177 Tb160 2.322 . S
O177 C191 1.257 . S
O178 Tb160 2.349 . S
O178 C162 1.261 . S
O179 Tb161 2.303 . S
O179 C162 1.257 . S
C180 O170 1.236 . S
C180 O171 1.257 . S
O181 Tb160 2.415 . S
O181 C169 1.239 . S
O182 Tb160 2.399 . S
O182 C169 1.263 . S
C183 O172 1.261 . S
C183 O173 1.257 1_556 S
C184 C187 1.358 . S
C184 C188 1.332 . S
C184 C190 1.504 . S
C185 C186 1.373 . S
C185 C189 1.308 . S
C186 C185 1.373 . S
C186 C187 1.429 . S
C186 H196 0.932 . S
C187 C184 1.358 . S
C187 C186 1.429 . S
C187 H197 0.930 . S
C188 C184 1.332 . S
C188 C189 1.394 . S
C188 H198 0.932 . S
C189 C185 1.308 . S
C189 C188 1.394 . S
C189 H199 0.929 . S
C190 Tb161 2.764 . S
C190 O174 1.239 . S
C190 O175 1.263 . S
C190 C184 1.504 . S
C191 O176 1.236 . S
C191 O177 1.257 . S
H192 C165 0.932 . S
H193 C166 0.930 . S
H194 C167 0.932 1_556 S
H195 C168 0.929 . S
H196 C186 0.932 . S
H197 C187 0.930 . S
H198 C188 0.932 . S
H199 C189 0.929 . S
Tb200 C209 2.764 . S
Tb200 O210 2.325 . S
Tb200 O213 2.303 . S
Tb200 O217 2.322 . S
Tb200 O218 2.349 . S
Tb200 O221 2.415 . S
Tb200 O222 2.399 . S
Tb201 O211 2.322 . S
Tb201 O212 2.349 . S
Tb201 O214 2.415 . S
Tb201 O215 2.399 . S
Tb201 O216 2.325 . S
Tb201 O219 2.303 . S
Tb201 C230 2.764 1_655 S
C202 O218 1.261 . S
C202 O219 1.257 . S
C203 C206 1.358 . S
C203 C207 1.332 . S
C203 C209 1.504 . S
C204 C205 1.373 . S
C204 C208 1.308 1_554 S
C205 C204 1.373 . S
C205 C206 1.429 . S
C205 H232 0.932 . S
C206 C203 1.358 . S
C206 C205 1.429 . S
C206 H233 0.930 . S
C207 C203 1.332 . S
C207 C208 1.394 1_554 S
C207 H234 0.932 1_554 S
C208 C204 1.308 1_556 S
C208 C207 1.394 1_556 S
C208 H235 0.929 . S
C209 Tb200 2.764 . S
C209 C203 1.504 . S
C209 O221 1.239 . S
C209 O222 1.263 . S
O210 Tb200 2.325 . S
O210 C220 1.236 . S
O211 Tb201 2.322 . S
O211 C220 1.257 . S
O212 Tb201 2.349 . S
O212 C223 1.261 . S
O213 Tb200 2.303 . S
O213 C223 1.257 . S
O214 Tb201 2.415 . S
O214 C230 1.239 1_655 S
O215 Tb201 2.399 . S
O215 C230 1.263 1_655 S
O216 Tb201 2.325 . S
O216 C231 1.236 . S
O217 Tb200 2.322 . S
O217 C231 1.257 . S
O218 Tb200 2.349 . S
O218 C202 1.261 . S
O219 Tb201 2.303 . S
O219 C202 1.257 . S
C220 O210 1.236 . S
C220 O211 1.257 . S
O221 Tb200 2.415 . S
O221 C209 1.239 . S
O222 Tb200 2.399 . S
O222 C209 1.263 . S
C223 O212 1.261 . S
C223 O213 1.257 . S
C224 C227 1.358 . S
C224 C228 1.332 . S
C224 C230 1.504 . S
C225 C226 1.373 . S
C225 C229 1.308 . S
C226 C225 1.373 . S
C226 C227 1.429 . S
C226 H236 0.932 . S
C227 C224 1.358 . S
C227 C226 1.429 . S
C227 H237 0.930 . S
C228 C224 1.332 . S
C228 C229 1.394 . S
C228 H238 0.932 . S
C229 C225 1.308 . S
C229 C228 1.394 . S
C229 H239 0.929 . S
C230 Tb201 2.764 1_455 S
C230 O214 1.239 1_455 S
C230 O215 1.263 1_455 S
C230 C224 1.504 . S
C231 O216 1.236 . S
C231 O217 1.257 . S
H232 C205 0.932 . S
H233 C206 0.930 . S
H234 C207 0.932 1_556 S
H235 C208 0.929 . S
H236 C226 0.932 . S
H237 C227 0.930 . S
H238 C228 0.932 . S
H239 C229 0.929 . S
Tb240 C249 2.764 . S
Tb240 O250 2.325 . S
Tb240 O253 2.303 . S
Tb240 O257 2.322 . S
Tb240 O258 2.349 . S
Tb240 O261 2.415 . S
Tb240 O262 2.399 . S
Tb241 O251 2.322 . S
Tb241 O252 2.349 . S
Tb241 O254 2.415 . S
Tb241 O255 2.399 . S
Tb241 O256 2.325 . S
Tb241 O259 2.303 . S
Tb241 C270 2.764 . S
C242 O258 1.261 . S
C242 O259 1.257 . S
C243 C246 1.358 . S
C243 C247 1.332 . S
C243 C249 1.504 . S
C244 C245 1.373 . S
C244 C248 1.308 . S
C245 C244 1.373 . S
C245 C246 1.429 . S
C245 H272 0.932 . S
C246 C243 1.358 . S
C246 C245 1.429 . S
C246 H273 0.930 . S
C247 C243 1.332 . S
C247 C248 1.394 . S
C247 H274 0.932 . S
C248 C244 1.308 . S
C248 C247 1.394 . S
C248 H275 0.929 . S
C249 Tb240 2.764 . S
C249 C243 1.504 . S
C249 O261 1.239 . S
C249 O262 1.263 . S
O250 Tb240 2.325 . S
O250 C260 1.236 . S
O251 Tb241 2.322 . S
O251 C260 1.257 . S
O252 Tb241 2.349 . S
O252 C263 1.261 . S
O253 Tb240 2.303 . S
O253 C263 1.257 . S
O254 Tb241 2.415 . S
O254 C270 1.239 . S
O255 Tb241 2.399 . S
O255 C270 1.263 . S
O256 Tb241 2.325 . S
O256 C271 1.236 . S
O257 Tb240 2.322 . S
O257 C271 1.257 . S
O258 Tb240 2.349 . S
O258 C242 1.261 . S
O259 Tb241 2.303 . S
O259 C242 1.257 . S
C260 O250 1.236 . S
C260 O251 1.257 . S
O261 Tb240 2.415 . S
O261 C249 1.239 . S
O262 Tb240 2.399 . S
O262 C249 1.263 . S
C263 O252 1.261 . S
C263 O253 1.257 . S
C264 C267 1.358 . S
C264 C268 1.332 . S
C264 C270 1.504 . S
C265 C266 1.373 . S
C265 C269 1.308 . S
C266 C265 1.373 . S
C266 C267 1.429 . S
C266 H276 0.932 1_565 S
C267 C264 1.358 . S
C267 C266 1.429 . S
C267 H277 0.930 . S
C268 C264 1.332 . S
C268 C269 1.394 . S
C268 H278 0.932 . S
C269 C265 1.308 . S
C269 C268 1.394 . S
C269 H279 0.929 . S
C270 Tb241 2.764 . S
C270 O254 1.239 . S
C270 O255 1.263 . S
C270 C264 1.504 . S
C271 O256 1.236 . S
C271 O257 1.257 . S
H272 C245 0.932 . S
H273 C246 0.930 . S
H274 C247 0.932 . S
H275 C248 0.929 . S
H276 C266 0.932 1_545 S
H277 C267 0.930 . S
H278 C268 0.932 . S
H279 C269 0.929 . S
Tb280 C289 2.764 . S
Tb280 O290 2.325 . S
Tb280 O293 2.303 . S
Tb280 O297 2.322 . S
Tb280 O298 2.349 . S
Tb280 O301 2.415 . S
Tb280 O302 2.399 . S
Tb281 O291 2.322 . S
Tb281 O292 2.349 . S
Tb281 O294 2.415 . S
Tb281 O295 2.399 . S
Tb281 O296 2.325 . S
Tb281 O299 2.303 . S
Tb281 C310 2.764 . S
C282 O298 1.261 . S
C282 O299 1.257 . S
C283 C286 1.358 . S
C283 C287 1.332 . S
C283 C289 1.504 . S
C284 C285 1.373 . S
C284 C288 1.308 . S
C285 C284 1.373 . S
C285 C286 1.429 . S
C285 H312 0.932 . S
C286 C283 1.358 . S
C286 C285 1.429 . S
C286 H313 0.930 . S
C287 C283 1.332 . S
C287 C288 1.394 . S
C287 H314 0.932 . S
C288 C284 1.308 . S
C288 C287 1.394 . S
C288 H315 0.929 . S
C289 Tb280 2.764 . S
C289 C283 1.504 . S
C289 O301 1.239 . S
C289 O302 1.263 . S
O290 Tb280 2.325 . S
O290 C300 1.236 . S
O291 Tb281 2.322 . S
O291 C300 1.257 . S
O292 Tb281 2.349 . S
O292 C303 1.261 . S
O293 Tb280 2.303 . S
O293 C303 1.257 . S
O294 Tb281 2.415 . S
O294 C310 1.239 . S
O295 Tb281 2.399 . S
O295 C310 1.263 . S
O296 Tb281 2.325 . S
O296 C311 1.236 . S
O297 Tb280 2.322 . S
O297 C311 1.257 . S
O298 Tb280 2.349 . S
O298 C282 1.261 . S
O299 Tb281 2.303 . S
O299 C282 1.257 . S
C300 O290 1.236 . S
C300 O291 1.257 . S
O301 Tb280 2.415 . S
O301 C289 1.239 . S
O302 Tb280 2.399 . S
O302 C289 1.263 . S
C303 O292 1.261 . S
C303 O293 1.257 . S
C304 C307 1.358 . S
C304 C308 1.332 . S
C304 C310 1.504 . S
C305 C306 1.373 . S
C305 C309 1.308 . S
C306 C305 1.373 . S
C306 C307 1.429 . S
C306 H316 0.932 . S
C307 C304 1.358 . S
C307 C306 1.429 . S
C307 H317 0.930 . S
C308 C304 1.332 . S
C308 C309 1.394 . S
C308 H318 0.932 . S
C309 C305 1.308 . S
C309 C308 1.394 . S
C309 H319 0.929 . S
C310 Tb281 2.764 . S
C310 O294 1.239 . S
C310 O295 1.263 . S
C310 C304 1.504 . S
C311 O296 1.236 . S
C311 O297 1.257 . S
H312 C285 0.932 . S
H313 C286 0.930 . S
H314 C287 0.932 . S
H315 C288 0.929 . S
H316 C306 0.932 . S
H317 C307 0.930 . S
H318 C308 0.932 . S
H319 C309 0.929 . S
Tb320 C329 2.764 . S
Tb320 O330 2.325 . S
Tb320 O333 2.303 . S
Tb320 O337 2.322 . S
Tb320 O338 2.349 . S
Tb320 O341 2.415 . S
Tb320 O342 2.399 . S
Tb321 O331 2.322 . S
Tb321 O332 2.349 . S
Tb321 O334 2.415 . S
Tb321 O335 2.399 . S
Tb321 O336 2.325 . S
Tb321 O339 2.303 . S
Tb321 C350 2.764 . S
C322 O338 1.261 . S
C322 O339 1.257 . S
C323 C326 1.358 . S
C323 C327 1.332 . S
C323 C329 1.504 . S
C324 C325 1.373 . S
C324 C328 1.308 . S
C325 C324 1.373 . S
C325 C326 1.429 . S
C325 H352 0.932 . S
C326 C323 1.358 . S
C326 C325 1.429 . S
C326 H353 0.930 . S
C327 C323 1.332 . S
C327 C328 1.394 . S
C327 H354 0.932 . S
C328 C324 1.308 . S
C328 C327 1.394 . S
C328 H355 0.929 1_556 S
C329 Tb320 2.764 . S
C329 C323 1.504 . S
C329 O341 1.239 . S
C329 O342 1.263 . S
O330 Tb320 2.325 . S
O330 C340 1.236 . S
O331 Tb321 2.322 . S
O331 C340 1.257 . S
O332 Tb321 2.349 . S
O332 C343 1.261 . S
O333 Tb320 2.303 . S
O333 C343 1.257 . S
O334 Tb321 2.415 . S
O334 C350 1.239 . S
O335 Tb321 2.399 . S
O335 C350 1.263 . S
O336 Tb321 2.325 . S
O336 C351 1.236 . S
O337 Tb320 2.322 . S
O337 C351 1.257 . S
O338 Tb320 2.349 . S
O338 C322 1.261 . S
O339 Tb321 2.303 . S
O339 C322 1.257 . S
C340 O330 1.236 . S
C340 O331 1.257 . S
O341 Tb320 2.415 . S
O341 C329 1.239 . S
O342 Tb320 2.399 . S
O342 C329 1.263 . S
C343 O332 1.261 . S
C343 O333 1.257 . S
C344 C347 1.358 . S
C344 C348 1.332 . S
C344 C350 1.504 . S
C345 C346 1.373 . S
C345 C349 1.308 . S
C346 C345 1.373 . S
C346 C347 1.429 . S
C346 H356 0.932 . S
C347 C344 1.358 . S
C347 C346 1.429 . S
C347 H357 0.930 . S
C348 C344 1.332 . S
C348 C349 1.394 . S
C348 H358 0.932 . S
C349 C345 1.308 . S
C349 C348 1.394 . S
C349 H359 0.929 . S
C350 Tb321 2.764 . S
C350 O334 1.239 . S
C350 O335 1.263 . S
C350 C344 1.504 . S
C351 O336 1.236 . S
C351 O337 1.257 . S
H352 C325 0.932 . S
H353 C326 0.930 . S
H354 C327 0.932 . S
H355 C328 0.929 1_554 S
H356 C346 0.932 . S
H357 C347 0.930 . S
H358 C348 0.932 . S
H359 C349 0.929 . S
H360 C368 0.950 . S
H361 C373 0.950 1_556 S
H362 C370 0.950 . S
H363 C372 0.950 . S
H364 C374 0.950 . S
H365 C376 0.950 . S
H366 C378 0.950 1_554 S
H367 C379 0.950 . S
C368 H360 0.950 . S
C368 C369 1.386 . S
C368 C370 1.391 . S
C369 C368 1.386 . S
C369 C373 1.393 . S
C370 H362 0.950 . S
C370 C368 1.391 . S
C370 C371 1.400 1_554 S
C371 C370 1.400 1_556 S
C371 C372 1.398 . S
C371 C377 1.491 . S
C372 H363 0.950 . S
C372 C371 1.398 . S
C372 C373 1.391 1_556 S
C373 H361 0.950 1_554 S
C373 C369 1.393 . S
C373 C372 1.391 1_554 S
C374 H364 0.950 . S
C374 C375 1.386 . S
C374 C376 1.391 . S
C375 C374 1.386 . S
C375 C379 1.393 . S
C376 H365 0.950 . S
C376 C374 1.391 . S
C376 C377 1.400 . S
C377 C371 1.491 . S
C377 C376 1.400 . S
C377 C378 1.398 . S
C378 H366 0.950 1_556 S
C378 C377 1.398 . S
C378 C379 1.391 . S
C379 H367 0.950 . S
C379 C375 1.393 . S
C379 C378 1.391 . S
H380 C388 0.950 . S
H381 C393 0.950 . S
H382 C390 0.950 . S
H383 C392 0.950 . S
H384 C394 0.950 . S
H385 C396 0.950 . S
H386 C398 0.950 . S
H387 C399 0.950 . S
C388 H380 0.950 . S
C388 C389 1.386 1_556 S
C388 C390 1.391 . S
C389 C388 1.386 1_554 S
C389 C393 1.393 . S
C390 H382 0.950 . S
C390 C388 1.391 . S
C390 C391 1.400 . S
C391 C390 1.400 . S
C391 C392 1.398 . S
C391 C397 1.491 . S
C392 H383 0.950 . S
C392 C391 1.398 . S
C392 C393 1.391 1_556 S
C393 H381 0.950 . S
C393 C389 1.393 . S
C393 C392 1.391 1_554 S
C394 H384 0.950 . S
C394 C395 1.386 . S
C394 C396 1.391 . S
C395 C394 1.386 . S
C395 C399 1.393 . S
C396 H385 0.950 . S
C396 C394 1.391 . S
C396 C397 1.400 . S
C397 C391 1.491 . S
C397 C396 1.400 . S
C397 C398 1.398 . S
C398 H386 0.950 . S
C398 C397 1.398 . S
C398 C399 1.391 . S
C399 H387 0.950 . S
C399 C395 1.393 . S
C399 C398 1.391 . S
H400 C408 0.950 . S
H401 C413 0.950 . S
H402 C410 0.950 . S
H403 C412 0.950 . S
H404 C414 0.950 . S
H405 C416 0.950 . S
H406 C418 0.950 . S
H407 C419 0.950 . S
C408 H400 0.950 . S
C408 C409 1.386 . S
C408 C410 1.391 . S
C409 C408 1.386 . S
C409 C413 1.393 . S
C410 H402 0.950 . S
C410 C408 1.391 . S
C410 C411 1.400 . S
C411 C410 1.400 . S
C411 C412 1.398 . S
C411 C417 1.491 . S
C412 H403 0.950 . S
C412 C411 1.398 . S
C412 C413 1.391 . S
C413 H401 0.950 . S
C413 C409 1.393 . S
C413 C412 1.391 . S
C414 H404 0.950 . S
C414 C415 1.386 . S
C414 C416 1.391 . S
C415 C414 1.386 . S
C415 C419 1.393 . S
C416 H405 0.950 . S
C416 C414 1.391 . S
C416 C417 1.400 . S
C417 C411 1.491 . S
C417 C416 1.400 . S
C417 C418 1.398 . S
C418 H406 0.950 . S
C418 C417 1.398 . S
C418 C419 1.391 . S
C419 H407 0.950 . S
C419 C415 1.393 . S
C419 C418 1.391 . S
H420 C428 0.950 . S
H421 C433 0.950 . S
H422 C430 0.950 . S
H423 C432 0.950 . S
H424 C434 0.950 . S
H425 C436 0.950 . S
H426 C438 0.950 . S
H427 C439 0.950 . S
C428 H420 0.950 . S
C428 C429 1.386 . S
C428 C430 1.391 . S
C429 C428 1.386 . S
C429 C433 1.393 . S
C430 H422 0.950 . S
C430 C428 1.391 . S
C430 C431 1.400 . S
C431 C430 1.400 . S
C431 C432 1.398 . S
C431 C437 1.491 . S
C432 H423 0.950 . S
C432 C431 1.398 . S
C432 C433 1.391 . S
C433 H421 0.950 . S
C433 C429 1.393 . S
C433 C432 1.391 . S
C434 H424 0.950 . S
C434 C435 1.386 . S
C434 C436 1.391 . S
C435 C434 1.386 . S
C435 C439 1.393 . S
C436 H425 0.950 . S
C436 C434 1.391 . S
C436 C437 1.400 . S
C437 C431 1.491 . S
C437 C436 1.400 . S
C437 C438 1.398 . S
C438 H426 0.950 . S
C438 C437 1.398 . S
C438 C439 1.391 . S
C439 H427 0.950 . S
C439 C435 1.393 . S
C439 C438 1.391 . S
H440 C448 0.950 . S
H441 C453 0.950 . S
H442 C450 0.950 . S
H443 C452 0.950 . S
H444 C454 0.950 1_556 S
H445 C456 0.950 . S
H446 C458 0.950 . S
H447 C459 0.950 . S
C448 H440 0.950 . S
C448 C449 1.386 . S
C448 C450 1.391 . S
C449 C448 1.386 . S
C449 C453 1.393 . S
C450 H442 0.950 . S
C450 C448 1.391 . S
C450 C451 1.400 . S
C451 C450 1.400 . S
C451 C452 1.398 . S
C451 C457 1.491 . S
C452 H443 0.950 . S
C452 C451 1.398 . S
C452 C453 1.391 . S
C453 H441 0.950 . S
C453 C449 1.393 . S
C453 C452 1.391 . S
C454 H444 0.950 1_554 S
C454 C455 1.386 1_655 S
C454 C456 1.391 . S
C455 C454 1.386 1_455 S
C455 C459 1.393 . S
C456 H445 0.950 . S
C456 C454 1.391 . S
C456 C457 1.400 . S
C457 C451 1.491 . S
C457 C456 1.400 . S
C457 C458 1.398 1_655 S
C458 H446 0.950 . S
C458 C457 1.398 1_455 S
C458 C459 1.391 . S
C459 H447 0.950 . S
C459 C455 1.393 . S
C459 C458 1.391 . S
H460 C468 0.950 1_556 S
H461 C473 0.950 . S
H462 C470 0.950 . S
H463 C472 0.950 . S
H464 C474 0.950 . S
H465 C476 0.950 . S
H466 C478 0.950 . S
H467 C479 0.950 . S
C468 H460 0.950 1_554 S
C468 C469 1.386 . S
C468 C470 1.391 . S
C469 C468 1.386 . S
C469 C473 1.393 . S
C470 H462 0.950 . S
C470 C468 1.391 . S
C470 C471 1.400 . S
C471 C470 1.400 . S
C471 C472 1.398 . S
C471 C477 1.491 . S
C472 H463 0.950 . S
C472 C471 1.398 . S
C472 C473 1.391 . S
C473 H461 0.950 . S
C473 C469 1.393 . S
C473 C472 1.391 . S
C474 H464 0.950 . S
C474 C475 1.386 . S
C474 C476 1.391 . S
C475 C474 1.386 . S
C475 C479 1.393 . S
C476 H465 0.950 . S
C476 C474 1.391 . S
C476 C477 1.400 . S
C477 C471 1.491 . S
C477 C476 1.400 . S
C477 C478 1.398 . S
C478 H466 0.950 . S
C478 C477 1.398 . S
C478 C479 1.391 . S
C479 H467 0.950 . S
C479 C475 1.393 . S
C479 C478 1.391 . S
H480 C488 0.950 . S
H481 C493 0.950 . S
H482 C490 0.950 . S
H483 C492 0.950 . S
H484 C494 0.950 . S
H485 C496 0.950 . S
H486 C498 0.950 . S
H487 C499 0.950 . S
C488 H480 0.950 . S
C488 C489 1.386 . S
C488 C490 1.391 . S
C489 C488 1.386 . S
C489 C493 1.393 . S
C490 H482 0.950 . S
C490 C488 1.391 . S
C490 C491 1.400 . S
C491 C490 1.400 . S
C491 C492 1.398 . S
C491 C497 1.491 . S
C492 H483 0.950 . S
C492 C491 1.398 . S
C492 C493 1.391 . S
C493 H481 0.950 . S
C493 C489 1.393 . S
C493 C492 1.391 . S
C494 H484 0.950 . S
C494 C495 1.386 . S
C494 C496 1.391 . S
C495 C494 1.386 . S
C495 C499 1.393 . S
C496 H485 0.950 . S
C496 C494 1.391 . S
C496 C497 1.400 . S
C497 C491 1.491 . S
C497 C496 1.400 . S
C497 C498 1.398 . S
C498 H486 0.950 . S
C498 C497 1.398 . S
C498 C499 1.391 . S
C499 H487 0.950 . S
C499 C495 1.393 . S
C499 C498 1.391 . S
H500 C508 0.950 . S
H501 C513 0.950 . S
H502 C510 0.950 . S
H503 C512 0.950 . S
H504 C514 0.950 . S
H505 C516 0.950 . S
H506 C518 0.950 . S
H507 C519 0.950 . S
C508 H500 0.950 . S
C508 C509 1.386 . S
C508 C510 1.391 . S
C509 C508 1.386 . S
C509 C513 1.393 . S
C510 H502 0.950 . S
C510 C508 1.391 . S
C510 C511 1.400 . S
C511 C510 1.400 . S
C511 C512 1.398 . S
C511 C517 1.491 . S
C512 H503 0.950 . S
C512 C511 1.398 . S
C512 C513 1.391 . S
C513 H501 0.950 . S
C513 C509 1.393 . S
C513 C512 1.391 . S
C514 H504 0.950 . S
C514 C515 1.386 . S
C514 C516 1.391 . S
C515 C514 1.386 . S
C515 C519 1.393 . S
C516 H505 0.950 . S
C516 C514 1.391 . S
C516 C517 1.400 . S
C517 C511 1.491 . S
C517 C516 1.400 . S
C517 C518 1.398 . S
C518 H506 0.950 . S
C518 C517 1.398 . S
C518 C519 1.391 . S
C519 H507 0.950 . S
C519 C515 1.393 . S
C519 C518 1.391 . S
H520 C528 0.950 . S
H521 C533 0.950 . S
H522 C530 0.950 . S
H523 C532 0.950 . S
H524 C534 0.887 1_565 S
H525 C536 0.950 . S
H526 C538 0.950 . S
H527 C539 0.950 . S
C528 H520 0.950 . S
C528 C529 1.386 . S
C528 C530 1.391 . S
C529 C528 1.386 . S
C529 C533 1.393 . S
C530 H522 0.950 . S
C530 C528 1.391 . S
C530 C531 1.400 . S
C531 C530 1.400 . S
C531 C532 1.398 . S
C531 C537 1.491 . S
C532 H523 0.950 . S
C532 C531 1.398 . S
C532 C533 1.391 . S
C533 H521 0.950 . S
C533 C529 1.393 . S
C533 C532 1.391 . S
C534 H524 0.887 1_545 S
C534 C535 1.386 . S
C534 C536 1.391 . S
C535 C534 1.386 . S
C535 C539 1.393 . S
C536 H525 0.950 . S
C536 C534 1.391 . S
C536 C537 1.400 . S
C537 C531 1.491 . S
C537 C536 1.400 . S
C537 C538 1.398 . S
C538 H526 0.950 . S
C538 C537 1.398 . S
C538 C539 1.391 . S
C539 H527 0.950 . S
C539 C535 1.393 . S
C539 C538 1.391 . S
H540 C548 0.950 . S
H541 C553 0.950 . S
H542 C550 0.950 . S
H543 C552 0.950 . S
H544 C554 0.950 . S
H545 C556 0.950 . S
H546 C558 0.950 . S
H547 C559 0.950 . S
C548 H540 0.950 . S
C548 C549 1.386 . S
C548 C550 1.391 . S
C549 C548 1.386 . S
C549 C553 1.393 . S
C550 H542 0.950 . S
C550 C548 1.391 . S
C550 C551 1.400 . S
C551 C550 1.400 . S
C551 C552 1.398 . S
C551 C557 1.491 . S
C552 H543 0.950 . S
C552 C551 1.398 . S
C552 C553 1.391 . S
C553 H541 0.950 . S
C553 C549 1.393 . S
C553 C552 1.391 . S
C554 H544 0.950 . S
C554 C555 1.386 . S
C554 C556 1.391 . S
C555 C554 1.386 . S
C555 C559 1.393 . S
C556 H545 0.950 . S
C556 C554 1.391 . S
C556 C557 1.400 . S
C557 C551 1.491 . S
C557 C556 1.400 . S
C557 C558 1.398 . S
C558 H546 0.950 . S
C558 C557 1.398 . S
C558 C559 1.391 . S
C559 H547 0.950 . S
C559 C555 1.393 . S
C559 C558 1.391 . S
H560 C568 0.950 . S
H561 C573 0.950 . S
H562 C570 0.950 . S
H563 C572 0.950 1_556 S
H564 C574 0.950 . S
H565 C576 0.950 1_566 S
H566 C578 0.950 . S
H567 C579 0.950 . S
C568 H560 0.950 . S
C568 C569 1.386 . S
C568 C570 1.391 . S
C569 C568 1.386 . S
C569 C573 1.393 1_554 S
C570 H562 0.950 . S
C570 C568 1.391 . S
C570 C571 1.400 . S
C571 C570 1.400 . S
C571 C572 1.398 . S
C571 C577 1.491 1_565 S
C572 H563 0.950 1_554 S
C572 C571 1.398 . S
C572 C573 1.391 1_554 S
C573 H561 0.950 . S
C573 C569 1.393 1_556 S
C573 C572 1.391 1_556 S
C574 H564 0.950 . S
C574 C575 1.386 . S
C574 C576 1.391 . S
C575 C574 1.386 . S
C575 C579 1.393 . S
C576 H565 0.950 1_544 S
C576 C574 1.391 . S
C576 C577 1.400 . S
C577 C571 1.491 1_545 S
C577 C576 1.400 . S
C577 C578 1.398 . S
C578 H566 0.950 . S
C578 C577 1.398 . S
C578 C579 1.391 . S
C579 H567 0.950 . S
C579 C575 1.393 . S
C579 C578 1.391 . S
H580 C588 0.950 . S
H581 C593 0.950 . S
H582 C590 0.950 . S
H583 C592 0.950 . S
H584 C594 0.950 . S
H585 C596 0.950 . S
H586 C598 0.950 . S
H587 C599 0.950 . S
C588 H580 0.950 . S
C588 C589 1.386 . S
C588 C590 1.391 1_655 S
C589 C588 1.386 . S
C589 C593 1.393 1_655 S
C590 H582 0.950 . S
C590 C588 1.391 1_455 S
C590 C591 1.400 . S
C591 C590 1.400 . S
C591 C592 1.398 . S
C591 C597 1.491 . S
C592 H583 0.950 . S
C592 C591 1.398 . S
C592 C593 1.391 . S
C593 H581 0.950 . S
C593 C589 1.393 1_455 S
C593 C592 1.391 . S
C594 H584 0.950 . S
C594 C595 1.386 . S
C594 C596 1.391 . S
C595 C594 1.386 . S
C595 C599 1.393 . S
C596 H585 0.950 . S
C596 C594 1.391 . S
C596 C597 1.400 . S
C597 C591 1.491 . S
C597 C596 1.400 . S
C597 C598 1.398 . S
C598 H586 0.950 . S
C598 C597 1.398 . S
C598 C599 1.391 . S
C599 H587 0.950 . S
C599 C595 1.393 . S
C599 C598 1.391 . S
H600 C608 0.950 . S
H601 C613 0.950 1_556 S
H602 C610 0.950 . S
H603 C612 0.950 . S
H604 C614 0.950 . S
H605 C616 0.950 . S
H606 C618 0.950 . S
H607 C619 0.950 . S
C608 H600 0.950 . S
C608 C609 1.386 . S
C608 C610 1.391 . S
C609 C608 1.386 . S
C609 C613 1.393 . S
C610 H602 0.950 . S
C610 C608 1.391 . S
C610 C611 1.400 . S
C611 C610 1.400 . S
C611 C612 1.398 . S
C611 C617 1.491 . S
C612 H603 0.950 . S
C612 C611 1.398 . S
C612 C613 1.391 . S
C613 H601 0.950 1_554 S
C613 C609 1.393 . S
C613 C612 1.391 . S
C614 H604 0.950 . S
C614 C615 1.386 . S
C614 C616 1.391 . S
C615 C614 1.386 . S
C615 C619 1.393 . S
C616 H605 0.950 . S
C616 C614 1.391 . S
C616 C617 1.400 . S
C617 C611 1.491 . S
C617 C616 1.400 . S
C617 C618 1.398 . S
C618 H606 0.950 . S
C618 C617 1.398 . S
C618 C619 1.391 . S
C619 H607 0.950 . S
C619 C615 1.393 . S
C619 C618 1.391 . S
H620 C628 0.950 1_556 S
H621 C633 0.950 . S
H622 C630 0.950 1_556 S
H623 C632 0.950 . S
H624 C634 0.950 . S
H625 C636 0.950 . S
H626 C638 0.950 1_556 S
H627 C639 0.950 . S
C628 H620 0.950 1_554 S
C628 C629 1.386 . S
C628 C630 1.391 . S
C629 C628 1.386 . S
C629 C633 1.393 . S
C630 H622 0.950 1_554 S
C630 C628 1.391 . S
C630 C631 1.400 . S
C631 C630 1.400 . S
C631 C632 1.398 . S
C631 C637 1.491 . S
C632 H623 0.950 . S
C632 C631 1.398 . S
C632 C633 1.391 . S
C633 H621 0.950 . S
C633 C629 1.393 . S
C633 C632 1.391 . S
C634 H624 0.950 . S
C634 C635 1.386 . S
C634 C636 1.391 . S
C635 C634 1.386 . S
C635 C639 1.393 1_554 S
C636 H625 0.950 . S
C636 C634 1.391 . S
C636 C637 1.400 . S
C637 C631 1.491 . S
C637 C636 1.400 . S
C637 C638 1.398 . S
C638 H626 0.950 1_554 S
C638 C637 1.398 . S
C638 C639 1.391 1_554 S
C639 H627 0.950 . S
C639 C635 1.393 1_556 S
C639 C638 1.391 1_556 S
H640 C648 0.950 . S
H641 C653 0.950 . S
H642 C650 0.950 . S
H643 C652 0.950 . S
H644 C654 0.950 . S
H645 C656 0.950 . S
H646 C658 0.950 . S
H647 C659 0.950 . S
C648 H640 0.950 . S
C648 C649 1.386 . S
C648 C650 1.391 . S
C649 C648 1.386 . S
C649 C653 1.393 . S
C650 H642 0.950 . S
C650 C648 1.391 . S
C650 C651 1.400 . S
C651 C650 1.400 . S
C651 C652 1.398 . S
C651 C657 1.491 . S
C652 H643 0.950 . S
C652 C651 1.398 . S
C652 C653 1.391 . S
C653 H641 0.950 . S
C653 C649 1.393 . S
C653 C652 1.391 . S
C654 H644 0.950 . S
C654 C655 1.386 . S
C654 C656 1.391 . S
C655 C654 1.386 . S
C655 C659 1.393 . S
C656 H645 0.950 . S
C656 C654 1.391 . S
C656 C657 1.400 . S
C657 C651 1.491 . S
C657 C656 1.400 . S
C657 C658 1.398 . S
C658 H646 0.950 . S
C658 C657 1.398 . S
C658 C659 1.391 . S
C659 H647 0.950 . S
C659 C655 1.393 . S
C659 C658 1.391 . S
H660 C668 0.950 . S
H661 C673 0.950 . S
H662 C670 0.950 . S
H663 C672 0.950 . S
H664 C674 0.950 . S
H665 C676 0.950 . S
H666 C678 0.950 . S
H667 C679 0.950 . S
C668 H660 0.950 . S
C668 C669 1.386 . S
C668 C670 1.391 . S
C669 C668 1.386 . S
C669 C673 1.393 . S
C670 H662 0.950 . S
C670 C668 1.391 . S
C670 C671 1.400 . S
C671 C670 1.400 . S
C671 C672 1.398 . S
C671 C677 1.491 . S
C672 H663 0.950 . S
C672 C671 1.398 . S
C672 C673 1.391 . S
C673 H661 0.950 . S
C673 C669 1.393 . S
C673 C672 1.391 . S
C674 H664 0.950 . S
C674 C675 1.386 . S
C674 C676 1.391 . S
C675 C674 1.386 . S
C675 C679 1.393 . S
C676 H665 0.950 . S
C676 C674 1.391 . S
C676 C677 1.400 . S
C677 C671 1.491 . S
C677 C676 1.400 . S
C677 C678 1.398 . S
C678 H666 0.950 . S
C678 C677 1.398 . S
C678 C679 1.391 . S
C679 H667 0.950 . S
C679 C675 1.393 . S
C679 C678 1.391 . S
H680 C688 0.950 . S
H681 C693 0.950 . S
H682 C690 0.950 . S
H683 C692 0.950 . S
H684 C694 0.950 . S
H685 C696 0.950 . S
H686 C698 0.950 . S
H687 C699 0.950 . S
C688 H680 0.950 . S
C688 C689 1.386 . S
C688 C690 1.391 . S
C689 C688 1.386 . S
C689 C693 1.393 . S
C690 H682 0.950 . S
C690 C688 1.391 . S
C690 C691 1.400 . S
C691 C690 1.400 . S
C691 C692 1.398 . S
C691 C697 1.491 . S
C692 H683 0.950 . S
C692 C691 1.398 . S
C692 C693 1.391 . S
C693 H681 0.950 . S
C693 C689 1.393 . S
C693 C692 1.391 . S
C694 H684 0.950 . S
C694 C695 1.386 . S
C694 C696 1.391 . S
C695 C694 1.386 . S
C695 C699 1.393 . S
C696 H685 0.950 . S
C696 C694 1.391 . S
C696 C697 1.400 . S
C697 C691 1.491 . S
C697 C696 1.400 . S
C697 C698 1.398 . S
C698 H686 0.950 . S
C698 C697 1.398 . S
C698 C699 1.391 . S
C699 H687 0.950 . S
C699 C695 1.393 . S
C699 C698 1.391 . S
H700 C708 0.950 . S
H701 C713 0.950 . S
H702 C710 0.950 . S
H703 C712 0.950 . S
H704 C714 0.950 . S
H705 C716 0.950 . S
H706 C718 0.950 . S
H707 C719 0.950 . S
C708 H700 0.950 . S
C708 C709 1.386 . S
C708 C710 1.391 . S
C709 C708 1.386 . S
C709 C713 1.393 . S
C710 H702 0.950 . S
C710 C708 1.391 . S
C710 C711 1.400 . S
C711 C710 1.400 . S
C711 C712 1.398 . S
C711 C717 1.491 . S
C712 H703 0.950 . S
C712 C711 1.398 . S
C712 C713 1.391 . S
C713 H701 0.950 . S
C713 C709 1.393 . S
C713 C712 1.391 . S
C714 H704 0.950 . S
C714 C715 1.386 . S
C714 C716 1.391 . S
C715 C714 1.386 . S
C715 C719 1.393 . S
C716 H705 0.950 . S
C716 C714 1.391 . S
C716 C717 1.400 . S
C717 C711 1.491 . S
C717 C716 1.400 . S
C717 C718 1.398 . S
C718 H706 0.950 . S
C718 C717 1.398 . S
C718 C719 1.391 . S
C719 H707 0.950 . S
C719 C715 1.393 . S
C719 C718 1.391 . S
H720 C728 0.950 . S
H721 C733 0.950 . S
H722 C730 0.950 . S
H723 C732 0.950 . S
H724 C734 0.950 . S
H725 C736 0.950 . S
H726 C738 0.950 . S
H727 C739 0.950 . S
C728 H720 0.950 . S
C728 C729 1.386 . S
C728 C730 1.391 . S
C729 C728 1.386 . S
C729 C733 1.393 . S
C730 H722 0.950 . S
C730 C728 1.391 . S
C730 C731 1.400 . S
C731 C730 1.400 . S
C731 C732 1.398 . S
C731 C737 1.491 . S
C732 H723 0.950 . S
C732 C731 1.398 . S
C732 C733 1.391 . S
C733 H721 0.950 . S
C733 C729 1.393 . S
C733 C732 1.391 . S
C734 H724 0.950 . S
C734 C735 1.386 . S
C734 C736 1.391 . S
C735 C734 1.386 . S
C735 C739 1.393 . S
C736 H725 0.950 . S
C736 C734 1.391 . S
C736 C737 1.400 . S
C737 C731 1.491 . S
C737 C736 1.400 . S
C737 C738 1.398 . S
C738 H726 0.950 . S
C738 C737 1.398 . S
C738 C739 1.391 . S
C739 H727 0.950 . S
C739 C735 1.393 . S
C739 C738 1.391 . S
H740 C748 0.950 . S
H741 C753 0.950 . S
H742 C750 0.950 . S
H743 C752 0.950 . S
H744 C754 0.950 . S
H745 C756 0.950 . S
H746 C758 0.950 . S
H747 C759 0.950 . S
C748 H740 0.950 . S
C748 C749 1.386 . S
C748 C750 1.391 . S
C749 C748 1.386 . S
C749 C753 1.393 . S
C750 H742 0.950 . S
C750 C748 1.391 . S
C750 C751 1.400 . S
C751 C750 1.400 . S
C751 C752 1.398 . S
C751 C757 1.491 . S
C752 H743 0.950 . S
C752 C751 1.398 . S
C752 C753 1.391 . S
C753 H741 0.950 . S
C753 C749 1.393 . S
C753 C752 1.391 . S
C754 H744 0.950 . S
C754 C755 1.386 . S
C754 C756 1.391 . S
C755 C754 1.386 . S
C755 C759 1.393 . S
C756 H745 0.950 . S
C756 C754 1.391 . S
C756 C757 1.400 . S
C757 C751 1.491 . S
C757 C756 1.400 . S
C757 C758 1.398 . S
C758 H746 0.950 . S
C758 C757 1.398 . S
C758 C759 1.391 . S
C759 H747 0.950 . S
C759 C755 1.393 . S
C759 C758 1.391 . S
H760 C768 0.950 . S
H761 C773 0.950 . S
H762 C770 0.950 . S
H763 C772 0.950 . S
H764 C774 0.950 . S
H765 C776 0.950 . S
H766 C778 0.950 . S
H767 C779 0.950 . S
C768 H760 0.950 . S
C768 C769 1.386 1_565 S
C768 C770 1.391 . S
C769 C768 1.386 1_545 S
C769 C773 1.393 . S
C770 H762 0.950 . S
C770 C768 1.391 . S
C770 C771 1.400 1_565 S
C771 C770 1.400 1_545 S
C771 C772 1.398 . S
C771 C777 1.491 . S
C772 H763 0.950 . S
C772 C771 1.398 . S
C772 C773 1.391 . S
C773 H761 0.950 . S
C773 C769 1.393 . S
C773 C772 1.391 . S
C774 H764 0.950 . S
C774 C775 1.386 . S
C774 C776 1.391 . S
C775 C774 1.386 . S
C775 C779 1.393 1_545 S
C776 H765 0.950 . S
C776 C774 1.391 . S
C776 C777 1.400 . S
C777 C771 1.491 . S
C777 C776 1.400 . S
C777 C778 1.398 1_545 S
C778 H766 0.950 . S
C778 C777 1.398 1_565 S
C778 C779 1.391 . S
C779 H767 0.950 . S
C779 C775 1.393 1_565 S
C779 C778 1.391 . S
H780 C788 0.950 . S
H781 C793 0.950 . S
H782 C790 0.950 . S
H783 C792 0.950 . S
H784 C794 0.950 . S
H785 C796 0.950 . S
H786 C798 0.950 . S
H787 C799 0.950 . S
C788 H780 0.950 . S
C788 C789 1.386 . S
C788 C790 1.391 . S
C789 C788 1.386 . S
C789 C793 1.393 . S
C790 H782 0.950 . S
C790 C788 1.391 . S
C790 C791 1.400 . S
C791 C790 1.400 . S
C791 C792 1.398 . S
C791 C797 1.491 . S
C792 H783 0.950 . S
C792 C791 1.398 . S
C792 C793 1.391 . S
C793 H781 0.950 . S
C793 C789 1.393 . S
C793 C792 1.391 . S
C794 H784 0.950 . S
C794 C795 1.386 . S
C794 C796 1.391 . S
C795 C794 1.386 . S
C795 C799 1.393 . S
C796 H785 0.950 . S
C796 C794 1.391 . S
C796 C797 1.400 . S
C797 C791 1.491 . S
C797 C796 1.400 . S
C797 C798 1.398 . S
C798 H786 0.950 . S
C798 C797 1.398 . S
C798 C799 1.391 . S
C799 H787 0.950 . S
C799 C795 1.393 . S
C799 C798 1.391 . S
H800 C808 0.950 . S
H801 C813 0.950 . S
H802 C810 0.950 . S
H803 C812 0.950 . S
H804 C814 0.950 . S
H805 C816 0.950 . S
H806 C818 0.950 . S
H807 C819 0.950 . S
C808 H800 0.950 . S
C808 C809 1.386 . S
C808 C810 1.391 . S
C809 C808 1.386 . S
C809 C813 1.393 . S
C810 H802 0.950 . S
C810 C808 1.391 . S
C810 C811 1.400 . S
C811 C810 1.400 . S
C811 C812 1.398 . S
C811 C817 1.491 . S
C812 H803 0.950 . S
C812 C811 1.398 . S
C812 C813 1.391 . S
C813 H801 0.950 . S
C813 C809 1.393 . S
C813 C812 1.391 . S
C814 H804 0.950 . S
C814 C815 1.386 . S
C814 C816 1.391 . S
C815 C814 1.386 . S
C815 C819 1.393 . S
C816 H805 0.950 . S
C816 C814 1.391 . S
C816 C817 1.400 . S
C817 C811 1.491 . S
C817 C816 1.400 . S
C817 C818 1.398 . S
C818 H806 0.950 . S
C818 C817 1.398 . S
C818 C819 1.391 . S
C819 H807 0.950 . S
C819 C815 1.393 . S
C819 C818 1.391 . S
H820 C828 0.950 . S
H821 C833 0.950 . S
H822 C830 0.950 . S
H823 C832 0.950 . S
H824 C834 0.950 . S
H825 C836 0.950 . S
H826 C838 0.950 . S
H827 C839 0.950 . S
C828 H820 0.950 . S
C828 C829 1.386 . S
C828 C830 1.391 . S
C829 C828 1.386 . S
C829 C833 1.393 . S
C830 H822 0.950 . S
C830 C828 1.391 . S
C830 C831 1.400 . S
C831 C830 1.400 . S
C831 C832 1.398 . S
C831 C837 1.491 . S
C832 H823 0.950 . S
C832 C831 1.398 . S
C832 C833 1.391 . S
C833 H821 0.950 . S
C833 C829 1.393 . S
C833 C832 1.391 . S
C834 H824 0.950 . S
C834 C835 1.386 . S
C834 C836 1.391 . S
C835 C834 1.386 . S
C835 C839 1.393 . S
C836 H825 0.950 . S
C836 C834 1.391 . S
C836 C837 1.400 . S
C837 C831 1.491 . S
C837 C836 1.400 . S
C837 C838 1.398 . S
C838 H826 0.950 . S
C838 C837 1.398 . S
C838 C839 1.391 . S
C839 H827 0.950 . S
C839 C835 1.393 . S
C839 C838 1.391 . S
H840 C848 0.950 . S
H841 C853 0.950 . S
H842 C850 0.950 . S
H843 C852 0.950 . S
H844 C854 0.950 1_556 S
H845 C856 0.950 . S
H846 C858 0.950 . S
H847 C859 0.950 . S
C848 H840 0.950 . S
C848 C849 1.386 . S
C848 C850 1.391 . S
C849 C848 1.386 . S
C849 C853 1.393 . S
C850 H842 0.950 . S
C850 C848 1.391 . S
C850 C851 1.400 . S
C851 C850 1.400 . S
C851 C852 1.398 . S
C851 C857 1.491 . S
C852 H843 0.950 . S
C852 C851 1.398 . S
C852 C853 1.391 . S
C853 H841 0.950 . S
C853 C849 1.393 . S
C853 C852 1.391 . S
C854 H844 0.950 1_554 S
C854 C855 1.386 . S
C854 C856 1.391 . S
C855 C854 1.386 . S
C855 C859 1.393 . S
C856 H845 0.950 . S
C856 C854 1.391 . S
C856 C857 1.400 . S
C857 C851 1.491 . S
C857 C856 1.400 . S
C857 C858 1.398 . S
C858 H846 0.950 . S
C858 C857 1.398 . S
C858 C859 1.391 . S
C859 H847 0.950 . S
C859 C855 1.393 . S
C859 C858 1.391 . S
H860 C868 0.950 . S
H861 C873 0.950 . S
H862 C870 0.950 . S
H863 C872 0.950 . S
H864 C874 0.950 . S
H865 C876 0.950 . S
H866 C878 0.950 . S
H867 C879 0.950 . S
C868 H860 0.950 . S
C868 C869 1.386 . S
C868 C870 1.391 . S
C869 C868 1.386 . S
C869 C873 1.393 . S
C870 H862 0.950 . S
C870 C868 1.391 . S
C870 C871 1.400 . S
C871 C870 1.400 . S
C871 C872 1.398 . S
C871 C877 1.491 . S
C872 H863 0.950 . S
C872 C871 1.398 . S
C872 C873 1.391 . S
C873 H861 0.950 . S
C873 C869 1.393 . S
C873 C872 1.391 . S
C874 H864 0.950 . S
C874 C875 1.386 . S
C874 C876 1.391 . S
C875 C874 1.386 . S
C875 C879 1.393 . S
C876 H865 0.950 . S
C876 C874 1.391 . S
C876 C877 1.400 . S
C877 C871 1.491 . S
C877 C876 1.400 . S
C877 C878 1.398 . S
C878 H866 0.950 . S
C878 C877 1.398 . S
C878 C879 1.391 . S
C879 H867 0.950 . S
C879 C875 1.393 . S
C879 C878 1.391 . S
H880 C888 0.950 . S
H881 C893 0.950 . S
H882 C890 0.950 . S
H883 C892 0.950 . S
H884 C894 0.950 . S
H885 C896 0.950 . S
H886 C898 0.950 . S
H887 C899 0.950 . S
C888 H880 0.950 . S
C888 C889 1.386 . S
C888 C890 1.391 . S
C889 C888 1.386 . S
C889 C893 1.393 . S
C890 H882 0.950 . S
C890 C888 1.391 . S
C890 C891 1.400 . S
C891 C890 1.400 . S
C891 C892 1.398 . S
C891 C897 1.491 . S
C892 H883 0.950 . S
C892 C891 1.398 . S
C892 C893 1.391 . S
C893 H881 0.950 . S
C893 C889 1.393 . S
C893 C892 1.391 . S
C894 H884 0.950 . S
C894 C895 1.386 . S
C894 C896 1.391 . S
C895 C894 1.386 . S
C895 C899 1.393 . S
C896 H885 0.950 . S
C896 C894 1.391 . S
C896 C897 1.400 . S
C897 C891 1.491 . S
C897 C896 1.400 . S
C897 C898 1.398 . S
C898 H886 0.950 . S
C898 C897 1.398 . S
C898 C899 1.391 . S
C899 H887 0.950 . S
C899 C895 1.393 . S
C899 C898 1.391 . S
C369 C25 1.437 . S
C375 C305 1.394 . S
C389 C71 2.543 . S
C395 C351 2.565 . S
C409 C105 1.588 . S
C415 C271 1.545 . S
C429 C191 2.852 . S
C435 C111 2.855 . S
C449 C231 2.669 . S
C455 C31 2.672 . S
C469 C65 2.388 . S
C475 C151 2.337 . S
C489 C311 1.819 . S
C495 C225 1.841 . S
C509 C345 1.557 . S
C515 C145 1.542 . S
C529 C185 1.836 . S
C535 C265 1.815 1_545 S
C549 C84 1.731 . S
C555 C20 1.748 . S
C569 C44 1.305 . S
C575 C4 1.272 . S
C589 C60 3.267 . S
C595 C100 3.259 . S
C609 C124 1.824 . S
C615 C220 1.846 . S
C629 C140 1.925 . S
C635 C164 1.911 . S
C649 C180 1.688 . S
C655 C204 1.657 . S
C669 C324 1.921 . S
C675 C260 1.926 . S
C689 C284 0.624 . S
C695 C244 0.625 . S
C709 C340 2.110 . S
C715 C300 2.132 . S
C729 C2 1.079 . S
C735 C23 1.079 . S
C749 C63 1.065 . S
C755 C42 1.065 . S
C769 C82 1.037 . S
C775 C103 1.037 . S
C789 C122 1.096 . S
C795 C143 1.096 . S
C809 C162 1.080 . S
C815 C183 1.080 . S
C829 C202 1.057 . S
C835 C223 1.057 1_556 S
C849 C242 1.102 . S
C855 C263 1.102 1_554 S
C869 C282 1.098 1_554 S
C875 C303 1.098 . S
C889 C322 1.042 . S
C895 C343 1.042 1_554 S
