# Generated by pormake.
# Topology sml, (6)-cn, num edge types: 1
# Building blocks:
#     Node 0, Type 0, BuildingBlock: BETDEL_clean_sbu_0, # of connection points: 6
#     Node 1, Type 0, BuildingBlock: BETDEL_clean_sbu_0, # of connection points: 6
#     Node 2, Type 0, BuildingBlock: BETDEL_clean_sbu_0, # of connection points: 6
#     Node 3, Type 0, BuildingBlock: BETDEL_clean_sbu_0, # of connection points: 6
#     Node 4, Type 0, BuildingBlock: BETDEL_clean_sbu_0, # of connection points: 6
#     Node 5, Type 0, BuildingBlock: BETDEL_clean_sbu_0, # of connection points: 6
#     Edge 6, Type (0, 0), BuildingBlock: MIFKUJ_clean_linker_0, # of connection points: 2
#     Edge 7, Type (0, 0), BuildingBlock: MIFKUJ_clean_linker_0, # of connection points: 2
#     Edge 8, Type (0, 0), BuildingBlock: MIFKUJ_clean_linker_0, # of connection points: 2
#     Edge 9, Type (0, 0), BuildingBlock: MIFKUJ_clean_linker_0, # of connection points: 2
#     Edge 10, Type (0, 0), BuildingBlock: MIFKUJ_clean_linker_0, # of connection points: 2
#     Edge 11, Type (0, 0), BuildingBlock: MIFKUJ_clean_linker_0, # of connection points: 2
#     Edge 12, Type (0, 0), BuildingBlock: MIFKUJ_clean_linker_0, # of connection points: 2
#     Edge 13, Type (0, 0), BuildingBlock: MIFKUJ_clean_linker_0, # of connection points: 2
#     Edge 14, Type (0, 0), BuildingBlock: MIFKUJ_clean_linker_0, # of connection points: 2
#     Edge 15, Type (0, 0), BuildingBlock: MIFKUJ_clean_linker_0, # of connection points: 2
#     Edge 16, Type (0, 0), BuildingBlock: MIFKUJ_clean_linker_0, # of connection points: 2
#     Edge 17, Type (0, 0), BuildingBlock: MIFKUJ_clean_linker_0, # of connection points: 2
#     Edge 18, Type (0, 0), BuildingBlock: MIFKUJ_clean_linker_0, # of connection points: 2
#     Edge 19, Type (0, 0), BuildingBlock: MIFKUJ_clean_linker_0, # of connection points: 2
#     Edge 20, Type (0, 0), BuildingBlock: MIFKUJ_clean_linker_0, # of connection points: 2
#     Edge 21, Type (0, 0), BuildingBlock: MIFKUJ_clean_linker_0, # of connection points: 2
#     Edge 22, Type (0, 0), BuildingBlock: MIFKUJ_clean_linker_0, # of connection points: 2
#     Edge 23, Type (0, 0), BuildingBlock: MIFKUJ_clean_linker_0, # of connection points: 2
# Relax obj value: 0.135
# Max RMSD: 0.172
# Mean RMSD: 0.172
data_MOF--net-sml--node1-BETDEL_clean_sbu_0--edge1-MIFKUJ_clean_linker_0
_symmetry_space_group_name_H-M    P1
_symmetry_Int_Tables_number       1
_symmetry_cell_setting            triclinic
loop_
_symmetry_equiv_pos_as_xyz
'x, y, z'
_cell_length_a     47.042762
_cell_length_b     47.037682
_cell_length_c     22.491448
_cell_angle_alpha  89.999377
_cell_angle_beta   89.992791
_cell_angle_gamma 120.00458
loop_
_atom_site_label
_atom_site_type_symbol
_atom_site_fract_x
_atom_site_fract_y
_atom_site_fract_z
_atom_type_partial_charge
Dy0 Dy 0.21193 0.42531 0.1347 0.0
C1 C 0.21146 0.40326 0.38952 0.0
C2 C 0.20971 0.4367 0.01717 0.0
Dy3 Dy 0.22603 0.41707 0.27249 0.0
O4 O 0.18516 0.42695 0.05372 0.0
O5 O 0.23584 0.44142 0.04535 0.0
O6 O 0.16621 0.37564 0.14131 0.0
O7 O 0.18394 0.40546 0.21598 0.0
C8 C 0.16241 0.37767 0.19801 0.0
C9 C 0.28049 0.45961 0.21316 0.0
O10 O 0.223 0.37277 0.22763 0.0
O11 O 0.23535 0.39441 0.13146 0.0
O12 O 0.23052 0.3957 0.35968 0.0
O13 O 0.20042 0.41773 0.35536 0.0
O14 O 0.2815 0.45312 0.26933 0.0
O15 O 0.25163 0.4423 0.19579 0.0
O16 O 0.21398 0.47019 0.17437 0.0
O17 O 0.22084 0.46163 0.27519 0.0
C18 C 0.23281 0.37284 0.17207 0.0
C19 C 0.21707 0.47855 0.23163 0.0
Dy20 Dy 0.80008 0.22675 0.55128 0.0
C21 C 0.782 0.18695 0.30292 0.0
C22 C 0.79818 0.23209 0.67162 0.0
Dy23 Dy 0.78092 0.20029 0.42041 0.0
O24 O 0.82259 0.23342 0.64206 0.0
O25 O 0.77527 0.22884 0.63524 0.0
O26 O 0.84935 0.26616 0.51966 0.0
O27 O 0.82498 0.22069 0.4751 0.0
C28 C 0.84949 0.24927 0.47387 0.0
C29 C 0.73268 0.19653 0.48927 0.0
O30 O 0.78145 0.15708 0.46092 0.0
O31 O 0.79572 0.17732 0.5582 0.0
O32 O 0.75655 0.1713 0.33751 0.0
O33 O 0.80687 0.20889 0.33319 0.0
O34 O 0.73338 0.20077 0.43206 0.0
O35 O 0.75594 0.19238 0.50471 0.0
O36 O 0.79137 0.26524 0.51071 0.0
O37 O 0.7963 0.25326 0.41194 0.0
C38 C 0.78824 0.15426 0.5173 0.0
C39 C 0.79486 0.27254 0.45322 0.0
Dy40 Dy 0.56856 0.77393 0.77142 0.0
C41 C 0.58401 0.80908 0.02663 0.0
C42 C 0.55526 0.75607 0.65471 0.0
Dy43 Dy 0.57714 0.80157 0.90663 0.0
O44 O 0.57567 0.75216 0.68774 0.0
O45 O 0.54111 0.76868 0.68616 0.0
O46 O 0.61756 0.77718 0.77967 0.0
O47 O 0.58911 0.76929 0.85577 0.0
C48 C 0.61666 0.77472 0.83725 0.0
C49 C 0.53743 0.81482 0.83983 0.0
O50 O 0.61978 0.84326 0.86014 0.0
O51 O 0.59941 0.82832 0.76299 0.0
O52 O 0.55691 0.79926 0.99738 0.0
O53 O 0.60812 0.81587 0.99003 0.0
O54 O 0.54421 0.82397 0.89494 0.0
O55 O 0.55206 0.79964 0.82676 0.0
O56 O 0.52721 0.73014 0.81625 0.0
O57 O 0.54319 0.74745 0.91458 0.0
C58 C 0.62005 0.84979 0.80244 0.0
C59 C 0.52448 0.72504 0.87464 0.0
Dy60 Dy 0.77122 0.57803 0.2375 0.0
C61 C 0.80386 0.59158 0.98916 0.0
C62 C 0.7696 0.57595 0.35847 0.0
Dy63 Dy 0.79596 0.58592 0.10897 0.0
O64 O 0.76383 0.59529 0.32599 0.0
O65 O 0.7748 0.55656 0.32482 0.0
O66 O 0.73259 0.58967 0.20947 0.0
O67 O 0.77848 0.61164 0.16523 0.0
C68 C 0.7501 0.6082 0.16555 0.0
C69 C 0.81544 0.55371 0.18162 0.0
O70 O 0.8374 0.63245 0.14317 0.0
O71 O 0.82343 0.61923 0.24257 0.0
O72 O 0.79953 0.56643 0.02005 0.0
O73 O 0.80391 0.61373 0.02367 0.0
O74 O 0.83316 0.57173 0.13753 0.0
O75 O 0.7879 0.55202 0.18095 0.0
O76 O 0.73027 0.53156 0.20068 0.0
O77 O 0.7419 0.54916 0.10232 0.0
C78 C 0.84345 0.63861 0.20045 0.0
C79 C 0.72227 0.5283 0.14351 0.0
Dy80 Dy 0.2205 0.80445 0.44561 0.0
C81 C 0.19143 0.79232 0.69427 0.0
C82 C 0.22459 0.80084 0.32565 0.0
Dy83 Dy 0.19771 0.7885 0.57481 0.0
O84 O 0.24178 0.82718 0.35697 0.0
O85 O 0.20598 0.77635 0.36001 0.0
O86 O 0.24529 0.85838 0.46355 0.0
O87 O 0.20328 0.82614 0.51229 0.0
C88 C 0.22632 0.85542 0.50781 0.0
C89 C 0.19288 0.73823 0.51045 0.0
O90 O 0.15238 0.7848 0.53614 0.0
O91 O 0.16542 0.77849 0.43941 0.0
O92 O 0.17487 0.76585 0.66286 0.0
O93 O 0.21128 0.81647 0.66051 0.0
O94 O 0.1728 0.73437 0.5534 0.0
O95 O 0.21566 0.76755 0.50851 0.0
O96 O 0.2662 0.80868 0.48461 0.0
O97 O 0.2526 0.8125 0.58237 0.0
C98 C 0.14398 0.77613 0.48011 0.0
C99 C 0.2743 0.81553 0.54149 0.0
Dy100 Dy 0.42751 0.18306 0.94527 0.0
C101 C 0.40122 0.19302 0.69227 0.0
C102 C 0.44379 0.19625 0.06199 0.0
Dy103 Dy 0.41052 0.19727 0.81243 0.0
O104 O 0.44472 0.17296 0.03208 0.0
O105 O 0.43468 0.21248 0.02773 0.0
O106 O 0.39263 0.12778 0.94417 0.0
O107 O 0.3955 0.1571 0.87344 0.0
C108 C 0.38105 0.12802 0.89168 0.0
C109 C 0.44785 0.24946 0.88124 0.0
O110 O 0.36444 0.18631 0.85969 0.0
O111 O 0.3865 0.19401 0.9556 0.0
O112 O 0.4036 0.21683 0.72528 0.0
O113 O 0.40307 0.17137 0.72518 0.0
O114 O 0.42994 0.25033 0.83792 0.0
O115 O 0.44738 0.22254 0.88031 0.0
O116 O 0.47105 0.18721 0.89568 0.0
O117 O 0.45447 0.19123 0.79903 0.0
C118 C 0.36313 0.19038 0.91791 0.0
C119 C 0.47497 0.18884 0.83678 0.0
H120 H 0.32538 0.21124 0.8608 0.0
H121 H 0.29277 0.23217 0.90908 0.0
H122 H 0.30846 0.20009 0.07926 0.0
H123 H 0.34111 0.17942 0.03182 0.0
H124 H 0.23904 0.21249 0.99465 0.0
H125 H 0.34404 0.27019 0.16456 0.0
H126 H 0.40111 0.28153 0.17428 0.0
H127 H 0.41371 0.2936 0.98511 0.0
H128 H 0.3569 0.28261 0.97453 0.0
H129 H 0.20877 0.30931 0.21024 0.0
H130 H 0.22377 0.26952 0.17146 0.0
H131 H 0.29461 0.34379 0.05432 0.0
H132 H 0.27952 0.38307 0.09164 0.0
H133 H 0.3183 0.30722 0.11674 0.0
H134 H 0.22781 0.29377 0.99483 0.0
H135 H 0.17149 0.28298 0.97773 0.0
H136 H 0.13241 0.18789 0.05828 0.0
H137 H 0.18859 0.19835 0.07662 0.0
C138 C 0.32084 0.20758 0.90816 0.0
C139 C 0.33638 0.19444 0.94278 0.0
C140 C 0.30213 0.21943 0.93564 0.0
C141 C 0.2988 0.21814 0.99777 0.0
C142 C 0.31109 0.20158 0.03135 0.0
C143 C 0.32988 0.18996 0.00413 0.0
C144 C 0.28848 0.23931 0.02823 0.0
C145 C 0.25619 0.23299 0.02184 0.0
C146 C 0.31119 0.26642 0.06271 0.0
C147 C 0.34604 0.275 0.06879 0.0
C148 C 0.35906 0.27536 0.12517 0.0
C149 C 0.39134 0.28172 0.13079 0.0
C150 C 0.41097 0.28814 0.08031 0.0
C151 C 0.39844 0.28848 0.02416 0.0
C152 C 0.36619 0.28214 0.01834 0.0
C153 C 0.22772 0.31707 0.17666 0.0
C154 C 0.24287 0.34911 0.15367 0.0
C155 C 0.23614 0.2944 0.15445 0.0
C156 C 0.26021 0.30384 0.11 0.0
C157 C 0.27602 0.33611 0.08864 0.0
C158 C 0.26725 0.35843 0.10985 0.0
C159 C 0.26869 0.28021 0.0839 0.0
C160 C 0.30087 0.28628 0.09072 0.0
C161 C 0.24609 0.25337 0.04891 0.0
C162 C 0.21236 0.247 0.0378 0.0
C163 C 0.20721 0.2707 0.00943 0.0
C164 C 0.17532 0.26461 0.99939 0.0
C165 C 0.14839 0.23481 0.01711 0.0
C166 C 0.1533 0.21099 0.04472 0.0
C167 C 0.18515 0.21697 0.05492 0.0
H168 H 0.12371 0.23014 0.00929 0.0
H169 H 0.43592 0.29299 0.08469 0.0
H170 H 0.13166 0.40533 0.25306 0.0
H171 H 0.07656 0.37817 0.2942 0.0
H172 H 0.06499 0.28371 0.24892 0.0
H173 H 0.11991 0.31148 0.20271 0.0
H174 H 0.01054 0.28474 0.22625 0.0
H175 H 0.08271 0.31687 0.39766 0.0
H176 H 0.13103 0.35814 0.45336 0.0
H177 H 0.08734 0.41904 0.46841 0.0
H178 H 0.03905 0.37845 0.41229 0.0
H179 H 0.86527 0.2101 0.40912 0.0
H180 H 0.917 0.22693 0.35708 0.0
H181 H 0.94904 0.32834 0.39751 0.0
H182 H 0.89809 0.31134 0.452 0.0
H183 H 0.99393 0.31638 0.42808 0.0
H184 H 0.92978 0.29437 0.2473 0.0
H185 H 0.88594 0.26226 0.17482 0.0
H186 H 0.91446 0.18863 0.17065 0.0
H187 H 0.95878 0.2206 0.24261 0.0
C188 C 0.11747 0.37874 0.2523 0.0
C189 C 0.13 0.36029 0.2259 0.0
C190 C 0.08603 0.36321 0.27608 0.0
C191 C 0.06706 0.32883 0.27668 0.0
C192 C 0.07942 0.31026 0.24965 0.0
C193 C 0.11069 0.32599 0.22372 0.0
C194 C 0.0342 0.31277 0.30486 0.0
C195 C 0.00688 0.29106 0.27089 0.0
C196 C 0.02941 0.32161 0.36261 0.0
C197 C 0.05732 0.34466 0.40054 0.0
C198 C 0.08343 0.33906 0.41292 0.0
C199 C 0.11093 0.36247 0.44414 0.0
C200 C 0.11248 0.39145 0.46338 0.0
C201 C 0.08633 0.39683 0.45254 0.0
C202 C 0.05879 0.37354 0.42145 0.0
C203 C 0.88324 0.236 0.40603 0.0
C204 C 0.87808 0.25949 0.43504 0.0
C205 C 0.9127 0.24562 0.37598 0.0
C206 C 0.937 0.27893 0.37336 0.0
C207 C 0.93083 0.30247 0.39946 0.0
C208 C 0.90174 0.29281 0.43045 0.0
C209 C 0.97 0.2893 0.34856 0.0
C210 C 0.99745 0.3096 0.38372 0.0
C211 C 0.97481 0.27957 0.29164 0.0
C212 C 0.94727 0.25963 0.25077 0.0
C213 C 0.92646 0.27117 0.23136 0.0
C214 C 0.90167 0.25308 0.1901 0.0
C215 C 0.89731 0.22332 0.16833 0.0
C216 C 0.91782 0.21164 0.18764 0.0
C217 C 0.94285 0.22979 0.22844 0.0
H218 H 0.87818 0.20932 0.13631 0.0
H219 H 0.13357 0.40949 0.48786 0.0
H220 H 0.74531 0.09327 0.47543 0.0
H221 H 0.72651 0.04179 0.5295 0.0
H222 H 0.80128 0.09258 0.6622 0.0
H223 H 0.81994 0.1443 0.60896 0.0
H224 H 0.78087 0.02004 0.63007 0.0
H225 H 0.7428 0.09244 0.70191 0.0
H226 H 0.72093 0.12996 0.68806 0.0
H227 H 0.63494 0.05276 0.60394 0.0
H228 H 0.65666 0.01498 0.6162 0.0
H229 H 0.67942 0.89613 0.84937 0.0
H230 H 0.71738 0.95062 0.80732 0.0
H231 H 0.64939 0.93216 0.66391 0.0
H232 H 0.61187 0.8784 0.70485 0.0
H233 H 0.67318 0.99347 0.71653 0.0
H234 H 0.71227 0.92236 0.63958 0.0
H235 H 0.73418 0.8847 0.64997 0.0
H236 H 0.81793 0.959 0.74401 0.0
H237 H 0.79623 0.99696 0.73487 0.0
C238 C 0.75859 0.09325 0.51477 0.0
C239 C 0.78369 0.12272 0.53862 0.0
C240 C 0.74782 0.06388 0.5456 0.0
C241 C 0.76238 0.0637 0.59995 0.0
C242 C 0.78987 0.0924 0.62026 0.0
C243 C 0.80032 0.12186 0.58998 0.0
C244 C 0.74509 0.03548 0.64021 0.0
C245 C 0.75762 0.0144 0.64995 0.0
C246 C 0.7149 0.02849 0.66606 0.0
C247 C 0.70153 0.051 0.65939 0.0
C248 C 0.71939 0.08357 0.67991 0.0
C249 C 0.707 0.10487 0.67243 0.0
C250 C 0.6766 0.09376 0.645 0.0
C251 C 0.65851 0.06134 0.6251 0.0
C252 C 0.67085 0.03997 0.63231 0.0
C253 C 0.67264 0.90391 0.80908 0.0
C254 C 0.64287 0.883 0.78013 0.0
C255 C 0.69431 0.93484 0.78509 0.0
C256 C 0.68609 0.94518 0.73251 0.0
C257 C 0.6561 0.92457 0.70453 0.0
C258 C 0.6348 0.89376 0.72787 0.0
C259 C 0.70837 0.97729 0.70521 0.0
C260 C 0.69678 0.99933 0.69791 0.0
C261 C 0.73939 0.98509 0.68193 0.0
C262 C 0.75243 0.96232 0.68727 0.0
C263 C 0.73519 0.93055 0.66298 0.0
C264 C 0.7476 0.90917 0.66853 0.0
C265 C 0.77737 0.9194 0.69782 0.0
C266 C 0.79484 0.95108 0.72146 0.0
C267 C 0.7825 0.97253 0.71611 0.0
H268 H 0.78695 0.90283 0.70205 0.0
H269 H 0.66699 0.11023 0.63934 0.0
H270 H 0.64823 0.74439 0.79283 0.0
H271 H 0.67411 0.71914 0.84894 0.0
H272 H 0.65852 0.75823 0.01177 0.0
H273 H 0.62963 0.78049 0.95585 0.0
H274 H 0.72224 0.73381 0.90948 0.0
H275 H 0.64972 0.71786 0.12409 0.0
H276 H 0.59489 0.70676 0.1566 0.0
H277 H 0.55282 0.65414 0.99438 0.0
H278 H 0.60742 0.66606 0.96025 0.0
H279 H 0.78826 0.66889 0.11796 0.0
H280 H 0.76974 0.70124 0.06198 0.0
H281 H 0.67025 0.61958 0.06733 0.0
H282 H 0.68855 0.58844 0.12735 0.0
H283 H 0.66632 0.6683 0.08883 0.0
H284 H 0.72221 0.6467 0.93421 0.0
H285 H 0.76679 0.64452 0.88124 0.0
H286 H 0.8276 0.74916 0.89637 0.0
H287 H 0.78311 0.75195 0.94941 0.0
C288 C 0.65053 0.74774 0.84059 0.0
C289 C 0.63684 0.76429 0.87026 0.0
C290 C 0.66541 0.73334 0.87274 0.0
C291 C 0.66769 0.73601 0.93503 0.0
C292 C 0.656 0.7546 0.96412 0.0
C293 C 0.63996 0.76786 0.93213 0.0
C294 C 0.68125 0.7184 0.96919 0.0
C295 C 0.70999 0.7195 0.94873 0.0
C296 C 0.66514 0.69915 0.01982 0.0
C297 C 0.63257 0.69311 0.03947 0.0
C298 C 0.62873 0.70416 0.09531 0.0
C299 C 0.59773 0.69791 0.11384 0.0
C300 C 0.57037 0.68003 0.07737 0.0
C301 C 0.574 0.66846 0.02226 0.0
C302 C 0.60499 0.67518 0.00308 0.0
C303 C 0.76249 0.65795 0.10674 0.0
C304 C 0.73968 0.62642 0.12702 0.0
C305 C 0.75192 0.67631 0.07438 0.0
C306 C 0.71855 0.66288 0.05984 0.0
C307 C 0.69604 0.63076 0.07846 0.0
C308 C 0.70646 0.61288 0.11247 0.0
C309 C 0.70666 0.6826 0.02779 0.0
C310 C 0.67862 0.6825 0.04949 0.0
C311 C 0.72226 0.70105 0.97609 0.0
C312 C 0.74953 0.69947 0.94641 0.0
C313 C 0.74523 0.6692 0.92684 0.0
C314 C 0.77047 0.66789 0.89663 0.0
C315 C 0.80016 0.69666 0.88569 0.0
C316 C 0.80463 0.72687 0.90496 0.0
C317 C 0.77938 0.72835 0.93498 0.0
H318 H 0.81966 0.69561 0.86213 0.0
H319 H 0.54635 0.675 0.09194 0.0
H320 H 0.10998 0.72835 0.39982 0.0
H321 H 0.05546 0.71129 0.35966 0.0
H322 H 0.04748 0.78024 0.47498 0.0
H323 H 0.10187 0.79669 0.51705 0.0
H324 H 0.98984 0.68877 0.41865 0.0
H325 H 0.02076 0.8197 0.36421 0.0
H326 H 0.06932 0.87504 0.35465 0.0
H327 H 0.12725 0.83279 0.29771 0.0
H328 H 0.07878 0.77739 0.30443 0.0
H329 H 0.8513 0.6779 0.29398 0.0
H330 H 0.90324 0.71611 0.34181 0.0
H331 H 0.95612 0.7011 0.20019 0.0
H332 H 0.90411 0.66362 0.15087 0.0
H333 H 0.98891 0.76987 0.27785 0.0
H334 H 0.94649 0.64403 0.28905 0.0
H335 H 0.89408 0.59129 0.28899 0.0
H336 H 0.85777 0.62606 0.42991 0.0
H337 H 0.91012 0.67881 0.43113 0.0
C338 C 0.09633 0.73944 0.41731 0.0
C339 C 0.11 0.76395 0.46105 0.0
C340 C 0.06518 0.72951 0.39475 0.0
C341 C 0.04768 0.74459 0.41443 0.0
C342 C 0.06074 0.76831 0.45961 0.0
C343 C 0.09167 0.77768 0.4834 0.0
C344 C 0.01755 0.73779 0.38272 0.0
C345 C 0.98955 0.70666 0.3886 0.0
C346 C 0.01727 0.76115 0.34331 0.0
C347 C 0.04625 0.79438 0.3359 0.0
C348 C 0.0438 0.82226 0.34916 0.0
C349 C 0.07129 0.85365 0.34402 0.0
C350 C 0.10137 0.85742 0.32563 0.0
C351 C 0.10394 0.82984 0.3118 0.0
C352 C 0.07645 0.79844 0.31623 0.0
C353 C 0.87408 0.68387 0.27183 0.0
C354 C 0.87399 0.66748 0.21962 0.0
C355 C 0.90366 0.70597 0.29877 0.0
C356 C 0.93327 0.71107 0.27462 0.0
C357 C 0.93338 0.69761 0.21899 0.0
C358 C 0.90373 0.676 0.19124 0.0
C359 C 0.96152 0.72117 0.31434 0.0
C360 C 0.98909 0.7525 0.30934 0.0
C361 C 0.96146 0.69824 0.35499 0.0
C362 C 0.93228 0.66504 0.36076 0.0
C363 C 0.92756 0.64007 0.32088 0.0
C364 C 0.8978 0.61033 0.32031 0.0
C365 C 0.87259 0.6054 0.35929 0.0
C366 C 0.87732 0.62993 0.39975 0.0
C367 C 0.90711 0.65964 0.40071 0.0
H368 H 0.8494 0.58257 0.35819 0.0
H369 H 0.12267 0.88172 0.32203 0.0
H370 H 0.3594 0.12477 0.77823 0.0
H371 H 0.32399 0.07564 0.72092 0.0
H372 H 0.30871 0.01619 0.87716 0.0
H373 H 0.34697 0.06536 0.93252 0.0
H374 H 0.31854 0.98792 0.79459 0.0
H375 H 0.24652 0.03062 0.80912 0.0
H376 H 0.22883 0.07186 0.80452 0.0
H377 H 0.2477 0.08288 0.61673 0.0
H378 H 0.26594 0.04205 0.62028 0.0
H379 H 0.19249 0.85307 0.60887 0.0
H380 H 0.20964 0.89651 0.68443 0.0
H381 H 0.29055 0.96229 0.57282 0.0
H382 H 0.27503 0.91864 0.49952 0.0
H383 H 0.23744 0.9804 0.64524 0.0
H384 H 0.32293 0.94562 0.64842 0.0
H385 H 0.33816 0.90278 0.66011 0.0
H386 H 0.28665 0.87382 0.82647 0.0
H387 H 0.2705 0.91597 0.81506 0.0
C388 C 0.34884 0.10122 0.79989 0.0
C389 C 0.35668 0.09878 0.85902 0.0
C390 C 0.3279 0.07307 0.76757 0.0
C391 C 0.31312 0.04197 0.79471 0.0
C392 C 0.31984 0.03976 0.85491 0.0
C393 C 0.34163 0.06788 0.8866 0.0
C394 C 0.29304 0.01172 0.75905 0.0
C395 C 0.3003 0.98619 0.76304 0.0
C396 C 0.26903 0.00898 0.71763 0.0
C397 C 0.25775 0.03335 0.71507 0.0
C398 C 0.24706 0.04196 0.76688 0.0
C399 C 0.23692 0.06526 0.76445 0.0
C400 C 0.23718 0.08001 0.71038 0.0
C401 C 0.2475 0.07142 0.65858 0.0
C402 C 0.25768 0.04815 0.66076 0.0
C403 C 0.21408 0.87672 0.60091 0.0
C404 C 0.23307 0.88225 0.54941 0.0
C405 C 0.22361 0.9015 0.64366 0.0
C406 C 0.25153 0.9323 0.63413 0.0
C407 C 0.26909 0.9385 0.5809 0.0
C408 C 0.26018 0.91357 0.53917 0.0
C409 C 0.26385 0.95782 0.68048 0.0
C410 C 0.25513 0.98223 0.67818 0.0
C411 C 0.28592 0.95929 0.7244 0.0
C412 C 0.29499 0.93348 0.7303 0.0
C413 C 0.31436 0.92971 0.68694 0.0
C414 C 0.32327 0.90564 0.69366 0.0
C415 C 0.31327 0.88548 0.74395 0.0
C416 C 0.29436 0.88939 0.78757 0.0
C417 C 0.28523 0.91329 0.7809 0.0
H418 H 0.32031 0.86697 0.7493 0.0
H419 H 0.22935 0.09806 0.70861 0.0
H420 H 0.15373 0.40033 0.95493 0.0
H421 H 0.1491 0.38659 0.84959 0.0
H422 H 0.25315 0.45297 0.8277 0.0
H423 H 0.25799 0.46518 0.93445 0.0
H424 H 0.15512 0.41335 0.75463 0.0
H425 H 0.28615 0.42816 0.72179 0.0
H426 H 0.32465 0.41671 0.77698 0.0
H427 H 0.24614 0.34905 0.88969 0.0
H428 H 0.20709 0.35967 0.83464 0.0
H429 H 0.19713 0.44099 0.45857 0.0
H430 H 0.18992 0.43849 0.56568 0.0
H431 H 0.20478 0.35502 0.57332 0.0
H432 H 0.2138 0.35877 0.46522 0.0
H433 H 0.23627 0.391 0.65632 0.0
H434 H 0.12428 0.34611 0.61515 0.0
H435 H 0.07096 0.33525 0.5749 0.0
H436 H 0.09366 0.43289 0.62171 0.0
H437 H 0.14687 0.44411 0.66318 0.0
C438 C 0.17552 0.41232 0.9274 0.0
C439 C 0.20627 0.43373 0.95238 0.0
C440 C 0.1729 0.40435 0.86721 0.0
C441 C 0.20091 0.41818 0.83076 0.0
C442 C 0.23138 0.44116 0.85523 0.0
C443 C 0.23411 0.4485 0.91584 0.0
C444 C 0.1981 0.40881 0.76713 0.0
C445 C 0.17285 0.40837 0.7333 0.0
C446 C 0.22005 0.40049 0.73961 0.0
C447 C 0.24373 0.39494 0.77428 0.0
C448 C 0.27709 0.4108 0.75828 0.0
C449 C 0.29899 0.40437 0.78943 0.0
C450 C 0.28781 0.38204 0.8366 0.0
C451 C 0.25476 0.36629 0.85306 0.0
C452 C 0.23275 0.37258 0.82198 0.0
C453 C 0.19861 0.42193 0.48306 0.0
C454 C 0.2059 0.39998 0.45397 0.0
C455 C 0.19409 0.42025 0.54434 0.0
C456 C 0.196 0.39607 0.5778 0.0
C457 C 0.20299 0.3738 0.54852 0.0
C458 C 0.20819 0.37593 0.48696 0.0
C459 C 0.19383 0.39651 0.64363 0.0
C460 C 0.21831 0.39556 0.67787 0.0
C461 C 0.1697 0.4011 0.67251 0.0
C462 C 0.13958 0.39598 0.64195 0.0
C463 C 0.11803 0.36536 0.61628 0.0
C464 C 0.08765 0.35899 0.59402 0.0
C465 C 0.07879 0.38324 0.59639 0.0
C466 C 0.10044 0.41404 0.62038 0.0
C467 C 0.13064 0.42037 0.64351 0.0
H468 H 0.05528 0.37827 0.57901 0.0
H469 H 0.30481 0.37712 0.86068 0.0
H470 H 0.72863 0.15574 0.22944 0.0
H471 H 0.72805 0.16151 0.12112 0.0
H472 H 0.83365 0.22081 0.12097 0.0
H473 H 0.83418 0.21565 0.22909 0.0
H474 H 0.81048 0.25021 0.06011 0.0
H475 H 0.78965 0.13921 0.06534 0.0
H476 H 0.76057 0.08073 0.09373 0.0
H477 H 0.67244 0.0677 0.01161 0.0
H478 H 0.70089 0.12624 0.98339 0.0
H479 H 0.84636 0.24665 0.75299 0.0
H480 H 0.84006 0.23813 0.86081 0.0
H481 H 0.73617 0.20202 0.84478 0.0
H482 H 0.74244 0.21112 0.73693 0.0
H483 H 0.75381 0.16077 0.91263 0.0
H484 H 0.77821 0.27258 0.90168 0.0
H485 H 0.80963 0.33074 0.87174 0.0
H486 H 0.89436 0.34156 0.96412 0.0
H487 H 0.86361 0.28329 0.9938 0.0
C488 C 0.75173 0.16936 0.20599 0.0
C489 C 0.78151 0.18523 0.23741 0.0
C490 C 0.7514 0.17266 0.14409 0.0
C491 C 0.7809 0.1915 0.11269 0.0
C492 C 0.81064 0.20619 0.14415 0.0
C493 C 0.81095 0.20311 0.20581 0.0
C494 C 0.78106 0.19782 0.04779 0.0
C495 C 0.7984 0.23053 0.02794 0.0
C496 C 0.76449 0.17234 0.00568 0.0
C497 C 0.7473 0.13719 0.02289 0.0
C498 C 0.76399 0.12394 0.05382 0.0
C499 C 0.74764 0.09077 0.06978 0.0
C500 C 0.71465 0.07054 0.05466 0.0
C501 C 0.69797 0.08342 0.0234 0.0
C502 C 0.7142 0.11658 0.00739 0.0
C503 C 0.82228 0.23732 0.77262 0.0
C504 C 0.79493 0.22972 0.73687 0.0
C505 C 0.8187 0.23243 0.83408 0.0
C506 C 0.78765 0.21947 0.86064 0.0
C507 C 0.76031 0.21204 0.82504 0.0
C508 C 0.76397 0.21745 0.76364 0.0
C509 C 0.78383 0.21293 0.92544 0.0
C510 C 0.76573 0.1803 0.94512 0.0
C511 C 0.80007 0.23841 0.96742 0.0
C512 C 0.81868 0.27345 0.94941 0.0
C513 C 0.80364 0.28725 0.91508 0.0
C514 C 0.82131 0.32027 0.89827 0.0
C515 C 0.854 0.33981 0.91587 0.0
C516 C 0.86906 0.32638 0.95043 0.0
C517 C 0.85151 0.29336 0.96729 0.0
H518 H 0.86763 0.36537 0.90286 0.0
H519 H 0.70204 0.04486 0.06702 0.0
H520 H 0.51561 0.76573 0.57868 0.0
H521 H 0.52047 0.77068 0.4701 0.0
H522 H 0.59863 0.74796 0.47498 0.0
H523 H 0.5936 0.74256 0.58327 0.0
H524 H 0.61503 0.80596 0.41387 0.0
H525 H 0.52867 0.69383 0.41749 0.0
H526 H 0.4749 0.64691 0.44527 0.0
H527 H 0.42616 0.69299 0.36196 0.0
H528 H 0.47968 0.74044 0.33443 0.0
H529 H 0.62931 0.804 0.0954 0.0
H530 H 0.62528 0.79238 0.2025 0.0
H531 H 0.53675 0.79836 0.21112 0.0
H532 H 0.54009 0.8087 0.10435 0.0
H533 H 0.5272 0.74548 0.26531 0.0
H534 H 0.6119 0.85913 0.26889 0.0
H535 H 0.66501 0.90743 0.2424 0.0
H536 H 0.71591 0.86043 0.313 0.0
H537 H 0.66305 0.81165 0.33924 0.0
C538 C 0.53328 0.76104 0.55639 0.0
C539 C 0.55421 0.75374 0.58926 0.0
C540 C 0.53607 0.76392 0.49446 0.0
C541 C 0.55998 0.75976 0.46459 0.0
C542 C 0.58008 0.75132 0.49723 0.0
C543 C 0.57705 0.74807 0.559 0.0
C544 C 0.56554 0.76652 0.39998 0.0
C545 C 0.59602 0.79241 0.38115 0.0
C546 C 0.54047 0.74932 0.35767 0.0
C547 C 0.50824 0.72089 0.37448 0.0
C548 C 0.50651 0.69414 0.40563 0.0
C549 C 0.47606 0.6674 0.42121 0.0
C550 C 0.44713 0.66701 0.40554 0.0
C551 C 0.44859 0.69334 0.37415 0.0
C552 C 0.47898 0.72016 0.35851 0.0
C553 C 0.60943 0.80348 0.12059 0.0
C554 C 0.58512 0.80743 0.09192 0.0
C555 C 0.60708 0.79677 0.18169 0.0
C556 C 0.58071 0.79455 0.21502 0.0
C557 C 0.55719 0.79976 0.18644 0.0
C558 C 0.55925 0.8059 0.1255 0.0
C559 C 0.57652 0.78543 0.27903 0.0
C560 C 0.54631 0.759 0.29782 0.0
C561 C 0.60173 0.80237 0.32138 0.0
C562 C 0.63351 0.83159 0.30538 0.0
C563 C 0.63441 0.85898 0.27828 0.0
C564 C 0.66447 0.88646 0.26341 0.0
C565 C 0.69381 0.88696 0.27583 0.0
C566 C 0.69316 0.85999 0.30329 0.0
C567 C 0.66316 0.83242 0.3182 0.0
H568 H 0.71706 0.90827 0.26432 0.0
H569 H 0.42358 0.64628 0.41761 0.0
H570 H 0.81831 0.64442 0.92 0.0
H571 H 0.81637 0.64589 0.81092 0.0
H572 H 0.79255 0.54471 0.80364 0.0
H573 H 0.79402 0.543 0.91233 0.0
H574 H 0.84176 0.58744 0.72254 0.0
H575 H 0.73291 0.55998 0.78917 0.0
H576 H 0.69273 0.5688 0.84457 0.0
H577 H 0.7261 0.6606 0.75448 0.0
H578 H 0.76683 0.65254 0.69912 0.0
H579 H 0.77376 0.53337 0.43525 0.0
H580 H 0.78594 0.54149 0.5422 0.0
H581 H 0.79279 0.63626 0.53217 0.0
H582 H 0.77937 0.62771 0.42628 0.0
H583 H 0.75638 0.60267 0.62245 0.0
H584 H 0.8638 0.63265 0.55532 0.0
H585 H 0.91152 0.63216 0.51076 0.0
H586 H 0.88669 0.54303 0.60349 0.0
H587 H 0.83914 0.54314 0.6494 0.0
C588 C 0.81264 0.62257 0.89491 0.0
C589 C 0.80577 0.59348 0.92412 0.0
C590 C 0.81155 0.62344 0.83295 0.0
C591 C 0.80379 0.59526 0.79974 0.0
C592 C 0.79835 0.56661 0.82881 0.0
C593 C 0.79923 0.56568 0.89069 0.0
C594 C 0.80099 0.5954 0.73456 0.0
C595 C 0.82287 0.59032 0.70032 0.0
C596 C 0.77721 0.60068 0.70631 0.0
C597 C 0.75312 0.60579 0.74039 0.0
C598 C 0.73191 0.5822 0.78159 0.0
C599 C 0.70894 0.587 0.81281 0.0
C600 C 0.70678 0.61518 0.80288 0.0
C601 C 0.72769 0.63871 0.76191 0.0
C602 C 0.75074 0.63405 0.73065 0.0
C603 C 0.77783 0.55585 0.45611 0.0
C604 C 0.77542 0.57979 0.42294 0.0
C605 C 0.78524 0.56068 0.51677 0.0
C606 C 0.79114 0.58982 0.54468 0.0
C607 C 0.78866 0.61372 0.5114 0.0
C608 C 0.78075 0.6087 0.45109 0.0
C609 C 0.79688 0.594 0.60959 0.0
C610 C 0.77547 0.5999 0.64411 0.0
C611 C 0.82149 0.58998 0.63808 0.0
C612 C 0.84757 0.58765 0.6051 0.0
C613 C 0.86812 0.61259 0.56532 0.0
C614 C 0.89529 0.61253 0.54018 0.0
C615 C 0.90199 0.58751 0.55394 0.0
C616 C 0.88152 0.56244 0.59292 0.0
C617 C 0.85448 0.5625 0.61856 0.0
H618 H 0.92302 0.58754 0.53436 0.0
H619 H 0.689 0.61887 0.82712 0.0
H620 H 0.22501 0.8465 0.76248 0.0
H621 H 0.22896 0.84889 0.8712 0.0
H622 H 0.15935 0.74513 0.88084 0.0
H623 H 0.15563 0.74253 0.77194 0.0
H624 H 0.15047 0.78637 0.96697 0.0
H625 H 0.23379 0.76599 0.8865 0.0
H626 H 0.28095 0.77771 0.82254 0.0
H627 H 0.33931 0.87016 0.91057 0.0
H628 H 0.29217 0.85946 0.97392 0.0
H629 H 0.17834 0.75212 0.25827 0.0
H630 H 0.17142 0.75188 0.15064 0.0
H631 H 0.25689 0.84866 0.1396 0.0
H632 H 0.26442 0.84843 0.24743 0.0
H633 H 0.25792 0.81219 0.05318 0.0
H634 H 0.17771 0.83739 0.12717 0.0
H635 H 0.13148 0.8308 0.18875 0.0
H636 H 0.0697 0.73495 0.11483 0.0
H637 H 0.1156 0.74111 0.05233 0.0
C638 C 0.21047 0.82428 0.78792 0.0
C639 C 0.19048 0.79424 0.75924 0.0
C640 C 0.21271 0.82569 0.84974 0.0
C641 C 0.19484 0.79709 0.88353 0.0
C642 C 0.1734 0.76739 0.85517 0.0
C643 C 0.17134 0.76593 0.79321 0.0
C644 C 0.19996 0.79784 0.94823 0.0
C645 C 0.17381 0.79164 0.986 0.0
C646 C 0.23079 0.80573 0.97249 0.0
C647 C 0.25923 0.81211 0.93446 0.0
C648 C 0.25652 0.78902 0.89175 0.0
C649 C 0.28328 0.79546 0.85564 0.0
C650 C 0.31309 0.82469 0.8624 0.0
C651 C 0.31621 0.84751 0.9054 0.0
C652 C 0.28944 0.84131 0.9413 0.0
C653 C 0.19594 0.77307 0.23264 0.0
C654 C 0.22213 0.80008 0.26064 0.0
C655 C 0.19168 0.77316 0.17136 0.0
C656 C 0.21334 0.80047 0.13724 0.0
C657 C 0.23988 0.82734 0.16516 0.0
C658 C 0.24418 0.82719 0.22656 0.0
C659 C 0.20842 0.80077 0.07234 0.0
C660 C 0.23459 0.80706 0.03437 0.0
C661 C 0.1778 0.79356 0.04785 0.0
C662 C 0.15016 0.7896 0.08551 0.0
C663 C 0.15433 0.81482 0.12435 0.0
C664 C 0.12816 0.81118 0.15937 0.0
C665 C 0.09771 0.78237 0.15609 0.0
C666 C 0.09331 0.75722 0.11744 0.0
C667 C 0.11936 0.76083 0.08201 0.0
H668 H 0.07748 0.7796 0.18324 0.0
H669 H 0.33377 0.82964 0.83436 0.0
H670 H 0.40084 0.14638 0.62077 0.0
H671 H 0.40995 0.14945 0.51339 0.0
H672 H 0.41398 0.24308 0.50858 0.0
H673 H 0.4047 0.24006 0.61639 0.0
H674 H 0.37904 0.20283 0.41457 0.0
H675 H 0.4834 0.24085 0.50911 0.0
H676 H 0.52212 0.23733 0.57852 0.0
H677 H 0.50901 0.15096 0.489 0.0
H678 H 0.46973 0.1536 0.41972 0.0
H679 H 0.44526 0.24569 0.12662 0.0
H680 H 0.44107 0.24821 0.2346 0.0
H681 H 0.44311 0.15786 0.25201 0.0
H682 H 0.4481 0.1557 0.14383 0.0
H683 H 0.47643 0.19886 0.34064 0.0
H684 H 0.37143 0.15969 0.2477 0.0
H685 H 0.33113 0.1615 0.18004 0.0
H686 H 0.34354 0.24795 0.2682 0.0
H687 H 0.3847 0.2473 0.33511 0.0
C688 C 0.40323 0.16742 0.59671 0.0
C689 C 0.40223 0.19308 0.62679 0.0
C690 C 0.40863 0.16922 0.53546 0.0
C691 C 0.41325 0.19677 0.50327 0.0
C692 C 0.41067 0.22171 0.53274 0.0
C693 C 0.40533 0.21994 0.59418 0.0
C694 C 0.42166 0.19986 0.43919 0.0
C695 C 0.4006 0.20249 0.39835 0.0
C696 C 0.44945 0.19867 0.41823 0.0
C697 C 0.47337 0.19726 0.4595 0.0
C698 C 0.48857 0.22095 0.50449 0.0
C699 C 0.51064 0.21914 0.54379 0.0
C700 C 0.51797 0.19391 0.53823 0.0
C701 C 0.50328 0.17048 0.49329 0.0
C702 C 0.48112 0.17213 0.45397 0.0
C703 C 0.44543 0.2267 0.1536 0.0
C704 C 0.44673 0.20034 0.12703 0.0
C705 C 0.44286 0.22806 0.21525 0.0
C706 C 0.44101 0.20282 0.2513 0.0
C707 C 0.4443 0.1775 0.22503 0.0
C708 C 0.44716 0.17628 0.16329 0.0
C709 C 0.43373 0.20175 0.31576 0.0
C710 C 0.45498 0.19942 0.35675 0.0
C711 C 0.406 0.20306 0.33687 0.0
C712 C 0.38146 0.20365 0.29606 0.0
C713 C 0.36588 0.17933 0.2522 0.0
C714 C 0.34287 0.18015 0.21395 0.0
C715 C 0.33483 0.20486 0.21973 0.0
C716 C 0.34985 0.22886 0.26364 0.0
C717 C 0.3731 0.22834 0.30162 0.0
H718 H 0.31687 0.20535 0.19035 0.0
H719 H 0.53509 0.19255 0.56863 0.0
H720 H 0.24536 0.51658 0.32852 0.0
H721 H 0.23745 0.56057 0.36673 0.0
H722 H 0.17617 0.55006 0.21601 0.0
H723 H 0.18478 0.50627 0.17642 0.0
H724 H 0.21378 0.6128 0.24384 0.0
H725 H 0.143 0.51527 0.34931 0.0
H726 H 0.1286 0.46528 0.40657 0.0
H727 H 0.19082 0.52378 0.54961 0.0
H728 H 0.20647 0.57423 0.49228 0.0
H729 H 0.14266 0.675 0.50121 0.0
H730 H 0.14155 0.63068 0.44209 0.0
H731 H 0.23973 0.69735 0.37969 0.0
H732 H 0.24026 0.74177 0.43654 0.0
H733 H 0.1747 0.60212 0.45196 0.0
H734 H 0.2579 0.67783 0.25669 0.0
H735 H 0.26664 0.7222 0.18744 0.0
H736 H 0.16698 0.69941 0.21354 0.0
H737 H 0.158 0.65558 0.28413 0.0
C738 C 0.23042 0.5238 0.30313 0.0
C739 C 0.21536 0.50777 0.2498 0.0
C740 C 0.22581 0.54886 0.32521 0.0
C741 C 0.2055 0.55796 0.29509 0.0
C742 C 0.19172 0.54317 0.24021 0.0
C743 C 0.1967 0.51826 0.21757 0.0
C744 C 0.19821 0.58239 0.32202 0.0
C745 C 0.20511 0.61043 0.28926 0.0
C746 C 0.18603 0.57883 0.3808 0.0
C747 C 0.17609 0.54858 0.41622 0.0
C748 C 0.15379 0.51751 0.39282 0.0
C749 C 0.1454 0.48906 0.42534 0.0
C750 C 0.15872 0.49132 0.48183 0.0
C751 C 0.1805 0.52207 0.50586 0.0
C752 C 0.18918 0.55062 0.47331 0.0
C753 C 0.1638 0.68017 0.47426 0.0
C754 C 0.19156 0.7117 0.47349 0.0
C755 C 0.16318 0.65488 0.44049 0.0
C756 C 0.19039 0.66065 0.40567 0.0
C757 C 0.21804 0.69234 0.40471 0.0
C758 C 0.21848 0.71768 0.43778 0.0
C759 C 0.19102 0.63313 0.37422 0.0
C760 C 0.18301 0.60443 0.40632 0.0
C761 C 0.20137 0.63567 0.31435 0.0
C762 C 0.20738 0.66366 0.27589 0.0
C763 C 0.238 0.68259 0.24808 0.0
C764 C 0.24303 0.70769 0.20878 0.0
C765 C 0.21746 0.71376 0.19632 0.0
C766 C 0.18692 0.69501 0.22377 0.0
C767 C 0.18191 0.67019 0.2638 0.0
H768 H 0.2213 0.73283 0.16505 0.0
H769 H 0.15217 0.46928 0.50704 0.0
H770 H 0.68792 0.21595 0.4681 0.0
H771 H 0.64756 0.21511 0.53809 0.0
H772 H 0.68113 0.17342 0.6729 0.0
H773 H 0.72076 0.17332 0.6025 0.0
H774 H 0.61511 0.14361 0.67136 0.0
H775 H 0.70431 0.25355 0.67854 0.0
H776 H 0.74668 0.30639 0.63678 0.0
H777 H 0.67187 0.32183 0.5602 0.0
H778 H 0.62901 0.26879 0.60064 0.0
H779 H 0.51872 0.17312 0.88796 0.0
H780 H 0.56691 0.17535 0.84027 0.0
H781 H 0.54625 0.21125 0.67897 0.0
H782 H 0.49866 0.20902 0.72524 0.0
H783 H 0.61162 0.24576 0.70904 0.0
H784 H 0.52363 0.13254 0.69083 0.0
H785 H 0.48132 0.07876 0.72953 0.0
H786 H 0.55484 0.06975 0.82727 0.0
H787 H 0.59754 0.12376 0.78978 0.0
C788 C 0.68653 0.20652 0.51259 0.0
C789 C 0.70771 0.19522 0.53035 0.0
C790 C 0.66366 0.20621 0.55262 0.0
C791 C 0.66177 0.19475 0.61105 0.0
C792 C 0.68234 0.1826 0.62824 0.0
C793 C 0.70512 0.18281 0.58817 0.0
C794 C 0.63829 0.19554 0.65403 0.0
C795 C 0.61473 0.16606 0.68056 0.0
C796 C 0.63776 0.22481 0.6658 0.0
C797 C 0.66343 0.25707 0.64235 0.0
C798 C 0.69688 0.26812 0.65253 0.0
C799 C 0.72099 0.29811 0.62909 0.0
C800 C 0.71198 0.31743 0.59578 0.0
C801 C 0.67881 0.30683 0.586 0.0
C802 C 0.65459 0.27682 0.60923 0.0
C803 C 0.52458 0.18155 0.84242 0.0
C804 C 0.50464 0.19057 0.81036 0.0
C805 C 0.55203 0.18278 0.81527 0.0
C806 C 0.56 0.19335 0.75602 0.0
C807 C 0.54056 0.20304 0.72468 0.0
C808 C 0.51315 0.20151 0.75131 0.0
C809 C 0.58794 0.19369 0.725 0.0
C810 C 0.61241 0.22344 0.70074 0.0
C811 C 0.58935 0.1647 0.71548 0.0
C812 C 0.56368 0.13237 0.73823 0.0
C813 C 0.53071 0.11924 0.72108 0.0
C814 C 0.50667 0.08869 0.74268 0.0
C815 C 0.51536 0.0709 0.78102 0.0
C816 C 0.54813 0.0836 0.79772 0.0
C817 C 0.57226 0.11417 0.77632 0.0
H818 H 0.49672 0.04723 0.79764 0.0
H819 H 0.73068 0.34063 0.57762 0.0
H820 H 0.2745 0.48803 0.11349 0.0
H821 H 0.31819 0.52973 0.05213 0.0
H822 H 0.39054 0.53182 0.17283 0.0
H823 H 0.3464 0.48963 0.23457 0.0
H824 H 0.40302 0.5931 0.1417 0.0
H825 H 0.37467 0.49244 0.04209 0.0
H826 H 0.33613 0.43917 0.9965 0.0
H827 H 0.31181 0.48819 0.86194 0.0
H828 H 0.34905 0.54165 0.90812 0.0
H829 H 0.53597 0.6945 0.96406 0.0
H830 H 0.4963 0.64489 0.01617 0.0
H831 H 0.42063 0.63384 0.89415 0.0
H832 H 0.46111 0.68293 0.83965 0.0
H833 H 0.4116 0.57533 0.92635 0.0
H834 H 0.43305 0.67364 0.02978 0.0
H835 H 0.46825 0.72768 0.07621 0.0
H836 H 0.50374 0.68389 0.20166 0.0
H837 H 0.46914 0.62962 0.15532 0.0
C838 C 0.29971 0.49689 0.12622 0.0
C839 C 0.30724 0.48511 0.17763 0.0
C840 C 0.32463 0.52084 0.0914 0.0
C841 C 0.35758 0.53331 0.10728 0.0
C842 C 0.36521 0.52221 0.15961 0.0
C843 C 0.34012 0.4982 0.19469 0.0
C844 C 0.38386 0.55844 0.06954 0.0
C845 C 0.4053 0.58905 0.09486 0.0
C846 C 0.3861 0.55328 0.00805 0.0
C847 C 0.36442 0.52112 0.97912 0.0
C848 C 0.36087 0.49188 0.00314 0.0
C849 C 0.33918 0.46162 0.97725 0.0
C850 C 0.32134 0.46031 0.92668 0.0
C851 C 0.32547 0.48925 0.90139 0.0
C852 C 0.34677 0.51953 0.92754 0.0
C853 C 0.51103 0.68097 0.94755 0.0
C854 C 0.50137 0.69244 0.89833 0.0
C855 C 0.48839 0.65284 0.97752 0.0
C856 C 0.45538 0.63631 0.96014 0.0
C857 C 0.446 0.64647 0.90855 0.0
C858 C 0.46902 0.67438 0.87746 0.0
C859 C 0.43056 0.61003 0.99843 0.0
C860 C 0.40943 0.57926 0.97328 0.0
C861 C 0.42832 0.61509 0.06003 0.0
C862 C 0.44868 0.6476 0.08875 0.0
C863 C 0.44847 0.67555 0.06707 0.0
C864 C 0.46832 0.70621 0.09335 0.0
C865 C 0.48824 0.70919 0.14174 0.0
C866 C 0.4883 0.68151 0.16412 0.0
C867 C 0.46856 0.65079 0.13788 0.0
H868 H 0.50356 0.73294 0.16195 0.0
H869 H 0.30424 0.4369 0.90722 0.0
H870 H 0.76657 0.2835 0.35832 0.0
H871 H 0.77953 0.33643 0.31603 0.0
H872 H 0.84942 0.38608 0.45719 0.0
H873 H 0.83469 0.3328 0.50164 0.0
H874 H 0.82275 0.41911 0.43622 0.0
H875 H 0.87242 0.37707 0.30974 0.0
H876 H 0.87757 0.33686 0.24711 0.0
H877 H 0.80681 0.3354 0.12476 0.0
H878 H 0.80075 0.37516 0.18718 0.0
H879 H 0.86909 0.54548 0.17417 0.0
H880 H 0.87647 0.50288 0.22351 0.0
H881 H 0.78272 0.46616 0.31016 0.0
H882 H 0.77522 0.50809 0.26124 0.0
H883 H 0.83849 0.4348 0.21787 0.0
H884 H 0.78664 0.44782 0.44481 0.0
H885 H 0.78966 0.49332 0.50429 0.0
H886 H 0.88335 0.55982 0.42705 0.0
H887 H 0.88082 0.51487 0.36694 0.0
C888 C 0.78428 0.30579 0.38073 0.0
C889 C 0.79959 0.3043 0.43317 0.0
C890 C 0.79207 0.33603 0.35612 0.0
C891 C 0.81632 0.36536 0.38216 0.0
C892 C 0.83083 0.36385 0.43591 0.0
C893 C 0.82231 0.33349 0.4615 0.0
C894 C 0.82586 0.39743 0.35363 0.0
C895 C 0.82653 0.42248 0.38857 0.0
C896 C 0.83226 0.40275 0.29166 0.0
C897 C 0.83601 0.37903 0.25343 0.0
C898 C 0.8578 0.36805 0.26966 0.0
C899 C 0.86089 0.34532 0.23419 0.0
C900 C 0.8425 0.33355 0.18203 0.0
C901 C 0.82104 0.34454 0.16519 0.0
C902 C 0.8178 0.36721 0.20058 0.0
C903 C 0.85028 0.52844 0.20422 0.0
C904 C 0.82169 0.53019 0.21427 0.0
C905 C 0.85444 0.50408 0.23202 0.0
C906 C 0.83023 0.4815 0.27068 0.0
C907 C 0.80192 0.48359 0.28109 0.0
C908 C 0.7977 0.50766 0.25325 0.0
C909 C 0.83362 0.45518 0.30028 0.0
C910 C 0.8354 0.43136 0.26561 0.0
C911 C 0.83112 0.45154 0.36267 0.0
C912 C 0.8334 0.47808 0.40119 0.0
C913 C 0.80796 0.47212 0.44088 0.0
C914 C 0.80951 0.49786 0.47438 0.0
C915 C 0.83644 0.52951 0.4686 0.0
C916 C 0.86226 0.53541 0.43061 0.0
C917 C 0.86076 0.50985 0.3968 0.0
H918 H 0.83737 0.54954 0.49346 0.0
H919 H 0.84491 0.31594 0.15464 0.0
H920 H 0.3249 0.81843 0.47555 0.0
H921 H 0.37762 0.82715 0.51294 0.0
H922 H 0.35078 0.83933 0.69063 0.0
H923 H 0.29857 0.831 0.65395 0.0
H924 H 0.41459 0.88245 0.66844 0.0
H925 H 0.33882 0.76584 0.64318 0.0
H926 H 0.30182 0.71632 0.58551 0.0
H927 H 0.38144 0.73328 0.46985 0.0
H928 H 0.41881 0.78322 0.52636 0.0
H929 H 0.49093 0.82929 0.87333 0.0
H930 H 0.45424 0.83834 0.80917 0.0
H931 H 0.50094 0.82583 0.65408 0.0
H932 H 0.53811 0.81741 0.71865 0.0
H933 H 0.43469 0.7889 0.64799 0.0
H934 H 0.51268 0.90067 0.68759 0.0
H935 H 0.54873 0.94924 0.74813 0.0
H936 H 0.46483 0.94099 0.83967 0.0
H937 H 0.42827 0.89204 0.78034 0.0
C938 C 0.33044 0.82339 0.52247 0.0
C939 C 0.30742 0.82377 0.56187 0.0
C940 C 0.36052 0.82831 0.5437 0.0
C941 C 0.36792 0.83355 0.60461 0.0
C942 C 0.3456 0.83538 0.64344 0.0
C943 C 0.31563 0.83045 0.62237 0.0
C944 C 0.39771 0.83487 0.62932 0.0
C945 C 0.41906 0.86203 0.66407 0.0
C946 C 0.40391 0.80855 0.62224 0.0
C947 C 0.38148 0.77849 0.58844 0.0
C948 C 0.34836 0.75916 0.60512 0.0
C949 C 0.32733 0.731 0.57271 0.0
C950 C 0.33924 0.72173 0.52391 0.0
C951 C 0.37223 0.74055 0.50755 0.0
C952 C 0.39334 0.76878 0.53973 0.0
C953 C 0.49347 0.82871 0.82553 0.0
C954 C 0.51661 0.82169 0.80063 0.0
C955 C 0.47266 0.83405 0.78894 0.0
C956 C 0.47496 0.83288 0.72683 0.0
C957 C 0.49864 0.82663 0.70189 0.0
C958 C 0.51951 0.82133 0.73863 0.0
C959 C 0.45114 0.83612 0.68854 0.0
C960 C 0.43083 0.80975 0.6513 0.0
C961 C 0.44581 0.86308 0.69369 0.0
C962 C 0.46773 0.89252 0.72967 0.0
C963 C 0.50191 0.90903 0.72095 0.0
C964 C 0.52245 0.93668 0.75501 0.0
C965 C 0.50909 0.94817 0.79777 0.0
C966 C 0.47515 0.93205 0.80652 0.0
C967 C 0.4545 0.90438 0.77263 0.0
H968 H 0.52503 0.9696 0.82405 0.0
H969 H 0.32292 0.69991 0.49887 0.0
H970 H 0.68666 0.52542 0.04605 0.0
H971 H 0.63607 0.47808 0.0096 0.0
H972 H 0.63637 0.42074 0.1589 0.0
H973 H 0.68673 0.46829 0.1965 0.0
H974 H 0.63157 0.39385 0.03467 0.0
H975 H 0.58281 0.43988 0.16596 0.0
H976 H 0.57521 0.48507 0.20249 0.0
H977 H 0.5425 0.49491 0.02947 0.0
H978 H 0.55037 0.45007 0.99168 0.0
H979 H 0.48723 0.25019 0.97009 0.0
H980 H 0.52855 0.29744 0.02486 0.0
H981 H 0.50624 0.36115 0.92134 0.0
H982 H 0.46221 0.31316 0.87072 0.0
H983 H 0.52243 0.3859 0.02438 0.0
H984 H 0.57194 0.34645 0.8876 0.0
H985 H 0.58198 0.30528 0.839 0.0
H986 H 0.61754 0.28872 0.00372 0.0
H987 H 0.60723 0.32945 0.05356 0.0
C988 C 0.6758 0.5028 0.0714 0.0
C989 C 0.69062 0.50044 0.12403 0.0
C990 C 0.64689 0.47588 0.05062 0.0
C991 C 0.63261 0.44607 0.08167 0.0
C992 C 0.64711 0.44367 0.13453 0.0
C993 C 0.67572 0.47081 0.15601 0.0
C994 C 0.60346 0.41696 0.05713 0.0
C995 C 0.60753 0.39173 0.03327 0.0
C996 C 0.57266 0.4152 0.0529 0.0
C997 C 0.56745 0.44181 0.07589 0.0
C998 C 0.57424 0.45185 0.13559 0.0
C999 C 0.56984 0.47737 0.15654 0.0
C1000 C 0.55846 0.49291 0.11829 0.0
C1001 C 0.55134 0.48287 0.05904 0.0
C1002 C 0.55573 0.45738 0.03786 0.0
C1003 C 0.49032 0.27411 0.96043 0.0
C1004 C 0.47133 0.27799 0.91656 0.0
C1005 C 0.51442 0.30125 0.99102 0.0
C1006 C 0.52134 0.33307 0.97601 0.0
C1007 C 0.50157 0.33691 0.93355 0.0
C1008 C 0.47655 0.30952 0.90439 0.0
C1009 C 0.55023 0.36221 0.00233 0.0
C1010 C 0.54631 0.38768 0.02605 0.0
C1011 C 0.58159 0.3648 0.00453 0.0
C1012 C 0.58852 0.34079 0.97444 0.0
C1013 C 0.58176 0.33392 0.91352 0.0
C1014 C 0.58749 0.31066 0.88576 0.0
C1015 C 0.60031 0.29433 0.91829 0.0
C1016 C 0.60756 0.30135 0.9786 0.0
C1017 C 0.60181 0.32455 0.00663 0.0
H1018 H 0.60467 0.27629 0.89673 0.0
H1019 H 0.55508 0.51267 0.13458 0.0
loop_
_geom_bond_atom_site_label_1
_geom_bond_atom_site_label_2
_geom_bond_distance
_geom_bond_site_symmetry_2
_ccdc_geom_bond_type
Dy0 O4 2.398 . S
Dy0 O5 2.491 . S
Dy0 O6 2.403 . S
Dy0 O7 2.664 . S
Dy0 O11 2.326 . S
Dy0 O15 2.310 . S
Dy0 O16 2.351 . S
C1 O12 1.185 . S
C1 O13 1.355 . S
C2 O4 1.185 . S
C2 O5 1.355 . S
Dy3 O7 2.310 . S
Dy3 O10 2.351 . S
Dy3 O12 2.398 . S
Dy3 O13 2.491 . S
Dy3 O14 2.403 . S
Dy3 O15 2.664 . S
Dy3 O17 2.326 . S
O4 Dy0 2.398 . S
O4 C2 1.185 . S
O5 Dy0 2.491 . S
O5 C2 1.355 . S
O6 Dy0 2.403 . S
O6 C8 1.254 . S
O7 Dy0 2.664 . S
O7 Dy3 2.310 . S
O7 C8 1.268 . S
C8 O6 1.254 . S
C8 O7 1.268 . S
C9 O14 1.254 . S
C9 O15 1.268 . S
O10 Dy3 2.351 . S
O10 C18 1.249 . S
O11 Dy0 2.326 . S
O11 C18 1.267 . S
O12 C1 1.185 . S
O12 Dy3 2.398 . S
O13 C1 1.355 . S
O13 Dy3 2.491 . S
O14 Dy3 2.403 . S
O14 C9 1.254 . S
O15 Dy0 2.310 . S
O15 Dy3 2.664 . S
O15 C9 1.268 . S
O16 Dy0 2.351 . S
O16 C19 1.249 . S
O17 Dy3 2.326 . S
O17 C19 1.267 . S
C18 O10 1.249 . S
C18 O11 1.267 . S
C19 O16 1.249 . S
C19 O17 1.267 . S
Dy20 O24 2.398 . S
Dy20 O25 2.491 . S
Dy20 O26 2.403 . S
Dy20 O27 2.664 . S
Dy20 O31 2.326 . S
Dy20 O35 2.310 . S
Dy20 O36 2.351 . S
C21 O32 1.185 . S
C21 O33 1.355 . S
C22 O24 1.185 . S
C22 O25 1.355 . S
Dy23 O27 2.310 . S
Dy23 O30 2.351 . S
Dy23 O32 2.398 . S
Dy23 O33 2.491 . S
Dy23 O34 2.403 . S
Dy23 O35 2.664 . S
Dy23 O37 2.326 . S
O24 Dy20 2.398 . S
O24 C22 1.185 . S
O25 Dy20 2.491 . S
O25 C22 1.355 . S
O26 Dy20 2.403 . S
O26 C28 1.254 . S
O27 Dy20 2.664 . S
O27 Dy23 2.310 . S
O27 C28 1.268 . S
C28 O26 1.254 . S
C28 O27 1.268 . S
C29 O34 1.254 . S
C29 O35 1.268 . S
O30 Dy23 2.351 . S
O30 C38 1.249 . S
O31 Dy20 2.326 . S
O31 C38 1.267 . S
O32 C21 1.185 . S
O32 Dy23 2.398 . S
O33 C21 1.355 . S
O33 Dy23 2.491 . S
O34 Dy23 2.403 . S
O34 C29 1.254 . S
O35 Dy20 2.310 . S
O35 Dy23 2.664 . S
O35 C29 1.268 . S
O36 Dy20 2.351 . S
O36 C39 1.249 . S
O37 Dy23 2.326 . S
O37 C39 1.267 . S
C38 O30 1.249 . S
C38 O31 1.267 . S
C39 O36 1.249 . S
C39 O37 1.267 . S
Dy40 O44 2.398 . S
Dy40 O45 2.491 . S
Dy40 O46 2.403 . S
Dy40 O47 2.664 . S
Dy40 O51 2.326 . S
Dy40 O55 2.310 . S
Dy40 O56 2.351 . S
C41 O52 1.185 . S
C41 O53 1.355 . S
C42 O44 1.185 . S
C42 O45 1.355 . S
Dy43 O47 2.310 1_554 S
Dy43 O50 2.351 1_554 S
Dy43 O52 2.398 . S
Dy43 O53 2.491 . S
Dy43 O54 2.403 . S
Dy43 O55 2.664 1_554 S
Dy43 O57 2.326 . S
O44 Dy40 2.398 . S
O44 C42 1.185 . S
O45 Dy40 2.491 . S
O45 C42 1.355 . S
O46 Dy40 2.403 . S
O46 C48 1.254 . S
O47 Dy40 2.664 . S
O47 Dy43 2.310 1_556 S
O47 C48 1.268 . S
C48 O46 1.254 . S
C48 O47 1.268 . S
C49 O54 1.254 1_556 S
C49 O55 1.268 . S
O50 Dy43 2.351 1_556 S
O50 C58 1.249 . S
O51 Dy40 2.326 . S
O51 C58 1.267 . S
O52 C41 1.185 . S
O52 Dy43 2.398 . S
O53 C41 1.355 . S
O53 Dy43 2.491 . S
O54 Dy43 2.403 . S
O54 C49 1.254 1_554 S
O55 Dy40 2.310 . S
O55 Dy43 2.664 1_556 S
O55 C49 1.268 . S
O56 Dy40 2.351 . S
O56 C59 1.249 1_556 S
O57 Dy43 2.326 . S
O57 C59 1.267 . S
C58 O50 1.249 . S
C58 O51 1.267 . S
C59 O56 1.249 1_554 S
C59 O57 1.267 . S
Dy60 O64 2.398 . S
Dy60 O65 2.491 . S
Dy60 O66 2.403 . S
Dy60 O67 2.664 . S
Dy60 O71 2.326 . S
Dy60 O75 2.310 . S
Dy60 O76 2.351 . S
C61 O72 1.185 . S
C61 O73 1.355 . S
C62 O64 1.185 . S
C62 O65 1.355 . S
Dy63 O67 2.310 1_556 S
Dy63 O70 2.351 1_556 S
Dy63 O72 2.398 . S
Dy63 O73 2.491 . S
Dy63 O74 2.403 1_556 S
Dy63 O75 2.664 1_556 S
Dy63 O77 2.326 . S
O64 Dy60 2.398 . S
O64 C62 1.185 . S
O65 Dy60 2.491 . S
O65 C62 1.355 . S
O66 Dy60 2.403 . S
O66 C68 1.254 . S
O67 Dy60 2.664 . S
O67 Dy63 2.310 1_554 S
O67 C68 1.268 . S
C68 O66 1.254 . S
C68 O67 1.268 . S
C69 O74 1.254 . S
C69 O75 1.268 . S
O70 Dy63 2.351 1_554 S
O70 C78 1.249 . S
O71 Dy60 2.326 . S
O71 C78 1.267 . S
O72 C61 1.185 . S
O72 Dy63 2.398 . S
O73 C61 1.355 . S
O73 Dy63 2.491 . S
O74 Dy63 2.403 1_554 S
O74 C69 1.254 . S
O75 Dy60 2.310 . S
O75 Dy63 2.664 1_554 S
O75 C69 1.268 . S
O76 Dy60 2.351 . S
O76 C79 1.249 . S
O77 Dy63 2.326 . S
O77 C79 1.267 1_556 S
C78 O70 1.249 . S
C78 O71 1.267 . S
C79 O76 1.249 . S
C79 O77 1.267 1_554 S
Dy80 O84 2.398 . S
Dy80 O85 2.491 . S
Dy80 O86 2.403 . S
Dy80 O87 2.664 . S
Dy80 O91 2.326 . S
Dy80 O95 2.310 . S
Dy80 O96 2.351 . S
C81 O92 1.185 . S
C81 O93 1.355 . S
C82 O84 1.185 . S
C82 O85 1.355 . S
Dy83 O87 2.310 . S
Dy83 O90 2.351 . S
Dy83 O92 2.398 . S
Dy83 O93 2.491 . S
Dy83 O94 2.403 . S
Dy83 O95 2.664 . S
Dy83 O97 2.326 . S
O84 Dy80 2.398 . S
O84 C82 1.185 . S
O85 Dy80 2.491 . S
O85 C82 1.355 . S
O86 Dy80 2.403 . S
O86 C88 1.254 . S
O87 Dy80 2.664 . S
O87 Dy83 2.310 . S
O87 C88 1.268 . S
C88 O86 1.254 . S
C88 O87 1.268 . S
C89 O94 1.254 . S
C89 O95 1.268 . S
O90 Dy83 2.351 . S
O90 C98 1.249 . S
O91 Dy80 2.326 . S
O91 C98 1.267 . S
O92 C81 1.185 . S
O92 Dy83 2.398 . S
O93 C81 1.355 . S
O93 Dy83 2.491 . S
O94 Dy83 2.403 . S
O94 C89 1.254 . S
O95 Dy80 2.310 . S
O95 Dy83 2.664 . S
O95 C89 1.268 . S
O96 Dy80 2.351 . S
O96 C99 1.249 . S
O97 Dy83 2.326 . S
O97 C99 1.267 . S
C98 O90 1.249 . S
C98 O91 1.267 . S
C99 O96 1.249 . S
C99 O97 1.267 . S
Dy100 O104 2.398 . S
Dy100 O105 2.491 . S
Dy100 O106 2.403 . S
Dy100 O107 2.664 . S
Dy100 O111 2.326 . S
Dy100 O115 2.310 . S
Dy100 O116 2.351 . S
C101 O112 1.185 . S
C101 O113 1.355 . S
C102 O104 1.185 . S
C102 O105 1.355 . S
Dy103 O107 2.310 . S
Dy103 O110 2.351 . S
Dy103 O112 2.398 . S
Dy103 O113 2.491 . S
Dy103 O114 2.403 . S
Dy103 O115 2.664 . S
Dy103 O117 2.326 . S
O104 Dy100 2.398 . S
O104 C102 1.185 . S
O105 Dy100 2.491 . S
O105 C102 1.355 . S
O106 Dy100 2.403 . S
O106 C108 1.254 . S
O107 Dy100 2.664 . S
O107 Dy103 2.310 . S
O107 C108 1.268 . S
C108 O106 1.254 . S
C108 O107 1.268 . S
C109 O114 1.254 . S
C109 O115 1.268 . S
O110 Dy103 2.351 . S
O110 C118 1.249 . S
O111 Dy100 2.326 . S
O111 C118 1.267 . S
O112 C101 1.185 . S
O112 Dy103 2.398 . S
O113 C101 1.355 . S
O113 Dy103 2.491 . S
O114 Dy103 2.403 . S
O114 C109 1.254 . S
O115 Dy100 2.310 . S
O115 Dy103 2.664 . S
O115 C109 1.268 . S
O116 Dy100 2.351 . S
O116 C119 1.249 . S
O117 Dy103 2.326 . S
O117 C119 1.267 . S
C118 O110 1.249 . S
C118 O111 1.267 . S
C119 O116 1.249 . S
C119 O117 1.267 . S
H120 C138 0.951 . S
H121 C140 0.951 . S
H122 C142 0.950 . S
H123 C143 0.950 . S
H124 C145 0.950 . S
H125 C148 0.950 . S
H126 C149 0.950 . S
H127 C151 0.950 . S
H128 C152 0.950 . S
H129 C153 0.951 . S
H130 C155 0.951 . S
H131 C157 0.950 . S
H132 C158 0.950 . S
H133 C160 0.950 . S
H134 C163 0.953 . S
H135 C164 0.950 . S
H136 C166 0.950 . S
H137 C167 0.950 . S
C138 H120 0.951 . S
C138 C139 1.366 . S
C138 C140 1.388 . S
C139 C138 1.366 . S
C139 C143 1.385 . S
C140 H121 0.951 . S
C140 C138 1.388 . S
C140 C141 1.366 . S
C141 C140 1.366 . S
C141 C142 1.414 . S
C141 C144 1.499 . S
C142 H122 0.950 . S
C142 C141 1.414 . S
C142 C143 1.374 . S
C143 H123 0.950 . S
C143 C139 1.385 . S
C143 C142 1.374 . S
C144 C141 1.499 . S
C144 C145 1.373 . S
C144 C146 1.389 1_556 S
C145 H124 0.950 . S
C145 C144 1.373 . S
C145 C161 1.377 1_556 S
C146 C144 1.389 1_554 S
C146 C147 1.524 . S
C146 C160 1.377 . S
C147 C146 1.524 . S
C147 C148 1.397 . S
C147 C152 1.363 . S
C148 H125 0.950 . S
C148 C147 1.397 . S
C148 C149 1.334 . S
C149 H126 0.950 . S
C149 C148 1.334 . S
C149 C150 1.287 . S
C150 C149 1.287 . S
C150 C151 1.524 . S
C150 H169 0.913 . S
C151 H127 0.950 . S
C151 C150 1.524 . S
C151 C152 1.415 . S
C152 H128 0.950 . S
C152 C147 1.363 . S
C152 C151 1.415 . S
C153 H129 0.951 . S
C153 C154 1.366 . S
C153 C155 1.388 . S
C154 C153 1.366 . S
C154 C158 1.385 . S
C155 H130 0.951 . S
C155 C153 1.388 . S
C155 C156 1.366 . S
C156 C155 1.366 . S
C156 C157 1.414 . S
C156 C159 1.499 . S
C157 H131 0.950 . S
C157 C156 1.414 . S
C157 C158 1.374 . S
C158 H132 0.950 . S
C158 C154 1.385 . S
C158 C157 1.374 . S
C159 C156 1.499 . S
C159 C160 1.373 . S
C159 C161 1.389 . S
C160 H133 0.950 . S
C160 C146 1.377 . S
C160 C159 1.373 . S
C161 C145 1.377 1_554 S
C161 C159 1.389 . S
C161 C162 1.524 1_554 S
C162 C161 1.524 1_556 S
C162 C163 1.397 . S
C162 C167 1.363 . S
C163 H134 0.953 . S
C163 C162 1.397 . S
C163 C164 1.334 . S
C164 H135 0.950 . S
C164 C163 1.334 . S
C164 C165 1.287 . S
C165 C164 1.287 . S
C165 C166 1.524 . S
C165 H168 0.999 . S
C166 H136 0.950 . S
C166 C165 1.524 . S
C166 C167 1.415 . S
C167 H137 0.950 . S
C167 C162 1.363 . S
C167 C166 1.415 . S
H168 C165 0.999 . S
H169 C150 0.913 . S
H170 C188 0.951 . S
H171 C190 0.951 . S
H172 C192 0.950 . S
H173 C193 0.950 . S
H174 C195 0.950 . S
H175 C198 0.950 . S
H176 C199 0.950 . S
H177 C201 0.950 . S
H178 C202 0.950 . S
H179 C203 0.951 . S
H180 C205 0.951 . S
H181 C207 0.950 . S
H182 C208 0.950 . S
H183 C210 0.950 . S
H184 C213 0.950 . S
H185 C214 0.950 . S
H186 C216 0.950 . S
H187 C217 0.950 . S
C188 H170 0.951 . S
C188 C189 1.366 . S
C188 C190 1.388 . S
C189 C188 1.366 . S
C189 C193 1.385 . S
C190 H171 0.951 . S
C190 C188 1.388 . S
C190 C191 1.366 . S
C191 C190 1.366 . S
C191 C192 1.414 . S
C191 C194 1.499 . S
C192 H172 0.950 . S
C192 C191 1.414 . S
C192 C193 1.374 . S
C193 H173 0.950 . S
C193 C189 1.385 . S
C193 C192 1.374 . S
C194 C191 1.499 . S
C194 C195 1.373 . S
C194 C196 1.389 . S
C195 H174 0.950 . S
C195 C194 1.373 . S
C195 C211 1.377 1_455 S
C196 C194 1.389 . S
C196 C197 1.524 . S
C196 C210 1.377 1_455 S
C197 C196 1.524 . S
C197 C198 1.397 . S
C197 C202 1.363 . S
C198 H175 0.950 . S
C198 C197 1.397 . S
C198 C199 1.334 . S
C199 H176 0.950 . S
C199 C198 1.334 . S
C199 C200 1.287 . S
C200 C199 1.287 . S
C200 C201 1.524 . S
C200 H219 0.913 . S
C201 H177 0.950 . S
C201 C200 1.524 . S
C201 C202 1.415 . S
C202 H178 0.950 . S
C202 C197 1.363 . S
C202 C201 1.415 . S
C203 H179 0.951 . S
C203 C204 1.366 . S
C203 C205 1.388 . S
C204 C203 1.366 . S
C204 C208 1.385 . S
C205 H180 0.951 . S
C205 C203 1.388 . S
C205 C206 1.366 . S
C206 C205 1.366 . S
C206 C207 1.414 . S
C206 C209 1.499 . S
C207 H181 0.950 . S
C207 C206 1.414 . S
C207 C208 1.374 . S
C208 H182 0.950 . S
C208 C204 1.385 . S
C208 C207 1.374 . S
C209 C206 1.499 . S
C209 C210 1.373 . S
C209 C211 1.389 . S
C210 H183 0.950 . S
C210 C196 1.377 1_655 S
C210 C209 1.373 . S
C211 C195 1.377 1_655 S
C211 C209 1.389 . S
C211 C212 1.524 . S
C212 C211 1.524 . S
C212 C213 1.397 . S
C212 C217 1.363 . S
C213 H184 0.950 . S
C213 C212 1.397 . S
C213 C214 1.334 . S
C214 H185 0.950 . S
C214 C213 1.334 . S
C214 C215 1.287 . S
C215 C214 1.287 . S
C215 C216 1.524 . S
C215 H218 0.999 . S
C216 H186 0.950 . S
C216 C215 1.524 . S
C216 C217 1.415 . S
C217 H187 0.950 . S
C217 C212 1.363 . S
C217 C216 1.415 . S
H218 C215 0.999 . S
H219 C200 0.913 . S
H220 C238 0.951 . S
H221 C240 0.951 . S
H222 C242 0.950 . S
H223 C243 0.950 . S
H224 C245 0.950 . S
H225 C248 0.950 . S
H226 C249 0.950 . S
H227 C251 0.954 . S
H228 C252 0.950 1_565 S
H229 C253 0.951 . S
H230 C255 0.951 . S
H231 C257 0.950 . S
H232 C258 0.950 . S
H233 C260 0.950 . S
H234 C263 0.950 . S
H235 C264 0.950 . S
H236 C266 0.954 . S
H237 C267 0.950 1_545 S
C238 H220 0.951 . S
C238 C239 1.366 . S
C238 C240 1.388 . S
C239 C238 1.366 . S
C239 C243 1.385 . S
C240 H221 0.951 . S
C240 C238 1.388 . S
C240 C241 1.366 . S
C241 C240 1.366 . S
C241 C242 1.414 . S
C241 C244 1.499 . S
C242 H222 0.950 . S
C242 C241 1.414 . S
C242 C243 1.374 . S
C243 H223 0.950 . S
C243 C239 1.385 . S
C243 C242 1.374 . S
C244 C241 1.499 . S
C244 C245 1.373 . S
C244 C246 1.389 . S
C245 H224 0.950 . S
C245 C244 1.373 . S
C245 C261 1.377 1_545 S
C246 C244 1.389 . S
C246 C247 1.524 . S
C246 C260 1.377 1_545 S
C247 C246 1.524 . S
C247 C248 1.397 . S
C247 C252 1.363 . S
C248 H225 0.950 . S
C248 C247 1.397 . S
C248 C249 1.334 . S
C249 H226 0.950 . S
C249 C248 1.334 . S
C249 C250 1.287 . S
C250 C249 1.287 . S
C250 C251 1.524 . S
C250 H269 0.913 . S
C251 H227 0.954 . S
C251 C250 1.524 . S
C251 C252 1.415 . S
C252 H228 0.950 1_545 S
C252 C247 1.363 . S
C252 C251 1.415 . S
C253 H229 0.951 . S
C253 C254 1.366 . S
C253 C255 1.388 . S
C254 C253 1.366 . S
C254 C258 1.385 . S
C255 H230 0.951 . S
C255 C253 1.388 . S
C255 C256 1.366 . S
C256 C255 1.366 . S
C256 C257 1.414 . S
C256 C259 1.499 . S
C257 H231 0.950 . S
C257 C256 1.414 . S
C257 C258 1.374 . S
C258 H232 0.950 . S
C258 C254 1.385 . S
C258 C257 1.374 . S
C259 C256 1.499 . S
C259 C260 1.373 . S
C259 C261 1.389 . S
C260 H233 0.950 . S
C260 C246 1.377 1_565 S
C260 C259 1.373 . S
C261 C245 1.377 1_565 S
C261 C259 1.389 . S
C261 C262 1.524 . S
C262 C261 1.524 . S
C262 C263 1.397 . S
C262 C267 1.363 . S
C263 H234 0.950 . S
C263 C262 1.397 . S
C263 C264 1.334 . S
C264 H235 0.950 . S
C264 C263 1.334 . S
C264 C265 1.287 . S
C265 C264 1.287 . S
C265 C266 1.524 . S
C265 H268 0.999 . S
C266 H236 0.954 . S
C266 C265 1.524 . S
C266 C267 1.415 . S
C267 H237 0.950 1_565 S
C267 C262 1.363 . S
C267 C266 1.415 . S
H268 C265 0.999 . S
H269 C250 0.913 . S
H270 C288 0.951 . S
H271 C290 0.951 . S
H272 C292 0.950 . S
H273 C293 0.950 . S
H274 C295 0.953 . S
H275 C298 0.950 . S
H276 C299 0.950 . S
H277 C301 0.946 1_556 S
H278 C302 0.950 1_556 S
H279 C303 0.951 . S
H280 C305 0.951 . S
H281 C307 0.950 . S
H282 C308 0.950 1_556 S
H283 C310 0.950 . S
H284 C313 0.950 . S
H285 C314 0.950 . S
H286 C316 0.950 . S
H287 C317 0.950 . S
C288 H270 0.951 . S
C288 C289 1.366 . S
C288 C290 1.388 . S
C289 C288 1.366 . S
C289 C293 1.385 1_556 S
C290 H271 0.951 . S
C290 C288 1.388 . S
C290 C291 1.366 1_556 S
C291 C290 1.366 1_554 S
C291 C292 1.414 . S
C291 C294 1.499 . S
C292 H272 0.950 . S
C292 C291 1.414 . S
C292 C293 1.374 . S
C293 H273 0.950 . S
C293 C289 1.385 1_554 S
C293 C292 1.374 . S
C294 C291 1.499 . S
C294 C295 1.373 . S
C294 C296 1.389 . S
C295 H274 0.953 . S
C295 C294 1.373 . S
C295 C311 1.377 . S
C296 C294 1.389 . S
C296 C297 1.524 . S
C296 C310 1.377 . S
C297 C296 1.524 . S
C297 C298 1.397 . S
C297 C302 1.363 . S
C298 H275 0.950 . S
C298 C297 1.397 . S
C298 C299 1.334 . S
C299 H276 0.950 . S
C299 C298 1.334 . S
C299 C300 1.287 . S
C300 C299 1.287 . S
C300 C301 1.524 . S
C300 H319 0.913 . S
C301 H277 0.946 1_554 S
C301 C300 1.524 . S
C301 C302 1.415 . S
C302 H278 0.950 1_554 S
C302 C297 1.363 . S
C302 C301 1.415 . S
C303 H279 0.951 . S
C303 C304 1.366 . S
C303 C305 1.388 . S
C304 C303 1.366 . S
C304 C308 1.385 . S
C305 H280 0.951 . S
C305 C303 1.388 . S
C305 C306 1.366 . S
C306 C305 1.366 . S
C306 C307 1.414 1_554 S
C306 C309 1.499 . S
C307 H281 0.950 . S
C307 C306 1.414 1_556 S
C307 C308 1.374 1_556 S
C308 H282 0.950 1_554 S
C308 C304 1.385 . S
C308 C307 1.374 1_554 S
C309 C306 1.499 . S
C309 C310 1.373 . S
C309 C311 1.389 . S
C310 H283 0.950 . S
C310 C296 1.377 . S
C310 C309 1.373 . S
C311 C295 1.377 . S
C311 C309 1.389 . S
C311 C312 1.524 1_554 S
C312 C311 1.524 1_556 S
C312 C313 1.397 . S
C312 C317 1.363 1_556 S
C313 H284 0.950 . S
C313 C312 1.397 . S
C313 C314 1.334 . S
C314 H285 0.950 . S
C314 C313 1.334 . S
C314 C315 1.287 . S
C315 C314 1.287 . S
C315 C316 1.524 1_556 S
C315 H318 0.999 . S
C316 H286 0.950 . S
C316 C315 1.524 1_554 S
C316 C317 1.415 . S
C317 H287 0.950 . S
C317 C312 1.363 1_554 S
C317 C316 1.415 . S
H318 C315 0.999 . S
H319 C300 0.913 . S
H320 C338 0.951 . S
H321 C340 0.951 . S
H322 C342 0.950 . S
H323 C343 0.950 . S
H324 C345 0.950 . S
H325 C348 0.950 . S
H326 C349 0.950 . S
H327 C351 0.950 . S
H328 C352 0.950 . S
H329 C353 0.951 . S
H330 C355 0.951 . S
H331 C357 0.950 . S
H332 C358 0.950 . S
H333 C360 0.950 . S
H334 C363 0.950 . S
H335 C364 0.950 . S
H336 C366 0.950 . S
H337 C367 0.950 . S
C338 H320 0.951 . S
C338 C339 1.366 . S
C338 C340 1.388 . S
C339 C338 1.366 . S
C339 C343 1.385 . S
C340 H321 0.951 . S
C340 C338 1.388 . S
C340 C341 1.366 . S
C341 C340 1.366 . S
C341 C342 1.414 . S
C341 C344 1.499 . S
C342 H322 0.950 . S
C342 C341 1.414 . S
C342 C343 1.374 . S
C343 H323 0.950 . S
C343 C339 1.385 . S
C343 C342 1.374 . S
C344 C341 1.499 . S
C344 C345 1.373 1_455 S
C344 C346 1.389 . S
C345 H324 0.950 . S
C345 C344 1.373 1_655 S
C345 C361 1.377 . S
C346 C344 1.389 . S
C346 C347 1.524 . S
C346 C360 1.377 . S
C347 C346 1.524 . S
C347 C348 1.397 . S
C347 C352 1.363 . S
C348 H325 0.950 . S
C348 C347 1.397 . S
C348 C349 1.334 . S
C349 H326 0.950 . S
C349 C348 1.334 . S
C349 C350 1.287 . S
C350 C349 1.287 . S
C350 C351 1.524 . S
C350 H369 0.913 . S
C351 H327 0.950 . S
C351 C350 1.524 . S
C351 C352 1.415 . S
C352 H328 0.950 . S
C352 C347 1.363 . S
C352 C351 1.415 . S
C353 H329 0.951 . S
C353 C354 1.366 . S
C353 C355 1.388 . S
C354 C353 1.366 . S
C354 C358 1.385 . S
C355 H330 0.951 . S
C355 C353 1.388 . S
C355 C356 1.366 . S
C356 C355 1.366 . S
C356 C357 1.414 . S
C356 C359 1.499 . S
C357 H331 0.950 . S
C357 C356 1.414 . S
C357 C358 1.374 . S
C358 H332 0.950 . S
C358 C354 1.385 . S
C358 C357 1.374 . S
C359 C356 1.499 . S
C359 C360 1.373 1_655 S
C359 C361 1.389 . S
C360 H333 0.950 . S
C360 C346 1.377 . S
C360 C359 1.373 1_455 S
C361 C345 1.377 . S
C361 C359 1.389 . S
C361 C362 1.524 . S
C362 C361 1.524 . S
C362 C363 1.397 . S
C362 C367 1.363 . S
C363 H334 0.950 . S
C363 C362 1.397 . S
C363 C364 1.334 . S
C364 H335 0.950 . S
C364 C363 1.334 . S
C364 C365 1.287 . S
C365 C364 1.287 . S
C365 C366 1.524 . S
C365 H368 0.999 . S
C366 H336 0.950 . S
C366 C365 1.524 . S
C366 C367 1.415 . S
C367 H337 0.950 . S
C367 C362 1.363 . S
C367 C366 1.415 . S
H368 C365 0.999 . S
H369 C350 0.913 . S
H370 C388 0.951 . S
H371 C390 0.951 . S
H372 C392 0.950 . S
H373 C393 0.950 . S
H374 C395 0.950 . S
H375 C398 0.950 . S
H376 C399 0.950 . S
H377 C401 0.950 . S
H378 C402 0.950 . S
H379 C403 0.951 . S
H380 C405 0.951 . S
H381 C407 0.950 . S
H382 C408 0.950 . S
H383 C410 0.950 . S
H384 C413 0.950 . S
H385 C414 0.950 . S
H386 C416 0.950 . S
H387 C417 0.950 . S
C388 H370 0.951 . S
C388 C389 1.366 . S
C388 C390 1.388 . S
C389 C388 1.366 . S
C389 C393 1.385 . S
C390 H371 0.951 . S
C390 C388 1.388 . S
C390 C391 1.366 . S
C391 C390 1.366 . S
C391 C392 1.414 . S
C391 C394 1.499 . S
C392 H372 0.950 . S
C392 C391 1.414 . S
C392 C393 1.374 . S
C393 H373 0.950 . S
C393 C389 1.385 . S
C393 C392 1.374 . S
C394 C391 1.499 . S
C394 C395 1.373 . S
C394 C396 1.389 . S
C395 H374 0.950 . S
C395 C394 1.373 . S
C395 C411 1.377 1_545 S
C396 C394 1.389 . S
C396 C397 1.524 . S
C396 C410 1.377 1_545 S
C397 C396 1.524 . S
C397 C398 1.397 . S
C397 C402 1.363 . S
C398 H375 0.950 . S
C398 C397 1.397 . S
C398 C399 1.334 . S
C399 H376 0.950 . S
C399 C398 1.334 . S
C399 C400 1.287 . S
C400 C399 1.287 . S
C400 C401 1.524 . S
C400 H419 0.913 . S
C401 H377 0.950 . S
C401 C400 1.524 . S
C401 C402 1.415 . S
C402 H378 0.950 . S
C402 C397 1.363 . S
C402 C401 1.415 . S
C403 H379 0.951 . S
C403 C404 1.366 . S
C403 C405 1.388 . S
C404 C403 1.366 . S
C404 C408 1.385 . S
C405 H380 0.951 . S
C405 C403 1.388 . S
C405 C406 1.366 . S
C406 C405 1.366 . S
C406 C407 1.414 . S
C406 C409 1.499 . S
C407 H381 0.950 . S
C407 C406 1.414 . S
C407 C408 1.374 . S
C408 H382 0.950 . S
C408 C404 1.385 . S
C408 C407 1.374 . S
C409 C406 1.499 . S
C409 C410 1.373 . S
C409 C411 1.389 . S
C410 H383 0.950 . S
C410 C396 1.377 1_565 S
C410 C409 1.373 . S
C411 C395 1.377 1_565 S
C411 C409 1.389 . S
C411 C412 1.524 . S
C412 C411 1.524 . S
C412 C413 1.397 . S
C412 C417 1.363 . S
C413 H384 0.950 . S
C413 C412 1.397 . S
C413 C414 1.334 . S
C414 H385 0.950 . S
C414 C413 1.334 . S
C414 C415 1.287 . S
C415 C414 1.287 . S
C415 C416 1.524 . S
C415 H418 0.999 . S
C416 H386 0.950 . S
C416 C415 1.524 . S
C416 C417 1.415 . S
C417 H387 0.950 . S
C417 C412 1.363 . S
C417 C416 1.415 . S
H418 C415 0.999 . S
H419 C400 0.913 . S
H420 C438 0.951 . S
H421 C440 0.951 . S
H422 C442 0.950 . S
H423 C443 0.950 . S
H424 C445 0.950 . S
H425 C448 0.950 . S
H426 C449 0.950 . S
H427 C451 0.950 . S
H428 C452 0.950 . S
H429 C453 0.951 . S
H430 C455 0.951 . S
H431 C457 0.950 . S
H432 C458 0.950 . S
H433 C460 0.950 . S
H434 C463 0.950 . S
H435 C464 0.950 . S
H436 C466 0.950 . S
H437 C467 0.950 . S
C438 H420 0.951 . S
C438 C439 1.366 . S
C438 C440 1.388 1_554 S
C439 C438 1.366 . S
C439 C443 1.385 . S
C440 H421 0.951 . S
C440 C438 1.388 1_556 S
C440 C441 1.366 . S
C441 C440 1.366 . S
C441 C442 1.414 . S
C441 C444 1.499 . S
C442 H422 0.950 . S
C442 C441 1.414 . S
C442 C443 1.374 1_556 S
C443 H423 0.950 . S
C443 C439 1.385 . S
C443 C442 1.374 1_554 S
C444 C441 1.499 . S
C444 C445 1.373 . S
C444 C446 1.389 . S
C445 H424 0.950 . S
C445 C444 1.373 . S
C445 C461 1.377 . S
C446 C444 1.389 . S
C446 C447 1.524 . S
C446 C460 1.377 . S
C447 C446 1.524 . S
C447 C448 1.397 . S
C447 C452 1.363 . S
C448 H425 0.950 . S
C448 C447 1.397 . S
C448 C449 1.334 . S
C449 H426 0.950 . S
C449 C448 1.334 . S
C449 C450 1.287 . S
C450 C449 1.287 . S
C450 C451 1.524 . S
C450 H469 0.913 . S
C451 H427 0.950 . S
C451 C450 1.524 . S
C451 C452 1.415 . S
C452 H428 0.950 . S
C452 C447 1.363 . S
C452 C451 1.415 . S
C453 H429 0.951 . S
C453 C454 1.366 . S
C453 C455 1.388 . S
C454 C453 1.366 . S
C454 C458 1.385 . S
C455 H430 0.951 . S
C455 C453 1.388 . S
C455 C456 1.366 . S
C456 C455 1.366 . S
C456 C457 1.414 . S
C456 C459 1.499 . S
C457 H431 0.950 . S
C457 C456 1.414 . S
C457 C458 1.374 . S
C458 H432 0.950 . S
C458 C454 1.385 . S
C458 C457 1.374 . S
C459 C456 1.499 . S
C459 C460 1.373 . S
C459 C461 1.389 . S
C460 H433 0.950 . S
C460 C446 1.377 . S
C460 C459 1.373 . S
C461 C445 1.377 . S
C461 C459 1.389 . S
C461 C462 1.524 . S
C462 C461 1.524 . S
C462 C463 1.397 . S
C462 C467 1.363 . S
C463 H434 0.950 . S
C463 C462 1.397 . S
C463 C464 1.334 . S
C464 H435 0.950 . S
C464 C463 1.334 . S
C464 C465 1.287 . S
C465 C464 1.287 . S
C465 C466 1.524 . S
C465 H468 0.999 . S
C466 H436 0.950 . S
C466 C465 1.524 . S
C466 C467 1.415 . S
C467 H437 0.950 . S
C467 C462 1.363 . S
C467 C466 1.415 . S
H468 C465 0.999 . S
H469 C450 0.913 . S
H470 C488 0.951 . S
H471 C490 0.951 . S
H472 C492 0.950 . S
H473 C493 0.950 . S
H474 C495 0.950 . S
H475 C498 0.950 . S
H476 C499 0.950 . S
H477 C501 0.950 . S
H478 C502 0.950 . S
H479 C503 0.951 . S
H480 C505 0.951 . S
H481 C507 0.950 . S
H482 C508 0.950 . S
H483 C510 0.950 . S
H484 C513 0.950 . S
H485 C514 0.950 . S
H486 C516 0.950 . S
H487 C517 0.950 . S
C488 H470 0.951 . S
C488 C489 1.366 . S
C488 C490 1.388 . S
C489 C488 1.366 . S
C489 C493 1.385 . S
C490 H471 0.951 . S
C490 C488 1.388 . S
C490 C491 1.366 . S
C491 C490 1.366 . S
C491 C492 1.414 . S
C491 C494 1.499 1_554 S
C492 H472 0.950 . S
C492 C491 1.414 . S
C492 C493 1.374 . S
C493 H473 0.950 . S
C493 C489 1.385 . S
C493 C492 1.374 . S
C494 C491 1.499 1_556 S
C494 C495 1.373 . S
C494 C496 1.389 . S
C495 H474 0.950 . S
C495 C494 1.373 . S
C495 C511 1.377 . S
C496 C494 1.389 . S
C496 C497 1.524 . S
C496 C510 1.377 . S
C497 C496 1.524 . S
C497 C498 1.397 . S
C497 C502 1.363 . S
C498 H475 0.950 . S
C498 C497 1.397 . S
C498 C499 1.334 1_556 S
C499 H476 0.950 . S
C499 C498 1.334 1_554 S
C499 C500 1.287 1_554 S
C500 C499 1.287 1_556 S
C500 C501 1.524 . S
C500 H519 0.913 1_556 S
C501 H477 0.950 . S
C501 C500 1.524 . S
C501 C502 1.415 . S
C502 H478 0.950 . S
C502 C497 1.363 . S
C502 C501 1.415 . S
C503 H479 0.951 . S
C503 C504 1.366 . S
C503 C505 1.388 . S
C504 C503 1.366 . S
C504 C508 1.385 . S
C505 H480 0.951 . S
C505 C503 1.388 . S
C505 C506 1.366 . S
C506 C505 1.366 . S
C506 C507 1.414 . S
C506 C509 1.499 . S
C507 H481 0.950 . S
C507 C506 1.414 . S
C507 C508 1.374 . S
C508 H482 0.950 . S
C508 C504 1.385 . S
C508 C507 1.374 . S
C509 C506 1.499 . S
C509 C510 1.373 . S
C509 C511 1.389 . S
C510 H483 0.950 . S
C510 C496 1.377 . S
C510 C509 1.373 . S
C511 C495 1.377 . S
C511 C509 1.389 . S
C511 C512 1.524 . S
C512 C511 1.524 . S
C512 C513 1.397 . S
C512 C517 1.363 . S
C513 H484 0.950 . S
C513 C512 1.397 . S
C513 C514 1.334 . S
C514 H485 0.950 . S
C514 C513 1.334 . S
C514 C515 1.287 . S
C515 C514 1.287 . S
C515 C516 1.524 . S
C515 H518 0.999 . S
C516 H486 0.950 . S
C516 C515 1.524 . S
C516 C517 1.415 . S
C517 H487 0.950 . S
C517 C512 1.363 . S
C517 C516 1.415 . S
H518 C515 0.999 . S
H519 C500 0.913 1_554 S
H520 C538 0.951 . S
H521 C540 0.951 . S
H522 C542 0.950 . S
H523 C543 0.950 . S
H524 C545 0.950 . S
H525 C548 0.950 . S
H526 C549 0.950 . S
H527 C551 0.950 . S
H528 C552 0.950 . S
H529 C553 0.951 . S
H530 C555 0.951 . S
H531 C557 0.950 . S
H532 C558 0.950 . S
H533 C560 0.950 . S
H534 C563 0.950 . S
H535 C564 0.950 . S
H536 C566 0.950 . S
H537 C567 0.950 . S
C538 H520 0.951 . S
C538 C539 1.366 . S
C538 C540 1.388 . S
C539 C538 1.366 . S
C539 C543 1.385 . S
C540 H521 0.951 . S
C540 C538 1.388 . S
C540 C541 1.366 . S
C541 C540 1.366 . S
C541 C542 1.414 . S
C541 C544 1.499 . S
C542 H522 0.950 . S
C542 C541 1.414 . S
C542 C543 1.374 . S
C543 H523 0.950 . S
C543 C539 1.385 . S
C543 C542 1.374 . S
C544 C541 1.499 . S
C544 C545 1.373 . S
C544 C546 1.389 . S
C545 H524 0.950 . S
C545 C544 1.373 . S
C545 C561 1.377 . S
C546 C544 1.389 . S
C546 C547 1.524 . S
C546 C560 1.377 . S
C547 C546 1.524 . S
C547 C548 1.397 . S
C547 C552 1.363 . S
C548 H525 0.950 . S
C548 C547 1.397 . S
C548 C549 1.334 . S
C549 H526 0.950 . S
C549 C548 1.334 . S
C549 C550 1.287 . S
C550 C549 1.287 . S
C550 C551 1.524 . S
C550 H569 0.913 . S
C551 H527 0.950 . S
C551 C550 1.524 . S
C551 C552 1.415 . S
C552 H528 0.950 . S
C552 C547 1.363 . S
C552 C551 1.415 . S
C553 H529 0.951 . S
C553 C554 1.366 . S
C553 C555 1.388 . S
C554 C553 1.366 . S
C554 C558 1.385 . S
C555 H530 0.951 . S
C555 C553 1.388 . S
C555 C556 1.366 . S
C556 C555 1.366 . S
C556 C557 1.414 . S
C556 C559 1.499 . S
C557 H531 0.950 . S
C557 C556 1.414 . S
C557 C558 1.374 . S
C558 H532 0.950 . S
C558 C554 1.385 . S
C558 C557 1.374 . S
C559 C556 1.499 . S
C559 C560 1.373 . S
C559 C561 1.389 . S
C560 H533 0.950 . S
C560 C546 1.377 . S
C560 C559 1.373 . S
C561 C545 1.377 . S
C561 C559 1.389 . S
C561 C562 1.524 . S
C562 C561 1.524 . S
C562 C563 1.397 . S
C562 C567 1.363 . S
C563 H534 0.950 . S
C563 C562 1.397 . S
C563 C564 1.334 . S
C564 H535 0.950 . S
C564 C563 1.334 . S
C564 C565 1.287 . S
C565 C564 1.287 . S
C565 C566 1.524 . S
C565 H568 0.999 . S
C566 H536 0.950 . S
C566 C565 1.524 . S
C566 C567 1.415 . S
C567 H537 0.950 . S
C567 C562 1.363 . S
C567 C566 1.415 . S
H568 C565 0.999 . S
H569 C550 0.913 . S
H570 C588 0.951 . S
H571 C590 0.951 . S
H572 C592 0.950 . S
H573 C593 0.950 . S
H574 C595 0.950 . S
H575 C598 0.950 . S
H576 C599 0.950 . S
H577 C601 0.950 . S
H578 C602 0.950 . S
H579 C603 0.951 . S
H580 C605 0.951 . S
H581 C607 0.950 . S
H582 C608 0.950 . S
H583 C610 0.950 . S
H584 C613 0.950 . S
H585 C614 0.950 . S
H586 C616 0.950 . S
H587 C617 0.950 . S
C588 H570 0.951 . S
C588 C589 1.366 . S
C588 C590 1.388 . S
C589 C588 1.366 . S
C589 C593 1.385 . S
C590 H571 0.951 . S
C590 C588 1.388 . S
C590 C591 1.366 . S
C591 C590 1.366 . S
C591 C592 1.414 . S
C591 C594 1.499 . S
C592 H572 0.950 . S
C592 C591 1.414 . S
C592 C593 1.374 . S
C593 H573 0.950 . S
C593 C589 1.385 . S
C593 C592 1.374 . S
C594 C591 1.499 . S
C594 C595 1.373 . S
C594 C596 1.389 . S
C595 H574 0.950 . S
C595 C594 1.373 . S
C595 C611 1.377 . S
C596 C594 1.389 . S
C596 C597 1.524 . S
C596 C610 1.377 . S
C597 C596 1.524 . S
C597 C598 1.397 . S
C597 C602 1.363 . S
C598 H575 0.950 . S
C598 C597 1.397 . S
C598 C599 1.334 . S
C599 H576 0.950 . S
C599 C598 1.334 . S
C599 C600 1.287 . S
C600 C599 1.287 . S
C600 C601 1.524 . S
C600 H619 0.913 . S
C601 H577 0.950 . S
C601 C600 1.524 . S
C601 C602 1.415 . S
C602 H578 0.950 . S
C602 C597 1.363 . S
C602 C601 1.415 . S
C603 H579 0.951 . S
C603 C604 1.366 . S
C603 C605 1.388 . S
C604 C603 1.366 . S
C604 C608 1.385 . S
C605 H580 0.951 . S
C605 C603 1.388 . S
C605 C606 1.366 . S
C606 C605 1.366 . S
C606 C607 1.414 . S
C606 C609 1.499 . S
C607 H581 0.950 . S
C607 C606 1.414 . S
C607 C608 1.374 . S
C608 H582 0.950 . S
C608 C604 1.385 . S
C608 C607 1.374 . S
C609 C606 1.499 . S
C609 C610 1.373 . S
C609 C611 1.389 . S
C610 H583 0.950 . S
C610 C596 1.377 . S
C610 C609 1.373 . S
C611 C595 1.377 . S
C611 C609 1.389 . S
C611 C612 1.524 . S
C612 C611 1.524 . S
C612 C613 1.397 . S
C612 C617 1.363 . S
C613 H584 0.950 . S
C613 C612 1.397 . S
C613 C614 1.334 . S
C614 H585 0.950 . S
C614 C613 1.334 . S
C614 C615 1.287 . S
C615 C614 1.287 . S
C615 C616 1.524 . S
C615 H618 0.999 . S
C616 H586 0.950 . S
C616 C615 1.524 . S
C616 C617 1.415 . S
C617 H587 0.950 . S
C617 C612 1.363 . S
C617 C616 1.415 . S
H618 C615 0.999 . S
H619 C600 0.913 . S
H620 C638 0.951 . S
H621 C640 0.951 . S
H622 C642 0.950 . S
H623 C643 0.950 . S
H624 C645 0.950 . S
H625 C648 0.950 . S
H626 C649 0.950 1_556 S
H627 C651 0.950 . S
H628 C652 0.950 . S
H629 C653 0.951 . S
H630 C655 0.951 . S
H631 C657 0.950 . S
H632 C658 0.950 . S
H633 C660 0.950 . S
H634 C663 0.950 . S
H635 C664 0.950 . S
H636 C666 0.950 . S
H637 C667 0.950 . S
C638 H620 0.951 . S
C638 C639 1.366 . S
C638 C640 1.388 . S
C639 C638 1.366 . S
C639 C643 1.385 . S
C640 H621 0.951 . S
C640 C638 1.388 . S
C640 C641 1.366 . S
C641 C640 1.366 . S
C641 C642 1.414 . S
C641 C644 1.499 1_556 S
C642 H622 0.950 . S
C642 C641 1.414 . S
C642 C643 1.374 . S
C643 H623 0.950 . S
C643 C639 1.385 . S
C643 C642 1.374 . S
C644 C641 1.499 1_554 S
C644 C645 1.373 . S
C644 C646 1.389 . S
C645 H624 0.950 . S
C645 C644 1.373 . S
C645 C661 1.377 . S
C646 C644 1.389 . S
C646 C647 1.524 . S
C646 C660 1.377 . S
C647 C646 1.524 . S
C647 C648 1.397 . S
C647 C652 1.363 . S
C648 H625 0.950 . S
C648 C647 1.397 . S
C648 C649 1.334 . S
C649 H626 0.950 1_554 S
C649 C648 1.334 . S
C649 C650 1.287 . S
C650 C649 1.287 . S
C650 C651 1.524 . S
C650 H669 0.913 . S
C651 H627 0.950 . S
C651 C650 1.524 . S
C651 C652 1.415 . S
C652 H628 0.950 . S
C652 C647 1.363 . S
C652 C651 1.415 . S
C653 H629 0.951 . S
C653 C654 1.366 . S
C653 C655 1.388 . S
C654 C653 1.366 . S
C654 C658 1.385 . S
C655 H630 0.951 . S
C655 C653 1.388 . S
C655 C656 1.366 . S
C656 C655 1.366 . S
C656 C657 1.414 . S
C656 C659 1.499 . S
C657 H631 0.950 . S
C657 C656 1.414 . S
C657 C658 1.374 . S
C658 H632 0.950 . S
C658 C654 1.385 . S
C658 C657 1.374 . S
C659 C656 1.499 . S
C659 C660 1.373 . S
C659 C661 1.389 . S
C660 H633 0.950 . S
C660 C646 1.377 . S
C660 C659 1.373 . S
C661 C645 1.377 . S
C661 C659 1.389 . S
C661 C662 1.524 . S
C662 C661 1.524 . S
C662 C663 1.397 . S
C662 C667 1.363 . S
C663 H634 0.950 . S
C663 C662 1.397 . S
C663 C664 1.334 . S
C664 H635 0.950 . S
C664 C663 1.334 . S
C664 C665 1.287 . S
C665 C664 1.287 . S
C665 C666 1.524 . S
C665 H668 0.999 . S
C666 H636 0.950 . S
C666 C665 1.524 . S
C666 C667 1.415 . S
C667 H637 0.950 . S
C667 C662 1.363 . S
C667 C666 1.415 . S
H668 C665 0.999 . S
H669 C650 0.913 . S
H670 C688 0.951 . S
H671 C690 0.951 . S
H672 C692 0.950 . S
H673 C693 0.950 . S
H674 C695 0.950 . S
H675 C698 0.950 . S
H676 C699 0.950 . S
H677 C701 0.950 . S
H678 C702 0.950 . S
H679 C703 0.951 1_556 S
H680 C705 0.951 . S
H681 C707 0.950 . S
H682 C708 0.950 1_556 S
H683 C710 0.950 . S
H684 C713 0.950 . S
H685 C714 0.950 . S
H686 C716 0.950 . S
H687 C717 0.950 . S
C688 H670 0.951 . S
C688 C689 1.366 . S
C688 C690 1.388 . S
C689 C688 1.366 . S
C689 C693 1.385 . S
C690 H671 0.951 . S
C690 C688 1.388 . S
C690 C691 1.366 . S
C691 C690 1.366 . S
C691 C692 1.414 . S
C691 C694 1.499 . S
C692 H672 0.950 . S
C692 C691 1.414 . S
C692 C693 1.374 . S
C693 H673 0.950 . S
C693 C689 1.385 . S
C693 C692 1.374 . S
C694 C691 1.499 . S
C694 C695 1.373 . S
C694 C696 1.389 . S
C695 H674 0.950 . S
C695 C694 1.373 . S
C695 C711 1.377 . S
C696 C694 1.389 . S
C696 C697 1.524 . S
C696 C710 1.377 . S
C697 C696 1.524 . S
C697 C698 1.397 . S
C697 C702 1.363 . S
C698 H675 0.950 . S
C698 C697 1.397 . S
C698 C699 1.334 . S
C699 H676 0.950 . S
C699 C698 1.334 . S
C699 C700 1.287 . S
C700 C699 1.287 . S
C700 C701 1.524 . S
C700 H719 0.913 . S
C701 H677 0.950 . S
C701 C700 1.524 . S
C701 C702 1.415 . S
C702 H678 0.950 . S
C702 C697 1.363 . S
C702 C701 1.415 . S
C703 H679 0.951 1_554 S
C703 C704 1.366 1_554 S
C703 C705 1.388 . S
C704 C703 1.366 1_556 S
C704 C708 1.385 1_556 S
C705 H680 0.951 . S
C705 C703 1.388 . S
C705 C706 1.366 . S
C706 C705 1.366 . S
C706 C707 1.414 . S
C706 C709 1.499 . S
C707 H681 0.950 . S
C707 C706 1.414 . S
C707 C708 1.374 . S
C708 H682 0.950 1_554 S
C708 C704 1.385 1_554 S
C708 C707 1.374 . S
C709 C706 1.499 . S
C709 C710 1.373 . S
C709 C711 1.389 . S
C710 H683 0.950 . S
C710 C696 1.377 . S
C710 C709 1.373 . S
C711 C695 1.377 . S
C711 C709 1.389 . S
C711 C712 1.524 . S
C712 C711 1.524 . S
C712 C713 1.397 . S
C712 C717 1.363 . S
C713 H684 0.950 . S
C713 C712 1.397 . S
C713 C714 1.334 . S
C714 H685 0.950 . S
C714 C713 1.334 . S
C714 C715 1.287 . S
C715 C714 1.287 . S
C715 C716 1.524 . S
C715 H718 0.999 . S
C716 H686 0.950 . S
C716 C715 1.524 . S
C716 C717 1.415 . S
C717 H687 0.950 . S
C717 C712 1.363 . S
C717 C716 1.415 . S
H718 C715 0.999 . S
H719 C700 0.913 . S
H720 C738 0.951 . S
H721 C740 0.951 . S
H722 C742 0.950 . S
H723 C743 0.950 . S
H724 C745 0.950 . S
H725 C748 0.950 . S
H726 C749 0.950 . S
H727 C751 0.950 . S
H728 C752 0.950 . S
H729 C753 0.951 . S
H730 C755 0.951 . S
H731 C757 0.950 . S
H732 C758 0.950 . S
H733 C760 0.950 . S
H734 C763 0.950 . S
H735 C764 0.950 . S
H736 C766 0.950 . S
H737 C767 0.950 . S
C738 H720 0.951 . S
C738 C739 1.366 . S
C738 C740 1.388 . S
C739 C738 1.366 . S
C739 C743 1.385 . S
C740 H721 0.951 . S
C740 C738 1.388 . S
C740 C741 1.366 . S
C741 C740 1.366 . S
C741 C742 1.414 . S
C741 C744 1.499 . S
C742 H722 0.950 . S
C742 C741 1.414 . S
C742 C743 1.374 . S
C743 H723 0.950 . S
C743 C739 1.385 . S
C743 C742 1.374 . S
C744 C741 1.499 . S
C744 C745 1.373 . S
C744 C746 1.389 . S
C745 H724 0.950 . S
C745 C744 1.373 . S
C745 C761 1.377 . S
C746 C744 1.389 . S
C746 C747 1.524 . S
C746 C760 1.377 . S
C747 C746 1.524 . S
C747 C748 1.397 . S
C747 C752 1.363 . S
C748 H725 0.950 . S
C748 C747 1.397 . S
C748 C749 1.334 . S
C749 H726 0.950 . S
C749 C748 1.334 . S
C749 C750 1.287 . S
C750 C749 1.287 . S
C750 C751 1.524 . S
C750 H769 0.913 . S
C751 H727 0.950 . S
C751 C750 1.524 . S
C751 C752 1.415 . S
C752 H728 0.950 . S
C752 C747 1.363 . S
C752 C751 1.415 . S
C753 H729 0.951 . S
C753 C754 1.366 . S
C753 C755 1.388 . S
C754 C753 1.366 . S
C754 C758 1.385 . S
C755 H730 0.951 . S
C755 C753 1.388 . S
C755 C756 1.366 . S
C756 C755 1.366 . S
C756 C757 1.414 . S
C756 C759 1.499 . S
C757 H731 0.950 . S
C757 C756 1.414 . S
C757 C758 1.374 . S
C758 H732 0.950 . S
C758 C754 1.385 . S
C758 C757 1.374 . S
C759 C756 1.499 . S
C759 C760 1.373 . S
C759 C761 1.389 . S
C760 H733 0.950 . S
C760 C746 1.377 . S
C760 C759 1.373 . S
C761 C745 1.377 . S
C761 C759 1.389 . S
C761 C762 1.524 . S
C762 C761 1.524 . S
C762 C763 1.397 . S
C762 C767 1.363 . S
C763 H734 0.950 . S
C763 C762 1.397 . S
C763 C764 1.334 . S
C764 H735 0.950 . S
C764 C763 1.334 . S
C764 C765 1.287 . S
C765 C764 1.287 . S
C765 C766 1.524 . S
C765 H768 0.999 . S
C766 H736 0.950 . S
C766 C765 1.524 . S
C766 C767 1.415 . S
C767 H737 0.950 . S
C767 C762 1.363 . S
C767 C766 1.415 . S
H768 C765 0.999 . S
H769 C750 0.913 . S
H770 C788 0.951 . S
H771 C790 0.951 . S
H772 C792 0.950 . S
H773 C793 0.950 . S
H774 C795 0.950 . S
H775 C798 0.950 . S
H776 C799 0.950 . S
H777 C801 0.950 . S
H778 C802 0.950 . S
H779 C803 0.951 . S
H780 C805 0.951 . S
H781 C807 0.950 . S
H782 C808 0.950 . S
H783 C810 0.950 . S
H784 C813 0.950 . S
H785 C814 0.950 . S
H786 C816 0.950 . S
H787 C817 0.950 . S
C788 H770 0.951 . S
C788 C789 1.366 . S
C788 C790 1.388 . S
C789 C788 1.366 . S
C789 C793 1.385 . S
C790 H771 0.951 . S
C790 C788 1.388 . S
C790 C791 1.366 . S
C791 C790 1.366 . S
C791 C792 1.414 . S
C791 C794 1.499 . S
C792 H772 0.950 . S
C792 C791 1.414 . S
C792 C793 1.374 . S
C793 H773 0.950 . S
C793 C789 1.385 . S
C793 C792 1.374 . S
C794 C791 1.499 . S
C794 C795 1.373 . S
C794 C796 1.389 . S
C795 H774 0.950 . S
C795 C794 1.373 . S
C795 C811 1.377 . S
C796 C794 1.389 . S
C796 C797 1.524 . S
C796 C810 1.377 . S
C797 C796 1.524 . S
C797 C798 1.397 . S
C797 C802 1.363 . S
C798 H775 0.950 . S
C798 C797 1.397 . S
C798 C799 1.334 . S
C799 H776 0.950 . S
C799 C798 1.334 . S
C799 C800 1.287 . S
C800 C799 1.287 . S
C800 C801 1.524 . S
C800 H819 0.913 . S
C801 H777 0.950 . S
C801 C800 1.524 . S
C801 C802 1.415 . S
C802 H778 0.950 . S
C802 C797 1.363 . S
C802 C801 1.415 . S
C803 H779 0.951 . S
C803 C804 1.366 . S
C803 C805 1.388 . S
C804 C803 1.366 . S
C804 C808 1.385 . S
C805 H780 0.951 . S
C805 C803 1.388 . S
C805 C806 1.366 . S
C806 C805 1.366 . S
C806 C807 1.414 . S
C806 C809 1.499 . S
C807 H781 0.950 . S
C807 C806 1.414 . S
C807 C808 1.374 . S
C808 H782 0.950 . S
C808 C804 1.385 . S
C808 C807 1.374 . S
C809 C806 1.499 . S
C809 C810 1.373 . S
C809 C811 1.389 . S
C810 H783 0.950 . S
C810 C796 1.377 . S
C810 C809 1.373 . S
C811 C795 1.377 . S
C811 C809 1.389 . S
C811 C812 1.524 . S
C812 C811 1.524 . S
C812 C813 1.397 . S
C812 C817 1.363 . S
C813 H784 0.950 . S
C813 C812 1.397 . S
C813 C814 1.334 . S
C814 H785 0.950 . S
C814 C813 1.334 . S
C814 C815 1.287 . S
C815 C814 1.287 . S
C815 C816 1.524 . S
C815 H818 0.999 . S
C816 H786 0.950 . S
C816 C815 1.524 . S
C816 C817 1.415 . S
C817 H787 0.950 . S
C817 C812 1.363 . S
C817 C816 1.415 . S
H818 C815 0.999 . S
H819 C800 0.913 . S
H820 C838 0.951 . S
H821 C840 0.951 . S
H822 C842 0.950 . S
H823 C843 0.950 . S
H824 C845 0.950 . S
H825 C848 0.950 . S
H826 C849 0.950 . S
H827 C851 0.950 . S
H828 C852 0.950 . S
H829 C853 0.951 . S
H830 C855 0.951 . S
H831 C857 0.950 . S
H832 C858 0.950 1_556 S
H833 C860 0.950 . S
H834 C863 0.950 . S
H835 C864 0.950 . S
H836 C866 0.950 . S
H837 C867 0.950 . S
C838 H820 0.951 . S
C838 C839 1.366 . S
C838 C840 1.388 . S
C839 C838 1.366 . S
C839 C843 1.385 . S
C840 H821 0.951 . S
C840 C838 1.388 . S
C840 C841 1.366 . S
C841 C840 1.366 . S
C841 C842 1.414 . S
C841 C844 1.499 . S
C842 H822 0.950 . S
C842 C841 1.414 . S
C842 C843 1.374 . S
C843 H823 0.950 . S
C843 C839 1.385 . S
C843 C842 1.374 . S
C844 C841 1.499 . S
C844 C845 1.373 . S
C844 C846 1.389 . S
C845 H824 0.950 . S
C845 C844 1.373 . S
C845 C861 1.377 . S
C846 C844 1.389 . S
C846 C847 1.524 . S
C846 C860 1.377 . S
C847 C846 1.524 . S
C847 C848 1.397 . S
C847 C852 1.363 . S
C848 H825 0.950 . S
C848 C847 1.397 . S
C848 C849 1.334 . S
C849 H826 0.950 . S
C849 C848 1.334 . S
C849 C850 1.287 1_554 S
C850 C849 1.287 1_556 S
C850 C851 1.524 . S
C850 H869 0.913 . S
C851 H827 0.950 . S
C851 C850 1.524 . S
C851 C852 1.415 1_556 S
C852 H828 0.950 . S
C852 C847 1.363 . S
C852 C851 1.415 1_554 S
C853 H829 0.951 . S
C853 C854 1.366 . S
C853 C855 1.388 . S
C854 C853 1.366 . S
C854 C858 1.385 . S
C855 H830 0.951 . S
C855 C853 1.388 . S
C855 C856 1.366 . S
C856 C855 1.366 . S
C856 C857 1.414 . S
C856 C859 1.499 . S
C857 H831 0.950 . S
C857 C856 1.414 . S
C857 C858 1.374 . S
C858 H832 0.950 1_554 S
C858 C854 1.385 . S
C858 C857 1.374 . S
C859 C856 1.499 . S
C859 C860 1.373 . S
C859 C861 1.389 . S
C860 H833 0.950 . S
C860 C846 1.377 . S
C860 C859 1.373 . S
C861 C845 1.377 . S
C861 C859 1.389 . S
C861 C862 1.524 . S
C862 C861 1.524 . S
C862 C863 1.397 . S
C862 C867 1.363 . S
C863 H834 0.950 . S
C863 C862 1.397 . S
C863 C864 1.334 . S
C864 H835 0.950 . S
C864 C863 1.334 . S
C864 C865 1.287 . S
C865 C864 1.287 . S
C865 C866 1.524 . S
C865 H868 0.999 . S
C866 H836 0.950 . S
C866 C865 1.524 . S
C866 C867 1.415 . S
C867 H837 0.950 . S
C867 C862 1.363 . S
C867 C866 1.415 . S
H868 C865 0.999 . S
H869 C850 0.913 . S
H870 C888 0.951 . S
H871 C890 0.951 . S
H872 C892 0.950 . S
H873 C893 0.950 . S
H874 C895 0.950 . S
H875 C898 0.950 . S
H876 C899 0.950 . S
H877 C901 0.950 . S
H878 C902 0.950 . S
H879 C903 0.951 . S
H880 C905 0.951 . S
H881 C907 0.950 . S
H882 C908 0.950 . S
H883 C910 0.950 . S
H884 C913 0.950 . S
H885 C914 0.950 . S
H886 C916 0.950 . S
H887 C917 0.950 . S
C888 H870 0.951 . S
C888 C889 1.366 . S
C888 C890 1.388 . S
C889 C888 1.366 . S
C889 C893 1.385 . S
C890 H871 0.951 . S
C890 C888 1.388 . S
C890 C891 1.366 . S
C891 C890 1.366 . S
C891 C892 1.414 . S
C891 C894 1.499 . S
C892 H872 0.950 . S
C892 C891 1.414 . S
C892 C893 1.374 . S
C893 H873 0.950 . S
C893 C889 1.385 . S
C893 C892 1.374 . S
C894 C891 1.499 . S
C894 C895 1.373 . S
C894 C896 1.389 . S
C895 H874 0.950 . S
C895 C894 1.373 . S
C895 C911 1.377 . S
C896 C894 1.389 . S
C896 C897 1.524 . S
C896 C910 1.377 . S
C897 C896 1.524 . S
C897 C898 1.397 . S
C897 C902 1.363 . S
C898 H875 0.950 . S
C898 C897 1.397 . S
C898 C899 1.334 . S
C899 H876 0.950 . S
C899 C898 1.334 . S
C899 C900 1.287 . S
C900 C899 1.287 . S
C900 C901 1.524 . S
C900 H919 0.913 . S
C901 H877 0.950 . S
C901 C900 1.524 . S
C901 C902 1.415 . S
C902 H878 0.950 . S
C902 C897 1.363 . S
C902 C901 1.415 . S
C903 H879 0.951 . S
C903 C904 1.366 . S
C903 C905 1.388 . S
C904 C903 1.366 . S
C904 C908 1.385 . S
C905 H880 0.951 . S
C905 C903 1.388 . S
C905 C906 1.366 . S
C906 C905 1.366 . S
C906 C907 1.414 . S
C906 C909 1.499 . S
C907 H881 0.950 . S
C907 C906 1.414 . S
C907 C908 1.374 . S
C908 H882 0.950 . S
C908 C904 1.385 . S
C908 C907 1.374 . S
C909 C906 1.499 . S
C909 C910 1.373 . S
C909 C911 1.389 . S
C910 H883 0.950 . S
C910 C896 1.377 . S
C910 C909 1.373 . S
C911 C895 1.377 . S
C911 C909 1.389 . S
C911 C912 1.524 . S
C912 C911 1.524 . S
C912 C913 1.397 . S
C912 C917 1.363 . S
C913 H884 0.950 . S
C913 C912 1.397 . S
C913 C914 1.334 . S
C914 H885 0.950 . S
C914 C913 1.334 . S
C914 C915 1.287 . S
C915 C914 1.287 . S
C915 C916 1.524 . S
C915 H918 0.999 . S
C916 H886 0.950 . S
C916 C915 1.524 . S
C916 C917 1.415 . S
C917 H887 0.950 . S
C917 C912 1.363 . S
C917 C916 1.415 . S
H918 C915 0.999 . S
H919 C900 0.913 . S
H920 C938 0.951 . S
H921 C940 0.951 . S
H922 C942 0.950 . S
H923 C943 0.950 . S
H924 C945 0.950 . S
H925 C948 0.950 . S
H926 C949 0.950 . S
H927 C951 0.950 . S
H928 C952 0.950 . S
H929 C953 0.951 . S
H930 C955 0.951 . S
H931 C957 0.950 . S
H932 C958 0.950 . S
H933 C960 0.950 . S
H934 C963 0.950 . S
H935 C964 0.950 . S
H936 C966 0.950 1_554 S
H937 C967 0.950 . S
C938 H920 0.951 . S
C938 C939 1.366 . S
C938 C940 1.388 . S
C939 C938 1.366 . S
C939 C943 1.385 . S
C940 H921 0.951 . S
C940 C938 1.388 . S
C940 C941 1.366 . S
C941 C940 1.366 . S
C941 C942 1.414 . S
C941 C944 1.499 . S
C942 H922 0.950 . S
C942 C941 1.414 . S
C942 C943 1.374 . S
C943 H923 0.950 . S
C943 C939 1.385 . S
C943 C942 1.374 . S
C944 C941 1.499 . S
C944 C945 1.373 . S
C944 C946 1.389 . S
C945 H924 0.950 . S
C945 C944 1.373 . S
C945 C961 1.377 . S
C946 C944 1.389 . S
C946 C947 1.524 . S
C946 C960 1.377 . S
C947 C946 1.524 . S
C947 C948 1.397 . S
C947 C952 1.363 . S
C948 H925 0.950 . S
C948 C947 1.397 . S
C948 C949 1.334 . S
C949 H926 0.950 . S
C949 C948 1.334 . S
C949 C950 1.287 . S
C950 C949 1.287 . S
C950 C951 1.524 . S
C950 H969 0.913 . S
C951 H927 0.950 . S
C951 C950 1.524 . S
C951 C952 1.415 . S
C952 H928 0.950 . S
C952 C947 1.363 . S
C952 C951 1.415 . S
C953 H929 0.951 . S
C953 C954 1.366 . S
C953 C955 1.388 . S
C954 C953 1.366 . S
C954 C958 1.385 . S
C955 H930 0.951 . S
C955 C953 1.388 . S
C955 C956 1.366 . S
C956 C955 1.366 . S
C956 C957 1.414 . S
C956 C959 1.499 . S
C957 H931 0.950 . S
C957 C956 1.414 . S
C957 C958 1.374 . S
C958 H932 0.950 . S
C958 C954 1.385 . S
C958 C957 1.374 . S
C959 C956 1.499 . S
C959 C960 1.373 . S
C959 C961 1.389 . S
C960 H933 0.950 . S
C960 C946 1.377 . S
C960 C959 1.373 . S
C961 C945 1.377 . S
C961 C959 1.389 . S
C961 C962 1.524 . S
C962 C961 1.524 . S
C962 C963 1.397 . S
C962 C967 1.363 . S
C963 H934 0.950 . S
C963 C962 1.397 . S
C963 C964 1.334 . S
C964 H935 0.950 . S
C964 C963 1.334 . S
C964 C965 1.287 . S
C965 C964 1.287 . S
C965 C966 1.524 . S
C965 H968 1.007 . S
C966 H936 0.950 1_556 S
C966 C965 1.524 . S
C966 C967 1.415 . S
C967 H937 0.950 . S
C967 C962 1.363 . S
C967 C966 1.415 . S
H968 C965 1.007 . S
H969 C950 0.913 . S
H970 C988 0.951 . S
H971 C990 0.951 . S
H972 C992 0.950 1_554 S
H973 C993 0.950 . S
H974 C995 0.950 . S
H975 C998 0.950 . S
H976 C999 0.950 . S
H977 C1001 0.950 . S
H978 C1002 0.950 . S
H979 C1003 0.951 . S
H980 C1005 0.951 . S
H981 C1007 0.950 . S
H982 C1008 0.950 . S
H983 C1010 0.950 . S
H984 C1013 0.950 . S
H985 C1014 0.950 . S
H986 C1016 0.950 . S
H987 C1017 0.950 . S
C988 H970 0.951 . S
C988 C989 1.366 . S
C988 C990 1.388 . S
C989 C988 1.366 . S
C989 C993 1.385 1_556 S
C990 H971 0.951 . S
C990 C988 1.388 . S
C990 C991 1.366 . S
C991 C990 1.366 . S
C991 C992 1.414 . S
C991 C994 1.499 . S
C992 H972 0.950 1_556 S
C992 C991 1.414 . S
C992 C993 1.374 1_556 S
C993 H973 0.950 . S
C993 C989 1.385 1_554 S
C993 C992 1.374 1_554 S
C994 C991 1.499 . S
C994 C995 1.373 . S
C994 C996 1.389 . S
C995 H974 0.950 . S
C995 C994 1.373 . S
C995 C1011 1.377 . S
C996 C994 1.389 . S
C996 C997 1.524 . S
C996 C1010 1.377 . S
C997 C996 1.524 . S
C997 C998 1.397 . S
C997 C1002 1.363 . S
C998 H975 0.950 . S
C998 C997 1.397 . S
C998 C999 1.334 . S
C999 H976 0.950 . S
C999 C998 1.334 . S
C999 C1000 1.287 . S
C1000 C999 1.287 . S
C1000 C1001 1.524 . S
C1000 H1019 0.913 . S
C1001 H977 0.950 . S
C1001 C1000 1.524 . S
C1001 C1002 1.415 . S
C1002 H978 0.950 . S
C1002 C997 1.363 . S
C1002 C1001 1.415 . S
C1003 H979 0.951 . S
C1003 C1004 1.366 . S
C1003 C1005 1.388 . S
C1004 C1003 1.366 . S
C1004 C1008 1.385 . S
C1005 H980 0.951 . S
C1005 C1003 1.388 . S
C1005 C1006 1.366 . S
C1006 C1005 1.366 . S
C1006 C1007 1.414 . S
C1006 C1009 1.499 . S
C1007 H981 0.950 . S
C1007 C1006 1.414 . S
C1007 C1008 1.374 . S
C1008 H982 0.950 . S
C1008 C1004 1.385 . S
C1008 C1007 1.374 . S
C1009 C1006 1.499 . S
C1009 C1010 1.373 . S
C1009 C1011 1.389 . S
C1010 H983 0.950 . S
C1010 C996 1.377 . S
C1010 C1009 1.373 . S
C1011 C995 1.377 . S
C1011 C1009 1.389 . S
C1011 C1012 1.524 . S
C1012 C1011 1.524 . S
C1012 C1013 1.397 . S
C1012 C1017 1.363 . S
C1013 H984 0.950 . S
C1013 C1012 1.397 . S
C1013 C1014 1.334 . S
C1014 H985 0.950 . S
C1014 C1013 1.334 . S
C1014 C1015 1.287 . S
C1015 C1014 1.287 . S
C1015 C1016 1.524 . S
C1015 H1018 0.999 . S
C1016 H986 0.950 . S
C1016 C1015 1.524 . S
C1016 C1017 1.415 . S
C1017 H987 0.950 . S
C1017 C1012 1.363 . S
C1017 C1016 1.415 . S
H1018 C1015 0.999 . S
H1019 C1000 0.913 . S
C139 C118 1.517 . S
C154 C18 1.517 . S
C189 C8 1.446 . S
C204 C28 1.445 . S
C239 C38 1.517 . S
C254 C58 1.517 . S
C289 C48 1.446 . S
C304 C68 1.445 . S
C339 C98 1.517 . S
C354 C78 1.517 . S
C389 C108 1.445 . S
C404 C88 1.446 . S
C439 C2 1.160 . S
C454 C1 1.160 . S
C489 C21 1.161 . S
C504 C22 1.161 . S
C539 C42 1.161 . S
C554 C41 1.161 . S
C589 C61 1.160 . S
C604 C62 1.160 . S
C639 C81 1.160 . S
C654 C82 1.160 . S
C689 C101 1.160 . S
C704 C102 1.160 . S
C739 C19 1.575 . S
C754 C89 1.600 . S
C789 C29 1.600 . S
C804 C119 1.575 . S
C839 C9 1.600 . S
C854 C59 1.575 . S
C889 C39 1.575 . S
C904 C69 1.600 . S
C939 C99 1.575 . S
C954 C49 1.600 . S
C989 C79 1.575 1_556 S
C1004 C109 1.601 . S
