# Generated by pormake.
# Topology wme, (6)-cn, num edge types: 1
# Building blocks:
#     Node 0, Type 0, BuildingBlock: KUMBOL_clean_sbu_0, # of connection points: 6
#     Node 1, Type 0, BuildingBlock: KUMBOL_clean_sbu_0, # of connection points: 6
#     Node 2, Type 0, BuildingBlock: KUMBOL_clean_sbu_0, # of connection points: 6
#     Node 3, Type 0, BuildingBlock: KUMBOL_clean_sbu_0, # of connection points: 6
#     Node 4, Type 0, BuildingBlock: KUMBOL_clean_sbu_0, # of connection points: 6
#     Node 5, Type 0, BuildingBlock: KUMBOL_clean_sbu_0, # of connection points: 6
#     Node 6, Type 0, BuildingBlock: KUMBOL_clean_sbu_0, # of connection points: 6
#     Node 7, Type 0, BuildingBlock: KUMBOL_clean_sbu_0, # of connection points: 6
#     Node 8, Type 0, BuildingBlock: KUMBOL_clean_sbu_0, # of connection points: 6
#     Node 9, Type 0, BuildingBlock: KUMBOL_clean_sbu_0, # of connection points: 6
#     Node 10, Type 0, BuildingBlock: KUMBOL_clean_sbu_0, # of connection points: 6
#     Node 11, Type 0, BuildingBlock: KUMBOL_clean_sbu_0, # of connection points: 6
#     Edge 12, Type (0, 0), BuildingBlock: KIFKEQ_clean_linker_1, # of connection points: 2
#     Edge 13, Type (0, 0), BuildingBlock: KIFKEQ_clean_linker_1, # of connection points: 2
#     Edge 14, Type (0, 0), BuildingBlock: KIFKEQ_clean_linker_1, # of connection points: 2
#     Edge 15, Type (0, 0), BuildingBlock: KIFKEQ_clean_linker_1, # of connection points: 2
#     Edge 16, Type (0, 0), BuildingBlock: KIFKEQ_clean_linker_1, # of connection points: 2
#     Edge 17, Type (0, 0), BuildingBlock: KIFKEQ_clean_linker_1, # of connection points: 2
#     Edge 18, Type (0, 0), BuildingBlock: KIFKEQ_clean_linker_1, # of connection points: 2
#     Edge 19, Type (0, 0), BuildingBlock: KIFKEQ_clean_linker_1, # of connection points: 2
#     Edge 20, Type (0, 0), BuildingBlock: KIFKEQ_clean_linker_1, # of connection points: 2
#     Edge 21, Type (0, 0), BuildingBlock: KIFKEQ_clean_linker_1, # of connection points: 2
#     Edge 22, Type (0, 0), BuildingBlock: KIFKEQ_clean_linker_1, # of connection points: 2
#     Edge 23, Type (0, 0), BuildingBlock: KIFKEQ_clean_linker_1, # of connection points: 2
#     Edge 24, Type (0, 0), BuildingBlock: KIFKEQ_clean_linker_1, # of connection points: 2
#     Edge 25, Type (0, 0), BuildingBlock: KIFKEQ_clean_linker_1, # of connection points: 2
#     Edge 26, Type (0, 0), BuildingBlock: KIFKEQ_clean_linker_1, # of connection points: 2
#     Edge 27, Type (0, 0), BuildingBlock: KIFKEQ_clean_linker_1, # of connection points: 2
#     Edge 28, Type (0, 0), BuildingBlock: KIFKEQ_clean_linker_1, # of connection points: 2
#     Edge 29, Type (0, 0), BuildingBlock: KIFKEQ_clean_linker_1, # of connection points: 2
#     Edge 30, Type (0, 0), BuildingBlock: KIFKEQ_clean_linker_1, # of connection points: 2
#     Edge 31, Type (0, 0), BuildingBlock: KIFKEQ_clean_linker_1, # of connection points: 2
#     Edge 32, Type (0, 0), BuildingBlock: KIFKEQ_clean_linker_1, # of connection points: 2
#     Edge 33, Type (0, 0), BuildingBlock: KIFKEQ_clean_linker_1, # of connection points: 2
#     Edge 34, Type (0, 0), BuildingBlock: KIFKEQ_clean_linker_1, # of connection points: 2
#     Edge 35, Type (0, 0), BuildingBlock: KIFKEQ_clean_linker_1, # of connection points: 2
#     Edge 36, Type (0, 0), BuildingBlock: KIFKEQ_clean_linker_1, # of connection points: 2
#     Edge 37, Type (0, 0), BuildingBlock: KIFKEQ_clean_linker_1, # of connection points: 2
#     Edge 38, Type (0, 0), BuildingBlock: KIFKEQ_clean_linker_1, # of connection points: 2
#     Edge 39, Type (0, 0), BuildingBlock: KIFKEQ_clean_linker_1, # of connection points: 2
#     Edge 40, Type (0, 0), BuildingBlock: KIFKEQ_clean_linker_1, # of connection points: 2
#     Edge 41, Type (0, 0), BuildingBlock: KIFKEQ_clean_linker_1, # of connection points: 2
#     Edge 42, Type (0, 0), BuildingBlock: KIFKEQ_clean_linker_1, # of connection points: 2
#     Edge 43, Type (0, 0), BuildingBlock: KIFKEQ_clean_linker_1, # of connection points: 2
#     Edge 44, Type (0, 0), BuildingBlock: KIFKEQ_clean_linker_1, # of connection points: 2
#     Edge 45, Type (0, 0), BuildingBlock: KIFKEQ_clean_linker_1, # of connection points: 2
#     Edge 46, Type (0, 0), BuildingBlock: KIFKEQ_clean_linker_1, # of connection points: 2
#     Edge 47, Type (0, 0), BuildingBlock: KIFKEQ_clean_linker_1, # of connection points: 2
# Relax obj value: 0.094
# Max RMSD: 0.208
# Mean RMSD: 0.208
data_MOF--net-wme--node1-KUMBOL_clean_sbu_0--edge1-KIFKEQ_clean_linker_1
_symmetry_space_group_name_H-M    P1
_symmetry_Int_Tables_number       1
_symmetry_cell_setting            triclinic
loop_
_symmetry_equiv_pos_as_xyz
'x, y, z'
_cell_length_a     38.647951
_cell_length_b     38.647411
_cell_length_c     55.635865
_cell_angle_alpha  90.141802
_cell_angle_beta   89.98142
_cell_angle_gamma 119.90338
loop_
_atom_site_label
_atom_site_type_symbol
_atom_site_fract_x
_atom_site_fract_y
_atom_site_fract_z
_atom_type_partial_charge
Gd0 Gd 0.26218 0.32414 0.1364 0.0
Gd1 Gd 0.20596 0.36748 0.10736 0.0
C2 C 0.07288 0.29661 0.08902 0.0
C3 C 0.0738 0.29483 0.04538 0.0
C4 C 0.13599 0.32813 0.06795 0.0
C5 C 0.11501 0.31716 0.08926 0.0
C6 C 0.11564 0.31791 0.04573 0.0
C7 C 0.05243 0.28442 0.067 0.0
C8 C 0.05262 0.29063 0.11081 0.0
C9 C 0.07433 0.30572 0.132 0.0
N10 N 0.13575 0.33023 0.11016 0.0
C11 C 0.11603 0.32599 0.1313 0.0
H12 H 0.13218 0.33793 0.14782 0.0
C13 C 0.19758 0.36892 0.04854 0.0
N14 N 0.17614 0.35201 0.06899 0.0
C15 C 0.1789 0.35905 0.02605 0.0
C16 C 0.1378 0.33292 0.0246 0.0
H17 H 0.22938 0.3892 0.04959 0.0
H18 H 1.0201 0.26815 0.06648 0.0
H19 H 0.3418 0.36724 0.0996 0.0
H20 H 1.02032 0.27543 0.11139 0.0
H21 H 0.05896 0.30193 0.1489 0.0
H22 H 0.05764 0.28638 0.0285 0.0
H23 H 0.23037 0.29275 0.19267 0.0
H24 H 0.44665 0.43196 0.14255 0.0
H25 H 0.4145 0.41102 0.10265 0.0
H26 H 0.39739 0.39843 0.22315 0.0
H27 H 0.19619 0.37169 0.00988 0.0
H28 H 0.1233 0.32571 0.00718 0.0
H29 H 0.43995 0.42725 0.18751 0.0
H30 H 0.25774 0.30569 0.23377 0.0
N31 N 0.33221 0.36401 0.13743 0.0
C32 C 0.4146 0.41266 0.14134 0.0
C33 C 0.39658 0.40086 0.1188 0.0
C34 C 0.39114 0.39861 0.16207 0.0
C35 C 0.34951 0.37375 0.15948 0.0
C36 C 0.3552 0.37596 0.11717 0.0
N37 N 0.28592 0.33284 0.17621 0.0
C38 C 0.32566 0.35758 0.1795 0.0
C39 C 0.27717 0.32056 0.21867 0.0
C40 C 0.31769 0.34726 0.22243 0.0
C41 C 0.26177 0.31326 0.1953 0.0
C42 C 0.34261 0.36576 0.20271 0.0
H43 H 0.32954 0.35283 0.24056 0.0
O44 O 0.23555 0.26037 0.14252 0.0
O45 O 0.20392 0.31305 0.12143 0.0
O46 O 0.20316 0.36677 0.14903 0.0
O47 O 0.26056 0.3672 0.16255 0.0
O48 O 0.20136 0.28364 0.15288 0.0
O49 O 0.28968 0.29118 0.12179 0.0
O50 O 0.21756 0.42467 0.09263 0.0
O51 O 0.26451 0.37916 0.12163 0.0
O52 O 0.27015 0.32825 0.09625 0.0
O53 O 0.21329 0.32584 0.08048 0.0
O54 O 0.26579 0.40891 0.09071 0.0
O55 O 0.19266 0.40732 0.1281 0.0
C56 C 0.18034 0.28842 0.13667 0.0
C57 C 0.38385 0.39154 0.20545 0.0
C58 C 0.40807 0.40796 0.18517 0.0
C59 C 0.26327 0.25728 0.13117 0.0
C60 C 0.27794 0.2332 0.14332 0.0
C61 C 0.30596 0.24979 0.16192 0.0
C62 C 0.26182 0.19249 0.13733 0.0
C63 C 0.27317 0.16807 0.15012 0.0
C64 C 0.31741 0.22611 0.17464 0.0
C65 C 0.30102 0.18568 0.16901 0.0
C66 C 0.23003 0.37295 0.16607 0.0
C67 C 0.2877 0.40469 0.10653 0.0
C68 C 0.20245 0.43355 0.111 0.0
C69 C 0.17309 0.44677 0.10578 0.0
C70 C 0.13656 0.42001 0.09502 0.0
C71 C 0.18042 0.48538 0.11219 0.0
C72 C 0.15068 0.49612 0.10848 0.0
C73 C 0.10722 0.43038 0.09145 0.0
C74 C 0.11403 0.46796 0.09828 0.0
C75 C 0.24367 0.31872 0.07886 0.0
H76 H 0.31853 0.28088 0.16683 0.0
H77 H 0.24045 0.18007 0.12276 0.0
H78 H 0.33869 0.23901 0.18921 0.0
H79 H 0.30976 0.16816 0.1799 0.0
H80 H 0.13058 0.39098 0.08937 0.0
H81 H 0.20872 0.50666 0.12023 0.0
H82 H 0.07909 0.40918 0.08324 0.0
H83 H 0.09089 0.47544 0.095 0.0
Gd84 Gd 0.96031 0.24796 0.62614 0.0
Gd85 Gd 0.85192 0.19485 0.61302 0.0
C86 C 0.76481 0.0685 0.64 0.0
C87 C 0.77231 0.0266 0.61034 0.0
C88 C 0.81004 0.09908 0.60654 0.0
C89 C 0.79347 0.10283 0.62767 0.0
C90 C 0.79896 0.06074 0.5974 0.0
C91 C 0.75521 0.03047 0.6316 0.0
C92 C 0.74539 0.07332 0.65984 0.0
C93 C 0.75313 0.11146 0.66614 0.0
N94 N 0.80331 0.13994 0.63533 0.0
C95 C 0.78144 0.14441 0.65321 0.0
H96 H 0.78649 0.17375 0.6578 0.0
C97 C 0.84943 0.12952 0.57227 0.0
N98 N 0.83585 0.13278 0.59447 0.0
C99 C 0.83934 0.09225 0.56258 0.0
C100 C 0.81443 0.05771 0.57533 0.0
H101 H 0.86815 0.15507 0.56154 0.0
H102 H 0.73375 1.00383 0.64103 0.0
H103 H 1.0168 0.24519 0.5815 0.0
H104 H 0.72319 0.04773 0.66975 0.0
H105 H 0.73704 0.11548 0.6808 0.0
H106 H 0.76403 0.99704 0.60377 0.0
H107 H 0.952 0.30434 0.67032 0.0
H108 H 0.09779 0.36533 0.55966 0.0
H109 H 0.07128 0.29272 0.55498 0.0
H110 H 0.07274 0.44381 0.61638 0.0
H111 H 0.85086 0.09025 0.54521 0.0
H112 H 0.80676 0.02888 0.56778 0.0
H113 H 0.09787 0.42153 0.58255 0.0
H114 H 0.97907 0.37523 0.67959 0.0
N115 N 1.01202 0.29064 0.60025 0.0
C116 C 0.07401 0.34465 0.57133 0.0
C117 C 0.05919 0.30368 0.56865 0.0
C118 C 0.05883 0.35852 0.58948 0.0
C119 C 1.02782 0.33039 0.60414 0.0
C120 C 1.02849 0.27692 0.58365 0.0
N121 N 0.98541 0.31487 0.63795 0.0
C122 C 1.01386 0.34284 0.6234 0.0
C123 C 0.98908 0.36653 0.66371 0.0
C124 C 1.01709 0.39558 0.64845 0.0
C125 C 0.97384 0.32613 0.65835 0.0
C126 C 1.03033 0.38396 0.62822 0.0
H127 H 1.02887 0.42685 0.6527 0.0
O128 O 1.00076 0.26141 0.65654 0.0
O129 O 0.90365 0.18925 0.62472 0.0
O130 O 0.8595 0.19227 0.65351 0.0
O131 O 0.92736 0.23629 0.6614 0.0
O132 O 0.95218 0.19209 0.60741 0.0
O133 O 0.99722 0.22031 0.62887 0.0
O134 O 0.8166 0.19034 0.58135 0.0
O135 O 0.90726 0.25437 0.61654 0.0
O136 O 0.95473 0.26548 0.58906 0.0
O137 O 0.89057 0.21606 0.57806 0.0
O138 O 0.85583 0.24849 0.6315 0.0
O139 O 0.80242 0.2068 0.61536 0.0
C140 C 0.91583 0.16863 0.61401 0.0
C141 C 0.06001 0.41213 0.61304 0.0
C142 C 0.07431 0.39944 0.59376 0.0
C143 C 1.01643 0.24085 0.64772 0.0
C144 C 0.06057 0.26053 0.64593 0.0
C145 C 0.0838 0.30224 0.6443 0.0
C146 C 0.0795 0.23731 0.64389 0.0
C147 C 0.12106 0.25564 0.63972 0.0
C148 C 0.12484 0.32048 0.6404 0.0
C149 C 0.14332 0.29749 0.638 0.0
C150 C 0.88996 0.21303 0.66837 0.0
C151 C 0.89302 0.27323 0.6276 0.0
C152 C 0.79016 0.19472 0.5936 0.0
C153 C 0.74742 0.16289 0.59123 0.0
C154 C 0.73806 0.12425 0.58414 0.0
C155 C 0.71574 0.16986 0.59745 0.0
C156 C 0.6755 0.13818 0.59712 0.0
C157 C 0.69867 0.0931 0.5839 0.0
C158 C 0.66772 0.09985 0.59042 0.0
C159 C 0.92789 0.24436 0.57273 0.0
H160 H 0.07023 0.32081 0.64572 0.0
H161 H 0.06175 0.20506 0.64485 0.0
H162 H 0.14242 0.35266 0.63906 0.0
H163 H 0.17526 0.31255 0.63505 0.0
H164 H 0.76122 0.11785 0.57892 0.0
H165 H 0.72239 0.19949 0.6029 0.0
H166 H 0.69207 0.06346 0.57856 0.0
H167 H 0.63738 0.07507 0.5897 0.0
Gd168 Gd 0.72515 0.94453 0.13064 0.0
Gd169 Gd 0.68167 0.83996 0.10871 0.0
C170 C 0.75632 0.7802 0.0948 0.0
C171 C 0.7587 0.77943 0.05117 0.0
C172 C 0.72259 0.80746 0.07162 0.0
C173 C 0.73429 0.80029 0.09362 0.0
C174 C 0.73388 0.79631 0.05014 0.0
C175 C 0.76972 0.77117 0.07349 0.0
C176 C 0.76227 0.76779 0.11724 0.0
C177 C 0.7455 0.77453 0.13768 0.0
N178 N 0.72022 0.80879 0.11384 0.0
C179 C 0.72421 0.7949 0.13563 0.0
H180 H 0.71133 0.7997 0.15159 0.0
C181 C 0.67971 0.82373 0.05031 0.0
N182 N 0.69719 0.8221 0.07136 0.0
C183 C 0.69071 0.81396 0.02849 0.0
C184 C 0.71835 0.80069 0.02836 0.0
H185 H 0.65832 0.83401 0.05035 0.0
H186 H 0.78728 0.7564 0.07407 0.0
H187 H 0.6801 0.97036 0.08757 0.0
H188 H 0.77864 0.75189 0.11886 0.0
H189 H 0.74903 0.76415 0.15505 0.0
H190 H 0.76805 0.77104 0.03486 0.0
H191 H 0.76398 0.96862 0.18561 0.0
H192 H 0.6114 1.01503 0.12178 0.0
H193 H 0.63391 0.99627 0.08489 0.0
H194 H 0.64895 0.02394 0.20465 0.0
H195 H 0.67772 0.81646 0.01182 0.0
H196 H 0.7264 0.79258 0.01146 0.0
H197 H 0.61674 0.02472 0.16661 0.0
H198 H 0.75188 0.99326 0.22394 0.0
N199 N 0.6834 0.97275 0.1259 0.0
C200 C 0.63181 1.00356 0.12313 0.0
C201 C 0.64454 0.99311 0.10228 0.0
C202 C 0.64675 1.0004 0.1454 0.0
C203 C 0.67307 0.98504 0.14613 0.0
C204 C 0.67094 0.97831 0.10396 0.0
N205 N 0.71786 0.97193 0.16684 0.0
C206 C 0.69093 0.98455 0.16738 0.0
C207 C 0.73425 0.99067 0.20822 0.0
C208 C 0.70485 1.00159 0.20942 0.0
C209 C 0.74089 0.97654 0.18653 0.0
C210 C 0.68332 0.99942 0.1887 0.0
H211 H 0.69991 1.01279 0.22618 0.0
O212 O 0.78764 0.98674 0.13859 0.0
O213 O 0.73576 0.89459 0.12092 0.0
O214 O 0.68296 0.84347 0.15015 0.0
O215 O 0.69091 0.90569 0.16169 0.0
O216 O 0.76783 0.92942 0.14979 0.0
O217 O 0.75987 0.99492 0.10709 0.0
O218 O 0.62443 0.79248 0.09514 0.0
O219 O 0.6691 0.88816 0.12016 0.0
O220 O 0.71924 0.9396 0.09038 0.0
O221 O 0.72394 0.88376 0.08036 0.0
O222 O 0.63929 0.85525 0.09018 0.0
O223 O 0.64364 0.78835 0.13082 0.0
C224 C 0.76181 0.89971 0.13642 0.0
C225 C 0.65557 1.01282 0.18841 0.0
C226 C 0.63725 1.01327 0.16676 0.0
C227 C 0.79224 1.00893 0.12001 0.0
C228 C 0.81585 0.05253 0.12343 0.0
C229 C 0.79725 0.07565 0.12542 0.0
C230 C 0.85788 0.07148 0.12356 0.0
C231 C 0.88123 0.11338 0.1249 0.0
C232 C 0.8203 0.1172 0.12693 0.0
C233 C 0.86197 0.13601 0.12645 0.0
C234 C 0.68256 0.86875 0.16641 0.0
C235 C 0.64286 0.88291 0.10463 0.0
C236 C 0.61688 0.77012 0.11413 0.0
C237 C 0.60447 0.72745 0.11003 0.0
C238 C 0.63231 0.71742 0.10121 0.0
C239 C 0.56544 0.69638 0.11557 0.0
C240 C 0.55526 0.65587 0.11296 0.0
C241 C 0.62249 0.6777 0.09868 0.0
C242 C 0.58442 0.64715 0.10465 0.0
C243 C 0.72925 0.9197 0.07539 0.0
H244 H 0.76499 0.06165 0.12552 0.0
H245 H 0.87239 0.05374 0.12199 0.0
H246 H 0.80581 0.13493 0.12831 0.0
H247 H 0.87923 0.16827 0.12758 0.0
H248 H 0.66178 0.74026 0.09629 0.0
H249 H 0.54339 0.70361 0.12213 0.0
H250 H 0.64449 0.67057 0.09195 0.0
H251 H 0.57741 0.61651 0.1022 0.0
Gd252 Gd 0.80365 0.71335 0.63387 0.0
Gd253 Gd 0.85819 0.66916 0.60334 0.0
C254 C 0.98929 0.73857 0.58085 0.0
C255 C 0.9844 0.74115 0.53742 0.0
C256 C 0.9243 0.70817 0.56185 0.0
C257 C 0.94726 0.71826 0.58245 0.0
C258 C 0.94261 0.71858 0.53904 0.0
C259 C 1.00772 0.75096 0.5583 0.0
C260 C 1.0115 0.74451 0.60184 0.0
C261 C 0.99178 0.73015 0.62367 0.0
N262 N 0.9285 0.70563 0.60394 0.0
C263 C 0.95009 0.71037 0.62437 0.0
H264 H 0.93542 0.6992 0.64138 0.0
C265 C 0.86089 0.66824 0.54409 0.0
N266 N 0.88419 0.6848 0.56403 0.0
C267 C 0.8775 0.67852 0.52109 0.0
C268 C 0.91849 0.7043 0.51854 0.0
H269 H 0.82918 0.64811 0.546 0.0
H270 H 0.03996 0.76711 0.55676 0.0
H271 H 0.72103 0.66608 0.59939 0.0
H272 H 0.04379 0.75937 0.60134 0.0
H273 H 1.00868 0.73421 0.63997 0.0
H274 H 0.99901 0.74977 0.52008 0.0
H275 H 0.8373 0.75437 0.68821 0.0
H276 H 0.62029 0.60144 0.64528 0.0
H277 H 0.64905 0.62065 0.6045 0.0
H278 H 0.67515 0.64369 0.72423 0.0
H279 H 0.85872 0.66635 0.50536 0.0
H280 H 0.9314 0.71174 0.5007 0.0
H281 H 0.63041 0.60987 0.69 0.0
H282 H 0.81334 0.74455 0.73003 0.0
N283 N 0.73379 0.67199 0.63692 0.0
C284 C 0.65206 0.62149 0.64316 0.0
C285 C 0.66817 0.63235 0.62013 0.0
C286 C 0.67699 0.6377 0.66317 0.0
C287 C 0.71818 0.66349 0.65939 0.0
C288 C 0.70918 0.65824 0.61733 0.0
N289 N 0.78214 0.70866 0.67399 0.0
C290 C 0.74319 0.68248 0.67858 0.0
C291 C 0.79332 0.72669 0.71575 0.0
C292 C 0.75383 0.69826 0.72093 0.0
C293 C 0.80686 0.73204 0.692 0.0
C294 C 0.72797 0.67626 0.70218 0.0
H295 H 0.74335 0.6943 0.73933 0.0
O296 O 0.83091 0.77784 0.63727 0.0
O297 O 0.86115 0.72371 0.61803 0.0
O298 O 0.86407 0.67056 0.6449 0.0
O299 O 0.81134 0.67627 0.6617 0.0
O300 O 0.8653 0.75524 0.64893 0.0
O301 O 0.77454 0.74456 0.61902 0.0
O302 O 0.84089 0.60998 0.58927 0.0
O303 O 0.80073 0.65712 0.62004 0.0
O304 O 0.79201 0.70512 0.59412 0.0
O305 O 0.84969 0.71122 0.57751 0.0
O306 O 0.79726 0.62714 0.58848 0.0
O307 O 0.87834 0.63158 0.62068 0.0
C308 C 0.88554 0.74923 0.63271 0.0
C309 C 0.68735 0.64918 0.7062 0.0
C310 C 0.66189 0.62991 0.68672 0.0
C311 C 0.80186 0.77952 0.62672 0.0
C312 C 0.78855 0.8051 0.63855 0.0
C313 C 0.75879 0.78945 0.65623 0.0
C314 C 0.80745 0.84621 0.63307 0.0
C315 C 0.79712 0.8717 0.64548 0.0
C316 C 0.74805 0.81437 0.66833 0.0
C317 C 0.76711 0.85514 0.66312 0.0
C318 C 0.84093 0.66858 0.66333 0.0
C319 C 0.77661 0.63093 0.60539 0.0
C320 C 0.86224 0.60317 0.60468 0.0
C321 C 0.88821 0.58837 0.59461 0.0
C322 C 0.91534 0.61015 0.57635 0.0
C323 C 0.8858 0.55235 0.60261 0.0
C324 C 0.91001 0.53832 0.59198 0.0
C325 C 0.93971 0.59701 0.56622 0.0
C326 C 0.93709 0.5615 0.57389 0.0
C327 C 0.81782 0.71597 0.57633 0.0
H328 H 0.74413 0.75807 0.66081 0.0
H329 H 0.83091 0.85847 0.61967 0.0
H330 H 0.72505 0.8021 0.68196 0.0
H331 H 0.75816 0.87375 0.67282 0.0
H332 H 0.91752 0.63727 0.5697 0.0
H333 H 0.86467 0.53497 0.61654 0.0
H334 H 0.9606 0.61435 0.55221 0.0
H335 H 0.95655 0.55219 0.56565 0.0
Gd336 Gd 0.10698 0.78685 0.13401 0.0
Gd337 Gd 0.20597 0.84379 0.10424 0.0
C338 C 0.26395 0.97593 0.08454 0.0
C339 C 0.25556 0.97319 0.04117 0.0
C340 C 0.23151 0.91205 0.06422 0.0
C341 C 0.24347 0.93383 0.08526 0.0
C342 C 0.23826 0.93148 0.04185 0.0
C343 C 0.26858 0.99543 0.0625 0.0
C344 C 0.2811 0.99714 0.10573 0.0
C345 C 0.27879 0.97633 0.1267 0.0
N346 N 0.23904 0.91401 0.10616 0.0
C347 C 0.25786 0.93459 0.12653 0.0
H348 H 0.25658 0.91901 0.14283 0.0
C349 C 0.21054 0.85009 0.04504 0.0
N350 N 0.21663 0.8721 0.06553 0.0
C351 C 0.21583 0.86779 0.02244 0.0
C352 C 0.22922 0.9086 0.02083 0.0
H353 H 0.20012 0.81849 0.04622 0.0
H354 H 0.28362 0.02772 0.06164 0.0
H355 H 0.07195 0.70602 0.09812 0.0
H356 H 0.29733 0.02948 0.10591 0.0
H357 H 0.293 0.9924 0.14303 0.0
H358 H 0.26063 0.98866 0.02419 0.0
H359 H 0.10619 0.8199 0.19023 0.0
H360 H 0.03462 0.60302 0.14212 0.0
H361 H 0.04465 0.63367 0.1019 0.0
H362 H 0.0497 0.65467 0.22216 0.0
H363 H 0.20977 0.85 0.00629 0.0
H364 H 0.23384 0.92237 1.0033 0.0
H365 H 0.03688 0.61119 0.18697 0.0
H366 H 0.09254 0.79374 0.2314 0.0
N367 N 0.07844 0.71699 0.13583 0.0
C368 C 0.04662 0.63494 0.14058 0.0
C369 C 0.05215 0.6521 0.11786 0.0
C370 C 0.05569 0.65903 0.16105 0.0
C371 C 0.07147 0.70047 0.15805 0.0
C372 C 0.06766 0.69329 0.11581 0.0
N373 N 0.09257 0.76435 0.17413 0.0
C374 C 0.07867 0.72487 0.17782 0.0
C375 C 0.08863 0.77405 0.2165 0.0
C376 C 0.076 0.7339 0.22065 0.0
C377 C 0.09637 0.78878 0.19301 0.0
C378 C 0.07034 0.70862 0.20119 0.0
H379 H 0.07001 0.72258 0.23887 0.0
O380 O 0.07048 0.81503 0.13711 0.0
O381 O 0.15414 0.84565 0.11963 0.0
O382 O 0.20916 0.84758 0.14588 0.0
O383 O 0.15255 0.7904 0.16006 0.0
O384 O 0.12637 0.84705 0.15113 0.0
O385 O 0.04511 0.75645 0.12149 0.0
O386 O 0.25174 0.83329 0.08846 0.0
O387 O 0.1599 0.78512 0.11874 0.0
O388 O 0.10307 0.77746 0.09401 0.0
O389 O 0.15549 0.83574 0.0785 0.0
O390 O 0.18847 0.78386 0.08781 0.0
O391 O 0.25959 0.85696 0.12435 0.0
C392 C 0.1527 0.86862 0.13535 0.0
C393 C 0.05596 0.66763 0.20434 0.0
C394 C 0.04867 0.64289 0.18431 0.0
C395 C 0.03842 0.78477 0.12858 0.0
C396 C 1.00169 0.77323 0.14252 0.0
C397 C 0.99258 0.74817 0.16248 0.0
C398 C 0.97721 0.78977 0.13701 0.0
C399 C 0.94402 0.78185 0.15166 0.0
C400 C 0.96021 0.74031 0.17708 0.0
C401 C 0.93648 0.75722 0.17196 0.0
C402 C 0.18876 0.82122 0.1632 0.0
C403 C 0.16276 0.76191 0.10376 0.0
C404 C 0.27592 0.84784 0.10678 0.0
C405 C 0.31839 0.87738 0.10153 0.0
C406 C 0.32782 0.91372 0.09068 0.0
C407 C 0.34988 0.8703 0.10794 0.0
C408 C 0.39029 0.90005 0.10411 0.0
C409 C 0.36741 0.94305 0.08697 0.0
C410 C 0.39838 0.93647 0.09375 0.0
C411 C 0.11912 0.80383 0.07658 0.0
H412 H 1.01091 0.73523 0.16703 0.0
H413 H 0.98425 0.80878 0.12139 0.0
H414 H 0.95382 0.72146 0.19271 0.0
H415 H 0.9126 0.75139 0.18434 0.0
H416 H 0.30456 0.91954 0.08507 0.0
H417 H 0.34306 0.84216 0.11609 0.0
H418 H 0.37414 0.97104 0.07868 0.0
H419 H 0.42884 0.95966 0.09033 0.0
Gd420 Gd 0.3419 0.0937 0.63191 0.0
Gd421 Gd 0.38181 0.19592 0.60744 0.0
C422 C 0.30614 0.25454 0.59334 0.0
C423 C 0.30322 0.2543 0.54972 0.0
C424 C 0.33969 0.22684 0.57027 0.0
C425 C 0.32845 0.23473 0.59222 0.0
C426 C 0.32787 0.23722 0.54874 0.0
C427 C 0.29256 0.26317 0.572 0.0
C428 C 0.29965 0.26664 0.6158 0.0
C429 C 0.31595 0.25965 0.63632 0.0
N430 N 0.34251 0.22641 0.61246 0.0
C431 C 0.3378 0.23986 0.63428 0.0
H432 H 0.35063 0.2353 0.65028 0.0
C433 C 0.38133 0.20893 0.54893 0.0
N434 N 0.36479 0.21187 0.57004 0.0
C435 C 0.36981 0.21792 0.52706 0.0
C436 C 0.34256 0.23168 0.52693 0.0
H437 H 0.40248 0.19837 0.54896 0.0
H438 H 0.27488 0.27782 0.57252 0.0
H439 H 0.38622 0.06217 0.59216 0.0
H440 H 0.28306 0.28232 0.61743 0.0
H441 H 0.3118 0.2696 0.65373 0.0
H442 H 0.29354 0.26217 0.53337 0.0
H443 H 0.31125 0.08836 0.68889 0.0
H444 H 0.45038 1.01685 0.63085 0.0
H445 H 0.42998 0.03314 0.59233 0.0
H446 H 0.4162 0.02292 0.71298 0.0
H447 H 0.38213 0.21447 0.51035 0.0
H448 H 0.33409 0.23915 0.51 0.0
H449 H 0.4452 1.0133 0.67589 0.0
H450 H 0.3241 0.06948 0.72871 0.0
N451 N 0.38201 0.06349 0.63027 0.0
C452 C 0.431 0.02963 0.6309 0.0
C453 C 0.41949 0.0387 0.60914 0.0
C454 C 0.41661 0.03633 0.65245 0.0
C455 C 0.39162 0.05324 0.6515 0.0
C456 C 0.39449 0.05523 0.60915 0.0
N457 N 0.35058 0.07374 0.67042 0.0
C458 C 0.37532 0.05848 0.67226 0.0
C459 C 0.33872 0.06621 0.71298 0.0
C460 C 0.36517 0.05169 0.71524 0.0
C461 C 0.3314 0.07676 0.6903 0.0
C462 C 0.38353 0.04725 0.69471 0.0
H463 H 0.37079 0.04353 0.73283 0.0
O464 O 0.2802 0.05036 0.64097 0.0
O465 O 0.32868 0.14123 0.6204 0.0
O466 O 0.37971 0.19309 0.64897 0.0
O467 O 0.3842 0.1369 0.65908 0.0
O468 O 0.29866 0.10907 0.65029 0.0
O469 O 0.30765 0.04166 0.60931 0.0
O470 O 0.43786 0.24457 0.59343 0.0
O471 O 0.39615 0.14932 0.61905 0.0
O472 O 0.34891 0.09585 0.5917 0.0
O473 O 0.34061 0.14872 0.57968 0.0
O474 O 0.42575 0.18218 0.58916 0.0
O475 O 0.4203 0.2472 0.62983 0.0
C476 C 0.30284 0.13678 0.63584 0.0
C477 C 0.40932 0.0315 0.69589 0.0
C478 C 0.42584 0.02605 0.67478 0.0
C479 C 0.27546 0.02781 0.62242 0.0
C480 C 0.25147 0.98414 0.62562 0.0
C481 C 0.26981 0.96084 0.62787 0.0
C482 C 0.2094 0.96525 0.62481 0.0
C483 C 0.18585 0.92328 0.62546 0.0
C484 C 0.24657 0.91926 0.62876 0.0
C485 C 0.20496 0.90055 0.62733 0.0
C486 C 0.38709 0.17147 0.66467 0.0
C487 C 0.42256 0.15477 0.60362 0.0
C488 C 0.44624 0.26617 0.6129 0.0
C489 C 0.45851 0.309 0.60988 0.0
C490 C 0.43025 0.31946 0.60257 0.0
C491 C 0.49794 0.33978 0.61503 0.0
C492 C 0.50822 0.38045 0.61352 0.0
C493 C 0.44018 0.35934 0.60108 0.0
C494 C 0.47869 0.38958 0.60665 0.0
C495 C 0.33781 0.11341 0.57561 0.0
H496 H 0.30204 0.97474 0.62859 0.0
H497 H 0.19506 0.98311 0.62298 0.0
H498 H 0.2609 0.9014 0.63035 0.0
H499 H 0.1876 0.86827 0.62797 0.0
H500 H 0.40037 0.29685 0.59805 0.0
H501 H 0.52025 0.33218 0.62047 0.0
H502 H 0.4179 0.36684 0.5955 0.0
H503 H 0.48568 0.42033 0.60502 0.0
Gd504 Gd 0.72007 0.79097 0.37345 0.0
Gd505 Gd 0.67451 0.8448 0.40294 0.0
C506 C 0.74478 0.97855 0.41995 0.0
C507 C 0.74766 0.97894 0.46357 0.0
C508 C 0.71409 0.91608 0.44163 0.0
C509 C 0.72437 0.93642 0.42013 0.0
C510 C 0.72456 0.9371 0.46364 0.0
C511 C 0.7576 0.99966 0.44173 0.0
C512 C 0.74997 0.99813 0.39801 0.0
C513 C 0.73412 0.97576 0.3771 0.0
N514 N 0.71072 0.91503 0.39948 0.0
C515 C 0.714 0.93408 0.37822 0.0
H516 H 0.70151 0.91745 0.36192 0.0
C517 C 0.67304 0.85519 0.46159 0.0
N518 N 0.69016 0.87591 0.44097 0.0
C519 C 0.68312 0.87454 0.4839 0.0
C520 C 0.70958 0.9156 0.48497 0.0
H521 H 0.65252 0.82341 0.46081 0.0
H522 H 0.77386 0.03201 0.44193 0.0
H523 H 0.68122 0.71259 0.41129 0.0
H524 H 0.76505 0.0304 0.39711 0.0
H525 H 0.73721 0.99059 0.3601 0.0
H526 H 0.75638 0.9956 0.48028 0.0
H527 H 0.7483 0.82115 0.31676 0.0
H528 H 0.61784 0.60566 0.36988 0.0
H529 H 0.63963 0.63956 0.40927 0.0
H530 H 0.64687 0.65213 0.28856 0.0
H531 H 0.67038 0.85779 0.50022 0.0
H532 H 0.71695 0.93063 0.50224 0.0
H533 H 0.62059 0.61066 0.32481 0.0
H534 H 0.73495 0.79232 0.27597 0.0
N535 N 0.68231 0.7207 0.37337 0.0
C536 C 0.63614 0.63788 0.37063 0.0
C537 C 0.64845 0.65689 0.39288 0.0
C538 C 0.64858 0.6606 0.34958 0.0
C539 C 0.67221 0.70247 0.35158 0.0
C540 C 0.67211 0.69848 0.39392 0.0
N541 N 0.71072 0.76565 0.334 0.0
C542 C 0.68706 0.72566 0.33124 0.0
C543 C 0.72125 0.77322 0.29136 0.0
C544 C 0.6957 0.7323 0.28816 0.0
C545 C 0.72881 0.78945 0.31455 0.0
C546 C 0.6786 0.70787 0.30824 0.0
H547 H 0.68987 0.71981 0.27018 0.0
O548 O 0.78265 0.8163 0.36339 0.0
O549 O 0.72997 0.84897 0.38852 0.0
O550 O 0.67456 0.8469 0.36127 0.0
O551 O 0.67444 0.7895 0.34828 0.0
O552 O 0.7583 0.85171 0.35653 0.0
O553 O 0.7564 0.7694 0.39002 0.0
O554 O 0.61701 0.83198 0.41792 0.0
O555 O 0.66463 0.78695 0.38861 0.0
O556 O 0.71894 0.78408 0.4137 0.0
O557 O 0.71584 0.83796 0.4303 0.0
O558 O 0.63445 0.7843 0.41957 0.0
O559 O 0.63363 0.85697 0.3825 0.0
C560 C 0.75373 0.87262 0.37293 0.0
C561 C 0.65395 0.66634 0.30607 0.0
C562 C 0.63895 0.64274 0.32671 0.0
C563 C 0.78852 0.79351 0.37805 0.0
C564 C 0.81402 0.77763 0.36957 0.0
C565 C 0.79735 0.73895 0.36004 0.0
C566 C 0.8558 0.80107 0.37214 0.0
C567 C 0.88068 0.78557 0.36579 0.0
C568 C 0.82203 0.72359 0.35358 0.0
C569 C 0.8634 0.74658 0.3566 0.0
C570 C 0.6684 0.81972 0.34442 0.0
C571 C 0.63986 0.76308 0.40374 0.0
C572 C 0.60761 0.84695 0.39975 0.0
C573 C 0.59427 0.87617 0.40535 0.0
C574 C 0.62036 0.9116 0.41744 0.0
C575 C 0.55636 0.86991 0.3981 0.0
C576 C 0.54574 0.89967 0.40234 0.0
C577 C 0.61014 0.94093 0.42154 0.0
C578 C 0.57333 0.93522 0.41392 0.0
C579 C 0.72579 0.80946 0.43147 0.0
H580 H 0.76532 0.72054 0.35786 0.0
H581 H 0.86887 0.83097 0.37954 0.0
H582 H 0.80902 0.69363 0.34638 0.0
H583 H 0.88199 0.73405 0.35163 0.0
H584 H 0.64876 0.9167 0.42375 0.0
H585 H 0.53558 0.84246 0.38901 0.0
H586 H 0.63083 0.9682 0.43078 0.0
H587 H 0.56595 0.95832 0.41766 0.0
Gd588 Gd 0.95666 0.71052 0.87333 0.0
Gd589 Gd 0.85499 0.66954 0.89894 0.0
C590 C 0.7955 0.74491 0.91219 0.0
C591 C 0.79641 0.74944 0.95575 0.0
C592 C 0.82364 0.71233 0.9356 0.0
C593 C 0.81559 0.72288 0.91355 0.0
C594 C 0.81313 0.7245 0.95699 0.0
C595 C 0.78742 0.75949 0.93335 0.0
C596 C 0.7821 0.74963 0.88976 0.0
C597 C 0.78767 0.73147 0.86958 0.0
N598 N 0.82313 0.70759 0.89354 0.0
C599 C 0.80795 0.71012 0.87185 0.0
H600 H 0.81152 0.69598 0.85609 0.0
C601 C 0.83961 0.66963 0.95719 0.0
N602 N 0.83803 0.68677 0.93604 0.0
C603 C 0.83037 0.68138 0.97894 0.0
C604 C 0.81771 0.70949 0.97889 0.0
H605 H 0.84938 0.64786 0.95731 0.0
H606 H 0.7727 0.77709 0.93262 0.0
H607 H 0.98875 0.66968 0.91496 0.0
H608 H 0.76622 0.76599 0.88799 0.0
H609 H 0.7764 0.73393 0.85225 0.0
H610 H 0.78856 0.7595 0.97198 0.0
H611 H 0.96087 0.73671 0.81564 0.0
H612 H 0.03402 0.6029 0.87879 0.0
H613 H 1.01815 0.62617 0.91646 0.0
H614 H 1.02656 0.63043 0.79557 0.0
H615 H 0.83288 0.66864 0.9957 0.0
H616 H 0.81005 0.71815 0.99573 0.0
H617 H 0.03689 0.60453 0.83366 0.0
H618 H 0.9793 0.72085 0.77637 0.0
N619 N 0.98685 0.6707 0.87669 0.0
C620 C 1.0211 0.62213 0.87799 0.0
C621 C 1.01225 0.63526 0.89928 0.0
C622 C 1.014 0.63473 0.85592 0.0
C623 C 0.99692 0.65958 0.85588 0.0
C624 C 0.99553 0.66006 0.8983 0.0
N625 N 0.97578 0.69881 0.83537 0.0
C626 C 0.99123 0.67414 0.83453 0.0
C627 C 0.9828 0.70748 0.79259 0.0
C628 C 0.99741 0.68097 0.79134 0.0
C629 C 0.97251 0.7165 0.8149 0.0
C630 C 1.00224 0.66427 0.81249 0.0
H631 H 1.00539 0.67405 0.77404 0.0
O632 O 0.99849 0.77167 0.86227 0.0
O633 O 0.90876 0.7231 0.88513 0.0
O634 O 0.85679 0.67045 0.85733 0.0
O635 O 0.91316 0.66648 0.84696 0.0
O636 O 0.93933 0.75153 0.85428 0.0
O637 O 1.01119 0.74613 0.89335 0.0
O638 O 0.80788 0.61301 0.91344 0.0
O639 O 0.90237 0.6563 0.88724 0.0
O640 O 0.95818 0.71033 0.91382 0.0
O641 O 0.90118 0.71093 0.92702 0.0
O642 O 0.87174 0.62848 0.91799 0.0
O643 O 0.80368 0.62926 0.87708 0.0
C644 C 0.91218 0.74777 0.86914 0.0
C645 C 1.01815 0.63859 0.81232 0.0
C646 C 1.02402 0.62383 0.834 0.0
C647 C 1.02325 0.77754 0.87976 0.0
C648 C 0.06636 0.80129 0.87473 0.0
C649 C 0.08889 0.78273 0.86992 0.0
C650 C 0.08573 0.84328 0.87652 0.0
C651 C 0.12753 0.86651 0.87427 0.0
C652 C 0.13031 0.80571 0.86743 0.0
C653 C 0.14959 0.84725 0.86983 0.0
C654 C 0.8783 0.66297 0.84155 0.0
C655 C 0.89879 0.63147 0.90325 0.0
C656 C 0.78557 0.60372 0.89429 0.0
C657 C 0.74281 0.59124 0.89792 0.0
C658 C 0.73257 0.61914 0.90639 0.0
C659 C 0.7119 0.5521 0.8923 0.0
C660 C 0.67129 0.5418 0.89449 0.0
C661 C 0.69277 0.60921 0.90849 0.0
C662 C 0.66237 0.57102 0.90245 0.0
C663 C 0.93872 0.71899 0.93007 0.0
H664 H 0.07455 0.75053 0.86846 0.0
H665 H 0.06846 0.85776 0.88036 0.0
H666 H 0.14761 0.79123 0.86387 0.0
H667 H 0.18175 0.86444 0.86796 0.0
H668 H 0.75534 0.64873 0.91137 0.0
H669 H 0.71932 0.53004 0.88601 0.0
H670 H 0.68543 0.63122 0.91495 0.0
H671 H 0.63167 0.56397 0.9046 0.0
Gd672 Gd 0.26186 0.95543 0.3765 0.0
Gd673 Gd 0.20075 0.85099 0.39819 0.0
C674 C 0.06557 0.78866 0.40901 0.0
C675 C 0.05979 0.78501 0.45254 0.0
C676 C 0.12516 0.81607 0.43357 0.0
C677 C 0.10755 0.80957 0.41116 0.0
C678 C 0.10146 0.80309 0.4545 0.0
C679 C 0.04185 0.77752 0.42982 0.0
C680 C 0.04867 0.77793 0.38607 0.0
C681 C 0.07345 0.78738 0.36605 0.0
N682 N 0.13136 0.81991 0.39143 0.0
C683 C 0.11488 0.80804 0.36908 0.0
H684 H 0.13341 0.81455 0.35338 0.0
C685 C 0.18324 0.83236 0.45604 0.0
N686 N 0.16524 0.83156 0.43471 0.0
C687 C 0.16122 0.82098 0.47737 0.0
C688 C 0.12018 0.80676 0.47665 0.0
H689 H 0.21494 0.84305 0.45662 0.0
H690 H 1.00958 0.76189 0.42851 0.0
H691 H 0.33259 0.97944 0.41927 0.0
H692 H 1.01659 0.76148 0.38365 0.0
H693 H 0.06066 0.77862 0.34825 0.0
H694 H 0.04109 0.77511 0.46842 0.0
H695 H 0.24714 0.98106 0.32203 0.0
H696 H 0.44533 0.0224 0.38474 0.0
H697 H 0.40454 1.00407 0.42174 0.0
H698 H 0.41642 0.03327 0.30221 0.0
H699 H 0.17583 0.82284 0.49431 0.0
H700 H 0.10304 0.79727 0.49314 0.0
H701 H 0.44939 0.03266 0.33997 0.0
H702 H 0.28367 1.00602 0.28374 0.0
N703 N 0.33151 0.98214 0.381 0.0
C704 C 0.41356 1.01149 0.3835 0.0
C705 C 0.39066 1.00129 0.40441 0.0
C706 C 0.3954 1.00892 0.36132 0.0
C707 C 0.35388 0.99428 0.36073 0.0
C708 C 0.34962 0.98727 0.40287 0.0
N709 N 0.29618 0.98273 0.34033 0.0
C710 C 0.33553 0.99458 0.33962 0.0
C711 C 0.29859 1.00265 0.29927 0.0
C712 C 0.33861 1.01267 0.29783 0.0
C713 C 0.27794 0.98838 0.32093 0.0
C714 C 0.35786 1.00953 0.31833 0.0
H715 H 0.35466 0.02398 0.2811 0.0
O716 O 0.24068 0.9973 0.36952 0.0
O717 O 0.20154 0.90596 0.38652 0.0
O718 O 0.20421 0.85452 0.35676 0.0
O719 O 0.25708 0.91721 0.34502 0.0
O720 O 0.20395 0.94036 0.35757 0.0
O721 O 0.28102 1.00775 0.39908 0.0
O722 O 0.21089 0.80381 0.41188 0.0
O723 O 0.26142 0.89893 0.38691 0.0
O724 O 0.26229 0.95109 0.41682 0.0
O725 O 0.20267 0.89455 0.42718 0.0
O726 O 0.25799 0.8667 0.41725 0.0
O727 O 0.18802 0.79942 0.37604 0.0
C728 C 0.18046 0.91094 0.3711 0.0
C729 C 0.3988 0.02211 0.31844 0.0
C730 C 0.41756 0.02177 0.33993 0.0
C731 C 0.26094 0.02091 0.38711 0.0
C732 C 0.28034 0.06422 0.38275 0.0
C733 C 0.32162 0.08711 0.37887 0.0
C734 C 0.25731 0.08325 0.38373 0.0
C735 C 0.27555 0.12503 0.3816 0.0
C736 C 0.33979 0.12854 0.37657 0.0
C737 C 0.31704 0.14746 0.37815 0.0
C738 C 0.22917 0.87998 0.34041 0.0
C739 C 0.28218 0.89383 0.40266 0.0
C740 C 0.19652 0.78135 0.39282 0.0
C741 C 0.16641 0.73865 0.39678 0.0
C742 C 0.12896 0.72873 0.40618 0.0
C743 C 0.17401 0.70748 0.39057 0.0
C744 C 0.14371 0.667 0.39316 0.0
C745 C 0.0991 0.68908 0.40867 0.0
C746 C 0.10625 0.65844 0.40208 0.0
C747 C 0.2326 0.93111 0.43188 0.0
H748 H 0.33982 0.07304 0.37791 0.0
H749 H 0.2254 0.06569 0.38676 0.0
H750 H 0.37168 0.1461 0.37372 0.0
H751 H 0.33178 0.17962 0.37637 0.0
H752 H 0.12266 0.75161 0.41162 0.0
H753 H 0.20298 0.71459 0.38358 0.0
H754 H 0.07031 0.68208 0.41588 0.0
H755 H 0.08267 0.62785 0.40457 0.0
Gd756 Gd 0.33693 0.24864 0.87374 0.0
Gd757 Gd 0.38157 0.19324 0.90246 0.0
C758 C 0.31424 0.06142 0.92335 0.0
C759 C 0.31306 0.06486 0.96692 0.0
C760 C 0.34433 0.12577 0.9432 0.0
C761 C 0.334 0.10348 0.92228 0.0
C762 C 0.33498 0.10672 0.96579 0.0
C763 C 0.30283 0.04224 0.94573 0.0
C764 C 0.30786 0.03994 0.90197 0.0
C765 C 0.32122 0.06037 0.88028 0.0
N766 N 0.3457 0.12295 0.90096 0.0
C767 C 0.3405 0.10206 0.88012 0.0
H768 H 0.35093 0.1173 0.8632 0.0
C769 C 0.3838 0.18882 0.96156 0.0
N770 N 0.36688 0.16604 0.94146 0.0
C771 C 0.37478 0.1714 0.98437 0.0
C772 C 0.34971 0.13022 0.98653 0.0
H773 H 0.40337 0.22067 0.95996 0.0
H774 H 0.28714 1.00995 0.94686 0.0
H775 H 0.3834 0.32877 0.91024 0.0
H776 H 0.29345 1.00766 0.90205 0.0
H777 H 0.31681 0.04405 0.86367 0.0
H778 H 0.30525 0.04969 0.9841 0.0
H779 H 0.29563 0.21949 0.81919 0.0
H780 H 0.45083 0.43225 0.86685 0.0
H781 H 0.4298 0.40096 0.90689 0.0
H782 H 0.40997 0.38291 0.78669 0.0
H783 H 0.38731 0.18971 1.00025 0.0
H784 H 0.34316 0.11672 0.0042 0.0
H785 H 0.44367 0.42511 0.82191 0.0
H786 H 0.30633 0.24624 0.77795 0.0
N787 N 0.37907 0.3185 0.87243 0.0
C788 C 0.43045 0.40041 0.86819 0.0
C789 C 0.41856 0.38288 0.89082 0.0
C790 C 0.41469 0.37686 0.84758 0.0
C791 C 0.38845 0.33553 0.85036 0.0
C792 C 0.39219 0.34179 0.89262 0.0
N793 N 0.34271 0.27288 0.8343 0.0
C794 C 0.36963 0.31192 0.83061 0.0
C795 C 0.3246 0.26498 0.79256 0.0
C796 C 0.35398 0.30446 0.78822 0.0
C797 C 0.31878 0.24983 0.81594 0.0
C798 C 0.37634 0.32876 0.80744 0.0
H799 H 0.35825 0.31623 0.77013 0.0
O800 O 0.27236 0.22156 0.87074 0.0
O801 O 0.32695 0.19064 0.88823 0.0
O802 O 0.38031 0.18877 0.86092 0.0
O803 O 0.37236 0.24059 0.84482 0.0
O804 O 0.29494 0.18774 0.85779 0.0
O805 O 0.30611 0.27818 0.88859 0.0
O806 O 0.44161 0.21213 0.91547 0.0
O807 O 0.39337 0.25127 0.88676 0.0
O808 O 0.34392 0.25715 0.91384 0.0
O809 O 0.33855 0.1989 0.92892 0.0
O810 O 0.42262 0.2536 0.91836 0.0
O811 O 0.41885 0.17278 0.8849 0.0
C812 C 0.30131 0.16688 0.87335 0.0
C813 C 0.40405 0.36948 0.80438 0.0
C814 C 0.42324 0.3935 0.82443 0.0
C815 C 0.27103 0.25104 0.881 0.0
C816 C 0.24628 0.26487 0.86871 0.0
C817 C 0.26246 0.2927 0.85004 0.0
C818 C 0.20563 0.24868 0.87485 0.0
C819 C 0.181 0.25997 0.86221 0.0
C820 C 0.23849 0.30388 0.8374 0.0
C821 C 0.1982 0.28755 0.84323 0.0
C822 C 0.38092 0.21161 0.84275 0.0
C823 C 0.41913 0.27486 0.90178 0.0
C824 C 0.44791 0.18996 0.90038 0.0
C825 C 0.4633 0.16477 0.91081 0.0
C826 C 0.44472 0.14184 0.93125 0.0
C827 C 0.49658 0.16358 0.90086 0.0
C828 C 0.51047 0.13917 0.91132 0.0
C829 C 0.4582 0.11803 0.94161 0.0
C830 C 0.49069 0.11673 0.93186 0.0
C831 C 0.33254 0.22994 0.93083 0.0
H832 H 0.29351 0.30548 0.84506 0.0
H833 H 0.19343 0.22747 0.88947 0.0
H834 H 0.2511 0.32502 0.82278 0.0
H835 H 0.18043 0.29618 0.83247 0.0
H836 H 0.42 0.14269 0.93951 0.0
H837 H 0.51129 0.18126 0.88511 0.0
H838 H 0.4436 0.10076 0.9575 0.0
H839 H 0.50086 0.0986 0.94086 0.0
Gd840 Gd 0.09824 0.3303 0.37584 0.0
Gd841 Gd 0.20022 0.37712 0.40259 0.0
C842 C 0.26672 0.31108 0.42223 0.0
C843 C 0.26432 0.31087 0.46587 0.0
C844 C 0.23289 0.34111 0.44274 0.0
C845 C 0.24404 0.33053 0.42159 0.0
C846 C 0.24383 0.33233 0.46513 0.0
C847 C 0.27589 0.30039 0.44445 0.0
C848 C 0.28062 0.30409 0.40057 0.0
C849 C 0.27196 0.3165 0.37902 0.0
N850 N 0.23482 0.34139 0.40041 0.0
C851 C 0.24923 0.33549 0.37927 0.0
H852 H 0.24321 0.3452 0.36243 0.0
C853 C 0.20955 0.38046 0.46164 0.0
N854 N 0.21454 0.36319 0.44139 0.0
C855 C 0.21893 0.37177 0.48427 0.0
C856 C 0.23562 0.3471 0.48606 0.0
H857 H 0.19723 0.40008 0.46027 0.0
H858 H 0.29283 0.28499 0.44526 0.0
H859 H 0.06623 0.37602 0.41471 0.0
H860 H 0.29863 0.28979 0.40031 0.0
H861 H 0.28289 0.31156 0.36218 0.0
H862 H 0.27265 0.30352 0.48289 0.0
H863 H 0.08163 0.28914 0.32137 0.0
H864 H 1.02506 0.44218 0.37427 0.0
H865 H 0.03937 0.42158 0.41336 0.0
H866 H 1.02703 0.40142 0.29306 0.0
H867 H 0.21371 0.38446 0.50028 0.0
H868 H 0.24348 0.34093 0.5036 0.0
H869 H 1.02106 0.43489 0.32927 0.0
H870 H 0.06164 0.29921 0.28096 0.0
N871 N 0.06877 0.37129 0.3766 0.0
C872 C 0.03697 0.42206 0.37472 0.0
C873 C 0.0449 0.41041 0.39679 0.0
C874 C 0.04312 0.4064 0.35351 0.0
C875 C 0.05891 0.38051 0.35512 0.0
C876 C 0.06022 0.38438 0.39743 0.0
N877 N 0.0752 0.33544 0.33759 0.0
C878 C 0.06226 0.36191 0.33488 0.0
C879 C 0.06195 0.31731 0.29593 0.0
C880 C 0.05075 0.34619 0.29256 0.0
C881 C 0.07343 0.3118 0.31879 0.0
C882 C 0.04999 0.36836 0.31228 0.0
H883 H 0.04161 0.35026 0.27488 0.0
O884 O 0.05792 0.26716 0.36811 0.0
O885 O 0.14777 0.32195 0.38942 0.0
O886 O 0.20141 0.37483 0.36104 0.0
O887 O 0.13999 0.36412 0.34587 0.0
O888 O 0.11687 0.28783 0.36005 0.0
O889 O 0.04477 0.29598 0.39715 0.0
O890 O 0.24073 0.4379 0.41475 0.0
O891 O 0.15272 0.38748 0.38718 0.0
O892 O 0.09793 0.3373 0.416 0.0
O893 O 0.15361 0.33552 0.4302 0.0
O894 O 0.18055 0.41791 0.4184 0.0
O895 O 0.25799 0.41399 0.3851 0.0
C896 C 0.14514 0.2954 0.37506 0.0
C897 C 0.0362 0.39569 0.3103 0.0
C898 C 0.0328 0.41473 0.33091 0.0
C899 C 0.0331 0.26299 0.38513 0.0
C900 C 0.99005 0.23829 0.37989 0.0
C901 C 0.96682 0.25602 0.37484 0.0
C902 C 0.97149 0.1963 0.38132 0.0
C903 C 0.92983 0.17229 0.37849 0.0
C904 C 0.92557 0.23229 0.37185 0.0
C905 C 0.90711 0.19078 0.37388 0.0
C906 C 0.17764 0.37337 0.34316 0.0
C907 C 0.155 0.41346 0.40207 0.0
C908 C 0.26952 0.44364 0.40013 0.0
C909 C 0.30988 0.45947 0.41109 0.0
C910 C 0.31351 0.44269 0.43259 0.0
C911 C 0.34481 0.4914 0.40067 0.0
C912 C 0.38277 0.50558 0.41172 0.0
C913 C 0.35044 0.45646 0.4435 0.0
C914 C 0.38464 0.48753 0.43328 0.0
C915 C 0.11659 0.32903 0.43287 0.0
H916 H 0.98049 0.28818 0.37355 0.0
H917 H 0.98925 0.18241 0.38525 0.0
H918 H 0.90777 0.24615 0.36811 0.0
H919 H 0.87506 0.173 0.37157 0.0
H920 H 0.2877 0.41921 0.44129 0.0
H921 H 0.34249 0.50484 0.38414 0.0
H922 H 0.3525 0.44322 0.46017 0.0
H923 H 0.41267 0.49803 0.44268 0.0
Gd924 Gd 0.80022 0.09402 0.87407 0.0
Gd925 Gd 0.85438 0.19214 0.90553 0.0
C926 C 0.98524 0.2501 0.92851 0.0
C927 C 0.97985 0.24195 0.97188 0.0
C928 C 0.92016 0.21765 0.94725 0.0
C929 C 0.94322 0.22959 0.92675 0.0
C930 C 0.93822 0.22471 0.97012 0.0
C931 C 1.00337 0.25477 0.95108 0.0
C932 C 1.00772 0.26744 0.90778 0.0
C933 C 0.98821 0.26548 0.88629 0.0
N934 N 0.92468 0.2254 0.90535 0.0
C935 C 0.94648 0.24464 0.88546 0.0
H936 H 0.93191 0.24361 0.86875 0.0
C937 C 0.85708 0.19693 0.96469 0.0
N938 N 0.88033 0.20274 0.94488 0.0
C939 C 0.87347 0.20293 0.98777 0.0
C940 C 0.91412 0.21621 0.99052 0.0
H941 H 0.82558 0.18645 0.96264 0.0
H942 H 0.03558 0.26984 0.95274 0.0
H943 H 0.71796 0.05402 0.90868 0.0
H944 H 0.04005 0.28364 0.90838 0.0
H945 H 1.00525 0.27993 0.87032 0.0
H946 H 0.99427 0.24721 0.98927 0.0
H947 H 0.83532 0.09557 0.81823 0.0
H948 H 0.61654 1.02004 0.86347 0.0
H949 H 0.64557 0.02645 0.90396 0.0
H950 H 0.67137 0.04106 0.78408 0.0
H951 H 0.85474 0.19726 1.00341 0.0
H952 H 0.92683 0.2212 0.00841 0.0
H953 H 0.62652 0.02588 0.81873 0.0
H954 H 0.8107 0.08388 0.77662 0.0
N955 N 0.73039 0.06469 0.87128 0.0
C956 C 0.64845 0.0323 0.86543 0.0
C957 C 0.6647 0.03577 0.88829 0.0
C958 C 0.67339 0.04336 0.84529 0.0
C959 C 0.71475 0.05935 0.84885 0.0
C960 C 0.70587 0.05153 0.89088 0.0
N961 N 0.77925 0.08149 0.83359 0.0
C962 C 0.73992 0.0678 0.82938 0.0
C963 C 0.79049 0.07938 0.79129 0.0
C964 C 0.75054 0.06716 0.78661 0.0
C965 C 0.80435 0.08602 0.81501 0.0
C966 C 0.72455 0.06065 0.80577 0.0
H967 H 0.73991 0.06206 0.76821 0.0
O968 O 0.82925 0.05828 0.8708 0.0
O969 O 0.85803 0.14129 0.88971 0.0
O970 O 0.86051 0.19684 0.86403 0.0
O971 O 0.80412 0.14052 0.84878 0.0
O972 O 0.86122 0.11492 0.85795 0.0
O973 O 0.76981 0.03154 0.88511 0.0
O974 O 0.84228 0.2373 0.92066 0.0
O975 O 0.79679 0.14553 0.89004 0.0
O976 O 0.78979 0.08882 0.91396 0.0
O977 O 0.84628 0.14151 0.93115 0.0
O978 O 0.79319 0.17352 0.92063 0.0
O979 O 0.86874 0.24614 0.88557 0.0
C980 C 0.88185 0.14074 0.87427 0.0
C981 C 0.68367 0.04639 0.80209 0.0
C982 C 0.65814 0.03778 0.82182 0.0
C983 C 0.79875 0.02561 0.87841 0.0
C984 C 0.78823 0.98966 0.86384 0.0
C985 C 0.76428 0.98141 0.84337 0.0
C986 C 0.80427 0.96481 0.8695 0.0
C987 C 0.79683 0.93203 0.85455 0.0
C988 C 0.75695 0.94946 0.82846 0.0
C989 C 0.77327 0.92528 0.83379 0.0
C990 C 0.83499 0.17683 0.84623 0.0
C991 C 0.77247 0.14743 0.90449 0.0
C992 C 0.85823 0.26198 0.90274 0.0
C993 C 0.88735 0.30431 0.90876 0.0
C994 C 0.9227 0.31334 0.92085 0.0
C995 C 0.88101 0.33606 0.90185 0.0
C996 C 0.9106 0.37632 0.90641 0.0
C997 C 0.95186 0.3528 0.92527 0.0
C998 C 0.94606 0.38403 0.91797 0.0
C999 C 0.81584 0.10404 0.93169 0.0
H1000 H 0.75172 1.00002 0.8387 0.0
H1001 H 0.82243 0.97114 0.8855 0.0
H1002 H 0.73891 0.94369 0.81247 0.0
H1003 H 0.76782 0.90165 0.82125 0.0
H1004 H 0.92789 0.28988 0.92687 0.0
H1005 H 0.85363 0.32958 0.89275 0.0
H1006 H 0.97909 0.35922 0.93449 0.0
H1007 H 0.96907 0.4144 0.9219 0.0
H1008 H 0.18678 0.91827 0.17292 0.0
H1009 H 0.15775 0.91738 0.09803 0.0
H1010 H 0.2152 0.99081 0.1743 0.0
H1011 H 0.18521 0.9903 0.09957 0.0
H1012 H 0.19747 0.11399 0.13308 0.0
H1013 H 0.16845 0.04202 0.12699 0.0
H1014 H 0.27878 0.05009 0.14972 0.0
H1015 H 0.30898 0.12194 0.15417 0.0
C1016 C 0.1867 0.93376 0.15673 0.0
C1017 C 0.17154 0.9126 0.13515 0.0
C1018 C 0.20278 0.97516 0.15754 0.0
C1019 C 0.20266 0.9962 0.13701 0.0
C1020 C 0.18575 0.9748 0.11563 0.0
C1021 C 0.17051 0.9333 0.11467 0.0
C1022 C 0.21607 0.10082 0.13621 0.0
C1023 C 0.25567 0.12434 0.14453 0.0
C1024 C 0.19922 0.05943 0.13282 0.0
C1025 C 0.22125 0.04045 0.13809 0.0
C1026 C 0.26095 0.06385 0.14575 0.0
C1027 C 0.27808 0.10517 0.14857 0.0
H1028 H 0.2725 0.15685 0.67372 0.0
H1029 H 0.26594 0.14705 0.59651 0.0
H1030 H 0.22428 0.18022 0.67353 0.0
H1031 H 0.2169 0.16977 0.59612 0.0
H1032 H 0.17383 0.26236 0.60477 0.0
H1033 H 0.21376 0.22967 0.60263 0.0
H1034 H 0.15608 0.16286 0.66672 0.0
H1035 H 0.11593 0.19575 0.66873 0.0
C1036 C 0.26058 0.15969 0.65668 0.0
C1037 C 0.27406 0.15161 0.63508 0.0
C1038 C 0.23256 0.17268 0.65655 0.0
C1039 C 0.21659 0.17721 0.6348 0.0
C1040 C 0.22893 0.16737 0.6132 0.0
C1041 C 0.25717 0.15452 0.61336 0.0
C1042 C 0.16946 0.24046 0.61832 0.0
C1043 C 0.1419 0.23197 0.63706 0.0
C1044 C 0.19231 0.22151 0.61704 0.0
C1045 C 0.18887 0.19397 0.63472 0.0
C1046 C 0.1602 0.18441 0.65301 0.0
C1047 C 0.13684 0.20296 0.65406 0.0
H1048 H 0.932 0.17054 0.09374 0.0
H1049 H 0.93039 0.10255 0.15546 0.0
H1050 H 1.00486 0.20803 0.09494 0.0
H1051 H 1.00349 0.14094 0.15724 0.0
H1052 H 0.13912 0.25411 0.09506 0.0
H1053 H 0.06741 0.20682 0.09083 0.0
H1054 H 0.05343 0.20946 0.16774 0.0
H1055 H 0.12491 0.25632 0.17178 0.0
C1056 C 0.94738 0.16361 0.10753 0.0
C1057 C 0.92559 0.13386 0.12461 0.0
C1058 C 0.98916 0.18506 0.10823 0.0
C1059 C 1.01021 0.17816 0.12648 0.0
C1060 C 0.98831 0.14754 0.14317 0.0
C1061 C 0.94648 0.12538 0.1421 0.0
C1062 C 0.12053 0.24463 0.11098 0.0
C1063 C 0.13716 0.2599 0.13366 0.0
C1064 C 0.07952 0.21743 0.1086 0.0
C1065 C 0.05444 0.20444 0.12893 0.0
C1066 C 0.07172 0.21848 0.15171 0.0
C1067 C 0.11261 0.24561 0.15404 0.0
H1068 H 0.82744 0.93266 0.67818 0.0
H1069 H 0.8134 0.91005 0.60186 0.0
H1070 H 0.85855 1.00405 0.67088 0.0
H1071 H 0.84324 0.98166 0.59439 0.0
H1072 H 0.92762 0.11606 0.58724 0.0
H1073 H 0.90198 0.04499 0.59483 0.0
H1074 H 0.84441 0.05359 0.65941 0.0
H1075 H 0.87159 0.12457 0.65223 0.0
C1076 C 0.83079 0.94299 0.65979 0.0
C1077 C 0.81778 0.91556 0.64061 0.0
C1078 C 0.84849 0.98406 0.65556 0.0
C1079 C 0.85333 0.99907 0.632 0.0
C1080 C 0.84072 0.97156 0.61277 0.0
C1081 C 0.82343 0.93039 0.61702 0.0
C1082 C 0.90963 0.1026 0.60309 0.0
C1083 C 0.90064 0.12558 0.61875 0.0
C1084 C 0.89462 0.06177 0.60739 0.0
C1085 C 0.87064 0.04301 0.62766 0.0
C1086 C 0.86303 0.06667 0.64376 0.0
C1087 C 0.8782 0.10743 0.63949 0.0
H1088 H 0.86379 0.74973 0.16156 0.0
H1089 H 0.9632 0.85402 0.12976 0.0
H1090 H 0.82286 0.7807 0.15779 0.0
H1091 H 0.9203 0.88331 0.12416 0.0
H1092 H 0.80171 0.88895 0.09887 0.0
H1093 H 0.84843 0.86301 0.10092 0.0
H1094 H 0.83039 0.84832 0.17757 0.0
H1095 H 0.78484 0.87518 0.17556 0.0
C1096 C 0.87724 0.77925 0.15379 0.0
C1097 C 0.91761 0.79946 0.14655 0.0
C1098 C 0.85332 0.79679 0.15135 0.0
C1099 C 0.86833 0.83448 0.14077 0.0
C1100 C 0.90789 0.85412 0.13235 0.0
C1101 C 0.93239 0.83706 0.13544 0.0
C1102 C 0.80772 0.87998 0.11608 0.0
C1103 C 0.78859 0.88258 0.13695 0.0
C1104 C 0.83477 0.86564 0.11731 0.0
C1105 C 0.84275 0.85328 0.13938 0.0
C1106 C 0.82449 0.85719 0.16029 0.0
C1107 C 0.79834 0.87237 0.15913 0.0
H1108 H 0.94057 0.77835 0.66812 0.0
H1109 H 0.92824 0.78341 0.59144 0.0
H1110 H 1.01223 0.82439 0.66496 0.0
H1111 H 1.00042 0.82989 0.58807 0.0
H1112 H 0.13676 0.86715 0.59294 0.0
H1113 H 0.06378 0.82908 0.59278 0.0
H1114 H 0.06167 0.89376 0.65563 0.0
H1115 H 0.13479 0.93275 0.6552 0.0
C1116 C 0.95335 0.78931 0.65054 0.0
C1117 C 0.92915 0.77614 0.62993 0.0
C1118 C 0.99439 0.81605 0.64873 0.0
C1119 C 1.01235 0.83089 0.62625 0.0
C1120 C 0.98777 0.81871 0.60564 0.0
C1121 C 0.94651 0.79192 0.60751 0.0
C1122 C 0.12059 0.87346 0.60655 0.0
C1123 C 0.14144 0.90273 0.62418 0.0
C1124 C 0.07873 0.85163 0.60648 0.0
C1125 C 0.05666 0.85762 0.6245 0.0
C1126 C 0.07764 0.88782 0.64171 0.0
C1127 C 0.1195 0.91037 0.64141 0.0
H1128 H 0.13091 0.89295 0.33305 0.0
H1129 H 0.1326 0.8976 0.41044 0.0
H1130 H 0.05904 0.8678 0.33315 0.0
H1131 H 0.06051 0.87293 0.41077 0.0
H1132 H 0.92616 0.77591 0.39946 0.0
H1133 H 0.99895 0.81124 0.40254 0.0
H1134 H 1.00703 0.88346 0.34134 0.0
H1135 H 0.93396 0.84851 0.33881 0.0
C1136 C 0.11574 0.88862 0.35011 0.0
C1137 C 0.13689 0.89562 0.37175 0.0
C1138 C 0.07461 0.8746 0.3502 0.0
C1139 C 0.05366 0.86796 0.37198 0.0
C1140 C 0.0754 0.87697 0.39366 0.0
C1141 C 0.11664 0.89091 0.39353 0.0
C1142 C 0.94364 0.79972 0.38691 0.0
C1143 C 0.92463 0.80951 0.36887 0.0
C1144 C 0.98538 0.82001 0.38863 0.0
C1145 C 1.00916 0.8498 0.37192 0.0
C1146 C 0.98983 0.86024 0.35427 0.0
C1147 C 0.94802 0.84048 0.35287 0.0
H1148 H 0.11766 0.91947 0.84685 0.0
H1149 H 0.18491 0.91319 0.9068 0.0
H1150 H 0.15702 0.99257 0.84807 0.0
H1151 H 0.2233 0.98616 0.90869 0.0
H1152 H 0.27247 0.11399 0.83681 0.0
H1153 H 0.22676 0.0421 0.83859 0.0
H1154 H 0.22206 0.04926 0.9159 0.0
H1155 H 0.26807 0.12171 0.91393 0.0
C1156 C 0.14052 0.93383 0.86049 0.0
C1157 C 0.14851 0.91076 0.87659 0.0
C1158 C 0.16323 0.97564 0.86113 0.0
C1159 C 0.19394 0.99538 0.87821 0.0
C1160 C 0.20035 0.97213 0.89512 0.0
C1161 C 0.17835 0.93032 0.89407 0.0
C1162 C 0.26175 0.10013 0.85419 0.0
C1163 C 0.27492 0.12311 0.87529 0.0
C1164 C 0.23524 0.05898 0.85521 0.0
C1165 C 0.22069 0.03971 0.87739 0.0
C1166 C 0.23301 0.063 0.89854 0.0
C1167 C 0.25953 0.10439 0.89747 0.0
H1168 H 0.16784 0.26396 0.33919 0.0
H1169 H 0.15835 0.26492 0.41634 0.0
H1170 H 0.19488 0.2189 0.34221 0.0
H1171 H 0.18541 0.21951 0.41957 0.0
H1172 H 0.21235 0.11249 0.35352 0.0
H1173 H 0.1773 0.15069 0.35324 0.0
H1174 H 0.24949 0.22132 0.41298 0.0
H1175 H 0.28524 0.18399 0.41261 0.0
C1176 C 0.17167 0.25448 0.35682 0.0
C1177 C 0.1625 0.26905 0.37757 0.0
C1178 C 0.18679 0.22836 0.35858 0.0
C1179 C 0.19254 0.21561 0.38115 0.0
C1180 C 0.18191 0.22913 0.40192 0.0
C1181 C 0.16667 0.25529 0.40012 0.0
C1182 C 0.22047 0.13607 0.36664 0.0
C1183 C 0.25171 0.14557 0.38293 0.0
C1184 C 0.20061 0.15813 0.36642 0.0
C1185 C 0.21103 0.18968 0.38281 0.0
C1186 C 0.24094 0.19766 0.39992 0.0
C1187 C 0.26145 0.17629 0.39973 0.0
H1188 H 0.13584 0.29683 0.85937 0.0
H1189 H 0.12657 0.18413 0.87859 0.0
H1190 H 0.06401 0.2672 0.86371 0.0
H1191 H 0.05453 0.15545 0.88441 0.0
H1192 H 0.9291 0.14494 0.91241 0.0
H1193 H 1.00208 0.17227 0.91202 0.0
H1194 H 1.00553 0.20419 0.83746 0.0
H1195 H 0.93302 0.17594 0.83768 0.0
C1196 C 0.11873 0.26578 0.86457 0.0
C1197 C 0.13746 0.24282 0.86805 0.0
C1198 C 0.07746 0.24897 0.86731 0.0
C1199 C 0.05367 0.209 0.87427 0.0
C1200 C 0.07225 0.18643 0.87911 0.0
C1201 C 0.11364 0.20303 0.87586 0.0
C1202 C 0.94569 0.15813 0.89607 0.0
C1203 C 0.92581 0.15968 0.87529 0.0
C1204 C 0.98721 0.17329 0.89576 0.0
C1205 C 1.00944 0.19064 0.87475 0.0
C1206 C 0.98924 0.19139 0.85395 0.0
C1207 C 0.94784 0.17541 0.8541 0.0
H1208 H 0.87246 0.12421 0.41045 0.0
H1209 H 0.94091 0.12065 0.3503 0.0
H1210 H 0.83426 0.0512 0.41104 0.0
H1211 H 0.90179 0.04746 0.35025 0.0
H1212 H 0.78887 0.91585 0.41402 0.0
H1213 H 0.83615 0.98791 0.41709 0.0
H1214 H 0.83153 0.99829 0.34004 0.0
H1215 H 0.78442 0.92673 0.33715 0.0
C1216 C 0.87944 0.10767 0.39746 0.0
C1217 C 0.90953 0.12802 0.38028 0.0
C1218 C 0.85757 0.06583 0.39778 0.0
C1219 C 0.86438 0.04333 0.38043 0.0
C1220 C 0.89535 0.06382 0.36367 0.0
C1221 C 0.91793 0.10568 0.36376 0.0
C1222 C 0.79782 0.93376 0.39783 0.0
C1223 C 0.78193 0.91606 0.37544 0.0
C1224 C 0.82504 0.97493 0.39954 0.0
C1225 C 0.83759 0.99904 0.37881 0.0
C1226 C 0.82284 0.98074 0.35636 0.0
C1227 C 0.79557 0.93978 0.3547 0.0
H1228 H 0.90399 0.78932 0.90684 0.0
H1229 H 0.88591 0.76993 0.83044 0.0
H1230 H 0.87836 0.83633 0.90514 0.0
H1231 H 0.85946 0.81575 0.8288 0.0
H1232 H 0.76373 0.85177 0.84464 0.0
H1233 H 0.79384 0.81002 0.84863 0.0
H1234 H 0.89714 0.90694 0.88242 0.0
H1235 H 0.86846 0.95042 0.87686 0.0
C1236 C 0.89418 0.79486 0.88977 0.0
C1237 C 0.89549 0.77495 0.8689 0.0
C1238 C 0.87999 0.82205 0.88874 0.0
C1239 C 0.86649 0.82937 0.86687 0.0
C1240 C 0.86914 0.81034 0.84594 0.0
C1241 C 0.88413 0.78403 0.84689 0.0
C1242 C 0.79318 0.86483 0.85256 0.0
C1243 C 0.81381 0.9052 0.85985 0.0
C1244 C 0.81025 0.84051 0.85508 0.0
C1245 C 0.84796 0.85521 0.86569 0.0
C1246 C 0.86795 0.89477 0.8742 0.0
C1247 C 0.85128 0.91961 0.87111 0.0
H1248 H 0.15502 0.70928 0.06971 0.0
H1249 H 0.15657 0.72278 0.14675 0.0
H1250 H 0.15547 0.64679 0.07442 0.0
H1251 H 0.15538 0.65877 0.15152 0.0
H1252 H 0.10564 0.51606 0.13705 0.0
H1253 H 0.10749 0.58046 0.13889 0.0
H1254 H 0.21013 0.63165 0.09217 0.0
H1255 H 0.20871 0.5675 0.09072 0.0
C1256 C 0.15457 0.69838 0.0877 0.0
C1257 C 0.15514 0.7207 0.10783 0.0
C1258 C 0.1552 0.66277 0.09039 0.0
C1259 C 0.15607 0.64813 0.11331 0.0
C1260 C 0.15487 0.66942 0.13361 0.0
C1261 C 0.15508 0.70579 0.1309 0.0
C1262 C 0.1293 0.54145 0.12776 0.0
C1263 C 0.15719 0.5368 0.11382 0.0
C1264 C 0.1303 0.57825 0.12881 0.0
C1265 C 0.1587 0.611 0.11551 0.0
C1266 C 0.18772 0.60685 0.10249 0.0
C1267 C 0.18719 0.57027 0.10183 0.0
H1268 H 0.61242 0.09396 0.62727 0.0
H1269 H 0.65895 0.19433 0.57896 0.0
H1270 H 0.55003 0.09556 0.63093 0.0
H1271 H 0.59654 0.1959 0.58256 0.0
H1272 H 0.4647 0.14999 0.56672 0.0
H1273 H 0.52674 0.14814 0.56786 0.0
H1274 H 0.5185 0.13771 0.64512 0.0
H1275 H 0.45622 0.14061 0.64395 0.0
C1276 C 0.60959 0.11684 0.61774 0.0
C1277 C 0.64076 0.14399 0.60274 0.0
C1278 C 0.57381 0.11776 0.6199 0.0
C1279 C 0.56794 0.14549 0.60682 0.0
C1280 C 0.5998 0.17377 0.59266 0.0
C1281 C 0.6358 0.17321 0.59078 0.0
C1282 C 0.47574 0.14669 0.58397 0.0
C1283 C 0.4552 0.14498 0.6052 0.0
C1284 C 0.51161 0.14608 0.58464 0.0
C1285 C 0.52818 0.14358 0.60659 0.0
C1286 C 0.50669 0.13985 0.62789 0.0
C1287 C 0.47079 0.14108 0.62724 0.0
H1288 H 0.53351 0.59107 0.14184 0.0
H1289 H 0.48494 0.64291 0.09335 0.0
H1290 H 0.46884 0.52907 0.14292 0.0
H1291 H 0.42043 0.58077 0.09417 0.0
H1292 H 0.34026 0.44893 0.07244 0.0
H1293 H 0.40328 0.51116 0.07722 0.0
H1294 H 0.39187 0.49914 0.15431 0.0
H1295 H 0.3275 0.43703 0.14948 0.0
C1296 C 0.5087 0.58948 0.13185 0.0
C1297 C 0.51426 0.6219 0.11753 0.0
C1298 C 0.47172 0.55399 0.13248 0.0
C1299 C 0.43968 0.54986 0.11843 0.0
C1300 C 0.44471 0.58295 0.10502 0.0
C1301 C 0.48148 0.61868 0.10473 0.0
C1302 C 0.35141 0.45923 0.09044 0.0
C1303 C 0.32915 0.43771 0.11055 0.0
C1304 C 0.38733 0.49509 0.09317 0.0
C1305 C 0.40226 0.51044 0.11612 0.0
C1306 C 0.38101 0.48812 0.13638 0.0
C1307 C 0.34441 0.45234 0.13363 0.0
H1308 H 0.90596 0.48017 0.56215 0.0
H1309 H 0.90979 0.50922 0.63733 0.0
H1310 H 0.90846 0.42034 0.57236 0.0
H1311 H 0.91328 0.44948 0.64777 0.0
H1312 H 0.87154 0.315 0.6567 0.0
H1313 H 0.87722 0.3796 0.64943 0.0
H1314 H 0.94839 0.39418 0.58629 0.0
H1315 H 0.94097 0.32826 0.59322 0.0
C1316 C 0.90749 0.47382 0.58095 0.0
C1317 C 0.90769 0.49969 0.59891 0.0
C1318 C 0.90938 0.43955 0.58684 0.0
C1319 C 0.91173 0.42988 0.61094 0.0
C1320 C 0.91124 0.45547 0.62899 0.0
C1321 C 0.90907 0.48978 0.62305 0.0
C1322 C 0.88915 0.33241 0.64153 0.0
C1323 C 0.90593 0.31646 0.62563 0.0
C1324 C 0.89252 0.36971 0.63735 0.0
C1325 C 0.91278 0.39239 0.61703 0.0
C1326 C 0.93169 0.37739 0.60185 0.0
C1327 C 0.92811 0.33979 0.60601 0.0
H1328 H 0.61207 0.89836 0.14593 0.0
H1329 H 0.59509 0.88198 0.06927 0.0
H1330 H 0.54983 0.9012 0.14904 0.0
H1331 H 0.5329 0.88332 0.07243 0.0
H1332 H 0.45724 0.94814 0.13058 0.0
H1333 H 0.51902 0.94507 0.13326 0.0
H1334 H 0.46418 0.83637 0.09154 0.0
H1335 H 0.40225 0.8392 0.08914 0.0
C1336 C 0.59551 0.89611 0.12975 0.0
C1337 C 0.60888 0.89058 0.10729 0.0
C1338 C 0.55969 0.89732 0.13153 0.0
C1339 C 0.53598 0.89176 0.111 0.0
C1340 C 0.54994 0.88697 0.08863 0.0
C1341 C 0.58582 0.88655 0.08681 0.0
C1342 C 0.4581 0.92307 0.12246 0.0
C1343 C 0.42474 0.89384 0.10966 0.0
C1344 C 0.49351 0.92133 0.12403 0.0
C1345 C 0.49674 0.89072 0.11243 0.0
C1346 C 0.4628 0.86056 0.10052 0.0
C1347 C 0.42716 0.86192 0.09932 0.0
H1348 H 0.72245 0.58637 0.57206 0.0
H1349 H 0.73904 0.59846 0.64892 0.0
H1350 H 0.65969 0.52428 0.57737 0.0
H1351 H 0.67473 0.53621 0.65434 0.0
H1352 H 0.57777 0.39289 0.59285 0.0
H1353 H 0.64277 0.45445 0.59361 0.0
H1354 H 0.59698 0.5067 0.64401 0.0
H1355 H 0.5318 0.44526 0.64303 0.0
C1356 C 0.71224 0.57606 0.59017 0.0
C1357 C 0.73551 0.59762 0.61006 0.0
C1358 C 0.67643 0.54025 0.59319 0.0
C1359 C 0.6625 0.5249 0.61623 0.0
C1360 C 0.6848 0.54721 0.63633 0.0
C1361 C 0.72136 0.583 0.63327 0.0
C1362 C 0.58187 0.41709 0.60456 0.0
C1363 C 0.54961 0.41417 0.61783 0.0
C1364 C 0.61897 0.4525 0.60485 0.0
C1365 C 0.62491 0.48562 0.61872 0.0
C1366 C 0.59343 0.48176 0.63322 0.0
C1367 C 0.55612 0.44659 0.63261 0.0
H1368 H 0.32679 0.90688 0.36097 0.0
H1369 H 0.32874 0.89112 0.43759 0.0
H1370 H 0.3902 0.90648 0.35722 0.0
H1371 H 0.39059 0.88927 0.43378 0.0
H1372 H 0.52916 0.94886 0.37547 0.0
H1373 H 0.4655 0.94827 0.37274 0.0
H1374 H 0.40872 0.83953 0.41405 0.0
H1375 H 0.47228 0.8399 0.41649 0.0
C1376 C 0.34105 0.90405 0.37701 0.0
C1377 C 0.32302 0.89958 0.39964 0.0
C1378 C 0.37711 0.90341 0.37485 0.0
C1379 C 0.39504 0.89705 0.39518 0.0
C1380 C 0.37724 0.89343 0.41773 0.0
C1381 C 0.34194 0.89485 0.41992 0.0
C1382 C 0.50278 0.92423 0.38339 0.0
C1383 C 0.50572 0.89431 0.39614 0.0
C1384 C 0.46635 0.92393 0.38182 0.0
C1385 C 0.43214 0.89412 0.39339 0.0
C1386 C 0.43464 0.86313 0.40511 0.0
C1387 C 0.47092 0.86305 0.40631 0.0
H1388 H 0.65888 0.47156 0.9139 0.0
H1389 H 0.60616 0.51946 0.86558 0.0
H1390 H 0.59704 0.40679 0.91295 0.0
H1391 H 0.54445 0.45452 0.86437 0.0
H1392 H 0.45173 0.31289 0.85841 0.0
H1393 H 0.51439 0.37683 0.8531 0.0
H1394 H 0.52758 0.39024 0.9301 0.0
H1395 H 0.46502 0.32788 0.93533 0.0
C1396 C 0.63454 0.46792 0.90253 0.0
C1397 C 0.63744 0.50063 0.88984 0.0
C1398 C 0.59898 0.43097 0.90213 0.0
C1399 C 0.56571 0.42564 0.88874 0.0
C1400 C 0.56953 0.4576 0.87478 0.0
C1401 C 0.60485 0.49476 0.87551 0.0
C1402 C 0.46758 0.33013 0.87411 0.0
C1403 C 0.45314 0.31566 0.8973 0.0
C1404 C 0.5036 0.36646 0.8711 0.0
C1405 C 0.52632 0.3882 0.89122 0.0
C1406 C 0.51125 0.37393 0.91426 0.0
C1407 C 0.47519 0.33834 0.91724 0.0
H1408 H 0.20226 0.65433 0.41111 0.0
H1409 H 0.09881 0.6015 0.36492 0.0
H1410 H 0.20382 0.59169 0.41037 0.0
H1411 H 0.10059 0.53893 0.36397 0.0
H1412 H 0.14982 0.46118 0.43517 0.0
H1413 H 0.15067 0.52396 0.42914 0.0
H1414 H 0.14584 0.50625 0.35236 0.0
H1415 H 0.14637 0.44328 0.35844 0.0
C1416 C 0.18066 0.62978 0.40019 0.0
C1417 C 0.15042 0.63286 0.38812 0.0
C1418 C 0.18126 0.59378 0.39994 0.0
C1419 C 0.15202 0.56023 0.38731 0.0
C1420 C 0.12353 0.56421 0.3738 0.0
C1421 C 0.12254 0.60002 0.37437 0.0
C1422 C 0.14851 0.47038 0.41696 0.0
C1423 C 0.14772 0.4471 0.3973 0.0
C1424 C 0.14937 0.50656 0.41352 0.0
C1425 C 0.14912 0.52049 0.39029 0.0
C1426 C 0.14634 0.49637 0.37049 0.0
C1427 C 0.14623 0.46019 0.37395 0.0
H1428 H 0.73884 0.15513 0.86251 0.0
H1429 H 0.71302 0.12046 0.93683 0.0
H1430 H 0.6736 0.1519 0.85861 0.0
H1431 H 0.64779 0.11573 0.93272 0.0
H1432 H 0.51915 0.07318 0.90728 0.0
H1433 H 0.58068 0.07116 0.90144 0.0
H1434 H 0.6445 0.1977 0.88793 0.0
H1435 H 0.58298 0.20036 0.89484 0.0
C1436 C 0.71874 0.14561 0.87774 0.0
C1437 C 0.73064 0.13733 0.89989 0.0
C1438 C 0.68169 0.1442 0.87559 0.0
C1439 C 0.65571 0.13368 0.89541 0.0
C1440 C 0.6671 0.1238 0.91715 0.0
C1441 C 0.70432 0.12629 0.91947 0.0
C1442 C 0.54612 0.10068 0.90286 0.0
C1443 C 0.54605 0.13716 0.90211 0.0
C1444 C 0.58132 0.09935 0.89935 0.0
C1445 C 0.61739 0.13423 0.89434 0.0
C1446 C 0.617 0.17026 0.89161 0.0
C1447 C 0.5817 0.17175 0.89552 0.0
H1448 H 0.39641 0.57773 0.393 0.0
H1449 H 0.4563 0.51149 0.40918 0.0
H1450 H 0.46161 0.63776 0.38595 0.0
H1451 H 0.52082 0.57154 0.40318 0.0
H1452 H 0.607 0.70406 0.43639 0.0
H1453 H 0.54582 0.63944 0.43255 0.0
H1454 H 0.53551 0.66465 0.35829 0.0
H1455 H 0.59811 0.72912 0.3619 0.0
C1456 C 0.42322 0.57558 0.39445 0.0
C1457 C 0.42089 0.53977 0.40213 0.0
C1458 C 0.46059 0.61003 0.39048 0.0
C1459 C 0.49631 0.60939 0.39426 0.0
C1460 C 0.49386 0.57302 0.4003 0.0
C1461 C 0.45676 0.53866 0.40387 0.0
C1462 C 0.59234 0.6953 0.41905 0.0
C1463 C 0.60779 0.7213 0.39936 0.0
C1464 C 0.55721 0.65842 0.41688 0.0
C1465 C 0.53572 0.64709 0.39518 0.0
C1466 C 0.55143 0.67268 0.37524 0.0
C1467 C 0.58745 0.7093 0.37723 0.0
H1468 H 0.90094 0.58631 0.93923 0.0
H1469 H 0.91129 0.59797 0.86211 0.0
H1470 H 0.90112 0.5234 0.93674 0.0
H1471 H 0.91319 0.53526 0.85969 0.0
H1472 H 0.95908 0.44155 0.87904 0.0
H1473 H 0.95783 0.50427 0.87571 0.0
H1474 H 0.85057 0.45363 0.91846 0.0
H1475 H 0.85144 0.3907 0.92137 0.0
C1476 C 0.90412 0.57582 0.92173 0.0
C1477 C 0.90668 0.59757 0.90093 0.0
C1478 C 0.90385 0.53954 0.92031 0.0
C1479 C 0.90656 0.52393 0.89802 0.0
C1480 C 0.91092 0.54642 0.87715 0.0
C1481 C 0.91031 0.58258 0.87854 0.0
C1482 C 0.93464 0.44351 0.88717 0.0
C1483 C 0.90519 0.41104 0.90036 0.0
C1484 C 0.93397 0.47945 0.88527 0.0
C1485 C 0.90434 0.48412 0.89699 0.0
C1486 C 0.87399 0.45109 0.90936 0.0
C1487 C 0.87421 0.41489 0.91084 0.0
H1488 H 0.14839 0.31451 0.31029 0.0
H1489 H 0.2367 0.43851 0.31935 0.0
H1490 H 0.16063 0.31966 0.26711 0.0
H1491 H 0.25033 0.44367 0.27579 0.0
H1492 H 0.28671 0.41215 0.20038 0.0
H1493 H 0.27668 0.41537 0.24348 0.0
H1494 H 0.14922 0.35462 0.23226 0.0
H1495 H 0.15925 0.35123 0.18905 0.0
C1496 C 0.17043 0.34295 0.30293 0.0
C1497 C 0.19106 0.37625 0.318 0.0
C1498 C 0.17745 0.34594 0.2782 0.0
C1499 C 0.20582 0.38229 0.2679 0.0
C1500 C 0.22807 0.4153 0.28318 0.0
C1501 C 0.22056 0.41236 0.30807 0.0
C1502 C 0.25653 0.40021 0.20704 0.0
C1503 C 0.22372 0.38141 0.19125 0.0
C1504 C 0.25085 0.40216 0.23176 0.0
C1505 C 0.21218 0.38495 0.24135 0.0
C1506 C 0.17941 0.36778 0.22543 0.0
C1507 C 0.18513 0.36624 0.20063 0.0
H1508 H 0.82548 0.20913 0.69107 0.0
H1509 H 0.93762 0.2141 0.70483 0.0
H1510 H 0.81359 0.20814 0.73406 0.0
H1511 H 0.92526 0.2113 0.74796 0.0
H1512 H 0.90734 0.22964 0.82573 0.0
H1513 H 0.92136 0.24301 0.78282 0.0
H1514 H 0.79564 0.16777 0.76728 0.0
H1515 H 0.78178 0.15698 0.80977 0.0
C1516 C 0.84715 0.20905 0.70332 0.0
C1517 C 0.88203 0.21083 0.69455 0.0
C1518 C 0.84049 0.20864 0.72808 0.0
C1519 C 0.86828 0.20937 0.7448 0.0
C1520 C 0.90338 0.21141 0.73587 0.0
C1521 C 0.91033 0.21255 0.71108 0.0
C1522 C 0.88269 0.2171 0.81313 0.0
C1523 C 0.84351 0.19202 0.82119 0.0
C1524 C 0.89073 0.22412 0.78844 0.0
C1525 C 0.85978 0.20601 0.77127 0.0
C1526 C 0.8204 0.18276 0.77965 0.0
C1527 C 0.81241 0.17625 0.80419 0.0
H1528 H 0.61749 0.80732 0.18869 0.0
H1529 H 0.73629 0.90469 0.20185 0.0
H1530 H 0.60775 0.79499 0.23225 0.0
H1531 H 0.72682 0.8933 0.24495 0.0
H1532 H 0.68943 0.89018 0.32131 0.0
H1533 H 0.68893 0.90021 0.27798 0.0
H1534 H 0.63198 0.77286 0.26662 0.0
H1535 H 0.63162 0.76286 0.30987 0.0
C1536 C 0.64152 0.82588 0.20091 0.0
C1537 C 0.67733 0.85752 0.19206 0.0
C1538 C 0.63597 0.81903 0.22581 0.0
C1539 C 0.66617 0.84381 0.2422 0.0
C1540 C 0.7024 0.8745 0.23302 0.0
C1541 C 0.7079 0.8811 0.2083 0.0
C1542 C 0.67571 0.8643 0.30965 0.0
C1543 C 0.6607 0.82578 0.31907 0.0
C1544 C 0.67592 0.87002 0.28475 0.0
C1545 C 0.66095 0.83735 0.26873 0.0
C1546 C 0.64357 0.79868 0.27834 0.0
C1547 C 0.64348 0.79299 0.30318 0.0
H1548 H 0.88332 0.72812 0.69457 0.0
H1549 H 0.8206 0.59996 0.6882 0.0
H1550 H 0.88824 0.72281 0.73809 0.0
H1551 H 0.82685 0.59442 0.73195 0.0
H1552 H 0.89331 0.61937 0.80895 0.0
H1553 H 0.8852 0.61785 0.76523 0.0
H1554 H 0.83232 0.69283 0.77185 0.0
H1555 H 0.83975 0.6938 0.81564 0.0
C1556 C 0.87152 0.69882 0.70249 0.0
C1557 C 0.85202 0.66448 0.68809 0.0
C1558 C 0.87396 0.69575 0.72739 0.0
C1559 C 0.85749 0.6582 0.73845 0.0
C1560 C 0.83978 0.62375 0.72388 0.0
C1561 C 0.83658 0.62686 0.6989 0.0
C1562 C 0.87903 0.63471 0.80111 0.0
C1563 C 0.86685 0.65645 0.81578 0.0
C1564 C 0.87449 0.63387 0.77609 0.0
C1565 C 0.85841 0.65543 0.76513 0.0
C1566 C 0.84505 0.67613 0.77983 0.0
C1567 C 0.84887 0.67632 0.80491 0.0
H1568 H 0.16889 0.76661 0.19899 0.0
H1569 H 0.24049 0.89282 0.18473 0.0
H1570 H 0.18025 0.77935 0.24189 0.0
H1571 H 0.25311 0.90559 0.2278 0.0
H1572 H 0.21527 0.91728 0.304 0.0
H1573 H 0.21227 0.90362 0.26117 0.0
H1574 H 0.22566 0.80115 0.27583 0.0
H1575 H 0.22902 0.81559 0.31915 0.0
C1576 C 0.18793 0.79709 0.20499 0.0
C1577 C 0.20348 0.82878 0.1884 0.0
C1578 C 0.1946 0.80435 0.22967 0.0
C1579 C 0.21714 0.84354 0.23845 0.0
C1580 C 0.2349 0.87505 0.22171 0.0
C1581 C 0.22818 0.86774 0.19696 0.0
C1582 C 0.21835 0.89233 0.29804 0.0
C1583 C 0.22339 0.86813 0.31479 0.0
C1584 C 0.21661 0.88441 0.27345 0.0
C1585 C 0.21962 0.85178 0.26486 0.0
C1586 C 0.22336 0.82662 0.28176 0.0
C1587 C 0.22515 0.83471 0.30654 0.0
H1588 H 0.32151 0.17534 0.81067 0.0
H1589 H 0.44846 0.22502 0.8186 0.0
H1590 H 0.32723 0.16968 0.76731 0.0
H1591 H 0.4543 0.21806 0.77491 0.0
H1592 H 0.42746 0.15332 0.69789 0.0
H1593 H 0.42874 0.16219 0.74151 0.0
H1594 H 0.36044 0.2221 0.73367 0.0
H1595 H 0.35929 0.21344 0.69004 0.0
C1596 C 0.3506 0.1845 0.80308 0.0
C1597 C 0.38453 0.20067 0.81785 0.0
C1598 C 0.35393 0.18149 0.77827 0.0
C1599 C 0.39129 0.19405 0.76765 0.0
C1600 C 0.42512 0.20826 0.78261 0.0
C1601 C 0.42181 0.21192 0.80756 0.0
C1602 C 0.41344 0.16915 0.70544 0.0
C1603 C 0.39341 0.18287 0.69047 0.0
C1604 C 0.41421 0.17422 0.73042 0.0
C1605 C 0.39445 0.19255 0.74102 0.0
C1606 C 0.37566 0.20754 0.726 0.0
C1607 C 0.37539 0.20301 0.70098 0.0
H1608 H 0.31141 0.18956 0.97466 0.0
H1609 H 0.31009 0.28609 0.93645 0.0
H1610 H 0.28441 0.20572 0.01027 0.0
H1611 H 0.28251 0.30109 0.97127 0.0
H1612 H 0.20643 0.30255 0.03399 0.0
H1613 H 0.22248 0.27569 0.99828 0.0
H1614 H 0.31104 0.26397 0.03898 0.0
H1615 H 0.29611 0.2913 0.07398 0.0
C1616 C 0.30542 0.21403 0.97373 0.0
C1617 C 0.31386 0.23681 0.95263 0.0
C1618 C 0.28971 0.22321 0.9941 0.0
C1619 C 0.28113 0.25474 0.99365 0.0
C1620 C 0.28818 0.27635 0.97228 0.0
C1621 C 0.30446 0.26776 0.95224 0.0
C1622 C 0.22935 0.2944 0.0353 0.0
C1623 C 0.25033 0.30008 0.05694 0.0
C1624 C 0.23848 0.27878 0.01485 0.0
C1625 C 0.26811 0.26755 0.01573 0.0
C1626 C 0.28779 0.27176 0.03761 0.0
C1627 C 0.27928 0.28793 0.05775 0.0
H1628 H 0.05073 0.25647 0.43714 0.0
H1629 H 0.12663 0.363 0.4776 0.0
H1630 H 1.00045 0.23398 0.46876 0.0
H1631 H 0.07704 0.34002 0.50994 0.0
H1632 H 0.96586 0.31556 0.55007 0.0
H1633 H 1.01331 0.33364 0.51711 0.0
H1634 H 0.98008 0.20974 0.50865 0.0
H1635 H 0.93205 0.19189 0.54144 0.0
C1636 C 0.05722 0.27445 0.45326 0.0
C1637 C 0.09299 0.31117 0.45504 0.0
C1638 C 1.02826 0.2616 0.47143 0.0
C1639 C 0.03406 0.2853 0.49194 0.0
C1640 C 0.07092 0.32122 0.49425 0.0
C1641 C 0.09991 0.33408 0.47596 0.0
C1642 C 0.96735 0.29196 0.54039 0.0
C1643 C 0.94402 0.25207 0.54788 0.0
C1644 C 0.99542 0.30244 0.52186 0.0
C1645 C 1.00143 0.27337 0.51033 0.0
C1646 C 0.97635 0.23308 0.51688 0.0
C1647 C 0.9481 0.22259 0.53546 0.0
H1648 H 0.68916 0.91217 0.03399 0.0
H1649 H 0.80602 0.97569 0.06595 0.0
H1650 H 0.71275 0.95725 0.9997 0.0
H1651 H 0.83074 0.02037 0.03117 0.0
H1652 H 0.84793 0.12106 0.97819 0.0
H1653 H 0.82937 0.07449 0.01202 0.0
H1654 H 0.75061 0.97756 0.96522 0.0
H1655 H 0.76698 0.02362 0.93254 0.0
C1656 C 0.72043 0.93481 0.0331 0.0
C1657 C 0.74608 0.93953 0.05217 0.0
C1658 C 0.73413 0.96102 0.01347 0.0
C1659 C 0.77398 0.99284 0.01234 0.0
C1660 C 0.79986 0.99673 0.03132 0.0
C1661 C 0.78597 0.9706 0.05105 0.0
C1662 C 0.82643 0.08993 0.97526 0.0
C1663 C 0.80834 0.07673 0.9526 0.0
C1664 C 0.81599 0.06293 0.99463 0.0
C1665 C 0.7877 0.02192 0.9917 0.0
C1666 C 0.77134 1.00881 0.9687 0.0
C1667 C 0.78116 0.0356 0.94969 0.0
H1668 H 0.8628 0.74965 0.53485 0.0
H1669 H 0.75126 0.72186 0.5687 0.0
H1670 H 0.84579 0.77884 0.5008 0.0
H1671 H 0.73446 0.75004 0.53519 0.0
H1672 H 0.72111 0.82711 0.47966 0.0
H1673 H 0.7478 0.80954 0.51457 0.0
H1674 H 0.80109 0.76035 0.46733 0.0
H1675 H 0.77563 0.77866 0.43303 0.0
C1676 C 0.8347 0.74948 0.53506 0.0
C1677 C 0.80854 0.73304 0.55467 0.0
C1678 C 0.82487 0.76631 0.51553 0.0
C1679 C 0.78872 0.7673 0.51517 0.0
C1680 C 0.76289 0.75089 0.53485 0.0
C1681 C 0.77255 0.73414 0.55413 0.0
C1682 C 0.73898 0.81317 0.47671 0.0
C1683 C 0.74535 0.80384 0.45329 0.0
C1684 C 0.75413 0.80269 0.49678 0.0
C1685 C 0.77642 0.78293 0.49397 0.0
C1686 C 0.78441 0.7756 0.47048 0.0
C1687 C 0.76915 0.7858 0.45061 0.0
H1688 H 1.01507 0.78013 0.93301 0.0
H1689 H 0.91562 0.70186 0.97773 0.0
H1690 H 0.05862 0.80334 0.96783 0.0
H1691 H 0.95867 0.72686 0.01318 0.0
H1692 H 0.05342 0.73364 0.06422 0.0
H1693 H 1.00918 0.71839 0.03043 0.0
H1694 H 0.08145 0.83894 0.00438 0.0
H1695 H 0.12717 0.85413 0.03854 0.0
C1696 C 1.00224 0.76824 0.95039 0.0
C1697 C 0.96176 0.73859 0.95239 0.0
C1698 C 1.02731 0.78204 0.97055 0.0
C1699 C 1.01274 0.76673 0.99355 0.0
C1700 C 0.97149 0.73884 0.99577 0.0
C1701 C 0.94638 0.72489 0.97545 0.0
C1702 C 0.06027 0.75721 0.0514 0.0
C1703 C 0.0942 0.79533 0.05436 0.0
C1704 C 0.03427 0.74842 0.03197 0.0
C1705 C 0.04084 0.77743 0.01463 0.0
C1706 C 0.0752 0.81559 0.01725 0.0
C1707 C 0.10159 0.82441 0.03685 0.0
H1708 H 0.23181 1.00035 0.43655 0.0
H1709 H 0.24162 0.91168 0.47801 0.0
H1710 H 0.2549 0.04584 0.47088 0.0
H1711 H 0.26353 0.95656 0.51286 0.0
H1712 H 0.35786 0.06261 0.55462 0.0
H1713 H 0.32514 1.01625 0.52192 0.0
H1714 H 0.24664 0.06447 0.51165 0.0
H1715 H 0.28013 0.11171 0.54498 0.0
C1716 C 0.23774 0.99012 0.45332 0.0
C1717 C 0.23472 0.95233 0.45459 0.0
C1718 C 0.25094 1.01624 0.47307 0.0
C1719 C 0.26187 1.0054 0.49466 0.0
C1720 C 0.25619 0.96639 0.4964 0.0
C1721 C 0.24289 0.94022 0.47658 0.0
C1722 C 0.33367 0.06358 0.54546 0.0
C1723 C 0.32144 0.09077 0.55272 0.0
C1724 C 0.31452 0.03651 0.52674 0.0
C1725 C 0.28232 0.03552 0.51442 0.0
C1726 C 0.27115 0.06406 0.5208 0.0
C1727 C 0.2905 0.0914 0.53978 0.0
loop_
_geom_bond_atom_site_label_1
_geom_bond_atom_site_label_2
_geom_bond_distance
_geom_bond_site_symmetry_2
_ccdc_geom_bond_type
Gd0 N31 2.661 . S
Gd0 N37 2.601 . S
Gd0 O44 2.545 . S
Gd0 O45 2.606 . S
Gd0 O47 2.429 . S
Gd0 O48 2.545 . S
Gd0 O49 2.412 . S
Gd0 O51 2.362 . S
Gd0 O52 2.324 . S
Gd0 C59 2.828 . S
Gd1 N10 2.661 . S
Gd1 N14 2.601 . S
Gd1 O45 2.362 . S
Gd1 O46 2.324 . S
Gd1 O50 2.545 . S
Gd1 O51 2.606 . S
Gd1 O53 2.429 . S
Gd1 O54 2.545 . S
Gd1 O55 2.412 . S
Gd1 C68 2.828 . S
C2 C5 1.417 . S
C2 C7 1.431 1_455 S
C2 C8 1.412 . S
C3 C6 1.437 . S
C3 C7 1.317 1_455 S
C3 H22 0.929 1_455 S
C4 C5 1.426 . S
C4 C6 1.413 . S
C4 N14 1.359 . S
C5 C2 1.417 . S
C5 C4 1.426 . S
C5 N10 1.350 . S
C6 C3 1.437 . S
C6 C4 1.413 . S
C6 C16 1.391 . S
C7 C2 1.431 1_655 S
C7 C3 1.317 1_655 S
C7 H18 0.930 . S
C8 C2 1.412 . S
C8 C9 1.355 . S
C8 H20 0.930 1_455 S
C9 C8 1.355 . S
C9 C11 1.402 . S
C9 H21 0.930 . S
N10 Gd1 2.661 . S
N10 C5 1.350 . S
N10 C11 1.307 . S
C11 C9 1.402 . S
C11 N10 1.307 . S
C11 H12 0.930 . S
H12 C11 0.930 . S
C13 N14 1.334 . S
C13 C15 1.394 . S
C13 H17 0.930 . S
N14 Gd1 2.601 . S
N14 C4 1.359 . S
N14 C13 1.334 . S
C15 C13 1.394 . S
C15 C16 1.359 . S
C15 H27 0.930 . S
C16 C6 1.391 . S
C16 C15 1.359 . S
C16 H28 0.929 . S
H17 C13 0.930 . S
H18 C7 0.930 . S
H19 C36 0.930 . S
H20 C8 0.930 1_655 S
H21 C9 0.930 . S
H22 C3 0.929 1_655 S
H23 C41 0.930 . S
H24 C32 0.930 . S
H25 C33 0.930 . S
H26 C57 0.929 . S
H27 C15 0.930 . S
H28 C16 0.929 . S
H29 C58 0.930 . S
H30 C39 0.930 . S
N31 Gd0 2.661 . S
N31 C35 1.350 . S
N31 C36 1.307 . S
C32 H24 0.930 . S
C32 C33 1.355 . S
C32 C34 1.412 . S
C33 H25 0.930 . S
C33 C32 1.355 . S
C33 C36 1.402 . S
C34 C32 1.412 . S
C34 C35 1.417 . S
C34 C58 1.431 . S
C35 N31 1.350 . S
C35 C34 1.417 . S
C35 C38 1.426 . S
C36 H19 0.930 . S
C36 N31 1.307 . S
C36 C33 1.402 . S
N37 Gd0 2.601 . S
N37 C38 1.359 . S
N37 C41 1.334 . S
C38 C35 1.426 . S
C38 N37 1.359 . S
C38 C42 1.413 . S
C39 H30 0.930 . S
C39 C40 1.359 . S
C39 C41 1.394 . S
C40 C39 1.359 . S
C40 C42 1.391 . S
C40 H43 0.929 . S
C41 H23 0.930 . S
C41 N37 1.334 . S
C41 C39 1.394 . S
C42 C38 1.413 . S
C42 C40 1.391 . S
C42 C57 1.437 . S
H43 C40 0.929 . S
O44 Gd0 2.545 . S
O44 C59 1.258 . S
O45 Gd0 2.606 . S
O45 Gd1 2.362 . S
O45 C56 1.284 . S
O46 Gd1 2.324 . S
O46 C66 1.254 . S
O47 Gd0 2.429 . S
O47 C66 1.268 . S
O48 Gd0 2.545 . S
O48 C56 1.250 . S
O49 Gd0 2.412 . S
O49 C59 1.252 . S
O50 Gd1 2.545 . S
O50 C68 1.258 . S
O51 Gd0 2.362 . S
O51 Gd1 2.606 . S
O51 C67 1.284 . S
O52 Gd0 2.324 . S
O52 C75 1.254 . S
O53 Gd1 2.429 . S
O53 C75 1.268 . S
O54 Gd1 2.545 . S
O54 C67 1.250 . S
O55 Gd1 2.412 . S
O55 C68 1.252 . S
C56 O45 1.284 . S
C56 O48 1.250 . S
C57 H26 0.929 . S
C57 C42 1.437 . S
C57 C58 1.317 . S
C58 H29 0.930 . S
C58 C34 1.431 . S
C58 C57 1.317 . S
C59 Gd0 2.828 . S
C59 O44 1.258 . S
C59 O49 1.252 . S
C59 C60 1.497 . S
C60 C59 1.497 . S
C60 C61 1.395 . S
C60 C62 1.380 . S
C61 C60 1.395 . S
C61 C64 1.398 . S
C61 H76 0.930 . S
C62 C60 1.380 . S
C62 C63 1.391 . S
C62 H77 0.930 . S
C63 C62 1.391 . S
C63 C65 1.387 . S
C64 C61 1.398 . S
C64 C65 1.380 . S
C64 H78 0.930 . S
C65 C63 1.387 . S
C65 C64 1.380 . S
C65 H79 0.930 . S
C66 O46 1.254 . S
C66 O47 1.268 . S
C67 O51 1.284 . S
C67 O54 1.250 . S
C68 Gd1 2.828 . S
C68 O50 1.258 . S
C68 O55 1.252 . S
C68 C69 1.497 . S
C69 C68 1.497 . S
C69 C70 1.395 . S
C69 C71 1.380 . S
C70 C69 1.395 . S
C70 C73 1.398 . S
C70 H80 0.930 . S
C71 C69 1.380 . S
C71 C72 1.391 . S
C71 H81 0.930 . S
C72 C71 1.391 . S
C72 C74 1.387 . S
C73 C70 1.398 . S
C73 C74 1.380 . S
C73 H82 0.930 . S
C74 C72 1.387 . S
C74 C73 1.380 . S
C74 H83 0.930 . S
C75 O52 1.254 . S
C75 O53 1.268 . S
H76 C61 0.930 . S
H77 C62 0.930 . S
H78 C64 0.930 . S
H79 C65 0.930 . S
H80 C70 0.930 . S
H81 C71 0.930 . S
H82 C73 0.930 . S
H83 C74 0.930 . S
Gd84 N115 2.661 . S
Gd84 N121 2.601 . S
Gd84 O128 2.545 . S
Gd84 O129 2.606 . S
Gd84 O131 2.429 . S
Gd84 O132 2.545 . S
Gd84 O133 2.412 . S
Gd84 O135 2.362 . S
Gd84 O136 2.324 . S
Gd84 C143 2.828 . S
Gd85 N94 2.661 . S
Gd85 N98 2.601 . S
Gd85 O129 2.362 . S
Gd85 O130 2.324 . S
Gd85 O134 2.545 . S
Gd85 O135 2.606 . S
Gd85 O137 2.429 . S
Gd85 O138 2.545 . S
Gd85 O139 2.412 . S
Gd85 C152 2.828 . S
C86 C89 1.417 . S
C86 C91 1.431 1_545 S
C86 C92 1.412 . S
C87 C90 1.437 . S
C87 C91 1.317 1_545 S
C87 H106 0.929 1_545 S
C88 C89 1.426 . S
C88 C90 1.413 . S
C88 N98 1.359 . S
C89 C86 1.417 . S
C89 C88 1.426 . S
C89 N94 1.350 . S
C90 C87 1.437 . S
C90 C88 1.413 . S
C90 C100 1.391 . S
C91 C86 1.431 1_565 S
C91 C87 1.317 1_565 S
C91 H102 0.930 . S
C92 C86 1.412 . S
C92 C93 1.355 . S
C92 H104 0.930 1_545 S
C93 C92 1.355 . S
C93 C95 1.402 . S
C93 H105 0.930 . S
N94 Gd85 2.661 . S
N94 C89 1.350 . S
N94 C95 1.307 . S
C95 C93 1.402 . S
C95 N94 1.307 . S
C95 H96 0.930 . S
H96 C95 0.930 . S
C97 N98 1.334 . S
C97 C99 1.394 . S
C97 H101 0.930 . S
N98 Gd85 2.601 . S
N98 C88 1.359 . S
N98 C97 1.334 . S
C99 C97 1.394 . S
C99 C100 1.359 . S
C99 H111 0.930 . S
C100 C90 1.391 . S
C100 C99 1.359 . S
C100 H112 0.929 . S
H101 C97 0.930 . S
H102 C91 0.930 . S
H103 C120 0.930 . S
H104 C92 0.930 1_565 S
H105 C93 0.930 . S
H106 C87 0.929 1_565 S
H107 C125 0.930 . S
H108 C116 0.930 . S
H109 C117 0.930 . S
H110 C141 0.929 1_455 S
H111 C99 0.930 . S
H112 C100 0.929 . S
H113 C142 0.930 1_455 S
H114 C123 0.930 . S
N115 Gd84 2.661 . S
N115 C119 1.350 . S
N115 C120 1.307 . S
C116 H108 0.930 . S
C116 C117 1.355 . S
C116 C118 1.412 . S
C117 H109 0.930 . S
C117 C116 1.355 . S
C117 C120 1.402 . S
C118 C116 1.412 . S
C118 C119 1.417 . S
C118 C142 1.431 . S
C119 N115 1.350 . S
C119 C118 1.417 . S
C119 C122 1.426 . S
C120 H103 0.930 . S
C120 N115 1.307 . S
C120 C117 1.402 . S
N121 Gd84 2.601 . S
N121 C122 1.359 . S
N121 C125 1.334 . S
C122 C119 1.426 . S
C122 N121 1.359 . S
C122 C126 1.413 . S
C123 H114 0.930 . S
C123 C124 1.359 . S
C123 C125 1.394 . S
C124 C123 1.359 . S
C124 C126 1.391 . S
C124 H127 0.929 . S
C125 H107 0.930 . S
C125 N121 1.334 . S
C125 C123 1.394 . S
C126 C122 1.413 . S
C126 C124 1.391 . S
C126 C141 1.437 . S
H127 C124 0.929 . S
O128 Gd84 2.545 . S
O128 C143 1.258 . S
O129 Gd84 2.606 . S
O129 Gd85 2.362 . S
O129 C140 1.284 . S
O130 Gd85 2.324 . S
O130 C150 1.254 . S
O131 Gd84 2.429 . S
O131 C150 1.268 . S
O132 Gd84 2.545 . S
O132 C140 1.250 . S
O133 Gd84 2.412 . S
O133 C143 1.252 . S
O134 Gd85 2.545 . S
O134 C152 1.258 . S
O135 Gd84 2.362 . S
O135 Gd85 2.606 . S
O135 C151 1.284 . S
O136 Gd84 2.324 . S
O136 C159 1.254 . S
O137 Gd85 2.429 . S
O137 C159 1.268 . S
O138 Gd85 2.545 . S
O138 C151 1.250 . S
O139 Gd85 2.412 . S
O139 C152 1.252 . S
C140 O129 1.284 . S
C140 O132 1.250 . S
C141 H110 0.929 1_655 S
C141 C126 1.437 . S
C141 C142 1.317 . S
C142 H113 0.930 1_655 S
C142 C118 1.431 . S
C142 C141 1.317 . S
C143 Gd84 2.828 . S
C143 O128 1.258 . S
C143 O133 1.252 . S
C143 C144 1.497 1_655 S
C144 C143 1.497 1_455 S
C144 C145 1.395 . S
C144 C146 1.380 . S
C145 C144 1.395 . S
C145 C148 1.398 . S
C145 H160 0.930 . S
C146 C144 1.380 . S
C146 C147 1.391 . S
C146 H161 0.930 . S
C147 C146 1.391 . S
C147 C149 1.387 . S
C148 C145 1.398 . S
C148 C149 1.380 . S
C148 H162 0.930 . S
C149 C147 1.387 . S
C149 C148 1.380 . S
C149 H163 0.930 . S
C150 O130 1.254 . S
C150 O131 1.268 . S
C151 O135 1.284 . S
C151 O138 1.250 . S
C152 Gd85 2.828 . S
C152 O134 1.258 . S
C152 O139 1.252 . S
C152 C153 1.497 . S
C153 C152 1.497 . S
C153 C154 1.395 . S
C153 C155 1.380 . S
C154 C153 1.395 . S
C154 C157 1.398 . S
C154 H164 0.930 . S
C155 C153 1.380 . S
C155 C156 1.391 . S
C155 H165 0.930 . S
C156 C155 1.391 . S
C156 C158 1.387 . S
C157 C154 1.398 . S
C157 C158 1.380 . S
C157 H166 0.930 . S
C158 C156 1.387 . S
C158 C157 1.380 . S
C158 H167 0.930 . S
C159 O136 1.254 . S
C159 O137 1.268 . S
H160 C145 0.930 . S
H161 C146 0.930 . S
H162 C148 0.930 . S
H163 C149 0.930 . S
H164 C154 0.930 . S
H165 C155 0.930 . S
H166 C157 0.930 . S
H167 C158 0.930 . S
Gd168 N199 2.661 . S
Gd168 N205 2.601 . S
Gd168 O212 2.545 . S
Gd168 O213 2.606 . S
Gd168 O215 2.429 . S
Gd168 O216 2.545 . S
Gd168 O217 2.412 . S
Gd168 O219 2.362 . S
Gd168 O220 2.324 . S
Gd168 C227 2.828 . S
Gd169 N178 2.661 . S
Gd169 N182 2.601 . S
Gd169 O213 2.362 . S
Gd169 O214 2.324 . S
Gd169 O218 2.545 . S
Gd169 O219 2.606 . S
Gd169 O221 2.429 . S
Gd169 O222 2.545 . S
Gd169 O223 2.412 . S
Gd169 C236 2.828 . S
C170 C173 1.417 . S
C170 C175 1.431 . S
C170 C176 1.412 . S
C171 C174 1.437 . S
C171 C175 1.317 . S
C171 H190 0.929 . S
C172 C173 1.426 . S
C172 C174 1.413 . S
C172 N182 1.359 . S
C173 C170 1.417 . S
C173 C172 1.426 . S
C173 N178 1.350 . S
C174 C171 1.437 . S
C174 C172 1.413 . S
C174 C184 1.391 . S
C175 C170 1.431 . S
C175 C171 1.317 . S
C175 H186 0.930 . S
C176 C170 1.412 . S
C176 C177 1.355 . S
C176 H188 0.930 . S
C177 C176 1.355 . S
C177 C179 1.402 . S
C177 H189 0.930 . S
N178 Gd169 2.661 . S
N178 C173 1.350 . S
N178 C179 1.307 . S
C179 C177 1.402 . S
C179 N178 1.307 . S
C179 H180 0.930 . S
H180 C179 0.930 . S
C181 N182 1.334 . S
C181 C183 1.394 . S
C181 H185 0.930 . S
N182 Gd169 2.601 . S
N182 C172 1.359 . S
N182 C181 1.334 . S
C183 C181 1.394 . S
C183 C184 1.359 . S
C183 H195 0.930 . S
C184 C174 1.391 . S
C184 C183 1.359 . S
C184 H196 0.929 . S
H185 C181 0.930 . S
H186 C175 0.930 . S
H187 C204 0.930 . S
H188 C176 0.930 . S
H189 C177 0.930 . S
H190 C171 0.929 . S
H191 C209 0.930 . S
H192 C200 0.930 . S
H193 C201 0.930 . S
H194 C225 0.929 1_545 S
H195 C183 0.930 . S
H196 C184 0.929 . S
H197 C226 0.930 1_545 S
H198 C207 0.930 . S
N199 Gd168 2.661 . S
N199 C203 1.350 . S
N199 C204 1.307 . S
C200 H192 0.930 . S
C200 C201 1.355 . S
C200 C202 1.412 . S
C201 H193 0.930 . S
C201 C200 1.355 . S
C201 C204 1.402 . S
C202 C200 1.412 . S
C202 C203 1.417 . S
C202 C226 1.431 . S
C203 N199 1.350 . S
C203 C202 1.417 . S
C203 C206 1.426 . S
C204 H187 0.930 . S
C204 N199 1.307 . S
C204 C201 1.402 . S
N205 Gd168 2.601 . S
N205 C206 1.359 . S
N205 C209 1.334 . S
C206 C203 1.426 . S
C206 N205 1.359 . S
C206 C210 1.413 . S
C207 H198 0.930 . S
C207 C208 1.359 . S
C207 C209 1.394 . S
C208 C207 1.359 . S
C208 C210 1.391 . S
C208 H211 0.929 . S
C209 H191 0.930 . S
C209 N205 1.334 . S
C209 C207 1.394 . S
C210 C206 1.413 . S
C210 C208 1.391 . S
C210 C225 1.437 . S
H211 C208 0.929 . S
O212 Gd168 2.545 . S
O212 C227 1.258 . S
O213 Gd168 2.606 . S
O213 Gd169 2.362 . S
O213 C224 1.284 . S
O214 Gd169 2.324 . S
O214 C234 1.254 . S
O215 Gd168 2.429 . S
O215 C234 1.268 . S
O216 Gd168 2.545 . S
O216 C224 1.250 . S
O217 Gd168 2.412 . S
O217 C227 1.252 . S
O218 Gd169 2.545 . S
O218 C236 1.258 . S
O219 Gd168 2.362 . S
O219 Gd169 2.606 . S
O219 C235 1.284 . S
O220 Gd168 2.324 . S
O220 C243 1.254 . S
O221 Gd169 2.429 . S
O221 C243 1.268 . S
O222 Gd169 2.545 . S
O222 C235 1.250 . S
O223 Gd169 2.412 . S
O223 C236 1.252 . S
C224 O213 1.284 . S
C224 O216 1.250 . S
C225 H194 0.929 1_565 S
C225 C210 1.437 . S
C225 C226 1.317 . S
C226 H197 0.930 1_565 S
C226 C202 1.431 . S
C226 C225 1.317 . S
C227 Gd168 2.828 . S
C227 O212 1.258 . S
C227 O217 1.252 . S
C227 C228 1.497 1_565 S
C228 C227 1.497 1_545 S
C228 C229 1.395 . S
C228 C230 1.380 . S
C229 C228 1.395 . S
C229 C232 1.398 . S
C229 H244 0.930 . S
C230 C228 1.380 . S
C230 C231 1.391 . S
C230 H245 0.930 . S
C231 C230 1.391 . S
C231 C233 1.387 . S
C232 C229 1.398 . S
C232 C233 1.380 . S
C232 H246 0.930 . S
C233 C231 1.387 . S
C233 C232 1.380 . S
C233 H247 0.930 . S
C234 O214 1.254 . S
C234 O215 1.268 . S
C235 O219 1.284 . S
C235 O222 1.250 . S
C236 Gd169 2.828 . S
C236 O218 1.258 . S
C236 O223 1.252 . S
C236 C237 1.497 . S
C237 C236 1.497 . S
C237 C238 1.395 . S
C237 C239 1.380 . S
C238 C237 1.395 . S
C238 C241 1.398 . S
C238 H248 0.930 . S
C239 C237 1.380 . S
C239 C240 1.391 . S
C239 H249 0.930 . S
C240 C239 1.391 . S
C240 C242 1.387 . S
C241 C238 1.398 . S
C241 C242 1.380 . S
C241 H250 0.930 . S
C242 C240 1.387 . S
C242 C241 1.380 . S
C242 H251 0.930 . S
C243 O220 1.254 . S
C243 O221 1.268 . S
H244 C229 0.930 . S
H245 C230 0.930 . S
H246 C232 0.930 . S
H247 C233 0.930 . S
H248 C238 0.930 . S
H249 C239 0.930 . S
H250 C241 0.930 . S
H251 C242 0.930 . S
Gd252 N283 2.661 . S
Gd252 N289 2.601 . S
Gd252 O296 2.545 . S
Gd252 O297 2.606 . S
Gd252 O299 2.429 . S
Gd252 O300 2.545 . S
Gd252 O301 2.412 . S
Gd252 O303 2.362 . S
Gd252 O304 2.324 . S
Gd252 C311 2.828 . S
Gd253 N262 2.661 . S
Gd253 N266 2.601 . S
Gd253 O297 2.362 . S
Gd253 O298 2.324 . S
Gd253 O302 2.545 . S
Gd253 O303 2.606 . S
Gd253 O305 2.429 . S
Gd253 O306 2.545 . S
Gd253 O307 2.412 . S
Gd253 C320 2.828 . S
C254 C257 1.417 . S
C254 C259 1.431 1_655 S
C254 C260 1.412 . S
C255 C258 1.437 . S
C255 C259 1.317 1_655 S
C255 H274 0.929 1_655 S
C256 C257 1.426 . S
C256 C258 1.413 . S
C256 N266 1.359 . S
C257 C254 1.417 . S
C257 C256 1.426 . S
C257 N262 1.350 . S
C258 C255 1.437 . S
C258 C256 1.413 . S
C258 C268 1.391 . S
C259 C254 1.431 1_455 S
C259 C255 1.317 1_455 S
C259 H270 0.930 . S
C260 C254 1.412 . S
C260 C261 1.355 . S
C260 H272 0.930 1_655 S
C261 C260 1.355 . S
C261 C263 1.402 . S
C261 H273 0.930 . S
N262 Gd253 2.661 . S
N262 C257 1.350 . S
N262 C263 1.307 . S
C263 C261 1.402 . S
C263 N262 1.307 . S
C263 H264 0.930 . S
H264 C263 0.930 . S
C265 N266 1.334 . S
C265 C267 1.394 . S
C265 H269 0.930 . S
N266 Gd253 2.601 . S
N266 C256 1.359 . S
N266 C265 1.334 . S
C267 C265 1.394 . S
C267 C268 1.359 . S
C267 H279 0.930 . S
C268 C258 1.391 . S
C268 C267 1.359 . S
C268 H280 0.929 . S
H269 C265 0.930 . S
H270 C259 0.930 . S
H271 C288 0.930 . S
H272 C260 0.930 1_455 S
H273 C261 0.930 . S
H274 C255 0.929 1_455 S
H275 C293 0.930 . S
H276 C284 0.930 . S
H277 C285 0.930 . S
H278 C309 0.929 . S
H279 C267 0.930 . S
H280 C268 0.929 . S
H281 C310 0.930 . S
H282 C291 0.930 . S
N283 Gd252 2.661 . S
N283 C287 1.350 . S
N283 C288 1.307 . S
C284 H276 0.930 . S
C284 C285 1.355 . S
C284 C286 1.412 . S
C285 H277 0.930 . S
C285 C284 1.355 . S
C285 C288 1.402 . S
C286 C284 1.412 . S
C286 C287 1.417 . S
C286 C310 1.431 . S
C287 N283 1.350 . S
C287 C286 1.417 . S
C287 C290 1.426 . S
C288 H271 0.930 . S
C288 N283 1.307 . S
C288 C285 1.402 . S
N289 Gd252 2.601 . S
N289 C290 1.359 . S
N289 C293 1.334 . S
C290 C287 1.426 . S
C290 N289 1.359 . S
C290 C294 1.413 . S
C291 H282 0.930 . S
C291 C292 1.359 . S
C291 C293 1.394 . S
C292 C291 1.359 . S
C292 C294 1.391 . S
C292 H295 0.929 . S
C293 H275 0.930 . S
C293 N289 1.334 . S
C293 C291 1.394 . S
C294 C290 1.413 . S
C294 C292 1.391 . S
C294 C309 1.437 . S
H295 C292 0.929 . S
O296 Gd252 2.545 . S
O296 C311 1.258 . S
O297 Gd252 2.606 . S
O297 Gd253 2.362 . S
O297 C308 1.284 . S
O298 Gd253 2.324 . S
O298 C318 1.254 . S
O299 Gd252 2.429 . S
O299 C318 1.268 . S
O300 Gd252 2.545 . S
O300 C308 1.250 . S
O301 Gd252 2.412 . S
O301 C311 1.252 . S
O302 Gd253 2.545 . S
O302 C320 1.258 . S
O303 Gd252 2.362 . S
O303 Gd253 2.606 . S
O303 C319 1.284 . S
O304 Gd252 2.324 . S
O304 C327 1.254 . S
O305 Gd253 2.429 . S
O305 C327 1.268 . S
O306 Gd253 2.545 . S
O306 C319 1.250 . S
O307 Gd253 2.412 . S
O307 C320 1.252 . S
C308 O297 1.284 . S
C308 O300 1.250 . S
C309 H278 0.929 . S
C309 C294 1.437 . S
C309 C310 1.317 . S
C310 H281 0.930 . S
C310 C286 1.431 . S
C310 C309 1.317 . S
C311 Gd252 2.828 . S
C311 O296 1.258 . S
C311 O301 1.252 . S
C311 C312 1.497 . S
C312 C311 1.497 . S
C312 C313 1.395 . S
C312 C314 1.380 . S
C313 C312 1.395 . S
C313 C316 1.398 . S
C313 H328 0.930 . S
C314 C312 1.380 . S
C314 C315 1.391 . S
C314 H329 0.930 . S
C315 C314 1.391 . S
C315 C317 1.387 . S
C316 C313 1.398 . S
C316 C317 1.380 . S
C316 H330 0.930 . S
C317 C315 1.387 . S
C317 C316 1.380 . S
C317 H331 0.930 . S
C318 O298 1.254 . S
C318 O299 1.268 . S
C319 O303 1.284 . S
C319 O306 1.250 . S
C320 Gd253 2.828 . S
C320 O302 1.258 . S
C320 O307 1.252 . S
C320 C321 1.497 . S
C321 C320 1.497 . S
C321 C322 1.395 . S
C321 C323 1.380 . S
C322 C321 1.395 . S
C322 C325 1.398 . S
C322 H332 0.930 . S
C323 C321 1.380 . S
C323 C324 1.391 . S
C323 H333 0.930 . S
C324 C323 1.391 . S
C324 C326 1.387 . S
C325 C322 1.398 . S
C325 C326 1.380 . S
C325 H334 0.930 . S
C326 C324 1.387 . S
C326 C325 1.380 . S
C326 H335 0.930 . S
C327 O304 1.254 . S
C327 O305 1.268 . S
H328 C313 0.930 . S
H329 C314 0.930 . S
H330 C316 0.930 . S
H331 C317 0.930 . S
H332 C322 0.930 . S
H333 C323 0.930 . S
H334 C325 0.930 . S
H335 C326 0.930 . S
Gd336 N367 2.661 . S
Gd336 N373 2.601 . S
Gd336 O380 2.545 . S
Gd336 O381 2.606 . S
Gd336 O383 2.429 . S
Gd336 O384 2.545 . S
Gd336 O385 2.412 . S
Gd336 O387 2.362 . S
Gd336 O388 2.324 . S
Gd336 C395 2.828 . S
Gd337 N346 2.661 . S
Gd337 N350 2.601 . S
Gd337 O381 2.362 . S
Gd337 O382 2.324 . S
Gd337 O386 2.545 . S
Gd337 O387 2.606 . S
Gd337 O389 2.429 . S
Gd337 O390 2.545 . S
Gd337 O391 2.412 . S
Gd337 C404 2.828 . S
C338 C341 1.417 . S
C338 C343 1.431 1_565 S
C338 C344 1.412 . S
C339 C342 1.437 . S
C339 C343 1.317 1_565 S
C339 H358 0.929 1_565 S
C340 C341 1.426 . S
C340 C342 1.413 . S
C340 N350 1.359 . S
C341 C338 1.417 . S
C341 C340 1.426 . S
C341 N346 1.350 . S
C342 C339 1.437 . S
C342 C340 1.413 . S
C342 C352 1.391 . S
C343 C338 1.431 1_545 S
C343 C339 1.317 1_545 S
C343 H354 0.930 . S
C344 C338 1.412 . S
C344 C345 1.355 . S
C344 H356 0.930 1_565 S
C345 C344 1.355 . S
C345 C347 1.402 . S
C345 H357 0.930 . S
N346 Gd337 2.661 . S
N346 C341 1.350 . S
N346 C347 1.307 . S
C347 C345 1.402 . S
C347 N346 1.307 . S
C347 H348 0.930 . S
H348 C347 0.930 . S
C349 N350 1.334 . S
C349 C351 1.394 . S
C349 H353 0.930 . S
N350 Gd337 2.601 . S
N350 C340 1.359 . S
N350 C349 1.334 . S
C351 C349 1.394 . S
C351 C352 1.359 . S
C351 H363 0.930 . S
C352 C342 1.391 . S
C352 C351 1.359 . S
C352 H364 0.929 . S
H353 C349 0.930 . S
H354 C343 0.930 . S
H355 C372 0.930 . S
H356 C344 0.930 1_545 S
H357 C345 0.930 . S
H358 C339 0.929 1_545 S
H359 C377 0.930 . S
H360 C368 0.930 . S
H361 C369 0.930 . S
H362 C393 0.929 1_655 S
H363 C351 0.930 . S
H364 C352 0.929 . S
H365 C394 0.930 1_655 S
H366 C375 0.930 . S
N367 Gd336 2.661 . S
N367 C371 1.350 . S
N367 C372 1.307 . S
C368 H360 0.930 . S
C368 C369 1.355 . S
C368 C370 1.412 . S
C369 H361 0.930 . S
C369 C368 1.355 . S
C369 C372 1.402 . S
C370 C368 1.412 . S
C370 C371 1.417 . S
C370 C394 1.431 . S
C371 N367 1.350 . S
C371 C370 1.417 . S
C371 C374 1.426 . S
C372 H355 0.930 . S
C372 N367 1.307 . S
C372 C369 1.402 . S
N373 Gd336 2.601 . S
N373 C374 1.359 . S
N373 C377 1.334 . S
C374 C371 1.426 . S
C374 N373 1.359 . S
C374 C378 1.413 . S
C375 H366 0.930 . S
C375 C376 1.359 . S
C375 C377 1.394 . S
C376 C375 1.359 . S
C376 C378 1.391 . S
C376 H379 0.929 . S
C377 H359 0.930 . S
C377 N373 1.334 . S
C377 C375 1.394 . S
C378 C374 1.413 . S
C378 C376 1.391 . S
C378 C393 1.437 . S
H379 C376 0.929 . S
O380 Gd336 2.545 . S
O380 C395 1.258 . S
O381 Gd336 2.606 . S
O381 Gd337 2.362 . S
O381 C392 1.284 . S
O382 Gd337 2.324 . S
O382 C402 1.254 . S
O383 Gd336 2.429 . S
O383 C402 1.268 . S
O384 Gd336 2.545 . S
O384 C392 1.250 . S
O385 Gd336 2.412 . S
O385 C395 1.252 . S
O386 Gd337 2.545 . S
O386 C404 1.258 . S
O387 Gd336 2.362 . S
O387 Gd337 2.606 . S
O387 C403 1.284 . S
O388 Gd336 2.324 . S
O388 C411 1.254 . S
O389 Gd337 2.429 . S
O389 C411 1.268 . S
O390 Gd337 2.545 . S
O390 C403 1.250 . S
O391 Gd337 2.412 . S
O391 C404 1.252 . S
C392 O381 1.284 . S
C392 O384 1.250 . S
C393 H362 0.929 1_455 S
C393 C378 1.437 . S
C393 C394 1.317 . S
C394 H365 0.930 1_455 S
C394 C370 1.431 . S
C394 C393 1.317 . S
C395 Gd336 2.828 . S
C395 O380 1.258 . S
C395 O385 1.252 . S
C395 C396 1.497 1_455 S
C396 C395 1.497 1_655 S
C396 C397 1.395 . S
C396 C398 1.380 . S
C397 C396 1.395 . S
C397 C400 1.398 . S
C397 H412 0.930 . S
C398 C396 1.380 . S
C398 C399 1.391 . S
C398 H413 0.930 . S
C399 C398 1.391 . S
C399 C401 1.387 . S
C400 C397 1.398 . S
C400 C401 1.380 . S
C400 H414 0.930 . S
C401 C399 1.387 . S
C401 C400 1.380 . S
C401 H415 0.930 . S
C402 O382 1.254 . S
C402 O383 1.268 . S
C403 O387 1.284 . S
C403 O390 1.250 . S
C404 Gd337 2.828 . S
C404 O386 1.258 . S
C404 O391 1.252 . S
C404 C405 1.497 . S
C405 C404 1.497 . S
C405 C406 1.395 . S
C405 C407 1.380 . S
C406 C405 1.395 . S
C406 C409 1.398 . S
C406 H416 0.930 . S
C407 C405 1.380 . S
C407 C408 1.391 . S
C407 H417 0.930 . S
C408 C407 1.391 . S
C408 C410 1.387 . S
C409 C406 1.398 . S
C409 C410 1.380 . S
C409 H418 0.930 . S
C410 C408 1.387 . S
C410 C409 1.380 . S
C410 H419 0.930 . S
C411 O388 1.254 . S
C411 O389 1.268 . S
H412 C397 0.930 . S
H413 C398 0.930 . S
H414 C400 0.930 . S
H415 C401 0.930 . S
H416 C406 0.930 . S
H417 C407 0.930 . S
H418 C409 0.930 . S
H419 C410 0.930 . S
Gd420 N451 2.661 . S
Gd420 N457 2.601 . S
Gd420 O464 2.545 . S
Gd420 O465 2.606 . S
Gd420 O467 2.429 . S
Gd420 O468 2.545 . S
Gd420 O469 2.412 . S
Gd420 O471 2.362 . S
Gd420 O472 2.324 . S
Gd420 C479 2.828 . S
Gd421 N430 2.661 . S
Gd421 N434 2.601 . S
Gd421 O465 2.362 . S
Gd421 O466 2.324 . S
Gd421 O470 2.545 . S
Gd421 O471 2.606 . S
Gd421 O473 2.429 . S
Gd421 O474 2.545 . S
Gd421 O475 2.412 . S
Gd421 C488 2.828 . S
C422 C425 1.417 . S
C422 C427 1.431 . S
C422 C428 1.412 . S
C423 C426 1.437 . S
C423 C427 1.317 . S
C423 H442 0.929 . S
C424 C425 1.426 . S
C424 C426 1.413 . S
C424 N434 1.359 . S
C425 C422 1.417 . S
C425 C424 1.426 . S
C425 N430 1.350 . S
C426 C423 1.437 . S
C426 C424 1.413 . S
C426 C436 1.391 . S
C427 C422 1.431 . S
C427 C423 1.317 . S
C427 H438 0.930 . S
C428 C422 1.412 . S
C428 C429 1.355 . S
C428 H440 0.930 . S
C429 C428 1.355 . S
C429 C431 1.402 . S
C429 H441 0.930 . S
N430 Gd421 2.661 . S
N430 C425 1.350 . S
N430 C431 1.307 . S
C431 C429 1.402 . S
C431 N430 1.307 . S
C431 H432 0.930 . S
H432 C431 0.930 . S
C433 N434 1.334 . S
C433 C435 1.394 . S
C433 H437 0.930 . S
N434 Gd421 2.601 . S
N434 C424 1.359 . S
N434 C433 1.334 . S
C435 C433 1.394 . S
C435 C436 1.359 . S
C435 H447 0.930 . S
C436 C426 1.391 . S
C436 C435 1.359 . S
C436 H448 0.929 . S
H437 C433 0.930 . S
H438 C427 0.930 . S
H439 C456 0.930 . S
H440 C428 0.930 . S
H441 C429 0.930 . S
H442 C423 0.929 . S
H443 C461 0.930 . S
H444 C452 0.930 . S
H445 C453 0.930 . S
H446 C477 0.929 1_565 S
H447 C435 0.930 . S
H448 C436 0.929 . S
H449 C478 0.930 1_565 S
H450 C459 0.930 . S
N451 Gd420 2.661 . S
N451 C455 1.350 . S
N451 C456 1.307 . S
C452 H444 0.930 . S
C452 C453 1.355 . S
C452 C454 1.412 . S
C453 H445 0.930 . S
C453 C452 1.355 . S
C453 C456 1.402 . S
C454 C452 1.412 . S
C454 C455 1.417 . S
C454 C478 1.431 . S
C455 N451 1.350 . S
C455 C454 1.417 . S
C455 C458 1.426 . S
C456 H439 0.930 . S
C456 N451 1.307 . S
C456 C453 1.402 . S
N457 Gd420 2.601 . S
N457 C458 1.359 . S
N457 C461 1.334 . S
C458 C455 1.426 . S
C458 N457 1.359 . S
C458 C462 1.413 . S
C459 H450 0.930 . S
C459 C460 1.359 . S
C459 C461 1.394 . S
C460 C459 1.359 . S
C460 C462 1.391 . S
C460 H463 0.929 . S
C461 H443 0.930 . S
C461 N457 1.334 . S
C461 C459 1.394 . S
C462 C458 1.413 . S
C462 C460 1.391 . S
C462 C477 1.437 . S
H463 C460 0.929 . S
O464 Gd420 2.545 . S
O464 C479 1.258 . S
O465 Gd420 2.606 . S
O465 Gd421 2.362 . S
O465 C476 1.284 . S
O466 Gd421 2.324 . S
O466 C486 1.254 . S
O467 Gd420 2.429 . S
O467 C486 1.268 . S
O468 Gd420 2.545 . S
O468 C476 1.250 . S
O469 Gd420 2.412 . S
O469 C479 1.252 . S
O470 Gd421 2.545 . S
O470 C488 1.258 . S
O471 Gd420 2.362 . S
O471 Gd421 2.606 . S
O471 C487 1.284 . S
O472 Gd420 2.324 . S
O472 C495 1.254 . S
O473 Gd421 2.429 . S
O473 C495 1.268 . S
O474 Gd421 2.545 . S
O474 C487 1.250 . S
O475 Gd421 2.412 . S
O475 C488 1.252 . S
C476 O465 1.284 . S
C476 O468 1.250 . S
C477 H446 0.929 1_545 S
C477 C462 1.437 . S
C477 C478 1.317 . S
C478 H449 0.930 1_545 S
C478 C454 1.431 . S
C478 C477 1.317 . S
C479 Gd420 2.828 . S
C479 O464 1.258 . S
C479 O469 1.252 . S
C479 C480 1.497 1_545 S
C480 C479 1.497 1_565 S
C480 C481 1.395 . S
C480 C482 1.380 . S
C481 C480 1.395 . S
C481 C484 1.398 . S
C481 H496 0.930 . S
C482 C480 1.380 . S
C482 C483 1.391 . S
C482 H497 0.930 . S
C483 C482 1.391 . S
C483 C485 1.387 . S
C484 C481 1.398 . S
C484 C485 1.380 . S
C484 H498 0.930 . S
C485 C483 1.387 . S
C485 C484 1.380 . S
C485 H499 0.930 . S
C486 O466 1.254 . S
C486 O467 1.268 . S
C487 O471 1.284 . S
C487 O474 1.250 . S
C488 Gd421 2.828 . S
C488 O470 1.258 . S
C488 O475 1.252 . S
C488 C489 1.497 . S
C489 C488 1.497 . S
C489 C490 1.395 . S
C489 C491 1.380 . S
C490 C489 1.395 . S
C490 C493 1.398 . S
C490 H500 0.930 . S
C491 C489 1.380 . S
C491 C492 1.391 . S
C491 H501 0.930 . S
C492 C491 1.391 . S
C492 C494 1.387 . S
C493 C490 1.398 . S
C493 C494 1.380 . S
C493 H502 0.930 . S
C494 C492 1.387 . S
C494 C493 1.380 . S
C494 H503 0.930 . S
C495 O472 1.254 . S
C495 O473 1.268 . S
H496 C481 0.930 . S
H497 C482 0.930 . S
H498 C484 0.930 . S
H499 C485 0.930 . S
H500 C490 0.930 . S
H501 C491 0.930 . S
H502 C493 0.930 . S
H503 C494 0.930 . S
Gd504 N535 2.661 . S
Gd504 N541 2.601 . S
Gd504 O548 2.545 . S
Gd504 O549 2.606 . S
Gd504 O551 2.429 . S
Gd504 O552 2.545 . S
Gd504 O553 2.412 . S
Gd504 O555 2.362 . S
Gd504 O556 2.324 . S
Gd504 C563 2.828 . S
Gd505 N514 2.661 . S
Gd505 N518 2.601 . S
Gd505 O549 2.362 . S
Gd505 O550 2.324 . S
Gd505 O554 2.545 . S
Gd505 O555 2.606 . S
Gd505 O557 2.429 . S
Gd505 O558 2.545 . S
Gd505 O559 2.412 . S
Gd505 C572 2.828 . S
C506 C509 1.417 . S
C506 C511 1.431 1_565 S
C506 C512 1.412 . S
C507 C510 1.437 . S
C507 C511 1.317 1_565 S
C507 H526 0.929 1_565 S
C508 C509 1.426 . S
C508 C510 1.413 . S
C508 N518 1.359 . S
C509 C506 1.417 . S
C509 C508 1.426 . S
C509 N514 1.350 . S
C510 C507 1.437 . S
C510 C508 1.413 . S
C510 C520 1.391 . S
C511 C506 1.431 1_545 S
C511 C507 1.317 1_545 S
C511 H522 0.930 . S
C512 C506 1.412 . S
C512 C513 1.355 . S
C512 H524 0.930 1_565 S
C513 C512 1.355 . S
C513 C515 1.402 . S
C513 H525 0.930 . S
N514 Gd505 2.661 . S
N514 C509 1.350 . S
N514 C515 1.307 . S
C515 C513 1.402 . S
C515 N514 1.307 . S
C515 H516 0.930 . S
H516 C515 0.930 . S
C517 N518 1.334 . S
C517 C519 1.394 . S
C517 H521 0.930 . S
N518 Gd505 2.601 . S
N518 C508 1.359 . S
N518 C517 1.334 . S
C519 C517 1.394 . S
C519 C520 1.359 . S
C519 H531 0.930 . S
C520 C510 1.391 . S
C520 C519 1.359 . S
C520 H532 0.929 . S
H521 C517 0.930 . S
H522 C511 0.930 . S
H523 C540 0.930 . S
H524 C512 0.930 1_545 S
H525 C513 0.930 . S
H526 C507 0.929 1_545 S
H527 C545 0.930 . S
H528 C536 0.930 . S
H529 C537 0.930 . S
H530 C561 0.929 . S
H531 C519 0.930 . S
H532 C520 0.929 . S
H533 C562 0.930 . S
H534 C543 0.930 . S
N535 Gd504 2.661 . S
N535 C539 1.350 . S
N535 C540 1.307 . S
C536 H528 0.930 . S
C536 C537 1.355 . S
C536 C538 1.412 . S
C537 H529 0.930 . S
C537 C536 1.355 . S
C537 C540 1.402 . S
C538 C536 1.412 . S
C538 C539 1.417 . S
C538 C562 1.431 . S
C539 N535 1.350 . S
C539 C538 1.417 . S
C539 C542 1.426 . S
C540 H523 0.930 . S
C540 N535 1.307 . S
C540 C537 1.402 . S
N541 Gd504 2.601 . S
N541 C542 1.359 . S
N541 C545 1.334 . S
C542 C539 1.426 . S
C542 N541 1.359 . S
C542 C546 1.413 . S
C543 H534 0.930 . S
C543 C544 1.359 . S
C543 C545 1.394 . S
C544 C543 1.359 . S
C544 C546 1.391 . S
C544 H547 0.929 . S
C545 H527 0.930 . S
C545 N541 1.334 . S
C545 C543 1.394 . S
C546 C542 1.413 . S
C546 C544 1.391 . S
C546 C561 1.437 . S
H547 C544 0.929 . S
O548 Gd504 2.545 . S
O548 C563 1.258 . S
O549 Gd504 2.606 . S
O549 Gd505 2.362 . S
O549 C560 1.284 . S
O550 Gd505 2.324 . S
O550 C570 1.254 . S
O551 Gd504 2.429 . S
O551 C570 1.268 . S
O552 Gd504 2.545 . S
O552 C560 1.250 . S
O553 Gd504 2.412 . S
O553 C563 1.252 . S
O554 Gd505 2.545 . S
O554 C572 1.258 . S
O555 Gd504 2.362 . S
O555 Gd505 2.606 . S
O555 C571 1.284 . S
O556 Gd504 2.324 . S
O556 C579 1.254 . S
O557 Gd505 2.429 . S
O557 C579 1.268 . S
O558 Gd505 2.545 . S
O558 C571 1.250 . S
O559 Gd505 2.412 . S
O559 C572 1.252 . S
C560 O549 1.284 . S
C560 O552 1.250 . S
C561 H530 0.929 . S
C561 C546 1.437 . S
C561 C562 1.317 . S
C562 H533 0.930 . S
C562 C538 1.431 . S
C562 C561 1.317 . S
C563 Gd504 2.828 . S
C563 O548 1.258 . S
C563 O553 1.252 . S
C563 C564 1.497 . S
C564 C563 1.497 . S
C564 C565 1.395 . S
C564 C566 1.380 . S
C565 C564 1.395 . S
C565 C568 1.398 . S
C565 H580 0.930 . S
C566 C564 1.380 . S
C566 C567 1.391 . S
C566 H581 0.930 . S
C567 C566 1.391 . S
C567 C569 1.387 . S
C568 C565 1.398 . S
C568 C569 1.380 . S
C568 H582 0.930 . S
C569 C567 1.387 . S
C569 C568 1.380 . S
C569 H583 0.930 . S
C570 O550 1.254 . S
C570 O551 1.268 . S
C571 O555 1.284 . S
C571 O558 1.250 . S
C572 Gd505 2.828 . S
C572 O554 1.258 . S
C572 O559 1.252 . S
C572 C573 1.497 . S
C573 C572 1.497 . S
C573 C574 1.395 . S
C573 C575 1.380 . S
C574 C573 1.395 . S
C574 C577 1.398 . S
C574 H584 0.930 . S
C575 C573 1.380 . S
C575 C576 1.391 . S
C575 H585 0.930 . S
C576 C575 1.391 . S
C576 C578 1.387 . S
C577 C574 1.398 . S
C577 C578 1.380 . S
C577 H586 0.930 . S
C578 C576 1.387 . S
C578 C577 1.380 . S
C578 H587 0.930 . S
C579 O556 1.254 . S
C579 O557 1.268 . S
H580 C565 0.930 . S
H581 C566 0.930 . S
H582 C568 0.930 . S
H583 C569 0.930 . S
H584 C574 0.930 . S
H585 C575 0.930 . S
H586 C577 0.930 . S
H587 C578 0.930 . S
Gd588 N619 2.661 . S
Gd588 N625 2.601 . S
Gd588 O632 2.545 . S
Gd588 O633 2.606 . S
Gd588 O635 2.429 . S
Gd588 O636 2.545 . S
Gd588 O637 2.412 . S
Gd588 O639 2.362 . S
Gd588 O640 2.324 . S
Gd588 C647 2.828 . S
Gd589 N598 2.661 . S
Gd589 N602 2.601 . S
Gd589 O633 2.362 . S
Gd589 O634 2.324 . S
Gd589 O638 2.545 . S
Gd589 O639 2.606 . S
Gd589 O641 2.429 . S
Gd589 O642 2.545 . S
Gd589 O643 2.412 . S
Gd589 C656 2.828 . S
C590 C593 1.417 . S
C590 C595 1.431 . S
C590 C596 1.412 . S
C591 C594 1.437 . S
C591 C595 1.317 . S
C591 H610 0.929 . S
C592 C593 1.426 . S
C592 C594 1.413 . S
C592 N602 1.359 . S
C593 C590 1.417 . S
C593 C592 1.426 . S
C593 N598 1.350 . S
C594 C591 1.437 . S
C594 C592 1.413 . S
C594 C604 1.391 . S
C595 C590 1.431 . S
C595 C591 1.317 . S
C595 H606 0.930 . S
C596 C590 1.412 . S
C596 C597 1.355 . S
C596 H608 0.930 . S
C597 C596 1.355 . S
C597 C599 1.402 . S
C597 H609 0.930 . S
N598 Gd589 2.661 . S
N598 C593 1.350 . S
N598 C599 1.307 . S
C599 C597 1.402 . S
C599 N598 1.307 . S
C599 H600 0.930 . S
H600 C599 0.930 . S
C601 N602 1.334 . S
C601 C603 1.394 . S
C601 H605 0.930 . S
N602 Gd589 2.601 . S
N602 C592 1.359 . S
N602 C601 1.334 . S
C603 C601 1.394 . S
C603 C604 1.359 . S
C603 H615 0.930 . S
C604 C594 1.391 . S
C604 C603 1.359 . S
C604 H616 0.929 . S
H605 C601 0.930 . S
H606 C595 0.930 . S
H607 C624 0.930 . S
H608 C596 0.930 . S
H609 C597 0.930 . S
H610 C591 0.929 . S
H611 C629 0.930 . S
H612 C620 0.930 . S
H613 C621 0.930 . S
H614 C645 0.929 1_455 S
H615 C603 0.930 . S
H616 C604 0.929 . S
H617 C646 0.930 1_455 S
H618 C627 0.930 . S
N619 Gd588 2.661 . S
N619 C623 1.350 . S
N619 C624 1.307 . S
C620 H612 0.930 . S
C620 C621 1.355 . S
C620 C622 1.412 . S
C621 H613 0.930 . S
C621 C620 1.355 . S
C621 C624 1.402 . S
C622 C620 1.412 . S
C622 C623 1.417 . S
C622 C646 1.431 . S
C623 N619 1.350 . S
C623 C622 1.417 . S
C623 C626 1.426 . S
C624 H607 0.930 . S
C624 N619 1.307 . S
C624 C621 1.402 . S
N625 Gd588 2.601 . S
N625 C626 1.359 . S
N625 C629 1.334 . S
C626 C623 1.426 . S
C626 N625 1.359 . S
C626 C630 1.413 . S
C627 H618 0.930 . S
C627 C628 1.359 . S
C627 C629 1.394 . S
C628 C627 1.359 . S
C628 C630 1.391 . S
C628 H631 0.929 . S
C629 H611 0.930 . S
C629 N625 1.334 . S
C629 C627 1.394 . S
C630 C626 1.413 . S
C630 C628 1.391 . S
C630 C645 1.437 . S
H631 C628 0.929 . S
O632 Gd588 2.545 . S
O632 C647 1.258 . S
O633 Gd588 2.606 . S
O633 Gd589 2.362 . S
O633 C644 1.284 . S
O634 Gd589 2.324 . S
O634 C654 1.254 . S
O635 Gd588 2.429 . S
O635 C654 1.268 . S
O636 Gd588 2.545 . S
O636 C644 1.250 . S
O637 Gd588 2.412 . S
O637 C647 1.252 . S
O638 Gd589 2.545 . S
O638 C656 1.258 . S
O639 Gd588 2.362 . S
O639 Gd589 2.606 . S
O639 C655 1.284 . S
O640 Gd588 2.324 . S
O640 C663 1.254 . S
O641 Gd589 2.429 . S
O641 C663 1.268 . S
O642 Gd589 2.545 . S
O642 C655 1.250 . S
O643 Gd589 2.412 . S
O643 C656 1.252 . S
C644 O633 1.284 . S
C644 O636 1.250 . S
C645 H614 0.929 1_655 S
C645 C630 1.437 . S
C645 C646 1.317 . S
C646 H617 0.930 1_655 S
C646 C622 1.431 . S
C646 C645 1.317 . S
C647 Gd588 2.828 . S
C647 O632 1.258 . S
C647 O637 1.252 . S
C647 C648 1.497 1_655 S
C648 C647 1.497 1_455 S
C648 C649 1.395 . S
C648 C650 1.380 . S
C649 C648 1.395 . S
C649 C652 1.398 . S
C649 H664 0.930 . S
C650 C648 1.380 . S
C650 C651 1.391 . S
C650 H665 0.930 . S
C651 C650 1.391 . S
C651 C653 1.387 . S
C652 C649 1.398 . S
C652 C653 1.380 . S
C652 H666 0.930 . S
C653 C651 1.387 . S
C653 C652 1.380 . S
C653 H667 0.930 . S
C654 O634 1.254 . S
C654 O635 1.268 . S
C655 O639 1.284 . S
C655 O642 1.250 . S
C656 Gd589 2.828 . S
C656 O638 1.258 . S
C656 O643 1.252 . S
C656 C657 1.497 . S
C657 C656 1.497 . S
C657 C658 1.395 . S
C657 C659 1.380 . S
C658 C657 1.395 . S
C658 C661 1.398 . S
C658 H668 0.930 . S
C659 C657 1.380 . S
C659 C660 1.391 . S
C659 H669 0.930 . S
C660 C659 1.391 . S
C660 C662 1.387 . S
C661 C658 1.398 . S
C661 C662 1.380 . S
C661 H670 0.930 . S
C662 C660 1.387 . S
C662 C661 1.380 . S
C662 H671 0.930 . S
C663 O640 1.254 . S
C663 O641 1.268 . S
H664 C649 0.930 . S
H665 C650 0.930 . S
H666 C652 0.930 . S
H667 C653 0.930 . S
H668 C658 0.930 . S
H669 C659 0.930 . S
H670 C661 0.930 . S
H671 C662 0.930 . S
Gd672 N703 2.661 . S
Gd672 N709 2.601 . S
Gd672 O716 2.545 . S
Gd672 O717 2.606 . S
Gd672 O719 2.429 . S
Gd672 O720 2.545 . S
Gd672 O721 2.412 . S
Gd672 O723 2.362 . S
Gd672 O724 2.324 . S
Gd672 C731 2.828 . S
Gd673 N682 2.661 . S
Gd673 N686 2.601 . S
Gd673 O717 2.362 . S
Gd673 O718 2.324 . S
Gd673 O722 2.545 . S
Gd673 O723 2.606 . S
Gd673 O725 2.429 . S
Gd673 O726 2.545 . S
Gd673 O727 2.412 . S
Gd673 C740 2.828 . S
C674 C677 1.417 . S
C674 C679 1.431 1_455 S
C674 C680 1.412 . S
C675 C678 1.437 . S
C675 C679 1.317 1_455 S
C675 H694 0.929 1_455 S
C676 C677 1.426 . S
C676 C678 1.413 . S
C676 N686 1.359 . S
C677 C674 1.417 . S
C677 C676 1.426 . S
C677 N682 1.350 . S
C678 C675 1.437 . S
C678 C676 1.413 . S
C678 C688 1.391 . S
C679 C674 1.431 1_655 S
C679 C675 1.317 1_655 S
C679 H690 0.930 . S
C680 C674 1.412 . S
C680 C681 1.355 . S
C680 H692 0.930 1_455 S
C681 C680 1.355 . S
C681 C683 1.402 . S
C681 H693 0.930 . S
N682 Gd673 2.661 . S
N682 C677 1.350 . S
N682 C683 1.307 . S
C683 C681 1.402 . S
C683 N682 1.307 . S
C683 H684 0.930 . S
H684 C683 0.930 . S
C685 N686 1.334 . S
C685 C687 1.394 . S
C685 H689 0.930 . S
N686 Gd673 2.601 . S
N686 C676 1.359 . S
N686 C685 1.334 . S
C687 C685 1.394 . S
C687 C688 1.359 . S
C687 H699 0.930 . S
C688 C678 1.391 . S
C688 C687 1.359 . S
C688 H700 0.929 . S
H689 C685 0.930 . S
H690 C679 0.930 . S
H691 C708 0.930 . S
H692 C680 0.930 1_655 S
H693 C681 0.930 . S
H694 C675 0.929 1_655 S
H695 C713 0.930 . S
H696 C704 0.930 . S
H697 C705 0.930 . S
H698 C729 0.929 1_545 S
H699 C687 0.930 . S
H700 C688 0.929 . S
H701 C730 0.930 1_545 S
H702 C711 0.930 . S
N703 Gd672 2.661 . S
N703 C707 1.350 . S
N703 C708 1.307 . S
C704 H696 0.930 . S
C704 C705 1.355 . S
C704 C706 1.412 . S
C705 H697 0.930 . S
C705 C704 1.355 . S
C705 C708 1.402 . S
C706 C704 1.412 . S
C706 C707 1.417 . S
C706 C730 1.431 . S
C707 N703 1.350 . S
C707 C706 1.417 . S
C707 C710 1.426 . S
C708 H691 0.930 . S
C708 N703 1.307 . S
C708 C705 1.402 . S
N709 Gd672 2.601 . S
N709 C710 1.359 . S
N709 C713 1.334 . S
C710 C707 1.426 . S
C710 N709 1.359 . S
C710 C714 1.413 . S
C711 H702 0.930 . S
C711 C712 1.359 . S
C711 C713 1.394 . S
C712 C711 1.359 . S
C712 C714 1.391 . S
C712 H715 0.929 . S
C713 H695 0.930 . S
C713 N709 1.334 . S
C713 C711 1.394 . S
C714 C710 1.413 . S
C714 C712 1.391 . S
C714 C729 1.437 . S
H715 C712 0.929 . S
O716 Gd672 2.545 . S
O716 C731 1.258 . S
O717 Gd672 2.606 . S
O717 Gd673 2.362 . S
O717 C728 1.284 . S
O718 Gd673 2.324 . S
O718 C738 1.254 . S
O719 Gd672 2.429 . S
O719 C738 1.268 . S
O720 Gd672 2.545 . S
O720 C728 1.250 . S
O721 Gd672 2.412 . S
O721 C731 1.252 . S
O722 Gd673 2.545 . S
O722 C740 1.258 . S
O723 Gd672 2.362 . S
O723 Gd673 2.606 . S
O723 C739 1.284 . S
O724 Gd672 2.324 . S
O724 C747 1.254 . S
O725 Gd673 2.429 . S
O725 C747 1.268 . S
O726 Gd673 2.545 . S
O726 C739 1.250 . S
O727 Gd673 2.412 . S
O727 C740 1.252 . S
C728 O717 1.284 . S
C728 O720 1.250 . S
C729 H698 0.929 1_565 S
C729 C714 1.437 . S
C729 C730 1.317 . S
C730 H701 0.930 1_565 S
C730 C706 1.431 . S
C730 C729 1.317 . S
C731 Gd672 2.828 . S
C731 O716 1.258 . S
C731 O721 1.252 . S
C731 C732 1.497 1_565 S
C732 C731 1.497 1_545 S
C732 C733 1.395 . S
C732 C734 1.380 . S
C733 C732 1.395 . S
C733 C736 1.398 . S
C733 H748 0.930 . S
C734 C732 1.380 . S
C734 C735 1.391 . S
C734 H749 0.930 . S
C735 C734 1.391 . S
C735 C737 1.387 . S
C736 C733 1.398 . S
C736 C737 1.380 . S
C736 H750 0.930 . S
C737 C735 1.387 . S
C737 C736 1.380 . S
C737 H751 0.930 . S
C738 O718 1.254 . S
C738 O719 1.268 . S
C739 O723 1.284 . S
C739 O726 1.250 . S
C740 Gd673 2.828 . S
C740 O722 1.258 . S
C740 O727 1.252 . S
C740 C741 1.497 . S
C741 C740 1.497 . S
C741 C742 1.395 . S
C741 C743 1.380 . S
C742 C741 1.395 . S
C742 C745 1.398 . S
C742 H752 0.930 . S
C743 C741 1.380 . S
C743 C744 1.391 . S
C743 H753 0.930 . S
C744 C743 1.391 . S
C744 C746 1.387 . S
C745 C742 1.398 . S
C745 C746 1.380 . S
C745 H754 0.930 . S
C746 C744 1.387 . S
C746 C745 1.380 . S
C746 H755 0.930 . S
C747 O724 1.254 . S
C747 O725 1.268 . S
H748 C733 0.930 . S
H749 C734 0.930 . S
H750 C736 0.930 . S
H751 C737 0.930 . S
H752 C742 0.930 . S
H753 C743 0.930 . S
H754 C745 0.930 . S
H755 C746 0.930 . S
Gd756 N787 2.661 . S
Gd756 N793 2.601 . S
Gd756 O800 2.545 . S
Gd756 O801 2.606 . S
Gd756 O803 2.429 . S
Gd756 O804 2.545 . S
Gd756 O805 2.412 . S
Gd756 O807 2.362 . S
Gd756 O808 2.324 . S
Gd756 C815 2.828 . S
Gd757 N766 2.661 . S
Gd757 N770 2.601 . S
Gd757 O801 2.362 . S
Gd757 O802 2.324 . S
Gd757 O806 2.545 . S
Gd757 O807 2.606 . S
Gd757 O809 2.429 . S
Gd757 O810 2.545 . S
Gd757 O811 2.412 . S
Gd757 C824 2.828 . S
C758 C761 1.417 . S
C758 C763 1.431 1_545 S
C758 C764 1.412 . S
C759 C762 1.437 . S
C759 C763 1.317 1_545 S
C759 H778 0.929 1_545 S
C760 C761 1.426 . S
C760 C762 1.413 . S
C760 N770 1.359 . S
C761 C758 1.417 . S
C761 C760 1.426 . S
C761 N766 1.350 . S
C762 C759 1.437 . S
C762 C760 1.413 . S
C762 C772 1.391 . S
C763 C758 1.431 1_565 S
C763 C759 1.317 1_565 S
C763 H774 0.930 . S
C764 C758 1.412 . S
C764 C765 1.355 . S
C764 H776 0.930 1_545 S
C765 C764 1.355 . S
C765 C767 1.402 . S
C765 H777 0.930 . S
N766 Gd757 2.661 . S
N766 C761 1.350 . S
N766 C767 1.307 . S
C767 C765 1.402 . S
C767 N766 1.307 . S
C767 H768 0.930 . S
H768 C767 0.930 . S
C769 N770 1.334 . S
C769 C771 1.394 . S
C769 H773 0.930 . S
N770 Gd757 2.601 . S
N770 C760 1.359 . S
N770 C769 1.334 . S
C771 C769 1.394 . S
C771 C772 1.359 . S
C771 H783 0.930 . S
C772 C762 1.391 . S
C772 C771 1.359 . S
C772 H784 0.929 . S
H773 C769 0.930 . S
H774 C763 0.930 . S
H775 C792 0.930 . S
H776 C764 0.930 1_565 S
H777 C765 0.930 . S
H778 C759 0.929 1_565 S
H779 C797 0.930 . S
H780 C788 0.930 . S
H781 C789 0.930 . S
H782 C813 0.929 . S
H783 C771 0.930 . S
H784 C772 0.929 . S
H785 C814 0.930 . S
H786 C795 0.930 . S
N787 Gd756 2.661 . S
N787 C791 1.350 . S
N787 C792 1.307 . S
C788 H780 0.930 . S
C788 C789 1.355 . S
C788 C790 1.412 . S
C789 H781 0.930 . S
C789 C788 1.355 . S
C789 C792 1.402 . S
C790 C788 1.412 . S
C790 C791 1.417 . S
C790 C814 1.431 . S
C791 N787 1.350 . S
C791 C790 1.417 . S
C791 C794 1.426 . S
C792 H775 0.930 . S
C792 N787 1.307 . S
C792 C789 1.402 . S
N793 Gd756 2.601 . S
N793 C794 1.359 . S
N793 C797 1.334 . S
C794 C791 1.426 . S
C794 N793 1.359 . S
C794 C798 1.413 . S
C795 H786 0.930 . S
C795 C796 1.359 . S
C795 C797 1.394 . S
C796 C795 1.359 . S
C796 C798 1.391 . S
C796 H799 0.929 . S
C797 H779 0.930 . S
C797 N793 1.334 . S
C797 C795 1.394 . S
C798 C794 1.413 . S
C798 C796 1.391 . S
C798 C813 1.437 . S
H799 C796 0.929 . S
O800 Gd756 2.545 . S
O800 C815 1.258 . S
O801 Gd756 2.606 . S
O801 Gd757 2.362 . S
O801 C812 1.284 . S
O802 Gd757 2.324 . S
O802 C822 1.254 . S
O803 Gd756 2.429 . S
O803 C822 1.268 . S
O804 Gd756 2.545 . S
O804 C812 1.250 . S
O805 Gd756 2.412 . S
O805 C815 1.252 . S
O806 Gd757 2.545 . S
O806 C824 1.258 . S
O807 Gd756 2.362 . S
O807 Gd757 2.606 . S
O807 C823 1.284 . S
O808 Gd756 2.324 . S
O808 C831 1.254 . S
O809 Gd757 2.429 . S
O809 C831 1.268 . S
O810 Gd757 2.545 . S
O810 C823 1.250 . S
O811 Gd757 2.412 . S
O811 C824 1.252 . S
C812 O801 1.284 . S
C812 O804 1.250 . S
C813 H782 0.929 . S
C813 C798 1.437 . S
C813 C814 1.317 . S
C814 H785 0.930 . S
C814 C790 1.431 . S
C814 C813 1.317 . S
C815 Gd756 2.828 . S
C815 O800 1.258 . S
C815 O805 1.252 . S
C815 C816 1.497 . S
C816 C815 1.497 . S
C816 C817 1.395 . S
C816 C818 1.380 . S
C817 C816 1.395 . S
C817 C820 1.398 . S
C817 H832 0.930 . S
C818 C816 1.380 . S
C818 C819 1.391 . S
C818 H833 0.930 . S
C819 C818 1.391 . S
C819 C821 1.387 . S
C820 C817 1.398 . S
C820 C821 1.380 . S
C820 H834 0.930 . S
C821 C819 1.387 . S
C821 C820 1.380 . S
C821 H835 0.930 . S
C822 O802 1.254 . S
C822 O803 1.268 . S
C823 O807 1.284 . S
C823 O810 1.250 . S
C824 Gd757 2.828 . S
C824 O806 1.258 . S
C824 O811 1.252 . S
C824 C825 1.497 . S
C825 C824 1.497 . S
C825 C826 1.395 . S
C825 C827 1.380 . S
C826 C825 1.395 . S
C826 C829 1.398 . S
C826 H836 0.930 . S
C827 C825 1.380 . S
C827 C828 1.391 . S
C827 H837 0.930 . S
C828 C827 1.391 . S
C828 C830 1.387 . S
C829 C826 1.398 . S
C829 C830 1.380 . S
C829 H838 0.930 . S
C830 C828 1.387 . S
C830 C829 1.380 . S
C830 H839 0.930 . S
C831 O808 1.254 . S
C831 O809 1.268 . S
H832 C817 0.930 . S
H833 C818 0.930 . S
H834 C820 0.930 . S
H835 C821 0.930 . S
H836 C826 0.930 . S
H837 C827 0.930 . S
H838 C829 0.930 . S
H839 C830 0.930 . S
Gd840 N871 2.661 . S
Gd840 N877 2.601 . S
Gd840 O884 2.545 . S
Gd840 O885 2.606 . S
Gd840 O887 2.429 . S
Gd840 O888 2.545 . S
Gd840 O889 2.412 . S
Gd840 O891 2.362 . S
Gd840 O892 2.324 . S
Gd840 C899 2.828 . S
Gd841 N850 2.661 . S
Gd841 N854 2.601 . S
Gd841 O885 2.362 . S
Gd841 O886 2.324 . S
Gd841 O890 2.545 . S
Gd841 O891 2.606 . S
Gd841 O893 2.429 . S
Gd841 O894 2.545 . S
Gd841 O895 2.412 . S
Gd841 C908 2.828 . S
C842 C845 1.417 . S
C842 C847 1.431 . S
C842 C848 1.412 . S
C843 C846 1.437 . S
C843 C847 1.317 . S
C843 H862 0.929 . S
C844 C845 1.426 . S
C844 C846 1.413 . S
C844 N854 1.359 . S
C845 C842 1.417 . S
C845 C844 1.426 . S
C845 N850 1.350 . S
C846 C843 1.437 . S
C846 C844 1.413 . S
C846 C856 1.391 . S
C847 C842 1.431 . S
C847 C843 1.317 . S
C847 H858 0.930 . S
C848 C842 1.412 . S
C848 C849 1.355 . S
C848 H860 0.930 . S
C849 C848 1.355 . S
C849 C851 1.402 . S
C849 H861 0.930 . S
N850 Gd841 2.661 . S
N850 C845 1.350 . S
N850 C851 1.307 . S
C851 C849 1.402 . S
C851 N850 1.307 . S
C851 H852 0.930 . S
H852 C851 0.930 . S
C853 N854 1.334 . S
C853 C855 1.394 . S
C853 H857 0.930 . S
N854 Gd841 2.601 . S
N854 C844 1.359 . S
N854 C853 1.334 . S
C855 C853 1.394 . S
C855 C856 1.359 . S
C855 H867 0.930 . S
C856 C846 1.391 . S
C856 C855 1.359 . S
C856 H868 0.929 . S
H857 C853 0.930 . S
H858 C847 0.930 . S
H859 C876 0.930 . S
H860 C848 0.930 . S
H861 C849 0.930 . S
H862 C843 0.929 . S
H863 C881 0.930 . S
H864 C872 0.930 . S
H865 C873 0.930 . S
H866 C897 0.929 1_655 S
H867 C855 0.930 . S
H868 C856 0.929 . S
H869 C898 0.930 1_655 S
H870 C879 0.930 . S
N871 Gd840 2.661 . S
N871 C875 1.350 . S
N871 C876 1.307 . S
C872 H864 0.930 . S
C872 C873 1.355 . S
C872 C874 1.412 . S
C873 H865 0.930 . S
C873 C872 1.355 . S
C873 C876 1.402 . S
C874 C872 1.412 . S
C874 C875 1.417 . S
C874 C898 1.431 . S
C875 N871 1.350 . S
C875 C874 1.417 . S
C875 C878 1.426 . S
C876 H859 0.930 . S
C876 N871 1.307 . S
C876 C873 1.402 . S
N877 Gd840 2.601 . S
N877 C878 1.359 . S
N877 C881 1.334 . S
C878 C875 1.426 . S
C878 N877 1.359 . S
C878 C882 1.413 . S
C879 H870 0.930 . S
C879 C880 1.359 . S
C879 C881 1.394 . S
C880 C879 1.359 . S
C880 C882 1.391 . S
C880 H883 0.929 . S
C881 H863 0.930 . S
C881 N877 1.334 . S
C881 C879 1.394 . S
C882 C878 1.413 . S
C882 C880 1.391 . S
C882 C897 1.437 . S
H883 C880 0.929 . S
O884 Gd840 2.545 . S
O884 C899 1.258 . S
O885 Gd840 2.606 . S
O885 Gd841 2.362 . S
O885 C896 1.284 . S
O886 Gd841 2.324 . S
O886 C906 1.254 . S
O887 Gd840 2.429 . S
O887 C906 1.268 . S
O888 Gd840 2.545 . S
O888 C896 1.250 . S
O889 Gd840 2.412 . S
O889 C899 1.252 . S
O890 Gd841 2.545 . S
O890 C908 1.258 . S
O891 Gd840 2.362 . S
O891 Gd841 2.606 . S
O891 C907 1.284 . S
O892 Gd840 2.324 . S
O892 C915 1.254 . S
O893 Gd841 2.429 . S
O893 C915 1.268 . S
O894 Gd841 2.545 . S
O894 C907 1.250 . S
O895 Gd841 2.412 . S
O895 C908 1.252 . S
C896 O885 1.284 . S
C896 O888 1.250 . S
C897 H866 0.929 1_455 S
C897 C882 1.437 . S
C897 C898 1.317 . S
C898 H869 0.930 1_455 S
C898 C874 1.431 . S
C898 C897 1.317 . S
C899 Gd840 2.828 . S
C899 O884 1.258 . S
C899 O889 1.252 . S
C899 C900 1.497 1_455 S
C900 C899 1.497 1_655 S
C900 C901 1.395 . S
C900 C902 1.380 . S
C901 C900 1.395 . S
C901 C904 1.398 . S
C901 H916 0.930 . S
C902 C900 1.380 . S
C902 C903 1.391 . S
C902 H917 0.930 . S
C903 C902 1.391 . S
C903 C905 1.387 . S
C904 C901 1.398 . S
C904 C905 1.380 . S
C904 H918 0.930 . S
C905 C903 1.387 . S
C905 C904 1.380 . S
C905 H919 0.930 . S
C906 O886 1.254 . S
C906 O887 1.268 . S
C907 O891 1.284 . S
C907 O894 1.250 . S
C908 Gd841 2.828 . S
C908 O890 1.258 . S
C908 O895 1.252 . S
C908 C909 1.497 . S
C909 C908 1.497 . S
C909 C910 1.395 . S
C909 C911 1.380 . S
C910 C909 1.395 . S
C910 C913 1.398 . S
C910 H920 0.930 . S
C911 C909 1.380 . S
C911 C912 1.391 . S
C911 H921 0.930 . S
C912 C911 1.391 . S
C912 C914 1.387 . S
C913 C910 1.398 . S
C913 C914 1.380 . S
C913 H922 0.930 . S
C914 C912 1.387 . S
C914 C913 1.380 . S
C914 H923 0.930 . S
C915 O892 1.254 . S
C915 O893 1.268 . S
H916 C901 0.930 . S
H917 C902 0.930 . S
H918 C904 0.930 . S
H919 C905 0.930 . S
H920 C910 0.930 . S
H921 C911 0.930 . S
H922 C913 0.930 . S
H923 C914 0.930 . S
Gd924 N955 2.661 . S
Gd924 N961 2.601 . S
Gd924 O968 2.545 . S
Gd924 O969 2.606 . S
Gd924 O971 2.429 . S
Gd924 O972 2.545 . S
Gd924 O973 2.412 . S
Gd924 O975 2.362 . S
Gd924 O976 2.324 . S
Gd924 C983 2.828 . S
Gd925 N934 2.661 . S
Gd925 N938 2.601 . S
Gd925 O969 2.362 . S
Gd925 O970 2.324 . S
Gd925 O974 2.545 . S
Gd925 O975 2.606 . S
Gd925 O977 2.429 . S
Gd925 O978 2.545 . S
Gd925 O979 2.412 . S
Gd925 C992 2.828 . S
C926 C929 1.417 . S
C926 C931 1.431 1_655 S
C926 C932 1.412 . S
C927 C930 1.437 . S
C927 C931 1.317 1_655 S
C927 H946 0.929 1_655 S
C928 C929 1.426 . S
C928 C930 1.413 . S
C928 N938 1.359 . S
C929 C926 1.417 . S
C929 C928 1.426 . S
C929 N934 1.350 . S
C930 C927 1.437 . S
C930 C928 1.413 . S
C930 C940 1.391 . S
C931 C926 1.431 1_455 S
C931 C927 1.317 1_455 S
C931 H942 0.930 . S
C932 C926 1.412 . S
C932 C933 1.355 . S
C932 H944 0.930 1_655 S
C933 C932 1.355 . S
C933 C935 1.402 . S
C933 H945 0.930 . S
N934 Gd925 2.661 . S
N934 C929 1.350 . S
N934 C935 1.307 . S
C935 C933 1.402 . S
C935 N934 1.307 . S
C935 H936 0.930 . S
H936 C935 0.930 . S
C937 N938 1.334 . S
C937 C939 1.394 . S
C937 H941 0.930 . S
N938 Gd925 2.601 . S
N938 C928 1.359 . S
N938 C937 1.334 . S
C939 C937 1.394 . S
C939 C940 1.359 . S
C939 H951 0.930 . S
C940 C930 1.391 . S
C940 C939 1.359 . S
C940 H952 0.929 . S
H941 C937 0.930 . S
H942 C931 0.930 . S
H943 C960 0.930 . S
H944 C932 0.930 1_455 S
H945 C933 0.930 . S
H946 C927 0.929 1_455 S
H947 C965 0.930 . S
H948 C956 0.930 . S
H949 C957 0.930 . S
H950 C981 0.929 1_565 S
H951 C939 0.930 . S
H952 C940 0.929 . S
H953 C982 0.930 1_565 S
H954 C963 0.930 . S
N955 Gd924 2.661 . S
N955 C959 1.350 . S
N955 C960 1.307 . S
C956 H948 0.930 . S
C956 C957 1.355 . S
C956 C958 1.412 . S
C957 H949 0.930 . S
C957 C956 1.355 . S
C957 C960 1.402 . S
C958 C956 1.412 . S
C958 C959 1.417 . S
C958 C982 1.431 . S
C959 N955 1.350 . S
C959 C958 1.417 . S
C959 C962 1.426 . S
C960 H943 0.930 . S
C960 N955 1.307 . S
C960 C957 1.402 . S
N961 Gd924 2.601 . S
N961 C962 1.359 . S
N961 C965 1.334 . S
C962 C959 1.426 . S
C962 N961 1.359 . S
C962 C966 1.413 . S
C963 H954 0.930 . S
C963 C964 1.359 . S
C963 C965 1.394 . S
C964 C963 1.359 . S
C964 C966 1.391 . S
C964 H967 0.929 . S
C965 H947 0.930 . S
C965 N961 1.334 . S
C965 C963 1.394 . S
C966 C962 1.413 . S
C966 C964 1.391 . S
C966 C981 1.437 . S
H967 C964 0.929 . S
O968 Gd924 2.545 . S
O968 C983 1.258 . S
O969 Gd924 2.606 . S
O969 Gd925 2.362 . S
O969 C980 1.284 . S
O970 Gd925 2.324 . S
O970 C990 1.254 . S
O971 Gd924 2.429 . S
O971 C990 1.268 . S
O972 Gd924 2.545 . S
O972 C980 1.250 . S
O973 Gd924 2.412 . S
O973 C983 1.252 . S
O974 Gd925 2.545 . S
O974 C992 1.258 . S
O975 Gd924 2.362 . S
O975 Gd925 2.606 . S
O975 C991 1.284 . S
O976 Gd924 2.324 . S
O976 C999 1.254 . S
O977 Gd925 2.429 . S
O977 C999 1.268 . S
O978 Gd925 2.545 . S
O978 C991 1.250 . S
O979 Gd925 2.412 . S
O979 C992 1.252 . S
C980 O969 1.284 . S
C980 O972 1.250 . S
C981 H950 0.929 1_545 S
C981 C966 1.437 . S
C981 C982 1.317 . S
C982 H953 0.930 1_545 S
C982 C958 1.431 . S
C982 C981 1.317 . S
C983 Gd924 2.828 . S
C983 O968 1.258 . S
C983 O973 1.252 . S
C983 C984 1.497 1_545 S
C984 C983 1.497 1_565 S
C984 C985 1.395 . S
C984 C986 1.380 . S
C985 C984 1.395 . S
C985 C988 1.398 . S
C985 H1000 0.930 . S
C986 C984 1.380 . S
C986 C987 1.391 . S
C986 H1001 0.930 . S
C987 C986 1.391 . S
C987 C989 1.387 . S
C988 C985 1.398 . S
C988 C989 1.380 . S
C988 H1002 0.930 . S
C989 C987 1.387 . S
C989 C988 1.380 . S
C989 H1003 0.930 . S
C990 O970 1.254 . S
C990 O971 1.268 . S
C991 O975 1.284 . S
C991 O978 1.250 . S
C992 Gd925 2.828 . S
C992 O974 1.258 . S
C992 O979 1.252 . S
C992 C993 1.497 . S
C993 C992 1.497 . S
C993 C994 1.395 . S
C993 C995 1.380 . S
C994 C993 1.395 . S
C994 C997 1.398 . S
C994 H1004 0.930 . S
C995 C993 1.380 . S
C995 C996 1.391 . S
C995 H1005 0.930 . S
C996 C995 1.391 . S
C996 C998 1.387 . S
C997 C994 1.398 . S
C997 C998 1.380 . S
C997 H1006 0.930 . S
C998 C996 1.387 . S
C998 C997 1.380 . S
C998 H1007 0.930 . S
C999 O976 1.254 . S
C999 O977 1.268 . S
H1000 C985 0.930 . S
H1001 C986 0.930 . S
H1002 C988 0.930 . S
H1003 C989 0.930 . S
H1004 C994 0.930 . S
H1005 C995 0.930 . S
H1006 C997 0.930 . S
H1007 C998 0.930 . S
H1008 C1016 0.950 . S
H1009 C1021 0.950 . S
H1010 C1018 0.950 . S
H1011 C1020 0.950 . S
H1012 C1022 0.950 . S
H1013 C1024 0.950 . S
H1014 C1026 0.950 . S
H1015 C1027 0.950 . S
C1016 H1008 0.950 . S
C1016 C1017 1.386 . S
C1016 C1018 1.391 . S
C1017 C1016 1.386 . S
C1017 C1021 1.393 . S
C1018 H1010 0.950 . S
C1018 C1016 1.391 . S
C1018 C1019 1.400 . S
C1019 C1018 1.400 . S
C1019 C1020 1.398 . S
C1019 C1025 1.491 1_565 S
C1020 H1011 0.950 . S
C1020 C1019 1.398 . S
C1020 C1021 1.391 . S
C1021 H1009 0.950 . S
C1021 C1017 1.393 . S
C1021 C1020 1.391 . S
C1022 H1012 0.950 . S
C1022 C1023 1.386 . S
C1022 C1024 1.391 . S
C1023 C1022 1.386 . S
C1023 C1027 1.393 . S
C1024 H1013 0.950 . S
C1024 C1022 1.391 . S
C1024 C1025 1.400 . S
C1025 C1019 1.491 1_545 S
C1025 C1024 1.400 . S
C1025 C1026 1.398 . S
C1026 H1014 0.950 . S
C1026 C1025 1.398 . S
C1026 C1027 1.391 . S
C1027 H1015 0.950 . S
C1027 C1023 1.393 . S
C1027 C1026 1.391 . S
H1028 C1036 0.950 . S
H1029 C1041 0.950 . S
H1030 C1038 0.950 . S
H1031 C1040 0.950 . S
H1032 C1042 0.950 . S
H1033 C1044 0.950 . S
H1034 C1046 0.950 . S
H1035 C1047 0.950 . S
C1036 H1028 0.950 . S
C1036 C1037 1.386 . S
C1036 C1038 1.391 . S
C1037 C1036 1.386 . S
C1037 C1041 1.393 . S
C1038 H1030 0.950 . S
C1038 C1036 1.391 . S
C1038 C1039 1.400 . S
C1039 C1038 1.400 . S
C1039 C1040 1.398 . S
C1039 C1045 1.491 . S
C1040 H1031 0.950 . S
C1040 C1039 1.398 . S
C1040 C1041 1.391 . S
C1041 H1029 0.950 . S
C1041 C1037 1.393 . S
C1041 C1040 1.391 . S
C1042 H1032 0.950 . S
C1042 C1043 1.386 . S
C1042 C1044 1.391 . S
C1043 C1042 1.386 . S
C1043 C1047 1.393 . S
C1044 H1033 0.950 . S
C1044 C1042 1.391 . S
C1044 C1045 1.400 . S
C1045 C1039 1.491 . S
C1045 C1044 1.400 . S
C1045 C1046 1.398 . S
C1046 H1034 0.950 . S
C1046 C1045 1.398 . S
C1046 C1047 1.391 . S
C1047 H1035 0.950 . S
C1047 C1043 1.393 . S
C1047 C1046 1.391 . S
H1048 C1056 0.950 . S
H1049 C1061 0.950 . S
H1050 C1058 0.950 . S
H1051 C1060 0.950 . S
H1052 C1062 0.950 . S
H1053 C1064 0.950 . S
H1054 C1066 0.950 1_655 S
H1055 C1067 0.950 . S
C1056 H1048 0.950 . S
C1056 C1057 1.386 . S
C1056 C1058 1.391 . S
C1057 C1056 1.386 . S
C1057 C1061 1.393 . S
C1058 H1050 0.950 . S
C1058 C1056 1.391 . S
C1058 C1059 1.400 . S
C1059 C1058 1.400 . S
C1059 C1060 1.398 . S
C1059 C1065 1.491 1_655 S
C1060 H1051 0.950 . S
C1060 C1059 1.398 . S
C1060 C1061 1.391 . S
C1061 H1049 0.950 . S
C1061 C1057 1.393 . S
C1061 C1060 1.391 . S
C1062 H1052 0.950 . S
C1062 C1063 1.386 . S
C1062 C1064 1.391 . S
C1063 C1062 1.386 . S
C1063 C1067 1.393 . S
C1064 H1053 0.950 . S
C1064 C1062 1.391 . S
C1064 C1065 1.400 . S
C1065 C1059 1.491 1_455 S
C1065 C1064 1.400 . S
C1065 C1066 1.398 . S
C1066 H1054 0.950 1_455 S
C1066 C1065 1.398 . S
C1066 C1067 1.391 . S
C1067 H1055 0.950 . S
C1067 C1063 1.393 . S
C1067 C1066 1.391 . S
H1068 C1076 0.950 . S
H1069 C1081 0.950 . S
H1070 C1078 0.950 . S
H1071 C1080 0.950 . S
H1072 C1082 0.950 . S
H1073 C1084 0.950 . S
H1074 C1086 0.950 . S
H1075 C1087 0.950 . S
C1076 H1068 0.950 . S
C1076 C1077 1.386 . S
C1076 C1078 1.391 . S
C1077 C1076 1.386 . S
C1077 C1081 1.393 . S
C1078 H1070 0.950 . S
C1078 C1076 1.391 . S
C1078 C1079 1.400 . S
C1079 C1078 1.400 . S
C1079 C1080 1.398 . S
C1079 C1085 1.491 1_565 S
C1080 H1071 0.950 . S
C1080 C1079 1.398 . S
C1080 C1081 1.391 . S
C1081 H1069 0.950 . S
C1081 C1077 1.393 . S
C1081 C1080 1.391 . S
C1082 H1072 0.950 . S
C1082 C1083 1.386 . S
C1082 C1084 1.391 . S
C1083 C1082 1.386 . S
C1083 C1087 1.393 . S
C1084 H1073 0.950 . S
C1084 C1082 1.391 . S
C1084 C1085 1.400 . S
C1085 C1079 1.491 1_545 S
C1085 C1084 1.400 . S
C1085 C1086 1.398 . S
C1086 H1074 0.950 . S
C1086 C1085 1.398 . S
C1086 C1087 1.391 . S
C1087 H1075 0.950 . S
C1087 C1083 1.393 . S
C1087 C1086 1.391 . S
H1088 C1096 0.950 . S
H1089 C1101 0.950 . S
H1090 C1098 0.950 . S
H1091 C1100 0.950 . S
H1092 C1102 0.950 . S
H1093 C1104 0.950 . S
H1094 C1106 0.950 . S
H1095 C1107 0.950 . S
C1096 H1088 0.950 . S
C1096 C1097 1.386 . S
C1096 C1098 1.391 . S
C1097 C1096 1.386 . S
C1097 C1101 1.393 . S
C1098 H1090 0.950 . S
C1098 C1096 1.391 . S
C1098 C1099 1.400 . S
C1099 C1098 1.400 . S
C1099 C1100 1.398 . S
C1099 C1105 1.491 . S
C1100 H1091 0.950 . S
C1100 C1099 1.398 . S
C1100 C1101 1.391 . S
C1101 H1089 0.950 . S
C1101 C1097 1.393 . S
C1101 C1100 1.391 . S
C1102 H1092 0.950 . S
C1102 C1103 1.386 . S
C1102 C1104 1.391 . S
C1103 C1102 1.386 . S
C1103 C1107 1.393 . S
C1104 H1093 0.950 . S
C1104 C1102 1.391 . S
C1104 C1105 1.400 . S
C1105 C1099 1.491 . S
C1105 C1104 1.400 . S
C1105 C1106 1.398 . S
C1106 H1094 0.950 . S
C1106 C1105 1.398 . S
C1106 C1107 1.391 . S
C1107 H1095 0.950 . S
C1107 C1103 1.393 . S
C1107 C1106 1.391 . S
H1108 C1116 0.950 . S
H1109 C1121 0.950 . S
H1110 C1118 0.950 . S
H1111 C1120 0.950 1_455 S
H1112 C1122 0.950 . S
H1113 C1124 0.950 . S
H1114 C1126 0.950 . S
H1115 C1127 0.950 . S
C1116 H1108 0.950 . S
C1116 C1117 1.386 . S
C1116 C1118 1.391 . S
C1117 C1116 1.386 . S
C1117 C1121 1.393 . S
C1118 H1110 0.950 . S
C1118 C1116 1.391 . S
C1118 C1119 1.400 . S
C1119 C1118 1.400 . S
C1119 C1120 1.398 . S
C1119 C1125 1.491 1_655 S
C1120 H1111 0.950 1_655 S
C1120 C1119 1.398 . S
C1120 C1121 1.391 . S
C1121 H1109 0.950 . S
C1121 C1117 1.393 . S
C1121 C1120 1.391 . S
C1122 H1112 0.950 . S
C1122 C1123 1.386 . S
C1122 C1124 1.391 . S
C1123 C1122 1.386 . S
C1123 C1127 1.393 . S
C1124 H1113 0.950 . S
C1124 C1122 1.391 . S
C1124 C1125 1.400 . S
C1125 C1119 1.491 1_455 S
C1125 C1124 1.400 . S
C1125 C1126 1.398 . S
C1126 H1114 0.950 . S
C1126 C1125 1.398 . S
C1126 C1127 1.391 . S
C1127 H1115 0.950 . S
C1127 C1123 1.393 . S
C1127 C1126 1.391 . S
H1128 C1136 0.950 . S
H1129 C1141 0.950 . S
H1130 C1138 0.950 . S
H1131 C1140 0.950 1_655 S
H1132 C1142 0.950 . S
H1133 C1144 0.950 . S
H1134 C1146 0.950 . S
H1135 C1147 0.950 . S
C1136 H1128 0.950 . S
C1136 C1137 1.386 . S
C1136 C1138 1.391 . S
C1137 C1136 1.386 . S
C1137 C1141 1.393 . S
C1138 H1130 0.950 . S
C1138 C1136 1.391 . S
C1138 C1139 1.400 . S
C1139 C1138 1.400 . S
C1139 C1140 1.398 . S
C1139 C1145 1.491 1_455 S
C1140 H1131 0.950 1_455 S
C1140 C1139 1.398 . S
C1140 C1141 1.391 . S
C1141 H1129 0.950 . S
C1141 C1137 1.393 . S
C1141 C1140 1.391 . S
C1142 H1132 0.950 . S
C1142 C1143 1.386 . S
C1142 C1144 1.391 . S
C1143 C1142 1.386 . S
C1143 C1147 1.393 . S
C1144 H1133 0.950 . S
C1144 C1142 1.391 . S
C1144 C1145 1.400 . S
C1145 C1139 1.491 1_655 S
C1145 C1144 1.400 . S
C1145 C1146 1.398 . S
C1146 H1134 0.950 . S
C1146 C1145 1.398 . S
C1146 C1147 1.391 . S
C1147 H1135 0.950 . S
C1147 C1143 1.393 . S
C1147 C1146 1.391 . S
H1148 C1156 0.950 . S
H1149 C1161 0.950 . S
H1150 C1158 0.950 . S
H1151 C1160 0.950 . S
H1152 C1162 0.950 . S
H1153 C1164 0.950 . S
H1154 C1166 0.950 . S
H1155 C1167 0.950 . S
C1156 H1148 0.950 . S
C1156 C1157 1.386 . S
C1156 C1158 1.391 . S
C1157 C1156 1.386 . S
C1157 C1161 1.393 . S
C1158 H1150 0.950 . S
C1158 C1156 1.391 . S
C1158 C1159 1.400 . S
C1159 C1158 1.400 . S
C1159 C1160 1.398 . S
C1159 C1165 1.491 1_565 S
C1160 H1151 0.950 . S
C1160 C1159 1.398 . S
C1160 C1161 1.391 . S
C1161 H1149 0.950 . S
C1161 C1157 1.393 . S
C1161 C1160 1.391 . S
C1162 H1152 0.950 . S
C1162 C1163 1.386 . S
C1162 C1164 1.391 . S
C1163 C1162 1.386 . S
C1163 C1167 1.393 . S
C1164 H1153 0.950 . S
C1164 C1162 1.391 . S
C1164 C1165 1.400 . S
C1165 C1159 1.491 1_545 S
C1165 C1164 1.400 . S
C1165 C1166 1.398 . S
C1166 H1154 0.950 . S
C1166 C1165 1.398 . S
C1166 C1167 1.391 . S
C1167 H1155 0.950 . S
C1167 C1163 1.393 . S
C1167 C1166 1.391 . S
H1168 C1176 0.950 . S
H1169 C1181 0.950 . S
H1170 C1178 0.950 . S
H1171 C1180 0.950 . S
H1172 C1182 0.950 . S
H1173 C1184 0.950 . S
H1174 C1186 0.950 . S
H1175 C1187 0.950 . S
C1176 H1168 0.950 . S
C1176 C1177 1.386 . S
C1176 C1178 1.391 . S
C1177 C1176 1.386 . S
C1177 C1181 1.393 . S
C1178 H1170 0.950 . S
C1178 C1176 1.391 . S
C1178 C1179 1.400 . S
C1179 C1178 1.400 . S
C1179 C1180 1.398 . S
C1179 C1185 1.491 . S
C1180 H1171 0.950 . S
C1180 C1179 1.398 . S
C1180 C1181 1.391 . S
C1181 H1169 0.950 . S
C1181 C1177 1.393 . S
C1181 C1180 1.391 . S
C1182 H1172 0.950 . S
C1182 C1183 1.386 . S
C1182 C1184 1.391 . S
C1183 C1182 1.386 . S
C1183 C1187 1.393 . S
C1184 H1173 0.950 . S
C1184 C1182 1.391 . S
C1184 C1185 1.400 . S
C1185 C1179 1.491 . S
C1185 C1184 1.400 . S
C1185 C1186 1.398 . S
C1186 H1174 0.950 . S
C1186 C1185 1.398 . S
C1186 C1187 1.391 . S
C1187 H1175 0.950 . S
C1187 C1183 1.393 . S
C1187 C1186 1.391 . S
H1188 C1196 0.950 . S
H1189 C1201 0.950 . S
H1190 C1198 0.950 . S
H1191 C1200 0.950 . S
H1192 C1202 0.950 . S
H1193 C1204 0.950 . S
H1194 C1206 0.950 . S
H1195 C1207 0.950 . S
C1196 H1188 0.950 . S
C1196 C1197 1.386 . S
C1196 C1198 1.391 . S
C1197 C1196 1.386 . S
C1197 C1201 1.393 . S
C1198 H1190 0.950 . S
C1198 C1196 1.391 . S
C1198 C1199 1.400 . S
C1199 C1198 1.400 . S
C1199 C1200 1.398 . S
C1199 C1205 1.491 1_455 S
C1200 H1191 0.950 . S
C1200 C1199 1.398 . S
C1200 C1201 1.391 . S
C1201 H1189 0.950 . S
C1201 C1197 1.393 . S
C1201 C1200 1.391 . S
C1202 H1192 0.950 . S
C1202 C1203 1.386 . S
C1202 C1204 1.391 . S
C1203 C1202 1.386 . S
C1203 C1207 1.393 . S
C1204 H1193 0.950 . S
C1204 C1202 1.391 . S
C1204 C1205 1.400 . S
C1205 C1199 1.491 1_655 S
C1205 C1204 1.400 . S
C1205 C1206 1.398 . S
C1206 H1194 0.950 . S
C1206 C1205 1.398 . S
C1206 C1207 1.391 . S
C1207 H1195 0.950 . S
C1207 C1203 1.393 . S
C1207 C1206 1.391 . S
H1208 C1216 0.950 . S
H1209 C1221 0.950 . S
H1210 C1218 0.950 . S
H1211 C1220 0.950 . S
H1212 C1222 0.950 . S
H1213 C1224 0.950 . S
H1214 C1226 0.950 . S
H1215 C1227 0.950 . S
C1216 H1208 0.950 . S
C1216 C1217 1.386 . S
C1216 C1218 1.391 . S
C1217 C1216 1.386 . S
C1217 C1221 1.393 . S
C1218 H1210 0.950 . S
C1218 C1216 1.391 . S
C1218 C1219 1.400 . S
C1219 C1218 1.400 . S
C1219 C1220 1.398 . S
C1219 C1225 1.491 1_545 S
C1220 H1211 0.950 . S
C1220 C1219 1.398 . S
C1220 C1221 1.391 . S
C1221 H1209 0.950 . S
C1221 C1217 1.393 . S
C1221 C1220 1.391 . S
C1222 H1212 0.950 . S
C1222 C1223 1.386 . S
C1222 C1224 1.391 . S
C1223 C1222 1.386 . S
C1223 C1227 1.393 . S
C1224 H1213 0.950 . S
C1224 C1222 1.391 . S
C1224 C1225 1.400 . S
C1225 C1219 1.491 1_565 S
C1225 C1224 1.400 . S
C1225 C1226 1.398 . S
C1226 H1214 0.950 . S
C1226 C1225 1.398 . S
C1226 C1227 1.391 . S
C1227 H1215 0.950 . S
C1227 C1223 1.393 . S
C1227 C1226 1.391 . S
H1228 C1236 0.950 . S
H1229 C1241 0.950 . S
H1230 C1238 0.950 . S
H1231 C1240 0.950 . S
H1232 C1242 0.950 . S
H1233 C1244 0.950 . S
H1234 C1246 0.950 . S
H1235 C1247 0.950 . S
C1236 H1228 0.950 . S
C1236 C1237 1.386 . S
C1236 C1238 1.391 . S
C1237 C1236 1.386 . S
C1237 C1241 1.393 . S
C1238 H1230 0.950 . S
C1238 C1236 1.391 . S
C1238 C1239 1.400 . S
C1239 C1238 1.400 . S
C1239 C1240 1.398 . S
C1239 C1245 1.491 . S
C1240 H1231 0.950 . S
C1240 C1239 1.398 . S
C1240 C1241 1.391 . S
C1241 H1229 0.950 . S
C1241 C1237 1.393 . S
C1241 C1240 1.391 . S
C1242 H1232 0.950 . S
C1242 C1243 1.386 . S
C1242 C1244 1.391 . S
C1243 C1242 1.386 . S
C1243 C1247 1.393 . S
C1244 H1233 0.950 . S
C1244 C1242 1.391 . S
C1244 C1245 1.400 . S
C1245 C1239 1.491 . S
C1245 C1244 1.400 . S
C1245 C1246 1.398 . S
C1246 H1234 0.950 . S
C1246 C1245 1.398 . S
C1246 C1247 1.391 . S
C1247 H1235 0.950 . S
C1247 C1243 1.393 . S
C1247 C1246 1.391 . S
H1248 C1256 0.950 . S
H1249 C1261 0.950 . S
H1250 C1258 0.950 . S
H1251 C1260 0.950 . S
H1252 C1262 0.950 . S
H1253 C1264 0.950 . S
H1254 C1266 0.950 . S
H1255 C1267 0.950 . S
C1256 H1248 0.950 . S
C1256 C1257 1.386 . S
C1256 C1258 1.391 . S
C1257 C1256 1.386 . S
C1257 C1261 1.393 . S
C1258 H1250 0.950 . S
C1258 C1256 1.391 . S
C1258 C1259 1.400 . S
C1259 C1258 1.400 . S
C1259 C1260 1.398 . S
C1259 C1265 1.491 . S
C1260 H1251 0.950 . S
C1260 C1259 1.398 . S
C1260 C1261 1.391 . S
C1261 H1249 0.950 . S
C1261 C1257 1.393 . S
C1261 C1260 1.391 . S
C1262 H1252 0.950 . S
C1262 C1263 1.386 . S
C1262 C1264 1.391 . S
C1263 C1262 1.386 . S
C1263 C1267 1.393 . S
C1264 H1253 0.950 . S
C1264 C1262 1.391 . S
C1264 C1265 1.400 . S
C1265 C1259 1.491 . S
C1265 C1264 1.400 . S
C1265 C1266 1.398 . S
C1266 H1254 0.950 . S
C1266 C1265 1.398 . S
C1266 C1267 1.391 . S
C1267 H1255 0.950 . S
C1267 C1263 1.393 . S
C1267 C1266 1.391 . S
H1268 C1276 0.950 . S
H1269 C1281 0.950 . S
H1270 C1278 0.950 . S
H1271 C1280 0.950 . S
H1272 C1282 0.950 . S
H1273 C1284 0.950 . S
H1274 C1286 0.950 . S
H1275 C1287 0.950 . S
C1276 H1268 0.950 . S
C1276 C1277 1.386 . S
C1276 C1278 1.391 . S
C1277 C1276 1.386 . S
C1277 C1281 1.393 . S
C1278 H1270 0.950 . S
C1278 C1276 1.391 . S
C1278 C1279 1.400 . S
C1279 C1278 1.400 . S
C1279 C1280 1.398 . S
C1279 C1285 1.491 . S
C1280 H1271 0.950 . S
C1280 C1279 1.398 . S
C1280 C1281 1.391 . S
C1281 H1269 0.950 . S
C1281 C1277 1.393 . S
C1281 C1280 1.391 . S
C1282 H1272 0.950 . S
C1282 C1283 1.386 . S
C1282 C1284 1.391 . S
C1283 C1282 1.386 . S
C1283 C1287 1.393 . S
C1284 H1273 0.950 . S
C1284 C1282 1.391 . S
C1284 C1285 1.400 . S
C1285 C1279 1.491 . S
C1285 C1284 1.400 . S
C1285 C1286 1.398 . S
C1286 H1274 0.950 . S
C1286 C1285 1.398 . S
C1286 C1287 1.391 . S
C1287 H1275 0.950 . S
C1287 C1283 1.393 . S
C1287 C1286 1.391 . S
H1288 C1296 0.950 . S
H1289 C1301 0.950 . S
H1290 C1298 0.950 . S
H1291 C1300 0.950 . S
H1292 C1302 0.950 . S
H1293 C1304 0.950 . S
H1294 C1306 0.950 . S
H1295 C1307 0.950 . S
C1296 H1288 0.950 . S
C1296 C1297 1.386 . S
C1296 C1298 1.391 . S
C1297 C1296 1.386 . S
C1297 C1301 1.393 . S
C1298 H1290 0.950 . S
C1298 C1296 1.391 . S
C1298 C1299 1.400 . S
C1299 C1298 1.400 . S
C1299 C1300 1.398 . S
C1299 C1305 1.491 . S
C1300 H1291 0.950 . S
C1300 C1299 1.398 . S
C1300 C1301 1.391 . S
C1301 H1289 0.950 . S
C1301 C1297 1.393 . S
C1301 C1300 1.391 . S
C1302 H1292 0.950 . S
C1302 C1303 1.386 . S
C1302 C1304 1.391 . S
C1303 C1302 1.386 . S
C1303 C1307 1.393 . S
C1304 H1293 0.950 . S
C1304 C1302 1.391 . S
C1304 C1305 1.400 . S
C1305 C1299 1.491 . S
C1305 C1304 1.400 . S
C1305 C1306 1.398 . S
C1306 H1294 0.950 . S
C1306 C1305 1.398 . S
C1306 C1307 1.391 . S
C1307 H1295 0.950 . S
C1307 C1303 1.393 . S
C1307 C1306 1.391 . S
H1308 C1316 0.950 . S
H1309 C1321 0.950 . S
H1310 C1318 0.950 . S
H1311 C1320 0.950 . S
H1312 C1322 0.950 . S
H1313 C1324 0.950 . S
H1314 C1326 0.950 . S
H1315 C1327 0.950 . S
C1316 H1308 0.950 . S
C1316 C1317 1.386 . S
C1316 C1318 1.391 . S
C1317 C1316 1.386 . S
C1317 C1321 1.393 . S
C1318 H1310 0.950 . S
C1318 C1316 1.391 . S
C1318 C1319 1.400 . S
C1319 C1318 1.400 . S
C1319 C1320 1.398 . S
C1319 C1325 1.491 . S
C1320 H1311 0.950 . S
C1320 C1319 1.398 . S
C1320 C1321 1.391 . S
C1321 H1309 0.950 . S
C1321 C1317 1.393 . S
C1321 C1320 1.391 . S
C1322 H1312 0.950 . S
C1322 C1323 1.386 . S
C1322 C1324 1.391 . S
C1323 C1322 1.386 . S
C1323 C1327 1.393 . S
C1324 H1313 0.950 . S
C1324 C1322 1.391 . S
C1324 C1325 1.400 . S
C1325 C1319 1.491 . S
C1325 C1324 1.400 . S
C1325 C1326 1.398 . S
C1326 H1314 0.950 . S
C1326 C1325 1.398 . S
C1326 C1327 1.391 . S
C1327 H1315 0.950 . S
C1327 C1323 1.393 . S
C1327 C1326 1.391 . S
H1328 C1336 0.950 . S
H1329 C1341 0.950 . S
H1330 C1338 0.950 . S
H1331 C1340 0.950 . S
H1332 C1342 0.950 . S
H1333 C1344 0.950 . S
H1334 C1346 0.950 . S
H1335 C1347 0.950 . S
C1336 H1328 0.950 . S
C1336 C1337 1.386 . S
C1336 C1338 1.391 . S
C1337 C1336 1.386 . S
C1337 C1341 1.393 . S
C1338 H1330 0.950 . S
C1338 C1336 1.391 . S
C1338 C1339 1.400 . S
C1339 C1338 1.400 . S
C1339 C1340 1.398 . S
C1339 C1345 1.491 . S
C1340 H1331 0.950 . S
C1340 C1339 1.398 . S
C1340 C1341 1.391 . S
C1341 H1329 0.950 . S
C1341 C1337 1.393 . S
C1341 C1340 1.391 . S
C1342 H1332 0.950 . S
C1342 C1343 1.386 . S
C1342 C1344 1.391 . S
C1343 C1342 1.386 . S
C1343 C1347 1.393 . S
C1344 H1333 0.950 . S
C1344 C1342 1.391 . S
C1344 C1345 1.400 . S
C1345 C1339 1.491 . S
C1345 C1344 1.400 . S
C1345 C1346 1.398 . S
C1346 H1334 0.950 . S
C1346 C1345 1.398 . S
C1346 C1347 1.391 . S
C1347 H1335 0.950 . S
C1347 C1343 1.393 . S
C1347 C1346 1.391 . S
H1348 C1356 0.950 . S
H1349 C1361 0.950 . S
H1350 C1358 0.950 . S
H1351 C1360 0.950 . S
H1352 C1362 0.950 . S
H1353 C1364 0.950 . S
H1354 C1366 0.950 . S
H1355 C1367 0.950 . S
C1356 H1348 0.950 . S
C1356 C1357 1.386 . S
C1356 C1358 1.391 . S
C1357 C1356 1.386 . S
C1357 C1361 1.393 . S
C1358 H1350 0.950 . S
C1358 C1356 1.391 . S
C1358 C1359 1.400 . S
C1359 C1358 1.400 . S
C1359 C1360 1.398 . S
C1359 C1365 1.491 . S
C1360 H1351 0.950 . S
C1360 C1359 1.398 . S
C1360 C1361 1.391 . S
C1361 H1349 0.950 . S
C1361 C1357 1.393 . S
C1361 C1360 1.391 . S
C1362 H1352 0.950 . S
C1362 C1363 1.386 . S
C1362 C1364 1.391 . S
C1363 C1362 1.386 . S
C1363 C1367 1.393 . S
C1364 H1353 0.950 . S
C1364 C1362 1.391 . S
C1364 C1365 1.400 . S
C1365 C1359 1.491 . S
C1365 C1364 1.400 . S
C1365 C1366 1.398 . S
C1366 H1354 0.950 . S
C1366 C1365 1.398 . S
C1366 C1367 1.391 . S
C1367 H1355 0.950 . S
C1367 C1363 1.393 . S
C1367 C1366 1.391 . S
H1368 C1376 0.950 . S
H1369 C1381 0.950 . S
H1370 C1378 0.950 . S
H1371 C1380 0.950 . S
H1372 C1382 0.950 . S
H1373 C1384 0.950 . S
H1374 C1386 0.950 . S
H1375 C1387 0.950 . S
C1376 H1368 0.950 . S
C1376 C1377 1.386 . S
C1376 C1378 1.391 . S
C1377 C1376 1.386 . S
C1377 C1381 1.393 . S
C1378 H1370 0.950 . S
C1378 C1376 1.391 . S
C1378 C1379 1.400 . S
C1379 C1378 1.400 . S
C1379 C1380 1.398 . S
C1379 C1385 1.491 . S
C1380 H1371 0.950 . S
C1380 C1379 1.398 . S
C1380 C1381 1.391 . S
C1381 H1369 0.950 . S
C1381 C1377 1.393 . S
C1381 C1380 1.391 . S
C1382 H1372 0.950 . S
C1382 C1383 1.386 . S
C1382 C1384 1.391 . S
C1383 C1382 1.386 . S
C1383 C1387 1.393 . S
C1384 H1373 0.950 . S
C1384 C1382 1.391 . S
C1384 C1385 1.400 . S
C1385 C1379 1.491 . S
C1385 C1384 1.400 . S
C1385 C1386 1.398 . S
C1386 H1374 0.950 . S
C1386 C1385 1.398 . S
C1386 C1387 1.391 . S
C1387 H1375 0.950 . S
C1387 C1383 1.393 . S
C1387 C1386 1.391 . S
H1388 C1396 0.950 . S
H1389 C1401 0.950 . S
H1390 C1398 0.950 . S
H1391 C1400 0.950 . S
H1392 C1402 0.950 . S
H1393 C1404 0.950 . S
H1394 C1406 0.950 . S
H1395 C1407 0.950 . S
C1396 H1388 0.950 . S
C1396 C1397 1.386 . S
C1396 C1398 1.391 . S
C1397 C1396 1.386 . S
C1397 C1401 1.393 . S
C1398 H1390 0.950 . S
C1398 C1396 1.391 . S
C1398 C1399 1.400 . S
C1399 C1398 1.400 . S
C1399 C1400 1.398 . S
C1399 C1405 1.491 . S
C1400 H1391 0.950 . S
C1400 C1399 1.398 . S
C1400 C1401 1.391 . S
C1401 H1389 0.950 . S
C1401 C1397 1.393 . S
C1401 C1400 1.391 . S
C1402 H1392 0.950 . S
C1402 C1403 1.386 . S
C1402 C1404 1.391 . S
C1403 C1402 1.386 . S
C1403 C1407 1.393 . S
C1404 H1393 0.950 . S
C1404 C1402 1.391 . S
C1404 C1405 1.400 . S
C1405 C1399 1.491 . S
C1405 C1404 1.400 . S
C1405 C1406 1.398 . S
C1406 H1394 0.950 . S
C1406 C1405 1.398 . S
C1406 C1407 1.391 . S
C1407 H1395 0.950 . S
C1407 C1403 1.393 . S
C1407 C1406 1.391 . S
H1408 C1416 0.950 . S
H1409 C1421 0.950 . S
H1410 C1418 0.950 . S
H1411 C1420 0.950 . S
H1412 C1422 0.950 . S
H1413 C1424 0.950 . S
H1414 C1426 0.950 . S
H1415 C1427 0.950 . S
C1416 H1408 0.950 . S
C1416 C1417 1.386 . S
C1416 C1418 1.391 . S
C1417 C1416 1.386 . S
C1417 C1421 1.393 . S
C1418 H1410 0.950 . S
C1418 C1416 1.391 . S
C1418 C1419 1.400 . S
C1419 C1418 1.400 . S
C1419 C1420 1.398 . S
C1419 C1425 1.491 . S
C1420 H1411 0.950 . S
C1420 C1419 1.398 . S
C1420 C1421 1.391 . S
C1421 H1409 0.950 . S
C1421 C1417 1.393 . S
C1421 C1420 1.391 . S
C1422 H1412 0.950 . S
C1422 C1423 1.386 . S
C1422 C1424 1.391 . S
C1423 C1422 1.386 . S
C1423 C1427 1.393 . S
C1424 H1413 0.950 . S
C1424 C1422 1.391 . S
C1424 C1425 1.400 . S
C1425 C1419 1.491 . S
C1425 C1424 1.400 . S
C1425 C1426 1.398 . S
C1426 H1414 0.950 . S
C1426 C1425 1.398 . S
C1426 C1427 1.391 . S
C1427 H1415 0.950 . S
C1427 C1423 1.393 . S
C1427 C1426 1.391 . S
H1428 C1436 0.950 . S
H1429 C1441 0.950 . S
H1430 C1438 0.950 . S
H1431 C1440 0.950 . S
H1432 C1442 0.950 . S
H1433 C1444 0.950 . S
H1434 C1446 0.950 . S
H1435 C1447 0.950 . S
C1436 H1428 0.950 . S
C1436 C1437 1.386 . S
C1436 C1438 1.391 . S
C1437 C1436 1.386 . S
C1437 C1441 1.393 . S
C1438 H1430 0.950 . S
C1438 C1436 1.391 . S
C1438 C1439 1.400 . S
C1439 C1438 1.400 . S
C1439 C1440 1.398 . S
C1439 C1445 1.491 . S
C1440 H1431 0.950 . S
C1440 C1439 1.398 . S
C1440 C1441 1.391 . S
C1441 H1429 0.950 . S
C1441 C1437 1.393 . S
C1441 C1440 1.391 . S
C1442 H1432 0.950 . S
C1442 C1443 1.386 . S
C1442 C1444 1.391 . S
C1443 C1442 1.386 . S
C1443 C1447 1.393 . S
C1444 H1433 0.950 . S
C1444 C1442 1.391 . S
C1444 C1445 1.400 . S
C1445 C1439 1.491 . S
C1445 C1444 1.400 . S
C1445 C1446 1.398 . S
C1446 H1434 0.950 . S
C1446 C1445 1.398 . S
C1446 C1447 1.391 . S
C1447 H1435 0.950 . S
C1447 C1443 1.393 . S
C1447 C1446 1.391 . S
H1448 C1456 0.950 . S
H1449 C1461 0.950 . S
H1450 C1458 0.950 . S
H1451 C1460 0.950 . S
H1452 C1462 0.950 . S
H1453 C1464 0.950 . S
H1454 C1466 0.950 . S
H1455 C1467 0.950 . S
C1456 H1448 0.950 . S
C1456 C1457 1.386 . S
C1456 C1458 1.391 . S
C1457 C1456 1.386 . S
C1457 C1461 1.393 . S
C1458 H1450 0.950 . S
C1458 C1456 1.391 . S
C1458 C1459 1.400 . S
C1459 C1458 1.400 . S
C1459 C1460 1.398 . S
C1459 C1465 1.491 . S
C1460 H1451 0.950 . S
C1460 C1459 1.398 . S
C1460 C1461 1.391 . S
C1461 H1449 0.950 . S
C1461 C1457 1.393 . S
C1461 C1460 1.391 . S
C1462 H1452 0.950 . S
C1462 C1463 1.386 . S
C1462 C1464 1.391 . S
C1463 C1462 1.386 . S
C1463 C1467 1.393 . S
C1464 H1453 0.950 . S
C1464 C1462 1.391 . S
C1464 C1465 1.400 . S
C1465 C1459 1.491 . S
C1465 C1464 1.400 . S
C1465 C1466 1.398 . S
C1466 H1454 0.950 . S
C1466 C1465 1.398 . S
C1466 C1467 1.391 . S
C1467 H1455 0.950 . S
C1467 C1463 1.393 . S
C1467 C1466 1.391 . S
H1468 C1476 0.950 . S
H1469 C1481 0.950 . S
H1470 C1478 0.950 . S
H1471 C1480 0.950 . S
H1472 C1482 0.950 . S
H1473 C1484 0.950 . S
H1474 C1486 0.950 . S
H1475 C1487 0.950 . S
C1476 H1468 0.950 . S
C1476 C1477 1.386 . S
C1476 C1478 1.391 . S
C1477 C1476 1.386 . S
C1477 C1481 1.393 . S
C1478 H1470 0.950 . S
C1478 C1476 1.391 . S
C1478 C1479 1.400 . S
C1479 C1478 1.400 . S
C1479 C1480 1.398 . S
C1479 C1485 1.491 . S
C1480 H1471 0.950 . S
C1480 C1479 1.398 . S
C1480 C1481 1.391 . S
C1481 H1469 0.950 . S
C1481 C1477 1.393 . S
C1481 C1480 1.391 . S
C1482 H1472 0.950 . S
C1482 C1483 1.386 . S
C1482 C1484 1.391 . S
C1483 C1482 1.386 . S
C1483 C1487 1.393 . S
C1484 H1473 0.950 . S
C1484 C1482 1.391 . S
C1484 C1485 1.400 . S
C1485 C1479 1.491 . S
C1485 C1484 1.400 . S
C1485 C1486 1.398 . S
C1486 H1474 0.950 . S
C1486 C1485 1.398 . S
C1486 C1487 1.391 . S
C1487 H1475 0.950 . S
C1487 C1483 1.393 . S
C1487 C1486 1.391 . S
H1488 C1496 0.950 . S
H1489 C1501 0.950 . S
H1490 C1498 0.950 . S
H1491 C1500 0.950 . S
H1492 C1502 0.950 . S
H1493 C1504 0.950 . S
H1494 C1506 0.950 . S
H1495 C1507 0.950 . S
C1496 H1488 0.950 . S
C1496 C1497 1.386 . S
C1496 C1498 1.391 . S
C1497 C1496 1.386 . S
C1497 C1501 1.393 . S
C1498 H1490 0.950 . S
C1498 C1496 1.391 . S
C1498 C1499 1.400 . S
C1499 C1498 1.400 . S
C1499 C1500 1.398 . S
C1499 C1505 1.491 . S
C1500 H1491 0.950 . S
C1500 C1499 1.398 . S
C1500 C1501 1.391 . S
C1501 H1489 0.950 . S
C1501 C1497 1.393 . S
C1501 C1500 1.391 . S
C1502 H1492 0.950 . S
C1502 C1503 1.386 . S
C1502 C1504 1.391 . S
C1503 C1502 1.386 . S
C1503 C1507 1.393 . S
C1504 H1493 0.950 . S
C1504 C1502 1.391 . S
C1504 C1505 1.400 . S
C1505 C1499 1.491 . S
C1505 C1504 1.400 . S
C1505 C1506 1.398 . S
C1506 H1494 0.950 . S
C1506 C1505 1.398 . S
C1506 C1507 1.391 . S
C1507 H1495 0.950 . S
C1507 C1503 1.393 . S
C1507 C1506 1.391 . S
H1508 C1516 0.950 . S
H1509 C1521 0.950 . S
H1510 C1518 0.950 . S
H1511 C1520 0.950 . S
H1512 C1522 0.950 . S
H1513 C1524 0.950 . S
H1514 C1526 0.950 . S
H1515 C1527 0.950 . S
C1516 H1508 0.950 . S
C1516 C1517 1.386 . S
C1516 C1518 1.391 . S
C1517 C1516 1.386 . S
C1517 C1521 1.393 . S
C1518 H1510 0.950 . S
C1518 C1516 1.391 . S
C1518 C1519 1.400 . S
C1519 C1518 1.400 . S
C1519 C1520 1.398 . S
C1519 C1525 1.491 . S
C1520 H1511 0.950 . S
C1520 C1519 1.398 . S
C1520 C1521 1.391 . S
C1521 H1509 0.950 . S
C1521 C1517 1.393 . S
C1521 C1520 1.391 . S
C1522 H1512 0.950 . S
C1522 C1523 1.386 . S
C1522 C1524 1.391 . S
C1523 C1522 1.386 . S
C1523 C1527 1.393 . S
C1524 H1513 0.950 . S
C1524 C1522 1.391 . S
C1524 C1525 1.400 . S
C1525 C1519 1.491 . S
C1525 C1524 1.400 . S
C1525 C1526 1.398 . S
C1526 H1514 0.950 . S
C1526 C1525 1.398 . S
C1526 C1527 1.391 . S
C1527 H1515 0.950 . S
C1527 C1523 1.393 . S
C1527 C1526 1.391 . S
H1528 C1536 0.950 . S
H1529 C1541 0.950 . S
H1530 C1538 0.950 . S
H1531 C1540 0.950 . S
H1532 C1542 0.950 . S
H1533 C1544 0.950 . S
H1534 C1546 0.950 . S
H1535 C1547 0.950 . S
C1536 H1528 0.950 . S
C1536 C1537 1.386 . S
C1536 C1538 1.391 . S
C1537 C1536 1.386 . S
C1537 C1541 1.393 . S
C1538 H1530 0.950 . S
C1538 C1536 1.391 . S
C1538 C1539 1.400 . S
C1539 C1538 1.400 . S
C1539 C1540 1.398 . S
C1539 C1545 1.491 . S
C1540 H1531 0.950 . S
C1540 C1539 1.398 . S
C1540 C1541 1.391 . S
C1541 H1529 0.950 . S
C1541 C1537 1.393 . S
C1541 C1540 1.391 . S
C1542 H1532 0.950 . S
C1542 C1543 1.386 . S
C1542 C1544 1.391 . S
C1543 C1542 1.386 . S
C1543 C1547 1.393 . S
C1544 H1533 0.950 . S
C1544 C1542 1.391 . S
C1544 C1545 1.400 . S
C1545 C1539 1.491 . S
C1545 C1544 1.400 . S
C1545 C1546 1.398 . S
C1546 H1534 0.950 . S
C1546 C1545 1.398 . S
C1546 C1547 1.391 . S
C1547 H1535 0.950 . S
C1547 C1543 1.393 . S
C1547 C1546 1.391 . S
H1548 C1556 0.950 . S
H1549 C1561 0.950 . S
H1550 C1558 0.950 . S
H1551 C1560 0.950 . S
H1552 C1562 0.950 . S
H1553 C1564 0.950 . S
H1554 C1566 0.950 . S
H1555 C1567 0.950 . S
C1556 H1548 0.950 . S
C1556 C1557 1.386 . S
C1556 C1558 1.391 . S
C1557 C1556 1.386 . S
C1557 C1561 1.393 . S
C1558 H1550 0.950 . S
C1558 C1556 1.391 . S
C1558 C1559 1.400 . S
C1559 C1558 1.400 . S
C1559 C1560 1.398 . S
C1559 C1565 1.491 . S
C1560 H1551 0.950 . S
C1560 C1559 1.398 . S
C1560 C1561 1.391 . S
C1561 H1549 0.950 . S
C1561 C1557 1.393 . S
C1561 C1560 1.391 . S
C1562 H1552 0.950 . S
C1562 C1563 1.386 . S
C1562 C1564 1.391 . S
C1563 C1562 1.386 . S
C1563 C1567 1.393 . S
C1564 H1553 0.950 . S
C1564 C1562 1.391 . S
C1564 C1565 1.400 . S
C1565 C1559 1.491 . S
C1565 C1564 1.400 . S
C1565 C1566 1.398 . S
C1566 H1554 0.950 . S
C1566 C1565 1.398 . S
C1566 C1567 1.391 . S
C1567 H1555 0.950 . S
C1567 C1563 1.393 . S
C1567 C1566 1.391 . S
H1568 C1576 0.950 . S
H1569 C1581 0.950 . S
H1570 C1578 0.950 . S
H1571 C1580 0.950 . S
H1572 C1582 0.950 . S
H1573 C1584 0.950 . S
H1574 C1586 0.950 . S
H1575 C1587 0.950 . S
C1576 H1568 0.950 . S
C1576 C1577 1.386 . S
C1576 C1578 1.391 . S
C1577 C1576 1.386 . S
C1577 C1581 1.393 . S
C1578 H1570 0.950 . S
C1578 C1576 1.391 . S
C1578 C1579 1.400 . S
C1579 C1578 1.400 . S
C1579 C1580 1.398 . S
C1579 C1585 1.491 . S
C1580 H1571 0.950 . S
C1580 C1579 1.398 . S
C1580 C1581 1.391 . S
C1581 H1569 0.950 . S
C1581 C1577 1.393 . S
C1581 C1580 1.391 . S
C1582 H1572 0.950 . S
C1582 C1583 1.386 . S
C1582 C1584 1.391 . S
C1583 C1582 1.386 . S
C1583 C1587 1.393 . S
C1584 H1573 0.950 . S
C1584 C1582 1.391 . S
C1584 C1585 1.400 . S
C1585 C1579 1.491 . S
C1585 C1584 1.400 . S
C1585 C1586 1.398 . S
C1586 H1574 0.950 . S
C1586 C1585 1.398 . S
C1586 C1587 1.391 . S
C1587 H1575 0.950 . S
C1587 C1583 1.393 . S
C1587 C1586 1.391 . S
H1588 C1596 0.950 . S
H1589 C1601 0.950 . S
H1590 C1598 0.950 . S
H1591 C1600 0.950 . S
H1592 C1602 0.950 . S
H1593 C1604 0.950 . S
H1594 C1606 0.950 . S
H1595 C1607 0.950 . S
C1596 H1588 0.950 . S
C1596 C1597 1.386 . S
C1596 C1598 1.391 . S
C1597 C1596 1.386 . S
C1597 C1601 1.393 . S
C1598 H1590 0.950 . S
C1598 C1596 1.391 . S
C1598 C1599 1.400 . S
C1599 C1598 1.400 . S
C1599 C1600 1.398 . S
C1599 C1605 1.491 . S
C1600 H1591 0.950 . S
C1600 C1599 1.398 . S
C1600 C1601 1.391 . S
C1601 H1589 0.950 . S
C1601 C1597 1.393 . S
C1601 C1600 1.391 . S
C1602 H1592 0.950 . S
C1602 C1603 1.386 . S
C1602 C1604 1.391 . S
C1603 C1602 1.386 . S
C1603 C1607 1.393 . S
C1604 H1593 0.950 . S
C1604 C1602 1.391 . S
C1604 C1605 1.400 . S
C1605 C1599 1.491 . S
C1605 C1604 1.400 . S
C1605 C1606 1.398 . S
C1606 H1594 0.950 . S
C1606 C1605 1.398 . S
C1606 C1607 1.391 . S
C1607 H1595 0.950 . S
C1607 C1603 1.393 . S
C1607 C1606 1.391 . S
H1608 C1616 0.950 . S
H1609 C1621 0.950 . S
H1610 C1618 0.941 1_554 S
H1611 C1620 0.950 . S
H1612 C1622 0.950 . S
H1613 C1624 0.941 1_556 S
H1614 C1626 0.950 . S
H1615 C1627 0.950 . S
C1616 H1608 0.950 . S
C1616 C1617 1.386 . S
C1616 C1618 1.391 . S
C1617 C1616 1.386 . S
C1617 C1621 1.393 . S
C1618 H1610 0.941 1_556 S
C1618 C1616 1.391 . S
C1618 C1619 1.400 . S
C1619 C1618 1.400 . S
C1619 C1620 1.398 . S
C1619 C1625 1.491 1_556 S
C1620 H1611 0.950 . S
C1620 C1619 1.398 . S
C1620 C1621 1.391 . S
C1621 H1609 0.950 . S
C1621 C1617 1.393 . S
C1621 C1620 1.391 . S
C1622 H1612 0.950 . S
C1622 C1623 1.386 . S
C1622 C1624 1.391 . S
C1623 C1622 1.386 . S
C1623 C1627 1.393 . S
C1624 H1613 0.941 1_554 S
C1624 C1622 1.391 . S
C1624 C1625 1.400 . S
C1625 C1619 1.491 1_554 S
C1625 C1624 1.400 . S
C1625 C1626 1.398 . S
C1626 H1614 0.950 . S
C1626 C1625 1.398 . S
C1626 C1627 1.391 . S
C1627 H1615 0.950 . S
C1627 C1623 1.393 . S
C1627 C1626 1.391 . S
H1628 C1636 0.950 . S
H1629 C1641 0.950 . S
H1630 C1638 0.950 . S
H1631 C1640 0.950 . S
H1632 C1642 0.950 . S
H1633 C1644 0.950 . S
H1634 C1646 0.950 . S
H1635 C1647 0.950 . S
C1636 H1628 0.950 . S
C1636 C1637 1.386 . S
C1636 C1638 1.391 . S
C1637 C1636 1.386 . S
C1637 C1641 1.393 . S
C1638 H1630 0.950 . S
C1638 C1636 1.391 . S
C1638 C1639 1.400 . S
C1639 C1638 1.400 . S
C1639 C1640 1.398 . S
C1639 C1645 1.491 1_455 S
C1640 H1631 0.950 . S
C1640 C1639 1.398 . S
C1640 C1641 1.391 . S
C1641 H1629 0.950 . S
C1641 C1637 1.393 . S
C1641 C1640 1.391 . S
C1642 H1632 0.950 . S
C1642 C1643 1.386 . S
C1642 C1644 1.391 . S
C1643 C1642 1.386 . S
C1643 C1647 1.393 . S
C1644 H1633 0.950 . S
C1644 C1642 1.391 . S
C1644 C1645 1.400 . S
C1645 C1639 1.491 1_655 S
C1645 C1644 1.400 . S
C1645 C1646 1.398 . S
C1646 H1634 0.950 . S
C1646 C1645 1.398 . S
C1646 C1647 1.391 . S
C1647 H1635 0.950 . S
C1647 C1643 1.393 . S
C1647 C1646 1.391 . S
H1648 C1656 0.950 . S
H1649 C1661 0.950 . S
H1650 C1658 0.950 1_556 S
H1651 C1660 0.950 1_545 S
H1652 C1662 0.950 . S
H1653 C1664 0.950 1_554 S
H1654 C1666 0.950 1_565 S
H1655 C1667 0.950 . S
C1656 H1648 0.950 . S
C1656 C1657 1.386 . S
C1656 C1658 1.391 . S
C1657 C1656 1.386 . S
C1657 C1661 1.393 . S
C1658 H1650 0.950 1_554 S
C1658 C1656 1.391 . S
C1658 C1659 1.400 . S
C1659 C1658 1.400 . S
C1659 C1660 1.398 . S
C1659 C1665 1.491 1_564 S
C1660 H1651 0.950 1_565 S
C1660 C1659 1.398 . S
C1660 C1661 1.391 . S
C1661 H1649 0.950 . S
C1661 C1657 1.393 . S
C1661 C1660 1.391 . S
C1662 H1652 0.950 . S
C1662 C1663 1.386 . S
C1662 C1664 1.391 . S
C1663 C1662 1.386 . S
C1663 C1667 1.393 . S
C1664 H1653 0.950 1_556 S
C1664 C1662 1.391 . S
C1664 C1665 1.400 . S
C1665 C1659 1.491 1_546 S
C1665 C1664 1.400 . S
C1665 C1666 1.398 . S
C1666 H1654 0.950 1_545 S
C1666 C1665 1.398 . S
C1666 C1667 1.391 . S
C1667 H1655 0.950 . S
C1667 C1663 1.393 . S
C1667 C1666 1.391 . S
H1668 C1676 0.950 . S
H1669 C1681 0.950 . S
H1670 C1678 0.950 . S
H1671 C1680 0.950 . S
H1672 C1682 0.950 . S
H1673 C1684 0.950 . S
H1674 C1686 0.950 . S
H1675 C1687 0.950 . S
C1676 H1668 0.950 . S
C1676 C1677 1.386 . S
C1676 C1678 1.391 . S
C1677 C1676 1.386 . S
C1677 C1681 1.393 . S
C1678 H1670 0.950 . S
C1678 C1676 1.391 . S
C1678 C1679 1.400 . S
C1679 C1678 1.400 . S
C1679 C1680 1.398 . S
C1679 C1685 1.491 . S
C1680 H1671 0.950 . S
C1680 C1679 1.398 . S
C1680 C1681 1.391 . S
C1681 H1669 0.950 . S
C1681 C1677 1.393 . S
C1681 C1680 1.391 . S
C1682 H1672 0.950 . S
C1682 C1683 1.386 . S
C1682 C1684 1.391 . S
C1683 C1682 1.386 . S
C1683 C1687 1.393 . S
C1684 H1673 0.950 . S
C1684 C1682 1.391 . S
C1684 C1685 1.400 . S
C1685 C1679 1.491 . S
C1685 C1684 1.400 . S
C1685 C1686 1.398 . S
C1686 H1674 0.950 . S
C1686 C1685 1.398 . S
C1686 C1687 1.391 . S
C1687 H1675 0.950 . S
C1687 C1683 1.393 . S
C1687 C1686 1.391 . S
H1688 C1696 0.950 . S
H1689 C1701 0.950 . S
H1690 C1698 0.950 . S
H1691 C1700 0.950 1_554 S
H1692 C1702 0.950 . S
H1693 C1704 0.950 . S
H1694 C1706 0.950 1_556 S
H1695 C1707 0.950 . S
C1696 H1688 0.950 . S
C1696 C1697 1.386 . S
C1696 C1698 1.391 . S
C1697 C1696 1.386 . S
C1697 C1701 1.393 . S
C1698 H1690 0.950 . S
C1698 C1696 1.391 . S
C1698 C1699 1.400 . S
C1699 C1698 1.400 . S
C1699 C1700 1.398 . S
C1699 C1705 1.491 1_656 S
C1700 H1691 0.950 1_556 S
C1700 C1699 1.398 . S
C1700 C1701 1.391 . S
C1701 H1689 0.950 . S
C1701 C1697 1.393 . S
C1701 C1700 1.391 . S
C1702 H1692 0.950 . S
C1702 C1703 1.386 . S
C1702 C1704 1.391 . S
C1703 C1702 1.386 . S
C1703 C1707 1.393 . S
C1704 H1693 0.950 . S
C1704 C1702 1.391 . S
C1704 C1705 1.400 . S
C1705 C1699 1.491 1_454 S
C1705 C1704 1.400 . S
C1705 C1706 1.398 . S
C1706 H1694 0.950 1_554 S
C1706 C1705 1.398 . S
C1706 C1707 1.391 . S
C1707 H1695 0.950 . S
C1707 C1703 1.393 . S
C1707 C1706 1.391 . S
H1708 C1716 0.950 . S
H1709 C1721 0.950 . S
H1710 C1718 0.950 . S
H1711 C1720 0.950 . S
H1712 C1722 0.950 . S
H1713 C1724 0.950 . S
H1714 C1726 0.950 . S
H1715 C1727 0.950 . S
C1716 H1708 0.950 . S
C1716 C1717 1.386 . S
C1716 C1718 1.391 . S
C1717 C1716 1.386 . S
C1717 C1721 1.393 . S
C1718 H1710 0.950 . S
C1718 C1716 1.391 . S
C1718 C1719 1.400 . S
C1719 C1718 1.400 . S
C1719 C1720 1.398 . S
C1719 C1725 1.491 1_565 S
C1720 H1711 0.950 . S
C1720 C1719 1.398 . S
C1720 C1721 1.391 . S
C1721 H1709 0.950 . S
C1721 C1717 1.393 . S
C1721 C1720 1.391 . S
C1722 H1712 0.950 . S
C1722 C1723 1.386 . S
C1722 C1724 1.391 . S
C1723 C1722 1.386 . S
C1723 C1727 1.393 . S
C1724 H1713 0.950 . S
C1724 C1722 1.391 . S
C1724 C1725 1.400 . S
C1725 C1719 1.491 1_545 S
C1725 C1724 1.400 . S
C1725 C1726 1.398 . S
C1726 H1714 0.950 . S
C1726 C1725 1.398 . S
C1726 C1727 1.391 . S
C1727 H1715 0.950 . S
C1727 C1723 1.393 . S
C1727 C1726 1.391 . S
C1017 C392 1.358 . S
C1023 C63 1.240 . S
C1037 C476 1.341 . S
C1043 C147 1.277 . S
C1057 C231 1.241 . S
C1063 C56 1.358 . S
C1077 C315 1.274 . S
C1083 C140 1.344 . S
C1097 C399 1.248 . S
C1103 C224 1.358 . S
C1117 C308 1.339 . S
C1123 C483 1.279 . S
C1137 C728 1.336 . S
C1143 C567 1.280 . S
C1157 C651 1.262 . S
C1163 C812 1.331 . S
C1177 C896 1.358 . S
C1183 C735 1.247 . S
C1197 C819 1.252 . S
C1203 C980 1.357 . S
C1217 C903 1.246 . S
C1223 C560 1.358 . S
C1237 C644 1.330 . S
C1243 C987 1.266 . S
C1257 C403 1.415 . S
C1263 C72 1.303 . S
C1277 C156 1.327 . S
C1283 C487 1.418 . S
C1297 C240 1.345 . S
C1303 C67 1.404 . S
C1317 C324 1.310 . S
C1323 C151 1.393 . S
C1337 C235 1.417 . S
C1343 C408 1.305 . S
C1357 C319 1.385 . S
C1363 C492 1.337 . S
C1377 C739 1.415 . S
C1383 C576 1.303 . S
C1397 C660 1.301 . S
C1403 C823 1.405 . S
C1417 C744 1.305 . S
C1423 C907 1.417 . S
C1437 C991 1.417 . S
C1443 C828 1.330 . S
C1457 C912 1.321 . S
C1463 C571 1.420 . S
C1477 C655 1.407 . S
C1483 C996 1.300 . S
C1497 C906 1.892 . S
C1503 C66 1.876 . S
C1517 C150 1.884 . S
C1523 C990 1.892 . S
C1537 C234 1.886 . S
C1543 C570 1.890 . S
C1557 C318 1.885 . S
C1563 C654 1.881 . S
C1577 C402 1.896 . S
C1583 C738 1.879 . S
C1597 C822 1.894 . S
C1603 C486 1.874 . S
C1617 C831 2.017 . S
C1623 C75 2.022 . S
C1637 C915 2.036 . S
C1643 C159 2.028 . S
C1657 C243 2.015 . S
C1663 C999 2.026 . S
C1677 C327 2.030 . S
C1683 C579 2.035 . S
C1697 C663 2.036 . S
C1703 C411 2.029 . S
C1717 C747 2.030 . S
C1723 C495 2.035 . S
