# Generated by pormake.
# Topology dia, (4)-cn, num edge types: 1
# Building blocks:
#     Node 0, Type 0, BuildingBlock: TATPOV_clean_sbu_0, # of connection points: 4
#     Node 1, Type 0, BuildingBlock: TATPOV_clean_sbu_0, # of connection points: 4
#     Node 2, Type 0, BuildingBlock: TATPOV_clean_sbu_0, # of connection points: 4
#     Node 3, Type 0, BuildingBlock: TATPOV_clean_sbu_0, # of connection points: 4
#     Node 4, Type 0, BuildingBlock: TATPOV_clean_sbu_0, # of connection points: 4
#     Node 5, Type 0, BuildingBlock: TATPOV_clean_sbu_0, # of connection points: 4
#     Node 6, Type 0, BuildingBlock: TATPOV_clean_sbu_0, # of connection points: 4
#     Node 7, Type 0, BuildingBlock: TATPOV_clean_sbu_0, # of connection points: 4
#     Edge 8, Type (0, 0), BuildingBlock: ZUJKAS_clean_linker_0, # of connection points: 2
#     Edge 9, Type (0, 0), BuildingBlock: ZUJKAS_clean_linker_0, # of connection points: 2
#     Edge 10, Type (0, 0), BuildingBlock: ZUJKAS_clean_linker_0, # of connection points: 2
#     Edge 11, Type (0, 0), BuildingBlock: ZUJKAS_clean_linker_0, # of connection points: 2
#     Edge 12, Type (0, 0), BuildingBlock: ZUJKAS_clean_linker_0, # of connection points: 2
#     Edge 13, Type (0, 0), BuildingBlock: ZUJKAS_clean_linker_0, # of connection points: 2
#     Edge 14, Type (0, 0), BuildingBlock: ZUJKAS_clean_linker_0, # of connection points: 2
#     Edge 15, Type (0, 0), BuildingBlock: ZUJKAS_clean_linker_0, # of connection points: 2
#     Edge 16, Type (0, 0), BuildingBlock: ZUJKAS_clean_linker_0, # of connection points: 2
#     Edge 17, Type (0, 0), BuildingBlock: ZUJKAS_clean_linker_0, # of connection points: 2
#     Edge 18, Type (0, 0), BuildingBlock: ZUJKAS_clean_linker_0, # of connection points: 2
#     Edge 19, Type (0, 0), BuildingBlock: ZUJKAS_clean_linker_0, # of connection points: 2
#     Edge 20, Type (0, 0), BuildingBlock: ZUJKAS_clean_linker_0, # of connection points: 2
#     Edge 21, Type (0, 0), BuildingBlock: ZUJKAS_clean_linker_0, # of connection points: 2
#     Edge 22, Type (0, 0), BuildingBlock: ZUJKAS_clean_linker_0, # of connection points: 2
#     Edge 23, Type (0, 0), BuildingBlock: ZUJKAS_clean_linker_0, # of connection points: 2
# Relax obj value: 0.006
# Max RMSD: 0.039
# Mean RMSD: 0.039
data_MOF--net-dia--node1-TATPOV_clean_sbu_0--edge1-ZUJKAS_clean_linker_0
_symmetry_space_group_name_H-M    P1
_symmetry_Int_Tables_number       1
_symmetry_cell_setting            triclinic
loop_
_symmetry_equiv_pos_as_xyz
'x, y, z'
_cell_length_a     41.951929
_cell_length_b     47.13718
_cell_length_c     47.125884
_cell_angle_alpha  93.370438
_cell_angle_beta   92.564164
_cell_angle_gamma 92.68424
loop_
_atom_site_label
_atom_site_type_symbol
_atom_site_fract_x
_atom_site_fract_y
_atom_site_fract_z
_atom_type_partial_charge
Zn0 Zn 0.19015 0.09971 0.61155 0.0
Zn1 Zn 0.14542 0.12942 0.63521 0.0
O2 O 0.16276 0.10383 0.66661 0.0
O3 O 0.20218 0.0818 0.647 0.0
O4 O 0.11358 0.15401 0.65573 0.0
O5 O 0.2148 0.13396 0.60107 0.0
O6 O 0.17707 0.15934 0.61923 0.0
C7 C 0.18538 0.08669 0.66814 0.0
C8 C 0.12781 0.08769 0.5843 0.0
O9 O 0.11919 0.10638 0.60274 0.0
O10 O 0.15666 0.08094 0.5841 0.0
C11 C 0.09766 0.14508 0.6761 0.0
O12 O 0.10097 0.11891 0.68352 0.0
C13 C 0.20323 0.15784 0.60646 0.0
Zn14 Zn 0.80312 0.37722 0.89692 0.0
Zn15 Zn 0.85067 0.35598 0.86921 0.0
O16 O 0.83414 0.32425 0.89489 0.0
O17 O 0.79167 0.34128 0.91432 0.0
O18 O 0.88393 0.33665 0.84517 0.0
O19 O 0.77937 0.38728 0.8621 0.0
O20 O 0.81942 0.37101 0.83844 0.0
C21 C 0.81052 0.32139 0.91082 0.0
C22 C 0.86416 0.40685 0.91147 0.0
O23 O 0.87467 0.3892 0.89297 0.0
O24 O 0.83489 0.40562 0.91705 0.0
C25 C 0.89883 0.31531 0.85311 0.0
O26 O 0.89386 0.30597 0.87833 0.0
C27 C 0.79254 0.38268 0.83881 0.0
Zn28 Zn 0.6602 0.09966 0.10548 0.0
Zn29 Zn 0.62856 0.1316 0.13543 0.0
O30 O 0.6401 0.09931 0.16195 0.0
O31 O 0.65589 0.06737 0.13046 0.0
O32 O 0.60361 0.15874 0.16024 0.0
O33 O 0.69981 0.12454 0.10852 0.0
O34 O 0.667 0.15689 0.12258 0.0
C35 C 0.64868 0.07417 0.15561 0.0
C36 C 0.60243 0.1081 0.07702 0.0
O37 O 0.59652 0.11778 0.10198 0.0
O38 O 0.63038 0.10138 0.0715 0.0
C39 C 0.57591 0.15136 0.16803 0.0
O40 O 0.56368 0.12586 0.15986 0.0
C41 C 0.69433 0.15035 0.11398 0.0
Zn42 Zn 0.83999 0.91213 0.39983 0.0
Zn43 Zn 0.86966 0.87937 0.36747 0.0
O44 O 0.85369 0.85315 0.3986 0.0
O45 O 0.83972 0.88534 0.43083 0.0
O46 O 0.89402 0.85376 0.34039 0.0
O47 O 0.80229 0.91314 0.37303 0.0
O48 O 0.83315 0.894 0.34144 0.0
C49 C 0.84459 0.85976 0.42352 0.0
C50 C 0.90094 0.93554 0.39434 0.0
O51 O 0.90396 0.9106 0.38297 0.0
O52 O 0.8737 0.94322 0.4011 0.0
C53 C 0.90868 0.83236 0.34846 0.0
O54 O 0.90814 0.82626 0.37529 0.0
C55 C 0.80715 0.90555 0.3475 0.0
Zn56 Zn 0.15049 0.59759 0.07996 0.0
Zn57 Zn 0.12196 0.63087 0.11392 0.0
O58 O 0.14012 0.60074 0.14008 0.0
O59 O 0.15432 0.56819 0.10829 0.0
O60 O 0.0982 0.65787 0.14013 0.0
O61 O 0.18649 0.62568 0.07597 0.0
O62 O 0.15727 0.65707 0.09765 0.0
C63 C 0.15031 0.57613 0.1339 0.0
C64 C 0.08781 0.60156 0.05977 0.0
O65 O 0.0864 0.6144 0.08429 0.0
O66 O 0.11441 0.59408 0.05113 0.0
C67 C 0.08508 0.64989 0.16238 0.0
O68 O 0.08702 0.62333 0.16901 0.0
C69 C 0.18218 0.65113 0.08429 0.0
Zn70 Zn 0.31505 0.41332 0.39293 0.0
Zn71 Zn 0.35703 0.38144 0.36844 0.0
O72 O 0.33523 0.35483 0.39654 0.0
O73 O 0.30216 0.38305 0.41795 0.0
O74 O 0.38824 0.35652 0.34786 0.0
O75 O 0.28993 0.41673 0.35686 0.0
O76 O 0.32828 0.39504 0.33515 0.0
C77 C 0.31423 0.35906 0.41496 0.0
C78 C 0.37869 0.43691 0.40268 0.0
O79 O 0.38557 0.41384 0.38928 0.0
O80 O 0.3498 0.44234 0.40606 0.0
C81 C 0.37864 0.33258 0.33576 0.0
O82 O 0.34852 0.32408 0.33733 0.0
C83 C 0.30208 0.40773 0.33423 0.0
Zn84 Zn 0.33989 0.90157 0.90358 0.0
Zn85 Zn 0.37116 0.87178 0.87044 0.0
O86 O 0.35837 0.84433 0.90156 0.0
O87 O 0.34275 0.87484 0.93454 0.0
O88 O 0.39581 0.84763 0.84246 0.0
O89 O 0.30085 0.90045 0.87813 0.0
O90 O 0.33316 0.8857 0.84556 0.0
C91 C 0.34937 0.84978 0.92675 0.0
C92 C 0.39866 0.92911 0.89603 0.0
O93 O 0.4039 0.90439 0.88526 0.0
O94 O 0.37098 0.93484 0.90333 0.0
C95 C 0.41728 0.8314 0.85087 0.0
O96 O 0.42351 0.83016 0.87833 0.0
C97 C 0.30619 0.895 0.85226 0.0
Zn98 Zn 0.68296 0.60729 0.5927 0.0
Zn99 Zn 0.64487 0.63175 0.62844 0.0
O100 O 0.66695 0.60115 0.65174 0.0
O101 O 0.69632 0.57961 0.62028 0.0
O102 O 0.61706 0.65185 0.65693 0.0
O103 O 0.7098 0.64263 0.5902 0.0
O104 O 0.67413 0.66484 0.61499 0.0
C105 C 0.68628 0.58192 0.64514 0.0
C106 C 0.61765 0.60188 0.5725 0.0
O107 O 0.61308 0.61402 0.5968 0.0
O108 O 0.64575 0.59766 0.56511 0.0
C109 C 0.5974 0.66993 0.649 0.0
O110 O 0.59492 0.67515 0.62193 0.0
C111 C 0.69949 0.66536 0.601 0.0
H112 H 0.2615 0.35813 0.44612 0.0
H113 H 0.24602 0.32414 0.48045 0.0
H114 H 0.32762 0.27535 0.46131 0.0
H115 H 0.34364 0.30969 0.42656 0.0
H116 H 0.2336 0.2634 0.47086 0.0
H117 H 0.33373 0.29367 0.5501 0.0
H118 H 0.32238 0.3163 0.5221 0.0
H119 H 0.34387 0.28507 0.51398 0.0
C120 C 0.27622 0.34016 0.44905 0.0
C121 C 0.30398 0.3367 0.43376 0.0
C122 C 0.26726 0.32075 0.46868 0.0
C123 C 0.28592 0.29757 0.47364 0.0
C124 C 0.31321 0.29344 0.45797 0.0
H125 H 0.26333 0.16309 0.58753 0.0
H126 H 0.28416 0.19928 0.55749 0.0
C127 C 0.32217 0.31288 0.43803 0.0
C128 C 0.27633 0.27798 0.49539 0.0
H129 H 0.29621 0.25802 0.56209 0.0
C130 C 0.24728 0.26211 0.49079 0.0
C131 C 0.29426 0.2766 0.52133 0.0
C132 C 0.32523 0.2939 0.52745 0.0
C133 C 0.23569 0.24461 0.51144 0.0
C134 C 0.25332 0.24357 0.53764 0.0
C135 C 0.28258 0.25923 0.54212 0.0
C136 C 0.24269 0.22474 0.55975 0.0
C137 C 0.20505 0.22692 0.50474 0.0
C138 C 0.21316 0.22794 0.57221 0.0
C139 C 0.20105 0.20717 0.58943 0.0
C140 C 0.21842 0.18302 0.59436 0.0
C141 C 0.24917 0.18127 0.58381 0.0
C142 C 0.26118 0.20195 0.56667 0.0
H143 H 0.19852 0.22524 0.48157 0.0
H144 H 0.20707 0.20512 0.51218 0.0
H145 H 0.18532 0.23699 0.51585 0.0
H146 H 0.19887 0.24579 0.56756 0.0
H147 H 0.17737 0.20916 0.59735 0.0
H148 H 0.65973 0.56889 0.69545 0.0
H149 H 0.67641 0.53208 0.7272 0.0
H150 H 0.75327 0.51229 0.67278 0.0
H151 H 0.73702 0.54856 0.6412 0.0
H152 H 0.68438 0.46996 0.70695 0.0
H153 H 0.79429 0.52661 0.75629 0.0
H154 H 0.76174 0.5451 0.74064 0.0
H155 H 0.78897 0.52725 0.71824 0.0
C156 C 0.68037 0.55688 0.69049 0.0
C157 C 0.69701 0.56159 0.66583 0.0
C158 C 0.68974 0.53584 0.70851 0.0
C159 C 0.7161 0.51968 0.70226 0.0
C160 C 0.73301 0.52472 0.678 0.0
H161 H 0.82114 0.39343 0.78904 0.0
H162 H 0.80076 0.42305 0.75189 0.0
C163 C 0.72358 0.54543 0.65996 0.0
C164 C 0.7258 0.49687 0.72044 0.0
H165 H 0.78643 0.47799 0.76494 0.0
C166 C 0.70656 0.47168 0.71982 0.0
C167 C 0.75499 0.49917 0.73671 0.0
C168 C 0.77619 0.52603 0.73829 0.0
C169 C 0.71598 0.44846 0.73496 0.0
C170 C 0.74507 0.45085 0.75151 0.0
C171 C 0.7643 0.47609 0.752 0.0
C172 C 0.75497 0.42852 0.7704 0.0
C173 C 0.69498 0.42148 0.7327 0.0
C174 C 0.73559 0.42108 0.79251 0.0
C175 C 0.74706 0.40413 0.81356 0.0
C176 C 0.7783 0.39454 0.81311 0.0
C177 C 0.79695 0.4004 0.78992 0.0
C178 C 0.7854 0.41743 0.76878 0.0
H179 H 0.68004 0.41963 0.71254 0.0
H180 H 0.70938 0.40237 0.7338 0.0
H181 H 0.67864 0.42177 0.75058 0.0
H182 H 0.71231 0.4298 0.79452 0.0
H183 H 0.73203 0.39992 0.8311 0.0
H184 H 0.54481 0.08157 0.08443 0.0
H185 H 0.50991 0.05685 0.04689 0.0
H186 H 0.56726 0.09329 0.98312 0.0
H187 H 0.60329 0.11649 0.02068 0.0
H188 H 0.47346 0.06749 0.00284 0.0
H189 H 0.57769 0.01104 0.96406 0.0
H190 H 0.58007 0.03402 0.99606 0.0
H191 H 0.58202 0.04882 0.96176 0.0
C192 C 0.54939 0.08485 0.06239 0.0
C193 C 0.57677 0.1006 0.0553 0.0
C194 C 0.5296 0.07062 0.04094 0.0
C195 C 0.53669 0.07239 0.01219 0.0
C196 C 0.56208 0.0907 0.00515 0.0
H197 H 0.39963 0.98531 0.88705 0.0
H198 H 0.43614 0.02239 0.9105 0.0
C199 C 0.58235 0.10426 0.02656 0.0
C200 C 0.51899 0.05346 0.98998 0.0
H201 H 0.52866 0.00114 0.93818 0.0
C202 C 0.48551 0.05306 0.98861 0.0
C203 C 0.53478 0.03421 0.97178 0.0
C204 C 0.57058 0.03177 0.97363 0.0
C205 C 0.46733 0.03366 0.97001 0.0
C206 C 0.48314 0.01498 0.95125 0.0
C207 C 0.51662 0.01574 0.95224 0.0
C208 C 0.46534 0.99293 0.9322 0.0
C209 C 0.43144 0.03249 0.97183 0.0
C210 C 0.47156 0.96405 0.93436 0.0
C211 C 0.45152 0.94285 0.91999 0.0
C212 C 0.42479 0.95033 0.90369 0.0
C213 C 0.4201 0.97914 0.89968 0.0
C214 C 0.44063 0.00029 0.91338 0.0
H215 H 0.42405 0.04237 0.99234 0.0
H216 H 0.42075 0.04441 0.95447 0.0
H217 H 0.42141 0.01021 0.9696 0.0
H218 H 0.49071 0.95785 0.94853 0.0
H219 H 0.45536 0.92074 0.92357 0.0
H220 H 0.9215 0.8422 0.29309 0.0
H221 H 0.95089 0.81243 0.25982 0.0
H222 H 0.96507 0.75238 0.32418 0.0
H223 H 0.93596 0.78192 0.35755 0.0
H224 H 0.01687 0.79296 0.26897 0.0
H225 H 0.92441 0.70449 0.25244 0.0
H226 H 0.91539 0.73979 0.26581 0.0
H227 H 0.93457 0.71613 0.28889 0.0
C228 C 0.93079 0.82262 0.30015 0.0
C229 C 0.92626 0.81444 0.32801 0.0
C230 C 0.94763 0.80567 0.28112 0.0
C231 C 0.95988 0.78006 0.28944 0.0
C232 C 0.95549 0.77189 0.31721 0.0
H233 H 0.06083 0.64115 0.21421 0.0
H234 H 0.03136 0.67387 0.24404 0.0
C235 C 0.93891 0.78889 0.33629 0.0
C236 C 0.97765 0.76194 0.26934 0.0
H237 H 0.97488 0.69656 0.23375 0.0
C238 C 0.00765 0.77196 0.26105 0.0
C239 C 0.9656 0.73454 0.25917 0.0
C240 C 0.93312 0.72306 0.26679 0.0
C241 C 0.0264 0.75492 0.24355 0.0
C242 C 0.01442 0.72737 0.23345 0.0
C243 C 0.98414 0.71761 0.24146 0.0
C244 C 0.03313 0.70796 0.21524 0.0
C245 C 0.05932 0.76623 0.23696 0.0
C246 C 0.04389 0.71604 0.18892 0.0
C247 C 0.06108 0.69739 0.17186 0.0
C248 C 0.06746 0.67009 0.18057 0.0
C249 C 0.05639 0.66199 0.2068 0.0
C250 C 0.03946 0.68069 0.22391 0.0
H251 H 0.06824 0.78379 0.25247 0.0
H252 H 0.07669 0.74916 0.23707 0.0
H253 H 0.05839 0.77474 0.2155 0.0
H254 H 0.03866 0.73665 0.18136 0.0
H255 H 0.06899 0.70425 0.15168 0.0
H256 H 0.31704 0.90666 0.79717 0.0
H257 H 0.28396 0.9355 0.76717 0.0
H258 H 0.21095 0.93461 0.82867 0.0
H259 H 0.24371 0.90587 0.85878 0.0
H260 H 0.21414 0.93312 0.74514 0.0
H261 H 0.25052 0.01934 0.82802 0.0
H262 H 0.27117 0.98666 0.82471 0.0
H263 H 0.23258 0.98685 0.83963 0.0
C264 C 0.29347 0.9117 0.80381 0.0
C265 C 0.28322 0.90448 0.83055 0.0
C266 C 0.27464 0.92823 0.7867 0.0
C267 C 0.24539 0.93754 0.79609 0.0
C268 C 0.23365 0.92786 0.8213 0.0
H269 H 0.14143 0.06681 0.70449 0.0
H270 H 0.15026 0.0307 0.73943 0.0
C271 C 0.25243 0.91143 0.83843 0.0
C272 C 0.22968 0.96051 0.78175 0.0
H273 H 0.22216 0.03244 0.78722 0.0
C274 C 0.21526 0.95474 0.75451 0.0
C275 C 0.23145 0.98869 0.79412 0.0
C276 C 0.24739 0.996 0.82316 0.0
C277 C 0.20341 0.97673 0.73887 0.0
C278 C 0.20635 0.00499 0.75082 0.0
C279 C 0.21965 0.01062 0.77844 0.0
C280 C 0.2009 0.02915 0.73309 0.0
C281 C 0.18938 0.97003 0.70908 0.0
C282 C 0.22669 0.04067 0.71901 0.0
C283 C 0.22177 0.06095 0.69921 0.0
C284 C 0.19098 0.07026 0.69333 0.0
C285 C 0.16543 0.06013 0.70887 0.0
C286 C 0.17036 0.03945 0.72859 0.0
H287 H 0.1869 0.94677 0.70354 0.0
H288 H 0.16553 0.97912 0.70679 0.0
H289 H 0.20494 0.98005 0.69363 0.0
H290 H 0.25043 0.03299 0.72241 0.0
H291 H 0.24187 0.0685 0.68758 0.0
H292 H 0.92602 0.42283 0.90026 0.0
H293 H 0.95998 0.46127 0.9251 0.0
H294 H 0.88428 0.47993 0.98115 0.0
H295 H 0.8503 0.44194 0.95671 0.0
H296 H 0.94084 0.52361 0.93534 0.0
H297 H 0.96734 0.46575 0.03273 0.0
H298 H 0.95561 0.44744 0.99885 0.0
H299 H 0.92641 0.46485 0.01936 0.0
C300 C 0.91669 0.43505 0.91794 0.0
C301 C 0.88549 0.42929 0.92652 0.0
C302 C 0.93602 0.45702 0.93199 0.0
C303 C 0.92453 0.47323 0.95493 0.0
C304 C 0.89353 0.4675 0.96356 0.0
H305 H 0.02648 0.59497 0.07717 0.0
H306 H 0.98173 0.56861 0.05062 0.0
C307 C 0.87419 0.44578 0.9495 0.0
C308 C 0.94483 0.49617 0.97012 0.0
H309 H 0.98695 0.5133 0.03278 0.0
C310 C 0.95097 0.52146 0.95665 0.0
C311 C 0.95742 0.49333 0.99804 0.0
C312 C 0.95163 0.46636 0.01319 0.0
C313 C 0.96976 0.54406 0.9704 0.0
C314 C 0.98322 0.54091 0.99804 0.0
C315 C 0.9764 0.51579 0.01169 0.0
C316 C 0.00723 0.5618 0.01206 0.0
C317 C 0.97492 0.57109 0.95524 0.0
C318 C 0.03595 0.56743 0.99888 0.0
C319 C 0.06133 0.58245 0.01388 0.0
C320 C 0.05866 0.59192 0.0425 0.0
C321 C 0.02918 0.58803 0.05512 0.0
C322 C 0.00368 0.57288 0.04003 0.0
H323 H 0.95471 0.57411 0.93983 0.0
H324 H 0.97774 0.59001 0.97048 0.0
H325 H -0.00309 0.56975 0.94309 0.0
H326 H 0.03952 0.55863 0.97757 0.0
H327 H 0.08371 0.58521 0.00352 0.0
H328 H 0.44141 0.34503 0.32466 0.0
H329 H 0.4766 0.31606 0.29602 0.0
H330 H 0.40116 0.25081 0.28162 0.0
H331 H 0.36578 0.27969 0.30969 0.0
H332 H 0.49779 0.26191 0.30261 0.0
H333 H 0.42633 0.2642 0.2011 0.0
H334 H 0.41982 0.28771 0.23169 0.0
H335 H 0.4035 0.25162 0.22953 0.0
C336 C 0.43229 0.32453 0.31536 0.0
C337 C 0.40064 0.31482 0.31931 0.0
C338 C 0.45246 0.30798 0.299 0.0
C339 C 0.44136 0.28148 0.28617 0.0
C340 C 0.41005 0.27148 0.29068 0.0
H341 H 0.51521 0.14268 0.18568 0.0
H342 H 0.4844 0.17515 0.21462 0.0
C343 C 0.38988 0.28799 0.30692 0.0
C344 C 0.46248 0.26406 0.26833 0.0
H345 H 0.46708 0.23064 0.20236 0.0
C346 C 0.49124 0.25529 0.28061 0.0
C347 C 0.454 0.25548 0.23956 0.0
C348 C 0.42439 0.26546 0.22458 0.0
C349 C 0.51114 0.23739 0.26523 0.0
C350 C 0.50226 0.22831 0.23669 0.0
C351 C 0.47379 0.23748 0.22428 0.0
C352 C 0.52162 0.20864 0.21952 0.0
C353 C 0.541 0.22759 0.27992 0.0
C354 C 0.55278 0.21673 0.21241 0.0
C355 C 0.57052 0.19818 0.19576 0.0
C356 C 0.55741 0.17118 0.18584 0.0
C357 C 0.52615 0.16324 0.19297 0.0
C358 C 0.50844 0.18181 0.20951 0.0
H359 H 0.54086 0.23136 0.3034 0.0
H360 H 0.5438 0.20457 0.27476 0.0
H361 H 0.56212 0.2395 0.27238 0.0
H362 H 0.56325 0.23753 0.21947 0.0
H363 H 0.59445 0.20505 0.19059 0.0
H364 H 0.81661 0.80664 0.41173 0.0
H365 H 0.79404 0.77533 0.44635 0.0
H366 H 0.83374 0.83258 0.51513 0.0
H367 H 0.85482 0.86445 0.48068 0.0
H368 H 0.81568 0.74649 0.48872 0.0
H369 H 0.7415 0.83103 0.53283 0.0
H370 H 0.76361 0.83499 0.50126 0.0
H371 H 0.78326 0.84121 0.536 0.0
C372 C 0.8209 0.8122 0.43425 0.0
C373 C 0.83705 0.838 0.44363 0.0
C374 C 0.8079 0.79444 0.454 0.0
C375 C 0.81127 0.80216 0.48331 0.0
C376 C 0.82975 0.82677 0.49263 0.0
H377 H 0.76253 0.68004 0.60724 0.0
H378 H 0.79079 0.71688 0.58218 0.0
C379 C 0.8421 0.84477 0.47296 0.0
C380 C 0.79477 0.78494 0.50408 0.0
H381 H 0.74339 0.78896 0.55828 0.0
C382 C 0.79983 0.75576 0.50389 0.0
C383 C 0.77353 0.79697 0.52348 0.0
C384 C 0.76486 0.82769 0.52324 0.0
C385 C 0.78451 0.73828 0.5227 0.0
C386 C 0.76457 0.75058 0.54309 0.0
C387 C 0.75921 0.77971 0.54308 0.0
C388 C 0.74776 0.73313 0.56348 0.0
C389 C 0.78906 0.70666 0.51977 0.0
C390 C 0.71422 0.73204 0.56359 0.0
C391 C 0.69806 0.71174 0.57885 0.0
C392 C 0.71534 0.69218 0.59381 0.0
C393 C 0.74882 0.69499 0.59578 0.0
C394 C 0.76492 0.7157 0.58115 0.0
H395 H 0.7971 0.69997 0.49836 0.0
H396 H 0.80767 0.70112 0.5357 0.0
H397 H 0.76659 0.69429 0.52342 0.0
H398 H 0.70051 0.74553 0.55034 0.0
H399 H 0.67222 0.70966 0.5768 0.0
H400 H 0.17757 0.591 0.18676 0.0
H401 H 0.20295 0.55899 0.21922 0.0
H402 H 0.16951 0.4867 0.16357 0.0
H403 H 0.14554 0.5186 0.13061 0.0
H404 H 0.18393 0.51634 0.24907 0.0
H405 H 0.26328 0.47498 0.16727 0.0
H406 H 0.23887 0.50486 0.16192 0.0
H407 H 0.22195 0.46902 0.15624 0.0
C408 C 0.1753 0.56825 0.18176 0.0
C409 C 0.16001 0.55721 0.15612 0.0
C410 C 0.18992 0.55 0.20017 0.0
C411 C 0.18905 0.52052 0.19328 0.0
C412 C 0.17157 0.50942 0.16875 0.0
H413 H 0.23962 0.40038 0.31776 0.0
H414 H 0.212 0.42491 0.28027 0.0
C415 C 0.15758 0.52762 0.15012 0.0
C416 C 0.2068 0.50139 0.21143 0.0
H417 H 0.26152 0.44992 0.20977 0.0
C418 C 0.20098 0.5019 0.2405 0.0
C419 C 0.22961 0.483 0.20033 0.0
C420 C 0.23908 0.48313 0.1698 0.0
C421 C 0.21689 0.4842 0.25872 0.0
C422 C 0.23828 0.4646 0.2473 0.0
C423 C 0.24459 0.46448 0.21834 0.0
C424 C 0.25516 0.44492 0.26545 0.0
C425 C 0.21122 0.48733 0.29015 0.0
C426 C 0.28873 0.44583 0.26762 0.0
C427 C 0.3046 0.43092 0.28834 0.0
C428 C 0.28698 0.41528 0.30723 0.0
C429 C 0.25361 0.41241 0.30339 0.0
C430 C 0.23784 0.42672 0.28229 0.0
H431 H 0.20214 0.50849 0.29628 0.0
H432 H 0.19297 0.47092 0.29545 0.0
H433 H 0.23346 0.48456 0.30316 0.0
H434 H 0.30258 0.45951 0.25459 0.0
H435 H 0.33036 0.43364 0.29119 0.0
H436 H 0.75482 0.29692 0.92591 0.0
H437 H 0.74757 0.26459 0.96399 0.0
H438 H 0.84966 0.25925 0.97487 0.0
H439 H 0.85715 0.29153 0.9362 0.0
H440 H 0.77817 0.20574 0.97397 0.0
H441 H 0.80864 0.29761 0.0521 0.0
H442 H 0.79364 0.30314 0.01643 0.0
H443 H 0.83312 0.29099 0.02209 0.0
C444 C 0.7757 0.28819 0.93583 0.0
C445 C 0.80652 0.29669 0.92823 0.0
C446 C 0.77153 0.26983 0.95759 0.0
C447 C 0.7981 0.25995 0.97233 0.0
C448 C 0.82894 0.26684 0.96367 0.0
H449 H 0.75758 0.14479 0.10584 0.0
H450 H 0.79035 0.17343 0.07562 0.0
C451 C 0.83314 0.28502 0.9415 0.0
C452 C 0.79291 0.24455 0.99818 0.0
H453 H 0.78492 0.25633 0.06968 0.0
C454 C 0.78039 0.21644 0.99503 0.0
C455 C 0.79542 0.25895 0.02543 0.0
C456 C 0.80839 0.28937 0.0295 0.0
C457 C 0.76907 0.20261 0.01839 0.0
C458 C 0.77052 0.21735 0.04552 0.0
C459 C 0.7841 0.24514 0.04886 0.0
C460 C 0.75513 0.20485 0.06977 0.0
C461 C 0.75401 0.17288 0.01363 0.0
C462 C 0.72549 0.21428 0.07804 0.0
C463 C 0.70669 0.19803 0.09544 0.0
C464 C 0.71735 0.1721 0.10455 0.0
C465 C 0.74859 0.16452 0.09883 0.0
C466 C 0.76735 0.18079 0.08155 0.0
H467 H 0.75091 0.16601 0.99068 0.0
H468 H 0.7694 0.15771 0.02417 0.0
H469 H 0.7303 0.17159 0.02319 0.0
H470 H 0.71578 0.23292 0.06916 0.0
H471 H 0.68276 0.20441 0.09948 0.0
H472 H 0.81691 0.91095 0.29085 0.0
H473 H 0.78216 0.93436 0.2571 0.0
H474 H 0.71125 0.94231 0.32018 0.0
H475 H 0.74544 0.91881 0.35379 0.0
H476 H 0.68551 0.9301 0.26297 0.0
H477 H 0.7749 0.02149 0.27456 0.0
H478 H 0.7902 0.988 0.26289 0.0
H479 H 0.77532 0.99253 0.29794 0.0
C480 C 0.79355 0.91698 0.29723 0.0
C481 C 0.78411 0.9135 0.32509 0.0
C482 C 0.77384 0.93048 0.27802 0.0
C483 C 0.74451 0.94053 0.28646 0.0
C484 C 0.7339 0.93487 0.31338 0.0
H485 H 0.65513 0.08419 0.2136 0.0
H486 H 0.67292 0.05055 0.24813 0.0
C487 C 0.75355 0.92151 0.33257 0.0
C488 C 0.72639 0.95958 0.26868 0.0
H489 H 0.73066 0.02557 0.24265 0.0
C490 C 0.69531 0.95097 0.25844 0.0
C491 C 0.73899 0.98708 0.26359 0.0
C492 C 0.77156 0.99805 0.27549 0.0
C493 C 0.67679 0.96893 0.24245 0.0
C494 C 0.68989 0.996 0.23648 0.0
C495 C 0.72066 0.00481 0.24733 0.0
C496 C 0.6734 0.01478 0.21717 0.0
C497 C 0.64334 0.95887 0.23227 0.0
C498 C 0.66709 0.00559 0.18859 0.0
C499 C 0.65705 0.02466 0.16896 0.0
C500 C 0.65331 0.05337 0.17749 0.0
C501 C 0.65775 0.0622 0.20644 0.0
C502 C 0.66796 0.04305 0.22613 0.0
H503 H 0.63348 0.94229 0.24572 0.0
H504 H 0.62707 0.97679 0.23228 0.0
H505 H 0.6438 0.94939 0.21019 0.0
H506 H 0.67169 0.98407 0.18111 0.0
H507 H 0.65365 0.01716 0.14681 0.0
H508 H 0.96261 0.92093 0.40514 0.0
H509 H 0.00449 0.95052 0.43235 0.0
H510 H 0.9439 0.02188 0.43266 0.0
H511 H 0.9021 0.9927 0.40564 0.0
H512 H 0.03302 0.01461 0.42547 0.0
H513 H 0.95979 0.99375 0.51856 0.0
H514 H 0.95722 0.97055 0.48656 0.0
H515 H 0.93954 0.00446 0.48672 0.0
C516 C 0.95867 0.94318 0.41017 0.0
C517 C 0.92897 0.95442 0.40365 0.0
C518 C 0.98253 0.95999 0.42575 0.0
C519 C 0.97692 0.98815 0.43471 0.0
C520 C 0.94846 0.0001 0.42602 0.0
H521 H 0.06598 0.1014 0.57167 0.0
H522 H 0.02933 0.07913 0.53386 0.0
C523 C 0.92465 0.98338 0.41062 0.0
C524 C -0.00133 0.00394 0.45614 0.0
H525 H 0.00593 0.02382 0.527 0.0
C526 C 0.02725 0.01667 0.44768 0.0
C527 C 0.99069 0.00669 0.48497 0.0
C528 C 0.96024 0.99307 0.49497 0.0
C529 C 0.0482 0.03229 0.4675 0.0
C530 C 0.04052 0.03459 0.4965 0.0
C531 C 0.0117 0.02208 0.50478 0.0
C532 C 0.06273 0.04863 0.51886 0.0
C533 C 0.0781 0.04652 0.45712 0.0
C534 C 0.09326 0.03842 0.5233 0.0
C535 C 0.11412 0.05105 0.54472 0.0
C536 C 0.10478 0.07397 0.56243 0.0
C537 C 0.07389 0.08381 0.55838 0.0
C538 C 0.053 0.07119 0.53676 0.0
H539 H 0.07554 0.05028 0.4341 0.0
H540 H 0.08415 0.06717 0.46916 0.0
H541 H 0.09834 0.03249 0.46016 0.0
H542 H 0.10089 0.02047 0.51035 0.0
H543 H 0.13762 0.0427 0.5474 0.0
H544 H 0.91801 0.33018 0.80065 0.0
H545 H 0.95135 0.30337 0.76811 0.0
H546 H 0.96078 0.23899 0.82877 0.0
H547 H 0.92779 0.26553 0.86138 0.0
H548 H 0.01715 0.28304 0.78014 0.0
H549 H 0.92509 0.19618 0.75198 0.0
H550 H 0.91532 0.23075 0.76678 0.0
H551 H 0.93204 0.20535 0.7894 0.0
C552 C 0.92727 0.31037 0.80711 0.0
C553 C 0.92008 0.29999 0.83363 0.0
C554 C 0.94633 0.2951 0.78849 0.0
C555 C 0.95821 0.26904 0.79589 0.0
C556 C 0.95153 0.25888 0.82249 0.0
H557 H 0.06596 0.13399 0.72394 0.0
H558 H 0.0326 0.16542 0.75135 0.0
C559 C 0.93273 0.27418 0.84116 0.0
C560 C 0.97753 0.25221 0.77594 0.0
H561 H 0.97733 0.18881 0.73689 0.0
C562 C 0.00842 0.26256 0.77043 0.0
C563 C 0.96607 0.22548 0.76338 0.0
C564 C 0.93273 0.21376 0.76792 0.0
C565 C 0.02861 0.24637 0.75353 0.0
C566 C 0.01729 0.21939 0.74122 0.0
C567 C 0.98609 0.20941 0.7463 0.0
C568 C 0.03776 0.20056 0.72409 0.0
C569 C 0.06231 0.25782 0.75001 0.0
C570 C 0.05157 0.20959 0.6993 0.0
C571 C 0.07095 0.19165 0.6836 0.0
C572 C 0.07658 0.16414 0.69216 0.0
C573 C 0.0622 0.155 0.71667 0.0
C574 C 0.04306 0.17298 0.73241 0.0
H575 H 0.06978 0.27486 0.76659 0.0
H576 H 0.07949 0.24065 0.75101 0.0
H577 H 0.0637 0.26704 0.72895 0.0
H578 H 0.04723 0.23048 0.69198 0.0
H579 H 0.08143 0.19931 0.66472 0.0
H580 H 0.59884 0.66688 0.7071 0.0
H581 H 0.56731 0.69326 0.74134 0.0
H582 H 0.52097 0.73471 0.67275 0.0
H583 H 0.55211 0.70837 0.63841 0.0
H584 H 0.56527 0.75288 0.75099 0.0
H585 H 0.44556 0.70447 0.71675 0.0
H586 H 0.48214 0.68881 0.70659 0.0
H587 H 0.46768 0.71855 0.68854 0.0
C588 C 0.5818 0.68147 0.69926 0.0
C589 C 0.57796 0.68539 0.66994 0.0
C590 C 0.56382 0.69656 0.71888 0.0
C591 C 0.54144 0.71568 0.7096 0.0
C592 C 0.53762 0.71968 0.68039 0.0
H593 H 0.41282 0.83066 0.79248 0.0
H594 H 0.4434 0.80287 0.75861 0.0
C595 C 0.55562 0.70468 0.66078 0.0
C596 C 0.52284 0.73214 0.73049 0.0
H597 H 0.44688 0.74469 0.74964 0.0
C598 C 0.5394 0.75097 0.75082 0.0
C599 C 0.48906 0.72975 0.73016 0.0
C600 C 0.47 0.70913 0.70952 0.0
C601 C 0.52311 0.76789 0.77044 0.0
C602 C 0.4893 0.76548 0.77016 0.0
C603 C 0.47275 0.74659 0.74985 0.0
C604 C 0.47069 0.78226 0.79083 0.0
C605 C 0.54226 0.78874 0.79079 0.0
C606 C 0.47545 0.77964 0.82023 0.0
C607 C 0.4581 0.79556 0.83964 0.0
C608 C 0.43534 0.81429 0.8301 0.0
C609 C 0.43021 0.81652 0.80061 0.0
C610 C 0.44765 0.80062 0.7812 0.0
H611 H 0.56643 0.7937 0.78312 0.0
H612 H 0.52988 0.80891 0.79398 0.0
H613 H 0.5453 0.77932 0.81172 0.0
H614 H 0.4925 0.76512 0.8282 0.0
H615 H 0.46253 0.7931 0.86216 0.0
H616 H 0.17327 0.70826 0.08138 0.0
H617 H 0.20846 0.74298 0.05946 0.0
H618 H 0.27744 0.67906 0.04627 0.0
H619 H 0.24283 0.64451 0.0682 0.0
H620 H 0.30465 0.73487 0.06326 0.0
H621 H 0.21609 0.73257 0.97154 0.0
H622 H 0.201 0.74176 0.00581 0.0
H623 H 0.21462 0.70668 0.99824 0.0
C624 C 0.19624 0.70184 0.07438 0.0
C625 C 0.20508 0.67358 0.07608 0.0
C626 C 0.2162 0.7216 0.06175 0.0
C627 C 0.24521 0.71333 0.05085 0.0
C628 C 0.25506 0.68576 0.05443 0.0
H629 H 0.34089 0.79234 0.91379 0.0
H630 H 0.32049 0.75663 0.94516 0.0
C631 C 0.23516 0.66604 0.06686 0.0
C632 C 0.26408 0.73231 0.03341 0.0
H633 H 0.26192 0.76317 0.96975 0.0
C634 C 0.29536 0.74117 0.04284 0.0
C635 C 0.25208 0.73977 0.00649 0.0
C636 C 0.21922 0.72956 0.99469 0.0
C637 C 0.31479 0.75794 0.02623 0.0
C638 C 0.30241 0.7661 0.99969 0.0
C639 C 0.27135 0.75677 0.99008 0.0
C640 C 0.3202 0.78594 0.98227 0.0
C641 C 0.34843 0.76656 0.03707 0.0
C642 C 0.32748 0.81394 0.993 0.0
C643 C 0.339 0.83425 0.97521 0.0
C644 C 0.3433 0.82699 0.9463 0.0
C645 C 0.33788 0.79853 0.93597 0.0
C646 C 0.32616 0.77817 0.95383 0.0
H647 H 0.35729 0.75202 0.05304 0.0
H648 H 0.36503 0.76681 0.01937 0.0
H649 H 0.34882 0.78831 0.04749 0.0
H650 H 0.32254 0.8205 0.01471 0.0
H651 H 0.34311 0.856 0.98385 0.0
H652 H 0.4426 0.42817 0.41093 0.0
H653 H 0.48273 0.45987 0.43781 0.0
H654 H 0.41199 0.52207 0.45158 0.0
H655 H 0.37192 0.49084 0.42479 0.0
H656 H 0.47368 0.54469 0.43623 0.0
H657 H 0.47947 0.47351 0.52622 0.0
H658 H 0.48569 0.45704 0.49164 0.0
H659 H 0.44742 0.47046 0.49916 0.0
C660 C 0.43572 0.44874 0.41938 0.0
C661 C 0.40402 0.45687 0.41598 0.0
C662 C 0.45858 0.46672 0.43483 0.0
C663 C 0.45008 0.49305 0.44697 0.0
C664 C 0.41891 0.50175 0.44248 0.0
H665 H 0.55465 0.59404 0.5849 0.0
H666 H 0.51155 0.57051 0.55385 0.0
C667 C 0.39605 0.48381 0.42722 0.0
C668 C 0.47317 0.51117 0.46537 0.0
H669 H 0.51528 0.51394 0.52917 0.0
C670 C 0.48282 0.53803 0.45656 0.0
C671 C 0.48441 0.50256 0.49209 0.0
C672 C 0.47359 0.47443 0.50307 0.0
C673 C 0.50417 0.5563 0.47356 0.0
C674 C 0.51619 0.54731 0.49988 0.0
C675 C 0.50596 0.52072 0.50896 0.0
C676 C 0.5409 0.56433 0.5176 0.0
C677 C 0.5136 0.58511 0.46335 0.0
C678 C 0.57142 0.56879 0.50732 0.0
C679 C 0.59598 0.58202 0.52493 0.0
C680 C 0.5905 0.59101 0.55322 0.0
C681 C 0.55957 0.58744 0.56319 0.0
C682 C 0.53499 0.57397 0.54554 0.0
H683 H 0.49617 0.59176 0.44689 0.0
H684 H 0.5156 0.60154 0.4813 0.0
H685 H 0.53726 0.58414 0.45379 0.0
H686 H 0.57657 0.5611 0.48598 0.0
H687 H 0.61951 0.58452 0.51656 0.0
loop_
_geom_bond_atom_site_label_1
_geom_bond_atom_site_label_2
_geom_bond_distance
_geom_bond_site_symmetry_2
_ccdc_geom_bond_type
Zn0 O3 2.031 . S
Zn0 O5 2.049 . S
Zn0 O10 2.067 . S
Zn1 O2 1.962 . S
Zn1 O4 1.986 . S
Zn1 O6 1.996 . S
Zn1 O9 1.943 . S
O2 Zn1 1.962 . S
O2 C7 1.254 . S
O3 Zn0 2.031 . S
O3 C7 1.269 . S
O4 Zn1 1.986 . S
O4 C11 1.262 . S
O5 Zn0 2.049 . S
O5 C13 1.260 . S
O6 Zn1 1.996 . S
O6 C13 1.257 . S
C7 O2 1.254 . S
C7 O3 1.269 . S
C8 O9 1.249 . S
C8 O10 1.270 . S
O9 Zn1 1.943 . S
O9 C8 1.249 . S
O10 Zn0 2.067 . S
O10 C8 1.270 . S
C11 O4 1.262 . S
C11 O12 1.232 . S
O12 C11 1.232 . S
C13 O5 1.260 . S
C13 O6 1.257 . S
Zn14 O17 2.031 . S
Zn14 O19 2.049 . S
Zn14 O24 2.067 . S
Zn15 O16 1.962 . S
Zn15 O18 1.986 . S
Zn15 O20 1.996 . S
Zn15 O23 1.943 . S
O16 Zn15 1.962 . S
O16 C21 1.254 . S
O17 Zn14 2.031 . S
O17 C21 1.269 . S
O18 Zn15 1.986 . S
O18 C25 1.262 . S
O19 Zn14 2.049 . S
O19 C27 1.260 . S
O20 Zn15 1.996 . S
O20 C27 1.257 . S
C21 O16 1.254 . S
C21 O17 1.269 . S
C22 O23 1.249 . S
C22 O24 1.270 . S
O23 Zn15 1.943 . S
O23 C22 1.249 . S
O24 Zn14 2.067 . S
O24 C22 1.270 . S
C25 O18 1.262 . S
C25 O26 1.232 . S
O26 C25 1.232 . S
C27 O19 1.260 . S
C27 O20 1.257 . S
Zn28 O31 2.031 . S
Zn28 O33 2.049 . S
Zn28 O38 2.067 . S
Zn29 O30 1.962 . S
Zn29 O32 1.986 . S
Zn29 O34 1.996 . S
Zn29 O37 1.943 . S
O30 Zn29 1.962 . S
O30 C35 1.254 . S
O31 Zn28 2.031 . S
O31 C35 1.269 . S
O32 Zn29 1.986 . S
O32 C39 1.262 . S
O33 Zn28 2.049 . S
O33 C41 1.260 . S
O34 Zn29 1.996 . S
O34 C41 1.257 . S
C35 O30 1.254 . S
C35 O31 1.269 . S
C36 O37 1.249 . S
C36 O38 1.270 . S
O37 Zn29 1.943 . S
O37 C36 1.249 . S
O38 Zn28 2.067 . S
O38 C36 1.270 . S
C39 O32 1.262 . S
C39 O40 1.232 . S
O40 C39 1.232 . S
C41 O33 1.260 . S
C41 O34 1.257 . S
Zn42 O45 2.031 . S
Zn42 O47 2.049 . S
Zn42 O52 2.067 . S
Zn43 O44 1.962 . S
Zn43 O46 1.986 . S
Zn43 O48 1.996 . S
Zn43 O51 1.943 . S
O44 Zn43 1.962 . S
O44 C49 1.254 . S
O45 Zn42 2.031 . S
O45 C49 1.269 . S
O46 Zn43 1.986 . S
O46 C53 1.262 . S
O47 Zn42 2.049 . S
O47 C55 1.260 . S
O48 Zn43 1.996 . S
O48 C55 1.257 . S
C49 O44 1.254 . S
C49 O45 1.269 . S
C50 O51 1.249 . S
C50 O52 1.270 . S
O51 Zn43 1.943 . S
O51 C50 1.249 . S
O52 Zn42 2.067 . S
O52 C50 1.270 . S
C53 O46 1.262 . S
C53 O54 1.232 . S
O54 C53 1.232 . S
C55 O47 1.260 . S
C55 O48 1.257 . S
Zn56 O59 2.031 . S
Zn56 O61 2.049 . S
Zn56 O66 2.067 . S
Zn57 O58 1.962 . S
Zn57 O60 1.986 . S
Zn57 O62 1.996 . S
Zn57 O65 1.943 . S
O58 Zn57 1.962 . S
O58 C63 1.254 . S
O59 Zn56 2.031 . S
O59 C63 1.269 . S
O60 Zn57 1.986 . S
O60 C67 1.262 . S
O61 Zn56 2.049 . S
O61 C69 1.260 . S
O62 Zn57 1.996 . S
O62 C69 1.257 . S
C63 O58 1.254 . S
C63 O59 1.269 . S
C64 O65 1.249 . S
C64 O66 1.270 . S
O65 Zn57 1.943 . S
O65 C64 1.249 . S
O66 Zn56 2.067 . S
O66 C64 1.270 . S
C67 O60 1.262 . S
C67 O68 1.232 . S
O68 C67 1.232 . S
C69 O61 1.260 . S
C69 O62 1.257 . S
Zn70 O73 2.031 . S
Zn70 O75 2.049 . S
Zn70 O80 2.067 . S
Zn71 O72 1.962 . S
Zn71 O74 1.986 . S
Zn71 O76 1.996 . S
Zn71 O79 1.943 . S
O72 Zn71 1.962 . S
O72 C77 1.254 . S
O73 Zn70 2.031 . S
O73 C77 1.269 . S
O74 Zn71 1.986 . S
O74 C81 1.262 . S
O75 Zn70 2.049 . S
O75 C83 1.260 . S
O76 Zn71 1.996 . S
O76 C83 1.257 . S
C77 O72 1.254 . S
C77 O73 1.269 . S
C78 O79 1.249 . S
C78 O80 1.270 . S
O79 Zn71 1.943 . S
O79 C78 1.249 . S
O80 Zn70 2.067 . S
O80 C78 1.270 . S
C81 O74 1.262 . S
C81 O82 1.232 . S
O82 C81 1.232 . S
C83 O75 1.260 . S
C83 O76 1.257 . S
Zn84 O87 2.031 . S
Zn84 O89 2.049 . S
Zn84 O94 2.067 . S
Zn85 O86 1.962 . S
Zn85 O88 1.986 . S
Zn85 O90 1.996 . S
Zn85 O93 1.943 . S
O86 Zn85 1.962 . S
O86 C91 1.254 . S
O87 Zn84 2.031 . S
O87 C91 1.269 . S
O88 Zn85 1.986 . S
O88 C95 1.262 . S
O89 Zn84 2.049 . S
O89 C97 1.260 . S
O90 Zn85 1.996 . S
O90 C97 1.257 . S
C91 O86 1.254 . S
C91 O87 1.269 . S
C92 O93 1.249 . S
C92 O94 1.270 . S
O93 Zn85 1.943 . S
O93 C92 1.249 . S
O94 Zn84 2.067 . S
O94 C92 1.270 . S
C95 O88 1.262 . S
C95 O96 1.232 . S
O96 C95 1.232 . S
C97 O89 1.260 . S
C97 O90 1.257 . S
Zn98 O101 2.031 . S
Zn98 O103 2.049 . S
Zn98 O108 2.067 . S
Zn99 O100 1.962 . S
Zn99 O102 1.986 . S
Zn99 O104 1.996 . S
Zn99 O107 1.943 . S
O100 Zn99 1.962 . S
O100 C105 1.254 . S
O101 Zn98 2.031 . S
O101 C105 1.269 . S
O102 Zn99 1.986 . S
O102 C109 1.262 . S
O103 Zn98 2.049 . S
O103 C111 1.260 . S
O104 Zn99 1.996 . S
O104 C111 1.257 . S
C105 O100 1.254 . S
C105 O101 1.269 . S
C106 O107 1.249 . S
C106 O108 1.270 . S
O107 Zn99 1.943 . S
O107 C106 1.249 . S
O108 Zn98 2.067 . S
O108 C106 1.270 . S
C109 O102 1.262 . S
C109 O110 1.232 . S
O110 C109 1.232 . S
C111 O103 1.260 . S
C111 O104 1.257 . S
H112 C120 0.929 . S
H113 C122 0.930 . S
H114 C124 0.930 . S
H115 C127 0.929 . S
H116 C130 0.930 . S
H117 C132 0.960 . S
H118 C132 0.960 . S
H119 C132 0.960 . S
C120 H112 0.929 . S
C120 C121 1.377 . S
C120 C122 1.384 . S
C121 C120 1.377 . S
C121 C127 1.390 . S
C122 H113 0.930 . S
C122 C120 1.384 . S
C122 C123 1.372 . S
C123 C122 1.372 . S
C123 C124 1.400 . S
C123 C128 1.490 . S
C124 H114 0.930 . S
C124 C123 1.400 . S
C124 C127 1.386 . S
H125 C141 0.930 . S
H126 C142 0.931 . S
C127 H115 0.929 . S
C127 C121 1.390 . S
C127 C124 1.386 . S
C128 C123 1.490 . S
C128 C130 1.395 . S
C128 C131 1.403 . S
H129 C135 0.930 . S
C130 H116 0.930 . S
C130 C128 1.395 . S
C130 C133 1.403 . S
C131 C128 1.403 . S
C131 C132 1.524 . S
C131 C135 1.400 . S
C132 H117 0.960 . S
C132 H118 0.960 . S
C132 H119 0.960 . S
C132 C131 1.524 . S
C133 C130 1.403 . S
C133 C134 1.392 . S
C133 C137 1.495 . S
C134 C133 1.392 . S
C134 C135 1.385 . S
C134 C136 1.478 . S
C135 H129 0.930 . S
C135 C131 1.400 . S
C135 C134 1.385 . S
C136 C134 1.478 . S
C136 C138 1.381 . S
C136 C142 1.383 . S
C137 C133 1.495 . S
C137 H143 0.959 . S
C137 H144 0.961 . S
C137 H145 0.960 . S
C138 C136 1.381 . S
C138 C139 1.394 . S
C138 H146 0.930 . S
C139 C138 1.394 . S
C139 C140 1.383 . S
C139 H147 0.929 . S
C140 C139 1.383 . S
C140 C141 1.377 . S
C141 H125 0.930 . S
C141 C140 1.377 . S
C141 C142 1.379 . S
C142 H126 0.931 . S
C142 C136 1.383 . S
C142 C141 1.379 . S
H143 C137 0.959 . S
H144 C137 0.961 . S
H145 C137 0.960 . S
H146 C138 0.930 . S
H147 C139 0.929 . S
H148 C156 0.929 . S
H149 C158 0.930 . S
H150 C160 0.930 . S
H151 C163 0.929 . S
H152 C166 0.930 . S
H153 C168 0.960 . S
H154 C168 0.960 . S
H155 C168 0.960 . S
C156 H148 0.929 . S
C156 C157 1.377 . S
C156 C158 1.384 . S
C157 C156 1.377 . S
C157 C163 1.390 . S
C158 H149 0.930 . S
C158 C156 1.384 . S
C158 C159 1.372 . S
C159 C158 1.372 . S
C159 C160 1.400 . S
C159 C164 1.490 . S
C160 H150 0.930 . S
C160 C159 1.400 . S
C160 C163 1.386 . S
H161 C177 0.930 . S
H162 C178 0.931 . S
C163 H151 0.929 . S
C163 C157 1.390 . S
C163 C160 1.386 . S
C164 C159 1.490 . S
C164 C166 1.395 . S
C164 C167 1.403 . S
H165 C171 0.930 . S
C166 H152 0.930 . S
C166 C164 1.395 . S
C166 C169 1.403 . S
C167 C164 1.403 . S
C167 C168 1.524 . S
C167 C171 1.400 . S
C168 H153 0.960 . S
C168 H154 0.960 . S
C168 H155 0.960 . S
C168 C167 1.524 . S
C169 C166 1.403 . S
C169 C170 1.392 . S
C169 C173 1.495 . S
C170 C169 1.392 . S
C170 C171 1.385 . S
C170 C172 1.478 . S
C171 H165 0.930 . S
C171 C167 1.400 . S
C171 C170 1.385 . S
C172 C170 1.478 . S
C172 C174 1.381 . S
C172 C178 1.383 . S
C173 C169 1.495 . S
C173 H179 0.959 . S
C173 H180 0.961 . S
C173 H181 0.960 . S
C174 C172 1.381 . S
C174 C175 1.394 . S
C174 H182 0.930 . S
C175 C174 1.394 . S
C175 C176 1.383 . S
C175 H183 0.929 . S
C176 C175 1.383 . S
C176 C177 1.377 . S
C177 H161 0.930 . S
C177 C176 1.377 . S
C177 C178 1.379 . S
C178 H162 0.931 . S
C178 C172 1.383 . S
C178 C177 1.379 . S
H179 C173 0.959 . S
H180 C173 0.961 . S
H181 C173 0.960 . S
H182 C174 0.930 . S
H183 C175 0.929 . S
H184 C192 0.929 . S
H185 C194 0.930 . S
H186 C196 0.930 . S
H187 C199 0.929 . S
H188 C202 0.930 . S
H189 C204 0.960 1_556 S
H190 C204 0.960 . S
H191 C204 0.960 1_545 S
C192 H184 0.929 . S
C192 C193 1.377 . S
C192 C194 1.384 . S
C193 C192 1.377 . S
C193 C199 1.390 . S
C194 H185 0.930 . S
C194 C192 1.384 . S
C194 C195 1.372 . S
C195 C194 1.372 . S
C195 C196 1.400 . S
C195 C200 1.490 . S
C196 H186 0.930 . S
C196 C195 1.400 . S
C196 C199 1.386 . S
H197 C213 0.930 . S
H198 C214 0.931 . S
C199 H187 0.929 . S
C199 C193 1.390 . S
C199 C196 1.386 . S
C200 C195 1.490 . S
C200 C202 1.395 . S
C200 C203 1.403 1_545 S
H201 C207 0.930 . S
C202 H188 0.930 . S
C202 C200 1.395 . S
C202 C205 1.403 1_545 S
C203 C200 1.403 1_565 S
C203 C204 1.524 . S
C203 C207 1.400 1_554 S
C204 H189 0.960 1_554 S
C204 H190 0.960 . S
C204 H191 0.960 1_565 S
C204 C203 1.524 . S
C205 C202 1.403 1_565 S
C205 C206 1.393 1_554 S
C205 C209 1.495 1_564 S
C206 C205 1.393 1_556 S
C206 C207 1.385 . S
C206 C208 1.478 . S
C207 H201 0.930 . S
C207 C203 1.400 1_556 S
C207 C206 1.385 . S
C208 C206 1.478 . S
C208 C210 1.381 . S
C208 C214 1.383 . S
C209 C205 1.495 1_546 S
C209 H215 0.955 1_556 S
C209 H216 0.966 . S
C209 H217 0.958 1_546 S
C210 C208 1.381 . S
C210 C211 1.394 . S
C210 H218 0.930 . S
C211 C210 1.394 . S
C211 C212 1.383 . S
C211 H219 0.929 . S
C212 C211 1.383 . S
C212 C213 1.377 . S
C213 H197 0.930 . S
C213 C212 1.377 . S
C213 C214 1.379 . S
C214 H198 0.931 . S
C214 C208 1.383 . S
C214 C213 1.379 . S
H215 C209 0.955 1_554 S
H216 C209 0.966 . S
H217 C209 0.958 1_564 S
H218 C210 0.930 . S
H219 C211 0.929 . S
H220 C228 0.929 . S
H221 C230 0.930 . S
H222 C232 0.930 . S
H223 C235 0.929 . S
H224 C238 0.930 . S
H225 C240 0.960 . S
H226 C240 0.960 . S
H227 C240 0.960 . S
C228 H220 0.929 . S
C228 C229 1.377 . S
C228 C230 1.384 . S
C229 C228 1.377 . S
C229 C235 1.390 . S
C230 H221 0.930 . S
C230 C228 1.384 . S
C230 C231 1.372 . S
C231 C230 1.372 . S
C231 C232 1.400 . S
C231 C236 1.490 . S
C232 H222 0.930 . S
C232 C231 1.400 . S
C232 C235 1.386 . S
H233 C249 0.930 . S
H234 C250 0.931 . S
C235 H223 0.929 . S
C235 C229 1.390 . S
C235 C232 1.386 . S
C236 C231 1.490 . S
C236 C238 1.395 1_655 S
C236 C239 1.403 . S
H237 C243 0.930 . S
C238 H224 0.930 . S
C238 C236 1.395 1_455 S
C238 C241 1.403 . S
C239 C236 1.403 . S
C239 C240 1.524 . S
C239 C243 1.400 . S
C240 H225 0.960 . S
C240 H226 0.960 . S
C240 H227 0.960 . S
C240 C239 1.524 . S
C241 C238 1.403 . S
C241 C242 1.392 . S
C241 C245 1.495 . S
C242 C241 1.392 . S
C242 C243 1.385 1_455 S
C242 C244 1.478 . S
C243 H237 0.930 . S
C243 C239 1.400 . S
C243 C242 1.385 1_655 S
C244 C242 1.478 . S
C244 C246 1.381 . S
C244 C250 1.383 . S
C245 C241 1.495 . S
C245 H251 0.959 . S
C245 H252 0.961 . S
C245 H253 0.960 . S
C246 C244 1.381 . S
C246 C247 1.394 . S
C246 H254 0.930 . S
C247 C246 1.394 . S
C247 C248 1.383 . S
C247 H255 0.929 . S
C248 C247 1.383 . S
C248 C249 1.377 . S
C249 H233 0.930 . S
C249 C248 1.377 . S
C249 C250 1.379 . S
C250 H234 0.931 . S
C250 C244 1.383 . S
C250 C249 1.379 . S
H251 C245 0.959 . S
H252 C245 0.961 . S
H253 C245 0.960 . S
H254 C246 0.930 . S
H255 C247 0.929 . S
H256 C264 0.929 . S
H257 C266 0.930 . S
H258 C268 0.930 . S
H259 C271 0.929 . S
H260 C274 0.930 . S
H261 C276 0.960 . S
H262 C276 0.960 . S
H263 C276 0.960 . S
C264 H256 0.929 . S
C264 C265 1.377 . S
C264 C266 1.384 . S
C265 C264 1.377 . S
C265 C271 1.390 . S
C266 H257 0.930 . S
C266 C264 1.384 . S
C266 C267 1.372 . S
C267 C266 1.372 . S
C267 C268 1.400 . S
C267 C272 1.490 . S
C268 H258 0.930 . S
C268 C267 1.400 . S
C268 C271 1.386 . S
H269 C285 0.930 . S
H270 C286 0.931 . S
C271 H259 0.929 . S
C271 C265 1.390 . S
C271 C268 1.386 . S
C272 C267 1.490 . S
C272 C274 1.395 . S
C272 C275 1.403 1_565 S
H273 C279 0.930 . S
C274 H260 0.930 . S
C274 C272 1.395 . S
C274 C277 1.403 . S
C275 C272 1.403 1_545 S
C275 C276 1.524 . S
C275 C279 1.400 . S
C276 H261 0.960 . S
C276 H262 0.960 . S
C276 H263 0.960 . S
C276 C275 1.524 . S
C277 C274 1.403 . S
C277 C278 1.392 1_565 S
C277 C281 1.495 . S
C278 C277 1.392 1_545 S
C278 C279 1.385 . S
C278 C280 1.478 . S
C279 H273 0.930 . S
C279 C275 1.400 . S
C279 C278 1.385 . S
C280 C278 1.478 . S
C280 C282 1.381 . S
C280 C286 1.383 . S
C281 C277 1.495 . S
C281 H287 0.959 . S
C281 H288 0.961 . S
C281 H289 0.960 . S
C282 C280 1.381 . S
C282 C283 1.394 . S
C282 H290 0.930 . S
C283 C282 1.394 . S
C283 C284 1.383 . S
C283 H291 0.929 . S
C284 C283 1.383 . S
C284 C285 1.377 . S
C285 H269 0.930 . S
C285 C284 1.377 . S
C285 C286 1.379 . S
C286 H270 0.931 . S
C286 C280 1.383 . S
C286 C285 1.379 . S
H287 C281 0.959 . S
H288 C281 0.961 . S
H289 C281 0.960 . S
H290 C282 0.930 . S
H291 C283 0.929 . S
H292 C300 0.929 . S
H293 C302 0.930 . S
H294 C304 0.930 . S
H295 C307 0.929 . S
H296 C310 0.930 . S
H297 C312 0.960 . S
H298 C312 0.960 . S
H299 C312 0.960 . S
C300 H292 0.929 . S
C300 C301 1.377 . S
C300 C302 1.384 . S
C301 C300 1.377 . S
C301 C307 1.390 . S
C302 H293 0.930 . S
C302 C300 1.384 . S
C302 C303 1.372 . S
C303 C302 1.372 . S
C303 C304 1.400 . S
C303 C308 1.490 . S
C304 H294 0.930 . S
C304 C303 1.400 . S
C304 C307 1.386 . S
H305 C321 0.930 . S
H306 C322 0.931 . S
C307 H295 0.929 . S
C307 C301 1.390 . S
C307 C304 1.386 . S
C308 C303 1.490 . S
C308 C310 1.395 . S
C308 C311 1.403 1_556 S
H309 C315 0.930 . S
C310 H296 0.930 . S
C310 C308 1.395 . S
C310 C313 1.403 1_655 S
C311 C308 1.403 1_554 S
C311 C312 1.524 . S
C311 C315 1.400 1_655 S
C312 H297 0.960 . S
C312 H298 0.960 . S
C312 H299 0.960 . S
C312 C311 1.524 . S
C313 C310 1.403 1_455 S
C313 C314 1.392 1_556 S
C313 C317 1.495 . S
C314 C313 1.392 1_554 S
C314 C315 1.385 . S
C314 C316 1.478 . S
C315 H309 0.930 . S
C315 C311 1.400 1_455 S
C315 C314 1.385 . S
C316 C314 1.478 . S
C316 C318 1.381 . S
C316 C322 1.383 . S
C317 C313 1.495 . S
C317 H323 0.959 . S
C317 H324 0.961 . S
C317 H325 0.960 . S
C318 C316 1.381 . S
C318 C319 1.394 . S
C318 H326 0.930 . S
C319 C318 1.394 . S
C319 C320 1.383 . S
C319 H327 0.929 . S
C320 C319 1.383 . S
C320 C321 1.377 . S
C321 H305 0.930 . S
C321 C320 1.377 . S
C321 C322 1.379 . S
C322 H306 0.931 . S
C322 C316 1.383 . S
C322 C321 1.379 . S
H323 C317 0.959 . S
H324 C317 0.961 . S
H325 C317 0.960 . S
H326 C318 0.930 . S
H327 C319 0.929 . S
H328 C336 0.929 . S
H329 C338 0.930 . S
H330 C340 0.930 . S
H331 C343 0.929 . S
H332 C346 0.930 . S
H333 C348 0.960 . S
H334 C348 0.960 . S
H335 C348 0.960 . S
C336 H328 0.929 . S
C336 C337 1.377 . S
C336 C338 1.384 . S
C337 C336 1.377 . S
C337 C343 1.390 . S
C338 H329 0.930 . S
C338 C336 1.384 . S
C338 C339 1.372 . S
C339 C338 1.372 . S
C339 C340 1.400 . S
C339 C344 1.490 . S
C340 H330 0.930 . S
C340 C339 1.400 . S
C340 C343 1.386 . S
H341 C357 0.930 . S
H342 C358 0.931 . S
C343 H331 0.929 . S
C343 C337 1.390 . S
C343 C340 1.386 . S
C344 C339 1.490 . S
C344 C346 1.395 . S
C344 C347 1.403 . S
H345 C351 0.930 . S
C346 H332 0.930 . S
C346 C344 1.395 . S
C346 C349 1.403 . S
C347 C344 1.403 . S
C347 C348 1.524 . S
C347 C351 1.400 . S
C348 H333 0.960 . S
C348 H334 0.960 . S
C348 H335 0.960 . S
C348 C347 1.524 . S
C349 C346 1.403 . S
C349 C350 1.392 . S
C349 C353 1.495 . S
C350 C349 1.392 . S
C350 C351 1.385 . S
C350 C352 1.478 . S
C351 H345 0.930 . S
C351 C347 1.400 . S
C351 C350 1.385 . S
C352 C350 1.478 . S
C352 C354 1.381 . S
C352 C358 1.383 . S
C353 C349 1.495 . S
C353 H359 0.959 . S
C353 H360 0.961 . S
C353 H361 0.960 . S
C354 C352 1.381 . S
C354 C355 1.394 . S
C354 H362 0.930 . S
C355 C354 1.394 . S
C355 C356 1.383 . S
C355 H363 0.929 . S
C356 C355 1.383 . S
C356 C357 1.377 . S
C357 H341 0.930 . S
C357 C356 1.377 . S
C357 C358 1.379 . S
C358 H342 0.931 . S
C358 C352 1.383 . S
C358 C357 1.379 . S
H359 C353 0.959 . S
H360 C353 0.961 . S
H361 C353 0.960 . S
H362 C354 0.930 . S
H363 C355 0.929 . S
H364 C372 0.929 . S
H365 C374 0.930 . S
H366 C376 0.930 . S
H367 C379 0.929 . S
H368 C382 0.930 . S
H369 C384 0.960 . S
H370 C384 0.960 . S
H371 C384 0.960 . S
C372 H364 0.929 . S
C372 C373 1.377 . S
C372 C374 1.384 . S
C373 C372 1.377 . S
C373 C379 1.390 . S
C374 H365 0.930 . S
C374 C372 1.384 . S
C374 C375 1.372 . S
C375 C374 1.372 . S
C375 C376 1.400 . S
C375 C380 1.490 . S
C376 H366 0.930 . S
C376 C375 1.400 . S
C376 C379 1.386 . S
H377 C393 0.930 . S
H378 C394 0.931 . S
C379 H367 0.929 . S
C379 C373 1.390 . S
C379 C376 1.386 . S
C380 C375 1.490 . S
C380 C382 1.395 . S
C380 C383 1.403 . S
H381 C387 0.930 . S
C382 H368 0.930 . S
C382 C380 1.395 . S
C382 C385 1.403 . S
C383 C380 1.403 . S
C383 C384 1.524 . S
C383 C387 1.400 . S
C384 H369 0.960 . S
C384 H370 0.960 . S
C384 H371 0.960 . S
C384 C383 1.524 . S
C385 C382 1.403 . S
C385 C386 1.392 . S
C385 C389 1.495 . S
C386 C385 1.392 . S
C386 C387 1.385 . S
C386 C388 1.478 . S
C387 H381 0.930 . S
C387 C383 1.400 . S
C387 C386 1.385 . S
C388 C386 1.478 . S
C388 C390 1.381 . S
C388 C394 1.383 . S
C389 C385 1.495 . S
C389 H395 0.959 . S
C389 H396 0.961 . S
C389 H397 0.960 . S
C390 C388 1.381 . S
C390 C391 1.394 . S
C390 H398 0.930 . S
C391 C390 1.394 . S
C391 C392 1.383 . S
C391 H399 0.929 . S
C392 C391 1.383 . S
C392 C393 1.377 . S
C393 H377 0.930 . S
C393 C392 1.377 . S
C393 C394 1.379 . S
C394 H378 0.931 . S
C394 C388 1.383 . S
C394 C393 1.379 . S
H395 C389 0.959 . S
H396 C389 0.961 . S
H397 C389 0.960 . S
H398 C390 0.930 . S
H399 C391 0.929 . S
H400 C408 0.929 . S
H401 C410 0.930 . S
H402 C412 0.930 . S
H403 C415 0.929 . S
H404 C418 0.930 . S
H405 C420 0.960 . S
H406 C420 0.960 . S
H407 C420 0.960 . S
C408 H400 0.929 . S
C408 C409 1.377 . S
C408 C410 1.384 . S
C409 C408 1.377 . S
C409 C415 1.390 . S
C410 H401 0.930 . S
C410 C408 1.384 . S
C410 C411 1.372 . S
C411 C410 1.372 . S
C411 C412 1.400 . S
C411 C416 1.490 . S
C412 H402 0.930 . S
C412 C411 1.400 . S
C412 C415 1.386 . S
H413 C429 0.930 . S
H414 C430 0.931 . S
C415 H403 0.929 . S
C415 C409 1.390 . S
C415 C412 1.386 . S
C416 C411 1.490 . S
C416 C418 1.395 . S
C416 C419 1.403 . S
H417 C423 0.930 . S
C418 H404 0.930 . S
C418 C416 1.395 . S
C418 C421 1.403 . S
C419 C416 1.403 . S
C419 C420 1.524 . S
C419 C423 1.400 . S
C420 H405 0.960 . S
C420 H406 0.960 . S
C420 H407 0.960 . S
C420 C419 1.524 . S
C421 C418 1.403 . S
C421 C422 1.392 . S
C421 C425 1.495 . S
C422 C421 1.392 . S
C422 C423 1.385 . S
C422 C424 1.478 . S
C423 H417 0.930 . S
C423 C419 1.400 . S
C423 C422 1.385 . S
C424 C422 1.478 . S
C424 C426 1.381 . S
C424 C430 1.383 . S
C425 C421 1.495 . S
C425 H431 0.959 . S
C425 H432 0.961 . S
C425 H433 0.960 . S
C426 C424 1.381 . S
C426 C427 1.394 . S
C426 H434 0.930 . S
C427 C426 1.394 . S
C427 C428 1.383 . S
C427 H435 0.929 . S
C428 C427 1.383 . S
C428 C429 1.377 . S
C429 H413 0.930 . S
C429 C428 1.377 . S
C429 C430 1.379 . S
C430 H414 0.931 . S
C430 C424 1.383 . S
C430 C429 1.379 . S
H431 C425 0.959 . S
H432 C425 0.961 . S
H433 C425 0.960 . S
H434 C426 0.930 . S
H435 C427 0.929 . S
H436 C444 0.929 . S
H437 C446 0.930 . S
H438 C448 0.930 . S
H439 C451 0.929 . S
H440 C454 0.930 . S
H441 C456 0.960 . S
H442 C456 0.960 . S
H443 C456 0.960 . S
C444 H436 0.929 . S
C444 C445 1.377 . S
C444 C446 1.384 . S
C445 C444 1.377 . S
C445 C451 1.390 . S
C446 H437 0.930 . S
C446 C444 1.384 . S
C446 C447 1.372 . S
C447 C446 1.372 . S
C447 C448 1.400 . S
C447 C452 1.490 . S
C448 H438 0.930 . S
C448 C447 1.400 . S
C448 C451 1.386 . S
H449 C465 0.930 . S
H450 C466 0.931 . S
C451 H439 0.929 . S
C451 C445 1.390 . S
C451 C448 1.386 . S
C452 C447 1.490 . S
C452 C454 1.395 . S
C452 C455 1.403 1_556 S
H453 C459 0.930 . S
C454 H440 0.930 . S
C454 C452 1.395 . S
C454 C457 1.403 . S
C455 C452 1.403 1_554 S
C455 C456 1.524 . S
C455 C459 1.400 . S
C456 H441 0.960 . S
C456 H442 0.960 . S
C456 H443 0.960 . S
C456 C455 1.524 . S
C457 C454 1.403 . S
C457 C458 1.392 1_556 S
C457 C461 1.495 . S
C458 C457 1.392 1_554 S
C458 C459 1.385 . S
C458 C460 1.478 . S
C459 H453 0.930 . S
C459 C455 1.400 . S
C459 C458 1.385 . S
C460 C458 1.478 . S
C460 C462 1.381 . S
C460 C466 1.383 . S
C461 C457 1.495 . S
C461 H467 0.959 . S
C461 H468 0.961 . S
C461 H469 0.960 . S
C462 C460 1.381 . S
C462 C463 1.394 . S
C462 H470 0.930 . S
C463 C462 1.394 . S
C463 C464 1.383 . S
C463 H471 0.929 . S
C464 C463 1.383 . S
C464 C465 1.377 . S
C465 H449 0.930 . S
C465 C464 1.377 . S
C465 C466 1.379 . S
C466 H450 0.931 . S
C466 C460 1.383 . S
C466 C465 1.379 . S
H467 C461 0.959 . S
H468 C461 0.961 . S
H469 C461 0.960 . S
H470 C462 0.930 . S
H471 C463 0.929 . S
H472 C480 0.929 . S
H473 C482 0.930 . S
H474 C484 0.930 . S
H475 C487 0.929 . S
H476 C490 0.930 . S
H477 C492 0.960 . S
H478 C492 0.960 . S
H479 C492 0.960 . S
C480 H472 0.929 . S
C480 C481 1.377 . S
C480 C482 1.384 . S
C481 C480 1.377 . S
C481 C487 1.390 . S
C482 H473 0.930 . S
C482 C480 1.384 . S
C482 C483 1.372 . S
C483 C482 1.372 . S
C483 C484 1.400 . S
C483 C488 1.490 . S
C484 H474 0.930 . S
C484 C483 1.400 . S
C484 C487 1.386 . S
H485 C501 0.930 . S
H486 C502 0.931 . S
C487 H475 0.929 . S
C487 C481 1.390 . S
C487 C484 1.386 . S
C488 C483 1.490 . S
C488 C490 1.395 . S
C488 C491 1.403 1_565 S
H489 C495 0.930 . S
C490 H476 0.930 . S
C490 C488 1.395 . S
C490 C493 1.403 . S
C491 C488 1.403 1_545 S
C491 C492 1.524 . S
C491 C495 1.400 . S
C492 H477 0.960 . S
C492 H478 0.960 . S
C492 H479 0.960 . S
C492 C491 1.524 . S
C493 C490 1.403 . S
C493 C494 1.392 1_565 S
C493 C497 1.495 . S
C494 C493 1.392 1_545 S
C494 C495 1.385 . S
C494 C496 1.478 . S
C495 H489 0.930 . S
C495 C491 1.400 . S
C495 C494 1.385 . S
C496 C494 1.478 . S
C496 C498 1.381 . S
C496 C502 1.383 . S
C497 C493 1.495 . S
C497 H503 0.959 . S
C497 H504 0.961 . S
C497 H505 0.960 . S
C498 C496 1.381 . S
C498 C499 1.394 . S
C498 H506 0.930 . S
C499 C498 1.394 . S
C499 C500 1.383 . S
C499 H507 0.929 . S
C500 C499 1.383 . S
C500 C501 1.377 . S
C501 H485 0.930 . S
C501 C500 1.377 . S
C501 C502 1.379 . S
C502 H486 0.931 . S
C502 C496 1.383 . S
C502 C501 1.379 . S
H503 C497 0.959 . S
H504 C497 0.961 . S
H505 C497 0.960 . S
H506 C498 0.930 . S
H507 C499 0.929 . S
H508 C516 0.929 . S
H509 C518 0.930 . S
H510 C520 0.930 . S
H511 C523 0.929 . S
H512 C526 0.930 . S
H513 C528 0.960 . S
H514 C528 0.960 1_565 S
H515 C528 0.960 . S
C516 H508 0.929 . S
C516 C517 1.377 . S
C516 C518 1.384 . S
C517 C516 1.377 . S
C517 C523 1.390 . S
C518 H509 0.930 . S
C518 C516 1.384 . S
C518 C519 1.372 . S
C519 C518 1.372 . S
C519 C520 1.400 . S
C519 C524 1.490 . S
C520 H510 0.930 . S
C520 C519 1.400 . S
C520 C523 1.386 . S
H521 C537 0.930 . S
H522 C538 0.931 . S
C523 H511 0.929 . S
C523 C517 1.390 . S
C523 C520 1.386 . S
C524 C519 1.490 . S
C524 C526 1.395 1_655 S
C524 C527 1.403 . S
H525 C531 0.930 . S
C526 H512 0.930 . S
C526 C524 1.395 1_455 S
C526 C529 1.403 . S
C527 C524 1.403 . S
C527 C528 1.524 1_565 S
C527 C531 1.400 1_565 S
C528 H513 0.960 . S
C528 H514 0.960 1_545 S
C528 H515 0.960 . S
C528 C527 1.524 1_545 S
C529 C526 1.403 . S
C529 C530 1.392 1_565 S
C529 C533 1.495 . S
C530 C529 1.392 1_545 S
C530 C531 1.385 1_455 S
C530 C532 1.478 . S
C531 H525 0.930 . S
C531 C527 1.400 1_545 S
C531 C530 1.385 1_655 S
C532 C530 1.478 . S
C532 C534 1.381 . S
C532 C538 1.383 . S
C533 C529 1.495 . S
C533 H539 0.959 . S
C533 H540 0.961 1_565 S
C533 H541 0.960 . S
C534 C532 1.381 . S
C534 C535 1.394 . S
C534 H542 0.930 . S
C535 C534 1.394 . S
C535 C536 1.383 . S
C535 H543 0.929 . S
C536 C535 1.383 . S
C536 C537 1.377 . S
C537 H521 0.930 . S
C537 C536 1.377 . S
C537 C538 1.379 . S
C538 H522 0.931 . S
C538 C532 1.383 . S
C538 C537 1.379 . S
H539 C533 0.959 . S
H540 C533 0.961 1_545 S
H541 C533 0.960 . S
H542 C534 0.930 . S
H543 C535 0.929 . S
H544 C552 0.929 . S
H545 C554 0.930 . S
H546 C556 0.930 . S
H547 C559 0.929 . S
H548 C562 0.930 . S
H549 C564 0.960 . S
H550 C564 0.960 . S
H551 C564 0.960 . S
C552 H544 0.929 . S
C552 C553 1.377 . S
C552 C554 1.384 . S
C553 C552 1.377 . S
C553 C559 1.390 . S
C554 H545 0.930 . S
C554 C552 1.384 . S
C554 C555 1.372 . S
C555 C554 1.372 . S
C555 C556 1.400 . S
C555 C560 1.490 . S
C556 H546 0.930 . S
C556 C555 1.400 . S
C556 C559 1.386 . S
H557 C573 0.930 . S
H558 C574 0.931 . S
C559 H547 0.929 . S
C559 C553 1.390 . S
C559 C556 1.386 . S
C560 C555 1.490 . S
C560 C562 1.395 1_655 S
C560 C563 1.403 . S
H561 C567 0.930 . S
C562 H548 0.930 . S
C562 C560 1.395 1_455 S
C562 C565 1.403 . S
C563 C560 1.403 . S
C563 C564 1.524 . S
C563 C567 1.400 . S
C564 H549 0.960 . S
C564 H550 0.960 . S
C564 H551 0.960 . S
C564 C563 1.524 . S
C565 C562 1.403 . S
C565 C566 1.392 . S
C565 C569 1.495 . S
C566 C565 1.392 . S
C566 C567 1.385 1_455 S
C566 C568 1.478 . S
C567 H561 0.930 . S
C567 C563 1.400 . S
C567 C566 1.385 1_655 S
C568 C566 1.478 . S
C568 C570 1.381 . S
C568 C574 1.383 . S
C569 C565 1.495 . S
C569 H575 0.959 . S
C569 H576 0.961 . S
C569 H577 0.960 . S
C570 C568 1.381 . S
C570 C571 1.394 . S
C570 H578 0.930 . S
C571 C570 1.394 . S
C571 C572 1.383 . S
C571 H579 0.929 . S
C572 C571 1.383 . S
C572 C573 1.377 . S
C573 H557 0.930 . S
C573 C572 1.377 . S
C573 C574 1.379 . S
C574 H558 0.931 . S
C574 C568 1.383 . S
C574 C573 1.379 . S
H575 C569 0.959 . S
H576 C569 0.961 . S
H577 C569 0.960 . S
H578 C570 0.930 . S
H579 C571 0.929 . S
H580 C588 0.929 . S
H581 C590 0.930 . S
H582 C592 0.930 . S
H583 C595 0.929 . S
H584 C598 0.930 . S
H585 C600 0.960 . S
H586 C600 0.960 . S
H587 C600 0.960 . S
C588 H580 0.929 . S
C588 C589 1.377 . S
C588 C590 1.384 . S
C589 C588 1.377 . S
C589 C595 1.390 . S
C590 H581 0.930 . S
C590 C588 1.384 . S
C590 C591 1.372 . S
C591 C590 1.372 . S
C591 C592 1.400 . S
C591 C596 1.490 . S
C592 H582 0.930 . S
C592 C591 1.400 . S
C592 C595 1.386 . S
H593 C609 0.930 . S
H594 C610 0.931 . S
C595 H583 0.929 . S
C595 C589 1.390 . S
C595 C592 1.386 . S
C596 C591 1.490 . S
C596 C598 1.395 . S
C596 C599 1.403 . S
H597 C603 0.930 . S
C598 H584 0.930 . S
C598 C596 1.395 . S
C598 C601 1.403 . S
C599 C596 1.403 . S
C599 C600 1.524 . S
C599 C603 1.400 . S
C600 H585 0.960 . S
C600 H586 0.960 . S
C600 H587 0.960 . S
C600 C599 1.524 . S
C601 C598 1.403 . S
C601 C602 1.392 . S
C601 C605 1.495 . S
C602 C601 1.392 . S
C602 C603 1.385 . S
C602 C604 1.478 . S
C603 H597 0.930 . S
C603 C599 1.400 . S
C603 C602 1.385 . S
C604 C602 1.478 . S
C604 C606 1.381 . S
C604 C610 1.383 . S
C605 C601 1.495 . S
C605 H611 0.959 . S
C605 H612 0.961 . S
C605 H613 0.960 . S
C606 C604 1.381 . S
C606 C607 1.394 . S
C606 H614 0.930 . S
C607 C606 1.394 . S
C607 C608 1.383 . S
C607 H615 0.929 . S
C608 C607 1.383 . S
C608 C609 1.377 . S
C609 H593 0.930 . S
C609 C608 1.377 . S
C609 C610 1.379 . S
C610 H594 0.931 . S
C610 C604 1.383 . S
C610 C609 1.379 . S
H611 C605 0.959 . S
H612 C605 0.961 . S
H613 C605 0.960 . S
H614 C606 0.930 . S
H615 C607 0.929 . S
H616 C624 0.929 . S
H617 C626 0.930 . S
H618 C628 0.930 . S
H619 C631 0.929 . S
H620 C634 0.930 . S
H621 C636 0.960 . S
H622 C636 0.960 . S
H623 C636 0.960 . S
C624 H616 0.929 . S
C624 C625 1.377 . S
C624 C626 1.384 . S
C625 C624 1.377 . S
C625 C631 1.390 . S
C626 H617 0.930 . S
C626 C624 1.384 . S
C626 C627 1.372 . S
C627 C626 1.372 . S
C627 C628 1.400 . S
C627 C632 1.490 . S
C628 H618 0.930 . S
C628 C627 1.400 . S
C628 C631 1.386 . S
H629 C645 0.930 . S
H630 C646 0.931 . S
C631 H619 0.929 . S
C631 C625 1.390 . S
C631 C628 1.386 . S
C632 C627 1.490 . S
C632 C634 1.395 . S
C632 C635 1.403 1_554 S
H633 C639 0.930 . S
C634 H620 0.930 . S
C634 C632 1.395 . S
C634 C637 1.403 . S
C635 C632 1.403 1_556 S
C635 C636 1.524 . S
C635 C639 1.400 . S
C636 H621 0.960 . S
C636 H622 0.960 . S
C636 H623 0.960 . S
C636 C635 1.524 . S
C637 C634 1.403 . S
C637 C638 1.392 1_554 S
C637 C641 1.495 . S
C638 C637 1.392 1_556 S
C638 C639 1.385 . S
C638 C640 1.478 . S
C639 H633 0.930 . S
C639 C635 1.400 . S
C639 C638 1.385 . S
C640 C638 1.478 . S
C640 C642 1.381 . S
C640 C646 1.383 . S
C641 C637 1.495 . S
C641 H647 0.959 . S
C641 H648 0.961 . S
C641 H649 0.960 . S
C642 C640 1.381 . S
C642 C643 1.394 . S
C642 H650 0.930 . S
C643 C642 1.394 . S
C643 C644 1.383 . S
C643 H651 0.929 . S
C644 C643 1.383 . S
C644 C645 1.377 . S
C645 H629 0.930 . S
C645 C644 1.377 . S
C645 C646 1.379 . S
C646 H630 0.931 . S
C646 C640 1.383 . S
C646 C645 1.379 . S
H647 C641 0.959 . S
H648 C641 0.961 . S
H649 C641 0.960 . S
H650 C642 0.930 . S
H651 C643 0.929 . S
H652 C660 0.929 . S
H653 C662 0.930 . S
H654 C664 0.930 . S
H655 C667 0.929 . S
H656 C670 0.930 . S
H657 C672 0.960 . S
H658 C672 0.960 . S
H659 C672 0.960 . S
C660 H652 0.929 . S
C660 C661 1.377 . S
C660 C662 1.384 . S
C661 C660 1.377 . S
C661 C667 1.390 . S
C662 H653 0.930 . S
C662 C660 1.384 . S
C662 C663 1.372 . S
C663 C662 1.372 . S
C663 C664 1.400 . S
C663 C668 1.490 . S
C664 H654 0.930 . S
C664 C663 1.400 . S
C664 C667 1.386 . S
H665 C681 0.930 . S
H666 C682 0.931 . S
C667 H655 0.929 . S
C667 C661 1.390 . S
C667 C664 1.386 . S
C668 C663 1.490 . S
C668 C670 1.395 . S
C668 C671 1.403 . S
H669 C675 0.930 . S
C670 H656 0.930 . S
C670 C668 1.395 . S
C670 C673 1.403 . S
C671 C668 1.403 . S
C671 C672 1.524 . S
C671 C675 1.400 . S
C672 H657 0.960 . S
C672 H658 0.960 . S
C672 H659 0.960 . S
C672 C671 1.524 . S
C673 C670 1.403 . S
C673 C674 1.392 . S
C673 C677 1.495 . S
C674 C673 1.392 . S
C674 C675 1.385 . S
C674 C676 1.478 . S
C675 H669 0.930 . S
C675 C671 1.400 . S
C675 C674 1.385 . S
C676 C674 1.478 . S
C676 C678 1.381 . S
C676 C682 1.383 . S
C677 C673 1.495 . S
C677 H683 0.959 . S
C677 H684 0.961 . S
C677 H685 0.960 . S
C678 C676 1.381 . S
C678 C679 1.394 . S
C678 H686 0.930 . S
C679 C678 1.394 . S
C679 C680 1.383 . S
C679 H687 0.929 . S
C680 C679 1.383 . S
C680 C681 1.377 . S
C681 H665 0.930 . S
C681 C680 1.377 . S
C681 C682 1.379 . S
C682 H666 0.931 . S
C682 C676 1.383 . S
C682 C681 1.379 . S
H683 C677 0.959 . S
H684 C677 0.961 . S
H685 C677 0.960 . S
H686 C678 0.930 . S
H687 C679 0.929 . S
C121 C77 1.493 . S
C140 C13 1.411 . S
C157 C105 1.493 . S
C176 C27 1.373 . S
C193 C36 1.464 . S
C212 C92 1.439 . S
C229 C53 1.494 . S
C248 C67 1.493 . S
C265 C97 1.402 . S
C284 C7 1.487 . S
C301 C22 1.466 . S
C320 C64 1.444 . S
C337 C81 1.495 . S
C356 C39 1.486 . S
C373 C49 1.492 . S
C392 C111 1.360 . S
C409 C63 1.491 . S
C428 C83 1.384 . S
C445 C21 1.492 . S
C464 C41 1.392 . S
C481 C55 1.402 . S
C500 C35 1.487 . S
C517 C50 1.463 . S
C536 C8 1.443 . S
C553 C25 1.495 . S
C572 C11 1.489 . S
C589 C109 1.492 . S
C608 C95 1.499 . S
C625 C69 1.403 . S
C644 C91 1.489 . S
C661 C78 1.466 . S
C680 C106 1.439 . S
