# Generated by pormake.
# Topology mmt, (4)-cn, num edge types: 1
# Building blocks:
#     Node 0, Type 0, BuildingBlock: CEKHIL_clean_sbu_0, # of connection points: 4
#     Node 1, Type 0, BuildingBlock: CEKHIL_clean_sbu_0, # of connection points: 4
#     Node 2, Type 0, BuildingBlock: CEKHIL_clean_sbu_0, # of connection points: 4
#     Node 3, Type 0, BuildingBlock: CEKHIL_clean_sbu_0, # of connection points: 4
#     Node 4, Type 0, BuildingBlock: CEKHIL_clean_sbu_0, # of connection points: 4
#     Node 5, Type 0, BuildingBlock: CEKHIL_clean_sbu_0, # of connection points: 4
#     Node 6, Type 0, BuildingBlock: CEKHIL_clean_sbu_0, # of connection points: 4
#     Node 7, Type 0, BuildingBlock: CEKHIL_clean_sbu_0, # of connection points: 4
#     Edge 8, Type (0, 0), BuildingBlock: FUNLAD_clean_linker_1, # of connection points: 2
#     Edge 9, Type (0, 0), BuildingBlock: FUNLAD_clean_linker_1, # of connection points: 2
#     Edge 10, Type (0, 0), BuildingBlock: FUNLAD_clean_linker_1, # of connection points: 2
#     Edge 11, Type (0, 0), BuildingBlock: FUNLAD_clean_linker_1, # of connection points: 2
#     Edge 12, Type (0, 0), BuildingBlock: FUNLAD_clean_linker_1, # of connection points: 2
#     Edge 13, Type (0, 0), BuildingBlock: FUNLAD_clean_linker_1, # of connection points: 2
#     Edge 14, Type (0, 0), BuildingBlock: FUNLAD_clean_linker_1, # of connection points: 2
#     Edge 15, Type (0, 0), BuildingBlock: FUNLAD_clean_linker_1, # of connection points: 2
#     Edge 16, Type (0, 0), BuildingBlock: FUNLAD_clean_linker_1, # of connection points: 2
#     Edge 17, Type (0, 0), BuildingBlock: FUNLAD_clean_linker_1, # of connection points: 2
#     Edge 18, Type (0, 0), BuildingBlock: FUNLAD_clean_linker_1, # of connection points: 2
#     Edge 19, Type (0, 0), BuildingBlock: FUNLAD_clean_linker_1, # of connection points: 2
#     Edge 20, Type (0, 0), BuildingBlock: FUNLAD_clean_linker_1, # of connection points: 2
#     Edge 21, Type (0, 0), BuildingBlock: FUNLAD_clean_linker_1, # of connection points: 2
#     Edge 22, Type (0, 0), BuildingBlock: FUNLAD_clean_linker_1, # of connection points: 2
#     Edge 23, Type (0, 0), BuildingBlock: FUNLAD_clean_linker_1, # of connection points: 2
# Relax obj value: 0.032
# Max RMSD: 0.050
# Mean RMSD: 0.050
data_MOF--net-mmt--node1-CEKHIL_clean_sbu_0--edge1-FUNLAD_clean_linker_1
_symmetry_space_group_name_H-M    P1
_symmetry_Int_Tables_number       1
_symmetry_cell_setting            triclinic
loop_
_symmetry_equiv_pos_as_xyz
'x, y, z'
_cell_length_a     23.26376
_cell_length_b     38.152656
_cell_length_c     46.121128
_cell_angle_alpha  90.009525
_cell_angle_beta   90.002968
_cell_angle_gamma 89.996378
loop_
_atom_site_label
_atom_site_type_symbol
_atom_site_fract_x
_atom_site_fract_y
_atom_site_fract_z
_atom_type_partial_charge
Co0 Co 0.11632 0.57462 0.36307 0.0
O1 O 0.06223 0.58767 0.39301 0.0
O2 O 0.10781 0.53691 0.39126 0.0
C3 C 0.16658 0.6255 0.36378 0.0
O4 O 0.17703 0.55224 0.33662 0.0
Co5 Co 0.12213 0.61464 0.30497 0.0
O6 O 0.1929 0.58696 0.29804 0.0
C7 C 0.02942 0.5631 0.31396 0.0
C8 C 0.07211 0.55744 0.40481 0.0
C9 C 0.20486 0.56011 0.31332 0.0
O10 O 0.05173 0.55464 0.33856 0.0
O11 O 0.04892 0.58792 0.29807 0.0
O12 O 0.17713 0.60089 0.38245 0.0
O13 O 0.12315 0.62006 0.34682 0.0
Co14 Co 0.38196 0.93057 0.3695 0.0
O15 O 0.43436 0.91841 0.40044 0.0
O16 O 0.3872 0.96856 0.39768 0.0
C17 C 0.33344 0.87908 0.36929 0.0
O18 O 0.32239 0.9519 0.34181 0.0
Co19 Co 0.38234 0.88997 0.31143 0.0
O20 O 0.31117 0.91667 0.30308 0.0
C21 C 0.47206 0.94302 0.32206 0.0
C22 C 0.42281 0.94862 0.41188 0.0
C23 C 0.29683 0.9434 0.31799 0.0
O24 O 0.44748 0.95136 0.34613 0.0
O25 O 0.45491 0.91774 0.30597 0.0
O26 O 0.32072 0.90349 0.3878 0.0
O27 O 0.37798 0.88507 0.35324 0.0
Co28 Co 0.61628 0.42472 0.14287 0.0
O29 O 0.56209 0.41292 0.11257 0.0
O30 O 0.60858 0.46329 0.11546 0.0
C31 C 0.66587 0.37353 0.14141 0.0
O32 O 0.67719 0.44608 0.16972 0.0
Co33 Co 0.62108 0.38329 0.20032 0.0
O34 O 0.69089 0.41139 0.20854 0.0
C35 C 0.52869 0.43512 0.19184 0.0
C36 C 0.57248 0.44349 0.10147 0.0
C37 C 0.70379 0.43816 0.19336 0.0
O38 O 0.55187 0.44446 0.16767 0.0
O39 O 0.54745 0.40957 0.20717 0.0
O40 O 0.67682 0.39851 0.12314 0.0
O41 O 0.6224 0.37882 0.15837 0.0
Co42 Co 0.87934 0.06676 0.14424 0.0
O43 O 0.93027 0.07177 0.111 0.0
O44 O 0.87963 0.02435 0.12123 0.0
C45 C 0.83381 0.11903 0.13973 0.0
O46 O 0.82035 0.05118 0.17449 0.0
Co47 Co 0.88304 0.11525 0.1979 0.0
O48 O 0.81221 0.09056 0.21048 0.0
C49 C 0.97044 0.05964 0.19192 0.0
C50 C 0.91525 0.04007 0.10392 0.0
C51 C 0.79641 0.06247 0.19787 0.0
O52 O 0.94495 0.04833 0.16893 0.0
O53 O 0.95462 0.08725 0.20555 0.0
O54 O 0.81875 0.09235 0.12398 0.0
O55 O 0.87879 0.11444 0.1558 0.0
Co56 Co 0.89062 0.43309 0.64483 0.0
O57 O 0.94455 0.42036 0.61474 0.0
O58 O 0.89883 0.47106 0.61684 0.0
C59 C 0.84053 0.38216 0.64389 0.0
O60 O 0.83008 0.45516 0.67155 0.0
Co61 Co 0.88523 0.39243 0.70268 0.0
O62 O 0.81397 0.41967 0.70963 0.0
C63 C 0.9777 0.44425 0.6939 0.0
C64 C 0.93451 0.45068 0.60312 0.0
C65 C 0.80206 0.4468 0.69468 0.0
O66 O 0.95523 0.45295 0.6694 0.0
O67 O 0.9584 0.4192 0.70962 0.0
O68 O 0.82973 0.40691 0.6254 0.0
O69 O 0.88405 0.38752 0.6608 0.0
Co70 Co 0.61417 0.0794 0.64715 0.0
O71 O 0.55549 0.09116 0.61907 0.0
O72 O 0.60184 0.04064 0.62037 0.0
C73 C 0.66358 0.13046 0.64313 0.0
O74 O 0.67893 0.05795 0.67164 0.0
Co75 Co 0.63153 0.12229 0.70364 0.0
O76 O 0.70224 0.09411 0.70834 0.0
C77 C 0.54055 0.06801 0.70125 0.0
C78 C 0.56418 0.06058 0.60762 0.0
C79 C 0.71059 0.0664 0.69352 0.0
O80 O 0.55404 0.06019 0.6749 0.0
O81 O 0.5652 0.09219 0.71588 0.0
O82 O 0.6715 0.10523 0.6247 0.0
O83 O 0.62331 0.12538 0.66196 0.0
Co84 Co 0.39048 0.58071 0.86605 0.0
O85 O 0.44483 0.59204 0.89638 0.0
O86 O 0.39749 0.54197 0.89336 0.0
C87 C 0.34189 0.63225 0.86766 0.0
O88 O 0.32932 0.55985 0.83908 0.0
Co89 Co 0.38639 0.62252 0.80874 0.0
O90 O 0.31594 0.59498 0.8005 0.0
C91 C 0.47814 0.57023 0.81718 0.0
C92 C 0.43391 0.5615 0.90741 0.0
C93 C 0.30272 0.56813 0.81552 0.0
O94 O 0.45451 0.56066 0.84118 0.0
O95 O 0.45998 0.59609 0.80204 0.0
O96 O 0.3304 0.60727 0.88585 0.0
O97 O 0.38523 0.62668 0.85069 0.0
Co98 Co 0.12651 0.93845 0.86236 0.0
O99 O 0.0789 0.93349 0.89681 0.0
O100 O 0.12558 0.98165 0.88441 0.0
C101 C 0.17504 0.88724 0.86734 0.0
O102 O 0.18093 0.95438 0.83012 0.0
Co103 Co 0.12311 0.88784 0.81006 0.0
O104 O 0.19589 0.91099 0.7981 0.0
C105 C 0.03356 0.9427 0.81569 0.0
C106 C 0.09245 0.96574 0.90284 0.0
C107 C 0.20765 0.94117 0.80827 0.0
O108 O 0.05816 0.95451 0.83872 0.0
O109 O 0.05103 0.91547 0.80199 0.0
O110 O 0.19028 0.91487 0.88187 0.0
O111 O 0.12879 0.89044 0.85199 0.0
H112 H 0.26208 0.51369 0.31655 0.0
C113 C 0.25139 0.53636 0.30333 0.0
H114 H 0.2675 0.56344 0.26419 0.0
H115 H 0.51076 0.4747 0.27169 0.0
H116 H 0.53097 0.50892 0.31476 0.0
H117 H 0.45714 0.54757 0.33597 0.0
H118 H 0.36254 0.55209 0.31435 0.0
C119 C 0.27942 0.54162 0.27808 0.0
C120 C 0.32347 0.51673 0.26656 0.0
C121 C 0.37868 0.51435 0.27948 0.0
C122 C 0.42151 0.49225 0.26704 0.0
C123 C 0.47644 0.49076 0.28028 0.0
C124 C 0.48874 0.5104 0.30497 0.0
C125 C 0.44717 0.53215 0.31692 0.0
C126 C 0.39285 0.53434 0.30435 0.0
H127 H 0.46439 0.47793 0.18999 0.0
C128 C 0.47949 0.45597 0.20293 0.0
H129 H 0.47104 0.4285 0.24247 0.0
H130 H 0.22216 0.51484 0.2365 0.0
H131 H 0.20153 0.48019 0.19367 0.0
H132 H 0.27497 0.44103 0.17274 0.0
H133 H 0.36959 0.43648 0.19433 0.0
C134 C 0.45485 0.44956 0.22888 0.0
C135 C 0.40948 0.47281 0.24148 0.0
C136 C 0.35398 0.47483 0.2288 0.0
C137 C 0.31124 0.49704 0.24118 0.0
C138 C 0.25632 0.49858 0.22797 0.0
C139 C 0.24378 0.47871 0.20343 0.0
C140 C 0.28514 0.45669 0.19163 0.0
C141 C 0.33952 0.45452 0.20415 0.0
H142 H 0.03341 0.016 0.19167 0.0
C143 C 0.01878 0.03872 0.20383 0.0
H144 H 0.02903 0.06877 0.24201 0.0
H145 H 0.14205 0.91749 0.28414 0.0
H146 H 0.04631 0.89356 0.27796 0.0
H147 H 0.96869 0.9292 0.25658 0.0
H148 H 0.9864 0.98879 0.24097 0.0
C149 C 0.04265 0.04585 0.22984 0.0
C150 C 0.08931 0.02387 0.24277 0.0
C151 C 0.07796 0.98912 0.2522 0.0
C152 C 0.12255 0.96874 0.26505 0.0
C153 C 0.10997 0.9341 0.27414 0.0
C154 C 0.0551 0.92006 0.27085 0.0
C155 C 0.01143 0.94011 0.25878 0.0
C156 C 0.02236 0.97427 0.24969 0.0
H157 H 0.23651 0.98846 0.32002 0.0
C158 C 0.25003 0.96625 0.30693 0.0
H159 H 0.23764 0.93816 0.26792 0.0
H160 H 0.12517 0.0898 0.22811 0.0
H161 H 0.22071 0.1139 0.23466 0.0
H162 H 0.29823 0.07835 0.25623 0.0
H163 H 0.28064 0.01865 0.27163 0.0
C164 C 0.22524 0.96072 0.28087 0.0
C165 C 0.17814 0.98326 0.26909 0.0
C166 C 0.18932 0.01814 0.25997 0.0
C167 C 0.14474 0.03851 0.24707 0.0
C168 C 0.15724 0.0732 0.23812 0.0
C169 C 0.21198 0.08734 0.24164 0.0
C170 C 0.25561 0.06734 0.25381 0.0
C171 C 0.24477 0.0331 0.26275 0.0
H172 H 0.76472 0.48266 0.18949 0.0
C173 C 0.7504 0.46164 0.20365 0.0
H174 H 0.76054 0.43694 0.24431 0.0
H175 H 0.01196 0.48639 0.27155 0.0
H176 H 0.0266 0.42462 0.26213 0.0
H177 H 0.94801 0.38796 0.24296 0.0
H178 H 0.85441 0.41296 0.23285 0.0
C179 C 0.77407 0.45821 0.23022 0.0
C180 C 0.82165 0.48117 0.24096 0.0
C181 C 0.87604 0.46611 0.24726 0.0
C182 C 0.9212 0.48717 0.25878 0.0
C183 C 0.9756 0.47155 0.26368 0.0
C184 C 0.98478 0.4361 0.25815 0.0
C185 C 0.94056 0.41547 0.24733 0.0
C186 C 0.88689 0.43016 0.24175 0.0
H187 H 0.96301 0.52162 0.31708 0.0
C188 C 0.98039 0.54196 0.3031 0.0
H189 H 0.97531 0.5664 0.26203 0.0
H190 H 0.7214 0.51815 0.23402 0.0
H191 H 0.70711 0.58002 0.24309 0.0
H192 H 0.78602 0.61674 0.26185 0.0
H193 H 0.87964 0.59164 0.27197 0.0
C194 C 0.95903 0.54583 0.27609 0.0
C195 C 0.9117 0.52327 0.26453 0.0
C196 C 0.85751 0.53842 0.25801 0.0
C197 C 0.81225 0.51733 0.24657 0.0
C198 C 0.75788 0.53299 0.24173 0.0
C199 C 0.7489 0.56851 0.24707 0.0
C200 C 0.79331 0.58917 0.25767 0.0
C201 C 0.84693 0.57443 0.26328 0.0
H202 H 0.73447 0.01849 0.19874 0.0
C203 C 0.74984 0.04108 0.21083 0.0
H204 H 0.74201 0.07055 0.24943 0.0
H205 H 0.49039 0.01984 0.27956 0.0
H206 H 0.47411 0.08081 0.26762 0.0
H207 H 0.5522 0.11733 0.24775 0.0
H208 H 0.64699 0.09295 0.23948 0.0
C209 C 0.72775 0.04775 0.23728 0.0
C210 C 0.68139 0.0256 0.25028 0.0
C211 C 0.62644 0.0404 0.25564 0.0
C212 C 0.58155 0.01944 0.26755 0.0
C213 C 0.52651 0.03465 0.27138 0.0
C214 C 0.51641 0.06963 0.26442 0.0
C215 C 0.56036 0.09018 0.25321 0.0
C216 C 0.61468 0.07585 0.24867 0.0
H217 H 0.53654 0.98553 0.32616 0.0
C218 C 0.52099 0.9648 0.31202 0.0
H219 H 0.53001 0.93993 0.2713 0.0
H220 H 0.78359 0.98997 0.24661 0.0
H221 H 0.79996 0.92904 0.25871 0.0
H222 H 0.72155 0.89235 0.27807 0.0
H223 H 0.62639 0.91658 0.28574 0.0
C224 C 0.54445 0.9609 0.28548 0.0
C225 C 0.59193 0.98377 0.27461 0.0
C226 C 0.6471 0.96911 0.26964 0.0
C227 C 0.69205 0.9901 0.25785 0.0
C228 C 0.74731 0.97504 0.25446 0.0
C229 C 0.75748 0.9401 0.26157 0.0
C230 C 0.71337 0.91947 0.27251 0.0
C231 C 0.65886 0.93369 0.27669 0.0
H232 H 0.53939 0.52576 0.8179 0.0
C233 C 0.52687 0.54909 0.80594 0.0
H234 H 0.54081 0.57968 0.76844 0.0
H235 H 0.77955 0.48241 0.77487 0.0
H236 H 0.79828 0.51068 0.82095 0.0
H237 H 0.72709 0.55069 0.84274 0.0
H238 H 0.63656 0.5624 0.81873 0.0
C239 C 0.55418 0.55697 0.78096 0.0
C240 C 0.5986 0.53346 0.76778 0.0
C241 C 0.65194 0.5274 0.78186 0.0
C242 C 0.69355 0.50479 0.76899 0.0
C243 C 0.74626 0.49913 0.78366 0.0
C244 C 0.75775 0.51533 0.81009 0.0
C245 C 0.71764 0.53782 0.82237 0.0
C246 C 0.66551 0.54407 0.80844 0.0
H247 H 0.74724 0.49437 0.69289 0.0
C248 C 0.75576 0.4705 0.70502 0.0
H249 H 0.73507 0.44056 0.7421 0.0
H250 H 0.50156 0.53987 0.73452 0.0
H251 H 0.48332 0.512 0.68826 0.0
H252 H 0.55504 0.47257 0.66622 0.0
H253 H 0.64559 0.46094 0.69022 0.0
C254 C 0.7255 0.4638 0.72936 0.0
C255 C 0.68254 0.48885 0.74172 0.0
C256 C 0.62954 0.49529 0.72744 0.0
C257 C 0.5878 0.51777 0.74037 0.0
C258 C 0.53507 0.52336 0.72569 0.0
C259 C 0.52385 0.50738 0.69914 0.0
C260 C 0.56424 0.4852 0.68672 0.0
C261 C 0.61633 0.47895 0.70068 0.0
H262 H 0.7664 0.01942 0.68937 0.0
C263 C 0.75675 0.04204 0.70284 0.0
H264 H 0.77584 0.06923 0.74159 0.0
H265 H 0.87618 0.91418 0.77946 0.0
H266 H 0.77818 0.89328 0.77456 0.0
H267 H 0.7027 0.93128 0.75402 0.0
H268 H 0.72472 0.9902 0.73801 0.0
C269 C 0.78472 0.04642 0.72821 0.0
C270 C 0.83045 0.0221 0.73877 0.0
C271 C 0.81661 0.9877 0.74825 0.0
C272 C 0.85998 0.96594 0.76062 0.0
C273 C 0.84498 0.93177 0.76992 0.0
C274 C 0.78886 0.91947 0.76731 0.0
C275 C 0.74638 0.94086 0.75572 0.0
C276 C 0.75974 0.97462 0.74642 0.0
H277 H 0.97003 0.98589 0.81556 0.0
C278 C 0.9849 0.96307 0.80359 0.0
H279 H 0.97549 0.93306 0.76528 0.0
H280 H 0.87186 0.08617 0.72227 0.0
H281 H 0.96998 0.10683 0.72692 0.0
H282 H 0.0452 0.06891 0.7478 0.0
H283 H 0.02274 0.01026 0.76436 0.0
C284 C 0.96174 0.95596 0.77745 0.0
C285 C 0.91675 0.97879 0.76414 0.0
C286 C 0.93083 0.01293 0.75415 0.0
C287 C 0.88756 0.03464 0.74171 0.0
C288 C 0.90286 0.06864 0.73205 0.0
C289 C 0.9591 0.0808 0.73446 0.0
C290 C 1.00144 0.05946 0.74624 0.0
C291 C 0.98781 0.02587 0.75586 0.0
H292 H 0.24347 0.52269 0.81843 0.0
C293 C 0.25614 0.54478 0.80499 0.0
H294 H 0.24225 0.57186 0.76564 0.0
H295 H 0.13282 0.41727 0.73054 0.0
H296 H 0.22937 0.3945 0.73681 0.0
H297 H 0.30662 0.43184 0.75649 0.0
H298 H 0.28779 0.49199 0.77029 0.0
C299 C 0.23071 0.54947 0.77898 0.0
C300 C 0.18408 0.52608 0.76786 0.0
C301 C 0.19604 0.49097 0.75958 0.0
C302 C 0.15166 0.46957 0.74768 0.0
C303 C 0.16482 0.43464 0.73969 0.0
C304 C 0.22011 0.42125 0.74308 0.0
C305 C 0.26358 0.44227 0.75419 0.0
C306 C 0.25204 0.47675 0.76223 0.0
H307 H 0.04235 0.48682 0.69156 0.0
C308 C 0.02644 0.46549 0.70496 0.0
H309 H 0.03461 0.43893 0.74502 0.0
H310 H 0.14637 0.59201 0.78138 0.0
H311 H 0.04984 0.6147 0.77505 0.0
H312 H 0.9729 0.57747 0.75493 0.0
H313 H 0.99205 0.51746 0.74081 0.0
C314 C 0.04923 0.46051 0.73153 0.0
C315 C 0.09571 0.48342 0.74344 0.0
C316 C 0.08367 0.51846 0.75183 0.0
C317 C 0.12796 0.53983 0.76381 0.0
C318 C 0.11458 0.57468 0.77202 0.0
C319 C 0.05926 0.58802 0.76862 0.0
C320 C 0.01595 0.56707 0.75727 0.0
C321 C 0.02767 0.53267 0.74907 0.0
H322 H 0.23907 0.99153 0.79132 0.0
C323 C 0.2486 0.96369 0.79239 0.0
H324 H 0.30477 0.92302 0.78077 0.0
H325 H 0.43099 0.98277 0.6725 0.0
H326 H 0.39355 0.92728 0.65557 0.0
H327 H 0.32649 0.89289 0.68562 0.0
H328 H 0.29754 0.91333 0.733 0.0
C329 C 0.29586 0.95092 0.77921 0.0
C330 C 0.33448 0.97311 0.7606 0.0
C331 C 0.34892 0.96156 0.73217 0.0
C332 C 0.38583 0.98213 0.71423 0.0
C333 C 0.40202 0.96883 0.68673 0.0
C334 C 0.38091 0.9369 0.67671 0.0
C335 C 0.34326 0.91751 0.69366 0.0
C336 C 0.32723 0.92955 0.72099 0.0
H337 H 0.50763 0.04136 0.73985 0.0
C338 C 0.49837 0.04648 0.71713 0.0
H339 H 0.43827 0.04096 0.68335 0.0
H340 H 0.33039 0.99986 0.81608 0.0
H341 H 0.35723 0.05858 0.83071 0.0
H342 H 0.40026 0.09974 0.7956 0.0
H343 H 0.42001 0.08144 0.74624 0.0
C344 C 0.44811 0.03557 0.70594 0.0
C345 C 0.40594 0.01521 0.72399 0.0
C346 C 0.38802 0.02784 0.75157 0.0
C347 C 0.35644 0.00572 0.77067 0.0
C348 C 0.34851 0.01684 0.79972 0.0
C349 C 0.36459 0.05034 0.80856 0.0
C350 C 0.38925 0.07339 0.78888 0.0
C351 C 0.40098 0.0624 0.76071 0.0
H352 H 0.01459 0.56699 0.44199 0.0
C353 C 0.04474 0.54824 0.43284 0.0
H354 H 0.08609 0.49952 0.43886 0.0
H355 H 0.0111 0.5421 0.57392 0.0
H356 H 0.08052 0.58917 0.56918 0.0
H357 H 0.12849 0.60065 0.52245 0.0
H358 H 0.10713 0.56537 0.48014 0.0
C359 C 0.05705 0.51896 0.4479 0.0
C360 C 0.02952 0.51153 0.47669 0.0
C361 C 0.04295 0.53217 0.50143 0.0
C362 C 0.01595 0.52515 0.52861 0.0
C363 C 0.03023 0.54626 0.55282 0.0
C364 C 0.07012 0.57332 0.55042 0.0
C365 C 0.09707 0.57982 0.5241 0.0
C366 C 0.08405 0.55949 0.49989 0.0
H367 H 0.99179 0.44145 0.56581 0.0
C368 C 0.96164 0.46011 0.57509 0.0
H369 H 0.92008 0.5088 0.56932 0.0
H370 H 0.99469 0.46651 0.43409 0.0
H371 H 0.92519 0.41949 0.43882 0.0
H372 H 0.87722 0.40801 0.48555 0.0
H373 H 0.89868 0.44325 0.52788 0.0
C374 C 0.94913 0.48945 0.56016 0.0
C375 C 0.97641 0.49702 0.53134 0.0
C376 C 0.96292 0.47641 0.50658 0.0
C377 C 0.98992 0.48344 0.47941 0.0
C378 C 0.97559 0.46234 0.45519 0.0
C379 C 0.93564 0.43531 0.45758 0.0
C380 C 0.90869 0.42882 0.4839 0.0
C381 C 0.92177 0.44912 0.50813 0.0
H382 H 0.47835 0.94005 0.44997 0.0
C383 C 0.44872 0.95857 0.4401 0.0
H384 H 0.40816 0.00779 0.44445 0.0
H385 H 0.48059 0.97053 0.58104 0.0
H386 H 0.40933 0.9243 0.57761 0.0
H387 H 0.36123 0.91137 0.53116 0.0
H388 H 0.38425 0.94441 0.48781 0.0
C389 C 0.43646 0.9885 0.45427 0.0
C390 C 0.46373 0.99702 0.48292 0.0
C391 C 0.4494 0.97768 0.50825 0.0
C392 C 0.47655 0.98551 0.53524 0.0
C393 C 0.46139 0.96569 0.56004 0.0
C394 C 0.42045 0.93913 0.5584 0.0
C395 C 0.39341 0.93183 0.53224 0.0
C396 C 0.40735 0.95086 0.50744 0.0
H397 H 0.50329 0.069 0.57159 0.0
C398 C 0.53421 0.05053 0.58047 0.0
H399 H 0.57581 1.00189 0.57433 0.0
H400 H 0.50023 0.03977 0.43911 0.0
H401 H 0.57124 0.08611 0.4426 0.0
H402 H 0.61924 0.09905 0.48906 0.0
H403 H 0.59637 0.06595 0.53235 0.0
C404 C 0.54582 0.02099 0.5656 0.0
C405 C 0.51726 0.01309 0.53717 0.0
C406 C 0.53138 0.03255 0.51188 0.0
C407 C 0.50424 0.02473 0.48489 0.0
C408 C 0.51937 0.0446 0.46011 0.0
C409 C 0.56018 0.07123 0.46179 0.0
C410 C 0.58717 0.07854 0.48795 0.0
C411 C 0.57331 0.05944 0.51272 0.0
H412 H 0.51408 0.43602 0.06427 0.0
C413 C 0.54493 0.45405 0.0738 0.0
H414 H 0.58745 0.50258 0.06911 0.0
H415 H 0.50615 0.46747 0.93335 0.0
H416 H 0.57239 0.41852 0.93607 0.0
H417 H 0.62109 0.4038 0.98198 0.0
H418 H 0.60358 0.43769 0.02548 0.0
C419 C 0.55771 0.48389 0.05958 0.0
C420 C 0.52963 0.49316 0.03128 0.0
C421 C 0.54087 0.47333 0.00581 0.0
C422 C 0.51352 0.48225 0.9791 0.0
C423 C 0.5256 0.46189 0.95415 0.0
C424 C 0.56368 0.43377 0.95538 0.0
C425 C 0.59103 0.42544 0.98124 0.0
C426 C 0.58019 0.44499 0.00615 0.0
H427 H 0.49221 0.56857 0.94469 0.0
C428 C 0.4612 0.5507 0.93508 0.0
H429 H 0.41814 0.50233 0.93963 0.0
H430 H 0.49918 0.5371 0.0755 0.0
H431 H 0.4329 0.58602 0.07277 0.0
H432 H 0.38429 0.60077 0.02685 0.0
H433 H 0.40191 0.56692 0.98333 0.0
C434 C 0.44804 0.52088 0.94922 0.0
C435 C 0.47588 0.51147 0.97754 0.0
C436 C 0.46459 0.53127 1.00302 0.0
C437 C 0.49192 0.52235 0.02974 0.0
C438 C 0.47978 0.54269 0.05469 0.0
C439 C 0.44167 0.5708 0.05346 0.0
C440 C 0.41436 0.57914 0.02759 0.0
C441 C 0.42526 0.55961 1.00267 0.0
H442 H 0.08778 0.01037 0.9333 0.0
C443 C 0.07266 0.9838 0.92955 0.0
H444 H 0.024 0.94173 0.94615 0.0
H445 H 0.03574 0.98721 0.07764 0.0
H446 H 0.0933 0.93435 0.07765 0.0
H447 H 0.11857 0.90481 0.03184 0.0
H448 H 0.0868 0.92812 0.98569 0.0
C449 C 0.03783 0.96867 0.94927 0.0
C450 C 0.02118 0.9867 0.977 0.0
C451 C 0.03907 0.97244 1.00399 0.0
C452 C 0.02361 0.9892 0.03056 0.0
C453 C 0.04443 0.97505 0.05693 0.0
C454 C 0.078 0.94483 0.05725 0.0
C455 C 0.09229 0.92822 0.03145 0.0
C456 C 0.07351 0.94184 0.00509 0.0
H457 H 0.92057 0.99603 0.07293 0.0
C458 C 0.93606 0.0224 0.07722 0.0
H459 H 0.98603 0.06447 0.0616 0.0
H460 H 0.97408 0.01932 0.92968 0.0
H461 H 0.91681 0.07228 0.9297 0.0
H462 H 0.89208 0.102 0.9755 0.0
H463 H 0.92405 0.07872 0.02163 0.0
C464 C 0.97191 0.03767 0.05805 0.0
C465 C 0.98914 0.01994 0.03029 0.0
C466 C 0.97139 0.03426 1.00331 0.0
C467 C 0.98672 0.01746 0.97674 0.0
C468 C 0.96568 0.03156 0.95039 0.0
C469 C 0.93224 0.06184 0.95008 0.0
C470 C 0.91824 0.07854 0.97588 0.0
C471 C 0.93711 0.06493 1.00222 0.0
H472 H 0.24153 0.65801 0.37521 0.0
C473 C 0.20131 0.65795 0.36322 0.0
H474 H 0.14317 0.68777 0.33832 0.0
H475 H 0.31472 0.80137 0.40941 0.0
H476 H 0.2783 0.77533 0.45357 0.0
H477 H 0.2099 0.72599 0.4518 0.0
H478 H 0.17942 0.70159 0.40586 0.0
C479 C 0.18319 0.68771 0.35047 0.0
C480 C 0.2174 0.72101 0.3518 0.0
C481 C 0.23113 0.73681 0.37885 0.0
C482 C 0.26661 0.76727 0.37984 0.0
C483 C 0.28461 0.77997 0.40725 0.0
C484 C 0.26452 0.76499 0.43284 0.0
C485 C 0.22633 0.73708 0.43185 0.0
C486 C 0.20966 0.72308 0.40527 0.0
H487 H 0.25756 0.84622 0.37829 0.0
C488 C 0.29894 0.84661 0.36736 0.0
H489 H 0.35945 0.81766 0.34323 0.0
H490 H 0.19958 0.69791 0.29632 0.0
H491 H 0.22999 0.72661 0.25205 0.0
H492 H 0.28394 0.78221 0.25365 0.0
H493 H 0.30853 0.80924 0.29953 0.0
C494 C 0.31826 0.81729 0.35434 0.0
C495 C 0.28381 0.78405 0.35371 0.0
C496 C 0.26854 0.76887 0.32667 0.0
C497 C 0.23603 0.73719 0.32573 0.0
C498 C 0.22311 0.72224 0.29837 0.0
C499 C 0.24044 0.73839 0.27275 0.0
C500 C 0.2709 0.76966 0.27365 0.0
C501 C 0.28487 0.78485 0.30019 0.0
H502 H 0.75895 0.15183 0.12834 0.0
C503 C 0.79985 0.15187 0.13972 0.0
H504 H 0.85878 0.18158 0.16422 0.0
H505 H 0.68336 0.29764 0.09857 0.0
H506 H 0.71676 0.27319 0.05319 0.0
H507 H 0.78434 0.22339 0.05256 0.0
H508 H 0.81718 0.197 0.09731 0.0
C509 C 0.81836 0.18162 0.15241 0.0
C510 C 0.78339 0.21469 0.15242 0.0
C511 C 0.76791 0.23151 0.12604 0.0
C512 C 0.73263 0.26211 0.12644 0.0
C513 C 0.71325 0.27601 0.09969 0.0
C514 C 0.7316 0.26196 0.0734 0.0
C515 C 0.76936 0.2338 0.07304 0.0
C516 C 0.78744 0.21867 0.09896 0.0
H517 H 0.74142 0.34127 0.13032 0.0
C518 C 0.70068 0.34104 0.14184 0.0
H519 H 0.64168 0.31078 0.16579 0.0
H520 H 0.8039 0.18922 0.20694 0.0
H521 H 0.77591 0.21602 0.25241 0.0
H522 H 0.7221 0.2717 0.25317 0.0
H523 H 0.69521 0.3007 0.20848 0.0
C524 C 0.68227 0.31105 0.15413 0.0
C525 C 0.71694 0.27785 0.15327 0.0
C526 C 0.73363 0.2615 0.17962 0.0
C527 C 0.76613 0.22979 0.17919 0.0
C528 C 0.78041 0.21366 0.20591 0.0
C529 C 0.76446 0.22871 0.23222 0.0
C530 C 0.73406 0.26001 0.23265 0.0
C531 C 0.71874 0.27634 0.20677 0.0
H532 H 0.73896 0.16184 0.63 0.0
C533 C 0.69974 0.16235 0.64279 0.0
H534 H 0.64528 0.19238 0.66949 0.0
H535 H 0.81451 0.30916 0.71126 0.0
H536 H 0.78943 0.28014 0.75621 0.0
H537 H 0.73426 0.22497 0.756 0.0
H538 H 0.70304 0.19872 0.71087 0.0
C539 C 0.68435 0.19203 0.65657 0.0
C540 C 0.72066 0.22452 0.65615 0.0
C541 C 0.74007 0.23916 0.68272 0.0
C542 C 0.77345 0.27051 0.68282 0.0
C543 C 0.79026 0.28504 0.7098 0.0
C544 C 0.77601 0.2687 0.73582 0.0
C545 C 0.74485 0.23768 0.73571 0.0
C546 C 0.72701 0.22296 0.70958 0.0
H547 H 0.76422 0.35025 0.63358 0.0
C548 C 0.80541 0.34988 0.6447 0.0
H549 H 0.86522 0.31942 0.66797 0.0
H550 H 0.68221 0.20815 0.60145 0.0
H551 H 0.71377 0.23424 0.55637 0.0
H552 H 0.78381 0.28277 0.55624 0.0
H553 H 0.8208 0.30633 0.60126 0.0
C554 C 0.82411 0.31984 0.65678 0.0
C555 C 0.78904 0.28684 0.6563 0.0
C556 C 0.7715 0.27144 0.62965 0.0
C557 C 0.73504 0.24137 0.62962 0.0
C558 C 0.7132 0.22918 0.60278 0.0
C559 C 0.73047 0.2442 0.57668 0.0
C560 C 0.76959 0.27165 0.57661 0.0
C561 C 0.79002 0.28519 0.60269 0.0
H562 H 0.26731 0.66523 0.87903 0.0
C563 C 0.30783 0.66503 0.86731 0.0
H564 H 0.367 0.69459 0.84286 0.0
H565 H 0.20521 0.81634 0.80146 0.0
H566 H 0.23164 0.78871 0.75609 0.0
H567 H 0.28487 0.73282 0.75555 0.0
H568 H 0.31271 0.70442 0.80037 0.0
C569 C 0.32665 0.69476 0.85474 0.0
C570 C 0.29263 0.7282 0.85547 0.0
C571 C 0.27549 0.74422 0.82906 0.0
C572 C 0.24335 0.77606 0.82938 0.0
C573 C 0.22846 0.79182 0.80258 0.0
C574 C 0.24353 0.7763 0.77633 0.0
C575 C 0.2736 0.74487 0.77603 0.0
C576 C 0.28947 0.7289 0.80197 0.0
H577 H 0.25144 0.85557 0.87855 0.0
C578 C 0.20996 0.85477 0.86773 0.0
H579 H 0.15047 0.82382 0.84467 0.0
H580 H 0.32737 0.70901 0.91011 0.0
H581 H 0.29601 0.73454 0.95547 0.0
H582 H 0.2296 0.78491 0.95606 0.0
H583 H 0.19582 0.81076 0.91127 0.0
C584 C 0.19147 0.82447 0.85595 0.0
C585 C 0.22699 0.79164 0.8561 0.0
C586 C 0.24325 0.7753 0.88255 0.0
C587 C 0.27802 0.74448 0.88223 0.0
C588 C 0.29795 0.73088 0.90899 0.0
C589 C 0.28075 0.74553 0.93525 0.0
C590 C 0.24364 0.77401 0.93557 0.0
C591 C 0.22498 0.78881 0.90964 0.0
loop_
_geom_bond_atom_site_label_1
_geom_bond_atom_site_label_2
_geom_bond_distance
_geom_bond_site_symmetry_2
_ccdc_geom_bond_type
Co0 O1 2.216 . S
Co0 O2 2.091 . S
Co0 O4 2.004 . S
Co0 O10 2.021 . S
Co0 O12 2.137 . S
Co0 O13 2.244 . S
O1 Co0 2.216 . S
O1 C8 1.247 . S
O2 Co0 2.091 . S
O2 C8 1.261 . S
C3 O12 1.247 . S
C3 O13 1.272 . S
O4 Co0 2.004 . S
O4 C9 1.259 . S
Co5 O6 2.061 . S
Co5 O11 2.052 . S
Co5 O13 2.135 . S
O6 Co5 2.061 . S
O6 C9 1.235 . S
C7 O10 1.238 . S
C7 O11 1.241 . S
C8 O1 1.247 . S
C8 O2 1.261 . S
C9 O4 1.259 . S
C9 O6 1.235 . S
O10 Co0 2.021 . S
O10 C7 1.238 . S
O11 Co5 2.052 . S
O11 C7 1.241 . S
O12 Co0 2.137 . S
O12 C3 1.247 . S
O13 Co0 2.244 . S
O13 C3 1.272 . S
O13 Co5 2.135 . S
Co14 O15 2.216 . S
Co14 O16 2.091 . S
Co14 O18 2.004 . S
Co14 O24 2.021 . S
Co14 O26 2.137 . S
Co14 O27 2.244 . S
O15 Co14 2.216 . S
O15 C22 1.247 . S
O16 Co14 2.091 . S
O16 C22 1.261 . S
C17 O26 1.247 . S
C17 O27 1.272 . S
O18 Co14 2.004 . S
O18 C23 1.259 . S
Co19 O20 2.061 . S
Co19 O25 2.052 . S
Co19 O27 2.135 . S
O20 Co19 2.061 . S
O20 C23 1.235 . S
C21 O24 1.238 . S
C21 O25 1.241 . S
C22 O15 1.247 . S
C22 O16 1.261 . S
C23 O18 1.259 . S
C23 O20 1.235 . S
O24 Co14 2.021 . S
O24 C21 1.238 . S
O25 Co19 2.052 . S
O25 C21 1.241 . S
O26 Co14 2.137 . S
O26 C17 1.247 . S
O27 Co14 2.244 . S
O27 C17 1.272 . S
O27 Co19 2.135 . S
Co28 O29 2.216 . S
Co28 O30 2.091 . S
Co28 O32 2.004 . S
Co28 O38 2.021 . S
Co28 O40 2.137 . S
Co28 O41 2.244 . S
O29 Co28 2.216 . S
O29 C36 1.247 . S
O30 Co28 2.091 . S
O30 C36 1.261 . S
C31 O40 1.247 . S
C31 O41 1.272 . S
O32 Co28 2.004 . S
O32 C37 1.259 . S
Co33 O34 2.061 . S
Co33 O39 2.052 . S
Co33 O41 2.135 . S
O34 Co33 2.061 . S
O34 C37 1.235 . S
C35 O38 1.238 . S
C35 O39 1.241 . S
C36 O29 1.247 . S
C36 O30 1.261 . S
C37 O32 1.259 . S
C37 O34 1.235 . S
O38 Co28 2.021 . S
O38 C35 1.238 . S
O39 Co33 2.052 . S
O39 C35 1.241 . S
O40 Co28 2.137 . S
O40 C31 1.247 . S
O41 Co28 2.244 . S
O41 C31 1.272 . S
O41 Co33 2.135 . S
Co42 O43 2.216 . S
Co42 O44 2.091 . S
Co42 O46 2.004 . S
Co42 O52 2.021 . S
Co42 O54 2.137 . S
Co42 O55 2.244 . S
O43 Co42 2.216 . S
O43 C50 1.247 . S
O44 Co42 2.091 . S
O44 C50 1.261 . S
C45 O54 1.247 . S
C45 O55 1.272 . S
O46 Co42 2.004 . S
O46 C51 1.259 . S
Co47 O48 2.061 . S
Co47 O53 2.052 . S
Co47 O55 2.135 . S
O48 Co47 2.061 . S
O48 C51 1.235 . S
C49 O52 1.238 . S
C49 O53 1.241 . S
C50 O43 1.247 . S
C50 O44 1.261 . S
C51 O46 1.259 . S
C51 O48 1.235 . S
O52 Co42 2.021 . S
O52 C49 1.238 . S
O53 Co47 2.052 . S
O53 C49 1.241 . S
O54 Co42 2.137 . S
O54 C45 1.247 . S
O55 Co42 2.244 . S
O55 C45 1.272 . S
O55 Co47 2.135 . S
Co56 O57 2.216 . S
Co56 O58 2.091 . S
Co56 O60 2.004 . S
Co56 O66 2.021 . S
Co56 O68 2.137 . S
Co56 O69 2.244 . S
O57 Co56 2.216 . S
O57 C64 1.247 . S
O58 Co56 2.091 . S
O58 C64 1.261 . S
C59 O68 1.247 . S
C59 O69 1.272 . S
O60 Co56 2.004 . S
O60 C65 1.259 . S
Co61 O62 2.061 . S
Co61 O67 2.052 . S
Co61 O69 2.135 . S
O62 Co61 2.061 . S
O62 C65 1.235 . S
C63 O66 1.238 . S
C63 O67 1.241 . S
C64 O57 1.247 . S
C64 O58 1.261 . S
C65 O60 1.259 . S
C65 O62 1.235 . S
O66 Co56 2.021 . S
O66 C63 1.238 . S
O67 Co61 2.052 . S
O67 C63 1.241 . S
O68 Co56 2.137 . S
O68 C59 1.247 . S
O69 Co56 2.244 . S
O69 C59 1.272 . S
O69 Co61 2.135 . S
Co70 O71 2.216 . S
Co70 O72 2.091 . S
Co70 O74 2.004 . S
Co70 O80 2.021 . S
Co70 O82 2.137 . S
Co70 O83 2.244 . S
O71 Co70 2.216 . S
O71 C78 1.247 . S
O72 Co70 2.091 . S
O72 C78 1.261 . S
C73 O82 1.247 . S
C73 O83 1.272 . S
O74 Co70 2.004 . S
O74 C79 1.259 . S
Co75 O76 2.061 . S
Co75 O81 2.052 . S
Co75 O83 2.135 . S
O76 Co75 2.061 . S
O76 C79 1.235 . S
C77 O80 1.238 . S
C77 O81 1.241 . S
C78 O71 1.247 . S
C78 O72 1.261 . S
C79 O74 1.259 . S
C79 O76 1.235 . S
O80 Co70 2.021 . S
O80 C77 1.238 . S
O81 Co75 2.052 . S
O81 C77 1.241 . S
O82 Co70 2.137 . S
O82 C73 1.247 . S
O83 Co70 2.244 . S
O83 C73 1.272 . S
O83 Co75 2.135 . S
Co84 O85 2.216 . S
Co84 O86 2.091 . S
Co84 O88 2.004 . S
Co84 O94 2.021 . S
Co84 O96 2.137 . S
Co84 O97 2.244 . S
O85 Co84 2.216 . S
O85 C92 1.247 . S
O86 Co84 2.091 . S
O86 C92 1.261 . S
C87 O96 1.247 . S
C87 O97 1.272 . S
O88 Co84 2.004 . S
O88 C93 1.259 . S
Co89 O90 2.061 . S
Co89 O95 2.052 . S
Co89 O97 2.135 . S
O90 Co89 2.061 . S
O90 C93 1.235 . S
C91 O94 1.238 . S
C91 O95 1.241 . S
C92 O85 1.247 . S
C92 O86 1.261 . S
C93 O88 1.259 . S
C93 O90 1.235 . S
O94 Co84 2.021 . S
O94 C91 1.238 . S
O95 Co89 2.052 . S
O95 C91 1.241 . S
O96 Co84 2.137 . S
O96 C87 1.247 . S
O97 Co84 2.244 . S
O97 C87 1.272 . S
O97 Co89 2.135 . S
Co98 O99 2.216 . S
Co98 O100 2.091 . S
Co98 O102 2.004 . S
Co98 O108 2.021 . S
Co98 O110 2.137 . S
Co98 O111 2.244 . S
O99 Co98 2.216 . S
O99 C106 1.247 . S
O100 Co98 2.091 . S
O100 C106 1.261 . S
C101 O110 1.247 . S
C101 O111 1.272 . S
O102 Co98 2.004 . S
O102 C107 1.259 . S
Co103 O104 2.061 . S
Co103 O109 2.052 . S
Co103 O111 2.135 . S
O104 Co103 2.061 . S
O104 C107 1.235 . S
C105 O108 1.238 . S
C105 O109 1.241 . S
C106 O99 1.247 . S
C106 O100 1.261 . S
C107 O102 1.259 . S
C107 O104 1.235 . S
O108 Co98 2.021 . S
O108 C105 1.238 . S
O109 Co103 2.052 . S
O109 C105 1.241 . S
O110 Co98 2.137 . S
O110 C101 1.247 . S
O111 Co98 2.244 . S
O111 C101 1.272 . S
O111 Co103 2.135 . S
H112 C113 0.951 . S
C113 H112 0.951 . S
C113 C119 1.265 . S
H114 C119 0.950 . S
H115 C123 0.949 . S
H116 C124 0.950 . S
H117 C125 0.951 . S
H118 C126 0.951 . S
C119 C113 1.265 . S
C119 H114 0.950 . S
C119 C120 1.478 . S
C120 C119 1.478 . S
C120 C121 1.397 . S
C120 C137 1.394 . S
C121 C120 1.397 . S
C121 C122 1.438 . S
C121 C126 1.429 . S
C122 C121 1.438 . S
C122 C123 1.428 . S
C122 C135 1.394 . S
C123 H115 0.949 . S
C123 C122 1.428 . S
C123 C124 1.345 . S
C124 H116 0.950 . S
C124 C123 1.345 . S
C124 C125 1.424 . S
C125 H117 0.951 . S
C125 C124 1.424 . S
C125 C126 1.347 . S
C126 H118 0.951 . S
C126 C121 1.429 . S
C126 C125 1.347 . S
H127 C128 0.951 . S
C128 H127 0.951 . S
C128 C134 1.265 . S
H129 C134 0.950 . S
H130 C138 0.949 . S
H131 C139 0.950 . S
H132 C140 0.951 . S
H133 C141 0.951 . S
C134 C128 1.265 . S
C134 H129 0.950 . S
C134 C135 1.478 . S
C135 C122 1.394 . S
C135 C134 1.478 . S
C135 C136 1.397 . S
C136 C135 1.397 . S
C136 C137 1.438 . S
C136 C141 1.429 . S
C137 C120 1.394 . S
C137 C136 1.438 . S
C137 C138 1.428 . S
C138 H130 0.949 . S
C138 C137 1.428 . S
C138 C139 1.345 . S
C139 H131 0.950 . S
C139 C138 1.345 . S
C139 C140 1.424 . S
C140 H132 0.951 . S
C140 C139 1.424 . S
C140 C141 1.347 . S
C141 H133 0.951 . S
C141 C136 1.429 . S
C141 C140 1.347 . S
H142 C143 0.934 1_455 S
C143 H142 0.934 1_655 S
C143 C149 1.262 1_655 S
H144 C149 0.950 1_655 S
H145 C153 0.949 . S
H146 C154 0.950 . S
H147 C155 0.951 . S
H148 C156 0.951 . S
C149 C143 1.262 1_455 S
C149 H144 0.950 1_455 S
C149 C150 1.478 . S
C150 C149 1.478 . S
C150 C151 1.397 1_545 S
C150 C167 1.394 . S
C151 C150 1.397 1_565 S
C151 C152 1.438 . S
C151 C156 1.429 . S
C152 C151 1.438 . S
C152 C153 1.428 . S
C152 C165 1.394 . S
C153 H145 0.949 . S
C153 C152 1.428 . S
C153 C154 1.345 . S
C154 H146 0.950 . S
C154 C153 1.345 . S
C154 C155 1.424 . S
C155 H147 0.951 . S
C155 C154 1.424 . S
C155 C156 1.347 . S
C156 H148 0.951 . S
C156 C151 1.429 . S
C156 C155 1.347 . S
H157 C158 0.951 . S
C158 H157 0.951 . S
C158 C164 1.265 . S
H159 C164 0.958 . S
H160 C168 0.949 . S
H161 C169 0.950 . S
H162 C170 0.951 . S
H163 C171 0.951 . S
C164 C158 1.265 . S
C164 H159 0.958 . S
C164 C165 1.478 . S
C165 C152 1.394 . S
C165 C164 1.478 . S
C165 C166 1.397 1_565 S
C166 C165 1.397 1_545 S
C166 C167 1.438 . S
C166 C171 1.429 . S
C167 C150 1.394 . S
C167 C166 1.438 . S
C167 C168 1.428 . S
C168 H160 0.949 . S
C168 C167 1.428 . S
C168 C169 1.345 . S
C169 H161 0.950 . S
C169 C168 1.345 . S
C169 C170 1.424 . S
C170 H162 0.951 . S
C170 C169 1.424 . S
C170 C171 1.347 . S
C171 H163 0.951 . S
C171 C166 1.429 . S
C171 C170 1.347 . S
H172 C173 0.951 . S
C173 H172 0.951 . S
C173 C179 1.265 . S
H174 C179 0.950 . S
H175 C183 0.949 . S
H176 C184 0.950 . S
H177 C185 0.951 . S
H178 C186 0.951 . S
C179 C173 1.265 . S
C179 H174 0.950 . S
C179 C180 1.478 . S
C180 C179 1.478 . S
C180 C181 1.397 . S
C180 C197 1.394 . S
C181 C180 1.397 . S
C181 C182 1.438 . S
C181 C186 1.429 . S
C182 C181 1.438 . S
C182 C183 1.428 . S
C182 C195 1.394 . S
C183 H175 0.949 . S
C183 C182 1.428 . S
C183 C184 1.345 . S
C184 H176 0.950 . S
C184 C183 1.345 . S
C184 C185 1.424 . S
C185 H177 0.951 . S
C185 C184 1.424 . S
C185 C186 1.347 . S
C186 H178 0.951 . S
C186 C181 1.429 . S
C186 C185 1.347 . S
H187 C188 0.935 1_655 S
C188 H187 0.935 1_455 S
C188 C194 1.262 1_455 S
H189 C194 0.950 1_455 S
H190 C198 0.949 . S
H191 C199 0.950 . S
H192 C200 0.951 . S
H193 C201 0.951 . S
C194 C188 1.262 1_655 S
C194 H189 0.950 1_655 S
C194 C195 1.478 . S
C195 C182 1.394 . S
C195 C194 1.478 . S
C195 C196 1.397 . S
C196 C195 1.397 . S
C196 C197 1.438 . S
C196 C201 1.429 . S
C197 C180 1.394 . S
C197 C196 1.438 . S
C197 C198 1.428 . S
C198 H190 0.949 . S
C198 C197 1.428 . S
C198 C199 1.345 . S
C199 H191 0.950 . S
C199 C198 1.345 . S
C199 C200 1.424 . S
C200 H192 0.951 . S
C200 C199 1.424 . S
C200 C201 1.347 . S
C201 H193 0.951 . S
C201 C196 1.429 . S
C201 C200 1.347 . S
H202 C203 0.951 . S
C203 H202 0.951 . S
C203 C209 1.265 . S
H204 C209 0.950 . S
H205 C213 0.949 . S
H206 C214 0.950 . S
H207 C215 0.951 . S
H208 C216 0.951 . S
C209 C203 1.265 . S
C209 H204 0.950 . S
C209 C210 1.478 . S
C210 C209 1.478 . S
C210 C211 1.397 . S
C210 C227 1.394 1_545 S
C211 C210 1.397 . S
C211 C212 1.438 . S
C211 C216 1.429 . S
C212 C211 1.438 . S
C212 C213 1.428 . S
C212 C225 1.394 1_545 S
C213 H205 0.949 . S
C213 C212 1.428 . S
C213 C214 1.345 . S
C214 H206 0.950 . S
C214 C213 1.345 . S
C214 C215 1.424 . S
C215 H207 0.951 . S
C215 C214 1.424 . S
C215 C216 1.347 . S
C216 H208 0.951 . S
C216 C211 1.429 . S
C216 C215 1.347 . S
H217 C218 0.951 . S
C218 H217 0.951 . S
C218 C224 1.265 . S
H219 C224 0.950 . S
H220 C228 0.949 . S
H221 C229 0.950 . S
H222 C230 0.951 . S
H223 C231 0.951 . S
C224 C218 1.265 . S
C224 H219 0.950 . S
C224 C225 1.478 . S
C225 C212 1.394 1_565 S
C225 C224 1.478 . S
C225 C226 1.397 . S
C226 C225 1.397 . S
C226 C227 1.438 . S
C226 C231 1.429 . S
C227 C210 1.394 1_565 S
C227 C226 1.438 . S
C227 C228 1.428 . S
C228 H220 0.949 . S
C228 C227 1.428 . S
C228 C229 1.345 . S
C229 H221 0.950 . S
C229 C228 1.345 . S
C229 C230 1.424 . S
C230 H222 0.951 . S
C230 C229 1.424 . S
C230 C231 1.347 . S
C231 H223 0.951 . S
C231 C226 1.429 . S
C231 C230 1.347 . S
H232 C233 0.951 . S
C233 H232 0.951 . S
C233 C239 1.265 . S
H234 C239 0.950 . S
H235 C243 0.949 . S
H236 C244 0.950 . S
H237 C245 0.951 . S
H238 C246 0.951 . S
C239 C233 1.265 . S
C239 H234 0.950 . S
C239 C240 1.478 . S
C240 C239 1.478 . S
C240 C241 1.397 . S
C240 C257 1.394 . S
C241 C240 1.397 . S
C241 C242 1.438 . S
C241 C246 1.429 . S
C242 C241 1.438 . S
C242 C243 1.428 . S
C242 C255 1.394 . S
C243 H235 0.949 . S
C243 C242 1.428 . S
C243 C244 1.345 . S
C244 H236 0.950 . S
C244 C243 1.345 . S
C244 C245 1.424 . S
C245 H237 0.951 . S
C245 C244 1.424 . S
C245 C246 1.347 . S
C246 H238 0.951 . S
C246 C241 1.429 . S
C246 C245 1.347 . S
H247 C248 0.951 . S
C248 H247 0.951 . S
C248 C254 1.265 . S
H249 C254 0.950 . S
H250 C258 0.949 . S
H251 C259 0.950 . S
H252 C260 0.951 . S
H253 C261 0.951 . S
C254 C248 1.265 . S
C254 H249 0.950 . S
C254 C255 1.478 . S
C255 C242 1.394 . S
C255 C254 1.478 . S
C255 C256 1.397 . S
C256 C255 1.397 . S
C256 C257 1.438 . S
C256 C261 1.429 . S
C257 C240 1.394 . S
C257 C256 1.438 . S
C257 C258 1.428 . S
C258 H250 0.949 . S
C258 C257 1.428 . S
C258 C259 1.345 . S
C259 H251 0.950 . S
C259 C258 1.345 . S
C259 C260 1.424 . S
C260 H252 0.951 . S
C260 C259 1.424 . S
C260 C261 1.347 . S
C261 H253 0.951 . S
C261 C256 1.429 . S
C261 C260 1.347 . S
H262 C263 0.951 . S
C263 H262 0.951 . S
C263 C269 1.265 . S
H264 C269 0.950 . S
H265 C273 0.949 . S
H266 C274 0.950 . S
H267 C275 0.951 . S
H268 C276 0.951 . S
C269 C263 1.265 . S
C269 H264 0.950 . S
C269 C270 1.478 . S
C270 C269 1.478 . S
C270 C271 1.397 1_545 S
C270 C287 1.394 . S
C271 C270 1.397 1_565 S
C271 C272 1.438 . S
C271 C276 1.429 . S
C272 C271 1.438 . S
C272 C273 1.428 . S
C272 C285 1.394 . S
C273 H265 0.949 . S
C273 C272 1.428 . S
C273 C274 1.345 . S
C274 H266 0.950 . S
C274 C273 1.345 . S
C274 C275 1.424 . S
C275 H267 0.951 . S
C275 C274 1.424 . S
C275 C276 1.347 . S
C276 H268 0.951 . S
C276 C271 1.429 . S
C276 C275 1.347 . S
H277 C278 0.951 1_655 S
C278 H277 0.951 1_455 S
C278 C284 1.265 1_455 S
H279 C284 0.950 1_455 S
H280 C288 0.949 . S
H281 C289 0.950 . S
H282 C290 0.951 . S
H283 C291 0.951 1_455 S
C284 C278 1.265 1_655 S
C284 H279 0.950 1_655 S
C284 C285 1.478 . S
C285 C272 1.394 . S
C285 C284 1.478 . S
C285 C286 1.397 1_565 S
C286 C285 1.397 1_545 S
C286 C287 1.438 . S
C286 C291 1.429 . S
C287 C270 1.394 . S
C287 C286 1.438 . S
C287 C288 1.428 . S
C288 H280 0.949 . S
C288 C287 1.428 . S
C288 C289 1.345 . S
C289 H281 0.950 . S
C289 C288 1.345 . S
C289 C290 1.424 . S
C290 H282 0.951 . S
C290 C289 1.424 . S
C290 C291 1.347 . S
C291 H283 0.951 1_655 S
C291 C286 1.429 . S
C291 C290 1.347 . S
H292 C293 0.951 . S
C293 H292 0.951 . S
C293 C299 1.265 . S
H294 C299 0.950 . S
H295 C303 0.949 . S
H296 C304 0.950 . S
H297 C305 0.951 . S
H298 C306 0.951 . S
C299 C293 1.265 . S
C299 H294 0.950 . S
C299 C300 1.478 . S
C300 C299 1.478 . S
C300 C301 1.397 . S
C300 C317 1.394 . S
C301 C300 1.397 . S
C301 C302 1.438 . S
C301 C306 1.429 . S
C302 C301 1.438 . S
C302 C303 1.428 . S
C302 C315 1.394 . S
C303 H295 0.949 . S
C303 C302 1.428 . S
C303 C304 1.345 . S
C304 H296 0.950 . S
C304 C303 1.345 . S
C304 C305 1.424 . S
C305 H297 0.951 . S
C305 C304 1.424 . S
C305 C306 1.347 . S
C306 H298 0.951 . S
C306 C301 1.429 . S
C306 C305 1.347 . S
H307 C308 0.951 1_455 S
C308 H307 0.951 1_655 S
C308 C314 1.265 1_655 S
H309 C314 0.950 1_655 S
H310 C318 0.949 . S
H311 C319 0.950 . S
H312 C320 0.951 1_655 S
H313 C321 0.951 1_655 S
C314 C308 1.265 1_455 S
C314 H309 0.950 1_455 S
C314 C315 1.478 . S
C315 C302 1.394 . S
C315 C314 1.478 . S
C315 C316 1.397 . S
C316 C315 1.397 . S
C316 C317 1.438 . S
C316 C321 1.429 . S
C317 C300 1.394 . S
C317 C316 1.438 . S
C317 C318 1.428 . S
C318 H310 0.949 . S
C318 C317 1.428 . S
C318 C319 1.345 . S
C319 H311 0.950 . S
C319 C318 1.345 . S
C319 C320 1.424 . S
C320 H312 0.951 1_455 S
C320 C319 1.424 . S
C320 C321 1.347 . S
C321 H313 0.951 1_455 S
C321 C316 1.429 . S
C321 C320 1.347 . S
H322 C323 0.951 . S
C323 H322 0.951 . S
C323 C329 1.265 . S
H324 C329 0.950 . S
H325 C333 0.949 . S
H326 C334 0.950 . S
H327 C335 0.951 . S
H328 C336 0.951 . S
C329 C323 1.265 . S
C329 H324 0.950 . S
C329 C330 1.478 . S
C330 C329 1.478 . S
C330 C331 1.397 . S
C330 C347 1.394 1_565 S
C331 C330 1.397 . S
C331 C332 1.438 . S
C331 C336 1.429 . S
C332 C331 1.438 . S
C332 C333 1.428 . S
C332 C345 1.394 1_565 S
C333 H325 0.949 . S
C333 C332 1.428 . S
C333 C334 1.345 . S
C334 H326 0.950 . S
C334 C333 1.345 . S
C334 C335 1.424 . S
C335 H327 0.951 . S
C335 C334 1.424 . S
C335 C336 1.347 . S
C336 H328 0.951 . S
C336 C331 1.429 . S
C336 C335 1.347 . S
H337 C338 0.951 . S
C338 H337 0.951 . S
C338 C344 1.265 . S
H339 C344 0.950 . S
H340 C348 0.949 . S
H341 C349 0.950 . S
H342 C350 0.951 . S
H343 C351 0.951 . S
C344 C338 1.265 . S
C344 H339 0.950 . S
C344 C345 1.478 . S
C345 C332 1.394 1_545 S
C345 C344 1.478 . S
C345 C346 1.397 . S
C346 C345 1.397 . S
C346 C347 1.438 . S
C346 C351 1.429 . S
C347 C330 1.394 1_545 S
C347 C346 1.438 . S
C347 C348 1.428 . S
C348 H340 0.949 . S
C348 C347 1.428 . S
C348 C349 1.345 . S
C349 H341 0.950 . S
C349 C348 1.345 . S
C349 C350 1.424 . S
C350 H342 0.951 . S
C350 C349 1.424 . S
C350 C351 1.347 . S
C351 H343 0.951 . S
C351 C346 1.429 . S
C351 C350 1.347 . S
H352 C353 0.951 . S
C353 H352 0.951 . S
C353 C359 1.265 . S
H354 C359 0.950 . S
H355 C363 0.949 1_655 S
H356 C364 0.950 . S
H357 C365 0.951 . S
H358 C366 0.951 . S
C359 C353 1.265 . S
C359 H354 0.950 . S
C359 C360 1.478 . S
C360 C359 1.478 . S
C360 C361 1.397 . S
C360 C377 1.394 1_455 S
C361 C360 1.397 . S
C361 C362 1.438 . S
C361 C366 1.429 . S
C362 C361 1.438 . S
C362 C363 1.428 . S
C362 C375 1.394 1_455 S
C363 H355 0.949 1_455 S
C363 C362 1.428 . S
C363 C364 1.345 . S
C364 H356 0.950 . S
C364 C363 1.345 . S
C364 C365 1.424 . S
C365 H357 0.951 . S
C365 C364 1.424 . S
C365 C366 1.347 . S
C366 H358 0.951 . S
C366 C361 1.429 . S
C366 C365 1.347 . S
H367 C368 0.951 . S
C368 H367 0.951 . S
C368 C374 1.265 . S
H369 C374 0.950 . S
H370 C378 0.949 1_455 S
H371 C379 0.950 . S
H372 C380 0.951 . S
H373 C381 0.951 . S
C374 C368 1.265 . S
C374 H369 0.950 . S
C374 C375 1.478 . S
C375 C362 1.394 1_655 S
C375 C374 1.478 . S
C375 C376 1.397 . S
C376 C375 1.397 . S
C376 C377 1.438 . S
C376 C381 1.429 . S
C377 C360 1.394 1_655 S
C377 C376 1.438 . S
C377 C378 1.428 . S
C378 H370 0.949 1_655 S
C378 C377 1.428 . S
C378 C379 1.345 . S
C379 H371 0.950 . S
C379 C378 1.345 . S
C379 C380 1.424 . S
C380 H372 0.951 . S
C380 C379 1.424 . S
C380 C381 1.347 . S
C381 H373 0.951 . S
C381 C376 1.429 . S
C381 C380 1.347 . S
H382 C383 0.951 . S
C383 H382 0.951 . S
C383 C389 1.265 . S
H384 C389 0.950 . S
H385 C393 0.949 . S
H386 C394 0.950 . S
H387 C395 0.951 . S
H388 C396 0.951 . S
C389 C383 1.265 . S
C389 H384 0.950 . S
C389 C390 1.478 . S
C390 C389 1.478 . S
C390 C391 1.397 . S
C390 C407 1.394 1_565 S
C391 C390 1.397 . S
C391 C392 1.438 . S
C391 C396 1.429 . S
C392 C391 1.438 . S
C392 C393 1.428 . S
C392 C405 1.394 1_565 S
C393 H385 0.949 . S
C393 C392 1.428 . S
C393 C394 1.345 . S
C394 H386 0.950 . S
C394 C393 1.345 . S
C394 C395 1.424 . S
C395 H387 0.951 . S
C395 C394 1.424 . S
C395 C396 1.347 . S
C396 H388 0.951 . S
C396 C391 1.429 . S
C396 C395 1.347 . S
H397 C398 0.951 . S
C398 H397 0.951 . S
C398 C404 1.265 . S
H399 C404 0.950 . S
H400 C408 0.949 . S
H401 C409 0.950 . S
H402 C410 0.951 . S
H403 C411 0.951 . S
C404 C398 1.265 . S
C404 H399 0.950 . S
C404 C405 1.478 . S
C405 C392 1.394 1_545 S
C405 C404 1.478 . S
C405 C406 1.397 . S
C406 C405 1.397 . S
C406 C407 1.438 . S
C406 C411 1.429 . S
C407 C390 1.394 1_545 S
C407 C406 1.438 . S
C407 C408 1.428 . S
C408 H400 0.949 . S
C408 C407 1.428 . S
C408 C409 1.345 . S
C409 H401 0.950 . S
C409 C408 1.345 . S
C409 C410 1.424 . S
C410 H402 0.951 . S
C410 C409 1.424 . S
C410 C411 1.347 . S
C411 H403 0.951 . S
C411 C406 1.429 . S
C411 C410 1.347 . S
H412 C413 0.951 . S
C413 H412 0.951 . S
C413 C419 1.265 . S
H414 C419 0.950 . S
H415 C423 0.949 . S
H416 C424 0.950 . S
H417 C425 0.951 . S
H418 C426 0.951 1_554 S
C419 C413 1.265 . S
C419 H414 0.950 . S
C419 C420 1.478 . S
C420 C419 1.478 . S
C420 C421 1.397 1_554 S
C420 C437 1.394 . S
C421 C420 1.397 1_556 S
C421 C422 1.438 . S
C421 C426 1.429 . S
C422 C421 1.438 . S
C422 C423 1.428 . S
C422 C435 1.394 . S
C423 H415 0.949 . S
C423 C422 1.428 . S
C423 C424 1.345 . S
C424 H416 0.950 . S
C424 C423 1.345 . S
C424 C425 1.424 . S
C425 H417 0.951 . S
C425 C424 1.424 . S
C425 C426 1.347 . S
C426 H418 0.951 1_556 S
C426 C421 1.429 . S
C426 C425 1.347 . S
H427 C428 0.951 . S
C428 H427 0.951 . S
C428 C434 1.265 . S
H429 C434 0.950 . S
H430 C438 0.949 . S
H431 C439 0.950 . S
H432 C440 0.951 . S
H433 C441 0.951 1_556 S
C434 C428 1.265 . S
C434 H429 0.950 . S
C434 C435 1.478 . S
C435 C422 1.394 . S
C435 C434 1.478 . S
C435 C436 1.397 1_556 S
C436 C435 1.397 1_554 S
C436 C437 1.438 . S
C436 C441 1.429 . S
C437 C420 1.394 . S
C437 C436 1.438 . S
C437 C438 1.428 . S
C438 H430 0.949 . S
C438 C437 1.428 . S
C438 C439 1.345 . S
C439 H431 0.950 . S
C439 C438 1.345 . S
C439 C440 1.424 . S
C440 H432 0.951 . S
C440 C439 1.424 . S
C440 C441 1.347 . S
C441 H433 0.951 1_554 S
C441 C436 1.429 . S
C441 C440 1.347 . S
H442 C443 0.951 . S
C443 H442 0.951 . S
C443 C449 1.265 . S
H444 C449 0.950 1_655 S
H445 C453 0.949 . S
H446 C454 0.950 . S
H447 C455 0.951 . S
H448 C456 0.951 . S
C449 C443 1.265 . S
C449 H444 0.950 1_455 S
C449 C450 1.478 . S
C450 C449 1.478 . S
C450 C451 1.397 1_455 S
C450 C467 1.394 1_565 S
C451 C450 1.397 1_655 S
C451 C452 1.438 1_556 S
C451 C456 1.429 . S
C452 C451 1.438 1_554 S
C452 C453 1.428 . S
C452 C465 1.394 1_565 S
C453 H445 0.949 . S
C453 C452 1.428 . S
C453 C454 1.345 . S
C454 H446 0.950 . S
C454 C453 1.345 . S
C454 C455 1.424 1_554 S
C455 H447 0.951 . S
C455 C454 1.424 1_556 S
C455 C456 1.347 . S
C456 H448 0.951 . S
C456 C451 1.429 . S
C456 C455 1.347 . S
H457 C458 0.951 . S
C458 H457 0.951 . S
C458 C464 1.265 . S
H459 C464 0.950 1_455 S
H460 C468 0.949 . S
H461 C469 0.950 . S
H462 C470 0.951 . S
H463 C471 0.951 . S
C464 C458 1.265 . S
C464 H459 0.950 1_655 S
C464 C465 1.478 . S
C465 C452 1.394 1_545 S
C465 C464 1.478 . S
C465 C466 1.397 1_655 S
C466 C465 1.397 1_455 S
C466 C467 1.438 1_554 S
C466 C471 1.429 . S
C467 C450 1.394 1_545 S
C467 C466 1.438 1_556 S
C467 C468 1.428 . S
C468 H460 0.949 . S
C468 C467 1.428 . S
C468 C469 1.345 . S
C469 H461 0.950 . S
C469 C468 1.345 . S
C469 C470 1.424 1_556 S
C470 H462 0.951 . S
C470 C469 1.424 1_554 S
C470 C471 1.347 . S
C471 H463 0.951 . S
C471 C466 1.429 . S
C471 C470 1.347 . S
H472 C473 0.951 . S
C473 H472 0.951 . S
C473 C479 1.265 . S
H474 C479 0.950 . S
H475 C483 0.949 . S
H476 C484 0.950 . S
H477 C485 0.951 . S
H478 C486 0.951 . S
C479 C473 1.265 . S
C479 H474 0.950 . S
C479 C480 1.478 . S
C480 C479 1.478 . S
C480 C481 1.397 . S
C480 C497 1.394 . S
C481 C480 1.397 . S
C481 C482 1.438 . S
C481 C486 1.429 . S
C482 C481 1.438 . S
C482 C483 1.428 . S
C482 C495 1.394 . S
C483 H475 0.949 . S
C483 C482 1.428 . S
C483 C484 1.345 . S
C484 H476 0.950 . S
C484 C483 1.345 . S
C484 C485 1.424 . S
C485 H477 0.951 . S
C485 C484 1.424 . S
C485 C486 1.347 . S
C486 H478 0.951 . S
C486 C481 1.429 . S
C486 C485 1.347 . S
H487 C488 0.951 . S
C488 H487 0.951 . S
C488 C494 1.265 . S
H489 C494 0.950 . S
H490 C498 0.949 . S
H491 C499 0.950 . S
H492 C500 0.951 . S
H493 C501 0.951 . S
C494 C488 1.265 . S
C494 H489 0.950 . S
C494 C495 1.478 . S
C495 C482 1.394 . S
C495 C494 1.478 . S
C495 C496 1.397 . S
C496 C495 1.397 . S
C496 C497 1.438 . S
C496 C501 1.429 . S
C497 C480 1.394 . S
C497 C496 1.438 . S
C497 C498 1.428 . S
C498 H490 0.949 . S
C498 C497 1.428 . S
C498 C499 1.345 . S
C499 H491 0.950 . S
C499 C498 1.345 . S
C499 C500 1.424 . S
C500 H492 0.951 . S
C500 C499 1.424 . S
C500 C501 1.347 . S
C501 H493 0.951 . S
C501 C496 1.429 . S
C501 C500 1.347 . S
H502 C503 0.951 . S
C503 H502 0.951 . S
C503 C509 1.265 . S
H504 C509 0.950 . S
H505 C513 0.949 . S
H506 C514 0.950 . S
H507 C515 0.951 . S
H508 C516 0.951 . S
C509 C503 1.265 . S
C509 H504 0.950 . S
C509 C510 1.478 . S
C510 C509 1.478 . S
C510 C511 1.397 . S
C510 C527 1.394 . S
C511 C510 1.397 . S
C511 C512 1.438 . S
C511 C516 1.429 . S
C512 C511 1.438 . S
C512 C513 1.428 . S
C512 C525 1.394 . S
C513 H505 0.949 . S
C513 C512 1.428 . S
C513 C514 1.345 . S
C514 H506 0.950 . S
C514 C513 1.345 . S
C514 C515 1.424 . S
C515 H507 0.951 . S
C515 C514 1.424 . S
C515 C516 1.347 . S
C516 H508 0.951 . S
C516 C511 1.429 . S
C516 C515 1.347 . S
H517 C518 0.951 . S
C518 H517 0.951 . S
C518 C524 1.265 . S
H519 C524 0.950 . S
H520 C528 0.949 . S
H521 C529 0.950 . S
H522 C530 0.951 . S
H523 C531 0.951 . S
C524 C518 1.265 . S
C524 H519 0.950 . S
C524 C525 1.478 . S
C525 C512 1.394 . S
C525 C524 1.478 . S
C525 C526 1.397 . S
C526 C525 1.397 . S
C526 C527 1.438 . S
C526 C531 1.429 . S
C527 C510 1.394 . S
C527 C526 1.438 . S
C527 C528 1.428 . S
C528 H520 0.949 . S
C528 C527 1.428 . S
C528 C529 1.345 . S
C529 H521 0.950 . S
C529 C528 1.345 . S
C529 C530 1.424 . S
C530 H522 0.951 . S
C530 C529 1.424 . S
C530 C531 1.347 . S
C531 H523 0.951 . S
C531 C526 1.429 . S
C531 C530 1.347 . S
H532 C533 0.951 . S
C533 H532 0.951 . S
C533 C539 1.265 . S
H534 C539 0.950 . S
H535 C543 0.949 . S
H536 C544 0.950 . S
H537 C545 0.951 . S
H538 C546 0.951 . S
C539 C533 1.265 . S
C539 H534 0.950 . S
C539 C540 1.478 . S
C540 C539 1.478 . S
C540 C541 1.397 . S
C540 C557 1.394 . S
C541 C540 1.397 . S
C541 C542 1.438 . S
C541 C546 1.429 . S
C542 C541 1.438 . S
C542 C543 1.428 . S
C542 C555 1.394 . S
C543 H535 0.949 . S
C543 C542 1.428 . S
C543 C544 1.345 . S
C544 H536 0.950 . S
C544 C543 1.345 . S
C544 C545 1.424 . S
C545 H537 0.951 . S
C545 C544 1.424 . S
C545 C546 1.347 . S
C546 H538 0.951 . S
C546 C541 1.429 . S
C546 C545 1.347 . S
H547 C548 0.951 . S
C548 H547 0.951 . S
C548 C554 1.265 . S
H549 C554 0.950 . S
H550 C558 0.949 . S
H551 C559 0.950 . S
H552 C560 0.951 . S
H553 C561 0.951 . S
C554 C548 1.265 . S
C554 H549 0.950 . S
C554 C555 1.478 . S
C555 C542 1.394 . S
C555 C554 1.478 . S
C555 C556 1.397 . S
C556 C555 1.397 . S
C556 C557 1.438 . S
C556 C561 1.429 . S
C557 C540 1.394 . S
C557 C556 1.438 . S
C557 C558 1.428 . S
C558 H550 0.949 . S
C558 C557 1.428 . S
C558 C559 1.345 . S
C559 H551 0.950 . S
C559 C558 1.345 . S
C559 C560 1.424 . S
C560 H552 0.951 . S
C560 C559 1.424 . S
C560 C561 1.347 . S
C561 H553 0.951 . S
C561 C556 1.429 . S
C561 C560 1.347 . S
H562 C563 0.951 . S
C563 H562 0.951 . S
C563 C569 1.265 . S
H564 C569 0.950 . S
H565 C573 0.949 . S
H566 C574 0.950 . S
H567 C575 0.951 . S
H568 C576 0.951 . S
C569 C563 1.265 . S
C569 H564 0.950 . S
C569 C570 1.478 . S
C570 C569 1.478 . S
C570 C571 1.397 . S
C570 C587 1.394 . S
C571 C570 1.397 . S
C571 C572 1.438 . S
C571 C576 1.429 . S
C572 C571 1.438 . S
C572 C573 1.428 . S
C572 C585 1.394 . S
C573 H565 0.949 . S
C573 C572 1.428 . S
C573 C574 1.345 . S
C574 H566 0.950 . S
C574 C573 1.345 . S
C574 C575 1.424 . S
C575 H567 0.951 . S
C575 C574 1.424 . S
C575 C576 1.347 . S
C576 H568 0.951 . S
C576 C571 1.429 . S
C576 C575 1.347 . S
H577 C578 0.951 . S
C578 H577 0.951 . S
C578 C584 1.265 . S
H579 C584 0.950 . S
H580 C588 0.949 . S
H581 C589 0.950 . S
H582 C590 0.951 . S
H583 C591 0.951 . S
C584 C578 1.265 . S
C584 H579 0.950 . S
C584 C585 1.478 . S
C585 C572 1.394 . S
C585 C584 1.478 . S
C585 C586 1.397 . S
C586 C585 1.397 . S
C586 C587 1.438 . S
C586 C591 1.429 . S
C587 C570 1.394 . S
C587 C586 1.438 . S
C587 C588 1.428 . S
C588 H580 0.949 . S
C588 C587 1.428 . S
C588 C589 1.345 . S
C589 H581 0.950 . S
C589 C588 1.345 . S
C589 C590 1.424 . S
C590 H582 0.951 . S
C590 C589 1.424 . S
C590 C591 1.347 . S
C591 H583 0.951 . S
C591 C586 1.429 . S
C591 C590 1.347 . S
C113 C9 1.403 . S
C128 C35 1.384 . S
C143 C49 1.412 . S
C158 C23 1.393 . S
C173 C37 1.400 . S
C188 C7 1.419 . S
C203 C51 1.408 . S
C218 C21 1.408 . S
C233 C91 1.334 . S
C248 C65 1.360 . S
C263 C79 1.403 . S
C278 C105 1.404 . S
C293 C93 1.407 . S
C308 C63 1.408 . S
C323 C107 1.374 . S
C338 C77 1.348 . S
C353 C8 1.512 . S
C368 C64 1.512 . S
C383 C22 1.514 . S
C398 C78 1.514 . S
C413 C36 1.510 . S
C428 C92 1.510 . S
C443 C106 1.512 . S
C458 C50 1.512 . S
C473 C3 1.508 . S
C488 C17 1.508 . S
C503 C45 1.508 . S
C518 C31 1.508 . S
C533 C73 1.509 . S
C548 C59 1.507 . S
C563 C87 1.508 . S
C578 C101 1.508 . S
