# Generated by pormake.
# Topology uot, (4)-cn, num edge types: 1
# Building blocks:
#     Node 0, Type 0, BuildingBlock: ICAMEG_clean_sbu_1, # of connection points: 4
#     Node 1, Type 0, BuildingBlock: ICAMEG_clean_sbu_1, # of connection points: 4
#     Node 2, Type 0, BuildingBlock: ICAMEG_clean_sbu_1, # of connection points: 4
#     Node 3, Type 0, BuildingBlock: ICAMEG_clean_sbu_1, # of connection points: 4
#     Node 4, Type 0, BuildingBlock: ICAMEG_clean_sbu_1, # of connection points: 4
#     Node 5, Type 0, BuildingBlock: ICAMEG_clean_sbu_1, # of connection points: 4
#     Node 6, Type 0, BuildingBlock: ICAMEG_clean_sbu_1, # of connection points: 4
#     Node 7, Type 0, BuildingBlock: ICAMEG_clean_sbu_1, # of connection points: 4
#     Node 8, Type 0, BuildingBlock: ICAMEG_clean_sbu_1, # of connection points: 4
#     Node 9, Type 0, BuildingBlock: ICAMEG_clean_sbu_1, # of connection points: 4
#     Node 10, Type 0, BuildingBlock: ICAMEG_clean_sbu_1, # of connection points: 4
#     Node 11, Type 0, BuildingBlock: ICAMEG_clean_sbu_1, # of connection points: 4
#     Node 12, Type 0, BuildingBlock: ICAMEG_clean_sbu_1, # of connection points: 4
#     Node 13, Type 0, BuildingBlock: ICAMEG_clean_sbu_1, # of connection points: 4
#     Node 14, Type 0, BuildingBlock: ICAMEG_clean_sbu_1, # of connection points: 4
#     Node 15, Type 0, BuildingBlock: ICAMEG_clean_sbu_1, # of connection points: 4
#     Edge 16, Type (0, 0), BuildingBlock: XIVTED_clean_linker_0, # of connection points: 2
#     Edge 17, Type (0, 0), BuildingBlock: XIVTED_clean_linker_0, # of connection points: 2
#     Edge 18, Type (0, 0), BuildingBlock: XIVTED_clean_linker_0, # of connection points: 2
#     Edge 19, Type (0, 0), BuildingBlock: XIVTED_clean_linker_0, # of connection points: 2
#     Edge 20, Type (0, 0), BuildingBlock: XIVTED_clean_linker_0, # of connection points: 2
#     Edge 21, Type (0, 0), BuildingBlock: XIVTED_clean_linker_0, # of connection points: 2
#     Edge 22, Type (0, 0), BuildingBlock: XIVTED_clean_linker_0, # of connection points: 2
#     Edge 23, Type (0, 0), BuildingBlock: XIVTED_clean_linker_0, # of connection points: 2
#     Edge 24, Type (0, 0), BuildingBlock: XIVTED_clean_linker_0, # of connection points: 2
#     Edge 25, Type (0, 0), BuildingBlock: XIVTED_clean_linker_0, # of connection points: 2
#     Edge 26, Type (0, 0), BuildingBlock: XIVTED_clean_linker_0, # of connection points: 2
#     Edge 27, Type (0, 0), BuildingBlock: XIVTED_clean_linker_0, # of connection points: 2
#     Edge 28, Type (0, 0), BuildingBlock: XIVTED_clean_linker_0, # of connection points: 2
#     Edge 29, Type (0, 0), BuildingBlock: XIVTED_clean_linker_0, # of connection points: 2
#     Edge 30, Type (0, 0), BuildingBlock: XIVTED_clean_linker_0, # of connection points: 2
#     Edge 31, Type (0, 0), BuildingBlock: XIVTED_clean_linker_0, # of connection points: 2
#     Edge 32, Type (0, 0), BuildingBlock: XIVTED_clean_linker_0, # of connection points: 2
#     Edge 33, Type (0, 0), BuildingBlock: XIVTED_clean_linker_0, # of connection points: 2
#     Edge 34, Type (0, 0), BuildingBlock: XIVTED_clean_linker_0, # of connection points: 2
#     Edge 35, Type (0, 0), BuildingBlock: XIVTED_clean_linker_0, # of connection points: 2
#     Edge 36, Type (0, 0), BuildingBlock: XIVTED_clean_linker_0, # of connection points: 2
#     Edge 37, Type (0, 0), BuildingBlock: XIVTED_clean_linker_0, # of connection points: 2
#     Edge 38, Type (0, 0), BuildingBlock: XIVTED_clean_linker_0, # of connection points: 2
#     Edge 39, Type (0, 0), BuildingBlock: XIVTED_clean_linker_0, # of connection points: 2
#     Edge 40, Type (0, 0), BuildingBlock: XIVTED_clean_linker_0, # of connection points: 2
#     Edge 41, Type (0, 0), BuildingBlock: XIVTED_clean_linker_0, # of connection points: 2
#     Edge 42, Type (0, 0), BuildingBlock: XIVTED_clean_linker_0, # of connection points: 2
#     Edge 43, Type (0, 0), BuildingBlock: XIVTED_clean_linker_0, # of connection points: 2
#     Edge 44, Type (0, 0), BuildingBlock: XIVTED_clean_linker_0, # of connection points: 2
#     Edge 45, Type (0, 0), BuildingBlock: XIVTED_clean_linker_0, # of connection points: 2
#     Edge 46, Type (0, 0), BuildingBlock: XIVTED_clean_linker_0, # of connection points: 2
#     Edge 47, Type (0, 0), BuildingBlock: XIVTED_clean_linker_0, # of connection points: 2
# Relax obj value: 0.031
# Max RMSD: 0.052
# Mean RMSD: 0.052
data_MOF--net-uot--node1-ICAMEG_clean_sbu_1--edge1-XIVTED_clean_linker_0
_symmetry_space_group_name_H-M    P1
_symmetry_Int_Tables_number       1
_symmetry_cell_setting            triclinic
loop_
_symmetry_equiv_pos_as_xyz
'x, y, z'
_cell_length_a     47.114833
_cell_length_b     47.124278
_cell_length_c     46.617132
_cell_angle_alpha  90.012063
_cell_angle_beta   90.005921
_cell_angle_gamma 90.01996
loop_
_atom_site_label
_atom_site_type_symbol
_atom_site_fract_x
_atom_site_fract_y
_atom_site_fract_z
_atom_type_partial_charge
Co0 Co 0.14985 0.44109 0.35147 0.0
Co1 Co 0.20538 0.4362 0.30447 0.0
O2 O 0.189 0.43056 0.34249 0.0
C3 C 0.1831 0.46716 0.39872 0.0
O4 O 0.20055 0.47745 0.37938 0.0
C5 C 0.22039 0.37604 0.31726 0.0
O6 O 0.19387 0.37119 0.3244 0.0
O7 O 0.17379 0.41419 0.28667 0.0
O8 O 0.13662 0.43011 0.31217 0.0
H9 H 0.20275 0.46049 0.19956 0.0
H10 H 0.18083 0.40163 0.38983 0.0
O11 O 0.16185 0.45225 0.39106 0.0
H12 H 0.09714 0.34821 0.35628 0.0
H13 H 0.06384 0.44712 0.41528 0.0
H14 H 0.1041 0.47211 0.32097 0.0
H15 H 0.10495 0.39763 0.34077 0.0
H16 H 0.11274 0.43322 0.40269 0.0
O17 O 0.22805 0.40061 0.30893 0.0
H18 H 0.18262 0.45387 0.24795 0.0
H19 H 0.26339 0.42913 0.27974 0.0
H20 H 0.05504 0.48625 0.33259 0.0
H21 H 0.17369 0.35234 0.4061 0.0
H22 H 0.0346 0.47375 0.38005 0.0
H23 H 0.13163 0.32526 0.38923 0.0
O24 O 0.1565 0.48051 0.33775 0.0
H25 H 0.28184 0.45359 0.37753 0.0
H26 H 0.23315 0.49195 0.29233 0.0
H27 H 0.27134 0.51973 0.3151 0.0
H28 H 0.29603 0.50054 0.358 0.0
H29 H 0.24329 0.42666 0.35425 0.0
H30 H 0.28434 0.43522 0.23164 0.0
H31 H 0.25396 0.45114 0.19117 0.0
O32 O 0.18357 0.47231 0.29906 0.0
C33 C 0.14718 0.41738 0.29051 0.0
C34 C 0.21621 0.45362 0.21704 0.0
C35 C 0.262 0.4394 0.23503 0.0
N36 N 0.22184 0.44129 0.26667 0.0
C37 C 0.20495 0.44989 0.24449 0.0
C38 C 0.25 0.4359 0.2622 0.0
C39 C 0.24495 0.44834 0.21234 0.0
C40 C 0.16233 0.39007 0.38262 0.0
N41 N 0.14327 0.40254 0.36449 0.0
C42 C 0.15846 0.36213 0.39181 0.0
C43 C 0.13488 0.34694 0.3823 0.0
C44 C 0.11554 0.3598 0.3638 0.0
C45 C 0.12011 0.38777 0.35504 0.0
C46 C 0.07249 0.45265 0.39451 0.0
C47 C 0.09531 0.46645 0.3416 0.0
C48 C 0.10019 0.44489 0.38729 0.0
N49 N 0.11121 0.45169 0.36105 0.0
C50 C 0.06754 0.47457 0.34809 0.0
C51 C 0.05609 0.46758 0.37473 0.0
C52 C 0.16786 0.48848 0.31427 0.0
C53 C 0.27128 0.46216 0.35881 0.0
C54 C 0.24365 0.48353 0.31108 0.0
C55 C 0.26534 0.49931 0.32383 0.0
C56 C 0.2792 0.48852 0.34787 0.0
N57 N 0.236 0.45769 0.32193 0.0
C58 C 0.24952 0.44695 0.34548 0.0
Co59 Co 0.43897 0.84507 0.64421 0.0
Co60 Co 0.43553 0.79349 0.69649 0.0
O61 O 0.43044 0.80649 0.65697 0.0
C62 C 0.47048 0.80975 0.60135 0.0
O63 O 0.48127 0.79433 0.62212 0.0
C64 C 0.3756 0.77768 0.68384 0.0
O65 O 0.37134 0.80346 0.67404 0.0
O66 O 0.41365 0.8265 0.71195 0.0
O67 O 0.4238 0.86122 0.68062 0.0
H68 H 0.45951 0.8045 0.80092 0.0
H69 H 0.40477 0.80618 0.60816 0.0
O70 O 0.45378 0.83022 0.60699 0.0
H71 H 0.34359 0.88947 0.62455 0.0
H72 H 0.44386 0.92442 0.57194 0.0
H73 H 0.46398 0.89598 0.67169 0.0
H74 H 0.39209 0.88785 0.64428 0.0
H75 H 0.43252 0.8761 0.58869 0.0
O76 O 0.39982 0.77063 0.69366 0.0
H77 H 0.45323 0.82066 0.751 0.0
H78 H 0.42795 0.73776 0.72591 0.0
H79 H 0.47542 0.94461 0.65591 0.0
H80 H 0.35652 0.807 0.58768 0.0
H81 H 0.46537 0.9591 0.6057 0.0
H82 H 0.32551 0.84882 0.59595 0.0
O83 O 0.47785 0.84323 0.66138 0.0
H84 H 0.4533 0.71166 0.62973 0.0
H85 H 0.491 0.76657 0.71132 0.0
H86 H 0.5189 0.72673 0.69183 0.0
H87 H 0.50003 0.69892 0.65077 0.0
H88 H 0.42625 0.75186 0.64972 0.0
H89 H 0.43372 0.72076 0.77561 0.0
H90 H 0.44973 0.75422 0.81349 0.0
O91 O 0.47144 0.81559 0.7001 0.0
C92 C 0.41327 0.85248 0.70422 0.0
C93 C 0.45259 0.7897 0.7846 0.0
C94 C 0.43808 0.74272 0.7704 0.0
N95 N 0.44038 0.78015 0.73554 0.0
C96 C 0.44906 0.79871 0.75628 0.0
C97 C 0.43477 0.75249 0.74231 0.0
C98 C 0.44707 0.7615 0.79164 0.0
C99 C 0.39147 0.82452 0.61172 0.0
N100 N 0.4012 0.84688 0.62761 0.0
C101 C 0.36414 0.82484 0.60012 0.0
C102 C 0.34674 0.84829 0.6048 0.0
C103 C 0.35685 0.87108 0.62089 0.0
C104 C 0.38428 0.86999 0.63219 0.0
C105 C 0.44833 0.91837 0.59388 0.0
C106 C 0.4594 0.90217 0.64985 0.0
C107 C 0.44204 0.891 0.60346 0.0
N108 N 0.44747 0.88325 0.63118 0.0
C109 C 0.46599 0.92972 0.64102 0.0
C110 C 0.46038 0.93782 0.61283 0.0
C111 C 0.48646 0.83241 0.68495 0.0
C112 C 0.46173 0.72359 0.64766 0.0
C113 C 0.48273 0.75469 0.69336 0.0
C114 C 0.49857 0.73208 0.68247 0.0
C115 C 0.48796 0.71647 0.65945 0.0
N116 N 0.457 0.76153 0.6817 0.0
C117 C 0.44646 0.74631 0.65913 0.0
Co118 Co 0.84847 0.56383 0.35682 0.0
Co119 Co 0.79467 0.56432 0.30601 0.0
O120 O 0.80899 0.57025 0.34512 0.0
C121 C 0.81383 0.53186 0.40043 0.0
O122 O 0.79312 0.52813 0.382 0.0
C123 C 0.77962 0.62443 0.31833 0.0
O124 O 0.80533 0.62832 0.32847 0.0
O125 O 0.82715 0.58561 0.28875 0.0
O126 O 0.86238 0.5824 0.32113 0.0
H127 H 0.80224 0.53728 0.20202 0.0
H128 H 0.808 0.59315 0.39544 0.0
O129 O 0.83618 0.54534 0.39339 0.0
H130 H 0.88651 0.66085 0.38097 0.0
H131 H 0.92976 0.56045 0.427 0.0
H132 H 0.90034 0.54444 0.32676 0.0
H133 H 0.88778 0.61349 0.35846 0.0
H134 H 0.88035 0.56927 0.412 0.0
O135 O 0.77227 0.60031 0.30848 0.0
H136 H 0.81996 0.54475 0.25124 0.0
H137 H 0.73813 0.57161 0.27809 0.0
H138 H 0.95004 0.53559 0.34079 0.0
H139 H 0.80596 0.64015 0.41861 0.0
H140 H 0.96502 0.54357 0.39125 0.0
H141 H 0.84537 0.67443 0.41134 0.0
O142 O 0.84911 0.52581 0.33777 0.0
H143 H 0.71296 0.54998 0.37381 0.0
H144 H 0.76768 0.50821 0.29417 0.0
H145 H 0.72762 0.48152 0.31489 0.0
H146 H 0.69986 0.50246 0.35494 0.0
H147 H 0.75348 0.57575 0.35276 0.0
H148 H 0.71957 0.56466 0.22911 0.0
H149 H 0.75171 0.54728 0.1907 0.0
O150 O 0.81643 0.5283 0.30277 0.0
C151 C 0.85258 0.59013 0.2969 0.0
C152 C 0.78802 0.54481 0.21859 0.0
C153 C 0.74163 0.56022 0.23378 0.0
N154 N 0.78008 0.55849 0.26754 0.0
C155 C 0.79792 0.54903 0.24651 0.0
C156 C 0.75228 0.56419 0.26146 0.0
C157 C 0.75967 0.55045 0.21224 0.0
C158 C 0.82532 0.60787 0.39234 0.0
N159 N 0.84796 0.60061 0.37556 0.0
C160 C 0.82401 0.63449 0.40545 0.0
C161 C 0.84611 0.65372 0.40133 0.0
C162 C 0.86918 0.64613 0.38426 0.0
C163 C 0.86974 0.61934 0.37146 0.0
C164 C 0.9235 0.55694 0.40494 0.0
C165 C 0.90675 0.54816 0.34871 0.0
C166 C 0.89554 0.56184 0.39632 0.0
N167 N 0.88751 0.55756 0.36847 0.0
C168 C 0.9349 0.54303 0.35655 0.0
C169 C 0.94328 0.54748 0.38487 0.0
C170 C 0.83606 0.51531 0.31624 0.0
C171 C 0.72486 0.54066 0.35633 0.0
C172 C 0.75591 0.51735 0.31177 0.0
C173 C 0.73314 0.50219 0.32333 0.0
C174 C 0.71755 0.51397 0.34577 0.0
N175 N 0.76295 0.54352 0.32225 0.0
C176 C 0.74774 0.55521 0.34423 0.0
Co177 Co 0.56069 0.15843 0.64546 0.0
Co178 Co 0.56568 0.20827 0.69906 0.0
O179 O 0.56992 0.19654 0.65908 0.0
C180 C 0.52957 0.19507 0.60342 0.0
O181 O 0.51827 0.20973 0.62448 0.0
C182 C 0.62523 0.22478 0.6859 0.0
O183 O 0.62964 0.19908 0.67598 0.0
O184 O 0.5882 0.17502 0.7128 0.0
O185 O 0.57563 0.14107 0.68148 0.0
H186 H 0.54486 0.19387 0.80377 0.0
H187 H 0.59566 0.19751 0.61041 0.0
O188 O 0.54622 0.17447 0.60867 0.0
H189 H 0.65504 0.11249 0.62432 0.0
H190 H 0.55393 0.08096 0.57125 0.0
H191 H 0.53478 0.10736 0.67177 0.0
H192 H 0.60663 0.11466 0.64424 0.0
H193 H 0.56628 0.12863 0.58915 0.0
O194 O 0.60104 0.23159 0.69595 0.0
H195 H 0.5499 0.17926 0.75322 0.0
H196 H 0.57338 0.26319 0.72995 0.0
H197 H 0.52233 0.05936 0.65483 0.0
H198 H 0.64381 0.19616 0.58975 0.0
H199 H 0.5319 0.0459 0.60422 0.0
H200 H 0.67392 0.15347 0.59677 0.0
O201 O 0.52191 0.16067 0.66281 0.0
H202 H 0.54521 0.29215 0.6358 0.0
H203 H 0.5101 0.23363 0.716 0.0
H204 H 0.48121 0.27375 0.69867 0.0
H205 H 0.49877 0.30337 0.65833 0.0
H206 H 0.5733 0.25166 0.65364 0.0
H207 H 0.56881 0.27866 0.78029 0.0
H208 H 0.55435 0.2439 0.81758 0.0
O209 O 0.53018 0.18563 0.70297 0.0
C210 C 0.58736 0.14913 0.70476 0.0
C211 C 0.55111 0.20923 0.78771 0.0
C212 C 0.56459 0.25681 0.77454 0.0
N213 N 0.56176 0.22038 0.73863 0.0
C214 C 0.55394 0.2011 0.75904 0.0
C215 C 0.56721 0.24791 0.74608 0.0
C216 C 0.55646 0.2373 0.79545 0.0
C217 C 0.60857 0.17879 0.61344 0.0
N218 N 0.59839 0.15624 0.62875 0.0
C219 C 0.63585 0.17818 0.60174 0.0
C220 C 0.65274 0.15424 0.60572 0.0
C221 C 0.64217 0.13126 0.62121 0.0
C222 C 0.61481 0.13266 0.63263 0.0
C223 C 0.54968 0.08656 0.59335 0.0
C224 C 0.53915 0.10162 0.64976 0.0
C225 C 0.55655 0.11356 0.60359 0.0
N226 N 0.5514 0.12074 0.63153 0.0
C227 C 0.53199 0.07443 0.64027 0.0
C228 C 0.53734 0.0669 0.61187 0.0
C229 C 0.51432 0.17005 0.68735 0.0
C230 C 0.53737 0.27945 0.65345 0.0
C231 C 0.51784 0.24635 0.69836 0.0
C232 C 0.50142 0.26909 0.68869 0.0
C233 C 0.5113 0.28571 0.66607 0.0
N234 N 0.54342 0.24038 0.68592 0.0
C235 C 0.55323 0.25656 0.66371 0.0
Co236 Co 0.15882 0.56135 0.64661 0.0
Co237 Co 0.21141 0.56455 0.69871 0.0
O238 O 0.1981 0.56826 0.65891 0.0
C239 C 0.19503 0.53004 0.60317 0.0
O240 O 0.21789 0.53237 0.61903 0.0
C241 C 0.22731 0.62401 0.68391 0.0
O242 O 0.20176 0.62778 0.67332 0.0
O243 O 0.17873 0.58703 0.71383 0.0
O244 O 0.1443 0.58205 0.68083 0.0
H245 H 0.20103 0.54382 0.80393 0.0
H246 H 0.20068 0.58888 0.60786 0.0
O247 O 0.17144 0.54036 0.61145 0.0
H248 H 0.12136 0.65662 0.61557 0.0
H249 H 0.07886 0.5542 0.57513 0.0
H250 H 0.10622 0.54412 0.67674 0.0
H251 H 0.11954 0.61063 0.64072 0.0
H252 H 0.12804 0.56359 0.59054 0.0
O253 O 0.23426 0.60019 0.69474 0.0
H254 H 0.18458 0.5485 0.75392 0.0
H255 H 0.26734 0.57297 0.72757 0.0
H256 H 0.05672 0.53477 0.66228 0.0
H257 H 0.20326 0.63442 0.58206 0.0
H258 H 0.04278 0.53979 0.61114 0.0
H259 H 0.16345 0.66874 0.5859 0.0
O260 O 0.15753 0.52453 0.66784 0.0
H261 H 0.29547 0.546 0.63498 0.0
H262 H 0.23702 0.50868 0.71419 0.0
H263 H 0.27744 0.48055 0.69639 0.0
H264 H 0.30707 0.49924 0.65658 0.0
H265 H 0.25452 0.57321 0.65308 0.0
H266 H 0.28463 0.56877 0.77733 0.0
H267 H 0.25139 0.554 0.81589 0.0
O268 O 0.18918 0.52897 0.70358 0.0
C269 C 0.15351 0.59113 0.70483 0.0
C270 C 0.21573 0.55022 0.7873 0.0
C271 C 0.26264 0.56426 0.77238 0.0
N272 N 0.22499 0.56089 0.73783 0.0
C273 C 0.20655 0.55286 0.75894 0.0
C274 C 0.25271 0.56668 0.74425 0.0
C275 C 0.24398 0.55596 0.79401 0.0
C276 C 0.18314 0.60352 0.60944 0.0
N277 N 0.15994 0.59701 0.62575 0.0
C278 C 0.18478 0.62936 0.59487 0.0
C279 C 0.16246 0.64863 0.59707 0.0
C280 C 0.13886 0.64185 0.61373 0.0
C281 C 0.13799 0.61583 0.62802 0.0
C282 C 0.08466 0.55199 0.59749 0.0
C283 C 0.10026 0.54654 0.65448 0.0
C284 C 0.1125 0.55721 0.60634 0.0
N285 N 0.11995 0.55461 0.63457 0.0
C286 C 0.07222 0.54114 0.64641 0.0
C287 C 0.06442 0.54392 0.61771 0.0
C288 C 0.16986 0.51528 0.69035 0.0
C289 C 0.28274 0.53764 0.65237 0.0
C290 C 0.24958 0.51683 0.69664 0.0
C291 C 0.27256 0.50087 0.68676 0.0
C292 C 0.28921 0.51139 0.66446 0.0
N293 N 0.24334 0.54255 0.68464 0.0
C294 C 0.2596 0.55303 0.66281 0.0
Co295 Co 0.56275 0.84124 0.35368 0.0
Co296 Co 0.56948 0.79137 0.29945 0.0
O297 O 0.57137 0.80282 0.33994 0.0
C298 C 0.53573 0.8016 0.39744 0.0
O299 O 0.5433 0.77874 0.38335 0.0
C300 C 0.6282 0.7747 0.31604 0.0
O301 O 0.63188 0.8 0.32724 0.0
O302 O 0.59272 0.82461 0.28722 0.0
O303 O 0.58326 0.85806 0.32024 0.0
H304 H 0.55427 0.80663 0.19387 0.0
H305 H 0.59341 0.79874 0.3899 0.0
O306 O 0.54179 0.82627 0.38804 0.0
H307 H 0.65504 0.88315 0.38804 0.0
H308 H 0.55051 0.91784 0.42814 0.0
H309 H 0.54379 0.89419 0.32531 0.0
H310 H 0.60923 0.88319 0.3626 0.0
H311 H 0.56243 0.8698 0.41099 0.0
O312 O 0.60471 0.76819 0.30423 0.0
H313 H 0.55647 0.82078 0.24475 0.0
H314 H 0.57907 0.73676 0.26851 0.0
H315 H 0.53198 0.9426 0.34152 0.0
H316 H 0.63873 0.79792 0.41596 0.0
H317 H 0.53529 0.95467 0.39328 0.0
H318 H 0.67004 0.84032 0.41511 0.0
O319 O 0.52615 0.84165 0.33199 0.0
H320 H 0.5472 0.70459 0.35803 0.0
H321 H 0.51429 0.76695 0.2799 0.0
H322 H 0.48501 0.72602 0.29431 0.0
H323 H 0.50147 0.69443 0.33358 0.0
H324 H 0.57562 0.74603 0.34325 0.0
H325 H 0.57732 0.72175 0.21786 0.0
H326 H 0.56475 0.75678 0.18014 0.0
O327 O 0.53427 0.81397 0.29368 0.0
C328 C 0.59459 0.84989 0.2968 0.0
C329 C 0.55973 0.79115 0.21011 0.0
C330 C 0.57269 0.74352 0.22357 0.0
N331 N 0.56777 0.77961 0.2596 0.0
C332 C 0.56096 0.79903 0.23896 0.0
C333 C 0.57373 0.75217 0.25221 0.0
C334 C 0.56563 0.76319 0.20242 0.0
C335 C 0.60653 0.81745 0.38969 0.0
N336 N 0.59833 0.84111 0.37491 0.0
C337 C 0.63237 0.81678 0.40438 0.0
C338 C 0.64995 0.84054 0.40384 0.0
C339 C 0.64156 0.86456 0.38865 0.0
C340 C 0.6156 0.86442 0.37419 0.0
C341 C 0.54904 0.91285 0.40553 0.0
C342 C 0.5455 0.89935 0.34784 0.0
C343 C 0.55567 0.88566 0.39569 0.0
N344 N 0.55402 0.87925 0.36712 0.0
C345 C 0.53869 0.92677 0.3569 0.0
C346 C 0.54051 0.93351 0.38596 0.0
C347 C 0.51888 0.83127 0.30779 0.0
C348 C 0.53981 0.71819 0.34088 0.0
C349 C 0.52147 0.75352 0.29723 0.0
C350 C 0.50487 0.73026 0.30518 0.0
C351 C 0.51413 0.71252 0.32718 0.0
N352 N 0.54661 0.75898 0.31081 0.0
C353 C 0.55587 0.74163 0.33234 0.0
Co354 Co 0.84863 0.43476 0.65042 0.0
Co355 Co 0.79261 0.43491 0.69832 0.0
O356 O 0.80873 0.4283 0.66014 0.0
C357 C 0.81724 0.467 0.60516 0.0
O358 O 0.79896 0.47594 0.62439 0.0
C359 C 0.77681 0.37507 0.68604 0.0
O360 O 0.80319 0.3704 0.67829 0.0
O361 O 0.82352 0.4127 0.71718 0.0
O362 O 0.86097 0.41829 0.68775 0.0
H363 H 0.79542 0.46167 0.80264 0.0
H364 H 0.81103 0.40286 0.61094 0.0
O365 O 0.83765 0.45083 0.61236 0.0
H366 H 0.88933 0.33729 0.63391 0.0
H367 H 0.93351 0.43578 0.58468 0.0
H368 H 0.89847 0.45688 0.68206 0.0
H369 H 0.88858 0.38572 0.65397 0.0
H370 H 0.88352 0.42681 0.5975 0.0
O371 O 0.76924 0.39961 0.69459 0.0
H372 H 0.81557 0.45353 0.7545 0.0
H373 H 0.73444 0.42956 0.72299 0.0
H374 H 0.9487 0.46593 0.67024 0.0
H375 H 0.81105 0.35471 0.59018 0.0
H376 H 0.96651 0.45538 0.62123 0.0
H377 H 0.85036 0.32151 0.60174 0.0
O378 O 0.84761 0.47362 0.66757 0.0
H379 H 0.71628 0.45238 0.62513 0.0
H380 H 0.76675 0.49179 0.70882 0.0
H381 H 0.72926 0.52002 0.68545 0.0
H382 H 0.70369 0.5003 0.64332 0.0
H383 H 0.75414 0.42499 0.64897 0.0
H384 H 0.71345 0.43722 0.77084 0.0
H385 H 0.744 0.4535 0.81104 0.0
O386 O 0.81534 0.47028 0.70286 0.0
C387 C 0.84969 0.40959 0.71097 0.0
C388 C 0.78187 0.45464 0.78528 0.0
C389 C 0.73587 0.44088 0.76744 0.0
N390 N 0.77617 0.44124 0.73593 0.0
C391 C 0.79315 0.45005 0.75796 0.0
C392 C 0.74789 0.43651 0.74041 0.0
C393 C 0.75303 0.45003 0.78998 0.0
C394 C 0.8283 0.3886 0.6159 0.0
N395 N 0.84975 0.39707 0.63369 0.0
C396 C 0.82816 0.36133 0.60415 0.0
C397 C 0.85021 0.34271 0.61067 0.0
C398 C 0.87206 0.35154 0.62874 0.0
C399 C 0.87147 0.37895 0.64012 0.0
C400 C 0.92601 0.44044 0.60612 0.0
C401 C 0.90611 0.45209 0.66074 0.0
C402 C 0.8977 0.43549 0.61348 0.0
N403 N 0.88812 0.44121 0.64055 0.0
C404 C 0.93455 0.45732 0.65415 0.0
C405 C 0.94452 0.45142 0.62664 0.0
C406 C 0.83466 0.48372 0.68936 0.0
C407 C 0.72722 0.46117 0.64352 0.0
C408 C 0.75583 0.48311 0.69042 0.0
C409 C 0.73455 0.49916 0.67732 0.0
C410 C 0.72019 0.48807 0.6537 0.0
N411 N 0.76258 0.45673 0.68032 0.0
C412 C 0.74859 0.44571 0.65718 0.0
Co413 Co 0.44087 0.1635 0.35598 0.0
Co414 Co 0.43319 0.21234 0.30101 0.0
O415 O 0.43153 0.20151 0.34165 0.0
C416 C 0.4667 0.20437 0.39932 0.0
O417 O 0.45826 0.22688 0.38517 0.0
C418 C 0.37409 0.22809 0.31719 0.0
O419 O 0.37068 0.20267 0.32818 0.0
O420 O 0.41053 0.1785 0.28931 0.0
O421 O 0.42086 0.14577 0.32276 0.0
H422 H 0.44862 0.19572 0.19567 0.0
H423 H 0.40903 0.20599 0.3913 0.0
O424 O 0.46146 0.17944 0.39012 0.0
H425 H 0.3494 0.12015 0.39074 0.0
H426 H 0.4545 0.08837 0.43169 0.0
H427 H 0.46093 0.11047 0.32849 0.0
H428 H 0.39529 0.12071 0.36549 0.0
H429 H 0.44166 0.13587 0.41374 0.0
O430 O 0.39756 0.23498 0.30555 0.0
H431 H 0.44671 0.18232 0.24676 0.0
H432 H 0.42249 0.26624 0.26923 0.0
H433 H 0.47368 0.06259 0.3455 0.0
H434 H 0.36362 0.20622 0.41716 0.0
H435 H 0.47052 0.05129 0.39745 0.0
H436 H 0.33331 0.16311 0.41697 0.0
O437 O 0.47748 0.16344 0.33437 0.0
H438 H 0.45406 0.30036 0.35825 0.0
H439 H 0.48787 0.23745 0.28095 0.0
H440 H 0.51646 0.2791 0.29469 0.0
H441 H 0.49954 0.31096 0.33353 0.0
H442 H 0.42634 0.25822 0.34415 0.0
H443 H 0.42393 0.2805 0.21835 0.0
H444 H 0.43717 0.24513 0.18117 0.0
O445 O 0.46878 0.19024 0.29555 0.0
C446 C 0.40934 0.1533 0.29921 0.0
C447 C 0.44288 0.21134 0.21167 0.0
C448 C 0.42898 0.25891 0.2244 0.0
N449 N 0.43463 0.2235 0.26098 0.0
C450 C 0.44181 0.20389 0.24064 0.0
C451 C 0.42813 0.25069 0.25317 0.0
C452 C 0.43643 0.23906 0.20355 0.0
C453 C 0.39638 0.18697 0.3914 0.0
N454 N 0.4052 0.16323 0.37711 0.0
C455 C 0.37047 0.1873 0.40596 0.0
C456 C 0.35344 0.16314 0.4058 0.0
C457 C 0.36245 0.13905 0.39108 0.0
C458 C 0.38846 0.13953 0.37672 0.0
C459 C 0.45592 0.09301 0.40899 0.0
C460 C 0.45929 0.10565 0.3511 0.0
C461 C 0.44875 0.11991 0.39871 0.0
N462 N 0.45032 0.12588 0.37004 0.0
C463 C 0.46663 0.07853 0.36062 0.0
C464 C 0.46489 0.07222 0.38977 0.0
C465 C 0.4845 0.17346 0.30995 0.0
C466 C 0.46165 0.28664 0.34128 0.0
C467 C 0.4805 0.251 0.29811 0.0
C468 C 0.49671 0.27466 0.30567 0.0
C469 C 0.48719 0.29255 0.32744 0.0
N470 N 0.4555 0.24529 0.31183 0.0
C471 C 0.44599 0.26279 0.33313 0.0
Co472 Co 0.65359 0.93568 0.85261 0.0
Co473 Co 0.70861 0.93556 0.80369 0.0
O474 O 0.69326 0.92916 0.84217 0.0
C475 C 0.68556 0.96859 0.89687 0.0
O476 O 0.702 0.97905 0.87674 0.0
C477 C 0.72549 0.87604 0.81612 0.0
O478 O 0.69927 0.87087 0.82411 0.0
O479 O 0.67762 0.91278 0.78571 0.0
O480 O 0.64047 0.91918 0.81541 0.0
H481 H 0.70372 0.96069 0.69904 0.0
H482 H 0.69208 0.90351 0.89098 0.0
O483 O 0.66557 0.95155 0.89048 0.0
H484 H 0.61249 0.8386 0.87051 0.0
H485 H 0.57012 0.93729 0.92016 0.0
H486 H 0.60316 0.9577 0.82193 0.0
H487 H 0.61309 0.88703 0.85044 0.0
H488 H 0.61982 0.92818 0.90634 0.0
O489 O 0.73253 0.90068 0.80744 0.0
H490 H 0.68448 0.95296 0.74762 0.0
H491 H 0.76647 0.93085 0.77815 0.0
H492 H 0.5532 0.96688 0.83476 0.0
H493 H 0.69224 0.85537 0.91176 0.0
H494 H 0.5364 0.95667 0.8842 0.0
H495 H 0.65228 0.82251 0.90145 0.0
O496 O 0.65438 0.97457 0.83544 0.0
H497 H 0.78573 0.95518 0.87549 0.0
H498 H 0.73348 0.99267 0.79204 0.0
H499 H 0.77089 0.02178 0.81448 0.0
H500 H 0.79735 0.00303 0.85649 0.0
H501 H 0.74797 0.92688 0.85256 0.0
H502 H 0.78657 0.93813 0.72985 0.0
H503 H 0.75513 0.95327 0.68992 0.0
O504 O 0.68535 0.9705 0.79909 0.0
C505 C 0.65145 0.91002 0.79218 0.0
C506 C 0.71765 0.95416 0.71628 0.0
C507 C 0.76414 0.94146 0.73356 0.0
N508 N 0.72435 0.94163 0.76573 0.0
C509 C 0.70688 0.9498 0.74384 0.0
C510 C 0.75262 0.9373 0.76085 0.0
C511 C 0.74649 0.94997 0.71117 0.0
C512 C 0.67455 0.88937 0.88651 0.0
N513 N 0.65267 0.898 0.86937 0.0
C514 C 0.67479 0.86212 0.89829 0.0
C515 C 0.65238 0.84369 0.89248 0.0
C516 C 0.63006 0.85269 0.8751 0.0
C517 C 0.63057 0.88008 0.86367 0.0
C518 C 0.57718 0.9418 0.89854 0.0
C519 C 0.59596 0.95305 0.84343 0.0
C520 C 0.60532 0.93678 0.89062 0.0
N521 N 0.61434 0.94227 0.86331 0.0
C522 C 0.56767 0.95836 0.8506 0.0
C523 C 0.55826 0.95266 0.87835 0.0
C524 C 0.66653 0.98422 0.81299 0.0
C525 C 0.77441 0.96355 0.85715 0.0
C526 C 0.74482 0.98439 0.81037 0.0
C527 C 0.76603 0.00095 0.82295 0.0
C528 C 0.78088 0.99041 0.8465 0.0
N529 N 0.73863 0.95804 0.82091 0.0
C530 C 0.75309 0.94757 0.844 0.0
Co531 Co 0.93105 0.34441 0.14772 0.0
Co532 Co 0.93925 0.29218 0.19951 0.0
O533 O 0.9292 0.30501 0.16076 0.0
C534 C 0.96684 0.31319 0.10514 0.0
O535 O 0.97714 0.29725 0.12576 0.0
C536 C 0.87934 0.2748 0.19148 0.0
O537 O 0.87509 0.29907 0.17839 0.0
O538 O 0.91843 0.32436 0.21808 0.0
O539 O 0.91315 0.35756 0.18387 0.0
H540 H 0.9761 0.30363 0.3 0.0
H541 H 0.90431 0.30059 0.11096 0.0
O542 O 0.94867 0.33241 0.11068 0.0
H543 H 0.82939 0.37153 0.12858 0.0
H544 H 0.92245 0.42322 0.07521 0.0
H545 H 0.94649 0.39898 0.17521 0.0
H546 H 0.87742 0.37812 0.14858 0.0
H547 H 0.91956 0.3737 0.09209 0.0
O548 O 0.90378 0.26861 0.20138 0.0
H549 H 0.96324 0.31968 0.25133 0.0
H550 H 0.93645 0.23636 0.22952 0.0
H551 H 0.94943 0.44881 0.1593 0.0
H552 H 0.85667 0.2933 0.09027 0.0
H553 H 0.93738 0.46119 0.10896 0.0
H554 H 0.81879 0.32887 0.09916 0.0
O555 O 0.96961 0.34943 0.16491 0.0
H556 H 0.95087 0.21075 0.13088 0.0
H557 H 0.99685 0.26702 0.20702 0.0
H558 H 0.02328 0.22799 0.18402 0.0
H559 H 1.00025 0.19952 0.14568 0.0
H560 H 0.92532 0.25015 0.15427 0.0
H561 H 0.94879 0.21945 0.27802 0.0
H562 H 0.96887 0.25318 0.3136 0.0
O563 O 0.97464 0.31538 0.19842 0.0
C564 C 0.9097 0.34846 0.20933 0.0
C565 C 0.96744 0.28871 0.28466 0.0
C566 C 0.95207 0.24147 0.27234 0.0
N567 N 0.94929 0.27894 0.23757 0.0
C568 C 0.96019 0.29766 0.25705 0.0
C569 C 0.94506 0.25119 0.24493 0.0
C570 C 0.96335 0.26041 0.29229 0.0
C571 C 0.88801 0.31629 0.11469 0.0
N572 N 0.89363 0.33974 0.13097 0.0
C573 C 0.86104 0.31199 0.10302 0.0
C574 C 0.83978 0.33194 0.10805 0.0
C575 C 0.84571 0.35586 0.12458 0.0
C576 C 0.87291 0.35942 0.13595 0.0
C577 C 0.92776 0.41809 0.0972 0.0
C578 C 0.9411 0.40422 0.1533 0.0
C579 C 0.92626 0.39007 0.10685 0.0
N580 N 0.93281 0.38346 0.13462 0.0
C581 C 0.94286 0.43246 0.1444 0.0
C582 C 0.93612 0.43939 0.11615 0.0
C583 C 0.98378 0.33682 0.1845 0.0
C584 C 0.96111 0.22297 0.1476 0.0
C585 C 0.98675 0.25482 0.19026 0.0
C586 C 0.00178 0.23269 0.17738 0.0
C587 C 0.98883 0.2167 0.15589 0.0
N588 N 0.95956 0.26083 0.18202 0.0
C589 C 0.94672 0.24524 0.16099 0.0
Co590 Co 0.34408 0.06173 0.85585 0.0
Co591 Co 0.29266 0.06494 0.80357 0.0
O592 O 0.30548 0.07012 0.84311 0.0
C593 C 0.30875 0.03069 0.89897 0.0
O594 O 0.29353 0.0195 0.87825 0.0
C595 C 0.27631 0.12456 0.81618 0.0
O596 O 0.30213 0.12899 0.8258 0.0
O597 O 0.32533 0.08739 0.78838 0.0
O598 O 0.36027 0.07646 0.81918 0.0
H599 H 0.30432 0.04204 0.69895 0.0
H600 H 0.30543 0.09638 0.89171 0.0
O601 O 0.32921 0.04738 0.89323 0.0
H602 H 0.38876 0.15726 0.87414 0.0
H603 H 0.42352 0.05749 0.92809 0.0
H604 H 0.39488 0.03626 0.82862 0.0
H605 H 0.38692 0.10856 0.85493 0.0
H606 H 0.3752 0.06875 0.91125 0.0
O607 O 0.26929 0.10027 0.80652 0.0
H608 H 0.32028 0.04823 0.74895 0.0
H609 H 0.23685 0.07157 0.77411 0.0
H610 H 0.4435 0.02488 0.8445 0.0
H611 H 0.30649 0.14483 0.91168 0.0
H612 H 0.45809 0.03549 0.89457 0.0
H613 H 0.34833 0.17568 0.90281 0.0
O614 O 0.34207 0.02269 0.83914 0.0
H615 H 0.2106 0.04547 0.86955 0.0
H616 H 0.26722 0.00881 0.78867 0.0
H617 H 0.22775 0.9801 0.80777 0.0
H618 H 0.19909 0.99844 0.84846 0.0
H619 H 0.25043 0.07337 0.84995 0.0
H620 H 0.22002 0.06585 0.72434 0.0
H621 H 0.25385 0.05087 0.68638 0.0
O622 O 0.31542 0.02949 0.79981 0.0
C623 C 0.3514 0.08739 0.79581 0.0
C624 C 0.28936 0.0485 0.71531 0.0
C625 C 0.24206 0.0619 0.72955 0.0
N626 N 0.27948 0.06007 0.76446 0.0
C627 C 0.29826 0.05198 0.74368 0.0
C628 C 0.25172 0.06517 0.75769 0.0
C629 C 0.26104 0.05348 0.70827 0.0
C630 C 0.3238 0.1096 0.8879 0.0
N631 N 0.34604 0.09968 0.87199 0.0
C632 C 0.32424 0.13705 0.89921 0.0
C633 C 0.3477 0.15437 0.89419 0.0
C634 C 0.37037 0.14406 0.87807 0.0
C635 C 0.36915 0.11651 0.86708 0.0
C636 C 0.41742 0.05279 0.90621 0.0
C637 C 0.40112 0.04108 0.8504 0.0
C638 C 0.39006 0.05903 0.89658 0.0
N639 N 0.38226 0.0533 0.86893 0.0
C640 C 0.42865 0.03452 0.85929 0.0
C641 C 0.43682 0.04046 0.88739 0.0
C642 C 0.33187 0.01431 0.8152 0.0
C643 C 0.22288 0.03728 0.85176 0.0
C644 C 0.25492 0.0169 0.80645 0.0
C645 C 0.23255 1.00057 0.81713 0.0
C646 C 0.21646 0.01088 0.83995 0.0
N647 N 0.26105 0.0428 0.81811 0.0
C648 C 0.24539 0.05304 0.84051 0.0
Co649 Co 0.06513 0.65305 0.14644 0.0
Co650 Co 0.06495 0.70923 0.19419 0.0
O651 O 0.07119 0.69303 0.15601 0.0
C652 C 0.03132 0.68408 0.1022 0.0
O653 O 0.02203 0.70161 0.12197 0.0
C654 C 0.12455 0.72531 0.18124 0.0
O655 O 0.12926 0.69897 0.17337 0.0
O656 O 0.08757 0.67854 0.21288 0.0
O657 O 0.08279 0.64104 0.18335 0.0
H658 H 0.03939 0.70664 0.29881 0.0
H659 H 0.09559 0.69145 0.10655 0.0
O660 O 0.04804 0.66391 0.1088 0.0
H661 H 0.16258 0.61362 0.12684 0.0
H662 H 0.06356 0.56826 0.08058 0.0
H663 H 0.04484 0.60282 0.17863 0.0
H664 H 0.11464 0.61359 0.14811 0.0
H665 H 0.07204 0.61838 0.09321 0.0
O666 O 0.10006 0.73277 0.19 0.0
H667 H 0.04705 0.68638 0.25064 0.0
H668 H 0.07026 0.76751 0.21862 0.0
H669 H 0.03632 0.55245 0.167 0.0
H670 H 0.1432 0.6922 0.08457 0.0
H671 H 0.04567 0.53489 0.11765 0.0
H672 H 0.17712 0.65314 0.09479 0.0
O673 O 0.02665 0.65335 0.16458 0.0
H674 H 0.04609 0.78501 0.1208 0.0
H675 H 0.00807 0.73487 0.20531 0.0
H676 H 0.97931 0.77204 0.18208 0.0
H677 H 0.99833 0.79744 0.13953 0.0
H678 H 0.07402 0.74748 0.14453 0.0
H679 H 0.06308 0.78861 0.2665 0.0
H680 H 0.04743 0.75811 0.30698 0.0
O681 O 0.0298 0.68633 0.19921 0.0
C682 C 0.09142 0.6525 0.20653 0.0
C683 C 0.04615 0.72016 0.28134 0.0
C684 C 0.05948 0.76615 0.26321 0.0
N685 N 0.05895 0.72576 0.23182 0.0
C686 C 0.05047 0.70882 0.254 0.0
C687 C 0.06359 0.75407 0.23616 0.0
C688 C 0.05069 0.74903 0.28591 0.0
C689 C 0.11017 0.6743 0.11098 0.0
N690 N 0.1024 0.65257 0.12873 0.0
C691 C 0.13713 0.67487 0.09852 0.0
C692 C 0.15615 0.65297 0.10428 0.0
C693 C 0.14802 0.63081 0.12229 0.0
C694 C 0.12091 0.63097 0.13438 0.0
C695 C 0.05942 0.57565 0.10216 0.0
C696 C 0.04912 0.59528 0.15715 0.0
C697 C 0.06409 0.60403 0.10941 0.0
N698 N 0.05906 0.61348 0.13667 0.0
C699 C 0.04418 0.56677 0.15067 0.0
C700 C 0.0494 0.55694 0.12298 0.0
C701 C 0.01658 0.6665 0.18626 0.0
C702 C 0.0376 0.77414 0.13937 0.0
C703 C 0.01644 0.74572 0.18673 0.0
C704 C 1.0001 0.76682 0.17372 0.0
C705 C 0.01079 0.78108 0.14986 0.0
N706 N 0.04274 0.73906 0.17634 0.0
C707 C 0.05337 0.75296 0.15297 0.0
Co708 Co 0.65675 0.06134 0.14514 0.0
Co709 Co 0.70894 0.06876 0.19727 0.0
O710 O 0.69522 0.07147 0.15757 0.0
C711 C 0.69576 0.03466 0.10074 0.0
O712 O 0.71871 0.04155 0.11503 0.0
C713 C 0.72781 0.12715 0.21012 0.0
O714 O 0.7127 0.12522 0.23372 0.0
O715 O 0.67436 0.08841 0.21225 0.0
O716 O 0.64054 0.08128 0.17904 0.0
H717 H 0.70035 0.04852 0.30277 0.0
H718 H 0.69678 0.09274 0.10702 0.0
O719 O 0.6712 0.04093 0.11026 0.0
H720 H 0.61081 0.15204 0.11184 0.0
H721 H 0.57803 0.04637 0.07346 0.0
H722 H 0.60552 0.04052 0.17537 0.0
H723 H 0.61316 0.1066 0.13785 0.0
H724 H 0.62619 0.06003 0.08889 0.0
O725 O 0.72828 0.10657 0.19233 0.0
H726 H 0.68328 0.0524 0.25291 0.0
H727 H 0.76503 0.07909 0.22557 0.0
H728 H 0.55702 0.02693 0.16089 0.0
H729 H 0.69521 0.13775 0.08037 0.0
H730 H 0.54302 0.0298 0.10961 0.0
H731 H 0.65201 0.16784 0.08268 0.0
O732 O 0.65828 0.02482 0.16685 0.0
H733 H 0.79423 0.05754 0.13342 0.0
H734 H 0.73859 0.01459 0.21176 0.0
H735 H 0.78092 0.9898 0.19348 0.0
H736 H 0.80916 0.01134 0.15412 0.0
H737 H 0.75142 0.08137 0.15192 0.0
H738 H 0.78299 0.07548 0.27513 0.0
H739 H 0.75053 0.06011 0.31415 0.0
O740 O 0.68966 0.03152 0.2025 0.0
C741 C 0.64899 0.09099 0.20309 0.0
C742 C 0.7147 0.05523 0.28596 0.0
C743 C 0.76108 0.07035 0.27045 0.0
N744 N 0.72313 0.06593 0.23634 0.0
C745 C 0.70515 0.05747 0.25769 0.0
C746 C 0.7508 0.07232 0.24242 0.0
C747 C 0.74286 0.06174 0.29232 0.0
C748 C 0.67778 0.10544 0.10797 0.0
N749 N 0.65499 0.09679 0.12385 0.0
C750 C 0.67707 0.13105 0.0929 0.0
C751 C 0.65285 0.14795 0.09424 0.0
C752 C 0.62975 0.13911 0.11061 0.0
C753 C 0.63124 0.11338 0.1254 0.0
C754 C 0.58386 0.04508 0.09588 0.0
C755 C 0.59951 0.04204 0.15304 0.0
C756 C 0.61113 0.05271 0.10474 0.0
N757 N 0.61861 0.05128 0.13305 0.0
C758 C 0.57205 0.03422 0.14496 0.0
C759 C 0.56422 0.0358 0.11617 0.0
C760 C 0.67121 0.01655 0.18941 0.0
C761 C 0.78213 0.04796 0.15062 0.0
C762 C 0.75052 0.02397 0.19439 0.0
C763 C 0.7746 0.0099 0.18425 0.0
C764 C 0.79047 0.02202 0.1622 0.0
N765 N 0.74246 0.04943 0.18292 0.0
C766 C 0.75795 0.06144 0.16131 0.0
Co767 Co 0.06408 0.34359 0.85686 0.0
Co768 Co 0.06616 0.2913 0.80438 0.0
O769 O 0.07095 0.30446 0.84411 0.0
C770 C 0.03577 0.30654 0.90186 0.0
O771 O 0.04008 0.28327 0.88709 0.0
C772 C 0.1261 0.27609 0.81762 0.0
O773 O 0.12976 0.30155 0.82845 0.0
O774 O 0.08775 0.32437 0.78874 0.0
O775 O 0.08385 0.35845 0.82225 0.0
H776 H 0.04179 0.30192 0.69999 0.0
H777 H 0.09356 0.30158 0.89424 0.0
O778 O 0.04397 0.33056 0.89244 0.0
H779 H 0.15959 0.38224 0.88563 0.0
H780 H 0.05787 0.423 0.92904 0.0
H781 H 0.04582 0.39625 0.82748 0.0
H782 H 0.1129 0.38352 0.86184 0.0
H783 H 0.06728 0.37401 0.91308 0.0
O784 O 0.10218 0.26897 0.80711 0.0
H785 H 0.04794 0.31818 0.7499 0.0
H786 H 0.07445 0.23567 0.77491 0.0
H787 H 0.03645 0.44557 0.84248 0.0
H788 H 0.13982 0.29955 0.91867 0.0
H789 H 0.04246 0.45921 0.89359 0.0
H790 H 0.1733 0.34004 0.91439 0.0
O791 O 0.02669 0.34473 0.83658 0.0
H792 H 0.05078 0.20681 0.86837 0.0
H793 H 0.01031 0.26472 0.7904 0.0
H794 H 0.98332 0.22383 0.80891 0.0
H795 H 0.0036 0.19447 0.84812 0.0
H796 H 0.07681 0.24822 0.84958 0.0
H797 H 0.06882 0.21858 0.72523 0.0
H798 H 0.05227 0.25179 0.68739 0.0
O799 O 0.03013 0.31297 0.80082 0.0
C800 C 0.09217 0.34948 0.7979 0.0
C801 C 0.04896 0.28723 0.7163 0.0
C802 C 0.06417 0.24047 0.73046 0.0
N803 N 0.06144 0.27788 0.76532 0.0
C804 C 0.05243 0.2963 0.74461 0.0
C805 C 0.0674 0.25029 0.75854 0.0
C806 C 0.05487 0.25911 0.70924 0.0
C807 C 0.10775 0.31945 0.89253 0.0
N808 N 0.10032 0.34274 0.87677 0.0
C809 C 0.13404 0.31811 0.90631 0.0
C810 C 0.15284 0.3408 0.90385 0.0
C811 C 0.14518 0.36447 0.88771 0.0
C812 C 0.11872 0.36504 0.87421 0.0
C813 C 0.05523 0.41733 0.90669 0.0
C814 C 0.04868 0.40208 0.84972 0.0
C815 C 0.06046 0.3896 0.89754 0.0
N816 N 0.05731 0.38232 0.86932 0.0
C817 C 0.04326 0.43001 0.85811 0.0
C818 C 0.0466 0.43764 0.88679 0.0
C819 C 0.01675 0.33221 0.81446 0.0
C820 C 0.04172 0.21943 0.85128 0.0
C821 C 0.01913 0.2523 0.8077 0.0
C822 C 0.00382 0.22905 0.81798 0.0
C823 C 0.01523 0.21255 0.83994 0.0
N824 N 0.04507 0.25897 0.81898 0.0
C825 C 0.05643 0.24283 0.84045 0.0
Co826 Co 0.3409 0.94225 0.14731 0.0
Co827 Co 0.29179 0.93506 0.20206 0.0
O828 O 0.30275 0.9332 0.16145 0.0
C829 C 0.30051 0.96799 0.10347 0.0
O830 O 0.27784 0.96005 0.11765 0.0
C831 C 0.27516 0.87635 0.18555 0.0
O832 O 0.30056 0.87265 0.17456 0.0
O833 O 0.32528 0.91195 0.21388 0.0
O834 O 0.35837 0.92257 0.1809 0.0
H835 H 0.30826 0.95011 0.30749 0.0
H836 H 0.29864 0.9104 0.11182 0.0
O837 O 0.32533 0.96251 0.11283 0.0
H838 H 0.38404 0.8502 0.11392 0.0
H839 H 0.41673 0.95475 0.07209 0.0
H840 H 0.39376 0.96259 0.17499 0.0
H841 H 0.38353 0.89633 0.13873 0.0
H842 H 0.36903 0.94223 0.0898 0.0
O843 O 0.26864 0.89979 0.19742 0.0
H844 H 0.32182 0.94806 0.25644 0.0
H845 H 0.23758 0.92521 0.23361 0.0
H846 H 0.44183 0.97503 0.15823 0.0
H847 H 0.29835 0.86474 0.08638 0.0
H848 H 0.45357 0.97115 0.10643 0.0
H849 H 0.34125 0.83415 0.08736 0.0
O850 O 0.34083 0.97907 0.16854 0.0
H851 H 0.20431 0.95715 0.14446 0.0
H852 H 0.26741 0.99009 0.22201 0.0
H853 H 0.22624 0.01926 0.2081 0.0
H854 H 0.19428 0.00278 0.16913 0.0
H855 H 0.24598 0.92885 0.15873 0.0
H856 H 0.22315 0.92682 0.28443 0.0
H857 H 0.25859 0.93944 0.32177 0.0
O858 O 0.31438 0.97036 0.2076 0.0
C859 C 0.35061 0.91093 0.20432 0.0
C860 C 0.2926 0.94465 0.29141 0.0
C861 C 0.24484 0.93154 0.27848 0.0
N862 N 0.28049 0.93667 0.24204 0.0
C863 C 0.30014 0.94351 0.26246 0.0
C864 C 0.25316 0.9306 0.24974 0.0
C865 C 0.26474 0.93864 0.29941 0.0
C866 C 0.31756 0.8976 0.11206 0.0
N867 N 0.3412 0.90639 0.12656 0.0
C868 C 0.3172 0.87157 0.09773 0.0
C869 C 0.34124 0.85438 0.09834 0.0
C870 C 0.36523 0.86337 0.11325 0.0
C871 C 0.36479 0.88951 0.12736 0.0
C872 C 0.41189 0.95647 0.09472 0.0
C873 C 0.39877 0.96064 0.15245 0.0
C874 C 0.38489 0.94949 0.10487 0.0
N875 N 0.37867 0.95146 0.13346 0.0
C876 C 0.42599 0.9678 0.14307 0.0
C877 C 0.43255 0.96566 0.114 0.0
C878 C 0.33101 0.98609 0.19304 0.0
C879 C 0.21807 0.96456 0.16148 0.0
C880 C 0.25382 0.98291 0.2048 0.0
C881 C 0.23043 0.99945 0.19714 0.0
C882 C 0.21248 0.99017 0.1753 0.0
N883 N 0.25921 0.95783 0.1911 0.0
C884 C 0.24165 0.94856 0.16973 0.0
Co885 Co 0.94009 0.6577 0.85198 0.0
Co886 Co 0.93605 0.71024 0.79998 0.0
O887 O 0.93237 0.69681 0.83974 0.0
C888 C 0.96791 0.69485 0.89723 0.0
O889 O 0.96345 0.71811 0.8825 0.0
C890 C 0.8765 0.72537 0.81482 0.0
O891 O 0.87289 0.69958 0.82485 0.0
O892 O 0.91389 0.67737 0.78482 0.0
O893 O 0.92034 0.64274 0.81734 0.0
H894 H 0.95702 0.70035 0.69476 0.0
H895 H 0.91 0.6987 0.89 0.0
O896 O 0.96009 0.67077 0.88762 0.0
H897 H 0.84566 0.61672 0.88109 0.0
H898 H 0.94847 0.57766 0.92319 0.0
H899 H 0.95931 0.60578 0.82189 0.0
H900 H 0.89216 0.61669 0.85688 0.0
H901 H 0.93786 0.62659 0.90786 0.0
O902 O 0.90026 0.7327 0.80409 0.0
H903 H 0.95241 0.68372 0.7447 0.0
H904 H 0.92708 0.76612 0.77128 0.0
H905 H 0.96988 0.55652 0.83626 0.0
H906 H 0.86393 0.69949 0.91484 0.0
H907 H 0.96449 0.5422 0.88724 0.0
H908 H 0.8313 0.65831 0.91042 0.0
O909 O 0.97731 0.65761 0.83139 0.0
H910 H 0.95389 0.79441 0.86381 0.0
H911 H 0.99173 0.73636 0.78458 0.0
H912 H 0.01954 0.77699 0.80244 0.0
H913 H 1.00059 0.80642 0.84227 0.0
H914 H 0.927 0.75327 0.84564 0.0
H915 H 0.9312 0.7836 0.72159 0.0
H916 H 0.94636 0.75063 0.68294 0.0
O917 O 0.97183 0.68838 0.79505 0.0
C918 C 0.91072 0.65194 0.79356 0.0
C919 C 0.95044 0.71494 0.71142 0.0
C920 C 0.93591 0.76165 0.72648 0.0
N921 N 0.9396 0.72395 0.76091 0.0
C922 C 0.94784 0.70565 0.73975 0.0
C923 C 0.93354 0.75161 0.75456 0.0
C924 C 0.94444 0.74314 0.7048 0.0
C925 C 0.89618 0.68054 0.88821 0.0
N926 N 0.90398 0.65757 0.87215 0.0
C927 C 0.86999 0.68118 0.90223 0.0
C928 C 0.85167 0.6581 0.8997 0.0
C929 C 0.85971 0.63477 0.88323 0.0
C930 C 0.88605 0.63491 0.8695 0.0
C931 C 0.95085 0.58363 0.9009 0.0
C932 C 0.95671 0.59965 0.84408 0.0
C933 C 0.94495 0.61133 0.8921 0.0
N934 N 0.94777 0.61899 0.86395 0.0
C935 C 0.96282 0.57175 0.8521 0.0
C936 C 0.95983 0.56374 0.88072 0.0
C937 C 0.98613 0.66977 0.80861 0.0
C938 C 0.96236 0.78176 0.84643 0.0
C939 C 0.98348 0.74882 0.80215 0.0
C940 C 0.99925 0.77192 0.81206 0.0
C941 C 0.98858 0.78846 0.83437 0.0
N942 N 0.95779 0.74234 0.81412 0.0
C943 C 0.94717 0.75851 0.83595 0.0
H944 H 0.21402 0.32021 0.3344 0.0
H945 H 0.37636 0.28313 0.29958 0.0
H946 H 0.27631 0.37985 0.30299 0.0
H947 H 0.31913 0.22184 0.33698 0.0
H948 H 0.33878 0.3182 0.30043 0.0
H949 H 0.25097 0.28334 0.33537 0.0
C950 C 0.23538 0.32557 0.32773 0.0
C951 C 0.24199 0.35319 0.31851 0.0
C952 C 0.33429 0.29713 0.30851 0.0
C953 C 0.2842 0.31124 0.31956 0.0
C954 C 0.35583 0.27697 0.30799 0.0
C955 C 0.35094 0.24937 0.31815 0.0
C956 C 0.3074 0.28984 0.31921 0.0
C957 C 0.32383 0.24285 0.3289 0.0
C958 C 0.25643 0.30454 0.32831 0.0
C959 C 0.27005 0.35892 0.31019 0.0
N960 N 0.303 0.26295 0.32909 0.0
N961 N 0.28997 0.3382 0.31088 0.0
H962 H 0.32096 0.78275 0.66289 0.0
H963 H 0.28164 0.62229 0.70392 0.0
H964 H 0.37789 0.72329 0.70358 0.0
H965 H 0.2218 0.67858 0.6629 0.0
H966 H 0.31673 0.65993 0.70361 0.0
H967 H 0.28401 0.74589 0.6624 0.0
C968 C 0.32569 0.76204 0.67176 0.0
C969 C 0.3526 0.75618 0.68334 0.0
C970 C 0.29596 0.6642 0.69465 0.0
C971 C 0.31053 0.71402 0.68278 0.0
C972 C 0.2758 0.64261 0.69483 0.0
C973 C 0.2486 0.64721 0.68347 0.0
C974 C 0.28911 0.69081 0.68302 0.0
C975 C 0.24248 0.67409 0.67194 0.0
C976 C 0.30461 0.74103 0.67144 0.0
C977 C 0.35754 0.72892 0.69444 0.0
N978 N 0.26259 0.69492 0.67201 0.0
N979 N 0.33678 0.70899 0.69386 0.0
H980 H 0.62634 0.72074 0.29519 0.0
H981 H 0.78511 0.67878 0.33988 0.0
H982 H 0.68223 0.77927 0.33873 0.0
H983 H 0.72569 0.62313 0.29726 0.0
H984 H 0.74881 0.71627 0.33988 0.0
H985 H 0.66347 0.6852 0.29605 0.0
C986 C 0.64648 0.72619 0.30496 0.0
C987 C 0.65112 0.75316 0.31686 0.0
C988 C 0.74384 0.69583 0.33053 0.0
C989 C 0.69414 0.71213 0.31794 0.0
C990 C 0.76453 0.67444 0.33048 0.0
C991 C 0.7585 0.64774 0.31852 0.0
C992 C 0.71701 0.6904 0.31851 0.0
C993 C 0.73143 0.64331 0.30674 0.0
C994 C 0.66777 0.70577 0.30545 0.0
C995 C 0.67773 0.75878 0.32926 0.0
N996 N 0.71182 0.66434 0.30705 0.0
N997 N 0.6983 0.73841 0.32948 0.0
H998 H 0.62186 0.27979 0.70362 0.0
H999 H 0.78345 0.31964 0.66813 0.0
H1000 H 0.68055 0.21944 0.66702 0.0
H1001 H 0.72115 0.37799 0.70181 0.0
H1002 H 0.74704 0.28229 0.66746 0.0
H1003 H 0.65889 0.31556 0.70308 0.0
C1004 C 0.64259 0.27399 0.69546 0.0
C1005 C 0.64805 0.24645 0.68541 0.0
C1006 C 0.74143 0.3033 0.67497 0.0
C1007 C 0.69091 0.2877 0.6847 0.0
C1008 C 0.76219 0.32461 0.67538 0.0
C1009 C 0.75541 0.35201 0.68511 0.0
C1010 C 0.71377 0.30948 0.68438 0.0
C1011 C 0.72748 0.35724 0.69417 0.0
C1012 C 0.6638 0.29453 0.69513 0.0
C1013 C 0.6754 0.24037 0.67503 0.0
N1014 N 0.70781 0.33623 0.6936 0.0
N1015 N 0.69586 0.26085 0.67497 0.0
H1016 H 0.78104 0.88032 0.80042 0.0
H1017 H 0.82172 0.71876 0.83486 0.0
H1018 H 0.72 0.82026 0.83348 0.0
H1019 H 0.87845 0.78058 0.79757 0.0
H1020 H 0.7842 0.75499 0.83605 0.0
H1021 H 0.81698 0.8435 0.80088 0.0
C1022 C 0.77513 0.85934 0.80781 0.0
C1023 C 0.74734 0.85342 0.81684 0.0
C1024 C 0.80489 0.76051 0.82761 0.0
C1025 C 0.78878 0.81079 0.81743 0.0
C1026 C 0.8263 0.73987 0.82692 0.0
C1027 C 0.85329 0.74656 0.81601 0.0
C1028 C 0.8106 0.788 0.81739 0.0
C1029 C 0.85802 0.77429 0.80609 0.0
C1030 C 0.79576 0.83823 0.80806 0.0
C1031 C 0.74113 0.82576 0.82625 0.0
N1032 N 0.83696 0.79387 0.80704 0.0
N1033 N 0.76171 0.80542 0.82628 0.0
H1034 H 0.74932 0.14884 0.16005 0.0
H1035 H 0.87176 0.23574 0.23388 0.0
H1036 H 0.75217 0.15933 0.25196 0.0
H1037 H 0.83384 0.26701 0.1558 0.0
H1038 H 0.83301 0.20127 0.23832 0.0
H1039 H 0.78514 0.18658 0.15522 0.0
C1040 C 0.75735 0.15921 0.17915 0.0
C1041 C 0.74771 0.15111 0.20643 0.0
C1042 C 0.83318 0.21577 0.22029 0.0
C1043 C 0.78894 0.19344 0.20108 0.0
C1044 C 0.85528 0.2353 0.21767 0.0
C1045 C 0.85587 0.25427 0.1945 0.0
C1046 C 0.81198 0.21466 0.19918 0.0
C1047 C 0.83398 0.25286 0.17409 0.0
C1048 C 0.77765 0.1807 0.17637 0.0
C1049 C 0.75883 0.16512 0.23052 0.0
N1050 N 0.81303 0.23312 0.17671 0.0
N1051 N 0.77916 0.18533 0.22731 0.0
H1052 H 0.18048 0.28156 0.83911 0.0
H1053 H 0.22198 0.12215 0.79624 0.0
H1054 H 0.12477 0.22216 0.79656 0.0
H1055 H 0.28136 0.17925 0.83691 0.0
H1056 H 0.18642 0.15935 0.79678 0.0
H1057 H 0.21797 0.24528 0.83905 0.0
C1058 C 0.17613 0.26098 0.82973 0.0
C1059 C 0.14941 0.25496 0.81779 0.0
C1060 C 0.2072 0.16389 0.80559 0.0
C1061 C 0.19207 0.21346 0.81772 0.0
C1062 C 0.22761 0.14256 0.8053 0.0
C1063 C 0.25481 0.14753 0.81652 0.0
C1064 C 0.2138 0.19058 0.81723 0.0
C1065 C 0.26069 0.1745 0.82797 0.0
C1066 C 0.19752 0.2403 0.82972 0.0
C1067 C 0.14497 0.2279 0.806 0.0
N1068 N 0.24033 0.19505 0.82806 0.0
N1069 N 0.166 0.20827 0.80629 0.0
H1070 H 0.22027 0.87914 0.20361 0.0
H1071 H 0.18004 0.71884 0.16337 0.0
H1072 H 0.28026 0.82189 0.16417 0.0
H1073 H 0.12154 0.7808 0.19743 0.0
H1074 H 0.21746 0.75519 0.1635 0.0
H1075 H 0.1844 0.8423 0.20167 0.0
C1076 C 0.22597 0.85876 0.19454 0.0
C1077 C 0.25345 0.85363 0.18412 0.0
C1078 C 0.1964 0.76073 0.17088 0.0
C1079 C 0.21205 0.811 0.18178 0.0
C1080 C 0.17504 0.74002 0.17084 0.0
C1081 C 0.14759 0.74671 0.18049 0.0
C1082 C 0.19021 0.78825 0.18071 0.0
C1083 C 0.14233 0.77453 0.18985 0.0
C1084 C 0.20536 0.83766 0.19339 0.0
C1085 C 0.25938 0.82675 0.1725 0.0
N1086 N 0.16339 0.79414 0.18976 0.0
N1087 N 0.23884 0.80637 0.17169 0.0
H1088 H 0.19192 0.51473 0.26807 0.0
H1089 H 0.08219 0.64431 0.26409 0.0
H1090 H 0.1282 0.52726 0.33349 0.0
H1091 H 0.13609 0.61874 0.19407 0.0
H1092 H 0.10434 0.60753 0.29434 0.0
H1093 H 0.1774 0.55879 0.24558 0.0
C1094 C 0.17502 0.52685 0.27794 0.0
C1095 C 0.16109 0.51698 0.30263 0.0
C1096 C 0.11149 0.61025 0.27244 0.0
C1097 C 0.14403 0.56771 0.27651 0.0
C1098 C 0.09902 0.63129 0.25531 0.0
C1099 C 0.10715 0.63415 0.22651 0.0
C1100 C 0.13237 0.5924 0.26062 0.0
C1101 C 0.12886 0.61677 0.21599 0.0
C1102 C 0.16668 0.55209 0.26498 0.0
C1103 C 0.13945 0.53393 0.3144 0.0
N1104 N 0.14061 0.5966 0.23296 0.0
N1105 N 0.13135 0.55835 0.30104 0.0
H1106 H 0.51405 0.80877 0.73048 0.0
H1107 H 0.64173 0.92077 0.73511 0.0
H1108 H 0.5234 0.8744 0.66648 0.0
H1109 H 0.61752 0.8654 0.80441 0.0
H1110 H 0.60426 0.89932 0.70511 0.0
H1111 H 0.5577 0.82433 0.75282 0.0
C1112 C 0.52538 0.82634 0.72086 0.0
C1113 C 0.51473 0.84039 0.69657 0.0
C1114 C 0.60741 0.89173 0.7268 0.0
C1115 C 0.56512 0.85871 0.72265 0.0
C1116 C 0.62884 0.90379 0.74379 0.0
C1117 C 0.63238 0.89496 0.77231 0.0
C1118 C 0.58984 0.87053 0.73847 0.0
C1119 C 0.61511 0.87312 0.78272 0.0
C1120 C 0.55041 0.8353 0.73379 0.0
C1121 C 0.53071 0.86298 0.68522 0.0
N1122 N 0.5946 0.86174 0.76588 0.0
N1123 N 0.55501 0.87165 0.69854 0.0
H1124 H 0.86218 0.37875 0.19878 0.0
H1125 H 0.88067 0.48109 0.33341 0.0
H1126 H 0.924 0.36219 0.2648 0.0
H1127 H 0.8109 0.48484 0.27337 0.0
H1128 H 0.89597 0.43639 0.3111 0.0
H1129 H 0.84182 0.41618 0.2282 0.0
C1130 C 0.87126 0.38289 0.2197 0.0
C1131 C 0.89486 0.36758 0.22933 0.0
C1132 C 0.87712 0.44692 0.30313 0.0
C1133 C 0.872 0.41088 0.26317 0.0
C1134 C 0.86838 0.47244 0.31582 0.0
C1135 C 0.84456 0.487 0.30516 0.0
C1136 C 0.862 0.43601 0.27957 0.0
C1137 C 0.82949 0.47468 0.28231 0.0
C1138 C 0.85964 0.40426 0.23657 0.0
C1139 C 0.90569 0.37353 0.25673 0.0
N1140 N 0.83858 0.45015 0.27024 0.0
N1141 N 0.89444 0.3951 0.2726 0.0
H1142 H 0.49263 0.18513 0.73935 0.0
H1143 H 0.34699 0.10253 0.73848 0.0
H1144 H 0.4728 0.13482 0.6644 0.0
H1145 H 0.40554 0.10214 0.80979 0.0
H1146 H 0.38439 0.12443 0.70856 0.0
H1147 H 0.45069 0.16653 0.76288 0.0
C1148 C 0.47937 0.17039 0.72759 0.0
C1149 C 0.48669 0.16121 0.69987 0.0
C1150 C 0.38871 0.11952 0.73083 0.0
C1151 C 0.43815 0.14008 0.72702 0.0
C1152 C 0.36746 0.10723 0.74794 0.0
C1153 C 0.37291 0.10082 0.77691 0.0
C1154 C 0.41511 0.12603 0.74313 0.0
C1155 C 0.39998 0.10702 0.78787 0.0
C1156 C 0.45539 0.1598 0.74116 0.0
C1157 C 0.46816 0.14229 0.68585 0.0
N1158 N 0.41984 0.11951 0.77111 0.0
N1159 N 0.4447 0.13214 0.69967 0.0
H1160 H 0.12867 0.47806 0.67097 0.0
H1161 H 0.1318 0.38764 0.81474 0.0
H1162 H 0.1904 0.48948 0.73856 0.0
H1163 H 0.08717 0.35809 0.73975 0.0
H1164 H 0.1529 0.42545 0.78639 0.0
H1165 H 0.11244 0.43444 0.69474 0.0
C1166 C 0.13898 0.47136 0.69059 0.0
C1167 C 0.16083 0.48771 0.70283 0.0
C1168 C 0.13872 0.41062 0.77592 0.0
C1169 C 0.14226 0.438 0.73009 0.0
C1170 C 0.12658 0.38906 0.79219 0.0
C1171 C 0.10758 0.36988 0.77962 0.0
C1172 C 0.13148 0.41346 0.74685 0.0
C1173 C 0.10184 0.37246 0.75018 0.0
C1174 C 0.12974 0.44643 0.70409 0.0
C1175 C 0.17339 0.47785 0.72829 0.0
N1176 N 0.11344 0.39418 0.73479 0.0
N1177 N 0.16378 0.45388 0.74111 0.0
H1178 H 0.3523 0.90099 0.26265 0.0
H1179 H 0.49955 0.81819 0.25419 0.0
H1180 H 0.39981 0.88767 0.18468 0.0
H1181 H 0.47609 0.86478 0.33045 0.0
H1182 H 0.45677 0.83499 0.23076 0.0
H1183 H 0.39174 0.87973 0.28993 0.0
C1184 C 0.37078 0.89332 0.25123 0.0
C1185 C 0.37273 0.89615 0.22127 0.0
C1186 C 0.4609 0.84147 0.25266 0.0
C1187 C 0.41747 0.87173 0.25219 0.0
C1188 C 0.48537 0.83184 0.26618 0.0
C1189 C 0.49174 0.84027 0.29437 0.0
C1190 C 0.44227 0.85953 0.26735 0.0
C1191 C 0.4722 0.8579 0.30865 0.0
C1192 C 0.39328 0.88139 0.26682 0.0
C1193 C 0.39728 0.88604 0.20764 0.0
N1194 N 0.44829 0.86701 0.29495 0.0
N1195 N 0.41855 0.87423 0.22314 0.0
H1196 H 0.87647 0.52017 0.66986 0.0
H1197 H 0.87047 0.61459 0.81062 0.0
H1198 H 0.81214 0.51169 0.73537 0.0
H1199 H 0.9163 0.64231 0.73571 0.0
H1200 H 0.84946 0.57633 0.7827 0.0
H1201 H 0.89209 0.56458 0.69256 0.0
C1202 C 0.86544 0.52771 0.68877 0.0
C1203 C 0.84309 0.51191 0.70081 0.0
C1204 C 0.86386 0.59088 0.77215 0.0
C1205 C 0.86098 0.56249 0.72688 0.0
C1206 C 0.87594 0.61268 0.78817 0.0
C1207 C 0.89524 0.63145 0.77548 0.0
C1208 C 0.87153 0.5874 0.74325 0.0
C1209 C 0.90137 0.62827 0.74619 0.0
C1210 C 0.87434 0.55307 0.70166 0.0
C1211 C 0.8296 0.52284 0.72533 0.0
N1212 N 0.88986 0.60631 0.73108 0.0
N1213 N 0.83892 0.54719 0.73762 0.0
H1214 H 0.64679 0.0958 0.26207 0.0
H1215 H 0.50529 0.18893 0.25756 0.0
H1216 H 0.60259 0.12004 0.18483 0.0
H1217 H 0.52578 0.13737 0.33139 0.0
H1218 H 0.54752 0.17147 0.23367 0.0
H1219 H 0.60866 0.11806 0.29052 0.0
C1220 C 0.62929 0.10601 0.25111 0.0
C1221 C 0.62776 0.1059 0.221 0.0
C1222 C 0.54288 0.16404 0.25515 0.0
C1223 C 0.58459 0.13147 0.2532 0.0
C1224 C 0.51872 0.17406 0.26894 0.0
C1225 C 0.51164 0.16442 0.29655 0.0
C1226 C 0.56044 0.14428 0.26893 0.0
C1227 C 0.53025 0.14526 0.31005 0.0
C1228 C 0.60754 0.11852 0.26732 0.0
C1229 C 0.60457 0.11931 0.2079 0.0
N1230 N 0.5538 0.13569 0.29605 0.0
N1231 N 0.58403 0.13156 0.22403 0.0
H1232 H 0.62949 0.02399 0.83586 0.0
H1233 H 0.60134 0.09537 0.68876 0.0
H1234 H 0.68268 0.00773 0.76212 0.0
H1235 H 0.60238 0.15118 0.76227 0.0
H1236 H 0.62262 0.05833 0.7176 0.0
H1237 H 0.61179 0.06719 0.81188 0.0
C1238 C 0.63766 0.02955 0.81489 0.0
C1239 C 0.65739 0.01191 0.8009 0.0
C1240 C 0.61835 0.07875 0.72738 0.0
C1241 C 0.63701 0.06071 0.77356 0.0
C1242 C 0.60624 0.10006 0.7109 0.0
C1243 C 0.60054 0.12681 0.72283 0.0
C1244 C 0.62417 0.08367 0.75638 0.0
C1245 C 0.60681 0.13103 0.75206 0.0
C1246 C 0.62764 0.0542 0.80136 0.0
C1247 C 0.6673 0.02031 0.77376 0.0
N1248 N 0.61811 0.10952 0.76804 0.0
N1249 N 0.65666 0.04376 0.76085 0.0
H1250 H 0.14971 0.36715 0.26083 0.0
H1251 H 0.00193 0.39187 0.18023 0.0
H1252 H 0.09874 0.44235 0.27185 0.0
H1253 H 0.02866 0.30909 0.20916 0.0
H1254 H 0.04506 0.41226 0.20124 0.0
H1255 H 0.11251 0.34729 0.22949 0.0
C1256 C 0.13095 0.37963 0.25621 0.0
C1257 C 0.12708 0.40628 0.26901 0.0
C1258 C 0.04159 0.38958 0.20258 0.0
C1259 C 0.08504 0.38409 0.23315 0.0
C1260 C 0.01709 0.3779 0.19049 0.0
C1261 C 0.01154 0.34876 0.19321 0.0
C1262 C 0.06091 0.37192 0.21697 0.0
C1263 C 0.03194 0.3317 0.20686 0.0
C1264 C 0.10977 0.36829 0.23853 0.0
C1265 C 0.10235 0.4216 0.26257 0.0
N1266 N 0.05571 0.34353 0.21831 0.0
N1267 N 0.08228 0.41031 0.24506 0.0
H1268 H 0.36862 0.97417 0.83804 0.0
H1269 H 0.39743 0.90603 0.68937 0.0
H1270 H 0.31566 0.99101 0.76426 0.0
H1271 H 0.39928 0.84914 0.76199 0.0
H1272 H 0.37543 0.94191 0.71904 0.0
H1273 H 0.38684 0.93149 0.81349 0.0
C1274 C 0.36054 0.9688 0.81698 0.0
C1275 C 0.34083 0.98655 0.80309 0.0
C1276 C 0.38047 0.92151 0.72847 0.0
C1277 C 0.36179 0.93832 0.77511 0.0
C1278 C 0.39303 0.90085 0.7115 0.0
C1279 C 0.39977 0.87413 0.72292 0.0
C1280 C 0.37516 0.91598 0.75746 0.0
C1281 C 0.39406 0.86929 0.75218 0.0
C1282 C 0.37088 0.94445 0.80311 0.0
C1283 C 0.33108 0.9784 0.77581 0.0
N1284 N 0.38225 0.89019 0.76863 0.0
N1285 N 0.34199 0.95525 0.76261 0.0
H1286 H 0.88871 0.63251 0.31104 0.0
H1287 H 0.9813 0.62261 0.16921 0.0
H1288 H 0.86166 0.58158 0.23929 0.0
H1289 H 0.98826 0.69032 0.23135 0.0
H1290 H 0.93777 0.60654 0.19333 0.0
H1291 H 0.92575 0.65331 0.28136 0.0
C1292 C 0.89052 0.62585 0.2889 0.0
C1293 C 0.8723 0.6052 0.27763 0.0
C1294 C 0.94873 0.62511 0.20135 0.0
C1295 C 0.91496 0.62871 0.24338 0.0
C1296 C 0.97359 0.63429 0.18764 0.0
C1297 C 0.98874 0.65774 0.19835 0.0
C1298 C 0.93918 0.63933 0.22604 0.0
C1299 C 0.97763 0.67202 0.22233 0.0
C1300 C 0.91161 0.63781 0.27187 0.0
C1301 C 0.8753 0.59757 0.24868 0.0
N1302 N 0.9538 0.66244 0.23543 0.0
N1303 N 0.89658 0.60903 0.23257 0.0
H1304 H 0.63535 0.97521 0.16808 0.0
H1305 H 0.62368 0.89575 0.31672 0.0
H1306 H 0.68894 0.99468 0.24071 0.0
H1307 H 0.60014 0.85357 0.23812 0.0
H1308 H 0.64517 0.93376 0.28892 0.0
H1309 H 0.61981 0.9318 0.19267 0.0
C1310 C 0.64405 0.9703 0.189 0.0
C1311 C 0.66335 0.98885 0.20238 0.0
C1312 C 0.63555 0.91609 0.27768 0.0
C1313 C 0.64539 0.9395 0.23061 0.0
C1314 C 0.62316 0.89439 0.29358 0.0
C1315 C 0.60999 0.87146 0.27977 0.0
C1316 C 0.63432 0.91531 0.24762 0.0
C1317 C 0.61016 0.87082 0.24963 0.0
C1318 C 0.63522 0.9455 0.20296 0.0
C1319 C 0.67392 0.98126 0.22951 0.0
N1320 N 0.62179 0.89268 0.23449 0.0
N1321 N 0.66456 0.95743 0.24281 0.0
H1322 H 0.86286 0.4234 0.76652 0.0
H1323 H 0.98715 0.30768 0.77059 0.0
H1324 H 0.87976 0.36207 0.70018 0.0
H1325 H 0.98188 0.37618 0.832 0.0
H1326 H 0.94284 0.32323 0.74951 0.0
H1327 H 0.90111 0.40221 0.79564 0.0
C1328 C 0.87425 0.40511 0.75843 0.0
C1329 C 0.86845 0.39445 0.73096 0.0
C1330 C 0.9512 0.33484 0.7677 0.0
C1331 C 0.91199 0.37045 0.76366 0.0
C1332 C 0.97663 0.32593 0.77986 0.0
C1333 C 0.98856 0.34072 0.80309 0.0
C1334 C 0.93738 0.35893 0.77855 0.0
C1335 C 0.97359 0.36417 0.81406 0.0
C1336 C 0.89615 0.3932 0.77486 0.0
C1337 C 0.88388 0.37104 0.72113 0.0
N1338 N 0.94886 0.37271 0.80153 0.0
N1339 N 0.90499 0.35992 0.73739 0.0
H1340 H 0.38474 0.10513 0.31964 0.0
H1341 H 0.36442 0.02869 0.16996 0.0
H1342 H 0.40056 0.15034 0.24077 0.0
H1343 H 0.31818 0.00571 0.24659 0.0
H1344 H 0.381 0.07188 0.19445 0.0
H1345 H 0.36363 0.06665 0.29243 0.0
C1346 C 0.38363 0.10709 0.29658 0.0
C1347 C 0.39444 0.13107 0.28254 0.0
C1348 C 0.36699 0.05741 0.20565 0.0
C1349 C 0.37052 0.08659 0.25097 0.0
C1350 C 0.35759 0.03274 0.19177 0.0
C1351 C 0.34001 0.01332 0.20624 0.0
C1352 C 0.35908 0.06238 0.23426 0.0
C1353 C 0.33181 0.0198 0.23448 0.0
C1354 C 0.37147 0.08507 0.281 0.0
C1355 C 0.39233 0.13229 0.25247 0.0
N1356 N 0.34162 0.04354 0.24757 0.0
N1357 N 0.38089 0.11014 0.23758 0.0
H1358 H 0.14698 0.58869 0.76341 0.0
H1359 H 0.01121 0.6905 0.76011 0.0
H1360 H 0.11341 0.62867 0.68749 0.0
H1361 H 0.02471 0.63005 0.82847 0.0
H1362 H 0.05484 0.67474 0.73762 0.0
H1363 H 0.10836 0.61033 0.79162 0.0
C1364 C 0.13178 0.60236 0.7528 0.0
C1365 C 0.13317 0.60673 0.72304 0.0
C1366 C 0.04838 0.66498 0.75762 0.0
C1367 C 0.08936 0.63143 0.75494 0.0
C1368 C 0.02339 0.674 0.77059 0.0
C1369 C 0.01395 0.66142 0.7962 0.0
C1370 C 0.06436 0.64319 0.7702 0.0
C1371 C 0.03101 0.64024 0.80866 0.0
C1372 C 0.1097 0.61448 0.76882 0.0
C1373 C 0.1129 0.62442 0.71026 0.0
N1374 N 0.05536 0.63166 0.79545 0.0
N1375 N 0.09188 0.63607 0.72624 0.0
H1376 H 0.24105 0.52454 0.56706 0.0
H1377 H 0.14803 0.45299 0.44296 0.0
H1378 H 0.1515 0.50639 0.57355 0.0
H1379 H 0.22731 0.49545 0.42502 0.0
H1380 H 0.15322 0.46507 0.49336 0.0
H1381 H 0.24035 0.50681 0.51733 0.0
C1382 C 0.22139 0.51649 0.55817 0.0
C1383 C 0.19626 0.51704 0.57436 0.0
C1384 C 0.16955 0.47173 0.47846 0.0
C1385 C 0.19536 0.49677 0.51793 0.0
C1386 C 0.16663 0.46479 0.44959 0.0
C1387 C 0.18713 0.47347 0.42958 0.0
C1388 C 0.19321 0.48737 0.48764 0.0
C1389 C 0.21087 0.48856 0.43966 0.0
C1390 C 0.22097 0.50658 0.52981 0.0
C1391 C 0.17132 0.50656 0.56179 0.0
N1392 N 0.21324 0.49513 0.46804 0.0
N1393 N 0.17152 0.49689 0.5344 0.0
H1394 H 0.50278 0.84094 0.42375 0.0
H1395 H 0.50714 0.76975 0.57847 0.0
H1396 H 0.5391 0.75786 0.43655 0.0
H1397 H 0.45075 0.838 0.55452 0.0
H1398 H 0.52063 0.76462 0.52768 0.0
H1399 H 0.48498 0.84014 0.47269 0.0
C1400 C 0.50679 0.82237 0.43684 0.0
C1401 C 0.52244 0.79944 0.42608 0.0
C1402 C 0.50515 0.78053 0.53368 0.0
C1403 C 0.50242 0.79852 0.48256 0.0
C1404 C 0.49751 0.78352 0.56262 0.0
C1405 C 0.47804 0.80458 0.5709 0.0
C1406 C 0.49338 0.79887 0.51308 0.0
C1407 C 0.46609 0.8217 0.54939 0.0
C1408 C 0.49659 0.8219 0.46483 0.0
C1409 C 0.52696 0.77591 0.44402 0.0
N1410 N 0.47411 0.8186 0.52166 0.0
N1411 N 0.51728 0.77617 0.47159 0.0
H1412 H 0.76605 0.51978 0.43257 0.0
H1413 H 0.85723 0.46074 0.56369 0.0
H1414 H 0.8576 0.5186 0.43556 0.0
H1415 H 0.77246 0.49297 0.57705 0.0
H1416 H 0.85455 0.47485 0.51378 0.0
H1417 H 0.76503 0.50343 0.48289 0.0
C1418 C 0.78585 0.51587 0.4437 0.0
C1419 C 0.81195 0.52058 0.42994 0.0
C1420 C 0.83649 0.47891 0.52756 0.0
C1421 C 0.81091 0.50186 0.4869 0.0
C1422 C 0.83795 0.47076 0.55615 0.0
C1423 C 0.81507 0.47579 0.57473 0.0
C1424 C 0.8119 0.49207 0.5171 0.0
C1425 C 0.79067 0.4889 0.56351 0.0
C1426 C 0.78524 0.50676 0.47236 0.0
C1427 C 0.837 0.51542 0.44534 0.0
N1428 N 0.78967 0.49658 0.5353 0.0
N1429 N 0.83582 0.50626 0.47285 0.0
H1430 H 0.5026 0.16724 0.4248 0.0
H1431 H 0.49089 0.23346 0.58112 0.0
H1432 H 0.46026 0.24716 0.43907 0.0
H1433 H 0.55287 0.17063 0.55613 0.0
H1434 H 0.47821 0.23949 0.53021 0.0
H1435 H 0.52017 0.1684 0.47383 0.0
C1436 C 0.49725 0.18523 0.43824 0.0
C1437 C 0.47997 0.20713 0.42788 0.0
C1438 C 0.49475 0.22462 0.53602 0.0
C1439 C 0.49965 0.20842 0.48446 0.0
C1440 C 0.50194 0.22112 0.56502 0.0
C1441 C 0.52266 0.2012 0.57302 0.0
C1442 C 0.50829 0.20793 0.51508 0.0
C1443 C 0.53644 0.18592 0.5512 0.0
C1444 C 0.50731 0.18591 0.46628 0.0
C1445 C 0.47371 0.22994 0.44624 0.0
N1446 N 0.52884 0.18943 0.52342 0.0
N1447 N 0.48324 0.22984 0.47386 0.0
H1448 H 0.74062 0.03576 0.06272 0.0
H1449 H 0.65315 0.95221 0.94228 0.0
H1450 H 0.65495 0.00486 0.07277 0.0
H1451 H 0.72693 0.00254 0.92139 0.0
H1452 H 0.65822 0.96567 0.99218 0.0
H1453 H 0.74047 0.01815 0.01296 0.0
C1454 C 0.72197 0.02496 0.05461 0.0
C1455 C 0.69772 0.02184 0.07185 0.0
C1456 C 0.67336 0.97383 0.97677 0.0
C1457 C 0.69744 0.00178 0.0153 0.0
C1458 C 0.6705 0.96612 0.94813 0.0
C1459 C 0.68949 0.97647 0.92741 0.0
C1460 C 0.69544 0.99202 0.98509 0.0
C1461 C 0.71167 0.99426 0.93659 0.0
C1462 C 0.72184 0.01513 0.02621 0.0
C1463 C 0.67406 0.0079 0.06023 0.0
N1464 N 0.71402 0.00156 0.96481 0.0
N1465 N 0.67453 0.99844 0.03277 0.0
H1466 H 0.01013 0.34956 0.93049 0.0
H1467 H 0.99999 0.27078 0.08143 0.0
H1468 H 0.03316 0.26137 0.93943 0.0
H1469 H 0.95503 0.34777 0.06001 0.0
H1470 H 0.01527 0.26699 0.03102 0.0
H1471 H 0.99263 0.34949 0.9795 0.0
C1472 C 0.01136 0.33008 0.94276 0.0
C1473 C 0.02312 0.30543 0.93085 0.0
C1474 C 0.00192 0.28457 0.03749 0.0
C1475 C 0.0033 0.30526 0.9874 0.0
C1476 C 0.99332 0.28683 0.06622 0.0
C1477 C 0.97629 0.30969 0.07504 0.0
C1478 C 0.99366 0.30551 0.0177 0.0
C1479 C 0.96815 0.32977 0.05437 0.0
C1480 C 0.0013 0.33003 0.97079 0.0
C1481 C 0.02408 0.28078 0.94779 0.0
N1482 N 0.97702 0.32728 0.02685 0.0
N1483 N 0.01452 0.28137 0.9754 0.0
H1484 H 0.26928 0.99357 0.92202 0.0
H1485 H 0.33885 0.00215 0.07728 0.0
H1486 H 0.33593 0.052 0.94575 0.0
H1487 H 0.25713 0.96291 0.06412 0.0
H1488 H 0.33786 0.01948 0.02819 0.0
H1489 H 0.26389 0.98083 0.97297 0.0
C1490 C 0.28263 0.00381 0.93785 0.0
C1491 C 0.30334 0.02361 0.92948 0.0
C1492 C 0.31994 0.00734 0.03599 0.0
C1493 C 0.29733 0.00915 0.98748 0.0
C1494 C 0.32052 0.99741 0.06407 0.0
C1495 C 0.29805 0.98106 0.07477 0.0
C1496 C 0.29693 1.00053 0.01811 0.0
C1497 C 0.27481 0.97561 0.05669 0.0
C1498 C 0.27949 0.9966 0.96688 0.0
C1499 C 0.31992 0.03636 0.95097 0.0
N1500 N 0.27499 0.98503 0.02903 0.0
N1501 N 0.31669 0.02875 0.97879 0.0
H1502 H 0.97039 0.74038 0.93441 0.0
H1503 H 0.04233 0.64767 0.05833 0.0
H1504 H 0.99221 0.65172 0.92698 0.0
H1505 H 0.00151 0.72775 0.07638 0.0
H1506 H 0.02912 0.6523 0.00835 0.0
H1507 H 0.98672 0.73953 0.98461 0.0
C1508 C 0.9789 0.72088 0.9432 0.0
C1509 C 0.97988 0.69606 0.92654 0.0
C1510 C 0.02296 0.66891 0.02315 0.0
C1511 C 0.99845 0.69497 0.98359 0.0
C1512 C 0.03055 0.66631 0.05183 0.0
C1513 C 0.02289 0.68729 0.07175 0.0
C1514 C 0.00761 0.69274 0.01397 0.0
C1515 C 0.00767 0.71097 0.06179 0.0
C1516 C 0.988 0.72037 0.97184 0.0
C1517 C 0.99088 0.67132 0.93903 0.0
N1518 N 1.00049 0.71309 0.03352 0.0
N1519 N 0.9997 0.67144 0.9667 0.0
loop_
_geom_bond_atom_site_label_1
_geom_bond_atom_site_label_2
_geom_bond_distance
_geom_bond_site_symmetry_2
_ccdc_geom_bond_type
Co0 O2 2.143 . S
Co0 O8 2.074 . S
Co0 O11 2.093 . S
Co0 O24 2.097 . S
Co0 N41 2.151 . S
Co0 N49 2.214 . S
Co1 O2 2.160 . S
Co1 O7 2.058 . S
Co1 O17 2.057 . S
Co1 O32 2.037 . S
Co1 N36 2.145 . S
Co1 N57 2.257 . S
O2 Co0 2.143 . S
O2 Co1 2.160 . S
C3 O4 1.278 . S
C3 O11 1.224 . S
O4 C3 1.278 . S
C5 O6 1.245 . S
C5 O17 1.232 . S
O6 C5 1.245 . S
O7 Co1 2.058 . S
O7 C33 1.269 . S
O8 Co0 2.074 . S
O8 C33 1.257 . S
H9 C34 0.930 . S
H10 C40 0.930 . S
O11 Co0 2.093 . S
O11 C3 1.224 . S
H12 C44 0.929 . S
H13 C46 0.930 . S
H14 C47 0.930 . S
H15 C45 0.929 . S
H16 C48 0.928 . S
O17 Co1 2.057 . S
O17 C5 1.232 . S
H18 C37 0.929 . S
H19 C38 0.929 . S
H20 C50 0.931 . S
H21 C42 0.929 . S
H22 C51 0.930 . S
H23 C43 0.931 . S
O24 Co0 2.097 . S
O24 C52 1.214 . S
H25 C53 0.929 . S
H26 C54 0.929 . S
H27 C55 0.930 . S
H28 C56 0.929 . S
H29 C58 0.930 . S
H30 C35 0.930 . S
H31 C39 0.930 . S
O32 Co1 2.037 . S
O32 C52 1.234 . S
C33 O7 1.269 . S
C33 O8 1.257 . S
C34 H9 0.930 . S
C34 C37 1.388 . S
C34 C39 1.418 . S
C35 H30 0.930 . S
C35 C38 1.404 . S
C35 C39 1.353 . S
N36 Co1 2.145 . S
N36 C37 1.397 . S
N36 C38 1.334 . S
C37 H18 0.929 . S
C37 C34 1.388 . S
C37 N36 1.397 . S
C38 H19 0.929 . S
C38 C35 1.404 . S
C38 N36 1.334 . S
C39 H31 0.930 . S
C39 C34 1.418 . S
C39 C35 1.353 . S
C40 H10 0.930 . S
C40 N41 1.330 . S
C40 C42 1.446 . S
N41 Co0 2.151 . S
N41 C40 1.330 . S
N41 C45 1.418 . S
C42 H21 0.929 . S
C42 C40 1.446 . S
C42 C43 1.332 . S
C43 H23 0.931 . S
C43 C42 1.332 . S
C43 C44 1.267 . S
C44 H12 0.929 . S
C44 C43 1.267 . S
C44 C45 1.251 . S
C45 H15 0.929 . S
C45 N41 1.418 . S
C45 C44 1.251 . S
C46 H13 0.930 . S
C46 C48 1.406 . S
C46 C51 1.261 . S
C47 H14 0.930 . S
C47 N49 1.325 . S
C47 C50 1.357 . S
C48 H16 0.928 . S
C48 C46 1.406 . S
C48 N49 1.261 . S
N49 Co0 2.214 . S
N49 C47 1.325 . S
N49 C48 1.261 . S
C50 H20 0.931 . S
C50 C47 1.357 . S
C50 C51 1.312 . S
C51 H22 0.930 . S
C51 C46 1.261 . S
C51 C50 1.312 . S
C52 O24 1.214 . S
C52 O32 1.234 . S
C53 H25 0.929 . S
C53 C56 1.391 . S
C53 C58 1.391 . S
C54 H26 0.929 . S
C54 C55 1.390 . S
C54 N57 1.391 . S
C55 H27 0.930 . S
C55 C54 1.390 . S
C55 C56 1.392 . S
C56 H28 0.929 . S
C56 C53 1.391 . S
C56 C55 1.392 . S
N57 Co1 2.257 . S
N57 C54 1.391 . S
N57 C58 1.388 . S
C58 H29 0.930 . S
C58 C53 1.391 . S
C58 N57 1.388 . S
Co59 O61 2.143 . S
Co59 O67 2.074 . S
Co59 O70 2.093 . S
Co59 O83 2.097 . S
Co59 N100 2.151 . S
Co59 N108 2.214 . S
Co60 O61 2.160 . S
Co60 O66 2.058 . S
Co60 O76 2.057 . S
Co60 O91 2.037 . S
Co60 N95 2.145 . S
Co60 N116 2.257 . S
O61 Co59 2.143 . S
O61 Co60 2.160 . S
C62 O63 1.278 . S
C62 O70 1.224 . S
O63 C62 1.278 . S
C64 O65 1.245 . S
C64 O76 1.232 . S
O65 C64 1.245 . S
O66 Co60 2.058 . S
O66 C92 1.269 . S
O67 Co59 2.074 . S
O67 C92 1.257 . S
H68 C93 0.930 . S
H69 C99 0.930 . S
O70 Co59 2.093 . S
O70 C62 1.224 . S
H71 C103 0.929 . S
H72 C105 0.930 . S
H73 C106 0.930 . S
H74 C104 0.929 . S
H75 C107 0.928 . S
O76 Co60 2.057 . S
O76 C64 1.232 . S
H77 C96 0.929 . S
H78 C97 0.929 . S
H79 C109 0.931 . S
H80 C101 0.929 . S
H81 C110 0.930 . S
H82 C102 0.931 . S
O83 Co59 2.097 . S
O83 C111 1.214 . S
H84 C112 0.929 . S
H85 C113 0.929 . S
H86 C114 0.930 . S
H87 C115 0.929 . S
H88 C117 0.930 . S
H89 C94 0.930 . S
H90 C98 0.930 . S
O91 Co60 2.037 . S
O91 C111 1.234 . S
C92 O66 1.269 . S
C92 O67 1.257 . S
C93 H68 0.930 . S
C93 C96 1.388 . S
C93 C98 1.418 . S
C94 H89 0.930 . S
C94 C97 1.404 . S
C94 C98 1.353 . S
N95 Co60 2.145 . S
N95 C96 1.397 . S
N95 C97 1.334 . S
C96 H77 0.929 . S
C96 C93 1.388 . S
C96 N95 1.397 . S
C97 H78 0.929 . S
C97 C94 1.404 . S
C97 N95 1.334 . S
C98 H90 0.930 . S
C98 C93 1.418 . S
C98 C94 1.353 . S
C99 H69 0.930 . S
C99 N100 1.330 . S
C99 C101 1.446 . S
N100 Co59 2.151 . S
N100 C99 1.330 . S
N100 C104 1.418 . S
C101 H80 0.929 . S
C101 C99 1.446 . S
C101 C102 1.332 . S
C102 H82 0.931 . S
C102 C101 1.332 . S
C102 C103 1.267 . S
C103 H71 0.929 . S
C103 C102 1.267 . S
C103 C104 1.251 . S
C104 H74 0.929 . S
C104 N100 1.418 . S
C104 C103 1.251 . S
C105 H72 0.930 . S
C105 C107 1.406 . S
C105 C110 1.261 . S
C106 H73 0.930 . S
C106 N108 1.325 . S
C106 C109 1.357 . S
C107 H75 0.928 . S
C107 C105 1.406 . S
C107 N108 1.261 . S
N108 Co59 2.214 . S
N108 C106 1.325 . S
N108 C107 1.261 . S
C109 H79 0.931 . S
C109 C106 1.357 . S
C109 C110 1.312 . S
C110 H81 0.930 . S
C110 C105 1.261 . S
C110 C109 1.312 . S
C111 O83 1.214 . S
C111 O91 1.234 . S
C112 H84 0.929 . S
C112 C115 1.391 . S
C112 C117 1.391 . S
C113 H85 0.929 . S
C113 C114 1.390 . S
C113 N116 1.391 . S
C114 H86 0.930 . S
C114 C113 1.390 . S
C114 C115 1.392 . S
C115 H87 0.929 . S
C115 C112 1.391 . S
C115 C114 1.392 . S
N116 Co60 2.257 . S
N116 C113 1.391 . S
N116 C117 1.388 . S
C117 H88 0.930 . S
C117 C112 1.391 . S
C117 N116 1.388 . S
Co118 O120 2.143 . S
Co118 O126 2.074 . S
Co118 O129 2.093 . S
Co118 O142 2.097 . S
Co118 N159 2.151 . S
Co118 N167 2.214 . S
Co119 O120 2.160 . S
Co119 O125 2.058 . S
Co119 O135 2.057 . S
Co119 O150 2.037 . S
Co119 N154 2.145 . S
Co119 N175 2.257 . S
O120 Co118 2.143 . S
O120 Co119 2.160 . S
C121 O122 1.278 . S
C121 O129 1.224 . S
O122 C121 1.278 . S
C123 O124 1.245 . S
C123 O135 1.232 . S
O124 C123 1.245 . S
O125 Co119 2.058 . S
O125 C151 1.269 . S
O126 Co118 2.074 . S
O126 C151 1.257 . S
H127 C152 0.930 . S
H128 C158 0.930 . S
O129 Co118 2.093 . S
O129 C121 1.224 . S
H130 C162 0.929 . S
H131 C164 0.930 . S
H132 C165 0.930 . S
H133 C163 0.929 . S
H134 C166 0.928 . S
O135 Co119 2.057 . S
O135 C123 1.232 . S
H136 C155 0.929 . S
H137 C156 0.929 . S
H138 C168 0.931 . S
H139 C160 0.929 . S
H140 C169 0.930 . S
H141 C161 0.931 . S
O142 Co118 2.097 . S
O142 C170 1.214 . S
H143 C171 0.929 . S
H144 C172 0.929 . S
H145 C173 0.930 . S
H146 C174 0.929 . S
H147 C176 0.930 . S
H148 C153 0.930 . S
H149 C157 0.930 . S
O150 Co119 2.037 . S
O150 C170 1.234 . S
C151 O125 1.269 . S
C151 O126 1.257 . S
C152 H127 0.930 . S
C152 C155 1.388 . S
C152 C157 1.418 . S
C153 H148 0.930 . S
C153 C156 1.404 . S
C153 C157 1.353 . S
N154 Co119 2.145 . S
N154 C155 1.397 . S
N154 C156 1.334 . S
C155 H136 0.929 . S
C155 C152 1.388 . S
C155 N154 1.397 . S
C156 H137 0.929 . S
C156 C153 1.404 . S
C156 N154 1.334 . S
C157 H149 0.930 . S
C157 C152 1.418 . S
C157 C153 1.353 . S
C158 H128 0.930 . S
C158 N159 1.330 . S
C158 C160 1.446 . S
N159 Co118 2.151 . S
N159 C158 1.330 . S
N159 C163 1.418 . S
C160 H139 0.929 . S
C160 C158 1.446 . S
C160 C161 1.332 . S
C161 H141 0.931 . S
C161 C160 1.332 . S
C161 C162 1.267 . S
C162 H130 0.929 . S
C162 C161 1.267 . S
C162 C163 1.251 . S
C163 H133 0.929 . S
C163 N159 1.418 . S
C163 C162 1.251 . S
C164 H131 0.930 . S
C164 C166 1.406 . S
C164 C169 1.261 . S
C165 H132 0.930 . S
C165 N167 1.325 . S
C165 C168 1.357 . S
C166 H134 0.928 . S
C166 C164 1.406 . S
C166 N167 1.261 . S
N167 Co118 2.214 . S
N167 C165 1.325 . S
N167 C166 1.261 . S
C168 H138 0.931 . S
C168 C165 1.357 . S
C168 C169 1.312 . S
C169 H140 0.930 . S
C169 C164 1.261 . S
C169 C168 1.312 . S
C170 O142 1.214 . S
C170 O150 1.234 . S
C171 H143 0.929 . S
C171 C174 1.391 . S
C171 C176 1.391 . S
C172 H144 0.929 . S
C172 C173 1.390 . S
C172 N175 1.391 . S
C173 H145 0.930 . S
C173 C172 1.390 . S
C173 C174 1.392 . S
C174 H146 0.929 . S
C174 C171 1.391 . S
C174 C173 1.392 . S
N175 Co119 2.257 . S
N175 C172 1.391 . S
N175 C176 1.388 . S
C176 H147 0.930 . S
C176 C171 1.391 . S
C176 N175 1.388 . S
Co177 O179 2.143 . S
Co177 O185 2.074 . S
Co177 O188 2.093 . S
Co177 O201 2.097 . S
Co177 N218 2.151 . S
Co177 N226 2.214 . S
Co178 O179 2.160 . S
Co178 O184 2.058 . S
Co178 O194 2.057 . S
Co178 O209 2.037 . S
Co178 N213 2.145 . S
Co178 N234 2.257 . S
O179 Co177 2.143 . S
O179 Co178 2.160 . S
C180 O181 1.278 . S
C180 O188 1.224 . S
O181 C180 1.278 . S
C182 O183 1.245 . S
C182 O194 1.232 . S
O183 C182 1.245 . S
O184 Co178 2.058 . S
O184 C210 1.269 . S
O185 Co177 2.074 . S
O185 C210 1.257 . S
H186 C211 0.930 . S
H187 C217 0.930 . S
O188 Co177 2.093 . S
O188 C180 1.224 . S
H189 C221 0.929 . S
H190 C223 0.930 . S
H191 C224 0.930 . S
H192 C222 0.929 . S
H193 C225 0.928 . S
O194 Co178 2.057 . S
O194 C182 1.232 . S
H195 C214 0.929 . S
H196 C215 0.929 . S
H197 C227 0.931 . S
H198 C219 0.929 . S
H199 C228 0.930 . S
H200 C220 0.931 . S
O201 Co177 2.097 . S
O201 C229 1.214 . S
H202 C230 0.929 . S
H203 C231 0.929 . S
H204 C232 0.930 . S
H205 C233 0.929 . S
H206 C235 0.930 . S
H207 C212 0.930 . S
H208 C216 0.930 . S
O209 Co178 2.037 . S
O209 C229 1.234 . S
C210 O184 1.269 . S
C210 O185 1.257 . S
C211 H186 0.930 . S
C211 C214 1.388 . S
C211 C216 1.418 . S
C212 H207 0.930 . S
C212 C215 1.404 . S
C212 C216 1.353 . S
N213 Co178 2.145 . S
N213 C214 1.397 . S
N213 C215 1.334 . S
C214 H195 0.929 . S
C214 C211 1.388 . S
C214 N213 1.397 . S
C215 H196 0.929 . S
C215 C212 1.404 . S
C215 N213 1.334 . S
C216 H208 0.930 . S
C216 C211 1.418 . S
C216 C212 1.353 . S
C217 H187 0.930 . S
C217 N218 1.330 . S
C217 C219 1.446 . S
N218 Co177 2.151 . S
N218 C217 1.330 . S
N218 C222 1.418 . S
C219 H198 0.929 . S
C219 C217 1.446 . S
C219 C220 1.332 . S
C220 H200 0.931 . S
C220 C219 1.332 . S
C220 C221 1.267 . S
C221 H189 0.929 . S
C221 C220 1.267 . S
C221 C222 1.251 . S
C222 H192 0.929 . S
C222 N218 1.418 . S
C222 C221 1.251 . S
C223 H190 0.930 . S
C223 C225 1.406 . S
C223 C228 1.261 . S
C224 H191 0.930 . S
C224 N226 1.325 . S
C224 C227 1.357 . S
C225 H193 0.928 . S
C225 C223 1.406 . S
C225 N226 1.261 . S
N226 Co177 2.214 . S
N226 C224 1.325 . S
N226 C225 1.261 . S
C227 H197 0.931 . S
C227 C224 1.357 . S
C227 C228 1.312 . S
C228 H199 0.930 . S
C228 C223 1.261 . S
C228 C227 1.312 . S
C229 O201 1.214 . S
C229 O209 1.234 . S
C230 H202 0.929 . S
C230 C233 1.391 . S
C230 C235 1.391 . S
C231 H203 0.929 . S
C231 C232 1.390 . S
C231 N234 1.391 . S
C232 H204 0.930 . S
C232 C231 1.390 . S
C232 C233 1.392 . S
C233 H205 0.929 . S
C233 C230 1.391 . S
C233 C232 1.392 . S
N234 Co178 2.257 . S
N234 C231 1.391 . S
N234 C235 1.388 . S
C235 H206 0.930 . S
C235 C230 1.391 . S
C235 N234 1.388 . S
Co236 O238 2.143 . S
Co236 O244 2.074 . S
Co236 O247 2.093 . S
Co236 O260 2.097 . S
Co236 N277 2.151 . S
Co236 N285 2.214 . S
Co237 O238 2.160 . S
Co237 O243 2.058 . S
Co237 O253 2.057 . S
Co237 O268 2.037 . S
Co237 N272 2.145 . S
Co237 N293 2.257 . S
O238 Co236 2.143 . S
O238 Co237 2.160 . S
C239 O240 1.278 . S
C239 O247 1.224 . S
O240 C239 1.278 . S
C241 O242 1.245 . S
C241 O253 1.232 . S
O242 C241 1.245 . S
O243 Co237 2.058 . S
O243 C269 1.269 . S
O244 Co236 2.074 . S
O244 C269 1.257 . S
H245 C270 0.930 . S
H246 C276 0.930 . S
O247 Co236 2.093 . S
O247 C239 1.224 . S
H248 C280 0.929 . S
H249 C282 0.930 . S
H250 C283 0.930 . S
H251 C281 0.929 . S
H252 C284 0.928 . S
O253 Co237 2.057 . S
O253 C241 1.232 . S
H254 C273 0.929 . S
H255 C274 0.929 . S
H256 C286 0.931 . S
H257 C278 0.929 . S
H258 C287 0.930 . S
H259 C279 0.931 . S
O260 Co236 2.097 . S
O260 C288 1.214 . S
H261 C289 0.929 . S
H262 C290 0.929 . S
H263 C291 0.930 . S
H264 C292 0.929 . S
H265 C294 0.930 . S
H266 C271 0.930 . S
H267 C275 0.930 . S
O268 Co237 2.037 . S
O268 C288 1.234 . S
C269 O243 1.269 . S
C269 O244 1.257 . S
C270 H245 0.930 . S
C270 C273 1.388 . S
C270 C275 1.418 . S
C271 H266 0.930 . S
C271 C274 1.404 . S
C271 C275 1.353 . S
N272 Co237 2.145 . S
N272 C273 1.397 . S
N272 C274 1.334 . S
C273 H254 0.929 . S
C273 C270 1.388 . S
C273 N272 1.397 . S
C274 H255 0.929 . S
C274 C271 1.404 . S
C274 N272 1.334 . S
C275 H267 0.930 . S
C275 C270 1.418 . S
C275 C271 1.353 . S
C276 H246 0.930 . S
C276 N277 1.330 . S
C276 C278 1.446 . S
N277 Co236 2.151 . S
N277 C276 1.330 . S
N277 C281 1.418 . S
C278 H257 0.929 . S
C278 C276 1.446 . S
C278 C279 1.332 . S
C279 H259 0.931 . S
C279 C278 1.332 . S
C279 C280 1.267 . S
C280 H248 0.929 . S
C280 C279 1.267 . S
C280 C281 1.251 . S
C281 H251 0.929 . S
C281 N277 1.418 . S
C281 C280 1.251 . S
C282 H249 0.930 . S
C282 C284 1.406 . S
C282 C287 1.261 . S
C283 H250 0.930 . S
C283 N285 1.325 . S
C283 C286 1.357 . S
C284 H252 0.928 . S
C284 C282 1.406 . S
C284 N285 1.261 . S
N285 Co236 2.214 . S
N285 C283 1.325 . S
N285 C284 1.261 . S
C286 H256 0.931 . S
C286 C283 1.357 . S
C286 C287 1.312 . S
C287 H258 0.930 . S
C287 C282 1.261 . S
C287 C286 1.312 . S
C288 O260 1.214 . S
C288 O268 1.234 . S
C289 H261 0.929 . S
C289 C292 1.391 . S
C289 C294 1.391 . S
C290 H262 0.929 . S
C290 C291 1.390 . S
C290 N293 1.391 . S
C291 H263 0.930 . S
C291 C290 1.390 . S
C291 C292 1.392 . S
C292 H264 0.929 . S
C292 C289 1.391 . S
C292 C291 1.392 . S
N293 Co237 2.257 . S
N293 C290 1.391 . S
N293 C294 1.388 . S
C294 H265 0.930 . S
C294 C289 1.391 . S
C294 N293 1.388 . S
Co295 O297 2.143 . S
Co295 O303 2.074 . S
Co295 O306 2.093 . S
Co295 O319 2.097 . S
Co295 N336 2.151 . S
Co295 N344 2.214 . S
Co296 O297 2.160 . S
Co296 O302 2.058 . S
Co296 O312 2.057 . S
Co296 O327 2.037 . S
Co296 N331 2.145 . S
Co296 N352 2.257 . S
O297 Co295 2.143 . S
O297 Co296 2.160 . S
C298 O299 1.278 . S
C298 O306 1.224 . S
O299 C298 1.278 . S
C300 O301 1.245 . S
C300 O312 1.232 . S
O301 C300 1.245 . S
O302 Co296 2.058 . S
O302 C328 1.269 . S
O303 Co295 2.074 . S
O303 C328 1.257 . S
H304 C329 0.930 . S
H305 C335 0.930 . S
O306 Co295 2.093 . S
O306 C298 1.224 . S
H307 C339 0.929 . S
H308 C341 0.930 . S
H309 C342 0.930 . S
H310 C340 0.929 . S
H311 C343 0.928 . S
O312 Co296 2.057 . S
O312 C300 1.232 . S
H313 C332 0.929 . S
H314 C333 0.929 . S
H315 C345 0.931 . S
H316 C337 0.929 . S
H317 C346 0.930 . S
H318 C338 0.931 . S
O319 Co295 2.097 . S
O319 C347 1.214 . S
H320 C348 0.929 . S
H321 C349 0.929 . S
H322 C350 0.930 . S
H323 C351 0.929 . S
H324 C353 0.930 . S
H325 C330 0.930 . S
H326 C334 0.930 . S
O327 Co296 2.037 . S
O327 C347 1.234 . S
C328 O302 1.269 . S
C328 O303 1.257 . S
C329 H304 0.930 . S
C329 C332 1.388 . S
C329 C334 1.418 . S
C330 H325 0.930 . S
C330 C333 1.404 . S
C330 C334 1.353 . S
N331 Co296 2.145 . S
N331 C332 1.397 . S
N331 C333 1.334 . S
C332 H313 0.929 . S
C332 C329 1.388 . S
C332 N331 1.397 . S
C333 H314 0.929 . S
C333 C330 1.404 . S
C333 N331 1.334 . S
C334 H326 0.930 . S
C334 C329 1.418 . S
C334 C330 1.353 . S
C335 H305 0.930 . S
C335 N336 1.330 . S
C335 C337 1.446 . S
N336 Co295 2.151 . S
N336 C335 1.330 . S
N336 C340 1.418 . S
C337 H316 0.929 . S
C337 C335 1.446 . S
C337 C338 1.332 . S
C338 H318 0.931 . S
C338 C337 1.332 . S
C338 C339 1.267 . S
C339 H307 0.929 . S
C339 C338 1.267 . S
C339 C340 1.251 . S
C340 H310 0.929 . S
C340 N336 1.418 . S
C340 C339 1.251 . S
C341 H308 0.930 . S
C341 C343 1.406 . S
C341 C346 1.261 . S
C342 H309 0.930 . S
C342 N344 1.325 . S
C342 C345 1.357 . S
C343 H311 0.928 . S
C343 C341 1.406 . S
C343 N344 1.261 . S
N344 Co295 2.214 . S
N344 C342 1.325 . S
N344 C343 1.261 . S
C345 H315 0.931 . S
C345 C342 1.357 . S
C345 C346 1.312 . S
C346 H317 0.930 . S
C346 C341 1.261 . S
C346 C345 1.312 . S
C347 O319 1.214 . S
C347 O327 1.234 . S
C348 H320 0.929 . S
C348 C351 1.391 . S
C348 C353 1.391 . S
C349 H321 0.929 . S
C349 C350 1.390 . S
C349 N352 1.391 . S
C350 H322 0.930 . S
C350 C349 1.390 . S
C350 C351 1.392 . S
C351 H323 0.929 . S
C351 C348 1.391 . S
C351 C350 1.392 . S
N352 Co296 2.257 . S
N352 C349 1.391 . S
N352 C353 1.388 . S
C353 H324 0.930 . S
C353 C348 1.391 . S
C353 N352 1.388 . S
Co354 O356 2.143 . S
Co354 O362 2.074 . S
Co354 O365 2.093 . S
Co354 O378 2.097 . S
Co354 N395 2.151 . S
Co354 N403 2.214 . S
Co355 O356 2.160 . S
Co355 O361 2.058 . S
Co355 O371 2.057 . S
Co355 O386 2.037 . S
Co355 N390 2.145 . S
Co355 N411 2.257 . S
O356 Co354 2.143 . S
O356 Co355 2.160 . S
C357 O358 1.278 . S
C357 O365 1.224 . S
O358 C357 1.278 . S
C359 O360 1.245 . S
C359 O371 1.232 . S
O360 C359 1.245 . S
O361 Co355 2.058 . S
O361 C387 1.269 . S
O362 Co354 2.074 . S
O362 C387 1.257 . S
H363 C388 0.930 . S
H364 C394 0.930 . S
O365 Co354 2.093 . S
O365 C357 1.224 . S
H366 C398 0.929 . S
H367 C400 0.930 . S
H368 C401 0.930 . S
H369 C399 0.929 . S
H370 C402 0.928 . S
O371 Co355 2.057 . S
O371 C359 1.232 . S
H372 C391 0.929 . S
H373 C392 0.929 . S
H374 C404 0.931 . S
H375 C396 0.929 . S
H376 C405 0.930 . S
H377 C397 0.931 . S
O378 Co354 2.097 . S
O378 C406 1.214 . S
H379 C407 0.929 . S
H380 C408 0.929 . S
H381 C409 0.930 . S
H382 C410 0.929 . S
H383 C412 0.930 . S
H384 C389 0.930 . S
H385 C393 0.930 . S
O386 Co355 2.037 . S
O386 C406 1.234 . S
C387 O361 1.269 . S
C387 O362 1.257 . S
C388 H363 0.930 . S
C388 C391 1.388 . S
C388 C393 1.418 . S
C389 H384 0.930 . S
C389 C392 1.404 . S
C389 C393 1.353 . S
N390 Co355 2.145 . S
N390 C391 1.397 . S
N390 C392 1.334 . S
C391 H372 0.929 . S
C391 C388 1.388 . S
C391 N390 1.397 . S
C392 H373 0.929 . S
C392 C389 1.404 . S
C392 N390 1.334 . S
C393 H385 0.930 . S
C393 C388 1.418 . S
C393 C389 1.353 . S
C394 H364 0.930 . S
C394 N395 1.330 . S
C394 C396 1.446 . S
N395 Co354 2.151 . S
N395 C394 1.330 . S
N395 C399 1.418 . S
C396 H375 0.929 . S
C396 C394 1.446 . S
C396 C397 1.332 . S
C397 H377 0.931 . S
C397 C396 1.332 . S
C397 C398 1.267 . S
C398 H366 0.929 . S
C398 C397 1.267 . S
C398 C399 1.251 . S
C399 H369 0.929 . S
C399 N395 1.418 . S
C399 C398 1.251 . S
C400 H367 0.930 . S
C400 C402 1.406 . S
C400 C405 1.261 . S
C401 H368 0.930 . S
C401 N403 1.325 . S
C401 C404 1.357 . S
C402 H370 0.928 . S
C402 C400 1.406 . S
C402 N403 1.261 . S
N403 Co354 2.214 . S
N403 C401 1.325 . S
N403 C402 1.261 . S
C404 H374 0.931 . S
C404 C401 1.357 . S
C404 C405 1.312 . S
C405 H376 0.930 . S
C405 C400 1.261 . S
C405 C404 1.312 . S
C406 O378 1.214 . S
C406 O386 1.234 . S
C407 H379 0.929 . S
C407 C410 1.391 . S
C407 C412 1.391 . S
C408 H380 0.929 . S
C408 C409 1.390 . S
C408 N411 1.391 . S
C409 H381 0.930 . S
C409 C408 1.390 . S
C409 C410 1.392 . S
C410 H382 0.929 . S
C410 C407 1.391 . S
C410 C409 1.392 . S
N411 Co355 2.257 . S
N411 C408 1.391 . S
N411 C412 1.388 . S
C412 H383 0.930 . S
C412 C407 1.391 . S
C412 N411 1.388 . S
Co413 O415 2.143 . S
Co413 O421 2.074 . S
Co413 O424 2.093 . S
Co413 O437 2.097 . S
Co413 N454 2.151 . S
Co413 N462 2.214 . S
Co414 O415 2.160 . S
Co414 O420 2.058 . S
Co414 O430 2.057 . S
Co414 O445 2.037 . S
Co414 N449 2.145 . S
Co414 N470 2.257 . S
O415 Co413 2.143 . S
O415 Co414 2.160 . S
C416 O417 1.278 . S
C416 O424 1.224 . S
O417 C416 1.278 . S
C418 O419 1.245 . S
C418 O430 1.232 . S
O419 C418 1.245 . S
O420 Co414 2.058 . S
O420 C446 1.269 . S
O421 Co413 2.074 . S
O421 C446 1.257 . S
H422 C447 0.930 . S
H423 C453 0.930 . S
O424 Co413 2.093 . S
O424 C416 1.224 . S
H425 C457 0.929 . S
H426 C459 0.930 . S
H427 C460 0.930 . S
H428 C458 0.929 . S
H429 C461 0.928 . S
O430 Co414 2.057 . S
O430 C418 1.232 . S
H431 C450 0.929 . S
H432 C451 0.929 . S
H433 C463 0.931 . S
H434 C455 0.929 . S
H435 C464 0.930 . S
H436 C456 0.931 . S
O437 Co413 2.097 . S
O437 C465 1.214 . S
H438 C466 0.929 . S
H439 C467 0.929 . S
H440 C468 0.930 . S
H441 C469 0.929 . S
H442 C471 0.930 . S
H443 C448 0.930 . S
H444 C452 0.930 . S
O445 Co414 2.037 . S
O445 C465 1.234 . S
C446 O420 1.269 . S
C446 O421 1.257 . S
C447 H422 0.930 . S
C447 C450 1.388 . S
C447 C452 1.418 . S
C448 H443 0.930 . S
C448 C451 1.404 . S
C448 C452 1.353 . S
N449 Co414 2.145 . S
N449 C450 1.397 . S
N449 C451 1.334 . S
C450 H431 0.929 . S
C450 C447 1.388 . S
C450 N449 1.397 . S
C451 H432 0.929 . S
C451 C448 1.404 . S
C451 N449 1.334 . S
C452 H444 0.930 . S
C452 C447 1.418 . S
C452 C448 1.353 . S
C453 H423 0.930 . S
C453 N454 1.330 . S
C453 C455 1.446 . S
N454 Co413 2.151 . S
N454 C453 1.330 . S
N454 C458 1.418 . S
C455 H434 0.929 . S
C455 C453 1.446 . S
C455 C456 1.332 . S
C456 H436 0.931 . S
C456 C455 1.332 . S
C456 C457 1.267 . S
C457 H425 0.929 . S
C457 C456 1.267 . S
C457 C458 1.251 . S
C458 H428 0.929 . S
C458 N454 1.418 . S
C458 C457 1.251 . S
C459 H426 0.930 . S
C459 C461 1.406 . S
C459 C464 1.261 . S
C460 H427 0.930 . S
C460 N462 1.325 . S
C460 C463 1.357 . S
C461 H429 0.928 . S
C461 C459 1.406 . S
C461 N462 1.261 . S
N462 Co413 2.214 . S
N462 C460 1.325 . S
N462 C461 1.261 . S
C463 H433 0.931 . S
C463 C460 1.357 . S
C463 C464 1.312 . S
C464 H435 0.930 . S
C464 C459 1.261 . S
C464 C463 1.312 . S
C465 O437 1.214 . S
C465 O445 1.234 . S
C466 H438 0.929 . S
C466 C469 1.391 . S
C466 C471 1.391 . S
C467 H439 0.929 . S
C467 C468 1.390 . S
C467 N470 1.391 . S
C468 H440 0.930 . S
C468 C467 1.390 . S
C468 C469 1.392 . S
C469 H441 0.929 . S
C469 C466 1.391 . S
C469 C468 1.392 . S
N470 Co414 2.257 . S
N470 C467 1.391 . S
N470 C471 1.388 . S
C471 H442 0.930 . S
C471 C466 1.391 . S
C471 N470 1.388 . S
Co472 O474 2.143 . S
Co472 O480 2.074 . S
Co472 O483 2.093 . S
Co472 O496 2.097 . S
Co472 N513 2.151 . S
Co472 N521 2.214 . S
Co473 O474 2.160 . S
Co473 O479 2.058 . S
Co473 O489 2.057 . S
Co473 O504 2.037 . S
Co473 N508 2.145 . S
Co473 N529 2.257 . S
O474 Co472 2.143 . S
O474 Co473 2.160 . S
C475 O476 1.278 . S
C475 O483 1.224 . S
O476 C475 1.278 . S
C477 O478 1.245 . S
C477 O489 1.232 . S
O478 C477 1.245 . S
O479 Co473 2.058 . S
O479 C505 1.269 . S
O480 Co472 2.074 . S
O480 C505 1.257 . S
H481 C506 0.930 . S
H482 C512 0.930 . S
O483 Co472 2.093 . S
O483 C475 1.224 . S
H484 C516 0.929 . S
H485 C518 0.930 . S
H486 C519 0.930 . S
H487 C517 0.929 . S
H488 C520 0.928 . S
O489 Co473 2.057 . S
O489 C477 1.232 . S
H490 C509 0.929 . S
H491 C510 0.929 . S
H492 C522 0.931 . S
H493 C514 0.929 . S
H494 C523 0.930 . S
H495 C515 0.931 . S
O496 Co472 2.097 . S
O496 C524 1.214 . S
H497 C525 0.929 . S
H498 C526 0.929 . S
H499 C527 0.930 . S
H500 C528 0.929 . S
H501 C530 0.930 . S
H502 C507 0.930 . S
H503 C511 0.930 . S
O504 Co473 2.037 . S
O504 C524 1.234 . S
C505 O479 1.269 . S
C505 O480 1.257 . S
C506 H481 0.930 . S
C506 C509 1.388 . S
C506 C511 1.418 . S
C507 H502 0.930 . S
C507 C510 1.404 . S
C507 C511 1.353 . S
N508 Co473 2.145 . S
N508 C509 1.397 . S
N508 C510 1.334 . S
C509 H490 0.929 . S
C509 C506 1.388 . S
C509 N508 1.397 . S
C510 H491 0.929 . S
C510 C507 1.404 . S
C510 N508 1.334 . S
C511 H503 0.930 . S
C511 C506 1.418 . S
C511 C507 1.353 . S
C512 H482 0.930 . S
C512 N513 1.330 . S
C512 C514 1.446 . S
N513 Co472 2.151 . S
N513 C512 1.330 . S
N513 C517 1.418 . S
C514 H493 0.929 . S
C514 C512 1.446 . S
C514 C515 1.332 . S
C515 H495 0.931 . S
C515 C514 1.332 . S
C515 C516 1.267 . S
C516 H484 0.929 . S
C516 C515 1.267 . S
C516 C517 1.251 . S
C517 H487 0.929 . S
C517 N513 1.418 . S
C517 C516 1.251 . S
C518 H485 0.930 . S
C518 C520 1.406 . S
C518 C523 1.261 . S
C519 H486 0.930 . S
C519 N521 1.325 . S
C519 C522 1.357 . S
C520 H488 0.928 . S
C520 C518 1.406 . S
C520 N521 1.261 . S
N521 Co472 2.214 . S
N521 C519 1.325 . S
N521 C520 1.261 . S
C522 H492 0.931 . S
C522 C519 1.357 . S
C522 C523 1.312 . S
C523 H494 0.930 . S
C523 C518 1.261 . S
C523 C522 1.312 . S
C524 O496 1.214 . S
C524 O504 1.234 . S
C525 H497 0.929 . S
C525 C528 1.391 1_565 S
C525 C530 1.391 . S
C526 H498 0.929 . S
C526 C527 1.390 1_565 S
C526 N529 1.391 . S
C527 H499 0.930 . S
C527 C526 1.390 1_545 S
C527 C528 1.392 . S
C528 H500 0.929 . S
C528 C525 1.391 1_545 S
C528 C527 1.392 . S
N529 Co473 2.257 . S
N529 C526 1.391 . S
N529 C530 1.388 . S
C530 H501 0.930 . S
C530 C525 1.391 . S
C530 N529 1.388 . S
Co531 O533 2.143 . S
Co531 O539 2.074 . S
Co531 O542 2.093 . S
Co531 O555 2.097 . S
Co531 N572 2.151 . S
Co531 N580 2.214 . S
Co532 O533 2.160 . S
Co532 O538 2.058 . S
Co532 O548 2.057 . S
Co532 O563 2.037 . S
Co532 N567 2.145 . S
Co532 N588 2.257 . S
O533 Co531 2.143 . S
O533 Co532 2.160 . S
C534 O535 1.278 . S
C534 O542 1.224 . S
O535 C534 1.278 . S
C536 O537 1.245 . S
C536 O548 1.232 . S
O537 C536 1.245 . S
O538 Co532 2.058 . S
O538 C564 1.269 . S
O539 Co531 2.074 . S
O539 C564 1.257 . S
H540 C565 0.930 . S
H541 C571 0.930 . S
O542 Co531 2.093 . S
O542 C534 1.224 . S
H543 C575 0.929 . S
H544 C577 0.930 . S
H545 C578 0.930 . S
H546 C576 0.929 . S
H547 C579 0.928 . S
O548 Co532 2.057 . S
O548 C536 1.232 . S
H549 C568 0.929 . S
H550 C569 0.929 . S
H551 C581 0.931 . S
H552 C573 0.929 . S
H553 C582 0.930 . S
H554 C574 0.931 . S
O555 Co531 2.097 . S
O555 C583 1.214 . S
H556 C584 0.929 . S
H557 C585 0.929 . S
H558 C586 0.930 . S
H559 C587 0.929 . S
H560 C589 0.930 . S
H561 C566 0.930 . S
H562 C570 0.930 . S
O563 Co532 2.037 . S
O563 C583 1.234 . S
C564 O538 1.269 . S
C564 O539 1.257 . S
C565 H540 0.930 . S
C565 C568 1.388 . S
C565 C570 1.418 . S
C566 H561 0.930 . S
C566 C569 1.404 . S
C566 C570 1.353 . S
N567 Co532 2.145 . S
N567 C568 1.397 . S
N567 C569 1.334 . S
C568 H549 0.929 . S
C568 C565 1.388 . S
C568 N567 1.397 . S
C569 H550 0.929 . S
C569 C566 1.404 . S
C569 N567 1.334 . S
C570 H562 0.930 . S
C570 C565 1.418 . S
C570 C566 1.353 . S
C571 H541 0.930 . S
C571 N572 1.330 . S
C571 C573 1.446 . S
N572 Co531 2.151 . S
N572 C571 1.330 . S
N572 C576 1.418 . S
C573 H552 0.929 . S
C573 C571 1.446 . S
C573 C574 1.332 . S
C574 H554 0.931 . S
C574 C573 1.332 . S
C574 C575 1.267 . S
C575 H543 0.929 . S
C575 C574 1.267 . S
C575 C576 1.251 . S
C576 H546 0.929 . S
C576 N572 1.418 . S
C576 C575 1.251 . S
C577 H544 0.930 . S
C577 C579 1.406 . S
C577 C582 1.261 . S
C578 H545 0.930 . S
C578 N580 1.325 . S
C578 C581 1.357 . S
C579 H547 0.928 . S
C579 C577 1.406 . S
C579 N580 1.261 . S
N580 Co531 2.214 . S
N580 C578 1.325 . S
N580 C579 1.261 . S
C581 H551 0.931 . S
C581 C578 1.357 . S
C581 C582 1.312 . S
C582 H553 0.930 . S
C582 C577 1.261 . S
C582 C581 1.312 . S
C583 O555 1.214 . S
C583 O563 1.234 . S
C584 H556 0.929 . S
C584 C587 1.391 1_655 S
C584 C589 1.391 . S
C585 H557 0.929 . S
C585 C586 1.390 1_655 S
C585 N588 1.391 . S
C586 H558 0.930 . S
C586 C585 1.390 1_455 S
C586 C587 1.392 . S
C587 H559 0.929 . S
C587 C584 1.391 1_455 S
C587 C586 1.392 . S
N588 Co532 2.257 . S
N588 C585 1.391 . S
N588 C589 1.388 . S
C589 H560 0.930 . S
C589 C584 1.391 . S
C589 N588 1.388 . S
Co590 O592 2.143 . S
Co590 O598 2.074 . S
Co590 O601 2.093 . S
Co590 O614 2.097 . S
Co590 N631 2.151 . S
Co590 N639 2.214 . S
Co591 O592 2.160 . S
Co591 O597 2.058 . S
Co591 O607 2.057 . S
Co591 O622 2.037 . S
Co591 N626 2.145 . S
Co591 N647 2.257 . S
O592 Co590 2.143 . S
O592 Co591 2.160 . S
C593 O594 1.278 . S
C593 O601 1.224 . S
O594 C593 1.278 . S
C595 O596 1.245 . S
C595 O607 1.232 . S
O596 C595 1.245 . S
O597 Co591 2.058 . S
O597 C623 1.269 . S
O598 Co590 2.074 . S
O598 C623 1.257 . S
H599 C624 0.930 . S
H600 C630 0.930 . S
O601 Co590 2.093 . S
O601 C593 1.224 . S
H602 C634 0.929 . S
H603 C636 0.930 . S
H604 C637 0.930 . S
H605 C635 0.929 . S
H606 C638 0.928 . S
O607 Co591 2.057 . S
O607 C595 1.232 . S
H608 C627 0.929 . S
H609 C628 0.929 . S
H610 C640 0.931 . S
H611 C632 0.929 . S
H612 C641 0.930 . S
H613 C633 0.931 . S
O614 Co590 2.097 . S
O614 C642 1.214 . S
H615 C643 0.929 . S
H616 C644 0.929 . S
H617 C645 0.930 . S
H618 C646 0.929 . S
H619 C648 0.930 . S
H620 C625 0.930 . S
H621 C629 0.930 . S
O622 Co591 2.037 . S
O622 C642 1.234 . S
C623 O597 1.269 . S
C623 O598 1.257 . S
C624 H599 0.930 . S
C624 C627 1.388 . S
C624 C629 1.418 . S
C625 H620 0.930 . S
C625 C628 1.404 . S
C625 C629 1.353 . S
N626 Co591 2.145 . S
N626 C627 1.397 . S
N626 C628 1.334 . S
C627 H608 0.929 . S
C627 C624 1.388 . S
C627 N626 1.397 . S
C628 H609 0.929 . S
C628 C625 1.404 . S
C628 N626 1.334 . S
C629 H621 0.930 . S
C629 C624 1.418 . S
C629 C625 1.353 . S
C630 H600 0.930 . S
C630 N631 1.330 . S
C630 C632 1.446 . S
N631 Co590 2.151 . S
N631 C630 1.330 . S
N631 C635 1.418 . S
C632 H611 0.929 . S
C632 C630 1.446 . S
C632 C633 1.332 . S
C633 H613 0.931 . S
C633 C632 1.332 . S
C633 C634 1.267 . S
C634 H602 0.929 . S
C634 C633 1.267 . S
C634 C635 1.251 . S
C635 H605 0.929 . S
C635 N631 1.418 . S
C635 C634 1.251 . S
C636 H603 0.930 . S
C636 C638 1.406 . S
C636 C641 1.261 . S
C637 H604 0.930 . S
C637 N639 1.325 . S
C637 C640 1.357 . S
C638 H606 0.928 . S
C638 C636 1.406 . S
C638 N639 1.261 . S
N639 Co590 2.214 . S
N639 C637 1.325 . S
N639 C638 1.261 . S
C640 H610 0.931 . S
C640 C637 1.357 . S
C640 C641 1.312 . S
C641 H612 0.930 . S
C641 C636 1.261 . S
C641 C640 1.312 . S
C642 O614 1.214 . S
C642 O622 1.234 . S
C643 H615 0.929 . S
C643 C646 1.391 1_545 S
C643 C648 1.391 . S
C644 H616 0.929 . S
C644 C645 1.390 1_545 S
C644 N647 1.391 . S
C645 H617 0.930 . S
C645 C644 1.390 1_565 S
C645 C646 1.392 . S
C646 H618 0.929 . S
C646 C643 1.391 1_565 S
C646 C645 1.392 . S
N647 Co591 2.257 . S
N647 C644 1.391 . S
N647 C648 1.388 . S
C648 H619 0.930 . S
C648 C643 1.391 . S
C648 N647 1.388 . S
Co649 O651 2.143 . S
Co649 O657 2.074 . S
Co649 O660 2.093 . S
Co649 O673 2.097 . S
Co649 N690 2.151 . S
Co649 N698 2.214 . S
Co650 O651 2.160 . S
Co650 O656 2.058 . S
Co650 O666 2.057 . S
Co650 O681 2.037 . S
Co650 N685 2.145 . S
Co650 N706 2.257 . S
O651 Co649 2.143 . S
O651 Co650 2.160 . S
C652 O653 1.278 . S
C652 O660 1.224 . S
O653 C652 1.278 . S
C654 O655 1.245 . S
C654 O666 1.232 . S
O655 C654 1.245 . S
O656 Co650 2.058 . S
O656 C682 1.269 . S
O657 Co649 2.074 . S
O657 C682 1.257 . S
H658 C683 0.930 . S
H659 C689 0.930 . S
O660 Co649 2.093 . S
O660 C652 1.224 . S
H661 C693 0.929 . S
H662 C695 0.930 . S
H663 C696 0.930 . S
H664 C694 0.929 . S
H665 C697 0.928 . S
O666 Co650 2.057 . S
O666 C654 1.232 . S
H667 C686 0.929 . S
H668 C687 0.929 . S
H669 C699 0.931 . S
H670 C691 0.929 . S
H671 C700 0.930 . S
H672 C692 0.931 . S
O673 Co649 2.097 . S
O673 C701 1.214 . S
H674 C702 0.929 . S
H675 C703 0.929 . S
H676 C704 0.930 . S
H677 C705 0.929 . S
H678 C707 0.930 . S
H679 C684 0.930 . S
H680 C688 0.930 . S
O681 Co650 2.037 . S
O681 C701 1.234 . S
C682 O656 1.269 . S
C682 O657 1.257 . S
C683 H658 0.930 . S
C683 C686 1.388 . S
C683 C688 1.418 . S
C684 H679 0.930 . S
C684 C687 1.404 . S
C684 C688 1.353 . S
N685 Co650 2.145 . S
N685 C686 1.397 . S
N685 C687 1.334 . S
C686 H667 0.929 . S
C686 C683 1.388 . S
C686 N685 1.397 . S
C687 H668 0.929 . S
C687 C684 1.404 . S
C687 N685 1.334 . S
C688 H680 0.930 . S
C688 C683 1.418 . S
C688 C684 1.353 . S
C689 H659 0.930 . S
C689 N690 1.330 . S
C689 C691 1.446 . S
N690 Co649 2.151 . S
N690 C689 1.330 . S
N690 C694 1.418 . S
C691 H670 0.929 . S
C691 C689 1.446 . S
C691 C692 1.332 . S
C692 H672 0.931 . S
C692 C691 1.332 . S
C692 C693 1.267 . S
C693 H661 0.929 . S
C693 C692 1.267 . S
C693 C694 1.251 . S
C694 H664 0.929 . S
C694 N690 1.418 . S
C694 C693 1.251 . S
C695 H662 0.930 . S
C695 C697 1.406 . S
C695 C700 1.261 . S
C696 H663 0.930 . S
C696 N698 1.325 . S
C696 C699 1.357 . S
C697 H665 0.928 . S
C697 C695 1.406 . S
C697 N698 1.261 . S
N698 Co649 2.214 . S
N698 C696 1.325 . S
N698 C697 1.261 . S
C699 H669 0.931 . S
C699 C696 1.357 . S
C699 C700 1.312 . S
C700 H671 0.930 . S
C700 C695 1.261 . S
C700 C699 1.312 . S
C701 O673 1.214 . S
C701 O681 1.234 . S
C702 H674 0.929 . S
C702 C705 1.391 1_455 S
C702 C707 1.391 . S
C703 H675 0.929 . S
C703 C704 1.390 1_455 S
C703 N706 1.391 . S
C704 H676 0.930 . S
C704 C703 1.390 1_655 S
C704 C705 1.392 . S
C705 H677 0.929 . S
C705 C702 1.391 1_655 S
C705 C704 1.392 . S
N706 Co650 2.257 . S
N706 C703 1.391 . S
N706 C707 1.388 . S
C707 H678 0.930 . S
C707 C702 1.391 . S
C707 N706 1.388 . S
Co708 O710 2.143 . S
Co708 O716 2.074 . S
Co708 O719 2.093 . S
Co708 O732 2.097 . S
Co708 N749 2.151 . S
Co708 N757 2.214 . S
Co709 O710 2.160 . S
Co709 O715 2.058 . S
Co709 O725 2.057 . S
Co709 O740 2.037 . S
Co709 N744 2.145 . S
Co709 N765 2.257 . S
O710 Co708 2.143 . S
O710 Co709 2.160 . S
C711 O712 1.278 . S
C711 O719 1.224 . S
O712 C711 1.278 . S
C713 O714 1.245 . S
C713 O725 1.232 . S
O714 C713 1.245 . S
O715 Co709 2.058 . S
O715 C741 1.269 . S
O716 Co708 2.074 . S
O716 C741 1.257 . S
H717 C742 0.930 . S
H718 C748 0.930 . S
O719 Co708 2.093 . S
O719 C711 1.224 . S
H720 C752 0.929 . S
H721 C754 0.930 . S
H722 C755 0.930 . S
H723 C753 0.929 . S
H724 C756 0.928 . S
O725 Co709 2.057 . S
O725 C713 1.232 . S
H726 C745 0.929 . S
H727 C746 0.929 . S
H728 C758 0.931 . S
H729 C750 0.929 . S
H730 C759 0.930 . S
H731 C751 0.931 . S
O732 Co708 2.097 . S
O732 C760 1.214 . S
H733 C761 0.929 . S
H734 C762 0.929 . S
H735 C763 0.930 . S
H736 C764 0.929 . S
H737 C766 0.930 . S
H738 C743 0.930 . S
H739 C747 0.930 . S
O740 Co709 2.037 . S
O740 C760 1.234 . S
C741 O715 1.269 . S
C741 O716 1.257 . S
C742 H717 0.930 . S
C742 C745 1.388 . S
C742 C747 1.418 . S
C743 H738 0.930 . S
C743 C746 1.404 . S
C743 C747 1.353 . S
N744 Co709 2.145 . S
N744 C745 1.397 . S
N744 C746 1.334 . S
C745 H726 0.929 . S
C745 C742 1.388 . S
C745 N744 1.397 . S
C746 H727 0.929 . S
C746 C743 1.404 . S
C746 N744 1.334 . S
C747 H739 0.930 . S
C747 C742 1.418 . S
C747 C743 1.353 . S
C748 H718 0.930 . S
C748 N749 1.330 . S
C748 C750 1.446 . S
N749 Co708 2.151 . S
N749 C748 1.330 . S
N749 C753 1.418 . S
C750 H729 0.929 . S
C750 C748 1.446 . S
C750 C751 1.332 . S
C751 H731 0.931 . S
C751 C750 1.332 . S
C751 C752 1.267 . S
C752 H720 0.929 . S
C752 C751 1.267 . S
C752 C753 1.251 . S
C753 H723 0.929 . S
C753 N749 1.418 . S
C753 C752 1.251 . S
C754 H721 0.930 . S
C754 C756 1.406 . S
C754 C759 1.261 . S
C755 H722 0.930 . S
C755 N757 1.325 . S
C755 C758 1.357 . S
C756 H724 0.928 . S
C756 C754 1.406 . S
C756 N757 1.261 . S
N757 Co708 2.214 . S
N757 C755 1.325 . S
N757 C756 1.261 . S
C758 H728 0.931 . S
C758 C755 1.357 . S
C758 C759 1.312 . S
C759 H730 0.930 . S
C759 C754 1.261 . S
C759 C758 1.312 . S
C760 O732 1.214 . S
C760 O740 1.234 . S
C761 H733 0.929 . S
C761 C764 1.391 1_545 S
C761 C766 1.391 . S
C762 H734 0.929 . S
C762 C763 1.390 1_545 S
C762 N765 1.391 . S
C763 H735 0.930 . S
C763 C762 1.390 1_565 S
C763 C764 1.392 . S
C764 H736 0.929 . S
C764 C761 1.391 1_565 S
C764 C763 1.392 . S
N765 Co709 2.257 . S
N765 C762 1.391 . S
N765 C766 1.388 . S
C766 H737 0.930 . S
C766 C761 1.391 . S
C766 N765 1.388 . S
Co767 O769 2.143 . S
Co767 O775 2.074 . S
Co767 O778 2.093 . S
Co767 O791 2.097 . S
Co767 N808 2.151 . S
Co767 N816 2.214 . S
Co768 O769 2.160 . S
Co768 O774 2.058 . S
Co768 O784 2.057 . S
Co768 O799 2.037 . S
Co768 N803 2.145 . S
Co768 N824 2.257 . S
O769 Co767 2.143 . S
O769 Co768 2.160 . S
C770 O771 1.278 . S
C770 O778 1.224 . S
O771 C770 1.278 . S
C772 O773 1.245 . S
C772 O784 1.232 . S
O773 C772 1.245 . S
O774 Co768 2.058 . S
O774 C800 1.269 . S
O775 Co767 2.074 . S
O775 C800 1.257 . S
H776 C801 0.930 . S
H777 C807 0.930 . S
O778 Co767 2.093 . S
O778 C770 1.224 . S
H779 C811 0.929 . S
H780 C813 0.930 . S
H781 C814 0.930 . S
H782 C812 0.929 . S
H783 C815 0.928 . S
O784 Co768 2.057 . S
O784 C772 1.232 . S
H785 C804 0.929 . S
H786 C805 0.929 . S
H787 C817 0.931 . S
H788 C809 0.929 . S
H789 C818 0.930 . S
H790 C810 0.931 . S
O791 Co767 2.097 . S
O791 C819 1.214 . S
H792 C820 0.929 . S
H793 C821 0.929 . S
H794 C822 0.930 . S
H795 C823 0.929 . S
H796 C825 0.930 . S
H797 C802 0.930 . S
H798 C806 0.930 . S
O799 Co768 2.037 . S
O799 C819 1.234 . S
C800 O774 1.269 . S
C800 O775 1.257 . S
C801 H776 0.930 . S
C801 C804 1.388 . S
C801 C806 1.418 . S
C802 H797 0.930 . S
C802 C805 1.404 . S
C802 C806 1.353 . S
N803 Co768 2.145 . S
N803 C804 1.397 . S
N803 C805 1.334 . S
C804 H785 0.929 . S
C804 C801 1.388 . S
C804 N803 1.397 . S
C805 H786 0.929 . S
C805 C802 1.404 . S
C805 N803 1.334 . S
C806 H798 0.930 . S
C806 C801 1.418 . S
C806 C802 1.353 . S
C807 H777 0.930 . S
C807 N808 1.330 . S
C807 C809 1.446 . S
N808 Co767 2.151 . S
N808 C807 1.330 . S
N808 C812 1.418 . S
C809 H788 0.929 . S
C809 C807 1.446 . S
C809 C810 1.332 . S
C810 H790 0.931 . S
C810 C809 1.332 . S
C810 C811 1.267 . S
C811 H779 0.929 . S
C811 C810 1.267 . S
C811 C812 1.251 . S
C812 H782 0.929 . S
C812 N808 1.418 . S
C812 C811 1.251 . S
C813 H780 0.930 . S
C813 C815 1.406 . S
C813 C818 1.261 . S
C814 H781 0.930 . S
C814 N816 1.325 . S
C814 C817 1.357 . S
C815 H783 0.928 . S
C815 C813 1.406 . S
C815 N816 1.261 . S
N816 Co767 2.214 . S
N816 C814 1.325 . S
N816 C815 1.261 . S
C817 H787 0.931 . S
C817 C814 1.357 . S
C817 C818 1.312 . S
C818 H789 0.930 . S
C818 C813 1.261 . S
C818 C817 1.312 . S
C819 O791 1.214 . S
C819 O799 1.234 . S
C820 H792 0.929 . S
C820 C823 1.391 1_455 S
C820 C825 1.391 . S
C821 H793 0.929 . S
C821 C822 1.390 1_455 S
C821 N824 1.391 . S
C822 H794 0.930 . S
C822 C821 1.390 1_655 S
C822 C823 1.392 . S
C823 H795 0.929 . S
C823 C820 1.391 1_655 S
C823 C822 1.392 . S
N824 Co768 2.257 . S
N824 C821 1.391 . S
N824 C825 1.388 . S
C825 H796 0.930 . S
C825 C820 1.391 . S
C825 N824 1.388 . S
Co826 O828 2.143 . S
Co826 O834 2.074 . S
Co826 O837 2.093 . S
Co826 O850 2.097 . S
Co826 N867 2.151 . S
Co826 N875 2.214 . S
Co827 O828 2.160 . S
Co827 O833 2.058 . S
Co827 O843 2.057 . S
Co827 O858 2.037 . S
Co827 N862 2.145 . S
Co827 N883 2.257 . S
O828 Co826 2.143 . S
O828 Co827 2.160 . S
C829 O830 1.278 . S
C829 O837 1.224 . S
O830 C829 1.278 . S
C831 O832 1.245 . S
C831 O843 1.232 . S
O832 C831 1.245 . S
O833 Co827 2.058 . S
O833 C859 1.269 . S
O834 Co826 2.074 . S
O834 C859 1.257 . S
H835 C860 0.930 . S
H836 C866 0.930 . S
O837 Co826 2.093 . S
O837 C829 1.224 . S
H838 C870 0.929 . S
H839 C872 0.930 . S
H840 C873 0.930 . S
H841 C871 0.929 . S
H842 C874 0.928 . S
O843 Co827 2.057 . S
O843 C831 1.232 . S
H844 C863 0.929 . S
H845 C864 0.929 . S
H846 C876 0.931 . S
H847 C868 0.929 . S
H848 C877 0.930 . S
H849 C869 0.931 . S
O850 Co826 2.097 . S
O850 C878 1.214 . S
H851 C879 0.929 . S
H852 C880 0.929 . S
H853 C881 0.930 . S
H854 C882 0.929 . S
H855 C884 0.930 . S
H856 C861 0.930 . S
H857 C865 0.930 . S
O858 Co827 2.037 . S
O858 C878 1.234 . S
C859 O833 1.269 . S
C859 O834 1.257 . S
C860 H835 0.930 . S
C860 C863 1.388 . S
C860 C865 1.418 . S
C861 H856 0.930 . S
C861 C864 1.404 . S
C861 C865 1.353 . S
N862 Co827 2.145 . S
N862 C863 1.397 . S
N862 C864 1.334 . S
C863 H844 0.929 . S
C863 C860 1.388 . S
C863 N862 1.397 . S
C864 H845 0.929 . S
C864 C861 1.404 . S
C864 N862 1.334 . S
C865 H857 0.930 . S
C865 C860 1.418 . S
C865 C861 1.353 . S
C866 H836 0.930 . S
C866 N867 1.330 . S
C866 C868 1.446 . S
N867 Co826 2.151 . S
N867 C866 1.330 . S
N867 C871 1.418 . S
C868 H847 0.929 . S
C868 C866 1.446 . S
C868 C869 1.332 . S
C869 H849 0.931 . S
C869 C868 1.332 . S
C869 C870 1.267 . S
C870 H838 0.929 . S
C870 C869 1.267 . S
C870 C871 1.251 . S
C871 H841 0.929 . S
C871 N867 1.418 . S
C871 C870 1.251 . S
C872 H839 0.930 . S
C872 C874 1.406 . S
C872 C877 1.261 . S
C873 H840 0.930 . S
C873 N875 1.325 . S
C873 C876 1.357 . S
C874 H842 0.928 . S
C874 C872 1.406 . S
C874 N875 1.261 . S
N875 Co826 2.214 . S
N875 C873 1.325 . S
N875 C874 1.261 . S
C876 H846 0.931 . S
C876 C873 1.357 . S
C876 C877 1.312 . S
C877 H848 0.930 . S
C877 C872 1.261 . S
C877 C876 1.312 . S
C878 O850 1.214 . S
C878 O858 1.234 . S
C879 H851 0.929 . S
C879 C882 1.391 1_565 S
C879 C884 1.391 . S
C880 H852 0.929 . S
C880 C881 1.390 1_565 S
C880 N883 1.391 . S
C881 H853 0.930 . S
C881 C880 1.390 1_545 S
C881 C882 1.392 . S
C882 H854 0.929 . S
C882 C879 1.391 1_545 S
C882 C881 1.392 . S
N883 Co827 2.257 . S
N883 C880 1.391 . S
N883 C884 1.388 . S
C884 H855 0.930 . S
C884 C879 1.391 . S
C884 N883 1.388 . S
Co885 O887 2.143 . S
Co885 O893 2.074 . S
Co885 O896 2.093 . S
Co885 O909 2.097 . S
Co885 N926 2.151 . S
Co885 N934 2.214 . S
Co886 O887 2.160 . S
Co886 O892 2.058 . S
Co886 O902 2.057 . S
Co886 O917 2.037 . S
Co886 N921 2.145 . S
Co886 N942 2.257 . S
O887 Co885 2.143 . S
O887 Co886 2.160 . S
C888 O889 1.278 . S
C888 O896 1.224 . S
O889 C888 1.278 . S
C890 O891 1.245 . S
C890 O902 1.232 . S
O891 C890 1.245 . S
O892 Co886 2.058 . S
O892 C918 1.269 . S
O893 Co885 2.074 . S
O893 C918 1.257 . S
H894 C919 0.930 . S
H895 C925 0.930 . S
O896 Co885 2.093 . S
O896 C888 1.224 . S
H897 C929 0.929 . S
H898 C931 0.930 . S
H899 C932 0.930 . S
H900 C930 0.929 . S
H901 C933 0.928 . S
O902 Co886 2.057 . S
O902 C890 1.232 . S
H903 C922 0.929 . S
H904 C923 0.929 . S
H905 C935 0.931 . S
H906 C927 0.929 . S
H907 C936 0.930 . S
H908 C928 0.931 . S
O909 Co885 2.097 . S
O909 C937 1.214 . S
H910 C938 0.929 . S
H911 C939 0.929 . S
H912 C940 0.930 . S
H913 C941 0.929 . S
H914 C943 0.930 . S
H915 C920 0.930 . S
H916 C924 0.930 . S
O917 Co886 2.037 . S
O917 C937 1.234 . S
C918 O892 1.269 . S
C918 O893 1.257 . S
C919 H894 0.930 . S
C919 C922 1.388 . S
C919 C924 1.418 . S
C920 H915 0.930 . S
C920 C923 1.404 . S
C920 C924 1.353 . S
N921 Co886 2.145 . S
N921 C922 1.397 . S
N921 C923 1.334 . S
C922 H903 0.929 . S
C922 C919 1.388 . S
C922 N921 1.397 . S
C923 H904 0.929 . S
C923 C920 1.404 . S
C923 N921 1.334 . S
C924 H916 0.930 . S
C924 C919 1.418 . S
C924 C920 1.353 . S
C925 H895 0.930 . S
C925 N926 1.330 . S
C925 C927 1.446 . S
N926 Co885 2.151 . S
N926 C925 1.330 . S
N926 C930 1.418 . S
C927 H906 0.929 . S
C927 C925 1.446 . S
C927 C928 1.332 . S
C928 H908 0.931 . S
C928 C927 1.332 . S
C928 C929 1.267 . S
C929 H897 0.929 . S
C929 C928 1.267 . S
C929 C930 1.251 . S
C930 H900 0.929 . S
C930 N926 1.418 . S
C930 C929 1.251 . S
C931 H898 0.930 . S
C931 C933 1.406 . S
C931 C936 1.261 . S
C932 H899 0.930 . S
C932 N934 1.325 . S
C932 C935 1.357 . S
C933 H901 0.928 . S
C933 C931 1.406 . S
C933 N934 1.261 . S
N934 Co885 2.214 . S
N934 C932 1.325 . S
N934 C933 1.261 . S
C935 H905 0.931 . S
C935 C932 1.357 . S
C935 C936 1.312 . S
C936 H907 0.930 . S
C936 C931 1.261 . S
C936 C935 1.312 . S
C937 O909 1.214 . S
C937 O917 1.234 . S
C938 H910 0.929 . S
C938 C941 1.391 1_655 S
C938 C943 1.391 . S
C939 H911 0.929 . S
C939 C940 1.390 1_655 S
C939 N942 1.391 . S
C940 H912 0.930 . S
C940 C939 1.390 1_455 S
C940 C941 1.392 . S
C941 H913 0.929 . S
C941 C938 1.391 1_455 S
C941 C940 1.392 . S
N942 Co886 2.257 . S
N942 C939 1.391 . S
N942 C943 1.388 . S
C943 H914 0.930 . S
C943 C938 1.391 . S
C943 N942 1.388 . S
H944 C950 0.930 . S
H945 C954 0.930 . S
H946 C959 0.929 . S
H947 C957 0.929 . S
H948 C952 0.929 . S
H949 C958 0.929 . S
C950 H944 0.930 . S
C950 C951 1.367 . S
C950 C958 1.378 . S
C951 C950 1.367 . S
C951 C959 1.433 . S
C952 H948 0.929 . S
C952 C954 1.378 . S
C952 C956 1.350 . S
C953 C956 1.463 . S
C953 C958 1.350 . S
C953 N961 1.427 . S
C954 H945 0.930 . S
C954 C952 1.378 . S
C954 C955 1.367 . S
C955 C954 1.367 . S
C955 C957 1.433 . S
C956 C952 1.350 . S
C956 C953 1.463 . S
C956 N960 1.427 . S
C957 H947 0.929 . S
C957 C955 1.433 . S
C957 N960 1.384 . S
C958 H949 0.929 . S
C958 C950 1.378 . S
C958 C953 1.350 . S
C959 H946 0.929 . S
C959 C951 1.433 . S
C959 N961 1.384 . S
N960 C956 1.427 . S
N960 C957 1.384 . S
N961 C953 1.427 . S
N961 C959 1.384 . S
H962 C968 0.930 . S
H963 C972 0.930 . S
H964 C977 0.929 . S
H965 C975 0.929 . S
H966 C970 0.929 . S
H967 C976 0.929 . S
C968 H962 0.930 . S
C968 C969 1.367 . S
C968 C976 1.378 . S
C969 C968 1.367 . S
C969 C977 1.433 . S
C970 H966 0.929 . S
C970 C972 1.378 . S
C970 C974 1.350 . S
C971 C974 1.463 . S
C971 C976 1.350 . S
C971 N979 1.427 . S
C972 H963 0.930 . S
C972 C970 1.378 . S
C972 C973 1.367 . S
C973 C972 1.367 . S
C973 C975 1.433 . S
C974 C970 1.350 . S
C974 C971 1.463 . S
C974 N978 1.427 . S
C975 H965 0.929 . S
C975 C973 1.433 . S
C975 N978 1.384 . S
C976 H967 0.929 . S
C976 C968 1.378 . S
C976 C971 1.350 . S
C977 H964 0.929 . S
C977 C969 1.433 . S
C977 N979 1.384 . S
N978 C974 1.427 . S
N978 C975 1.384 . S
N979 C971 1.427 . S
N979 C977 1.384 . S
H980 C986 0.930 . S
H981 C990 0.930 . S
H982 C995 0.929 . S
H983 C993 0.929 . S
H984 C988 0.929 . S
H985 C994 0.929 . S
C986 H980 0.930 . S
C986 C987 1.367 . S
C986 C994 1.378 . S
C987 C986 1.367 . S
C987 C995 1.433 . S
C988 H984 0.929 . S
C988 C990 1.378 . S
C988 C992 1.350 . S
C989 C992 1.463 . S
C989 C994 1.350 . S
C989 N997 1.427 . S
C990 H981 0.930 . S
C990 C988 1.378 . S
C990 C991 1.367 . S
C991 C990 1.367 . S
C991 C993 1.433 . S
C992 C988 1.350 . S
C992 C989 1.463 . S
C992 N996 1.427 . S
C993 H983 0.929 . S
C993 C991 1.433 . S
C993 N996 1.384 . S
C994 H985 0.929 . S
C994 C986 1.378 . S
C994 C989 1.350 . S
C995 H982 0.929 . S
C995 C987 1.433 . S
C995 N997 1.384 . S
N996 C992 1.427 . S
N996 C993 1.384 . S
N997 C989 1.427 . S
N997 C995 1.384 . S
H998 C1004 0.930 . S
H999 C1008 0.930 . S
H1000 C1013 0.929 . S
H1001 C1011 0.929 . S
H1002 C1006 0.929 . S
H1003 C1012 0.929 . S
C1004 H998 0.930 . S
C1004 C1005 1.367 . S
C1004 C1012 1.378 . S
C1005 C1004 1.367 . S
C1005 C1013 1.433 . S
C1006 H1002 0.929 . S
C1006 C1008 1.378 . S
C1006 C1010 1.350 . S
C1007 C1010 1.463 . S
C1007 C1012 1.350 . S
C1007 N1015 1.427 . S
C1008 H999 0.930 . S
C1008 C1006 1.378 . S
C1008 C1009 1.367 . S
C1009 C1008 1.367 . S
C1009 C1011 1.433 . S
C1010 C1006 1.350 . S
C1010 C1007 1.463 . S
C1010 N1014 1.427 . S
C1011 H1001 0.929 . S
C1011 C1009 1.433 . S
C1011 N1014 1.384 . S
C1012 H1003 0.929 . S
C1012 C1004 1.378 . S
C1012 C1007 1.350 . S
C1013 H1000 0.929 . S
C1013 C1005 1.433 . S
C1013 N1015 1.384 . S
N1014 C1010 1.427 . S
N1014 C1011 1.384 . S
N1015 C1007 1.427 . S
N1015 C1013 1.384 . S
H1016 C1022 0.930 . S
H1017 C1026 0.930 . S
H1018 C1031 0.929 . S
H1019 C1029 0.929 . S
H1020 C1024 0.929 . S
H1021 C1030 0.929 . S
C1022 H1016 0.930 . S
C1022 C1023 1.367 . S
C1022 C1030 1.378 . S
C1023 C1022 1.367 . S
C1023 C1031 1.433 . S
C1024 H1020 0.929 . S
C1024 C1026 1.378 . S
C1024 C1028 1.350 . S
C1025 C1028 1.463 . S
C1025 C1030 1.350 . S
C1025 N1033 1.427 . S
C1026 H1017 0.930 . S
C1026 C1024 1.378 . S
C1026 C1027 1.367 . S
C1027 C1026 1.367 . S
C1027 C1029 1.433 . S
C1028 C1024 1.350 . S
C1028 C1025 1.463 . S
C1028 N1032 1.427 . S
C1029 H1019 0.929 . S
C1029 C1027 1.433 . S
C1029 N1032 1.384 . S
C1030 H1021 0.929 . S
C1030 C1022 1.378 . S
C1030 C1025 1.350 . S
C1031 H1018 0.929 . S
C1031 C1023 1.433 . S
C1031 N1033 1.384 . S
N1032 C1028 1.427 . S
N1032 C1029 1.384 . S
N1033 C1025 1.427 . S
N1033 C1031 1.384 . S
H1034 C1040 0.930 . S
H1035 C1044 0.930 . S
H1036 C1049 0.929 . S
H1037 C1047 0.929 . S
H1038 C1042 0.929 . S
H1039 C1048 0.929 . S
C1040 H1034 0.930 . S
C1040 C1041 1.367 . S
C1040 C1048 1.378 . S
C1041 C1040 1.367 . S
C1041 C1049 1.433 . S
C1042 H1038 0.929 . S
C1042 C1044 1.378 . S
C1042 C1046 1.350 . S
C1043 C1046 1.463 . S
C1043 C1048 1.350 . S
C1043 N1051 1.427 . S
C1044 H1035 0.930 . S
C1044 C1042 1.378 . S
C1044 C1045 1.367 . S
C1045 C1044 1.367 . S
C1045 C1047 1.433 . S
C1046 C1042 1.350 . S
C1046 C1043 1.463 . S
C1046 N1050 1.427 . S
C1047 H1037 0.929 . S
C1047 C1045 1.433 . S
C1047 N1050 1.384 . S
C1048 H1039 0.929 . S
C1048 C1040 1.378 . S
C1048 C1043 1.350 . S
C1049 H1036 0.929 . S
C1049 C1041 1.433 . S
C1049 N1051 1.384 . S
N1050 C1046 1.427 . S
N1050 C1047 1.384 . S
N1051 C1043 1.427 . S
N1051 C1049 1.384 . S
H1052 C1058 0.930 . S
H1053 C1062 0.930 . S
H1054 C1067 0.929 . S
H1055 C1065 0.929 . S
H1056 C1060 0.929 . S
H1057 C1066 0.929 . S
C1058 H1052 0.930 . S
C1058 C1059 1.367 . S
C1058 C1066 1.378 . S
C1059 C1058 1.367 . S
C1059 C1067 1.433 . S
C1060 H1056 0.929 . S
C1060 C1062 1.378 . S
C1060 C1064 1.350 . S
C1061 C1064 1.463 . S
C1061 C1066 1.350 . S
C1061 N1069 1.427 . S
C1062 H1053 0.930 . S
C1062 C1060 1.378 . S
C1062 C1063 1.367 . S
C1063 C1062 1.367 . S
C1063 C1065 1.433 . S
C1064 C1060 1.350 . S
C1064 C1061 1.463 . S
C1064 N1068 1.427 . S
C1065 H1055 0.929 . S
C1065 C1063 1.433 . S
C1065 N1068 1.384 . S
C1066 H1057 0.929 . S
C1066 C1058 1.378 . S
C1066 C1061 1.350 . S
C1067 H1054 0.929 . S
C1067 C1059 1.433 . S
C1067 N1069 1.384 . S
N1068 C1064 1.427 . S
N1068 C1065 1.384 . S
N1069 C1061 1.427 . S
N1069 C1067 1.384 . S
H1070 C1076 0.930 . S
H1071 C1080 0.930 . S
H1072 C1085 0.929 . S
H1073 C1083 0.929 . S
H1074 C1078 0.929 . S
H1075 C1084 0.929 . S
C1076 H1070 0.930 . S
C1076 C1077 1.367 . S
C1076 C1084 1.378 . S
C1077 C1076 1.367 . S
C1077 C1085 1.433 . S
C1078 H1074 0.929 . S
C1078 C1080 1.378 . S
C1078 C1082 1.350 . S
C1079 C1082 1.463 . S
C1079 C1084 1.350 . S
C1079 N1087 1.427 . S
C1080 H1071 0.930 . S
C1080 C1078 1.378 . S
C1080 C1081 1.367 . S
C1081 C1080 1.367 . S
C1081 C1083 1.433 . S
C1082 C1078 1.350 . S
C1082 C1079 1.463 . S
C1082 N1086 1.427 . S
C1083 H1073 0.929 . S
C1083 C1081 1.433 . S
C1083 N1086 1.384 . S
C1084 H1075 0.929 . S
C1084 C1076 1.378 . S
C1084 C1079 1.350 . S
C1085 H1072 0.929 . S
C1085 C1077 1.433 . S
C1085 N1087 1.384 . S
N1086 C1082 1.427 . S
N1086 C1083 1.384 . S
N1087 C1079 1.427 . S
N1087 C1085 1.384 . S
H1088 C1094 0.930 . S
H1089 C1098 0.930 . S
H1090 C1103 0.929 . S
H1091 C1101 0.929 . S
H1092 C1096 0.929 . S
H1093 C1102 0.929 . S
C1094 H1088 0.930 . S
C1094 C1095 1.367 . S
C1094 C1102 1.378 . S
C1095 C1094 1.367 . S
C1095 C1103 1.433 . S
C1096 H1092 0.929 . S
C1096 C1098 1.378 . S
C1096 C1100 1.350 . S
C1097 C1100 1.463 . S
C1097 C1102 1.350 . S
C1097 N1105 1.427 . S
C1098 H1089 0.930 . S
C1098 C1096 1.378 . S
C1098 C1099 1.367 . S
C1099 C1098 1.367 . S
C1099 C1101 1.433 . S
C1100 C1096 1.350 . S
C1100 C1097 1.463 . S
C1100 N1104 1.427 . S
C1101 H1091 0.929 . S
C1101 C1099 1.433 . S
C1101 N1104 1.384 . S
C1102 H1093 0.929 . S
C1102 C1094 1.378 . S
C1102 C1097 1.350 . S
C1103 H1090 0.929 . S
C1103 C1095 1.433 . S
C1103 N1105 1.384 . S
N1104 C1100 1.427 . S
N1104 C1101 1.384 . S
N1105 C1097 1.427 . S
N1105 C1103 1.384 . S
H1106 C1112 0.930 . S
H1107 C1116 0.930 . S
H1108 C1121 0.929 . S
H1109 C1119 0.929 . S
H1110 C1114 0.929 . S
H1111 C1120 0.929 . S
C1112 H1106 0.930 . S
C1112 C1113 1.367 . S
C1112 C1120 1.378 . S
C1113 C1112 1.367 . S
C1113 C1121 1.433 . S
C1114 H1110 0.929 . S
C1114 C1116 1.378 . S
C1114 C1118 1.350 . S
C1115 C1118 1.463 . S
C1115 C1120 1.350 . S
C1115 N1123 1.427 . S
C1116 H1107 0.930 . S
C1116 C1114 1.378 . S
C1116 C1117 1.367 . S
C1117 C1116 1.367 . S
C1117 C1119 1.433 . S
C1118 C1114 1.350 . S
C1118 C1115 1.463 . S
C1118 N1122 1.427 . S
C1119 H1109 0.929 . S
C1119 C1117 1.433 . S
C1119 N1122 1.384 . S
C1120 H1111 0.929 . S
C1120 C1112 1.378 . S
C1120 C1115 1.350 . S
C1121 H1108 0.929 . S
C1121 C1113 1.433 . S
C1121 N1123 1.384 . S
N1122 C1118 1.427 . S
N1122 C1119 1.384 . S
N1123 C1115 1.427 . S
N1123 C1121 1.384 . S
H1124 C1130 0.930 . S
H1125 C1134 0.930 . S
H1126 C1139 0.929 . S
H1127 C1137 0.929 . S
H1128 C1132 0.929 . S
H1129 C1138 0.929 . S
C1130 H1124 0.930 . S
C1130 C1131 1.367 . S
C1130 C1138 1.378 . S
C1131 C1130 1.367 . S
C1131 C1139 1.433 . S
C1132 H1128 0.929 . S
C1132 C1134 1.378 . S
C1132 C1136 1.350 . S
C1133 C1136 1.463 . S
C1133 C1138 1.350 . S
C1133 N1141 1.427 . S
C1134 H1125 0.930 . S
C1134 C1132 1.378 . S
C1134 C1135 1.367 . S
C1135 C1134 1.367 . S
C1135 C1137 1.433 . S
C1136 C1132 1.350 . S
C1136 C1133 1.463 . S
C1136 N1140 1.427 . S
C1137 H1127 0.929 . S
C1137 C1135 1.433 . S
C1137 N1140 1.384 . S
C1138 H1129 0.929 . S
C1138 C1130 1.378 . S
C1138 C1133 1.350 . S
C1139 H1126 0.929 . S
C1139 C1131 1.433 . S
C1139 N1141 1.384 . S
N1140 C1136 1.427 . S
N1140 C1137 1.384 . S
N1141 C1133 1.427 . S
N1141 C1139 1.384 . S
H1142 C1148 0.930 . S
H1143 C1152 0.930 . S
H1144 C1157 0.929 . S
H1145 C1155 0.929 . S
H1146 C1150 0.929 . S
H1147 C1156 0.929 . S
C1148 H1142 0.930 . S
C1148 C1149 1.367 . S
C1148 C1156 1.378 . S
C1149 C1148 1.367 . S
C1149 C1157 1.433 . S
C1150 H1146 0.929 . S
C1150 C1152 1.378 . S
C1150 C1154 1.350 . S
C1151 C1154 1.463 . S
C1151 C1156 1.350 . S
C1151 N1159 1.427 . S
C1152 H1143 0.930 . S
C1152 C1150 1.378 . S
C1152 C1153 1.367 . S
C1153 C1152 1.367 . S
C1153 C1155 1.433 . S
C1154 C1150 1.350 . S
C1154 C1151 1.463 . S
C1154 N1158 1.427 . S
C1155 H1145 0.929 . S
C1155 C1153 1.433 . S
C1155 N1158 1.384 . S
C1156 H1147 0.929 . S
C1156 C1148 1.378 . S
C1156 C1151 1.350 . S
C1157 H1144 0.929 . S
C1157 C1149 1.433 . S
C1157 N1159 1.384 . S
N1158 C1154 1.427 . S
N1158 C1155 1.384 . S
N1159 C1151 1.427 . S
N1159 C1157 1.384 . S
H1160 C1166 0.930 . S
H1161 C1170 0.930 . S
H1162 C1175 0.929 . S
H1163 C1173 0.929 . S
H1164 C1168 0.929 . S
H1165 C1174 0.929 . S
C1166 H1160 0.930 . S
C1166 C1167 1.367 . S
C1166 C1174 1.378 . S
C1167 C1166 1.367 . S
C1167 C1175 1.433 . S
C1168 H1164 0.929 . S
C1168 C1170 1.378 . S
C1168 C1172 1.350 . S
C1169 C1172 1.463 . S
C1169 C1174 1.350 . S
C1169 N1177 1.427 . S
C1170 H1161 0.930 . S
C1170 C1168 1.378 . S
C1170 C1171 1.367 . S
C1171 C1170 1.367 . S
C1171 C1173 1.433 . S
C1172 C1168 1.350 . S
C1172 C1169 1.463 . S
C1172 N1176 1.427 . S
C1173 H1163 0.929 . S
C1173 C1171 1.433 . S
C1173 N1176 1.384 . S
C1174 H1165 0.929 . S
C1174 C1166 1.378 . S
C1174 C1169 1.350 . S
C1175 H1162 0.929 . S
C1175 C1167 1.433 . S
C1175 N1177 1.384 . S
N1176 C1172 1.427 . S
N1176 C1173 1.384 . S
N1177 C1169 1.427 . S
N1177 C1175 1.384 . S
H1178 C1184 0.930 . S
H1179 C1188 0.930 . S
H1180 C1193 0.929 . S
H1181 C1191 0.929 . S
H1182 C1186 0.929 . S
H1183 C1192 0.929 . S
C1184 H1178 0.930 . S
C1184 C1185 1.367 . S
C1184 C1192 1.378 . S
C1185 C1184 1.367 . S
C1185 C1193 1.433 . S
C1186 H1182 0.929 . S
C1186 C1188 1.378 . S
C1186 C1190 1.350 . S
C1187 C1190 1.463 . S
C1187 C1192 1.350 . S
C1187 N1195 1.427 . S
C1188 H1179 0.930 . S
C1188 C1186 1.378 . S
C1188 C1189 1.367 . S
C1189 C1188 1.367 . S
C1189 C1191 1.433 . S
C1190 C1186 1.350 . S
C1190 C1187 1.463 . S
C1190 N1194 1.427 . S
C1191 H1181 0.929 . S
C1191 C1189 1.433 . S
C1191 N1194 1.384 . S
C1192 H1183 0.929 . S
C1192 C1184 1.378 . S
C1192 C1187 1.350 . S
C1193 H1180 0.929 . S
C1193 C1185 1.433 . S
C1193 N1195 1.384 . S
N1194 C1190 1.427 . S
N1194 C1191 1.384 . S
N1195 C1187 1.427 . S
N1195 C1193 1.384 . S
H1196 C1202 0.930 . S
H1197 C1206 0.930 . S
H1198 C1211 0.929 . S
H1199 C1209 0.929 . S
H1200 C1204 0.929 . S
H1201 C1210 0.929 . S
C1202 H1196 0.930 . S
C1202 C1203 1.367 . S
C1202 C1210 1.378 . S
C1203 C1202 1.367 . S
C1203 C1211 1.433 . S
C1204 H1200 0.929 . S
C1204 C1206 1.378 . S
C1204 C1208 1.350 . S
C1205 C1208 1.463 . S
C1205 C1210 1.350 . S
C1205 N1213 1.427 . S
C1206 H1197 0.930 . S
C1206 C1204 1.378 . S
C1206 C1207 1.367 . S
C1207 C1206 1.367 . S
C1207 C1209 1.433 . S
C1208 C1204 1.350 . S
C1208 C1205 1.463 . S
C1208 N1212 1.427 . S
C1209 H1199 0.929 . S
C1209 C1207 1.433 . S
C1209 N1212 1.384 . S
C1210 H1201 0.929 . S
C1210 C1202 1.378 . S
C1210 C1205 1.350 . S
C1211 H1198 0.929 . S
C1211 C1203 1.433 . S
C1211 N1213 1.384 . S
N1212 C1208 1.427 . S
N1212 C1209 1.384 . S
N1213 C1205 1.427 . S
N1213 C1211 1.384 . S
H1214 C1220 0.930 . S
H1215 C1224 0.930 . S
H1216 C1229 0.929 . S
H1217 C1227 0.929 . S
H1218 C1222 0.929 . S
H1219 C1228 0.929 . S
C1220 H1214 0.930 . S
C1220 C1221 1.367 . S
C1220 C1228 1.378 . S
C1221 C1220 1.367 . S
C1221 C1229 1.433 . S
C1222 H1218 0.929 . S
C1222 C1224 1.378 . S
C1222 C1226 1.350 . S
C1223 C1226 1.463 . S
C1223 C1228 1.350 . S
C1223 N1231 1.427 . S
C1224 H1215 0.930 . S
C1224 C1222 1.378 . S
C1224 C1225 1.367 . S
C1225 C1224 1.367 . S
C1225 C1227 1.433 . S
C1226 C1222 1.350 . S
C1226 C1223 1.463 . S
C1226 N1230 1.427 . S
C1227 H1217 0.929 . S
C1227 C1225 1.433 . S
C1227 N1230 1.384 . S
C1228 H1219 0.929 . S
C1228 C1220 1.378 . S
C1228 C1223 1.350 . S
C1229 H1216 0.929 . S
C1229 C1221 1.433 . S
C1229 N1231 1.384 . S
N1230 C1226 1.427 . S
N1230 C1227 1.384 . S
N1231 C1223 1.427 . S
N1231 C1229 1.384 . S
H1232 C1238 0.930 . S
H1233 C1242 0.930 . S
H1234 C1247 0.929 1_565 S
H1235 C1245 0.929 . S
H1236 C1240 0.929 . S
H1237 C1246 0.929 . S
C1238 H1232 0.930 . S
C1238 C1239 1.367 . S
C1238 C1246 1.378 . S
C1239 C1238 1.367 . S
C1239 C1247 1.433 . S
C1240 H1236 0.929 . S
C1240 C1242 1.378 . S
C1240 C1244 1.350 . S
C1241 C1244 1.463 . S
C1241 C1246 1.350 . S
C1241 N1249 1.427 . S
C1242 H1233 0.930 . S
C1242 C1240 1.378 . S
C1242 C1243 1.367 . S
C1243 C1242 1.367 . S
C1243 C1245 1.433 . S
C1244 C1240 1.350 . S
C1244 C1241 1.463 . S
C1244 N1248 1.427 . S
C1245 H1235 0.929 . S
C1245 C1243 1.433 . S
C1245 N1248 1.384 . S
C1246 H1237 0.929 . S
C1246 C1238 1.378 . S
C1246 C1241 1.350 . S
C1247 H1234 0.929 1_545 S
C1247 C1239 1.433 . S
C1247 N1249 1.384 . S
N1248 C1244 1.427 . S
N1248 C1245 1.384 . S
N1249 C1241 1.427 . S
N1249 C1247 1.384 . S
H1250 C1256 0.930 . S
H1251 C1260 0.930 . S
H1252 C1265 0.929 . S
H1253 C1263 0.929 . S
H1254 C1258 0.929 . S
H1255 C1264 0.929 . S
C1256 H1250 0.930 . S
C1256 C1257 1.367 . S
C1256 C1264 1.378 . S
C1257 C1256 1.367 . S
C1257 C1265 1.433 . S
C1258 H1254 0.929 . S
C1258 C1260 1.378 . S
C1258 C1262 1.350 . S
C1259 C1262 1.463 . S
C1259 C1264 1.350 . S
C1259 N1267 1.427 . S
C1260 H1251 0.930 . S
C1260 C1258 1.378 . S
C1260 C1261 1.367 . S
C1261 C1260 1.367 . S
C1261 C1263 1.433 . S
C1262 C1258 1.350 . S
C1262 C1259 1.463 . S
C1262 N1266 1.427 . S
C1263 H1253 0.929 . S
C1263 C1261 1.433 . S
C1263 N1266 1.384 . S
C1264 H1255 0.929 . S
C1264 C1256 1.378 . S
C1264 C1259 1.350 . S
C1265 H1252 0.929 . S
C1265 C1257 1.433 . S
C1265 N1267 1.384 . S
N1266 C1262 1.427 . S
N1266 C1263 1.384 . S
N1267 C1259 1.427 . S
N1267 C1265 1.384 . S
H1268 C1274 0.930 . S
H1269 C1278 0.930 . S
H1270 C1283 0.929 1_545 S
H1271 C1281 0.929 . S
H1272 C1276 0.929 . S
H1273 C1282 0.929 . S
C1274 H1268 0.930 . S
C1274 C1275 1.367 . S
C1274 C1282 1.378 . S
C1275 C1274 1.367 . S
C1275 C1283 1.433 . S
C1276 H1272 0.929 . S
C1276 C1278 1.378 . S
C1276 C1280 1.350 . S
C1277 C1280 1.463 . S
C1277 C1282 1.350 . S
C1277 N1285 1.427 . S
C1278 H1269 0.930 . S
C1278 C1276 1.378 . S
C1278 C1279 1.367 . S
C1279 C1278 1.367 . S
C1279 C1281 1.433 . S
C1280 C1276 1.350 . S
C1280 C1277 1.463 . S
C1280 N1284 1.427 . S
C1281 H1271 0.929 . S
C1281 C1279 1.433 . S
C1281 N1284 1.384 . S
C1282 H1273 0.929 . S
C1282 C1274 1.378 . S
C1282 C1277 1.350 . S
C1283 H1270 0.929 1_565 S
C1283 C1275 1.433 . S
C1283 N1285 1.384 . S
N1284 C1280 1.427 . S
N1284 C1281 1.384 . S
N1285 C1277 1.427 . S
N1285 C1283 1.384 . S
H1286 C1292 0.930 . S
H1287 C1296 0.930 . S
H1288 C1301 0.929 . S
H1289 C1299 0.929 1_455 S
H1290 C1294 0.929 . S
H1291 C1300 0.929 . S
C1292 H1286 0.930 . S
C1292 C1293 1.367 . S
C1292 C1300 1.378 . S
C1293 C1292 1.367 . S
C1293 C1301 1.433 . S
C1294 H1290 0.929 . S
C1294 C1296 1.378 . S
C1294 C1298 1.350 . S
C1295 C1298 1.463 . S
C1295 C1300 1.350 . S
C1295 N1303 1.427 . S
C1296 H1287 0.930 . S
C1296 C1294 1.378 . S
C1296 C1297 1.367 . S
C1297 C1296 1.367 . S
C1297 C1299 1.433 . S
C1298 C1294 1.350 . S
C1298 C1295 1.463 . S
C1298 N1302 1.427 . S
C1299 H1289 0.929 1_655 S
C1299 C1297 1.433 . S
C1299 N1302 1.384 . S
C1300 H1291 0.929 . S
C1300 C1292 1.378 . S
C1300 C1295 1.350 . S
C1301 H1288 0.929 . S
C1301 C1293 1.433 . S
C1301 N1303 1.384 . S
N1302 C1298 1.427 . S
N1302 C1299 1.384 . S
N1303 C1295 1.427 . S
N1303 C1301 1.384 . S
H1304 C1310 0.930 . S
H1305 C1314 0.930 . S
H1306 C1319 0.929 1_545 S
H1307 C1317 0.929 . S
H1308 C1312 0.929 . S
H1309 C1318 0.929 . S
C1310 H1304 0.930 . S
C1310 C1311 1.367 . S
C1310 C1318 1.378 . S
C1311 C1310 1.367 . S
C1311 C1319 1.433 . S
C1312 H1308 0.929 . S
C1312 C1314 1.378 . S
C1312 C1316 1.350 . S
C1313 C1316 1.463 . S
C1313 C1318 1.350 . S
C1313 N1321 1.427 . S
C1314 H1305 0.930 . S
C1314 C1312 1.378 . S
C1314 C1315 1.367 . S
C1315 C1314 1.367 . S
C1315 C1317 1.433 . S
C1316 C1312 1.350 . S
C1316 C1313 1.463 . S
C1316 N1320 1.427 . S
C1317 H1307 0.929 . S
C1317 C1315 1.433 . S
C1317 N1320 1.384 . S
C1318 H1309 0.929 . S
C1318 C1310 1.378 . S
C1318 C1313 1.350 . S
C1319 H1306 0.929 1_565 S
C1319 C1311 1.433 . S
C1319 N1321 1.384 . S
N1320 C1316 1.427 . S
N1320 C1317 1.384 . S
N1321 C1313 1.427 . S
N1321 C1319 1.384 . S
H1322 C1328 0.930 . S
H1323 C1332 0.930 . S
H1324 C1337 0.929 . S
H1325 C1335 0.929 . S
H1326 C1330 0.929 . S
H1327 C1336 0.929 . S
C1328 H1322 0.930 . S
C1328 C1329 1.367 . S
C1328 C1336 1.378 . S
C1329 C1328 1.367 . S
C1329 C1337 1.433 . S
C1330 H1326 0.929 . S
C1330 C1332 1.378 . S
C1330 C1334 1.350 . S
C1331 C1334 1.463 . S
C1331 C1336 1.350 . S
C1331 N1339 1.427 . S
C1332 H1323 0.930 . S
C1332 C1330 1.378 . S
C1332 C1333 1.367 . S
C1333 C1332 1.367 . S
C1333 C1335 1.433 . S
C1334 C1330 1.350 . S
C1334 C1331 1.463 . S
C1334 N1338 1.427 . S
C1335 H1325 0.929 . S
C1335 C1333 1.433 . S
C1335 N1338 1.384 . S
C1336 H1327 0.929 . S
C1336 C1328 1.378 . S
C1336 C1331 1.350 . S
C1337 H1324 0.929 . S
C1337 C1329 1.433 . S
C1337 N1339 1.384 . S
N1338 C1334 1.427 . S
N1338 C1335 1.384 . S
N1339 C1331 1.427 . S
N1339 C1337 1.384 . S
H1340 C1346 0.930 . S
H1341 C1350 0.930 . S
H1342 C1355 0.929 . S
H1343 C1353 0.929 1_565 S
H1344 C1348 0.929 . S
H1345 C1354 0.929 . S
C1346 H1340 0.930 . S
C1346 C1347 1.367 . S
C1346 C1354 1.378 . S
C1347 C1346 1.367 . S
C1347 C1355 1.433 . S
C1348 H1344 0.929 . S
C1348 C1350 1.378 . S
C1348 C1352 1.350 . S
C1349 C1352 1.463 . S
C1349 C1354 1.350 . S
C1349 N1357 1.427 . S
C1350 H1341 0.930 . S
C1350 C1348 1.378 . S
C1350 C1351 1.367 . S
C1351 C1350 1.367 . S
C1351 C1353 1.433 . S
C1352 C1348 1.350 . S
C1352 C1349 1.463 . S
C1352 N1356 1.427 . S
C1353 H1343 0.929 1_545 S
C1353 C1351 1.433 . S
C1353 N1356 1.384 . S
C1354 H1345 0.929 . S
C1354 C1346 1.378 . S
C1354 C1349 1.350 . S
C1355 H1342 0.929 . S
C1355 C1347 1.433 . S
C1355 N1357 1.384 . S
N1356 C1352 1.427 . S
N1356 C1353 1.384 . S
N1357 C1349 1.427 . S
N1357 C1355 1.384 . S
H1358 C1364 0.930 . S
H1359 C1368 0.930 1_655 S
H1360 C1373 0.929 . S
H1361 C1371 0.929 . S
H1362 C1366 0.929 . S
H1363 C1372 0.929 . S
C1364 H1358 0.930 . S
C1364 C1365 1.367 . S
C1364 C1372 1.378 . S
C1365 C1364 1.367 . S
C1365 C1373 1.433 . S
C1366 H1362 0.929 . S
C1366 C1368 1.378 . S
C1366 C1370 1.350 . S
C1367 C1370 1.463 . S
C1367 C1372 1.350 . S
C1367 N1375 1.427 . S
C1368 H1359 0.930 1_455 S
C1368 C1366 1.378 . S
C1368 C1369 1.367 . S
C1369 C1368 1.367 . S
C1369 C1371 1.433 . S
C1370 C1366 1.350 . S
C1370 C1367 1.463 . S
C1370 N1374 1.427 . S
C1371 H1361 0.929 . S
C1371 C1369 1.433 . S
C1371 N1374 1.384 . S
C1372 H1363 0.929 . S
C1372 C1364 1.378 . S
C1372 C1367 1.350 . S
C1373 H1360 0.929 . S
C1373 C1365 1.433 . S
C1373 N1375 1.384 . S
N1374 C1370 1.427 . S
N1374 C1371 1.384 . S
N1375 C1367 1.427 . S
N1375 C1373 1.384 . S
H1376 C1382 0.930 . S
H1377 C1386 0.930 . S
H1378 C1391 0.929 . S
H1379 C1389 0.929 . S
H1380 C1384 0.929 . S
H1381 C1390 0.929 . S
C1382 H1376 0.930 . S
C1382 C1383 1.367 . S
C1382 C1390 1.378 . S
C1383 C1382 1.367 . S
C1383 C1391 1.433 . S
C1384 H1380 0.929 . S
C1384 C1386 1.378 . S
C1384 C1388 1.350 . S
C1385 C1388 1.463 . S
C1385 C1390 1.350 . S
C1385 N1393 1.427 . S
C1386 H1377 0.930 . S
C1386 C1384 1.378 . S
C1386 C1387 1.367 . S
C1387 C1386 1.367 . S
C1387 C1389 1.433 . S
C1388 C1384 1.350 . S
C1388 C1385 1.463 . S
C1388 N1392 1.427 . S
C1389 H1379 0.929 . S
C1389 C1387 1.433 . S
C1389 N1392 1.384 . S
C1390 H1381 0.929 . S
C1390 C1382 1.378 . S
C1390 C1385 1.350 . S
C1391 H1378 0.929 . S
C1391 C1383 1.433 . S
C1391 N1393 1.384 . S
N1392 C1388 1.427 . S
N1392 C1389 1.384 . S
N1393 C1385 1.427 . S
N1393 C1391 1.384 . S
H1394 C1400 0.930 . S
H1395 C1404 0.930 . S
H1396 C1409 0.929 . S
H1397 C1407 0.929 . S
H1398 C1402 0.929 . S
H1399 C1408 0.929 . S
C1400 H1394 0.930 . S
C1400 C1401 1.367 . S
C1400 C1408 1.378 . S
C1401 C1400 1.367 . S
C1401 C1409 1.433 . S
C1402 H1398 0.929 . S
C1402 C1404 1.378 . S
C1402 C1406 1.350 . S
C1403 C1406 1.463 . S
C1403 C1408 1.350 . S
C1403 N1411 1.427 . S
C1404 H1395 0.930 . S
C1404 C1402 1.378 . S
C1404 C1405 1.367 . S
C1405 C1404 1.367 . S
C1405 C1407 1.433 . S
C1406 C1402 1.350 . S
C1406 C1403 1.463 . S
C1406 N1410 1.427 . S
C1407 H1397 0.929 . S
C1407 C1405 1.433 . S
C1407 N1410 1.384 . S
C1408 H1399 0.929 . S
C1408 C1400 1.378 . S
C1408 C1403 1.350 . S
C1409 H1396 0.929 . S
C1409 C1401 1.433 . S
C1409 N1411 1.384 . S
N1410 C1406 1.427 . S
N1410 C1407 1.384 . S
N1411 C1403 1.427 . S
N1411 C1409 1.384 . S
H1412 C1418 0.930 . S
H1413 C1422 0.930 . S
H1414 C1427 0.929 . S
H1415 C1425 0.929 . S
H1416 C1420 0.929 . S
H1417 C1426 0.929 . S
C1418 H1412 0.930 . S
C1418 C1419 1.367 . S
C1418 C1426 1.378 . S
C1419 C1418 1.367 . S
C1419 C1427 1.433 . S
C1420 H1416 0.929 . S
C1420 C1422 1.378 . S
C1420 C1424 1.350 . S
C1421 C1424 1.463 . S
C1421 C1426 1.350 . S
C1421 N1429 1.427 . S
C1422 H1413 0.930 . S
C1422 C1420 1.378 . S
C1422 C1423 1.367 . S
C1423 C1422 1.367 . S
C1423 C1425 1.433 . S
C1424 C1420 1.350 . S
C1424 C1421 1.463 . S
C1424 N1428 1.427 . S
C1425 H1415 0.929 . S
C1425 C1423 1.433 . S
C1425 N1428 1.384 . S
C1426 H1417 0.929 . S
C1426 C1418 1.378 . S
C1426 C1421 1.350 . S
C1427 H1414 0.929 . S
C1427 C1419 1.433 . S
C1427 N1429 1.384 . S
N1428 C1424 1.427 . S
N1428 C1425 1.384 . S
N1429 C1421 1.427 . S
N1429 C1427 1.384 . S
H1430 C1436 0.930 . S
H1431 C1440 0.930 . S
H1432 C1445 0.929 . S
H1433 C1443 0.929 . S
H1434 C1438 0.929 . S
H1435 C1444 0.929 . S
C1436 H1430 0.930 . S
C1436 C1437 1.367 . S
C1436 C1444 1.378 . S
C1437 C1436 1.367 . S
C1437 C1445 1.433 . S
C1438 H1434 0.929 . S
C1438 C1440 1.378 . S
C1438 C1442 1.350 . S
C1439 C1442 1.463 . S
C1439 C1444 1.350 . S
C1439 N1447 1.427 . S
C1440 H1431 0.930 . S
C1440 C1438 1.378 . S
C1440 C1441 1.367 . S
C1441 C1440 1.367 . S
C1441 C1443 1.433 . S
C1442 C1438 1.350 . S
C1442 C1439 1.463 . S
C1442 N1446 1.427 . S
C1443 H1433 0.929 . S
C1443 C1441 1.433 . S
C1443 N1446 1.384 . S
C1444 H1435 0.929 . S
C1444 C1436 1.378 . S
C1444 C1439 1.350 . S
C1445 H1432 0.929 . S
C1445 C1437 1.433 . S
C1445 N1447 1.384 . S
N1446 C1442 1.427 . S
N1446 C1443 1.384 . S
N1447 C1439 1.427 . S
N1447 C1445 1.384 . S
H1448 C1454 0.930 . S
H1449 C1458 0.930 . S
H1450 C1463 0.929 . S
H1451 C1461 0.929 . S
H1452 C1456 0.929 . S
H1453 C1462 0.929 . S
C1454 H1448 0.930 . S
C1454 C1455 1.367 . S
C1454 C1462 1.378 . S
C1455 C1454 1.367 . S
C1455 C1463 1.433 1_545 S
C1456 H1452 0.929 . S
C1456 C1458 1.378 . S
C1456 C1460 1.350 . S
C1457 C1460 1.463 1_544 S
C1457 C1462 1.350 . S
C1457 N1465 1.427 1_545 S
C1458 H1449 0.930 . S
C1458 C1456 1.378 . S
C1458 C1459 1.367 . S
C1459 C1458 1.367 . S
C1459 C1461 1.433 1_565 S
C1460 C1456 1.350 . S
C1460 C1457 1.463 1_566 S
C1460 N1464 1.427 1_565 S
C1461 H1451 0.929 . S
C1461 C1459 1.433 1_545 S
C1461 N1464 1.384 . S
C1462 H1453 0.929 . S
C1462 C1454 1.378 . S
C1462 C1457 1.350 . S
C1463 H1450 0.929 . S
C1463 C1455 1.433 1_565 S
C1463 N1465 1.384 . S
N1464 C1460 1.427 1_545 S
N1464 C1461 1.384 . S
N1465 C1457 1.427 1_565 S
N1465 C1463 1.384 . S
H1466 C1472 0.930 . S
H1467 C1476 0.930 . S
H1468 C1481 0.929 . S
H1469 C1479 0.929 . S
H1470 C1474 0.929 . S
H1471 C1480 0.929 . S
C1472 H1466 0.930 . S
C1472 C1473 1.367 1_655 S
C1472 C1480 1.378 . S
C1473 C1472 1.367 1_455 S
C1473 C1481 1.433 . S
C1474 H1470 0.929 . S
C1474 C1476 1.378 . S
C1474 C1478 1.350 1_455 S
C1475 C1478 1.463 1_456 S
C1475 C1480 1.350 1_455 S
C1475 N1483 1.427 . S
C1476 H1467 0.930 . S
C1476 C1474 1.378 . S
C1476 C1477 1.367 1_455 S
C1477 C1476 1.367 1_655 S
C1477 C1479 1.433 . S
C1478 C1474 1.350 1_655 S
C1478 C1475 1.463 1_654 S
C1478 N1482 1.427 . S
C1479 H1469 0.929 . S
C1479 C1477 1.433 . S
C1479 N1482 1.384 . S
C1480 H1471 0.929 . S
C1480 C1472 1.378 . S
C1480 C1475 1.350 1_655 S
C1481 H1468 0.929 . S
C1481 C1473 1.433 . S
C1481 N1483 1.384 . S
N1482 C1478 1.427 . S
N1482 C1479 1.384 . S
N1483 C1475 1.427 . S
N1483 C1481 1.384 . S
H1484 C1490 0.930 . S
H1485 C1494 0.930 . S
H1486 C1499 0.929 . S
H1487 C1497 0.929 . S
H1488 C1492 0.929 . S
H1489 C1498 0.929 . S
C1490 H1484 0.930 . S
C1490 C1491 1.367 1_565 S
C1490 C1498 1.378 . S
C1491 C1490 1.367 1_545 S
C1491 C1499 1.433 . S
C1492 H1488 0.929 . S
C1492 C1494 1.378 . S
C1492 C1496 1.350 1_545 S
C1493 C1496 1.463 1_546 S
C1493 C1498 1.350 1_545 S
C1493 N1501 1.427 . S
C1494 H1485 0.930 . S
C1494 C1492 1.378 . S
C1494 C1495 1.367 1_545 S
C1495 C1494 1.367 1_565 S
C1495 C1497 1.433 . S
C1496 C1492 1.350 1_565 S
C1496 C1493 1.463 1_564 S
C1496 N1500 1.427 . S
C1497 H1487 0.929 . S
C1497 C1495 1.433 . S
C1497 N1500 1.384 . S
C1498 H1489 0.929 . S
C1498 C1490 1.378 . S
C1498 C1493 1.350 1_565 S
C1499 H1486 0.929 . S
C1499 C1491 1.433 . S
C1499 N1501 1.384 . S
N1500 C1496 1.427 . S
N1500 C1497 1.384 . S
N1501 C1493 1.427 . S
N1501 C1499 1.384 . S
H1502 C1508 0.930 . S
H1503 C1512 0.930 . S
H1504 C1517 0.929 . S
H1505 C1515 0.929 . S
H1506 C1510 0.929 . S
H1507 C1516 0.929 . S
C1508 H1502 0.930 . S
C1508 C1509 1.367 . S
C1508 C1516 1.378 . S
C1509 C1508 1.367 . S
C1509 C1517 1.433 . S
C1510 H1506 0.929 . S
C1510 C1512 1.378 . S
C1510 C1514 1.350 . S
C1511 C1514 1.463 1_656 S
C1511 C1516 1.350 . S
C1511 N1519 1.422 1_655 S
C1512 H1503 0.930 . S
C1512 C1510 1.378 . S
C1512 C1513 1.367 . S
C1513 C1512 1.367 . S
C1513 C1515 1.433 . S
C1514 C1510 1.350 . S
C1514 C1511 1.463 1_454 S
C1514 N1518 1.422 1_455 S
C1515 H1505 0.929 . S
C1515 C1513 1.433 . S
C1515 N1518 1.376 1_455 S
C1516 H1507 0.929 . S
C1516 C1508 1.378 . S
C1516 C1511 1.350 . S
C1517 H1504 0.929 . S
C1517 C1509 1.433 . S
C1517 N1519 1.376 1_655 S
N1518 C1514 1.422 1_655 S
N1518 C1515 1.376 1_655 S
N1519 C1511 1.422 1_455 S
N1519 C1517 1.376 1_455 S
C951 C5 1.368 . S
C955 C418 1.372 . S
C969 C64 1.369 . S
C973 C241 1.371 . S
C987 C300 1.370 . S
C991 C123 1.370 . S
C1005 C182 1.371 . S
C1009 C359 1.369 . S
C1023 C477 1.370 . S
C1027 C890 1.371 . S
C1041 C713 1.372 . S
C1045 C536 1.369 . S
C1059 C772 1.371 . S
C1063 C595 1.369 . S
C1077 C831 1.371 . S
C1081 C654 1.370 . S
C1095 C52 1.527 . S
C1099 C682 1.525 . S
C1113 C111 1.527 . S
C1117 C505 1.524 . S
C1131 C564 1.526 . S
C1135 C170 1.524 . S
C1149 C229 1.525 . S
C1153 C623 1.526 . S
C1167 C288 1.525 . S
C1171 C800 1.523 . S
C1185 C859 1.527 . S
C1189 C347 1.525 . S
C1203 C406 1.526 . S
C1207 C918 1.523 . S
C1221 C741 1.526 . S
C1225 C465 1.524 . S
C1239 C524 1.527 1_545 S
C1243 C210 1.523 . S
C1257 C33 1.526 . S
C1261 C583 1.524 1_455 S
C1275 C642 1.525 1_565 S
C1279 C92 1.523 . S
C1293 C151 1.523 . S
C1297 C701 1.526 1_655 S
C1311 C760 1.526 1_565 S
C1315 C328 1.523 . S
C1329 C387 1.524 . S
C1333 C819 1.527 1_655 S
C1347 C446 1.523 . S
C1351 C878 1.526 1_545 S
C1365 C269 1.527 . S
C1369 C937 1.525 1_455 S
C1383 C239 1.635 . S
C1387 C3 1.633 . S
C1401 C298 1.630 . S
C1405 C62 1.634 . S
C1419 C121 1.635 . S
C1423 C357 1.632 . S
C1437 C416 1.630 . S
C1441 C180 1.633 . S
C1455 C711 1.635 . S
C1459 C475 1.632 . S
C1473 C770 1.630 . S
C1477 C534 1.633 . S
C1491 C593 1.633 . S
C1495 C829 1.630 . S
C1509 C888 1.635 . S
C1513 C652 1.630 . S
