# Generated by pormake.
# Topology ukv, (4)-cn, num edge types: 1
# Building blocks:
#     Node 0, Type 0, BuildingBlock: NAHDIM_clean_sbu_0, # of connection points: 4
#     Node 1, Type 0, BuildingBlock: NAHDIM_clean_sbu_0, # of connection points: 4
#     Node 2, Type 0, BuildingBlock: NAHDIM_clean_sbu_0, # of connection points: 4
#     Node 3, Type 0, BuildingBlock: NAHDIM_clean_sbu_0, # of connection points: 4
#     Node 4, Type 0, BuildingBlock: NAHDIM_clean_sbu_0, # of connection points: 4
#     Node 5, Type 0, BuildingBlock: NAHDIM_clean_sbu_0, # of connection points: 4
#     Node 6, Type 0, BuildingBlock: NAHDIM_clean_sbu_0, # of connection points: 4
#     Node 7, Type 0, BuildingBlock: NAHDIM_clean_sbu_0, # of connection points: 4
#     Node 8, Type 0, BuildingBlock: NAHDIM_clean_sbu_0, # of connection points: 4
#     Node 9, Type 0, BuildingBlock: NAHDIM_clean_sbu_0, # of connection points: 4
#     Node 10, Type 0, BuildingBlock: NAHDIM_clean_sbu_0, # of connection points: 4
#     Node 11, Type 0, BuildingBlock: NAHDIM_clean_sbu_0, # of connection points: 4
#     Node 12, Type 0, BuildingBlock: NAHDIM_clean_sbu_0, # of connection points: 4
#     Node 13, Type 0, BuildingBlock: NAHDIM_clean_sbu_0, # of connection points: 4
#     Node 14, Type 0, BuildingBlock: NAHDIM_clean_sbu_0, # of connection points: 4
#     Node 15, Type 0, BuildingBlock: NAHDIM_clean_sbu_0, # of connection points: 4
#     Node 16, Type 0, BuildingBlock: NAHDIM_clean_sbu_0, # of connection points: 4
#     Node 17, Type 0, BuildingBlock: NAHDIM_clean_sbu_0, # of connection points: 4
#     Node 18, Type 0, BuildingBlock: NAHDIM_clean_sbu_0, # of connection points: 4
#     Node 19, Type 0, BuildingBlock: NAHDIM_clean_sbu_0, # of connection points: 4
#     Node 20, Type 0, BuildingBlock: NAHDIM_clean_sbu_0, # of connection points: 4
#     Node 21, Type 0, BuildingBlock: NAHDIM_clean_sbu_0, # of connection points: 4
#     Node 22, Type 0, BuildingBlock: NAHDIM_clean_sbu_0, # of connection points: 4
#     Node 23, Type 0, BuildingBlock: NAHDIM_clean_sbu_0, # of connection points: 4
#     Node 24, Type 0, BuildingBlock: NAHDIM_clean_sbu_0, # of connection points: 4
#     Node 25, Type 0, BuildingBlock: NAHDIM_clean_sbu_0, # of connection points: 4
#     Node 26, Type 0, BuildingBlock: NAHDIM_clean_sbu_0, # of connection points: 4
#     Node 27, Type 0, BuildingBlock: NAHDIM_clean_sbu_0, # of connection points: 4
#     Node 28, Type 0, BuildingBlock: NAHDIM_clean_sbu_0, # of connection points: 4
#     Node 29, Type 0, BuildingBlock: NAHDIM_clean_sbu_0, # of connection points: 4
#     Node 30, Type 0, BuildingBlock: NAHDIM_clean_sbu_0, # of connection points: 4
#     Node 31, Type 0, BuildingBlock: NAHDIM_clean_sbu_0, # of connection points: 4
#     Node 32, Type 0, BuildingBlock: NAHDIM_clean_sbu_0, # of connection points: 4
#     Node 33, Type 0, BuildingBlock: NAHDIM_clean_sbu_0, # of connection points: 4
#     Node 34, Type 0, BuildingBlock: NAHDIM_clean_sbu_0, # of connection points: 4
#     Node 35, Type 0, BuildingBlock: NAHDIM_clean_sbu_0, # of connection points: 4
#     Edge 36, Type (0, 0), BuildingBlock: UVAHIK_clean_linker_0, # of connection points: 2
#     Edge 37, Type (0, 0), BuildingBlock: UVAHIK_clean_linker_0, # of connection points: 2
#     Edge 38, Type (0, 0), BuildingBlock: UVAHIK_clean_linker_0, # of connection points: 2
#     Edge 39, Type (0, 0), BuildingBlock: UVAHIK_clean_linker_0, # of connection points: 2
#     Edge 40, Type (0, 0), BuildingBlock: UVAHIK_clean_linker_0, # of connection points: 2
#     Edge 41, Type (0, 0), BuildingBlock: UVAHIK_clean_linker_0, # of connection points: 2
#     Edge 42, Type (0, 0), BuildingBlock: UVAHIK_clean_linker_0, # of connection points: 2
#     Edge 43, Type (0, 0), BuildingBlock: UVAHIK_clean_linker_0, # of connection points: 2
#     Edge 44, Type (0, 0), BuildingBlock: UVAHIK_clean_linker_0, # of connection points: 2
#     Edge 45, Type (0, 0), BuildingBlock: UVAHIK_clean_linker_0, # of connection points: 2
#     Edge 46, Type (0, 0), BuildingBlock: UVAHIK_clean_linker_0, # of connection points: 2
#     Edge 47, Type (0, 0), BuildingBlock: UVAHIK_clean_linker_0, # of connection points: 2
#     Edge 48, Type (0, 0), BuildingBlock: UVAHIK_clean_linker_0, # of connection points: 2
#     Edge 49, Type (0, 0), BuildingBlock: UVAHIK_clean_linker_0, # of connection points: 2
#     Edge 50, Type (0, 0), BuildingBlock: UVAHIK_clean_linker_0, # of connection points: 2
#     Edge 51, Type (0, 0), BuildingBlock: UVAHIK_clean_linker_0, # of connection points: 2
#     Edge 52, Type (0, 0), BuildingBlock: UVAHIK_clean_linker_0, # of connection points: 2
#     Edge 53, Type (0, 0), BuildingBlock: UVAHIK_clean_linker_0, # of connection points: 2
#     Edge 54, Type (0, 0), BuildingBlock: UVAHIK_clean_linker_0, # of connection points: 2
#     Edge 55, Type (0, 0), BuildingBlock: UVAHIK_clean_linker_0, # of connection points: 2
#     Edge 56, Type (0, 0), BuildingBlock: UVAHIK_clean_linker_0, # of connection points: 2
#     Edge 57, Type (0, 0), BuildingBlock: UVAHIK_clean_linker_0, # of connection points: 2
#     Edge 58, Type (0, 0), BuildingBlock: UVAHIK_clean_linker_0, # of connection points: 2
#     Edge 59, Type (0, 0), BuildingBlock: UVAHIK_clean_linker_0, # of connection points: 2
#     Edge 60, Type (0, 0), BuildingBlock: UVAHIK_clean_linker_0, # of connection points: 2
#     Edge 61, Type (0, 0), BuildingBlock: UVAHIK_clean_linker_0, # of connection points: 2
#     Edge 62, Type (0, 0), BuildingBlock: UVAHIK_clean_linker_0, # of connection points: 2
#     Edge 63, Type (0, 0), BuildingBlock: UVAHIK_clean_linker_0, # of connection points: 2
#     Edge 64, Type (0, 0), BuildingBlock: UVAHIK_clean_linker_0, # of connection points: 2
#     Edge 65, Type (0, 0), BuildingBlock: UVAHIK_clean_linker_0, # of connection points: 2
#     Edge 66, Type (0, 0), BuildingBlock: UVAHIK_clean_linker_0, # of connection points: 2
#     Edge 67, Type (0, 0), BuildingBlock: UVAHIK_clean_linker_0, # of connection points: 2
#     Edge 68, Type (0, 0), BuildingBlock: UVAHIK_clean_linker_0, # of connection points: 2
#     Edge 69, Type (0, 0), BuildingBlock: UVAHIK_clean_linker_0, # of connection points: 2
#     Edge 70, Type (0, 0), BuildingBlock: UVAHIK_clean_linker_0, # of connection points: 2
#     Edge 71, Type (0, 0), BuildingBlock: UVAHIK_clean_linker_0, # of connection points: 2
#     Edge 72, Type (0, 0), BuildingBlock: UVAHIK_clean_linker_0, # of connection points: 2
#     Edge 73, Type (0, 0), BuildingBlock: UVAHIK_clean_linker_0, # of connection points: 2
#     Edge 74, Type (0, 0), BuildingBlock: UVAHIK_clean_linker_0, # of connection points: 2
#     Edge 75, Type (0, 0), BuildingBlock: UVAHIK_clean_linker_0, # of connection points: 2
#     Edge 76, Type (0, 0), BuildingBlock: UVAHIK_clean_linker_0, # of connection points: 2
#     Edge 77, Type (0, 0), BuildingBlock: UVAHIK_clean_linker_0, # of connection points: 2
#     Edge 78, Type (0, 0), BuildingBlock: UVAHIK_clean_linker_0, # of connection points: 2
#     Edge 79, Type (0, 0), BuildingBlock: UVAHIK_clean_linker_0, # of connection points: 2
#     Edge 80, Type (0, 0), BuildingBlock: UVAHIK_clean_linker_0, # of connection points: 2
#     Edge 81, Type (0, 0), BuildingBlock: UVAHIK_clean_linker_0, # of connection points: 2
#     Edge 82, Type (0, 0), BuildingBlock: UVAHIK_clean_linker_0, # of connection points: 2
#     Edge 83, Type (0, 0), BuildingBlock: UVAHIK_clean_linker_0, # of connection points: 2
#     Edge 84, Type (0, 0), BuildingBlock: UVAHIK_clean_linker_0, # of connection points: 2
#     Edge 85, Type (0, 0), BuildingBlock: UVAHIK_clean_linker_0, # of connection points: 2
#     Edge 86, Type (0, 0), BuildingBlock: UVAHIK_clean_linker_0, # of connection points: 2
#     Edge 87, Type (0, 0), BuildingBlock: UVAHIK_clean_linker_0, # of connection points: 2
#     Edge 88, Type (0, 0), BuildingBlock: UVAHIK_clean_linker_0, # of connection points: 2
#     Edge 89, Type (0, 0), BuildingBlock: UVAHIK_clean_linker_0, # of connection points: 2
#     Edge 90, Type (0, 0), BuildingBlock: UVAHIK_clean_linker_0, # of connection points: 2
#     Edge 91, Type (0, 0), BuildingBlock: UVAHIK_clean_linker_0, # of connection points: 2
#     Edge 92, Type (0, 0), BuildingBlock: UVAHIK_clean_linker_0, # of connection points: 2
#     Edge 93, Type (0, 0), BuildingBlock: UVAHIK_clean_linker_0, # of connection points: 2
#     Edge 94, Type (0, 0), BuildingBlock: UVAHIK_clean_linker_0, # of connection points: 2
#     Edge 95, Type (0, 0), BuildingBlock: UVAHIK_clean_linker_0, # of connection points: 2
#     Edge 96, Type (0, 0), BuildingBlock: UVAHIK_clean_linker_0, # of connection points: 2
#     Edge 97, Type (0, 0), BuildingBlock: UVAHIK_clean_linker_0, # of connection points: 2
#     Edge 98, Type (0, 0), BuildingBlock: UVAHIK_clean_linker_0, # of connection points: 2
#     Edge 99, Type (0, 0), BuildingBlock: UVAHIK_clean_linker_0, # of connection points: 2
#     Edge 100, Type (0, 0), BuildingBlock: UVAHIK_clean_linker_0, # of connection points: 2
#     Edge 101, Type (0, 0), BuildingBlock: UVAHIK_clean_linker_0, # of connection points: 2
#     Edge 102, Type (0, 0), BuildingBlock: UVAHIK_clean_linker_0, # of connection points: 2
#     Edge 103, Type (0, 0), BuildingBlock: UVAHIK_clean_linker_0, # of connection points: 2
#     Edge 104, Type (0, 0), BuildingBlock: UVAHIK_clean_linker_0, # of connection points: 2
#     Edge 105, Type (0, 0), BuildingBlock: UVAHIK_clean_linker_0, # of connection points: 2
#     Edge 106, Type (0, 0), BuildingBlock: UVAHIK_clean_linker_0, # of connection points: 2
#     Edge 107, Type (0, 0), BuildingBlock: UVAHIK_clean_linker_0, # of connection points: 2
# Relax obj value: 0.252
# Max RMSD: 0.179
# Mean RMSD: 0.179
data_MOF--net-ukv--node1-NAHDIM_clean_sbu_0--edge1-UVAHIK_clean_linker_0
_symmetry_space_group_name_H-M    P1
_symmetry_Int_Tables_number       1
_symmetry_cell_setting            triclinic
loop_
_symmetry_equiv_pos_as_xyz
'x, y, z'
_cell_length_a     123.18722
_cell_length_b     123.16829
_cell_length_c     26.052702
_cell_angle_alpha  90.004188
_cell_angle_beta   90.001957
_cell_angle_gamma 119.97846
loop_
_atom_site_label
_atom_site_type_symbol
_atom_site_fract_x
_atom_site_fract_y
_atom_site_fract_z
_atom_type_partial_charge
C0 C 0.23918 0.04897 0.04935 0.0
O1 O 0.25046 0.05341 0.03005 0.0
O2 O 0.25796 0.07742 0.97883 0.0
Zn3 Zn 0.23974 0.07018 0.99683 0.0
O4 O 0.23764 0.08276 0.03819 0.0
C5 C 0.23411 0.06522 0.88939 0.0
O6 O 0.24285 0.06209 0.89165 0.0
O7 O 0.23289 0.05428 0.03837 0.0
C8 C 0.24122 0.09363 0.02029 0.0
O9 O 0.24667 0.09666 0.97507 0.0
C10 C 0.26702 0.0825 0.01036 0.0
O11 O 0.26468 0.08287 0.05933 0.0
O12 O 0.23052 0.06796 0.93067 0.0
C13 C 0.95483 0.19374 0.03425 0.0
O14 O 0.9522 0.2014 0.00921 0.0
O15 O 0.92619 0.18668 0.97228 0.0
Zn16 Zn 0.93192 0.17424 0.98685 0.0
O17 O 0.91883 0.15949 0.02679 0.0
C18 C 0.93432 0.17219 0.87698 0.0
O19 O 0.93689 0.1839 0.87605 0.0
O20 O 0.94787 0.18198 0.02825 0.0
C21 C 0.90738 0.15651 0.03076 0.0
O22 O 0.90347 0.16361 0.00959 0.0
C23 C 0.92308 0.19195 0.00658 0.0
O24 O 0.92368 0.18943 0.05515 0.0
O25 O 0.93313 0.16685 0.92001 0.0
C26 C 0.81579 0.76131 0.08551 0.0
O27 O 0.82102 0.75552 0.108 0.0
O28 O 0.81296 0.73627 0.98056 0.0
Zn29 Zn 0.82486 0.7543 0.9989 0.0
O30 O 0.83879 0.75544 0.04293 0.0
C31 C 0.82785 0.7593 0.89008 0.0
O32 O 0.81599 0.75052 0.88869 0.0
O33 O 0.81606 0.76206 0.03675 0.0
C34 C 0.84643 0.75224 0.02561 0.0
O35 O 0.84482 0.74763 0.97895 0.0
C36 C 0.80472 0.7279 0.00941 0.0
O37 O 0.8034 0.73076 0.05668 0.0
O38 O 0.83314 0.7632 0.93337 0.0
C39 C 0.04244 0.23959 0.45336 0.0
O40 O 0.04839 0.25167 0.46301 0.0
O41 O 0.07022 0.25876 0.52647 0.0
Zn42 Zn 0.06359 0.24069 0.5067 0.0
O43 O 0.07566 0.23959 0.45831 0.0
C44 C 0.06305 0.23501 0.61461 0.0
O45 O 0.0596 0.24346 0.62021 0.0
O46 O 0.04679 0.23291 0.47109 0.0
C47 C 0.08688 0.24346 0.47236 0.0
O48 O 0.09059 0.24877 0.51759 0.0
C49 C 0.07609 0.26783 0.49552 0.0
O50 O 0.07751 0.26548 0.44756 0.0
O51 O 0.06391 0.23151 0.56967 0.0
C52 C 0.75961 0.8152 0.40639 0.0
O53 O 0.75231 0.81904 0.3864 0.0
O54 O 0.73614 0.81436 0.50326 0.0
Zn55 Zn 0.75471 0.82581 0.49272 0.0
O56 O 0.75803 0.84114 0.45266 0.0
C57 C 0.75751 0.8261 0.60306 0.0
O58 O 0.74789 0.81467 0.5999 0.0
O59 O 0.76212 0.8169 0.45407 0.0
C60 C 0.75629 0.84952 0.4731 0.0
O61 O 0.75187 0.84785 0.5201 0.0
C62 C 0.72769 0.81555 0.48026 0.0
O63 O 0.73096 0.82434 0.44536 0.0
O64 O 0.76254 0.83208 0.56199 0.0
C65 C 0.19541 0.95678 0.45255 0.0
O66 O 0.20221 0.95183 0.46687 0.0
O67 O 0.1875 0.92906 0.52283 0.0
Zn68 Zn 0.17558 0.93523 0.50526 0.0
O69 O 0.16168 0.9224 0.46137 0.0
C70 C 0.17159 0.93547 0.6141 0.0
O71 O 0.18294 0.93706 0.61661 0.0
O72 O 0.18401 0.95162 0.46655 0.0
C73 C 0.15456 0.91154 0.47978 0.0
O74 O 0.1569 0.90887 0.52586 0.0
C75 C 0.1904 0.92283 0.49252 0.0
O76 O 0.18586 0.92053 0.44564 0.0
O77 O 0.16714 0.93581 0.57049 0.0
C78 C 0.75663 0.95022 0.93438 0.0
O79 O 0.74445 0.94327 0.94039 0.0
O80 O 0.73871 0.92445 0.01925 0.0
Zn81 Zn 0.75676 0.93117 0.99895 0.0
O82 O 0.75816 0.91834 0.95634 0.0
C83 C 0.76321 0.93554 0.10633 0.0
O84 O 0.75454 0.93877 0.10705 0.0
O85 O 0.7638 0.9472 0.95772 0.0
C86 C 0.7544 0.90742 0.97415 0.0
O87 O 0.7492 0.90454 0.01985 0.0
C88 C 0.72947 0.91724 0.99101 0.0
O89 O 0.73156 0.91431 0.94501 0.0
O90 O 0.7664 0.93299 0.06359 0.0
C91 C 0.04859 0.82219 0.95217 0.0
O92 O 0.05534 0.83448 0.95237 0.0
O93 O 0.07449 0.81358 0.03958 0.0
Zn94 Zn 0.06779 0.82504 0.02197 0.0
O95 O 0.08066 0.83952 0.98044 0.0
C96 C 0.06476 0.82717 0.13071 0.0
O97 O 0.06232 0.8155 0.13135 0.0
O98 O 0.05176 0.81596 0.98126 0.0
C99 C 0.08348 0.83853 0.93446 0.0
O100 O 0.07796 0.82747 0.91229 0.0
C101 C 0.07347 0.80466 0.01167 0.0
O102 O 0.06766 0.80243 0.96733 0.0
O103 O 0.06616 0.83261 0.08775 0.0
C104 C 0.19534 0.23957 0.96329 0.0
O105 O 0.20263 0.25087 0.98169 0.0
O106 O 0.18682 0.26033 0.0261 0.0
Zn107 Zn 0.17507 0.24213 0.00919 0.0
O108 O 0.16104 0.24042 0.96409 0.0
C109 C 0.17143 0.23777 0.11843 0.0
O110 O 0.18294 0.24727 0.12094 0.0
O111 O 0.18364 0.23407 0.97235 0.0
C112 C 0.15719 0.24826 0.96408 0.0
O113 O 0.16283 0.25832 0.99303 0.0
C114 C 0.19211 0.26928 0.99416 0.0
O115 O 0.1904 0.26688 0.94475 0.0
O116 O 0.1667 0.23336 0.07472 0.0
C117 C 0.95226 0.75835 0.57241 0.0
O118 O 0.94378 0.74664 0.58182 0.0
O119 O 0.92861 0.73723 0.48295 0.0
Zn120 Zn 0.93366 0.75515 0.49978 0.0
O121 O 0.92082 0.75579 0.54531 0.0
C122 C 0.93497 0.75969 0.39058 0.0
O123 O 0.93857 0.75129 0.38925 0.0
O124 O 0.95031 0.76413 0.53638 0.0
C125 C 0.90995 0.75251 0.52811 0.0
O126 O 0.90702 0.74809 0.48115 0.0
C127 C 0.92087 0.72781 0.50917 0.0
O128 O 0.91618 0.72961 0.55147 0.0
O129 O 0.9334 0.76348 0.43383 0.0
C130 C 0.23952 0.18378 0.59246 0.0
O131 O 0.24524 0.1779 0.60934 0.0
O132 O 0.26156 0.18463 0.48252 0.0
Zn133 Zn 0.24326 0.17403 0.50035 0.0
O134 O 0.24036 0.15865 0.53861 0.0
C135 C 0.23798 0.17386 0.39243 0.0
O136 O 0.24754 0.18535 0.39428 0.0
O137 O 0.23742 0.18363 0.54456 0.0
C138 C 0.24321 0.15094 0.51927 0.0
O139 O 0.24858 0.15328 0.47391 0.0
C140 C 0.27058 0.18701 0.5127 0.0
O141 O 0.26818 0.18264 0.55982 0.0
O142 O 0.23383 0.16777 0.43403 0.0
C143 C 0.80436 0.04172 0.52843 0.0
O144 O 0.79677 0.04356 0.49902 0.0
O145 O 0.81177 0.07148 0.4699 0.0
Zn146 Zn 0.82397 0.06557 0.48647 0.0
O147 O 0.83857 0.07867 0.52711 0.0
C148 C 0.82646 0.06312 0.37691 0.0
O149 O 0.81464 0.06019 0.37513 0.0
O150 O 0.81605 0.04953 0.52725 0.0
C151 C 0.84018 0.08932 0.54006 0.0
O152 O 0.83159 0.09227 0.52876 0.0
C153 C 0.80442 0.0725 0.50125 0.0
O154 O 0.80427 0.06934 0.54953 0.0
O155 O 0.8317 0.0645 0.42032 0.0
C156 C 0.90576 0.38402 0.41925 0.0
O157 O 0.91306 0.39516 0.43911 0.0
O158 O 0.9297 0.40657 0.32365 0.0
Zn159 Zn 0.91109 0.39955 0.33303 0.0
O160 O 0.90748 0.41151 0.37214 0.0
C161 C 0.90901 0.39741 0.22257 0.0
O162 O 0.91858 0.39553 0.22684 0.0
O163 O 0.90338 0.38317 0.37144 0.0
C164 C 0.91302 0.42319 0.36273 0.0
O165 O 0.92182 0.42793 0.32749 0.0
C166 C 0.93835 0.41469 0.35197 0.0
O167 O 0.9354 0.41879 0.3932 0.0
O168 O 0.90369 0.3982 0.26305 0.0
C169 C 0.6179 0.52207 0.3714 0.0
O170 O 0.61746 0.52981 0.33792 0.0
O171 O 0.58892 0.51582 0.30766 0.0
Zn172 Zn 0.59391 0.50313 0.32709 0.0
O173 O 0.58021 0.48922 0.36785 0.0
C174 C 0.59814 0.50096 0.21951 0.0
O175 O 0.60162 0.51293 0.21881 0.0
O176 O 0.60932 0.51063 0.37139 0.0
C177 C 0.56931 0.48223 0.3496 0.0
O178 O 0.56664 0.48453 0.30345 0.0
C179 C 0.58601 0.52181 0.33926 0.0
O180 O 0.58637 0.51994 0.38873 0.0
O181 O 0.59552 0.49523 0.26225 0.0
C182 C 0.47031 0.09356 0.3727 0.0
O183 O 0.4632 0.08193 0.35744 0.0
O184 O 0.47842 0.07271 0.31021 0.0
Zn185 Zn 0.49035 0.09087 0.32629 0.0
O186 O 0.50395 0.09208 0.37245 0.0
C187 C 0.49349 0.09515 0.21722 0.0
O188 O 0.48156 0.08656 0.21631 0.0
O189 O 0.48192 0.09928 0.36168 0.0
C190 C 0.51101 0.088 0.3566 0.0
O191 O 0.50888 0.08265 0.31125 0.0
C192 C 0.47423 0.0639 0.34296 0.0
O193 O 0.47733 0.06655 0.39149 0.0
O194 O 0.49885 0.09921 0.26029 0.0
C195 C 0.70815 0.56994 0.78328 0.0
O196 O 0.70978 0.57973 0.8097 0.0
O197 O 0.73677 0.59281 0.84492 0.0
Zn198 Zn 0.73193 0.57496 0.82895 0.0
O199 O 0.7453 0.57445 0.78669 0.0
C200 C 0.72923 0.57017 0.93799 0.0
O201 O 0.72575 0.57866 0.93766 0.0
O202 O 0.71601 0.56617 0.78792 0.0
C203 C 0.75614 0.57788 0.80457 0.0
O204 O 0.75895 0.58251 0.85125 0.0
C205 C 0.74325 0.60203 0.81543 0.0
O206 O 0.74676 0.60002 0.77048 0.0
O207 O 0.73127 0.56642 0.89552 0.0
C208 C 0.42475 0.14864 0.74112 0.0
O209 O 0.41825 0.15376 0.72484 0.0
O210 O 0.40286 0.14765 0.85011 0.0
Zn211 Zn 0.42115 0.15858 0.83263 0.0
O212 O 0.42378 0.1738 0.7939 0.0
C213 C 0.42635 0.15925 0.94095 0.0
O214 O 0.41679 0.14775 0.93986 0.0
O215 O 0.42737 0.14927 0.78868 0.0
C216 C 0.42104 0.18158 0.81346 0.0
O217 O 0.41594 0.17938 0.85933 0.0
C218 C 0.39386 0.14613 0.82146 0.0
O219 O 0.39631 0.15164 0.77639 0.0
O220 O 0.43053 0.16512 0.89891 0.0
C221 C 0.8471 0.27694 0.75563 0.0
O222 O 0.84107 0.26562 0.73593 0.0
O223 O 0.85106 0.25624 0.86486 0.0
Zn224 Zn 0.83916 0.26246 0.84747 0.0
O225 O 0.8239 0.24911 0.81043 0.0
C226 C 0.83851 0.26682 0.95622 0.0
O227 O 0.85021 0.26934 0.95475 0.0
O228 O 0.84766 0.27819 0.80421 0.0
C229 C 0.823 0.23927 0.7906 0.0
O230 O 0.83262 0.23743 0.79261 0.0
C231 C 0.8594 0.25634 0.83581 0.0
O232 O 0.86072 0.26071 0.78885 0.0
O233 O 0.83251 0.26487 0.91435 0.0
C234 C 0.42502 0.28392 0.27859 0.0
O235 O 0.41285 0.27742 0.2859 0.0
O236 O 0.40653 0.25651 0.3546 0.0
Zn237 Zn 0.42478 0.2637 0.33684 0.0
O238 O 0.42685 0.25135 0.29362 0.0
C239 C 0.4302 0.2679 0.44473 0.0
O240 O 0.42163 0.27128 0.44299 0.0
O241 O 0.43194 0.28009 0.29834 0.0
C242 C 0.42331 0.24045 0.31115 0.0
O243 O 0.41801 0.23739 0.35663 0.0
C244 C 0.39747 0.24996 0.32446 0.0
O245 O 0.39982 0.24797 0.27726 0.0
O246 O 0.43375 0.26527 0.40309 0.0
C247 C 0.71397 0.13755 0.27319 0.0
O248 O 0.72013 0.13158 0.28181 0.0
O249 O 0.73985 0.14456 0.35397 0.0
Zn250 Zn 0.73377 0.15654 0.33547 0.0
O251 O 0.7468 0.17079 0.29355 0.0
C252 C 0.73049 0.15886 0.44389 0.0
O253 O 0.72726 0.14695 0.44475 0.0
O254 O 0.71772 0.14816 0.29425 0.0
C255 C 0.7575 0.17814 0.31275 0.0
O256 O 0.76011 0.1759 0.35909 0.0
C257 C 0.74708 0.14255 0.32577 0.0
O258 O 0.75065 0.14823 0.28116 0.0
O259 O 0.73245 0.1644 0.40089 0.0
C260 C 0.85745 0.5703 0.28751 0.0
O261 O 0.86531 0.57888 0.31951 0.0
O262 O 0.85088 0.59374 0.34588 0.0
Zn263 Zn 0.83844 0.5758 0.32889 0.0
O264 O 0.82444 0.575 0.2867 0.0
C265 C 0.8364 0.5708 0.43762 0.0
O266 O 0.84832 0.57944 0.43731 0.0
O267 O 0.84603 0.5675 0.28738 0.0
C268 C 0.81682 0.57811 0.30502 0.0
O269 O 0.81851 0.58256 0.35197 0.0
C270 C 0.85841 0.60213 0.3151 0.0
O271 O 0.85856 0.59929 0.26661 0.0
O272 O 0.83064 0.567 0.39514 0.0
C273 C 0.62171 0.09285 0.87045 0.0
O274 O 0.61805 0.0818 0.85003 0.0
O275 O 0.5926 0.07163 0.81005 0.0
Zn276 Zn 0.59859 0.08974 0.82622 0.0
O277 O 0.58606 0.09085 0.87182 0.0
C278 C 0.59992 0.09415 0.71718 0.0
O279 O 0.60306 0.08541 0.71616 0.0
O280 O 0.61522 0.09811 0.863 0.0
C281 C 0.575 0.08706 0.85566 0.0
O282 O 0.5718 0.08195 0.80988 0.0
C283 C 0.58851 0.06288 0.84306 0.0
O284 O 0.58841 0.06557 0.8918 0.0
O285 O 0.59865 0.09822 0.7603 0.0
C286 C 0.90301 0.52368 0.88255 0.0
O287 O 0.91157 0.53155 0.85053 0.0
O288 O 0.92635 0.51821 0.81994 0.0
Zn289 Zn 0.90896 0.50512 0.841 0.0
O290 O 0.90985 0.49219 0.88459 0.0
C291 C 0.90165 0.50046 0.73333 0.0
O292 O 0.90906 0.5126 0.72765 0.0
O293 O 0.90026 0.51227 0.88271 0.0
C294 C 0.91452 0.48582 0.86679 0.0
O295 O 0.91953 0.48838 0.8207 0.0
C296 C 0.93496 0.52488 0.85167 0.0
O297 O 0.93245 0.52359 0.90104 0.0
O298 O 0.89955 0.49577 0.77812 0.0
C299 C 0.47755 0.38539 0.91382 0.0
O300 O 0.48043 0.39671 0.92881 0.0
O301 O 0.47789 0.40694 0.81512 0.0
Zn302 Zn 0.48932 0.39987 0.82744 0.0
O303 O 0.50457 0.41203 0.86746 0.0
C304 C 0.48933 0.39644 0.7179 0.0
O305 O 0.47779 0.39431 0.72147 0.0
O306 O 0.48032 0.38391 0.86832 0.0
C307 C 0.51301 0.42218 0.84748 0.0
O308 O 0.51153 0.42497 0.80027 0.0
C309 C 0.47895 0.41663 0.83722 0.0
O310 O 0.4877 0.42237 0.8721 0.0
O311 O 0.49555 0.39788 0.75876 0.0
C312 C 0.57488 0.71706 0.73788 0.0
O313 O 0.58661 0.7261 0.74073 0.0
O314 O 0.59272 0.7416 0.64965 0.0
Zn315 Zn 0.57427 0.73411 0.66538 0.0
O316 O 0.57136 0.74628 0.70622 0.0
C317 C 0.5698 0.73025 0.55655 0.0
O318 O 0.57907 0.72788 0.55874 0.0
O319 O 0.56759 0.71809 0.70615 0.0
C320 C 0.5733 0.75647 0.68588 0.0
O321 O 0.57759 0.7591 0.63866 0.0
C322 C 0.60135 0.7511 0.6727 0.0
O323 O 0.59841 0.75614 0.71076 0.0
O324 O 0.56546 0.73197 0.59809 0.0
C325 C 0.27686 0.8489 0.75652 0.0
O326 O 0.26557 0.84308 0.77657 0.0
O327 O 0.25619 0.85291 0.6464 0.0
Zn328 Zn 0.26209 0.84089 0.66571 0.0
O329 O 0.24868 0.82654 0.70585 0.0
C330 C 0.26551 0.8381 0.55715 0.0
O331 O 0.26864 0.84997 0.55422 0.0
O332 O 0.27801 0.84937 0.70788 0.0
C333 C 0.23795 0.81946 0.68631 0.0
O334 O 0.23544 0.82203 0.64036 0.0
C335 C 0.2531 0.85865 0.67845 0.0
O336 O 0.25396 0.85704 0.72781 0.0
O337 O 0.26363 0.83294 0.60097 0.0
C338 C 0.14812 0.42813 0.75473 0.0
O339 O 0.15257 0.42143 0.7755 0.0
O340 O 0.14552 0.40388 0.65077 0.0
Zn341 Zn 0.15751 0.42202 0.66707 0.0
O342 O 0.1719 0.42358 0.70911 0.0
C343 C 0.1594 0.42669 0.5579 0.0
O344 O 0.1476 0.41773 0.55817 0.0
O345 O 0.14896 0.42979 0.70637 0.0
C346 C 0.17934 0.4202 0.69119 0.0
O347 O 0.17723 0.4151 0.64532 0.0
C348 C 0.14232 0.39477 0.68148 0.0
O349 O 0.14668 0.39698 0.72863 0.0
O350 O 0.16508 0.43072 0.60039 0.0
C351 C 0.38477 0.90439 0.08913 0.0
O352 O 0.39578 0.91193 0.06876 0.0
O353 O 0.40697 0.92755 0.19053 0.0
Zn354 Zn 0.40087 0.90946 0.17317 0.0
O355 O 0.41315 0.90805 0.12692 0.0
C356 C 0.40063 0.90509 0.2822 0.0
O357 O 0.39857 0.91455 0.2852 0.0
O358 O 0.38418 0.9017 0.13658 0.0
C359 C 0.42433 0.91168 0.14098 0.0
O360 O 0.42817 0.91703 0.18607 0.0
C361 C 0.41349 0.93679 0.16113 0.0
O362 O 0.41639 0.93476 0.11497 0.0
O363 O 0.40072 0.90062 0.23832 0.0
C364 C 0.09753 0.48587 0.08505 0.0
O365 O 0.09111 0.4907 0.06497 0.0
O366 O 0.07273 0.48251 0.18382 0.0
Zn367 Zn 0.09117 0.49463 0.17358 0.0
O368 O 0.09409 0.51016 0.13593 0.0
C369 C 0.09377 0.4942 0.28373 0.0
O370 O 0.08452 0.4826 0.27913 0.0
O371 O 0.09905 0.48634 0.13346 0.0
C372 C 0.08756 0.51537 0.14354 0.0
O373 O 0.07816 0.51036 0.17606 0.0
C374 C 0.06386 0.48088 0.15415 0.0
O375 O 0.06643 0.48725 0.11108 0.0
O376 O 0.09874 0.50059 0.24343 0.0
C377 C 0.5283 0.62199 0.13032 0.0
O378 O 0.53611 0.61971 0.15607 0.0
O379 O 0.5219 0.59338 0.19196 0.0
Zn380 Zn 0.50916 0.59857 0.17583 0.0
O381 O 0.4953 0.58497 0.13391 0.0
C382 C 0.50706 0.6013 0.28535 0.0
O383 O 0.51891 0.60432 0.28584 0.0
O384 O 0.51658 0.61456 0.13482 0.0
C385 C 0.48429 0.58339 0.1368 0.0
O386 O 0.48226 0.5908 0.16663 0.0
C387 C 0.52646 0.58925 0.15866 0.0
O388 O 0.52317 0.58868 0.11034 0.0
O389 O 0.50146 0.59949 0.24254 0.0
C390 C 0.09238 0.61175 0.57511 0.0
O391 O 0.08511 0.60022 0.559 0.0
O392 O 0.07021 0.59271 0.68785 0.0
Zn393 Zn 0.08789 0.598 0.66651 0.0
O394 O 0.08832 0.58431 0.62614 0.0
C395 C 0.09522 0.60206 0.77415 0.0
O396 O 0.08681 0.60561 0.77843 0.0
O397 O 0.09518 0.61361 0.62255 0.0
C398 C 0.08446 0.57347 0.64492 0.0
O399 O 0.07941 0.57088 0.69091 0.0
C400 C 0.0607 0.58604 0.65993 0.0
O401 O 0.06231 0.58253 0.61428 0.0
O402 O 0.09784 0.59966 0.72993 0.0
C403 C 0.37862 0.47285 0.61899 0.0
O404 O 0.38315 0.46582 0.63532 0.0
O405 O 0.40678 0.48056 0.68409 0.0
Zn406 Zn 0.4006 0.49264 0.66962 0.0
O407 O 0.4133 0.50695 0.62697 0.0
C408 C 0.39926 0.49515 0.7794 0.0
O409 O 0.39729 0.48363 0.77987 0.0
O410 O 0.38421 0.4844 0.63095 0.0
C411 C 0.42407 0.51433 0.64557 0.0
O412 O 0.42684 0.51212 0.69169 0.0
C413 C 0.41444 0.47933 0.65543 0.0
O414 O 0.41834 0.48586 0.6128 0.0
O415 O 0.39983 0.50034 0.73656 0.0
C416 C 0.53157 0.90695 0.62416 0.0
O417 O 0.53801 0.91889 0.63615 0.0
O418 O 0.5229 0.92645 0.69307 0.0
Zn419 Zn 0.51131 0.90833 0.67474 0.0
O420 O 0.49792 0.90699 0.62686 0.0
C421 C 0.50705 0.90355 0.78324 0.0
O422 O 0.51874 0.91267 0.78639 0.0
O423 O 0.52027 0.90049 0.63915 0.0
C424 C 0.49055 0.9109 0.64025 0.0
O425 O 0.49213 0.91638 0.68509 0.0
C426 C 0.52607 0.93559 0.6625 0.0
O427 O 0.52203 0.93336 0.61487 0.0
O428 O 0.50235 0.8994 0.73922 0.0
C429 C 0.28469 0.42468 0.22246 0.0
O430 O 0.27893 0.41263 0.21223 0.0
O431 O 0.25763 0.40547 0.14713 0.0
Zn432 Zn 0.26413 0.42366 0.16426 0.0
O433 O 0.25148 0.42523 0.20737 0.0
C434 C 0.26732 0.42868 0.05571 0.0
O435 O 0.27051 0.41997 0.05637 0.0
O436 O 0.28041 0.43134 0.20389 0.0
C437 C 0.2406 0.42177 0.18981 0.0
O438 O 0.23759 0.41672 0.14386 0.0
C439 C 0.251 0.39644 0.1773 0.0
O440 O 0.24845 0.39886 0.22344 0.0
O441 O 0.2653 0.43251 0.09801 0.0
C442 C 0.57471 0.85921 0.21621 0.0
O443 O 0.5859 0.86615 0.19624 0.0
O444 O 0.59375 0.84983 0.14641 0.0
Zn445 Zn 0.57555 0.83865 0.16427 0.0
O446 O 0.57366 0.82415 0.20627 0.0
C447 C 0.56986 0.83705 0.05612 0.0
O448 O 0.5789 0.84881 0.05611 0.0
O449 O 0.56854 0.84758 0.20566 0.0
C450 C 0.57714 0.81677 0.1885 0.0
O451 O 0.58246 0.81903 0.14305 0.0
C452 C 0.60268 0.8538 0.1786 0.0
O453 O 0.60013 0.85089 0.22733 0.0
O454 O 0.56624 0.83126 0.09861 0.0
C455 C 0.13876 0.71153 0.20251 0.0
O456 O 0.13134 0.71531 0.18344 0.0
O457 O 0.14594 0.73999 0.1413 0.0
Zn458 Zn 0.15828 0.734 0.1533 0.0
O459 O 0.1733 0.7468 0.19294 0.0
C460 C 0.1585 0.73069 0.04358 0.0
O461 O 0.14669 0.72773 0.04697 0.0
O462 O 0.15043 0.71775 0.19283 0.0
C463 C 0.17711 0.75848 0.19244 0.0
O464 O 0.17086 0.76269 0.16628 0.0
C465 C 0.1419 0.74452 0.1751 0.0
O466 O 0.14575 0.74549 0.22278 0.0
O467 O 0.16485 0.73271 0.08448 0.0
C468 C 0.21272 0.97222 0.39609 0.0
C469 C 0.20052 0.96735 0.41569 0.0
C470 C 0.21714 0.98135 0.35763 0.0
C471 C 0.21147 0.00494 0.29443 0.0
H472 H 0.22893 0.00037 0.17993 0.0
C473 C 0.22238 0.03419 0.10942 0.0
C474 C 0.23435 0.03875 0.08782 0.0
C475 C 0.21822 0.02532 0.14884 0.0
C476 C 0.22419 0.00186 0.21185 0.0
H477 H 0.18356 0.96855 0.41141 0.0
H478 H 0.19128 0.98444 0.34422 0.0
H479 H 0.22212 0.98576 0.25183 0.0
H480 H 0.2512 0.03733 0.08991 0.0
H481 H 0.24398 0.02194 0.15897 0.0
H482 H 0.21355 0.02105 0.25453 0.0
C483 C 0.19744 0.98126 0.35878 0.0
C484 C 0.22031 0.9935 0.2531 0.0
C485 C 0.19301 0.97211 0.39719 0.0
C486 C 0.24192 0.03399 0.10559 0.0
C487 C 0.23777 0.02513 0.1451 0.0
C488 C 0.21538 0.01332 0.25322 0.0
C489 C 0.20949 0.98583 0.33798 0.0
C490 C 0.21388 0.99493 0.29482 0.0
C491 C 0.22593 0.02081 0.16765 0.0
C492 C 0.22175 0.01186 0.21137 0.0
H493 H 0.21878 0.96881 0.40963 0.0
H494 H 0.22654 0.98484 0.34299 0.0
H495 H 0.20669 0.00639 0.32629 0.0
H496 H 0.21628 0.03761 0.09646 0.0
H497 H 0.20897 0.02202 0.1647 0.0
C498 C 0.96751 0.19041 0.10106 0.0
C499 C 0.96475 0.19861 0.07395 0.0
C500 C 0.97596 0.19478 0.14203 0.0
C501 C 0.98919 0.2199 0.23839 0.0
H502 H 0.01349 0.20908 0.25937 0.0
C503 C 0.02839 0.24202 0.3908 0.0
C504 C 0.03199 0.23423 0.41599 0.0
C505 C 0.01964 0.23736 0.35093 0.0
C506 C 0.00663 0.21204 0.25452 0.0
H507 H 0.96904 0.21793 0.06758 0.0
H508 H 0.98384 0.22554 0.13896 0.0
H509 H -6e-05 0.20187 0.18407 0.0
H510 H 0.02876 0.21525 0.42069 0.0
H511 H 0.01331 0.20706 0.35175 0.0
H512 H 0.99582 0.23003 0.3089 0.0
C513 C 0.97934 0.2157 0.12886 0.0
C514 C 0.9989 0.20795 0.21123 0.0
C515 C 0.97093 0.21135 0.08771 0.0
C516 C 0.02625 0.22153 0.4019 0.0
C517 C 0.01747 0.21686 0.36208 0.0
C518 C 0.99688 0.22396 0.28177 0.0
C519 C 0.9818 0.20742 0.15694 0.0
C520 C 0.99012 0.21187 0.2026 0.0
C521 C 0.01425 0.22478 0.33543 0.0
C522 C 0.00572 0.22011 0.29031 0.0
H523 H 0.96292 0.18054 0.09146 0.0
H524 H 0.9776 0.18815 0.1631 0.0
H525 H 0.98236 0.22291 0.23327 0.0
H526 H 0.03263 0.25186 0.40062 0.0
H527 H 0.01746 0.24376 0.331 0.0
C528 C 0.7724 0.80468 0.39437 0.0
C529 C 0.76507 0.80938 0.37332 0.0
C530 C 0.77773 0.79943 0.36268 0.0
C531 C 0.77521 0.78595 0.23288 0.0
H532 H 0.80899 0.79293 0.26152 0.0
C533 C 0.80329 0.77228 0.09417 0.0
C534 C 0.80984 0.76691 0.11702 0.0
C535 C 0.79774 0.77755 0.12461 0.0
C536 C 0.79951 0.79081 0.25326 0.0
H537 H 0.75757 0.81222 0.30242 0.0
H538 H 0.76702 0.80328 0.24724 0.0
H539 H 0.79941 0.8018 0.3166 0.0
H540 H 0.81567 0.76285 0.18974 0.0
H541 H 0.80602 0.772 0.24248 0.0
H542 H 0.7754 0.77502 0.16922 0.0
C543 C 0.76849 0.80345 0.28828 0.0
C544 C 0.794 0.79587 0.28492 0.0
C545 C 0.76313 0.80865 0.31996 0.0
C546 C 0.81072 0.76692 0.17082 0.0
C547 C 0.80525 0.77224 0.20112 0.0
C548 C 0.78076 0.78094 0.20104 0.0
C549 C 0.77589 0.79881 0.3092 0.0
C550 C 0.78176 0.79345 0.27529 0.0
C551 C 0.79871 0.77762 0.17842 0.0
C552 C 0.79294 0.78326 0.21108 0.0
H553 H 0.77403 0.80506 0.43536 0.0
H554 H 0.78322 0.79577 0.38017 0.0
H555 H 0.76571 0.78375 0.22473 0.0
H556 H 0.80245 0.77242 0.05282 0.0
H557 H 0.79284 0.78172 0.10601 0.0
C558 C 0.77472 0.9674 0.88634 0.0
C559 C 0.76179 0.96057 0.89649 0.0
C560 C 0.77941 0.97638 0.84723 0.0
C561 C 0.77133 0.99572 0.76376 0.0
H562 H 0.79692 0.99642 0.67483 0.0
C563 C 0.78634 0.02423 0.57548 0.0
C564 C 0.79931 0.03145 0.56668 0.0
C565 C 0.78168 0.01531 0.61483 0.0
C566 C 0.78985 0.99641 0.69957 0.0
H567 H 0.74369 0.95807 0.87444 0.0
H568 H 0.75184 0.9736 0.80611 0.0
H569 H 0.78918 0.98194 0.74719 0.0
H570 H 0.81752 0.03468 0.59127 0.0
H571 H 0.80939 0.01914 0.6597 0.0
H572 H 0.77196 0.01015 0.71587 0.0
C573 C 0.75839 0.97213 0.82861 0.0
C574 C 0.78544 0.98814 0.74116 0.0
C575 C 0.7537 0.96317 0.86771 0.0
C576 C 0.80748 0.02928 0.59702 0.0
C577 C 0.80282 0.02033 0.63613 0.0
C578 C 0.77571 0.00396 0.72207 0.0
C579 C 0.77128 0.97872 0.8174 0.0
C580 C 0.77614 0.9877 0.7738 0.0
C581 C 0.78988 0.01337 0.64597 0.0
C582 C 0.78503 0.0044 0.68953 0.0
H583 H 0.78121 0.96566 0.90792 0.0
H584 H 0.78941 0.98144 0.84018 0.0
H585 H 0.76428 0.99575 0.78852 0.0
H586 H 0.77979 0.02565 0.55279 0.0
H587 H 0.77165 0.00997 0.62102 0.0
C588 C 0.03108 0.80255 0.91366 0.0
C589 C 0.03824 0.8157 0.91481 0.0
C590 C 0.02192 0.79644 0.87598 0.0
C591 C 0.00263 0.80154 0.78014 0.0
H592 H -0.00046 0.77152 0.71788 0.0
C593 C 0.97107 0.77805 0.60375 0.0
C594 C 0.96325 0.76498 0.60672 0.0
C595 C 0.98071 0.78438 0.63942 0.0
C596 C 0.00024 0.77984 0.73512 0.0
H597 H 0.04124 0.83275 0.87765 0.0
H598 H 0.02541 0.82211 0.81168 0.0
H599 H 0.01501 0.78222 0.78533 0.0
H600 H 0.95971 0.74827 0.64838 0.0
H601 H 0.97652 0.7593 0.71035 0.0
H602 H 0.98787 0.79916 0.72971 0.0
C603 C 0.02674 0.8165 0.84027 0.0
C604 C 0.00907 0.78596 0.77393 0.0
C605 C 0.03586 0.82261 0.87804 0.0
C606 C 0.96555 0.75834 0.64502 0.0
C607 C 0.97522 0.76466 0.68044 0.0
C608 C 0.99383 0.79545 0.74118 0.0
C609 C 0.01973 0.80334 0.83846 0.0
C610 C 0.01033 0.79685 0.7971 0.0
C611 C 0.98279 0.77777 0.67854 0.0
C612 C 0.9925 0.78451 0.71839 0.0
H613 H 0.03265 0.79694 0.94152 0.0
H614 H 0.01654 0.78629 0.87627 0.0
H615 H 0.00322 0.8098 0.7976 0.0
H616 H 0.96955 0.78344 0.57466 0.0
H617 H 0.98649 0.79448 0.63658 0.0
C618 C 0.22915 0.19643 0.61267 0.0
C619 C 0.23546 0.19021 0.62926 0.0
C620 C 0.2252 0.20228 0.64819 0.0
C621 C 0.2112 0.20675 0.7347 0.0
H622 H 0.23235 0.2245 0.85094 0.0
C623 C 0.19259 0.22181 0.90738 0.0
C624 C 0.20045 0.2338 0.92801 0.0
C625 C 0.19714 0.21674 0.87106 0.0
C626 C 0.22637 0.21967 0.81851 0.0
H627 H 0.24261 0.18528 0.69617 0.0
H628 H 0.23562 0.1953 0.75774 0.0
H629 H 0.23999 0.21581 0.78559 0.0
H630 H 0.21934 0.24974 0.92732 0.0
H631 H 0.22726 0.24093 0.86367 0.0
H632 H 0.19765 0.21078 0.76721 0.0
C633 C 0.23387 0.19585 0.71735 0.0
C634 C 0.23069 0.21457 0.78131 0.0
C635 C 0.2378 0.19002 0.68197 0.0
C636 C 0.21304 0.24047 0.91235 0.0
C637 C 0.2176 0.2354 0.87594 0.0
C638 C 0.20687 0.21185 0.77191 0.0
C639 C 0.22751 0.20203 0.70097 0.0
C640 C 0.22312 0.20797 0.73916 0.0
C641 C 0.20966 0.22353 0.85445 0.0
C642 C 0.21437 0.21829 0.81445 0.0
H643 H 0.22723 0.19677 0.5723 0.0
H644 H 0.22043 0.20708 0.63428 0.0
H645 H 0.20508 0.20163 0.70297 0.0
H646 H 0.18284 0.21639 0.91876 0.0
H647 H 0.19085 0.20748 0.85601 0.0
C648 C 0.85172 0.28642 0.66786 0.0
C649 C 0.8532 0.28799 0.72135 0.0
C650 C 0.85748 0.29675 0.63508 0.0
C651 C 0.88353 0.32926 0.62806 0.0
H652 H 0.86495 0.33173 0.51282 0.0
C653 C 0.90224 0.37412 0.50596 0.0
C654 C 0.90011 0.37281 0.45272 0.0
C655 C 0.89669 0.36367 0.53815 0.0
C656 C 0.87033 0.3311 0.54438 0.0
H657 H 0.8619 0.30165 0.78237 0.0
H658 H 0.87196 0.31973 0.72494 0.0
H659 H 0.85485 0.31381 0.57061 0.0
H660 H 0.8906 0.35944 0.39144 0.0
H661 H 0.88103 0.34113 0.44765 0.0
H662 H 0.89904 0.34651 0.60176 0.0
C663 C 0.8664 0.31047 0.70846 0.0
C664 C 0.86453 0.32085 0.57758 0.0
C665 C 0.86058 0.30013 0.74134 0.0
C666 C 0.89239 0.36078 0.43231 0.0
C667 C 0.88685 0.35029 0.46457 0.0
C668 C 0.88935 0.3395 0.59476 0.0
C669 C 0.86489 0.30889 0.65496 0.0
C670 C 0.87105 0.31983 0.61985 0.0
C671 C 0.8889 0.35163 0.51792 0.0
C672 C 0.88281 0.34057 0.55259 0.0
H673 H 0.84612 0.2772 0.65114 0.0
H674 H 0.85626 0.2952 0.59404 0.0
H675 H 0.88887 0.32864 0.65983 0.0
H676 H 0.9081 0.38325 0.52302 0.0
H677 H 0.89832 0.36507 0.57908 0.0
C678 C 0.63769 0.5391 0.41126 0.0
C679 C 0.6276 0.52674 0.41206 0.0
C680 C 0.64643 0.54361 0.45135 0.0
C681 C 0.6579 0.53289 0.56166 0.0
H682 H 0.67114 0.56711 0.60821 0.0
C683 C 0.69809 0.55555 0.70872 0.0
C684 C 0.69812 0.56417 0.74419 0.0
C685 C 0.68927 0.5508 0.66917 0.0
C686 C 0.66742 0.55748 0.59615 0.0
H687 H 0.61878 0.5094 0.45563 0.0
H688 H 0.63373 0.51729 0.52573 0.0
H689 H 0.65634 0.55927 0.53716 0.0
H690 H 0.68866 0.57426 0.76681 0.0
H691 H 0.67299 0.56567 0.69863 0.0
H692 H 0.66859 0.53092 0.62177 0.0
C693 C 0.63513 0.52347 0.49373 0.0
C694 C 0.65908 0.55304 0.55476 0.0
C695 C 0.6265 0.51895 0.45353 0.0
C696 C 0.68892 0.56768 0.73998 0.0
C697 C 0.68 0.56283 0.7006 0.0
C698 C 0.66614 0.53728 0.60328 0.0
C699 C 0.64519 0.53587 0.49333 0.0
C700 C 0.65423 0.54069 0.53691 0.0
C701 C 0.68016 0.55444 0.66432 0.0
C702 C 0.67106 0.54965 0.62098 0.0
H703 H 0.63883 0.54533 0.37978 0.0
H704 H 0.65417 0.55314 0.44931 0.0
H705 H 0.65449 0.52338 0.54865 0.0
H706 H 0.7051 0.5527 0.71058 0.0
H707 H 0.68984 0.54453 0.64158 0.0
C708 C 0.43613 0.137 0.72002 0.0
C709 C 0.42912 0.14254 0.70398 0.0
C710 C 0.44036 0.13147 0.68419 0.0
C711 C 0.45442 0.12748 0.59659 0.0
H712 H 0.43288 0.10837 0.48331 0.0
C713 C 0.47288 0.11177 0.42513 0.0
C714 C 0.46517 0.09951 0.40685 0.0
C715 C 0.46829 0.11701 0.46061 0.0
C716 C 0.43898 0.1136 0.51488 0.0
H717 H 0.42107 0.14662 0.63773 0.0
H718 H 0.42853 0.13716 0.57559 0.0
H719 H 0.42508 0.11695 0.5485 0.0
H720 H 0.4465 0.08324 0.4107 0.0
H721 H 0.43855 0.09234 0.47284 0.0
H722 H 0.46824 0.12392 0.56348 0.0
C723 C 0.43062 0.13689 0.61581 0.0
C724 C 0.43456 0.11863 0.55198 0.0
C725 C 0.4264 0.14239 0.6515 0.0
C726 C 0.45269 0.09272 0.42388 0.0
C727 C 0.44811 0.09796 0.45941 0.0
C728 C 0.45884 0.12244 0.55947 0.0
C729 C 0.43765 0.13137 0.63164 0.0
C730 C 0.44224 0.12568 0.59317 0.0
C731 C 0.4559 0.11011 0.47866 0.0
C732 C 0.45119 0.11548 0.51807 0.0
H733 H 0.43837 0.13694 0.76019 0.0
H734 H 0.44565 0.12717 0.69771 0.0
H735 H 0.46062 0.13295 0.62751 0.0
H736 H 0.48253 0.11728 0.41265 0.0
H737 H 0.47448 0.12648 0.47396 0.0
C738 C 0.42265 0.2986 0.21929 0.0
C739 C 0.43045 0.29495 0.24409 0.0
C740 C 0.42762 0.30847 0.18403 0.0
C741 C 0.45482 0.32615 0.09867 0.0
H742 H 0.44284 0.34987 0.09364 0.0
C743 C 0.46906 0.37681 0.00081 0.0
C744 C 0.47161 0.37477 0.95025 0.0
C745 C 0.46379 0.36696 0.03603 0.0
C746 C 0.44635 0.34336 0.09471 0.0
H747 H 0.44965 0.299 0.25221 0.0
H748 H 0.45834 0.31633 0.19121 0.0
H749 H 0.43457 0.33335 0.15823 0.0
H750 H 0.4705 0.36074 0.89685 0.0
H751 H 0.46113 0.34347 0.95837 0.0
H752 H 0.46681 0.33634 0.03586 0.0
C753 C 0.44834 0.31142 0.19838 0.0
C754 C 0.4415 0.33382 0.13141 0.0
C755 C 0.44337 0.30155 0.23365 0.0
C756 C 0.46867 0.36262 0.93556 0.0
C757 C 0.46338 0.35275 0.97088 0.0
C758 C 0.45967 0.3357 0.06194 0.0
C759 C 0.4405 0.31492 0.17278 0.0
C760 C 0.4457 0.32512 0.13391 0.0
C761 C 0.46091 0.35482 0.02159 0.0
C762 C 0.45551 0.34445 0.05964 0.0
H763 H 0.41265 0.2937 0.22633 0.0
H764 H 0.4213 0.31083 0.16462 0.0
H765 H 0.45814 0.3195 0.09912 0.0
H766 H 0.47125 0.38606 0.01351 0.0
H767 H 0.46218 0.36893 0.07494 0.0
C768 C 0.70011 0.12124 0.20969 0.0
C769 C 0.70372 0.13263 0.23491 0.0
C770 C 0.69127 0.1171 0.17018 0.0
C771 C 0.66609 0.12122 0.11332 0.0
H772 H 0.673 0.10762 0.99137 0.0
C773 C 0.63585 0.10991 0.931 0.0
C774 C 0.63235 0.09841 0.90693 0.0
C775 C 0.64501 0.11455 0.96931 0.0
C776 C 0.67087 0.11129 0.02531 0.0
H777 H 0.70058 0.14845 0.23936 0.0
H778 H 0.68517 0.14123 0.17023 0.0
H779 H 0.68761 0.11444 0.06329 0.0
H780 H 0.63606 0.08296 0.90306 0.0
H781 H 0.65198 0.09101 0.9701 0.0
H782 H 0.64933 0.11801 0.07546 0.0
C783 C 0.68914 0.13546 0.18124 0.0
C784 C 0.67923 0.11518 0.06657 0.0
C785 C 0.698 0.13961 0.22078 0.0
C786 C 0.63854 0.09186 0.92076 0.0
C787 C 0.6477 0.0965 0.9591 0.0
C788 C 0.65772 0.11732 0.07206 0.0
C789 C 0.68581 0.12425 0.15498 0.0
C790 C 0.67692 0.12015 0.11113 0.0
C791 C 0.6509 0.10779 0.98442 0.0
C792 C 0.66 0.11227 0.02761 0.0
H793 H 0.70428 0.11559 0.21976 0.0
H794 H 0.68874 0.1083 0.15136 0.0
H795 H 0.66396 0.12486 0.14732 0.0
H796 H 0.63131 0.11523 0.92108 0.0
H797 H 0.64742 0.12339 0.98739 0.0
C798 C 0.8745 0.56753 0.24774 0.0
C799 C 0.86196 0.56474 0.24841 0.0
C800 C 0.87882 0.56282 0.20874 0.0
C801 C 0.86769 0.53852 0.10646 0.0
H802 H 0.90077 0.55995 0.04946 0.0
C803 C 0.89 0.52015 0.96118 0.0
C804 C 0.8975 0.52821 0.92178 0.0
C805 C 0.8855 0.52456 0.00046 0.0
C806 C 0.89145 0.55389 0.06452 0.0
H807 H 0.8441 0.55472 0.20879 0.0
H808 H 0.85166 0.54678 0.14067 0.0
H809 H 0.89333 0.56762 0.11955 0.0
H810 H 0.9059 0.54715 0.89206 0.0
H811 H 0.89777 0.55478 0.95999 0.0
H812 H 0.86562 0.52494 0.0504 0.0
C813 C 0.85813 0.55238 0.17064 0.0
C814 C 0.88726 0.55822 0.10532 0.0
C815 C 0.85381 0.55701 0.20969 0.0
C816 C 0.90018 0.54072 0.92195 0.0
C817 C 0.8956 0.54511 0.96114 0.0
C818 C 0.87184 0.53422 0.0655 0.0
C819 C 0.87071 0.55528 0.16944 0.0
C820 C 0.87532 0.55059 0.12681 0.0
C821 C 0.88831 0.53711 0.00118 0.0
C822 C 0.88379 0.54184 0.04404 0.0
H823 H 0.88101 0.57343 0.27707 0.0
H824 H 0.88852 0.56508 0.20948 0.0
H825 H 0.8585 0.53231 0.12237 0.0
H826 H 0.88781 0.51048 0.96246 0.0
H827 H 0.88008 0.51817 0.03098 0.0
C828 C 0.5571 0.69814 0.77946 0.0
C829 C 0.57004 0.70647 0.77454 0.0
C830 C 0.55254 0.68883 0.81731 0.0
C831 C 0.56165 0.68124 0.94177 0.0
H832 H 0.53329 0.64811 0.91709 0.0
C833 C 0.54601 0.64027 0.08539 0.0
C834 C 0.53306 0.63238 0.09268 0.0
C835 C 0.55047 0.64949 0.04724 0.0
C836 C 0.54113 0.65737 0.92474 0.0
H837 H 0.58836 0.71125 0.80412 0.0
H838 H 0.58044 0.6949 0.86922 0.0
H839 H 0.54121 0.66345 0.8477 0.0
H840 H 0.51465 0.62821 0.06638 0.0
H841 H 0.52246 0.64434 0.00016 0.0
H842 H 0.56161 0.67512 0.01872 0.0
C843 C 0.57378 0.69573 0.84476 0.0
C844 C 0.54568 0.66616 0.88496 0.0
C845 C 0.57833 0.70505 0.80715 0.0
C846 C 0.52468 0.6341 0.06172 0.0
C847 C 0.52915 0.64328 0.02349 0.0
C848 C 0.55714 0.67244 0.98147 0.0
C849 C 0.56083 0.68763 0.85088 0.0
C850 C 0.556 0.67821 0.89297 0.0
C851 C 0.54209 0.651 0.01545 0.0
C852 C 0.54683 0.6604 0.97342 0.0
H853 H 0.55046 0.69901 0.75505 0.0
H854 H 0.5425 0.68283 0.82121 0.0
H855 H 0.56947 0.69051 0.94961 0.0
H856 H 0.55271 0.63919 0.1085 0.0
H857 H 0.5605 0.65522 0.04175 0.0
C858 C 0.36144 0.89122 0.07731 0.0
C859 C 0.37342 0.89892 0.05645 0.0
C860 C 0.35085 0.88597 0.04562 0.0
C861 C 0.33987 0.88945 0.91712 0.0
H862 H 0.31369 0.85505 0.93916 0.0
C863 C 0.30012 0.86193 0.77038 0.0
C864 C 0.28797 0.85473 0.79054 0.0
C865 C 0.31051 0.86743 0.80309 0.0
C866 C 0.32088 0.86471 0.9328 0.0
H867 H 0.38366 0.90713 0.98593 0.0
H868 H 0.3653 0.89785 0.93092 0.0
H869 H 0.33175 0.86453 0.99653 0.0
H870 H 0.27723 0.84763 0.86086 0.0
H871 H 0.29533 0.8572 0.91762 0.0
H872 H 0.32904 0.88956 0.85301 0.0
C873 C 0.36402 0.89602 0.97177 0.0
C874 C 0.3312 0.87015 0.96578 0.0
C875 C 0.37457 0.90129 0.00337 0.0
C876 C 0.28646 0.85311 0.844 0.0
C877 C 0.29684 0.85853 0.87659 0.0
C878 C 0.32957 0.88398 0.88402 0.0
C879 C 0.35202 0.88829 0.99243 0.0
C880 C 0.34084 0.88259 0.95827 0.0
C881 C 0.30898 0.86576 0.85655 0.0
C882 C 0.31997 0.87155 0.89147 0.0
H883 H 0.36025 0.88925 0.11808 0.0
H884 H 0.34172 0.88018 0.06288 0.0
H885 H 0.34701 0.89912 0.91072 0.0
H886 H 0.3016 0.86335 0.72937 0.0
H887 H 0.31978 0.87286 0.7865 0.0
C888 C 0.1373 0.44068 0.76646 0.0
C889 C 0.14255 0.43386 0.78775 0.0
C890 C 0.13224 0.4462 0.79823 0.0
C891 C 0.12036 0.44484 0.93037 0.0
H892 H 0.12629 0.47811 0.89838 0.0
C893 C 0.10875 0.47375 0.07224 0.0
C894 C 0.10283 0.47998 0.05143 0.0
C895 C 0.11358 0.46809 0.04003 0.0
C896 C 0.12446 0.46877 0.90758 0.0
H897 H 0.14663 0.42751 0.85912 0.0
H898 H 0.13804 0.43727 0.91426 0.0
H899 H 0.13453 0.46819 0.8417 0.0
H900 H 0.0974 0.48522 0.98046 0.0
H901 H 0.10581 0.47537 0.92451 0.0
H902 H 0.11039 0.4455 0.99653 0.0
C903 C 0.1376 0.43819 0.87307 0.0
C904 C 0.12915 0.46307 0.87502 0.0
C905 C 0.1426 0.43265 0.84139 0.0
C906 C 0.10191 0.4805 0.99779 0.0
C907 C 0.1068 0.47492 0.96566 0.0
C908 C 0.11572 0.45057 0.96304 0.0
C909 C 0.13236 0.44504 0.85196 0.0
C910 C 0.12717 0.45103 0.88603 0.0
C911 C 0.11266 0.46863 0.98637 0.0
C912 C 0.11772 0.4626 0.952 0.0
H913 H 0.13708 0.44175 0.72527 0.0
H914 H 0.12814 0.45128 0.78067 0.0
H915 H 0.11848 0.43549 0.93959 0.0
H916 H 0.10961 0.47319 0.11341 0.0
H917 H 0.11816 0.46341 0.05711 0.0
C918 C 0.09473 0.6197 0.48536 0.0
C919 C 0.09723 0.62224 0.53798 0.0
C920 C 0.09919 0.62944 0.44972 0.0
C921 C 0.12299 0.66274 0.43126 0.0
H922 H 0.10171 0.66003 0.31652 0.0
C923 C 0.12125 0.69504 0.255 0.0
C924 C 0.13378 0.70081 0.23857 0.0
C925 C 0.11674 0.68547 0.29159 0.0
C926 C 0.10774 0.661 0.34852 0.0
H927 H 0.10642 0.63702 0.59447 0.0
H928 H 0.1141 0.65411 0.53206 0.0
H929 H 0.09384 0.64373 0.38181 0.0
H930 H 0.15133 0.70087 0.24686 0.0
H931 H 0.14339 0.684 0.3099 0.0
H932 H 0.13679 0.68017 0.39851 0.0
C933 C 0.1088 0.64454 0.51839 0.0
C934 C 0.10328 0.65157 0.38568 0.0
C935 C 0.10435 0.63476 0.55417 0.0
C936 C 0.14164 0.69665 0.25882 0.0
C937 C 0.13711 0.68704 0.2953 0.0
C938 C 0.12745 0.67219 0.39412 0.0
C939 C 0.10624 0.64198 0.46573 0.0
C940 C 0.11088 0.65228 0.42733 0.0
C941 C 0.12464 0.68141 0.31246 0.0
C942 C 0.11989 0.67141 0.35217 0.0
H943 H 0.08935 0.61016 0.47146 0.0
H944 H 0.09724 0.62711 0.40943 0.0
H945 H 0.12913 0.66353 0.46258 0.0
H946 H 0.11496 0.69806 0.24038 0.0
H947 H 0.10712 0.68145 0.30436 0.0
C948 C 0.3639 0.47552 0.56076 0.0
C949 C 0.36797 0.46772 0.58255 0.0
C950 C 0.35463 0.47094 0.52288 0.0
C951 C 0.32931 0.4417 0.4656 0.0
H952 H 0.33482 0.46267 0.34627 0.0
C953 C 0.29927 0.42251 0.28311 0.0
C954 C 0.29514 0.43011 0.25986 0.0
C955 C 0.30831 0.42729 0.32186 0.0
C956 C 0.33308 0.45675 0.37955 0.0
H957 H 0.36518 0.44888 0.58269 0.0
H958 H 0.34906 0.44093 0.51652 0.0
H959 H 0.34978 0.47055 0.41704 0.0
H960 H 0.29757 0.44881 0.25814 0.0
H961 H 0.31332 0.45713 0.32593 0.0
H962 H 0.31263 0.42789 0.42808 0.0
C963 C 0.35298 0.45056 0.52894 0.0
C964 C 0.34163 0.46127 0.42016 0.0
C965 C 0.36227 0.45514 0.56675 0.0
C966 C 0.30055 0.44271 0.27518 0.0
C967 C 0.30961 0.44749 0.31395 0.0
C968 C 0.32076 0.43718 0.425 0.0
C969 C 0.34918 0.45846 0.50602 0.0
C970 C 0.33987 0.45379 0.4636 0.0
C971 C 0.31345 0.43978 0.33827 0.0
C972 C 0.32256 0.44464 0.3814 0.0
H973 H 0.36806 0.48525 0.57217 0.0
H974 H 0.35176 0.47721 0.50657 0.0
H975 H 0.32758 0.43577 0.49881 0.0
H976 H 0.29534 0.41279 0.27209 0.0
H977 H 0.31124 0.42117 0.33916 0.0
C978 C 0.54886 0.90902 0.56703 0.0
C979 C 0.53683 0.90153 0.58779 0.0
C980 C 0.55329 0.90438 0.52834 0.0
C981 C 0.548 0.8752 0.46531 0.0
H982 H 0.56422 0.89711 0.34914 0.0
C983 C 0.55813 0.85697 0.2781 0.0
C984 C 0.56992 0.86451 0.25523 0.0
C985 C 0.55409 0.86161 0.31821 0.0
C986 C 0.55983 0.89092 0.3815 0.0
H987 H 0.52019 0.88309 0.58557 0.0
H988 H 0.52791 0.87501 0.51799 0.0
H989 H 0.55764 0.90479 0.42221 0.0
H990 H 0.58654 0.88297 0.25574 0.0
H991 H 0.57951 0.89102 0.32595 0.0
H992 H 0.55018 0.86132 0.42459 0.0
C993 C 0.53395 0.88447 0.53178 0.0
C994 C 0.55608 0.89533 0.42344 0.0
C995 C 0.52951 0.88912 0.57044 0.0
C996 C 0.5774 0.87691 0.2724 0.0
C997 C 0.57335 0.88155 0.31258 0.0
C998 C 0.55176 0.8708 0.42339 0.0
C999 C 0.5458 0.89212 0.50962 0.0
C1000 C 0.5501 0.88751 0.46579 0.0
C1001 C 0.56172 0.87389 0.33644 0.0
C1002 C 0.55769 0.87859 0.38091 0.0
H1003 H 0.55477 0.91861 0.57968 0.0
H1004 H 0.56255 0.91044 0.51269 0.0
H1005 H 0.54356 0.869 0.4976 0.0
H1006 H 0.55211 0.84739 0.26565 0.0
H1007 H 0.54498 0.85554 0.33511 0.0
C1008 C 0.24469 0.13147 0.52971 0.0
C1009 C 0.24027 0.13934 0.54731 0.0
C1010 C 0.24205 0.12063 0.55698 0.0
C1011 C 0.22087 0.09851 0.65525 0.0
H1012 H 0.24926 0.09452 0.69038 0.0
C1013 C 0.22308 0.07393 0.83796 0.0
C1014 C 0.23069 0.06842 0.83946 0.0
C1015 C 0.22206 0.07951 0.793 0.0
C1016 C 0.24113 0.09524 0.68 0.0
H1017 H 0.22938 0.14188 0.60669 0.0
H1018 H 0.2248 0.12304 0.65412 0.0
H1019 H 0.25189 0.11047 0.6287 0.0
H1020 H 0.24217 0.06335 0.79354 0.0
H1021 H 0.24019 0.0729 0.71471 0.0
H1022 H 0.21018 0.0835 0.7076 0.0
C1023 C 0.23023 0.12518 0.61909 0.0
C1024 C 0.24267 0.10444 0.64472 0.0
C1025 C 0.23296 0.13604 0.59215 0.0
C1026 C 0.23636 0.06764 0.79384 0.0
C1027 C 0.23529 0.0732 0.74873 0.0
C1028 C 0.2193 0.08924 0.6903 0.0
C1029 C 0.23482 0.1174 0.60204 0.0
C1030 C 0.23266 0.10643 0.63322 0.0
C1031 C 0.22856 0.07965 0.74838 0.0
C1032 C 0.22951 0.08777 0.70436 0.0
H1033 H 0.25032 0.13374 0.4952 0.0
H1034 H 0.24567 0.11478 0.54289 0.0
H1035 H 0.21294 0.0997 0.64638 0.0
H1036 H 0.21853 0.07464 0.87233 0.0
H1037 H 0.21686 0.08446 0.79439 0.0
C1038 C 0.85252 0.10866 0.59283 0.0
C1039 C 0.85187 0.09845 0.56614 0.0
C1040 C 0.86355 0.11722 0.61787 0.0
C1041 C 0.89323 0.12053 0.66885 0.0
H1042 H 0.90125 0.155 0.68598 0.0
C1043 C 0.92353 0.15125 0.83419 0.0
C1044 C 0.92967 0.16438 0.83015 0.0
C1045 C 0.91656 0.14369 0.79322 0.0
C1046 C 0.89938 0.1455 0.68077 0.0
H1047 H 0.86235 0.0894 0.54334 0.0
H1048 H 0.88171 0.10455 0.58534 0.0
H1049 H 0.88409 0.1412 0.63025 0.0
H1050 H 0.93442 0.17984 0.77806 0.0
H1051 H 0.92265 0.16663 0.70567 0.0
H1052 H 0.90872 0.12491 0.71831 0.0
C1053 C 0.87363 0.10578 0.58846 0.0
C1054 C 0.88933 0.13748 0.64948 0.0
C1055 C 0.86253 0.0971 0.56417 0.0
C1056 C 0.92966 0.16976 0.78262 0.0
C1057 C 0.9228 0.16217 0.74127 0.0
C1058 C 0.90341 0.1286 0.69946 0.0
C1059 C 0.87427 0.1159 0.61603 0.0
C1060 C 0.88586 0.12479 0.6444 0.0
C1061 C 0.91571 0.14906 0.74681 0.0
C1062 C 0.90637 0.14109 0.70721 0.0
H1063 H 0.84443 0.10991 0.59521 0.0
H1064 H 0.86356 0.12471 0.63958 0.0
H1065 H 0.89086 0.11082 0.66617 0.0
H1066 H 0.92338 0.14676 0.87017 0.0
H1067 H 0.91119 0.13367 0.7994 0.0
C1068 C 0.88861 0.74981 0.54255 0.0
C1069 C 0.90095 0.75426 0.55966 0.0
C1070 C 0.88022 0.75174 0.57192 0.0
C1071 C 0.8789 0.77171 0.67439 0.0
H1072 H 0.84581 0.74346 0.70094 0.0
C1073 C 0.83019 0.7568 0.79595 0.0
C1074 C 0.83564 0.76237 0.8432 0.0
C1075 C 0.83772 0.7576 0.75431 0.0
C1076 C 0.8549 0.75155 0.69307 0.0
H1077 H 0.91416 0.76426 0.62094 0.0
H1078 H 0.89952 0.76759 0.67207 0.0
H1079 H 0.8598 0.74105 0.64203 0.0
H1080 H 0.85329 0.77396 0.88252 0.0
H1081 H 0.86635 0.77518 0.81057 0.0
H1082 H 0.87408 0.78217 0.72594 0.0
C1083 C 0.89637 0.76271 0.63577 0.0
C1084 C 0.86294 0.75013 0.65943 0.0
C1085 C 0.90472 0.76069 0.60667 0.0
C1086 C 0.84877 0.76952 0.84674 0.0
C1087 C 0.85628 0.77027 0.80525 0.0
C1088 C 0.87083 0.77316 0.70778 0.0
C1089 C 0.88403 0.75825 0.61873 0.0
C1090 C 0.87511 0.76012 0.65061 0.0
C1091 C 0.85086 0.76396 0.75909 0.0
C1092 C 0.85882 0.76301 0.71842 0.0
H1093 H 0.88542 0.74484 0.50646 0.0
H1094 H 0.87078 0.74825 0.55773 0.0
H1095 H 0.88816 0.77963 0.6676 0.0
H1096 H 0.82011 0.75131 0.79177 0.0
H1097 H 0.83324 0.75287 0.71892 0.0
C1098 C 0.13739 0.23359 0.91804 0.0
C1099 C 0.14625 0.24588 0.93269 0.0
C1100 C 0.12701 0.23131 0.88839 0.0
C1101 C 0.11757 0.2449 0.78956 0.0
H1102 H 0.08311 0.22225 0.83021 0.0
C1103 C 0.07686 0.22712 0.64767 0.0
C1104 C 0.06912 0.23225 0.65773 0.0
C1105 C 0.08492 0.22717 0.68541 0.0
C1106 C 0.0927 0.22856 0.81859 0.0
H1107 H 0.15122 0.2654 0.92797 0.0
H1108 H 0.13326 0.26142 0.87427 0.0
H1109 H 0.10038 0.22611 0.88885 0.0
H1110 H 0.06292 0.24037 0.7167 0.0
H1111 H 0.07686 0.24012 0.78331 0.0
H1112 H 0.10999 0.2471 0.7189 0.0
C1113 C 0.1343 0.25358 0.8866 0.0
C1114 C 0.10252 0.23075 0.85186 0.0
C1115 C 0.14453 0.25585 0.91724 0.0
C1116 C 0.06881 0.2364 0.70773 0.0
C1117 C 0.07674 0.23625 0.74582 0.0
C1118 C 0.1078 0.2425 0.75597 0.0
C1119 C 0.12547 0.2413 0.872 0.0
C1120 C 0.11501 0.23899 0.83758 0.0
C1121 C 0.08519 0.2321 0.73419 0.0
C1122 C 0.09532 0.23433 0.77024 0.0
H1123 H 0.13845 0.22573 0.92974 0.0
H1124 H 0.12035 0.22178 0.87721 0.0
H1125 H 0.12714 0.25123 0.77771 0.0
H1126 H 0.07734 0.22382 0.60966 0.0
H1127 H 0.09135 0.22389 0.67585 0.0
C1128 C 0.75398 0.82695 0.69738 0.0
C1129 C 0.76061 0.83293 0.65251 0.0
C1130 C 0.7551 0.83394 0.7414 0.0
C1131 C 0.77311 0.86596 0.79908 0.0
H1132 H 0.74081 0.85744 0.8571 0.0
C1133 C 0.76346 0.90187 0.89946 0.0
C1134 C 0.7561 0.89818 0.9442 0.0
C1135 C 0.76512 0.89318 0.87114 0.0
C1136 C 0.74993 0.85984 0.84196 0.0
H1137 H 0.77436 0.85082 0.61998 0.0
H1138 H 0.77611 0.86296 0.69593 0.0
H1139 H 0.74226 0.84329 0.79593 0.0
H1140 H 0.74477 0.88247 0.99447 0.0
H1141 H 0.74754 0.86724 0.9444 0.0
H1142 H 0.78063 0.88283 0.8435 0.0
C1143 C 0.77013 0.85288 0.69764 0.0
C1144 C 0.75079 0.8517 0.80701 0.0
C1145 C 0.76907 0.8459 0.65381 0.0
C1146 C 0.75048 0.88561 0.96012 0.0
C1147 C 0.75204 0.87688 0.93145 0.0
C1148 C 0.77223 0.87415 0.83373 0.0
C1149 C 0.76283 0.84705 0.74138 0.0
C1150 C 0.76234 0.85479 0.7842 0.0
C1151 C 0.75937 0.88059 0.88665 0.0
C1152 C 0.76058 0.8713 0.85462 0.0
H1153 H 0.74747 0.81695 0.69783 0.0
H1154 H 0.74955 0.82911 0.77482 0.0
H1155 H 0.78219 0.86853 0.78301 0.0
H1156 H 0.76795 0.91149 0.88622 0.0
H1157 H 0.77067 0.89627 0.83637 0.0
C1158 C 0.1504 0.92704 0.65402 0.0
C1159 C 0.16296 0.93 0.65823 0.0
C1160 C 0.14154 0.91925 0.69012 0.0
C1161 C 0.13734 0.90312 0.81584 0.0
H1162 H 0.10761 0.87674 0.74971 0.0
C1163 C 0.0977 0.86177 0.92851 0.0
C1164 C 0.0925 0.84985 0.90578 0.0
C1165 C 0.10599 0.87251 0.90112 0.0
C1166 C 0.11588 0.884 0.76876 0.0
H1167 H 0.17627 0.92803 0.70626 0.0
H1168 H 0.16081 0.91432 0.76864 0.0
H1169 H 0.12267 0.89459 0.69963 0.0
H1170 H 0.09208 0.83984 0.83664 0.0
H1171 H 0.1067 0.85854 0.78911 0.0
H1172 H 0.13077 0.89218 0.88454 0.0
C1173 C 0.15778 0.91804 0.73766 0.0
C1174 C 0.12443 0.89436 0.74022 0.0
C1175 C 0.16666 0.92589 0.7017 0.0
C1176 C 0.09587 0.84888 0.8552 0.0
C1177 C 0.10418 0.85962 0.82784 0.0
C1178 C 0.12878 0.89273 0.84443 0.0
C1179 C 0.14503 0.91421 0.73108 0.0
C1180 C 0.13535 0.90397 0.76321 0.0
C1181 C 0.1093 0.87156 0.85038 0.0
C1182 C 0.11805 0.88296 0.82097 0.0
H1183 H 0.14726 0.93017 0.6213 0.0
H1184 H 0.13184 0.91673 0.68467 0.0
H1185 H 0.14561 0.9104 0.8348 0.0
H1186 H 0.09527 0.86286 0.96741 0.0
H1187 H 0.10966 0.88157 0.91942 0.0
C1188 C 0.76216 0.93303 0.20199 0.0
C1189 C 0.76705 0.93204 0.15458 0.0
C1190 C 0.7636 0.92731 0.24582 0.0
C1191 C 0.77942 0.9103 0.29659 0.0
H1192 H 0.74779 0.89043 0.36738 0.0
C1193 C 0.76562 0.86363 0.39716 0.0
C1194 C 0.75925 0.86102 0.44428 0.0
C1195 C 0.7683 0.8744 0.36953 0.0
C1196 C 0.75676 0.89607 0.3487 0.0
H1197 H 0.7782 0.9252 0.11703 0.0
H1198 H 0.78048 0.91508 0.19272 0.0
H1199 H 0.75003 0.90634 0.30629 0.0
H1200 H 0.75083 0.86775 0.49972 0.0
H1201 H 0.75538 0.88651 0.45092 0.0
H1202 H 0.78587 0.89949 0.33735 0.0
C1203 C 0.77563 0.92033 0.19653 0.0
C1204 C 0.75808 0.90525 0.31376 0.0
C1205 C 0.77425 0.9261 0.15286 0.0
C1206 C 0.75573 0.86948 0.46345 0.0
C1207 C 0.75831 0.88021 0.43554 0.0
C1208 C 0.77806 0.90104 0.33126 0.0
C1209 C 0.76992 0.92046 0.24309 0.0
C1210 C 0.76932 0.91226 0.28625 0.0
C1211 C 0.76458 0.88275 0.3882 0.0
C1212 C 0.76661 0.89363 0.35668 0.0
H1213 H 0.75667 0.93766 0.20476 0.0
H1214 H 0.75933 0.92783 0.28137 0.0
H1215 H 0.78828 0.91568 0.27682 0.0
H1216 H 0.7685 0.85732 0.38139 0.0
H1217 H 0.77299 0.87602 0.33281 0.0
C1218 C 0.06967 0.82944 0.22477 0.0
C1219 C 0.06899 0.83481 0.17814 0.0
C1220 C 0.07624 0.83705 0.26648 0.0
C1221 C 0.09269 0.87015 0.3139 0.0
H1222 H 0.11566 0.86065 0.37282 0.0
C1223 C 0.13984 0.90568 0.40526 0.0
C1224 C 0.14344 0.90224 0.45084 0.0
C1225 C 0.12917 0.89699 0.37858 0.0
C1226 C 0.10919 0.86335 0.3574 0.0
H1227 H 0.07371 0.85232 0.1403 0.0
H1228 H 0.08529 0.86553 0.21227 0.0
H1229 H 0.09894 0.84611 0.31653 0.0
H1230 H 0.13867 0.88697 0.50415 0.0
H1231 H 0.1201 0.87174 0.4571 0.0
H1232 H 0.10338 0.88765 0.35322 0.0
C1233 C 0.08072 0.85547 0.21707 0.0
C1234 C 0.09954 0.85499 0.32527 0.0
C1235 C 0.07411 0.84787 0.17554 0.0
C1236 C 0.13616 0.88991 0.46908 0.0
C1237 C 0.12554 0.88118 0.44214 0.0
C1238 C 0.1024 0.87855 0.34575 0.0
C1239 C 0.08229 0.85018 0.26234 0.0
C1240 C 0.09132 0.85838 0.30224 0.0
C1241 C 0.12192 0.88464 0.39667 0.0
C1242 C 0.1109 0.87533 0.36698 0.0
H1243 H 0.06572 0.8194 0.22827 0.0
H1244 H 0.07701 0.83266 0.30123 0.0
H1245 H 0.08641 0.87298 0.29754 0.0
H1246 H 0.14523 0.91511 0.39021 0.0
H1247 H 0.12671 0.89987 0.34323 0.0
C1248 C 0.1674 0.24117 0.20964 0.0
C1249 C 0.16309 0.23432 0.16371 0.0
C1250 C 0.15893 0.2399 0.24813 0.0
C1251 C 0.12668 0.23304 0.25668 0.0
H1252 H 0.13181 0.23445 0.40388 0.0
C1253 C 0.0908 0.23354 0.39616 0.0
C1254 C 0.09545 0.24141 0.43927 0.0
C1255 C 0.09879 0.23135 0.36545 0.0
C1256 C 0.13031 0.23417 0.36283 0.0
H1257 H 0.14667 0.21985 0.1244 0.0
H1258 H 0.13196 0.21762 0.19162 0.0
H1259 H 0.14632 0.23219 0.34673 0.0
H1260 H 0.11213 0.25317 0.48396 0.0
H1261 H 0.12618 0.24967 0.42937 0.0
H1262 H 0.11102 0.23548 0.27205 0.0
C1263 C 0.14185 0.22415 0.19738 0.0
C1264 C 0.13858 0.23281 0.33021 0.0
C1265 C 0.1503 0.22539 0.15901 0.0
C1266 C 0.10827 0.24704 0.45102 0.0
C1267 C 0.1163 0.24495 0.41997 0.0
C1268 C 0.1185 0.2345 0.28913 0.0
C1269 C 0.14601 0.23177 0.24134 0.0
C1270 C 0.13685 0.23226 0.27678 0.0
C1271 C 0.11166 0.23709 0.37673 0.0
C1272 C 0.12023 0.23515 0.34261 0.0
H1273 H 0.17721 0.24809 0.21462 0.0
H1274 H 0.16242 0.2459 0.2816 0.0
H1275 H 0.12526 0.23294 0.2156 0.0
H1276 H 0.08094 0.22895 0.38637 0.0
H1277 H 0.09484 0.22507 0.33303 0.0
C1278 C 0.8599 0.76067 0.10382 0.0
C1279 C 0.8573 0.75422 0.05687 0.0
C1280 C 0.87029 0.76279 0.13297 0.0
C1281 C 0.89125 0.75038 0.15715 0.0
H1282 H 0.91172 0.78231 0.22504 0.0
C1283 C 0.93027 0.75713 0.29632 0.0
C1284 C 0.93015 0.76258 0.34356 0.0
C1285 C 0.92363 0.7579 0.25428 0.0
C1286 C 0.90608 0.77333 0.20648 0.0
H1287 H 0.86357 0.74493 0.00371 0.0
H1288 H 0.88167 0.74853 0.05508 0.0
H1289 H 0.8953 0.7798 0.16561 0.0
H1290 H 0.92369 0.77389 0.38257 0.0
H1291 H 0.912 0.77506 0.30988 0.0
H1292 H 0.90162 0.74371 0.19935 0.0
C1293 C 0.87565 0.75195 0.06919 0.0
C1294 C 0.89668 0.7719 0.17246 0.0
C1295 C 0.8653 0.74991 0.03977 0.0
C1296 C 0.92396 0.76955 0.3468 0.0
C1297 C 0.91729 0.77027 0.3049 0.0
C1298 C 0.90059 0.75178 0.1914 0.0
C1299 C 0.87826 0.75844 0.11604 0.0
C1300 C 0.88901 0.76033 0.14822 0.0
C1301 C 0.9167 0.76411 0.25864 0.0
C1302 C 0.90796 0.7632 0.21728 0.0
H1303 H 0.85393 0.76413 0.1181 0.0
H1304 H 0.87195 0.76765 0.1693 0.0
H1305 H 0.88541 0.74132 0.13941 0.0
H1306 H 0.93503 0.75178 0.29239 0.0
H1307 H 0.92358 0.75327 0.21886 0.0
C1308 C 0.23182 0.09887 0.0947 0.0
C1309 C 0.23908 0.10267 0.04971 0.0
C1310 C 0.22985 0.10739 0.12278 0.0
C1311 C 0.24422 0.14078 0.15021 0.0
H1312 H 0.21214 0.13112 0.21342 0.0
C1313 C 0.24019 0.17312 0.29707 0.0
C1314 C 0.23423 0.16706 0.34292 0.0
C1315 C 0.23874 0.16617 0.25258 0.0
C1316 C 0.22117 0.13397 0.19609 0.0
H1317 H 0.24986 0.11836 0.99858 0.0
H1318 H 0.24651 0.13328 0.04813 0.0
H1319 H 0.21386 0.11701 0.15235 0.0
H1320 H 0.2212 0.14906 0.37676 0.0
H1321 H 0.21888 0.13699 0.2999 0.0
H1322 H 0.25171 0.15742 0.19551 0.0
C1323 C 0.24235 0.1237 0.06153 0.0
C1324 C 0.22214 0.12589 0.16113 0.0
C1325 C 0.24424 0.11515 0.03317 0.0
C1326 C 0.22599 0.15404 0.34218 0.0
C1327 C 0.2246 0.14709 0.29785 0.0
C1328 C 0.24327 0.14882 0.18539 0.0
C1329 C 0.23516 0.11991 0.10673 0.0
C1330 C 0.23374 0.12908 0.13878 0.0
C1331 C 0.23135 0.15302 0.25308 0.0
C1332 C 0.2318 0.14538 0.20975 0.0
H1333 H 0.22768 0.08932 0.10844 0.0
H1334 H 0.22442 0.10423 0.15785 0.0
H1335 H 0.25331 0.14345 0.13399 0.0
H1336 H 0.2465 0.18316 0.29616 0.0
H1337 H 0.24385 0.17106 0.21839 0.0
C1338 C 0.82904 0.0673 0.28216 0.0
C1339 C 0.8344 0.06796 0.33049 0.0
C1340 C 0.83659 0.07414 0.24068 0.0
C1341 C 0.87018 0.09482 0.20089 0.0
H1342 H 0.85608 0.11138 0.12138 0.0
C1343 C 0.9009 0.1349 0.06147 0.0
C1344 C 0.8985 0.14488 0.05774 0.0
C1345 C 0.89252 0.12387 0.08694 0.0
C1346 C 0.86023 0.10696 0.14356 0.0
H1347 H 0.85197 0.07559 0.37216 0.0
H1348 H 0.86494 0.0878 0.30128 0.0
H1349 H 0.84277 0.09464 0.17959 0.0
H1350 H 0.88551 0.15121 0.07774 0.0
H1351 H 0.87124 0.13231 0.12477 0.0
H1352 H 0.88785 0.10784 0.16828 0.0
C1353 C 0.855 0.08185 0.29443 0.0
C1354 C 0.8525 0.09711 0.17632 0.0
C1355 C 0.8475 0.07487 0.3355 0.0
C1356 C 0.88755 0.14363 0.07984 0.0
C1357 C 0.87931 0.13271 0.10639 0.0
C1358 C 0.87796 0.10484 0.16899 0.0
C1359 C 0.84962 0.08194 0.24689 0.0
C1360 C 0.85742 0.09109 0.20637 0.0
C1361 C 0.88168 0.12266 0.11039 0.0
C1362 C 0.87315 0.11124 0.14066 0.0
H1363 H 0.81898 0.06194 0.2769 0.0
H1364 H 0.83212 0.07368 0.2043 0.0
H1365 H 0.87429 0.09025 0.22241 0.0
H1366 H 0.9092 0.13556 0.0441 0.0
H1367 H 0.89457 0.11629 0.08804 0.0
C1368 C 0.89778 0.40582 0.17074 0.0
C1369 C 0.90643 0.40156 0.17303 0.0
C1370 C 0.89724 0.41228 0.12771 0.0
C1371 C 0.91816 0.43238 0.02573 0.0
H1372 H 0.88864 0.43376 0.98444 0.0
C1373 C 0.91959 0.46864 0.87943 0.0
C1374 C 0.91341 0.47501 0.89597 0.0
C1375 C 0.91813 0.45815 0.90622 0.0
C1376 C 0.89695 0.43346 0.99557 0.0
H1377 H 0.92047 0.39969 0.12987 0.0
H1378 H 0.91933 0.41073 0.05419 0.0
H1379 H 0.88641 0.41696 0.04091 0.0
H1380 H 0.90083 0.47534 0.95348 0.0
H1381 H 0.89828 0.45705 -6e-05 0.0
H1382 H 0.9287 0.44902 0.98093 0.0
C1383 C 0.91321 0.40939 0.08633 0.0
C1384 C 0.89569 0.42385 0.02791 0.0
C1385 C 0.91379 0.40297 0.12957 0.0
C1386 C 0.90575 0.47067 0.93978 0.0
C1387 C 0.90418 0.46012 0.96613 0.0
C1388 C 0.91941 0.44193 0.993 0.0
C1389 C 0.90528 0.41455 0.08574 0.0
C1390 C 0.90632 0.42341 0.04462 0.0
C1391 C 0.91033 0.45374 0.9496 0.0
C1392 C 0.90885 0.44276 0.97882 0.0
H1393 H 0.89192 0.40486 0.20343 0.0
H1394 H 0.89108 0.41618 0.1289 0.0
H1395 H 0.92658 0.43247 0.03832 0.0
H1396 H 0.92555 0.47175 0.84577 0.0
H1397 H 0.92297 0.45339 0.89266 0.0
C1398 C 0.58847 0.48048 0.17289 0.0
C1399 C 0.59453 0.49363 0.17123 0.0
C1400 C 0.58269 0.47338 0.12916 0.0
C1401 C 0.56786 0.47596 0.01127 0.0
H1402 H 0.56229 0.44249 0.98717 0.0
C1403 C 0.53282 0.44278 0.85878 0.0
C1404 C 0.52434 0.43073 0.87721 0.0
C1405 C 0.54337 0.45092 0.88762 0.0
C1406 C 0.56378 0.45184 0.99341 0.0
H1407 H 0.60026 0.50966 0.12114 0.0
H1408 H 0.59039 0.49725 0.04445 0.0
H1409 H 0.57823 0.45618 0.04873 0.0
H1410 H 0.52044 0.41765 0.9398 0.0
H1411 H 0.53883 0.43183 0.98994 0.0
H1412 H 0.55323 0.47151 0.9567 0.0
C1413 C 0.58981 0.49242 0.07998 0.0
C1414 C 0.5729 0.45967 0.02867 0.0
C1415 C 0.59556 0.49954 0.12386 0.0
C1416 C 0.52676 0.42689 0.92457 0.0
C1417 C 0.53736 0.43497 0.9531 0.0
C1418 C 0.55882 0.46816 0.97574 0.0
C1419 C 0.5829 0.47926 0.08259 0.0
C1420 C 0.57479 0.47171 0.03914 0.0
C1421 C 0.54572 0.4471 0.93515 0.0
C1422 C 0.55644 0.4559 0.96752 0.0
H1423 H 0.58753 0.47561 0.20869 0.0
H1424 H 0.57738 0.46327 0.13286 0.0
H1425 H 0.5689 0.48508 0.01882 0.0
H1426 H 0.53122 0.44601 0.82238 0.0
H1427 H 0.54969 0.4602 0.87278 0.0
C1428 C 0.55361 0.08416 0.87082 0.0
C1429 C 0.56607 0.08895 0.88702 0.0
C1430 C 0.54526 0.08617 0.90008 0.0
C1431 C 0.54407 0.10671 0.00041 0.0
H1432 H 0.51127 0.07836 0.03026 0.0
C1433 C 0.49566 0.09209 0.12348 0.0
C1434 C 0.5012 0.09792 0.17025 0.0
C1435 C 0.50312 0.0927 0.08187 0.0
C1436 C 0.52028 0.08646 0.02146 0.0
H1437 H 0.57954 0.09965 0.94659 0.0
H1438 H 0.56496 0.1031 0.9976 0.0
H1439 H 0.52518 0.0758 0.97142 0.0
H1440 H 0.51891 0.10975 0.2087 0.0
H1441 H 0.53185 0.11066 0.13673 0.0
H1442 H 0.53926 0.11734 0.05109 0.0
C1443 C 0.56168 0.09789 0.96204 0.0
C1444 C 0.52827 0.08497 0.98785 0.0
C1445 C 0.57 0.09582 0.93301 0.0
C1446 C 0.51433 0.10512 0.1733 0.0
C1447 C 0.52177 0.10569 0.13181 0.0
C1448 C 0.53605 0.10823 0.03383 0.0
C1449 C 0.54922 0.09309 0.94592 0.0
C1450 C 0.54034 0.095 0.97781 0.0
C1451 C 0.51625 0.09914 0.08618 0.0
C1452 C 0.52415 0.09806 0.0456 0.0
H1453 H 0.5503 0.07886 0.83551 0.0
H1454 H 0.53573 0.08241 0.88657 0.0
H1455 H 0.55325 0.11468 0.99267 0.0
H1456 H 0.48557 0.08656 0.1197 0.0
H1457 H 0.49857 0.08777 0.04688 0.0
C1458 C 0.7332 0.57283 0.03277 0.0
C1459 C 0.7335 0.56717 0.98633 0.0
C1460 C 0.73949 0.57203 0.07605 0.0
C1461 C 0.75642 0.55637 0.12847 0.0
H1462 H 0.77749 0.58872 0.19243 0.0
C1463 C 0.80292 0.56938 0.22819 0.0
C1464 C 0.8058 0.57606 0.27464 0.0
C1465 C 0.79238 0.56713 0.19992 0.0
C1466 C 0.77153 0.57957 0.17561 0.0
H1467 H 0.73978 0.55541 0.9501 0.0
H1468 H 0.75085 0.55419 0.02489 0.0
H1469 H 0.76131 0.58618 0.13198 0.0
H1470 H 0.79988 0.58564 0.32781 0.0
H1471 H 0.78149 0.58185 0.2778 0.0
H1472 H 0.76709 0.54997 0.17054 0.0
C1473 C 0.74571 0.55917 0.02832 0.0
C1474 C 0.7622 0.57808 0.14107 0.0
C1475 C 0.7394 0.55993 0.98519 0.0
C1476 C 0.79792 0.58048 0.29212 0.0
C1477 C 0.78741 0.57833 0.26352 0.0
C1478 C 0.76581 0.55789 0.16274 0.0
C1479 C 0.7462 0.56557 0.07374 0.0
C1480 C 0.75474 0.56655 0.11613 0.0
C1481 C 0.78452 0.57159 0.21721 0.0
C1482 C 0.77364 0.56958 0.18571 0.0
H1483 H 0.72864 0.5784 0.03509 0.0
H1484 H 0.73946 0.57686 0.11077 0.0
H1485 H 0.75069 0.5473 0.1107 0.0
H1486 H 0.80878 0.56581 0.21366 0.0
H1487 H 0.7905 0.56208 0.16397 0.0
C1488 C 0.42419 0.16046 0.03611 0.0
C1489 C 0.43008 0.16631 0.98987 0.0
C1490 C 0.42561 0.16761 0.07993 0.0
C1491 C 0.44307 0.20009 0.13386 0.0
H1492 H 0.41102 0.19057 0.19695 0.0
C1493 C 0.43244 0.23522 0.23569 0.0
C1494 C 0.42535 0.23143 0.28112 0.0
C1495 C 0.43435 0.2267 0.20723 0.0
C1496 C 0.42008 0.19326 0.18041 0.0
H1497 H 0.44295 0.18418 0.95464 0.0
H1498 H 0.44523 0.1966 0.03032 0.0
H1499 H 0.4126 0.17647 0.13607 0.0
H1500 H 0.41479 0.21575 0.33258 0.0
H1501 H 0.41803 0.20084 0.28244 0.0
H1502 H 0.45036 0.21718 0.1767 0.0
C1503 C 0.43958 0.1865 0.0332 0.0
C1504 C 0.42102 0.18515 0.14561 0.0
C1505 C 0.43822 0.17936 0.98955 0.0
C1506 C 0.42027 0.21896 0.29766 0.0
C1507 C 0.4221 0.21041 0.26894 0.0
C1508 C 0.4421 0.20825 0.16843 0.0
C1509 C 0.43291 0.18077 0.07834 0.0
C1510 C 0.43246 0.18857 0.12099 0.0
C1511 C 0.42914 0.21419 0.22336 0.0
C1512 C 0.43053 0.20503 0.19119 0.0
H1513 H 0.41795 0.15041 0.03783 0.0
H1514 H 0.42056 0.16287 0.11444 0.0
H1515 H 0.45207 0.20294 0.1163 0.0
H1516 H 0.43651 0.24476 0.22194 0.0
H1517 H 0.43966 0.22985 0.17188 0.0
C1518 C 0.81842 0.258 0.00525 0.0
C1519 C 0.83149 0.26308 0.00523 0.0
C1520 C 0.81133 0.25176 0.04841 0.0
C1521 C 0.81307 0.23367 0.15673 0.0
H1522 H 0.78056 0.22971 0.18914 0.0
C1523 C 0.77899 0.19684 0.30236 0.0
C1524 C 0.76666 0.18943 0.28424 0.0
C1525 C 0.78756 0.20759 0.27562 0.0
C1526 C 0.78963 0.23074 0.18051 0.0
H1527 H 0.84748 0.26673 0.05238 0.0
H1528 H 0.83511 0.25607 0.1282 0.0
H1529 H 0.79473 0.24658 0.13192 0.0
H1530 H 0.75362 0.18756 0.22419 0.0
H1531 H 0.76857 0.2063 0.17771 0.0
H1532 H 0.80785 0.21768 0.20463 0.0
C1533 C 0.83031 0.25659 0.09425 0.0
C1534 C 0.79775 0.24039 0.14775 0.0
C1535 C 0.83741 0.26279 0.0509 0.0
C1536 C 0.76306 0.19304 0.23912 0.0
C1537 C 0.77158 0.20384 0.21273 0.0
C1538 C 0.805 0.2241 0.18982 0.0
C1539 C 0.81714 0.25053 0.09275 0.0
C1540 C 0.80942 0.24175 0.13426 0.0
C1541 C 0.78392 0.21121 0.2306 0.0
C1542 C 0.79306 0.22232 0.20088 0.0
H1543 H 0.81355 0.25812 0.97084 0.0
H1544 H 0.80122 0.24717 0.04559 0.0
H1545 H 0.82188 0.23428 0.14667 0.0
H1546 H 0.78204 0.19432 0.33707 0.0
H1547 H 0.79701 0.21312 0.29033 0.0
C1548 C 0.42791 0.26518 0.54017 0.0
C1549 C 0.4335 0.26442 0.49428 0.0
C1550 C 0.42893 0.25948 0.58493 0.0
C1551 C 0.44477 0.24314 0.64196 0.0
H1552 H 0.41226 0.22211 0.7046 0.0
C1553 C 0.43102 0.19631 0.73991 0.0
C1554 C 0.42388 0.19312 0.78521 0.0
C1555 C 0.43372 0.20716 0.71291 0.0
C1556 C 0.42146 0.22808 0.68827 0.0
H1557 H 0.44544 0.25803 0.46053 0.0
H1558 H 0.44702 0.24797 0.53787 0.0
H1559 H 0.4149 0.23812 0.64316 0.0
H1560 H 0.41408 0.19887 0.838 0.0
H1561 H 0.41867 0.21779 0.79017 0.0
H1562 H 0.4511 0.23259 0.68534 0.0
C1563 C 0.44193 0.25301 0.53974 0.0
C1564 C 0.423 0.23731 0.65313 0.0
C1565 C 0.44095 0.25874 0.49513 0.0
C1566 C 0.41958 0.20106 0.80314 0.0
C1567 C 0.42218 0.21188 0.77579 0.0
C1568 C 0.44319 0.23385 0.67686 0.0
C1569 C 0.43554 0.2529 0.58465 0.0
C1570 C 0.43458 0.24472 0.62842 0.0
C1571 C 0.42926 0.21501 0.73034 0.0
C1572 C 0.43143 0.226 0.69926 0.0
H1573 H 0.42221 0.2696 0.54096 0.0
H1574 H 0.42411 0.25979 0.61918 0.0
H1575 H 0.45387 0.24884 0.62438 0.0
H1576 H 0.43451 0.19042 0.7251 0.0
H1577 H 0.43902 0.20922 0.67757 0.0
C1578 C 0.81087 0.22042 0.73482 0.0
C1579 C 0.81127 0.23009 0.76477 0.0
C1580 C 0.79989 0.21199 0.70917 0.0
C1581 C 0.77029 0.20883 0.65994 0.0
H1582 H 0.76246 0.17459 0.63678 0.0
C1583 C 0.74136 0.17959 0.48849 0.0
C1584 C 0.73491 0.16644 0.49141 0.0
C1585 C 0.74806 0.18684 0.53063 0.0
C1586 C 0.7643 0.18403 0.64364 0.0
H1587 H 0.80034 0.23828 0.79253 0.0
H1588 H 0.78111 0.2234 0.74873 0.0
H1589 H 0.77937 0.18787 0.69477 0.0
H1590 H 0.72937 0.15062 0.54249 0.0
H1591 H 0.74077 0.1633 0.61661 0.0
H1592 H 0.75514 0.20495 0.60911 0.0
C1593 C 0.78935 0.22249 0.74407 0.0
C1594 C 0.77417 0.19173 0.67629 0.0
C1595 C 0.80037 0.23099 0.76936 0.0
C1596 C 0.73437 0.16073 0.53879 0.0
C1597 C 0.741 0.168 0.58116 0.0
C1598 C 0.76033 0.20109 0.62764 0.0
C1599 C 0.789 0.21294 0.71327 0.0
C1600 C 0.77754 0.20433 0.68365 0.0
C1601 C 0.74836 0.18112 0.57691 0.0
C1602 C 0.75745 0.1887 0.61786 0.0
H1603 H 0.81912 0.2195 0.73033 0.0
H1604 H 0.80006 0.20492 0.68503 0.0
H1605 H 0.77263 0.2185 0.66449 0.0
H1606 H 0.74195 0.18431 0.45265 0.0
H1607 H 0.75366 0.19689 0.52561 0.0
C1608 C 0.77757 0.58068 0.79113 0.0
C1609 C 0.7652 0.57601 0.774 0.0
C1610 C 0.786 0.57866 0.76241 0.0
C1611 C 0.78739 0.55823 0.66206 0.0
H1612 H 0.81998 0.58672 0.63074 0.0
C1613 C 0.81599 0.56038 0.48478 0.0
C1614 C 0.82913 0.56775 0.48594 0.0
C1615 C 0.80888 0.55959 0.5278 0.0
C1616 C 0.81105 0.57857 0.63999 0.0
H1617 H 0.75196 0.56551 0.71343 0.0
H1618 H 0.76665 0.56202 0.66354 0.0
H1619 H 0.80624 0.58914 0.69104 0.0
H1620 H 0.84514 0.57916 0.53467 0.0
H1621 H 0.83271 0.57757 0.61015 0.0
H1622 H 0.79208 0.5477 0.61033 0.0
C1623 C 0.76981 0.56715 0.69933 0.0
C1624 C 0.80315 0.57999 0.67444 0.0
C1625 C 0.76143 0.56925 0.72773 0.0
C1626 C 0.83503 0.5735 0.53233 0.0
C1627 C 0.8279 0.57267 0.5755 0.0
C1628 C 0.79531 0.55678 0.62787 0.0
C1629 C 0.78218 0.57183 0.71632 0.0
C1630 C 0.79111 0.56992 0.68477 0.0
C1631 C 0.81473 0.56609 0.57313 0.0
C1632 C 0.80711 0.56702 0.61535 0.0
H1633 H 0.78075 0.5859 0.82667 0.0
H1634 H 0.79548 0.58235 0.77647 0.0
H1635 H 0.77824 0.55024 0.67005 0.0
H1636 H 0.81113 0.55579 0.44973 0.0
H1637 H 0.79877 0.55451 0.52434 0.0
C1638 C 0.58946 0.10456 0.67332 0.0
C1639 C 0.59511 0.09709 0.67024 0.0
C1640 C 0.58267 0.10531 0.63192 0.0
C1641 C 0.57107 0.10813 0.53402 0.0
H1642 H 0.54883 0.07577 0.47254 0.0
C1643 C 0.52494 0.09674 0.4335 0.0
C1644 C 0.52179 0.08974 0.38785 0.0
C1645 C 0.53527 0.09862 0.46247 0.0
C1646 C 0.5551 0.08491 0.4887 0.0
H1647 H 0.59896 0.08542 0.61968 0.0
H1648 H 0.58731 0.08694 0.54701 0.0
H1649 H 0.5652 0.07797 0.53109 0.0
H1650 H 0.52703 0.07919 0.33681 0.0
H1651 H 0.54505 0.08241 0.38771 0.0
H1652 H 0.56061 0.11492 0.49285 0.0
C1653 C 0.58786 0.09195 0.58196 0.0
C1654 C 0.56453 0.0862 0.52215 0.0
C1655 C 0.59462 0.09116 0.6235 0.0
C1656 C 0.52919 0.08461 0.37187 0.0
C1657 C 0.53949 0.08643 0.40104 0.0
C1658 C 0.56159 0.10682 0.50075 0.0
C1659 C 0.58143 0.09866 0.58635 0.0
C1660 C 0.57249 0.09777 0.54594 0.0
C1661 C 0.54265 0.09347 0.4466 0.0
C1662 C 0.55336 0.09514 0.47846 0.0
H1663 H 0.58967 0.10928 0.70871 0.0
H1664 H 0.57778 0.1105 0.63686 0.0
H1665 H 0.57716 0.11721 0.55105 0.0
H1666 H 0.51944 0.10083 0.44688 0.0
H1667 H 0.53737 0.10393 0.49781 0.0
C1668 C 0.91878 0.44375 0.40319 0.0
C1669 C 0.90968 0.43136 0.39183 0.0
C1670 C 0.91573 0.45125 0.43322 0.0
C1671 C 0.89125 0.44866 0.52503 0.0
H1672 H 0.91104 0.48487 0.51806 0.0
C1673 C 0.89472 0.47939 0.69559 0.0
C1674 C 0.89819 0.49202 0.6884 0.0
C1675 C 0.8937 0.47186 0.65386 0.0
C1676 C 0.90518 0.47478 0.52007 0.0
H1677 H 0.89013 0.41724 0.40027 0.0
H1678 H 0.88456 0.4305 0.44973 0.0
H1679 H 0.9138 0.47236 0.45336 0.0
H1680 H 0.90234 0.50638 0.63139 0.0
H1681 H 0.89992 0.49304 0.55797 0.0
H1682 H 0.88217 0.45108 0.59013 0.0
C1683 C 0.89422 0.43434 0.43794 0.0
C1684 C 0.90697 0.46755 0.48335 0.0
C1685 C 0.89737 0.42673 0.40923 0.0
C1686 C 0.89976 0.49671 0.63816 0.0
C1687 C 0.89849 0.48907 0.59612 0.0
C1688 C 0.88921 0.45589 0.56087 0.0
C1689 C 0.90341 0.44665 0.45135 0.0
C1690 C 0.90035 0.45437 0.48632 0.0
C1691 C 0.89587 0.47666 0.60353 0.0
C1692 C 0.89648 0.46905 0.56015 0.0
H1693 H 0.92837 0.4475 0.39041 0.0
H1694 H 0.92319 0.46053 0.44339 0.0
H1695 H 0.88597 0.43858 0.52928 0.0
H1696 H 0.89351 0.47547 0.73379 0.0
H1697 H 0.89189 0.46247 0.6617 0.0
C1698 C 0.54749 0.4642 0.36255 0.0
C1699 C 0.56 0.47123 0.37908 0.0
C1700 C 0.5388 0.45372 0.39041 0.0
C1701 C 0.53645 0.43048 0.48574 0.0
H1702 H 0.50524 0.42865 0.52511 0.0
C1703 C 0.50897 0.40488 0.666 0.0
C1704 C 0.49597 0.4001 0.66802 0.0
C1705 C 0.51575 0.41085 0.62185 0.0
C1706 C 0.51375 0.42879 0.51354 0.0
H1707 H 0.57323 0.47267 0.43749 0.0
H1708 H 0.55811 0.45443 0.48581 0.0
H1709 H 0.51911 0.44463 0.46453 0.0
H1710 H 0.47971 0.39682 0.62355 0.0
H1711 H 0.49152 0.40702 0.54601 0.0
H1712 H 0.53124 0.41481 0.53547 0.0
C1713 C 0.55503 0.45696 0.45119 0.0
C1714 C 0.52173 0.438 0.47893 0.0
C1715 C 0.56366 0.46749 0.42374 0.0
C1716 C 0.48974 0.40051 0.62345 0.0
C1717 C 0.49652 0.40644 0.57912 0.0
C1718 C 0.52844 0.4212 0.52003 0.0
C1719 C 0.54251 0.44998 0.43492 0.0
C1720 C 0.53332 0.43917 0.46588 0.0
C1721 C 0.50967 0.41211 0.57849 0.0
C1722 C 0.51716 0.42048 0.53556 0.0
H1723 H 0.54439 0.46683 0.32824 0.0
H1724 H 0.52921 0.44848 0.37697 0.0
H1725 H 0.54525 0.43104 0.4756 0.0
H1726 H 0.51407 0.40469 0.69956 0.0
H1727 H 0.52586 0.41517 0.62303 0.0
C1728 C 0.57981 0.79806 0.20147 0.0
C1729 C 0.57484 0.80555 0.21799 0.0
C1730 C 0.57763 0.78748 0.22959 0.0
C1731 C 0.55668 0.76502 0.32722 0.0
H1732 H 0.58555 0.7619 0.36293 0.0
C1733 C 0.5587 0.73912 0.50655 0.0
C1734 C 0.56659 0.73392 0.50721 0.0
C1735 C 0.55781 0.74514 0.46271 0.0
C1736 C 0.5773 0.7624 0.35241 0.0
H1737 H 0.56352 0.80771 0.27651 0.0
H1738 H 0.55974 0.78929 0.32545 0.0
H1739 H 0.58791 0.77798 0.30241 0.0
H1740 H 0.57877 0.7299 0.46074 0.0
H1741 H 0.57699 0.74018 0.38378 0.0
H1742 H 0.54612 0.74961 0.37804 0.0
C1743 C 0.56525 0.79154 0.2906 0.0
C1744 C 0.57869 0.77167 0.31782 0.0
C1745 C 0.56751 0.80216 0.2628 0.0
C1746 C 0.57272 0.73394 0.46169 0.0
C1747 C 0.57178 0.73992 0.41768 0.0
C1748 C 0.55527 0.75569 0.36156 0.0
C1749 C 0.57032 0.78412 0.27445 0.0
C1750 C 0.56847 0.77329 0.30595 0.0
C1751 C 0.56472 0.74603 0.41835 0.0
C1752 C 0.56565 0.75449 0.37568 0.0
H1753 H 0.58547 0.80041 0.16703 0.0
H1754 H 0.58162 0.78191 0.21615 0.0
H1755 H 0.5486 0.76593 0.31805 0.0
H1756 H 0.5538 0.73924 0.54088 0.0
H1757 H 0.55235 0.74981 0.46488 0.0
C1758 C 0.25359 0.81705 0.51598 0.0
C1759 C 0.26115 0.8301 0.51078 0.0
C1760 C 0.24722 0.80962 0.47378 0.0
C1761 C 0.23516 0.81256 0.34748 0.0
H1762 H 0.22295 0.77685 0.34493 0.0
C1763 C 0.19009 0.77863 0.23929 0.0
C1764 C 0.18852 0.76723 0.22096 0.0
C1765 C 0.20069 0.78669 0.26797 0.0
C1766 C 0.2264 0.78683 0.34405 0.0
H1767 H 0.26888 0.84544 0.45628 0.0
H1768 H 0.25825 0.83238 0.38189 0.0
H1769 H 0.23956 0.79005 0.40369 0.0
H1770 H 0.19701 0.75553 0.21604 0.0
H1771 H 0.2158 0.76984 0.26362 0.0
H1772 H 0.22237 0.80941 0.28638 0.0
C1773 C 0.2568 0.82794 0.41906 0.0
C1774 C 0.23584 0.79442 0.37863 0.0
C1775 C 0.26302 0.83543 0.46161 0.0
C1776 C 0.19792 0.7642 0.2304 0.0
C1777 C 0.20867 0.7724 0.25798 0.0
C1778 C 0.22592 0.80501 0.31208 0.0
C1779 C 0.24843 0.81499 0.42495 0.0
C1780 C 0.24004 0.80732 0.38216 0.0
C1781 C 0.21013 0.78368 0.27793 0.0
C1782 C 0.22109 0.79197 0.31103 0.0
H1783 H 0.2519 0.81262 0.55331 0.0
H1784 H 0.24077 0.79976 0.48043 0.0
H1785 H 0.23803 0.82241 0.34899 0.0
H1786 H 0.18295 0.78116 0.23276 0.0
H1787 H 0.20126 0.79512 0.28346 0.0
C1788 C 0.16094 0.42417 0.46316 0.0
C1789 C 0.16672 0.42996 0.50966 0.0
C1790 C 0.16818 0.42528 0.42001 0.0
C1791 C 0.20081 0.44199 0.36793 0.0
H1792 H 0.19065 0.40988 0.30387 0.0
C1793 C 0.23539 0.43066 0.26611 0.0
C1794 C 0.23159 0.42375 0.22021 0.0
C1795 C 0.22695 0.43263 0.29474 0.0
C1796 C 0.19352 0.41896 0.3207 0.0
H1797 H 0.1846 0.44226 0.54611 0.0
H1798 H 0.19716 0.44401 0.47153 0.0
H1799 H 0.17666 0.41177 0.36448 0.0
H1800 H 0.21595 0.41355 0.16821 0.0
H1801 H 0.20115 0.41689 0.21867 0.0
H1802 H 0.21792 0.44899 0.32559 0.0
C1803 C 0.18705 0.43869 0.46797 0.0
C1804 C 0.18548 0.42008 0.35535 0.0
C1805 C 0.17983 0.43763 0.51097 0.0
C1806 C 0.21916 0.41889 0.20347 0.0
C1807 C 0.21068 0.42078 0.23237 0.0
C1808 C 0.20888 0.44084 0.33351 0.0
C1809 C 0.18134 0.43217 0.42251 0.0
C1810 C 0.18913 0.43154 0.38027 0.0
C1811 C 0.21449 0.42767 0.27832 0.0
C1812 C 0.20543 0.42925 0.3104 0.0
H1813 H 0.15086 0.41829 0.4607 0.0
H1814 H 0.16347 0.42035 0.38524 0.0
H1815 H 0.20383 0.451 0.38572 0.0
H1816 H 0.24491 0.43456 0.28005 0.0
H1817 H 0.23011 0.43782 0.33038 0.0
C1818 C 0.47269 0.91434 0.61795 0.0
C1819 C 0.48002 0.90884 0.60653 0.0
C1820 C 0.46269 0.91228 0.58615 0.0
C1821 C 0.45075 0.90238 0.45408 0.0
H1822 H 0.42014 0.8993 0.50976 0.0
C1823 C 0.41014 0.89321 0.32136 0.0
C1824 C 0.4058 0.90175 0.32695 0.0
C1825 C 0.41745 0.89207 0.35961 0.0
C1826 C 0.42864 0.90015 0.49373 0.0
H1827 H 0.48245 0.89666 0.55335 0.0
H1828 H 0.46491 0.89288 0.49863 0.0
H1829 H 0.43671 0.90154 0.56798 0.0
H1830 H 0.4048 0.91497 0.3791 0.0
H1831 H 0.41756 0.91295 0.44583 0.0
H1832 H 0.44277 0.90108 0.37997 0.0
C1833 C 0.46702 0.89901 0.53145 0.0
C1834 C 0.43816 0.9015 0.527 0.0
C1835 C 0.47707 0.90115 0.56296 0.0
C1836 C 0.40805 0.90835 0.37344 0.0
C1837 C 0.41534 0.90717 0.41179 0.0
C1838 C 0.44123 0.90095 0.42096 0.0
C1839 C 0.45975 0.90461 0.54241 0.0
C1840 C 0.44938 0.90273 0.50752 0.0
C1841 C 0.42052 0.89939 0.40435 0.0
C1842 C 0.43011 0.89991 0.44034 0.0
H1843 H 0.47473 0.92033 0.65121 0.0
H1844 H 0.45741 0.9169 0.59536 0.0
H1845 H 0.45935 0.90355 0.43759 0.0
H1846 H 0.40849 0.88789 0.28626 0.0
H1847 H 0.42111 0.88581 0.35327 0.0
C1848 C 0.08087 0.55169 0.63322 0.0
C1849 C 0.08638 0.56418 0.61639 0.0
C1850 C 0.08291 0.54302 0.60642 0.0
C1851 C 0.10459 0.54078 0.51535 0.0
H1852 H 0.07568 0.50957 0.47266 0.0
C1853 C 0.10454 0.51367 0.33687 0.0
C1854 C 0.0963 0.50068 0.33388 0.0
C1855 C 0.10492 0.52033 0.38082 0.0
C1856 C 0.08392 0.51808 0.48522 0.0
H1857 H 0.09844 0.5774 0.55855 0.0
H1858 H 0.10202 0.56232 0.51214 0.0
H1859 H 0.07295 0.52335 0.53166 0.0
H1860 H 0.08289 0.48431 0.37664 0.0
H1861 H 0.08377 0.49591 0.45389 0.0
H1862 H 0.11555 0.53566 0.46827 0.0
C1863 C 0.09618 0.55924 0.54615 0.0
C1864 C 0.08232 0.526 0.5189 0.0
C1865 C 0.09403 0.56784 0.57249 0.0
C1866 C 0.08924 0.49433 0.37747 0.0
C1867 C 0.08967 0.501 0.42162 0.0
C1868 C 0.10621 0.53281 0.48205 0.0
C1869 C 0.09065 0.54674 0.56276 0.0
C1870 C 0.09259 0.5376 0.53303 0.0
C1871 C 0.09714 0.51414 0.42303 0.0
C1872 C 0.09584 0.52154 0.46529 0.0
H1873 H 0.07493 0.54858 0.66695 0.0
H1874 H 0.07854 0.53344 0.62005 0.0
H1875 H 0.1127 0.54958 0.52639 0.0
H1876 H 0.11015 0.51886 0.3041 0.0
H1877 H 0.11073 0.53044 0.38022 0.0
C1878 C 0.44559 0.53287 0.63404 0.0
C1879 C 0.43324 0.52542 0.61616 0.0
C1880 C 0.45424 0.54335 0.60614 0.0
C1881 C 0.45666 0.5657 0.50617 0.0
H1882 H 0.48894 0.56876 0.47718 0.0
C1883 C 0.4865 0.59196 0.33118 0.0
C1884 C 0.49959 0.59725 0.33321 0.0
C1885 C 0.4791 0.58575 0.37373 0.0
C1886 C 0.4801 0.56827 0.4858 0.0
H1887 H 0.42026 0.52321 0.55533 0.0
H1888 H 0.43535 0.54146 0.50672 0.0
H1889 H 0.47461 0.55267 0.53626 0.0
H1890 H 0.51525 0.60119 0.38303 0.0
H1891 H 0.50233 0.59057 0.45772 0.0
H1892 H 0.46204 0.58115 0.45496 0.0
C1893 C 0.43831 0.53926 0.54249 0.0
C1894 C 0.47187 0.55899 0.51955 0.0
C1895 C 0.4297 0.52874 0.57012 0.0
C1896 C 0.50518 0.59709 0.38001 0.0
C1897 C 0.49777 0.59092 0.42272 0.0
C1898 C 0.46493 0.57504 0.47267 0.0
C1899 C 0.45068 0.54664 0.56007 0.0
C1900 C 0.45994 0.55741 0.52906 0.0
C1901 C 0.48462 0.58476 0.41945 0.0
C1902 C 0.47663 0.57623 0.46102 0.0
H1903 H 0.4486 0.53058 0.66945 0.0
H1904 H 0.4637 0.54891 0.62072 0.0
H1905 H 0.4476 0.56482 0.51351 0.0
H1906 H 0.48187 0.59195 0.29581 0.0
H1907 H 0.46901 0.58106 0.36957 0.0
C1908 C 0.10403 0.58975 0.81431 0.0
C1909 C 0.09922 0.59789 0.82005 0.0
C1910 C 0.10544 0.58368 0.85675 0.0
C1911 C 0.09265 0.57387 0.98809 0.0
H1912 H 0.11441 0.5596 0.98419 0.0
C1913 C 0.08087 0.5293 0.10162 0.0
C1914 C 0.09046 0.52689 0.11538 0.0
C1915 C 0.08354 0.53987 0.07244 0.0
C1916 C 0.1084 0.56365 0.98697 0.0
H1917 H 0.09318 0.60692 0.87539 0.0
H1918 H 0.09628 0.59682 0.9501 0.0
H1919 H 0.11767 0.57582 0.92381 0.0
H1920 H 0.11043 0.53388 0.11208 0.0
H1921 H 0.11528 0.55272 0.06409 0.0
H1922 H 0.08378 0.56214 0.05287 0.0
C1923 C 0.09844 0.59468 0.91247 0.0
C1924 C 0.11014 0.57286 0.95139 0.0
C1925 C 0.09679 0.60059 0.8697 0.0
C1926 C 0.10284 0.53546 0.10124 0.0
C1927 C 0.10558 0.54622 0.07337 0.0
C1928 C 0.09113 0.5649 0.02458 0.0
C1929 C 0.10233 0.58576 0.90636 0.0
C1930 C 0.10198 0.57775 0.95007 0.0
C1931 C 0.09595 0.54848 0.05757 0.0
C1932 C 0.09867 0.5593 0.02339 0.0
H1933 H 0.10596 0.5874 0.7766 0.0
H1934 H 0.10827 0.57678 0.84987 0.0
H1935 H 0.0861 0.57731 0.9885 0.0
H1936 H 0.07122 0.52278 0.11185 0.0
H1937 H 0.07578 0.54103 0.06031 0.0
C1938 C 0.47614 0.56607 0.07189 0.0
C1939 C 0.47388 0.57336 0.10703 0.0
C1940 C 0.46632 0.55673 0.0433 0.0
C1941 C 0.43449 0.54704 0.99638 0.0
H1942 H 0.4343 0.51624 0.96383 0.0
C1943 C 0.40807 0.51586 0.82382 0.0
C1944 C 0.40361 0.50291 0.82646 0.0
C1945 C 0.41449 0.52365 0.86517 0.0
C1946 C 0.43405 0.52468 0.97322 0.0
H1947 H 0.45948 0.57642 0.14033 0.0
H1948 H 0.44232 0.56001 0.09093 0.0
H1949 H 0.44994 0.53118 0.02278 0.0
H1950 H 0.40148 0.48785 0.87625 0.0
H1951 H 0.41249 0.50143 0.94884 0.0
H1952 H 0.41857 0.54051 0.94685 0.0
C1953 C 0.45172 0.56164 0.08487 0.0
C1954 C 0.44316 0.53334 0.00644 0.0
C1955 C 0.46156 0.57102 0.11334 0.0
C1956 C 0.40489 0.4978 0.87277 0.0
C1957 C 0.41129 0.5056 0.91425 0.0
C1958 C 0.42535 0.53835 0.96326 0.0
C1959 C 0.454 0.55442 0.04934 0.0
C1960 C 0.44365 0.54474 0.01759 0.0
C1961 C 0.41655 0.51866 0.91025 0.0
C1962 C 0.42517 0.52717 0.95047 0.0
H1963 H 0.48553 0.56766 0.066 0.0
H1964 H 0.46845 0.55149 0.01566 0.0
H1965 H 0.43463 0.55576 0.0039 0.0
H1966 H 0.40722 0.52011 0.78877 0.0
H1967 H 0.41848 0.53367 0.86053 0.0
C1968 C 0.50316 0.90685 0.87479 0.0
C1969 C 0.49865 0.90034 0.82821 0.0
C1970 C 0.49483 0.90588 0.91335 0.0
C1971 C 0.46311 0.90069 0.9226 0.0
H1972 H 0.46803 0.90093 0.06966 0.0
C1973 C 0.42789 0.90177 0.06388 0.0
C1974 C 0.43269 0.90938 0.10765 0.0
C1975 C 0.43567 0.89941 0.03259 0.0
C1976 C 0.4666 0.90099 0.02867 0.0
H1977 H 0.48191 0.8868 0.78762 0.0
H1978 H 0.46743 0.88507 0.855 0.0
H1979 H 0.48208 0.89823 0.01145 0.0
H1980 H 0.44945 0.92045 0.15301 0.0
H1981 H 0.46314 0.91663 0.09748 0.0
H1982 H 0.44796 0.90387 0.93916 0.0
C1983 C 0.47739 0.89111 0.86123 0.0
C1984 C 0.47461 0.89937 0.99542 0.0
C1985 C 0.48571 0.89206 0.82277 0.0
C1986 C 0.44546 0.91454 0.11955 0.0
C1987 C 0.45329 0.91227 0.08794 0.0
C1988 C 0.45519 0.90239 0.95568 0.0
C1989 C 0.48183 0.89839 0.90601 0.0
C1990 C 0.47295 0.89923 0.94202 0.0
C1991 C 0.44849 0.9047 0.04396 0.0
C1992 C 0.45684 0.9026 0.00914 0.0
H1993 H 0.51308 0.91327 0.88034 0.0
H1994 H 0.49853 0.91161 0.94743 0.0
H1995 H 0.46177 0.90092 0.8816 0.0
H1996 H 0.41806 0.89754 0.05389 0.0
H1997 H 0.4316 0.89336 -0.0004 0.0
C1998 C 0.19828 0.41789 0.70361 0.0
C1999 C 0.19053 0.4225 0.72086 0.0
C2000 C 0.20891 0.42018 0.73166 0.0
C2001 C 0.23097 0.44105 0.83052 0.0
H2002 H 0.23527 0.4127 0.86271 0.0
C2003 C 0.25753 0.43922 0.00793 0.0
C2004 C 0.26325 0.4318 0.00716 0.0
C2005 C 0.25127 0.44001 0.9647 0.0
C2006 C 0.23443 0.42081 0.85319 0.0
H2007 H 0.18792 0.43322 0.7808 0.0
H2008 H 0.20641 0.43718 0.82961 0.0
H2009 H 0.21897 0.41007 0.80285 0.0
H2010 H 0.26788 0.42034 0.95884 0.0
H2011 H 0.25715 0.42193 0.88298 0.0
H2012 H 0.24626 0.45174 0.88168 0.0
C2013 C 0.20434 0.4319 0.79421 0.0
C2014 C 0.22504 0.41927 0.81898 0.0
C2015 C 0.19368 0.42952 0.76646 0.0
C2016 C 0.26346 0.42603 0.96089 0.0
C2017 C 0.25723 0.42687 0.91751 0.0
C2018 C 0.24042 0.44262 0.86449 0.0
C2019 C 0.21205 0.42723 0.77721 0.0
C2020 C 0.22299 0.42928 0.80837 0.0
C2021 C 0.25065 0.43347 0.91955 0.0
C2022 C 0.24205 0.43243 0.87733 0.0
H2023 H 0.19613 0.41247 0.66855 0.0
H2024 H 0.21471 0.41651 0.71757 0.0
H2025 H 0.22974 0.44899 0.82231 0.0
H2026 H 0.25723 0.44383 0.04287 0.0
H2027 H 0.24625 0.44512 0.9679 0.0
C2028 C 0.56442 0.76165 0.76226 0.0
C2029 C 0.57082 0.76529 0.71517 0.0
C2030 C 0.56222 0.77002 0.79038 0.0
C2031 C 0.57518 0.80338 0.8129 0.0
H2032 H 0.54378 0.79272 0.88396 0.0
C2033 C 0.57127 0.83571 0.96055 0.0
C2034 C 0.56601 0.82984 0.00758 0.0
C2035 C 0.56966 0.82854 0.91656 0.0
C2036 C 0.55261 0.79585 0.86445 0.0
H2037 H 0.5798 0.78051 0.66033 0.0
H2038 H 0.57611 0.7952 0.71002 0.0
H2039 H 0.54547 0.77859 0.82291 0.0
H2040 H 0.55408 0.8119 0.04429 0.0
H2041 H 0.5515 0.79947 0.96835 0.0
H2042 H 0.58258 0.82034 0.85611 0.0
C2043 C 0.57278 0.78585 0.72497 0.0
C2044 C 0.55356 0.78776 0.82947 0.0
C2045 C 0.57486 0.77744 0.69654 0.0
C2046 C 0.55832 0.81674 0.00875 0.0
C2047 C 0.55677 0.80959 0.96494 0.0
C2048 C 0.57427 0.81142 0.84819 0.0
C2049 C 0.56648 0.78224 0.77227 0.0
C2050 C 0.56495 0.79134 0.80429 0.0
C2051 C 0.5628 0.81537 0.91875 0.0
C2052 C 0.56307 0.80764 0.87539 0.0
H2053 H 0.56114 0.75235 0.7776 0.0
H2054 H 0.55749 0.76703 0.82704 0.0
H2055 H 0.58411 0.80635 0.7944 0.0
H2056 H 0.57714 0.8458 0.95821 0.0
H2057 H 0.57419 0.83332 0.88131 0.0
C2058 C 0.21634 0.80089 0.6958 0.0
C2059 C 0.22871 0.80805 0.71386 0.0
C2060 C 0.20771 0.79001 0.72172 0.0
C2061 C 0.2055 0.76617 0.81332 0.0
H2062 H 0.1738 0.76324 0.85266 0.0
C2063 C 0.17812 0.73945 0.9915 0.0
C2064 C 0.16508 0.73449 0.99364 0.0
C2065 C 0.18483 0.74557 0.94745 0.0
C2066 C 0.18245 0.76368 0.84101 0.0
H2067 H 0.24175 0.80936 0.77289 0.0
H2068 H 0.22671 0.79043 0.81786 0.0
H2069 H 0.18763 0.77983 0.79419 0.0
H2070 H 0.14872 0.73096 0.94941 0.0
H2071 H 0.16043 0.74144 0.87202 0.0
H2072 H 0.20047 0.7502 0.86096 0.0
C2073 C 0.22371 0.79316 0.78353 0.0
C2074 C 0.1904 0.77325 0.80762 0.0
C2075 C 0.23229 0.80408 0.75804 0.0
C2076 C 0.15877 0.73481 0.94922 0.0
C2077 C 0.1655 0.7409 0.90498 0.0
C2078 C 0.1975 0.75654 0.84636 0.0
C2079 C 0.21133 0.78603 0.76574 0.0
C2080 C 0.20217 0.77483 0.79479 0.0
C2081 C 0.17866 0.7468 0.90434 0.0
C2082 C 0.18606 0.75543 0.86196 0.0
H2083 H 0.21331 0.8037 0.6618 0.0
H2084 H 0.19822 0.78468 0.70718 0.0
H2085 H 0.21444 0.76705 0.80327 0.0
H2086 H 0.18328 0.73931 0.02492 0.0
H2087 H 0.19495 0.75006 0.94863 0.0
C2088 C 0.37069 0.13555 0.80661 0.0
C2089 C 0.38079 0.13873 0.83998 0.0
C2090 C 0.35836 0.12891 0.82465 0.0
C2091 C 0.33901 0.1094 0.93417 0.0
H2092 H 0.31508 0.11839 0.88193 0.0
C2093 C 0.29019 0.09256 0.02562 0.0
C2094 C 0.28006 0.08828 0.99133 0.0
C2095 C 0.3025 0.09829 0.0072 0.0
C2096 C 0.32164 0.11571 0.89656 0.0
H2097 H 0.38589 0.13741 0.91851 0.0
H2098 H 0.36447 0.12614 0.95022 0.0
H2099 H 0.33649 0.12917 0.84955 0.0
H2100 H 0.27491 0.08656 0.91079 0.0
H2101 H 0.29635 0.09663 0.87891 0.0
H2102 H 0.32413 0.09612 0.98206 0.0
C2103 C 0.366 0.12851 0.90983 0.0
C2104 C 0.3339 0.12184 0.87787 0.0
C2105 C 0.37831 0.13504 0.89169 0.0
C2106 C 0.28249 0.08976 0.93829 0.0
C2107 C 0.29478 0.09559 0.91997 0.0
C2108 C 0.32676 0.10335 0.95323 0.0
C2109 C 0.35586 0.1254 0.87662 0.0
C2110 C 0.34275 0.11875 0.89631 0.0
C2111 C 0.30491 0.09996 0.9542 0.0
C2112 C 0.31795 0.10642 0.93449 0.0
H2113 H 0.37228 0.13818 0.76648 0.0
H2114 H 0.35079 0.12648 0.79772 0.0
H2115 H 0.3455 0.10662 0.94871 0.0
H2116 H 0.28862 0.09154 0.06667 0.0
H2117 H 0.31014 0.10164 0.03445 0.0
C2118 C 0.91836 0.20359 0.93966 0.0
C2119 C 0.91812 0.20022 0.99139 0.0
C2120 C 0.91306 0.2108 0.92465 0.0
C2121 C 0.889 0.21828 0.96359 0.0
H2122 H 0.90478 0.24505 0.86351 0.0
C2123 C 0.86692 0.24811 0.9069 0.0
C2124 C 0.86721 0.25116 0.85473 0.0
C2125 C 0.8739 0.24281 0.92484 0.0
C2126 C 0.90019 0.23752 0.89108 0.0
H2127 H 0.91239 0.20204 0.06813 0.0
H2128 H 0.90308 0.21463 0.0418 0.0
H2129 H 0.91573 0.23426 0.89297 0.0
H2130 H 0.8752 0.25116 0.78057 0.0
H2131 H 0.88719 0.24162 0.81167 0.0
H2132 H 0.87335 0.22127 0.96101 0.0
C2133 C 0.90731 0.2116 0.01287 0.0
C2134 C 0.90648 0.23137 0.90806 0.0
C2135 C 0.9127 0.20445 0.02796 0.0
C2136 C 0.87479 0.24895 0.82101 0.0
C2137 C 0.88173 0.24354 0.83893 0.0
C2138 C 0.88268 0.22437 0.94642 0.0
C2139 C 0.90732 0.21475 0.96098 0.0
C2140 C 0.90093 0.22166 0.94439 0.0
C2141 C 0.88128 0.24031 0.89101 0.0
C2142 C 0.88818 0.23404 0.90986 0.0
H2143 H 0.92249 0.2005 0.91051 0.0
H2144 H 0.91311 0.21298 0.88433 0.0
H2145 H 0.88439 0.2107 0.99094 0.0
H2146 H 0.86126 0.24981 0.93403 0.0
H2147 H 0.87352 0.24067 0.96535 0.0
C2148 C 0.75548 0.62534 0.80297 0.0
C2149 C 0.74759 0.61496 0.83358 0.0
C2150 C 0.76027 0.63753 0.82178 0.0
C2151 C 0.76762 0.65491 0.94361 0.0
H2152 H 0.77146 0.68227 0.85741 0.0
C2153 C 0.78806 0.70538 0.0213 0.0
C2154 C 0.79687 0.71499 0.98962 0.0
C2155 C 0.78093 0.69314 0.00257 0.0
C2156 C 0.77052 0.67474 0.88187 0.0
H2157 H 0.7382 0.60925 0.90737 0.0
H2158 H 0.74648 0.63048 0.93988 0.0
H2159 H 0.76092 0.66094 0.82354 0.0
H2160 H 0.80497 0.71929 0.91316 0.0
H2161 H 0.79268 0.698 0.88089 0.0
H2162 H 0.77739 0.6687 0.00165 0.0
C2163 C 0.74912 0.6292 0.90164 0.0
C2164 C 0.76449 0.66252 0.86245 0.0
C2165 C 0.74432 0.61703 0.88284 0.0
C2166 C 0.79827 0.71212 0.93866 0.0
C2167 C 0.79114 0.69992 0.91997 0.0
C2168 C 0.77366 0.66712 0.96301 0.0
C2169 C 0.75729 0.63959 0.87161 0.0
C2170 C 0.76308 0.65248 0.89294 0.0
C2171 C 0.78244 0.69026 0.95174 0.0
C2172 C 0.7753 0.67719 0.93219 0.0
H2173 H 0.75819 0.62407 0.76487 0.0
H2174 H 0.76664 0.64532 0.79785 0.0
H2175 H 0.76685 0.64742 0.96787 0.0
H2176 H 0.78672 0.70728 0.06067 0.0
H2177 H 0.77421 0.68594 0.02786 0.0
C2178 C 0.1314 0.3794 0.61053 0.0
C2179 C 0.13433 0.38176 0.663 0.0
C2180 C 0.12438 0.36713 0.59238 0.0
C2181 C 0.10217 0.3348 0.63127 0.0
H2182 H 0.11468 0.32587 0.51136 0.0
C2183 C 0.08235 0.28344 0.56688 0.0
C2184 C 0.08168 0.2809 0.51403 0.0
C2185 C 0.08817 0.29579 0.58465 0.0
C2186 C 0.11092 0.32822 0.54434 0.0
H2187 H 0.13193 0.37307 0.7377 0.0
H2188 H 0.11958 0.35159 0.70587 0.0
H2189 H 0.1258 0.34731 0.54327 0.0
H2190 H 0.08627 0.2893 0.43829 0.0
H2191 H 0.09612 0.31084 0.46915 0.0
H2192 H 0.08721 0.31576 0.63214 0.0
C2193 C 0.12273 0.35928 0.67891 0.0
C2194 C 0.11733 0.34051 0.56273 0.0
C2195 C 0.12985 0.37157 0.69707 0.0
C2196 C 0.08671 0.29095 0.47927 0.0
C2197 C 0.09243 0.30331 0.49702 0.0
C2198 C 0.09568 0.32251 0.61261 0.0
C2199 C 0.12005 0.35694 0.62629 0.0
C2200 C 0.11306 0.34392 0.60648 0.0
C2201 C 0.09336 0.30589 0.54998 0.0
C2202 C 0.10001 0.31905 0.56903 0.0
H2203 H 0.13468 0.38703 0.58322 0.0
H2204 H 0.12234 0.36562 0.55171 0.0
H2205 H 0.09859 0.3372 0.66475 0.0
H2206 H 0.07862 0.2759 0.59472 0.0
H2207 H 0.08886 0.2974 0.62568 0.0
C2208 C 0.7109 0.79827 0.53276 0.0
C2209 C 0.71442 0.80779 0.4959 0.0
C2210 C 0.69853 0.79152 0.55022 0.0
C2211 C 0.67038 0.79427 0.56475 0.0
H2212 H 0.65357 0.75839 0.58795 0.0
C2213 C 0.62384 0.76814 0.67615 0.0
C2214 C 0.61447 0.75686 0.65461 0.0
C2215 C 0.63606 0.77399 0.65695 0.0
C2216 C 0.65813 0.7684 0.58145 0.0
H2217 H 0.70762 0.81747 0.44755 0.0
H2218 H 0.68603 0.80567 0.47802 0.0
H2219 H 0.67466 0.76912 0.55137 0.0
H2220 H 0.61067 0.74272 0.59672 0.0
H2221 H 0.63201 0.75293 0.56332 0.0
H2222 H 0.65384 0.79356 0.59445 0.0
C2223 C 0.69288 0.80352 0.49373 0.0
C2224 C 0.67023 0.77456 0.56089 0.0
C2225 C 0.70523 0.81022 0.47605 0.0
C2226 C 0.61766 0.75141 0.61422 0.0
C2227 C 0.62991 0.75722 0.59519 0.0
C2228 C 0.65832 0.78814 0.58557 0.0
C2229 C 0.68943 0.79419 0.53141 0.0
C2230 C 0.67648 0.78756 0.55229 0.0
C2231 C 0.6392 0.76865 0.61597 0.0
C2232 C 0.65206 0.77514 0.59419 0.0
H2233 H 0.71774 0.79616 0.54887 0.0
H2234 H 0.69619 0.78447 0.57958 0.0
H2235 H 0.675 0.80432 0.55911 0.0
H2236 H 0.62171 0.77258 0.70736 0.0
H2237 H 0.64307 0.7827 0.67422 0.0
C2238 C 0.20195 0.91113 0.47778 0.0
C2239 C 0.19829 0.91771 0.51107 0.0
C2240 C 0.2089 0.9058 0.49618 0.0
C2241 C 0.21529 0.89394 0.61495 0.0
H2242 H 0.24299 0.89553 0.53799 0.0
C2243 C 0.24486 0.8733 0.69474 0.0
C2244 C 0.24805 0.86662 0.65999 0.0
C2245 C 0.23964 0.88042 0.67719 0.0
C2246 C 0.23521 0.8949 0.55973 0.0
H2247 H 0.19929 0.92404 0.58961 0.0
H2248 H 0.21138 0.91473 0.62152 0.0
H2249 H 0.23228 0.90629 0.50561 0.0
H2250 H 0.24841 0.86232 0.57941 0.0
H2251 H 0.23913 0.87453 0.549 0.0
H2252 H 0.21801 0.88236 0.66853 0.0
C2253 C 0.20879 0.91362 0.58133 0.0
C2254 C 0.22908 0.90108 0.54118 0.0
C2255 C 0.20192 0.91901 0.56292 0.0
C2256 C 0.24609 0.86737 0.60726 0.0
C2257 C 0.24084 0.87445 0.58974 0.0
C2258 C 0.22137 0.88772 0.63337 0.0
C2259 C 0.21226 0.90686 0.54828 0.0
C2260 C 0.21903 0.90062 0.56849 0.0
C2261 C 0.23746 0.881 0.62449 0.0
C2262 C 0.23136 0.88806 0.60587 0.0
H2263 H 0.19932 0.90997 0.43763 0.0
H2264 H 0.21135 0.90055 0.46987 0.0
H2265 H 0.20746 0.89325 0.63649 0.0
H2266 H 0.24631 0.87297 0.73559 0.0
H2267 H 0.23732 0.8855 0.70494 0.0
C2268 C 0.71437 0.91305 0.06281 0.0
C2269 C 0.71653 0.91189 0.01063 0.0
C2270 C 0.70215 0.90756 0.08192 0.0
C2271 C 0.66944 0.89575 0.04386 0.0
H2272 H 0.66147 0.87569 0.1676 0.0
C2273 C 0.61851 0.86282 0.10798 0.0
C2274 C 0.61579 0.86139 0.16077 0.0
C2275 C 0.63087 0.86966 0.0908 0.0
C2276 C 0.66356 0.88142 0.13351 0.0
H2277 H 0.70756 0.90427 0.9374 0.0
H2278 H 0.68621 0.89476 0.9708 0.0
H2279 H 0.68292 0.88654 0.13544 0.0
H2280 H 0.62393 0.86622 0.23694 0.0
H2281 H 0.64553 0.87841 0.20697 0.0
H2282 H 0.65014 0.89076 0.042 0.0
C2283 C 0.69399 0.89993 0.99683 0.0
C2284 C 0.67585 0.88761 0.11501 0.0
C2285 C 0.70621 0.90532 0.97779 0.0
C2286 C 0.62572 0.86709 0.19602 0.0
C2287 C 0.6381 0.87402 0.1788 0.0
C2288 C 0.65716 0.88966 0.06259 0.0
C2289 C 0.69184 0.9009 0.04918 0.0
C2290 C 0.67889 0.89474 0.06976 0.0
C2291 C 0.64085 0.87532 0.12595 0.0
C2292 C 0.65404 0.88231 0.10739 0.0
H2293 H 0.72211 0.91805 0.08915 0.0
H2294 H 0.70077 0.90855 0.12234 0.0
H2295 H 0.67155 0.90133 0.00926 0.0
H2296 H 0.61108 0.8585 0.07976 0.0
H2297 H 0.63262 0.87026 0.04988 0.0
C2298 C 0.1305 0.75618 0.1941 0.0
C2299 C 0.13336 0.74916 0.15987 0.0
C2300 C 0.12297 0.76111 0.17843 0.0
C2301 C 0.11229 0.76986 0.06087 0.0
H2302 H 0.08874 0.77186 0.15358 0.0
C2303 C 0.07963 0.78835 0.99593 0.0
C2304 C 0.07906 0.79708 0.02894 0.0
C2305 C 0.08535 0.78157 0.01193 0.0
C2306 C 0.09533 0.77142 0.12736 0.0
H2307 H 0.13022 0.74144 0.08286 0.0
H2308 H 0.11693 0.74979 0.05597 0.0
H2309 H 0.10031 0.76163 0.18179 0.0
H2310 H 0.08382 0.80532 0.10508 0.0
H2311 H 0.09378 0.79352 0.13282 0.0
H2312 H 0.10732 0.77967 0.00651 0.0
C2313 C 0.12072 0.75176 0.09454 0.0
C2314 C 0.10198 0.76559 0.14354 0.0
C2315 C 0.12829 0.74691 0.11008 0.0
C2316 C 0.08412 0.7987 0.07861 0.0
C2317 C 0.08976 0.79187 0.09469 0.0
C2318 C 0.10559 0.77562 0.04462 0.0
C2319 C 0.11809 0.75906 0.12827 0.0
C2320 C 0.11063 0.76482 0.11062 0.0
C2321 C 0.09054 0.78331 0.0614 0.0
C2322 C 0.09712 0.77656 0.07782 0.0
H2323 H 0.13429 0.75812 0.23268 0.0
H2324 H 0.12126 0.76681 0.20524 0.0
H2325 H 0.11903 0.76964 0.03478 0.0
H2326 H 0.0758 0.78686 0.95748 0.0
H2327 H 0.08571 0.77495 0.98561 0.0
C2328 C 0.24727 0.38081 0.10826 0.0
C2329 C 0.24593 0.38336 0.15975 0.0
C2330 C 0.2421 0.36846 0.09104 0.0
C2331 C 0.21781 0.33608 0.12428 0.0
H2332 H 0.23496 0.32699 0.02292 0.0
C2333 C 0.1999 0.28483 0.06601 0.0
C2334 C 0.1994 0.28233 0.01313 0.0
C2335 C 0.20614 0.29714 0.08412 0.0
C2336 C 0.23003 0.32942 0.05094 0.0
H2337 H 0.23837 0.37494 0.23381 0.0
H2338 H 0.22957 0.3534 0.20406 0.0
H2339 H 0.24492 0.34847 0.05509 0.0
H2340 H 0.20536 0.29081 0.93791 0.0
H2341 H 0.21633 0.31237 0.96973 0.0
H2342 H 0.20297 0.31701 0.12035 0.0
C2343 C 0.23438 0.36094 0.17668 0.0
C2344 C 0.23572 0.34172 0.06935 0.0
C2345 C 0.23949 0.37329 0.19384 0.0
C2346 C 0.20556 0.29242 0.97885 0.0
C2347 C 0.21189 0.30476 0.99708 0.0
C2348 C 0.21218 0.32377 0.10614 0.0
C2349 C 0.23553 0.35836 0.12495 0.0
C2350 C 0.22966 0.34521 0.10616 0.0
C2351 C 0.2121 0.30724 0.04986 0.0
C2352 C 0.21821 0.32031 0.06922 0.0
H2353 H 0.25213 0.38835 0.0809 0.0
H2354 H 0.24301 0.36684 0.05082 0.0
H2355 H 0.21276 0.33847 0.15182 0.0
H2356 H 0.19529 0.27728 0.09354 0.0
H2357 H 0.20629 0.29875 0.12506 0.0
C2358 C 0.87511 0.62457 0.30126 0.0
C2359 C 0.86662 0.61505 0.33412 0.0
C2360 C 0.88254 0.63683 0.31942 0.0
C2361 C 0.89403 0.6554 0.43987 0.0
H2362 H 0.89741 0.68275 0.35474 0.0
C2363 C 0.90842 0.70449 0.51979 0.0
C2364 C 0.91656 0.71497 0.49017 0.0
C2365 C 0.90373 0.69237 0.50044 0.0
C2366 C 0.89671 0.67523 0.3787 0.0
H2367 H 0.8594 0.61093 0.41201 0.0
H2368 H 0.87212 0.63223 0.44319 0.0
H2369 H 0.8867 0.66144 0.32095 0.0
H2370 H 0.9264 0.72092 0.41738 0.0
H2371 H 0.91819 0.69976 0.3837 0.0
H2372 H 0.90376 0.6692 0.49809 0.0
C2373 C 0.87324 0.63024 0.40367 0.0
C2374 C 0.89059 0.66302 0.35931 0.0
C2375 C 0.86585 0.61802 0.38561 0.0
C2376 C 0.92012 0.71305 0.4412 0.0
C2377 C 0.91537 0.70094 0.42174 0.0
C2378 C 0.90009 0.66761 0.45933 0.0
C2379 C 0.88163 0.63982 0.37079 0.0
C2380 C 0.88902 0.65293 0.38991 0.0
C2381 C 0.90703 0.69047 0.45094 0.0
C2382 C 0.90136 0.67763 0.42919 0.0
H2383 H 0.87597 0.62258 0.26146 0.0
H2384 H 0.88901 0.64396 0.29323 0.0
H2385 H 0.8932 0.64789 0.46413 0.0
H2386 H 0.9055 0.70563 0.55764 0.0
H2387 H 0.89723 0.68449 0.52368 0.0
C2388 C 0.28613 0.19668 0.44134 0.0
C2389 C 0.28365 0.19422 0.49401 0.0
C2390 C 0.29845 0.20314 0.42329 0.0
C2391 C 0.33092 0.212 0.46066 0.0
H2392 H 0.33981 0.23484 0.34543 0.0
C2393 C 0.38204 0.24421 0.39613 0.0
C2394 C 0.38443 0.24427 0.34332 0.0
C2395 C 0.36975 0.23844 0.41448 0.0
C2396 C 0.33743 0.22842 0.37742 0.0
H2397 H 0.29216 0.19686 0.56918 0.0
H2398 H 0.31367 0.20845 0.53793 0.0
H2399 H 0.31842 0.22441 0.37848 0.0
H2400 H 0.37579 0.23854 0.26826 0.0
H2401 H 0.35427 0.22858 0.30043 0.0
H2402 H 0.35002 0.21623 0.45998 0.0
C2403 C 0.3061 0.20511 0.51033 0.0
C2404 C 0.32516 0.22241 0.39631 0.0
C2405 C 0.29376 0.19853 0.52833 0.0
C2406 C 0.37425 0.23863 0.30915 0.0
C2407 C 0.36194 0.23298 0.3275 0.0
C2408 C 0.3432 0.21812 0.44211 0.0
C2409 C 0.30861 0.20742 0.45751 0.0
C2410 C 0.32173 0.21407 0.43807 0.0
C2411 C 0.35958 0.23273 0.3804 0.0
C2412 C 0.34656 0.22636 0.4002 0.0
H2413 H 0.27855 0.19342 0.41381 0.0
H2414 H 0.29999 0.20455 0.38232 0.0
H2415 H 0.32859 0.20547 0.49217 0.0
H2416 H 0.38966 0.24847 0.4235 0.0
H2417 H 0.3682 0.23849 0.45538 0.0
C2418 C 0.79749 0.08185 0.43244 0.0
C2419 C 0.79676 0.07798 0.4837 0.0
C2420 C 0.79083 0.08764 0.4161 0.0
C2421 C 0.7764 0.10552 0.46525 0.0
H2422 H 0.76186 0.09955 0.32891 0.0
C2423 C 0.74863 0.12893 0.39334 0.0
C2424 C 0.75155 0.13407 0.34366 0.0
C2425 C 0.75317 0.12122 0.41093 0.0
C2426 C 0.76595 0.10137 0.36696 0.0
H2427 H 0.78821 0.07687 0.55771 0.0
H2428 H 0.77644 0.08687 0.52895 0.0
H2429 H 0.77122 0.08733 0.35918 0.0
H2430 H 0.76137 0.13499 0.27324 0.0
H2431 H 0.7693 0.12155 0.30402 0.0
H2432 H 0.77118 0.11962 0.47284 0.0
C2433 C 0.78232 0.08558 0.5016 0.0
C2434 C 0.77131 0.09438 0.38433 0.0
C2435 C 0.78901 0.07979 0.51802 0.0
C2436 C 0.75895 0.13118 0.3117 0.0
C2437 C 0.76343 0.12342 0.32922 0.0
C2438 C 0.77099 0.11248 0.44794 0.0
C2439 C 0.78325 0.08968 0.45054 0.0
C2440 C 0.77674 0.09648 0.43344 0.0
C2441 C 0.76066 0.11842 0.37915 0.0
C2442 C 0.76583 0.11058 0.39839 0.0
H2443 H 0.80338 0.08061 0.40496 0.0
H2444 H 0.79191 0.09083 0.37671 0.0
H2445 H 0.78066 0.10752 0.50297 0.0
H2446 H 0.74294 0.13094 0.41894 0.0
H2447 H 0.75076 0.1174 0.44938 0.0
C2448 C 0.95487 0.41491 0.29532 0.0
C2449 C 0.95155 0.42039 0.33518 0.0
C2450 C 0.96712 0.42081 0.27644 0.0
C2451 C 0.99461 0.45183 0.26158 0.0
H2452 H 0.01248 0.43389 0.23544 0.0
C2453 C 0.04092 0.47357 0.14704 0.0
C2454 C 0.05073 0.47273 0.17073 0.0
C2455 C 0.02867 0.46663 0.16578 0.0
C2456 C 0.00759 0.43901 0.24258 0.0
H2457 H 0.95854 0.43624 0.38718 0.0
H2458 H 0.97994 0.4466 0.35373 0.0
H2459 H 0.99151 0.42284 0.27356 0.0
H2460 H 0.05531 0.46364 0.23147 0.0
H2461 H 0.03391 0.45141 0.26359 0.0
H2462 H 0.01065 0.46798 0.2305 0.0
C2463 C 0.97303 0.43774 0.33717 0.0
C2464 C 0.99559 0.43268 0.26413 0.0
C2465 C 0.96081 0.43176 0.35652 0.0
C2466 C 0.04797 0.46451 0.21243 0.0
C2467 C 0.03571 0.45746 0.23071 0.0
C2468 C 0.00653 0.45811 0.23943 0.0
C2469 C 0.97627 0.43239 0.29658 0.0
C2470 C 0.98902 0.43906 0.27409 0.0
C2471 C 0.02598 0.4586 0.2081 0.0
C2472 C 0.01316 0.45178 0.2299 0.0
H2473 H 0.94795 0.40615 0.2781 0.0
H2474 H 0.96935 0.41651 0.24495 0.0
H2475 H 0.9897 0.45694 0.26836 0.0
H2476 H 0.04275 0.47983 0.11491 0.0
H2477 H 0.02131 0.46759 0.14736 0.0
C2478 C 0.53735 0.58406 0.22739 0.0
C2479 C 0.53467 0.5843 0.17507 0.0
C2480 C 0.54431 0.57855 0.2435 0.0
C2481 C 0.55269 0.55508 0.20246 0.0
H2482 H 0.57612 0.56829 0.31607 0.0
C2483 C 0.58115 0.53204 0.26683 0.0
C2484 C 0.58173 0.53035 0.31994 0.0
C2485 C 0.57652 0.53957 0.24816 0.0
C2486 C 0.56954 0.56445 0.28453 0.0
H2487 H 0.53762 0.57937 0.09846 0.0
H2488 H 0.54991 0.56991 0.12656 0.0
H2489 H 0.56629 0.57999 0.28437 0.0
H2490 H 0.5782 0.53551 0.3951 0.0
H2491 H 0.57002 0.54861 0.36238 0.0
H2492 H 0.55583 0.53951 0.20286 0.0
C2493 C 0.54643 0.57377 0.15521 0.0
C2494 C 0.56391 0.57114 0.26634 0.0
C2495 C 0.53944 0.57926 0.13908 0.0
C2496 C 0.57786 0.53661 0.35398 0.0
C2497 C 0.57324 0.54417 0.33525 0.0
C2498 C 0.55834 0.54842 0.22054 0.0
C2499 C 0.54878 0.57319 0.20769 0.0
C2500 C 0.55535 0.56649 0.22532 0.0
C2501 C 0.57238 0.5456 0.28209 0.0
C2502 C 0.56676 0.55298 0.26198 0.0
H2503 H 0.53382 0.58785 0.25618 0.0
H2504 H 0.54581 0.57814 0.28424 0.0
H2505 H 0.54597 0.5511 0.17146 0.0
H2506 H 0.58413 0.52743 0.2395 0.0
H2507 H 0.57616 0.54063 0.20703 0.0
C2508 C 0.41697 0.95192 0.23203 0.0
C2509 C 0.41828 0.94973 0.18001 0.0
C2510 C 0.42198 0.96414 0.25056 0.0
C2511 C 0.43273 0.99661 0.21109 0.0
H2512 H 0.45272 0.00537 0.33528 0.0
C2513 C 0.46494 0.04788 0.27314 0.0
C2514 C 0.46644 0.05075 0.32579 0.0
C2515 C 0.45813 0.03546 0.25656 0.0
C2516 C 0.44699 0.00306 0.30108 0.0
H2517 H 0.42563 0.95866 0.10647 0.0
H2518 H 0.43431 0.98002 0.1389 0.0
H2519 H 0.44246 0.98387 0.3039 0.0
H2520 H 0.46168 0.04285 0.40235 0.0
H2521 H 0.44952 0.02115 0.37343 0.0
H2522 H 0.43718 0.01575 0.20828 0.0
C2523 C 0.42939 0.97225 0.16523 0.0
C2524 C 0.44115 0.99073 0.28302 0.0
C2525 C 0.42448 0.96003 0.14674 0.0
C2526 C 0.46076 0.04094 0.36152 0.0
C2527 C 0.45385 0.02849 0.34491 0.0
C2528 C 0.43849 0.00892 0.22938 0.0
C2529 C 0.4283 0.97443 0.21744 0.0
C2530 C 0.43406 0.98741 0.23758 0.0
C2531 C 0.45256 0.02559 0.2922 0.0
C2532 C 0.44581 0.01233 0.27432 0.0
H2533 H 0.41224 0.9442 0.25872 0.0
H2534 H 0.42089 0.96554 0.29087 0.0
H2535 H 0.42718 0.99427 0.17634 0.0
H2536 H 0.46925 0.05521 0.24454 0.0
H2537 H 0.45752 0.03359 0.21574 0.0
C2538 C 0.57954 0.03999 0.86192 0.0
C2539 C 0.58348 0.04976 0.82606 0.0
C2540 C 0.57436 0.02756 0.84545 0.0
C2541 C 0.57118 0.00813 0.73089 0.0
H2542 H 0.5421 0.98263 0.80347 0.0
C2543 C 0.53805 0.95881 0.64755 0.0
C2544 C 0.53382 0.9486 0.68133 0.0
C2545 C 0.54496 0.9711 0.66596 0.0
C2546 C 0.5503 0.98962 0.78315 0.0
H2547 H 0.5852 0.05416 0.74473 0.0
H2548 H 0.57595 0.03255 0.71618 0.0
H2549 H 0.55266 0.00415 0.83468 0.0
H2550 H 0.53372 0.94326 0.76086 0.0
H2551 H 0.54573 0.96467 0.79281 0.0
H2552 H 0.56859 0.99358 0.67868 0.0
C2553 C 0.57706 0.03446 0.757 0.0
C2554 C 0.55639 0.00196 0.80111 0.0
C2555 C 0.5823 0.04686 0.77343 0.0
C2556 C 0.5368 0.95092 0.73377 0.0
C2557 C 0.54363 0.96319 0.75218 0.0
C2558 C 0.56504 0.9958 0.71275 0.0
C2559 C 0.57295 0.02463 0.79277 0.0
C2560 C 0.56686 0.01139 0.77503 0.0
C2561 C 0.54771 0.97341 0.71856 0.0
C2562 C 0.5545 0.98643 0.73855 0.0
H2563 H 0.5804 0.04191 0.90273 0.0
H2564 H 0.57146 0.02025 0.87405 0.0
H2565 H 0.57935 0.01511 0.71034 0.0
H2566 H 0.53592 0.95734 0.60695 0.0
H2567 H 0.54789 0.97879 0.6392 0.0
C2568 C 0.03739 0.57486 0.64841 0.0
C2569 C 0.04794 0.58177 0.67977 0.0
C2570 C 0.02532 0.57036 0.66789 0.0
C2571 C 0.00786 0.56132 0.78904 0.0
H2572 H 0.98163 0.5618 0.70851 0.0
C2573 C 0.95755 0.54076 0.86742 0.0
C2574 C 0.94785 0.53336 0.833 0.0
C2575 C 0.96986 0.54815 0.84985 0.0
C2576 C 0.98883 0.56151 0.73136 0.0
H2577 H 0.05407 0.5896 0.75597 0.0
H2578 H 0.03299 0.58172 0.78989 0.0
H2579 H 0.00301 0.57192 0.67529 0.0
H2580 H 0.94342 0.52815 0.75292 0.0
H2581 H 0.96483 0.5408 0.72257 0.0
H2582 H 0.99368 0.55064 0.84448 0.0
C2583 C 0.03408 0.57971 0.75034 0.0
C2584 C 0.00107 0.56732 0.71232 0.0
C2585 C 0.04615 0.58427 0.73079 0.0
C2586 C 0.95067 0.53375 0.78051 0.0
C2587 C 0.96295 0.54108 0.763 0.0
C2588 C 0.99561 0.55546 0.80797 0.0
C2589 C 0.02353 0.57262 0.71923 0.0
C2590 C 0.01069 0.56716 0.74071 0.0
C2591 C 0.97273 0.54827 0.7975 0.0
C2592 C 0.98591 0.55535 0.77908 0.0
H2593 H 0.03844 0.57278 0.60893 0.0
H2594 H 0.01737 0.56481 0.64312 0.0
H2595 H 0.01503 0.5609 0.81153 0.0
H2596 H 0.95568 0.54074 0.90805 0.0
H2597 H 0.97714 0.55372 0.87735 0.0
C2598 C 0.41509 0.46402 0.71685 0.0
C2599 C 0.41954 0.47126 0.67194 0.0
C2600 C 0.42044 0.45703 0.73437 0.0
C2601 C 0.44054 0.44399 0.69457 0.0
H2602 H 0.44689 0.44472 0.8407 0.0
C2603 C 0.46157 0.41567 0.78383 0.0
C2604 C 0.47092 0.42181 0.82123 0.0
C2605 C 0.45445 0.42091 0.76664 0.0
C2606 C 0.44525 0.44447 0.79977 0.0
H2607 H 0.43292 0.47662 0.60959 0.0
H2608 H 0.44238 0.46457 0.64055 0.0
H2609 H 0.43619 0.45535 0.80739 0.0
H2610 H 0.47998 0.43818 0.87047 0.0
H2611 H 0.46767 0.44739 0.84002 0.0
H2612 H 0.44999 0.43348 0.68677 0.0
C2613 C 0.43464 0.46415 0.66189 0.0
C2614 C 0.43896 0.45043 0.78072 0.0
C2615 C 0.42926 0.47112 0.64427 0.0
C2616 C 0.47283 0.43319 0.84173 0.0
C2617 C 0.46572 0.43844 0.82445 0.0
C2618 C 0.44685 0.43805 0.71362 0.0
C2619 C 0.43039 0.45714 0.70749 0.0
C2620 C 0.43661 0.45034 0.72785 0.0
C2621 C 0.45652 0.43242 0.78637 0.0
C2622 C 0.44936 0.43829 0.76642 0.0
H2623 H 0.40756 0.46386 0.73892 0.0
H2624 H 0.4168 0.45156 0.76913 0.0
H2625 H 0.43876 0.44362 0.65372 0.0
H2626 H 0.45982 0.40687 0.76738 0.0
H2627 H 0.4473 0.41593 0.73786 0.0
loop_
_geom_bond_atom_site_label_1
_geom_bond_atom_site_label_2
_geom_bond_distance
_geom_bond_site_symmetry_2
_ccdc_geom_bond_type
C0 O1 1.160 . S
C0 O7 1.185 . S
O1 C0 1.160 . S
O2 Zn3 1.899 . S
O2 C10 1.284 . S
Zn3 O2 1.899 . S
Zn3 O4 2.032 . S
Zn3 O7 2.086 . S
Zn3 O12 1.977 1_554 S
O4 Zn3 2.032 . S
O4 C8 1.278 . S
C5 O6 1.203 . S
C5 O12 1.267 . S
O6 C5 1.203 . S
O7 C0 1.185 . S
O7 Zn3 2.086 . S
C8 O4 1.278 . S
C8 O9 1.211 . S
O9 C8 1.211 . S
C10 O2 1.284 . S
C10 O11 1.273 . S
O11 C10 1.273 . S
O12 Zn3 1.977 1_556 S
O12 C5 1.267 . S
C13 O14 1.160 . S
C13 O20 1.185 . S
O14 C13 1.160 . S
O15 Zn16 1.899 . S
O15 C23 1.284 . S
Zn16 O15 1.899 . S
Zn16 O17 2.032 . S
Zn16 O20 2.086 . S
Zn16 O25 1.977 1_554 S
O17 Zn16 2.032 . S
O17 C21 1.278 . S
C18 O19 1.203 . S
C18 O25 1.267 . S
O19 C18 1.203 . S
O20 C13 1.185 . S
O20 Zn16 2.086 . S
C21 O17 1.278 . S
C21 O22 1.211 . S
O22 C21 1.211 . S
C23 O15 1.284 . S
C23 O24 1.273 . S
O24 C23 1.273 . S
O25 Zn16 1.977 1_556 S
O25 C18 1.267 . S
C26 O27 1.160 . S
C26 O33 1.185 . S
O27 C26 1.160 . S
O28 Zn29 1.899 . S
O28 C36 1.284 . S
Zn29 O28 1.899 . S
Zn29 O30 2.032 . S
Zn29 O33 2.086 . S
Zn29 O38 1.977 1_554 S
O30 Zn29 2.032 . S
O30 C34 1.278 . S
C31 O32 1.203 . S
C31 O38 1.267 . S
O32 C31 1.203 . S
O33 C26 1.185 . S
O33 Zn29 2.086 . S
C34 O30 1.278 . S
C34 O35 1.211 . S
O35 C34 1.211 . S
C36 O28 1.284 . S
C36 O37 1.273 . S
O37 C36 1.273 . S
O38 Zn29 1.977 1_556 S
O38 C31 1.267 . S
C39 O40 1.160 . S
C39 O46 1.185 . S
O40 C39 1.160 . S
O41 Zn42 1.899 . S
O41 C49 1.284 . S
Zn42 O41 1.899 . S
Zn42 O43 2.032 . S
Zn42 O46 2.086 . S
Zn42 O51 1.977 . S
O43 Zn42 2.032 . S
O43 C47 1.278 . S
C44 O45 1.203 . S
C44 O51 1.267 . S
O45 C44 1.203 . S
O46 C39 1.185 . S
O46 Zn42 2.086 . S
C47 O43 1.278 . S
C47 O48 1.211 . S
O48 C47 1.211 . S
C49 O41 1.284 . S
C49 O50 1.273 . S
O50 C49 1.273 . S
O51 Zn42 1.977 . S
O51 C44 1.267 . S
C52 O53 1.160 . S
C52 O59 1.185 . S
O53 C52 1.160 . S
O54 Zn55 1.899 . S
O54 C62 1.284 . S
Zn55 O54 1.899 . S
Zn55 O56 2.032 . S
Zn55 O59 2.086 . S
Zn55 O64 1.977 . S
O56 Zn55 2.032 . S
O56 C60 1.278 . S
C57 O58 1.203 . S
C57 O64 1.267 . S
O58 C57 1.203 . S
O59 C52 1.185 . S
O59 Zn55 2.086 . S
C60 O56 1.278 . S
C60 O61 1.211 . S
O61 C60 1.211 . S
C62 O54 1.284 . S
C62 O63 1.273 . S
O63 C62 1.273 . S
O64 Zn55 1.977 . S
O64 C57 1.267 . S
C65 O66 1.160 . S
C65 O72 1.185 . S
O66 C65 1.160 . S
O67 Zn68 1.899 . S
O67 C75 1.284 . S
Zn68 O67 1.899 . S
Zn68 O69 2.032 . S
Zn68 O72 2.086 . S
Zn68 O77 1.977 . S
O69 Zn68 2.032 . S
O69 C73 1.278 . S
C70 O71 1.203 . S
C70 O77 1.267 . S
O71 C70 1.203 . S
O72 C65 1.185 . S
O72 Zn68 2.086 . S
C73 O69 1.278 . S
C73 O74 1.211 . S
O74 C73 1.211 . S
C75 O67 1.284 . S
C75 O76 1.273 . S
O76 C75 1.273 . S
O77 Zn68 1.977 . S
O77 C70 1.267 . S
C78 O79 1.160 . S
C78 O85 1.185 . S
O79 C78 1.160 . S
O80 Zn81 1.899 . S
O80 C88 1.284 . S
Zn81 O80 1.899 . S
Zn81 O82 2.032 . S
Zn81 O85 2.086 . S
Zn81 O90 1.977 1_556 S
O82 Zn81 2.032 . S
O82 C86 1.278 . S
C83 O84 1.203 . S
C83 O90 1.267 . S
O84 C83 1.203 . S
O85 C78 1.185 . S
O85 Zn81 2.086 . S
C86 O82 1.278 . S
C86 O87 1.211 . S
O87 C86 1.211 . S
C88 O80 1.284 . S
C88 O89 1.273 . S
O89 C88 1.273 . S
O90 Zn81 1.977 1_554 S
O90 C83 1.267 . S
C91 O92 1.160 . S
C91 O98 1.185 . S
O92 C91 1.160 . S
O93 Zn94 1.899 . S
O93 C101 1.284 . S
Zn94 O93 1.899 . S
Zn94 O95 2.032 . S
Zn94 O98 2.086 . S
Zn94 O103 1.977 1_556 S
O95 Zn94 2.032 . S
O95 C99 1.278 . S
C96 O97 1.203 . S
C96 O103 1.267 . S
O97 C96 1.203 . S
O98 C91 1.185 . S
O98 Zn94 2.086 . S
C99 O95 1.278 . S
C99 O100 1.211 . S
O100 C99 1.211 . S
C101 O93 1.284 . S
C101 O102 1.273 . S
O102 C101 1.273 . S
O103 Zn94 1.977 1_554 S
O103 C96 1.267 . S
C104 O105 1.160 . S
C104 O111 1.185 . S
O105 C104 1.160 . S
O106 Zn107 1.899 . S
O106 C114 1.284 . S
Zn107 O106 1.899 . S
Zn107 O108 2.032 . S
Zn107 O111 2.086 . S
Zn107 O116 1.977 1_556 S
O108 Zn107 2.032 . S
O108 C112 1.278 . S
C109 O110 1.203 . S
C109 O116 1.267 . S
O110 C109 1.203 . S
O111 C104 1.185 . S
O111 Zn107 2.086 . S
C112 O108 1.278 . S
C112 O113 1.211 . S
O113 C112 1.211 . S
C114 O106 1.284 . S
C114 O115 1.273 . S
O115 C114 1.273 . S
O116 Zn107 1.977 1_554 S
O116 C109 1.267 . S
C117 O118 1.160 . S
C117 O124 1.185 . S
O118 C117 1.160 . S
O119 Zn120 1.899 . S
O119 C127 1.284 . S
Zn120 O119 1.899 . S
Zn120 O121 2.032 . S
Zn120 O124 2.086 . S
Zn120 O129 1.977 . S
O121 Zn120 2.032 . S
O121 C125 1.278 . S
C122 O123 1.203 . S
C122 O129 1.267 . S
O123 C122 1.203 . S
O124 C117 1.185 . S
O124 Zn120 2.086 . S
C125 O121 1.278 . S
C125 O126 1.211 . S
O126 C125 1.211 . S
C127 O119 1.284 . S
C127 O128 1.273 . S
O128 C127 1.273 . S
O129 Zn120 1.977 . S
O129 C122 1.267 . S
C130 O131 1.160 . S
C130 O137 1.185 . S
O131 C130 1.160 . S
O132 Zn133 1.899 . S
O132 C140 1.284 . S
Zn133 O132 1.899 . S
Zn133 O134 2.032 . S
Zn133 O137 2.086 . S
Zn133 O142 1.977 . S
O134 Zn133 2.032 . S
O134 C138 1.278 . S
C135 O136 1.203 . S
C135 O142 1.267 . S
O136 C135 1.203 . S
O137 C130 1.185 . S
O137 Zn133 2.086 . S
C138 O134 1.278 . S
C138 O139 1.211 . S
O139 C138 1.211 . S
C140 O132 1.284 . S
C140 O141 1.273 . S
O141 C140 1.273 . S
O142 Zn133 1.977 . S
O142 C135 1.267 . S
C143 O144 1.160 . S
C143 O150 1.185 . S
O144 C143 1.160 . S
O145 Zn146 1.899 . S
O145 C153 1.284 . S
Zn146 O145 1.899 . S
Zn146 O147 2.032 . S
Zn146 O150 2.086 . S
Zn146 O155 1.977 . S
O147 Zn146 2.032 . S
O147 C151 1.278 . S
C148 O149 1.203 . S
C148 O155 1.267 . S
O149 C148 1.203 . S
O150 C143 1.185 . S
O150 Zn146 2.086 . S
C151 O147 1.278 . S
C151 O152 1.211 . S
O152 C151 1.211 . S
C153 O145 1.284 . S
C153 O154 1.273 . S
O154 C153 1.273 . S
O155 Zn146 1.977 . S
O155 C148 1.267 . S
C156 O157 1.160 . S
C156 O163 1.185 . S
O157 C156 1.160 . S
O158 Zn159 1.899 . S
O158 C166 1.284 . S
Zn159 O158 1.899 . S
Zn159 O160 2.032 . S
Zn159 O163 2.086 . S
Zn159 O168 1.977 . S
O160 Zn159 2.032 . S
O160 C164 1.278 . S
C161 O162 1.203 . S
C161 O168 1.267 . S
O162 C161 1.203 . S
O163 C156 1.185 . S
O163 Zn159 2.086 . S
C164 O160 1.278 . S
C164 O165 1.211 . S
O165 C164 1.211 . S
C166 O158 1.284 . S
C166 O167 1.273 . S
O167 C166 1.273 . S
O168 Zn159 1.977 . S
O168 C161 1.267 . S
C169 O170 1.160 . S
C169 O176 1.185 . S
O170 C169 1.160 . S
O171 Zn172 1.899 . S
O171 C179 1.284 . S
Zn172 O171 1.899 . S
Zn172 O173 2.032 . S
Zn172 O176 2.086 . S
Zn172 O181 1.977 . S
O173 Zn172 2.032 . S
O173 C177 1.278 . S
C174 O175 1.203 . S
C174 O181 1.267 . S
O175 C174 1.203 . S
O176 C169 1.185 . S
O176 Zn172 2.086 . S
C177 O173 1.278 . S
C177 O178 1.211 . S
O178 C177 1.211 . S
C179 O171 1.284 . S
C179 O180 1.273 . S
O180 C179 1.273 . S
O181 Zn172 1.977 . S
O181 C174 1.267 . S
C182 O183 1.160 . S
C182 O189 1.185 . S
O183 C182 1.160 . S
O184 Zn185 1.899 . S
O184 C192 1.284 . S
Zn185 O184 1.899 . S
Zn185 O186 2.032 . S
Zn185 O189 2.086 . S
Zn185 O194 1.977 . S
O186 Zn185 2.032 . S
O186 C190 1.278 . S
C187 O188 1.203 . S
C187 O194 1.267 . S
O188 C187 1.203 . S
O189 C182 1.185 . S
O189 Zn185 2.086 . S
C190 O186 1.278 . S
C190 O191 1.211 . S
O191 C190 1.211 . S
C192 O184 1.284 . S
C192 O193 1.273 . S
O193 C192 1.273 . S
O194 Zn185 1.977 . S
O194 C187 1.267 . S
C195 O196 1.160 . S
C195 O202 1.185 . S
O196 C195 1.160 . S
O197 Zn198 1.899 . S
O197 C205 1.284 . S
Zn198 O197 1.899 . S
Zn198 O199 2.032 . S
Zn198 O202 2.086 . S
Zn198 O207 1.977 . S
O199 Zn198 2.032 . S
O199 C203 1.278 . S
C200 O201 1.203 . S
C200 O207 1.267 . S
O201 C200 1.203 . S
O202 C195 1.185 . S
O202 Zn198 2.086 . S
C203 O199 1.278 . S
C203 O204 1.211 . S
O204 C203 1.211 . S
C205 O197 1.284 . S
C205 O206 1.273 . S
O206 C205 1.273 . S
O207 Zn198 1.977 . S
O207 C200 1.267 . S
C208 O209 1.160 . S
C208 O215 1.185 . S
O209 C208 1.160 . S
O210 Zn211 1.899 . S
O210 C218 1.284 . S
Zn211 O210 1.899 . S
Zn211 O212 2.032 . S
Zn211 O215 2.086 . S
Zn211 O220 1.977 . S
O212 Zn211 2.032 . S
O212 C216 1.278 . S
C213 O214 1.203 . S
C213 O220 1.267 . S
O214 C213 1.203 . S
O215 C208 1.185 . S
O215 Zn211 2.086 . S
C216 O212 1.278 . S
C216 O217 1.211 . S
O217 C216 1.211 . S
C218 O210 1.284 . S
C218 O219 1.273 . S
O219 C218 1.273 . S
O220 Zn211 1.977 . S
O220 C213 1.267 . S
C221 O222 1.160 . S
C221 O228 1.185 . S
O222 C221 1.160 . S
O223 Zn224 1.899 . S
O223 C231 1.284 . S
Zn224 O223 1.899 . S
Zn224 O225 2.032 . S
Zn224 O228 2.086 . S
Zn224 O233 1.977 . S
O225 Zn224 2.032 . S
O225 C229 1.278 . S
C226 O227 1.203 . S
C226 O233 1.267 . S
O227 C226 1.203 . S
O228 C221 1.185 . S
O228 Zn224 2.086 . S
C229 O225 1.278 . S
C229 O230 1.211 . S
O230 C229 1.211 . S
C231 O223 1.284 . S
C231 O232 1.273 . S
O232 C231 1.273 . S
O233 Zn224 1.977 . S
O233 C226 1.267 . S
C234 O235 1.160 . S
C234 O241 1.185 . S
O235 C234 1.160 . S
O236 Zn237 1.899 . S
O236 C244 1.284 . S
Zn237 O236 1.899 . S
Zn237 O238 2.032 . S
Zn237 O241 2.086 . S
Zn237 O246 1.977 . S
O238 Zn237 2.032 . S
O238 C242 1.278 . S
C239 O240 1.203 . S
C239 O246 1.267 . S
O240 C239 1.203 . S
O241 C234 1.185 . S
O241 Zn237 2.086 . S
C242 O238 1.278 . S
C242 O243 1.211 . S
O243 C242 1.211 . S
C244 O236 1.284 . S
C244 O245 1.273 . S
O245 C244 1.273 . S
O246 Zn237 1.977 . S
O246 C239 1.267 . S
C247 O248 1.160 . S
C247 O254 1.185 . S
O248 C247 1.160 . S
O249 Zn250 1.899 . S
O249 C257 1.284 . S
Zn250 O249 1.899 . S
Zn250 O251 2.032 . S
Zn250 O254 2.086 . S
Zn250 O259 1.977 . S
O251 Zn250 2.032 . S
O251 C255 1.278 . S
C252 O253 1.203 . S
C252 O259 1.267 . S
O253 C252 1.203 . S
O254 C247 1.185 . S
O254 Zn250 2.086 . S
C255 O251 1.278 . S
C255 O256 1.211 . S
O256 C255 1.211 . S
C257 O249 1.284 . S
C257 O258 1.273 . S
O258 C257 1.273 . S
O259 Zn250 1.977 . S
O259 C252 1.267 . S
C260 O261 1.160 . S
C260 O267 1.185 . S
O261 C260 1.160 . S
O262 Zn263 1.899 . S
O262 C270 1.284 . S
Zn263 O262 1.899 . S
Zn263 O264 2.032 . S
Zn263 O267 2.086 . S
Zn263 O272 1.977 . S
O264 Zn263 2.032 . S
O264 C268 1.278 . S
C265 O266 1.203 . S
C265 O272 1.267 . S
O266 C265 1.203 . S
O267 C260 1.185 . S
O267 Zn263 2.086 . S
C268 O264 1.278 . S
C268 O269 1.211 . S
O269 C268 1.211 . S
C270 O262 1.284 . S
C270 O271 1.273 . S
O271 C270 1.273 . S
O272 Zn263 1.977 . S
O272 C265 1.267 . S
C273 O274 1.160 . S
C273 O280 1.185 . S
O274 C273 1.160 . S
O275 Zn276 1.899 . S
O275 C283 1.284 . S
Zn276 O275 1.899 . S
Zn276 O277 2.032 . S
Zn276 O280 2.086 . S
Zn276 O285 1.977 . S
O277 Zn276 2.032 . S
O277 C281 1.278 . S
C278 O279 1.203 . S
C278 O285 1.267 . S
O279 C278 1.203 . S
O280 C273 1.185 . S
O280 Zn276 2.086 . S
C281 O277 1.278 . S
C281 O282 1.211 . S
O282 C281 1.211 . S
C283 O275 1.284 . S
C283 O284 1.273 . S
O284 C283 1.273 . S
O285 Zn276 1.977 . S
O285 C278 1.267 . S
C286 O287 1.160 . S
C286 O293 1.185 . S
O287 C286 1.160 . S
O288 Zn289 1.899 . S
O288 C296 1.284 . S
Zn289 O288 1.899 . S
Zn289 O290 2.032 . S
Zn289 O293 2.086 . S
Zn289 O298 1.977 . S
O290 Zn289 2.032 . S
O290 C294 1.278 . S
C291 O292 1.203 . S
C291 O298 1.267 . S
O292 C291 1.203 . S
O293 C286 1.185 . S
O293 Zn289 2.086 . S
C294 O290 1.278 . S
C294 O295 1.211 . S
O295 C294 1.211 . S
C296 O288 1.284 . S
C296 O297 1.273 . S
O297 C296 1.273 . S
O298 Zn289 1.977 . S
O298 C291 1.267 . S
C299 O300 1.160 . S
C299 O306 1.185 . S
O300 C299 1.160 . S
O301 Zn302 1.899 . S
O301 C309 1.284 . S
Zn302 O301 1.899 . S
Zn302 O303 2.032 . S
Zn302 O306 2.086 . S
Zn302 O311 1.977 . S
O303 Zn302 2.032 . S
O303 C307 1.278 . S
C304 O305 1.203 . S
C304 O311 1.267 . S
O305 C304 1.203 . S
O306 C299 1.185 . S
O306 Zn302 2.086 . S
C307 O303 1.278 . S
C307 O308 1.211 . S
O308 C307 1.211 . S
C309 O301 1.284 . S
C309 O310 1.273 . S
O310 C309 1.273 . S
O311 Zn302 1.977 . S
O311 C304 1.267 . S
C312 O313 1.160 . S
C312 O319 1.185 . S
O313 C312 1.160 . S
O314 Zn315 1.899 . S
O314 C322 1.284 . S
Zn315 O314 1.899 . S
Zn315 O316 2.032 . S
Zn315 O319 2.086 . S
Zn315 O324 1.977 . S
O316 Zn315 2.032 . S
O316 C320 1.278 . S
C317 O318 1.203 . S
C317 O324 1.267 . S
O318 C317 1.203 . S
O319 C312 1.185 . S
O319 Zn315 2.086 . S
C320 O316 1.278 . S
C320 O321 1.211 . S
O321 C320 1.211 . S
C322 O314 1.284 . S
C322 O323 1.273 . S
O323 C322 1.273 . S
O324 Zn315 1.977 . S
O324 C317 1.267 . S
C325 O326 1.160 . S
C325 O332 1.185 . S
O326 C325 1.160 . S
O327 Zn328 1.899 . S
O327 C335 1.284 . S
Zn328 O327 1.899 . S
Zn328 O329 2.032 . S
Zn328 O332 2.086 . S
Zn328 O337 1.977 . S
O329 Zn328 2.032 . S
O329 C333 1.278 . S
C330 O331 1.203 . S
C330 O337 1.267 . S
O331 C330 1.203 . S
O332 C325 1.185 . S
O332 Zn328 2.086 . S
C333 O329 1.278 . S
C333 O334 1.211 . S
O334 C333 1.211 . S
C335 O327 1.284 . S
C335 O336 1.273 . S
O336 C335 1.273 . S
O337 Zn328 1.977 . S
O337 C330 1.267 . S
C338 O339 1.160 . S
C338 O345 1.185 . S
O339 C338 1.160 . S
O340 Zn341 1.899 . S
O340 C348 1.284 . S
Zn341 O340 1.899 . S
Zn341 O342 2.032 . S
Zn341 O345 2.086 . S
Zn341 O350 1.977 . S
O342 Zn341 2.032 . S
O342 C346 1.278 . S
C343 O344 1.203 . S
C343 O350 1.267 . S
O344 C343 1.203 . S
O345 C338 1.185 . S
O345 Zn341 2.086 . S
C346 O342 1.278 . S
C346 O347 1.211 . S
O347 C346 1.211 . S
C348 O340 1.284 . S
C348 O349 1.273 . S
O349 C348 1.273 . S
O350 Zn341 1.977 . S
O350 C343 1.267 . S
C351 O352 1.160 . S
C351 O358 1.185 . S
O352 C351 1.160 . S
O353 Zn354 1.899 . S
O353 C361 1.284 . S
Zn354 O353 1.899 . S
Zn354 O355 2.032 . S
Zn354 O358 2.086 . S
Zn354 O363 1.977 . S
O355 Zn354 2.032 . S
O355 C359 1.278 . S
C356 O357 1.203 . S
C356 O363 1.267 . S
O357 C356 1.203 . S
O358 C351 1.185 . S
O358 Zn354 2.086 . S
C359 O355 1.278 . S
C359 O360 1.211 . S
O360 C359 1.211 . S
C361 O353 1.284 . S
C361 O362 1.273 . S
O362 C361 1.273 . S
O363 Zn354 1.977 . S
O363 C356 1.267 . S
C364 O365 1.160 . S
C364 O371 1.185 . S
O365 C364 1.160 . S
O366 Zn367 1.899 . S
O366 C374 1.284 . S
Zn367 O366 1.899 . S
Zn367 O368 2.032 . S
Zn367 O371 2.086 . S
Zn367 O376 1.977 . S
O368 Zn367 2.032 . S
O368 C372 1.278 . S
C369 O370 1.203 . S
C369 O376 1.267 . S
O370 C369 1.203 . S
O371 C364 1.185 . S
O371 Zn367 2.086 . S
C372 O368 1.278 . S
C372 O373 1.211 . S
O373 C372 1.211 . S
C374 O366 1.284 . S
C374 O375 1.273 . S
O375 C374 1.273 . S
O376 Zn367 1.977 . S
O376 C369 1.267 . S
C377 O378 1.160 . S
C377 O384 1.185 . S
O378 C377 1.160 . S
O379 Zn380 1.899 . S
O379 C387 1.284 . S
Zn380 O379 1.899 . S
Zn380 O381 2.032 . S
Zn380 O384 2.086 . S
Zn380 O389 1.977 . S
O381 Zn380 2.032 . S
O381 C385 1.278 . S
C382 O383 1.203 . S
C382 O389 1.267 . S
O383 C382 1.203 . S
O384 C377 1.185 . S
O384 Zn380 2.086 . S
C385 O381 1.278 . S
C385 O386 1.211 . S
O386 C385 1.211 . S
C387 O379 1.284 . S
C387 O388 1.273 . S
O388 C387 1.273 . S
O389 Zn380 1.977 . S
O389 C382 1.267 . S
C390 O391 1.160 . S
C390 O397 1.185 . S
O391 C390 1.160 . S
O392 Zn393 1.899 . S
O392 C400 1.284 . S
Zn393 O392 1.899 . S
Zn393 O394 2.032 . S
Zn393 O397 2.086 . S
Zn393 O402 1.977 . S
O394 Zn393 2.032 . S
O394 C398 1.278 . S
C395 O396 1.203 . S
C395 O402 1.267 . S
O396 C395 1.203 . S
O397 C390 1.185 . S
O397 Zn393 2.086 . S
C398 O394 1.278 . S
C398 O399 1.211 . S
O399 C398 1.211 . S
C400 O392 1.284 . S
C400 O401 1.273 . S
O401 C400 1.273 . S
O402 Zn393 1.977 . S
O402 C395 1.267 . S
C403 O404 1.160 . S
C403 O410 1.185 . S
O404 C403 1.160 . S
O405 Zn406 1.899 . S
O405 C413 1.284 . S
Zn406 O405 1.899 . S
Zn406 O407 2.032 . S
Zn406 O410 2.086 . S
Zn406 O415 1.977 . S
O407 Zn406 2.032 . S
O407 C411 1.278 . S
C408 O409 1.203 . S
C408 O415 1.267 . S
O409 C408 1.203 . S
O410 C403 1.185 . S
O410 Zn406 2.086 . S
C411 O407 1.278 . S
C411 O412 1.211 . S
O412 C411 1.211 . S
C413 O405 1.284 . S
C413 O414 1.273 . S
O414 C413 1.273 . S
O415 Zn406 1.977 . S
O415 C408 1.267 . S
C416 O417 1.160 . S
C416 O423 1.185 . S
O417 C416 1.160 . S
O418 Zn419 1.899 . S
O418 C426 1.284 . S
Zn419 O418 1.899 . S
Zn419 O420 2.032 . S
Zn419 O423 2.086 . S
Zn419 O428 1.977 . S
O420 Zn419 2.032 . S
O420 C424 1.278 . S
C421 O422 1.203 . S
C421 O428 1.267 . S
O422 C421 1.203 . S
O423 C416 1.185 . S
O423 Zn419 2.086 . S
C424 O420 1.278 . S
C424 O425 1.211 . S
O425 C424 1.211 . S
C426 O418 1.284 . S
C426 O427 1.273 . S
O427 C426 1.273 . S
O428 Zn419 1.977 . S
O428 C421 1.267 . S
C429 O430 1.160 . S
C429 O436 1.185 . S
O430 C429 1.160 . S
O431 Zn432 1.899 . S
O431 C439 1.284 . S
Zn432 O431 1.899 . S
Zn432 O433 2.032 . S
Zn432 O436 2.086 . S
Zn432 O441 1.977 . S
O433 Zn432 2.032 . S
O433 C437 1.278 . S
C434 O435 1.203 . S
C434 O441 1.267 . S
O435 C434 1.203 . S
O436 C429 1.185 . S
O436 Zn432 2.086 . S
C437 O433 1.278 . S
C437 O438 1.211 . S
O438 C437 1.211 . S
C439 O431 1.284 . S
C439 O440 1.273 . S
O440 C439 1.273 . S
O441 Zn432 1.977 . S
O441 C434 1.267 . S
C442 O443 1.160 . S
C442 O449 1.185 . S
O443 C442 1.160 . S
O444 Zn445 1.899 . S
O444 C452 1.284 . S
Zn445 O444 1.899 . S
Zn445 O446 2.032 . S
Zn445 O449 2.086 . S
Zn445 O454 1.977 . S
O446 Zn445 2.032 . S
O446 C450 1.278 . S
C447 O448 1.203 . S
C447 O454 1.267 . S
O448 C447 1.203 . S
O449 C442 1.185 . S
O449 Zn445 2.086 . S
C450 O446 1.278 . S
C450 O451 1.211 . S
O451 C450 1.211 . S
C452 O444 1.284 . S
C452 O453 1.273 . S
O453 C452 1.273 . S
O454 Zn445 1.977 . S
O454 C447 1.267 . S
C455 O456 1.160 . S
C455 O462 1.185 . S
O456 C455 1.160 . S
O457 Zn458 1.899 . S
O457 C465 1.284 . S
Zn458 O457 1.899 . S
Zn458 O459 2.032 . S
Zn458 O462 2.086 . S
Zn458 O467 1.977 . S
O459 Zn458 2.032 . S
O459 C463 1.278 . S
C460 O461 1.203 . S
C460 O467 1.267 . S
O461 C460 1.203 . S
O462 C455 1.185 . S
O462 Zn458 2.086 . S
C463 O459 1.278 . S
C463 O464 1.211 . S
O464 C463 1.211 . S
C465 O457 1.284 . S
C465 O466 1.273 . S
O466 C465 1.273 . S
O467 Zn458 1.977 . S
O467 C460 1.267 . S
C468 C469 1.349 . S
C468 C470 1.327 . S
C468 H493 0.950 . S
C469 C468 1.349 . S
C469 C485 1.349 . S
C470 C468 1.327 . S
C470 C489 1.429 . S
C470 H494 0.950 . S
C471 C488 1.574 1_565 S
C471 C490 1.368 . S
C471 H495 0.949 . S
H472 C476 0.949 . S
C473 C474 1.349 . S
C473 C475 1.327 . S
C473 H496 0.950 . S
C474 C473 1.349 . S
C474 C486 1.349 . S
C475 C473 1.327 . S
C475 C491 1.429 . S
C475 H497 0.950 . S
C476 H472 0.949 . S
C476 C484 1.574 1_545 S
C476 C492 1.368 . S
H477 C485 0.950 . S
H478 C483 0.950 . S
H479 C484 0.949 . S
H480 C486 0.950 . S
H481 C487 0.950 . S
H482 C488 0.949 . S
C483 H478 0.950 . S
C483 C485 1.327 . S
C483 C489 1.429 . S
C484 C476 1.574 1_565 S
C484 H479 0.949 . S
C484 C490 1.368 . S
C485 C469 1.349 . S
C485 H477 0.950 . S
C485 C483 1.327 . S
C486 C474 1.349 . S
C486 H480 0.950 . S
C486 C487 1.327 . S
C487 H481 0.950 . S
C487 C486 1.327 . S
C487 C491 1.429 . S
C488 C471 1.574 1_545 S
C488 H482 0.949 . S
C488 C492 1.368 . S
C489 C470 1.429 . S
C489 C483 1.429 . S
C489 C490 1.523 . S
C490 C471 1.368 . S
C490 C484 1.368 . S
C490 C489 1.523 . S
C491 C475 1.429 . S
C491 C487 1.429 . S
C491 C492 1.523 . S
C492 C476 1.368 . S
C492 C488 1.368 . S
C492 C491 1.523 . S
H493 C468 0.950 . S
H494 C470 0.950 . S
H495 C471 0.949 . S
H496 C473 0.950 . S
H497 C475 0.950 . S
C498 C499 1.349 . S
C498 C500 1.327 . S
C498 H523 0.950 . S
C499 C498 1.349 . S
C499 C515 1.349 . S
C500 C498 1.327 . S
C500 C519 1.429 . S
C500 H524 0.950 . S
C501 C518 1.574 1_655 S
C501 C520 1.368 . S
C501 H525 0.949 . S
H502 C506 0.949 . S
C503 C504 1.349 . S
C503 C505 1.327 . S
C503 H526 0.950 . S
C504 C503 1.349 . S
C504 C516 1.349 . S
C505 C503 1.327 . S
C505 C521 1.429 . S
C505 H527 0.950 . S
C506 H502 0.949 . S
C506 C514 1.574 1_455 S
C506 C522 1.368 . S
H507 C515 0.950 . S
H508 C513 0.950 . S
H509 C514 0.949 . S
H510 C516 0.950 . S
H511 C517 0.950 . S
H512 C518 0.949 . S
C513 H508 0.950 . S
C513 C515 1.327 . S
C513 C519 1.429 . S
C514 C506 1.574 1_655 S
C514 H509 0.949 . S
C514 C520 1.368 . S
C515 C499 1.349 . S
C515 H507 0.950 . S
C515 C513 1.327 . S
C516 C504 1.349 . S
C516 H510 0.950 . S
C516 C517 1.327 . S
C517 H511 0.950 . S
C517 C516 1.327 . S
C517 C521 1.429 . S
C518 C501 1.574 1_455 S
C518 H512 0.949 . S
C518 C522 1.368 . S
C519 C500 1.429 . S
C519 C513 1.429 . S
C519 C520 1.523 . S
C520 C501 1.368 . S
C520 C514 1.368 . S
C520 C519 1.523 . S
C521 C505 1.429 . S
C521 C517 1.429 . S
C521 C522 1.523 . S
C522 C506 1.368 . S
C522 C518 1.368 . S
C522 C521 1.523 . S
H523 C498 0.950 . S
H524 C500 0.950 . S
H525 C501 0.949 . S
H526 C503 0.950 . S
H527 C505 0.950 . S
C528 C529 1.349 . S
C528 C530 1.327 . S
C528 H553 0.950 . S
C529 C528 1.349 . S
C529 C545 1.349 . S
C530 C528 1.327 . S
C530 C549 1.429 . S
C530 H554 0.950 . S
C531 C548 1.574 . S
C531 C550 1.368 . S
C531 H555 0.949 . S
H532 C536 0.949 . S
C533 C534 1.349 . S
C533 C535 1.327 . S
C533 H556 0.950 . S
C534 C533 1.349 . S
C534 C546 1.349 . S
C535 C533 1.327 . S
C535 C551 1.429 . S
C535 H557 0.950 . S
C536 H532 0.949 . S
C536 C544 1.574 . S
C536 C552 1.368 . S
H537 C545 0.950 . S
H538 C543 0.950 . S
H539 C544 0.949 . S
H540 C546 0.950 . S
H541 C547 0.950 . S
H542 C548 0.949 . S
C543 H538 0.950 . S
C543 C545 1.327 . S
C543 C549 1.429 . S
C544 C536 1.574 . S
C544 H539 0.949 . S
C544 C550 1.368 . S
C545 C529 1.349 . S
C545 H537 0.950 . S
C545 C543 1.327 . S
C546 C534 1.349 . S
C546 H540 0.950 . S
C546 C547 1.327 . S
C547 H541 0.950 . S
C547 C546 1.327 . S
C547 C551 1.429 . S
C548 C531 1.574 . S
C548 H542 0.949 . S
C548 C552 1.368 . S
C549 C530 1.429 . S
C549 C543 1.429 . S
C549 C550 1.523 . S
C550 C531 1.368 . S
C550 C544 1.368 . S
C550 C549 1.523 . S
C551 C535 1.429 . S
C551 C547 1.429 . S
C551 C552 1.523 . S
C552 C536 1.368 . S
C552 C548 1.368 . S
C552 C551 1.523 . S
H553 C528 0.950 . S
H554 C530 0.950 . S
H555 C531 0.949 . S
H556 C533 0.950 . S
H557 C535 0.950 . S
C558 C559 1.349 . S
C558 C560 1.327 . S
C558 H583 0.950 . S
C559 C558 1.349 . S
C559 C575 1.349 . S
C560 C558 1.327 . S
C560 C579 1.429 . S
C560 H584 0.950 . S
C561 C578 1.530 1_565 S
C561 C580 1.368 . S
C561 H585 0.949 . S
H562 C566 0.949 . S
C563 C564 1.349 . S
C563 C565 1.327 . S
C563 H586 0.950 . S
C564 C563 1.349 . S
C564 C576 1.349 . S
C565 C563 1.327 . S
C565 C581 1.429 . S
C565 H587 0.950 . S
C566 H562 0.949 . S
C566 C574 1.529 1_545 S
C566 C582 1.368 . S
H567 C575 0.950 . S
H568 C573 0.950 . S
H569 C574 0.980 . S
H570 C576 0.950 . S
H571 C577 0.950 . S
H572 C578 0.979 . S
C573 H568 0.950 . S
C573 C575 1.327 . S
C573 C579 1.429 . S
C574 C566 1.529 1_565 S
C574 H569 0.980 . S
C574 C580 1.384 . S
C575 C559 1.349 . S
C575 H567 0.950 . S
C575 C573 1.327 . S
C576 C564 1.349 . S
C576 H570 0.950 . S
C576 C577 1.327 . S
C577 H571 0.950 . S
C577 C576 1.327 . S
C577 C581 1.429 . S
C578 C561 1.530 1_545 S
C578 H572 0.979 . S
C578 C582 1.384 . S
C579 C560 1.429 . S
C579 C573 1.429 . S
C579 C580 1.523 . S
C580 C561 1.368 . S
C580 C574 1.384 . S
C580 C579 1.523 . S
C581 C565 1.429 . S
C581 C577 1.429 . S
C581 C582 1.523 . S
C582 C566 1.368 . S
C582 C578 1.384 . S
C582 C581 1.523 . S
H583 C558 0.950 . S
H584 C560 0.950 . S
H585 C561 0.949 . S
H586 C563 0.950 . S
H587 C565 0.950 . S
C588 C589 1.349 . S
C588 C590 1.327 . S
C588 H613 0.950 . S
C589 C588 1.349 . S
C589 C605 1.349 . S
C590 C588 1.327 . S
C590 C609 1.429 . S
C590 H614 0.950 . S
C591 C608 1.574 . S
C591 C610 1.368 . S
C591 H615 0.949 . S
H592 C596 0.949 . S
C593 C594 1.349 . S
C593 C595 1.327 . S
C593 H616 0.950 . S
C594 C593 1.349 . S
C594 C606 1.349 . S
C595 C593 1.327 . S
C595 C611 1.429 . S
C595 H617 0.950 . S
C596 H592 0.949 . S
C596 C604 1.574 . S
C596 C612 1.368 . S
H597 C605 0.950 . S
H598 C603 0.950 . S
H599 C604 0.949 . S
H600 C606 0.950 . S
H601 C607 0.950 . S
H602 C608 0.949 . S
C603 H598 0.950 . S
C603 C605 1.327 . S
C603 C609 1.429 . S
C604 C596 1.574 . S
C604 H599 0.949 . S
C604 C610 1.368 1_655 S
C605 C589 1.349 . S
C605 H597 0.950 . S
C605 C603 1.327 . S
C606 C594 1.349 . S
C606 H600 0.950 . S
C606 C607 1.327 . S
C607 H601 0.950 . S
C607 C606 1.327 . S
C607 C611 1.429 . S
C608 C591 1.574 . S
C608 H602 0.949 . S
C608 C612 1.368 1_455 S
C609 C590 1.429 . S
C609 C603 1.429 . S
C609 C610 1.523 . S
C610 C591 1.368 . S
C610 C604 1.368 1_455 S
C610 C609 1.523 . S
C611 C595 1.429 . S
C611 C607 1.429 . S
C611 C612 1.523 . S
C612 C596 1.368 . S
C612 C608 1.368 1_655 S
C612 C611 1.523 . S
H613 C588 0.950 . S
H614 C590 0.950 . S
H615 C591 0.949 . S
H616 C593 0.950 . S
H617 C595 0.950 . S
C618 C619 1.349 . S
C618 C620 1.327 . S
C618 H643 0.950 . S
C619 C618 1.349 . S
C619 C635 1.349 . S
C620 C618 1.327 . S
C620 C639 1.429 . S
C620 H644 0.950 . S
C621 C638 1.574 . S
C621 C640 1.368 . S
C621 H645 0.949 . S
H622 C626 0.949 . S
C623 C624 1.349 . S
C623 C625 1.327 . S
C623 H646 0.950 . S
C624 C623 1.349 . S
C624 C636 1.349 . S
C625 C623 1.327 . S
C625 C641 1.429 . S
C625 H647 0.950 . S
C626 H622 0.949 . S
C626 C634 1.574 . S
C626 C642 1.368 . S
H627 C635 0.950 . S
H628 C633 0.950 . S
H629 C634 0.949 . S
H630 C636 0.950 . S
H631 C637 0.950 . S
H632 C638 0.949 . S
C633 H628 0.950 . S
C633 C635 1.327 . S
C633 C639 1.429 . S
C634 C626 1.574 . S
C634 H629 0.949 . S
C634 C640 1.368 . S
C635 C619 1.349 . S
C635 H627 0.950 . S
C635 C633 1.327 . S
C636 C624 1.349 . S
C636 H630 0.950 . S
C636 C637 1.327 . S
C637 H631 0.950 . S
C637 C636 1.327 . S
C637 C641 1.429 . S
C638 C621 1.574 . S
C638 H632 0.949 . S
C638 C642 1.368 . S
C639 C620 1.429 . S
C639 C633 1.429 . S
C639 C640 1.523 . S
C640 C621 1.368 . S
C640 C634 1.368 . S
C640 C639 1.523 . S
C641 C625 1.429 . S
C641 C637 1.429 . S
C641 C642 1.523 . S
C642 C626 1.368 . S
C642 C638 1.368 . S
C642 C641 1.523 . S
H643 C618 0.950 . S
H644 C620 0.950 . S
H645 C621 0.949 . S
H646 C623 0.950 . S
H647 C625 0.950 . S
C648 C649 1.349 . S
C648 C650 1.327 . S
C648 H673 0.950 . S
C649 C648 1.349 . S
C649 C665 1.349 . S
C650 C648 1.327 . S
C650 C669 1.429 . S
C650 H674 0.950 . S
C651 C668 1.574 . S
C651 C670 1.368 . S
C651 H675 0.949 . S
H652 C656 0.949 . S
C653 C654 1.349 . S
C653 C655 1.327 . S
C653 H676 0.950 . S
C654 C653 1.349 . S
C654 C666 1.349 . S
C655 C653 1.327 . S
C655 C671 1.429 . S
C655 H677 0.950 . S
C656 H652 0.949 . S
C656 C664 1.574 . S
C656 C672 1.368 . S
H657 C665 0.950 . S
H658 C663 0.950 . S
H659 C664 0.949 . S
H660 C666 0.950 . S
H661 C667 0.950 . S
H662 C668 0.949 . S
C663 H658 0.950 . S
C663 C665 1.327 . S
C663 C669 1.429 . S
C664 C656 1.574 . S
C664 H659 0.949 . S
C664 C670 1.368 . S
C665 C649 1.349 . S
C665 H657 0.950 . S
C665 C663 1.327 . S
C666 C654 1.349 . S
C666 H660 0.950 . S
C666 C667 1.327 . S
C667 H661 0.950 . S
C667 C666 1.327 . S
C667 C671 1.429 . S
C668 C651 1.574 . S
C668 H662 0.949 . S
C668 C672 1.368 . S
C669 C650 1.429 . S
C669 C663 1.429 . S
C669 C670 1.523 . S
C670 C651 1.368 . S
C670 C664 1.368 . S
C670 C669 1.523 . S
C671 C655 1.429 . S
C671 C667 1.429 . S
C671 C672 1.523 . S
C672 C656 1.368 . S
C672 C668 1.368 . S
C672 C671 1.523 . S
H673 C648 0.950 . S
H674 C650 0.950 . S
H675 C651 0.949 . S
H676 C653 0.950 . S
H677 C655 0.950 . S
C678 C679 1.349 . S
C678 C680 1.327 . S
C678 H703 0.950 . S
C679 C678 1.349 . S
C679 C695 1.349 . S
C680 C678 1.327 . S
C680 C699 1.429 . S
C680 H704 0.950 . S
C681 C698 1.574 . S
C681 C700 1.368 . S
C681 H705 0.949 . S
H682 C686 0.949 . S
C683 C684 1.349 . S
C683 C685 1.327 . S
C683 H706 0.950 . S
C684 C683 1.349 . S
C684 C696 1.349 . S
C685 C683 1.327 . S
C685 C701 1.429 . S
C685 H707 0.950 . S
C686 H682 0.949 . S
C686 C694 1.574 . S
C686 C702 1.368 . S
H687 C695 0.950 . S
H688 C693 0.950 . S
H689 C694 0.949 . S
H690 C696 0.950 . S
H691 C697 0.950 . S
H692 C698 0.949 . S
C693 H688 0.950 . S
C693 C695 1.327 . S
C693 C699 1.429 . S
C694 C686 1.574 . S
C694 H689 0.949 . S
C694 C700 1.368 . S
C695 C679 1.349 . S
C695 H687 0.950 . S
C695 C693 1.327 . S
C696 C684 1.349 . S
C696 H690 0.950 . S
C696 C697 1.327 . S
C697 H691 0.950 . S
C697 C696 1.327 . S
C697 C701 1.429 . S
C698 C681 1.574 . S
C698 H692 0.949 . S
C698 C702 1.368 . S
C699 C680 1.429 . S
C699 C693 1.429 . S
C699 C700 1.523 . S
C700 C681 1.368 . S
C700 C694 1.368 . S
C700 C699 1.523 . S
C701 C685 1.429 . S
C701 C697 1.429 . S
C701 C702 1.523 . S
C702 C686 1.368 . S
C702 C698 1.368 . S
C702 C701 1.523 . S
H703 C678 0.950 . S
H704 C680 0.950 . S
H705 C681 0.949 . S
H706 C683 0.950 . S
H707 C685 0.950 . S
C708 C709 1.349 . S
C708 C710 1.327 . S
C708 H733 0.950 . S
C709 C708 1.349 . S
C709 C725 1.349 . S
C710 C708 1.327 . S
C710 C729 1.429 . S
C710 H734 0.950 . S
C711 C728 1.574 . S
C711 C730 1.368 . S
C711 H735 0.949 . S
H712 C716 0.949 . S
C713 C714 1.349 . S
C713 C715 1.327 . S
C713 H736 0.950 . S
C714 C713 1.349 . S
C714 C726 1.349 . S
C715 C713 1.327 . S
C715 C731 1.429 . S
C715 H737 0.950 . S
C716 H712 0.949 . S
C716 C724 1.574 . S
C716 C732 1.368 . S
H717 C725 0.950 . S
H718 C723 0.950 . S
H719 C724 0.949 . S
H720 C726 0.950 . S
H721 C727 0.950 . S
H722 C728 0.949 . S
C723 H718 0.950 . S
C723 C725 1.327 . S
C723 C729 1.429 . S
C724 C716 1.574 . S
C724 H719 0.949 . S
C724 C730 1.368 . S
C725 C709 1.349 . S
C725 H717 0.950 . S
C725 C723 1.327 . S
C726 C714 1.349 . S
C726 H720 0.950 . S
C726 C727 1.327 . S
C727 H721 0.950 . S
C727 C726 1.327 . S
C727 C731 1.429 . S
C728 C711 1.574 . S
C728 H722 0.949 . S
C728 C732 1.368 . S
C729 C710 1.429 . S
C729 C723 1.429 . S
C729 C730 1.523 . S
C730 C711 1.368 . S
C730 C724 1.368 . S
C730 C729 1.523 . S
C731 C715 1.429 . S
C731 C727 1.429 . S
C731 C732 1.523 . S
C732 C716 1.368 . S
C732 C728 1.368 . S
C732 C731 1.523 . S
H733 C708 0.950 . S
H734 C710 0.950 . S
H735 C711 0.949 . S
H736 C713 0.950 . S
H737 C715 0.950 . S
C738 C739 1.349 . S
C738 C740 1.327 . S
C738 H763 0.950 . S
C739 C738 1.349 . S
C739 C755 1.349 . S
C740 C738 1.327 . S
C740 C759 1.429 . S
C740 H764 0.950 . S
C741 C758 1.574 . S
C741 C760 1.368 . S
C741 H765 0.949 . S
H742 C746 0.949 . S
C743 C744 1.349 . S
C743 C745 1.327 1_556 S
C743 H766 0.950 . S
C744 C743 1.349 . S
C744 C756 1.349 . S
C745 C743 1.327 1_554 S
C745 C761 1.429 . S
C745 H767 0.950 . S
C746 H742 0.949 . S
C746 C754 1.574 . S
C746 C762 1.368 . S
H747 C755 0.950 . S
H748 C753 0.950 . S
H749 C754 0.949 . S
H750 C756 0.950 . S
H751 C757 0.950 . S
H752 C758 0.949 . S
C753 H748 0.950 . S
C753 C755 1.327 . S
C753 C759 1.429 . S
C754 C746 1.574 . S
C754 H749 0.949 . S
C754 C760 1.368 . S
C755 C739 1.349 . S
C755 H747 0.950 . S
C755 C753 1.327 . S
C756 C744 1.349 . S
C756 H750 0.950 . S
C756 C757 1.327 . S
C757 H751 0.950 . S
C757 C756 1.327 . S
C757 C761 1.429 1_556 S
C758 C741 1.574 . S
C758 H752 0.949 . S
C758 C762 1.368 . S
C759 C740 1.429 . S
C759 C753 1.429 . S
C759 C760 1.523 . S
C760 C741 1.368 . S
C760 C754 1.368 . S
C760 C759 1.523 . S
C761 C745 1.429 . S
C761 C757 1.429 1_554 S
C761 C762 1.523 . S
C762 C746 1.368 . S
C762 C758 1.368 . S
C762 C761 1.523 . S
H763 C738 0.950 . S
H764 C740 0.950 . S
H765 C741 0.949 . S
H766 C743 0.950 . S
H767 C745 0.950 . S
C768 C769 1.349 . S
C768 C770 1.327 . S
C768 H793 0.950 . S
C769 C768 1.349 . S
C769 C785 1.349 . S
C770 C768 1.327 . S
C770 C789 1.429 . S
C770 H794 0.950 . S
C771 C788 1.574 . S
C771 C790 1.368 . S
C771 H795 0.949 . S
H772 C776 0.949 1_556 S
C773 C774 1.349 . S
C773 C775 1.327 1_556 S
C773 H796 0.950 . S
C774 C773 1.349 . S
C774 C786 1.349 . S
C775 C773 1.327 1_554 S
C775 C791 1.429 . S
C775 H797 0.950 . S
C776 H772 0.949 1_554 S
C776 C784 1.574 . S
C776 C792 1.368 . S
H777 C785 0.950 . S
H778 C783 0.950 . S
H779 C784 0.949 . S
H780 C786 0.950 . S
H781 C787 0.950 . S
H782 C788 0.949 . S
C783 H778 0.950 . S
C783 C785 1.327 . S
C783 C789 1.429 . S
C784 C776 1.574 . S
C784 H779 0.949 . S
C784 C790 1.368 . S
C785 C769 1.349 . S
C785 H777 0.950 . S
C785 C783 1.327 . S
C786 C774 1.349 . S
C786 H780 0.950 . S
C786 C787 1.327 . S
C787 H781 0.950 . S
C787 C786 1.327 . S
C787 C791 1.429 1_556 S
C788 C771 1.574 . S
C788 H782 0.949 . S
C788 C792 1.368 . S
C789 C770 1.429 . S
C789 C783 1.429 . S
C789 C790 1.523 . S
C790 C771 1.368 . S
C790 C784 1.368 . S
C790 C789 1.523 . S
C791 C775 1.429 . S
C791 C787 1.429 1_554 S
C791 C792 1.523 . S
C792 C776 1.368 . S
C792 C788 1.368 . S
C792 C791 1.523 . S
H793 C768 0.950 . S
H794 C770 0.950 . S
H795 C771 0.949 . S
H796 C773 0.950 . S
H797 C775 0.950 . S
C798 C799 1.349 . S
C798 C800 1.327 . S
C798 H823 0.950 . S
C799 C798 1.349 . S
C799 C815 1.349 . S
C800 C798 1.327 . S
C800 C819 1.429 . S
C800 H824 0.950 . S
C801 C818 1.574 . S
C801 C820 1.368 . S
C801 H825 0.949 . S
H802 C806 0.949 . S
C803 C804 1.349 . S
C803 C805 1.327 . S
C803 H826 0.950 . S
C804 C803 1.349 . S
C804 C816 1.349 . S
C805 C803 1.327 . S
C805 C821 1.429 1_556 S
C805 H827 0.950 1_556 S
C806 H802 0.949 . S
C806 C814 1.574 . S
C806 C822 1.368 . S
H807 C815 0.950 . S
H808 C813 0.950 . S
H809 C814 0.949 . S
H810 C816 0.950 . S
H811 C817 0.950 . S
H812 C818 0.949 . S
C813 H808 0.950 . S
C813 C815 1.327 . S
C813 C819 1.429 . S
C814 C806 1.574 . S
C814 H809 0.949 . S
C814 C820 1.368 . S
C815 C799 1.349 . S
C815 H807 0.950 . S
C815 C813 1.327 . S
C816 C804 1.349 . S
C816 H810 0.950 . S
C816 C817 1.327 . S
C817 H811 0.950 . S
C817 C816 1.327 . S
C817 C821 1.429 1_556 S
C818 C801 1.574 . S
C818 H812 0.949 . S
C818 C822 1.368 . S
C819 C800 1.429 . S
C819 C813 1.429 . S
C819 C820 1.523 . S
C820 C801 1.368 . S
C820 C814 1.368 . S
C820 C819 1.523 . S
C821 C805 1.429 1_554 S
C821 C817 1.429 1_554 S
C821 C822 1.523 . S
C822 C806 1.368 . S
C822 C818 1.368 . S
C822 C821 1.523 . S
H823 C798 0.950 . S
H824 C800 0.950 . S
H825 C801 0.949 . S
H826 C803 0.950 . S
H827 C805 0.950 1_554 S
C828 C829 1.349 . S
C828 C830 1.327 . S
C828 H853 0.950 . S
C829 C828 1.349 . S
C829 C845 1.349 . S
C830 C828 1.327 . S
C830 C849 1.429 . S
C830 H854 0.950 . S
C831 C848 1.574 . S
C831 C850 1.368 . S
C831 H855 0.949 . S
H832 C836 0.949 . S
C833 C834 1.349 . S
C833 C835 1.316 1_554 S
C833 H856 0.950 . S
C834 C833 1.349 . S
C834 C846 1.349 . S
C835 C833 1.316 1_556 S
C835 C851 1.431 . S
C835 H857 0.959 . S
C836 H832 0.949 . S
C836 C844 1.574 . S
C836 C852 1.368 . S
H837 C845 0.950 . S
H838 C843 0.950 . S
H839 C844 0.949 . S
H840 C846 0.950 . S
H841 C847 0.950 . S
H842 C848 0.949 . S
C843 H838 0.950 . S
C843 C845 1.327 . S
C843 C849 1.429 . S
C844 C836 1.574 . S
C844 H839 0.949 . S
C844 C850 1.368 . S
C845 C829 1.349 . S
C845 H837 0.950 . S
C845 C843 1.327 . S
C846 C834 1.349 . S
C846 H840 0.950 . S
C846 C847 1.327 . S
C847 H841 0.950 . S
C847 C846 1.327 . S
C847 C851 1.429 1_554 S
C848 C831 1.574 . S
C848 H842 0.949 . S
C848 C852 1.368 . S
C849 C830 1.429 . S
C849 C843 1.429 . S
C849 C850 1.523 . S
C850 C831 1.368 . S
C850 C844 1.368 . S
C850 C849 1.523 . S
C851 C835 1.431 . S
C851 C847 1.429 1_556 S
C851 C852 1.523 . S
C852 C836 1.368 . S
C852 C848 1.368 . S
C852 C851 1.523 . S
H853 C828 0.950 . S
H854 C830 0.950 . S
H855 C831 0.949 . S
H856 C833 0.950 . S
H857 C835 0.959 . S
C858 C859 1.349 . S
C858 C860 1.327 . S
C858 H883 0.950 . S
C859 C858 1.349 . S
C859 C875 1.349 . S
C860 C858 1.327 . S
C860 C879 1.429 1_554 S
C860 H884 0.950 . S
C861 C878 1.574 . S
C861 C880 1.368 . S
C861 H885 0.949 . S
H862 C866 0.949 . S
C863 C864 1.349 . S
C863 C865 1.327 . S
C863 H886 0.950 . S
C864 C863 1.349 . S
C864 C876 1.349 . S
C865 C863 1.327 . S
C865 C881 1.429 . S
C865 H887 0.950 . S
C866 H862 0.949 . S
C866 C874 1.574 . S
C866 C882 1.368 . S
H867 C875 0.950 . S
H868 C873 0.950 . S
H869 C874 0.949 1_554 S
H870 C876 0.950 . S
H871 C877 0.950 . S
H872 C878 0.949 . S
C873 H868 0.950 . S
C873 C875 1.327 1_556 S
C873 C879 1.429 . S
C874 C866 1.574 . S
C874 H869 0.949 1_556 S
C874 C880 1.368 . S
C875 C859 1.349 . S
C875 H867 0.950 . S
C875 C873 1.327 1_554 S
C876 C864 1.349 . S
C876 H870 0.950 . S
C876 C877 1.327 . S
C877 H871 0.950 . S
C877 C876 1.327 . S
C877 C881 1.429 . S
C878 C861 1.574 . S
C878 H872 0.949 . S
C878 C882 1.368 . S
C879 C860 1.429 1_556 S
C879 C873 1.429 . S
C879 C880 1.523 . S
C880 C861 1.368 . S
C880 C874 1.368 . S
C880 C879 1.523 . S
C881 C865 1.429 . S
C881 C877 1.429 . S
C881 C882 1.523 . S
C882 C866 1.368 . S
C882 C878 1.368 . S
C882 C881 1.523 . S
H883 C858 0.950 . S
H884 C860 0.950 . S
H885 C861 0.949 . S
H886 C863 0.950 . S
H887 C865 0.950 . S
C888 C889 1.349 . S
C888 C890 1.327 . S
C888 H913 0.950 . S
C889 C888 1.349 . S
C889 C905 1.349 . S
C890 C888 1.327 . S
C890 C909 1.429 . S
C890 H914 0.950 . S
C891 C908 1.574 . S
C891 C910 1.368 . S
C891 H915 0.949 . S
H892 C896 0.949 . S
C893 C894 1.349 . S
C893 C895 1.327 . S
C893 H916 0.950 . S
C894 C893 1.349 . S
C894 C906 1.349 . S
C895 C893 1.327 . S
C895 C911 1.429 1_554 S
C895 H917 0.950 . S
C896 H892 0.949 . S
C896 C904 1.574 . S
C896 C912 1.368 . S
H897 C905 0.950 . S
H898 C903 0.950 . S
H899 C904 0.949 . S
H900 C906 0.950 . S
H901 C907 0.950 . S
H902 C908 0.949 1_554 S
C903 H898 0.950 . S
C903 C905 1.327 . S
C903 C909 1.429 . S
C904 C896 1.574 . S
C904 H899 0.949 . S
C904 C910 1.368 . S
C905 C889 1.349 . S
C905 H897 0.950 . S
C905 C903 1.327 . S
C906 C894 1.349 . S
C906 H900 0.950 . S
C906 C907 1.327 1_554 S
C907 H901 0.950 . S
C907 C906 1.327 1_556 S
C907 C911 1.429 . S
C908 C891 1.574 . S
C908 H902 0.949 1_556 S
C908 C912 1.368 . S
C909 C890 1.429 . S
C909 C903 1.429 . S
C909 C910 1.523 . S
C910 C891 1.368 . S
C910 C904 1.368 . S
C910 C909 1.523 . S
C911 C895 1.429 1_556 S
C911 C907 1.429 . S
C911 C912 1.523 . S
C912 C896 1.368 . S
C912 C908 1.368 . S
C912 C911 1.523 . S
H913 C888 0.950 . S
H914 C890 0.950 . S
H915 C891 0.949 . S
H916 C893 0.950 . S
H917 C895 0.950 . S
C918 C919 1.349 . S
C918 C920 1.327 . S
C918 H943 0.950 . S
C919 C918 1.349 . S
C919 C935 1.349 . S
C920 C918 1.327 . S
C920 C939 1.429 . S
C920 H944 0.950 . S
C921 C938 1.574 . S
C921 C940 1.368 . S
C921 H945 0.949 . S
H922 C926 0.949 . S
C923 C924 1.349 . S
C923 C925 1.327 . S
C923 H946 0.950 . S
C924 C923 1.349 . S
C924 C936 1.349 . S
C925 C923 1.327 . S
C925 C941 1.429 . S
C925 H947 0.950 . S
C926 H922 0.949 . S
C926 C934 1.574 . S
C926 C942 1.368 . S
H927 C935 0.950 . S
H928 C933 0.950 . S
H929 C934 0.949 . S
H930 C936 0.950 . S
H931 C937 0.950 . S
H932 C938 0.949 . S
C933 H928 0.950 . S
C933 C935 1.327 . S
C933 C939 1.429 . S
C934 C926 1.574 . S
C934 H929 0.949 . S
C934 C940 1.368 . S
C935 C919 1.349 . S
C935 H927 0.950 . S
C935 C933 1.327 . S
C936 C924 1.349 . S
C936 H930 0.950 . S
C936 C937 1.327 . S
C937 H931 0.950 . S
C937 C936 1.327 . S
C937 C941 1.429 . S
C938 C921 1.574 . S
C938 H932 0.949 . S
C938 C942 1.368 . S
C939 C920 1.429 . S
C939 C933 1.429 . S
C939 C940 1.523 . S
C940 C921 1.368 . S
C940 C934 1.368 . S
C940 C939 1.523 . S
C941 C925 1.429 . S
C941 C937 1.429 . S
C941 C942 1.523 . S
C942 C926 1.368 . S
C942 C938 1.368 . S
C942 C941 1.523 . S
H943 C918 0.950 . S
H944 C920 0.950 . S
H945 C921 0.949 . S
H946 C923 0.950 . S
H947 C925 0.950 . S
C948 C949 1.349 . S
C948 C950 1.327 . S
C948 H973 0.950 . S
C949 C948 1.349 . S
C949 C965 1.349 . S
C950 C948 1.327 . S
C950 C969 1.429 . S
C950 H974 0.950 . S
C951 C968 1.574 . S
C951 C970 1.368 . S
C951 H975 0.949 . S
H952 C956 0.949 . S
C953 C954 1.349 . S
C953 C955 1.327 . S
C953 H976 0.950 . S
C954 C953 1.349 . S
C954 C966 1.349 . S
C955 C953 1.327 . S
C955 C971 1.429 . S
C955 H977 0.950 . S
C956 H952 0.949 . S
C956 C964 1.574 . S
C956 C972 1.368 . S
H957 C965 0.950 . S
H958 C963 0.950 . S
H959 C964 0.949 . S
H960 C966 0.950 . S
H961 C967 0.950 . S
H962 C968 0.949 . S
C963 H958 0.950 . S
C963 C965 1.327 . S
C963 C969 1.429 . S
C964 C956 1.574 . S
C964 H959 0.949 . S
C964 C970 1.368 . S
C965 C949 1.349 . S
C965 H957 0.950 . S
C965 C963 1.327 . S
C966 C954 1.349 . S
C966 H960 0.950 . S
C966 C967 1.327 . S
C967 H961 0.950 . S
C967 C966 1.327 . S
C967 C971 1.429 . S
C968 C951 1.574 . S
C968 H962 0.949 . S
C968 C972 1.368 . S
C969 C950 1.429 . S
C969 C963 1.429 . S
C969 C970 1.523 . S
C970 C951 1.368 . S
C970 C964 1.368 . S
C970 C969 1.523 . S
C971 C955 1.429 . S
C971 C967 1.429 . S
C971 C972 1.523 . S
C972 C956 1.368 . S
C972 C968 1.368 . S
C972 C971 1.523 . S
H973 C948 0.950 . S
H974 C950 0.950 . S
H975 C951 0.949 . S
H976 C953 0.950 . S
H977 C955 0.950 . S
C978 C979 1.349 . S
C978 C980 1.327 . S
C978 H1003 0.950 . S
C979 C978 1.349 . S
C979 C995 1.349 . S
C980 C978 1.327 . S
C980 C999 1.429 . S
C980 H1004 0.950 . S
C981 C998 1.574 . S
C981 C1000 1.368 . S
C981 H1005 0.949 . S
H982 C986 0.949 . S
C983 C984 1.349 . S
C983 C985 1.327 . S
C983 H1006 0.950 . S
C984 C983 1.349 . S
C984 C996 1.349 . S
C985 C983 1.327 . S
C985 C1001 1.429 . S
C985 H1007 0.950 . S
C986 H982 0.949 . S
C986 C994 1.574 . S
C986 C1002 1.368 . S
H987 C995 0.950 . S
H988 C993 0.950 . S
H989 C994 0.949 . S
H990 C996 0.950 . S
H991 C997 0.950 . S
H992 C998 0.949 . S
C993 H988 0.950 . S
C993 C995 1.327 . S
C993 C999 1.429 . S
C994 C986 1.574 . S
C994 H989 0.949 . S
C994 C1000 1.368 . S
C995 C979 1.349 . S
C995 H987 0.950 . S
C995 C993 1.327 . S
C996 C984 1.349 . S
C996 H990 0.950 . S
C996 C997 1.327 . S
C997 H991 0.950 . S
C997 C996 1.327 . S
C997 C1001 1.429 . S
C998 C981 1.574 . S
C998 H992 0.949 . S
C998 C1002 1.368 . S
C999 C980 1.429 . S
C999 C993 1.429 . S
C999 C1000 1.523 . S
C1000 C981 1.368 . S
C1000 C994 1.368 . S
C1000 C999 1.523 . S
C1001 C985 1.429 . S
C1001 C997 1.429 . S
C1001 C1002 1.523 . S
C1002 C986 1.368 . S
C1002 C998 1.368 . S
C1002 C1001 1.523 . S
H1003 C978 0.950 . S
H1004 C980 0.950 . S
H1005 C981 0.949 . S
H1006 C983 0.950 . S
H1007 C985 0.950 . S
C1008 C1009 1.349 . S
C1008 C1010 1.327 . S
C1008 H1033 0.950 . S
C1009 C1008 1.349 . S
C1009 C1025 1.349 . S
C1010 C1008 1.327 . S
C1010 C1029 1.429 . S
C1010 H1034 0.950 . S
C1011 C1028 1.574 . S
C1011 C1030 1.368 . S
C1011 H1035 0.949 . S
H1012 C1016 0.949 . S
C1013 C1014 1.349 . S
C1013 C1015 1.327 . S
C1013 H1036 0.950 . S
C1014 C1013 1.349 . S
C1014 C1026 1.349 . S
C1015 C1013 1.327 . S
C1015 C1031 1.429 . S
C1015 H1037 0.950 . S
C1016 H1012 0.949 . S
C1016 C1024 1.574 . S
C1016 C1032 1.368 . S
H1017 C1025 0.950 . S
H1018 C1023 0.950 . S
H1019 C1024 0.949 . S
H1020 C1026 0.950 . S
H1021 C1027 0.950 . S
H1022 C1028 0.949 . S
C1023 H1018 0.950 . S
C1023 C1025 1.327 . S
C1023 C1029 1.429 . S
C1024 C1016 1.574 . S
C1024 H1019 0.949 . S
C1024 C1030 1.368 . S
C1025 C1009 1.349 . S
C1025 H1017 0.950 . S
C1025 C1023 1.327 . S
C1026 C1014 1.349 . S
C1026 H1020 0.950 . S
C1026 C1027 1.327 . S
C1027 H1021 0.950 . S
C1027 C1026 1.327 . S
C1027 C1031 1.429 . S
C1028 C1011 1.574 . S
C1028 H1022 0.949 . S
C1028 C1032 1.368 . S
C1029 C1010 1.429 . S
C1029 C1023 1.429 . S
C1029 C1030 1.523 . S
C1030 C1011 1.368 . S
C1030 C1024 1.368 . S
C1030 C1029 1.523 . S
C1031 C1015 1.429 . S
C1031 C1027 1.429 . S
C1031 C1032 1.523 . S
C1032 C1016 1.368 . S
C1032 C1028 1.368 . S
C1032 C1031 1.523 . S
H1033 C1008 0.950 . S
H1034 C1010 0.950 . S
H1035 C1011 0.949 . S
H1036 C1013 0.950 . S
H1037 C1015 0.950 . S
C1038 C1039 1.349 . S
C1038 C1040 1.327 . S
C1038 H1063 0.950 . S
C1039 C1038 1.349 . S
C1039 C1055 1.349 . S
C1040 C1038 1.327 . S
C1040 C1059 1.429 . S
C1040 H1064 0.950 . S
C1041 C1058 1.574 . S
C1041 C1060 1.368 . S
C1041 H1065 0.949 . S
H1042 C1046 0.949 . S
C1043 C1044 1.349 . S
C1043 C1045 1.327 . S
C1043 H1066 0.950 . S
C1044 C1043 1.349 . S
C1044 C1056 1.349 . S
C1045 C1043 1.327 . S
C1045 C1061 1.429 . S
C1045 H1067 0.950 . S
C1046 H1042 0.949 . S
C1046 C1054 1.574 . S
C1046 C1062 1.368 . S
H1047 C1055 0.950 . S
H1048 C1053 0.950 . S
H1049 C1054 0.949 . S
H1050 C1056 0.950 . S
H1051 C1057 0.950 . S
H1052 C1058 0.949 . S
C1053 H1048 0.950 . S
C1053 C1055 1.327 . S
C1053 C1059 1.429 . S
C1054 C1046 1.574 . S
C1054 H1049 0.949 . S
C1054 C1060 1.368 . S
C1055 C1039 1.349 . S
C1055 H1047 0.950 . S
C1055 C1053 1.327 . S
C1056 C1044 1.349 . S
C1056 H1050 0.950 . S
C1056 C1057 1.327 . S
C1057 H1051 0.950 . S
C1057 C1056 1.327 . S
C1057 C1061 1.429 . S
C1058 C1041 1.574 . S
C1058 H1052 0.949 . S
C1058 C1062 1.368 . S
C1059 C1040 1.429 . S
C1059 C1053 1.429 . S
C1059 C1060 1.523 . S
C1060 C1041 1.368 . S
C1060 C1054 1.368 . S
C1060 C1059 1.523 . S
C1061 C1045 1.429 . S
C1061 C1057 1.429 . S
C1061 C1062 1.523 . S
C1062 C1046 1.368 . S
C1062 C1058 1.368 . S
C1062 C1061 1.523 . S
H1063 C1038 0.950 . S
H1064 C1040 0.950 . S
H1065 C1041 0.949 . S
H1066 C1043 0.950 . S
H1067 C1045 0.950 . S
C1068 C1069 1.349 . S
C1068 C1070 1.327 . S
C1068 H1093 0.950 . S
C1069 C1068 1.349 . S
C1069 C1085 1.349 . S
C1070 C1068 1.327 . S
C1070 C1089 1.429 . S
C1070 H1094 0.950 . S
C1071 C1088 1.574 . S
C1071 C1090 1.368 . S
C1071 H1095 0.949 . S
H1072 C1076 0.949 . S
C1073 C1074 1.349 . S
C1073 C1075 1.327 . S
C1073 H1096 0.950 . S
C1074 C1073 1.349 . S
C1074 C1086 1.349 . S
C1075 C1073 1.327 . S
C1075 C1091 1.429 . S
C1075 H1097 0.950 . S
C1076 H1072 0.949 . S
C1076 C1084 1.574 . S
C1076 C1092 1.368 . S
H1077 C1085 0.950 . S
H1078 C1083 0.950 . S
H1079 C1084 0.949 . S
H1080 C1086 0.950 . S
H1081 C1087 0.950 . S
H1082 C1088 0.949 . S
C1083 H1078 0.950 . S
C1083 C1085 1.327 . S
C1083 C1089 1.429 . S
C1084 C1076 1.574 . S
C1084 H1079 0.949 . S
C1084 C1090 1.368 . S
C1085 C1069 1.349 . S
C1085 H1077 0.950 . S
C1085 C1083 1.327 . S
C1086 C1074 1.349 . S
C1086 H1080 0.950 . S
C1086 C1087 1.327 . S
C1087 H1081 0.950 . S
C1087 C1086 1.327 . S
C1087 C1091 1.429 . S
C1088 C1071 1.574 . S
C1088 H1082 0.949 . S
C1088 C1092 1.368 . S
C1089 C1070 1.429 . S
C1089 C1083 1.429 . S
C1089 C1090 1.523 . S
C1090 C1071 1.368 . S
C1090 C1084 1.368 . S
C1090 C1089 1.523 . S
C1091 C1075 1.429 . S
C1091 C1087 1.429 . S
C1091 C1092 1.523 . S
C1092 C1076 1.368 . S
C1092 C1088 1.368 . S
C1092 C1091 1.523 . S
H1093 C1068 0.950 . S
H1094 C1070 0.950 . S
H1095 C1071 0.949 . S
H1096 C1073 0.950 . S
H1097 C1075 0.950 . S
C1098 C1099 1.349 . S
C1098 C1100 1.327 . S
C1098 H1123 0.950 . S
C1099 C1098 1.349 . S
C1099 C1115 1.349 . S
C1100 C1098 1.327 . S
C1100 C1119 1.429 . S
C1100 H1124 0.950 . S
C1101 C1118 1.574 . S
C1101 C1120 1.368 . S
C1101 H1125 0.949 . S
H1102 C1106 0.949 . S
C1103 C1104 1.349 . S
C1103 C1105 1.327 . S
C1103 H1126 0.950 . S
C1104 C1103 1.349 . S
C1104 C1116 1.349 . S
C1105 C1103 1.327 . S
C1105 C1121 1.429 . S
C1105 H1127 0.950 . S
C1106 H1102 0.949 . S
C1106 C1114 1.574 . S
C1106 C1122 1.368 . S
H1107 C1115 0.950 . S
H1108 C1113 0.950 . S
H1109 C1114 0.949 . S
H1110 C1116 0.950 . S
H1111 C1117 0.950 . S
H1112 C1118 0.949 . S
C1113 H1108 0.950 . S
C1113 C1115 1.327 . S
C1113 C1119 1.429 . S
C1114 C1106 1.574 . S
C1114 H1109 0.949 . S
C1114 C1120 1.368 . S
C1115 C1099 1.349 . S
C1115 H1107 0.950 . S
C1115 C1113 1.327 . S
C1116 C1104 1.349 . S
C1116 H1110 0.950 . S
C1116 C1117 1.327 . S
C1117 H1111 0.950 . S
C1117 C1116 1.327 . S
C1117 C1121 1.429 . S
C1118 C1101 1.574 . S
C1118 H1112 0.949 . S
C1118 C1122 1.368 . S
C1119 C1100 1.429 . S
C1119 C1113 1.429 . S
C1119 C1120 1.523 . S
C1120 C1101 1.368 . S
C1120 C1114 1.368 . S
C1120 C1119 1.523 . S
C1121 C1105 1.429 . S
C1121 C1117 1.429 . S
C1121 C1122 1.523 . S
C1122 C1106 1.368 . S
C1122 C1118 1.368 . S
C1122 C1121 1.523 . S
H1123 C1098 0.950 . S
H1124 C1100 0.950 . S
H1125 C1101 0.949 . S
H1126 C1103 0.950 . S
H1127 C1105 0.950 . S
C1128 C1129 1.349 . S
C1128 C1130 1.327 . S
C1128 H1153 0.950 . S
C1129 C1128 1.349 . S
C1129 C1145 1.349 . S
C1130 C1128 1.327 . S
C1130 C1149 1.429 . S
C1130 H1154 0.950 . S
C1131 C1148 1.574 . S
C1131 C1150 1.368 . S
C1131 H1155 0.949 . S
H1132 C1136 0.949 . S
C1133 C1134 1.349 . S
C1133 C1135 1.327 . S
C1133 H1156 0.950 . S
C1134 C1133 1.349 . S
C1134 C1146 1.349 . S
C1135 C1133 1.327 . S
C1135 C1151 1.429 . S
C1135 H1157 0.950 . S
C1136 H1132 0.949 . S
C1136 C1144 1.574 . S
C1136 C1152 1.368 . S
H1137 C1145 0.950 . S
H1138 C1143 0.950 . S
H1139 C1144 0.949 . S
H1140 C1146 0.950 . S
H1141 C1147 0.950 . S
H1142 C1148 0.949 . S
C1143 H1138 0.950 . S
C1143 C1145 1.327 . S
C1143 C1149 1.429 . S
C1144 C1136 1.574 . S
C1144 H1139 0.949 . S
C1144 C1150 1.368 . S
C1145 C1129 1.349 . S
C1145 H1137 0.950 . S
C1145 C1143 1.327 . S
C1146 C1134 1.349 . S
C1146 H1140 0.950 . S
C1146 C1147 1.327 . S
C1147 H1141 0.950 . S
C1147 C1146 1.327 . S
C1147 C1151 1.429 . S
C1148 C1131 1.574 . S
C1148 H1142 0.949 . S
C1148 C1152 1.368 . S
C1149 C1130 1.429 . S
C1149 C1143 1.429 . S
C1149 C1150 1.523 . S
C1150 C1131 1.368 . S
C1150 C1144 1.368 . S
C1150 C1149 1.523 . S
C1151 C1135 1.429 . S
C1151 C1147 1.429 . S
C1151 C1152 1.523 . S
C1152 C1136 1.368 . S
C1152 C1148 1.368 . S
C1152 C1151 1.523 . S
H1153 C1128 0.950 . S
H1154 C1130 0.950 . S
H1155 C1131 0.949 . S
H1156 C1133 0.950 . S
H1157 C1135 0.950 . S
C1158 C1159 1.349 . S
C1158 C1160 1.327 . S
C1158 H1183 0.950 . S
C1159 C1158 1.349 . S
C1159 C1175 1.349 . S
C1160 C1158 1.327 . S
C1160 C1179 1.429 . S
C1160 H1184 0.950 . S
C1161 C1178 1.574 . S
C1161 C1180 1.368 . S
C1161 H1185 0.949 . S
H1162 C1166 0.949 . S
C1163 C1164 1.349 . S
C1163 C1165 1.327 . S
C1163 H1186 0.950 . S
C1164 C1163 1.349 . S
C1164 C1176 1.349 . S
C1165 C1163 1.327 . S
C1165 C1181 1.429 . S
C1165 H1187 0.950 . S
C1166 H1162 0.949 . S
C1166 C1174 1.574 . S
C1166 C1182 1.368 . S
H1167 C1175 0.950 . S
H1168 C1173 0.950 . S
H1169 C1174 0.949 . S
H1170 C1176 0.950 . S
H1171 C1177 0.950 . S
H1172 C1178 0.949 . S
C1173 H1168 0.950 . S
C1173 C1175 1.327 . S
C1173 C1179 1.429 . S
C1174 C1166 1.574 . S
C1174 H1169 0.949 . S
C1174 C1180 1.368 . S
C1175 C1159 1.349 . S
C1175 H1167 0.950 . S
C1175 C1173 1.327 . S
C1176 C1164 1.349 . S
C1176 H1170 0.950 . S
C1176 C1177 1.327 . S
C1177 H1171 0.950 . S
C1177 C1176 1.327 . S
C1177 C1181 1.429 . S
C1178 C1161 1.574 . S
C1178 H1172 0.949 . S
C1178 C1182 1.368 . S
C1179 C1160 1.429 . S
C1179 C1173 1.429 . S
C1179 C1180 1.523 . S
C1180 C1161 1.368 . S
C1180 C1174 1.368 . S
C1180 C1179 1.523 . S
C1181 C1165 1.429 . S
C1181 C1177 1.429 . S
C1181 C1182 1.523 . S
C1182 C1166 1.368 . S
C1182 C1178 1.368 . S
C1182 C1181 1.523 . S
H1183 C1158 0.950 . S
H1184 C1160 0.950 . S
H1185 C1161 0.949 . S
H1186 C1163 0.950 . S
H1187 C1165 0.950 . S
C1188 C1189 1.349 . S
C1188 C1190 1.327 . S
C1188 H1213 0.950 . S
C1189 C1188 1.349 . S
C1189 C1205 1.349 . S
C1190 C1188 1.327 . S
C1190 C1209 1.429 . S
C1190 H1214 0.950 . S
C1191 C1208 1.574 . S
C1191 C1210 1.368 . S
C1191 H1215 0.949 . S
H1192 C1196 0.949 . S
C1193 C1194 1.349 . S
C1193 C1195 1.327 . S
C1193 H1216 0.950 . S
C1194 C1193 1.349 . S
C1194 C1206 1.349 . S
C1195 C1193 1.327 . S
C1195 C1211 1.429 . S
C1195 H1217 0.950 . S
C1196 H1192 0.949 . S
C1196 C1204 1.574 . S
C1196 C1212 1.368 . S
H1197 C1205 0.950 . S
H1198 C1203 0.950 . S
H1199 C1204 0.949 . S
H1200 C1206 0.950 . S
H1201 C1207 0.950 . S
H1202 C1208 0.949 . S
C1203 H1198 0.950 . S
C1203 C1205 1.327 . S
C1203 C1209 1.429 . S
C1204 C1196 1.574 . S
C1204 H1199 0.949 . S
C1204 C1210 1.368 . S
C1205 C1189 1.349 . S
C1205 H1197 0.950 . S
C1205 C1203 1.327 . S
C1206 C1194 1.349 . S
C1206 H1200 0.950 . S
C1206 C1207 1.327 . S
C1207 H1201 0.950 . S
C1207 C1206 1.327 . S
C1207 C1211 1.429 . S
C1208 C1191 1.574 . S
C1208 H1202 0.949 . S
C1208 C1212 1.368 . S
C1209 C1190 1.429 . S
C1209 C1203 1.429 . S
C1209 C1210 1.523 . S
C1210 C1191 1.368 . S
C1210 C1204 1.368 . S
C1210 C1209 1.523 . S
C1211 C1195 1.429 . S
C1211 C1207 1.429 . S
C1211 C1212 1.523 . S
C1212 C1196 1.368 . S
C1212 C1208 1.368 . S
C1212 C1211 1.523 . S
H1213 C1188 0.950 . S
H1214 C1190 0.950 . S
H1215 C1191 0.949 . S
H1216 C1193 0.950 . S
H1217 C1195 0.950 . S
C1218 C1219 1.349 . S
C1218 C1220 1.327 . S
C1218 H1243 0.950 . S
C1219 C1218 1.349 . S
C1219 C1235 1.349 . S
C1220 C1218 1.327 . S
C1220 C1239 1.429 . S
C1220 H1244 0.950 . S
C1221 C1238 1.574 . S
C1221 C1240 1.368 . S
C1221 H1245 0.949 . S
H1222 C1226 0.949 . S
C1223 C1224 1.349 . S
C1223 C1225 1.327 . S
C1223 H1246 0.950 . S
C1224 C1223 1.349 . S
C1224 C1236 1.349 . S
C1225 C1223 1.327 . S
C1225 C1241 1.429 . S
C1225 H1247 0.950 . S
C1226 H1222 0.949 . S
C1226 C1234 1.574 . S
C1226 C1242 1.368 . S
H1227 C1235 0.950 . S
H1228 C1233 0.950 . S
H1229 C1234 0.949 . S
H1230 C1236 0.950 . S
H1231 C1237 0.950 . S
H1232 C1238 0.949 . S
C1233 H1228 0.950 . S
C1233 C1235 1.327 . S
C1233 C1239 1.429 . S
C1234 C1226 1.574 . S
C1234 H1229 0.949 . S
C1234 C1240 1.368 . S
C1235 C1219 1.349 . S
C1235 H1227 0.950 . S
C1235 C1233 1.327 . S
C1236 C1224 1.349 . S
C1236 H1230 0.950 . S
C1236 C1237 1.327 . S
C1237 H1231 0.950 . S
C1237 C1236 1.327 . S
C1237 C1241 1.429 . S
C1238 C1221 1.574 . S
C1238 H1232 0.949 . S
C1238 C1242 1.368 . S
C1239 C1220 1.429 . S
C1239 C1233 1.429 . S
C1239 C1240 1.523 . S
C1240 C1221 1.368 . S
C1240 C1234 1.368 . S
C1240 C1239 1.523 . S
C1241 C1225 1.429 . S
C1241 C1237 1.429 . S
C1241 C1242 1.523 . S
C1242 C1226 1.368 . S
C1242 C1238 1.368 . S
C1242 C1241 1.523 . S
H1243 C1218 0.950 . S
H1244 C1220 0.950 . S
H1245 C1221 0.949 . S
H1246 C1223 0.950 . S
H1247 C1225 0.950 . S
C1248 C1249 1.349 . S
C1248 C1250 1.327 . S
C1248 H1273 0.950 . S
C1249 C1248 1.349 . S
C1249 C1265 1.349 . S
C1250 C1248 1.327 . S
C1250 C1269 1.429 . S
C1250 H1274 0.950 . S
C1251 C1268 1.574 . S
C1251 C1270 1.368 . S
C1251 H1275 0.949 . S
H1252 C1256 0.949 . S
C1253 C1254 1.349 . S
C1253 C1255 1.327 . S
C1253 H1276 0.950 . S
C1254 C1253 1.349 . S
C1254 C1266 1.349 . S
C1255 C1253 1.327 . S
C1255 C1271 1.429 . S
C1255 H1277 0.950 . S
C1256 H1252 0.949 . S
C1256 C1264 1.574 . S
C1256 C1272 1.368 . S
H1257 C1265 0.950 . S
H1258 C1263 0.950 . S
H1259 C1264 0.949 . S
H1260 C1266 0.950 . S
H1261 C1267 0.950 . S
H1262 C1268 0.949 . S
C1263 H1258 0.950 . S
C1263 C1265 1.327 . S
C1263 C1269 1.429 . S
C1264 C1256 1.574 . S
C1264 H1259 0.949 . S
C1264 C1270 1.368 . S
C1265 C1249 1.349 . S
C1265 H1257 0.950 . S
C1265 C1263 1.327 . S
C1266 C1254 1.349 . S
C1266 H1260 0.950 . S
C1266 C1267 1.327 . S
C1267 H1261 0.950 . S
C1267 C1266 1.327 . S
C1267 C1271 1.429 . S
C1268 C1251 1.574 . S
C1268 H1262 0.949 . S
C1268 C1272 1.368 . S
C1269 C1250 1.429 . S
C1269 C1263 1.429 . S
C1269 C1270 1.523 . S
C1270 C1251 1.368 . S
C1270 C1264 1.368 . S
C1270 C1269 1.523 . S
C1271 C1255 1.429 . S
C1271 C1267 1.429 . S
C1271 C1272 1.523 . S
C1272 C1256 1.368 . S
C1272 C1268 1.368 . S
C1272 C1271 1.523 . S
H1273 C1248 0.950 . S
H1274 C1250 0.950 . S
H1275 C1251 0.949 . S
H1276 C1253 0.950 . S
H1277 C1255 0.950 . S
C1278 C1279 1.349 . S
C1278 C1280 1.327 . S
C1278 H1303 0.950 . S
C1279 C1278 1.349 . S
C1279 C1295 1.349 . S
C1280 C1278 1.327 . S
C1280 C1299 1.429 . S
C1280 H1304 0.950 . S
C1281 C1298 1.574 . S
C1281 C1300 1.368 . S
C1281 H1305 0.949 . S
H1282 C1286 0.949 . S
C1283 C1284 1.349 . S
C1283 C1285 1.327 . S
C1283 H1306 0.950 . S
C1284 C1283 1.349 . S
C1284 C1296 1.349 . S
C1285 C1283 1.327 . S
C1285 C1301 1.429 . S
C1285 H1307 0.950 . S
C1286 H1282 0.949 . S
C1286 C1294 1.574 . S
C1286 C1302 1.368 . S
H1287 C1295 0.950 . S
H1288 C1293 0.950 . S
H1289 C1294 0.949 . S
H1290 C1296 0.950 . S
H1291 C1297 0.950 . S
H1292 C1298 0.949 . S
C1293 H1288 0.950 . S
C1293 C1295 1.327 . S
C1293 C1299 1.429 . S
C1294 C1286 1.574 . S
C1294 H1289 0.949 . S
C1294 C1300 1.368 . S
C1295 C1279 1.349 . S
C1295 H1287 0.950 . S
C1295 C1293 1.327 . S
C1296 C1284 1.349 . S
C1296 H1290 0.950 . S
C1296 C1297 1.327 . S
C1297 H1291 0.950 . S
C1297 C1296 1.327 . S
C1297 C1301 1.429 . S
C1298 C1281 1.574 . S
C1298 H1292 0.949 . S
C1298 C1302 1.368 . S
C1299 C1280 1.429 . S
C1299 C1293 1.429 . S
C1299 C1300 1.523 . S
C1300 C1281 1.368 . S
C1300 C1294 1.368 . S
C1300 C1299 1.523 . S
C1301 C1285 1.429 . S
C1301 C1297 1.429 . S
C1301 C1302 1.523 . S
C1302 C1286 1.368 . S
C1302 C1298 1.368 . S
C1302 C1301 1.523 . S
H1303 C1278 0.950 . S
H1304 C1280 0.950 . S
H1305 C1281 0.949 . S
H1306 C1283 0.950 . S
H1307 C1285 0.950 . S
C1308 C1309 1.349 . S
C1308 C1310 1.327 . S
C1308 H1333 0.950 . S
C1309 C1308 1.349 . S
C1309 C1325 1.349 . S
C1310 C1308 1.327 . S
C1310 C1329 1.429 . S
C1310 H1334 0.950 . S
C1311 C1328 1.574 . S
C1311 C1330 1.368 . S
C1311 H1335 0.949 . S
H1312 C1316 0.949 . S
C1313 C1314 1.349 . S
C1313 C1315 1.327 . S
C1313 H1336 0.950 . S
C1314 C1313 1.349 . S
C1314 C1326 1.349 . S
C1315 C1313 1.327 . S
C1315 C1331 1.429 . S
C1315 H1337 0.950 . S
C1316 H1312 0.949 . S
C1316 C1324 1.574 . S
C1316 C1332 1.368 . S
H1317 C1325 0.950 . S
H1318 C1323 0.950 . S
H1319 C1324 0.949 . S
H1320 C1326 0.950 . S
H1321 C1327 0.950 . S
H1322 C1328 0.949 . S
C1323 H1318 0.950 . S
C1323 C1325 1.327 . S
C1323 C1329 1.429 . S
C1324 C1316 1.574 . S
C1324 H1319 0.949 . S
C1324 C1330 1.368 . S
C1325 C1309 1.349 . S
C1325 H1317 0.950 . S
C1325 C1323 1.327 . S
C1326 C1314 1.349 . S
C1326 H1320 0.950 . S
C1326 C1327 1.327 . S
C1327 H1321 0.950 . S
C1327 C1326 1.327 . S
C1327 C1331 1.429 . S
C1328 C1311 1.574 . S
C1328 H1322 0.949 . S
C1328 C1332 1.368 . S
C1329 C1310 1.429 . S
C1329 C1323 1.429 . S
C1329 C1330 1.523 . S
C1330 C1311 1.368 . S
C1330 C1324 1.368 . S
C1330 C1329 1.523 . S
C1331 C1315 1.429 . S
C1331 C1327 1.429 . S
C1331 C1332 1.523 . S
C1332 C1316 1.368 . S
C1332 C1328 1.368 . S
C1332 C1331 1.523 . S
H1333 C1308 0.950 . S
H1334 C1310 0.950 . S
H1335 C1311 0.949 . S
H1336 C1313 0.950 . S
H1337 C1315 0.950 . S
C1338 C1339 1.349 . S
C1338 C1340 1.327 . S
C1338 H1363 0.950 . S
C1339 C1338 1.349 . S
C1339 C1355 1.349 . S
C1340 C1338 1.327 . S
C1340 C1359 1.429 . S
C1340 H1364 0.950 . S
C1341 C1358 1.574 . S
C1341 C1360 1.368 . S
C1341 H1365 0.949 . S
H1342 C1346 0.949 . S
C1343 C1344 1.349 . S
C1343 C1345 1.327 . S
C1343 H1366 0.950 . S
C1344 C1343 1.349 . S
C1344 C1356 1.349 . S
C1345 C1343 1.327 . S
C1345 C1361 1.429 . S
C1345 H1367 0.950 . S
C1346 H1342 0.949 . S
C1346 C1354 1.574 . S
C1346 C1362 1.368 . S
H1347 C1355 0.950 . S
H1348 C1353 0.950 . S
H1349 C1354 0.949 . S
H1350 C1356 0.950 . S
H1351 C1357 0.950 . S
H1352 C1358 0.949 . S
C1353 H1348 0.950 . S
C1353 C1355 1.327 . S
C1353 C1359 1.429 . S
C1354 C1346 1.574 . S
C1354 H1349 0.949 . S
C1354 C1360 1.368 . S
C1355 C1339 1.349 . S
C1355 H1347 0.950 . S
C1355 C1353 1.327 . S
C1356 C1344 1.349 . S
C1356 H1350 0.950 . S
C1356 C1357 1.327 . S
C1357 H1351 0.950 . S
C1357 C1356 1.327 . S
C1357 C1361 1.429 . S
C1358 C1341 1.574 . S
C1358 H1352 0.949 . S
C1358 C1362 1.368 . S
C1359 C1340 1.429 . S
C1359 C1353 1.429 . S
C1359 C1360 1.523 . S
C1360 C1341 1.368 . S
C1360 C1354 1.368 . S
C1360 C1359 1.523 . S
C1361 C1345 1.429 . S
C1361 C1357 1.429 . S
C1361 C1362 1.523 . S
C1362 C1346 1.368 . S
C1362 C1358 1.368 . S
C1362 C1361 1.523 . S
H1363 C1338 0.950 . S
H1364 C1340 0.950 . S
H1365 C1341 0.949 . S
H1366 C1343 0.950 . S
H1367 C1345 0.950 . S
C1368 C1369 1.349 . S
C1368 C1370 1.327 . S
C1368 H1393 0.950 . S
C1369 C1368 1.349 . S
C1369 C1385 1.349 . S
C1370 C1368 1.327 . S
C1370 C1389 1.429 . S
C1370 H1394 0.950 . S
C1371 C1388 1.574 . S
C1371 C1390 1.368 . S
C1371 H1395 0.949 . S
H1372 C1376 0.949 . S
C1373 C1374 1.349 1_554 S
C1373 C1375 1.327 . S
C1373 H1396 0.950 . S
C1374 C1373 1.349 1_556 S
C1374 C1386 1.349 . S
C1375 C1373 1.327 . S
C1375 C1391 1.429 . S
C1375 H1397 0.950 . S
C1376 H1372 0.949 . S
C1376 C1384 1.574 . S
C1376 C1392 1.368 . S
H1377 C1385 0.950 . S
H1378 C1383 0.950 . S
H1379 C1384 0.949 . S
H1380 C1386 0.950 . S
H1381 C1387 0.950 . S
H1382 C1388 0.949 . S
C1383 H1378 0.950 . S
C1383 C1385 1.327 . S
C1383 C1389 1.429 . S
C1384 C1376 1.574 . S
C1384 H1379 0.949 . S
C1384 C1390 1.368 . S
C1385 C1369 1.349 . S
C1385 H1377 0.950 . S
C1385 C1383 1.327 . S
C1386 C1374 1.349 . S
C1386 H1380 0.950 . S
C1386 C1387 1.327 1_556 S
C1387 H1381 0.950 . S
C1387 C1386 1.327 1_554 S
C1387 C1391 1.429 . S
C1388 C1371 1.574 . S
C1388 H1382 0.949 . S
C1388 C1392 1.368 . S
C1389 C1370 1.429 . S
C1389 C1383 1.429 . S
C1389 C1390 1.523 . S
C1390 C1371 1.368 . S
C1390 C1384 1.368 . S
C1390 C1389 1.523 . S
C1391 C1375 1.429 . S
C1391 C1387 1.429 . S
C1391 C1392 1.523 . S
C1392 C1376 1.368 . S
C1392 C1388 1.368 . S
C1392 C1391 1.523 . S
H1393 C1368 0.950 . S
H1394 C1370 0.950 . S
H1395 C1371 0.949 . S
H1396 C1373 0.950 . S
H1397 C1375 0.950 . S
C1398 C1399 1.349 . S
C1398 C1400 1.327 . S
C1398 H1423 0.950 . S
C1399 C1398 1.349 . S
C1399 C1415 1.349 . S
C1400 C1398 1.327 . S
C1400 C1419 1.429 . S
C1400 H1424 0.950 . S
C1401 C1418 1.574 . S
C1401 C1420 1.368 . S
C1401 H1425 0.949 . S
H1402 C1406 0.949 . S
C1403 C1404 1.349 . S
C1403 C1405 1.327 . S
C1403 H1426 0.950 . S
C1404 C1403 1.349 . S
C1404 C1416 1.349 1_556 S
C1405 C1403 1.327 . S
C1405 C1421 1.429 1_556 S
C1405 H1427 0.950 . S
C1406 H1402 0.949 . S
C1406 C1414 1.574 . S
C1406 C1422 1.368 . S
H1407 C1415 0.950 . S
H1408 C1413 0.950 . S
H1409 C1414 0.949 . S
H1410 C1416 0.950 . S
H1411 C1417 0.950 . S
H1412 C1418 0.949 . S
C1413 H1408 0.950 . S
C1413 C1415 1.327 . S
C1413 C1419 1.429 . S
C1414 C1406 1.574 . S
C1414 H1409 0.949 . S
C1414 C1420 1.368 . S
C1415 C1399 1.349 . S
C1415 H1407 0.950 . S
C1415 C1413 1.327 . S
C1416 C1404 1.349 1_554 S
C1416 H1410 0.950 . S
C1416 C1417 1.327 . S
C1417 H1411 0.950 . S
C1417 C1416 1.327 . S
C1417 C1421 1.429 . S
C1418 C1401 1.574 . S
C1418 H1412 0.949 . S
C1418 C1422 1.368 . S
C1419 C1400 1.429 . S
C1419 C1413 1.429 . S
C1419 C1420 1.523 . S
C1420 C1401 1.368 . S
C1420 C1414 1.368 . S
C1420 C1419 1.523 . S
C1421 C1405 1.429 1_554 S
C1421 C1417 1.429 . S
C1421 C1422 1.523 . S
C1422 C1406 1.368 . S
C1422 C1418 1.368 . S
C1422 C1421 1.523 . S
H1423 C1398 0.950 . S
H1424 C1400 0.950 . S
H1425 C1401 0.949 . S
H1426 C1403 0.950 . S
H1427 C1405 0.950 . S
C1428 C1429 1.349 1_554 S
C1428 C1430 1.327 . S
C1428 H1453 0.950 . S
C1429 C1428 1.349 1_556 S
C1429 C1445 1.349 . S
C1430 C1428 1.327 . S
C1430 C1449 1.429 . S
C1430 H1454 0.950 . S
C1431 C1448 1.574 . S
C1431 C1450 1.368 . S
C1431 H1455 0.949 . S
H1432 C1436 0.949 . S
C1433 C1434 1.349 . S
C1433 C1435 1.327 . S
C1433 H1456 0.950 . S
C1434 C1433 1.349 . S
C1434 C1446 1.349 . S
C1435 C1433 1.327 . S
C1435 C1451 1.429 . S
C1435 H1457 0.950 . S
C1436 H1432 0.949 . S
C1436 C1444 1.574 . S
C1436 C1452 1.368 . S
H1437 C1445 0.950 . S
H1438 C1443 0.950 . S
H1439 C1444 0.949 . S
H1440 C1446 0.950 . S
H1441 C1447 0.950 . S
H1442 C1448 0.949 . S
C1443 H1438 0.950 . S
C1443 C1445 1.327 1_554 S
C1443 C1449 1.429 . S
C1444 C1436 1.574 . S
C1444 H1439 0.949 . S
C1444 C1450 1.368 . S
C1445 C1429 1.349 . S
C1445 H1437 0.950 . S
C1445 C1443 1.327 1_556 S
C1446 C1434 1.349 . S
C1446 H1440 0.950 . S
C1446 C1447 1.327 . S
C1447 H1441 0.950 . S
C1447 C1446 1.327 . S
C1447 C1451 1.429 . S
C1448 C1431 1.574 . S
C1448 H1442 0.949 . S
C1448 C1452 1.368 . S
C1449 C1430 1.429 . S
C1449 C1443 1.429 . S
C1449 C1450 1.523 . S
C1450 C1431 1.368 . S
C1450 C1444 1.368 . S
C1450 C1449 1.523 . S
C1451 C1435 1.429 . S
C1451 C1447 1.429 . S
C1451 C1452 1.523 . S
C1452 C1436 1.368 . S
C1452 C1448 1.368 . S
C1452 C1451 1.523 . S
H1453 C1428 0.950 . S
H1454 C1430 0.950 . S
H1455 C1431 0.949 . S
H1456 C1433 0.950 . S
H1457 C1435 0.950 . S
C1458 C1459 1.349 . S
C1458 C1460 1.327 . S
C1458 H1483 0.950 . S
C1459 C1458 1.349 . S
C1459 C1475 1.349 . S
C1460 C1458 1.327 . S
C1460 C1479 1.429 . S
C1460 H1484 0.950 . S
C1461 C1478 1.574 . S
C1461 C1480 1.368 . S
C1461 H1485 0.949 1_554 S
H1462 C1466 0.949 . S
C1463 C1464 1.349 . S
C1463 C1465 1.327 . S
C1463 H1486 0.950 . S
C1464 C1463 1.349 . S
C1464 C1476 1.349 . S
C1465 C1463 1.327 . S
C1465 C1481 1.429 . S
C1465 H1487 0.950 . S
C1466 H1462 0.949 . S
C1466 C1474 1.574 . S
C1466 C1482 1.368 . S
H1467 C1475 0.950 . S
H1468 C1473 0.950 . S
H1469 C1474 0.949 . S
H1470 C1476 0.950 . S
H1471 C1477 0.950 . S
H1472 C1478 0.949 . S
C1473 H1468 0.950 . S
C1473 C1475 1.327 . S
C1473 C1479 1.429 . S
C1474 C1466 1.574 . S
C1474 H1469 0.949 . S
C1474 C1480 1.368 . S
C1475 C1459 1.349 . S
C1475 H1467 0.950 . S
C1475 C1473 1.327 . S
C1476 C1464 1.349 . S
C1476 H1470 0.950 . S
C1476 C1477 1.327 . S
C1477 H1471 0.950 . S
C1477 C1476 1.327 . S
C1477 C1481 1.429 . S
C1478 C1461 1.574 . S
C1478 H1472 0.949 . S
C1478 C1482 1.368 . S
C1479 C1460 1.429 . S
C1479 C1473 1.429 . S
C1479 C1480 1.523 1_556 S
C1480 C1461 1.368 . S
C1480 C1474 1.368 . S
C1480 C1479 1.523 1_554 S
C1481 C1465 1.429 . S
C1481 C1477 1.429 . S
C1481 C1482 1.523 . S
C1482 C1466 1.368 . S
C1482 C1478 1.368 . S
C1482 C1481 1.523 . S
H1483 C1458 0.950 . S
H1484 C1460 0.950 . S
H1485 C1461 0.949 1_556 S
H1486 C1463 0.950 . S
H1487 C1465 0.950 . S
C1488 C1489 1.349 . S
C1488 C1490 1.327 . S
C1488 H1513 0.950 . S
C1489 C1488 1.349 . S
C1489 C1505 1.349 . S
C1490 C1488 1.327 . S
C1490 C1509 1.429 . S
C1490 H1514 0.950 . S
C1491 C1508 1.574 . S
C1491 C1510 1.368 . S
C1491 H1515 0.949 1_554 S
H1492 C1496 0.949 . S
C1493 C1494 1.349 . S
C1493 C1495 1.327 . S
C1493 H1516 0.950 . S
C1494 C1493 1.349 . S
C1494 C1506 1.349 . S
C1495 C1493 1.327 . S
C1495 C1511 1.429 . S
C1495 H1517 0.950 . S
C1496 H1492 0.949 . S
C1496 C1504 1.574 . S
C1496 C1512 1.368 . S
H1497 C1505 0.950 . S
H1498 C1503 0.950 . S
H1499 C1504 0.949 . S
H1500 C1506 0.950 . S
H1501 C1507 0.950 . S
H1502 C1508 0.949 . S
C1503 H1498 0.950 . S
C1503 C1505 1.327 . S
C1503 C1509 1.429 . S
C1504 C1496 1.574 . S
C1504 H1499 0.949 . S
C1504 C1510 1.368 . S
C1505 C1489 1.349 . S
C1505 H1497 0.950 . S
C1505 C1503 1.327 . S
C1506 C1494 1.349 . S
C1506 H1500 0.950 . S
C1506 C1507 1.327 . S
C1507 H1501 0.950 . S
C1507 C1506 1.327 . S
C1507 C1511 1.429 . S
C1508 C1491 1.574 . S
C1508 H1502 0.949 . S
C1508 C1512 1.368 . S
C1509 C1490 1.429 . S
C1509 C1503 1.429 . S
C1509 C1510 1.523 1_556 S
C1510 C1491 1.368 . S
C1510 C1504 1.368 . S
C1510 C1509 1.523 1_554 S
C1511 C1495 1.429 . S
C1511 C1507 1.429 . S
C1511 C1512 1.523 . S
C1512 C1496 1.368 . S
C1512 C1508 1.368 . S
C1512 C1511 1.523 . S
H1513 C1488 0.950 . S
H1514 C1490 0.950 . S
H1515 C1491 0.949 1_556 S
H1516 C1493 0.950 . S
H1517 C1495 0.950 . S
C1518 C1519 1.349 . S
C1518 C1520 1.327 . S
C1518 H1543 0.950 . S
C1519 C1518 1.349 . S
C1519 C1535 1.349 . S
C1520 C1518 1.327 . S
C1520 C1539 1.429 . S
C1520 H1544 0.950 . S
C1521 C1538 1.574 . S
C1521 C1540 1.368 . S
C1521 H1545 0.949 . S
H1522 C1526 0.949 . S
C1523 C1524 1.349 . S
C1523 C1525 1.327 . S
C1523 H1546 0.950 . S
C1524 C1523 1.349 . S
C1524 C1536 1.349 . S
C1525 C1523 1.327 . S
C1525 C1541 1.429 . S
C1525 H1547 0.950 . S
C1526 H1522 0.949 . S
C1526 C1534 1.574 1_554 S
C1526 C1542 1.368 . S
H1527 C1535 0.950 . S
H1528 C1533 0.950 1_554 S
H1529 C1534 0.949 . S
H1530 C1536 0.950 . S
H1531 C1537 0.950 . S
H1532 C1538 0.949 . S
C1533 H1528 0.950 1_556 S
C1533 C1535 1.327 . S
C1533 C1539 1.429 . S
C1534 C1526 1.574 1_556 S
C1534 H1529 0.949 . S
C1534 C1540 1.368 1_556 S
C1535 C1519 1.349 . S
C1535 H1527 0.950 . S
C1535 C1533 1.327 . S
C1536 C1524 1.349 . S
C1536 H1530 0.950 . S
C1536 C1537 1.327 . S
C1537 H1531 0.950 . S
C1537 C1536 1.327 . S
C1537 C1541 1.429 . S
C1538 C1521 1.574 . S
C1538 H1532 0.949 . S
C1538 C1542 1.368 . S
C1539 C1520 1.429 . S
C1539 C1533 1.429 . S
C1539 C1540 1.523 1_556 S
C1540 C1521 1.368 . S
C1540 C1534 1.368 1_554 S
C1540 C1539 1.523 1_554 S
C1541 C1525 1.429 . S
C1541 C1537 1.429 . S
C1541 C1542 1.523 . S
C1542 C1526 1.368 . S
C1542 C1538 1.368 . S
C1542 C1541 1.523 . S
H1543 C1518 0.950 . S
H1544 C1520 0.950 . S
H1545 C1521 0.949 . S
H1546 C1523 0.950 . S
H1547 C1525 0.950 . S
C1548 C1549 1.349 . S
C1548 C1550 1.327 . S
C1548 H1573 0.950 . S
C1549 C1548 1.349 . S
C1549 C1565 1.349 . S
C1550 C1548 1.327 . S
C1550 C1569 1.429 . S
C1550 H1574 0.950 . S
C1551 C1568 1.574 . S
C1551 C1570 1.368 . S
C1551 H1575 0.949 . S
H1552 C1556 0.949 . S
C1553 C1554 1.349 . S
C1553 C1555 1.327 . S
C1553 H1576 0.950 . S
C1554 C1553 1.349 . S
C1554 C1566 1.349 . S
C1555 C1553 1.327 . S
C1555 C1571 1.429 . S
C1555 H1577 0.950 . S
C1556 H1552 0.949 . S
C1556 C1564 1.574 . S
C1556 C1572 1.368 . S
H1557 C1565 0.950 . S
H1558 C1563 0.950 . S
H1559 C1564 0.949 . S
H1560 C1566 0.950 . S
H1561 C1567 0.950 . S
H1562 C1568 0.949 . S
C1563 H1558 0.950 . S
C1563 C1565 1.327 . S
C1563 C1569 1.429 . S
C1564 C1556 1.574 . S
C1564 H1559 0.949 . S
C1564 C1570 1.368 . S
C1565 C1549 1.349 . S
C1565 H1557 0.950 . S
C1565 C1563 1.327 . S
C1566 C1554 1.349 . S
C1566 H1560 0.950 . S
C1566 C1567 1.327 . S
C1567 H1561 0.950 . S
C1567 C1566 1.327 . S
C1567 C1571 1.429 . S
C1568 C1551 1.574 . S
C1568 H1562 0.949 . S
C1568 C1572 1.368 . S
C1569 C1550 1.429 . S
C1569 C1563 1.429 . S
C1569 C1570 1.523 . S
C1570 C1551 1.368 . S
C1570 C1564 1.368 . S
C1570 C1569 1.523 . S
C1571 C1555 1.429 . S
C1571 C1567 1.429 . S
C1571 C1572 1.523 . S
C1572 C1556 1.368 . S
C1572 C1568 1.368 . S
C1572 C1571 1.523 . S
H1573 C1548 0.950 . S
H1574 C1550 0.950 . S
H1575 C1551 0.949 . S
H1576 C1553 0.950 . S
H1577 C1555 0.950 . S
C1578 C1579 1.349 . S
C1578 C1580 1.327 . S
C1578 H1603 0.950 . S
C1579 C1578 1.349 . S
C1579 C1595 1.349 . S
C1580 C1578 1.327 . S
C1580 C1599 1.429 . S
C1580 H1604 0.950 . S
C1581 C1598 1.574 . S
C1581 C1600 1.368 . S
C1581 H1605 0.949 . S
H1582 C1586 0.949 . S
C1583 C1584 1.349 . S
C1583 C1585 1.327 . S
C1583 H1606 0.950 . S
C1584 C1583 1.349 . S
C1584 C1596 1.349 . S
C1585 C1583 1.327 . S
C1585 C1601 1.429 . S
C1585 H1607 0.950 . S
C1586 H1582 0.949 . S
C1586 C1594 1.574 . S
C1586 C1602 1.368 . S
H1587 C1595 0.950 . S
H1588 C1593 0.950 . S
H1589 C1594 0.949 . S
H1590 C1596 0.950 . S
H1591 C1597 0.950 . S
H1592 C1598 0.949 . S
C1593 H1588 0.950 . S
C1593 C1595 1.327 . S
C1593 C1599 1.429 . S
C1594 C1586 1.574 . S
C1594 H1589 0.949 . S
C1594 C1600 1.368 . S
C1595 C1579 1.349 . S
C1595 H1587 0.950 . S
C1595 C1593 1.327 . S
C1596 C1584 1.349 . S
C1596 H1590 0.950 . S
C1596 C1597 1.327 . S
C1597 H1591 0.950 . S
C1597 C1596 1.327 . S
C1597 C1601 1.429 . S
C1598 C1581 1.574 . S
C1598 H1592 0.949 . S
C1598 C1602 1.368 . S
C1599 C1580 1.429 . S
C1599 C1593 1.429 . S
C1599 C1600 1.523 . S
C1600 C1581 1.368 . S
C1600 C1594 1.368 . S
C1600 C1599 1.523 . S
C1601 C1585 1.429 . S
C1601 C1597 1.429 . S
C1601 C1602 1.523 . S
C1602 C1586 1.368 . S
C1602 C1598 1.368 . S
C1602 C1601 1.523 . S
H1603 C1578 0.950 . S
H1604 C1580 0.950 . S
H1605 C1581 0.949 . S
H1606 C1583 0.950 . S
H1607 C1585 0.950 . S
C1608 C1609 1.349 . S
C1608 C1610 1.327 . S
C1608 H1633 0.950 . S
C1609 C1608 1.349 . S
C1609 C1625 1.349 . S
C1610 C1608 1.327 . S
C1610 C1629 1.429 . S
C1610 H1634 0.950 . S
C1611 C1628 1.574 . S
C1611 C1630 1.368 . S
C1611 H1635 0.949 . S
H1612 C1616 0.949 . S
C1613 C1614 1.349 . S
C1613 C1615 1.327 . S
C1613 H1636 0.950 . S
C1614 C1613 1.349 . S
C1614 C1626 1.349 . S
C1615 C1613 1.327 . S
C1615 C1631 1.429 . S
C1615 H1637 0.950 . S
C1616 H1612 0.949 . S
C1616 C1624 1.574 . S
C1616 C1632 1.368 . S
H1617 C1625 0.950 . S
H1618 C1623 0.950 . S
H1619 C1624 0.949 . S
H1620 C1626 0.950 . S
H1621 C1627 0.950 . S
H1622 C1628 0.949 . S
C1623 H1618 0.950 . S
C1623 C1625 1.327 . S
C1623 C1629 1.429 . S
C1624 C1616 1.574 . S
C1624 H1619 0.949 . S
C1624 C1630 1.368 . S
C1625 C1609 1.349 . S
C1625 H1617 0.950 . S
C1625 C1623 1.327 . S
C1626 C1614 1.349 . S
C1626 H1620 0.950 . S
C1626 C1627 1.327 . S
C1627 H1621 0.950 . S
C1627 C1626 1.327 . S
C1627 C1631 1.429 . S
C1628 C1611 1.574 . S
C1628 H1622 0.949 . S
C1628 C1632 1.368 . S
C1629 C1610 1.429 . S
C1629 C1623 1.429 . S
C1629 C1630 1.523 . S
C1630 C1611 1.368 . S
C1630 C1624 1.368 . S
C1630 C1629 1.523 . S
C1631 C1615 1.429 . S
C1631 C1627 1.429 . S
C1631 C1632 1.523 . S
C1632 C1616 1.368 . S
C1632 C1628 1.368 . S
C1632 C1631 1.523 . S
H1633 C1608 0.950 . S
H1634 C1610 0.950 . S
H1635 C1611 0.949 . S
H1636 C1613 0.950 . S
H1637 C1615 0.950 . S
C1638 C1639 1.349 . S
C1638 C1640 1.327 . S
C1638 H1663 0.950 . S
C1639 C1638 1.349 . S
C1639 C1655 1.349 . S
C1640 C1638 1.327 . S
C1640 C1659 1.429 . S
C1640 H1664 0.950 . S
C1641 C1658 1.574 . S
C1641 C1660 1.368 . S
C1641 H1665 0.949 . S
H1642 C1646 0.949 . S
C1643 C1644 1.349 . S
C1643 C1645 1.327 . S
C1643 H1666 0.950 . S
C1644 C1643 1.349 . S
C1644 C1656 1.349 . S
C1645 C1643 1.327 . S
C1645 C1661 1.429 . S
C1645 H1667 0.950 . S
C1646 H1642 0.949 . S
C1646 C1654 1.574 . S
C1646 C1662 1.368 . S
H1647 C1655 0.950 . S
H1648 C1653 0.950 . S
H1649 C1654 0.949 . S
H1650 C1656 0.950 . S
H1651 C1657 0.950 . S
H1652 C1658 0.949 . S
C1653 H1648 0.950 . S
C1653 C1655 1.327 . S
C1653 C1659 1.429 . S
C1654 C1646 1.574 . S
C1654 H1649 0.949 . S
C1654 C1660 1.368 . S
C1655 C1639 1.349 . S
C1655 H1647 0.950 . S
C1655 C1653 1.327 . S
C1656 C1644 1.349 . S
C1656 H1650 0.950 . S
C1656 C1657 1.327 . S
C1657 H1651 0.950 . S
C1657 C1656 1.327 . S
C1657 C1661 1.429 . S
C1658 C1641 1.574 . S
C1658 H1652 0.949 . S
C1658 C1662 1.368 . S
C1659 C1640 1.429 . S
C1659 C1653 1.429 . S
C1659 C1660 1.523 . S
C1660 C1641 1.368 . S
C1660 C1654 1.368 . S
C1660 C1659 1.523 . S
C1661 C1645 1.429 . S
C1661 C1657 1.429 . S
C1661 C1662 1.523 . S
C1662 C1646 1.368 . S
C1662 C1658 1.368 . S
C1662 C1661 1.523 . S
H1663 C1638 0.950 . S
H1664 C1640 0.950 . S
H1665 C1641 0.949 . S
H1666 C1643 0.950 . S
H1667 C1645 0.950 . S
C1668 C1669 1.349 . S
C1668 C1670 1.327 . S
C1668 H1693 0.950 . S
C1669 C1668 1.349 . S
C1669 C1685 1.349 . S
C1670 C1668 1.327 . S
C1670 C1689 1.429 . S
C1670 H1694 0.950 . S
C1671 C1688 1.574 . S
C1671 C1690 1.368 . S
C1671 H1695 0.949 . S
H1672 C1676 0.949 . S
C1673 C1674 1.349 . S
C1673 C1675 1.327 . S
C1673 H1696 0.950 . S
C1674 C1673 1.349 . S
C1674 C1686 1.349 . S
C1675 C1673 1.327 . S
C1675 C1691 1.429 . S
C1675 H1697 0.950 . S
C1676 H1672 0.949 . S
C1676 C1684 1.574 . S
C1676 C1692 1.368 . S
H1677 C1685 0.950 . S
H1678 C1683 0.950 . S
H1679 C1684 0.949 . S
H1680 C1686 0.950 . S
H1681 C1687 0.950 . S
H1682 C1688 0.949 . S
C1683 H1678 0.950 . S
C1683 C1685 1.327 . S
C1683 C1689 1.429 . S
C1684 C1676 1.574 . S
C1684 H1679 0.949 . S
C1684 C1690 1.368 . S
C1685 C1669 1.349 . S
C1685 H1677 0.950 . S
C1685 C1683 1.327 . S
C1686 C1674 1.349 . S
C1686 H1680 0.950 . S
C1686 C1687 1.327 . S
C1687 H1681 0.950 . S
C1687 C1686 1.327 . S
C1687 C1691 1.429 . S
C1688 C1671 1.574 . S
C1688 H1682 0.949 . S
C1688 C1692 1.368 . S
C1689 C1670 1.429 . S
C1689 C1683 1.429 . S
C1689 C1690 1.523 . S
C1690 C1671 1.368 . S
C1690 C1684 1.368 . S
C1690 C1689 1.523 . S
C1691 C1675 1.429 . S
C1691 C1687 1.429 . S
C1691 C1692 1.523 . S
C1692 C1676 1.368 . S
C1692 C1688 1.368 . S
C1692 C1691 1.523 . S
H1693 C1668 0.950 . S
H1694 C1670 0.950 . S
H1695 C1671 0.949 . S
H1696 C1673 0.950 . S
H1697 C1675 0.950 . S
C1698 C1699 1.349 . S
C1698 C1700 1.327 . S
C1698 H1723 0.950 . S
C1699 C1698 1.349 . S
C1699 C1715 1.349 . S
C1700 C1698 1.327 . S
C1700 C1719 1.429 . S
C1700 H1724 0.950 . S
C1701 C1718 1.574 . S
C1701 C1720 1.368 . S
C1701 H1725 0.949 . S
H1702 C1706 0.949 . S
C1703 C1704 1.349 . S
C1703 C1705 1.327 . S
C1703 H1726 0.950 . S
C1704 C1703 1.349 . S
C1704 C1716 1.349 . S
C1705 C1703 1.327 . S
C1705 C1721 1.429 . S
C1705 H1727 0.950 . S
C1706 H1702 0.949 . S
C1706 C1714 1.574 . S
C1706 C1722 1.368 . S
H1707 C1715 0.950 . S
H1708 C1713 0.950 . S
H1709 C1714 0.949 . S
H1710 C1716 0.950 . S
H1711 C1717 0.950 . S
H1712 C1718 0.949 . S
C1713 H1708 0.950 . S
C1713 C1715 1.327 . S
C1713 C1719 1.429 . S
C1714 C1706 1.574 . S
C1714 H1709 0.949 . S
C1714 C1720 1.368 . S
C1715 C1699 1.349 . S
C1715 H1707 0.950 . S
C1715 C1713 1.327 . S
C1716 C1704 1.349 . S
C1716 H1710 0.950 . S
C1716 C1717 1.327 . S
C1717 H1711 0.950 . S
C1717 C1716 1.327 . S
C1717 C1721 1.429 . S
C1718 C1701 1.574 . S
C1718 H1712 0.949 . S
C1718 C1722 1.368 . S
C1719 C1700 1.429 . S
C1719 C1713 1.429 . S
C1719 C1720 1.523 . S
C1720 C1701 1.368 . S
C1720 C1714 1.368 . S
C1720 C1719 1.523 . S
C1721 C1705 1.429 . S
C1721 C1717 1.429 . S
C1721 C1722 1.523 . S
C1722 C1706 1.368 . S
C1722 C1718 1.368 . S
C1722 C1721 1.523 . S
H1723 C1698 0.950 . S
H1724 C1700 0.950 . S
H1725 C1701 0.949 . S
H1726 C1703 0.950 . S
H1727 C1705 0.950 . S
C1728 C1729 1.349 . S
C1728 C1730 1.327 . S
C1728 H1753 0.950 . S
C1729 C1728 1.349 . S
C1729 C1745 1.349 . S
C1730 C1728 1.327 . S
C1730 C1749 1.429 . S
C1730 H1754 0.950 . S
C1731 C1748 1.574 . S
C1731 C1750 1.368 . S
C1731 H1755 0.949 . S
H1732 C1736 0.949 . S
C1733 C1734 1.349 . S
C1733 C1735 1.327 . S
C1733 H1756 0.950 . S
C1734 C1733 1.349 . S
C1734 C1746 1.349 . S
C1735 C1733 1.327 . S
C1735 C1751 1.429 . S
C1735 H1757 0.950 . S
C1736 H1732 0.949 . S
C1736 C1744 1.574 . S
C1736 C1752 1.368 . S
H1737 C1745 0.950 . S
H1738 C1743 0.950 . S
H1739 C1744 0.949 . S
H1740 C1746 0.950 . S
H1741 C1747 0.950 . S
H1742 C1748 0.949 . S
C1743 H1738 0.950 . S
C1743 C1745 1.327 . S
C1743 C1749 1.429 . S
C1744 C1736 1.574 . S
C1744 H1739 0.949 . S
C1744 C1750 1.368 . S
C1745 C1729 1.349 . S
C1745 H1737 0.950 . S
C1745 C1743 1.327 . S
C1746 C1734 1.349 . S
C1746 H1740 0.950 . S
C1746 C1747 1.327 . S
C1747 H1741 0.950 . S
C1747 C1746 1.327 . S
C1747 C1751 1.429 . S
C1748 C1731 1.574 . S
C1748 H1742 0.949 . S
C1748 C1752 1.368 . S
C1749 C1730 1.429 . S
C1749 C1743 1.429 . S
C1749 C1750 1.523 . S
C1750 C1731 1.368 . S
C1750 C1744 1.368 . S
C1750 C1749 1.523 . S
C1751 C1735 1.429 . S
C1751 C1747 1.429 . S
C1751 C1752 1.523 . S
C1752 C1736 1.368 . S
C1752 C1748 1.368 . S
C1752 C1751 1.523 . S
H1753 C1728 0.950 . S
H1754 C1730 0.950 . S
H1755 C1731 0.949 . S
H1756 C1733 0.950 . S
H1757 C1735 0.950 . S
C1758 C1759 1.349 . S
C1758 C1760 1.327 . S
C1758 H1783 0.950 . S
C1759 C1758 1.349 . S
C1759 C1775 1.349 . S
C1760 C1758 1.327 . S
C1760 C1779 1.429 . S
C1760 H1784 0.950 . S
C1761 C1778 1.574 . S
C1761 C1780 1.368 . S
C1761 H1785 0.949 . S
H1762 C1766 0.949 . S
C1763 C1764 1.349 . S
C1763 C1765 1.327 . S
C1763 H1786 0.950 . S
C1764 C1763 1.349 . S
C1764 C1776 1.349 . S
C1765 C1763 1.327 . S
C1765 C1781 1.429 . S
C1765 H1787 0.950 . S
C1766 H1762 0.949 . S
C1766 C1774 1.574 . S
C1766 C1782 1.368 . S
H1767 C1775 0.950 . S
H1768 C1773 0.950 . S
H1769 C1774 0.949 . S
H1770 C1776 0.950 . S
H1771 C1777 0.950 . S
H1772 C1778 0.949 . S
C1773 H1768 0.950 . S
C1773 C1775 1.327 . S
C1773 C1779 1.429 . S
C1774 C1766 1.574 . S
C1774 H1769 0.949 . S
C1774 C1780 1.368 . S
C1775 C1759 1.349 . S
C1775 H1767 0.950 . S
C1775 C1773 1.327 . S
C1776 C1764 1.349 . S
C1776 H1770 0.950 . S
C1776 C1777 1.327 . S
C1777 H1771 0.950 . S
C1777 C1776 1.327 . S
C1777 C1781 1.429 . S
C1778 C1761 1.574 . S
C1778 H1772 0.949 . S
C1778 C1782 1.368 . S
C1779 C1760 1.429 . S
C1779 C1773 1.429 . S
C1779 C1780 1.523 . S
C1780 C1761 1.368 . S
C1780 C1774 1.368 . S
C1780 C1779 1.523 . S
C1781 C1765 1.429 . S
C1781 C1777 1.429 . S
C1781 C1782 1.523 . S
C1782 C1766 1.368 . S
C1782 C1778 1.368 . S
C1782 C1781 1.523 . S
H1783 C1758 0.950 . S
H1784 C1760 0.950 . S
H1785 C1761 0.949 . S
H1786 C1763 0.950 . S
H1787 C1765 0.950 . S
C1788 C1789 1.349 . S
C1788 C1790 1.327 . S
C1788 H1813 0.950 . S
C1789 C1788 1.349 . S
C1789 C1805 1.349 . S
C1790 C1788 1.327 . S
C1790 C1809 1.429 . S
C1790 H1814 0.950 . S
C1791 C1808 1.574 . S
C1791 C1810 1.368 . S
C1791 H1815 0.949 . S
H1792 C1796 0.949 . S
C1793 C1794 1.349 . S
C1793 C1795 1.327 . S
C1793 H1816 0.950 . S
C1794 C1793 1.349 . S
C1794 C1806 1.349 . S
C1795 C1793 1.327 . S
C1795 C1811 1.429 . S
C1795 H1817 0.950 . S
C1796 H1792 0.949 . S
C1796 C1804 1.574 . S
C1796 C1812 1.368 . S
H1797 C1805 0.950 . S
H1798 C1803 0.950 . S
H1799 C1804 0.949 . S
H1800 C1806 0.950 . S
H1801 C1807 0.950 . S
H1802 C1808 0.949 . S
C1803 H1798 0.950 . S
C1803 C1805 1.327 . S
C1803 C1809 1.429 . S
C1804 C1796 1.574 . S
C1804 H1799 0.949 . S
C1804 C1810 1.368 . S
C1805 C1789 1.349 . S
C1805 H1797 0.950 . S
C1805 C1803 1.327 . S
C1806 C1794 1.349 . S
C1806 H1800 0.950 . S
C1806 C1807 1.327 . S
C1807 H1801 0.950 . S
C1807 C1806 1.327 . S
C1807 C1811 1.429 . S
C1808 C1791 1.574 . S
C1808 H1802 0.949 . S
C1808 C1812 1.368 . S
C1809 C1790 1.429 . S
C1809 C1803 1.429 . S
C1809 C1810 1.523 . S
C1810 C1791 1.368 . S
C1810 C1804 1.368 . S
C1810 C1809 1.523 . S
C1811 C1795 1.429 . S
C1811 C1807 1.429 . S
C1811 C1812 1.523 . S
C1812 C1796 1.368 . S
C1812 C1808 1.368 . S
C1812 C1811 1.523 . S
H1813 C1788 0.950 . S
H1814 C1790 0.950 . S
H1815 C1791 0.949 . S
H1816 C1793 0.950 . S
H1817 C1795 0.950 . S
C1818 C1819 1.349 . S
C1818 C1820 1.327 . S
C1818 H1843 0.950 . S
C1819 C1818 1.349 . S
C1819 C1835 1.349 . S
C1820 C1818 1.327 . S
C1820 C1839 1.429 . S
C1820 H1844 0.950 . S
C1821 C1838 1.574 . S
C1821 C1840 1.368 . S
C1821 H1845 0.949 . S
H1822 C1826 0.949 . S
C1823 C1824 1.349 . S
C1823 C1825 1.327 . S
C1823 H1846 0.950 . S
C1824 C1823 1.349 . S
C1824 C1836 1.349 . S
C1825 C1823 1.327 . S
C1825 C1841 1.429 . S
C1825 H1847 0.950 . S
C1826 H1822 0.949 . S
C1826 C1834 1.574 . S
C1826 C1842 1.368 . S
H1827 C1835 0.950 . S
H1828 C1833 0.950 . S
H1829 C1834 0.949 . S
H1830 C1836 0.950 . S
H1831 C1837 0.950 . S
H1832 C1838 0.949 . S
C1833 H1828 0.950 . S
C1833 C1835 1.327 . S
C1833 C1839 1.429 . S
C1834 C1826 1.574 . S
C1834 H1829 0.949 . S
C1834 C1840 1.368 . S
C1835 C1819 1.349 . S
C1835 H1827 0.950 . S
C1835 C1833 1.327 . S
C1836 C1824 1.349 . S
C1836 H1830 0.950 . S
C1836 C1837 1.327 . S
C1837 H1831 0.950 . S
C1837 C1836 1.327 . S
C1837 C1841 1.429 . S
C1838 C1821 1.574 . S
C1838 H1832 0.949 . S
C1838 C1842 1.368 . S
C1839 C1820 1.429 . S
C1839 C1833 1.429 . S
C1839 C1840 1.523 . S
C1840 C1821 1.368 . S
C1840 C1834 1.368 . S
C1840 C1839 1.523 . S
C1841 C1825 1.429 . S
C1841 C1837 1.429 . S
C1841 C1842 1.523 . S
C1842 C1826 1.368 . S
C1842 C1838 1.368 . S
C1842 C1841 1.523 . S
H1843 C1818 0.950 . S
H1844 C1820 0.950 . S
H1845 C1821 0.949 . S
H1846 C1823 0.950 . S
H1847 C1825 0.950 . S
C1848 C1849 1.349 . S
C1848 C1850 1.327 . S
C1848 H1873 0.950 . S
C1849 C1848 1.349 . S
C1849 C1865 1.349 . S
C1850 C1848 1.327 . S
C1850 C1869 1.429 . S
C1850 H1874 0.950 . S
C1851 C1868 1.574 . S
C1851 C1870 1.368 . S
C1851 H1875 0.949 . S
H1852 C1856 0.949 . S
C1853 C1854 1.349 . S
C1853 C1855 1.327 . S
C1853 H1876 0.950 . S
C1854 C1853 1.349 . S
C1854 C1866 1.349 . S
C1855 C1853 1.327 . S
C1855 C1871 1.429 . S
C1855 H1877 0.950 . S
C1856 H1852 0.949 . S
C1856 C1864 1.574 . S
C1856 C1872 1.368 . S
H1857 C1865 0.950 . S
H1858 C1863 0.950 . S
H1859 C1864 0.949 . S
H1860 C1866 0.950 . S
H1861 C1867 0.950 . S
H1862 C1868 0.949 . S
C1863 H1858 0.950 . S
C1863 C1865 1.327 . S
C1863 C1869 1.429 . S
C1864 C1856 1.574 . S
C1864 H1859 0.949 . S
C1864 C1870 1.368 . S
C1865 C1849 1.349 . S
C1865 H1857 0.950 . S
C1865 C1863 1.327 . S
C1866 C1854 1.349 . S
C1866 H1860 0.950 . S
C1866 C1867 1.327 . S
C1867 H1861 0.950 . S
C1867 C1866 1.327 . S
C1867 C1871 1.429 . S
C1868 C1851 1.574 . S
C1868 H1862 0.949 . S
C1868 C1872 1.368 . S
C1869 C1850 1.429 . S
C1869 C1863 1.429 . S
C1869 C1870 1.523 . S
C1870 C1851 1.368 . S
C1870 C1864 1.368 . S
C1870 C1869 1.523 . S
C1871 C1855 1.429 . S
C1871 C1867 1.429 . S
C1871 C1872 1.523 . S
C1872 C1856 1.368 . S
C1872 C1868 1.368 . S
C1872 C1871 1.523 . S
H1873 C1848 0.950 . S
H1874 C1850 0.950 . S
H1875 C1851 0.949 . S
H1876 C1853 0.950 . S
H1877 C1855 0.950 . S
C1878 C1879 1.349 . S
C1878 C1880 1.327 . S
C1878 H1903 0.950 . S
C1879 C1878 1.349 . S
C1879 C1895 1.349 . S
C1880 C1878 1.327 . S
C1880 C1899 1.429 . S
C1880 H1904 0.950 . S
C1881 C1898 1.574 . S
C1881 C1900 1.368 . S
C1881 H1905 0.949 . S
H1882 C1886 0.949 . S
C1883 C1884 1.349 . S
C1883 C1885 1.327 . S
C1883 H1906 0.950 . S
C1884 C1883 1.349 . S
C1884 C1896 1.349 . S
C1885 C1883 1.327 . S
C1885 C1901 1.429 . S
C1885 H1907 0.950 . S
C1886 H1882 0.949 . S
C1886 C1894 1.574 . S
C1886 C1902 1.368 . S
H1887 C1895 0.950 . S
H1888 C1893 0.950 . S
H1889 C1894 0.949 . S
H1890 C1896 0.950 . S
H1891 C1897 0.950 . S
H1892 C1898 0.949 . S
C1893 H1888 0.950 . S
C1893 C1895 1.327 . S
C1893 C1899 1.429 . S
C1894 C1886 1.574 . S
C1894 H1889 0.949 . S
C1894 C1900 1.368 . S
C1895 C1879 1.349 . S
C1895 H1887 0.950 . S
C1895 C1893 1.327 . S
C1896 C1884 1.349 . S
C1896 H1890 0.950 . S
C1896 C1897 1.327 . S
C1897 H1891 0.950 . S
C1897 C1896 1.327 . S
C1897 C1901 1.429 . S
C1898 C1881 1.574 . S
C1898 H1892 0.949 . S
C1898 C1902 1.368 . S
C1899 C1880 1.429 . S
C1899 C1893 1.429 . S
C1899 C1900 1.523 . S
C1900 C1881 1.368 . S
C1900 C1894 1.368 . S
C1900 C1899 1.523 . S
C1901 C1885 1.429 . S
C1901 C1897 1.429 . S
C1901 C1902 1.523 . S
C1902 C1886 1.368 . S
C1902 C1898 1.368 . S
C1902 C1901 1.523 . S
H1903 C1878 0.950 . S
H1904 C1880 0.950 . S
H1905 C1881 0.949 . S
H1906 C1883 0.950 . S
H1907 C1885 0.950 . S
C1908 C1909 1.349 . S
C1908 C1910 1.327 . S
C1908 H1933 0.950 . S
C1909 C1908 1.349 . S
C1909 C1925 1.349 . S
C1910 C1908 1.327 . S
C1910 C1929 1.429 . S
C1910 H1934 0.950 . S
C1911 C1928 1.574 . S
C1911 C1930 1.368 . S
C1911 H1935 0.949 . S
H1912 C1916 0.949 . S
C1913 C1914 1.349 . S
C1913 C1915 1.327 . S
C1913 H1936 0.950 . S
C1914 C1913 1.349 . S
C1914 C1926 1.349 1_554 S
C1915 C1913 1.327 . S
C1915 C1931 1.429 1_554 S
C1915 H1937 0.950 . S
C1916 H1912 0.949 . S
C1916 C1924 1.574 . S
C1916 C1932 1.368 . S
H1917 C1925 0.950 . S
H1918 C1923 0.950 . S
H1919 C1924 0.949 . S
H1920 C1926 0.950 . S
H1921 C1927 0.950 . S
H1922 C1928 0.949 . S
C1923 H1918 0.950 . S
C1923 C1925 1.327 . S
C1923 C1929 1.429 . S
C1924 C1916 1.574 . S
C1924 H1919 0.949 . S
C1924 C1930 1.368 . S
C1925 C1909 1.349 . S
C1925 H1917 0.950 . S
C1925 C1923 1.327 . S
C1926 C1914 1.349 1_556 S
C1926 H1920 0.950 . S
C1926 C1927 1.327 . S
C1927 H1921 0.950 . S
C1927 C1926 1.327 . S
C1927 C1931 1.429 . S
C1928 C1911 1.574 . S
C1928 H1922 0.949 . S
C1928 C1932 1.368 . S
C1929 C1910 1.429 . S
C1929 C1923 1.429 . S
C1929 C1930 1.523 . S
C1930 C1911 1.368 . S
C1930 C1924 1.368 . S
C1930 C1929 1.523 . S
C1931 C1915 1.429 1_556 S
C1931 C1927 1.429 . S
C1931 C1932 1.523 . S
C1932 C1916 1.368 . S
C1932 C1928 1.368 . S
C1932 C1931 1.523 . S
H1933 C1908 0.950 . S
H1934 C1910 0.950 . S
H1935 C1911 0.949 . S
H1936 C1913 0.950 . S
H1937 C1915 0.950 . S
C1938 C1939 1.349 1_556 S
C1938 C1940 1.327 . S
C1938 H1963 0.950 . S
C1939 C1938 1.349 1_554 S
C1939 C1955 1.349 . S
C1940 C1938 1.327 . S
C1940 C1959 1.429 . S
C1940 H1964 0.950 . S
C1941 C1958 1.574 . S
C1941 C1960 1.368 . S
C1941 H1965 0.949 . S
H1942 C1946 0.949 . S
C1943 C1944 1.349 . S
C1943 C1945 1.327 . S
C1943 H1966 0.950 . S
C1944 C1943 1.349 . S
C1944 C1956 1.349 . S
C1945 C1943 1.327 . S
C1945 C1961 1.429 . S
C1945 H1967 0.950 . S
C1946 H1942 0.949 . S
C1946 C1954 1.574 . S
C1946 C1962 1.368 . S
H1947 C1955 0.950 . S
H1948 C1953 0.950 . S
H1949 C1954 0.949 . S
H1950 C1956 0.950 . S
H1951 C1957 0.950 . S
H1952 C1958 0.949 . S
C1953 H1948 0.950 . S
C1953 C1955 1.327 . S
C1953 C1959 1.429 1_554 S
C1954 C1946 1.574 . S
C1954 H1949 0.949 . S
C1954 C1960 1.368 . S
C1955 C1939 1.349 . S
C1955 H1947 0.950 . S
C1955 C1953 1.327 . S
C1956 C1944 1.349 . S
C1956 H1950 0.950 . S
C1956 C1957 1.327 . S
C1957 H1951 0.950 . S
C1957 C1956 1.327 . S
C1957 C1961 1.429 . S
C1958 C1941 1.574 . S
C1958 H1952 0.949 . S
C1958 C1962 1.368 . S
C1959 C1940 1.429 . S
C1959 C1953 1.429 1_556 S
C1959 C1960 1.523 . S
C1960 C1941 1.368 . S
C1960 C1954 1.368 . S
C1960 C1959 1.523 . S
C1961 C1945 1.429 . S
C1961 C1957 1.429 . S
C1961 C1962 1.523 . S
C1962 C1946 1.368 . S
C1962 C1958 1.368 . S
C1962 C1961 1.523 . S
H1963 C1938 0.950 . S
H1964 C1940 0.950 . S
H1965 C1941 0.949 . S
H1966 C1943 0.950 . S
H1967 C1945 0.950 . S
C1968 C1969 1.349 . S
C1968 C1970 1.327 . S
C1968 H1993 0.950 . S
C1969 C1968 1.349 . S
C1969 C1985 1.349 . S
C1970 C1968 1.327 . S
C1970 C1989 1.429 . S
C1970 H1994 0.950 . S
C1971 C1988 1.574 . S
C1971 C1990 1.368 . S
C1971 H1995 0.949 . S
H1972 C1976 0.949 . S
C1973 C1974 1.349 1_556 S
C1973 C1975 1.327 . S
C1973 H1996 0.950 . S
C1974 C1973 1.349 1_554 S
C1974 C1986 1.349 . S
C1975 C1973 1.327 . S
C1975 C1991 1.429 . S
C1975 H1997 0.950 . S
C1976 H1972 0.949 . S
C1976 C1984 1.574 . S
C1976 C1992 1.368 . S
H1977 C1985 0.950 . S
H1978 C1983 0.950 . S
H1979 C1984 0.949 . S
H1980 C1986 0.950 . S
H1981 C1987 0.950 1_554 S
H1982 C1988 0.949 . S
C1983 H1978 0.950 . S
C1983 C1985 1.327 . S
C1983 C1989 1.429 . S
C1984 C1976 1.574 . S
C1984 H1979 0.949 . S
C1984 C1990 1.368 . S
C1985 C1969 1.349 . S
C1985 H1977 0.950 . S
C1985 C1983 1.327 . S
C1986 C1974 1.349 . S
C1986 H1980 0.950 . S
C1986 C1987 1.327 1_554 S
C1987 H1981 0.950 1_556 S
C1987 C1986 1.327 1_556 S
C1987 C1991 1.429 . S
C1988 C1971 1.574 . S
C1988 H1982 0.949 . S
C1988 C1992 1.368 . S
C1989 C1970 1.429 . S
C1989 C1983 1.429 . S
C1989 C1990 1.523 . S
C1990 C1971 1.368 . S
C1990 C1984 1.368 . S
C1990 C1989 1.523 . S
C1991 C1975 1.429 . S
C1991 C1987 1.429 . S
C1991 C1992 1.523 . S
C1992 C1976 1.368 . S
C1992 C1988 1.368 . S
C1992 C1991 1.523 . S
H1993 C1968 0.950 . S
H1994 C1970 0.950 . S
H1995 C1971 0.949 . S
H1996 C1973 0.950 . S
H1997 C1975 0.950 . S
C1998 C1999 1.349 . S
C1998 C2000 1.327 . S
C1998 H2023 0.950 . S
C1999 C1998 1.349 . S
C1999 C2015 1.349 . S
C2000 C1998 1.327 . S
C2000 C2019 1.429 . S
C2000 H2024 0.950 . S
C2001 C2018 1.574 . S
C2001 C2020 1.368 . S
C2001 H2025 0.949 . S
H2002 C2006 0.949 . S
C2003 C2004 1.349 . S
C2003 C2005 1.327 . S
C2003 H2026 0.950 . S
C2004 C2003 1.349 . S
C2004 C2016 1.349 . S
C2005 C2003 1.327 . S
C2005 C2021 1.429 . S
C2005 H2027 0.950 . S
C2006 H2002 0.949 . S
C2006 C2014 1.574 . S
C2006 C2022 1.368 . S
H2007 C2015 0.950 . S
H2008 C2013 0.950 . S
H2009 C2014 0.949 . S
H2010 C2016 0.950 . S
H2011 C2017 0.950 . S
H2012 C2018 0.949 1_554 S
C2013 H2008 0.950 . S
C2013 C2015 1.327 . S
C2013 C2019 1.429 . S
C2014 C2006 1.574 . S
C2014 H2009 0.949 . S
C2014 C2020 1.368 . S
C2015 C1999 1.349 . S
C2015 H2007 0.950 . S
C2015 C2013 1.327 . S
C2016 C2004 1.349 . S
C2016 H2010 0.950 . S
C2016 C2017 1.327 . S
C2017 H2011 0.950 . S
C2017 C2016 1.327 . S
C2017 C2021 1.429 . S
C2018 C2001 1.574 . S
C2018 H2012 0.949 1_556 S
C2018 C2022 1.368 . S
C2019 C2000 1.429 . S
C2019 C2013 1.429 . S
C2019 C2020 1.523 . S
C2020 C2001 1.368 . S
C2020 C2014 1.368 . S
C2020 C2019 1.523 . S
C2021 C2005 1.429 . S
C2021 C2017 1.429 . S
C2021 C2022 1.523 1_554 S
C2022 C2006 1.368 . S
C2022 C2018 1.368 . S
C2022 C2021 1.523 1_556 S
H2023 C1998 0.950 . S
H2024 C2000 0.950 . S
H2025 C2001 0.949 . S
H2026 C2003 0.950 . S
H2027 C2005 0.950 . S
C2028 C2029 1.349 . S
C2028 C2030 1.327 . S
C2028 H2053 0.950 . S
C2029 C2028 1.349 . S
C2029 C2045 1.349 . S
C2030 C2028 1.327 . S
C2030 C2049 1.429 . S
C2030 H2054 0.950 . S
C2031 C2048 1.574 . S
C2031 C2050 1.368 . S
C2031 H2055 0.949 . S
H2032 C2036 0.949 . S
C2033 C2034 1.349 . S
C2033 C2035 1.327 . S
C2033 H2056 0.950 . S
C2034 C2033 1.349 . S
C2034 C2046 1.349 . S
C2035 C2033 1.327 . S
C2035 C2051 1.429 . S
C2035 H2057 0.950 1_554 S
C2036 H2032 0.949 . S
C2036 C2044 1.574 1_554 S
C2036 C2052 1.368 1_554 S
H2037 C2045 0.950 . S
H2038 C2043 0.950 . S
H2039 C2044 0.949 . S
H2040 C2046 0.950 . S
H2041 C2047 0.950 . S
H2042 C2048 0.949 . S
C2043 H2038 0.950 . S
C2043 C2045 1.327 . S
C2043 C2049 1.429 . S
C2044 C2036 1.574 1_556 S
C2044 H2039 0.949 . S
C2044 C2050 1.368 . S
C2045 C2029 1.349 . S
C2045 H2037 0.950 . S
C2045 C2043 1.327 . S
C2046 C2034 1.349 . S
C2046 H2040 0.950 . S
C2046 C2047 1.327 . S
C2047 H2041 0.950 . S
C2047 C2046 1.327 . S
C2047 C2051 1.429 . S
C2048 C2031 1.574 . S
C2048 H2042 0.949 . S
C2048 C2052 1.368 . S
C2049 C2030 1.429 . S
C2049 C2043 1.429 . S
C2049 C2050 1.523 . S
C2050 C2031 1.368 . S
C2050 C2044 1.368 . S
C2050 C2049 1.523 . S
C2051 C2035 1.429 . S
C2051 C2047 1.429 . S
C2051 C2052 1.523 1_554 S
C2052 C2036 1.368 1_556 S
C2052 C2048 1.368 . S
C2052 C2051 1.523 1_556 S
H2053 C2028 0.950 . S
H2054 C2030 0.950 . S
H2055 C2031 0.949 . S
H2056 C2033 0.950 . S
H2057 C2035 0.950 1_556 S
C2058 C2059 1.349 . S
C2058 C2060 1.327 . S
C2058 H2083 0.950 . S
C2059 C2058 1.349 . S
C2059 C2075 1.349 . S
C2060 C2058 1.327 . S
C2060 C2079 1.429 . S
C2060 H2084 0.950 . S
C2061 C2078 1.574 1_556 S
C2061 C2080 1.368 . S
C2061 H2085 0.949 . S
H2062 C2066 0.949 . S
C2063 C2064 1.349 . S
C2063 C2065 1.327 . S
C2063 H2086 0.950 . S
C2064 C2063 1.349 . S
C2064 C2076 1.349 . S
C2065 C2063 1.327 . S
C2065 C2081 1.429 . S
C2065 H2087 0.950 . S
C2066 H2062 0.949 . S
C2066 C2074 1.574 . S
C2066 C2082 1.368 . S
H2067 C2075 0.950 . S
H2068 C2073 0.950 . S
H2069 C2074 0.949 . S
H2070 C2076 0.950 . S
H2071 C2077 0.950 1_556 S
H2072 C2078 0.949 . S
C2073 H2068 0.950 . S
C2073 C2075 1.327 . S
C2073 C2079 1.429 . S
C2074 C2066 1.574 . S
C2074 H2069 0.949 . S
C2074 C2080 1.368 . S
C2075 C2059 1.349 . S
C2075 H2067 0.950 . S
C2075 C2073 1.327 . S
C2076 C2064 1.349 . S
C2076 H2070 0.950 . S
C2076 C2077 1.327 . S
C2077 H2071 0.950 1_554 S
C2077 C2076 1.327 . S
C2077 C2081 1.429 . S
C2078 C2061 1.574 1_554 S
C2078 H2072 0.949 . S
C2078 C2082 1.368 1_554 S
C2079 C2060 1.429 . S
C2079 C2073 1.429 . S
C2079 C2080 1.523 . S
C2080 C2061 1.368 . S
C2080 C2074 1.368 . S
C2080 C2079 1.523 . S
C2081 C2065 1.429 . S
C2081 C2077 1.429 . S
C2081 C2082 1.523 1_554 S
C2082 C2066 1.368 . S
C2082 C2078 1.368 1_556 S
C2082 C2081 1.523 1_556 S
H2083 C2058 0.950 . S
H2084 C2060 0.950 . S
H2085 C2061 0.949 . S
H2086 C2063 0.950 . S
H2087 C2065 0.950 . S
C2088 C2089 1.349 . S
C2088 C2090 1.327 . S
C2088 H2113 0.950 . S
C2089 C2088 1.349 . S
C2089 C2105 1.349 . S
C2090 C2088 1.327 . S
C2090 C2109 1.429 . S
C2090 H2114 0.950 . S
C2091 C2108 1.574 . S
C2091 C2110 1.368 . S
C2091 H2115 0.949 . S
H2092 C2096 0.949 . S
C2093 C2094 1.349 . S
C2093 C2095 1.327 . S
C2093 H2116 0.950 . S
C2094 C2093 1.349 . S
C2094 C2106 1.349 1_554 S
C2095 C2093 1.327 . S
C2095 C2111 1.429 1_554 S
C2095 H2117 0.950 . S
C2096 H2092 0.949 . S
C2096 C2104 1.574 . S
C2096 C2112 1.368 . S
H2097 C2105 0.950 . S
H2098 C2103 0.950 . S
H2099 C2104 0.949 . S
H2100 C2106 0.950 . S
H2101 C2107 0.950 . S
H2102 C2108 0.949 1_554 S
C2103 H2098 0.950 . S
C2103 C2105 1.327 . S
C2103 C2109 1.429 . S
C2104 C2096 1.574 . S
C2104 H2099 0.949 . S
C2104 C2110 1.368 . S
C2105 C2089 1.349 . S
C2105 H2097 0.950 . S
C2105 C2103 1.327 . S
C2106 C2094 1.349 1_556 S
C2106 H2100 0.950 . S
C2106 C2107 1.327 . S
C2107 H2101 0.950 . S
C2107 C2106 1.327 . S
C2107 C2111 1.429 . S
C2108 C2091 1.574 . S
C2108 H2102 0.949 1_556 S
C2108 C2112 1.368 . S
C2109 C2090 1.429 . S
C2109 C2103 1.429 . S
C2109 C2110 1.523 . S
C2110 C2091 1.368 . S
C2110 C2104 1.368 . S
C2110 C2109 1.523 . S
C2111 C2095 1.429 1_556 S
C2111 C2107 1.429 . S
C2111 C2112 1.523 . S
C2112 C2096 1.368 . S
C2112 C2108 1.368 . S
C2112 C2111 1.523 . S
H2113 C2088 0.950 . S
H2114 C2090 0.950 . S
H2115 C2091 0.949 . S
H2116 C2093 0.950 . S
H2117 C2095 0.950 . S
C2118 C2119 1.349 1_556 S
C2118 C2120 1.327 . S
C2118 H2143 0.950 . S
C2119 C2118 1.349 1_554 S
C2119 C2135 1.349 . S
C2120 C2118 1.327 . S
C2120 C2139 1.429 . S
C2120 H2144 0.950 . S
C2121 C2138 1.574 . S
C2121 C2140 1.368 . S
C2121 H2145 0.949 1_556 S
H2122 C2126 0.949 . S
C2123 C2124 1.349 . S
C2123 C2125 1.327 . S
C2123 H2146 0.950 . S
C2124 C2123 1.349 . S
C2124 C2136 1.349 . S
C2125 C2123 1.327 . S
C2125 C2141 1.429 . S
C2125 H2147 0.950 . S
C2126 H2122 0.949 . S
C2126 C2134 1.574 . S
C2126 C2142 1.368 . S
H2127 C2135 0.950 . S
H2128 C2133 0.950 . S
H2129 C2134 0.949 . S
H2130 C2136 0.950 . S
H2131 C2137 0.950 . S
H2132 C2138 0.949 . S
C2133 H2128 0.950 . S
C2133 C2135 1.327 . S
C2133 C2139 1.429 1_554 S
C2134 C2126 1.574 . S
C2134 H2129 0.949 . S
C2134 C2140 1.368 . S
C2135 C2119 1.349 . S
C2135 H2127 0.950 . S
C2135 C2133 1.327 . S
C2136 C2124 1.349 . S
C2136 H2130 0.950 . S
C2136 C2137 1.327 . S
C2137 H2131 0.950 . S
C2137 C2136 1.327 . S
C2137 C2141 1.429 . S
C2138 C2121 1.574 . S
C2138 H2132 0.949 . S
C2138 C2142 1.368 . S
C2139 C2120 1.429 . S
C2139 C2133 1.429 1_556 S
C2139 C2140 1.523 . S
C2140 C2121 1.368 . S
C2140 C2134 1.368 . S
C2140 C2139 1.523 . S
C2141 C2125 1.429 . S
C2141 C2137 1.429 . S
C2141 C2142 1.523 . S
C2142 C2126 1.368 . S
C2142 C2138 1.368 . S
C2142 C2141 1.523 . S
H2143 C2118 0.950 . S
H2144 C2120 0.950 . S
H2145 C2121 0.949 1_554 S
H2146 C2123 0.950 . S
H2147 C2125 0.950 . S
C2148 C2149 1.349 . S
C2148 C2150 1.327 . S
C2148 H2173 0.950 . S
C2149 C2148 1.349 . S
C2149 C2165 1.349 . S
C2150 C2148 1.327 . S
C2150 C2169 1.429 . S
C2150 H2174 0.950 . S
C2151 C2168 1.574 . S
C2151 C2170 1.368 . S
C2151 H2175 0.949 . S
H2152 C2156 0.949 . S
C2153 C2154 1.349 . S
C2153 C2155 1.327 . S
C2153 H2176 0.950 . S
C2154 C2153 1.349 . S
C2154 C2166 1.349 1_554 S
C2155 C2153 1.327 . S
C2155 C2171 1.429 1_554 S
C2155 H2177 0.950 . S
C2156 H2152 0.949 . S
C2156 C2164 1.574 . S
C2156 C2172 1.368 . S
H2157 C2165 0.950 . S
H2158 C2163 0.950 . S
H2159 C2164 0.949 . S
H2160 C2166 0.950 . S
H2161 C2167 0.950 . S
H2162 C2168 0.949 . S
C2163 H2158 0.950 . S
C2163 C2165 1.327 . S
C2163 C2169 1.429 . S
C2164 C2156 1.574 . S
C2164 H2159 0.949 . S
C2164 C2170 1.368 . S
C2165 C2149 1.349 . S
C2165 H2157 0.950 . S
C2165 C2163 1.327 . S
C2166 C2154 1.349 1_556 S
C2166 H2160 0.950 . S
C2166 C2167 1.327 . S
C2167 H2161 0.950 . S
C2167 C2166 1.327 . S
C2167 C2171 1.429 . S
C2168 C2151 1.574 . S
C2168 H2162 0.949 . S
C2168 C2172 1.368 . S
C2169 C2150 1.429 . S
C2169 C2163 1.429 . S
C2169 C2170 1.523 . S
C2170 C2151 1.368 . S
C2170 C2164 1.368 . S
C2170 C2169 1.523 . S
C2171 C2155 1.429 1_556 S
C2171 C2167 1.429 . S
C2171 C2172 1.523 . S
C2172 C2156 1.368 . S
C2172 C2168 1.368 . S
C2172 C2171 1.523 . S
H2173 C2148 0.950 . S
H2174 C2150 0.950 . S
H2175 C2151 0.949 . S
H2176 C2153 0.950 . S
H2177 C2155 0.950 . S
C2178 C2179 1.349 . S
C2178 C2180 1.327 . S
C2178 H2203 0.950 . S
C2179 C2178 1.349 . S
C2179 C2195 1.349 . S
C2180 C2178 1.327 . S
C2180 C2199 1.429 . S
C2180 H2204 0.950 . S
C2181 C2198 1.574 . S
C2181 C2200 1.368 . S
C2181 H2205 0.949 . S
H2182 C2186 0.949 . S
C2183 C2184 1.349 . S
C2183 C2185 1.327 . S
C2183 H2206 0.950 . S
C2184 C2183 1.349 . S
C2184 C2196 1.349 . S
C2185 C2183 1.327 . S
C2185 C2201 1.429 . S
C2185 H2207 0.950 . S
C2186 H2182 0.949 . S
C2186 C2194 1.574 . S
C2186 C2202 1.368 . S
H2187 C2195 0.950 . S
H2188 C2193 0.950 . S
H2189 C2194 0.949 . S
H2190 C2196 0.950 . S
H2191 C2197 0.950 . S
H2192 C2198 0.949 . S
C2193 H2188 0.950 . S
C2193 C2195 1.327 . S
C2193 C2199 1.429 . S
C2194 C2186 1.574 . S
C2194 H2189 0.949 . S
C2194 C2200 1.368 . S
C2195 C2179 1.349 . S
C2195 H2187 0.950 . S
C2195 C2193 1.327 . S
C2196 C2184 1.349 . S
C2196 H2190 0.950 . S
C2196 C2197 1.327 . S
C2197 H2191 0.950 . S
C2197 C2196 1.327 . S
C2197 C2201 1.429 . S
C2198 C2181 1.574 . S
C2198 H2192 0.949 . S
C2198 C2202 1.368 . S
C2199 C2180 1.429 . S
C2199 C2193 1.429 . S
C2199 C2200 1.523 . S
C2200 C2181 1.368 . S
C2200 C2194 1.368 . S
C2200 C2199 1.523 . S
C2201 C2185 1.429 . S
C2201 C2197 1.429 . S
C2201 C2202 1.523 . S
C2202 C2186 1.368 . S
C2202 C2198 1.368 . S
C2202 C2201 1.523 . S
H2203 C2178 0.950 . S
H2204 C2180 0.950 . S
H2205 C2181 0.949 . S
H2206 C2183 0.950 . S
H2207 C2185 0.950 . S
C2208 C2209 1.349 . S
C2208 C2210 1.327 . S
C2208 H2233 0.950 . S
C2209 C2208 1.349 . S
C2209 C2225 1.349 . S
C2210 C2208 1.327 . S
C2210 C2229 1.429 . S
C2210 H2234 0.950 . S
C2211 C2228 1.574 . S
C2211 C2230 1.368 . S
C2211 H2235 0.949 . S
H2212 C2216 0.949 . S
C2213 C2214 1.349 . S
C2213 C2215 1.327 . S
C2213 H2236 0.950 . S
C2214 C2213 1.349 . S
C2214 C2226 1.349 . S
C2215 C2213 1.327 . S
C2215 C2231 1.429 . S
C2215 H2237 0.950 . S
C2216 H2212 0.949 . S
C2216 C2224 1.574 . S
C2216 C2232 1.368 . S
H2217 C2225 0.950 . S
H2218 C2223 0.950 . S
H2219 C2224 0.949 . S
H2220 C2226 0.950 . S
H2221 C2227 0.950 . S
H2222 C2228 0.949 . S
C2223 H2218 0.950 . S
C2223 C2225 1.327 . S
C2223 C2229 1.429 . S
C2224 C2216 1.574 . S
C2224 H2219 0.949 . S
C2224 C2230 1.368 . S
C2225 C2209 1.349 . S
C2225 H2217 0.950 . S
C2225 C2223 1.327 . S
C2226 C2214 1.349 . S
C2226 H2220 0.950 . S
C2226 C2227 1.327 . S
C2227 H2221 0.950 . S
C2227 C2226 1.327 . S
C2227 C2231 1.429 . S
C2228 C2211 1.574 . S
C2228 H2222 0.949 . S
C2228 C2232 1.368 . S
C2229 C2210 1.429 . S
C2229 C2223 1.429 . S
C2229 C2230 1.523 . S
C2230 C2211 1.368 . S
C2230 C2224 1.368 . S
C2230 C2229 1.523 . S
C2231 C2215 1.429 . S
C2231 C2227 1.429 . S
C2231 C2232 1.523 . S
C2232 C2216 1.368 . S
C2232 C2228 1.368 . S
C2232 C2231 1.523 . S
H2233 C2208 0.950 . S
H2234 C2210 0.950 . S
H2235 C2211 0.949 . S
H2236 C2213 0.950 . S
H2237 C2215 0.950 . S
C2238 C2239 1.349 . S
C2238 C2240 1.327 . S
C2238 H2263 0.950 . S
C2239 C2238 1.349 . S
C2239 C2255 1.349 . S
C2240 C2238 1.327 . S
C2240 C2259 1.429 . S
C2240 H2264 0.950 . S
C2241 C2258 1.574 . S
C2241 C2260 1.368 . S
C2241 H2265 0.949 . S
H2242 C2246 0.949 . S
C2243 C2244 1.349 . S
C2243 C2245 1.327 . S
C2243 H2266 0.950 . S
C2244 C2243 1.349 . S
C2244 C2256 1.349 . S
C2245 C2243 1.327 . S
C2245 C2261 1.429 . S
C2245 H2267 0.950 . S
C2246 H2242 0.949 . S
C2246 C2254 1.574 . S
C2246 C2262 1.368 . S
H2247 C2255 0.950 . S
H2248 C2253 0.950 . S
H2249 C2254 0.949 . S
H2250 C2256 0.950 . S
H2251 C2257 0.950 . S
H2252 C2258 0.949 . S
C2253 H2248 0.950 . S
C2253 C2255 1.327 . S
C2253 C2259 1.429 . S
C2254 C2246 1.574 . S
C2254 H2249 0.949 . S
C2254 C2260 1.368 . S
C2255 C2239 1.349 . S
C2255 H2247 0.950 . S
C2255 C2253 1.327 . S
C2256 C2244 1.349 . S
C2256 H2250 0.950 . S
C2256 C2257 1.327 . S
C2257 H2251 0.950 . S
C2257 C2256 1.327 . S
C2257 C2261 1.429 . S
C2258 C2241 1.574 . S
C2258 H2252 0.949 . S
C2258 C2262 1.368 . S
C2259 C2240 1.429 . S
C2259 C2253 1.429 . S
C2259 C2260 1.523 . S
C2260 C2241 1.368 . S
C2260 C2254 1.368 . S
C2260 C2259 1.523 . S
C2261 C2245 1.429 . S
C2261 C2257 1.429 . S
C2261 C2262 1.523 . S
C2262 C2246 1.368 . S
C2262 C2258 1.368 . S
C2262 C2261 1.523 . S
H2263 C2238 0.950 . S
H2264 C2240 0.950 . S
H2265 C2241 0.949 . S
H2266 C2243 0.950 . S
H2267 C2245 0.950 . S
C2268 C2269 1.349 1_554 S
C2268 C2270 1.327 . S
C2268 H2293 0.950 . S
C2269 C2268 1.349 1_556 S
C2269 C2285 1.349 . S
C2270 C2268 1.327 . S
C2270 C2289 1.429 . S
C2270 H2294 0.950 . S
C2271 C2288 1.574 . S
C2271 C2290 1.368 . S
C2271 H2295 0.949 . S
H2272 C2276 0.949 . S
C2273 C2274 1.349 . S
C2273 C2275 1.327 . S
C2273 H2296 0.950 . S
C2274 C2273 1.349 . S
C2274 C2286 1.349 . S
C2275 C2273 1.327 . S
C2275 C2291 1.429 . S
C2275 H2297 0.950 . S
C2276 H2272 0.949 . S
C2276 C2284 1.574 . S
C2276 C2292 1.368 . S
H2277 C2285 0.950 . S
H2278 C2283 0.950 . S
H2279 C2284 0.949 . S
H2280 C2286 0.950 . S
H2281 C2287 0.950 . S
H2282 C2288 0.949 . S
C2283 H2278 0.950 . S
C2283 C2285 1.327 1_554 S
C2283 C2289 1.429 . S
C2284 C2276 1.574 . S
C2284 H2279 0.949 . S
C2284 C2290 1.368 . S
C2285 C2269 1.349 . S
C2285 H2277 0.950 . S
C2285 C2283 1.327 1_556 S
C2286 C2274 1.349 . S
C2286 H2280 0.950 . S
C2286 C2287 1.327 . S
C2287 H2281 0.950 . S
C2287 C2286 1.327 . S
C2287 C2291 1.429 . S
C2288 C2271 1.574 . S
C2288 H2282 0.949 . S
C2288 C2292 1.368 . S
C2289 C2270 1.429 . S
C2289 C2283 1.429 . S
C2289 C2290 1.523 . S
C2290 C2271 1.368 . S
C2290 C2284 1.368 . S
C2290 C2289 1.523 . S
C2291 C2275 1.429 . S
C2291 C2287 1.429 . S
C2291 C2292 1.523 . S
C2292 C2276 1.368 . S
C2292 C2288 1.368 . S
C2292 C2291 1.523 . S
H2293 C2268 0.950 . S
H2294 C2270 0.950 . S
H2295 C2271 0.949 . S
H2296 C2273 0.950 . S
H2297 C2275 0.950 . S
C2298 C2299 1.349 . S
C2298 C2300 1.327 . S
C2298 H2323 0.950 . S
C2299 C2298 1.349 . S
C2299 C2315 1.349 . S
C2300 C2298 1.327 . S
C2300 C2319 1.429 . S
C2300 H2324 0.950 . S
C2301 C2318 1.574 . S
C2301 C2320 1.368 . S
C2301 H2325 0.949 . S
H2302 C2306 0.949 . S
C2303 C2304 1.349 . S
C2303 C2305 1.327 . S
C2303 H2326 0.950 . S
C2304 C2303 1.349 . S
C2304 C2316 1.349 1_556 S
C2305 C2303 1.327 . S
C2305 C2321 1.429 1_556 S
C2305 H2327 0.950 . S
C2306 H2302 0.949 . S
C2306 C2314 1.574 . S
C2306 C2322 1.368 . S
H2307 C2315 0.950 . S
H2308 C2313 0.950 . S
H2309 C2314 0.949 . S
H2310 C2316 0.950 . S
H2311 C2317 0.950 . S
H2312 C2318 0.933 1_556 S
C2313 H2308 0.950 . S
C2313 C2315 1.327 . S
C2313 C2319 1.429 . S
C2314 C2306 1.574 . S
C2314 H2309 0.949 . S
C2314 C2320 1.368 . S
C2315 C2299 1.349 . S
C2315 H2307 0.950 . S
C2315 C2313 1.327 . S
C2316 C2304 1.349 1_554 S
C2316 H2310 0.950 . S
C2316 C2317 1.327 . S
C2317 H2311 0.950 . S
C2317 C2316 1.327 . S
C2317 C2321 1.429 . S
C2318 C2301 1.574 . S
C2318 H2312 0.933 1_554 S
C2318 C2322 1.368 . S
C2319 C2300 1.429 . S
C2319 C2313 1.429 . S
C2319 C2320 1.523 . S
C2320 C2301 1.368 . S
C2320 C2314 1.368 . S
C2320 C2319 1.523 . S
C2321 C2305 1.429 1_554 S
C2321 C2317 1.429 . S
C2321 C2322 1.523 . S
C2322 C2306 1.368 . S
C2322 C2318 1.368 . S
C2322 C2321 1.523 . S
H2323 C2298 0.950 . S
H2324 C2300 0.950 . S
H2325 C2301 0.949 . S
H2326 C2303 0.950 . S
H2327 C2305 0.950 . S
C2328 C2329 1.349 . S
C2328 C2330 1.327 . S
C2328 H2353 0.950 . S
C2329 C2328 1.349 . S
C2329 C2345 1.349 . S
C2330 C2328 1.327 . S
C2330 C2349 1.429 . S
C2330 H2354 0.950 . S
C2331 C2348 1.574 . S
C2331 C2350 1.368 . S
C2331 H2355 0.949 . S
H2332 C2336 0.949 . S
C2333 C2334 1.349 1_554 S
C2333 C2335 1.327 . S
C2333 H2356 0.950 . S
C2334 C2333 1.349 1_556 S
C2334 C2346 1.349 . S
C2335 C2333 1.327 . S
C2335 C2351 1.429 . S
C2335 H2357 0.950 . S
C2336 H2332 0.949 . S
C2336 C2344 1.574 . S
C2336 C2352 1.368 . S
H2337 C2345 0.950 . S
H2338 C2343 0.950 . S
H2339 C2344 0.949 . S
H2340 C2346 0.950 . S
H2341 C2347 0.950 . S
H2342 C2348 0.949 . S
C2343 H2338 0.950 . S
C2343 C2345 1.327 . S
C2343 C2349 1.429 . S
C2344 C2336 1.574 . S
C2344 H2339 0.949 . S
C2344 C2350 1.368 . S
C2345 C2329 1.349 . S
C2345 H2337 0.950 . S
C2345 C2343 1.327 . S
C2346 C2334 1.349 . S
C2346 H2340 0.950 . S
C2346 C2347 1.327 . S
C2347 H2341 0.950 . S
C2347 C2346 1.327 . S
C2347 C2351 1.429 1_556 S
C2348 C2331 1.574 . S
C2348 H2342 0.949 . S
C2348 C2352 1.368 . S
C2349 C2330 1.429 . S
C2349 C2343 1.429 . S
C2349 C2350 1.523 . S
C2350 C2331 1.368 . S
C2350 C2344 1.368 . S
C2350 C2349 1.523 . S
C2351 C2335 1.429 . S
C2351 C2347 1.429 1_554 S
C2351 C2352 1.523 . S
C2352 C2336 1.368 . S
C2352 C2348 1.368 . S
C2352 C2351 1.523 . S
H2353 C2328 0.950 . S
H2354 C2330 0.950 . S
H2355 C2331 0.949 . S
H2356 C2333 0.950 . S
H2357 C2335 0.950 . S
C2358 C2359 1.349 . S
C2358 C2360 1.327 . S
C2358 H2383 0.950 . S
C2359 C2358 1.349 . S
C2359 C2375 1.349 . S
C2360 C2358 1.327 . S
C2360 C2379 1.429 . S
C2360 H2384 0.950 . S
C2361 C2378 1.574 . S
C2361 C2380 1.368 . S
C2361 H2385 0.949 . S
H2362 C2366 0.949 . S
C2363 C2364 1.349 . S
C2363 C2365 1.327 . S
C2363 H2386 0.950 . S
C2364 C2363 1.349 . S
C2364 C2376 1.349 . S
C2365 C2363 1.327 . S
C2365 C2381 1.429 . S
C2365 H2387 0.950 . S
C2366 H2362 0.949 . S
C2366 C2374 1.574 . S
C2366 C2382 1.368 . S
H2367 C2375 0.950 . S
H2368 C2373 0.950 . S
H2369 C2374 0.949 . S
H2370 C2376 0.950 . S
H2371 C2377 0.950 . S
H2372 C2378 0.949 . S
C2373 H2368 0.950 . S
C2373 C2375 1.327 . S
C2373 C2379 1.429 . S
C2374 C2366 1.574 . S
C2374 H2369 0.949 . S
C2374 C2380 1.368 . S
C2375 C2359 1.349 . S
C2375 H2367 0.950 . S
C2375 C2373 1.327 . S
C2376 C2364 1.349 . S
C2376 H2370 0.950 . S
C2376 C2377 1.327 . S
C2377 H2371 0.950 . S
C2377 C2376 1.327 . S
C2377 C2381 1.429 . S
C2378 C2361 1.574 . S
C2378 H2372 0.949 . S
C2378 C2382 1.368 . S
C2379 C2360 1.429 . S
C2379 C2373 1.429 . S
C2379 C2380 1.523 . S
C2380 C2361 1.368 . S
C2380 C2374 1.368 . S
C2380 C2379 1.523 . S
C2381 C2365 1.429 . S
C2381 C2377 1.429 . S
C2381 C2382 1.523 . S
C2382 C2366 1.368 . S
C2382 C2378 1.368 . S
C2382 C2381 1.523 . S
H2383 C2358 0.950 . S
H2384 C2360 0.950 . S
H2385 C2361 0.949 . S
H2386 C2363 0.950 . S
H2387 C2365 0.950 . S
C2388 C2389 1.349 . S
C2388 C2390 1.327 . S
C2388 H2413 0.950 . S
C2389 C2388 1.349 . S
C2389 C2405 1.349 . S
C2390 C2388 1.327 . S
C2390 C2409 1.429 . S
C2390 H2414 0.950 . S
C2391 C2408 1.574 . S
C2391 C2410 1.368 . S
C2391 H2415 0.949 . S
H2392 C2396 0.949 . S
C2393 C2394 1.349 . S
C2393 C2395 1.327 . S
C2393 H2416 0.950 . S
C2394 C2393 1.349 . S
C2394 C2406 1.349 . S
C2395 C2393 1.327 . S
C2395 C2411 1.429 . S
C2395 H2417 0.950 . S
C2396 H2392 0.949 . S
C2396 C2404 1.574 . S
C2396 C2412 1.368 . S
H2397 C2405 0.950 . S
H2398 C2403 0.950 . S
H2399 C2404 0.949 . S
H2400 C2406 0.950 . S
H2401 C2407 0.950 . S
H2402 C2408 0.949 . S
C2403 H2398 0.950 . S
C2403 C2405 1.327 . S
C2403 C2409 1.429 . S
C2404 C2396 1.574 . S
C2404 H2399 0.949 . S
C2404 C2410 1.368 . S
C2405 C2389 1.349 . S
C2405 H2397 0.950 . S
C2405 C2403 1.327 . S
C2406 C2394 1.349 . S
C2406 H2400 0.950 . S
C2406 C2407 1.327 . S
C2407 H2401 0.950 . S
C2407 C2406 1.327 . S
C2407 C2411 1.429 . S
C2408 C2391 1.574 . S
C2408 H2402 0.949 . S
C2408 C2412 1.368 . S
C2409 C2390 1.429 . S
C2409 C2403 1.429 . S
C2409 C2410 1.523 . S
C2410 C2391 1.368 . S
C2410 C2404 1.368 . S
C2410 C2409 1.523 . S
C2411 C2395 1.429 . S
C2411 C2407 1.429 . S
C2411 C2412 1.523 . S
C2412 C2396 1.368 . S
C2412 C2408 1.368 . S
C2412 C2411 1.523 . S
H2413 C2388 0.950 . S
H2414 C2390 0.950 . S
H2415 C2391 0.949 . S
H2416 C2393 0.950 . S
H2417 C2395 0.950 . S
C2418 C2419 1.349 . S
C2418 C2420 1.327 . S
C2418 H2443 0.950 . S
C2419 C2418 1.349 . S
C2419 C2435 1.349 . S
C2420 C2418 1.327 . S
C2420 C2439 1.429 . S
C2420 H2444 0.950 . S
C2421 C2438 1.574 . S
C2421 C2440 1.368 . S
C2421 H2445 0.949 . S
H2422 C2426 0.949 . S
C2423 C2424 1.349 . S
C2423 C2425 1.327 . S
C2423 H2446 0.950 . S
C2424 C2423 1.349 . S
C2424 C2436 1.349 . S
C2425 C2423 1.327 . S
C2425 C2441 1.429 . S
C2425 H2447 0.950 . S
C2426 H2422 0.949 . S
C2426 C2434 1.574 . S
C2426 C2442 1.368 . S
H2427 C2435 0.950 . S
H2428 C2433 0.950 . S
H2429 C2434 0.949 . S
H2430 C2436 0.950 . S
H2431 C2437 0.950 . S
H2432 C2438 0.949 . S
C2433 H2428 0.950 . S
C2433 C2435 1.327 . S
C2433 C2439 1.429 . S
C2434 C2426 1.574 . S
C2434 H2429 0.949 . S
C2434 C2440 1.368 . S
C2435 C2419 1.349 . S
C2435 H2427 0.950 . S
C2435 C2433 1.327 . S
C2436 C2424 1.349 . S
C2436 H2430 0.950 . S
C2436 C2437 1.327 . S
C2437 H2431 0.950 . S
C2437 C2436 1.327 . S
C2437 C2441 1.429 . S
C2438 C2421 1.574 . S
C2438 H2432 0.949 . S
C2438 C2442 1.368 . S
C2439 C2420 1.429 . S
C2439 C2433 1.429 . S
C2439 C2440 1.523 . S
C2440 C2421 1.368 . S
C2440 C2434 1.368 . S
C2440 C2439 1.523 . S
C2441 C2425 1.429 . S
C2441 C2437 1.429 . S
C2441 C2442 1.523 . S
C2442 C2426 1.368 . S
C2442 C2438 1.368 . S
C2442 C2441 1.523 . S
H2443 C2418 0.950 . S
H2444 C2420 0.950 . S
H2445 C2421 0.949 . S
H2446 C2423 0.950 . S
H2447 C2425 0.950 . S
C2448 C2449 1.349 . S
C2448 C2450 1.327 . S
C2448 H2473 0.950 . S
C2449 C2448 1.349 . S
C2449 C2465 1.349 . S
C2450 C2448 1.327 . S
C2450 C2469 1.429 . S
C2450 H2474 0.950 . S
C2451 C2468 1.574 1_655 S
C2451 C2470 1.368 . S
C2451 H2475 0.949 . S
H2452 C2456 0.949 . S
C2453 C2454 1.349 . S
C2453 C2455 1.327 . S
C2453 H2476 0.950 . S
C2454 C2453 1.349 . S
C2454 C2466 1.349 . S
C2455 C2453 1.327 . S
C2455 C2471 1.429 . S
C2455 H2477 0.950 . S
C2456 H2452 0.949 . S
C2456 C2464 1.574 1_455 S
C2456 C2472 1.368 . S
H2457 C2465 0.950 . S
H2458 C2463 0.950 . S
H2459 C2464 0.949 . S
H2460 C2466 0.950 . S
H2461 C2467 0.950 . S
H2462 C2468 0.949 . S
C2463 H2458 0.950 . S
C2463 C2465 1.327 . S
C2463 C2469 1.429 . S
C2464 C2456 1.574 1_655 S
C2464 H2459 0.949 . S
C2464 C2470 1.368 . S
C2465 C2449 1.349 . S
C2465 H2457 0.950 . S
C2465 C2463 1.327 . S
C2466 C2454 1.349 . S
C2466 H2460 0.950 . S
C2466 C2467 1.327 . S
C2467 H2461 0.950 . S
C2467 C2466 1.327 . S
C2467 C2471 1.429 . S
C2468 C2451 1.574 1_455 S
C2468 H2462 0.949 . S
C2468 C2472 1.368 . S
C2469 C2450 1.429 . S
C2469 C2463 1.429 . S
C2469 C2470 1.523 . S
C2470 C2451 1.368 . S
C2470 C2464 1.368 . S
C2470 C2469 1.523 . S
C2471 C2455 1.429 . S
C2471 C2467 1.429 . S
C2471 C2472 1.523 . S
C2472 C2456 1.368 . S
C2472 C2468 1.368 . S
C2472 C2471 1.523 . S
H2473 C2448 0.950 . S
H2474 C2450 0.950 . S
H2475 C2451 0.949 . S
H2476 C2453 0.950 . S
H2477 C2455 0.950 . S
C2478 C2479 1.349 . S
C2478 C2480 1.327 . S
C2478 H2503 0.950 . S
C2479 C2478 1.349 . S
C2479 C2495 1.349 . S
C2480 C2478 1.327 . S
C2480 C2499 1.429 . S
C2480 H2504 0.950 . S
C2481 C2498 1.574 . S
C2481 C2500 1.368 . S
C2481 H2505 0.949 . S
H2482 C2486 0.949 . S
C2483 C2484 1.349 . S
C2483 C2485 1.327 . S
C2483 H2506 0.950 . S
C2484 C2483 1.349 . S
C2484 C2496 1.349 . S
C2485 C2483 1.327 . S
C2485 C2501 1.429 . S
C2485 H2507 0.950 . S
C2486 H2482 0.949 . S
C2486 C2494 1.574 . S
C2486 C2502 1.368 . S
H2487 C2495 0.950 . S
H2488 C2493 0.950 . S
H2489 C2494 0.949 . S
H2490 C2496 0.950 . S
H2491 C2497 0.950 . S
H2492 C2498 0.949 . S
C2493 H2488 0.950 . S
C2493 C2495 1.327 . S
C2493 C2499 1.429 . S
C2494 C2486 1.574 . S
C2494 H2489 0.949 . S
C2494 C2500 1.368 . S
C2495 C2479 1.349 . S
C2495 H2487 0.950 . S
C2495 C2493 1.327 . S
C2496 C2484 1.349 . S
C2496 H2490 0.950 . S
C2496 C2497 1.327 . S
C2497 H2491 0.950 . S
C2497 C2496 1.327 . S
C2497 C2501 1.429 . S
C2498 C2481 1.574 . S
C2498 H2492 0.949 . S
C2498 C2502 1.368 . S
C2499 C2480 1.429 . S
C2499 C2493 1.429 . S
C2499 C2500 1.523 . S
C2500 C2481 1.368 . S
C2500 C2494 1.368 . S
C2500 C2499 1.523 . S
C2501 C2485 1.429 . S
C2501 C2497 1.429 . S
C2501 C2502 1.523 . S
C2502 C2486 1.368 . S
C2502 C2498 1.368 . S
C2502 C2501 1.523 . S
H2503 C2478 0.950 . S
H2504 C2480 0.950 . S
H2505 C2481 0.949 . S
H2506 C2483 0.950 . S
H2507 C2485 0.950 . S
C2508 C2509 1.349 . S
C2508 C2510 1.327 . S
C2508 H2533 0.950 . S
C2509 C2508 1.349 . S
C2509 C2525 1.349 . S
C2510 C2508 1.327 . S
C2510 C2529 1.429 . S
C2510 H2534 0.950 . S
C2511 C2528 1.574 1_565 S
C2511 C2530 1.368 . S
C2511 H2535 0.949 . S
H2512 C2516 0.949 . S
C2513 C2514 1.349 . S
C2513 C2515 1.327 . S
C2513 H2536 0.950 . S
C2514 C2513 1.349 . S
C2514 C2526 1.349 . S
C2515 C2513 1.327 . S
C2515 C2531 1.429 . S
C2515 H2537 0.950 . S
C2516 H2512 0.949 . S
C2516 C2524 1.574 1_545 S
C2516 C2532 1.368 . S
H2517 C2525 0.950 . S
H2518 C2523 0.950 . S
H2519 C2524 0.949 . S
H2520 C2526 0.950 . S
H2521 C2527 0.950 . S
H2522 C2528 0.949 . S
C2523 H2518 0.950 . S
C2523 C2525 1.327 . S
C2523 C2529 1.429 . S
C2524 C2516 1.574 1_565 S
C2524 H2519 0.949 . S
C2524 C2530 1.368 . S
C2525 C2509 1.349 . S
C2525 H2517 0.950 . S
C2525 C2523 1.327 . S
C2526 C2514 1.349 . S
C2526 H2520 0.950 . S
C2526 C2527 1.327 . S
C2527 H2521 0.950 . S
C2527 C2526 1.327 . S
C2527 C2531 1.429 . S
C2528 C2511 1.574 1_545 S
C2528 H2522 0.949 . S
C2528 C2532 1.368 . S
C2529 C2510 1.429 . S
C2529 C2523 1.429 . S
C2529 C2530 1.523 . S
C2530 C2511 1.368 . S
C2530 C2524 1.368 . S
C2530 C2529 1.523 . S
C2531 C2515 1.429 . S
C2531 C2527 1.429 . S
C2531 C2532 1.523 . S
C2532 C2516 1.368 . S
C2532 C2528 1.368 . S
C2532 C2531 1.523 . S
H2533 C2508 0.950 . S
H2534 C2510 0.950 . S
H2535 C2511 0.949 . S
H2536 C2513 0.950 . S
H2537 C2515 0.950 . S
C2538 C2539 1.349 . S
C2538 C2540 1.327 . S
C2538 H2563 0.950 . S
C2539 C2538 1.349 . S
C2539 C2555 1.349 . S
C2540 C2538 1.327 . S
C2540 C2559 1.429 . S
C2540 H2564 0.950 . S
C2541 C2558 1.574 1_545 S
C2541 C2560 1.368 . S
C2541 H2565 0.949 . S
H2542 C2546 0.949 . S
C2543 C2544 1.349 . S
C2543 C2545 1.327 . S
C2543 H2566 0.950 . S
C2544 C2543 1.349 . S
C2544 C2556 1.349 . S
C2545 C2543 1.327 . S
C2545 C2561 1.429 . S
C2545 H2567 0.950 . S
C2546 H2542 0.949 . S
C2546 C2554 1.574 1_565 S
C2546 C2562 1.368 . S
H2547 C2555 0.950 . S
H2548 C2553 0.950 . S
H2549 C2554 0.949 . S
H2550 C2556 0.950 . S
H2551 C2557 0.950 . S
H2552 C2558 0.949 . S
C2553 H2548 0.950 . S
C2553 C2555 1.327 . S
C2553 C2559 1.429 . S
C2554 C2546 1.574 1_545 S
C2554 H2549 0.949 . S
C2554 C2560 1.368 . S
C2555 C2539 1.349 . S
C2555 H2547 0.950 . S
C2555 C2553 1.327 . S
C2556 C2544 1.349 . S
C2556 H2550 0.950 . S
C2556 C2557 1.327 . S
C2557 H2551 0.950 . S
C2557 C2556 1.327 . S
C2557 C2561 1.429 . S
C2558 C2541 1.574 1_565 S
C2558 H2552 0.949 . S
C2558 C2562 1.368 . S
C2559 C2540 1.429 . S
C2559 C2553 1.429 . S
C2559 C2560 1.523 . S
C2560 C2541 1.368 . S
C2560 C2554 1.368 . S
C2560 C2559 1.523 . S
C2561 C2545 1.429 . S
C2561 C2557 1.429 . S
C2561 C2562 1.523 . S
C2562 C2546 1.368 . S
C2562 C2558 1.368 . S
C2562 C2561 1.523 . S
H2563 C2538 0.950 . S
H2564 C2540 0.950 . S
H2565 C2541 0.949 . S
H2566 C2543 0.950 . S
H2567 C2545 0.950 . S
C2568 C2569 1.349 . S
C2568 C2570 1.327 . S
C2568 H2593 0.950 . S
C2569 C2568 1.349 . S
C2569 C2585 1.349 . S
C2570 C2568 1.327 . S
C2570 C2589 1.429 . S
C2570 H2594 0.950 . S
C2571 C2588 1.574 1_455 S
C2571 C2590 1.368 . S
C2571 H2595 0.949 . S
H2572 C2576 0.949 . S
C2573 C2574 1.349 . S
C2573 C2575 1.327 . S
C2573 H2596 0.950 . S
C2574 C2573 1.349 . S
C2574 C2586 1.349 . S
C2575 C2573 1.327 . S
C2575 C2591 1.429 . S
C2575 H2597 0.950 . S
C2576 H2572 0.949 . S
C2576 C2584 1.574 1_655 S
C2576 C2592 1.368 . S
H2577 C2585 0.950 . S
H2578 C2583 0.950 . S
H2579 C2584 0.949 . S
H2580 C2586 0.950 . S
H2581 C2587 0.950 . S
H2582 C2588 0.949 . S
C2583 H2578 0.950 . S
C2583 C2585 1.327 . S
C2583 C2589 1.429 . S
C2584 C2576 1.574 1_455 S
C2584 H2579 0.949 . S
C2584 C2590 1.368 . S
C2585 C2569 1.349 . S
C2585 H2577 0.950 . S
C2585 C2583 1.327 . S
C2586 C2574 1.349 . S
C2586 H2580 0.950 . S
C2586 C2587 1.327 . S
C2587 H2581 0.950 . S
C2587 C2586 1.327 . S
C2587 C2591 1.429 . S
C2588 C2571 1.574 1_655 S
C2588 H2582 0.949 . S
C2588 C2592 1.368 . S
C2589 C2570 1.429 . S
C2589 C2583 1.429 . S
C2589 C2590 1.523 . S
C2590 C2571 1.368 . S
C2590 C2584 1.368 . S
C2590 C2589 1.523 . S
C2591 C2575 1.429 . S
C2591 C2587 1.429 . S
C2591 C2592 1.523 . S
C2592 C2576 1.368 . S
C2592 C2588 1.368 . S
C2592 C2591 1.523 . S
H2593 C2568 0.950 . S
H2594 C2570 0.950 . S
H2595 C2571 0.949 . S
H2596 C2573 0.950 . S
H2597 C2575 0.950 . S
C2598 C2599 1.349 . S
C2598 C2600 1.327 . S
C2598 H2623 0.950 . S
C2599 C2598 1.349 . S
C2599 C2615 1.349 . S
C2600 C2598 1.327 . S
C2600 C2619 1.429 . S
C2600 H2624 0.950 . S
C2601 C2618 1.574 . S
C2601 C2620 1.368 . S
C2601 H2625 0.949 . S
H2602 C2606 0.949 . S
C2603 C2604 1.349 . S
C2603 C2605 1.327 . S
C2603 H2626 0.950 . S
C2604 C2603 1.349 . S
C2604 C2616 1.349 . S
C2605 C2603 1.327 . S
C2605 C2621 1.429 . S
C2605 H2627 0.950 . S
C2606 H2602 0.949 . S
C2606 C2614 1.574 . S
C2606 C2622 1.368 . S
H2607 C2615 0.950 . S
H2608 C2613 0.950 . S
H2609 C2614 0.949 . S
H2610 C2616 0.950 . S
H2611 C2617 0.950 . S
H2612 C2618 0.949 . S
C2613 H2608 0.950 . S
C2613 C2615 1.327 . S
C2613 C2619 1.429 . S
C2614 C2606 1.574 . S
C2614 H2609 0.949 . S
C2614 C2620 1.368 . S
C2615 C2599 1.349 . S
C2615 H2607 0.950 . S
C2615 C2613 1.327 . S
C2616 C2604 1.349 . S
C2616 H2610 0.950 . S
C2616 C2617 1.327 . S
C2617 H2611 0.950 . S
C2617 C2616 1.327 . S
C2617 C2621 1.429 . S
C2618 C2601 1.574 . S
C2618 H2612 0.949 . S
C2618 C2622 1.368 . S
C2619 C2600 1.429 . S
C2619 C2613 1.429 . S
C2619 C2620 1.523 . S
C2620 C2601 1.368 . S
C2620 C2614 1.368 . S
C2620 C2619 1.523 . S
C2621 C2605 1.429 . S
C2621 C2617 1.429 . S
C2621 C2622 1.523 . S
C2622 C2606 1.368 . S
C2622 C2618 1.368 . S
C2622 C2621 1.523 . S
H2623 C2598 0.950 . S
H2624 C2600 0.950 . S
H2625 C2601 0.949 . S
H2626 C2603 0.950 . S
H2627 C2605 0.950 . S
C469 C65 1.213 . S
C474 C0 1.213 . S
C499 C13 1.213 . S
C504 C39 1.213 . S
C529 C52 1.212 . S
C534 C26 1.212 . S
C559 C78 1.213 . S
C564 C143 1.213 . S
C589 C91 1.213 . S
C594 C117 1.213 . S
C619 C130 1.212 . S
C624 C104 1.212 . S
C649 C221 1.213 . S
C654 C156 1.213 . S
C679 C169 1.212 . S
C684 C195 1.212 . S
C709 C208 1.212 . S
C714 C182 1.212 . S
C739 C234 1.212 . S
C744 C299 1.212 . S
C769 C247 1.212 . S
C774 C273 1.212 . S
C799 C260 1.212 . S
C804 C286 1.212 . S
C829 C312 1.212 . S
C834 C377 1.212 . S
C859 C351 1.212 . S
C864 C325 1.212 . S
C889 C338 1.212 . S
C894 C364 1.212 . S
C919 C390 1.213 . S
C924 C455 1.213 . S
C949 C403 1.212 . S
C954 C429 1.212 . S
C979 C416 1.212 . S
C984 C442 1.212 . S
C1009 C138 0.845 . S
C1014 C5 0.824 . S
C1039 C151 0.845 . S
C1044 C18 0.824 . S
C1069 C125 0.845 . S
C1074 C31 0.824 . S
C1099 C112 0.845 . S
C1104 C44 0.824 . S
C1129 C57 0.824 . S
C1134 C86 0.845 . S
C1159 C70 0.824 . S
C1164 C99 0.845 . S
C1189 C83 0.824 . S
C1194 C60 0.845 . S
C1219 C96 0.824 . S
C1224 C73 0.845 . S
C1249 C109 0.824 . S
C1254 C47 0.845 . S
C1279 C34 0.845 . S
C1284 C122 0.824 . S
C1309 C8 0.845 . S
C1314 C135 0.824 . S
C1339 C148 0.824 . S
C1344 C21 0.845 . S
C1369 C161 0.824 . S
C1374 C294 0.845 . S
C1399 C174 0.824 . S
C1404 C307 0.845 . S
C1429 C281 0.845 . S
C1434 C187 0.824 . S
C1459 C200 0.823 . S
C1464 C268 0.844 . S
C1489 C213 0.824 . S
C1494 C242 0.845 . S
C1519 C226 0.824 . S
C1524 C255 0.845 . S
C1549 C239 0.823 . S
C1554 C216 0.844 . S
C1579 C229 0.845 . S
C1584 C252 0.824 . S
C1609 C203 0.845 . S
C1614 C265 0.824 . S
C1639 C278 0.823 . S
C1644 C190 0.844 . S
C1669 C164 0.845 . S
C1674 C291 0.824 . S
C1699 C177 0.845 . S
C1704 C304 0.824 . S
C1729 C450 0.844 . S
C1734 C317 0.823 . S
C1759 C330 0.824 . S
C1764 C463 0.845 . S
C1789 C343 0.824 . S
C1794 C437 0.845 . S
C1819 C424 0.844 . S
C1824 C356 0.823 . S
C1849 C398 0.845 . S
C1854 C369 0.824 . S
C1879 C411 0.845 . S
C1884 C382 0.824 . S
C1909 C395 0.824 . S
C1914 C372 0.845 . S
C1939 C385 0.845 . S
C1944 C408 0.824 . S
C1969 C421 0.824 . S
C1974 C359 0.845 . S
C1999 C346 0.844 . S
C2004 C434 0.823 . S
C2029 C320 0.845 . S
C2034 C447 0.824 . S
C2059 C333 0.845 . S
C2064 C460 0.824 . S
C2089 C218 1.364 . S
C2094 C10 1.364 . S
C2119 C23 1.364 . S
C2124 C231 1.364 . S
C2149 C205 1.364 . S
C2154 C36 1.364 . S
C2179 C348 1.364 . S
C2184 C49 1.364 . S
C2209 C62 1.364 . S
C2214 C322 1.364 . S
C2239 C75 1.364 . S
C2244 C335 1.364 . S
C2269 C88 1.364 . S
C2274 C452 1.364 . S
C2299 C465 1.364 . S
C2304 C101 1.364 . S
C2329 C439 1.364 . S
C2334 C114 1.364 . S
C2359 C270 1.364 . S
C2364 C127 1.364 . S
C2389 C140 1.364 . S
C2394 C244 1.364 . S
C2419 C153 1.364 . S
C2424 C257 1.364 . S
C2449 C166 1.364 . S
C2454 C374 1.364 . S
C2479 C387 1.364 . S
C2484 C179 1.364 . S
C2509 C361 1.364 . S
C2514 C192 1.364 . S
C2539 C283 1.364 . S
C2544 C426 1.364 . S
C2569 C400 1.364 . S
C2574 C296 1.364 . S
C2599 C413 1.364 . S
C2604 C309 1.364 . S
