# Generated by pormake.
# Topology npo, (4)-cn, num edge types: 1
# Building blocks:
#     Node 0, Type 0, BuildingBlock: CEKHIL_clean_sbu_0, # of connection points: 4
#     Node 1, Type 0, BuildingBlock: CEKHIL_clean_sbu_0, # of connection points: 4
#     Node 2, Type 0, BuildingBlock: CEKHIL_clean_sbu_0, # of connection points: 4
#     Node 3, Type 0, BuildingBlock: CEKHIL_clean_sbu_0, # of connection points: 4
#     Node 4, Type 0, BuildingBlock: CEKHIL_clean_sbu_0, # of connection points: 4
#     Node 5, Type 0, BuildingBlock: CEKHIL_clean_sbu_0, # of connection points: 4
#     Edge 6, Type (0, 0), BuildingBlock: KIFKEQ_clean_linker_1, # of connection points: 2
#     Edge 7, Type (0, 0), BuildingBlock: KIFKEQ_clean_linker_1, # of connection points: 2
#     Edge 8, Type (0, 0), BuildingBlock: KIFKEQ_clean_linker_1, # of connection points: 2
#     Edge 9, Type (0, 0), BuildingBlock: KIFKEQ_clean_linker_1, # of connection points: 2
#     Edge 10, Type (0, 0), BuildingBlock: KIFKEQ_clean_linker_1, # of connection points: 2
#     Edge 11, Type (0, 0), BuildingBlock: KIFKEQ_clean_linker_1, # of connection points: 2
#     Edge 12, Type (0, 0), BuildingBlock: KIFKEQ_clean_linker_1, # of connection points: 2
#     Edge 13, Type (0, 0), BuildingBlock: KIFKEQ_clean_linker_1, # of connection points: 2
#     Edge 14, Type (0, 0), BuildingBlock: KIFKEQ_clean_linker_1, # of connection points: 2
#     Edge 15, Type (0, 0), BuildingBlock: KIFKEQ_clean_linker_1, # of connection points: 2
#     Edge 16, Type (0, 0), BuildingBlock: KIFKEQ_clean_linker_1, # of connection points: 2
#     Edge 17, Type (0, 0), BuildingBlock: KIFKEQ_clean_linker_1, # of connection points: 2
# Relax obj value: 0.296
# Max RMSD: 0.247
# Mean RMSD: 0.243
data_MOF--net-npo--node1-CEKHIL_clean_sbu_0--edge1-KIFKEQ_clean_linker_1
_symmetry_space_group_name_H-M    P1
_symmetry_Int_Tables_number       1
_symmetry_cell_setting            triclinic
loop_
_symmetry_equiv_pos_as_xyz
'x, y, z'
_cell_length_a     45.834071
_cell_length_b     45.188787
_cell_length_c     23.698779
_cell_angle_alpha  90.782042
_cell_angle_beta   90.150152
_cell_angle_gamma 120.30358
loop_
_atom_site_label
_atom_site_type_symbol
_atom_site_fract_x
_atom_site_fract_y
_atom_site_fract_z
_atom_type_partial_charge
Co0 Co 0.53068 0.09565 0.25807 0.0
O1 O 0.49274 0.05467 0.28749 0.0
O2 O 0.5464 0.0747 0.31086 0.0
C3 C 0.50798 0.12945 0.26841 0.0
O4 O 0.57646 0.13721 0.2416 0.0
Co5 Co 0.52809 0.13443 0.15279 0.0
O6 O 0.56941 0.17332 0.187 0.0
C7 C 0.53453 0.07259 0.13876 0.0
C8 C 0.5148 0.05217 0.31861 0.0
C9 C 0.58732 0.16689 0.22017 0.0
O10 O 0.535 0.06909 0.19259 0.0
O11 O 0.53099 0.096 0.11547 0.0
O12 O 0.52187 0.12345 0.31128 0.0
O13 O 0.50592 0.11288 0.22235 0.0
Co14 Co 0.43538 0.55106 0.75337 0.0
O15 O 0.4763 0.55518 0.7228 0.0
O16 O 0.42429 0.51477 0.69913 0.0
C17 C 0.4498 0.6063 0.74467 0.0
O18 O 0.38717 0.53958 0.76983 0.0
Co19 Co 0.43355 0.58969 0.86196 0.0
O20 O 0.38727 0.57581 0.83613 0.0
C21 C 0.4389 0.5275 0.87214 0.0
C22 C 0.45655 0.52899 0.69063 0.0
C23 C 0.37235 0.55252 0.79842 0.0
O24 O 0.43602 0.52227 0.81816 0.0
O25 O 0.44018 0.55355 0.89654 0.0
O26 O 0.43869 0.58557 0.70121 0.0
O27 O 0.45516 0.59402 0.78988 0.0
Co28 Co 0.86696 0.41337 0.2578 0.0
O29 O 0.90314 0.40868 0.29001 0.0
O30 O 0.89369 0.45127 0.30861 0.0
C31 C 0.82519 0.35937 0.27204 0.0
O32 O 0.83123 0.42593 0.2386 0.0
Co33 Co 0.8248 0.37148 0.15264 0.0
O34 O 0.79361 0.38746 0.17624 0.0
C35 C 0.89264 0.43202 0.13721 0.0
C36 C 0.91083 0.43622 0.31941 0.0
C37 C 0.80304 0.41237 0.21111 0.0
O38 O 0.89588 0.439 0.19068 0.0
O39 O 0.86723 0.4056 0.11499 0.0
O40 O 0.83587 0.38186 0.31305 0.0
O41 O 0.8423 0.36909 0.22597 0.0
Co42 Co 0.41542 0.86878 0.73388 0.0
O43 O 0.41818 0.9088 0.70022 0.0
O44 O 0.45051 0.88693 0.67842 0.0
C45 C 0.35883 0.83517 0.72825 0.0
O46 O 0.41946 0.82748 0.75443 0.0
Co47 Co 0.37716 0.8358 0.84464 0.0
O48 O 0.38202 0.7964 0.82085 0.0
C49 C 0.44588 0.89702 0.85004 0.0
C50 C 0.44176 0.90961 0.66868 0.0
C51 C 0.40385 0.80033 0.78412 0.0
O52 O 0.44834 0.89773 0.79587 0.0
O53 O 0.4195 0.87546 0.87653 0.0
O54 O 0.37736 0.83929 0.68433 0.0
O55 O 0.37462 0.85369 0.77212 0.0
Co56 Co 0.52546 0.40685 0.2518 0.0
O57 O 0.48511 0.40396 0.22008 0.0
O58 O 0.53755 0.44156 0.19605 0.0
C59 C 0.50748 0.35041 0.24587 0.0
O60 O 0.57323 0.41698 0.26904 0.0
Co61 Co 0.52773 0.371 0.36161 0.0
O62 O 0.57436 0.38468 0.33943 0.0
C63 C 0.52457 0.43478 0.36895 0.0
C64 C 0.50537 0.42877 0.18747 0.0
C65 C 0.58872 0.40604 0.30014 0.0
O66 O 0.5271 0.43855 0.31495 0.0
O67 O 0.52261 0.40901 0.39416 0.0
O68 O 0.51942 0.3695 0.20173 0.0
O69 O 0.50434 0.36527 0.29041 0.0
Co70 Co 0.10085 0.55965 0.76009 0.0
O71 O 0.06294 0.56126 0.79257 0.0
O72 O 0.07952 0.52468 0.81574 0.0
C73 C 0.13803 0.61638 0.7659 0.0
O74 O 0.13918 0.55078 0.74174 0.0
Co75 Co 0.13739 0.59626 0.64997 0.0
O76 O 0.17132 0.58346 0.67087 0.0
C77 C 0.07154 0.53156 0.64321 0.0
C78 C 0.05934 0.53653 0.8247 0.0
C79 C 0.16527 0.56219 0.71003 0.0
O80 O 0.07092 0.52765 0.69714 0.0
O81 O 0.09457 0.5577 0.61786 0.0
O82 O 0.13181 0.59737 0.80998 0.0
O83 O 0.11984 0.60122 0.72164 0.0
H84 H 0.47992 0.14723 0.1838 0.0
H85 H 0.52257 0.17741 0.35189 0.0
H86 H 0.47553 0.19864 0.17831 0.0
H87 H 0.51869 0.22919 0.34604 0.0
H88 H 0.52013 0.31575 0.1632 0.0
H89 H 0.51603 0.25995 0.17019 0.0
H90 H 0.47929 0.25062 0.34053 0.0
H91 H 0.48394 0.3066 0.33387 0.0
C92 C 0.48811 0.16473 0.21977 0.0
C93 C 0.50182 0.15846 0.26816 0.0
C94 C 0.48578 0.19426 0.21645 0.0
C95 C 0.49707 0.21812 0.26148 0.0
C96 C 0.50952 0.21114 0.3108 0.0
C97 C 0.51185 0.18156 0.31412 0.0
C98 C 0.51092 0.30163 0.20191 0.0
C99 C 0.50257 0.3156 0.24808 0.0
C100 C 0.5084 0.26961 0.20586 0.0
C101 C 0.49745 0.25095 0.25603 0.0
C102 C 0.48826 0.2646 0.30163 0.0
C103 C 0.49078 0.29658 0.29768 0.0
H104 H 0.35133 0.56073 0.69691 0.0
H105 H 0.31665 0.52529 0.86475 0.0
H106 H 0.29799 0.55714 0.67432 0.0
H107 H 0.2616 0.51823 0.84126 0.0
H108 H 0.18981 0.55895 0.81223 0.0
H109 H 0.23666 0.54992 0.83196 0.0
H110 H 0.2424 0.53048 0.65391 0.0
H111 H 0.19747 0.5429 0.63448 0.0
C112 C 0.33156 0.55085 0.72821 0.0
C113 C 0.33781 0.54326 0.7824 0.0
C114 C 0.30073 0.54855 0.71532 0.0
C115 C 0.27507 0.53768 0.75601 0.0
C116 C 0.28085 0.52778 0.8092 0.0
C117 C 0.31219 0.53127 0.82262 0.0
C118 C 0.20103 0.55243 0.77755 0.0
C119 C 0.19041 0.55192 0.72188 0.0
C120 C 0.22781 0.5469 0.78876 0.0
C121 C 0.24396 0.53964 0.7446 0.0
C122 C 0.23162 0.53706 0.68906 0.0
C123 C 0.2056 0.54382 0.67776 0.0
H124 H 0.64061 0.15921 0.24989 0.0
H125 H 0.61284 0.23594 0.21922 0.0
H126 H 0.69903 0.20454 0.26841 0.0
H127 H 0.67114 0.28112 0.23887 0.0
H128 H 0.77173 0.34846 0.33661 0.0
H129 H 0.71357 0.30054 0.32835 0.0
H130 H 0.7444 0.2533 0.20045 0.0
H131 H 0.80243 0.30162 0.20759 0.0
C132 C 0.64694 0.18573 0.24756 0.0
C133 C 0.6223 0.19413 0.2328 0.0
C134 C 0.68028 0.21154 0.25803 0.0
C135 C 0.68931 0.24611 0.25517 0.0
C136 C 0.66459 0.25456 0.24169 0.0
C137 C 0.6314 0.22877 0.23006 0.0
C138 C 0.76617 0.32755 0.30747 0.0
C139 C 0.79145 0.32856 0.27277 0.0
C140 C 0.73295 0.30035 0.30252 0.0
C141 C 0.72474 0.27345 0.26376 0.0
C142 C 0.75029 0.27373 0.23086 0.0
C143 C 0.78334 0.30129 0.23489 0.0
H144 H 0.38752 0.74613 0.85261 0.0
H145 H 0.43912 0.79259 0.69778 0.0
H146 H 0.40193 0.70144 0.84034 0.0
H147 H 0.45348 0.74765 0.68576 0.0
H148 H 0.43068 0.63382 0.66021 0.0
H149 H 0.42145 0.68252 0.66807 0.0
H150 H 0.456 0.69887 0.84147 0.0
H151 H 0.46539 0.65051 0.83376 0.0
C152 C 0.4019 0.74683 0.81596 0.0
C153 C 0.41226 0.77299 0.77627 0.0
C154 C 0.41033 0.72136 0.80917 0.0
C155 C 0.429 0.72131 0.76232 0.0
C156 C 0.439 0.74713 0.72217 0.0
C157 C 0.43089 0.77288 0.72926 0.0
C158 C 0.4368 0.64817 0.69969 0.0
C159 C 0.44846 0.6382 0.74653 0.0
C160 C 0.43156 0.67601 0.70413 0.0
C161 C 0.43766 0.6941 0.75557 0.0
C162 C 0.45061 0.68497 0.80161 0.0
C163 C 0.45612 0.6574 0.79706 0.0
H164 H 0.64208 0.4297 0.37319 0.0
H165 H 0.61412 0.40549 0.19771 0.0
H166 H 0.69912 0.44201 0.35224 0.0
H167 H 0.66967 0.41426 0.17685 0.0
H168 H 0.7728 0.43639 0.14101 0.0
H169 H 0.72566 0.445 0.16342 0.0
H170 H 0.72817 0.41512 0.33562 0.0
H171 H 0.77716 0.41017 0.31365 0.0
C172 C 0.64833 0.42703 0.33007 0.0
C173 C 0.62395 0.41665 0.28702 0.0
C174 C 0.68092 0.43367 0.31794 0.0
C175 C 0.68938 0.42864 0.26282 0.0
C176 C 0.66487 0.41919 0.21961 0.0
C177 C 0.63274 0.41381 0.23149 0.0
C178 C 0.76367 0.43278 0.18392 0.0
C179 C 0.77848 0.42289 0.22578 0.0
C180 C 0.7363 0.43714 0.19681 0.0
C181 C 0.7222 0.43013 0.25128 0.0
C182 C 0.73824 0.42147 0.29348 0.0
C183 C 0.76634 0.41838 0.28097 0.0
H184 H 0.31637 0.81915 0.81743 0.0
H185 H 0.32224 0.78621 0.64793 0.0
H186 H 0.26059 0.76853 0.82765 0.0
H187 H 0.26667 0.73534 0.65844 0.0
H188 H 0.18719 0.65122 0.84612 0.0
H189 H 0.23872 0.70675 0.83644 0.0
H190 H 0.20665 0.71589 0.66917 0.0
H191 H 0.15554 0.66027 0.67847 0.0
C192 C 0.30563 0.80122 0.7822 0.0
C193 C 0.32374 0.80649 0.73198 0.0
C194 C 0.27378 0.77215 0.78821 0.0
C195 C 0.25935 0.74783 0.74405 0.0
C196 C 0.27697 0.75378 0.69307 0.0
C197 C 0.30886 0.78284 0.68709 0.0
C198 C 0.19102 0.66529 0.80759 0.0
C199 C 0.16753 0.65131 0.7629 0.0
C200 C 0.22043 0.69714 0.8021 0.0
C201 C 0.22683 0.71557 0.75184 0.0
C202 C 0.20269 0.70205 0.70801 0.0
C203 C 0.17335 0.67026 0.71349 0.0
H204 H 0.48049 0.96585 0.83452 0.0
H205 H 0.47263 0.88714 0.94489 0.0
H206 H 0.51354 0.00928 0.90605 0.0
H207 H 0.50758 0.93054 0.01553 0.0
H208 H 0.50413 0.00361 0.1521 0.0
H209 H 0.49407 0.96132 0.07873 0.0
H210 H 0.55897 0.04258 0.96612 0.0
H211 H 0.56715 0.08477 0.03893 0.0
C212 C 0.4872 0.9581 0.87322 0.0
C213 C 0.47371 0.92333 0.88481 0.0
C214 C 0.50627 -0.01703 0.91441 0.0
C215 C 0.51266 0.97343 0.96748 0.0
C216 C 0.50226 0.93878 0.97607 0.0
C217 C 0.48254 0.91393 0.93546 0.0
C218 C 0.51691 0.01227 0.11215 0.0
C219 C 0.53582 0.04731 0.10064 0.0
C220 C 0.51133 -0.01196 0.06991 0.0
C221 C 0.52514 -0.00153 0.0157 0.0
C222 C 0.54704 0.03359 0.00658 0.0
C223 C 0.55196 0.05777 0.04838 0.0
H224 H 0.48185 0.4601 0.35914 0.0
H225 H 0.56124 0.46442 0.46333 0.0
H226 H 0.46776 0.48806 0.43519 0.0
H227 H 0.5474 0.49214 0.53896 0.0
H228 H 0.4202 0.47899 0.61191 0.0
H229 H 0.44096 0.46448 0.52764 0.0
H230 H 0.54317 0.5415 0.57341 0.0
H231 H 0.52239 0.55593 0.6583 0.0
C232 C 0.49707 0.46825 0.39744 0.0
C233 C 0.52259 0.46022 0.40562 0.0
C234 C 0.48876 0.48377 0.44122 0.0
C235 C 0.50614 0.49179 0.49342 0.0
C236 C 0.5336 0.48642 0.49936 0.0
C237 C 0.54156 0.47058 0.45605 0.0
C238 C 0.44713 0.49274 0.60424 0.0
C239 C 0.46967 0.51843 0.64208 0.0
C240 C 0.45898 0.48476 0.55545 0.0
C241 C 0.49367 0.50217 0.5434 0.0
C242 C 0.51629 0.52764 0.58153 0.0
C243 C 0.50441 0.53577 0.63028 0.0
H244 H 0.05366 0.4921 0.90642 0.0
H245 H 0.01165 0.5538 0.85166 0.0
H246 H 0.01593 0.47318 0.98705 0.0
H247 H 0.97379 0.53476 0.93264 0.0
H248 H 0.88273 0.44926 0.0333 0.0
H249 H 0.92459 0.47866 0.96064 0.0
H250 H 0.00401 0.49535 0.07786 0.0
H251 H 0.96165 0.46578 0.15132 0.0
C252 C 0.03633 0.50161 0.91153 0.0
C253 C 0.03543 0.52422 0.87232 0.0
C254 C 0.01502 0.49109 0.95817 0.0
C255 C -0.0079 0.50269 0.96645 0.0
C256 C -0.00882 0.52534 0.92728 0.0
C257 C 0.01276 0.53615 0.88085 0.0
C258 C 0.9092 0.45977 0.04391 0.0
C259 C 0.91899 0.45509 0.09777 0.0
C260 C 0.93319 0.47676 1.00234 0.0
C261 C 0.96755 0.48908 0.01337 0.0
C262 C 0.97761 0.48581 0.06809 0.0
C263 C 0.9535 0.46921 0.11021 0.0
H264 H 0.55557 0.04177 0.38978 0.0
H265 H 0.45075 0.00834 0.35483 0.0
H266 H 0.53929 0.00816 0.47555 0.0
H267 H 0.43445 0.97434 0.44032 0.0
H268 H 0.42253 0.95388 0.6294 0.0
H269 H 0.44059 -0.01322 0.5428 0.0
H270 H 0.50899 0.94922 0.51007 0.0
H271 H 0.49129 0.91669 0.59695 0.0
C272 C 0.529 0.02679 0.39991 0.0
C273 C 0.50445 0.02782 0.36563 0.0
C274 C 0.51968 0.00752 0.44907 0.0
C275 C 0.48563 -0.01104 0.46513 0.0
C276 C 0.46097 -0.01107 0.42966 0.0
C277 C 0.47027 0.0081 0.38036 0.0
C278 C 0.44171 0.95298 0.60408 0.0
C279 C 0.45543 0.93265 0.61998 0.0
C280 C 0.45179 0.97152 0.55416 0.0
C281 C 0.4759 0.97024 0.5192 0.0
C282 C 0.49045 0.95083 0.53614 0.0
C283 C 0.48028 0.93218 0.58593 0.0
H284 H 0.40704 0.50424 0.97101 0.0
H285 H 0.47773 0.49751 0.85932 0.0
H286 H 0.4204 0.47562 0.04434 0.0
H287 H 0.49134 0.46863 0.93325 0.0
H288 H 0.54265 0.47516 0.10737 0.0
H289 H 0.52235 0.49151 0.02514 0.0
H290 H 0.41929 0.42294 0.07462 0.0
H291 H 0.43963 0.40662 0.15742 0.0
C292 C 0.42484 0.49575 0.96175 0.0
C293 C 0.44148 0.50315 0.9097 0.0
C294 C 0.43243 0.47928 0.00372 0.0
C295 C 0.45721 0.47022 0.99487 0.0
C296 C 0.4724 0.47571 0.94145 0.0
C297 C 0.46439 0.49184 0.89896 0.0
C298 C 0.51564 0.4636 0.10089 0.0
C299 C 0.49274 0.43981 0.13926 0.0
C300 C 0.50402 0.47264 0.05328 0.0
C301 C 0.46922 0.45827 0.04302 0.0
C302 C 0.44627 0.4345 0.08144 0.0
C303 C 0.45791 0.42526 0.12895 0.0
H304 H 0.00388 0.50746 0.65097 0.0
H305 H 0.07868 0.50034 0.55116 0.0
H306 H 0.96239 0.47958 0.57405 0.0
H307 H 0.03764 0.47259 0.47464 0.0
H308 H 0.94868 0.4085 0.35481 0.0
H309 H -0.01638 0.42341 0.4403 0.0
H310 H 0.96079 0.50307 0.47995 0.0
H311 H 0.92581 0.48813 0.39499 0.0
C312 C 0.01096 0.49865 0.61353 0.0
C313 C 0.04427 0.50582 0.60679 0.0
C314 C -0.01253 0.48319 0.56922 0.0
C315 C -0.00305 0.47441 0.51795 0.0
C316 C 0.02949 0.47893 0.51353 0.0
C317 C 0.05297 0.49472 0.55736 0.0
C318 C 0.95134 0.42937 0.38157 0.0
C319 C 0.93465 0.44728 0.36791 0.0
C320 C 0.97119 0.43776 0.43066 0.0
C321 C 0.97455 0.46407 0.4673 0.0
C322 C 0.95809 0.48215 0.45329 0.0
C323 C 0.93845 0.47392 0.40411 0.0
loop_
_geom_bond_atom_site_label_1
_geom_bond_atom_site_label_2
_geom_bond_distance
_geom_bond_site_symmetry_2
_ccdc_geom_bond_type
Co0 O1 2.216 . S
Co0 O2 2.091 . S
Co0 O4 2.004 . S
Co0 O10 2.021 . S
Co0 O12 2.137 . S
Co0 O13 2.244 . S
O1 Co0 2.216 . S
O1 C8 1.247 . S
O2 Co0 2.091 . S
O2 C8 1.261 . S
C3 O12 1.247 . S
C3 O13 1.272 . S
O4 Co0 2.004 . S
O4 C9 1.259 . S
Co5 O6 2.061 . S
Co5 O11 2.052 . S
Co5 O13 2.135 . S
O6 Co5 2.061 . S
O6 C9 1.235 . S
C7 O10 1.238 . S
C7 O11 1.241 . S
C8 O1 1.247 . S
C8 O2 1.261 . S
C9 O4 1.259 . S
C9 O6 1.235 . S
O10 Co0 2.021 . S
O10 C7 1.238 . S
O11 Co5 2.052 . S
O11 C7 1.241 . S
O12 Co0 2.137 . S
O12 C3 1.247 . S
O13 Co0 2.244 . S
O13 C3 1.272 . S
O13 Co5 2.135 . S
Co14 O15 2.216 . S
Co14 O16 2.091 . S
Co14 O18 2.004 . S
Co14 O24 2.021 . S
Co14 O26 2.137 . S
Co14 O27 2.244 . S
O15 Co14 2.216 . S
O15 C22 1.247 . S
O16 Co14 2.091 . S
O16 C22 1.261 . S
C17 O26 1.247 . S
C17 O27 1.272 . S
O18 Co14 2.004 . S
O18 C23 1.259 . S
Co19 O20 2.061 . S
Co19 O25 2.052 . S
Co19 O27 2.135 . S
O20 Co19 2.061 . S
O20 C23 1.235 . S
C21 O24 1.238 . S
C21 O25 1.241 . S
C22 O15 1.247 . S
C22 O16 1.261 . S
C23 O18 1.259 . S
C23 O20 1.235 . S
O24 Co14 2.021 . S
O24 C21 1.238 . S
O25 Co19 2.052 . S
O25 C21 1.241 . S
O26 Co14 2.137 . S
O26 C17 1.247 . S
O27 Co14 2.244 . S
O27 C17 1.272 . S
O27 Co19 2.135 . S
Co28 O29 2.216 . S
Co28 O30 2.091 . S
Co28 O32 2.004 . S
Co28 O38 2.021 . S
Co28 O40 2.137 . S
Co28 O41 2.244 . S
O29 Co28 2.216 . S
O29 C36 1.247 . S
O30 Co28 2.091 . S
O30 C36 1.261 . S
C31 O40 1.247 . S
C31 O41 1.272 . S
O32 Co28 2.004 . S
O32 C37 1.259 . S
Co33 O34 2.061 . S
Co33 O39 2.052 . S
Co33 O41 2.135 . S
O34 Co33 2.061 . S
O34 C37 1.235 . S
C35 O38 1.238 . S
C35 O39 1.241 . S
C36 O29 1.247 . S
C36 O30 1.261 . S
C37 O32 1.259 . S
C37 O34 1.235 . S
O38 Co28 2.021 . S
O38 C35 1.238 . S
O39 Co33 2.052 . S
O39 C35 1.241 . S
O40 Co28 2.137 . S
O40 C31 1.247 . S
O41 Co28 2.244 . S
O41 C31 1.272 . S
O41 Co33 2.135 . S
Co42 O43 2.216 . S
Co42 O44 2.091 . S
Co42 O46 2.004 . S
Co42 O52 2.021 . S
Co42 O54 2.137 . S
Co42 O55 2.244 . S
O43 Co42 2.216 . S
O43 C50 1.247 . S
O44 Co42 2.091 . S
O44 C50 1.261 . S
C45 O54 1.247 . S
C45 O55 1.272 . S
O46 Co42 2.004 . S
O46 C51 1.259 . S
Co47 O48 2.061 . S
Co47 O53 2.052 . S
Co47 O55 2.135 . S
O48 Co47 2.061 . S
O48 C51 1.235 . S
C49 O52 1.238 . S
C49 O53 1.241 . S
C50 O43 1.247 . S
C50 O44 1.261 . S
C51 O46 1.259 . S
C51 O48 1.235 . S
O52 Co42 2.021 . S
O52 C49 1.238 . S
O53 Co47 2.052 . S
O53 C49 1.241 . S
O54 Co42 2.137 . S
O54 C45 1.247 . S
O55 Co42 2.244 . S
O55 C45 1.272 . S
O55 Co47 2.135 . S
Co56 O57 2.216 . S
Co56 O58 2.091 . S
Co56 O60 2.004 . S
Co56 O66 2.021 . S
Co56 O68 2.137 . S
Co56 O69 2.244 . S
O57 Co56 2.216 . S
O57 C64 1.247 . S
O58 Co56 2.091 . S
O58 C64 1.261 . S
C59 O68 1.247 . S
C59 O69 1.272 . S
O60 Co56 2.004 . S
O60 C65 1.259 . S
Co61 O62 2.061 . S
Co61 O67 2.052 . S
Co61 O69 2.135 . S
O62 Co61 2.061 . S
O62 C65 1.235 . S
C63 O66 1.238 . S
C63 O67 1.241 . S
C64 O57 1.247 . S
C64 O58 1.261 . S
C65 O60 1.259 . S
C65 O62 1.235 . S
O66 Co56 2.021 . S
O66 C63 1.238 . S
O67 Co61 2.052 . S
O67 C63 1.241 . S
O68 Co56 2.137 . S
O68 C59 1.247 . S
O69 Co56 2.244 . S
O69 C59 1.272 . S
O69 Co61 2.135 . S
Co70 O71 2.216 . S
Co70 O72 2.091 . S
Co70 O74 2.004 . S
Co70 O80 2.021 . S
Co70 O82 2.137 . S
Co70 O83 2.244 . S
O71 Co70 2.216 . S
O71 C78 1.247 . S
O72 Co70 2.091 . S
O72 C78 1.261 . S
C73 O82 1.247 . S
C73 O83 1.272 . S
O74 Co70 2.004 . S
O74 C79 1.259 . S
Co75 O76 2.061 . S
Co75 O81 2.052 . S
Co75 O83 2.135 . S
O76 Co75 2.061 . S
O76 C79 1.235 . S
C77 O80 1.238 . S
C77 O81 1.241 . S
C78 O71 1.247 . S
C78 O72 1.261 . S
C79 O74 1.259 . S
C79 O76 1.235 . S
O80 Co70 2.021 . S
O80 C77 1.238 . S
O81 Co75 2.052 . S
O81 C77 1.241 . S
O82 Co70 2.137 . S
O82 C73 1.247 . S
O83 Co70 2.244 . S
O83 C73 1.272 . S
O83 Co75 2.135 . S
H84 C92 0.950 . S
H85 C97 0.950 . S
H86 C94 0.950 . S
H87 C96 0.950 . S
H88 C98 0.950 . S
H89 C100 0.950 . S
H90 C102 0.950 . S
H91 C103 0.950 . S
C92 H84 0.950 . S
C92 C93 1.386 . S
C92 C94 1.391 . S
C93 C92 1.386 . S
C93 C97 1.393 . S
C94 H86 0.950 . S
C94 C92 1.391 . S
C94 C95 1.400 . S
C95 C94 1.400 . S
C95 C96 1.398 . S
C95 C101 1.491 . S
C96 H87 0.950 . S
C96 C95 1.398 . S
C96 C97 1.391 . S
C97 H85 0.950 . S
C97 C93 1.393 . S
C97 C96 1.391 . S
C98 H88 0.950 . S
C98 C99 1.386 . S
C98 C100 1.391 . S
C99 C98 1.386 . S
C99 C103 1.393 . S
C100 H89 0.950 . S
C100 C98 1.391 . S
C100 C101 1.400 . S
C101 C95 1.491 . S
C101 C100 1.400 . S
C101 C102 1.398 . S
C102 H90 0.950 . S
C102 C101 1.398 . S
C102 C103 1.391 . S
C103 H91 0.950 . S
C103 C99 1.393 . S
C103 C102 1.391 . S
H104 C112 0.950 . S
H105 C117 0.950 . S
H106 C114 0.950 . S
H107 C116 0.950 . S
H108 C118 0.950 . S
H109 C120 0.950 . S
H110 C122 0.950 . S
H111 C123 0.950 . S
C112 H104 0.950 . S
C112 C113 1.386 . S
C112 C114 1.391 . S
C113 C112 1.386 . S
C113 C117 1.393 . S
C114 H106 0.950 . S
C114 C112 1.391 . S
C114 C115 1.400 . S
C115 C114 1.400 . S
C115 C116 1.398 . S
C115 C121 1.491 . S
C116 H107 0.950 . S
C116 C115 1.398 . S
C116 C117 1.391 . S
C117 H105 0.950 . S
C117 C113 1.393 . S
C117 C116 1.391 . S
C118 H108 0.950 . S
C118 C119 1.386 . S
C118 C120 1.391 . S
C119 C118 1.386 . S
C119 C123 1.393 . S
C120 H109 0.950 . S
C120 C118 1.391 . S
C120 C121 1.400 . S
C121 C115 1.491 . S
C121 C120 1.400 . S
C121 C122 1.398 . S
C122 H110 0.950 . S
C122 C121 1.398 . S
C122 C123 1.391 . S
C123 H111 0.950 . S
C123 C119 1.393 . S
C123 C122 1.391 . S
H124 C132 0.950 . S
H125 C137 0.950 . S
H126 C134 0.950 . S
H127 C136 0.950 . S
H128 C138 0.950 . S
H129 C140 0.950 . S
H130 C142 0.950 . S
H131 C143 0.950 . S
C132 H124 0.950 . S
C132 C133 1.386 . S
C132 C134 1.391 . S
C133 C132 1.386 . S
C133 C137 1.393 . S
C134 H126 0.950 . S
C134 C132 1.391 . S
C134 C135 1.400 . S
C135 C134 1.400 . S
C135 C136 1.398 . S
C135 C141 1.491 . S
C136 H127 0.950 . S
C136 C135 1.398 . S
C136 C137 1.391 . S
C137 H125 0.950 . S
C137 C133 1.393 . S
C137 C136 1.391 . S
C138 H128 0.950 . S
C138 C139 1.386 . S
C138 C140 1.391 . S
C139 C138 1.386 . S
C139 C143 1.393 . S
C140 H129 0.950 . S
C140 C138 1.391 . S
C140 C141 1.400 . S
C141 C135 1.491 . S
C141 C140 1.400 . S
C141 C142 1.398 . S
C142 H130 0.950 . S
C142 C141 1.398 . S
C142 C143 1.391 . S
C143 H131 0.950 . S
C143 C139 1.393 . S
C143 C142 1.391 . S
H144 C152 0.950 . S
H145 C157 0.950 . S
H146 C154 0.950 . S
H147 C156 0.950 . S
H148 C158 0.950 . S
H149 C160 0.950 . S
H150 C162 0.950 . S
H151 C163 0.950 . S
C152 H144 0.950 . S
C152 C153 1.386 . S
C152 C154 1.391 . S
C153 C152 1.386 . S
C153 C157 1.393 . S
C154 H146 0.950 . S
C154 C152 1.391 . S
C154 C155 1.400 . S
C155 C154 1.400 . S
C155 C156 1.398 . S
C155 C161 1.491 . S
C156 H147 0.950 . S
C156 C155 1.398 . S
C156 C157 1.391 . S
C157 H145 0.950 . S
C157 C153 1.393 . S
C157 C156 1.391 . S
C158 H148 0.950 . S
C158 C159 1.386 . S
C158 C160 1.391 . S
C159 C158 1.386 . S
C159 C163 1.393 . S
C160 H149 0.950 . S
C160 C158 1.391 . S
C160 C161 1.400 . S
C161 C155 1.491 . S
C161 C160 1.400 . S
C161 C162 1.398 . S
C162 H150 0.950 . S
C162 C161 1.398 . S
C162 C163 1.391 . S
C163 H151 0.950 . S
C163 C159 1.393 . S
C163 C162 1.391 . S
H164 C172 0.950 . S
H165 C177 0.950 . S
H166 C174 0.950 . S
H167 C176 0.950 . S
H168 C178 0.950 . S
H169 C180 0.950 . S
H170 C182 0.950 . S
H171 C183 0.950 . S
C172 H164 0.950 . S
C172 C173 1.386 . S
C172 C174 1.391 . S
C173 C172 1.386 . S
C173 C177 1.393 . S
C174 H166 0.950 . S
C174 C172 1.391 . S
C174 C175 1.400 . S
C175 C174 1.400 . S
C175 C176 1.398 . S
C175 C181 1.491 . S
C176 H167 0.950 . S
C176 C175 1.398 . S
C176 C177 1.391 . S
C177 H165 0.950 . S
C177 C173 1.393 . S
C177 C176 1.391 . S
C178 H168 0.950 . S
C178 C179 1.386 . S
C178 C180 1.391 . S
C179 C178 1.386 . S
C179 C183 1.393 . S
C180 H169 0.950 . S
C180 C178 1.391 . S
C180 C181 1.400 . S
C181 C175 1.491 . S
C181 C180 1.400 . S
C181 C182 1.398 . S
C182 H170 0.950 . S
C182 C181 1.398 . S
C182 C183 1.391 . S
C183 H171 0.950 . S
C183 C179 1.393 . S
C183 C182 1.391 . S
H184 C192 0.950 . S
H185 C197 0.950 . S
H186 C194 0.950 . S
H187 C196 0.950 . S
H188 C198 0.950 . S
H189 C200 0.950 . S
H190 C202 0.950 . S
H191 C203 0.950 . S
C192 H184 0.950 . S
C192 C193 1.386 . S
C192 C194 1.391 . S
C193 C192 1.386 . S
C193 C197 1.393 . S
C194 H186 0.950 . S
C194 C192 1.391 . S
C194 C195 1.400 . S
C195 C194 1.400 . S
C195 C196 1.398 . S
C195 C201 1.491 . S
C196 H187 0.950 . S
C196 C195 1.398 . S
C196 C197 1.391 . S
C197 H185 0.950 . S
C197 C193 1.393 . S
C197 C196 1.391 . S
C198 H188 0.950 . S
C198 C199 1.386 . S
C198 C200 1.391 . S
C199 C198 1.386 . S
C199 C203 1.393 . S
C200 H189 0.950 . S
C200 C198 1.391 . S
C200 C201 1.400 . S
C201 C195 1.491 . S
C201 C200 1.400 . S
C201 C202 1.398 . S
C202 H190 0.950 . S
C202 C201 1.398 . S
C202 C203 1.391 . S
C203 H191 0.950 . S
C203 C199 1.393 . S
C203 C202 1.391 . S
H204 C212 0.950 . S
H205 C217 0.950 . S
H206 C214 0.950 . S
H207 C216 0.950 1_554 S
H208 C218 0.950 . S
H209 C220 0.950 . S
H210 C222 0.950 1_556 S
H211 C223 0.950 . S
C212 H204 0.950 . S
C212 C213 1.386 . S
C212 C214 1.391 1_565 S
C213 C212 1.386 . S
C213 C217 1.393 . S
C214 H206 0.950 . S
C214 C212 1.391 1_545 S
C214 C215 1.400 1_545 S
C215 C214 1.400 1_565 S
C215 C216 1.398 . S
C215 C221 1.491 1_566 S
C216 H207 0.950 1_556 S
C216 C215 1.398 . S
C216 C217 1.391 . S
C217 H205 0.950 . S
C217 C213 1.393 . S
C217 C216 1.391 . S
C218 H208 0.950 . S
C218 C219 1.386 . S
C218 C220 1.391 1_545 S
C219 C218 1.386 . S
C219 C223 1.393 . S
C220 H209 0.950 . S
C220 C218 1.391 1_565 S
C220 C221 1.400 1_565 S
C221 C215 1.491 1_544 S
C221 C220 1.400 1_545 S
C221 C222 1.398 . S
C222 H210 0.950 1_554 S
C222 C221 1.398 . S
C222 C223 1.391 . S
C223 H211 0.950 . S
C223 C219 1.393 . S
C223 C222 1.391 . S
H224 C232 0.950 . S
H225 C237 0.950 . S
H226 C234 0.950 . S
H227 C236 0.950 . S
H228 C238 0.950 . S
H229 C240 0.950 . S
H230 C242 0.950 . S
H231 C243 0.950 . S
C232 H224 0.950 . S
C232 C233 1.386 . S
C232 C234 1.391 . S
C233 C232 1.386 . S
C233 C237 1.393 . S
C234 H226 0.950 . S
C234 C232 1.391 . S
C234 C235 1.400 . S
C235 C234 1.400 . S
C235 C236 1.398 . S
C235 C241 1.491 . S
C236 H227 0.950 . S
C236 C235 1.398 . S
C236 C237 1.391 . S
C237 H225 0.950 . S
C237 C233 1.393 . S
C237 C236 1.391 . S
C238 H228 0.950 . S
C238 C239 1.386 . S
C238 C240 1.391 . S
C239 C238 1.386 . S
C239 C243 1.393 . S
C240 H229 0.950 . S
C240 C238 1.391 . S
C240 C241 1.400 . S
C241 C235 1.491 . S
C241 C240 1.400 . S
C241 C242 1.398 . S
C242 H230 0.950 . S
C242 C241 1.398 . S
C242 C243 1.391 . S
C243 H231 0.950 . S
C243 C239 1.393 . S
C243 C242 1.391 . S
H244 C252 0.950 . S
H245 C257 0.950 . S
H246 C254 0.950 1_655 S
H247 C256 0.950 1_554 S
H248 C258 0.950 . S
H249 C260 0.950 . S
H250 C262 0.950 . S
H251 C263 0.950 . S
C252 H244 0.950 . S
C252 C253 1.386 . S
C252 C254 1.391 . S
C253 C252 1.386 . S
C253 C257 1.393 . S
C254 H246 0.950 1_455 S
C254 C252 1.391 . S
C254 C255 1.400 . S
C255 C254 1.400 . S
C255 C256 1.398 . S
C255 C261 1.491 1_456 S
C256 H247 0.950 1_556 S
C256 C255 1.398 . S
C256 C257 1.391 . S
C257 H245 0.950 . S
C257 C253 1.393 . S
C257 C256 1.391 . S
C258 H248 0.950 . S
C258 C259 1.386 . S
C258 C260 1.391 . S
C259 C258 1.386 . S
C259 C263 1.393 . S
C260 H249 0.950 . S
C260 C258 1.391 . S
C260 C261 1.400 . S
C261 C255 1.491 1_654 S
C261 C260 1.400 . S
C261 C262 1.398 . S
C262 H250 0.950 . S
C262 C261 1.398 . S
C262 C263 1.391 . S
C263 H251 0.950 . S
C263 C259 1.393 . S
C263 C262 1.391 . S
H264 C272 0.950 . S
H265 C277 0.950 . S
H266 C274 0.950 . S
H267 C276 0.968 . S
H268 C278 0.950 . S
H269 C280 0.950 . S
H270 C282 0.968 . S
H271 C283 0.950 . S
C272 H264 0.950 . S
C272 C273 1.386 . S
C272 C274 1.391 . S
C273 C272 1.386 . S
C273 C277 1.393 . S
C274 H266 0.950 . S
C274 C272 1.391 . S
C274 C275 1.400 . S
C275 C274 1.400 . S
C275 C276 1.397 1_545 S
C275 C281 1.491 1_545 S
C276 H267 0.968 . S
C276 C275 1.397 1_565 S
C276 C277 1.375 1_565 S
C277 H265 0.950 . S
C277 C273 1.393 . S
C277 C276 1.375 1_545 S
C278 H268 0.950 . S
C278 C279 1.386 . S
C278 C280 1.391 . S
C279 C278 1.386 . S
C279 C283 1.393 . S
C280 H269 0.950 . S
C280 C278 1.391 . S
C280 C281 1.400 . S
C281 C275 1.491 1_565 S
C281 C280 1.400 . S
C281 C282 1.397 1_565 S
C282 H270 0.968 . S
C282 C281 1.397 1_545 S
C282 C283 1.375 1_545 S
C283 H271 0.950 . S
C283 C279 1.393 . S
C283 C282 1.375 1_565 S
H284 C292 0.950 . S
H285 C297 0.950 . S
H286 C294 0.950 . S
H287 C296 0.950 . S
H288 C298 0.950 . S
H289 C300 0.950 . S
H290 C302 0.950 . S
H291 C303 0.950 . S
C292 H284 0.950 . S
C292 C293 1.386 . S
C292 C294 1.391 . S
C293 C292 1.386 . S
C293 C297 1.393 . S
C294 H286 0.950 . S
C294 C292 1.391 . S
C294 C295 1.400 . S
C295 C294 1.400 . S
C295 C296 1.398 . S
C295 C301 1.491 1_556 S
C296 H287 0.950 . S
C296 C295 1.398 . S
C296 C297 1.391 . S
C297 H285 0.950 . S
C297 C293 1.393 . S
C297 C296 1.391 . S
C298 H288 0.950 . S
C298 C299 1.386 . S
C298 C300 1.391 . S
C299 C298 1.386 . S
C299 C303 1.393 . S
C300 H289 0.950 . S
C300 C298 1.391 . S
C300 C301 1.400 . S
C301 C295 1.491 1_554 S
C301 C300 1.400 . S
C301 C302 1.398 . S
C302 H290 0.950 . S
C302 C301 1.398 . S
C302 C303 1.391 . S
C303 H291 0.950 . S
C303 C299 1.393 . S
C303 C302 1.391 . S
H304 C312 0.950 . S
H305 C317 0.950 . S
H306 C314 0.950 . S
H307 C316 0.950 . S
H308 C318 0.950 . S
H309 C320 0.950 . S
H310 C322 0.950 . S
H311 C323 0.950 . S
C312 H304 0.950 . S
C312 C313 1.386 . S
C312 C314 1.391 . S
C313 C312 1.386 . S
C313 C317 1.393 . S
C314 H306 0.950 . S
C314 C312 1.391 . S
C314 C315 1.400 . S
C315 C314 1.400 . S
C315 C316 1.398 . S
C315 C321 1.491 1_455 S
C316 H307 0.950 . S
C316 C315 1.398 . S
C316 C317 1.391 . S
C317 H305 0.950 . S
C317 C313 1.393 . S
C317 C316 1.391 . S
C318 H308 0.950 . S
C318 C319 1.386 . S
C318 C320 1.391 . S
C319 C318 1.386 . S
C319 C323 1.393 . S
C320 H309 0.950 . S
C320 C318 1.391 . S
C320 C321 1.400 . S
C321 C315 1.491 1_655 S
C321 C320 1.400 . S
C321 C322 1.398 . S
C322 H310 0.950 . S
C322 C321 1.398 . S
C322 C323 1.391 . S
C323 H311 0.950 . S
C323 C319 1.393 . S
C323 C322 1.391 . S
C93 C3 1.097 . S
C99 C59 1.077 . S
C113 C23 1.050 . S
C119 C79 1.026 . S
C133 C9 1.066 . S
C139 C31 1.081 . S
C153 C51 1.047 . S
C159 C17 1.088 . S
C173 C65 1.024 . S
C179 C37 1.051 . S
C193 C45 1.086 . S
C199 C73 1.093 . S
C213 C49 1.355 . S
C219 C7 1.365 . S
C233 C63 1.351 . S
C239 C22 1.393 . S
C253 C78 1.384 . S
C259 C35 1.347 . S
C273 C8 1.418 . S
C279 C50 1.410 . S
C293 C21 1.366 . S
C299 C64 1.394 . S
C313 C77 1.341 . S
C319 C36 1.385 . S
