# Generated by pormake.
# Topology ghw, (5)-cn, num edge types: 1
# Building blocks:
#     Node 0, Type 0, BuildingBlock: XOMCOT_clean_sbu_0, # of connection points: 5
#     Node 1, Type 0, BuildingBlock: XOMCOT_clean_sbu_0, # of connection points: 5
#     Node 2, Type 0, BuildingBlock: XOMCOT_clean_sbu_0, # of connection points: 5
#     Node 3, Type 0, BuildingBlock: XOMCOT_clean_sbu_0, # of connection points: 5
#     Node 4, Type 0, BuildingBlock: XOMCOT_clean_sbu_0, # of connection points: 5
#     Node 5, Type 0, BuildingBlock: XOMCOT_clean_sbu_0, # of connection points: 5
#     Node 6, Type 0, BuildingBlock: XOMCOT_clean_sbu_0, # of connection points: 5
#     Node 7, Type 0, BuildingBlock: XOMCOT_clean_sbu_0, # of connection points: 5
#     Node 8, Type 0, BuildingBlock: XOMCOT_clean_sbu_0, # of connection points: 5
#     Node 9, Type 0, BuildingBlock: XOMCOT_clean_sbu_0, # of connection points: 5
#     Node 10, Type 0, BuildingBlock: XOMCOT_clean_sbu_0, # of connection points: 5
#     Node 11, Type 0, BuildingBlock: XOMCOT_clean_sbu_0, # of connection points: 5
#     Node 12, Type 0, BuildingBlock: XOMCOT_clean_sbu_0, # of connection points: 5
#     Node 13, Type 0, BuildingBlock: XOMCOT_clean_sbu_0, # of connection points: 5
#     Node 14, Type 0, BuildingBlock: XOMCOT_clean_sbu_0, # of connection points: 5
#     Node 15, Type 0, BuildingBlock: XOMCOT_clean_sbu_0, # of connection points: 5
#     Edge 16, Type (0, 0), BuildingBlock: EZIPEK_clean_linker_0, # of connection points: 2
#     Edge 17, Type (0, 0), BuildingBlock: EZIPEK_clean_linker_0, # of connection points: 2
#     Edge 18, Type (0, 0), BuildingBlock: EZIPEK_clean_linker_0, # of connection points: 2
#     Edge 19, Type (0, 0), BuildingBlock: EZIPEK_clean_linker_0, # of connection points: 2
#     Edge 20, Type (0, 0), BuildingBlock: EZIPEK_clean_linker_0, # of connection points: 2
#     Edge 21, Type (0, 0), BuildingBlock: EZIPEK_clean_linker_0, # of connection points: 2
#     Edge 22, Type (0, 0), BuildingBlock: EZIPEK_clean_linker_0, # of connection points: 2
#     Edge 23, Type (0, 0), BuildingBlock: EZIPEK_clean_linker_0, # of connection points: 2
#     Edge 24, Type (0, 0), BuildingBlock: EZIPEK_clean_linker_0, # of connection points: 2
#     Edge 25, Type (0, 0), BuildingBlock: EZIPEK_clean_linker_0, # of connection points: 2
#     Edge 26, Type (0, 0), BuildingBlock: EZIPEK_clean_linker_0, # of connection points: 2
#     Edge 27, Type (0, 0), BuildingBlock: EZIPEK_clean_linker_0, # of connection points: 2
#     Edge 28, Type (0, 0), BuildingBlock: EZIPEK_clean_linker_0, # of connection points: 2
#     Edge 29, Type (0, 0), BuildingBlock: EZIPEK_clean_linker_0, # of connection points: 2
#     Edge 30, Type (0, 0), BuildingBlock: EZIPEK_clean_linker_0, # of connection points: 2
#     Edge 31, Type (0, 0), BuildingBlock: EZIPEK_clean_linker_0, # of connection points: 2
#     Edge 32, Type (0, 0), BuildingBlock: EZIPEK_clean_linker_0, # of connection points: 2
#     Edge 33, Type (0, 0), BuildingBlock: EZIPEK_clean_linker_0, # of connection points: 2
#     Edge 34, Type (0, 0), BuildingBlock: EZIPEK_clean_linker_0, # of connection points: 2
#     Edge 35, Type (0, 0), BuildingBlock: EZIPEK_clean_linker_0, # of connection points: 2
#     Edge 36, Type (0, 0), BuildingBlock: EZIPEK_clean_linker_0, # of connection points: 2
#     Edge 37, Type (0, 0), BuildingBlock: EZIPEK_clean_linker_0, # of connection points: 2
#     Edge 38, Type (0, 0), BuildingBlock: EZIPEK_clean_linker_0, # of connection points: 2
#     Edge 39, Type (0, 0), BuildingBlock: EZIPEK_clean_linker_0, # of connection points: 2
#     Edge 40, Type (0, 0), BuildingBlock: EZIPEK_clean_linker_0, # of connection points: 2
#     Edge 41, Type (0, 0), BuildingBlock: EZIPEK_clean_linker_0, # of connection points: 2
#     Edge 42, Type (0, 0), BuildingBlock: EZIPEK_clean_linker_0, # of connection points: 2
#     Edge 43, Type (0, 0), BuildingBlock: EZIPEK_clean_linker_0, # of connection points: 2
#     Edge 44, Type (0, 0), BuildingBlock: EZIPEK_clean_linker_0, # of connection points: 2
#     Edge 45, Type (0, 0), BuildingBlock: EZIPEK_clean_linker_0, # of connection points: 2
#     Edge 46, Type (0, 0), BuildingBlock: EZIPEK_clean_linker_0, # of connection points: 2
#     Edge 47, Type (0, 0), BuildingBlock: EZIPEK_clean_linker_0, # of connection points: 2
#     Edge 48, Type (0, 0), BuildingBlock: EZIPEK_clean_linker_0, # of connection points: 2
#     Edge 49, Type (0, 0), BuildingBlock: EZIPEK_clean_linker_0, # of connection points: 2
#     Edge 50, Type (0, 0), BuildingBlock: EZIPEK_clean_linker_0, # of connection points: 2
#     Edge 51, Type (0, 0), BuildingBlock: EZIPEK_clean_linker_0, # of connection points: 2
#     Edge 52, Type (0, 0), BuildingBlock: EZIPEK_clean_linker_0, # of connection points: 2
#     Edge 53, Type (0, 0), BuildingBlock: EZIPEK_clean_linker_0, # of connection points: 2
#     Edge 54, Type (0, 0), BuildingBlock: EZIPEK_clean_linker_0, # of connection points: 2
#     Edge 55, Type (0, 0), BuildingBlock: EZIPEK_clean_linker_0, # of connection points: 2
# Relax obj value: 0.183
# Max RMSD: 0.214
# Mean RMSD: 0.214
data_MOF--net-ghw--node1-XOMCOT_clean_sbu_0--edge1-EZIPEK_clean_linker_0
_symmetry_space_group_name_H-M    P1
_symmetry_Int_Tables_number       1
_symmetry_cell_setting            triclinic
loop_
_symmetry_equiv_pos_as_xyz
'x, y, z'
_cell_length_a     25.430262
_cell_length_b     29.292039
_cell_length_c     26.588203
_cell_angle_alpha  90.204212
_cell_angle_beta   91.561222
_cell_angle_gamma 90.083056
loop_
_atom_site_label
_atom_site_type_symbol
_atom_site_fract_x
_atom_site_fract_y
_atom_site_fract_z
_atom_type_partial_charge
Co0 Co 0.14589 0.13953 0.42701 0.0
C1 C 0.25293 0.10491 0.42187 0.0
C2 C 0.21424 0.07169 0.48153 0.0
C3 C 0.26705 0.06123 0.48466 0.0
N4 N 0.20527 0.0993 0.44181 0.0
N5 N 0.29233 0.08502 0.44904 0.0
H6 H 0.25905 0.12551 0.38923 0.0
H7 H 0.18562 0.06197 0.50869 0.0
C8 C 0.09315 0.05013 0.45636 0.0
O9 O 0.12872 0.02539 0.43396 0.0
N10 N 0.08776 0.18018 0.41097 0.0
C11 C 0.08651 0.20926 0.37175 0.0
C12 C 0.03532 0.22246 0.36209 0.0
C13 C 0.03725 0.17686 0.42535 0.0
N14 N 1.00437 0.20194 0.39563 0.0
C15 C 0.17599 0.13484 0.3238 0.0
C16 C 0.09798 0.07636 0.28864 0.0
C17 C 0.13398 0.09378 0.25455 0.0
C18 C 0.17337 0.12321 0.27282 0.0
C19 C 0.10176 0.08916 0.33961 0.0
N20 N 0.1414 0.11718 0.35715 0.0
H21 H 0.20488 0.15978 0.33576 0.0
H22 H 0.07131 0.07788 0.36398 0.0
H23 H 0.11994 0.21766 0.34927 0.0
H24 H 0.02406 0.15429 0.45457 0.0
O25 O 0.19574 0.18989 0.41999 0.0
O26 O 0.15959 0.17046 0.49122 0.0
O27 O 0.09351 0.09357 0.45275 0.0
C28 C 0.19292 0.19623 0.46829 0.0
H29 H 0.28424 0.03844 0.51221 0.0
H30 H 0.02144 0.24381 0.33133 0.0
H31 H 0.06594 0.05467 0.27555 0.0
H32 H 0.20109 0.13831 0.24746 0.0
Co33 Co 0.13241 0.13692 0.86633 0.0
C34 C 0.02871 0.09725 0.88696 0.0
C35 C 0.06844 0.05715 0.83216 0.0
C36 C 0.01998 0.03764 0.84022 0.0
N37 N 0.07379 0.09454 0.86165 0.0
N38 N 0.99477 0.06348 0.874 0.0
H39 H 0.02088 0.12326 0.91466 0.0
H40 H 0.09715 0.04512 0.80599 0.0
C41 C 0.21872 0.06546 0.84914 0.0
O42 O 0.23899 0.07005 0.89482 0.0
N43 N 0.19198 0.18055 0.87127 0.0
C44 C 0.19044 0.22291 0.89166 0.0
C45 C 0.24092 0.23862 0.90086 0.0
C46 C 0.24414 0.17319 0.865 0.0
N47 N 0.27492 0.20732 0.88392 0.0
C48 C 0.14439 0.15108 0.97252 0.0
C49 C 0.14293 0.06065 1.00104 0.0
C50 C 0.14278 0.09455 0.03845 0.0
C51 C 0.14454 0.14017 1.0235 0.0
C52 C 0.14378 0.07306 0.95006 0.0
N53 N 0.14496 0.118 0.93619 0.0
H54 H 0.14022 0.18638 0.96267 0.0
H55 H 0.14119 0.04655 0.92174 0.0
H56 H 0.15519 0.24044 0.90264 0.0
H57 H 0.26054 0.14306 0.84877 0.0
O58 O 0.08293 0.18636 0.87776 0.0
O59 O 0.10858 0.1633 0.80329 0.0
O60 O 0.17823 0.08832 0.83549 0.0
C61 C 0.0783 0.18985 0.82905 0.0
H62 H 1.00374 0.00783 0.82138 0.0
H63 H 0.25175 0.26986 0.92042 0.0
H64 H 0.14096 0.02509 1.01102 0.0
H65 H 0.14328 0.16741 0.05106 0.0
Co66 Co 0.88506 0.8754 0.61424 0.0
C67 C 0.78637 0.91756 0.63856 0.0
C68 C 0.8094 0.94175 0.56661 0.0
C69 C 0.75871 0.95657 0.57504 0.0
N70 N 0.82688 0.91775 0.60703 0.0
N71 N 0.74456 0.94055 0.62014 0.0
H72 H 0.78508 0.89683 0.67203 0.0
H73 H 0.8303 0.94559 0.53207 0.0
C74 C 0.93716 0.96477 0.58217 0.0
O75 O 0.89864 0.99053 0.59772 0.0
N76 N 0.94218 0.83175 0.62376 0.0
C77 C 0.94172 0.79603 0.65567 0.0
C78 C 0.99246 0.78221 0.66588 0.0
C79 C 0.99353 0.83756 0.61315 0.0
N80 N 0.02515 0.80828 0.63915 0.0
C81 C 0.86964 0.86154 0.71925 0.0
C82 C 0.91277 0.9421 0.75523 0.0
C83 C 0.891 0.91146 0.78936 0.0
C84 C 0.86985 0.87056 0.7707 0.0
C85 C 0.9134 0.93096 0.70383 0.0
N86 N 0.89149 0.89119 0.68607 0.0
H87 H 0.85017 0.83091 0.7062 0.0
H88 H 0.93089 0.95482 0.67893 0.0
H89 H 0.90733 0.78245 0.67317 0.0
H90 H 1.00824 0.8646 0.58977 0.0
O91 O 0.833 0.82689 0.61734 0.0
O92 O 0.86898 0.85071 0.54761 0.0
O93 O 0.93867 0.92202 0.59166 0.0
C94 C 0.83491 0.82433 0.56859 0.0
H95 H 0.7327 0.9737 0.54834 0.0
H96 H 1.00465 0.75624 0.69262 0.0
H97 H 0.92941 0.97418 0.76823 0.0
H98 H 0.85225 0.84611 0.79568 0.0
Co99 Co 0.89293 0.87589 0.18052 0.0
C100 C 0.99551 0.91666 0.16485 0.0
C101 C 0.9648 0.94277 0.23322 0.0
C102 C 0.01568 0.95877 0.22873 0.0
N103 N 0.95193 0.917 0.19241 0.0
N104 N 0.0347 0.94156 0.18588 0.0
H105 H 1.00053 0.8955 0.13205 0.0
H106 H 0.94034 0.94743 0.26542 0.0
C107 C 0.84206 0.96598 0.21044 0.0
O108 O 0.87997 0.99042 0.19144 0.0
N109 N 0.83503 0.83402 0.16716 0.0
C110 C 0.83238 0.8041 0.12852 0.0
C111 C 0.78102 0.79058 0.12082 0.0
C112 C 0.78532 0.83681 0.18377 0.0
N113 N 0.75133 0.81123 0.15541 0.0
C114 C 0.9184 0.87053 0.07654 0.0
C115 C 0.85482 0.93977 0.04008 0.0
C116 C 0.8852 0.91492 1.0063 0.0
C117 C 0.91708 0.87991 0.02527 0.0
C118 C 0.85603 0.92828 0.09139 0.0
N119 N 0.8886 0.89459 0.1095 0.0
H120 H 0.9434 0.84307 0.08933 0.0
H121 H 0.82976 0.946 0.11559 0.0
H122 H 0.86488 0.79488 0.10526 0.0
H123 H 0.7734 0.8595 0.21356 0.0
O124 O 0.94311 0.82622 0.17553 0.0
O125 O 0.90678 0.84818 0.24603 0.0
O126 O 0.84024 0.92275 0.20399 0.0
C127 C 0.94019 0.8218 0.22392 0.0
H128 H 0.03825 0.97811 0.25652 0.0
H129 H 0.76613 0.7688 0.09065 0.0
H130 H 0.82922 0.96678 0.02661 0.0
H131 H 0.94095 0.85971 1.00047 0.0
Co132 Co 0.13845 0.63431 0.93023 0.0
C133 C 0.2424 0.59573 0.91734 0.0
C134 C 0.21161 0.57327 0.98673 0.0
C135 C 0.26448 0.56324 0.98627 0.0
N136 N 0.19775 0.59399 0.94329 0.0
N137 N 0.28502 0.58065 0.94393 0.0
H138 H 0.24377 0.60995 0.88027 0.0
H139 H 0.18602 0.5682 1.018 0.0
C140 C 0.08954 0.54483 0.96409 0.0
O141 O 0.1282 0.52083 0.94573 0.0
N142 N 0.08051 0.67559 0.91596 0.0
C143 C 0.07929 0.70682 0.87879 0.0
C144 C 0.02816 0.72075 0.87032 0.0
C145 C 0.03019 0.67191 0.93055 0.0
N146 N 0.99735 0.69869 0.90276 0.0
C147 C 0.16255 0.63572 0.82559 0.0
C148 C 0.09396 0.56847 0.79188 0.0
C149 C 0.12435 0.59158 0.75675 0.0
C150 C 0.15905 0.62539 0.77438 0.0
C151 C 0.09805 0.58043 0.84316 0.0
N152 N 0.1329 0.61322 0.85984 0.0
H153 H 0.18902 0.66269 0.83737 0.0
H154 H 0.07193 0.56399 0.86853 0.0
H155 H 0.11264 0.71652 0.85686 0.0
H156 H 0.01695 0.6478 0.95825 0.0
O157 O 0.18889 0.68409 0.92353 0.0
O158 O 0.15298 0.6645 0.99467 0.0
O159 O 0.08633 0.58778 0.95602 0.0
C160 C 0.18672 0.68996 0.97191 0.0
H161 H 0.28539 0.54519 1.01587 0.0
H162 H 0.01419 0.74353 0.8409 0.0
H163 H 0.06619 0.54239 0.77957 0.0
H164 H 0.18301 0.64424 0.74853 0.0
Co165 Co 0.12364 0.63571 0.36589 0.0
C166 C 0.01582 0.60738 0.38116 0.0
C167 C 0.04868 0.56731 0.32208 0.0
C168 C 0.9972 0.5535 0.32849 0.0
N169 N 0.0598 0.60126 0.35518 0.0
N170 N 0.97746 0.57867 0.36594 0.0
H171 H 0.01124 0.63321 0.40988 0.0
H172 H 0.07537 0.55438 0.29446 0.0
C173 C 0.21184 0.56911 0.34436 0.0
O174 O 0.2424 0.586 0.38046 0.0
N175 N 0.18815 0.67094 0.37822 0.0
C176 C 0.20482 0.68781 0.42323 0.0
C177 C 0.25505 0.7036 0.41975 0.0
C178 C 0.2285 0.67929 0.34708 0.0
N179 N 0.27056 0.69787 0.37222 0.0
C180 C 0.1011 0.64446 0.47023 0.0
C181 C 0.14017 0.56198 0.50346 0.0
C182 C 0.1204 0.59276 0.53889 0.0
C183 C 0.10018 0.6342 0.52124 0.0
C184 C 0.14134 0.57396 0.4523 0.0
N185 N 0.12378 0.61572 0.4364 0.0
H186 H 0.08532 0.67694 0.45854 0.0
H187 H 0.15583 0.54934 0.42594 0.0
H188 H 0.18343 0.68809 0.45744 0.0
H189 H 0.22769 0.67076 0.30752 0.0
O190 O 0.08183 0.69079 0.37177 0.0
O191 O 0.11294 0.66447 0.30066 0.0
O192 O 0.16386 0.58135 0.33994 0.0
C193 C 0.08352 0.69399 0.32315 0.0
H194 H 0.97545 0.5284 0.30657 0.0
H195 H 0.27915 0.71745 0.4504 0.0
H196 H 0.15564 0.52948 0.51547 0.0
H197 H 0.08351 0.65872 0.54676 0.0
Co198 Co 0.88109 0.36951 0.12607 0.0
C199 C 0.78027 0.41751 0.13675 0.0
C200 C 0.81555 0.43588 0.06766 0.0
C201 C 0.76633 0.45548 0.0689 0.0
N202 N 0.82478 0.41267 0.11079 0.0
N203 N 0.74377 0.4427 0.11189 0.0
H204 H 0.77233 0.39974 0.17114 0.0
H205 H 0.84124 0.43656 0.03612 0.0
C206 C 0.93737 0.45576 0.09232 0.0
O207 O 0.90316 0.48193 0.11471 0.0
N208 N 0.93686 0.32606 0.1428 0.0
C209 C 0.93181 0.28916 0.17263 0.0
C210 C 0.98109 0.27395 0.18762 0.0
C211 C 0.9895 0.33265 0.1402 0.0
N212 N 0.01724 0.30132 0.16714 0.0
C213 C 0.85367 0.37551 0.22885 0.0
C214 C 0.93204 0.43426 0.26232 0.0
C215 C 0.89601 0.41743 0.29681 0.0
C216 C 0.85654 0.38785 0.27928 0.0
C217 C 0.92793 0.42069 0.2116 0.0
N218 N 0.88797 0.39267 0.19501 0.0
H219 H 0.82364 0.3514 0.21757 0.0
H220 H 0.95814 0.43133 0.18667 0.0
H221 H 0.89495 0.27615 0.186 0.0
H222 H 1.00755 0.36153 0.12224 0.0
O223 O 0.8278 0.3227 0.13597 0.0
O224 O 0.86372 0.33775 0.0634 0.0
O225 O 0.93572 0.41239 0.09753 0.0
C226 C 0.82907 0.31473 0.08805 0.0
H227 H 0.74696 0.47423 0.03874 0.0
H228 H 0.98974 0.24657 0.21381 0.0
H229 H 0.96419 0.45604 0.27473 0.0
H230 H 0.82827 0.37369 0.30471 0.0
Co231 Co 0.87673 0.35781 0.67825 0.0
C232 C 0.97458 0.40223 0.65161 0.0
C233 C 0.95725 0.41756 0.72821 0.0
C234 C 1.00602 0.43552 0.71804 0.0
N235 N 0.93692 0.398 0.68587 0.0
N236 N 0.01711 0.42459 0.6702 0.0
H237 H 0.97314 0.38537 0.6153 0.0
H238 H 0.93907 0.41682 0.76452 0.0
C239 C 0.8353 0.44584 0.72393 0.0
O240 O 0.87241 0.47007 0.70347 0.0
N241 N 0.81711 0.31646 0.6687 0.0
C242 C 0.81881 0.27308 0.65128 0.0
C243 C 0.76913 0.25994 0.63505 0.0
C244 C 0.76593 0.3286 0.66349 0.0
N245 N 0.73584 0.29472 0.64323 0.0
C246 C 0.87654 0.34707 0.57213 0.0
C247 C 0.85781 0.43683 0.54604 0.0
C248 C 0.87206 0.40583 0.50858 0.0
C249 C 0.87955 0.36009 0.52191 0.0
C250 C 0.85371 0.42205 0.59583 0.0
N251 N 0.86563 0.37811 0.60885 0.0
H252 H 0.88535 0.31212 0.5817 0.0
H253 H 0.84229 0.44649 0.62338 0.0
H254 H 0.85413 0.25319 0.64682 0.0
H255 H 0.75129 0.36258 0.67073 0.0
O256 O 0.92592 0.30832 0.66664 0.0
O257 O 0.8975 0.32866 0.74101 0.0
O258 O 0.82757 0.40476 0.70868 0.0
C259 C 0.92861 0.30293 0.71514 0.0
H260 H 0.03346 0.45083 0.74503 0.0
H261 H 0.75858 0.22801 0.61676 0.0
H262 H 0.85043 0.47218 0.53699 0.0
H263 H 0.88987 0.3349 0.49398 0.0
Co264 Co 0.64309 0.13635 0.93027 0.0
C265 C 0.74442 0.09001 0.91524 0.0
C266 C 0.7132 0.07402 0.98703 0.0
C267 C 0.76197 0.05403 0.98385 0.0
N268 N 0.70151 0.09536 0.94337 0.0
N269 N 0.78238 0.06551 0.9393 0.0
H270 H 0.74985 0.10711 0.87977 0.0
H271 H 0.68924 0.07529 1.01994 0.0
C272 C 0.59377 0.04466 0.95927 0.0
O273 O 0.63238 0.0211 0.94015 0.0
N274 N 0.5847 0.17819 0.91642 0.0
C275 C 0.5849 0.21233 0.88252 0.0
C276 C 0.53411 0.22653 0.87289 0.0
C277 C 0.53348 0.17361 0.9285 0.0
N278 N 0.5015 0.20242 0.90188 0.0
C279 C 0.66714 0.14772 0.82719 0.0
C280 C 0.62026 0.0704 0.78731 0.0
C281 C 0.64521 0.10085 0.75485 0.0
C282 C 0.6684 0.13994 0.77575 0.0
C283 C 0.61781 0.08059 0.839 0.0
N284 N 0.64156 0.11887 0.8587 0.0
H285 H 0.68716 0.17769 0.84109 0.0
H286 H 0.59662 0.05763 0.86225 0.0
H287 H 0.61919 0.22478 0.86385 0.0
H288 H 0.51929 0.14807 0.95414 0.0
O289 O 0.69331 0.18632 0.92688 0.0
O290 O 0.65623 0.16393 0.99648 0.0
O291 O 0.59032 0.08794 0.95229 0.0
C292 C 0.69024 0.19037 0.97517 0.0
H293 H 0.78271 0.03608 1.01378 0.0
H294 H 0.52184 0.25164 0.84519 0.0
H295 H 0.60166 0.03971 0.77262 0.0
H296 H 0.68862 0.16419 0.7525 0.0
Co297 Co 0.6363 0.14588 0.36381 0.0
C298 C 0.53741 0.10293 0.38956 0.0
C299 C 0.56102 0.07794 0.31795 0.0
C300 C 0.51121 0.06137 0.3271 0.0
N301 N 0.57755 0.10373 0.35759 0.0
N302 N 0.49694 0.07745 0.3722 0.0
H303 H 0.53512 0.12416 0.42263 0.0
H304 H 0.58193 0.0738 0.28347 0.0
C305 C 0.68647 0.05517 0.334 0.0
O306 O 0.65037 0.03088 0.35607 0.0
N307 N 0.69446 0.18862 0.37227 0.0
C308 C 0.69662 0.22208 0.40728 0.0
C309 C 0.74828 0.23439 0.41628 0.0
C310 C 0.74508 0.18219 0.35931 0.0
N311 N 0.77879 0.20918 0.38627 0.0
C312 C 0.61885 0.15466 0.46939 0.0
C313 C 0.68164 0.08372 0.50316 0.0
C314 C 0.65231 0.10831 0.53796 0.0
C315 C 0.62139 0.14461 0.52058 0.0
C316 C 0.67883 0.09565 0.45204 0.0
N317 N 0.64592 0.12955 0.43518 0.0
H318 H 0.59407 0.18258 0.45741 0.0
H319 H 0.70385 0.0779 0.42684 0.0
H320 H 0.66351 0.23397 0.42828 0.0
H321 H 0.75783 0.15577 0.3339 0.0
O322 O 0.58509 0.19505 0.36956 0.0
O323 O 0.61758 0.17152 0.29814 0.0
O324 O 0.68762 0.09865 0.33834 0.0
C325 C 0.58489 0.19816 0.3208 0.0
H326 H 0.48592 0.04237 0.30114 0.0
H327 H 0.76267 0.25812 0.4448 0.0
H328 H 0.70703 0.05606 0.51551 0.0
H329 H 0.59888 0.16492 0.54647 0.0
Co330 Co 0.38437 0.86978 0.1144 0.0
C331 C 0.28106 0.90886 0.12978 0.0
C332 C 0.3096 0.9291 0.05861 0.0
C333 C 0.25694 0.93965 0.0604 0.0
N334 N 0.32474 0.90968 0.1023 0.0
N335 N 0.23769 0.92373 0.10404 0.0
H336 H 0.28094 0.89534 0.16734 0.0
H337 H 0.33402 0.93216 0.02622 0.0
C338 C 0.43297 0.96087 0.0823 0.0
O339 O 0.39401 0.98487 0.10008 0.0
N340 N 0.44303 0.82875 0.12824 0.0
C341 C 0.44237 0.79346 0.16075 0.0
C342 C 0.4932 0.77997 0.17174 0.0
C343 C 0.49457 0.83554 0.11915 0.0
N344 N 0.52596 0.80638 0.14551 0.0
C345 C 0.36252 0.86032 0.21873 0.0
C346 C 0.41752 0.93494 0.25594 0.0
C347 C 0.39244 0.90598 0.28971 0.0
C348 C 0.36453 0.86852 0.27038 0.0
C349 C 0.41493 0.92521 0.20406 0.0
N350 N 0.38766 0.88812 0.18576 0.0
H351 H 0.34052 0.83102 0.20555 0.0
H352 H 0.43529 0.94752 0.17945 0.0
H353 H 0.40761 0.78016 0.17803 0.0
H354 H 0.50944 0.86298 0.09641 0.0
O355 O 0.3344 0.81932 0.11804 0.0
O356 O 0.37146 0.84148 0.04849 0.0
O357 O 0.43628 0.91789 0.09076 0.0
C358 C 0.33763 0.8149 0.0696 0.0
H359 H 0.23531 0.95704 0.03077 0.0
H360 H 0.50538 0.75413 0.19863 0.0
H361 H 0.43948 0.96437 0.26963 0.0
H362 H 0.34454 0.84541 0.29517 0.0
Co363 Co 0.3936 0.86847 0.68392 0.0
C364 C 0.50009 0.90276 0.67383 0.0
C365 C 0.46562 0.93366 0.73768 0.0
C366 C 0.51837 0.94423 0.73803 0.0
N367 N 0.45408 0.90764 0.69707 0.0
N368 N 0.54122 0.92193 0.69964 0.0
H369 H 0.50322 0.88377 0.63931 0.0
H370 H 0.43854 0.94253 0.7667 0.0
C371 C 0.34618 0.96055 0.71181 0.0
O372 O 0.38446 0.98372 0.69162 0.0
N373 N 0.33428 0.82834 0.66961 0.0
C374 C 0.33297 0.79507 0.6344 0.0
C375 C 0.28156 0.78246 0.6248 0.0
C376 C 0.2836 0.83432 0.68225 0.0
N377 N 0.25054 0.80723 0.65476 0.0
C378 C 0.41984 0.85809 0.58069 0.0
C379 C 0.36685 0.9323 0.54115 0.0
C380 C 0.39378 0.90339 0.50831 0.0
C381 C 0.41986 0.86561 0.52903 0.0
C382 C 0.36546 0.92211 0.59277 0.0
N383 N 0.39277 0.88579 0.61241 0.0
H384 H 0.4414 0.82902 0.59477 0.0
H385 H 0.34146 0.94313 0.61594 0.0
H386 H 0.36666 0.78252 0.61476 0.0
H387 H 0.27051 0.8599 0.70854 0.0
O388 O 0.4417 0.81691 0.68171 0.0
O389 O 0.40396 0.84146 0.75037 0.0
O390 O 0.34232 0.91742 0.70539 0.0
C391 C 0.43696 0.81356 0.73003 0.0
H392 H 0.53741 0.96649 0.76532 0.0
H393 H 0.26773 0.75827 0.59651 0.0
H394 H 0.34535 0.96152 0.52671 0.0
H395 H 0.44096 0.8421 0.50546 0.0
Co396 Co 0.62736 0.65491 0.42787 0.0
C397 C 0.73342 0.62129 0.4187 0.0
C398 C 0.69376 0.58021 0.47209 0.0
C399 C 0.74608 0.56747 0.47136 0.0
N400 N 0.68667 0.61493 0.43973 0.0
N401 N 0.77205 0.59562 0.44002 0.0
H402 H 0.738 0.64439 0.38767 0.0
H403 H 0.66375 0.56589 0.49539 0.0
C404 C 0.54193 0.58048 0.44211 0.0
O405 O 0.52206 0.58291 0.39604 0.0
N406 N 0.56816 0.69654 0.41373 0.0
C407 C 0.5722 0.73735 0.39029 0.0
C408 C 0.52335 0.75176 0.37384 0.0
C409 C 0.51573 0.68814 0.41295 0.0
N410 N 0.4879 0.72079 0.3882 0.0
C411 C 0.6307 0.66329 0.32112 0.0
C412 C 0.62608 0.5714 0.29765 0.0
C413 C 0.63174 0.60323 0.25896 0.0
C414 C 0.63399 0.64955 0.27116 0.0
C415 C 0.62283 0.58674 0.34756 0.0
N416 N 0.62348 0.63241 0.35866 0.0
H417 H 0.63664 0.69882 0.32957 0.0
H418 H 0.62166 0.56185 0.37737 0.0
H419 H 0.6085 0.75423 0.38145 0.0
H420 H 0.49755 0.65824 0.42792 0.0
O421 O 0.67702 0.70517 0.42017 0.0
O422 O 0.64235 0.68486 0.49201 0.0
O423 O 0.5803 0.60601 0.45627 0.0
C424 C 0.67556 0.71044 0.46876 0.0
H425 H 0.76287 0.5392 0.49222 0.0
H426 H 0.51472 0.78148 0.35097 0.0
H427 H 0.62546 0.5352 0.28952 0.0
H428 H 0.63954 0.67498 0.24232 0.0
Co429 Co 0.63084 0.63338 0.87128 0.0
C430 C 0.52809 0.59276 0.88671 0.0
C431 C 0.56045 0.56427 0.8202 0.0
C432 C 0.51034 0.54679 0.82555 0.0
N433 N 0.57186 0.59232 0.8595 0.0
N434 N 0.49028 0.56552 0.86719 0.0
H435 H 0.52192 0.6152 0.91822 0.0
H436 H 0.58544 0.55873 0.78849 0.0
C437 C 0.67887 0.54324 0.84005 0.0
O438 O 0.64742 0.52046 0.86932 0.0
N439 N 0.68871 0.67521 0.88492 0.0
C440 C 0.69012 0.70617 0.92264 0.0
C441 C 0.74127 0.72011 0.93131 0.0
C442 C 0.73902 0.67173 0.87029 0.0
N443 N 0.77198 0.69835 0.89845 0.0
C444 C 0.60559 0.63523 0.97508 0.0
C445 C 0.67608 0.5706 1.01034 0.0
C446 C 0.64339 0.5926 0.04451 0.0
C447 C 0.60806 0.62529 0.0261 0.0
C448 C 0.67334 0.58256 0.95914 0.0
N449 N 0.63697 0.61349 0.94162 0.0
H450 H 0.57853 0.66144 0.96299 0.0
H451 H 0.7015 0.56766 0.93448 0.0
H452 H 0.6569 0.71549 0.94497 0.0
H453 H 0.75226 0.6477 0.84261 0.0
O454 O 0.58064 0.68275 0.87838 0.0
O455 O 0.61568 0.66235 0.80676 0.0
O456 O 0.68189 0.58658 0.84489 0.0
C457 C 0.58263 0.68819 0.83003 0.0
H458 H 0.48909 0.52496 0.79919 0.0
H459 H 0.75531 0.74262 0.96117 0.0
H460 H 0.70457 0.54566 1.02341 0.0
H461 H 0.58241 0.64337 0.05119 0.0
Co462 Co 0.37214 0.38693 0.61264 0.0
C463 C 0.26068 0.40634 0.61495 0.0
C464 C 0.29559 0.44667 0.55808 0.0
C465 C 0.24152 0.45098 0.55399 0.0
N466 N 0.30713 0.41796 0.5961 0.0
N467 N 0.21921 0.42337 0.58827 0.0
H468 H 0.25786 0.38483 0.64748 0.0
H469 H 0.32405 0.46181 0.53364 0.0
C470 C 0.45896 0.45524 0.59072 0.0
O471 O 0.49082 0.43855 0.62565 0.0
N472 N 0.43753 0.3548 0.63013 0.0
C473 C 0.45423 0.34369 0.67718 0.0
C474 C 0.50413 0.32656 0.67578 0.0
C475 C 0.47765 0.34219 0.60033 0.0
N476 N 0.51938 0.32602 0.62776 0.0
C477 C 0.3408 0.38305 0.71554 0.0
C478 C 0.39186 0.46032 0.75118 0.0
C479 C 0.36852 0.43091 0.7857 0.0
C480 C 0.34111 0.3929 0.76699 0.0
C481 C 0.39047 0.4493 0.69952 0.0
N482 N 0.36738 0.40972 0.6824 0.0
H483 H 0.32157 0.35206 0.70312 0.0
H484 H 0.40879 0.47241 0.67405 0.0
H485 H 0.43294 0.34843 0.71118 0.0
H486 H 0.47701 0.34594 0.55991 0.0
O487 O 0.33246 0.33022 0.61811 0.0
O488 O 0.36672 0.35502 0.54823 0.0
O489 O 0.41121 0.44194 0.58663 0.0
C490 C 0.33668 0.32545 0.56974 0.0
H491 H 0.22125 0.47293 0.52746 0.0
H492 H 0.52814 0.31607 0.70796 0.0
H493 H 0.41201 0.49087 0.76416 0.0
H494 H 0.32179 0.36979 0.7923 0.0
Co495 Co 0.38735 0.37481 0.17735 0.0
C496 C 0.49667 0.40552 0.16376 0.0
C497 C 0.45534 0.45141 0.21176 0.0
C498 C 0.50515 0.46834 0.20519 0.0
N499 N 0.44995 0.41209 0.18553 0.0
N500 N 0.53108 0.43944 0.17515 0.0
H501 H 0.50524 0.37685 0.13955 0.0
H502 H 0.42557 0.46688 0.23447 0.0
C503 C 0.29819 0.44129 0.19861 0.0
O504 O 0.26839 0.42564 0.16124 0.0
N505 N 0.32327 0.33732 0.16836 0.0
C506 C 0.30709 0.31641 0.12533 0.0
C507 C 0.25587 0.30281 0.12913 0.0
C508 C 0.28154 0.33304 0.19908 0.0
N509 N 0.23895 0.31369 0.17517 0.0
C510 C 0.40199 0.36523 0.07117 0.0
C511 C 0.36662 0.44993 0.04099 0.0
C512 C 0.38136 0.41846 1.00387 0.0
C513 C 0.39945 0.37569 1.01996 0.0
C514 C 0.36785 0.43736 0.0921 0.0
N515 N 0.38314 0.3945 0.10658 0.0
H516 H 0.41748 0.33235 0.082 0.0
H517 H 0.35756 0.46259 0.11969 0.0
H518 H 0.32963 0.31175 0.09219 0.0
H519 H 0.28202 0.3447 0.23757 0.0
O520 O 0.43161 0.32098 0.17058 0.0
O521 O 0.40251 0.34719 0.24258 0.0
O522 O 0.3455 0.42773 0.20428 0.0
C523 C 0.43217 0.31829 0.21942 0.0
H524 H 0.52155 0.49886 0.22223 0.0
H525 H 0.23212 0.28696 0.09946 0.0
H526 H 0.35357 0.48369 0.0305 0.0
H527 H 0.41233 0.35053 0.99305 0.0
C528 C 0.36574 0.12364 0.4057 0.0
C529 C 0.34845 0.09005 0.43974 0.0
C530 C 0.43418 0.0528 0.43541 0.0
C531 C 0.4453 0.07934 0.39256 0.0
N532 N 0.42318 0.14238 0.33798 0.0
N533 N 0.38377 0.04918 0.51109 0.0
C534 C 0.41137 0.11544 0.3779 0.0
C535 C 0.38716 0.06109 0.4618 0.0
N536 N 0.34315 0.16586 0.40577 0.0
N537 N 0.4694 0.0206 0.45142 0.0
H538 H 0.35796 0.06595 0.53467 0.0
H539 H 0.41225 0.03032 0.53066 0.0
H540 H 0.50431 0.01434 0.43283 0.0
H541 H 0.46243 0.99858 0.48111 0.0
H542 H 0.35701 0.19327 0.38502 0.0
H543 H 0.31524 0.17483 0.43215 0.0
H544 H 0.39703 0.16637 0.32282 0.0
H545 H 0.45752 0.13854 0.31795 0.0
C546 C 0.91744 0.16236 0.39172 0.0
C547 C 0.94743 0.20321 0.39528 0.0
C548 C 0.86602 0.24759 0.38619 0.0
C549 C 0.83578 0.20695 0.38888 0.0
N550 N 0.83436 0.12673 0.40983 0.0
N551 N 0.94875 0.2845 0.40821 0.0
C552 C 0.8619 0.16451 0.39611 0.0
C553 C 0.92119 0.24583 0.39617 0.0
N554 N 0.94138 0.12177 0.38181 0.0
N555 N 0.84247 0.28759 0.3722 0.0
H556 H 0.98875 0.28409 0.41797 0.0
H557 H 0.93067 0.31584 0.41398 0.0
H558 H 0.80278 0.28959 0.36158 0.0
H559 H 0.86349 0.31751 0.36602 0.0
H560 H 0.9204 0.09172 0.37474 0.0
H561 H 0.98139 0.1192 0.37486 0.0
H562 H 0.85249 0.09593 0.41933 0.0
H563 H 0.79451 0.12773 0.41788 0.0
C564 C 0.41373 0.16362 0.89904 0.0
C565 C 0.44421 0.20421 0.89975 0.0
C566 C 0.36258 0.24717 0.88277 0.0
C567 C 0.33203 0.20721 0.89063 0.0
N568 N 0.33247 0.13162 0.92676 0.0
N569 N 0.4433 0.28658 0.90635 0.0
C570 C 0.3587 0.16659 0.90493 0.0
C571 C 0.41735 0.24674 0.89592 0.0
N572 N 0.43594 0.12242 0.88917 0.0
N573 N 0.34055 0.28471 0.8606 0.0
H574 H 0.48196 0.28734 0.92043 0.0
H575 H 0.42435 0.3181 0.90689 0.0
H576 H 0.30209 0.28497 0.84606 0.0
H577 H 0.36259 0.31332 0.85118 0.0
H578 H 0.41312 0.09302 0.88441 0.0
H579 H 0.47482 0.11907 0.87838 0.0
H580 H 0.35165 0.10231 0.93975 0.0
H581 H 0.29383 0.13505 0.93834 0.0
C582 C 0.89855 0.05508 0.85548 0.0
C583 C 0.94139 0.05883 0.89068 0.0
C584 C 0.87914 0.07076 0.9578 0.0
C585 C 0.83633 0.06068 0.92393 0.0
N586 N 0.80803 0.03146 0.84265 0.0
N587 N 0.97102 0.05696 0.97749 0.0
C588 C 0.84696 0.04886 0.87342 0.0
C589 C 0.93116 0.06211 0.9426 0.0
N590 N 0.90612 0.06082 0.80529 0.0
N591 N 0.87116 0.09236 1.00251 0.0
H592 H 1.0093 0.04878 0.96754 0.0
H593 H 0.96445 0.05542 1.016 0.0
H594 H 0.83482 0.10525 1.01261 0.0
H595 H 0.90208 0.10323 0.02621 0.0
H596 H 0.87512 0.06217 0.77885 0.0
H597 H 0.94234 0.06962 0.79074 0.0
H598 H 0.81488 0.0195 0.80643 0.0
H599 H 0.77059 0.02402 0.85547 0.0
C600 C 0.68236 0.95714 0.68683 0.0
C601 C 0.69279 0.93621 0.64003 0.0
C602 C 0.61298 0.8904 0.64727 0.0
C603 C 0.59673 0.91912 0.68689 0.0
N604 N 0.63457 0.94988 0.76358 0.0
N605 N 0.66936 0.87988 0.57669 0.0
C606 C 0.63623 0.94496 0.71265 0.0
C607 C 0.65825 0.90215 0.62027 0.0
N608 N 0.71737 0.98785 0.70704 0.0
N609 N 0.59096 0.84811 0.6416 0.0
H610 H 0.70397 0.88494 0.55749 0.0
H611 H 0.64249 0.85834 0.55813 0.0
H612 H 0.56507 0.83515 0.66784 0.0
H613 H 0.60418 0.82374 0.61626 0.0
H614 H 0.71026 0.00651 0.73956 0.0
H615 H 0.75183 0.99688 0.68907 0.0
H616 H 0.66413 0.96561 0.78531 0.0
H617 H 0.60861 0.93073 0.78472 0.0
C618 C 0.11029 0.76645 0.6422 0.0
C619 C 0.08212 0.80829 0.64328 0.0
C620 C 0.1659 0.84966 0.64655 0.0
C621 C 0.19361 0.80793 0.65264 0.0
N622 N 0.1898 0.72714 0.6691 0.0
N623 N 0.08501 0.88884 0.66379 0.0
C624 C 0.16503 0.76639 0.65441 0.0
C625 C 0.11038 0.84979 0.65046 0.0
N626 N 0.08545 0.72707 0.6276 0.0
N627 N 0.19181 0.8888 0.63457 0.0
H628 H 0.04529 0.88949 0.67241 0.0
H629 H 0.10499 0.91903 0.67279 0.0
H630 H 0.23176 0.88953 0.62689 0.0
H631 H 0.1722 0.91918 0.62612 0.0
H632 H 0.10512 0.69615 0.62368 0.0
H633 H 0.04663 0.7264 0.61399 0.0
H634 H 0.16985 0.69656 0.67474 0.0
H635 H 0.22917 0.72653 0.68112 0.0
C636 C 0.66463 0.851 0.1582 0.0
C637 C 0.69439 0.81001 0.15658 0.0
C638 C 0.61238 0.76678 0.14316 0.0
C639 C 0.5828 0.8072 0.15036 0.0
N640 N 0.58224 0.88427 0.1824 0.0
N641 N 0.69476 0.72782 0.16091 0.0
C642 C 0.60934 0.84833 0.16327 0.0
C643 C 0.66763 0.76746 0.15317 0.0
N644 N 0.68812 0.8924 0.15167 0.0
N645 N 0.5882 0.72825 0.12504 0.0
H646 H 0.73446 0.72738 0.1718 0.0
H647 H 0.67671 0.69592 0.16199 0.0
H648 H 0.54838 0.72727 0.11472 0.0
H649 H 0.60873 0.69887 0.1155 0.0
H650 H 0.66685 0.92275 0.14938 0.0
H651 H 0.72738 0.89594 0.14219 0.0
H652 H 0.60095 0.91345 0.19665 0.0
H653 H 0.54221 0.88249 0.18975 0.0
C654 C 0.12518 0.91143 0.19191 0.0
C655 C 0.08771 0.94076 0.16836 0.0
C656 C 0.14147 0.94299 0.09345 0.0
C657 C 0.18332 0.92189 0.12075 0.0
N658 N 0.19485 0.85801 0.17647 0.0
N659 N 0.06089 0.98644 0.09736 0.0
C660 C 0.17036 0.89829 0.16529 0.0
C661 C 0.09659 0.95761 0.11951 0.0
N662 N 0.11696 0.89465 0.23885 0.0
N663 N 0.13898 0.93969 0.04233 0.0
H664 H 0.02778 0.99795 0.116 0.0
H665 H 0.06675 1.00168 0.0626 0.0
H666 H 0.16416 0.91821 1.02298 0.0
H667 H 0.10637 0.95023 1.02078 0.0
H668 H 0.14578 0.87704 0.25953 0.0
H669 H 0.0831 0.90111 0.2587 0.0
H670 H 0.18417 0.83689 0.20595 0.0
H671 H 0.21983 0.84227 0.15118 0.0
C672 C 0.35361 0.6068 0.88453 0.0
C673 C 0.33988 0.58355 0.929 0.0
C674 C 0.42811 0.55071 0.93389 0.0
C675 C 0.43715 0.56582 0.88427 0.0
N676 N 0.40785 0.60919 0.81165 0.0
N677 N 0.38117 0.5673 1.00922 0.0
C678 C 0.39932 0.59358 0.85903 0.0
C679 C 0.38147 0.56403 0.95808 0.0
N680 N 0.32944 0.64704 0.87258 0.0
N681 N 0.46519 0.52487 0.95842 0.0
H682 H 0.35401 0.58785 0.02731 0.0
H683 H 0.41244 0.55698 0.03261 0.0
H684 H 0.50005 0.51506 0.94158 0.0
H685 H 0.45914 0.51007 0.99339 0.0
H686 H 0.34087 0.66787 0.8431 0.0
H687 H 0.30402 0.66299 0.89731 0.0
H688 H 0.3789 0.62593 0.7902 0.0
H689 H 0.4421 0.60267 0.7924 0.0
C690 C 0.85688 0.74035 0.89749 0.0
C691 C 0.8289 0.69843 0.89908 0.0
C692 C 0.9123 0.657 0.89615 0.0
C693 C 0.94045 0.69861 0.9019 0.0
N694 N 0.93873 0.77966 0.91771 0.0
N695 N 0.83202 0.61722 0.91464 0.0
C696 C 0.91246 0.74034 0.90536 0.0
C697 C 0.85714 0.65675 0.90257 0.0
N698 N 0.83064 0.77991 0.88678 0.0
N699 N 0.93759 0.61808 0.88218 0.0
H700 H 0.79255 0.6162 0.92414 0.0
H701 H 0.85198 0.58669 0.92137 0.0
H702 H 0.97723 0.61756 0.87322 0.0
H703 H 0.91769 0.58778 0.87354 0.0
H704 H 0.84955 0.81101 0.88141 0.0
H705 H 0.79041 0.78069 0.87813 0.0
H706 H 0.91979 0.81047 0.92463 0.0
H707 H 0.97903 0.78034 0.92603 0.0
C708 C 0.41343 0.68084 0.34527 0.0
C709 C 0.43299 0.71897 0.37292 0.0
C710 C 0.34431 0.75113 0.37189 0.0
C711 C 0.32339 0.70833 0.35675 0.0
N712 N 0.33898 0.63221 0.32503 0.0
N713 N 0.41641 0.79062 0.41427 0.0
C714 C 0.35816 0.67329 0.34129 0.0
C715 C 0.39846 0.75482 0.38569 0.0
N716 N 0.44778 0.65269 0.32167 0.0
N717 N 0.3112 0.78755 0.37513 0.0
H718 H 0.45535 0.79359 0.42704 0.0
H719 H 0.39157 0.81509 0.42913 0.0
H720 H 0.27137 0.78485 0.36482 0.0
H721 H 0.32398 0.82066 0.38298 0.0
H722 H 0.43589 0.62644 0.29738 0.0
H723 H 0.48821 0.65887 0.32206 0.0
H724 H 0.36244 0.60339 0.32075 0.0
H725 H 0.29949 0.62661 0.3165 0.0
C726 C 0.86544 0.5686 0.45326 0.0
C727 C 0.82788 0.59702 0.42847 0.0
C728 C 0.89112 0.61467 0.36409 0.0
C729 C 0.92477 0.58037 0.38341 0.0
N730 N 0.94695 0.52591 0.44776 0.0
N731 N 0.82876 0.67099 0.3892 0.0
C732 C 0.91266 0.5575 0.42845 0.0
C733 C 0.84659 0.62714 0.39136 0.0
N734 N 0.86071 0.55978 0.50323 0.0
N735 N 0.90277 0.6365 0.32057 0.0
H736 H 0.80509 0.6844 0.41713 0.0
H737 H 0.84424 0.6955 0.36539 0.0
H738 H 0.93581 0.6283 0.3 0.0
H739 H 0.87714 0.65972 0.30317 0.0
H740 H 0.88992 0.5439 0.52504 0.0
H741 H 0.83213 0.57571 0.5245 0.0
H742 H 0.939 0.50591 0.47895 0.0
H743 H 0.98196 0.51772 0.43023 0.0
C744 C 0.62645 0.45209 0.19337 0.0
C745 C 0.58438 0.44393 0.15833 0.0
C746 C 0.64791 0.43315 0.09199 0.0
C747 C 0.68939 0.44689 0.12564 0.0
N748 N 0.71515 0.48089 0.20514 0.0
N749 N 0.55529 0.44068 0.07128 0.0
C750 C 0.67757 0.46026 0.17531 0.0
C751 C 0.59514 0.43894 0.1066 0.0
N752 N 0.61866 0.44891 0.2438 0.0
N753 N 0.65826 0.41132 0.04793 0.0
H754 H 0.51645 0.4475 0.08045 0.0
H755 H 0.56211 0.44102 0.03278 0.0
H756 H 0.69595 0.40173 0.03789 0.0
H757 H 0.62868 0.39748 0.02458 0.0
H758 H 0.64938 0.45058 0.27051 0.0
H759 H 0.58281 0.43927 0.25858 0.0
H760 H 0.7073 0.49439 0.24048 0.0
H761 H 0.75234 0.48896 0.19207 0.0
C762 C 0.15987 0.26523 0.17709 0.0
C763 C 0.1846 0.3073 0.19003 0.0
C764 C 0.0966 0.33983 0.20327 0.0
C765 C 0.07326 0.30169 0.17857 0.0
N766 N 0.08309 0.22821 0.13946 0.0
N767 N 0.17444 0.38524 0.2192 0.0
C768 C 0.1049 0.26398 0.16559 0.0
C769 C 0.15246 0.34465 0.20496 0.0
N770 N 0.18969 0.22661 0.17523 0.0
N771 N 0.06523 0.37057 0.22684 0.0
H772 H 0.21399 0.38897 0.22816 0.0
H773 H 0.15306 0.41541 0.22203 0.0
H774 H 0.02455 0.36648 0.22812 0.0
H775 H 0.07973 0.397 0.24959 0.0
H776 H 0.17383 0.19409 0.1697 0.0
H777 H 0.22983 0.22706 0.18468 0.0
H778 H 0.10521 0.2017 0.12478 0.0
H779 H 0.04336 0.22704 0.12877 0.0
C780 C 0.59005 0.26958 0.63126 0.0
C781 C 0.57149 0.31214 0.61329 0.0
C782 C 0.66275 0.33428 0.59779 0.0
C783 C 0.68078 0.29741 0.62807 0.0
N784 N 0.66016 0.23008 0.67597 0.0
N785 N 0.59085 0.38516 0.57619 0.0
C786 C 0.6442 0.26433 0.64446 0.0
C787 C 0.60795 0.3443 0.59465 0.0
N788 N 0.55492 0.23494 0.63741 0.0
N789 N 0.698 0.35885 0.57103 0.0
H790 H 0.55135 0.39246 0.56958 0.0
H791 H 0.616 0.41227 0.56873 0.0
H792 H 0.73788 0.35054 0.57068 0.0
H793 H 0.68696 0.38384 0.54505 0.0
H794 H 0.56606 0.20168 0.64649 0.0
H795 H 0.51504 0.23891 0.62799 0.0
H796 H 0.63409 0.20752 0.69242 0.0
H797 H 0.69871 0.2268 0.68962 0.0
C798 C 0.07529 0.44659 0.60155 0.0
C799 C 0.0678 0.42332 0.6476 0.0
C800 C 0.15068 0.38353 0.63638 0.0
C801 C 0.164 0.41498 0.59875 0.0
N802 N 0.12379 0.44722 0.52449 0.0
N803 N 0.10049 0.36903 0.7096 0.0
C804 C 0.12232 0.43918 0.57485 0.0
C805 C 0.10616 0.39175 0.66542 0.0
N806 N 0.0377 0.47598 0.58378 0.0
N807 N 0.17563 0.34239 0.63884 0.0
H808 H 0.06664 0.36997 0.73062 0.0
H809 H 0.13141 0.35081 0.72645 0.0
H810 H 0.20239 0.33251 0.61173 0.0
H811 H 0.16458 0.31635 0.66295 0.0
H812 H 0.04276 0.49644 0.55231 0.0
H813 H 1.00313 0.48226 0.60292 0.0
H814 H 0.09242 0.46105 0.50368 0.0
H815 H 0.15307 0.43315 0.50253 0.0
C816 C 0.08856 0.10424 0.16943 0.0
C817 C 0.12958 0.08426 0.19922 0.0
C818 C 0.17599 0.06321 0.12254 0.0
C819 C 0.13538 0.0839 0.09288 0.0
N820 N 0.0456 0.10986 0.0871 0.0
N821 N 0.20304 0.0326 0.20402 0.0
C822 C 0.08911 0.09958 0.11615 0.0
C823 C 0.17025 0.05965 0.1756 0.0
N824 N 0.0508 0.13004 0.19157 0.0
N825 N 0.2212 0.0492 0.10061 0.0
H826 H 0.19927 0.02915 0.24282 0.0
H827 H 0.23012 0.01025 0.18863 0.0
H828 H 0.22687 0.0511 0.062 0.0
H829 H 0.25442 0.03842 0.12101 0.0
H830 H 0.02312 0.14922 0.1713 0.0
H831 H 0.0493 0.13525 0.23027 0.0
H832 H 1.00908 0.11728 0.10191 0.0
H833 H 0.0447 0.10624 0.04802 0.0
C834 C 0.93201 0.9336 0.92699 0.0
C835 C 0.88404 0.92387 0.95092 0.0
C836 C 0.83932 0.9211 0.86805 0.0
C837 C 0.8888 0.92148 0.84447 0.0
N838 N 0.98369 0.92089 0.85337 0.0
N839 N 0.79245 0.90178 0.9429 0.0
C840 C 0.93564 0.92641 0.87432 0.0
C841 C 0.8375 0.91645 0.92119 0.0
N842 N 0.97423 0.94947 0.95473 0.0
N843 N 0.79399 0.92521 0.83963 0.0
H844 H 0.78945 0.89619 0.98137 0.0
H845 H 0.75939 0.89097 0.92207 0.0
H846 H 0.79395 0.92984 0.80072 0.0
H847 H 0.75713 0.92928 0.85524 0.0
H848 H 1.00869 0.96093 0.93855 0.0
H849 H 0.97251 0.95588 0.99329 0.0
H850 H 0.01866 0.91935 0.87465 0.0
H851 H 0.98848 0.91376 0.81536 0.0
C852 C 0.16711 0.57395 0.6224 0.0
C853 C 0.11978 0.58278 0.59431 0.0
C854 C 0.07317 0.59314 0.67339 0.0
C855 C 0.11987 0.58229 0.70131 0.0
N856 N 0.20624 0.54859 0.70164 0.0
N857 N 0.0249 0.58614 0.59398 0.0
C858 C 0.16509 0.56791 0.67544 0.0
C859 C 0.07184 0.58743 0.6202 0.0
N860 N 0.21458 0.5747 0.59954 0.0
N861 N 0.03108 0.61169 0.69689 0.0
H862 H 0.02236 0.58073 0.55517 0.0
H863 H 0.9887 0.58522 0.61141 0.0
H864 H 0.0305 0.6177 0.73551 0.0
H865 H 0.99853 0.62498 0.67732 0.0
H866 H 0.25039 0.57304 0.61945 0.0
H867 H 0.21879 0.58158 0.56148 0.0
H868 H 0.23813 0.53356 0.6842 0.0
H869 H 0.20563 0.54328 0.74043 0.0
C870 C 0.93325 0.41253 0.43651 0.0
C871 C 0.88268 0.42065 0.4561 0.0
C872 C 0.85321 0.44816 0.3732 0.0
C873 C 0.89836 0.42852 0.35168 0.0
N874 N 0.98205 0.39031 0.36364 0.0
N875 N 0.79273 0.44516 0.44173 0.0
C876 C 0.93927 0.41114 0.38354 0.0
C877 C 0.84233 0.43917 0.42438 0.0
N878 N 0.97547 0.40629 0.46863 0.0
N879 N 0.82038 0.47463 0.3442 0.0
H880 H 0.78232 0.43741 0.47834 0.0
H881 H 0.76079 0.45424 0.41854 0.0
H882 H 0.828 0.48174 0.30663 0.0
H883 H 0.78931 0.49319 0.35877 0.0
H884 H 0.01403 0.40424 0.45655 0.0
H885 H 0.97244 0.40833 0.50766 0.0
H886 H 1.00987 0.37258 0.38539 0.0
H887 H 0.98796 0.38763 0.32516 0.0
C888 C 0.69923 0.10459 0.62306 0.0
C889 C 0.65325 0.09715 0.59273 0.0
C890 C 0.60141 0.08853 0.6686 0.0
C891 C 0.64793 0.09337 0.69914 0.0
N892 N 0.74304 0.09266 0.70383 0.0
N893 N 0.56447 0.06835 0.58654 0.0
C894 C 0.6975 0.09689 0.67573 0.0
C895 C 0.6057 0.08432 0.61559 0.0
N896 N 0.74373 0.12166 0.60235 0.0
N897 N 0.55291 0.09169 0.68921 0.0
H898 H 0.56662 0.06442 0.5476 0.0
H899 H 0.53057 0.0546 0.60167 0.0
H900 H 0.54725 0.09793 0.72724 0.0
H901 H 0.51815 0.09303 0.66758 0.0
H902 H 0.77621 0.13268 0.62386 0.0
H903 H 0.74662 0.12871 0.56414 0.0
H904 H 0.78003 0.09084 0.688 0.0
H905 H 0.74346 0.08561 0.74227 0.0
C906 C 0.44238 0.9056 0.37341 0.0
C907 C 0.39503 0.91354 0.34539 0.0
C908 C 0.34626 0.91525 0.42374 0.0
C909 C 0.39417 0.91104 0.45236 0.0
N910 N 0.48934 0.91389 0.45327 0.0
N911 N 0.30472 0.93825 0.34478 0.0
C912 C 0.44274 0.90999 0.42677 0.0
C913 C 0.34801 0.92274 0.37099 0.0
N914 N 0.48646 0.89148 0.34957 0.0
N915 N 0.29897 0.90811 0.44565 0.0
H916 H 0.30482 0.94429 0.30611 0.0
H917 H 0.27089 0.94953 0.36226 0.0
H918 H 0.2954 0.89845 0.48305 0.0
H919 H 0.26351 0.90639 0.42513 0.0
H920 H 0.52005 0.87982 0.36879 0.0
H921 H 0.48802 0.88756 0.31065 0.0
H922 H 0.52547 0.91744 0.43613 0.0
H923 H 0.49144 0.91913 0.49209 0.0
C924 C 0.69025 0.59502 0.13009 0.0
C925 C 0.64523 0.58333 0.09978 0.0
C926 C 0.59215 0.57916 0.17523 0.0
C927 C 0.63735 0.5892 0.20555 0.0
N928 N 0.73168 0.59469 0.2134 0.0
N929 N 0.55813 0.5507 0.09517 0.0
C930 C 0.68727 0.59273 0.18339 0.0
C931 C 0.59786 0.57057 0.12311 0.0
N932 N 0.73439 0.61194 0.10859 0.0
N933 N 0.54336 0.58093 0.19535 0.0
H934 H 0.56169 0.5432 0.057 0.0
H935 H 0.52435 0.53742 0.11099 0.0
H936 H 0.53744 0.58676 0.23351 0.0
H937 H 0.50871 0.57937 0.17355 0.0
H938 H 0.76575 0.62598 0.12942 0.0
H939 H 0.73809 0.61579 0.06995 0.0
H940 H 0.76948 0.59298 0.19936 0.0
H941 H 0.73053 0.59334 0.25258 0.0
C942 C 0.42236 0.4226 0.8665 0.0
C943 C 0.37523 0.43702 0.84154 0.0
C944 C 0.33214 0.44263 0.92308 0.0
C945 C 0.37991 0.42967 0.94846 0.0
N946 N 0.47402 0.42017 0.94432 0.0
N947 N 0.29041 0.47254 0.84679 0.0
C948 C 0.42613 0.42371 0.92007 0.0
C949 C 0.33191 0.45111 0.87022 0.0
N950 N 0.46285 0.40577 0.83923 0.0
N951 N 0.28609 0.4436 0.94837 0.0
H952 H 0.28922 0.47894 0.80817 0.0
H953 H 0.26009 0.48794 0.86623 0.0
H954 H 0.28346 0.43522 0.98624 0.0
H955 H 0.24949 0.44839 0.93065 0.0
H956 H 0.49533 0.38933 0.85554 0.0
H957 H 0.46232 0.40512 0.8 0.0
H958 H 0.50953 0.42013 0.92569 0.0
H959 H 0.47868 0.42275 0.9833 0.0
C960 C 0.26819 0.30614 0.50087 0.0
C961 C 0.30321 0.29152 0.54066 0.0
C962 C 0.26568 0.21389 0.53325 0.0
C963 C 0.22863 0.22934 0.49586 0.0
N964 N 0.18778 0.29195 0.45176 0.0
N965 N 0.3345 0.23155 0.59551 0.0
C966 C 0.22832 0.27589 0.48161 0.0
C967 C 0.30153 0.2454 0.55701 0.0
N968 N 0.27269 0.34883 0.48081 0.0
N969 N 0.26809 0.16858 0.54487 0.0
H970 H 0.36569 0.25141 0.60954 0.0
H971 H 0.33028 0.20094 0.61475 0.0
H972 H 0.23993 0.14526 0.53244 0.0
H973 H 0.29896 0.1535 0.56519 0.0
H974 H 0.25323 0.35892 0.44774 0.0
H975 H 0.29881 0.37349 0.49414 0.0
H976 H 0.18103 0.32646 0.44503 0.0
H977 H 0.15739 0.27114 0.43779 0.0
C978 C 0.01487 0.01669 0.57192 0.0
C979 C 0.97841 0.98516 0.55048 0.0
C980 C 0.01906 0.99381 0.46787 0.0
C981 C 0.05336 0.02781 0.48861 0.0
N982 N 0.08017 0.07537 0.55972 0.0
N983 N 0.94163 0.94631 0.47749 0.0
C984 C 0.05003 0.04043 0.54037 0.0
C985 C 0.97969 0.9741 0.49837 0.0
N986 N 0.01762 0.02236 0.62303 0.0
N987 N 0.02366 0.98064 0.41875 0.0
H988 H 0.91327 0.93001 0.49853 0.0
H989 H 0.93579 0.94136 0.43898 0.0
H990 H 0.0477 0.99731 0.39355 0.0
H991 H 1.00534 0.95192 0.40314 0.0
H992 H 0.04755 0.04021 0.64198 0.0
H993 H 0.99242 0.0058 0.64727 0.0
H994 H 0.07389 0.09044 0.59455 0.0
H995 H 0.10971 0.09158 0.54026 0.0
C996 C 0.30039 0.96914 0.79485 0.0
C997 C 0.30843 0.98452 0.74485 0.0
C998 C 0.25687 0.0533 0.76223 0.0
C999 C 0.24623 0.03662 0.81141 0.0
N1000 N 0.24503 0.97203 0.86744 0.0
N1001 N 0.2816 0.0345 0.67721 0.0
C1002 C 0.26409 0.9925 0.82553 0.0
C1003 C 0.28271 0.02453 0.72742 0.0
N1004 N 0.32918 0.93373 0.81441 0.0
N1005 N 0.24519 0.09727 0.74902 0.0
H1006 H 0.29899 0.01369 0.65046 0.0
H1007 H 0.25865 0.06053 0.66153 0.0
H1008 H 0.22653 0.12046 0.7721 0.0
H1009 H 0.25836 0.11226 0.71618 0.0
H1010 H 0.32917 0.925 0.85237 0.0
H1011 H 0.3568 0.91562 0.79426 0.0
H1012 H 0.25275 0.93812 0.87674 0.0
H1013 H 0.21669 0.9871 0.88974 0.0
C1014 C 0.02047 0.26846 0.72749 0.0
C1015 C 0.96662 0.27101 0.74101 0.0
C1016 C 0.98625 0.22392 0.81581 0.0
C1017 C 0.04024 0.22152 0.80267 0.0
N1018 N 0.11046 0.25038 0.75295 0.0
N1019 N 0.89632 0.23819 0.78773 0.0
C1020 C 0.05757 0.24571 0.75994 0.0
C1021 C 0.9491 0.2453 0.78247 0.0
N1022 N 0.03665 0.2869 0.68336 0.0
N1023 N 0.97001 0.20737 0.86079 0.0
H1024 H 0.86795 0.25063 0.76225 0.0
H1025 H 0.88081 0.21531 0.81331 0.0
H1026 H 0.99468 0.19223 0.88739 0.0
H1027 H 0.93269 0.21327 0.87461 0.0
H1028 H 0.07223 0.27867 0.66717 0.0
H1029 H 0.0143 0.30873 0.66087 0.0
H1030 H 0.1267 0.26981 0.72473 0.0
H1031 H 0.139 0.23868 0.77868 0.0
C1032 C 0.79281 0.74756 0.55337 0.0
C1033 C 0.79789 0.79403 0.53914 0.0
C1034 C 0.71813 0.78678 0.48517 0.0
C1035 C 0.71492 0.73973 0.49659 0.0
N1036 N 0.75214 0.67386 0.53884 0.0
N1037 N 0.77183 0.85459 0.4817 0.0
C1038 C 0.75287 0.71978 0.53022 0.0
C1039 C 0.7628 0.81257 0.50185 0.0
N1040 N 0.82659 0.72974 0.58902 0.0
N1041 N 0.67663 0.80765 0.4611 0.0
H1042 H 0.80361 0.8751 0.49201 0.0
H1043 H 0.75059 0.8673 0.45077 0.0
H1044 H 0.64186 0.79037 0.45192 0.0
H1045 H 0.6739 0.84285 0.45624 0.0
H1046 H 0.82041 0.69883 0.60716 0.0
H1047 H 0.86064 0.74654 0.6015 0.0
H1048 H 0.78313 0.65595 0.55581 0.0
H1049 H 0.7212 0.6529 0.52733 0.0
C1050 C 0.7608 0.99917 0.32405 0.0
C1051 C 0.72623 0.03213 0.30243 0.0
C1052 C 0.76913 0.02332 0.22085 0.0
C1053 C 0.80166 0.98844 0.24175 0.0
N1054 N 0.82537 0.93972 0.31213 0.0
N1055 N 0.69203 0.07113 0.22865 0.0
C1056 C 0.79632 0.9752 0.29292 0.0
C1057 C 0.72919 0.04324 0.25047 0.0
N1058 N 0.76178 0.99251 0.37498 0.0
N1059 N 0.77619 0.03738 0.17248 0.0
H1060 H 0.66261 0.08709 0.24867 0.0
H1061 H 0.68758 0.07597 0.19002 0.0
H1062 H 0.80123 0.02103 0.14785 0.0
H1063 H 0.75927 0.06674 0.15724 0.0
H1064 H 0.79049 0.97361 0.39419 0.0
H1065 H 0.73623 0.00881 0.39911 0.0
H1066 H 0.81779 0.92406 0.34628 0.0
H1067 H 0.85556 0.9239 0.29306 0.0
C1068 C 0.01164 0.80425 0.2894 0.0
C1069 C 0.97479 0.78879 0.25177 0.0
C1070 C 0.01138 0.71117 0.25822 0.0
C1071 C 0.0489 0.72691 0.29522 0.0
N1072 N 0.0923 0.78973 0.33764 0.0
N1073 N 0.93197 0.72638 0.20815 0.0
C1074 C 0.05079 0.77377 0.30878 0.0
C1075 C 0.97305 0.74199 0.23786 0.0
N1076 N 1.00851 0.84771 0.30785 0.0
N1077 N 0.01255 0.66688 0.24184 0.0
H1078 H 0.90211 0.74756 0.19421 0.0
H1079 H 0.92416 0.69206 0.20106 0.0
H1080 H 0.03623 0.64183 0.25807 0.0
H1081 H 0.99194 0.655 0.21009 0.0
H1082 H 0.02973 0.8593 0.33941 0.0
H1083 H 0.98148 0.87154 0.29451 0.0
H1084 H 0.09988 0.82422 0.34405 0.0
H1085 H 0.12263 0.76875 0.35112 0.0
C1086 C 0.29869 0.73647 0.05789 0.0
C1087 C 0.30231 0.78219 0.04087 0.0
C1088 C 0.22749 0.7681 0.98151 0.0
C1089 C 0.22342 0.72254 0.99912 0.0
N1090 N 0.24886 0.66633 0.06186 0.0
N1091 N 0.27738 0.8384 0.97809 0.0
C1092 C 0.25715 0.70757 0.03954 0.0
C1093 C 0.26886 0.79713 1.00023 0.0
N1094 N 0.33768 0.71951 0.08897 0.0
N1095 N 0.18915 0.78478 0.94948 0.0
H1096 H 0.30691 0.86079 0.9896 0.0
H1097 H 0.25869 0.84886 0.9448 0.0
H1098 H 0.15706 0.76533 0.93677 0.0
H1099 H 0.18556 0.81902 0.93972 0.0
H1100 H 0.34146 0.68516 0.09825 0.0
H1101 H 0.37016 0.73884 0.10086 0.0
H1102 H 0.26761 0.65618 0.09525 0.0
H1103 H 0.21967 0.64361 0.05037 0.0
C1104 C 0.04467 0.53666 0.04738 0.0
C1105 C 0.0502 0.52209 0.99657 0.0
C1106 C 0.98176 0.46369 1.00835 0.0
C1107 C 0.97802 0.47688 0.05985 0.0
N1108 N 0.01335 0.5196 0.13066 0.0
N1109 N 0.02751 0.46929 0.92962 0.0
C1110 C 0.01128 0.51186 0.07985 0.0
C1111 C 0.01996 0.48472 0.97752 0.0
N1112 N 0.07155 0.57417 0.06504 0.0
N1113 N 0.947 0.43265 0.98792 0.0
H1114 H 0.05056 0.48637 0.90388 0.0
H1115 H 0.01299 0.43831 0.91584 0.0
H1116 H 0.92012 0.41453 1.00879 0.0
H1117 H 0.94232 0.42655 0.94948 0.0
H1118 H 0.06338 0.59042 0.09882 0.0
H1119 H 0.10021 0.59103 0.04496 0.0
H1120 H 0.04111 0.54058 0.14867 0.0
H1121 H 0.99052 0.50171 0.15589 0.0
C1122 C 0.25554 0.49436 0.3238 0.0
C1123 C 0.23353 0.53623 0.307 0.0
C1124 C 0.25441 0.51621 0.21926 0.0
C1125 C 0.2765 0.47427 0.23607 0.0
N1126 N 0.30559 0.42644 0.30574 0.0
N1127 N 0.20597 0.58511 0.23803 0.0
C1128 C 0.27929 0.46429 0.28871 0.0
C1129 C 0.23114 0.54651 0.25451 0.0
N1130 N 0.25021 0.48167 0.37294 0.0
N1131 N 0.25952 0.52883 0.17008 0.0
H1132 H 0.1924 0.61038 0.26191 0.0
H1133 H 0.19561 0.59124 0.20054 0.0
H1134 H 0.27758 0.50846 0.14339 0.0
H1135 H 0.25034 0.56107 0.15615 0.0
H1136 H 0.25881 0.44921 0.38662 0.0
H1137 H 0.23248 0.5022 0.39969 0.0
H1138 H 0.31621 0.42114 0.34335 0.0
H1139 H 0.32023 0.40124 0.28248 0.0
C1140 C 0.73713 0.28448 0.06624 0.0
C1141 C 0.79292 0.28121 0.06227 0.0
C1142 C 0.7815 0.21879 1.00098 0.0
C1143 C 0.7257 0.22201 1.00464 0.0
N1144 N 0.65042 0.26369 0.03276 0.0
N1145 N 0.86762 0.23732 0.0368 0.0
C1146 C 0.70353 0.25604 0.03567 0.0
C1147 C 0.81487 0.24639 0.03236 0.0
N1148 N 0.71594 0.314 0.09998 0.0
N1149 N 0.80317 0.19037 0.96643 0.0
H1150 H 0.89323 0.25549 0.06077 0.0
H1151 H 0.88532 0.20876 1.02117 0.0
H1152 H 0.78147 0.16775 0.94428 0.0
H1153 H 0.84255 0.19153 0.95677 0.0
H1154 H 0.67656 0.31392 0.10959 0.0
H1155 H 0.7381 0.33668 0.12169 0.0
H1156 H 0.63201 0.29157 0.04901 0.0
H1157 H 0.62462 0.24453 1.00997 0.0
C1158 C 0.80264 0.51619 0.76951 0.0
C1159 C 0.7976 0.46877 0.75904 0.0
C1160 C 0.71003 0.47047 0.7966 0.0
C1161 C 0.71512 0.51829 0.80518 0.0
N1162 N 0.75453 0.58625 0.77052 0.0
N1163 N 0.75532 0.39893 0.78505 0.0
C1164 C 0.75798 0.54131 0.78338 0.0
C1165 C 0.75362 0.44516 0.77861 0.0
N1166 N 0.8507 0.53706 0.77084 0.0
N1167 N 0.66211 0.44983 0.80042 0.0
H1168 H 0.78949 0.37992 0.78074 0.0
H1169 H 0.72598 0.38068 0.80282 0.0
H1170 H 0.62761 0.46821 0.80564 0.0
H1171 H 0.65516 0.41594 0.79019 0.0
H1172 H 0.85554 0.5712 0.78141 0.0
H1173 H 0.88586 0.51883 0.77044 0.0
H1174 H 0.7845 0.60316 0.75202 0.0
H1175 H 0.71901 0.60395 0.76982 0.0
C1176 C 0.46009 1.00368 1.0043 0.0
C1177 C 0.47409 0.9835 0.05149 0.0
C1178 C 0.56755 0.99981 0.03625 0.0
C1179 C 0.55324 0.02085 0.98964 0.0
N1180 N 0.48851 0.02974 0.92301 0.0
N1181 N 0.54009 0.96966 0.11623 0.0
C1182 C 0.50016 0.01951 0.97212 0.0
C1183 C 0.52764 0.98311 0.06821 0.0
N1184 N 0.40834 0.00917 0.99049 0.0
N1185 N 0.61947 0.99391 0.04924 0.0
H1186 H 0.51238 0.95721 0.14077 0.0
H1187 H 0.5768 0.97477 0.1336 0.0
H1188 H 0.65006 1.00538 0.0275 0.0
H1189 H 0.6327 0.97383 0.07918 0.0
H1190 H 0.39576 0.02834 0.95954 0.0
H1191 H 0.37742 0.99806 1.01204 0.0
H1192 H 0.45257 0.02187 0.90535 0.0
H1193 H 0.51658 0.04123 0.8982 0.0
C1194 C 0.46989 0.24015 0.23616 0.0
C1195 C 0.46983 0.28749 0.24718 0.0
C1196 C 0.54488 0.27628 0.30682 0.0
C1197 C 0.54745 0.2294 0.29292 0.0
N1198 N 0.51721 0.16871 0.23692 0.0
N1199 N 0.51272 0.35216 0.28762 0.0
C1200 C 0.5116 0.21201 0.25522 0.0
C1201 C 0.50848 0.30593 0.28141 0.0
N1202 N 0.42842 0.22148 0.20941 0.0
N1203 N 0.57794 0.29296 0.34395 0.0
H1204 H 0.48681 0.37537 0.27108 0.0
H1205 H 0.54428 0.36808 0.30629 0.0
H1206 H 0.60988 0.27473 0.35874 0.0
H1207 H 0.57262 0.32437 0.36153 0.0
H1208 H 0.4226 0.18646 0.20523 0.0
H1209 H 0.39673 0.24078 0.19569 0.0
H1210 H 0.49657 0.15646 0.2053 0.0
H1211 H 0.54522 0.14585 0.25043 0.0
C1212 C 0.47036 0.73438 0.74592 0.0
C1213 C 0.47041 0.78108 0.75992 0.0
C1214 C 0.54404 0.7668 0.82013 0.0
C1215 C 0.54652 0.72077 0.80323 0.0
N1216 N 0.51563 0.66189 0.74534 0.0
N1217 N 0.50803 0.8427 0.80965 0.0
C1218 C 0.5109 0.70496 0.76462 0.0
C1219 C 0.50703 0.79742 0.7973 0.0
N1220 N 0.42954 0.71755 0.71679 0.0
N1221 N 0.57742 0.78144 0.85809 0.0
H1222 H 0.47827 0.86512 0.79913 0.0
H1223 H 0.53885 0.85858 0.82946 0.0
H1224 H 0.60957 0.76248 0.87119 0.0
H1225 H 0.57271 0.81186 0.87779 0.0
H1226 H 0.42344 0.68294 0.70975 0.0
H1227 H 0.39833 0.73783 0.70394 0.0
H1228 H 0.49567 0.65072 0.71286 0.0
H1229 H 0.54204 0.63784 0.75938 0.0
C1230 C 0.5108 0.50196 0.4674 0.0
C1231 C 0.51885 0.54873 0.47966 0.0
C1232 C 0.49249 0.53311 0.56661 0.0
C1233 C 0.47933 0.48767 0.55271 0.0
N1234 N 0.46729 0.431 0.487 0.0
N1235 N 0.50646 0.61063 0.53871 0.0
C1236 C 0.48553 0.47288 0.50216 0.0
C1237 C 0.5069 0.56481 0.52876 0.0
N1238 N 0.53017 0.48436 0.42395 0.0
N1239 N 0.49114 0.54619 0.61596 0.0
H1240 H 0.51451 0.63531 0.51193 0.0
H1241 H 0.49274 0.62451 0.57199 0.0
H1242 H 0.47846 0.52472 0.64439 0.0
H1243 H 0.50629 0.57715 0.62925 0.0
H1244 H 0.53064 0.44955 0.41581 0.0
H1245 H 0.55088 0.50371 0.39829 0.0
H1246 H 0.4651 0.42078 0.44943 0.0
H1247 H 0.45022 0.40781 0.51122 0.0
loop_
_geom_bond_atom_site_label_1
_geom_bond_atom_site_label_2
_geom_bond_distance
_geom_bond_site_symmetry_2
_ccdc_geom_bond_type
Co0 N4 2.148 . S
Co0 N10 2.128 . S
Co0 N20 2.194 . S
Co0 O25 2.351 . S
Co0 O26 2.155 . S
Co0 O27 2.096 . S
C1 N4 1.301 . S
C1 N5 1.328 . S
C1 H6 0.930 . S
C2 C3 1.333 . S
C2 N4 1.317 . S
C2 H7 0.930 . S
C3 C2 1.333 . S
C3 N5 1.350 . S
C3 H29 0.931 . S
N4 Co0 2.148 . S
N4 C1 1.301 . S
N4 C2 1.317 . S
N5 C1 1.328 . S
N5 C3 1.350 . S
H6 C1 0.930 . S
H7 C2 0.930 . S
C8 O9 1.224 . S
C8 O27 1.247 . S
O9 C8 1.224 . S
N10 Co0 2.128 . S
N10 C11 1.355 . S
N10 C13 1.311 . S
C11 N10 1.355 . S
C11 C12 1.363 1_455 S
C11 H23 0.929 . S
C12 C11 1.363 1_655 S
C12 N14 1.375 . S
C12 H30 0.931 . S
C13 N10 1.311 . S
C13 N14 1.347 1_455 S
C13 H24 0.929 . S
N14 C12 1.375 . S
N14 C13 1.347 1_655 S
C15 C18 1.365 . S
C15 N20 1.328 . S
C15 H21 0.929 . S
C16 C17 1.362 . S
C16 C19 1.378 . S
C16 H31 0.929 . S
C17 C16 1.362 . S
C17 C18 1.366 . S
C18 C15 1.365 . S
C18 C17 1.366 . S
C18 H32 0.930 . S
C19 C16 1.378 . S
C19 N20 1.315 . S
C19 H22 0.930 . S
N20 Co0 2.194 . S
N20 C15 1.328 . S
N20 C19 1.315 . S
H21 C15 0.929 . S
H22 C19 0.930 . S
H23 C11 0.929 . S
H24 C13 0.929 . S
O25 Co0 2.351 . S
O25 C28 1.244 . S
O26 Co0 2.155 . S
O26 C28 1.240 . S
O27 Co0 2.096 . S
O27 C8 1.247 . S
C28 O25 1.244 . S
C28 O26 1.240 . S
H29 C3 0.931 . S
H30 C12 0.931 . S
H31 C16 0.929 . S
H32 C18 0.930 . S
Co33 N37 2.148 . S
Co33 N43 2.128 . S
Co33 N53 2.194 . S
Co33 O58 2.351 . S
Co33 O59 2.155 . S
Co33 O60 2.096 . S
C34 N37 1.301 . S
C34 N38 1.328 1_455 S
C34 H39 0.930 . S
C35 C36 1.333 1_455 S
C35 N37 1.317 . S
C35 H40 0.930 . S
C36 C35 1.333 1_655 S
C36 N38 1.350 . S
C36 H62 0.931 . S
N37 Co33 2.148 . S
N37 C34 1.301 . S
N37 C35 1.317 . S
N38 C34 1.328 1_655 S
N38 C36 1.350 . S
H39 C34 0.930 . S
H40 C35 0.930 . S
C41 O42 1.224 . S
C41 O60 1.247 . S
O42 C41 1.224 . S
N43 Co33 2.128 . S
N43 C44 1.355 . S
N43 C46 1.311 . S
C44 N43 1.355 . S
C44 C45 1.363 . S
C44 H56 0.929 . S
C45 C44 1.363 . S
C45 N47 1.375 . S
C45 H63 0.931 . S
C46 N43 1.311 . S
C46 N47 1.347 . S
C46 H57 0.929 . S
N47 C45 1.375 . S
N47 C46 1.347 . S
C48 C51 1.365 1_556 S
C48 N53 1.328 . S
C48 H54 0.929 . S
C49 C50 1.362 . S
C49 C52 1.378 1_554 S
C49 H64 0.929 . S
C50 C49 1.362 . S
C50 C51 1.366 . S
C51 C48 1.365 1_554 S
C51 C50 1.366 . S
C51 H65 0.930 . S
C52 C49 1.378 1_556 S
C52 N53 1.315 . S
C52 H55 0.930 . S
N53 Co33 2.194 . S
N53 C48 1.328 . S
N53 C52 1.315 . S
H54 C48 0.929 . S
H55 C52 0.930 . S
H56 C44 0.929 . S
H57 C46 0.929 . S
O58 Co33 2.351 . S
O58 C61 1.244 . S
O59 Co33 2.155 . S
O59 C61 1.240 . S
O60 Co33 2.096 . S
O60 C41 1.247 . S
C61 O58 1.244 . S
C61 O59 1.240 . S
H62 C36 0.931 . S
H63 C45 0.931 . S
H64 C49 0.929 . S
H65 C51 0.930 . S
Co66 N70 2.148 . S
Co66 N76 2.128 . S
Co66 N86 2.194 . S
Co66 O91 2.351 . S
Co66 O92 2.155 . S
Co66 O93 2.096 . S
C67 N70 1.301 . S
C67 N71 1.328 . S
C67 H72 0.930 . S
C68 C69 1.333 . S
C68 N70 1.317 . S
C68 H73 0.930 . S
C69 C68 1.333 . S
C69 N71 1.350 . S
C69 H95 0.931 . S
N70 Co66 2.148 . S
N70 C67 1.301 . S
N70 C68 1.317 . S
N71 C67 1.328 . S
N71 C69 1.350 . S
H72 C67 0.930 . S
H73 C68 0.930 . S
C74 O75 1.224 . S
C74 O93 1.247 . S
O75 C74 1.224 . S
N76 Co66 2.128 . S
N76 C77 1.355 . S
N76 C79 1.311 . S
C77 N76 1.355 . S
C77 C78 1.363 1_655 S
C77 H89 0.929 . S
C78 C77 1.363 1_455 S
C78 N80 1.375 . S
C78 H96 0.931 . S
C79 N76 1.311 . S
C79 N80 1.347 1_655 S
C79 H90 0.929 . S
N80 C78 1.375 . S
N80 C79 1.347 1_455 S
C81 C84 1.365 . S
C81 N86 1.328 . S
C81 H87 0.929 . S
C82 C83 1.362 . S
C82 C85 1.378 . S
C82 H97 0.929 . S
C83 C82 1.362 . S
C83 C84 1.366 . S
C84 C81 1.365 . S
C84 C83 1.366 . S
C84 H98 0.930 . S
C85 C82 1.378 . S
C85 N86 1.315 . S
C85 H88 0.930 . S
N86 Co66 2.194 . S
N86 C81 1.328 . S
N86 C85 1.315 . S
H87 C81 0.929 . S
H88 C85 0.930 . S
H89 C77 0.929 . S
H90 C79 0.929 . S
O91 Co66 2.351 . S
O91 C94 1.244 . S
O92 Co66 2.155 . S
O92 C94 1.240 . S
O93 Co66 2.096 . S
O93 C74 1.247 . S
C94 O91 1.244 . S
C94 O92 1.240 . S
H95 C69 0.931 . S
H96 C78 0.931 . S
H97 C82 0.929 . S
H98 C84 0.930 . S
Co99 N103 2.148 . S
Co99 N109 2.128 . S
Co99 N119 2.194 . S
Co99 O124 2.351 . S
Co99 O125 2.155 . S
Co99 O126 2.096 . S
C100 N103 1.301 . S
C100 N104 1.328 1_655 S
C100 H105 0.930 . S
C101 C102 1.333 1_655 S
C101 N103 1.317 . S
C101 H106 0.930 . S
C102 C101 1.333 1_455 S
C102 N104 1.350 . S
C102 H128 0.931 . S
N103 Co99 2.148 . S
N103 C100 1.301 . S
N103 C101 1.317 . S
N104 C100 1.328 1_455 S
N104 C102 1.350 . S
H105 C100 0.930 . S
H106 C101 0.930 . S
C107 O108 1.224 . S
C107 O126 1.247 . S
O108 C107 1.224 . S
N109 Co99 2.128 . S
N109 C110 1.355 . S
N109 C112 1.311 . S
C110 N109 1.355 . S
C110 C111 1.363 . S
C110 H122 0.929 . S
C111 C110 1.363 . S
C111 N113 1.375 . S
C111 H129 0.931 . S
C112 N109 1.311 . S
C112 N113 1.347 . S
C112 H123 0.929 . S
N113 C111 1.375 . S
N113 C112 1.347 . S
C114 C117 1.365 1_554 S
C114 N119 1.328 . S
C114 H120 0.929 . S
C115 C116 1.362 . S
C115 C118 1.378 1_556 S
C115 H130 0.929 . S
C116 C115 1.362 . S
C116 C117 1.366 . S
C117 C114 1.365 1_556 S
C117 C116 1.366 . S
C117 H131 0.930 . S
C118 C115 1.378 1_554 S
C118 N119 1.315 . S
C118 H121 0.930 . S
N119 Co99 2.194 . S
N119 C114 1.328 . S
N119 C118 1.315 . S
H120 C114 0.929 . S
H121 C118 0.930 . S
H122 C110 0.929 . S
H123 C112 0.929 . S
O124 Co99 2.351 . S
O124 C127 1.244 . S
O125 Co99 2.155 . S
O125 C127 1.240 . S
O126 Co99 2.096 . S
O126 C107 1.247 . S
C127 O124 1.244 . S
C127 O125 1.240 . S
H128 C102 0.931 . S
H129 C111 0.931 . S
H130 C115 0.929 . S
H131 C117 0.930 . S
Co132 N136 2.148 . S
Co132 N142 2.128 . S
Co132 N152 2.194 . S
Co132 O157 2.351 . S
Co132 O158 2.155 . S
Co132 O159 2.096 . S
C133 N136 1.301 . S
C133 N137 1.328 . S
C133 H138 0.930 . S
C134 C135 1.333 . S
C134 N136 1.317 . S
C134 H139 0.930 . S
C135 C134 1.333 . S
C135 N137 1.350 . S
C135 H161 0.931 . S
N136 Co132 2.148 . S
N136 C133 1.301 . S
N136 C134 1.317 . S
N137 C133 1.328 . S
N137 C135 1.350 . S
H138 C133 0.930 . S
H139 C134 0.930 . S
C140 O141 1.224 . S
C140 O159 1.247 . S
O141 C140 1.224 . S
N142 Co132 2.128 . S
N142 C143 1.355 . S
N142 C145 1.311 . S
C143 N142 1.355 . S
C143 C144 1.363 1_455 S
C143 H155 0.929 . S
C144 C143 1.363 1_655 S
C144 N146 1.375 . S
C144 H162 0.931 . S
C145 N142 1.311 . S
C145 N146 1.347 1_455 S
C145 H156 0.929 . S
N146 C144 1.375 . S
N146 C145 1.347 1_655 S
C147 C150 1.365 . S
C147 N152 1.328 . S
C147 H153 0.929 . S
C148 C149 1.362 . S
C148 C151 1.378 . S
C148 H163 0.929 . S
C149 C148 1.362 . S
C149 C150 1.366 . S
C150 C147 1.365 . S
C150 C149 1.366 . S
C150 H164 0.930 . S
C151 C148 1.378 . S
C151 N152 1.315 . S
C151 H154 0.930 . S
N152 Co132 2.194 . S
N152 C147 1.328 . S
N152 C151 1.315 . S
H153 C147 0.929 . S
H154 C151 0.930 . S
H155 C143 0.929 . S
H156 C145 0.929 . S
O157 Co132 2.351 . S
O157 C160 1.244 . S
O158 Co132 2.155 . S
O158 C160 1.240 . S
O159 Co132 2.096 . S
O159 C140 1.247 . S
C160 O157 1.244 . S
C160 O158 1.240 . S
H161 C135 0.931 . S
H162 C144 0.931 . S
H163 C148 0.929 . S
H164 C150 0.930 . S
Co165 N169 2.148 . S
Co165 N175 2.128 . S
Co165 N185 2.194 . S
Co165 O190 2.351 . S
Co165 O191 2.155 . S
Co165 O192 2.096 . S
C166 N169 1.301 . S
C166 N170 1.328 1_455 S
C166 H171 0.930 . S
C167 C168 1.333 1_455 S
C167 N169 1.317 . S
C167 H172 0.930 . S
C168 C167 1.333 1_655 S
C168 N170 1.350 . S
C168 H194 0.931 . S
N169 Co165 2.148 . S
N169 C166 1.301 . S
N169 C167 1.317 . S
N170 C166 1.328 1_655 S
N170 C168 1.350 . S
H171 C166 0.930 . S
H172 C167 0.930 . S
C173 O174 1.224 . S
C173 O192 1.247 . S
O174 C173 1.224 . S
N175 Co165 2.128 . S
N175 C176 1.355 . S
N175 C178 1.311 . S
C176 N175 1.355 . S
C176 C177 1.363 . S
C176 H188 0.929 . S
C177 C176 1.363 . S
C177 N179 1.375 . S
C177 H195 0.931 . S
C178 N175 1.311 . S
C178 N179 1.347 . S
C178 H189 0.929 . S
N179 C177 1.375 . S
N179 C178 1.347 . S
C180 C183 1.365 . S
C180 N185 1.328 . S
C180 H186 0.929 . S
C181 C182 1.362 . S
C181 C184 1.378 . S
C181 H196 0.929 . S
C182 C181 1.362 . S
C182 C183 1.366 . S
C183 C180 1.365 . S
C183 C182 1.366 . S
C183 H197 0.930 . S
C184 C181 1.378 . S
C184 N185 1.315 . S
C184 H187 0.930 . S
N185 Co165 2.194 . S
N185 C180 1.328 . S
N185 C184 1.315 . S
H186 C180 0.929 . S
H187 C184 0.930 . S
H188 C176 0.929 . S
H189 C178 0.929 . S
O190 Co165 2.351 . S
O190 C193 1.244 . S
O191 Co165 2.155 . S
O191 C193 1.240 . S
O192 Co165 2.096 . S
O192 C173 1.247 . S
C193 O190 1.244 . S
C193 O191 1.240 . S
H194 C168 0.931 . S
H195 C177 0.931 . S
H196 C181 0.929 . S
H197 C183 0.930 . S
Co198 N202 2.148 . S
Co198 N208 2.128 . S
Co198 N218 2.194 . S
Co198 O223 2.351 . S
Co198 O224 2.155 . S
Co198 O225 2.096 . S
C199 N202 1.301 . S
C199 N203 1.328 . S
C199 H204 0.930 . S
C200 C201 1.333 . S
C200 N202 1.317 . S
C200 H205 0.930 . S
C201 C200 1.333 . S
C201 N203 1.350 . S
C201 H227 0.931 . S
N202 Co198 2.148 . S
N202 C199 1.301 . S
N202 C200 1.317 . S
N203 C199 1.328 . S
N203 C201 1.350 . S
H204 C199 0.930 . S
H205 C200 0.930 . S
C206 O207 1.224 . S
C206 O225 1.247 . S
O207 C206 1.224 . S
N208 Co198 2.128 . S
N208 C209 1.355 . S
N208 C211 1.311 . S
C209 N208 1.355 . S
C209 C210 1.363 1_655 S
C209 H221 0.929 . S
C210 C209 1.363 1_455 S
C210 N212 1.375 . S
C210 H228 0.931 . S
C211 N208 1.311 . S
C211 N212 1.347 1_655 S
C211 H222 0.929 . S
N212 C210 1.375 . S
N212 C211 1.347 1_455 S
C213 C216 1.365 . S
C213 N218 1.328 . S
C213 H219 0.929 . S
C214 C215 1.362 . S
C214 C217 1.378 . S
C214 H229 0.929 . S
C215 C214 1.362 . S
C215 C216 1.366 . S
C216 C213 1.365 . S
C216 C215 1.366 . S
C216 H230 0.930 . S
C217 C214 1.378 . S
C217 N218 1.315 . S
C217 H220 0.930 . S
N218 Co198 2.194 . S
N218 C213 1.328 . S
N218 C217 1.315 . S
H219 C213 0.929 . S
H220 C217 0.930 . S
H221 C209 0.929 . S
H222 C211 0.929 . S
O223 Co198 2.351 . S
O223 C226 1.244 . S
O224 Co198 2.155 . S
O224 C226 1.240 . S
O225 Co198 2.096 . S
O225 C206 1.247 . S
C226 O223 1.244 . S
C226 O224 1.240 . S
H227 C201 0.931 . S
H228 C210 0.931 . S
H229 C214 0.929 . S
H230 C216 0.930 . S
Co231 N235 2.148 . S
Co231 N241 2.128 . S
Co231 N251 2.194 . S
Co231 O256 2.351 . S
Co231 O257 2.155 . S
Co231 O258 2.096 . S
C232 N235 1.301 . S
C232 N236 1.328 1_655 S
C232 H237 0.930 . S
C233 C234 1.333 1_655 S
C233 N235 1.317 . S
C233 H238 0.930 . S
C234 C233 1.333 1_455 S
C234 N236 1.350 . S
C234 H260 0.931 . S
N235 Co231 2.148 . S
N235 C232 1.301 . S
N235 C233 1.317 . S
N236 C232 1.328 1_455 S
N236 C234 1.350 . S
H237 C232 0.930 . S
H238 C233 0.930 . S
C239 O240 1.224 . S
C239 O258 1.247 . S
O240 C239 1.224 . S
N241 Co231 2.128 . S
N241 C242 1.355 . S
N241 C244 1.311 . S
C242 N241 1.355 . S
C242 C243 1.363 . S
C242 H254 0.929 . S
C243 C242 1.363 . S
C243 N245 1.375 . S
C243 H261 0.931 . S
C244 N241 1.311 . S
C244 N245 1.347 . S
C244 H255 0.929 . S
N245 C243 1.375 . S
N245 C244 1.347 . S
C246 C249 1.365 . S
C246 N251 1.328 . S
C246 H252 0.929 . S
C247 C248 1.362 . S
C247 C250 1.378 . S
C247 H262 0.929 . S
C248 C247 1.362 . S
C248 C249 1.366 . S
C249 C246 1.365 . S
C249 C248 1.366 . S
C249 H263 0.930 . S
C250 C247 1.378 . S
C250 N251 1.315 . S
C250 H253 0.930 . S
N251 Co231 2.194 . S
N251 C246 1.328 . S
N251 C250 1.315 . S
H252 C246 0.929 . S
H253 C250 0.930 . S
H254 C242 0.929 . S
H255 C244 0.929 . S
O256 Co231 2.351 . S
O256 C259 1.244 . S
O257 Co231 2.155 . S
O257 C259 1.240 . S
O258 Co231 2.096 . S
O258 C239 1.247 . S
C259 O256 1.244 . S
C259 O257 1.240 . S
H260 C234 0.931 . S
H261 C243 0.931 . S
H262 C247 0.929 . S
H263 C249 0.930 . S
Co264 N268 2.148 . S
Co264 N274 2.128 . S
Co264 N284 2.194 . S
Co264 O289 2.351 . S
Co264 O290 2.155 . S
Co264 O291 2.096 . S
C265 N268 1.301 . S
C265 N269 1.328 . S
C265 H270 0.930 . S
C266 C267 1.333 . S
C266 N268 1.317 . S
C266 H271 0.930 . S
C267 C266 1.333 . S
C267 N269 1.350 . S
C267 H293 0.931 . S
N268 Co264 2.148 . S
N268 C265 1.301 . S
N268 C266 1.317 . S
N269 C265 1.328 . S
N269 C267 1.350 . S
H270 C265 0.930 . S
H271 C266 0.930 . S
C272 O273 1.224 . S
C272 O291 1.247 . S
O273 C272 1.224 . S
N274 Co264 2.128 . S
N274 C275 1.355 . S
N274 C277 1.311 . S
C275 N274 1.355 . S
C275 C276 1.363 . S
C275 H287 0.929 . S
C276 C275 1.363 . S
C276 N278 1.375 . S
C276 H294 0.931 . S
C277 N274 1.311 . S
C277 N278 1.347 . S
C277 H288 0.929 . S
N278 C276 1.375 . S
N278 C277 1.347 . S
C279 C282 1.365 . S
C279 N284 1.328 . S
C279 H285 0.929 . S
C280 C281 1.362 . S
C280 C283 1.378 . S
C280 H295 0.929 . S
C281 C280 1.362 . S
C281 C282 1.366 . S
C282 C279 1.365 . S
C282 C281 1.366 . S
C282 H296 0.930 . S
C283 C280 1.378 . S
C283 N284 1.315 . S
C283 H286 0.930 . S
N284 Co264 2.194 . S
N284 C279 1.328 . S
N284 C283 1.315 . S
H285 C279 0.929 . S
H286 C283 0.930 . S
H287 C275 0.929 . S
H288 C277 0.929 . S
O289 Co264 2.351 . S
O289 C292 1.244 . S
O290 Co264 2.155 . S
O290 C292 1.240 . S
O291 Co264 2.096 . S
O291 C272 1.247 . S
C292 O289 1.244 . S
C292 O290 1.240 . S
H293 C267 0.931 . S
H294 C276 0.931 . S
H295 C280 0.929 . S
H296 C282 0.930 . S
Co297 N301 2.148 . S
Co297 N307 2.128 . S
Co297 N317 2.194 . S
Co297 O322 2.351 . S
Co297 O323 2.155 . S
Co297 O324 2.096 . S
C298 N301 1.301 . S
C298 N302 1.328 . S
C298 H303 0.930 . S
C299 C300 1.333 . S
C299 N301 1.317 . S
C299 H304 0.930 . S
C300 C299 1.333 . S
C300 N302 1.350 . S
C300 H326 0.931 . S
N301 Co297 2.148 . S
N301 C298 1.301 . S
N301 C299 1.317 . S
N302 C298 1.328 . S
N302 C300 1.350 . S
H303 C298 0.930 . S
H304 C299 0.930 . S
C305 O306 1.224 . S
C305 O324 1.247 . S
O306 C305 1.224 . S
N307 Co297 2.128 . S
N307 C308 1.355 . S
N307 C310 1.311 . S
C308 N307 1.355 . S
C308 C309 1.363 . S
C308 H320 0.929 . S
C309 C308 1.363 . S
C309 N311 1.375 . S
C309 H327 0.931 . S
C310 N307 1.311 . S
C310 N311 1.347 . S
C310 H321 0.929 . S
N311 C309 1.375 . S
N311 C310 1.347 . S
C312 C315 1.365 . S
C312 N317 1.328 . S
C312 H318 0.929 . S
C313 C314 1.362 . S
C313 C316 1.378 . S
C313 H328 0.929 . S
C314 C313 1.362 . S
C314 C315 1.366 . S
C315 C312 1.365 . S
C315 C314 1.366 . S
C315 H329 0.930 . S
C316 C313 1.378 . S
C316 N317 1.315 . S
C316 H319 0.930 . S
N317 Co297 2.194 . S
N317 C312 1.328 . S
N317 C316 1.315 . S
H318 C312 0.929 . S
H319 C316 0.930 . S
H320 C308 0.929 . S
H321 C310 0.929 . S
O322 Co297 2.351 . S
O322 C325 1.244 . S
O323 Co297 2.155 . S
O323 C325 1.240 . S
O324 Co297 2.096 . S
O324 C305 1.247 . S
C325 O322 1.244 . S
C325 O323 1.240 . S
H326 C300 0.931 . S
H327 C309 0.931 . S
H328 C313 0.929 . S
H329 C315 0.930 . S
Co330 N334 2.148 . S
Co330 N340 2.128 . S
Co330 N350 2.194 . S
Co330 O355 2.351 . S
Co330 O356 2.155 . S
Co330 O357 2.096 . S
C331 N334 1.301 . S
C331 N335 1.328 . S
C331 H336 0.930 . S
C332 C333 1.333 . S
C332 N334 1.317 . S
C332 H337 0.930 . S
C333 C332 1.333 . S
C333 N335 1.350 . S
C333 H359 0.931 . S
N334 Co330 2.148 . S
N334 C331 1.301 . S
N334 C332 1.317 . S
N335 C331 1.328 . S
N335 C333 1.350 . S
H336 C331 0.930 . S
H337 C332 0.930 . S
C338 O339 1.224 . S
C338 O357 1.247 . S
O339 C338 1.224 . S
N340 Co330 2.128 . S
N340 C341 1.355 . S
N340 C343 1.311 . S
C341 N340 1.355 . S
C341 C342 1.363 . S
C341 H353 0.929 . S
C342 C341 1.363 . S
C342 N344 1.375 . S
C342 H360 0.931 . S
C343 N340 1.311 . S
C343 N344 1.347 . S
C343 H354 0.929 . S
N344 C342 1.375 . S
N344 C343 1.347 . S
C345 C348 1.365 . S
C345 N350 1.328 . S
C345 H351 0.929 . S
C346 C347 1.362 . S
C346 C349 1.378 . S
C346 H361 0.929 . S
C347 C346 1.362 . S
C347 C348 1.366 . S
C348 C345 1.365 . S
C348 C347 1.366 . S
C348 H362 0.930 . S
C349 C346 1.378 . S
C349 N350 1.315 . S
C349 H352 0.930 . S
N350 Co330 2.194 . S
N350 C345 1.328 . S
N350 C349 1.315 . S
H351 C345 0.929 . S
H352 C349 0.930 . S
H353 C341 0.929 . S
H354 C343 0.929 . S
O355 Co330 2.351 . S
O355 C358 1.244 . S
O356 Co330 2.155 . S
O356 C358 1.240 . S
O357 Co330 2.096 . S
O357 C338 1.247 . S
C358 O355 1.244 . S
C358 O356 1.240 . S
H359 C333 0.931 . S
H360 C342 0.931 . S
H361 C346 0.929 . S
H362 C348 0.930 . S
Co363 N367 2.148 . S
Co363 N373 2.128 . S
Co363 N383 2.194 . S
Co363 O388 2.351 . S
Co363 O389 2.155 . S
Co363 O390 2.096 . S
C364 N367 1.301 . S
C364 N368 1.328 . S
C364 H369 0.930 . S
C365 C366 1.333 . S
C365 N367 1.317 . S
C365 H370 0.930 . S
C366 C365 1.333 . S
C366 N368 1.350 . S
C366 H392 0.931 . S
N367 Co363 2.148 . S
N367 C364 1.301 . S
N367 C365 1.317 . S
N368 C364 1.328 . S
N368 C366 1.350 . S
H369 C364 0.930 . S
H370 C365 0.930 . S
C371 O372 1.224 . S
C371 O390 1.247 . S
O372 C371 1.224 . S
N373 Co363 2.128 . S
N373 C374 1.355 . S
N373 C376 1.311 . S
C374 N373 1.355 . S
C374 C375 1.363 . S
C374 H386 0.929 . S
C375 C374 1.363 . S
C375 N377 1.375 . S
C375 H393 0.931 . S
C376 N373 1.311 . S
C376 N377 1.347 . S
C376 H387 0.929 . S
N377 C375 1.375 . S
N377 C376 1.347 . S
C378 C381 1.365 . S
C378 N383 1.328 . S
C378 H384 0.929 . S
C379 C380 1.362 . S
C379 C382 1.378 . S
C379 H394 0.929 . S
C380 C379 1.362 . S
C380 C381 1.366 . S
C381 C378 1.365 . S
C381 C380 1.366 . S
C381 H395 0.930 . S
C382 C379 1.378 . S
C382 N383 1.315 . S
C382 H385 0.930 . S
N383 Co363 2.194 . S
N383 C378 1.328 . S
N383 C382 1.315 . S
H384 C378 0.929 . S
H385 C382 0.930 . S
H386 C374 0.929 . S
H387 C376 0.929 . S
O388 Co363 2.351 . S
O388 C391 1.244 . S
O389 Co363 2.155 . S
O389 C391 1.240 . S
O390 Co363 2.096 . S
O390 C371 1.247 . S
C391 O388 1.244 . S
C391 O389 1.240 . S
H392 C366 0.931 . S
H393 C375 0.931 . S
H394 C379 0.929 . S
H395 C381 0.930 . S
Co396 N400 2.148 . S
Co396 N406 2.128 . S
Co396 N416 2.194 . S
Co396 O421 2.351 . S
Co396 O422 2.155 . S
Co396 O423 2.096 . S
C397 N400 1.301 . S
C397 N401 1.328 . S
C397 H402 0.930 . S
C398 C399 1.333 . S
C398 N400 1.317 . S
C398 H403 0.930 . S
C399 C398 1.333 . S
C399 N401 1.350 . S
C399 H425 0.931 . S
N400 Co396 2.148 . S
N400 C397 1.301 . S
N400 C398 1.317 . S
N401 C397 1.328 . S
N401 C399 1.350 . S
H402 C397 0.930 . S
H403 C398 0.930 . S
C404 O405 1.224 . S
C404 O423 1.247 . S
O405 C404 1.224 . S
N406 Co396 2.128 . S
N406 C407 1.355 . S
N406 C409 1.311 . S
C407 N406 1.355 . S
C407 C408 1.363 . S
C407 H419 0.929 . S
C408 C407 1.363 . S
C408 N410 1.375 . S
C408 H426 0.931 . S
C409 N406 1.311 . S
C409 N410 1.347 . S
C409 H420 0.929 . S
N410 C408 1.375 . S
N410 C409 1.347 . S
C411 C414 1.365 . S
C411 N416 1.328 . S
C411 H417 0.929 . S
C412 C413 1.362 . S
C412 C415 1.378 . S
C412 H427 0.929 . S
C413 C412 1.362 . S
C413 C414 1.366 . S
C414 C411 1.365 . S
C414 C413 1.366 . S
C414 H428 0.930 . S
C415 C412 1.378 . S
C415 N416 1.315 . S
C415 H418 0.930 . S
N416 Co396 2.194 . S
N416 C411 1.328 . S
N416 C415 1.315 . S
H417 C411 0.929 . S
H418 C415 0.930 . S
H419 C407 0.929 . S
H420 C409 0.929 . S
O421 Co396 2.351 . S
O421 C424 1.244 . S
O422 Co396 2.155 . S
O422 C424 1.240 . S
O423 Co396 2.096 . S
O423 C404 1.247 . S
C424 O421 1.244 . S
C424 O422 1.240 . S
H425 C399 0.931 . S
H426 C408 0.931 . S
H427 C412 0.929 . S
H428 C414 0.930 . S
Co429 N433 2.148 . S
Co429 N439 2.128 . S
Co429 N449 2.194 . S
Co429 O454 2.351 . S
Co429 O455 2.155 . S
Co429 O456 2.096 . S
C430 N433 1.301 . S
C430 N434 1.328 . S
C430 H435 0.930 . S
C431 C432 1.333 . S
C431 N433 1.317 . S
C431 H436 0.930 . S
C432 C431 1.333 . S
C432 N434 1.350 . S
C432 H458 0.931 . S
N433 Co429 2.148 . S
N433 C430 1.301 . S
N433 C431 1.317 . S
N434 C430 1.328 . S
N434 C432 1.350 . S
H435 C430 0.930 . S
H436 C431 0.930 . S
C437 O438 1.224 . S
C437 O456 1.247 . S
O438 C437 1.224 . S
N439 Co429 2.128 . S
N439 C440 1.355 . S
N439 C442 1.311 . S
C440 N439 1.355 . S
C440 C441 1.363 . S
C440 H452 0.929 . S
C441 C440 1.363 . S
C441 N443 1.375 . S
C441 H459 0.931 . S
C442 N439 1.311 . S
C442 N443 1.347 . S
C442 H453 0.929 . S
N443 C441 1.375 . S
N443 C442 1.347 . S
C444 C447 1.365 1_556 S
C444 N449 1.328 . S
C444 H450 0.929 . S
C445 C446 1.362 . S
C445 C448 1.378 1_554 S
C445 H460 0.929 . S
C446 C445 1.362 . S
C446 C447 1.366 . S
C447 C444 1.365 1_554 S
C447 C446 1.366 . S
C447 H461 0.930 . S
C448 C445 1.378 1_556 S
C448 N449 1.315 . S
C448 H451 0.930 . S
N449 Co429 2.194 . S
N449 C444 1.328 . S
N449 C448 1.315 . S
H450 C444 0.929 . S
H451 C448 0.930 . S
H452 C440 0.929 . S
H453 C442 0.929 . S
O454 Co429 2.351 . S
O454 C457 1.244 . S
O455 Co429 2.155 . S
O455 C457 1.240 . S
O456 Co429 2.096 . S
O456 C437 1.247 . S
C457 O454 1.244 . S
C457 O455 1.240 . S
H458 C432 0.931 . S
H459 C441 0.931 . S
H460 C445 0.929 . S
H461 C447 0.930 . S
Co462 N466 2.148 . S
Co462 N472 2.128 . S
Co462 N482 2.194 . S
Co462 O487 2.351 . S
Co462 O488 2.155 . S
Co462 O489 2.096 . S
C463 N466 1.301 . S
C463 N467 1.328 . S
C463 H468 0.930 . S
C464 C465 1.333 . S
C464 N466 1.317 . S
C464 H469 0.930 . S
C465 C464 1.333 . S
C465 N467 1.350 . S
C465 H491 0.931 . S
N466 Co462 2.148 . S
N466 C463 1.301 . S
N466 C464 1.317 . S
N467 C463 1.328 . S
N467 C465 1.350 . S
H468 C463 0.930 . S
H469 C464 0.930 . S
C470 O471 1.224 . S
C470 O489 1.247 . S
O471 C470 1.224 . S
N472 Co462 2.128 . S
N472 C473 1.355 . S
N472 C475 1.311 . S
C473 N472 1.355 . S
C473 C474 1.363 . S
C473 H485 0.929 . S
C474 C473 1.363 . S
C474 N476 1.375 . S
C474 H492 0.931 . S
C475 N472 1.311 . S
C475 N476 1.347 . S
C475 H486 0.929 . S
N476 C474 1.375 . S
N476 C475 1.347 . S
C477 C480 1.365 . S
C477 N482 1.328 . S
C477 H483 0.929 . S
C478 C479 1.362 . S
C478 C481 1.378 . S
C478 H493 0.929 . S
C479 C478 1.362 . S
C479 C480 1.366 . S
C480 C477 1.365 . S
C480 C479 1.366 . S
C480 H494 0.930 . S
C481 C478 1.378 . S
C481 N482 1.315 . S
C481 H484 0.930 . S
N482 Co462 2.194 . S
N482 C477 1.328 . S
N482 C481 1.315 . S
H483 C477 0.929 . S
H484 C481 0.930 . S
H485 C473 0.929 . S
H486 C475 0.929 . S
O487 Co462 2.351 . S
O487 C490 1.244 . S
O488 Co462 2.155 . S
O488 C490 1.240 . S
O489 Co462 2.096 . S
O489 C470 1.247 . S
C490 O487 1.244 . S
C490 O488 1.240 . S
H491 C465 0.931 . S
H492 C474 0.931 . S
H493 C478 0.929 . S
H494 C480 0.930 . S
Co495 N499 2.148 . S
Co495 N505 2.128 . S
Co495 N515 2.194 . S
Co495 O520 2.351 . S
Co495 O521 2.155 . S
Co495 O522 2.096 . S
C496 N499 1.301 . S
C496 N500 1.328 . S
C496 H501 0.930 . S
C497 C498 1.333 . S
C497 N499 1.317 . S
C497 H502 0.930 . S
C498 C497 1.333 . S
C498 N500 1.350 . S
C498 H524 0.931 . S
N499 Co495 2.148 . S
N499 C496 1.301 . S
N499 C497 1.317 . S
N500 C496 1.328 . S
N500 C498 1.350 . S
H501 C496 0.930 . S
H502 C497 0.930 . S
C503 O504 1.224 . S
C503 O522 1.247 . S
O504 C503 1.224 . S
N505 Co495 2.128 . S
N505 C506 1.355 . S
N505 C508 1.311 . S
C506 N505 1.355 . S
C506 C507 1.363 . S
C506 H518 0.929 . S
C507 C506 1.363 . S
C507 N509 1.375 . S
C507 H525 0.931 . S
C508 N505 1.311 . S
C508 N509 1.347 . S
C508 H519 0.929 . S
N509 C507 1.375 . S
N509 C508 1.347 . S
C510 C513 1.365 1_554 S
C510 N515 1.328 . S
C510 H516 0.929 . S
C511 C512 1.362 . S
C511 C514 1.378 1_556 S
C511 H526 0.929 . S
C512 C511 1.362 . S
C512 C513 1.366 . S
C513 C510 1.365 1_556 S
C513 C512 1.366 . S
C513 H527 0.930 . S
C514 C511 1.378 1_554 S
C514 N515 1.315 . S
C514 H517 0.930 . S
N515 Co495 2.194 . S
N515 C510 1.328 . S
N515 C514 1.315 . S
H516 C510 0.929 . S
H517 C514 0.930 . S
H518 C506 0.929 . S
H519 C508 0.929 . S
O520 Co495 2.351 . S
O520 C523 1.244 . S
O521 Co495 2.155 . S
O521 C523 1.240 . S
O522 Co495 2.096 . S
O522 C503 1.247 . S
C523 O520 1.244 . S
C523 O521 1.240 . S
H524 C498 0.931 . S
H525 C507 0.931 . S
H526 C511 0.929 . S
H527 C513 0.930 . S
C528 C529 1.363 . S
C528 C534 1.379 . S
C528 N536 1.356 . S
C529 C528 1.363 . S
C529 C535 1.363 . S
C530 C531 1.363 . S
C530 C535 1.379 . S
C530 N537 1.356 . S
C531 C530 1.363 . S
C531 C534 1.363 . S
N532 C534 1.356 . S
N532 H544 0.984 . S
N532 H545 0.985 . S
N533 C535 1.356 . S
N533 H538 0.984 . S
N533 H539 0.985 . S
C534 C528 1.379 . S
C534 C531 1.363 . S
C534 N532 1.356 . S
C535 C529 1.363 . S
C535 C530 1.379 . S
C535 N533 1.356 . S
N536 C528 1.356 . S
N536 H542 0.984 . S
N536 H543 0.984 . S
N537 C530 1.356 . S
N537 H540 0.984 . S
N537 H541 0.985 . S
H538 N533 0.984 . S
H539 N533 0.985 . S
H540 N537 0.984 . S
H541 N537 0.985 . S
H542 N536 0.984 . S
H543 N536 0.984 . S
H544 N532 0.984 . S
H545 N532 0.985 . S
C546 C547 1.363 . S
C546 C552 1.379 . S
C546 N554 1.356 . S
C547 C546 1.363 . S
C547 C553 1.363 . S
C548 C549 1.363 . S
C548 C553 1.379 . S
C548 N555 1.356 . S
C549 C548 1.363 . S
C549 C552 1.363 . S
N550 C552 1.356 . S
N550 H562 0.984 . S
N550 H563 0.985 . S
N551 C553 1.356 . S
N551 H556 0.984 . S
N551 H557 0.985 . S
C552 C546 1.379 . S
C552 C549 1.363 . S
C552 N550 1.356 . S
C553 C547 1.363 . S
C553 C548 1.379 . S
C553 N551 1.356 . S
N554 C546 1.356 . S
N554 H560 0.984 . S
N554 H561 0.984 . S
N555 C548 1.356 . S
N555 H558 0.984 . S
N555 H559 0.985 . S
H556 N551 0.984 . S
H557 N551 0.985 . S
H558 N555 0.984 . S
H559 N555 0.985 . S
H560 N554 0.984 . S
H561 N554 0.984 . S
H562 N550 0.984 . S
H563 N550 0.985 . S
C564 C565 1.363 . S
C564 C570 1.379 . S
C564 N572 1.356 . S
C565 C564 1.363 . S
C565 C571 1.363 . S
C566 C567 1.363 . S
C566 C571 1.379 . S
C566 N573 1.356 . S
C567 C566 1.363 . S
C567 C570 1.363 . S
N568 C570 1.356 . S
N568 H580 0.984 . S
N568 H581 0.985 . S
N569 C571 1.356 . S
N569 H574 0.984 . S
N569 H575 0.985 . S
C570 C564 1.379 . S
C570 C567 1.363 . S
C570 N568 1.356 . S
C571 C565 1.363 . S
C571 C566 1.379 . S
C571 N569 1.356 . S
N572 C564 1.356 . S
N572 H578 0.984 . S
N572 H579 0.984 . S
N573 C566 1.356 . S
N573 H576 0.984 . S
N573 H577 0.985 . S
H574 N569 0.984 . S
H575 N569 0.985 . S
H576 N573 0.984 . S
H577 N573 0.985 . S
H578 N572 0.984 . S
H579 N572 0.984 . S
H580 N568 0.984 . S
H581 N568 0.985 . S
C582 C583 1.363 . S
C582 C588 1.379 . S
C582 N590 1.356 . S
C583 C582 1.363 . S
C583 C589 1.363 . S
C584 C585 1.363 . S
C584 C589 1.379 . S
C584 N591 1.356 . S
C585 C584 1.363 . S
C585 C588 1.363 . S
N586 C588 1.356 . S
N586 H598 0.984 . S
N586 H599 0.985 . S
N587 C589 1.356 . S
N587 H592 0.984 . S
N587 H593 0.985 . S
C588 C582 1.379 . S
C588 C585 1.363 . S
C588 N586 1.356 . S
C589 C583 1.363 . S
C589 C584 1.379 . S
C589 N587 1.356 . S
N590 C582 1.356 . S
N590 H596 0.984 . S
N590 H597 0.984 . S
N591 C584 1.356 . S
N591 H594 0.984 . S
N591 H595 0.985 . S
H592 N587 0.984 . S
H593 N587 0.985 . S
H594 N591 0.984 . S
H595 N591 0.985 . S
H596 N590 0.984 . S
H597 N590 0.984 . S
H598 N586 0.984 . S
H599 N586 0.985 . S
C600 C601 1.363 . S
C600 C606 1.379 . S
C600 N608 1.356 . S
C601 C600 1.363 . S
C601 C607 1.363 . S
C602 C603 1.363 . S
C602 C607 1.379 . S
C602 N609 1.356 . S
C603 C602 1.363 . S
C603 C606 1.363 . S
N604 C606 1.356 . S
N604 H616 0.984 . S
N604 H617 0.985 . S
N605 C607 1.356 . S
N605 H610 0.984 . S
N605 H611 0.985 . S
C606 C600 1.379 . S
C606 C603 1.363 . S
C606 N604 1.356 . S
C607 C601 1.363 . S
C607 C602 1.379 . S
C607 N605 1.356 . S
N608 C600 1.356 . S
N608 H614 0.984 . S
N608 H615 0.984 . S
N609 C602 1.356 . S
N609 H612 0.984 . S
N609 H613 0.985 . S
H610 N605 0.984 . S
H611 N605 0.985 . S
H612 N609 0.984 . S
H613 N609 0.985 . S
H614 N608 0.984 . S
H615 N608 0.984 . S
H616 N604 0.984 . S
H617 N604 0.985 . S
C618 C619 1.363 . S
C618 C624 1.379 . S
C618 N626 1.356 . S
C619 C618 1.363 . S
C619 C625 1.363 . S
C620 C621 1.363 . S
C620 C625 1.379 . S
C620 N627 1.356 . S
C621 C620 1.363 . S
C621 C624 1.363 . S
N622 C624 1.356 . S
N622 H634 0.984 . S
N622 H635 0.985 . S
N623 C625 1.356 . S
N623 H628 0.984 . S
N623 H629 0.985 . S
C624 C618 1.379 . S
C624 C621 1.363 . S
C624 N622 1.356 . S
C625 C619 1.363 . S
C625 C620 1.379 . S
C625 N623 1.356 . S
N626 C618 1.356 . S
N626 H632 0.984 . S
N626 H633 0.984 . S
N627 C620 1.356 . S
N627 H630 0.984 . S
N627 H631 0.985 . S
H628 N623 0.984 . S
H629 N623 0.985 . S
H630 N627 0.984 . S
H631 N627 0.985 . S
H632 N626 0.984 . S
H633 N626 0.984 . S
H634 N622 0.984 . S
H635 N622 0.985 . S
C636 C637 1.363 . S
C636 C642 1.379 . S
C636 N644 1.356 . S
C637 C636 1.363 . S
C637 C643 1.363 . S
C638 C639 1.363 . S
C638 C643 1.379 . S
C638 N645 1.356 . S
C639 C638 1.363 . S
C639 C642 1.363 . S
N640 C642 1.356 . S
N640 H652 0.984 . S
N640 H653 0.985 . S
N641 C643 1.356 . S
N641 H646 0.984 . S
N641 H647 0.985 . S
C642 C636 1.379 . S
C642 C639 1.363 . S
C642 N640 1.356 . S
C643 C637 1.363 . S
C643 C638 1.379 . S
C643 N641 1.356 . S
N644 C636 1.356 . S
N644 H650 0.984 . S
N644 H651 0.984 . S
N645 C638 1.356 . S
N645 H648 0.984 . S
N645 H649 0.985 . S
H646 N641 0.984 . S
H647 N641 0.985 . S
H648 N645 0.984 . S
H649 N645 0.985 . S
H650 N644 0.984 . S
H651 N644 0.984 . S
H652 N640 0.984 . S
H653 N640 0.985 . S
C654 C655 1.363 . S
C654 C660 1.379 . S
C654 N662 1.356 . S
C655 C654 1.363 . S
C655 C661 1.363 . S
C656 C657 1.363 . S
C656 C661 1.379 . S
C656 N663 1.356 . S
C657 C656 1.363 . S
C657 C660 1.363 . S
N658 C660 1.356 . S
N658 H670 0.984 . S
N658 H671 0.985 . S
N659 C661 1.356 . S
N659 H664 0.984 . S
N659 H665 0.985 . S
C660 C654 1.379 . S
C660 C657 1.363 . S
C660 N658 1.356 . S
C661 C655 1.363 . S
C661 C656 1.379 . S
C661 N659 1.356 . S
N662 C654 1.356 . S
N662 H668 0.984 . S
N662 H669 0.984 . S
N663 C656 1.356 . S
N663 H666 0.984 . S
N663 H667 0.985 . S
H664 N659 0.984 . S
H665 N659 0.985 . S
H666 N663 0.984 . S
H667 N663 0.985 . S
H668 N662 0.984 . S
H669 N662 0.984 . S
H670 N658 0.984 . S
H671 N658 0.985 . S
C672 C673 1.363 . S
C672 C678 1.379 . S
C672 N680 1.356 . S
C673 C672 1.363 . S
C673 C679 1.363 . S
C674 C675 1.363 . S
C674 C679 1.379 . S
C674 N681 1.356 . S
C675 C674 1.363 . S
C675 C678 1.363 . S
N676 C678 1.356 . S
N676 H688 0.984 . S
N676 H689 0.985 . S
N677 C679 1.356 . S
N677 H682 0.984 . S
N677 H683 0.985 . S
C678 C672 1.379 . S
C678 C675 1.363 . S
C678 N676 1.356 . S
C679 C673 1.363 . S
C679 C674 1.379 . S
C679 N677 1.356 . S
N680 C672 1.356 . S
N680 H686 0.984 . S
N680 H687 0.984 . S
N681 C674 1.356 . S
N681 H684 0.984 . S
N681 H685 0.985 . S
H682 N677 0.984 . S
H683 N677 0.985 . S
H684 N681 0.984 . S
H685 N681 0.985 . S
H686 N680 0.984 . S
H687 N680 0.984 . S
H688 N676 0.984 . S
H689 N676 0.985 . S
C690 C691 1.363 . S
C690 C696 1.379 . S
C690 N698 1.356 . S
C691 C690 1.363 . S
C691 C697 1.363 . S
C692 C693 1.363 . S
C692 C697 1.379 . S
C692 N699 1.356 . S
C693 C692 1.363 . S
C693 C696 1.363 . S
N694 C696 1.356 . S
N694 H706 0.984 . S
N694 H707 0.985 . S
N695 C697 1.356 . S
N695 H700 0.984 . S
N695 H701 0.985 . S
C696 C690 1.379 . S
C696 C693 1.363 . S
C696 N694 1.356 . S
C697 C691 1.363 . S
C697 C692 1.379 . S
C697 N695 1.356 . S
N698 C690 1.356 . S
N698 H704 0.984 . S
N698 H705 0.984 . S
N699 C692 1.356 . S
N699 H702 0.984 . S
N699 H703 0.985 . S
H700 N695 0.984 . S
H701 N695 0.985 . S
H702 N699 0.984 . S
H703 N699 0.985 . S
H704 N698 0.984 . S
H705 N698 0.984 . S
H706 N694 0.984 . S
H707 N694 0.985 . S
C708 C709 1.363 . S
C708 C714 1.379 . S
C708 N716 1.356 . S
C709 C708 1.363 . S
C709 C715 1.363 . S
C710 C711 1.363 . S
C710 C715 1.379 . S
C710 N717 1.356 . S
C711 C710 1.363 . S
C711 C714 1.363 . S
N712 C714 1.356 . S
N712 H724 0.984 . S
N712 H725 0.985 . S
N713 C715 1.356 . S
N713 H718 0.984 . S
N713 H719 0.985 . S
C714 C708 1.379 . S
C714 C711 1.363 . S
C714 N712 1.356 . S
C715 C709 1.363 . S
C715 C710 1.379 . S
C715 N713 1.356 . S
N716 C708 1.356 . S
N716 H722 0.984 . S
N716 H723 0.984 . S
N717 C710 1.356 . S
N717 H720 0.984 . S
N717 H721 0.985 . S
H718 N713 0.984 . S
H719 N713 0.985 . S
H720 N717 0.984 . S
H721 N717 0.985 . S
H722 N716 0.984 . S
H723 N716 0.984 . S
H724 N712 0.984 . S
H725 N712 0.985 . S
C726 C727 1.363 . S
C726 C732 1.379 . S
C726 N734 1.356 . S
C727 C726 1.363 . S
C727 C733 1.363 . S
C728 C729 1.363 . S
C728 C733 1.379 . S
C728 N735 1.356 . S
C729 C728 1.363 . S
C729 C732 1.363 . S
N730 C732 1.356 . S
N730 H742 0.984 . S
N730 H743 0.985 . S
N731 C733 1.356 . S
N731 H736 0.984 . S
N731 H737 0.985 . S
C732 C726 1.379 . S
C732 C729 1.363 . S
C732 N730 1.356 . S
C733 C727 1.363 . S
C733 C728 1.379 . S
C733 N731 1.356 . S
N734 C726 1.356 . S
N734 H740 0.984 . S
N734 H741 0.984 . S
N735 C728 1.356 . S
N735 H738 0.984 . S
N735 H739 0.985 . S
H736 N731 0.984 . S
H737 N731 0.985 . S
H738 N735 0.984 . S
H739 N735 0.985 . S
H740 N734 0.984 . S
H741 N734 0.984 . S
H742 N730 0.984 . S
H743 N730 0.985 . S
C744 C745 1.363 . S
C744 C750 1.379 . S
C744 N752 1.356 . S
C745 C744 1.363 . S
C745 C751 1.363 . S
C746 C747 1.363 . S
C746 C751 1.379 . S
C746 N753 1.356 . S
C747 C746 1.363 . S
C747 C750 1.363 . S
N748 C750 1.356 . S
N748 H760 0.984 . S
N748 H761 0.985 . S
N749 C751 1.356 . S
N749 H754 0.984 . S
N749 H755 0.985 . S
C750 C744 1.379 . S
C750 C747 1.363 . S
C750 N748 1.356 . S
C751 C745 1.363 . S
C751 C746 1.379 . S
C751 N749 1.356 . S
N752 C744 1.356 . S
N752 H758 0.984 . S
N752 H759 0.984 . S
N753 C746 1.356 . S
N753 H756 0.984 . S
N753 H757 0.985 . S
H754 N749 0.984 . S
H755 N749 0.985 . S
H756 N753 0.984 . S
H757 N753 0.985 . S
H758 N752 0.984 . S
H759 N752 0.984 . S
H760 N748 0.984 . S
H761 N748 0.985 . S
C762 C763 1.363 . S
C762 C768 1.379 . S
C762 N770 1.356 . S
C763 C762 1.363 . S
C763 C769 1.363 . S
C764 C765 1.363 . S
C764 C769 1.379 . S
C764 N771 1.356 . S
C765 C764 1.363 . S
C765 C768 1.363 . S
N766 C768 1.356 . S
N766 H778 0.984 . S
N766 H779 0.985 . S
N767 C769 1.356 . S
N767 H772 0.984 . S
N767 H773 0.985 . S
C768 C762 1.379 . S
C768 C765 1.363 . S
C768 N766 1.356 . S
C769 C763 1.363 . S
C769 C764 1.379 . S
C769 N767 1.356 . S
N770 C762 1.356 . S
N770 H776 0.984 . S
N770 H777 0.984 . S
N771 C764 1.356 . S
N771 H774 0.984 . S
N771 H775 0.985 . S
H772 N767 0.984 . S
H773 N767 0.985 . S
H774 N771 0.984 . S
H775 N771 0.985 . S
H776 N770 0.984 . S
H777 N770 0.984 . S
H778 N766 0.984 . S
H779 N766 0.985 . S
C780 C781 1.363 . S
C780 C786 1.379 . S
C780 N788 1.356 . S
C781 C780 1.363 . S
C781 C787 1.363 . S
C782 C783 1.363 . S
C782 C787 1.379 . S
C782 N789 1.356 . S
C783 C782 1.363 . S
C783 C786 1.363 . S
N784 C786 1.356 . S
N784 H796 0.984 . S
N784 H797 0.985 . S
N785 C787 1.356 . S
N785 H790 0.984 . S
N785 H791 0.985 . S
C786 C780 1.379 . S
C786 C783 1.363 . S
C786 N784 1.356 . S
C787 C781 1.363 . S
C787 C782 1.379 . S
C787 N785 1.356 . S
N788 C780 1.356 . S
N788 H794 0.984 . S
N788 H795 0.984 . S
N789 C782 1.356 . S
N789 H792 0.984 . S
N789 H793 0.985 . S
H790 N785 0.984 . S
H791 N785 0.985 . S
H792 N789 0.984 . S
H793 N789 0.985 . S
H794 N788 0.984 . S
H795 N788 0.984 . S
H796 N784 0.984 . S
H797 N784 0.985 . S
C798 C799 1.363 . S
C798 C804 1.379 . S
C798 N806 1.356 . S
C799 C798 1.363 . S
C799 C805 1.363 . S
C800 C801 1.363 . S
C800 C805 1.379 . S
C800 N807 1.356 . S
C801 C800 1.363 . S
C801 C804 1.363 . S
N802 C804 1.356 . S
N802 H814 0.984 . S
N802 H815 0.985 . S
N803 C805 1.356 . S
N803 H808 0.984 . S
N803 H809 0.985 . S
C804 C798 1.379 . S
C804 C801 1.363 . S
C804 N802 1.356 . S
C805 C799 1.363 . S
C805 C800 1.379 . S
C805 N803 1.356 . S
N806 C798 1.356 . S
N806 H812 0.984 . S
N806 H813 0.984 . S
N807 C800 1.356 . S
N807 H810 0.984 . S
N807 H811 0.985 . S
H808 N803 0.984 . S
H809 N803 0.985 . S
H810 N807 0.984 . S
H811 N807 0.985 . S
H812 N806 0.984 . S
H813 N806 0.984 . S
H814 N802 0.984 . S
H815 N802 0.985 . S
C816 C817 1.363 . S
C816 C822 1.379 . S
C816 N824 1.356 . S
C817 C816 1.363 . S
C817 C823 1.363 . S
C818 C819 1.363 . S
C818 C823 1.379 . S
C818 N825 1.356 . S
C819 C818 1.363 . S
C819 C822 1.363 . S
N820 C822 1.356 . S
N820 H832 0.984 . S
N820 H833 0.985 . S
N821 C823 1.356 . S
N821 H826 0.984 . S
N821 H827 0.985 . S
C822 C816 1.379 . S
C822 C819 1.363 . S
C822 N820 1.356 . S
C823 C817 1.363 . S
C823 C818 1.379 . S
C823 N821 1.356 . S
N824 C816 1.356 . S
N824 H830 0.984 . S
N824 H831 0.984 . S
N825 C818 1.356 . S
N825 H828 0.984 . S
N825 H829 0.985 . S
H826 N821 0.984 . S
H827 N821 0.985 . S
H828 N825 0.984 . S
H829 N825 0.985 . S
H830 N824 0.984 . S
H831 N824 0.984 . S
H832 N820 0.984 . S
H833 N820 0.985 . S
C834 C835 1.363 . S
C834 C840 1.379 . S
C834 N842 1.356 . S
C835 C834 1.363 . S
C835 C841 1.363 . S
C836 C837 1.363 . S
C836 C841 1.379 . S
C836 N843 1.356 . S
C837 C836 1.363 . S
C837 C840 1.363 . S
N838 C840 1.356 . S
N838 H850 0.984 . S
N838 H851 0.985 . S
N839 C841 1.356 . S
N839 H844 0.984 . S
N839 H845 0.985 . S
C840 C834 1.379 . S
C840 C837 1.363 . S
C840 N838 1.356 . S
C841 C835 1.363 . S
C841 C836 1.379 . S
C841 N839 1.356 . S
N842 C834 1.356 . S
N842 H848 0.984 . S
N842 H849 0.984 . S
N843 C836 1.356 . S
N843 H846 0.984 . S
N843 H847 0.985 . S
H844 N839 0.984 . S
H845 N839 0.985 . S
H846 N843 0.984 . S
H847 N843 0.985 . S
H848 N842 0.984 . S
H849 N842 0.984 . S
H850 N838 0.984 . S
H851 N838 0.985 . S
C852 C853 1.363 . S
C852 C858 1.379 . S
C852 N860 1.356 . S
C853 C852 1.363 . S
C853 C859 1.363 . S
C854 C855 1.363 . S
C854 C859 1.379 . S
C854 N861 1.356 . S
C855 C854 1.363 . S
C855 C858 1.363 . S
N856 C858 1.356 . S
N856 H868 0.984 . S
N856 H869 0.985 . S
N857 C859 1.356 . S
N857 H862 0.984 . S
N857 H863 0.985 . S
C858 C852 1.379 . S
C858 C855 1.363 . S
C858 N856 1.356 . S
C859 C853 1.363 . S
C859 C854 1.379 . S
C859 N857 1.356 . S
N860 C852 1.356 . S
N860 H866 0.984 . S
N860 H867 0.984 . S
N861 C854 1.356 . S
N861 H864 0.984 . S
N861 H865 0.985 . S
H862 N857 0.984 . S
H863 N857 0.985 . S
H864 N861 0.984 . S
H865 N861 0.985 . S
H866 N860 0.984 . S
H867 N860 0.984 . S
H868 N856 0.984 . S
H869 N856 0.985 . S
C870 C871 1.363 . S
C870 C876 1.379 . S
C870 N878 1.356 . S
C871 C870 1.363 . S
C871 C877 1.363 . S
C872 C873 1.363 . S
C872 C877 1.379 . S
C872 N879 1.356 . S
C873 C872 1.363 . S
C873 C876 1.363 . S
N874 C876 1.356 . S
N874 H886 0.984 . S
N874 H887 0.985 . S
N875 C877 1.356 . S
N875 H880 0.984 . S
N875 H881 0.985 . S
C876 C870 1.379 . S
C876 C873 1.363 . S
C876 N874 1.356 . S
C877 C871 1.363 . S
C877 C872 1.379 . S
C877 N875 1.356 . S
N878 C870 1.356 . S
N878 H884 0.984 . S
N878 H885 0.984 . S
N879 C872 1.356 . S
N879 H882 0.984 . S
N879 H883 0.985 . S
H880 N875 0.984 . S
H881 N875 0.985 . S
H882 N879 0.984 . S
H883 N879 0.985 . S
H884 N878 0.984 . S
H885 N878 0.984 . S
H886 N874 0.984 . S
H887 N874 0.985 . S
C888 C889 1.363 . S
C888 C894 1.379 . S
C888 N896 1.356 . S
C889 C888 1.363 . S
C889 C895 1.363 . S
C890 C891 1.363 . S
C890 C895 1.379 . S
C890 N897 1.356 . S
C891 C890 1.363 . S
C891 C894 1.363 . S
N892 C894 1.356 . S
N892 H904 0.984 . S
N892 H905 0.985 . S
N893 C895 1.356 . S
N893 H898 0.984 . S
N893 H899 0.985 . S
C894 C888 1.379 . S
C894 C891 1.363 . S
C894 N892 1.356 . S
C895 C889 1.363 . S
C895 C890 1.379 . S
C895 N893 1.356 . S
N896 C888 1.356 . S
N896 H902 0.984 . S
N896 H903 0.984 . S
N897 C890 1.356 . S
N897 H900 0.984 . S
N897 H901 0.985 . S
H898 N893 0.984 . S
H899 N893 0.985 . S
H900 N897 0.984 . S
H901 N897 0.985 . S
H902 N896 0.984 . S
H903 N896 0.984 . S
H904 N892 0.984 . S
H905 N892 0.985 . S
C906 C907 1.363 . S
C906 C912 1.379 . S
C906 N914 1.356 . S
C907 C906 1.363 . S
C907 C913 1.363 . S
C908 C909 1.363 . S
C908 C913 1.379 . S
C908 N915 1.356 . S
C909 C908 1.363 . S
C909 C912 1.363 . S
N910 C912 1.356 . S
N910 H922 0.984 . S
N910 H923 0.985 . S
N911 C913 1.356 . S
N911 H916 0.984 . S
N911 H917 0.985 . S
C912 C906 1.379 . S
C912 C909 1.363 . S
C912 N910 1.356 . S
C913 C907 1.363 . S
C913 C908 1.379 . S
C913 N911 1.356 . S
N914 C906 1.356 . S
N914 H920 0.984 . S
N914 H921 0.984 . S
N915 C908 1.356 . S
N915 H918 0.984 . S
N915 H919 0.985 . S
H916 N911 0.984 . S
H917 N911 0.985 . S
H918 N915 0.984 . S
H919 N915 0.985 . S
H920 N914 0.984 . S
H921 N914 0.984 . S
H922 N910 0.984 . S
H923 N910 0.985 . S
C924 C925 1.363 . S
C924 C930 1.379 . S
C924 N932 1.356 . S
C925 C924 1.363 . S
C925 C931 1.363 . S
C926 C927 1.363 . S
C926 C931 1.379 . S
C926 N933 1.356 . S
C927 C926 1.363 . S
C927 C930 1.363 . S
N928 C930 1.356 . S
N928 H940 0.984 . S
N928 H941 0.985 . S
N929 C931 1.356 . S
N929 H934 0.984 . S
N929 H935 0.985 . S
C930 C924 1.379 . S
C930 C927 1.363 . S
C930 N928 1.356 . S
C931 C925 1.363 . S
C931 C926 1.379 . S
C931 N929 1.356 . S
N932 C924 1.356 . S
N932 H938 0.984 . S
N932 H939 0.984 . S
N933 C926 1.356 . S
N933 H936 0.984 . S
N933 H937 0.985 . S
H934 N929 0.984 . S
H935 N929 0.985 . S
H936 N933 0.984 . S
H937 N933 0.985 . S
H938 N932 0.984 . S
H939 N932 0.984 . S
H940 N928 0.984 . S
H941 N928 0.985 . S
C942 C943 1.363 . S
C942 C948 1.379 . S
C942 N950 1.356 . S
C943 C942 1.363 . S
C943 C949 1.363 . S
C944 C945 1.363 . S
C944 C949 1.379 . S
C944 N951 1.356 . S
C945 C944 1.363 . S
C945 C948 1.363 . S
N946 C948 1.356 . S
N946 H958 0.984 . S
N946 H959 0.985 . S
N947 C949 1.356 . S
N947 H952 0.984 . S
N947 H953 0.985 . S
C948 C942 1.379 . S
C948 C945 1.363 . S
C948 N946 1.356 . S
C949 C943 1.363 . S
C949 C944 1.379 . S
C949 N947 1.356 . S
N950 C942 1.356 . S
N950 H956 0.984 . S
N950 H957 0.984 . S
N951 C944 1.356 . S
N951 H954 0.984 . S
N951 H955 0.985 . S
H952 N947 0.984 . S
H953 N947 0.985 . S
H954 N951 0.984 . S
H955 N951 0.985 . S
H956 N950 0.984 . S
H957 N950 0.984 . S
H958 N946 0.984 . S
H959 N946 0.985 . S
C960 C961 1.363 . S
C960 C966 1.379 . S
C960 N968 1.356 . S
C961 C960 1.363 . S
C961 C967 1.363 . S
C962 C963 1.363 . S
C962 C967 1.379 . S
C962 N969 1.356 . S
C963 C962 1.363 . S
C963 C966 1.363 . S
N964 C966 1.356 . S
N964 H976 0.984 . S
N964 H977 0.985 . S
N965 C967 1.356 . S
N965 H970 0.984 . S
N965 H971 0.985 . S
C966 C960 1.379 . S
C966 C963 1.363 . S
C966 N964 1.356 . S
C967 C961 1.363 . S
C967 C962 1.379 . S
C967 N965 1.356 . S
N968 C960 1.356 . S
N968 H974 0.984 . S
N968 H975 0.984 . S
N969 C962 1.356 . S
N969 H972 0.984 . S
N969 H973 0.985 . S
H970 N965 0.984 . S
H971 N965 0.985 . S
H972 N969 0.984 . S
H973 N969 0.985 . S
H974 N968 0.984 . S
H975 N968 0.984 . S
H976 N964 0.984 . S
H977 N964 0.985 . S
C978 C979 1.363 1_455 S
C978 C984 1.379 . S
C978 N986 1.356 . S
C979 C978 1.363 1_655 S
C979 C985 1.363 1_565 S
C980 C981 1.363 1_655 S
C980 C985 1.379 . S
C980 N987 1.356 . S
C981 C980 1.363 1_455 S
C981 C984 1.363 1_545 S
N982 C984 1.356 . S
N982 H994 0.984 . S
N982 H995 0.985 1_565 S
N983 C985 1.356 . S
N983 H988 0.984 1_545 S
N983 H989 0.985 . S
C984 C978 1.379 . S
C984 C981 1.363 1_565 S
C984 N982 1.356 . S
C985 C979 1.363 1_545 S
C985 C980 1.379 . S
C985 N983 1.356 . S
N986 C978 1.356 . S
N986 H992 0.984 . S
N986 H993 0.984 1_455 S
N987 C980 1.356 . S
N987 H990 0.984 1_655 S
N987 H991 0.985 . S
H988 N983 0.984 1_565 S
H989 N983 0.985 . S
H990 N987 0.984 1_455 S
H991 N987 0.985 . S
H992 N986 0.984 . S
H993 N986 0.984 1_655 S
H994 N982 0.984 . S
H995 N982 0.985 1_545 S
C996 C997 1.363 . S
C996 C1002 1.379 . S
C996 N1004 1.356 . S
C997 C996 1.363 . S
C997 C1003 1.363 1_565 S
C998 C999 1.363 . S
C998 C1003 1.379 . S
C998 N1005 1.356 . S
C999 C998 1.363 . S
C999 C1002 1.363 1_545 S
N1000 C1002 1.356 . S
N1000 H1012 0.984 . S
N1000 H1013 0.985 . S
N1001 C1003 1.356 . S
N1001 H1006 0.984 . S
N1001 H1007 0.985 . S
C1002 C996 1.379 . S
C1002 C999 1.363 1_565 S
C1002 N1000 1.356 . S
C1003 C997 1.363 1_545 S
C1003 C998 1.379 . S
C1003 N1001 1.356 . S
N1004 C996 1.356 . S
N1004 H1010 0.984 . S
N1004 H1011 0.984 . S
N1005 C998 1.356 . S
N1005 H1008 0.984 . S
N1005 H1009 0.985 . S
H1006 N1001 0.984 . S
H1007 N1001 0.985 . S
H1008 N1005 0.984 . S
H1009 N1005 0.985 . S
H1010 N1004 0.984 . S
H1011 N1004 0.984 . S
H1012 N1000 0.984 . S
H1013 N1000 0.985 . S
C1014 C1015 1.363 1_455 S
C1014 C1020 1.379 . S
C1014 N1022 1.356 . S
C1015 C1014 1.363 1_655 S
C1015 C1021 1.363 . S
C1016 C1017 1.363 1_655 S
C1016 C1021 1.379 . S
C1016 N1023 1.356 . S
C1017 C1016 1.363 1_455 S
C1017 C1020 1.363 . S
N1018 C1020 1.356 . S
N1018 H1030 0.984 . S
N1018 H1031 0.985 . S
N1019 C1021 1.356 . S
N1019 H1024 0.984 . S
N1019 H1025 0.985 . S
C1020 C1014 1.379 . S
C1020 C1017 1.363 . S
C1020 N1018 1.356 . S
C1021 C1015 1.363 . S
C1021 C1016 1.379 . S
C1021 N1019 1.356 . S
N1022 C1014 1.356 . S
N1022 H1028 0.984 . S
N1022 H1029 0.984 1_455 S
N1023 C1016 1.356 . S
N1023 H1026 0.984 1_655 S
N1023 H1027 0.985 . S
H1024 N1019 0.984 . S
H1025 N1019 0.985 . S
H1026 N1023 0.984 1_455 S
H1027 N1023 0.985 . S
H1028 N1022 0.984 . S
H1029 N1022 0.984 1_655 S
H1030 N1018 0.984 . S
H1031 N1018 0.985 . S
C1032 C1033 1.363 . S
C1032 C1038 1.379 . S
C1032 N1040 1.356 . S
C1033 C1032 1.363 . S
C1033 C1039 1.363 . S
C1034 C1035 1.363 . S
C1034 C1039 1.379 . S
C1034 N1041 1.356 . S
C1035 C1034 1.363 . S
C1035 C1038 1.363 . S
N1036 C1038 1.356 . S
N1036 H1048 0.984 . S
N1036 H1049 0.985 . S
N1037 C1039 1.356 . S
N1037 H1042 0.984 . S
N1037 H1043 0.985 . S
C1038 C1032 1.379 . S
C1038 C1035 1.363 . S
C1038 N1036 1.356 . S
C1039 C1033 1.363 . S
C1039 C1034 1.379 . S
C1039 N1037 1.356 . S
N1040 C1032 1.356 . S
N1040 H1046 0.984 . S
N1040 H1047 0.984 . S
N1041 C1034 1.356 . S
N1041 H1044 0.984 . S
N1041 H1045 0.985 . S
H1042 N1037 0.984 . S
H1043 N1037 0.985 . S
H1044 N1041 0.984 . S
H1045 N1041 0.985 . S
H1046 N1040 0.984 . S
H1047 N1040 0.984 . S
H1048 N1036 0.984 . S
H1049 N1036 0.985 . S
C1050 C1051 1.363 . S
C1050 C1056 1.379 1_545 S
C1050 N1058 1.356 . S
C1051 C1050 1.363 . S
C1051 C1057 1.363 . S
C1052 C1053 1.363 . S
C1052 C1057 1.379 1_565 S
C1052 N1059 1.356 . S
C1053 C1052 1.363 . S
C1053 C1056 1.363 . S
N1054 C1056 1.356 . S
N1054 H1066 0.984 . S
N1054 H1067 0.985 . S
N1055 C1057 1.356 . S
N1055 H1060 0.984 . S
N1055 H1061 0.985 . S
C1056 C1050 1.379 1_565 S
C1056 C1053 1.363 . S
C1056 N1054 1.356 . S
C1057 C1051 1.363 . S
C1057 C1052 1.379 1_545 S
C1057 N1055 1.356 . S
N1058 C1050 1.356 . S
N1058 H1064 0.984 . S
N1058 H1065 0.984 . S
N1059 C1052 1.356 . S
N1059 H1062 0.984 . S
N1059 H1063 0.985 . S
H1060 N1055 0.984 . S
H1061 N1055 0.985 . S
H1062 N1059 0.984 . S
H1063 N1059 0.985 . S
H1064 N1058 0.984 . S
H1065 N1058 0.984 . S
H1066 N1054 0.984 . S
H1067 N1054 0.985 . S
C1068 C1069 1.363 . S
C1068 C1074 1.379 1_655 S
C1068 N1076 1.356 . S
C1069 C1068 1.363 . S
C1069 C1075 1.363 . S
C1070 C1071 1.363 . S
C1070 C1075 1.379 1_455 S
C1070 N1077 1.356 . S
C1071 C1070 1.363 . S
C1071 C1074 1.363 . S
N1072 C1074 1.356 . S
N1072 H1084 0.984 . S
N1072 H1085 0.985 . S
N1073 C1075 1.356 . S
N1073 H1078 0.984 . S
N1073 H1079 0.985 . S
C1074 C1068 1.379 1_455 S
C1074 C1071 1.363 . S
C1074 N1072 1.356 . S
C1075 C1069 1.363 . S
C1075 C1070 1.379 1_655 S
C1075 N1073 1.356 . S
N1076 C1068 1.356 . S
N1076 H1082 0.984 1_655 S
N1076 H1083 0.984 . S
N1077 C1070 1.356 . S
N1077 H1080 0.984 . S
N1077 H1081 0.985 1_455 S
H1078 N1073 0.984 . S
H1079 N1073 0.985 . S
H1080 N1077 0.984 . S
H1081 N1077 0.985 1_655 S
H1082 N1076 0.984 1_455 S
H1083 N1076 0.984 . S
H1084 N1072 0.984 . S
H1085 N1072 0.985 . S
C1086 C1087 1.363 . S
C1086 C1092 1.379 1_554 S
C1086 N1094 1.356 . S
C1087 C1086 1.363 . S
C1087 C1093 1.363 . S
C1088 C1089 1.363 . S
C1088 C1093 1.379 1_556 S
C1088 N1095 1.356 . S
C1089 C1088 1.363 . S
C1089 C1092 1.363 . S
N1090 C1092 1.356 . S
N1090 H1102 0.984 . S
N1090 H1103 0.985 . S
N1091 C1093 1.356 . S
N1091 H1096 0.984 . S
N1091 H1097 0.985 . S
C1092 C1086 1.379 1_556 S
C1092 C1089 1.363 . S
C1092 N1090 1.356 . S
C1093 C1087 1.363 . S
C1093 C1088 1.379 1_554 S
C1093 N1091 1.356 . S
N1094 C1086 1.356 . S
N1094 H1100 0.984 1_554 S
N1094 H1101 0.984 . S
N1095 C1088 1.356 . S
N1095 H1098 0.984 . S
N1095 H1099 0.985 1_556 S
H1096 N1091 0.984 . S
H1097 N1091 0.985 . S
H1098 N1095 0.984 . S
H1099 N1095 0.985 1_554 S
H1100 N1094 0.984 1_556 S
H1101 N1094 0.984 . S
H1102 N1090 0.984 . S
H1103 N1090 0.985 . S
C1104 C1105 1.363 1_554 S
C1104 C1110 1.379 1_455 S
C1104 N1112 1.356 . S
C1105 C1104 1.363 1_556 S
C1105 C1111 1.363 . S
C1106 C1107 1.363 1_556 S
C1106 C1111 1.379 1_655 S
C1106 N1113 1.356 . S
C1107 C1106 1.363 1_554 S
C1107 C1110 1.363 . S
N1108 C1110 1.356 . S
N1108 H1120 0.984 1_655 S
N1108 H1121 0.985 . S
N1109 C1111 1.356 . S
N1109 H1114 0.984 . S
N1109 H1115 0.985 1_455 S
C1110 C1104 1.379 1_655 S
C1110 C1107 1.363 . S
C1110 N1108 1.356 . S
C1111 C1105 1.363 . S
C1111 C1106 1.379 1_455 S
C1111 N1109 1.356 . S
N1112 C1104 1.356 . S
N1112 H1118 0.984 . S
N1112 H1119 0.984 1_554 S
N1113 C1106 1.356 . S
N1113 H1116 0.984 1_556 S
N1113 H1117 0.985 . S
H1114 N1109 0.984 . S
H1115 N1109 0.985 1_655 S
H1116 N1113 0.984 1_554 S
H1117 N1113 0.985 . S
H1118 N1112 0.984 . S
H1119 N1112 0.984 1_556 S
H1120 N1108 0.984 1_455 S
H1121 N1108 0.985 . S
C1122 C1123 1.363 . S
C1122 C1128 1.379 . S
C1122 N1130 1.356 . S
C1123 C1122 1.363 . S
C1123 C1129 1.363 . S
C1124 C1125 1.363 . S
C1124 C1129 1.379 . S
C1124 N1131 1.356 . S
C1125 C1124 1.363 . S
C1125 C1128 1.363 . S
N1126 C1128 1.356 . S
N1126 H1138 0.984 . S
N1126 H1139 0.985 . S
N1127 C1129 1.356 . S
N1127 H1132 0.984 . S
N1127 H1133 0.985 . S
C1128 C1122 1.379 . S
C1128 C1125 1.363 . S
C1128 N1126 1.356 . S
C1129 C1123 1.363 . S
C1129 C1124 1.379 . S
C1129 N1127 1.356 . S
N1130 C1122 1.356 . S
N1130 H1136 0.984 . S
N1130 H1137 0.984 . S
N1131 C1124 1.356 . S
N1131 H1134 0.984 . S
N1131 H1135 0.985 . S
H1132 N1127 0.984 . S
H1133 N1127 0.985 . S
H1134 N1131 0.984 . S
H1135 N1131 0.985 . S
H1136 N1130 0.984 . S
H1137 N1130 0.984 . S
H1138 N1126 0.984 . S
H1139 N1126 0.985 . S
C1140 C1141 1.363 . S
C1140 C1146 1.379 . S
C1140 N1148 1.356 . S
C1141 C1140 1.363 . S
C1141 C1147 1.363 1_554 S
C1142 C1143 1.363 . S
C1142 C1147 1.379 . S
C1142 N1149 1.356 . S
C1143 C1142 1.363 . S
C1143 C1146 1.363 1_556 S
N1144 C1146 1.356 . S
N1144 H1156 0.984 . S
N1144 H1157 0.985 1_554 S
N1145 C1147 1.356 . S
N1145 H1150 0.984 1_556 S
N1145 H1151 0.985 . S
C1146 C1140 1.379 . S
C1146 C1143 1.363 1_554 S
C1146 N1144 1.356 . S
C1147 C1141 1.363 1_556 S
C1147 C1142 1.379 . S
C1147 N1145 1.356 . S
N1148 C1140 1.356 . S
N1148 H1154 0.984 . S
N1148 H1155 0.984 . S
N1149 C1142 1.356 . S
N1149 H1152 0.984 . S
N1149 H1153 0.985 . S
H1150 N1145 0.984 1_554 S
H1151 N1145 0.985 . S
H1152 N1149 0.984 . S
H1153 N1149 0.985 . S
H1154 N1148 0.984 . S
H1155 N1148 0.984 . S
H1156 N1144 0.984 . S
H1157 N1144 0.985 1_556 S
C1158 C1159 1.363 . S
C1158 C1164 1.379 . S
C1158 N1166 1.356 . S
C1159 C1158 1.363 . S
C1159 C1165 1.363 . S
C1160 C1161 1.363 . S
C1160 C1165 1.379 . S
C1160 N1167 1.356 . S
C1161 C1160 1.363 . S
C1161 C1164 1.363 . S
N1162 C1164 1.356 . S
N1162 H1174 0.984 . S
N1162 H1175 0.985 . S
N1163 C1165 1.356 . S
N1163 H1168 0.984 . S
N1163 H1169 0.985 . S
C1164 C1158 1.379 . S
C1164 C1161 1.363 . S
C1164 N1162 1.356 . S
C1165 C1159 1.363 . S
C1165 C1160 1.379 . S
C1165 N1163 1.356 . S
N1166 C1158 1.356 . S
N1166 H1172 0.984 . S
N1166 H1173 0.984 . S
N1167 C1160 1.356 . S
N1167 H1170 0.984 . S
N1167 H1171 0.985 . S
H1168 N1163 0.984 . S
H1169 N1163 0.985 . S
H1170 N1167 0.984 . S
H1171 N1167 0.985 . S
H1172 N1166 0.984 . S
H1173 N1166 0.984 . S
H1174 N1162 0.984 . S
H1175 N1162 0.985 . S
C1176 C1177 1.363 1_545 S
C1176 C1182 1.379 1_554 S
C1176 N1184 1.356 . S
C1177 C1176 1.363 1_565 S
C1177 C1183 1.363 . S
C1178 C1179 1.363 1_565 S
C1178 C1183 1.379 1_556 S
C1178 N1185 1.356 . S
C1179 C1178 1.363 1_545 S
C1179 C1182 1.363 . S
N1180 C1182 1.356 . S
N1180 H1192 0.984 . S
N1180 H1193 0.985 . S
N1181 C1183 1.356 . S
N1181 H1186 0.984 . S
N1181 H1187 0.985 . S
C1182 C1176 1.379 1_556 S
C1182 C1179 1.363 . S
C1182 N1180 1.356 . S
C1183 C1177 1.363 . S
C1183 C1178 1.379 1_554 S
C1183 N1181 1.356 . S
N1184 C1176 1.356 . S
N1184 H1190 0.984 . S
N1184 H1191 0.984 . S
N1185 C1178 1.356 . S
N1185 H1188 0.984 . S
N1185 H1189 0.985 . S
H1186 N1181 0.984 . S
H1187 N1181 0.985 . S
H1188 N1185 0.984 . S
H1189 N1185 0.985 . S
H1190 N1184 0.984 . S
H1191 N1184 0.984 . S
H1192 N1180 0.984 . S
H1193 N1180 0.985 . S
C1194 C1195 1.363 . S
C1194 C1200 1.379 . S
C1194 N1202 1.356 . S
C1195 C1194 1.363 . S
C1195 C1201 1.363 . S
C1196 C1197 1.363 . S
C1196 C1201 1.379 . S
C1196 N1203 1.356 . S
C1197 C1196 1.363 . S
C1197 C1200 1.363 . S
N1198 C1200 1.356 . S
N1198 H1210 0.984 . S
N1198 H1211 0.985 . S
N1199 C1201 1.356 . S
N1199 H1204 0.984 . S
N1199 H1205 0.985 . S
C1200 C1194 1.379 . S
C1200 C1197 1.363 . S
C1200 N1198 1.356 . S
C1201 C1195 1.363 . S
C1201 C1196 1.379 . S
C1201 N1199 1.356 . S
N1202 C1194 1.356 . S
N1202 H1208 0.984 . S
N1202 H1209 0.984 . S
N1203 C1196 1.356 . S
N1203 H1206 0.984 . S
N1203 H1207 0.985 . S
H1204 N1199 0.984 . S
H1205 N1199 0.985 . S
H1206 N1203 0.984 . S
H1207 N1203 0.985 . S
H1208 N1202 0.984 . S
H1209 N1202 0.984 . S
H1210 N1198 0.984 . S
H1211 N1198 0.985 . S
C1212 C1213 1.363 . S
C1212 C1218 1.379 . S
C1212 N1220 1.356 . S
C1213 C1212 1.363 . S
C1213 C1219 1.363 . S
C1214 C1215 1.363 . S
C1214 C1219 1.379 . S
C1214 N1221 1.356 . S
C1215 C1214 1.363 . S
C1215 C1218 1.363 . S
N1216 C1218 1.356 . S
N1216 H1228 0.984 . S
N1216 H1229 0.985 . S
N1217 C1219 1.356 . S
N1217 H1222 0.984 . S
N1217 H1223 0.985 . S
C1218 C1212 1.379 . S
C1218 C1215 1.363 . S
C1218 N1216 1.356 . S
C1219 C1213 1.363 . S
C1219 C1214 1.379 . S
C1219 N1217 1.356 . S
N1220 C1212 1.356 . S
N1220 H1226 0.984 . S
N1220 H1227 0.984 . S
N1221 C1214 1.356 . S
N1221 H1224 0.984 . S
N1221 H1225 0.985 . S
H1222 N1217 0.984 . S
H1223 N1217 0.985 . S
H1224 N1221 0.984 . S
H1225 N1221 0.985 . S
H1226 N1220 0.984 . S
H1227 N1220 0.984 . S
H1228 N1216 0.984 . S
H1229 N1216 0.985 . S
C1230 C1231 1.363 . S
C1230 C1236 1.379 . S
C1230 N1238 1.356 . S
C1231 C1230 1.363 . S
C1231 C1237 1.363 . S
C1232 C1233 1.363 . S
C1232 C1237 1.379 . S
C1232 N1239 1.356 . S
C1233 C1232 1.363 . S
C1233 C1236 1.363 . S
N1234 C1236 1.356 . S
N1234 H1246 0.984 . S
N1234 H1247 0.985 . S
N1235 C1237 1.356 . S
N1235 H1240 0.984 . S
N1235 H1241 0.985 . S
C1236 C1230 1.379 . S
C1236 C1233 1.363 . S
C1236 N1234 1.356 . S
C1237 C1231 1.363 . S
C1237 C1232 1.379 . S
C1237 N1235 1.356 . S
N1238 C1230 1.356 . S
N1238 H1244 0.984 . S
N1238 H1245 0.984 . S
N1239 C1232 1.356 . S
N1239 H1242 0.984 . S
N1239 H1243 0.985 . S
H1240 N1235 0.984 . S
H1241 N1235 0.985 . S
H1242 N1239 0.984 . S
H1243 N1239 0.985 . S
H1244 N1238 0.984 . S
H1245 N1238 0.984 . S
H1246 N1234 0.984 . S
H1247 N1234 0.985 . S
C529 N5 1.011 . S
C531 N302 1.011 . S
C547 N14 1.054 . S
C549 N311 1.054 . S
C565 N278 1.054 . S
C567 N47 1.054 . S
C583 N38 1.011 . S
C585 N269 1.011 . S
C601 N71 1.011 . S
C603 N368 1.011 . S
C619 N80 1.054 . S
C621 N377 1.054 . S
C637 N113 1.054 . S
C639 N344 1.054 . S
C655 N104 1.011 . S
C657 N335 1.011 . S
C673 N137 1.011 . S
C675 N434 1.011 . S
C691 N443 1.054 . S
C693 N146 1.054 . S
C709 N410 1.054 . S
C711 N179 1.054 . S
C727 N401 1.011 . S
C729 N170 1.011 . S
C745 N500 1.011 . S
C747 N203 1.011 . S
C763 N509 1.054 . S
C765 N212 1.054 . S
C781 N476 1.054 . S
C783 N245 1.054 . S
C799 N236 1.011 . S
C801 N467 1.011 . S
C817 C17 1.240 . S
C819 C50 1.240 . S
C835 C116 1.240 . S
C837 C83 1.240 . S
C853 C182 1.240 . S
C855 C149 1.240 . S
C871 C248 1.240 . S
C873 C215 1.240 . S
C889 C314 1.240 . S
C891 C281 1.240 . S
C907 C347 1.240 . S
C909 C380 1.240 . S
C925 C446 1.240 . S
C927 C413 1.240 . S
C943 C479 1.240 . S
C945 C512 1.240 . S
C961 C490 1.833 . S
C963 C28 1.833 . S
C979 C74 1.855 . S
C981 C8 1.855 . S
C997 C371 1.854 . S
C999 C41 1.854 . S
C1015 C259 1.833 . S
C1017 C61 1.833 . S
C1033 C94 1.833 . S
C1035 C424 1.833 . S
C1051 C305 1.854 . S
C1053 C107 1.854 . S
C1069 C127 1.833 . S
C1071 C193 1.833 . S
C1087 C358 1.833 . S
C1089 C160 1.833 . S
C1105 C140 1.855 . S
C1107 C206 1.855 . S
C1123 C173 1.854 . S
C1125 C503 1.854 . S
C1141 C226 1.833 . S
C1143 C292 1.833 . S
C1159 C239 1.854 . S
C1161 C437 1.854 . S
C1177 C338 1.855 . S
C1179 C272 1.855 . S
C1195 C523 1.833 . S
C1197 C325 1.833 . S
C1213 C391 1.833 . S
C1215 C457 1.833 . S
C1231 C404 1.855 . S
C1233 C470 1.855 . S
