# Generated by pormake.
# Topology pem, (4)-cn, num edge types: 1
# Building blocks:
#     Node 0, Type 0, BuildingBlock: GALJAG_clean_sbu_0, # of connection points: 4
#     Node 1, Type 0, BuildingBlock: GALJAG_clean_sbu_0, # of connection points: 4
#     Node 2, Type 0, BuildingBlock: GALJAG_clean_sbu_0, # of connection points: 4
#     Node 3, Type 0, BuildingBlock: GALJAG_clean_sbu_0, # of connection points: 4
#     Node 4, Type 0, BuildingBlock: GALJAG_clean_sbu_0, # of connection points: 4
#     Node 5, Type 0, BuildingBlock: GALJAG_clean_sbu_0, # of connection points: 4
#     Node 6, Type 0, BuildingBlock: GALJAG_clean_sbu_0, # of connection points: 4
#     Node 7, Type 0, BuildingBlock: GALJAG_clean_sbu_0, # of connection points: 4
#     Node 8, Type 0, BuildingBlock: GALJAG_clean_sbu_0, # of connection points: 4
#     Node 9, Type 0, BuildingBlock: GALJAG_clean_sbu_0, # of connection points: 4
#     Node 10, Type 0, BuildingBlock: GALJAG_clean_sbu_0, # of connection points: 4
#     Node 11, Type 0, BuildingBlock: GALJAG_clean_sbu_0, # of connection points: 4
#     Node 12, Type 0, BuildingBlock: GALJAG_clean_sbu_0, # of connection points: 4
#     Node 13, Type 0, BuildingBlock: GALJAG_clean_sbu_0, # of connection points: 4
#     Node 14, Type 0, BuildingBlock: GALJAG_clean_sbu_0, # of connection points: 4
#     Node 15, Type 0, BuildingBlock: GALJAG_clean_sbu_0, # of connection points: 4
#     Node 16, Type 0, BuildingBlock: GALJAG_clean_sbu_0, # of connection points: 4
#     Node 17, Type 0, BuildingBlock: GALJAG_clean_sbu_0, # of connection points: 4
#     Node 18, Type 0, BuildingBlock: GALJAG_clean_sbu_0, # of connection points: 4
#     Node 19, Type 0, BuildingBlock: GALJAG_clean_sbu_0, # of connection points: 4
#     Node 20, Type 0, BuildingBlock: GALJAG_clean_sbu_0, # of connection points: 4
#     Node 21, Type 0, BuildingBlock: GALJAG_clean_sbu_0, # of connection points: 4
#     Node 22, Type 0, BuildingBlock: GALJAG_clean_sbu_0, # of connection points: 4
#     Node 23, Type 0, BuildingBlock: GALJAG_clean_sbu_0, # of connection points: 4
#     Node 24, Type 0, BuildingBlock: GALJAG_clean_sbu_0, # of connection points: 4
#     Node 25, Type 0, BuildingBlock: GALJAG_clean_sbu_0, # of connection points: 4
#     Node 26, Type 0, BuildingBlock: GALJAG_clean_sbu_0, # of connection points: 4
#     Node 27, Type 0, BuildingBlock: GALJAG_clean_sbu_0, # of connection points: 4
#     Node 28, Type 0, BuildingBlock: GALJAG_clean_sbu_0, # of connection points: 4
#     Node 29, Type 0, BuildingBlock: GALJAG_clean_sbu_0, # of connection points: 4
#     Node 30, Type 0, BuildingBlock: GALJAG_clean_sbu_0, # of connection points: 4
#     Node 31, Type 0, BuildingBlock: GALJAG_clean_sbu_0, # of connection points: 4
#     Edge 32, Type (0, 0), BuildingBlock: UVAHIK_clean_linker_0, # of connection points: 2
#     Edge 33, Type (0, 0), BuildingBlock: UVAHIK_clean_linker_0, # of connection points: 2
#     Edge 34, Type (0, 0), BuildingBlock: UVAHIK_clean_linker_0, # of connection points: 2
#     Edge 35, Type (0, 0), BuildingBlock: UVAHIK_clean_linker_0, # of connection points: 2
#     Edge 36, Type (0, 0), BuildingBlock: UVAHIK_clean_linker_0, # of connection points: 2
#     Edge 37, Type (0, 0), BuildingBlock: UVAHIK_clean_linker_0, # of connection points: 2
#     Edge 38, Type (0, 0), BuildingBlock: UVAHIK_clean_linker_0, # of connection points: 2
#     Edge 39, Type (0, 0), BuildingBlock: UVAHIK_clean_linker_0, # of connection points: 2
#     Edge 40, Type (0, 0), BuildingBlock: UVAHIK_clean_linker_0, # of connection points: 2
#     Edge 41, Type (0, 0), BuildingBlock: UVAHIK_clean_linker_0, # of connection points: 2
#     Edge 42, Type (0, 0), BuildingBlock: UVAHIK_clean_linker_0, # of connection points: 2
#     Edge 43, Type (0, 0), BuildingBlock: UVAHIK_clean_linker_0, # of connection points: 2
#     Edge 44, Type (0, 0), BuildingBlock: UVAHIK_clean_linker_0, # of connection points: 2
#     Edge 45, Type (0, 0), BuildingBlock: UVAHIK_clean_linker_0, # of connection points: 2
#     Edge 46, Type (0, 0), BuildingBlock: UVAHIK_clean_linker_0, # of connection points: 2
#     Edge 47, Type (0, 0), BuildingBlock: UVAHIK_clean_linker_0, # of connection points: 2
#     Edge 48, Type (0, 0), BuildingBlock: UVAHIK_clean_linker_0, # of connection points: 2
#     Edge 49, Type (0, 0), BuildingBlock: UVAHIK_clean_linker_0, # of connection points: 2
#     Edge 50, Type (0, 0), BuildingBlock: UVAHIK_clean_linker_0, # of connection points: 2
#     Edge 51, Type (0, 0), BuildingBlock: UVAHIK_clean_linker_0, # of connection points: 2
#     Edge 52, Type (0, 0), BuildingBlock: UVAHIK_clean_linker_0, # of connection points: 2
#     Edge 53, Type (0, 0), BuildingBlock: UVAHIK_clean_linker_0, # of connection points: 2
#     Edge 54, Type (0, 0), BuildingBlock: UVAHIK_clean_linker_0, # of connection points: 2
#     Edge 55, Type (0, 0), BuildingBlock: UVAHIK_clean_linker_0, # of connection points: 2
#     Edge 56, Type (0, 0), BuildingBlock: UVAHIK_clean_linker_0, # of connection points: 2
#     Edge 57, Type (0, 0), BuildingBlock: UVAHIK_clean_linker_0, # of connection points: 2
#     Edge 58, Type (0, 0), BuildingBlock: UVAHIK_clean_linker_0, # of connection points: 2
#     Edge 59, Type (0, 0), BuildingBlock: UVAHIK_clean_linker_0, # of connection points: 2
#     Edge 60, Type (0, 0), BuildingBlock: UVAHIK_clean_linker_0, # of connection points: 2
#     Edge 61, Type (0, 0), BuildingBlock: UVAHIK_clean_linker_0, # of connection points: 2
#     Edge 62, Type (0, 0), BuildingBlock: UVAHIK_clean_linker_0, # of connection points: 2
#     Edge 63, Type (0, 0), BuildingBlock: UVAHIK_clean_linker_0, # of connection points: 2
#     Edge 64, Type (0, 0), BuildingBlock: UVAHIK_clean_linker_0, # of connection points: 2
#     Edge 65, Type (0, 0), BuildingBlock: UVAHIK_clean_linker_0, # of connection points: 2
#     Edge 66, Type (0, 0), BuildingBlock: UVAHIK_clean_linker_0, # of connection points: 2
#     Edge 67, Type (0, 0), BuildingBlock: UVAHIK_clean_linker_0, # of connection points: 2
#     Edge 68, Type (0, 0), BuildingBlock: UVAHIK_clean_linker_0, # of connection points: 2
#     Edge 69, Type (0, 0), BuildingBlock: UVAHIK_clean_linker_0, # of connection points: 2
#     Edge 70, Type (0, 0), BuildingBlock: UVAHIK_clean_linker_0, # of connection points: 2
#     Edge 71, Type (0, 0), BuildingBlock: UVAHIK_clean_linker_0, # of connection points: 2
#     Edge 72, Type (0, 0), BuildingBlock: UVAHIK_clean_linker_0, # of connection points: 2
#     Edge 73, Type (0, 0), BuildingBlock: UVAHIK_clean_linker_0, # of connection points: 2
#     Edge 74, Type (0, 0), BuildingBlock: UVAHIK_clean_linker_0, # of connection points: 2
#     Edge 75, Type (0, 0), BuildingBlock: UVAHIK_clean_linker_0, # of connection points: 2
#     Edge 76, Type (0, 0), BuildingBlock: UVAHIK_clean_linker_0, # of connection points: 2
#     Edge 77, Type (0, 0), BuildingBlock: UVAHIK_clean_linker_0, # of connection points: 2
#     Edge 78, Type (0, 0), BuildingBlock: UVAHIK_clean_linker_0, # of connection points: 2
#     Edge 79, Type (0, 0), BuildingBlock: UVAHIK_clean_linker_0, # of connection points: 2
#     Edge 80, Type (0, 0), BuildingBlock: UVAHIK_clean_linker_0, # of connection points: 2
#     Edge 81, Type (0, 0), BuildingBlock: UVAHIK_clean_linker_0, # of connection points: 2
#     Edge 82, Type (0, 0), BuildingBlock: UVAHIK_clean_linker_0, # of connection points: 2
#     Edge 83, Type (0, 0), BuildingBlock: UVAHIK_clean_linker_0, # of connection points: 2
#     Edge 84, Type (0, 0), BuildingBlock: UVAHIK_clean_linker_0, # of connection points: 2
#     Edge 85, Type (0, 0), BuildingBlock: UVAHIK_clean_linker_0, # of connection points: 2
#     Edge 86, Type (0, 0), BuildingBlock: UVAHIK_clean_linker_0, # of connection points: 2
#     Edge 87, Type (0, 0), BuildingBlock: UVAHIK_clean_linker_0, # of connection points: 2
#     Edge 88, Type (0, 0), BuildingBlock: UVAHIK_clean_linker_0, # of connection points: 2
#     Edge 89, Type (0, 0), BuildingBlock: UVAHIK_clean_linker_0, # of connection points: 2
#     Edge 90, Type (0, 0), BuildingBlock: UVAHIK_clean_linker_0, # of connection points: 2
#     Edge 91, Type (0, 0), BuildingBlock: UVAHIK_clean_linker_0, # of connection points: 2
#     Edge 92, Type (0, 0), BuildingBlock: UVAHIK_clean_linker_0, # of connection points: 2
#     Edge 93, Type (0, 0), BuildingBlock: UVAHIK_clean_linker_0, # of connection points: 2
#     Edge 94, Type (0, 0), BuildingBlock: UVAHIK_clean_linker_0, # of connection points: 2
#     Edge 95, Type (0, 0), BuildingBlock: UVAHIK_clean_linker_0, # of connection points: 2
# Relax obj value: 0.257
# Max RMSD: 0.257
# Mean RMSD: 0.153
data_MOF--net-pem--node1-GALJAG_clean_sbu_0--edge1-UVAHIK_clean_linker_0
_symmetry_space_group_name_H-M    P1
_symmetry_Int_Tables_number       1
_symmetry_cell_setting            triclinic
loop_
_symmetry_equiv_pos_as_xyz
'x, y, z'
_cell_length_a     39.378153
_cell_length_b     59.027692
_cell_length_c     61.740586
_cell_angle_alpha  90.782689
_cell_angle_beta   91.223678
_cell_angle_gamma 92.608431
loop_
_atom_site_label
_atom_site_type_symbol
_atom_site_fract_x
_atom_site_fract_y
_atom_site_fract_z
_atom_type_partial_charge
In0 In 0.17773 0.08303 0.11133 0.0
O1 O 0.2336 0.08957 0.1013 0.0
O2 O 0.19285 0.09684 0.0791 0.0
C3 C 0.16662 0.05081 0.14305 0.0
C4 C 0.16453 0.12764 0.12136 0.0
C5 C 0.13974 0.05692 0.08339 0.0
O6 O 0.19586 0.05427 0.1349 0.0
O7 O 0.14585 0.06538 0.1375 0.0
O8 O 0.12804 0.07283 0.09432 0.0
O9 O 0.1714 0.05493 0.08537 0.0
C10 C 0.22451 0.09789 0.08318 0.0
O11 O 0.14354 0.11093 0.12167 0.0
O12 O 0.1946 0.1218 0.11911 0.0
In13 In 0.05595 0.84094 0.32827 0.0
O14 O 0.08923 0.85122 0.35876 0.0
O15 O 0.03722 0.84975 0.36431 0.0
C16 C 0.09148 0.80972 0.30407 0.0
C17 C 0.00361 0.81391 0.33787 0.0
C18 C 0.06476 0.87485 0.29993 0.0
O19 O 0.10189 0.81829 0.32185 0.0
O20 O 0.06317 0.81691 0.29789 0.0
O21 O 0.03559 0.86548 0.30272 0.0
O22 O 0.08749 0.86894 0.31307 0.0
C23 C 0.06653 0.85206 0.37279 0.0
O24 O -0.00052 0.83495 0.33576 0.0
O25 O 0.03207 0.80696 0.33282 0.0
In26 In 0.30823 0.90481 0.61051 0.0
O27 O 0.25406 0.90535 0.59404 0.0
O28 O 0.29353 0.88908 0.57734 0.0
C29 C 0.32135 0.93975 0.64014 0.0
C30 C 0.30562 0.84763 0.63451 0.0
C31 C 0.34983 0.93065 0.58386 0.0
O32 O 0.29103 0.93393 0.63378 0.0
O33 O 0.3435 0.92655 0.63368 0.0
O34 O 0.3614 0.91688 0.59755 0.0
O35 O 0.31781 0.92979 0.58245 0.0
C36 C 0.26259 0.89421 0.57719 0.0
O37 O 0.30576 0.86794 0.6267 0.0
O38 O 0.30571 0.86796 0.62674 0.0
In39 In 0.4213 0.16344 0.81804 0.0
O40 O 0.3758 0.15389 0.83786 0.0
O41 O 0.42128 0.14283 0.84868 0.0
C42 C 0.38449 0.19448 0.79676 0.0
C43 C 0.47546 0.18818 0.83827 0.0
C44 C 0.41795 0.12608 0.79248 0.0
O45 O 0.37352 0.18316 0.81236 0.0
O46 O 0.41461 0.19069 0.79181 0.0
O47 O 0.44414 0.13933 0.79278 0.0
O48 O 0.39496 0.13169 0.80478 0.0
C49 C 0.3902 0.14538 0.85454 0.0
O50 O 0.47929 0.1759 0.82159 0.0
O51 O 0.44523 0.18746 0.8447 0.0
In52 In 0.18391 0.93123 0.40922 0.0
O53 O 0.23929 0.92802 0.4194 0.0
O54 O 0.19947 0.91948 0.44157 0.0
C55 C 0.17787 0.95978 0.37656 0.0
C56 C 0.17657 0.88771 0.39404 0.0
C57 C 0.14611 0.95512 0.43596 0.0
O58 O 0.2059 0.95868 0.38693 0.0
O59 O 0.15482 0.94543 0.3815 0.0
O60 O 0.13722 0.9352 0.42963 0.0
O61 O 0.1746 0.96273 0.42958 0.0
C62 C 0.23055 0.91925 0.43723 0.0
O63 O 0.15216 0.90066 0.3961 0.0
O64 O 0.20535 0.89715 0.39796 0.0
In65 In 0.41024 0.85104 0.67323 0.0
O66 O 0.38174 0.87428 0.64696 0.0
O67 O 0.43051 0.86497 0.64007 0.0
C68 C 0.36567 0.82141 0.69421 0.0
C69 C 0.45665 0.82072 0.66244 0.0
C70 C 0.40171 0.87884 0.70406 0.0
O71 O 0.35922 0.82988 0.67594 0.0
O72 O 0.39521 0.82683 0.70157 0.0
O73 O 0.43154 0.87251 0.70048 0.0
O74 O 0.37834 0.87335 0.69062 0.0
C75 C 0.40499 0.87479 0.63303 0.0
O76 O 0.46599 0.84026 0.67 0.0
O77 O 0.42495 0.81653 0.66212 0.0
In78 In 0.32122 0.06125 0.90282 0.0
O79 O 0.36716 0.08303 0.89521 0.0
O80 O 0.32039 0.08901 0.87854 0.0
C81 C 0.35589 0.0343 0.9262 0.0
C82 C 0.2744 0.07588 0.9298 0.0
C83 C 0.32183 0.03467 0.8697 0.0
O84 O 0.36388 0.05513 0.92488 0.0
O85 O 0.32806 0.02719 0.91755 0.0
O86 O 0.2939 0.03722 0.87909 0.0
O87 O 0.34784 0.04506 0.87746 0.0
C88 C 0.35208 0.09355 0.88058 0.0
O89 O 0.26612 0.06508 0.91249 0.0
O90 O 0.30584 0.08058 0.93238 0.0
In91 In 0.04991 0.11792 0.15977 0.0
O92 O -0.00213 0.13315 0.15537 0.0
O93 O 0.04198 0.15057 0.14248 0.0
C94 C 0.0591 0.08604 0.18996 0.0
C95 C 0.0658 0.10883 0.11759 0.0
C96 C 0.08733 0.1426 0.18951 0.0
O97 O 0.03094 0.09589 0.18841 0.0
O98 O 0.07832 0.08899 0.17396 0.0
O99 O 0.09839 0.12692 0.17803 0.0
O100 O 0.05664 0.14674 0.18557 0.0
C101 C 0.01017 0.14991 0.14458 0.0
O102 O 0.08249 0.12163 0.1309 0.0
O103 O 0.04119 0.09769 0.12617 0.0
In104 In 0.69217 0.44156 0.91017 0.0
O105 O 0.65773 0.42169 0.88793 0.0
O106 O 0.70686 0.4094 0.89267 0.0
C107 C 0.65419 0.46113 0.93945 0.0
C108 C 0.7336 0.41926 0.93421 0.0
C109 C 0.68271 0.46885 0.879 0.0
O110 O 0.64704 0.44159 0.93168 0.0
O111 O 0.68202 0.47054 0.93362 0.0
O112 O 0.71275 0.4681 0.88721 0.0
O113 O 0.65974 0.45628 0.88702 0.0
C114 C 0.67672 0.40524 0.88627 0.0
O115 O 0.74465 0.43494 0.92178 0.0
O116 O 0.70167 0.41621 0.93532 0.0
In117 In 0.9074 0.35168 0.16964 0.0
O118 O 0.96068 0.33739 0.16791 0.0
O119 O 0.91756 0.31596 0.15827 0.0
C120 C 0.90084 0.38023 0.20056 0.0
C121 C 0.90259 0.37779 0.13008 0.0
C122 C 0.86545 0.32382 0.19404 0.0
O123 O 0.9303 0.37358 0.19623 0.0
O124 O 0.87655 0.37437 0.18783 0.0
O125 O 0.85849 0.32942 0.17473 0.0
O126 O 0.8942 0.33143 0.20102 0.0
C127 C 0.94945 0.31808 0.1608 0.0
O128 O 0.87944 0.37412 0.14368 0.0
O129 O 0.92939 0.36921 0.13722 0.0
In130 In 0.81919 0.56085 0.40266 0.0
O131 O 0.76596 0.56841 0.41397 0.0
O132 O 0.80915 0.57816 0.43414 0.0
C133 C 0.82186 0.53383 0.36965 0.0
C134 C 0.84803 0.59399 0.38081 0.0
C135 C 0.85671 0.53632 0.42714 0.0
O136 O 0.79379 0.53525 0.37927 0.0
O137 O 0.84677 0.54557 0.37712 0.0
O138 O 0.86352 0.55682 0.42291 0.0
O139 O 0.82858 0.52781 0.41981 0.0
C140 C 0.77731 0.57702 0.43177 0.0
O141 O 0.86364 0.58288 0.39472 0.0
O142 O 0.81626 0.58965 0.37905 0.0
In143 In 0.92011 0.66269 0.3183 0.0
O144 O 0.97707 0.66927 0.33093 0.0
O145 O 0.94132 0.69377 0.33768 0.0
C146 C 0.91707 0.62697 0.29153 0.0
C147 C 0.89 0.64397 0.35422 0.0
C148 C 0.8844 0.6936 0.29683 0.0
O149 O 0.94243 0.641 0.29137 0.0
O150 O 0.89436 0.63133 0.30461 0.0
O151 O 0.87444 0.68445 0.31401 0.0
O152 O 0.9128 0.68741 0.29028 0.0
C153 C 0.97153 0.68804 0.34013 0.0
O154 O 0.87486 0.65284 0.33798 0.0
O155 O 0.92021 0.64047 0.34748 0.0
In156 In 0.55763 0.33335 0.82368 0.0
O157 O 0.57755 0.32726 0.85678 0.0
O158 O 0.54254 0.35317 0.85501 0.0
C159 C 0.59704 0.30671 0.80086 0.0
C160 C 0.50899 0.30394 0.83181 0.0
C161 C 0.56723 0.37001 0.79825 0.0
O162 O 0.60782 0.31697 0.81797 0.0
O163 O 0.56677 0.31018 0.7951 0.0
O164 O 0.54023 0.35743 0.79721 0.0
O165 O 0.58791 0.36516 0.81334 0.0
C166 C 0.55971 0.34065 0.86715 0.0
O167 O 0.50213 0.3225 0.8229 0.0
O168 O 0.53978 0.29988 0.83459 0.0
In169 In 0.88636 0.91641 0.89851 0.0
O170 O 0.92412 0.89343 0.88576 0.0
O171 O 0.87085 0.88295 0.88557 0.0
C172 C 0.92134 0.94215 0.92485 0.0
C173 C 0.88119 0.93885 0.86189 0.0
C174 C 0.85244 0.90224 0.93278 0.0
O175 O 0.93382 0.92508 0.91603 0.0
O176 O 0.89192 0.9474 0.91894 0.0
O177 O 0.84136 0.91761 0.92065 0.0
O178 O 0.8789 0.89306 0.92646 0.0
C179 C 0.9008 0.87876 0.88068 0.0
O180 O 0.85513 0.93298 0.87259 0.0
O181 O 0.90938 0.93366 0.86993 0.0
In182 In 0.86664 0.14152 0.66584 0.0
O183 O 0.83746 0.12655 0.63562 0.0
O184 O 0.83481 0.16185 0.64122 0.0
C185 C 0.88307 0.11068 0.69565 0.0
C186 C 0.92802 0.16215 0.65811 0.0
C187 C 0.81988 0.15716 0.69126 0.0
O188 O 0.87629 0.10486 0.67608 0.0
O189 O 0.88254 0.13161 0.69968 0.0
O190 O 0.84731 0.16817 0.68738 0.0
O191 O 0.81612 0.13759 0.68271 0.0
C192 C 0.82467 0.14501 0.62975 0.0
O193 O 0.90301 0.1716 0.66605 0.0
O194 O 0.92228 0.14148 0.65287 0.0
In195 In 0.58725 0.07523 0.40147 0.0
O196 O 0.57592 0.10874 0.38716 0.0
O197 O 0.57592 0.10875 0.38714 0.0
C198 C 0.5495 0.04553 0.42027 0.0
C199 C 0.59401 0.05239 0.36421 0.0
C200 C 0.61167 0.08616 0.44223 0.0
O201 O 0.53707 0.0632 0.41246 0.0
O202 O 0.57977 0.04168 0.41594 0.0
O203 O 0.62885 0.07571 0.42828 0.0
O204 O 0.58338 0.09218 0.43498 0.0
C205 C 0.55553 0.12111 0.39701 0.0
O206 O 0.61967 0.05786 0.37647 0.0
O207 O 0.56553 0.05798 0.37108 0.0
In208 In 0.61861 0.86239 0.15538 0.0
O209 O 0.57679 0.83312 0.15478 0.0
O210 O 0.56552 0.8596 0.13417 0.0
C211 C 0.66025 0.84359 0.18342 0.0
C212 C 0.67146 0.86044 0.12554 0.0
C213 C 0.59889 0.89405 0.18304 0.0
O214 O 0.63371 0.83373 0.17515 0.0
O215 O 0.66474 0.86435 0.17888 0.0
O216 O 0.60821 0.89958 0.16423 0.0
O217 O 0.59917 0.87327 0.18704 0.0
C218 C 0.55516 0.84061 0.14167 0.0
O219 O 0.65455 0.87787 0.12882 0.0
O220 O 0.66298 0.84447 0.13781 0.0
In221 In 0.85336 0.08189 0.58122 0.0
O222 O 0.84271 0.08017 0.54611 0.0
O223 O 0.79923 0.08073 0.56622 0.0
C224 C 0.90659 0.06102 0.56977 0.0
C225 C 0.87551 0.12794 0.58267 0.0
C226 C 0.8311 0.05157 0.61111 0.0
O227 O 0.87811 0.05843 0.56052 0.0
O228 O 0.9088 0.07405 0.58615 0.0
O229 O 0.83134 0.07271 0.61532 0.0
O230 O 0.83954 0.04674 0.59221 0.0
C231 C 0.81097 0.08046 0.54717 0.0
O232 O 0.87771 0.11456 0.59851 0.0
O233 O 0.86087 0.11852 0.56639 0.0
In234 In 0.60038 0.14036 0.31601 0.0
O235 O 0.64754 0.14162 0.33573 0.0
O236 O 0.60741 0.11779 0.34482 0.0
C237 C 0.62384 0.16974 0.29068 0.0
C238 C 0.5928 0.10269 0.29101 0.0
C239 C 0.5714 0.17697 0.334 0.0
O240 O 0.64312 0.15927 0.30328 0.0
O241 O 0.5934 0.16245 0.2879 0.0
O242 O 0.55909 0.16649 0.31739 0.0
O243 O 0.59545 0.16738 0.34325 0.0
C244 C 0.63631 0.12738 0.34915 0.0
O245 O 0.56747 0.11011 0.30104 0.0
O246 O 0.62028 0.11431 0.29362 0.0
In247 In 0.62659 0.90591 0.08063 0.0
O248 O 0.58596 0.87581 0.07113 0.0
O249 O 0.61085 0.87554 0.10112 0.0
C250 C 0.60049 0.93609 0.05861 0.0
C251 C 0.63341 0.93103 0.11912 0.0
C252 C 0.66042 0.89985 0.04204 0.0
O253 O 0.58239 0.92012 0.06645 0.0
O254 O 0.6308 0.93923 0.06517 0.0
O255 O 0.67546 0.91011 0.05809 0.0
O256 O 0.63278 0.89011 0.04709 0.0
C257 C 0.59065 0.86491 0.08817 0.0
O258 O 0.65807 0.9197 0.11229 0.0
O259 O 0.60704 0.92889 0.10704 0.0
In260 In 0.85139 0.84185 0.80217 0.0
O261 O 0.8802 0.86949 0.78276 0.0
O262 O 0.82617 0.86984 0.78484 0.0
C263 C 0.88352 0.80398 0.81415 0.0
C264 C 0.82166 0.8534 0.83824 0.0
C265 C 0.81855 0.81666 0.77423 0.0
O266 O 0.9 0.82135 0.80708 0.0
O267 O 0.85241 0.80683 0.81684 0.0
O268 O 0.80416 0.82892 0.78777 0.0
O269 O 0.85035 0.81962 0.77253 0.0
C270 C 0.85278 0.87854 0.77698 0.0
O271 O 0.80718 0.84105 0.82377 0.0
O272 O 0.85198 0.86049 0.83454 0.0
In273 In 0.34637 0.58575 0.08249 0.0
O274 O 0.32655 0.58095 0.04899 0.0
O275 O 0.29208 0.5939 0.07196 0.0
C276 C 0.39775 0.5629 0.06844 0.0
C277 C 0.37423 0.63027 0.08067 0.0
C278 C 0.32505 0.55507 0.11284 0.0
O279 O 0.36881 0.56234 0.05957 0.0
O280 O 0.40142 0.57495 0.08541 0.0
O281 O 0.33403 0.57548 0.1177 0.0
O282 O 0.32376 0.55096 0.09284 0.0
C283 C 0.29757 0.58819 0.05246 0.0
O284 O 0.37676 0.61789 0.09723 0.0
O285 O 0.35622 0.62084 0.06579 0.0
In286 In 0.0909 0.64163 0.81802 0.0
O287 O 0.13926 0.63995 0.8365 0.0
O288 O 0.0947 0.62215 0.84854 0.0
C289 C 0.12155 0.6657 0.7902 0.0
C290 C 0.08134 0.60297 0.79185 0.0
C291 C 0.07609 0.68281 0.83818 0.0
O292 O 0.1357 0.65079 0.80114 0.0
O293 O 0.08943 0.66595 0.7906 0.0
O294 O 0.05766 0.67256 0.82348 0.0
O295 O 0.10036 0.67126 0.84431 0.0
C296 C 0.12612 0.62796 0.85113 0.0
O297 O 0.05564 0.61285 0.79939 0.0
O298 O 0.10937 0.61207 0.79815 0.0
In299 In 0.12544 0.40404 0.58123 0.0
O300 O 0.09392 0.3706 0.56741 0.0
O301 O 0.11098 0.37281 0.59953 0.0
C302 C 0.09523 0.43328 0.55951 0.0
C303 C 0.13261 0.42998 0.61944 0.0
C304 C 0.16303 0.39669 0.54529 0.0
O305 O 0.07878 0.41803 0.56962 0.0
O306 O 0.1267 0.43575 0.56309 0.0
O307 O 0.17472 0.40964 0.56062 0.0
O308 O 0.13588 0.38603 0.54972 0.0
C309 C 0.09707 0.36029 0.58491 0.0
O310 O 0.15757 0.41949 0.61182 0.0
O311 O 0.10509 0.42588 0.6088 0.0
In312 In 0.11096 0.36323 0.65814 0.0
O313 O 0.06495 0.33757 0.65649 0.0
O314 O 0.06033 0.36347 0.63398 0.0
C315 C 0.15634 0.34263 0.68291 0.0
C316 C 0.16127 0.36335 0.62701 0.0
C317 C 0.09164 0.39316 0.68654 0.0
O318 O 0.1294 0.33288 0.67498 0.0
O319 O 0.15907 0.36381 0.68002 0.0
O320 O 0.10364 0.3991 0.66847 0.0
O321 O 0.08923 0.3722 0.68996 0.0
C322 C 0.04681 0.34531 0.64142 0.0
O323 O 0.14654 0.38085 0.63344 0.0
O324 O 0.15131 0.34556 0.6364 0.0
In325 In 0.36656 0.64284 0.168 0.0
O326 O 0.4032 0.67384 0.17177 0.0
O327 O 0.4234 0.64452 0.15813 0.0
C328 C 0.3153 0.65899 0.19062 0.0
C329 C 0.33063 0.64069 0.12948 0.0
C330 C 0.38177 0.61127 0.1967 0.0
O331 O 0.3422 0.67042 0.18657 0.0
O332 O 0.31372 0.63892 0.18326 0.0
O333 O 0.37806 0.60636 0.1767 0.0
O334 O 0.37898 0.63184 0.20164 0.0
C335 C 0.4294 0.66462 0.16513 0.0
O336 O 0.33736 0.62326 0.14016 0.0
O337 O 0.34472 0.65881 0.13701 0.0
In338 In 0.68083 0.57769 0.61187 0.0
O339 O 0.73613 0.5821 0.59896 0.0
O340 O 0.69535 0.6007 0.58544 0.0
C341 C 0.66795 0.54936 0.6449 0.0
C342 C 0.65875 0.62221 0.61827 0.0
C343 C 0.64924 0.54379 0.58532 0.0
O344 O 0.69869 0.55644 0.64125 0.0
O345 O 0.6453 0.55875 0.63379 0.0
O346 O 0.63533 0.55387 0.60052 0.0
O347 O 0.67962 0.55086 0.58281 0.0
C348 C 0.72628 0.59652 0.58497 0.0
O349 O 0.65967 0.61167 0.60071 0.0
O350 O 0.66845 0.61024 0.63404 0.0
In351 In 0.81106 0.40759 0.11091 0.0
O352 O 0.82162 0.37042 0.12391 0.0
O353 O 0.8216 0.37043 0.12391 0.0
C354 C 0.85099 0.43616 0.08472 0.0
C355 C 0.76429 0.3965 0.07814 0.0
C356 C 0.82167 0.44162 0.14098 0.0
O357 O 0.86319 0.42524 0.10033 0.0
O358 O 0.82004 0.43098 0.08106 0.0
O359 O 0.79147 0.43437 0.13565 0.0
O360 O 0.84486 0.43022 0.13321 0.0
C361 C 0.81531 0.35245 0.1352 0.0
O362 O 0.75522 0.40504 0.09622 0.0
O363 O 0.79598 0.39404 0.07697 0.0
In364 In 0.55305 0.62038 0.65922 0.0
O365 O 0.49964 0.63411 0.65544 0.0
O366 O 0.54365 0.6561 0.65023 0.0
C367 C 0.56599 0.58772 0.68856 0.0
C368 C 0.56057 0.61383 0.61587 0.0
C369 C 0.59292 0.64453 0.68642 0.0
O370 O 0.53676 0.59602 0.68675 0.0
O371 O 0.58559 0.59271 0.67322 0.0
O372 O 0.60363 0.63435 0.66989 0.0
O373 O 0.56101 0.64369 0.68862 0.0
C374 C 0.51167 0.65353 0.64974 0.0
O375 O 0.58201 0.62372 0.6286 0.0
O376 O 0.5367 0.60333 0.62567 0.0
In377 In 0.38593 0.41696 0.39721 0.0
O378 O 0.42414 0.39439 0.38523 0.0
O379 O 0.37101 0.38319 0.38441 0.0
C380 C 0.42222 0.4425 0.42341 0.0
C381 C 0.3788 0.43864 0.36041 0.0
C382 C 0.35031 0.40121 0.43014 0.0
O383 O 0.43308 0.42436 0.41572 0.0
O384 O 0.39413 0.44892 0.41618 0.0
O385 O 0.3422 0.41886 0.42013 0.0
O386 O 0.37531 0.39115 0.42297 0.0
C387 C 0.40141 0.37916 0.38043 0.0
O388 O 0.35351 0.43385 0.37214 0.0
O389 O 0.4072 0.43265 0.36739 0.0
In390 In 0.08554 0.57451 0.90374 0.0
O391 O 0.03442 0.59127 0.90085 0.0
O392 O 0.07687 0.60278 0.88212 0.0
C393 C 0.05563 0.54341 0.92477 0.0
C394 C 0.09483 0.55022 0.86743 0.0
C395 C 0.11916 0.59414 0.93914 0.0
O396 O 0.04058 0.56069 0.91863 0.0
O397 O 0.08621 0.54144 0.91972 0.0
O398 O 0.11712 0.57313 0.93551 0.0
O399 O 0.1083 0.60574 0.92362 0.0
C400 C 0.04559 0.60407 0.88601 0.0
O401 O 0.12018 0.55638 0.87948 0.0
O402 O 0.06673 0.55643 0.87381 0.0
In403 In 0.35362 0.34393 0.30248 0.0
O404 O 0.30838 0.34359 0.32344 0.0
O405 O 0.35181 0.36405 0.33444 0.0
C406 C 0.31885 0.3153 0.27793 0.0
C407 C 0.3508 0.37866 0.27532 0.0
C408 C 0.39169 0.30925 0.31462 0.0
O409 O 0.30665 0.32662 0.29308 0.0
O410 O 0.34972 0.31963 0.27367 0.0
O411 O 0.40331 0.32383 0.30144 0.0
O412 O 0.36407 0.31412 0.32298 0.0
C413 C 0.32151 0.35668 0.33781 0.0
O414 O 0.37792 0.37555 0.28629 0.0
O415 O 0.32635 0.36496 0.27882 0.0
C416 C 0.1286 0.03752 0.04805 0.0
C417 C 0.11807 0.04234 0.06891 0.0
C418 C 0.10673 0.02577 0.03342 0.0
C419 C 0.01651 -0.00216 0.02856 0.0
H420 H 0.0462 0.992 0.97007 0.0
C421 C 0.92833 0.95547 0.96242 0.0
C422 C 0.94015 0.95456 0.94132 0.0
C423 C 0.9496 0.96468 0.97888 0.0
C424 C 0.03616 0.99241 0.98608 0.0
H425 H 0.07766 0.03761 0.09174 0.0
H426 H 0.03963 0.01676 0.06699 0.0
H427 H 0.08188 0.01116 -0.005 0.0
H428 H 0.98178 0.96129 0.92004 0.0
H429 H 0.01549 0.97723 0.94708 0.0
H430 H 0.97216 0.98066 0.01859 0.0
C431 C 0.06406 0.02219 0.06092 0.0
C432 C 0.05811 0.00463 0.00116 0.0
C433 C 0.08599 0.03425 0.07544 0.0
C434 C 0.97248 0.96256 0.93642 0.0
C435 C -0.00918 0.97175 0.95253 0.0
C436 C -0.00618 0.98679 0.013 0.0
C437 C 0.0735 0.01815 0.03929 0.0
C438 C 0.04914 0.00663 0.02297 0.0
C439 C 0.98288 0.97321 0.97425 0.0
C440 C 0.00358 0.9837 0.99142 0.0
H441 H 0.1534 0.04362 0.04275 0.0
H442 H 0.11696 0.0231 0.01763 0.0
H443 H 0.00738 -0.00144 0.04486 0.0
H444 H 0.90332 0.94837 0.96624 0.0
H445 H 0.93921 0.96579 -0.00527 0.0
C446 C 0.27412 0.68878 0.19053 0.0
C447 C 0.2867 0.66985 0.20061 0.0
C448 C 0.25204 0.7027 0.20121 0.0
C449 C 0.20876 0.71072 0.25607 0.0
H450 H 0.18172 0.76499 0.22753 0.0
C451 C 0.1233 0.77358 0.30189 0.0
C452 C 0.11136 0.79293 0.29176 0.0
C453 C 0.14353 0.75834 0.29081 0.0
C454 C 0.18828 0.75003 0.23619 0.0
H455 H 0.28527 0.64952 0.22938 0.0
H456 H 0.24674 0.67327 0.24836 0.0
H457 H 0.21637 0.74009 0.20931 0.0
H458 H 0.1121 0.81165 0.26204 0.0
H459 H 0.14745 0.78614 0.24283 0.0
H460 H 0.18086 0.72095 0.2831 0.0
C461 C 0.2535 0.67822 0.23223 0.0
C462 C 0.20904 0.73507 0.2253 0.0
C463 C 0.27555 0.66412 0.22127 0.0
C464 C 0.12046 0.79672 0.27025 0.0
C465 C 0.14136 0.78177 0.25923 0.0
C466 C 0.18797 0.72572 0.26699 0.0
C467 C 0.24179 0.69835 0.22268 0.0
C468 C 0.21965 0.71477 0.23477 0.0
C469 C 0.15369 0.76207 0.26918 0.0
C470 C 0.17676 0.74581 0.25736 0.0
H471 H 0.28243 0.69337 0.17447 0.0
H472 H 0.24408 0.71709 0.19224 0.0
H473 H 0.21577 0.6959 0.26481 0.0
H474 H 0.11698 0.77014 0.31853 0.0
H475 H 0.15128 0.7439 0.29983 0.0
C476 C 0.35723 0.95523 0.55107 0.0
C477 C 0.37133 0.94606 0.5699 0.0
C478 C 0.37747 0.96752 0.53652 0.0
C479 C 0.47052 0.98923 0.52719 0.0
H480 H 0.42675 0.00607 0.47389 0.0
C481 C 0.55001 0.03077 0.45736 0.0
C482 C 0.53284 0.0339 0.43757 0.0
C483 C 0.53191 0.02286 0.47519 0.0
C484 C 0.44094 0.00223 0.48829 0.0
H485 H 0.41746 0.9452 0.58938 0.0
H486 H 0.45266 0.96707 0.56484 0.0
H487 H 0.39499 0.98692 0.49916 0.0
H488 H 0.48466 0.03325 0.42062 0.0
H489 H 0.45329 0.02063 0.45007 0.0
H490 H 0.51743 0.0042 0.51502 0.0
C491 C 0.42628 0.96403 0.56023 0.0
C492 C 0.42121 0.99038 0.50375 0.0
C493 C 0.40591 0.95131 0.57464 0.0
C494 C 0.49817 0.02997 0.43567 0.0
C495 C 0.48014 0.02254 0.45323 0.0
C496 C 0.49072 0.00106 0.51133 0.0
C497 C 0.41291 0.97185 0.54035 0.0
C498 C 0.43522 0.98401 0.52377 0.0
C499 C 0.49635 0.01798 0.47334 0.0
C500 C 0.476 0.0074 0.49137 0.0
H501 H 0.33053 0.95203 0.54699 0.0
H502 H 0.36421 0.97322 0.52235 0.0
H503 H 0.48356 0.98487 0.54198 0.0
H504 H 0.57699 0.03511 0.4592 0.0
H505 H 0.54608 0.02077 0.49013 0.0
C506 C 0.37328 0.23281 0.78238 0.0
C507 C 0.36293 0.21008 0.78486 0.0
C508 C 0.35237 0.24768 0.77137 0.0
C509 C 0.26725 0.24826 0.73944 0.0
H510 H 0.29533 0.31141 0.73389 0.0
C511 C 0.17828 0.30579 0.69298 0.0
C512 C 0.18355 0.32929 0.69268 0.0
C513 C 0.20201 0.2921 0.70238 0.0
C514 C 0.28652 0.2939 0.735 0.0
H515 H 0.3226 0.18481 0.77825 0.0
H516 H 0.28668 0.20958 0.7589 0.0
H517 H 0.33007 0.28719 0.75415 0.0
H518 H 0.22028 0.35697 0.69984 0.0
H519 H 0.26192 0.33331 0.71701 0.0
H520 H 0.2234 0.25466 0.72141 0.0
C521 C 0.31048 0.21701 0.76504 0.0
C522 C 0.30713 0.27948 0.74697 0.0
C523 C 0.33122 0.20236 0.77637 0.0
C524 C 0.21476 0.33886 0.70074 0.0
C525 C 0.23882 0.325 0.7106 0.0
C526 C 0.24665 0.26261 0.7278 0.0
C527 C 0.32046 0.24019 0.7621 0.0
C528 C 0.29815 0.25614 0.74946 0.0
C529 C 0.23231 0.3012 0.71243 0.0
C530 C 0.25563 0.28584 0.72498 0.0
H531 H 0.39749 0.2392 0.7892 0.0
H532 H 0.36209 0.26496 0.77022 0.0
H533 H 0.25795 0.23088 0.74026 0.0
H534 H 0.15528 0.29763 0.68601 0.0
H535 H 0.19534 0.27426 0.70151 0.0
C536 C 0.10486 0.98516 0.44118 0.0
C537 C 0.12474 0.96837 0.44988 0.0
C538 C 0.08208 -0.00319 0.45409 0.0
C539 C 0.04773 -0.00475 0.51176 0.0
H540 H -0.01124 0.03853 0.48669 0.0
C541 C 0.95516 0.037 0.56685 0.0
C542 C 0.93526 0.05362 0.55841 0.0
C543 C 0.97735 0.02623 0.55337 0.0
C544 C 0.00475 0.02671 0.49459 0.0
H545 H 0.13826 0.95046 0.47872 0.0
H546 H 0.09999 0.96915 0.50143 0.0
H547 H 0.02962 0.0228 0.46509 0.0
H548 H 0.92125 0.07252 0.53012 0.0
H549 H 0.95949 0.05498 0.50686 0.0
H550 H 0.02329 -0.00105 0.54112 0.0
C551 C 0.09986 0.97418 0.48477 0.0
C552 C 0.02912 0.01728 0.48163 0.0
C553 C 0.12261 0.96325 0.47174 0.0
C554 C 0.93757 0.05991 0.53683 0.0
C555 C 0.95956 0.04933 0.52334 0.0
C556 C 0.02365 0.00474 0.52469 0.0
C557 C 0.07786 0.99034 0.47618 0.0
C558 C 0.05164 0.00146 0.48996 0.0
C559 C 0.98012 0.03213 0.5312 0.0
C560 C 0.00185 0.02098 0.51663 0.0
H561 H 0.10653 0.98938 0.42419 0.0
H562 H 0.06715 0.00923 0.44618 0.0
H563 H 0.06253 0.98221 0.51964 0.0
H564 H 0.95233 0.03155 0.58344 0.0
H565 H -0.01139 0.01311 0.56085 0.0
C566 C 0.3056 0.80693 0.69992 0.0
C567 C 0.34002 0.80719 0.70623 0.0
C568 C 0.28109 0.79358 0.7106 0.0
C569 C 0.27184 0.74961 0.7558 0.0
H570 H 0.17854 0.75017 0.7355 0.0
C571 C 0.17423 0.68853 0.79326 0.0
C572 C 0.1422 0.68489 0.78333 0.0
C573 C 0.19583 0.70594 0.78669 0.0
C574 C 0.20411 0.74949 0.74191 0.0
H575 H 0.37542 0.79415 0.7297 0.0
H576 H 0.33385 0.77078 0.74815 0.0
H577 H 0.2194 0.77337 0.71884 0.0
H578 H 0.10442 0.69878 0.76214 0.0
H579 H 0.14193 0.72897 0.74976 0.0
H580 H 0.25694 0.72481 0.77805 0.0
C581 C 0.32466 0.78045 0.73476 0.0
C582 C 0.22863 0.76336 0.73196 0.0
C583 C 0.34915 0.79411 0.72411 0.0
C584 C 0.13015 0.70051 0.76874 0.0
C585 C 0.15216 0.71792 0.76172 0.0
C586 C 0.24738 0.73559 0.76563 0.0
C587 C 0.28988 0.7795 0.72804 0.0
C588 C 0.26322 0.76412 0.73878 0.0
C589 C 0.18645 0.71997 0.76949 0.0
C590 C 0.2127 0.73547 0.75922 0.0
H591 H 0.2974 0.81721 0.68655 0.0
H592 H 0.25541 0.79462 0.70455 0.0
H593 H 0.29757 0.7485 0.76184 0.0
H594 H 0.18308 0.67774 0.80609 0.0
H595 H 0.22 0.70755 0.79515 0.0
C596 C 0.3813 0.02383 0.95974 0.0
C597 C 0.3777 0.01988 0.93776 0.0
C598 C 0.40723 0.01436 0.97107 0.0
C599 C 0.48166 0.97488 0.96443 0.0
H600 H 0.48165 0.98911 0.02524 0.0
C601 C 0.58615 0.9419 0.02097 0.0
C602 C 0.58642 0.94957 0.04248 0.0
C603 C 0.56117 0.94898 0.00667 0.0
C604 C 0.48401 0.98511 0.00838 0.0
H605 H 0.39783 0.00406 0.9093 0.0
H606 H 0.44259 0.98547 0.92896 0.0
H607 H 0.44369 0.00558 0.00467 0.0
H608 H 0.56307 0.96958 0.06676 0.0
H609 H 0.52116 0.98195 0.04379 0.0
H610 H 0.52476 0.95514 0.96943 0.0
C611 C 0.42623 -0.00358 0.93816 0.0
C612 C 0.45988 0.99448 -0.00429 0.0
C613 C 0.39995 0.00627 0.92674 0.0
C614 C 0.56347 0.96449 0.04978 0.0
C615 C 0.53831 0.97102 0.03606 0.0
C616 C 0.50697 0.96565 0.9774 0.0
C617 C 0.43047 0.0003 0.96072 0.0
C618 C 0.45778 0.98921 0.97358 0.0
C619 C 0.5362 0.9635 0.01413 0.0
C620 C 0.50866 0.97149 -0.00036 0.0
H621 H 0.36475 0.03512 0.9681 0.0
H622 H 0.408 0.01913 0.98788 0.0
H623 H 0.48151 0.97064 0.94739 0.0
H624 H 0.60355 0.92929 0.01572 0.0
H625 H 0.56144 0.94119 0.99057 0.0
C626 C 0.30864 0.28455 0.25022 0.0
C627 C 0.2985 0.29679 0.26825 0.0
C628 C 0.28725 0.26694 0.24176 0.0
C629 C 0.19851 0.23996 0.25162 0.0
H630 H 0.21713 0.2101 0.19766 0.0
C631 C 0.09959 0.17473 0.21593 0.0
C632 C 0.11099 0.15837 0.20158 0.0
C633 C 0.12184 0.19249 0.22321 0.0
C634 C 0.21145 0.21769 0.21311 0.0
H635 H 0.26051 0.29926 0.29306 0.0
H636 H 0.22553 0.2698 0.27996 0.0
H637 H 0.25927 0.2353 0.21343 0.0
H638 H 0.15608 0.14565 0.18695 0.0
H639 H 0.19223 0.17741 0.19591 0.0
H640 H 0.15192 0.22139 0.25214 0.0
C641 C 0.24771 0.27318 0.27054 0.0
C642 C 0.23612 0.23278 0.22224 0.0
C643 C 0.26842 0.29065 0.27851 0.0
C644 C 0.14528 0.1592 0.196 0.0
C645 C 0.16655 0.17766 0.20162 0.0
C646 C 0.17459 0.22446 0.24292 0.0
C647 C 0.2556 0.26138 0.25146 0.0
C648 C 0.2302 0.24431 0.2418 0.0
C649 C 0.15563 0.1946 0.21562 0.0
C650 C 0.18049 0.2128 0.22363 0.0
H651 H 0.33257 0.28875 0.24255 0.0
H652 H 0.29591 0.25823 0.22762 0.0
H653 H 0.19079 0.24789 0.26634 0.0
H654 H 0.07342 0.17412 0.22103 0.0
H655 H 0.11159 0.20484 0.23401 0.0
C656 C 0.42574 0.55673 0.03448 0.0
C657 C 0.42569 0.55381 0.05682 0.0
C658 C 0.44987 0.54688 0.02199 0.0
C659 C 0.52596 0.50924 0.02662 0.0
H660 H 0.52281 0.51685 0.96506 0.0
C661 C 0.6294 0.4693 0.97487 0.0
C662 C 0.62978 0.47263 0.95264 0.0
C663 C 0.60397 0.47828 0.98727 0.0
C664 C 0.52496 0.51389 0.98219 0.0
H665 H 0.45052 0.53895 0.08428 0.0
H666 H 0.49291 0.52141 0.06306 0.0
H667 H 0.48217 0.5331 0.98626 0.0
H668 H 0.60365 0.48675 0.92524 0.0
H669 H 0.55966 0.50267 0.94614 0.0
H670 H 0.56843 0.48976 0.02252 0.0
C671 C 0.47482 0.53116 0.05434 0.0
C672 C 0.50039 0.52477 -0.00527 0.0
C673 C 0.45053 0.54137 0.06691 0.0
C674 C 0.60415 0.48465 0.94266 0.0
C675 C 0.57855 0.4937 0.95498 0.0
C676 C 0.55014 0.49938 0.01386 0.0
C677 C 0.47491 0.53351 0.03143 0.0
C678 C 0.50058 0.5224 0.01749 0.0
C679 C 0.57786 0.49089 0.97775 0.0
C680 C 0.55075 0.50103 0.99141 0.0
H681 H 0.40674 0.56664 0.02648 0.0
H682 H 0.44782 0.55008 0.00493 0.0
H683 H 0.52811 0.50622 0.04373 0.0
H684 H 0.6486 0.45942 0.98266 0.0
H685 H 0.60533 0.47592 0.00408 0.0
C686 C 0.82838 0.28889 0.19677 0.0
C687 C 0.84241 0.30855 0.20674 0.0
C688 C 0.80506 0.27473 0.20734 0.0
C689 C 0.75437 0.26884 0.26011 0.0
H690 H 0.72221 0.21582 0.22761 0.0
C691 C 0.64822 0.20797 0.29406 0.0
C692 C 0.63663 0.18976 0.2808 0.0
C693 C 0.67288 0.22335 0.28651 0.0
C694 C 0.72914 0.23063 0.23729 0.0
H695 H 0.84357 0.32868 0.23633 0.0
H696 H 0.80241 0.30438 0.25504 0.0
H697 H 0.76229 0.23914 0.2129 0.0
H698 H 0.6381 0.17326 0.2497 0.0
H699 H 0.67843 0.19939 0.23581 0.0
H700 H 0.7197 0.2594 0.28472 0.0
C701 C 0.80904 0.29939 0.23885 0.0
C702 C 0.75397 0.24469 0.22846 0.0
C703 C 0.83307 0.31352 0.22814 0.0
C704 C 0.64684 0.18768 0.25976 0.0
C705 C 0.67143 0.20268 0.25222 0.0
C706 C 0.72865 0.25468 0.26897 0.0
C707 C 0.7941 0.27962 0.22859 0.0
C708 C 0.76732 0.26436 0.2393 0.0
C709 C 0.68617 0.22046 0.26557 0.0
C710 C 0.71489 0.23545 0.2574 0.0
H711 H 0.83556 0.28437 0.18051 0.0
H712 H 0.79593 0.26022 0.19791 0.0
H713 H 0.76341 0.28337 0.26972 0.0
H714 H 0.64026 0.20923 0.31074 0.0
H715 H 0.68221 0.23657 0.29762 0.0
C716 C 0.0604 0.42776 0.52732 0.0
C717 C 0.08075 0.4423 0.54052 0.0
C718 C 0.03957 0.43672 0.51184 0.0
C719 C 0.00932 0.4942 0.49607 0.0
H720 H 0.9407 0.45567 0.46952 0.0
C721 C 0.90903 0.53619 0.44843 0.0
C722 C 0.88159 0.52376 0.43897 0.0
C723 C 0.93463 0.52546 0.45885 0.0
C724 C 0.96032 0.46707 0.47638 0.0
H725 H 0.10375 0.47591 0.54509 0.0
H726 H 0.06893 0.49207 0.51786 0.0
H727 H 0.98372 0.43907 0.48947 0.0
H728 H 0.85967 0.49021 0.43164 0.0
H729 H 0.90371 0.47084 0.45057 0.0
H730 H 0.98801 0.52216 0.48501 0.0
C731 C 0.06496 0.47414 0.52023 0.0
C732 C 0.98611 0.45722 0.48809 0.0
C733 C 0.08584 0.465 0.53574 0.0
C734 C 0.88028 0.5001 0.43961 0.0
C735 C 0.90603 0.48909 0.45052 0.0
C736 C 0.98638 0.50396 0.48467 0.0
C737 C 0.03897 0.46041 0.50956 0.0
C738 C 0.01062 0.47061 0.49743 0.0
C739 C 0.93343 0.50169 0.46091 0.0
C740 C 0.96037 0.49071 0.4739 0.0
H741 H 0.05894 0.4096 0.52993 0.0
H742 H 0.02329 0.42475 0.50276 0.0
H743 H 0.02763 0.50595 0.50373 0.0
H744 H 0.91113 0.55455 0.44774 0.0
H745 H 0.95489 0.53669 0.46496 0.0
C746 C 0.87654 0.73074 0.27888 0.0
C747 C 0.86332 0.70944 0.28491 0.0
C748 C 0.85612 0.74577 0.26771 0.0
C749 C 0.76615 0.74917 0.24279 0.0
H750 H 0.80161 0.8088 0.22774 0.0
C751 C 0.67682 0.80768 0.19867 0.0
C752 C 0.68583 0.83025 0.19449 0.0
C753 C 0.70005 0.7934 0.2075 0.0
C754 C 0.79068 0.79229 0.23158 0.0
H755 H 0.81857 0.68696 0.28446 0.0
H756 H 0.78331 0.71191 0.26508 0.0
H757 H 0.83662 0.78449 0.24762 0.0
H758 H 0.72752 0.8555 0.19482 0.0
H759 H 0.76842 0.831 0.21142 0.0
H760 H 0.72028 0.75663 0.22783 0.0
C761 C 0.80902 0.71811 0.26841 0.0
C762 C 0.81142 0.77783 0.24333 0.0
C763 C 0.82936 0.70337 0.27984 0.0
C764 C 0.71946 0.83829 0.19878 0.0
C765 C 0.74307 0.8239 0.2082 0.0
C766 C 0.74551 0.76356 0.23136 0.0
C767 C 0.82179 0.7398 0.26191 0.0
C768 C 0.7997 0.75578 0.24927 0.0
C769 C 0.73352 0.80112 0.21338 0.0
C770 C 0.75701 0.78554 0.22529 0.0
H771 H 0.90266 0.7359 0.28302 0.0
H772 H 0.86807 0.76189 0.26368 0.0
H773 H 0.75465 0.73278 0.24629 0.0
H774 H 0.65144 0.80065 0.19489 0.0
H775 H 0.69041 0.77626 0.20949 0.0
C776 C 0.78021 0.1875 0.69064 0.0
C777 C 0.79204 0.16855 0.70102 0.0
C778 C 0.75743 0.20119 0.70075 0.0
C779 C 0.71235 0.20855 0.7547 0.0
H780 H 0.68784 0.2633 0.72612 0.0
C781 C 0.62718 0.2709 0.79925 0.0
C782 C 0.61748 0.29067 0.78918 0.0
C783 C 0.6471 0.25561 0.7884 0.0
C784 C 0.69358 0.2482 0.73479 0.0
H785 H 0.78867 0.14765 0.72932 0.0
H786 H 0.74916 0.17106 0.74743 0.0
H787 H 0.72226 0.23849 0.70834 0.0
H788 H 0.61935 0.31001 0.75984 0.0
H789 H 0.65406 0.28433 0.74085 0.0
H790 H 0.68414 0.21862 0.78138 0.0
C791 C 0.757 0.17635 0.73162 0.0
C792 C 0.71424 0.23326 0.72412 0.0
C793 C 0.77966 0.16246 0.7212 0.0
C794 C 0.62708 0.29484 0.76794 0.0
C795 C 0.64744 0.27978 0.75709 0.0
C796 C 0.69168 0.22352 0.7654 0.0
C797 C 0.74609 0.19656 0.72191 0.0
C798 C 0.72388 0.21282 0.73363 0.0
C799 C 0.65844 0.2598 0.76712 0.0
C800 C 0.68132 0.24368 0.75566 0.0
H801 H 0.78937 0.19213 0.67478 0.0
H802 H 0.74985 0.21554 0.69158 0.0
H803 H 0.71875 0.19365 0.76349 0.0
H804 H 0.61922 0.26721 0.81558 0.0
H805 H 0.65341 0.24078 0.79731 0.0
C806 C 0.80867 0.78557 0.7476 0.0
C807 C 0.80109 0.79608 0.76701 0.0
C808 C 0.78797 0.76735 0.74017 0.0
C809 C 0.703 0.7377 0.75433 0.0
H810 H 0.71215 0.71569 0.69583 0.0
C811 C 0.60457 0.67239 0.71689 0.0
C812 C 0.61604 0.65883 0.70004 0.0
C813 C 0.62592 0.68996 0.7255 0.0
C814 C 0.7095 0.72087 0.71255 0.0
H815 H 0.77263 0.79336 0.79666 0.0
H816 H 0.73825 0.76178 0.78485 0.0
H817 H 0.75587 0.73936 0.71114 0.0
H818 H 0.66066 0.64852 0.68374 0.0
H819 H 0.69574 0.68044 0.69518 0.0
H820 H 0.65756 0.71749 0.75597 0.0
C821 C 0.75657 0.76817 0.77351 0.0
C822 C 0.73499 0.73515 0.72153 0.0
C823 C 0.77676 0.78643 0.78061 0.0
C824 C 0.6499 0.66095 0.69415 0.0
C825 C 0.67021 0.67925 0.70125 0.0
C826 C 0.67843 0.72244 0.74572 0.0
C827 C 0.7597 0.75947 0.75233 0.0
C828 C 0.73273 0.74357 0.74283 0.0
C829 C 0.6585 0.69441 0.71682 0.0
C830 C 0.68181 0.71321 0.72494 0.0
H831 H 0.82915 0.79217 0.7377 0.0
H832 H 0.79407 0.76048 0.72458 0.0
H833 H 0.69782 0.74427 0.77019 0.0
H834 H 0.57886 0.67013 0.72264 0.0
H835 H 0.61588 0.70053 0.73803 0.0
C836 C 0.44148 0.47674 0.44365 0.0
C837 C 0.43881 0.45329 0.44184 0.0
C838 C 0.46119 0.48673 0.46035 0.0
C839 C 0.52026 0.46993 0.50691 0.0
H840 H 0.53502 0.53479 0.5092 0.0
C841 C 0.61639 0.50922 0.57052 0.0
C842 C 0.62785 0.53178 0.56827 0.0
C843 C 0.59101 0.49964 0.55637 0.0
C844 C 0.53223 0.51657 0.50908 0.0
H845 H 0.44868 0.42137 0.45693 0.0
H846 H 0.48102 0.43785 0.48624 0.0
H847 H 0.4981 0.51892 0.48281 0.0
H848 H 0.62223 0.56063 0.54774 0.0
H849 H 0.57744 0.54683 0.52658 0.0
H850 H 0.55605 0.46757 0.53235 0.0
C851 C 0.4714 0.44951 0.47465 0.0
C852 C 0.50969 0.50712 0.4935 0.0
C853 C 0.45235 0.43969 0.45775 0.0
C854 C 0.61329 0.54417 0.5516 0.0
C855 C 0.58691 0.53546 0.53853 0.0
C856 C 0.54316 0.47934 0.52224 0.0
C857 C 0.47798 0.47325 0.47573 0.0
C858 C 0.5026 0.48355 0.49228 0.0
C859 C 0.57555 0.51274 0.54003 0.0
C860 C 0.54966 0.50286 0.52387 0.0
H861 H 0.4298 0.48729 0.43162 0.0
H862 H 0.4633 0.50496 0.4604 0.0
H863 H 0.51761 0.45173 0.50693 0.0
H864 H 0.62662 0.49908 0.58339 0.0
H865 H 0.58338 0.48216 0.55903 0.0
C866 C 0.01206 0.51704 0.9357 0.0
C867 C 0.04078 0.53025 0.9412 0.0
C868 C -0.00946 0.50985 0.95174 0.0
C869 C 0.98528 0.51095 0.01331 0.0
H870 H 0.91136 0.46913 -0.00419 0.0
C871 C 0.90247 0.46282 0.07747 0.0
C872 C 0.8713 0.45214 0.07065 0.0
C873 C 0.92325 0.47466 0.06264 0.0
C874 C 0.93094 0.48131 0.00148 0.0
H875 H 0.06983 0.5483 0.9665 0.0
H876 H 0.03356 0.53634 -0.00519 0.0
H877 H 0.94285 0.48605 0.96961 0.0
H878 H 0.83475 0.44986 0.04411 0.0
H879 H 0.87114 0.46736 0.01802 0.0
H880 H 0.97143 0.50523 0.04593 0.0
C881 C 0.02704 0.52941 0.97886 0.0
C882 C 0.95049 0.49074 0.98592 0.0
C883 C 0.04843 0.53667 0.96258 0.0
C884 C 0.85981 0.45613 0.04946 0.0
C885 C 0.8813 0.46629 0.03432 0.0
C886 C 0.96507 0.50086 0.02925 0.0
C887 C -0.00225 0.51535 0.97386 0.0
C888 C 0.97839 0.50568 0.99128 0.0
C889 C 0.91396 0.47544 0.04039 0.0
C890 C 0.9371 0.48596 0.02366 0.0
H891 H 0.00522 0.51332 0.91886 0.0
H892 H 0.97101 0.50031 0.94595 0.0
H893 H 0.00349 0.52195 0.019 0.0
H894 H 0.91116 0.46156 0.09415 0.0
H895 H 0.9472 0.4821 0.06872 0.0
C896 C 0.12136 0.02696 0.16223 0.0
C897 C 0.15575 0.03075 0.15681 0.0
C898 C 0.11077 0.0094 0.17622 0.0
C899 C 0.14532 0.95904 0.20936 0.0
H900 H 0.05378 0.95686 0.23042 0.0
C901 C 0.106 0.89134 0.27354 0.0
C902 C 0.07307 0.89031 0.28184 0.0
C903 C 0.1151 0.90683 0.25739 0.0
C904 C 0.07953 0.95657 0.22492 0.0
H905 H 0.20493 0.01627 0.15951 0.0
H906 H 0.18696 0.98497 0.183 0.0
H907 H 0.07029 0.98502 0.20536 0.0
H908 H 0.02307 0.9034 0.27855 0.0
H909 H 0.03804 0.93034 0.25097 0.0
H910 H 0.15493 0.93101 0.22919 0.0
C911 C 0.168 -0.00306 0.17788 0.0
C912 C 0.08936 0.97335 0.20994 0.0
C913 C 0.17856 0.01478 0.16411 0.0
C914 C 0.04888 0.90419 0.27278 0.0
C915 C 0.05798 0.91995 0.25679 0.0
C916 C 0.13554 0.94233 0.22435 0.0
C917 C 0.13352 0.99335 0.18508 0.0
C918 C 0.12257 0.97505 0.20148 0.0
C919 C 0.09166 0.9222 0.24895 0.0
C920 C 0.10224 0.94039 0.23253 0.0
H921 H 0.1024 0.03813 0.15612 0.0
H922 H 0.08414 0.00829 0.17997 0.0
H923 H 0.17122 0.9589 0.2041 0.0
H924 H 0.12502 0.88023 0.27969 0.0
H925 H 0.14099 0.90662 0.25214 0.0
C926 C 0.23797 0.90258 0.53998 0.0
C927 C 0.23925 0.88831 0.55794 0.0
C928 C 0.21832 0.89643 0.52114 0.0
C929 C 0.15511 0.84913 0.49601 0.0
H930 H 0.16328 0.88795 0.44696 0.0
C931 C 0.07334 0.83631 0.41149 0.0
C932 C 0.0747 0.8547 0.39692 0.0
C933 C 0.09083 0.83767 0.4321 0.0
C934 C 0.15904 0.87744 0.4607 0.0
H935 H 0.2218 0.85555 0.56946 0.0
H936 H 0.18801 0.84456 0.53706 0.0
H937 H 0.19536 0.89743 0.47909 0.0
H938 H 0.08938 0.88998 0.39483 0.0
H939 H 0.11601 0.89324 0.4305 0.0
H940 H 0.11628 0.83005 0.47697 0.0
C941 C 0.20126 0.86098 0.53722 0.0
C942 C 0.17891 0.88244 0.47956 0.0
C943 C 0.2208 0.86733 0.55618 0.0
C944 C 0.0895 0.87513 0.40493 0.0
C945 C 0.1058 0.87671 0.42551 0.0
C946 C 0.1337 0.84476 0.47714 0.0
C947 C 0.19925 0.87533 0.51896 0.0
C948 C 0.17762 0.86876 0.49813 0.0
C949 C 0.10974 0.85768 0.439 0.0
C950 C 0.13411 0.85959 0.45921 0.0
H951 H 0.25256 0.9186 0.54036 0.0
H952 H 0.21857 0.90875 0.50844 0.0
H953 H 0.15287 0.83727 0.50912 0.0
H954 H 0.06095 0.82034 0.40634 0.0
H955 H 0.09107 0.82264 0.44191 0.0
C956 C 0.41291 0.11077 0.75509 0.0
C957 C 0.41166 0.10706 0.77729 0.0
C958 C 0.40179 0.09372 0.74033 0.0
C959 C 0.36939 0.03115 0.738 0.0
H960 H 0.37485 0.04238 0.6767 0.0
C961 C 0.33142 0.95663 0.67736 0.0
C962 C 0.33087 0.9596 0.65496 0.0
C963 C 0.34204 0.97432 0.69172 0.0
C964 C 0.37296 0.03838 0.69363 0.0
H965 H 0.39563 0.08353 0.80194 0.0
H966 H 0.37767 0.05355 0.77703 0.0
H967 H 0.38842 0.07222 0.70154 0.0
H968 H 0.34425 0.98343 0.62984 0.0
H969 H 0.36246 0.01529 0.65435 0.0
H970 H 0.3537 -0.00253 0.73025 0.0
C971 C 0.38759 0.06903 0.77004 0.0
C972 C 0.38105 0.05616 0.70849 0.0
C973 C 0.39821 0.08632 0.78471 0.0
C974 C 0.34294 0.98077 0.64713 0.0
C975 C 0.35391 -0.00044 0.66154 0.0
C976 C 0.3612 0.01344 0.72318 0.0
C977 C 0.38953 0.07211 0.74731 0.0
C978 C 0.37962 0.05307 0.73115 0.0
C979 C 0.35315 -0.00305 0.68441 0.0
C980 C 0.36274 0.0164 0.70048 0.0
H981 H 0.42143 0.12719 0.74909 0.0
H982 H 0.40326 0.09805 0.7235 0.0
H983 H 0.36767 0.02692 0.75487 0.0
H984 H 0.32371 0.9403 0.68392 0.0
H985 H 0.34147 0.97018 0.70862 0.0
C986 C 0.33841 0.15691 0.90879 0.0
C987 C 0.3648 0.14302 0.89811 0.0
C988 C 0.32485 0.15443 0.92948 0.0
C989 C 0.33936 0.12226 0.98147 0.0
H990 H 0.25848 0.15309 -0.00118 0.0
C991 C 0.27158 0.09484 0.05727 0.0
C992 C 0.24828 0.10825 0.06746 0.0
C993 C 0.28854 0.10263 0.039 0.0
C994 C 0.28172 0.14388 0.9946 0.0
H995 H 0.40123 0.12113 0.91812 0.0
H996 H 0.37188 0.11178 0.94574 0.0
H997 H 0.27886 0.15704 0.96273 0.0
H998 H 0.22616 0.1412 0.06772 0.0
H999 H 0.25722 0.15549 0.03631 0.0
H1000 H 0.34231 0.11057 0.01301 0.0
C1001 C 0.36139 0.12501 0.93617 0.0
C1002 C 0.29341 0.14664 0.97338 0.0
C1003 C 0.3775 0.1296 0.91687 0.0
C1004 C 0.24413 0.13046 0.06003 0.0
C1005 C 0.26171 0.13856 0.04188 0.0
C1006 C 0.32756 0.12072 0.00218 0.0
C1007 C 0.33529 0.13783 0.94346 0.0
C1008 C 0.32224 0.13545 0.96619 0.0
C1009 C 0.28327 0.12437 0.03052 0.0
C1010 C 0.298 0.13078 0.00905 0.0
H1011 H 0.32771 0.17207 0.9024 0.0
H1012 H 0.30669 0.16654 0.93451 0.0
H1013 H 0.36237 0.11388 0.97808 0.0
H1014 H 0.27484 0.07759 0.06246 0.0
H1015 H 0.30392 0.09066 0.03075 0.0
C1016 C 0.06626 0.08381 0.23108 0.0
C1017 C 0.07241 0.07535 0.21018 0.0
C1018 C 0.08099 0.07402 0.24965 0.0
C1019 C 0.1319 0.02192 0.26522 0.0
H1020 H 0.11421 0.04349 0.32292 0.0
C1021 C 0.17841 0.96922 0.33798 0.0
C1022 C 0.17194 0.97575 0.35914 0.0
C1023 C 0.16734 0.98203 0.3206 0.0
C1024 C 0.11981 0.0368 0.30714 0.0
H1025 H 0.10387 0.05334 0.19267 0.0
H1026 H 0.12816 0.03562 0.22342 0.0
H1027 H 0.09602 0.06465 0.2927 0.0
H1028 H 0.14833 0.00103 0.37931 0.0
H1029 H 0.12964 0.02396 0.34958 0.0
H1030 H 0.15498 0.99346 0.27905 0.0
C1031 C 0.11038 0.04851 0.22665 0.0
C1032 C 0.10898 0.04936 0.28922 0.0
C1033 C 0.09612 0.05858 0.20842 0.0
C1034 C 0.15455 -0.00384 0.36292 0.0
C1035 C 0.14348 0.00921 0.34552 0.0
C1036 C 0.14287 0.00955 0.283 0.0
C1037 C 0.10214 0.05521 0.24794 0.0
C1038 C 0.11481 0.04231 0.26767 0.0
C1039 C 0.14962 0.00283 0.32374 0.0
C1040 C 0.1373 0.01654 0.30454 0.0
H1041 H 0.05033 0.09814 0.23309 0.0
H1042 H 0.07482 0.08117 0.26516 0.0
H1043 H 0.13672 0.01461 0.24957 0.0
H1044 H 0.19116 0.95366 0.33478 0.0
H1045 H 0.17326 0.97553 0.30485 0.0
C1046 C 0.41563 0.88845 0.59356 0.0
C1047 C 0.39775 0.87549 0.60877 0.0
C1048 C 0.40385 0.88802 0.57149 0.0
C1049 C 0.32505 0.86247 0.53794 0.0
H1050 H 0.33953 0.92111 0.5127 0.0
C1051 C 0.25307 0.88738 0.45839 0.0
C1052 C 0.25446 0.91043 0.45286 0.0
C1053 C 0.27025 0.88024 0.47709 0.0
C1054 C 0.33338 0.90476 0.51943 0.0
H1055 H 0.35305 0.85757 0.60924 0.0
H1056 H 0.34584 0.84388 0.57478 0.0
H1057 H 0.37396 0.91139 0.54128 0.0
H1058 H 0.27365 0.94394 0.46183 0.0
H1059 H 0.30011 0.93287 0.49445 0.0
H1060 H 0.28275 0.85656 0.51571 0.0
C1061 C 0.3661 0.85632 0.57852 0.0
C1062 C 0.35469 0.89887 0.53622 0.0
C1063 C 0.3731 0.86054 0.60003 0.0
C1064 C 0.27333 0.92603 0.46556 0.0
C1065 C 0.28904 0.91926 0.48446 0.0
C1066 C 0.30299 0.86855 0.52091 0.0
C1067 C 0.37616 0.8729 0.56426 0.0
C1068 C 0.35242 0.87752 0.54542 0.0
C1069 C 0.28839 0.89626 0.4907 0.0
C1070 C 0.30781 0.88968 0.51074 0.0
H1071 H 0.43589 0.90037 0.59887 0.0
H1072 H 0.4155 0.90023 0.56075 0.0
H1073 H 0.32053 0.84582 0.54459 0.0
H1074 H 0.23766 0.87515 0.44877 0.0
H1075 H 0.26877 0.86239 0.48084 0.0
C1076 C 0.35273 0.0244 0.83812 0.0
C1077 C 0.32587 0.01959 0.85187 0.0
C1078 C 0.36141 0.0086 0.82304 0.0
C1079 C 0.33238 0.94935 0.80145 0.0
H1080 H 0.40441 0.96621 0.76299 0.0
C1081 C 0.36584 0.8873 0.7344 0.0
C1082 C 0.39404 0.89286 0.72189 0.0
C1083 C 0.35591 0.90254 0.74993 0.0
C1084 C 0.38399 0.96045 0.77307 0.0
H1085 H 0.28734 -0.00496 0.86185 0.0
H1086 H 0.30046 0.96658 0.83548 0.0
H1087 H 0.39295 0.9905 0.78998 0.0
H1088 H 0.43229 0.91811 0.71345 0.0
H1089 H 0.41582 0.94478 0.73905 0.0
H1090 H 0.32403 0.91891 0.78428 0.0
C1091 C 0.31549 0.98224 0.83537 0.0
C1092 C 0.37708 0.97521 0.7895 0.0
C1093 C 0.30741 -0.00095 0.85058 0.0
C1094 C 0.4115 0.91352 0.72402 0.0
C1095 C 0.40132 0.92895 0.73902 0.0
C1096 C 0.33941 0.93445 0.78492 0.0
C1097 C 0.34256 0.98675 0.82109 0.0
C1098 C 0.35093 0.97017 0.80403 0.0
C1099 C 0.37395 0.92366 0.75284 0.0
C1100 C 0.36535 0.93973 0.77027 0.0
H1101 H 0.36768 0.04029 0.83938 0.0
H1102 H 0.38277 0.01371 0.81344 0.0
H1103 H 0.31209 0.94387 0.8118 0.0
H1104 H 0.35148 0.8713 0.73199 0.0
H1105 H 0.33406 0.89727 0.75909 0.0
C1106 C 0.26267 0.08509 0.96827 0.0
C1107 C 0.25021 0.07976 0.9473 0.0
C1108 C 0.2405 0.08695 0.98551 0.0
C1109 C 0.14765 0.07921 0.00094 0.0
H1110 H 0.1777 0.12122 0.04645 0.0
C1111 C 0.06495 0.09161 0.07855 0.0
C1112 C 0.07609 0.10809 0.0941 0.0
C1113 C 0.08213 0.08967 0.05858 0.0
C1114 C 0.1682 0.10929 0.03423 0.0
H1115 H 0.20471 0.07148 0.92803 0.0
H1116 H 0.16568 0.07621 0.95771 0.0
H1117 H 0.21467 0.11367 0.01741 0.0
H1118 H 0.10546 0.13926 0.0973 0.0
H1119 H 0.13915 0.13436 0.06589 0.0
H1120 H 0.10014 0.07591 0.01689 0.0
C1121 C 0.19266 0.07846 0.9612 0.0
C1122 C 0.19032 0.1046 0.01741 0.0
C1123 C 0.21502 0.07609 0.94397 0.0
C1124 C 0.10036 0.12444 0.08741 0.0
C1125 C 0.11919 0.12169 0.06871 0.0
C1126 C 0.12524 0.08406 0.01776 0.0
C1127 C 0.20493 0.08424 0.98231 0.0
C1128 C 0.18073 0.0894 0.00045 0.0
C1129 C 0.11173 0.1035 0.05411 0.0
C1130 C 0.13504 0.09901 0.03509 0.0
H1131 H 0.28975 0.087 0.97158 0.0
H1132 H 0.25118 0.09121 0.00123 0.0
H1133 H 0.13908 0.06618 0.98864 0.0
H1134 H 0.04447 0.07951 0.08219 0.0
H1135 H 0.07339 0.07616 0.0476 0.0
C1136 C -0.00931 0.30015 0.1383 0.0
C1137 C 0.9716 0.29911 0.15586 0.0
C1138 C 0.01119 0.28194 0.13331 0.0
C1139 C 0.03706 0.22392 0.15492 0.0
H1140 H 0.09238 0.22567 0.10392 0.0
C1141 C 0.13514 0.15469 0.14371 0.0
C1142 C 0.15345 0.15144 0.12531 0.0
C1143 C 0.11366 0.17269 0.14638 0.0
C1144 C 0.07742 0.22453 0.11835 0.0
H1145 H 0.95259 0.27788 0.18145 0.0
H1146 H 0.98754 0.24646 0.17338 0.0
H1147 H 0.05277 0.25461 0.10985 0.0
H1148 H 0.16542 0.16644 0.09446 0.0
H1149 H 0.12727 0.19807 0.09827 0.0
H1150 H 0.05872 0.19307 0.16257 0.0
C1151 C -0.01218 0.26114 0.1633 0.0
C1152 C 0.05426 0.24177 0.12204 0.0
C1153 C 0.96991 0.27931 0.16808 0.0
C1154 C 0.15184 0.16836 0.10939 0.0
C1155 C 0.12907 0.18643 0.11154 0.0
C1156 C 0.05948 0.20653 0.15099 0.0
C1157 C 0.01071 0.2619 0.14578 0.0
C1158 C 0.03408 0.24238 0.14081 0.0
C1159 C 0.10821 0.18853 0.13004 0.0
C1160 C 0.08151 0.20665 0.13302 0.0
H1161 H -0.00816 0.31508 0.12828 0.0
H1162 H 0.02768 0.28415 0.11972 0.0
H1163 H 0.02237 0.22245 0.1694 0.0
H1164 H 0.13639 0.14173 0.15532 0.0
H1165 H 0.10089 0.17365 0.16137 0.0
C1166 C 0.67362 0.35919 0.88089 0.0
C1167 C 0.6609 0.38394 0.89216 0.0
C1168 C 0.65599 0.33246 0.88416 0.0
C1169 C 0.57342 0.29072 0.90401 0.0
H1170 H 0.61317 0.2577 0.85753 0.0
C1171 C 0.49873 0.21102 0.87043 0.0
C1172 C 0.50299 0.20329 0.84915 0.0
C1173 C 0.52155 0.22714 0.88037 0.0
C1174 C 0.60097 0.26661 0.87044 0.0
H1175 H 0.62353 0.40455 0.9156 0.0
H1176 H 0.58215 0.37143 0.92787 0.0
H1177 H 0.6391 0.29204 0.8696 0.0
H1178 H 0.53715 0.20537 0.82222 0.0
H1179 H 0.57637 0.23423 0.83891 0.0
H1180 H 0.53417 0.26517 0.90372 0.0
C1181 C 0.60308 0.36656 0.9176 0.0
C1182 C 0.61658 0.28753 0.87811 0.0
C1183 C 0.62881 0.38788 0.90956 0.0
C1184 C 0.53247 0.21123 0.83853 0.0
C1185 C 0.55525 0.22791 0.84833 0.0
C1186 C 0.55745 0.27042 0.89599 0.0
C1187 C 0.62017 0.32689 0.90051 0.0
C1188 C 0.60308 0.3016 0.89489 0.0
C1189 C 0.54958 0.23704 0.86926 0.0
C1190 C 0.57013 0.25781 0.87878 0.0
H1191 H 0.69495 0.36063 0.87017 0.0
H1192 H 0.66922 0.31957 0.8759 0.0
H1193 H 0.56172 0.29622 0.91854 0.0
H1194 H 0.47763 0.20435 0.87962 0.0
H1195 H 0.51639 0.23169 0.89691 0.0
C1196 C 0.83585 0.63639 0.36722 0.0
C1197 C 0.86402 0.61447 0.37283 0.0
C1198 C 0.84972 0.6654 0.36996 0.0
C1199 C 0.93394 0.70339 0.39149 0.0
H1200 H 0.88531 0.74402 0.35463 0.0
C1201 C -0.01106 0.79116 0.36958 0.0
C1202 C 0.98287 0.79868 0.3488 0.0
C1203 C 0.97443 0.7724 0.37823 0.0
C1204 C 0.89986 0.73294 0.36467 0.0
H1205 H 0.92417 0.60732 0.38512 0.0
H1206 H 0.94814 0.65437 0.39071 0.0
H1207 H 0.86462 0.70625 0.35752 0.0
H1208 H 0.95163 0.79233 0.32014 0.0
H1209 H 0.92376 0.75868 0.33379 0.0
H1210 H 0.97217 0.7297 0.39588 0.0
C1211 C 0.92211 0.65041 0.38556 0.0
C1212 C 0.88702 0.71119 0.36708 0.0
C1213 C 0.90754 0.62087 0.38117 0.0
C1214 C 0.95728 0.78735 0.33661 0.0
C1215 C 0.94118 0.76808 0.34472 0.0
C1216 C 0.94788 0.7251 0.38818 0.0
C1217 C 0.8931 0.67271 0.37942 0.0
C1218 C 0.90443 0.69616 0.37999 0.0
C1219 C 0.94901 0.76052 0.36578 0.0
C1220 C 0.93177 0.73964 0.37366 0.0
H1221 H 0.8093 0.63218 0.36357 0.0
H1222 H 0.83153 0.67812 0.36652 0.0
H1223 H 0.94718 0.69211 0.40206 0.0
H1224 H 0.01004 0.7993 0.37871 0.0
H1225 H 0.98162 0.7671 0.39432 0.0
C1226 C 0.86938 0.32779 0.12533 0.0
C1227 C 0.83539 0.32972 0.13243 0.0
C1228 C 0.88367 0.30869 0.11723 0.0
C1229 C 0.8952 0.25618 0.14274 0.0
H1230 H 0.96137 0.24476 0.09879 0.0
C1231 C 0.96923 0.17672 0.15274 0.0
C1232 C -0.00965 0.16957 0.13835 0.0
C1233 C 0.95316 0.1968 0.14964 0.0
C1234 C 0.94281 0.24727 0.11113 0.0
H1235 H 0.79621 0.30707 0.14503 0.0
H1236 H 0.82764 0.27198 0.13983 0.0
H1237 H 0.92305 0.27608 0.09471 0.0
H1238 H 0.01657 0.1779 0.10875 0.0
H1239 H -0.01321 0.21297 0.10231 0.0
H1240 H 0.9148 0.23051 0.16052 0.0
C1241 C 0.8387 0.28782 0.13403 0.0
C1242 C 0.92059 0.26541 0.10876 0.0
C1243 C 0.82081 0.30819 0.13754 0.0
C1244 C -0.00244 0.18296 0.12006 0.0
C1245 C 0.98333 0.20329 0.11653 0.0
C1246 C 0.91693 0.23864 0.14517 0.0
C1247 C 0.87069 0.28806 0.12345 0.0
C1248 C 0.89484 0.26904 0.12416 0.0
C1249 C 0.95948 0.21093 0.13162 0.0
C1250 C 0.93998 0.23254 0.12905 0.0
H1251 H 0.8875 0.34046 0.12506 0.0
H1252 H 0.9088 0.31043 0.11035 0.0
H1253 H 0.87872 0.25984 0.15605 0.0
H1254 H 0.96371 0.16708 0.16717 0.0
H1255 H 0.93549 0.20029 0.16206 0.0
C1256 C 0.47098 0.67275 0.62502 0.0
C1257 C 0.4907 0.67275 0.64416 0.0
C1258 C 0.45251 0.69178 0.61951 0.0
C1259 C 0.42505 0.74798 0.64389 0.0
H1260 H 0.38359 0.75438 0.5868 0.0
C1261 C 0.35956 0.82569 0.63099 0.0
C1262 C 0.32538 0.82726 0.6254 0.0
C1263 C 0.38068 0.80929 0.62373 0.0
C1264 C 0.39454 0.75265 0.6029 0.0
H1265 H 0.50929 0.693 0.67158 0.0
H1266 H 0.47744 0.72566 0.66274 0.0
H1267 H 0.42081 0.72324 0.59375 0.0
H1268 H 0.28567 0.80837 0.60717 0.0
H1269 H 0.32037 0.77439 0.60053 0.0
H1270 H 0.39909 0.77747 0.65283 0.0
C1271 C 0.47437 0.71119 0.65191 0.0
C1272 C 0.4162 0.73462 0.60709 0.0
C1273 C 0.49304 0.69232 0.65716 0.0
C1274 C 0.31196 0.80867 0.61264 0.0
C1275 C 0.33221 0.78934 0.60833 0.0
C1276 C 0.40374 0.76585 0.63964 0.0
C1277 C 0.45327 0.71145 0.63299 0.0
C1278 C 0.43167 0.73163 0.62781 0.0
C1279 C 0.36683 0.78915 0.6155 0.0
C1280 C 0.38777 0.76853 0.61916 0.0
H1281 H 0.46992 0.65807 0.61426 0.0
H1282 H 0.43705 0.69055 0.60486 0.0
H1283 H 0.43521 0.74698 0.66019 0.0
H1284 H 0.37074 0.83882 0.63924 0.0
H1285 H 0.40778 0.81143 0.62632 0.0
C1286 C -0.00018 0.7253 0.33793 0.0
C1287 C -0.00417 0.70473 0.34863 0.0
C1288 C 0.02227 0.74263 0.34581 0.0
C1289 C 0.08413 0.76202 0.39324 0.0
H1290 H 0.09252 0.81053 0.35542 0.0
C1291 C 0.17192 0.84757 0.40742 0.0
C1292 C 0.17111 0.86293 0.39017 0.0
C1293 C 0.15605 0.8256 0.40525 0.0
C1294 C 0.09546 0.79595 0.36428 0.0
H1295 H 0.01137 0.68669 0.37722 0.0
H1296 H 0.05203 0.71689 0.39092 0.0
H1297 H 0.06788 0.77612 0.34113 0.0
H1298 H 0.16139 0.86564 0.35589 0.0
H1299 H 0.14266 0.82625 0.35096 0.0
H1300 H 0.12075 0.78125 0.41406 0.0
C1301 C 0.03791 0.71967 0.37606 0.0
C1302 C 0.07662 0.77666 0.35772 0.0
C1303 C 0.01485 0.70209 0.36803 0.0
C1304 C 0.16089 0.8546 0.36978 0.0
C1305 C 0.14863 0.83201 0.36725 0.0
C1306 C 0.1084 0.78041 0.39825 0.0
C1307 C 0.04268 0.74034 0.36488 0.0
C1308 C 0.06835 0.75945 0.37223 0.0
C1309 C 0.14081 0.81822 0.38538 0.0
C1310 C 0.11557 0.79757 0.38293 0.0
H1311 H 0.98754 0.72827 0.32341 0.0
H1312 H 0.02202 0.7581 0.3368 0.0
H1313 H 0.07829 0.74985 0.4057 0.0
H1314 H 0.18198 0.85321 0.42312 0.0
H1315 H 0.15397 0.81517 0.41946 0.0
C1316 C 0.40891 0.1238 0.88231 0.0
C1317 C 0.3671 0.11436 0.87244 0.0
C1318 C 0.41813 0.15421 0.8869 0.0
C1319 C 0.37808 0.20979 0.86199 0.0
H1320 H 0.44444 0.23835 0.90164 0.0
C1321 C 0.45953 0.27763 0.82904 0.0
C1322 C 0.48373 0.28956 0.84177 0.0
C1323 C 0.43734 0.26223 0.83865 0.0
C1324 C 0.42519 0.2311 0.8906 0.0
H1325 H 0.31065 0.12815 0.86083 0.0
H1326 H 0.32545 0.17506 0.86417 0.0
H1327 H 0.42346 0.20005 0.90827 0.0
H1328 H 0.50511 0.29562 0.87402 0.0
H1329 H 0.46402 0.2708 0.89148 0.0
H1330 H 0.37733 0.24037 0.84498 0.0
C1331 C 0.34496 0.16356 0.86867 0.0
C1332 C 0.41369 0.20896 0.89441 0.0
C1333 C 0.33615 0.13408 0.86559 0.0
C1334 C 0.48574 0.2865 0.86417 0.0
C1335 C 0.46232 0.27204 0.87407 0.0
C1336 C 0.38843 0.23194 0.85868 0.0
C1337 C 0.38576 0.17396 0.87954 0.0
C1338 C 0.39234 0.19793 0.87907 0.0
C1339 C 0.43773 0.25954 0.86144 0.0
C1340 C 0.41555 0.24174 0.87117 0.0
H1341 H 0.42737 0.1116 0.88698 0.0
H1342 H 0.44295 0.16031 0.89288 0.0
H1343 H 0.36079 0.20179 0.85009 0.0
H1344 H 0.45882 0.27945 0.81158 0.0
H1345 H 0.42098 0.25202 0.82777 0.0
C1346 C 0.90807 0.07639 0.7117 0.0
C1347 C 0.88645 0.09436 0.71329 0.0
C1348 C 0.90935 0.06028 0.72808 0.0
C1349 C 0.86516 0.04324 0.7808 0.0
H1350 H 0.92275 0.99201 0.77433 0.0
C1351 C 0.85735 0.97141 0.84381 0.0
C1352 C 0.87974 0.95389 0.84338 0.0
C1353 C 0.85856 0.98802 0.8281 0.0
C1354 C 0.90663 0.00656 0.77695 0.0
H1355 H 0.8504 0.11063 0.73354 0.0
H1356 H 0.85155 0.08315 0.7616 0.0
H1357 H 0.92614 0.02201 0.74907 0.0
H1358 H 0.92084 0.9392 0.82619 0.0
H1359 H 0.92282 0.96729 0.79831 0.0
H1360 H 0.84622 0.02829 0.80887 0.0
C1361 C 0.86776 0.08037 0.7481 0.0
C1362 C 0.90824 0.02396 0.76181 0.0
C1363 C 0.86708 0.09662 0.73188 0.0
C1364 C 0.90307 0.95269 0.82666 0.0
C1365 C 0.9041 0.96917 0.81059 0.0
C1366 C 0.86382 0.02602 0.79603 0.0
C1367 C 0.8884 0.06138 0.74645 0.0
C1368 C 0.88746 0.0428 0.76324 0.0
C1369 C 0.88216 0.9876 0.81111 0.0
C1370 C 0.88436 0.00709 0.79453 0.0
H1371 H 0.9239 0.0747 0.69768 0.0
H1372 H 0.92654 0.04688 0.72556 0.0
H1373 H 0.84807 0.0567 0.78332 0.0
H1374 H 0.83961 0.97285 0.85689 0.0
H1375 H 0.84104 0.00184 0.82995 0.0
C1376 C 0.6416 0.07823 0.47827 0.0
C1377 C 0.62435 0.09297 0.46468 0.0
C1378 C 0.65779 0.08633 0.49773 0.0
C1379 C 0.68784 0.14378 0.52604 0.0
H1380 H 0.73451 0.10195 0.56204 0.0
C1381 C 0.78029 0.16502 0.60545 0.0
C1382 C 0.80121 0.14665 0.61025 0.0
C1383 C 0.75715 0.16372 0.58713 0.0
C1384 C 0.72288 0.11437 0.55188 0.0
H1385 H 0.60489 0.12652 0.46319 0.0
H1386 H 0.63312 0.14077 0.49624 0.0
H1387 H 0.70024 0.08765 0.5331 0.0
H1388 H 0.81291 0.11391 0.59945 0.0
H1389 H 0.78739 0.11784 0.56345 0.0
H1390 H 0.71612 0.17072 0.54396 0.0
C1391 C 0.63656 0.12332 0.49171 0.0
C1392 C 0.7017 0.10581 0.53502 0.0
C1393 C 0.61979 0.11503 0.47259 0.0
C1394 C 0.80007 0.1288 0.59555 0.0
C1395 C 0.78287 0.12994 0.5758 0.0
C1396 C 0.71166 0.15255 0.54217 0.0
C1397 C 0.65836 0.10974 0.50392 0.0
C1398 C 0.68239 0.11997 0.52194 0.0
C1399 C 0.75726 0.14504 0.5724 0.0
C1400 C 0.72979 0.13783 0.55547 0.0
H1401 H 0.64406 0.0607 0.47336 0.0
H1402 H 0.67164 0.0741 0.5067 0.0
H1403 H 0.67474 0.15595 0.51645 0.0
H1404 H 0.78022 0.17949 0.6164 0.0
H1405 H 0.7389 0.1767 0.58497 0.0
C1406 C 0.6045 0.90433 0.22153 0.0
C1407 C 0.59391 0.9102 0.20069 0.0
C1408 C 0.60249 0.91947 0.23871 0.0
C1409 C 0.57453 0.97906 0.25248 0.0
H1410 H 0.62028 0.96403 0.30579 0.0
C1411 C 0.57646 0.04287 0.32579 0.0
C1412 C 0.59609 0.03845 0.34436 0.0
C1413 C 0.5758 0.02799 0.3079 0.0
C1414 C 0.60792 0.96942 0.29116 0.0
H1415 H 0.5709 0.93575 0.18133 0.0
H1416 H 0.56744 0.96265 0.21089 0.0
H1417 H 0.62123 0.93894 0.27675 0.0
H1418 H 0.63044 0.01541 0.35893 0.0
H1419 H 0.63083 0.98961 0.32838 0.0
H1420 H 0.5641 0.01134 0.26671 0.0
C1421 C 0.57779 0.94655 0.21463 0.0
C1422 C 0.60753 0.95402 0.27394 0.0
C1423 C 0.57982 0.93115 0.19733 0.0
C1424 C 0.61548 0.01931 0.34463 0.0
C1425 C 0.61512 0.00454 0.32684 0.0
C1426 C 0.57648 -0.00428 0.26955 0.0
C1427 C 0.59003 0.9413 0.23568 0.0
C1428 C 0.59055 0.95826 0.25417 0.0
C1429 C 0.59481 0.00818 0.3081 0.0
C1430 C 0.59282 0.99052 0.28937 0.0
H1431 H 0.61525 0.88805 0.22456 0.0
H1432 H 0.61086 0.91339 0.25419 0.0
H1433 H 0.56061 0.98364 0.23811 0.0
H1434 H 0.56126 0.05771 0.32523 0.0
H1435 H 0.55966 0.0322 0.29437 0.0
C1436 C 0.81234 0.90964 0.96256 0.0
C1437 C 0.8374 0.89641 0.95368 0.0
C1438 C 0.7975 0.9035 0.98211 0.0
C1439 C 0.80471 0.87108 0.03104 0.0
H1440 H 0.70834 0.85858 0.02301 0.0
C1441 C 0.72553 0.85115 0.10625 0.0
C1442 C 0.69125 0.85642 0.10538 0.0
C1443 C 0.74419 0.84966 0.08708 0.0
C1444 C 0.73471 0.86291 0.02636 0.0
H1445 H 0.86903 0.86778 0.95918 0.0
H1446 H 0.8429 0.85708 0.99327 0.0
H1447 H 0.74176 0.87229 0.99396 0.0
H1448 H 0.64882 0.8546 0.0827 0.0
H1449 H 0.67916 0.85577 0.05087 0.0
H1450 H 0.79993 0.85984 0.06325 0.0
C1451 C 0.83446 0.87195 0.98499 0.0
C1452 C 0.75355 0.87167 0.00928 0.0
C1453 C 0.8491 0.87795 0.96539 0.0
C1454 C 0.67536 0.85564 0.0848 0.0
C1455 C 0.69363 0.85509 0.06582 0.0
C1456 C 0.78589 0.86275 0.04845 0.0
C1457 C 0.80782 0.88422 0.99315 0.0
C1458 C 0.78836 0.87658 0.01163 0.0
C1459 C 0.72916 0.85396 0.06656 0.0
C1460 C 0.75013 0.85923 0.04682 0.0
H1461 H 0.8038 0.92446 0.95425 0.0
H1462 H 0.77764 0.91355 0.98847 0.0
H1463 H 0.83202 0.87371 0.03295 0.0
H1464 H 0.73825 0.84895 0.12175 0.0
H1465 H 0.77066 0.84598 0.08884 0.0
C1466 C 0.80678 0.03368 0.64488 0.0
C1467 C 0.82873 0.03338 0.62739 0.0
C1468 C 0.8067 0.01615 0.66012 0.0
C1469 C 0.85553 0.96236 0.67488 0.0
H1470 H 0.79625 0.96388 0.72364 0.0
C1471 C 0.87143 0.89646 0.74267 0.0
C1472 C 0.85044 0.89633 0.76058 0.0
C1473 C 0.86698 0.91198 0.72605 0.0
C1474 C 0.81324 0.96257 0.71029 0.0
H1475 H 0.8669 0.01417 0.61157 0.0
H1476 H 0.86676 0.98371 0.63698 0.0
H1477 H 0.79069 0.99085 0.69629 0.0
H1478 H 0.807 0.9114 0.77484 0.0
H1479 H 0.79939 0.93859 0.7469 0.0
H1480 H 0.87783 0.93408 0.68849 0.0
C1481 C 0.85004 -0.00224 0.64019 0.0
C1482 C 0.81004 0.97876 0.69405 0.0
C1483 C 0.84975 0.01501 0.62504 0.0
C1484 C 0.82427 0.91162 0.7614 0.0
C1485 C 0.81997 0.92739 0.74497 0.0
C1486 C 0.85849 0.94611 0.69094 0.0
C1487 C 0.82914 -0.00199 0.65853 0.0
C1488 C 0.83117 0.97919 0.67586 0.0
C1489 C 0.84146 0.92821 0.72685 0.0
C1490 C 0.83755 0.9457 0.7092 0.0
H1491 H 0.78972 0.04742 0.64679 0.0
H1492 H 0.78923 0.01752 0.67321 0.0
H1493 H 0.87326 0.96128 0.66193 0.0
H1494 H 0.89088 0.88415 0.74123 0.0
H1495 H 0.88415 0.91078 0.71282 0.0
C1496 C 0.80358 0.10812 0.51848 0.0
C1497 C 0.79237 0.08779 0.52806 0.0
C1498 C 0.78878 0.11537 0.49924 0.0
C1499 C 0.71565 0.09781 0.46132 0.0
H1500 H 0.73956 0.1532 0.43156 0.0
C1501 C 0.66249 0.10528 0.37787 0.0
C1502 C 0.65289 0.12601 0.37022 0.0
C1503 C 0.68113 0.1044 0.39711 0.0
C1504 C 0.73275 0.13761 0.43979 0.0
H1505 H 0.76064 0.05732 0.52391 0.0
H1506 H 0.73708 0.06793 0.49012 0.0
H1507 H 0.77084 0.14369 0.46482 0.0
H1508 H 0.65407 0.1623 0.37605 0.0
H1509 H 0.68601 0.16081 0.41059 0.0
H1510 H 0.68048 0.09085 0.43687 0.0
C1511 C 0.75414 0.08047 0.49776 0.0
C1512 C 0.75083 0.13193 0.45895 0.0
C1513 C 0.76806 0.07373 0.51742 0.0
C1514 C 0.66151 0.14603 0.38203 0.0
C1515 C 0.68001 0.14524 0.40157 0.0
C1516 C 0.69904 0.10309 0.44263 0.0
C1517 C 0.76247 0.10223 0.48888 0.0
C1518 C 0.74327 0.111 0.46953 0.0
C1519 C 0.69004 0.12433 0.40942 0.0
C1520 C 0.7075 0.12227 0.43091 0.0
H1521 H 0.82384 0.11866 0.52609 0.0
H1522 H 0.79796 0.13142 0.49296 0.0
H1523 H 0.70671 0.08223 0.46823 0.0
H1524 H 0.65744 0.09003 0.36826 0.0
H1525 H 0.68931 0.08793 0.40198 0.0
C1526 C 0.65416 0.94593 0.15755 0.0
C1527 C 0.63399 0.94737 0.1384 0.0
C1528 C 0.65013 0.96118 0.17544 0.0
C1529 C 0.59608 0.01295 0.19161 0.0
H1530 H 0.64834 0.01118 0.24492 0.0
C1531 C 0.56982 0.07899 0.25938 0.0
C1532 C 0.59212 0.08192 0.27721 0.0
C1533 C 0.57453 0.06177 0.24388 0.0
C1534 C 0.63345 0.0125 0.23016 0.0
H1535 H 0.59512 0.96688 0.12335 0.0
H1536 H 0.58864 0.99228 0.15222 0.0
H1537 H 0.65794 0.98348 0.21644 0.0
H1538 H 0.63591 0.06867 0.29342 0.0
H1539 H 0.64406 0.03882 0.26731 0.0
H1540 H 0.57179 0.04105 0.20441 0.0
C1541 C 0.60717 0.9798 0.15504 0.0
C1542 C 0.63929 -0.00351 0.21342 0.0
C1543 C 0.61095 0.96476 0.13769 0.0
C1544 C 0.61828 0.06676 0.27972 0.0
C1545 C 0.62298 0.04949 0.26439 0.0
C1546 C 0.59056 0.02886 0.20803 0.0
C1547 C 0.62615 0.9786 0.17468 0.0
C1548 C 0.6208 -0.0037 0.19347 0.0
C1549 C 0.60193 0.04686 0.24558 0.0
C1550 C 0.60874 0.02919 0.2279 0.0
H1551 H 0.67221 0.93271 0.15898 0.0
H1552 H 0.66573 0.95896 0.18978 0.0
H1553 H 0.58012 0.01447 0.17743 0.0
H1554 H 0.5497 0.09066 0.25684 0.0
H1555 H 0.55639 0.06073 0.23056 0.0
C1556 C 0.69336 0.91594 0.00945 0.0
C1557 C 0.67188 0.89915 0.01878 0.0
C1558 C 0.7043 0.91257 0.98799 0.0
C1559 C 0.71763 0.86353 0.94896 0.0
H1560 H 0.76324 0.91077 0.91663 0.0
C1561 C 0.78329 0.84182 0.86799 0.0
C1562 C 0.80413 0.85843 0.85822 0.0
C1563 C 0.76761 0.84652 0.88762 0.0
C1564 C 0.75145 0.89687 0.92522 0.0
H1565 H 0.64045 0.86896 0.01097 0.0
H1566 H 0.66029 0.86324 0.9746 0.0
H1567 H 0.73045 0.92078 0.94669 0.0
H1568 H 0.82229 0.89326 0.8595 0.0
H1569 H 0.79836 0.90127 0.89385 0.0
H1570 H 0.73921 0.83954 0.92777 0.0
C1571 C 0.67012 0.87785 0.9839 0.0
C1572 C 0.73187 0.90292 0.9429 0.0
C1573 C 0.65849 0.88162 0.00492 0.0
C1574 C 0.80757 0.87996 0.86745 0.0
C1575 C 0.79316 0.88449 0.88735 0.0
C1576 C 0.73733 0.85742 0.93122 0.0
C1577 C 0.69486 0.89298 0.97526 0.0
C1578 C 0.71413 0.88651 0.95511 0.0
C1579 C 0.77249 0.86804 0.89798 0.0
C1580 C 0.75416 0.87403 0.91855 0.0
H1581 H 0.70244 0.9306 0.01899 0.0
H1582 H 0.72191 0.92545 0.98201 0.0
H1583 H 0.70598 0.84996 0.95821 0.0
H1584 H 0.77935 0.82513 0.86057 0.0
H1585 H 0.75124 0.83327 0.89417 0.0
C1586 C 0.89967 0.83782 0.88382 0.0
C1587 C 0.90865 0.85712 0.87213 0.0
C1588 C 0.91563 0.81782 0.87952 0.0
C1589 C -0.00662 0.8028 0.8528 0.0
H1590 H 0.97367 0.7434 0.87568 0.0
C1591 C 0.06787 0.72428 0.83132 0.0
C1592 C 0.0705 0.70681 0.84639 0.0
C1593 C 0.05017 0.74376 0.8362 0.0
C1594 C 0.98044 0.76003 0.86948 0.0
H1595 H 0.93507 0.87089 0.84465 0.0
H1596 H 0.95892 0.83518 0.83478 0.0
H1597 H 0.93226 0.77266 0.87752 0.0
H1598 H 0.06709 0.70051 0.88093 0.0
H1599 H 0.02931 0.73176 0.8881 0.0
H1600 H 0.04075 0.78989 0.84388 0.0
C1601 C 0.94324 0.83564 0.84893 0.0
C1602 C 0.95662 0.77694 0.87054 0.0
C1603 C 0.92906 0.85595 0.85412 0.0
C1604 C 0.06116 0.71185 0.8679 0.0
C1605 C 0.04013 0.73005 0.8722 0.0
C1606 C 0.01656 0.78586 0.85127 0.0
C1607 C 0.9396 0.81699 0.86291 0.0
C1608 C 0.96399 0.79852 0.86186 0.0
C1609 C 0.03342 0.74584 0.85603 0.0
C1610 C 0.00912 0.76421 0.8594 0.0
H1611 H 0.88324 0.83881 0.89764 0.0
H1612 H 0.91123 0.80392 0.89047 0.0
H1613 H 0.0014 0.81934 0.847 0.0
H1614 H 0.0771 0.72201 0.81507 0.0
H1615 H 0.04696 0.75607 0.82357 0.0
C1616 C 0.4203 0.66014 0.09039 0.0
C1617 C 0.39005 0.6541 0.07911 0.0
C1618 C 0.43415 0.68256 0.08993 0.0
C1619 C 0.43857 0.74243 0.0764 0.0
H1620 H 0.43566 0.75683 0.13769 0.0
C1621 C 0.50491 0.82861 0.11446 0.0
C1622 C 0.52382 0.82578 0.134 0.0
C1623 C 0.48204 0.8109 0.10578 0.0
C1624 C 0.43678 0.75356 0.12044 0.0
H1625 H 0.35428 0.66703 0.05565 0.0
H1626 H 0.37269 0.70746 0.06122 0.0
H1627 H 0.40716 0.7221 0.1232 0.0
H1628 H 0.52789 0.80315 0.16101 0.0
H1629 H 0.48833 0.77375 0.14697 0.0
H1630 H 0.46471 0.77527 0.07318 0.0
C1631 C 0.38679 0.69454 0.06922 0.0
C1632 C 0.42022 0.73321 0.11201 0.0
C1633 C 0.37588 0.67125 0.06629 0.0
C1634 C 0.51513 0.80606 0.14566 0.0
C1635 C 0.49187 0.78887 0.13743 0.0
C1636 C 0.45287 0.76375 0.08454 0.0
C1637 C 0.41496 0.70097 0.08288 0.0
C1638 C 0.42393 0.72591 0.0902 0.0
C1639 C 0.47584 0.79007 0.11677 0.0
C1640 C 0.45449 0.76927 0.10705 0.0
H1641 H 0.43426 0.6473 0.09867 0.0
H1642 H 0.46023 0.68492 0.09493 0.0
H1643 H 0.44032 0.73853 0.05929 0.0
H1644 H 0.50944 0.84379 0.1051 0.0
H1645 H 0.46993 0.81337 0.09015 0.0
C1646 C 0.08107 0.31767 0.574 0.0
C1647 C 0.08913 0.33535 0.58893 0.0
C1648 C 0.07467 0.29513 0.58163 0.0
C1649 C 0.05737 0.2662 0.6371 0.0
H1650 H 0.01795 0.22006 0.59821 0.0
C1651 C 0.96571 0.19573 0.66652 0.0
C1652 C 0.95979 0.17579 0.65413 0.0
C1653 C 0.98834 0.21294 0.65981 0.0
C1654 C 0.02953 0.23233 0.60959 0.0
H1655 H 0.10162 0.34107 0.6207 0.0
H1656 H 0.09474 0.30519 0.63481 0.0
H1657 H 0.05003 0.2511 0.58367 0.0
H1658 H 0.97564 0.15719 0.6259 0.0
H1659 H 0.01408 0.18663 0.61463 0.0
H1660 H 0.03717 0.24659 0.66309 0.0
C1661 C 0.08932 0.30734 0.6178 0.0
C1662 C 0.04787 0.25079 0.60104 0.0
C1663 C 0.09444 0.32877 0.6099 0.0
C1664 C 0.97981 0.17231 0.63592 0.0
C1665 C -1e-05 0.18962 0.62916 0.0
C1666 C 0.03955 0.24739 0.64569 0.0
C1667 C 0.07618 0.29009 0.6043 0.0
C1668 C 0.06148 0.26854 0.61431 0.0
C1669 C 0.00377 0.21057 0.6406 0.0
C1670 C 0.02491 0.23019 0.63199 0.0
H1671 H 0.07931 0.3211 0.55686 0.0
H1672 H 0.06757 0.28224 0.56964 0.0
H1673 H 0.0664 0.27896 0.64875 0.0
H1674 H 0.95091 0.19879 0.68078 0.0
H1675 H -0.01296 0.2286 0.66914 0.0
C1676 C 0.03768 0.64386 0.87697 0.0
C1677 C 0.02537 0.62142 0.87553 0.0
C1678 C 0.01942 0.66093 0.86735 0.0
C1679 C 0.93874 0.67785 0.84669 0.0
H1680 H -0.01298 0.72318 0.81469 0.0
C1681 C 0.87632 0.76157 0.81887 0.0
C1682 C 0.89788 0.78119 0.81697 0.0
C1683 C 0.88966 0.74 0.82144 0.0
C1684 C 0.97462 0.7115 0.82423 0.0
H1685 H 0.98836 0.59886 0.86158 0.0
H1686 H 0.95807 0.62931 0.84314 0.0
H1687 H 0.01411 0.6932 0.83075 0.0
H1688 H 0.9502 0.79308 0.81481 0.0
H1689 H 0.97359 0.7567 0.82043 0.0
H1690 H 0.89553 0.69829 0.84222 0.0
C1691 C 0.98087 0.63367 0.85267 0.0
C1692 C -0.01181 0.69337 0.83332 0.0
C1693 C -0.00465 0.61626 0.86328 0.0
C1694 C 0.9329 0.7785 0.81678 0.0
C1695 C 0.94627 0.75713 0.81972 0.0
C1696 C 0.92221 0.69709 0.83888 0.0
C1697 C -0.00998 0.65652 0.85459 0.0
C1698 C 0.97395 0.67598 0.84468 0.0
C1699 C 0.92509 0.73734 0.82258 0.0
C1700 C 0.94025 0.71479 0.82802 0.0
H1701 H 0.06062 0.64839 0.88639 0.0
H1702 H 0.02623 0.67791 0.87127 0.0
H1703 H 0.92412 0.66496 0.85521 0.0
H1704 H 0.84896 0.76285 0.81825 0.0
H1705 H 0.87198 0.72554 0.82266 0.0
C1706 C 0.39141 0.27368 0.33502 0.0
C1707 C 0.40583 0.28678 0.31863 0.0
C1708 C 0.40157 0.25195 0.33889 0.0
C1709 C 0.46411 0.20743 0.32127 0.0
H1710 H 0.42836 0.1809 0.37343 0.0
C1711 C 0.53604 0.13818 0.36253 0.0
C1712 C 0.53573 0.13758 0.38518 0.0
C1713 C 0.51096 0.14871 0.35076 0.0
C1714 C 0.43976 0.18804 0.35915 0.0
H1715 H 0.44118 0.28661 0.2923 0.0
H1716 H 0.4613 0.2489 0.29991 0.0
H1717 H 0.41034 0.21581 0.36294 0.0
H1718 H 0.50759 0.14674 0.41332 0.0
H1719 H 0.46733 0.16848 0.3936 0.0
H1720 H 0.49694 0.17978 0.31979 0.0
C1721 C 0.44159 0.25522 0.30993 0.0
C1722 C 0.42821 0.20856 0.35228 0.0
C1723 C 0.43046 0.27717 0.30564 0.0
C1724 C 0.50979 0.14809 0.39591 0.0
C1725 C 0.48571 0.15987 0.38419 0.0
C1726 C 0.47721 0.18719 0.32901 0.0
C1727 C 0.42769 0.2422 0.32705 0.0
C1728 C 0.44016 0.21917 0.33334 0.0
C1729 C 0.48678 0.16119 0.36126 0.0
C1730 C 0.46662 0.178 0.34899 0.0
H1731 H 0.37172 0.28018 0.34507 0.0
H1732 H 0.38783 0.24338 0.35143 0.0
H1733 H 0.47392 0.214 0.3063 0.0
H1734 H 0.55341 0.12853 0.35363 0.0
H1735 H 0.51052 0.14689 0.33335 0.0
C1736 C 0.88394 0.16859 0.56689 0.0
C1737 C 0.88747 0.15278 0.58384 0.0
C1738 C 0.89605 0.1918 0.56947 0.0
C1739 C 0.93216 0.23223 0.61517 0.0
H1740 H 0.9595 0.27368 0.57023 0.0
C1741 C 0.00622 0.3122 0.64378 0.0
C1742 C 0.01811 0.3301 0.63106 0.0
C1743 C -0.01228 0.29337 0.63516 0.0
C1744 C 0.95234 0.26237 0.58317 0.0
H1745 H 0.90583 0.14971 0.6163 0.0
H1746 H 0.92345 0.18843 0.62144 0.0
H1747 H 0.93098 0.23651 0.56062 0.0
H1748 H 0.01576 0.3426 0.59812 0.0
H1749 H 0.98307 0.30992 0.58296 0.0
H1750 H 0.94988 0.25652 0.63773 0.0
C1751 C 0.91329 0.18387 0.60584 0.0
C1752 C 0.93563 0.24074 0.57756 0.0
C1753 C 0.90259 0.16107 0.60306 0.0
C1754 C 0.00732 0.32923 0.60885 0.0
C1755 C -0.01279 0.31006 0.60002 0.0
C1756 C 0.94836 0.25311 0.62061 0.0
C1757 C 0.91146 0.20007 0.58926 0.0
C1758 C 0.92617 0.22465 0.59364 0.0
C1759 C 0.98016 0.29112 0.61307 0.0
C1760 C 0.96023 0.26889 0.60514 0.0
H1761 H 0.87197 0.16306 0.55165 0.0
H1762 H 0.89298 0.20318 0.55606 0.0
H1763 H 0.92335 0.22252 0.62877 0.0
H1764 H 0.01349 0.31175 0.6608 0.0
H1765 H 0.9864 0.28013 0.64667 0.0
C1766 C 0.48943 0.68441 0.1691 0.0
C1767 C 0.45861 0.67901 0.15758 0.0
C1768 C 0.51389 0.70042 0.16058 0.0
C1769 C 0.52665 0.73395 0.10742 0.0
H1770 H 0.57839 0.77671 0.14397 0.0
C1771 C 0.55925 0.82633 0.07824 0.0
C1772 C 0.58274 0.83977 0.09074 0.0
C1773 C 0.5524 0.80319 0.08365 0.0
C1774 C 0.56443 0.76494 0.13316 0.0
H1775 H 0.42849 0.68713 0.13024 0.0
H1776 H 0.47156 0.71266 0.11522 0.0
H1777 H 0.55416 0.74245 0.15961 0.0
H1778 H 0.62149 0.83719 0.11404 0.0
H1779 H 0.61092 0.79934 0.12463 0.0
H1780 H 0.53462 0.75681 0.08136 0.0
C1781 C 0.47729 0.7047 0.1299 0.0
C1782 C 0.55042 0.74497 0.14241 0.0
C1783 C 0.45293 0.68979 0.13835 0.0
C1784 C 0.60178 0.8284 0.10603 0.0
C1785 C 0.59527 0.80609 0.11187 0.0
C1786 C 0.53937 0.75417 0.09843 0.0
C1787 C 0.50793 0.71076 0.14029 0.0
C1788 C 0.52987 0.72947 0.12996 0.0
C1789 C 0.56883 0.79321 0.10179 0.0
C1790 C 0.55786 0.77043 0.11111 0.0
H1791 H 0.4942 0.67685 0.18468 0.0
H1792 H 0.53697 0.70467 0.16986 0.0
H1793 H 0.51358 0.72203 0.09633 0.0
H1794 H 0.5451 0.83378 0.06513 0.0
H1795 H 0.53254 0.79388 0.0745 0.0
C1796 C 0.55802 0.38866 0.76198 0.0
C1797 C 0.57545 0.38794 0.78206 0.0
C1798 C 0.56711 0.40507 0.74644 0.0
C1799 C 0.63009 0.45646 0.73874 0.0
H1800 H 0.58429 0.45854 0.68299 0.0
C1801 C 0.67435 0.52699 0.6793 0.0
C1802 C 0.65794 0.53004 0.65939 0.0
C1803 C 0.66343 0.5096 0.69325 0.0
C1804 C 0.59775 0.45861 0.6984 0.0
H1805 H 0.61673 0.40365 0.80125 0.0
H1806 H 0.63242 0.4316 0.77549 0.0
H1807 H 0.56765 0.42959 0.70802 0.0
H1808 H 0.61724 0.51649 0.63812 0.0
H1809 H 0.59868 0.48604 0.66171 0.0
H1810 H 0.65967 0.48514 0.72994 0.0
C1811 C 0.61137 0.42024 0.77077 0.0
C1812 C 0.58793 0.44146 0.71321 0.0
C1813 C 0.60238 0.40383 0.78608 0.0
C1814 C 0.63048 0.51477 0.65354 0.0
C1815 C 0.61977 0.49704 0.66734 0.0
C1816 C 0.63973 0.4734 0.72415 0.0
C1817 C 0.594 0.42155 0.75042 0.0
C1818 C 0.60399 0.43985 0.73391 0.0
C1819 C 0.63576 0.49401 0.68784 0.0
C1820 C 0.62419 0.47515 0.70346 0.0
H1821 H 0.53751 0.37632 0.7581 0.0
H1822 H 0.55263 0.40454 0.7314 0.0
H1823 H 0.64383 0.45713 0.75399 0.0
H1824 H 0.69532 0.53847 0.68443 0.0
H1825 H 0.67758 0.50891 0.70829 0.0
C1826 C 0.72342 0.36845 0.05814 0.0
C1827 C 0.7406 0.38986 0.05928 0.0
C1828 C 0.70439 0.36101 0.03939 0.0
C1829 C 0.68341 0.37721 0.98074 0.0
H1830 H 0.62965 0.32047 0.97946 0.0
C1831 C 0.61295 0.3587 0.88407 0.0
C1832 C 0.57369 0.348 0.8882 0.0
C1833 C 0.65307 0.35272 0.91674 0.0
C1834 C 0.6449 0.33619 0.97931 0.0
H1835 H 0.75217 0.41985 0.04075 0.0
H1836 H 0.71826 0.40813 0.00909 0.0
H1837 H 0.65629 0.33577 0.01319 0.0
H1838 H 0.53753 0.32965 0.91382 0.0
H1839 H 0.5792 0.32459 0.94869 0.0
H1840 H 0.66987 0.37997 0.94766 0.0
C1841 C 0.71891 0.39634 0.02225 0.0
C1842 C 0.66061 0.34564 -0.00116 0.0
C1843 C 0.73842 0.40353 0.04087 0.0
C1844 C 0.56377 0.33559 0.91226 0.0
C1845 C 0.59112 0.33139 0.93441 0.0
C1846 C 0.66771 0.36892 0.96134 0.0
C1847 C 0.70136 0.37467 0.02077 0.0
C1848 C 0.68144 0.36612 -2e-05 0.0
C1849 C 0.63317 0.34003 0.9375 0.0
C1850 C 0.64902 0.34779 0.95966 0.0
H1851 H 0.7254 0.35706 0.07167 0.0
H1852 H 0.69272 0.34412 0.03964 0.0
H1853 H 0.69699 0.39342 0.97994 0.0
H1854 H 0.61752 0.36581 0.86799 0.0
H1855 H 0.68009 0.35748 0.91937 0.0
C1856 C 0.90134 0.58663 0.28418 0.0
C1857 C 0.9116 0.60795 0.27644 0.0
C1858 C 0.8912 0.56907 0.26975 0.0
C1859 C 0.87944 0.55685 0.20846 0.0
H1860 H 0.85975 0.49707 0.2304 0.0
C1861 C 0.84051 0.48275 0.14774 0.0
C1862 C 0.83057 0.46128 0.15575 0.0
C1863 C 0.85185 0.50057 0.16194 0.0
C1864 C 0.86515 0.51335 0.22329 0.0
H1865 H 0.91649 0.62871 0.24819 0.0
H1866 H 0.89909 0.59916 0.22301 0.0
H1867 H 0.87371 0.52656 0.25487 0.0
H1868 H 0.82933 0.4409 0.18435 0.0
H1869 H 0.84868 0.47058 0.2088 0.0
H1870 H 0.87113 0.54343 0.17681 0.0
C1871 C 0.89971 0.59459 0.23981 0.0
C1872 C 0.87329 0.53107 0.23802 0.0
C1873 C 0.91036 0.61192 0.2543 0.0
C1874 C 0.83473 0.45763 0.17789 0.0
C1875 C 0.84629 0.47517 0.19205 0.0
C1876 C 0.87145 0.53908 0.1937 0.0
C1877 C 0.89044 0.57249 0.24703 0.0
C1878 C 0.88072 0.55337 0.23107 0.0
C1879 C 0.8542 0.4974 0.1847 0.0
C1880 C 0.86402 0.51674 0.20064 0.0
H1881 H 0.90082 0.58361 0.30145 0.0
H1882 H 0.88374 0.55315 0.27694 0.0
H1883 H 0.8845 0.57321 0.20144 0.0
H1884 H 0.83956 0.48573 0.13046 0.0
H1885 H 0.85855 0.5166 0.15465 0.0
C1886 C 0.84589 0.65927 0.40998 0.0
C1887 C 0.86851 0.64333 0.39853 0.0
C1888 C 0.82954 0.6559 0.42947 0.0
C1889 C 0.82559 0.61357 0.47462 0.0
H1890 H 0.76351 0.65549 0.49852 0.0
C1891 C 0.77024 0.59252 0.55715 0.0
C1892 C 0.74621 0.60565 0.56672 0.0
C1893 C 0.78378 0.59849 0.53729 0.0
C1894 C 0.78101 0.64348 0.49251 0.0
H1895 H 0.90423 0.62056 0.41775 0.0
H1896 H 0.87672 0.61428 0.44746 0.0
H1897 H 0.78908 0.66362 0.46469 0.0
H1898 H 0.71676 0.6356 0.5628 0.0
H1899 H 0.74085 0.64664 0.52865 0.0
H1900 H 0.81967 0.59386 0.5017 0.0
C1901 C 0.86481 0.62581 0.43653 0.0
C1902 C 0.79594 0.64819 0.4725 0.0
C1903 C 0.88084 0.62949 0.41701 0.0
C1904 C 0.73623 0.62538 0.55604 0.0
C1905 C 0.75003 0.6316 0.53608 0.0
C1906 C 0.81208 0.6094 0.49466 0.0
C1907 C 0.83697 0.63792 0.44252 0.0
C1908 C 0.81916 0.63337 0.46336 0.0
C1909 C 0.77419 0.61815 0.52606 0.0
C1910 C 0.78919 0.62396 0.50429 0.0
H1911 H 0.8401 0.67612 0.40469 0.0
H1912 H 0.81185 0.66836 0.4343 0.0
H1913 H 0.84087 0.60045 0.46821 0.0
H1914 H 0.77739 0.57682 0.56451 0.0
H1915 H 0.8015 0.5868 0.53125 0.0
C1916 C 0.63962 0.48818 0.85843 0.0
C1917 C 0.67337 0.48197 0.86039 0.0
C1918 C 0.62796 0.49817 0.83974 0.0
C1919 C 0.65949 0.52055 0.78548 0.0
H1920 H 0.56876 0.54247 0.78465 0.0
C1921 C 0.61262 0.56991 0.71043 0.0
C1922 C 0.57867 0.57628 0.70857 0.0
C1923 C 0.62491 0.55956 0.7292 0.0
C1924 C 0.59435 0.53686 0.78404 0.0
H1925 H 0.72082 0.47911 0.84408 0.0
H1926 H 0.70179 0.49703 0.81161 0.0
H1927 H 0.58659 0.52164 0.81408 0.0
H1928 H 0.53238 0.57912 0.72635 0.0
H1929 H 0.55263 0.56144 0.75852 0.0
H1930 H 0.66714 0.53602 0.75536 0.0
C1931 C 0.68361 0.4952 0.82431 0.0
C1932 C 0.60502 0.52419 0.80164 0.0
C1933 C 0.69518 0.48503 0.84318 0.0
C1934 C 0.55816 0.57344 0.72671 0.0
C1935 C 0.57033 0.5631 0.74553 0.0
C1936 C 0.64882 0.53329 0.76787 0.0
C1937 C 0.64988 0.50268 0.82234 0.0
C1938 C 0.63792 0.51565 0.80289 0.0
C1939 C 0.60374 0.55511 0.74707 0.0
C1940 C 0.61589 0.54186 0.76658 0.0
H1941 H 0.62187 0.4851 0.87138 0.0
H1942 H 0.60159 0.50216 0.8396 0.0
H1943 H 0.68502 0.51482 0.78487 0.0
H1944 H 0.62987 0.57278 0.6972 0.0
H1945 H 0.65107 0.55501 0.72904 0.0
C1946 C 0.87244 0.36234 0.09447 0.0
C1947 C 0.89474 0.3786 0.10537 0.0
C1948 C 0.87021 0.35836 0.07288 0.0
C1949 C 0.84861 0.40191 0.03564 0.0
H1950 H 0.78616 0.3555 0.01122 0.0
C1951 C 0.77064 0.42585 0.96473 0.0
C1952 C 0.75518 0.41002 0.95067 0.0
C1953 C 0.78421 0.41913 0.98405 0.0
C1954 C 0.80368 0.36871 0.01758 0.0
H1955 H 0.93004 0.40616 0.09731 0.0
H1956 H 0.9114 0.40683 0.05879 0.0
H1957 H 0.82644 0.34579 0.03885 0.0
H1958 H 0.74215 0.37441 0.94458 0.0
H1959 H 0.77152 0.36172 0.97743 0.0
H1960 H 0.82875 0.42462 0.01477 0.0
C1961 C 0.90139 0.39329 0.06875 0.0
C1962 C 0.82726 0.36324 0.03387 0.0
C1963 C 0.91169 0.39337 0.09109 0.0
C1964 C 0.75509 0.3868 0.95534 0.0
C1965 C 0.77118 0.3797 0.97442 0.0
C1966 C 0.82587 0.40733 0.01973 0.0
C1967 C 0.87724 0.37635 0.06012 0.0
C1968 C 0.85171 0.37997 0.04229 0.0
C1969 C 0.78581 0.39599 0.98931 0.0
C1970 C 0.80425 0.39083 0.0093 0.0
H1971 H 0.85295 0.35217 0.10026 0.0
H1972 H 0.85481 0.3437 0.06731 0.0
H1973 H 0.86551 0.41517 0.0418 0.0
H1974 H 0.76956 0.44388 0.96172 0.0
H1975 H 0.79141 0.43402 -0.00534 0.0
C1976 C 0.85666 0.5223 0.33978 0.0
C1977 C 0.82738 0.51864 0.35186 0.0
C1978 C 0.86509 0.50667 0.32435 0.0
C1979 C 0.8316 0.45094 0.29864 0.0
H1980 H 0.91099 0.46412 0.26505 0.0
C1981 C 0.86455 0.3891 0.23085 0.0
C1982 C 0.89422 0.39354 0.21934 0.0
C1983 C 0.85596 0.40383 0.24726 0.0
C1984 C 0.88873 0.45932 0.27394 0.0
H1985 H 0.78417 0.49618 0.35818 0.0
H1986 H 0.79753 0.46897 0.33142 0.0
H1987 H 0.89894 0.48859 0.29216 0.0
H1988 H 0.93837 0.41565 0.21513 0.0
H1989 H 0.92485 0.44115 0.24282 0.0
H1990 H 0.82178 0.42139 0.28022 0.0
C1991 C 0.81473 0.48359 0.33293 0.0
C1992 C 0.88134 0.47421 0.2903 0.0
C1993 C 0.80642 0.49938 0.34845 0.0
C1994 C 0.91562 0.4121 0.22432 0.0
C1995 C 0.90703 0.427 0.24039 0.0
C1996 C 0.83917 0.43588 0.2823 0.0
C1997 C 0.84415 0.48695 0.32035 0.0
C1998 C 0.85256 0.47046 0.30307 0.0
C1999 C 0.87695 0.42336 0.25226 0.0
C2000 C 0.86807 0.43966 0.2696 0.0
H2001 H 0.87351 0.53717 0.34245 0.0
H2002 H 0.88823 0.51079 0.31607 0.0
H2003 H 0.80898 0.44658 0.3074 0.0
H2004 H 0.84778 0.37448 0.22689 0.0
H2005 H 0.83262 0.39955 0.25531 0.0
C2006 C 0.76141 0.57353 0.47019 0.0
C2007 C 0.75537 0.58265 0.44976 0.0
C2008 C 0.74024 0.57823 0.48745 0.0
C2009 C 0.66245 0.61326 0.50172 0.0
H2010 H 0.67299 0.57967 0.55357 0.0
C2011 C 0.56586 0.62346 0.57516 0.0
C2012 C 0.57033 0.60899 0.59308 0.0
C2013 C 0.58678 0.62186 0.55644 0.0
C2014 C 0.66807 0.58963 0.53966 0.0
H2015 H 0.72343 0.60405 0.43108 0.0
H2016 H 0.68633 0.61228 0.4604 0.0
H2017 H 0.70875 0.57302 0.52578 0.0
H2018 H 0.59862 0.58245 0.6051 0.0
H2019 H 0.63545 0.58202 0.57497 0.0
H2020 H 0.61949 0.62856 0.51579 0.0
C2021 C 0.70711 0.6016 0.46401 0.0
C2022 C 0.69029 0.58563 0.52287 0.0
C2023 C 0.72829 0.59675 0.44679 0.0
C2024 C 0.59384 0.59278 0.5912 0.0
C2025 C 0.61505 0.5923 0.57353 0.0
C2026 C 0.63902 0.61656 0.51844 0.0
C2027 C 0.71224 0.59243 0.48485 0.0
C2028 C 0.68825 0.59725 0.50328 0.0
C2029 C 0.61365 0.60655 0.55583 0.0
C2030 C 0.64053 0.60452 0.53792 0.0
H2031 H 0.78247 0.5626 0.47281 0.0
H2032 H 0.74673 0.57073 0.50271 0.0
H2033 H 0.65959 0.62354 0.48757 0.0
H2034 H 0.54796 0.6368 0.57613 0.0
H2035 H 0.58307 0.63355 0.54338 0.0
C2036 C 0.62417 0.65394 0.60235 0.0
C2037 C 0.64378 0.64537 0.61956 0.0
C2038 C 0.60282 0.6724 0.60548 0.0
C2039 C 0.57995 0.71555 0.65017 0.0
H2040 H 0.51682 0.73576 0.6066 0.0
C2041 C 0.49754 0.79113 0.67148 0.0
C2042 C 0.48032 0.80308 0.65569 0.0
C2043 C 0.51545 0.77193 0.666 0.0
C2044 C 0.53485 0.73088 0.61894 0.0
H2045 H 0.66472 0.65408 0.65053 0.0
H2046 H 0.62941 0.68563 0.65703 0.0
H2047 H 0.55045 0.70321 0.59913 0.0
H2048 H 0.46832 0.80428 0.62137 0.0
H2049 H 0.50137 0.77173 0.61136 0.0
H2050 H 0.56631 0.74312 0.66962 0.0
C2051 C 0.62581 0.67705 0.64165 0.0
C2052 C 0.55441 0.71166 0.61465 0.0
C2053 C 0.64639 0.65845 0.63838 0.0
C2054 C 0.48193 0.79559 0.63396 0.0
C2055 C 0.50072 0.77658 0.62828 0.0
C2056 C 0.56136 0.73478 0.65417 0.0
C2057 C 0.60196 0.68403 0.62571 0.0
C2058 C 0.57837 0.70377 0.63007 0.0
C2059 C 0.51796 0.7641 0.64425 0.0
C2060 C 0.53828 0.7432 0.63883 0.0
H2061 H 0.62442 0.64579 0.58665 0.0
H2062 H 0.58718 0.67726 0.5919 0.0
H2063 H 0.5961 0.71067 0.6634 0.0
H2064 H 0.49584 0.79599 0.6884 0.0
H2065 H 0.52619 0.76297 0.67941 0.0
C2066 C 0.39497 0.57238 0.20835 0.0
C2067 C 0.38549 0.59422 0.21356 0.0
C2068 C 0.39575 0.55583 0.22422 0.0
C2069 C 0.37556 0.54663 0.28415 0.0
H2070 H 0.39948 0.48626 0.26776 0.0
C2071 C 0.36763 0.47653 0.34791 0.0
C2072 C 0.3772 0.45473 0.34294 0.0
C2073 C 0.36983 0.49339 0.33252 0.0
C2074 C 0.39285 0.50284 0.27326 0.0
H2075 H 0.37006 0.61636 0.23946 0.0
H2076 H 0.37111 0.58843 0.26682 0.0
H2077 H 0.40204 0.5146 0.24198 0.0
H2078 H 0.39806 0.43296 0.31872 0.0
H2079 H 0.40104 0.46152 0.29136 0.0
H2080 H 0.36673 0.535 0.31545 0.0
C2081 C 0.37801 0.583 0.25087 0.0
C2082 C 0.39421 0.51981 0.2578 0.0
C2083 C 0.37758 0.59952 0.23499 0.0
C2084 C 0.38959 0.44975 0.32249 0.0
C2085 C 0.39134 0.46654 0.30679 0.0
C2086 C 0.37446 0.52971 0.29964 0.0
C2087 C 0.38663 0.56052 0.24587 0.0
C2088 C 0.38561 0.54222 0.26277 0.0
C2089 C 0.38142 0.4889 0.31141 0.0
C2090 C 0.38304 0.5073 0.29465 0.0
H2091 H 0.40142 0.56796 0.1919 0.0
H2092 H 0.40315 0.53942 0.21878 0.0
H2093 H 0.36825 0.56307 0.28959 0.0
H2094 H 0.35933 0.48076 0.36405 0.0
H2095 H 0.36214 0.50975 0.33786 0.0
C2096 C 0.27637 0.62589 0.11155 0.0
C2097 C 0.30547 0.64026 0.11104 0.0
C2098 C 0.25206 0.62562 0.09464 0.0
C2099 C 0.23602 0.64739 0.03638 0.0
H2100 H 0.16131 0.60326 0.0414 0.0
C2101 C 0.14987 0.62495 0.96144 0.0
C2102 C 0.13189 0.60398 0.96029 0.0
C2103 C 0.16327 0.63363 0.98128 0.0
C2104 C 0.18179 0.61564 0.03901 0.0
H2105 H 0.32882 0.66806 0.09406 0.0
H2106 H 0.29199 0.66374 0.06174 0.0
H2107 H 0.20082 0.60777 0.06968 0.0
H2108 H 0.10978 0.57708 0.97968 0.0
H2109 H 0.13644 0.59096 0.01295 0.0
H2110 H 0.21815 0.65293 0.00406 0.0
C2111 C 0.28648 0.65301 0.07534 0.0
C2112 C 0.20515 0.6188 0.05622 0.0
C2113 C 0.30875 0.65505 0.09357 0.0
C2114 C 0.12552 0.5926 0.97973 0.0
C2115 C 0.14056 0.60153 -0.00091 0.0
C2116 C 0.21301 0.64359 0.01864 0.0
C2117 C 0.25735 0.63799 0.0753 0.0
C2118 C 0.23267 0.63497 0.05581 0.0
C2119 C 0.16194 0.62158 1e-05 0.0
C2120 C 0.18511 0.62757 0.01957 0.0
H2121 H 0.27179 0.61524 0.12544 0.0
H2122 H 0.22971 0.61493 0.09717 0.0
H2123 H 0.25667 0.65978 0.03437 0.0
H2124 H 0.15378 0.63469 0.94691 0.0
H2125 H 0.17571 0.65031 0.98129 0.0
C2126 C 0.06783 0.51975 0.84479 0.0
C2127 C 0.09579 0.53481 0.84863 0.0
C2128 C 0.06702 0.50464 0.82741 0.0
C2129 C 0.12076 0.48559 0.78026 0.0
H2130 H 0.04166 0.44505 0.77173 0.0
C2131 C 0.11305 0.42676 0.70615 0.0
C2132 C 0.08851 0.40925 0.70419 0.0
C2133 C 0.11335 0.44165 0.72354 0.0
C2134 C 0.06449 0.45576 0.77374 0.0
H2135 H 0.14403 0.54726 0.83658 0.0
H2136 H 0.14328 0.52142 0.80601 0.0
H2137 H 0.04372 0.47032 0.80115 0.0
H2138 H 0.04647 0.39155 0.71958 0.0
H2139 H 0.04779 0.41644 0.75112 0.0
H2140 H 0.14272 0.4694 0.75393 0.0
C2141 C 0.12184 0.52009 0.81651 0.0
C2142 C 0.06561 0.47114 0.79103 0.0
C2143 C 0.12266 0.53519 0.83426 0.0
C2144 C 0.06491 0.40574 0.72054 0.0
C2145 C 0.06573 0.42031 0.73858 0.0
C2146 C 0.12005 0.46976 0.76337 0.0
C2147 C 0.09417 0.50407 0.81288 0.0
C2148 C 0.09345 0.48689 0.7945 0.0
C2149 C 0.09 0.43878 0.74035 0.0
C2150 C 0.09154 0.45483 0.75937 0.0
H2151 H 0.04646 0.51929 0.8556 0.0
H2152 H 0.04463 0.49356 0.82608 0.0
H2153 H 0.14351 0.49636 0.78191 0.0
H2154 H 0.13317 0.42821 0.69464 0.0
H2155 H 0.13259 0.45511 0.72344 0.0
C2156 C 0.17636 0.3478 0.58973 0.0
C2157 C 0.18275 0.36319 0.60725 0.0
C2158 C 0.19343 0.35045 0.56994 0.0
C2159 C 0.2626 0.38944 0.54482 0.0
H2160 H 0.25236 0.34689 0.49695 0.0
C2161 C 0.33441 0.40971 0.46742 0.0
C2162 C 0.33447 0.39426 0.45024 0.0
C2163 C 0.31776 0.40408 0.48635 0.0
C2164 C 0.25664 0.35875 0.5103 0.0
H2165 H 0.21386 0.39213 0.61808 0.0
H2166 H 0.24649 0.39497 0.5864 0.0
H2167 H 0.21975 0.34051 0.52905 0.0
H2168 H 0.32039 0.36014 0.43941 0.0
H2169 H 0.29123 0.34979 0.47246 0.0
H2170 H 0.30108 0.40652 0.52795 0.0
C2171 C 0.22655 0.38192 0.58594 0.0
C2172 C 0.23705 0.35522 0.529 0.0
C2173 C 0.20803 0.38015 0.60492 0.0
C2174 C 0.31981 0.37244 0.45258 0.0
C2175 C 0.30283 0.36667 0.47161 0.0
C2176 C 0.28312 0.39224 0.52697 0.0
C2177 C 0.21952 0.36752 0.56763 0.0
C2178 C 0.23967 0.37059 0.54689 0.0
C2179 C 0.30073 0.38258 0.48886 0.0
C2180 C 0.28034 0.37745 0.50893 0.0
H2181 H 0.15751 0.33408 0.59102 0.0
H2182 H 0.18598 0.33897 0.55674 0.0
H2183 H 0.26543 0.40284 0.55677 0.0
H2184 H 0.34673 0.42642 0.46605 0.0
H2185 H 0.31754 0.41748 0.49831 0.0
C2186 C 0.36774 0.41594 0.25938 0.0
C2187 C 0.3471 0.39619 0.25881 0.0
C2188 C 0.36376 0.43244 0.24365 0.0
C2189 C 0.31276 0.44461 0.19105 0.0
H2190 H 0.3722 0.49807 0.19582 0.0
C2191 C 0.30477 0.51607 0.12569 0.0
C2192 C 0.32447 0.53641 0.12886 0.0
C2193 C 0.30695 0.49816 0.14054 0.0
C2194 C 0.35486 0.48362 0.19347 0.0
H2195 H 0.30532 0.37809 0.24169 0.0
H2196 H 0.29834 0.40609 0.21437 0.0
H2197 H 0.3751 0.47129 0.22228 0.0
H2198 H 0.36416 0.5529 0.14874 0.0
H2199 H 0.36907 0.52309 0.17351 0.0
H2200 H 0.29215 0.4579 0.16198 0.0
C2201 C 0.31803 0.40962 0.22649 0.0
C2202 C 0.35675 0.46735 0.20949 0.0
C2203 C 0.3219 0.39326 0.24242 0.0
C2204 C 0.34745 0.53792 0.14638 0.0
C2205 C 0.35028 0.5201 0.1608 0.0
C2206 C 0.31066 0.46118 0.1749 0.0
C2207 C 0.33913 0.42967 0.22649 0.0
C2208 C 0.33596 0.4473 0.20888 0.0
C2209 C 0.32962 0.49983 0.15877 0.0
C2210 C 0.33177 0.48125 0.17567 0.0
H2211 H 0.3869 0.41876 0.27211 0.0
H2212 H 0.38084 0.4471 0.24543 0.0
H2213 H 0.29585 0.42981 0.18909 0.0
H2214 H 0.28754 0.51406 0.11182 0.0
H2215 H 0.29077 0.4832 0.13737 0.0
C2216 C 0.2921 0.6113 0.02032 0.0
C2217 C 0.27719 0.595 0.03384 0.0
C2218 C 0.2792 0.61434 -0.00052 0.0
C2219 C 0.22145 0.58496 0.9576 0.0
H2220 H 0.23289 0.6435 0.93072 0.0
C2221 C 0.15483 0.60127 0.87496 0.0
C2222 C 0.14605 0.62327 0.87062 0.0
C2223 C 0.17495 0.59665 0.89317 0.0
C2224 C 0.22858 0.62706 0.93787 0.0
H2225 H 0.23663 0.56944 0.03682 0.0
H2226 H 0.21193 0.57584 0.00074 0.0
H2227 H 0.25445 0.63865 0.9668 0.0
H2228 H 0.1537 0.65849 0.88008 0.0
H2229 H 0.18834 0.65117 0.91177 0.0
H2230 H 0.19265 0.57389 0.92971 0.0
C2231 C 0.23461 0.58571 0.0058 0.0
C2232 C 0.24198 0.62408 0.95871 0.0
C2233 C 0.24809 0.58238 0.02668 0.0
C2234 C 0.15938 0.64114 0.88372 0.0
C2235 C 0.17991 0.63677 0.90178 0.0
C2236 C 0.20692 0.58816 0.93704 0.0
C2237 C 0.25082 0.6003 0.9919 0.0
C2238 C 0.23793 0.60313 0.96916 0.0
C2239 C 0.1881 0.61435 0.90701 0.0
C2240 C 0.20886 0.6096 0.92714 0.0
H2241 H 0.31503 0.62091 0.0255 0.0
H2242 H 0.29305 0.62519 0.98952 0.0
H2243 H 0.21894 0.56827 0.96457 0.0
H2244 H 0.14724 0.58793 0.86351 0.0
H2245 H 0.18091 0.5792 0.89574 0.0
C2246 C 0.11476 0.46732 0.63436 0.0
C2247 C 0.13465 0.44838 0.63712 0.0
C2248 C 0.11226 0.48414 0.65056 0.0
C2249 C 0.13895 0.50087 0.71012 0.0
H2250 H 0.0696 0.54392 0.69996 0.0
C2251 C 0.10125 0.5645 0.78023 0.0
C2252 C 0.08107 0.58312 0.7759 0.0
C2253 C 0.10816 0.54811 0.7641 0.0
C2254 C 0.0894 0.53245 0.70365 0.0
H2255 H 0.17 0.4336 0.65955 0.0
H2256 H 0.16593 0.4629 0.68804 0.0
H2257 H 0.08262 0.51833 0.67221 0.0
H2258 H 0.05368 0.59922 0.75018 0.0
H2259 H 0.06605 0.57186 0.72214 0.0
H2260 H 0.14524 0.51559 0.742 0.0
C2261 C 0.15118 0.46471 0.67327 0.0
C2262 C 0.09727 0.51701 0.687 0.0
C2263 C 0.15389 0.44769 0.65668 0.0
C2264 C 0.0681 0.58472 0.7546 0.0
C2265 C 0.0757 0.56866 0.73823 0.0
C2266 C 0.13087 0.51639 0.72698 0.0
C2267 C 0.12896 0.48303 0.67107 0.0
C2268 C 0.12208 0.50046 0.68953 0.0
C2269 C 0.09628 0.54984 0.74236 0.0
C2270 C 0.1056 0.5327 0.7243 0.0
H2271 H 0.10045 0.46917 0.61935 0.0
H2272 H 0.09642 0.49789 0.64642 0.0
H2273 H 0.1589 0.48938 0.71345 0.0
H2274 H 0.11277 0.56303 0.79618 0.0
H2275 H 0.1237 0.53438 0.76886 0.0
C2276 C 0.16538 0.3767 0.50935 0.0
C2277 C 0.17769 0.39443 0.52326 0.0
C2278 C 0.17843 0.37381 0.48862 0.0
C2279 C 0.24017 0.40089 0.44859 0.0
H2280 H 0.23018 0.34095 0.42283 0.0
C2281 C 0.30619 0.38301 0.36732 0.0
C2282 C 0.30259 0.36179 0.35738 0.0
C2283 C 0.29027 0.38729 0.38686 0.0
C2284 C 0.23321 0.35805 0.42912 0.0
H2285 H 0.2117 0.42417 0.52538 0.0
H2286 H 0.23597 0.41875 0.48996 0.0
H2287 H 0.20493 0.34811 0.45659 0.0
H2288 H 0.27545 0.32912 0.3579 0.0
H2289 H 0.24567 0.33659 0.39064 0.0
H2290 H 0.26904 0.4109 0.42178 0.0
C2291 C 0.2158 0.40692 0.49461 0.0
C2292 C 0.21809 0.36229 0.44906 0.0
C2293 C 0.20228 0.40996 0.51535 0.0
C2294 C 0.27983 0.34548 0.3659 0.0
C2295 C 0.26298 0.34985 0.38514 0.0
C2296 C 0.25522 0.3967 0.42866 0.0
C2297 C 0.20475 0.38841 0.48093 0.0
C2298 C 0.22097 0.38388 0.45926 0.0
C2299 C 0.26867 0.37069 0.39664 0.0
C2300 C 0.25208 0.37519 0.41823 0.0
H2301 H 0.14571 0.3647 0.51459 0.0
H2302 H 0.16749 0.35994 0.4788 0.0
H2303 H 0.2434 0.41788 0.45525 0.0
H2304 H 0.32196 0.39625 0.36012 0.0
H2305 H 0.29529 0.40392 0.39378 0.0
C2306 C 0.43655 0.35732 0.35749 0.0
C2307 C 0.41041 0.35764 0.37207 0.0
C2308 C 0.45142 0.33725 0.35296 0.0
C2309 C 0.45596 0.27704 0.37378 0.0
H2310 H 0.52816 0.28003 0.33253 0.0
C2311 C 0.54522 0.20164 0.36214 0.0
C2312 C 0.55887 0.19889 0.34151 0.0
C2313 C 0.52719 0.22095 0.36719 0.0
C2314 C 0.50754 0.27796 0.34366 0.0
H2315 H 0.3757 0.33796 0.39184 0.0
H2316 H 0.40005 0.302 0.38295 0.0
H2317 H 0.48951 0.30834 0.33268 0.0
H2318 H 0.56882 0.2152 0.31111 0.0
H2319 H 0.53847 0.24824 0.31921 0.0
H2320 H 0.47093 0.24367 0.3813 0.0
C2321 C 0.41102 0.31714 0.37577 0.0
C2322 C 0.48564 0.29548 0.34467 0.0
C2323 C 0.39642 0.33761 0.38057 0.0
C2324 C 0.5577 0.21671 0.32694 0.0
C2325 C 0.5404 0.23606 0.33199 0.0
C2326 C 0.47633 0.25828 0.37138 0.0
C2327 C 0.44006 0.31676 0.36269 0.0
C2328 C 0.46014 0.296 0.36021 0.0
C2329 C 0.52386 0.23839 0.35199 0.0
C2330 C 0.50267 0.25848 0.35616 0.0
H2331 H 0.44702 0.37289 0.35063 0.0
H2332 H 0.47336 0.33892 0.34295 0.0
H2333 H 0.43707 0.27625 0.38619 0.0
H2334 H 0.54696 0.18835 0.37394 0.0
H2335 H 0.51578 0.22192 0.38293 0.0
loop_
_geom_bond_atom_site_label_1
_geom_bond_atom_site_label_2
_geom_bond_distance
_geom_bond_site_symmetry_2
_ccdc_geom_bond_type
In0 O1 2.294 . S
In0 O2 2.326 . S
In0 O6 2.266 . S
In0 O7 2.326 . S
In0 O8 2.266 . S
In0 O9 2.326 . S
In0 O11 2.294 . S
In0 O12 2.326 . S
O1 In0 2.294 . S
O1 C10 1.240 . S
O2 In0 2.326 . S
O2 C10 1.252 . S
C3 O6 1.252 . S
C3 O7 1.260 . S
C4 O11 1.240 . S
C4 O12 1.252 . S
C5 O8 1.252 . S
C5 O9 1.260 . S
O6 In0 2.266 . S
O6 C3 1.252 . S
O7 In0 2.326 . S
O7 C3 1.260 . S
O8 In0 2.266 . S
O8 C5 1.252 . S
O9 In0 2.326 . S
O9 C5 1.260 . S
C10 O1 1.240 . S
C10 O2 1.252 . S
O11 In0 2.294 . S
O11 C4 1.240 . S
O12 In0 2.326 . S
O12 C4 1.252 . S
In13 O14 2.294 . S
In13 O15 2.326 . S
In13 O19 2.266 . S
In13 O20 2.326 . S
In13 O21 2.266 . S
In13 O22 2.326 . S
In13 O24 2.294 . S
In13 O25 2.326 . S
O14 In13 2.294 . S
O14 C23 1.240 . S
O15 In13 2.326 . S
O15 C23 1.252 . S
C16 O19 1.252 . S
C16 O20 1.260 . S
C17 O24 1.240 . S
C17 O25 1.252 . S
C18 O21 1.252 . S
C18 O22 1.260 . S
O19 In13 2.266 . S
O19 C16 1.252 . S
O20 In13 2.326 . S
O20 C16 1.260 . S
O21 In13 2.266 . S
O21 C18 1.252 . S
O22 In13 2.326 . S
O22 C18 1.260 . S
C23 O14 1.240 . S
C23 O15 1.252 . S
O24 In13 2.294 . S
O24 C17 1.240 . S
O25 In13 2.326 . S
O25 C17 1.252 . S
In26 O27 2.294 . S
In26 O28 2.326 . S
In26 O32 2.266 . S
In26 O33 2.326 . S
In26 O34 2.266 . S
In26 O35 2.326 . S
In26 O37 2.294 . S
In26 O38 2.326 . S
O27 In26 2.294 . S
O27 C36 1.240 . S
O28 In26 2.326 . S
O28 C36 1.252 . S
C29 O32 1.252 . S
C29 O33 1.260 . S
C30 O37 1.240 . S
C30 O38 1.252 . S
C31 O34 1.252 . S
C31 O35 1.260 . S
O32 In26 2.266 . S
O32 C29 1.252 . S
O33 In26 2.326 . S
O33 C29 1.260 . S
O34 In26 2.266 . S
O34 C31 1.252 . S
O35 In26 2.326 . S
O35 C31 1.260 . S
C36 O27 1.240 . S
C36 O28 1.252 . S
O37 In26 2.294 . S
O37 C30 1.240 . S
O38 In26 2.326 . S
O38 C30 1.252 . S
In39 O40 2.294 . S
In39 O41 2.326 . S
In39 O45 2.266 . S
In39 O46 2.326 . S
In39 O47 2.266 . S
In39 O48 2.326 . S
In39 O50 2.294 . S
In39 O51 2.326 . S
O40 In39 2.294 . S
O40 C49 1.240 . S
O41 In39 2.326 . S
O41 C49 1.252 . S
C42 O45 1.252 . S
C42 O46 1.260 . S
C43 O50 1.240 . S
C43 O51 1.252 . S
C44 O47 1.252 . S
C44 O48 1.260 . S
O45 In39 2.266 . S
O45 C42 1.252 . S
O46 In39 2.326 . S
O46 C42 1.260 . S
O47 In39 2.266 . S
O47 C44 1.252 . S
O48 In39 2.326 . S
O48 C44 1.260 . S
C49 O40 1.240 . S
C49 O41 1.252 . S
O50 In39 2.294 . S
O50 C43 1.240 . S
O51 In39 2.326 . S
O51 C43 1.252 . S
In52 O53 2.294 . S
In52 O54 2.326 . S
In52 O58 2.266 . S
In52 O59 2.326 . S
In52 O60 2.266 . S
In52 O61 2.326 . S
In52 O63 2.294 . S
In52 O64 2.326 . S
O53 In52 2.294 . S
O53 C62 1.240 . S
O54 In52 2.326 . S
O54 C62 1.252 . S
C55 O58 1.252 . S
C55 O59 1.260 . S
C56 O63 1.240 . S
C56 O64 1.252 . S
C57 O60 1.252 . S
C57 O61 1.260 . S
O58 In52 2.266 . S
O58 C55 1.252 . S
O59 In52 2.326 . S
O59 C55 1.260 . S
O60 In52 2.266 . S
O60 C57 1.252 . S
O61 In52 2.326 . S
O61 C57 1.260 . S
C62 O53 1.240 . S
C62 O54 1.252 . S
O63 In52 2.294 . S
O63 C56 1.240 . S
O64 In52 2.326 . S
O64 C56 1.252 . S
In65 O66 2.294 . S
In65 O67 2.326 . S
In65 O71 2.266 . S
In65 O72 2.326 . S
In65 O73 2.266 . S
In65 O74 2.326 . S
In65 O76 2.294 . S
In65 O77 2.326 . S
O66 In65 2.294 . S
O66 C75 1.240 . S
O67 In65 2.326 . S
O67 C75 1.252 . S
C68 O71 1.252 . S
C68 O72 1.260 . S
C69 O76 1.240 . S
C69 O77 1.252 . S
C70 O73 1.252 . S
C70 O74 1.260 . S
O71 In65 2.266 . S
O71 C68 1.252 . S
O72 In65 2.326 . S
O72 C68 1.260 . S
O73 In65 2.266 . S
O73 C70 1.252 . S
O74 In65 2.326 . S
O74 C70 1.260 . S
C75 O66 1.240 . S
C75 O67 1.252 . S
O76 In65 2.294 . S
O76 C69 1.240 . S
O77 In65 2.326 . S
O77 C69 1.252 . S
In78 O79 2.294 . S
In78 O80 2.326 . S
In78 O84 2.266 . S
In78 O85 2.326 . S
In78 O86 2.266 . S
In78 O87 2.326 . S
In78 O89 2.294 . S
In78 O90 2.326 . S
O79 In78 2.294 . S
O79 C88 1.240 . S
O80 In78 2.326 . S
O80 C88 1.252 . S
C81 O84 1.252 . S
C81 O85 1.260 . S
C82 O89 1.240 . S
C82 O90 1.252 . S
C83 O86 1.252 . S
C83 O87 1.260 . S
O84 In78 2.266 . S
O84 C81 1.252 . S
O85 In78 2.326 . S
O85 C81 1.260 . S
O86 In78 2.266 . S
O86 C83 1.252 . S
O87 In78 2.326 . S
O87 C83 1.260 . S
C88 O79 1.240 . S
C88 O80 1.252 . S
O89 In78 2.294 . S
O89 C82 1.240 . S
O90 In78 2.326 . S
O90 C82 1.252 . S
In91 O92 2.294 . S
In91 O93 2.326 . S
In91 O97 2.266 . S
In91 O98 2.326 . S
In91 O99 2.266 . S
In91 O100 2.326 . S
In91 O102 2.294 . S
In91 O103 2.326 . S
O92 In91 2.294 . S
O92 C101 1.240 . S
O93 In91 2.326 . S
O93 C101 1.252 . S
C94 O97 1.252 . S
C94 O98 1.260 . S
C95 O102 1.240 . S
C95 O103 1.252 . S
C96 O99 1.252 . S
C96 O100 1.260 . S
O97 In91 2.266 . S
O97 C94 1.252 . S
O98 In91 2.326 . S
O98 C94 1.260 . S
O99 In91 2.266 . S
O99 C96 1.252 . S
O100 In91 2.326 . S
O100 C96 1.260 . S
C101 O92 1.240 . S
C101 O93 1.252 . S
O102 In91 2.294 . S
O102 C95 1.240 . S
O103 In91 2.326 . S
O103 C95 1.252 . S
In104 O105 2.294 . S
In104 O106 2.326 . S
In104 O110 2.266 . S
In104 O111 2.326 . S
In104 O112 2.266 . S
In104 O113 2.326 . S
In104 O115 2.294 . S
In104 O116 2.326 . S
O105 In104 2.294 . S
O105 C114 1.240 . S
O106 In104 2.326 . S
O106 C114 1.252 . S
C107 O110 1.252 . S
C107 O111 1.260 . S
C108 O115 1.240 . S
C108 O116 1.252 . S
C109 O112 1.252 . S
C109 O113 1.260 . S
O110 In104 2.266 . S
O110 C107 1.252 . S
O111 In104 2.326 . S
O111 C107 1.260 . S
O112 In104 2.266 . S
O112 C109 1.252 . S
O113 In104 2.326 . S
O113 C109 1.260 . S
C114 O105 1.240 . S
C114 O106 1.252 . S
O115 In104 2.294 . S
O115 C108 1.240 . S
O116 In104 2.326 . S
O116 C108 1.252 . S
In117 O118 2.294 . S
In117 O119 2.326 . S
In117 O123 2.266 . S
In117 O124 2.326 . S
In117 O125 2.266 . S
In117 O126 2.326 . S
In117 O128 2.294 . S
In117 O129 2.326 . S
O118 In117 2.294 . S
O118 C127 1.240 . S
O119 In117 2.326 . S
O119 C127 1.252 . S
C120 O123 1.252 . S
C120 O124 1.260 . S
C121 O128 1.240 . S
C121 O129 1.252 . S
C122 O125 1.252 . S
C122 O126 1.260 . S
O123 In117 2.266 . S
O123 C120 1.252 . S
O124 In117 2.326 . S
O124 C120 1.260 . S
O125 In117 2.266 . S
O125 C122 1.252 . S
O126 In117 2.326 . S
O126 C122 1.260 . S
C127 O118 1.240 . S
C127 O119 1.252 . S
O128 In117 2.294 . S
O128 C121 1.240 . S
O129 In117 2.326 . S
O129 C121 1.252 . S
In130 O131 2.294 . S
In130 O132 2.326 . S
In130 O136 2.266 . S
In130 O137 2.326 . S
In130 O138 2.266 . S
In130 O139 2.326 . S
In130 O141 2.294 . S
In130 O142 2.326 . S
O131 In130 2.294 . S
O131 C140 1.240 . S
O132 In130 2.326 . S
O132 C140 1.252 . S
C133 O136 1.252 . S
C133 O137 1.260 . S
C134 O141 1.240 . S
C134 O142 1.252 . S
C135 O138 1.252 . S
C135 O139 1.260 . S
O136 In130 2.266 . S
O136 C133 1.252 . S
O137 In130 2.326 . S
O137 C133 1.260 . S
O138 In130 2.266 . S
O138 C135 1.252 . S
O139 In130 2.326 . S
O139 C135 1.260 . S
C140 O131 1.240 . S
C140 O132 1.252 . S
O141 In130 2.294 . S
O141 C134 1.240 . S
O142 In130 2.326 . S
O142 C134 1.252 . S
In143 O144 2.294 . S
In143 O145 2.326 . S
In143 O149 2.266 . S
In143 O150 2.326 . S
In143 O151 2.266 . S
In143 O152 2.326 . S
In143 O154 2.294 . S
In143 O155 2.326 . S
O144 In143 2.294 . S
O144 C153 1.240 . S
O145 In143 2.326 . S
O145 C153 1.252 . S
C146 O149 1.252 . S
C146 O150 1.260 . S
C147 O154 1.240 . S
C147 O155 1.252 . S
C148 O151 1.252 . S
C148 O152 1.260 . S
O149 In143 2.266 . S
O149 C146 1.252 . S
O150 In143 2.326 . S
O150 C146 1.260 . S
O151 In143 2.266 . S
O151 C148 1.252 . S
O152 In143 2.326 . S
O152 C148 1.260 . S
C153 O144 1.240 . S
C153 O145 1.252 . S
O154 In143 2.294 . S
O154 C147 1.240 . S
O155 In143 2.326 . S
O155 C147 1.252 . S
In156 O157 2.294 . S
In156 O158 2.326 . S
In156 O162 2.266 . S
In156 O163 2.326 . S
In156 O164 2.266 . S
In156 O165 2.326 . S
In156 O167 2.294 . S
In156 O168 2.326 . S
O157 In156 2.294 . S
O157 C166 1.240 . S
O158 In156 2.326 . S
O158 C166 1.252 . S
C159 O162 1.252 . S
C159 O163 1.260 . S
C160 O167 1.240 . S
C160 O168 1.252 . S
C161 O164 1.252 . S
C161 O165 1.260 . S
O162 In156 2.266 . S
O162 C159 1.252 . S
O163 In156 2.326 . S
O163 C159 1.260 . S
O164 In156 2.266 . S
O164 C161 1.252 . S
O165 In156 2.326 . S
O165 C161 1.260 . S
C166 O157 1.240 . S
C166 O158 1.252 . S
O167 In156 2.294 . S
O167 C160 1.240 . S
O168 In156 2.326 . S
O168 C160 1.252 . S
In169 O170 2.294 . S
In169 O171 2.326 . S
In169 O175 2.266 . S
In169 O176 2.326 . S
In169 O177 2.266 . S
In169 O178 2.326 . S
In169 O180 2.294 . S
In169 O181 2.326 . S
O170 In169 2.294 . S
O170 C179 1.240 . S
O171 In169 2.326 . S
O171 C179 1.252 . S
C172 O175 1.252 . S
C172 O176 1.260 . S
C173 O180 1.240 . S
C173 O181 1.252 . S
C174 O177 1.252 . S
C174 O178 1.260 . S
O175 In169 2.266 . S
O175 C172 1.252 . S
O176 In169 2.326 . S
O176 C172 1.260 . S
O177 In169 2.266 . S
O177 C174 1.252 . S
O178 In169 2.326 . S
O178 C174 1.260 . S
C179 O170 1.240 . S
C179 O171 1.252 . S
O180 In169 2.294 . S
O180 C173 1.240 . S
O181 In169 2.326 . S
O181 C173 1.252 . S
In182 O183 2.294 . S
In182 O184 2.326 . S
In182 O188 2.266 . S
In182 O189 2.326 . S
In182 O190 2.266 . S
In182 O191 2.326 . S
In182 O193 2.294 . S
In182 O194 2.326 . S
O183 In182 2.294 . S
O183 C192 1.240 . S
O184 In182 2.326 . S
O184 C192 1.252 . S
C185 O188 1.252 . S
C185 O189 1.260 . S
C186 O193 1.240 . S
C186 O194 1.252 . S
C187 O190 1.252 . S
C187 O191 1.260 . S
O188 In182 2.266 . S
O188 C185 1.252 . S
O189 In182 2.326 . S
O189 C185 1.260 . S
O190 In182 2.266 . S
O190 C187 1.252 . S
O191 In182 2.326 . S
O191 C187 1.260 . S
C192 O183 1.240 . S
C192 O184 1.252 . S
O193 In182 2.294 . S
O193 C186 1.240 . S
O194 In182 2.326 . S
O194 C186 1.252 . S
In195 O196 2.294 . S
In195 O197 2.326 . S
In195 O201 2.266 . S
In195 O202 2.326 . S
In195 O203 2.266 . S
In195 O204 2.326 . S
In195 O206 2.294 . S
In195 O207 2.326 . S
O196 In195 2.294 . S
O196 C205 1.240 . S
O197 In195 2.326 . S
O197 C205 1.252 . S
C198 O201 1.252 . S
C198 O202 1.260 . S
C199 O206 1.240 . S
C199 O207 1.252 . S
C200 O203 1.252 . S
C200 O204 1.260 . S
O201 In195 2.266 . S
O201 C198 1.252 . S
O202 In195 2.326 . S
O202 C198 1.260 . S
O203 In195 2.266 . S
O203 C200 1.252 . S
O204 In195 2.326 . S
O204 C200 1.260 . S
C205 O196 1.240 . S
C205 O197 1.252 . S
O206 In195 2.294 . S
O206 C199 1.240 . S
O207 In195 2.326 . S
O207 C199 1.252 . S
In208 O209 2.294 . S
In208 O210 2.326 . S
In208 O214 2.266 . S
In208 O215 2.326 . S
In208 O216 2.266 . S
In208 O217 2.326 . S
In208 O219 2.294 . S
In208 O220 2.326 . S
O209 In208 2.294 . S
O209 C218 1.240 . S
O210 In208 2.326 . S
O210 C218 1.252 . S
C211 O214 1.252 . S
C211 O215 1.260 . S
C212 O219 1.240 . S
C212 O220 1.252 . S
C213 O216 1.252 . S
C213 O217 1.260 . S
O214 In208 2.266 . S
O214 C211 1.252 . S
O215 In208 2.326 . S
O215 C211 1.260 . S
O216 In208 2.266 . S
O216 C213 1.252 . S
O217 In208 2.326 . S
O217 C213 1.260 . S
C218 O209 1.240 . S
C218 O210 1.252 . S
O219 In208 2.294 . S
O219 C212 1.240 . S
O220 In208 2.326 . S
O220 C212 1.252 . S
In221 O222 2.294 . S
In221 O223 2.326 . S
In221 O227 2.266 . S
In221 O228 2.326 . S
In221 O229 2.266 . S
In221 O230 2.326 . S
In221 O232 2.294 . S
In221 O233 2.326 . S
O222 In221 2.294 . S
O222 C231 1.240 . S
O223 In221 2.326 . S
O223 C231 1.252 . S
C224 O227 1.252 . S
C224 O228 1.260 . S
C225 O232 1.240 . S
C225 O233 1.252 . S
C226 O229 1.252 . S
C226 O230 1.260 . S
O227 In221 2.266 . S
O227 C224 1.252 . S
O228 In221 2.326 . S
O228 C224 1.260 . S
O229 In221 2.266 . S
O229 C226 1.252 . S
O230 In221 2.326 . S
O230 C226 1.260 . S
C231 O222 1.240 . S
C231 O223 1.252 . S
O232 In221 2.294 . S
O232 C225 1.240 . S
O233 In221 2.326 . S
O233 C225 1.252 . S
In234 O235 2.294 . S
In234 O236 2.326 . S
In234 O240 2.266 . S
In234 O241 2.326 . S
In234 O242 2.266 . S
In234 O243 2.326 . S
In234 O245 2.294 . S
In234 O246 2.326 . S
O235 In234 2.294 . S
O235 C244 1.240 . S
O236 In234 2.326 . S
O236 C244 1.252 . S
C237 O240 1.252 . S
C237 O241 1.260 . S
C238 O245 1.240 . S
C238 O246 1.252 . S
C239 O242 1.252 . S
C239 O243 1.260 . S
O240 In234 2.266 . S
O240 C237 1.252 . S
O241 In234 2.326 . S
O241 C237 1.260 . S
O242 In234 2.266 . S
O242 C239 1.252 . S
O243 In234 2.326 . S
O243 C239 1.260 . S
C244 O235 1.240 . S
C244 O236 1.252 . S
O245 In234 2.294 . S
O245 C238 1.240 . S
O246 In234 2.326 . S
O246 C238 1.252 . S
In247 O248 2.294 . S
In247 O249 2.326 . S
In247 O253 2.266 . S
In247 O254 2.326 . S
In247 O255 2.266 . S
In247 O256 2.326 . S
In247 O258 2.294 . S
In247 O259 2.326 . S
O248 In247 2.294 . S
O248 C257 1.240 . S
O249 In247 2.326 . S
O249 C257 1.252 . S
C250 O253 1.252 . S
C250 O254 1.260 . S
C251 O258 1.240 . S
C251 O259 1.252 . S
C252 O255 1.252 . S
C252 O256 1.260 . S
O253 In247 2.266 . S
O253 C250 1.252 . S
O254 In247 2.326 . S
O254 C250 1.260 . S
O255 In247 2.266 . S
O255 C252 1.252 . S
O256 In247 2.326 . S
O256 C252 1.260 . S
C257 O248 1.240 . S
C257 O249 1.252 . S
O258 In247 2.294 . S
O258 C251 1.240 . S
O259 In247 2.326 . S
O259 C251 1.252 . S
In260 O261 2.294 . S
In260 O262 2.326 . S
In260 O266 2.266 . S
In260 O267 2.326 . S
In260 O268 2.266 . S
In260 O269 2.326 . S
In260 O271 2.294 . S
In260 O272 2.326 . S
O261 In260 2.294 . S
O261 C270 1.240 . S
O262 In260 2.326 . S
O262 C270 1.252 . S
C263 O266 1.252 . S
C263 O267 1.260 . S
C264 O271 1.240 . S
C264 O272 1.252 . S
C265 O268 1.252 . S
C265 O269 1.260 . S
O266 In260 2.266 . S
O266 C263 1.252 . S
O267 In260 2.326 . S
O267 C263 1.260 . S
O268 In260 2.266 . S
O268 C265 1.252 . S
O269 In260 2.326 . S
O269 C265 1.260 . S
C270 O261 1.240 . S
C270 O262 1.252 . S
O271 In260 2.294 . S
O271 C264 1.240 . S
O272 In260 2.326 . S
O272 C264 1.252 . S
In273 O274 2.294 . S
In273 O275 2.326 . S
In273 O279 2.266 . S
In273 O280 2.326 . S
In273 O281 2.266 . S
In273 O282 2.326 . S
In273 O284 2.294 . S
In273 O285 2.326 . S
O274 In273 2.294 . S
O274 C283 1.240 . S
O275 In273 2.326 . S
O275 C283 1.252 . S
C276 O279 1.252 . S
C276 O280 1.260 . S
C277 O284 1.240 . S
C277 O285 1.252 . S
C278 O281 1.252 . S
C278 O282 1.260 . S
O279 In273 2.266 . S
O279 C276 1.252 . S
O280 In273 2.326 . S
O280 C276 1.260 . S
O281 In273 2.266 . S
O281 C278 1.252 . S
O282 In273 2.326 . S
O282 C278 1.260 . S
C283 O274 1.240 . S
C283 O275 1.252 . S
O284 In273 2.294 . S
O284 C277 1.240 . S
O285 In273 2.326 . S
O285 C277 1.252 . S
In286 O287 2.294 . S
In286 O288 2.326 . S
In286 O292 2.266 . S
In286 O293 2.326 . S
In286 O294 2.266 . S
In286 O295 2.326 . S
In286 O297 2.294 . S
In286 O298 2.326 . S
O287 In286 2.294 . S
O287 C296 1.240 . S
O288 In286 2.326 . S
O288 C296 1.252 . S
C289 O292 1.252 . S
C289 O293 1.260 . S
C290 O297 1.240 . S
C290 O298 1.252 . S
C291 O294 1.252 . S
C291 O295 1.260 . S
O292 In286 2.266 . S
O292 C289 1.252 . S
O293 In286 2.326 . S
O293 C289 1.260 . S
O294 In286 2.266 . S
O294 C291 1.252 . S
O295 In286 2.326 . S
O295 C291 1.260 . S
C296 O287 1.240 . S
C296 O288 1.252 . S
O297 In286 2.294 . S
O297 C290 1.240 . S
O298 In286 2.326 . S
O298 C290 1.252 . S
In299 O300 2.294 . S
In299 O301 2.326 . S
In299 O305 2.266 . S
In299 O306 2.326 . S
In299 O307 2.266 . S
In299 O308 2.326 . S
In299 O310 2.294 . S
In299 O311 2.326 . S
O300 In299 2.294 . S
O300 C309 1.240 . S
O301 In299 2.326 . S
O301 C309 1.252 . S
C302 O305 1.252 . S
C302 O306 1.260 . S
C303 O310 1.240 . S
C303 O311 1.252 . S
C304 O307 1.252 . S
C304 O308 1.260 . S
O305 In299 2.266 . S
O305 C302 1.252 . S
O306 In299 2.326 . S
O306 C302 1.260 . S
O307 In299 2.266 . S
O307 C304 1.252 . S
O308 In299 2.326 . S
O308 C304 1.260 . S
C309 O300 1.240 . S
C309 O301 1.252 . S
O310 In299 2.294 . S
O310 C303 1.240 . S
O311 In299 2.326 . S
O311 C303 1.252 . S
In312 O313 2.294 . S
In312 O314 2.326 . S
In312 O318 2.266 . S
In312 O319 2.326 . S
In312 O320 2.266 . S
In312 O321 2.326 . S
In312 O323 2.294 . S
In312 O324 2.326 . S
O313 In312 2.294 . S
O313 C322 1.240 . S
O314 In312 2.326 . S
O314 C322 1.252 . S
C315 O318 1.252 . S
C315 O319 1.260 . S
C316 O323 1.240 . S
C316 O324 1.252 . S
C317 O320 1.252 . S
C317 O321 1.260 . S
O318 In312 2.266 . S
O318 C315 1.252 . S
O319 In312 2.326 . S
O319 C315 1.260 . S
O320 In312 2.266 . S
O320 C317 1.252 . S
O321 In312 2.326 . S
O321 C317 1.260 . S
C322 O313 1.240 . S
C322 O314 1.252 . S
O323 In312 2.294 . S
O323 C316 1.240 . S
O324 In312 2.326 . S
O324 C316 1.252 . S
In325 O326 2.294 . S
In325 O327 2.326 . S
In325 O331 2.266 . S
In325 O332 2.326 . S
In325 O333 2.266 . S
In325 O334 2.326 . S
In325 O336 2.294 . S
In325 O337 2.326 . S
O326 In325 2.294 . S
O326 C335 1.240 . S
O327 In325 2.326 . S
O327 C335 1.252 . S
C328 O331 1.252 . S
C328 O332 1.260 . S
C329 O336 1.240 . S
C329 O337 1.252 . S
C330 O333 1.252 . S
C330 O334 1.260 . S
O331 In325 2.266 . S
O331 C328 1.252 . S
O332 In325 2.326 . S
O332 C328 1.260 . S
O333 In325 2.266 . S
O333 C330 1.252 . S
O334 In325 2.326 . S
O334 C330 1.260 . S
C335 O326 1.240 . S
C335 O327 1.252 . S
O336 In325 2.294 . S
O336 C329 1.240 . S
O337 In325 2.326 . S
O337 C329 1.252 . S
In338 O339 2.294 . S
In338 O340 2.326 . S
In338 O344 2.266 . S
In338 O345 2.326 . S
In338 O346 2.266 . S
In338 O347 2.326 . S
In338 O349 2.294 . S
In338 O350 2.326 . S
O339 In338 2.294 . S
O339 C348 1.240 . S
O340 In338 2.326 . S
O340 C348 1.252 . S
C341 O344 1.252 . S
C341 O345 1.260 . S
C342 O349 1.240 . S
C342 O350 1.252 . S
C343 O346 1.252 . S
C343 O347 1.260 . S
O344 In338 2.266 . S
O344 C341 1.252 . S
O345 In338 2.326 . S
O345 C341 1.260 . S
O346 In338 2.266 . S
O346 C343 1.252 . S
O347 In338 2.326 . S
O347 C343 1.260 . S
C348 O339 1.240 . S
C348 O340 1.252 . S
O349 In338 2.294 . S
O349 C342 1.240 . S
O350 In338 2.326 . S
O350 C342 1.252 . S
In351 O352 2.294 . S
In351 O353 2.326 . S
In351 O357 2.266 . S
In351 O358 2.326 . S
In351 O359 2.266 . S
In351 O360 2.326 . S
In351 O362 2.294 . S
In351 O363 2.326 . S
O352 In351 2.294 . S
O352 C361 1.240 . S
O353 In351 2.326 . S
O353 C361 1.252 . S
C354 O357 1.252 . S
C354 O358 1.260 . S
C355 O362 1.240 . S
C355 O363 1.252 . S
C356 O359 1.252 . S
C356 O360 1.260 . S
O357 In351 2.266 . S
O357 C354 1.252 . S
O358 In351 2.326 . S
O358 C354 1.260 . S
O359 In351 2.266 . S
O359 C356 1.252 . S
O360 In351 2.326 . S
O360 C356 1.260 . S
C361 O352 1.240 . S
C361 O353 1.252 . S
O362 In351 2.294 . S
O362 C355 1.240 . S
O363 In351 2.326 . S
O363 C355 1.252 . S
In364 O365 2.294 . S
In364 O366 2.326 . S
In364 O370 2.266 . S
In364 O371 2.326 . S
In364 O372 2.266 . S
In364 O373 2.326 . S
In364 O375 2.294 . S
In364 O376 2.326 . S
O365 In364 2.294 . S
O365 C374 1.240 . S
O366 In364 2.326 . S
O366 C374 1.252 . S
C367 O370 1.252 . S
C367 O371 1.260 . S
C368 O375 1.240 . S
C368 O376 1.252 . S
C369 O372 1.252 . S
C369 O373 1.260 . S
O370 In364 2.266 . S
O370 C367 1.252 . S
O371 In364 2.326 . S
O371 C367 1.260 . S
O372 In364 2.266 . S
O372 C369 1.252 . S
O373 In364 2.326 . S
O373 C369 1.260 . S
C374 O365 1.240 . S
C374 O366 1.252 . S
O375 In364 2.294 . S
O375 C368 1.240 . S
O376 In364 2.326 . S
O376 C368 1.252 . S
In377 O378 2.294 . S
In377 O379 2.326 . S
In377 O383 2.266 . S
In377 O384 2.326 . S
In377 O385 2.266 . S
In377 O386 2.326 . S
In377 O388 2.294 . S
In377 O389 2.326 . S
O378 In377 2.294 . S
O378 C387 1.240 . S
O379 In377 2.326 . S
O379 C387 1.252 . S
C380 O383 1.252 . S
C380 O384 1.260 . S
C381 O388 1.240 . S
C381 O389 1.252 . S
C382 O385 1.252 . S
C382 O386 1.260 . S
O383 In377 2.266 . S
O383 C380 1.252 . S
O384 In377 2.326 . S
O384 C380 1.260 . S
O385 In377 2.266 . S
O385 C382 1.252 . S
O386 In377 2.326 . S
O386 C382 1.260 . S
C387 O378 1.240 . S
C387 O379 1.252 . S
O388 In377 2.294 . S
O388 C381 1.240 . S
O389 In377 2.326 . S
O389 C381 1.252 . S
In390 O391 2.294 . S
In390 O392 2.326 . S
In390 O396 2.266 . S
In390 O397 2.326 . S
In390 O398 2.266 . S
In390 O399 2.326 . S
In390 O401 2.294 . S
In390 O402 2.326 . S
O391 In390 2.294 . S
O391 C400 1.240 . S
O392 In390 2.326 . S
O392 C400 1.252 . S
C393 O396 1.252 . S
C393 O397 1.260 . S
C394 O401 1.240 . S
C394 O402 1.252 . S
C395 O398 1.252 . S
C395 O399 1.260 . S
O396 In390 2.266 . S
O396 C393 1.252 . S
O397 In390 2.326 . S
O397 C393 1.260 . S
O398 In390 2.266 . S
O398 C395 1.252 . S
O399 In390 2.326 . S
O399 C395 1.260 . S
C400 O391 1.240 . S
C400 O392 1.252 . S
O401 In390 2.294 . S
O401 C394 1.240 . S
O402 In390 2.326 . S
O402 C394 1.252 . S
In403 O404 2.294 . S
In403 O405 2.326 . S
In403 O409 2.266 . S
In403 O410 2.326 . S
In403 O411 2.266 . S
In403 O412 2.326 . S
In403 O414 2.294 . S
In403 O415 2.326 . S
O404 In403 2.294 . S
O404 C413 1.240 . S
O405 In403 2.326 . S
O405 C413 1.252 . S
C406 O409 1.252 . S
C406 O410 1.260 . S
C407 O414 1.240 . S
C407 O415 1.252 . S
C408 O411 1.252 . S
C408 O412 1.260 . S
O409 In403 2.266 . S
O409 C406 1.252 . S
O410 In403 2.326 . S
O410 C406 1.260 . S
O411 In403 2.266 . S
O411 C408 1.252 . S
O412 In403 2.326 . S
O412 C408 1.260 . S
C413 O404 1.240 . S
C413 O405 1.252 . S
O414 In403 2.294 . S
O414 C407 1.240 . S
O415 In403 2.326 . S
O415 C407 1.252 . S
C416 C417 1.349 . S
C416 C418 1.327 . S
C416 H441 0.950 . S
C417 C416 1.349 . S
C417 C433 1.349 . S
C418 C416 1.327 . S
C418 C437 1.429 . S
C418 H442 0.950 . S
C419 C436 1.590 1_545 S
C419 C438 1.368 . S
C419 H443 0.949 . S
H420 C424 0.949 . S
C421 C422 1.349 . S
C421 C423 1.327 . S
C421 H444 0.950 . S
C422 C421 1.349 . S
C422 C434 1.349 . S
C423 C421 1.327 . S
C423 C439 1.429 . S
C423 H445 0.950 . S
C424 H420 0.949 . S
C424 C432 1.574 1_566 S
C424 C440 1.368 . S
H425 C433 0.950 . S
H426 C431 0.950 . S
H427 C432 0.958 . S
H428 C434 0.950 . S
H429 C435 0.936 1_455 S
H430 C436 0.925 1_655 S
C431 H426 0.950 . S
C431 C433 1.327 . S
C431 C437 1.429 . S
C432 C424 1.574 1_544 S
C432 H427 0.958 . S
C432 C438 1.368 . S
C433 C417 1.349 . S
C433 H425 0.950 . S
C433 C431 1.327 . S
C434 C422 1.349 . S
C434 H428 0.950 . S
C434 C435 1.336 . S
C435 H429 0.936 1_655 S
C435 C434 1.336 . S
C435 C439 1.433 . S
C436 C419 1.590 1_565 S
C436 H430 0.925 1_455 S
C436 C440 1.380 1_554 S
C437 C418 1.429 . S
C437 C431 1.429 . S
C437 C438 1.523 . S
C438 C419 1.368 . S
C438 C432 1.368 . S
C438 C437 1.523 . S
C439 C423 1.429 . S
C439 C435 1.433 . S
C439 C440 1.523 1_655 S
C440 C424 1.368 . S
C440 C436 1.380 1_556 S
C440 C439 1.523 1_455 S
H441 C416 0.950 . S
H442 C418 0.950 . S
H443 C419 0.949 . S
H444 C421 0.950 . S
H445 C423 0.950 . S
C446 C447 1.349 . S
C446 C448 1.327 . S
C446 H471 0.950 . S
C447 C446 1.349 . S
C447 C463 1.349 . S
C448 C446 1.327 . S
C448 C467 1.429 . S
C448 H472 0.950 . S
C449 C466 1.574 . S
C449 C468 1.368 . S
C449 H473 0.949 . S
H450 C454 0.949 . S
C451 C452 1.349 . S
C451 C453 1.327 . S
C451 H474 0.950 . S
C452 C451 1.349 . S
C452 C464 1.349 . S
C453 C451 1.327 . S
C453 C469 1.429 . S
C453 H475 0.950 . S
C454 H450 0.949 . S
C454 C462 1.574 . S
C454 C470 1.368 . S
H455 C463 0.950 . S
H456 C461 0.950 . S
H457 C462 0.949 . S
H458 C464 0.950 . S
H459 C465 0.950 . S
H460 C466 0.949 . S
C461 H456 0.950 . S
C461 C463 1.327 . S
C461 C467 1.429 . S
C462 C454 1.574 . S
C462 H457 0.949 . S
C462 C468 1.368 . S
C463 C447 1.349 . S
C463 H455 0.950 . S
C463 C461 1.327 . S
C464 C452 1.349 . S
C464 H458 0.950 . S
C464 C465 1.327 . S
C465 H459 0.950 . S
C465 C464 1.327 . S
C465 C469 1.429 . S
C466 C449 1.574 . S
C466 H460 0.949 . S
C466 C470 1.368 . S
C467 C448 1.429 . S
C467 C461 1.429 . S
C467 C468 1.523 . S
C468 C449 1.368 . S
C468 C462 1.368 . S
C468 C467 1.523 . S
C469 C453 1.429 . S
C469 C465 1.429 . S
C469 C470 1.523 . S
C470 C454 1.368 . S
C470 C466 1.368 . S
C470 C469 1.523 . S
H471 C446 0.950 . S
H472 C448 0.950 . S
H473 C449 0.949 . S
H474 C451 0.950 . S
H475 C453 0.950 . S
C476 C477 1.349 . S
C476 C478 1.327 . S
C476 H501 0.950 . S
C477 C476 1.349 . S
C477 C493 1.349 . S
C478 C476 1.327 . S
C478 C497 1.429 . S
C478 H502 0.950 . S
C479 C496 1.574 1_565 S
C479 C498 1.368 . S
C479 H503 0.949 . S
H480 C484 0.949 . S
C481 C482 1.349 . S
C481 C483 1.327 . S
C481 H504 0.950 . S
C482 C481 1.349 . S
C482 C494 1.349 . S
C483 C481 1.327 . S
C483 C499 1.429 . S
C483 H505 0.950 . S
C484 H480 0.949 . S
C484 C492 1.574 1_545 S
C484 C500 1.368 . S
H485 C493 0.950 . S
H486 C491 0.950 . S
H487 C492 0.949 . S
H488 C494 0.950 . S
H489 C495 0.950 . S
H490 C496 0.949 . S
C491 H486 0.950 . S
C491 C493 1.327 . S
C491 C497 1.429 . S
C492 C484 1.574 1_565 S
C492 H487 0.949 . S
C492 C498 1.368 . S
C493 C477 1.349 . S
C493 H485 0.950 . S
C493 C491 1.327 . S
C494 C482 1.349 . S
C494 H488 0.950 . S
C494 C495 1.327 . S
C495 H489 0.950 . S
C495 C494 1.327 . S
C495 C499 1.429 . S
C496 C479 1.574 1_545 S
C496 H490 0.949 . S
C496 C500 1.368 . S
C497 C478 1.429 . S
C497 C491 1.429 . S
C497 C498 1.523 . S
C498 C479 1.368 . S
C498 C492 1.368 . S
C498 C497 1.523 . S
C499 C483 1.429 . S
C499 C495 1.429 . S
C499 C500 1.523 . S
C500 C484 1.368 . S
C500 C496 1.368 . S
C500 C499 1.523 . S
H501 C476 0.950 . S
H502 C478 0.950 . S
H503 C479 0.949 . S
H504 C481 0.950 . S
H505 C483 0.950 . S
C506 C507 1.349 . S
C506 C508 1.327 . S
C506 H531 0.950 . S
C507 C506 1.349 . S
C507 C523 1.349 . S
C508 C506 1.327 . S
C508 C527 1.429 . S
C508 H532 0.950 . S
C509 C526 1.574 . S
C509 C528 1.368 . S
C509 H533 0.949 . S
H510 C514 0.949 . S
C511 C512 1.349 . S
C511 C513 1.327 . S
C511 H534 0.950 . S
C512 C511 1.349 . S
C512 C524 1.349 . S
C513 C511 1.327 . S
C513 C529 1.429 . S
C513 H535 0.950 . S
C514 H510 0.949 . S
C514 C522 1.574 . S
C514 C530 1.368 . S
H515 C523 0.950 . S
H516 C521 0.950 . S
H517 C522 0.949 . S
H518 C524 0.950 . S
H519 C525 0.950 . S
H520 C526 0.949 . S
C521 H516 0.950 . S
C521 C523 1.327 . S
C521 C527 1.429 . S
C522 C514 1.574 . S
C522 H517 0.949 . S
C522 C528 1.368 . S
C523 C507 1.349 . S
C523 H515 0.950 . S
C523 C521 1.327 . S
C524 C512 1.349 . S
C524 H518 0.950 . S
C524 C525 1.327 . S
C525 H519 0.950 . S
C525 C524 1.327 . S
C525 C529 1.429 . S
C526 C509 1.574 . S
C526 H520 0.949 . S
C526 C530 1.368 . S
C527 C508 1.429 . S
C527 C521 1.429 . S
C527 C528 1.523 . S
C528 C509 1.368 . S
C528 C522 1.368 . S
C528 C527 1.523 . S
C529 C513 1.429 . S
C529 C525 1.429 . S
C529 C530 1.523 . S
C530 C514 1.368 . S
C530 C526 1.368 . S
C530 C529 1.523 . S
H531 C506 0.950 . S
H532 C508 0.950 . S
H533 C509 0.949 . S
H534 C511 0.950 . S
H535 C513 0.950 . S
C536 C537 1.349 . S
C536 C538 1.327 1_565 S
C536 H561 0.950 . S
C537 C536 1.349 . S
C537 C553 1.349 . S
C538 C536 1.327 1_545 S
C538 C557 1.429 1_545 S
C538 H562 0.950 . S
C539 C556 1.592 . S
C539 C558 1.383 . S
C539 H563 0.920 1_545 S
H540 C544 0.949 1_655 S
C541 C542 1.349 . S
C541 C543 1.327 . S
C541 H564 0.950 . S
C542 C541 1.349 . S
C542 C554 1.349 . S
C543 C541 1.327 . S
C543 C559 1.429 . S
C543 H565 0.950 . S
C544 H540 0.949 1_455 S
C544 C552 1.574 . S
C544 C560 1.368 . S
H545 C553 0.950 . S
H546 C551 0.950 . S
H547 C552 0.949 . S
H548 C554 0.950 . S
H549 C555 0.950 . S
H550 C556 0.949 . S
C551 H546 0.950 . S
C551 C553 1.327 . S
C551 C557 1.429 . S
C552 C544 1.574 . S
C552 H547 0.949 . S
C552 C558 1.368 . S
C553 C537 1.349 . S
C553 H545 0.950 . S
C553 C551 1.327 . S
C554 C542 1.349 . S
C554 H548 0.950 . S
C554 C555 1.327 . S
C555 H549 0.950 . S
C555 C554 1.327 . S
C555 C559 1.429 . S
C556 C539 1.592 . S
C556 H550 0.949 . S
C556 C560 1.368 . S
C557 C538 1.429 1_565 S
C557 C551 1.429 . S
C557 C558 1.523 1_565 S
C558 C539 1.383 . S
C558 C552 1.368 . S
C558 C557 1.523 1_545 S
C559 C543 1.429 . S
C559 C555 1.429 . S
C559 C560 1.523 1_655 S
C560 C544 1.368 . S
C560 C556 1.368 . S
C560 C559 1.523 1_455 S
H561 C536 0.950 . S
H562 C538 0.950 . S
H563 C539 0.920 1_565 S
H564 C541 0.950 . S
H565 C543 0.950 . S
C566 C567 1.349 . S
C566 C568 1.327 . S
C566 H591 0.950 . S
C567 C566 1.349 . S
C567 C583 1.349 . S
C568 C566 1.327 . S
C568 C587 1.429 . S
C568 H592 0.950 . S
C569 C586 1.574 . S
C569 C588 1.368 . S
C569 H593 0.949 . S
H570 C574 0.949 . S
C571 C572 1.349 . S
C571 C573 1.327 . S
C571 H594 0.950 . S
C572 C571 1.349 . S
C572 C584 1.349 . S
C573 C571 1.327 . S
C573 C589 1.429 . S
C573 H595 0.950 . S
C574 H570 0.949 . S
C574 C582 1.574 . S
C574 C590 1.368 . S
H575 C583 0.950 . S
H576 C581 0.950 . S
H577 C582 0.949 . S
H578 C584 0.950 . S
H579 C585 0.950 . S
H580 C586 0.949 . S
C581 H576 0.950 . S
C581 C583 1.327 . S
C581 C587 1.429 . S
C582 C574 1.574 . S
C582 H577 0.949 . S
C582 C588 1.368 . S
C583 C567 1.349 . S
C583 H575 0.950 . S
C583 C581 1.327 . S
C584 C572 1.349 . S
C584 H578 0.950 . S
C584 C585 1.327 . S
C585 H579 0.950 . S
C585 C584 1.327 . S
C585 C589 1.429 . S
C586 C569 1.574 . S
C586 H580 0.949 . S
C586 C590 1.368 . S
C587 C568 1.429 . S
C587 C581 1.429 . S
C587 C588 1.523 . S
C588 C569 1.368 . S
C588 C582 1.368 . S
C588 C587 1.523 . S
C589 C573 1.429 . S
C589 C585 1.429 . S
C589 C590 1.523 . S
C590 C574 1.368 . S
C590 C586 1.368 . S
C590 C589 1.523 . S
H591 C566 0.950 . S
H592 C568 0.950 . S
H593 C569 0.949 . S
H594 C571 0.950 . S
H595 C573 0.950 . S
C596 C597 1.349 . S
C596 C598 1.327 . S
C596 H621 0.950 . S
C597 C596 1.349 . S
C597 C613 1.349 . S
C598 C596 1.327 . S
C598 C617 1.429 . S
C598 H622 0.950 . S
C599 C616 1.574 . S
C599 C618 1.368 . S
C599 H623 0.949 . S
H600 C604 0.949 . S
C601 C602 1.349 . S
C601 C603 1.327 . S
C601 H624 0.950 . S
C602 C601 1.349 . S
C602 C614 1.349 . S
C603 C601 1.327 . S
C603 C619 1.429 . S
C603 H625 0.950 1_554 S
C604 H600 0.949 . S
C604 C612 1.551 1_565 S
C604 C620 1.368 . S
H605 C613 0.950 . S
H606 C611 0.950 1_565 S
H607 C612 0.983 . S
H608 C614 0.950 . S
H609 C615 0.950 . S
H610 C616 0.949 . S
C611 H606 0.950 1_545 S
C611 C613 1.327 . S
C611 C617 1.429 . S
C612 C604 1.551 1_545 S
C612 H607 0.983 . S
C612 C618 1.356 1_544 S
C613 C597 1.349 . S
C613 H605 0.950 . S
C613 C611 1.327 . S
C614 C602 1.349 . S
C614 H608 0.950 . S
C614 C615 1.327 . S
C615 H609 0.950 . S
C615 C614 1.327 . S
C615 C619 1.429 . S
C616 C599 1.574 . S
C616 H610 0.949 . S
C616 C620 1.368 1_556 S
C617 C598 1.429 . S
C617 C611 1.429 . S
C617 C618 1.523 1_545 S
C618 C599 1.368 . S
C618 C612 1.356 1_566 S
C618 C617 1.523 1_565 S
C619 C603 1.429 . S
C619 C615 1.429 . S
C619 C620 1.523 . S
C620 C604 1.368 . S
C620 C616 1.368 1_554 S
C620 C619 1.523 . S
H621 C596 0.950 . S
H622 C598 0.950 . S
H623 C599 0.949 . S
H624 C601 0.950 . S
H625 C603 0.950 1_556 S
C626 C627 1.349 . S
C626 C628 1.327 . S
C626 H651 0.950 . S
C627 C626 1.349 . S
C627 C643 1.349 . S
C628 C626 1.327 . S
C628 C647 1.429 . S
C628 H652 0.950 . S
C629 C646 1.574 . S
C629 C648 1.368 . S
C629 H653 0.949 . S
H630 C634 0.949 . S
C631 C632 1.349 . S
C631 C633 1.327 . S
C631 H654 0.950 . S
C632 C631 1.349 . S
C632 C644 1.349 . S
C633 C631 1.327 . S
C633 C649 1.429 . S
C633 H655 0.950 . S
C634 H630 0.949 . S
C634 C642 1.574 . S
C634 C650 1.368 . S
H635 C643 0.950 . S
H636 C641 0.950 . S
H637 C642 0.949 . S
H638 C644 0.950 . S
H639 C645 0.950 . S
H640 C646 0.949 . S
C641 H636 0.950 . S
C641 C643 1.327 . S
C641 C647 1.429 . S
C642 C634 1.574 . S
C642 H637 0.949 . S
C642 C648 1.368 . S
C643 C627 1.349 . S
C643 H635 0.950 . S
C643 C641 1.327 . S
C644 C632 1.349 . S
C644 H638 0.950 . S
C644 C645 1.327 . S
C645 H639 0.950 . S
C645 C644 1.327 . S
C645 C649 1.429 . S
C646 C629 1.574 . S
C646 H640 0.949 . S
C646 C650 1.368 . S
C647 C628 1.429 . S
C647 C641 1.429 . S
C647 C648 1.523 . S
C648 C629 1.368 . S
C648 C642 1.368 . S
C648 C647 1.523 . S
C649 C633 1.429 . S
C649 C645 1.429 . S
C649 C650 1.523 . S
C650 C634 1.368 . S
C650 C646 1.368 . S
C650 C649 1.523 . S
H651 C626 0.950 . S
H652 C628 0.950 . S
H653 C629 0.949 . S
H654 C631 0.950 . S
H655 C633 0.950 . S
C656 C657 1.349 . S
C656 C658 1.327 . S
C656 H681 0.950 . S
C657 C656 1.349 . S
C657 C673 1.349 . S
C658 C656 1.327 . S
C658 C677 1.429 . S
C658 H682 0.950 . S
C659 C676 1.574 . S
C659 C678 1.368 . S
C659 H683 0.949 . S
H660 C664 0.949 . S
C661 C662 1.349 . S
C661 C663 1.327 . S
C661 H684 0.950 . S
C662 C661 1.349 . S
C662 C674 1.349 . S
C663 C661 1.327 . S
C663 C679 1.429 . S
C663 H685 0.950 1_556 S
C664 H660 0.949 . S
C664 C672 1.547 1_556 S
C664 C680 1.368 . S
H665 C673 0.950 . S
H666 C671 0.950 . S
H667 C672 0.934 1_556 S
H668 C674 0.950 . S
H669 C675 0.950 . S
H670 C676 0.949 . S
C671 H666 0.950 . S
C671 C673 1.327 . S
C671 C677 1.429 . S
C672 C664 1.547 1_554 S
C672 H667 0.934 1_554 S
C672 C678 1.412 . S
C673 C657 1.349 . S
C673 H665 0.950 . S
C673 C671 1.327 . S
C674 C662 1.349 . S
C674 H668 0.950 . S
C674 C675 1.327 . S
C675 H669 0.950 . S
C675 C674 1.327 . S
C675 C679 1.429 . S
C676 C659 1.574 . S
C676 H670 0.949 . S
C676 C680 1.368 1_554 S
C677 C658 1.429 . S
C677 C671 1.429 . S
C677 C678 1.523 . S
C678 C659 1.368 . S
C678 C672 1.412 . S
C678 C677 1.523 . S
C679 C663 1.429 . S
C679 C675 1.429 . S
C679 C680 1.523 . S
C680 C664 1.368 . S
C680 C676 1.368 1_556 S
C680 C679 1.523 . S
H681 C656 0.950 . S
H682 C658 0.950 . S
H683 C659 0.949 . S
H684 C661 0.950 . S
H685 C663 0.950 1_554 S
C686 C687 1.349 . S
C686 C688 1.327 . S
C686 H711 0.950 . S
C687 C686 1.349 . S
C687 C703 1.349 . S
C688 C686 1.327 . S
C688 C707 1.429 . S
C688 H712 0.950 . S
C689 C706 1.574 . S
C689 C708 1.368 . S
C689 H713 0.949 . S
H690 C694 0.949 . S
C691 C692 1.349 . S
C691 C693 1.327 . S
C691 H714 0.950 . S
C692 C691 1.349 . S
C692 C704 1.349 . S
C693 C691 1.327 . S
C693 C709 1.429 . S
C693 H715 0.950 . S
C694 H690 0.949 . S
C694 C702 1.574 . S
C694 C710 1.368 . S
H695 C703 0.950 . S
H696 C701 0.950 . S
H697 C702 0.949 . S
H698 C704 0.950 . S
H699 C705 0.950 . S
H700 C706 0.949 . S
C701 H696 0.950 . S
C701 C703 1.327 . S
C701 C707 1.429 . S
C702 C694 1.574 . S
C702 H697 0.949 . S
C702 C708 1.368 . S
C703 C687 1.349 . S
C703 H695 0.950 . S
C703 C701 1.327 . S
C704 C692 1.349 . S
C704 H698 0.950 . S
C704 C705 1.327 . S
C705 H699 0.950 . S
C705 C704 1.327 . S
C705 C709 1.429 . S
C706 C689 1.574 . S
C706 H700 0.949 . S
C706 C710 1.368 . S
C707 C688 1.429 . S
C707 C701 1.429 . S
C707 C708 1.523 . S
C708 C689 1.368 . S
C708 C702 1.368 . S
C708 C707 1.523 . S
C709 C693 1.429 . S
C709 C705 1.429 . S
C709 C710 1.523 . S
C710 C694 1.368 . S
C710 C706 1.368 . S
C710 C709 1.523 . S
H711 C686 0.950 . S
H712 C688 0.950 . S
H713 C689 0.949 . S
H714 C691 0.950 . S
H715 C693 0.950 . S
C716 C717 1.349 . S
C716 C718 1.327 . S
C716 H741 0.950 . S
C717 C716 1.349 . S
C717 C733 1.349 . S
C718 C716 1.327 . S
C718 C737 1.429 . S
C718 H742 0.950 . S
C719 C736 1.574 1_455 S
C719 C738 1.368 . S
C719 H743 0.949 . S
H720 C724 0.949 . S
C721 C722 1.349 . S
C721 C723 1.327 . S
C721 H744 0.950 . S
C722 C721 1.349 . S
C722 C734 1.349 . S
C723 C721 1.327 . S
C723 C739 1.429 . S
C723 H745 0.950 . S
C724 H720 0.949 . S
C724 C732 1.574 . S
C724 C740 1.368 . S
H725 C733 0.950 . S
H726 C731 0.950 . S
H727 C732 0.950 . S
H728 C734 0.950 . S
H729 C735 0.950 . S
H730 C736 0.949 . S
C731 H726 0.950 . S
C731 C733 1.327 . S
C731 C737 1.429 . S
C732 C724 1.574 . S
C732 H727 0.950 . S
C732 C738 1.368 1_655 S
C733 C717 1.349 . S
C733 H725 0.950 . S
C733 C731 1.327 . S
C734 C722 1.349 . S
C734 H728 0.950 . S
C734 C735 1.327 . S
C735 H729 0.950 . S
C735 C734 1.327 . S
C735 C739 1.429 . S
C736 C719 1.574 1_655 S
C736 H730 0.949 . S
C736 C740 1.368 . S
C737 C718 1.429 . S
C737 C731 1.429 . S
C737 C738 1.523 . S
C738 C719 1.368 . S
C738 C732 1.368 1_455 S
C738 C737 1.523 . S
C739 C723 1.429 . S
C739 C735 1.429 . S
C739 C740 1.523 . S
C740 C724 1.368 . S
C740 C736 1.368 . S
C740 C739 1.523 . S
H741 C716 0.950 . S
H742 C718 0.950 . S
H743 C719 0.949 . S
H744 C721 0.950 . S
H745 C723 0.950 . S
C746 C747 1.349 . S
C746 C748 1.327 . S
C746 H771 0.950 . S
C747 C746 1.349 . S
C747 C763 1.349 . S
C748 C746 1.327 . S
C748 C767 1.429 . S
C748 H772 0.950 . S
C749 C766 1.574 . S
C749 C768 1.368 . S
C749 H773 0.949 . S
H750 C754 0.949 . S
C751 C752 1.349 . S
C751 C753 1.327 . S
C751 H774 0.950 . S
C752 C751 1.349 . S
C752 C764 1.349 . S
C753 C751 1.327 . S
C753 C769 1.429 . S
C753 H775 0.950 . S
C754 H750 0.949 . S
C754 C762 1.574 . S
C754 C770 1.368 . S
H755 C763 0.950 . S
H756 C761 0.950 . S
H757 C762 0.949 . S
H758 C764 0.950 . S
H759 C765 0.950 . S
H760 C766 0.949 . S
C761 H756 0.950 . S
C761 C763 1.327 . S
C761 C767 1.429 . S
C762 C754 1.574 . S
C762 H757 0.949 . S
C762 C768 1.368 . S
C763 C747 1.349 . S
C763 H755 0.950 . S
C763 C761 1.327 . S
C764 C752 1.349 . S
C764 H758 0.950 . S
C764 C765 1.327 . S
C765 H759 0.950 . S
C765 C764 1.327 . S
C765 C769 1.429 . S
C766 C749 1.574 . S
C766 H760 0.949 . S
C766 C770 1.368 . S
C767 C748 1.429 . S
C767 C761 1.429 . S
C767 C768 1.523 . S
C768 C749 1.368 . S
C768 C762 1.368 . S
C768 C767 1.523 . S
C769 C753 1.429 . S
C769 C765 1.429 . S
C769 C770 1.523 . S
C770 C754 1.368 . S
C770 C766 1.368 . S
C770 C769 1.523 . S
H771 C746 0.950 . S
H772 C748 0.950 . S
H773 C749 0.949 . S
H774 C751 0.950 . S
H775 C753 0.950 . S
C776 C777 1.349 . S
C776 C778 1.327 . S
C776 H801 0.950 . S
C777 C776 1.349 . S
C777 C793 1.349 . S
C778 C776 1.327 . S
C778 C797 1.429 . S
C778 H802 0.950 . S
C779 C796 1.574 . S
C779 C798 1.368 . S
C779 H803 0.949 . S
H780 C784 0.949 . S
C781 C782 1.349 . S
C781 C783 1.327 . S
C781 H804 0.950 . S
C782 C781 1.349 . S
C782 C794 1.349 . S
C783 C781 1.327 . S
C783 C799 1.429 . S
C783 H805 0.950 . S
C784 H780 0.949 . S
C784 C792 1.574 . S
C784 C800 1.368 . S
H785 C793 0.950 . S
H786 C791 0.950 . S
H787 C792 0.949 . S
H788 C794 0.950 . S
H789 C795 0.950 . S
H790 C796 0.949 . S
C791 H786 0.950 . S
C791 C793 1.327 . S
C791 C797 1.429 . S
C792 C784 1.574 . S
C792 H787 0.949 . S
C792 C798 1.368 . S
C793 C777 1.349 . S
C793 H785 0.950 . S
C793 C791 1.327 . S
C794 C782 1.349 . S
C794 H788 0.950 . S
C794 C795 1.327 . S
C795 H789 0.950 . S
C795 C794 1.327 . S
C795 C799 1.429 . S
C796 C779 1.574 . S
C796 H790 0.949 . S
C796 C800 1.368 . S
C797 C778 1.429 . S
C797 C791 1.429 . S
C797 C798 1.523 . S
C798 C779 1.368 . S
C798 C792 1.368 . S
C798 C797 1.523 . S
C799 C783 1.429 . S
C799 C795 1.429 . S
C799 C800 1.523 . S
C800 C784 1.368 . S
C800 C796 1.368 . S
C800 C799 1.523 . S
H801 C776 0.950 . S
H802 C778 0.950 . S
H803 C779 0.949 . S
H804 C781 0.950 . S
H805 C783 0.950 . S
C806 C807 1.349 . S
C806 C808 1.327 . S
C806 H831 0.950 . S
C807 C806 1.349 . S
C807 C823 1.349 . S
C808 C806 1.327 . S
C808 C827 1.429 . S
C808 H832 0.950 . S
C809 C826 1.574 . S
C809 C828 1.368 . S
C809 H833 0.949 . S
H810 C814 0.949 . S
C811 C812 1.349 . S
C811 C813 1.327 . S
C811 H834 0.950 . S
C812 C811 1.349 . S
C812 C824 1.349 . S
C813 C811 1.327 . S
C813 C829 1.429 . S
C813 H835 0.950 . S
C814 H810 0.949 . S
C814 C822 1.574 . S
C814 C830 1.368 . S
H815 C823 0.950 . S
H816 C821 0.950 . S
H817 C822 0.949 . S
H818 C824 0.950 . S
H819 C825 0.950 . S
H820 C826 0.949 . S
C821 H816 0.950 . S
C821 C823 1.327 . S
C821 C827 1.429 . S
C822 C814 1.574 . S
C822 H817 0.949 . S
C822 C828 1.368 . S
C823 C807 1.349 . S
C823 H815 0.950 . S
C823 C821 1.327 . S
C824 C812 1.349 . S
C824 H818 0.950 . S
C824 C825 1.327 . S
C825 H819 0.950 . S
C825 C824 1.327 . S
C825 C829 1.429 . S
C826 C809 1.574 . S
C826 H820 0.949 . S
C826 C830 1.368 . S
C827 C808 1.429 . S
C827 C821 1.429 . S
C827 C828 1.523 . S
C828 C809 1.368 . S
C828 C822 1.368 . S
C828 C827 1.523 . S
C829 C813 1.429 . S
C829 C825 1.429 . S
C829 C830 1.523 . S
C830 C814 1.368 . S
C830 C826 1.368 . S
C830 C829 1.523 . S
H831 C806 0.950 . S
H832 C808 0.950 . S
H833 C809 0.949 . S
H834 C811 0.950 . S
H835 C813 0.950 . S
C836 C837 1.349 . S
C836 C838 1.327 . S
C836 H861 0.950 . S
C837 C836 1.349 . S
C837 C853 1.349 . S
C838 C836 1.327 . S
C838 C857 1.429 . S
C838 H862 0.950 . S
C839 C856 1.574 . S
C839 C858 1.368 . S
C839 H863 0.949 . S
H840 C844 0.949 . S
C841 C842 1.349 . S
C841 C843 1.327 . S
C841 H864 0.950 . S
C842 C841 1.349 . S
C842 C854 1.349 . S
C843 C841 1.327 . S
C843 C859 1.429 . S
C843 H865 0.950 . S
C844 H840 0.949 . S
C844 C852 1.574 . S
C844 C860 1.368 . S
H845 C853 0.950 . S
H846 C851 0.950 . S
H847 C852 0.949 . S
H848 C854 0.950 . S
H849 C855 0.950 . S
H850 C856 0.949 . S
C851 H846 0.950 . S
C851 C853 1.327 . S
C851 C857 1.429 . S
C852 C844 1.574 . S
C852 H847 0.949 . S
C852 C858 1.368 . S
C853 C837 1.349 . S
C853 H845 0.950 . S
C853 C851 1.327 . S
C854 C842 1.349 . S
C854 H848 0.950 . S
C854 C855 1.327 . S
C855 H849 0.950 . S
C855 C854 1.327 . S
C855 C859 1.429 . S
C856 C839 1.574 . S
C856 H850 0.949 . S
C856 C860 1.368 . S
C857 C838 1.429 . S
C857 C851 1.429 . S
C857 C858 1.523 . S
C858 C839 1.368 . S
C858 C852 1.368 . S
C858 C857 1.523 . S
C859 C843 1.429 . S
C859 C855 1.429 . S
C859 C860 1.523 . S
C860 C844 1.368 . S
C860 C856 1.368 . S
C860 C859 1.523 . S
H861 C836 0.950 . S
H862 C838 0.950 . S
H863 C839 0.949 . S
H864 C841 0.950 . S
H865 C843 0.950 . S
C866 C867 1.349 . S
C866 C868 1.327 . S
C866 H891 0.950 . S
C867 C866 1.349 . S
C867 C883 1.349 . S
C868 C866 1.327 . S
C868 C887 1.429 . S
C868 H892 0.950 1_455 S
C869 C886 1.574 1_455 S
C869 C888 1.368 1_454 S
C869 H893 0.949 . S
H870 C874 0.942 1_556 S
C871 C872 1.349 . S
C871 C873 1.327 . S
C871 H894 0.950 . S
C872 C871 1.349 . S
C872 C884 1.349 . S
C873 C871 1.327 . S
C873 C889 1.429 . S
C873 H895 0.950 . S
C874 H870 0.942 1_554 S
C874 C882 1.552 1_554 S
C874 C890 1.398 . S
H875 C883 0.950 . S
H876 C881 0.950 . S
H877 C882 0.949 . S
H878 C884 0.950 . S
H879 C885 0.950 . S
H880 C886 0.949 . S
C881 H876 0.950 . S
C881 C883 1.327 . S
C881 C887 1.429 . S
C882 C874 1.552 1_556 S
C882 H877 0.949 . S
C882 C888 1.368 . S
C883 C867 1.349 . S
C883 H875 0.950 . S
C883 C881 1.327 . S
C884 C872 1.349 . S
C884 H878 0.950 . S
C884 C885 1.327 . S
C885 H879 0.950 . S
C885 C884 1.327 . S
C885 C889 1.429 . S
C886 C869 1.574 1_655 S
C886 H880 0.949 . S
C886 C890 1.368 . S
C887 C868 1.429 . S
C887 C881 1.429 . S
C887 C888 1.523 1_455 S
C888 C869 1.368 1_656 S
C888 C882 1.368 . S
C888 C887 1.523 1_655 S
C889 C873 1.429 . S
C889 C885 1.429 . S
C889 C890 1.523 . S
C890 C874 1.398 . S
C890 C886 1.368 . S
C890 C889 1.523 . S
H891 C866 0.950 . S
H892 C868 0.950 1_655 S
H893 C869 0.949 . S
H894 C871 0.950 . S
H895 C873 0.950 . S
C896 C897 1.349 . S
C896 C898 1.327 . S
C896 H921 0.950 . S
C897 C896 1.349 . S
C897 C913 1.349 . S
C898 C896 1.327 . S
C898 C917 1.429 1_545 S
C898 H922 0.950 . S
C899 C916 1.574 . S
C899 C918 1.368 . S
C899 H923 0.949 . S
H900 C904 0.949 . S
C901 C902 1.349 . S
C901 C903 1.327 . S
C901 H924 0.950 . S
C902 C901 1.349 . S
C902 C914 1.349 . S
C903 C901 1.327 . S
C903 C919 1.429 . S
C903 H925 0.950 . S
C904 H900 0.949 . S
C904 C912 1.574 . S
C904 C920 1.368 . S
H905 C913 0.950 . S
H906 C911 0.950 . S
H907 C912 0.949 . S
H908 C914 0.950 . S
H909 C915 0.950 . S
H910 C916 0.949 . S
C911 H906 0.950 . S
C911 C913 1.327 1_565 S
C911 C917 1.429 . S
C912 C904 1.574 . S
C912 H907 0.949 . S
C912 C918 1.368 . S
C913 C897 1.349 . S
C913 H905 0.950 . S
C913 C911 1.327 1_545 S
C914 C902 1.349 . S
C914 H908 0.950 . S
C914 C915 1.327 . S
C915 H909 0.950 . S
C915 C914 1.327 . S
C915 C919 1.429 . S
C916 C899 1.574 . S
C916 H910 0.949 . S
C916 C920 1.368 . S
C917 C898 1.429 1_565 S
C917 C911 1.429 . S
C917 C918 1.523 . S
C918 C899 1.368 . S
C918 C912 1.368 . S
C918 C917 1.523 . S
C919 C903 1.429 . S
C919 C915 1.429 . S
C919 C920 1.523 . S
C920 C904 1.368 . S
C920 C916 1.368 . S
C920 C919 1.523 . S
H921 C896 0.950 . S
H922 C898 0.950 . S
H923 C899 0.949 . S
H924 C901 0.950 . S
H925 C903 0.950 . S
C926 C927 1.349 . S
C926 C928 1.327 . S
C926 H951 0.950 . S
C927 C926 1.349 . S
C927 C943 1.349 . S
C928 C926 1.327 . S
C928 C947 1.429 . S
C928 H952 0.950 . S
C929 C946 1.574 . S
C929 C948 1.368 . S
C929 H953 0.949 . S
H930 C934 0.949 . S
C931 C932 1.349 . S
C931 C933 1.327 . S
C931 H954 0.950 . S
C932 C931 1.349 . S
C932 C944 1.349 . S
C933 C931 1.327 . S
C933 C949 1.429 . S
C933 H955 0.950 . S
C934 H930 0.949 . S
C934 C942 1.574 . S
C934 C950 1.368 . S
H935 C943 0.950 . S
H936 C941 0.950 . S
H937 C942 0.949 . S
H938 C944 0.950 . S
H939 C945 0.950 . S
H940 C946 0.949 . S
C941 H936 0.950 . S
C941 C943 1.327 . S
C941 C947 1.429 . S
C942 C934 1.574 . S
C942 H937 0.949 . S
C942 C948 1.368 . S
C943 C927 1.349 . S
C943 H935 0.950 . S
C943 C941 1.327 . S
C944 C932 1.349 . S
C944 H938 0.950 . S
C944 C945 1.327 . S
C945 H939 0.950 . S
C945 C944 1.327 . S
C945 C949 1.429 . S
C946 C929 1.574 . S
C946 H940 0.949 . S
C946 C950 1.368 . S
C947 C928 1.429 . S
C947 C941 1.429 . S
C947 C948 1.523 . S
C948 C929 1.368 . S
C948 C942 1.368 . S
C948 C947 1.523 . S
C949 C933 1.429 . S
C949 C945 1.429 . S
C949 C950 1.523 . S
C950 C934 1.368 . S
C950 C946 1.368 . S
C950 C949 1.523 . S
H951 C926 0.950 . S
H952 C928 0.950 . S
H953 C929 0.949 . S
H954 C931 0.950 . S
H955 C933 0.950 . S
C956 C957 1.349 . S
C956 C958 1.327 . S
C956 H981 0.950 . S
C957 C956 1.349 . S
C957 C973 1.349 . S
C958 C956 1.327 . S
C958 C977 1.429 . S
C958 H982 0.950 . S
C959 C976 1.574 . S
C959 C978 1.368 . S
C959 H983 0.949 . S
H960 C964 0.949 . S
C961 C962 1.349 . S
C961 C963 1.327 . S
C961 H984 0.950 . S
C962 C961 1.349 . S
C962 C974 1.349 . S
C963 C961 1.327 . S
C963 C979 1.429 1_565 S
C963 H985 0.950 . S
C964 H960 0.949 . S
C964 C972 1.574 . S
C964 C980 1.368 . S
H965 C973 0.950 . S
H966 C971 0.950 . S
H967 C972 0.949 . S
H968 C974 0.950 . S
H969 C975 0.950 . S
H970 C976 0.949 . S
C971 H966 0.950 . S
C971 C973 1.327 . S
C971 C977 1.429 . S
C972 C964 1.574 . S
C972 H967 0.949 . S
C972 C978 1.368 . S
C973 C957 1.349 . S
C973 H965 0.950 . S
C973 C971 1.327 . S
C974 C962 1.349 . S
C974 H968 0.950 . S
C974 C975 1.327 1_565 S
C975 H969 0.950 . S
C975 C974 1.327 1_545 S
C975 C979 1.429 . S
C976 C959 1.574 . S
C976 H970 0.949 . S
C976 C980 1.368 . S
C977 C958 1.429 . S
C977 C971 1.429 . S
C977 C978 1.523 . S
C978 C959 1.368 . S
C978 C972 1.368 . S
C978 C977 1.523 . S
C979 C963 1.429 1_545 S
C979 C975 1.429 . S
C979 C980 1.523 . S
C980 C964 1.368 . S
C980 C976 1.368 . S
C980 C979 1.523 . S
H981 C956 0.950 . S
H982 C958 0.950 . S
H983 C959 0.949 . S
H984 C961 0.950 . S
H985 C963 0.950 . S
C986 C987 1.349 . S
C986 C988 1.327 . S
C986 H1011 0.950 . S
C987 C986 1.349 . S
C987 C1003 1.349 . S
C988 C986 1.327 . S
C988 C1007 1.429 . S
C988 H1012 0.950 . S
C989 C1006 1.574 . S
C989 C1008 1.368 . S
C989 H1013 0.949 . S
H990 C994 0.949 . S
C991 C992 1.349 . S
C991 C993 1.327 . S
C991 H1014 0.950 . S
C992 C991 1.349 . S
C992 C1004 1.349 . S
C993 C991 1.327 . S
C993 C1009 1.429 . S
C993 H1015 0.950 . S
C994 H990 0.949 . S
C994 C1002 1.574 . S
C994 C1010 1.368 . S
H995 C1003 0.950 . S
H996 C1001 0.950 . S
H997 C1002 0.949 . S
H998 C1004 0.950 . S
H999 C1005 0.950 . S
H1000 C1006 0.949 1_554 S
C1001 H996 0.950 . S
C1001 C1003 1.327 . S
C1001 C1007 1.429 . S
C1002 C994 1.574 . S
C1002 H997 0.949 . S
C1002 C1008 1.368 . S
C1003 C987 1.349 . S
C1003 H995 0.950 . S
C1003 C1001 1.327 . S
C1004 C992 1.349 . S
C1004 H998 0.950 . S
C1004 C1005 1.327 . S
C1005 H999 0.950 . S
C1005 C1004 1.327 . S
C1005 C1009 1.429 . S
C1006 C989 1.574 . S
C1006 H1000 0.949 1_556 S
C1006 C1010 1.368 . S
C1007 C988 1.429 . S
C1007 C1001 1.429 . S
C1007 C1008 1.523 . S
C1008 C989 1.368 . S
C1008 C1002 1.368 . S
C1008 C1007 1.523 . S
C1009 C993 1.429 . S
C1009 C1005 1.429 . S
C1009 C1010 1.523 1_554 S
C1010 C994 1.368 . S
C1010 C1006 1.368 . S
C1010 C1009 1.523 1_556 S
H1011 C986 0.950 . S
H1012 C988 0.950 . S
H1013 C989 0.949 . S
H1014 C991 0.950 . S
H1015 C993 0.950 . S
C1016 C1017 1.349 . S
C1016 C1018 1.327 . S
C1016 H1041 0.950 . S
C1017 C1016 1.349 . S
C1017 C1033 1.349 . S
C1018 C1016 1.327 . S
C1018 C1037 1.429 . S
C1018 H1042 0.950 . S
C1019 C1036 1.574 . S
C1019 C1038 1.368 . S
C1019 H1043 0.949 . S
H1020 C1024 0.949 . S
C1021 C1022 1.349 . S
C1021 C1023 1.327 . S
C1021 H1044 0.950 . S
C1022 C1021 1.349 . S
C1022 C1034 1.349 1_565 S
C1023 C1021 1.327 . S
C1023 C1039 1.429 1_565 S
C1023 H1045 0.950 . S
C1024 H1020 0.949 . S
C1024 C1032 1.574 . S
C1024 C1040 1.368 . S
H1025 C1033 0.950 . S
H1026 C1031 0.950 . S
H1027 C1032 0.949 . S
H1028 C1034 0.950 . S
H1029 C1035 0.950 . S
H1030 C1036 0.949 1_565 S
C1031 H1026 0.950 . S
C1031 C1033 1.327 . S
C1031 C1037 1.429 . S
C1032 C1024 1.574 . S
C1032 H1027 0.949 . S
C1032 C1038 1.368 . S
C1033 C1017 1.349 . S
C1033 H1025 0.950 . S
C1033 C1031 1.327 . S
C1034 C1022 1.349 1_545 S
C1034 H1028 0.950 . S
C1034 C1035 1.327 . S
C1035 H1029 0.950 . S
C1035 C1034 1.327 . S
C1035 C1039 1.429 . S
C1036 C1019 1.574 . S
C1036 H1030 0.949 1_545 S
C1036 C1040 1.368 . S
C1037 C1018 1.429 . S
C1037 C1031 1.429 . S
C1037 C1038 1.523 . S
C1038 C1019 1.368 . S
C1038 C1032 1.368 . S
C1038 C1037 1.523 . S
C1039 C1023 1.429 1_545 S
C1039 C1035 1.429 . S
C1039 C1040 1.523 . S
C1040 C1024 1.368 . S
C1040 C1036 1.368 . S
C1040 C1039 1.523 . S
H1041 C1016 0.950 . S
H1042 C1018 0.950 . S
H1043 C1019 0.949 . S
H1044 C1021 0.950 . S
H1045 C1023 0.950 . S
C1046 C1047 1.349 . S
C1046 C1048 1.327 . S
C1046 H1071 0.950 . S
C1047 C1046 1.349 . S
C1047 C1063 1.349 . S
C1048 C1046 1.327 . S
C1048 C1067 1.429 . S
C1048 H1072 0.950 . S
C1049 C1066 1.574 . S
C1049 C1068 1.368 . S
C1049 H1073 0.949 . S
H1050 C1054 0.949 . S
C1051 C1052 1.349 . S
C1051 C1053 1.327 . S
C1051 H1074 0.950 . S
C1052 C1051 1.349 . S
C1052 C1064 1.349 . S
C1053 C1051 1.327 . S
C1053 C1069 1.429 . S
C1053 H1075 0.950 . S
C1054 H1050 0.949 . S
C1054 C1062 1.574 . S
C1054 C1070 1.368 . S
H1055 C1063 0.950 . S
H1056 C1061 0.950 . S
H1057 C1062 0.949 . S
H1058 C1064 0.950 . S
H1059 C1065 0.950 . S
H1060 C1066 0.949 . S
C1061 H1056 0.950 . S
C1061 C1063 1.327 . S
C1061 C1067 1.429 . S
C1062 C1054 1.574 . S
C1062 H1057 0.949 . S
C1062 C1068 1.368 . S
C1063 C1047 1.349 . S
C1063 H1055 0.950 . S
C1063 C1061 1.327 . S
C1064 C1052 1.349 . S
C1064 H1058 0.950 . S
C1064 C1065 1.327 . S
C1065 H1059 0.950 . S
C1065 C1064 1.327 . S
C1065 C1069 1.429 . S
C1066 C1049 1.574 . S
C1066 H1060 0.949 . S
C1066 C1070 1.368 . S
C1067 C1048 1.429 . S
C1067 C1061 1.429 . S
C1067 C1068 1.523 . S
C1068 C1049 1.368 . S
C1068 C1062 1.368 . S
C1068 C1067 1.523 . S
C1069 C1053 1.429 . S
C1069 C1065 1.429 . S
C1069 C1070 1.523 . S
C1070 C1054 1.368 . S
C1070 C1066 1.368 . S
C1070 C1069 1.523 . S
H1071 C1046 0.950 . S
H1072 C1048 0.950 . S
H1073 C1049 0.949 . S
H1074 C1051 0.950 . S
H1075 C1053 0.950 . S
C1076 C1077 1.349 . S
C1076 C1078 1.327 . S
C1076 H1101 0.950 . S
C1077 C1076 1.349 . S
C1077 C1093 1.349 . S
C1078 C1076 1.327 . S
C1078 C1097 1.429 1_545 S
C1078 H1102 0.950 . S
C1079 C1096 1.574 . S
C1079 C1098 1.368 . S
C1079 H1103 0.949 . S
H1080 C1084 0.949 . S
C1081 C1082 1.349 . S
C1081 C1083 1.327 . S
C1081 H1104 0.950 . S
C1082 C1081 1.349 . S
C1082 C1094 1.349 . S
C1083 C1081 1.327 . S
C1083 C1099 1.429 . S
C1083 H1105 0.950 . S
C1084 H1080 0.949 . S
C1084 C1092 1.574 . S
C1084 C1100 1.368 . S
H1085 C1093 0.949 . S
H1086 C1091 0.950 . S
H1087 C1092 0.949 . S
H1088 C1094 0.950 . S
H1089 C1095 0.950 . S
H1090 C1096 0.949 . S
C1091 H1086 0.950 . S
C1091 C1093 1.327 1_565 S
C1091 C1097 1.429 . S
C1092 C1084 1.574 . S
C1092 H1087 0.949 . S
C1092 C1098 1.368 . S
C1093 C1077 1.349 . S
C1093 H1085 0.949 . S
C1093 C1091 1.327 1_545 S
C1094 C1082 1.349 . S
C1094 H1088 0.950 . S
C1094 C1095 1.327 . S
C1095 H1089 0.950 . S
C1095 C1094 1.327 . S
C1095 C1099 1.429 . S
C1096 C1079 1.574 . S
C1096 H1090 0.949 . S
C1096 C1100 1.368 . S
C1097 C1078 1.429 1_565 S
C1097 C1091 1.429 . S
C1097 C1098 1.523 . S
C1098 C1079 1.368 . S
C1098 C1092 1.368 . S
C1098 C1097 1.523 . S
C1099 C1083 1.429 . S
C1099 C1095 1.429 . S
C1099 C1100 1.523 . S
C1100 C1084 1.368 . S
C1100 C1096 1.368 . S
C1100 C1099 1.523 . S
H1101 C1076 0.950 . S
H1102 C1078 0.950 . S
H1103 C1079 0.949 . S
H1104 C1081 0.950 . S
H1105 C1083 0.950 . S
C1106 C1107 1.349 . S
C1106 C1108 1.327 . S
C1106 H1131 0.950 . S
C1107 C1106 1.349 . S
C1107 C1123 1.349 . S
C1108 C1106 1.327 . S
C1108 C1127 1.429 . S
C1108 H1132 0.950 1_556 S
C1109 C1126 1.574 . S
C1109 C1128 1.368 . S
C1109 H1133 0.949 1_554 S
H1110 C1114 0.949 . S
C1111 C1112 1.349 . S
C1111 C1113 1.327 . S
C1111 H1134 0.950 . S
C1112 C1111 1.349 . S
C1112 C1124 1.349 . S
C1113 C1111 1.327 . S
C1113 C1129 1.429 . S
C1113 H1135 0.950 . S
C1114 H1110 0.949 . S
C1114 C1122 1.574 . S
C1114 C1130 1.368 . S
H1115 C1123 0.950 . S
H1116 C1121 0.950 . S
H1117 C1122 0.949 . S
H1118 C1124 0.950 . S
H1119 C1125 0.950 . S
H1120 C1126 0.949 . S
C1121 H1116 0.950 . S
C1121 C1123 1.327 . S
C1121 C1127 1.429 . S
C1122 C1114 1.574 . S
C1122 H1117 0.949 . S
C1122 C1128 1.368 . S
C1123 C1107 1.349 . S
C1123 H1115 0.950 . S
C1123 C1121 1.327 . S
C1124 C1112 1.349 . S
C1124 H1118 0.950 . S
C1124 C1125 1.327 . S
C1125 H1119 0.950 . S
C1125 C1124 1.327 . S
C1125 C1129 1.429 . S
C1126 C1109 1.574 . S
C1126 H1120 0.949 . S
C1126 C1130 1.368 . S
C1127 C1108 1.429 . S
C1127 C1121 1.429 . S
C1127 C1128 1.523 1_556 S
C1128 C1109 1.368 . S
C1128 C1122 1.368 . S
C1128 C1127 1.523 1_554 S
C1129 C1113 1.429 . S
C1129 C1125 1.429 . S
C1129 C1130 1.523 . S
C1130 C1114 1.368 . S
C1130 C1126 1.368 . S
C1130 C1129 1.523 . S
H1131 C1106 0.950 . S
H1132 C1108 0.950 1_554 S
H1133 C1109 0.949 1_556 S
H1134 C1111 0.950 . S
H1135 C1113 0.950 . S
C1136 C1137 1.349 . S
C1136 C1138 1.327 1_655 S
C1136 H1161 0.951 . S
C1137 C1136 1.349 . S
C1137 C1153 1.349 . S
C1138 C1136 1.327 1_455 S
C1138 C1157 1.429 . S
C1138 H1162 0.950 . S
C1139 C1156 1.574 . S
C1139 C1158 1.368 . S
C1139 H1163 0.949 . S
H1140 C1144 0.949 . S
C1141 C1142 1.349 . S
C1141 C1143 1.327 . S
C1141 H1164 0.950 . S
C1142 C1141 1.349 . S
C1142 C1154 1.349 . S
C1143 C1141 1.327 . S
C1143 C1159 1.429 . S
C1143 H1165 0.950 . S
C1144 H1140 0.949 . S
C1144 C1152 1.574 . S
C1144 C1160 1.368 . S
H1145 C1153 0.950 . S
H1146 C1151 0.950 . S
H1147 C1152 0.949 . S
H1148 C1154 0.950 . S
H1149 C1155 0.950 . S
H1150 C1156 0.949 . S
C1151 H1146 0.950 . S
C1151 C1153 1.327 . S
C1151 C1157 1.429 1_655 S
C1152 C1144 1.574 . S
C1152 H1147 0.949 . S
C1152 C1158 1.368 . S
C1153 C1137 1.349 . S
C1153 H1145 0.950 . S
C1153 C1151 1.327 . S
C1154 C1142 1.349 . S
C1154 H1148 0.950 . S
C1154 C1155 1.327 . S
C1155 H1149 0.950 . S
C1155 C1154 1.327 . S
C1155 C1159 1.429 . S
C1156 C1139 1.574 . S
C1156 H1150 0.949 . S
C1156 C1160 1.368 . S
C1157 C1138 1.429 . S
C1157 C1151 1.429 1_455 S
C1157 C1158 1.523 . S
C1158 C1139 1.368 . S
C1158 C1152 1.368 . S
C1158 C1157 1.523 . S
C1159 C1143 1.429 . S
C1159 C1155 1.429 . S
C1159 C1160 1.523 . S
C1160 C1144 1.368 . S
C1160 C1156 1.368 . S
C1160 C1159 1.523 . S
H1161 C1136 0.951 . S
H1162 C1138 0.950 . S
H1163 C1139 0.949 . S
H1164 C1141 0.950 . S
H1165 C1143 0.950 . S
C1166 C1167 1.349 . S
C1166 C1168 1.327 . S
C1166 H1191 0.950 . S
C1167 C1166 1.349 . S
C1167 C1183 1.349 . S
C1168 C1166 1.327 . S
C1168 C1187 1.429 . S
C1168 H1192 0.950 . S
C1169 C1186 1.574 . S
C1169 C1188 1.368 . S
C1169 H1193 0.949 . S
H1170 C1174 0.949 . S
C1171 C1172 1.349 . S
C1171 C1173 1.327 . S
C1171 H1194 0.950 . S
C1172 C1171 1.349 . S
C1172 C1184 1.349 . S
C1173 C1171 1.327 . S
C1173 C1189 1.429 . S
C1173 H1195 0.950 . S
C1174 H1170 0.949 . S
C1174 C1182 1.574 . S
C1174 C1190 1.368 . S
H1175 C1183 0.950 . S
H1176 C1181 0.950 . S
H1177 C1182 0.949 . S
H1178 C1184 0.950 . S
H1179 C1185 0.950 . S
H1180 C1186 0.949 . S
C1181 H1176 0.950 . S
C1181 C1183 1.327 . S
C1181 C1187 1.429 . S
C1182 C1174 1.574 . S
C1182 H1177 0.949 . S
C1182 C1188 1.368 . S
C1183 C1167 1.349 . S
C1183 H1175 0.950 . S
C1183 C1181 1.327 . S
C1184 C1172 1.349 . S
C1184 H1178 0.950 . S
C1184 C1185 1.327 . S
C1185 H1179 0.950 . S
C1185 C1184 1.327 . S
C1185 C1189 1.429 . S
C1186 C1169 1.574 . S
C1186 H1180 0.949 . S
C1186 C1190 1.368 . S
C1187 C1168 1.429 . S
C1187 C1181 1.429 . S
C1187 C1188 1.523 . S
C1188 C1169 1.368 . S
C1188 C1182 1.368 . S
C1188 C1187 1.523 . S
C1189 C1173 1.429 . S
C1189 C1185 1.429 . S
C1189 C1190 1.523 . S
C1190 C1174 1.368 . S
C1190 C1186 1.368 . S
C1190 C1189 1.523 . S
H1191 C1166 0.950 . S
H1192 C1168 0.950 . S
H1193 C1169 0.949 . S
H1194 C1171 0.950 . S
H1195 C1173 0.950 . S
C1196 C1197 1.349 . S
C1196 C1198 1.327 . S
C1196 H1221 0.950 . S
C1197 C1196 1.349 . S
C1197 C1213 1.349 . S
C1198 C1196 1.327 . S
C1198 C1217 1.429 . S
C1198 H1222 0.950 . S
C1199 C1216 1.574 . S
C1199 C1218 1.368 . S
C1199 H1223 0.949 . S
H1200 C1204 0.949 . S
C1201 C1202 1.349 . S
C1201 C1203 1.327 . S
C1201 H1224 0.950 . S
C1202 C1201 1.349 . S
C1202 C1214 1.349 1_455 S
C1203 C1201 1.327 . S
C1203 C1219 1.429 1_455 S
C1203 H1225 0.950 . S
C1204 H1200 0.949 . S
C1204 C1212 1.574 . S
C1204 C1220 1.368 . S
H1205 C1213 0.950 . S
H1206 C1211 0.950 . S
H1207 C1212 0.949 . S
H1208 C1214 0.950 . S
H1209 C1215 0.950 . S
H1210 C1216 0.949 . S
C1211 H1206 0.950 . S
C1211 C1213 1.327 . S
C1211 C1217 1.429 . S
C1212 C1204 1.574 . S
C1212 H1207 0.949 . S
C1212 C1218 1.368 . S
C1213 C1197 1.349 . S
C1213 H1205 0.950 . S
C1213 C1211 1.327 . S
C1214 C1202 1.349 1_655 S
C1214 H1208 0.950 . S
C1214 C1215 1.327 . S
C1215 H1209 0.950 . S
C1215 C1214 1.327 . S
C1215 C1219 1.429 . S
C1216 C1199 1.574 . S
C1216 H1210 0.949 . S
C1216 C1220 1.368 . S
C1217 C1198 1.429 . S
C1217 C1211 1.429 . S
C1217 C1218 1.523 . S
C1218 C1199 1.368 . S
C1218 C1212 1.368 . S
C1218 C1217 1.523 . S
C1219 C1203 1.429 1_655 S
C1219 C1215 1.429 . S
C1219 C1220 1.523 . S
C1220 C1204 1.368 . S
C1220 C1216 1.368 . S
C1220 C1219 1.523 . S
H1221 C1196 0.950 . S
H1222 C1198 0.950 . S
H1223 C1199 0.949 . S
H1224 C1201 0.950 . S
H1225 C1203 0.950 . S
C1226 C1227 1.349 . S
C1226 C1228 1.327 . S
C1226 H1251 0.950 . S
C1227 C1226 1.349 . S
C1227 C1243 1.349 . S
C1228 C1226 1.327 . S
C1228 C1247 1.429 . S
C1228 H1252 0.950 . S
C1229 C1246 1.574 . S
C1229 C1248 1.368 . S
C1229 H1253 0.949 . S
H1230 C1234 0.949 . S
C1231 C1232 1.349 1_655 S
C1231 C1233 1.327 . S
C1231 H1254 0.950 . S
C1232 C1231 1.349 1_455 S
C1232 C1244 1.349 . S
C1233 C1231 1.327 . S
C1233 C1249 1.429 . S
C1233 H1255 0.950 . S
C1234 H1230 0.949 . S
C1234 C1242 1.574 . S
C1234 C1250 1.368 . S
H1235 C1243 0.950 . S
H1236 C1241 0.950 . S
H1237 C1242 0.949 . S
H1238 C1244 0.950 . S
H1239 C1245 0.950 . S
H1240 C1246 0.949 . S
C1241 H1236 0.950 . S
C1241 C1243 1.327 . S
C1241 C1247 1.429 . S
C1242 C1234 1.574 . S
C1242 H1237 0.949 . S
C1242 C1248 1.368 . S
C1243 C1227 1.349 . S
C1243 H1235 0.950 . S
C1243 C1241 1.327 . S
C1244 C1232 1.349 . S
C1244 H1238 0.950 . S
C1244 C1245 1.327 . S
C1245 H1239 0.950 . S
C1245 C1244 1.327 . S
C1245 C1249 1.429 1_455 S
C1246 C1229 1.574 . S
C1246 H1240 0.949 . S
C1246 C1250 1.368 . S
C1247 C1228 1.429 . S
C1247 C1241 1.429 . S
C1247 C1248 1.523 . S
C1248 C1229 1.368 . S
C1248 C1242 1.368 . S
C1248 C1247 1.523 . S
C1249 C1233 1.429 . S
C1249 C1245 1.429 1_655 S
C1249 C1250 1.523 . S
C1250 C1234 1.368 . S
C1250 C1246 1.368 . S
C1250 C1249 1.523 . S
H1251 C1226 0.950 . S
H1252 C1228 0.950 . S
H1253 C1229 0.949 . S
H1254 C1231 0.950 . S
H1255 C1233 0.950 . S
C1256 C1257 1.349 . S
C1256 C1258 1.327 . S
C1256 H1281 0.950 . S
C1257 C1256 1.349 . S
C1257 C1273 1.349 . S
C1258 C1256 1.327 . S
C1258 C1277 1.429 . S
C1258 H1282 0.950 . S
C1259 C1276 1.574 . S
C1259 C1278 1.368 . S
C1259 H1283 0.949 . S
H1260 C1264 0.949 . S
C1261 C1262 1.349 . S
C1261 C1263 1.327 . S
C1261 H1284 0.950 . S
C1262 C1261 1.349 . S
C1262 C1274 1.349 . S
C1263 C1261 1.327 . S
C1263 C1279 1.429 . S
C1263 H1285 0.950 . S
C1264 H1260 0.949 . S
C1264 C1272 1.574 . S
C1264 C1280 1.368 . S
H1265 C1273 0.950 . S
H1266 C1271 0.950 . S
H1267 C1272 0.949 . S
H1268 C1274 0.950 . S
H1269 C1275 0.950 . S
H1270 C1276 0.949 . S
C1271 H1266 0.950 . S
C1271 C1273 1.327 . S
C1271 C1277 1.429 . S
C1272 C1264 1.574 . S
C1272 H1267 0.949 . S
C1272 C1278 1.368 . S
C1273 C1257 1.349 . S
C1273 H1265 0.950 . S
C1273 C1271 1.327 . S
C1274 C1262 1.349 . S
C1274 H1268 0.950 . S
C1274 C1275 1.327 . S
C1275 H1269 0.950 . S
C1275 C1274 1.327 . S
C1275 C1279 1.429 . S
C1276 C1259 1.574 . S
C1276 H1270 0.949 . S
C1276 C1280 1.368 . S
C1277 C1258 1.429 . S
C1277 C1271 1.429 . S
C1277 C1278 1.523 . S
C1278 C1259 1.368 . S
C1278 C1272 1.368 . S
C1278 C1277 1.523 . S
C1279 C1263 1.429 . S
C1279 C1275 1.429 . S
C1279 C1280 1.523 . S
C1280 C1264 1.368 . S
C1280 C1276 1.368 . S
C1280 C1279 1.523 . S
H1281 C1256 0.950 . S
H1282 C1258 0.950 . S
H1283 C1259 0.949 . S
H1284 C1261 0.950 . S
H1285 C1263 0.950 . S
C1286 C1287 1.349 . S
C1286 C1288 1.327 1_655 S
C1286 H1311 0.950 . S
C1287 C1286 1.349 . S
C1287 C1303 1.349 1_655 S
C1288 C1286 1.327 1_455 S
C1288 C1307 1.429 . S
C1288 H1312 0.950 . S
C1289 C1306 1.574 . S
C1289 C1308 1.368 . S
C1289 H1313 0.949 . S
H1290 C1294 0.949 . S
C1291 C1292 1.349 . S
C1291 C1293 1.327 . S
C1291 H1314 0.950 . S
C1292 C1291 1.349 . S
C1292 C1304 1.349 . S
C1293 C1291 1.327 . S
C1293 C1309 1.429 . S
C1293 H1315 0.950 . S
C1294 H1290 0.949 . S
C1294 C1302 1.574 . S
C1294 C1310 1.368 . S
H1295 C1303 0.950 . S
H1296 C1301 0.950 . S
H1297 C1302 0.949 . S
H1298 C1304 0.950 . S
H1299 C1305 0.950 . S
H1300 C1306 0.949 . S
C1301 H1296 0.950 . S
C1301 C1303 1.327 . S
C1301 C1307 1.429 . S
C1302 C1294 1.574 . S
C1302 H1297 0.949 . S
C1302 C1308 1.368 . S
C1303 C1287 1.349 1_455 S
C1303 H1295 0.950 . S
C1303 C1301 1.327 . S
C1304 C1292 1.349 . S
C1304 H1298 0.950 . S
C1304 C1305 1.327 . S
C1305 H1299 0.950 . S
C1305 C1304 1.327 . S
C1305 C1309 1.429 . S
C1306 C1289 1.574 . S
C1306 H1300 0.949 . S
C1306 C1310 1.368 . S
C1307 C1288 1.429 . S
C1307 C1301 1.429 . S
C1307 C1308 1.523 . S
C1308 C1289 1.368 . S
C1308 C1302 1.368 . S
C1308 C1307 1.523 . S
C1309 C1293 1.429 . S
C1309 C1305 1.429 . S
C1309 C1310 1.523 . S
C1310 C1294 1.368 . S
C1310 C1306 1.368 . S
C1310 C1309 1.523 . S
H1311 C1286 0.950 . S
H1312 C1288 0.950 . S
H1313 C1289 0.949 . S
H1314 C1291 0.950 . S
H1315 C1293 0.950 . S
C1316 C1317 1.349 . S
C1316 C1318 1.327 . S
C1316 H1341 0.950 . S
C1317 C1316 1.349 . S
C1317 C1333 1.349 . S
C1318 C1316 1.327 . S
C1318 C1337 1.429 . S
C1318 H1342 0.950 . S
C1319 C1336 1.574 . S
C1319 C1338 1.368 . S
C1319 H1343 0.949 . S
H1320 C1324 0.949 . S
C1321 C1322 1.349 . S
C1321 C1323 1.327 . S
C1321 H1344 0.950 . S
C1322 C1321 1.349 . S
C1322 C1334 1.349 . S
C1323 C1321 1.327 . S
C1323 C1339 1.429 . S
C1323 H1345 0.950 . S
C1324 H1320 0.949 . S
C1324 C1332 1.574 . S
C1324 C1340 1.368 . S
H1325 C1333 0.950 . S
H1326 C1331 0.950 . S
H1327 C1332 0.949 . S
H1328 C1334 0.950 . S
H1329 C1335 0.950 . S
H1330 C1336 0.949 . S
C1331 H1326 0.950 . S
C1331 C1333 1.327 . S
C1331 C1337 1.429 . S
C1332 C1324 1.574 . S
C1332 H1327 0.949 . S
C1332 C1338 1.368 . S
C1333 C1317 1.349 . S
C1333 H1325 0.950 . S
C1333 C1331 1.327 . S
C1334 C1322 1.349 . S
C1334 H1328 0.950 . S
C1334 C1335 1.327 . S
C1335 H1329 0.950 . S
C1335 C1334 1.327 . S
C1335 C1339 1.429 . S
C1336 C1319 1.574 . S
C1336 H1330 0.949 . S
C1336 C1340 1.368 . S
C1337 C1318 1.429 . S
C1337 C1331 1.429 . S
C1337 C1338 1.523 . S
C1338 C1319 1.368 . S
C1338 C1332 1.368 . S
C1338 C1337 1.523 . S
C1339 C1323 1.429 . S
C1339 C1335 1.429 . S
C1339 C1340 1.523 . S
C1340 C1324 1.368 . S
C1340 C1336 1.368 . S
C1340 C1339 1.523 . S
H1341 C1316 0.950 . S
H1342 C1318 0.950 . S
H1343 C1319 0.949 . S
H1344 C1321 0.950 . S
H1345 C1323 0.950 . S
C1346 C1347 1.349 . S
C1346 C1348 1.327 . S
C1346 H1371 0.950 . S
C1347 C1346 1.349 . S
C1347 C1363 1.349 . S
C1348 C1346 1.327 . S
C1348 C1367 1.429 . S
C1348 H1372 0.950 . S
C1349 C1366 1.574 . S
C1349 C1368 1.368 . S
C1349 H1373 0.949 . S
H1350 C1354 0.949 1_565 S
C1351 C1352 1.349 . S
C1351 C1353 1.327 . S
C1351 H1374 0.950 . S
C1352 C1351 1.349 . S
C1352 C1364 1.349 . S
C1353 C1351 1.327 . S
C1353 C1369 1.429 . S
C1353 H1375 0.950 1_565 S
C1354 H1350 0.949 1_545 S
C1354 C1362 1.574 . S
C1354 C1370 1.368 . S
H1355 C1363 0.950 . S
H1356 C1361 0.950 . S
H1357 C1362 0.949 . S
H1358 C1364 0.950 . S
H1359 C1365 0.950 . S
H1360 C1366 0.949 . S
C1361 H1356 0.950 . S
C1361 C1363 1.327 . S
C1361 C1367 1.429 . S
C1362 C1354 1.574 . S
C1362 H1357 0.949 . S
C1362 C1368 1.368 . S
C1363 C1347 1.349 . S
C1363 H1355 0.950 . S
C1363 C1361 1.327 . S
C1364 C1352 1.349 . S
C1364 H1358 0.950 . S
C1364 C1365 1.327 . S
C1365 H1359 0.950 . S
C1365 C1364 1.327 . S
C1365 C1369 1.429 . S
C1366 C1349 1.574 . S
C1366 H1360 0.949 . S
C1366 C1370 1.368 . S
C1367 C1348 1.429 . S
C1367 C1361 1.429 . S
C1367 C1368 1.523 . S
C1368 C1349 1.368 . S
C1368 C1362 1.368 . S
C1368 C1367 1.523 . S
C1369 C1353 1.429 . S
C1369 C1365 1.429 . S
C1369 C1370 1.523 1_565 S
C1370 C1354 1.368 . S
C1370 C1366 1.368 . S
C1370 C1369 1.523 1_545 S
H1371 C1346 0.950 . S
H1372 C1348 0.950 . S
H1373 C1349 0.949 . S
H1374 C1351 0.950 . S
H1375 C1353 0.950 1_545 S
C1376 C1377 1.349 . S
C1376 C1378 1.327 . S
C1376 H1401 0.950 . S
C1377 C1376 1.349 . S
C1377 C1393 1.349 . S
C1378 C1376 1.327 . S
C1378 C1397 1.429 . S
C1378 H1402 0.950 . S
C1379 C1396 1.574 . S
C1379 C1398 1.368 . S
C1379 H1403 0.949 . S
H1380 C1384 0.949 . S
C1381 C1382 1.349 . S
C1381 C1383 1.327 . S
C1381 H1404 0.950 . S
C1382 C1381 1.349 . S
C1382 C1394 1.349 . S
C1383 C1381 1.327 . S
C1383 C1399 1.429 . S
C1383 H1405 0.950 . S
C1384 H1380 0.949 . S
C1384 C1392 1.574 . S
C1384 C1400 1.368 . S
H1385 C1393 0.950 . S
H1386 C1391 0.950 . S
H1387 C1392 0.949 . S
H1388 C1394 0.950 . S
H1389 C1395 0.950 . S
H1390 C1396 0.949 . S
C1391 H1386 0.950 . S
C1391 C1393 1.327 . S
C1391 C1397 1.429 . S
C1392 C1384 1.574 . S
C1392 H1387 0.949 . S
C1392 C1398 1.368 . S
C1393 C1377 1.349 . S
C1393 H1385 0.950 . S
C1393 C1391 1.327 . S
C1394 C1382 1.349 . S
C1394 H1388 0.950 . S
C1394 C1395 1.327 . S
C1395 H1389 0.950 . S
C1395 C1394 1.327 . S
C1395 C1399 1.429 . S
C1396 C1379 1.574 . S
C1396 H1390 0.949 . S
C1396 C1400 1.368 . S
C1397 C1378 1.429 . S
C1397 C1391 1.429 . S
C1397 C1398 1.523 . S
C1398 C1379 1.368 . S
C1398 C1392 1.368 . S
C1398 C1397 1.523 . S
C1399 C1383 1.429 . S
C1399 C1395 1.429 . S
C1399 C1400 1.523 . S
C1400 C1384 1.368 . S
C1400 C1396 1.368 . S
C1400 C1399 1.523 . S
H1401 C1376 0.950 . S
H1402 C1378 0.950 . S
H1403 C1379 0.949 . S
H1404 C1381 0.950 . S
H1405 C1383 0.950 . S
C1406 C1407 1.349 . S
C1406 C1408 1.327 . S
C1406 H1431 0.950 . S
C1407 C1406 1.349 . S
C1407 C1423 1.349 . S
C1408 C1406 1.327 . S
C1408 C1427 1.429 . S
C1408 H1432 0.950 . S
C1409 C1426 1.574 1_565 S
C1409 C1428 1.368 . S
C1409 H1433 0.949 . S
H1410 C1414 0.949 . S
C1411 C1412 1.349 . S
C1411 C1413 1.327 . S
C1411 H1434 0.950 . S
C1412 C1411 1.349 . S
C1412 C1424 1.349 . S
C1413 C1411 1.327 . S
C1413 C1429 1.429 . S
C1413 H1435 0.950 . S
C1414 H1410 0.949 . S
C1414 C1422 1.574 . S
C1414 C1430 1.368 . S
H1415 C1423 0.950 . S
H1416 C1421 0.950 . S
H1417 C1422 0.949 . S
H1418 C1424 0.950 . S
H1419 C1425 0.950 1_565 S
H1420 C1426 0.949 . S
C1421 H1416 0.950 . S
C1421 C1423 1.327 . S
C1421 C1427 1.429 . S
C1422 C1414 1.574 . S
C1422 H1417 0.949 . S
C1422 C1428 1.368 . S
C1423 C1407 1.349 . S
C1423 H1415 0.950 . S
C1423 C1421 1.327 . S
C1424 C1412 1.349 . S
C1424 H1418 0.950 . S
C1424 C1425 1.327 . S
C1425 H1419 0.950 1_545 S
C1425 C1424 1.327 . S
C1425 C1429 1.429 . S
C1426 C1409 1.574 1_545 S
C1426 H1420 0.949 . S
C1426 C1430 1.368 1_545 S
C1427 C1408 1.429 . S
C1427 C1421 1.429 . S
C1427 C1428 1.523 . S
C1428 C1409 1.368 . S
C1428 C1422 1.368 . S
C1428 C1427 1.523 . S
C1429 C1413 1.429 . S
C1429 C1425 1.429 . S
C1429 C1430 1.523 1_545 S
C1430 C1414 1.368 . S
C1430 C1426 1.368 1_565 S
C1430 C1429 1.523 1_565 S
H1431 C1406 0.950 . S
H1432 C1408 0.950 . S
H1433 C1409 0.949 . S
H1434 C1411 0.950 . S
H1435 C1413 0.950 . S
C1436 C1437 1.349 . S
C1436 C1438 1.327 . S
C1436 H1461 0.950 . S
C1437 C1436 1.349 . S
C1437 C1453 1.349 . S
C1438 C1436 1.327 . S
C1438 C1457 1.429 . S
C1438 H1462 0.950 . S
C1439 C1456 1.574 . S
C1439 C1458 1.368 . S
C1439 H1463 0.949 . S
H1440 C1444 0.949 . S
C1441 C1442 1.349 . S
C1441 C1443 1.327 . S
C1441 H1464 0.950 . S
C1442 C1441 1.349 . S
C1442 C1454 1.349 . S
C1443 C1441 1.327 . S
C1443 C1459 1.429 . S
C1443 H1465 0.950 . S
C1444 H1440 0.949 . S
C1444 C1452 1.574 . S
C1444 C1460 1.368 . S
H1445 C1453 0.950 . S
H1446 C1451 0.950 . S
H1447 C1452 0.949 1_556 S
H1448 C1454 0.950 . S
H1449 C1455 0.950 . S
H1450 C1456 0.949 . S
C1451 H1446 0.950 . S
C1451 C1453 1.327 . S
C1451 C1457 1.429 . S
C1452 C1444 1.574 . S
C1452 H1447 0.949 1_554 S
C1452 C1458 1.368 . S
C1453 C1437 1.349 . S
C1453 H1445 0.950 . S
C1453 C1451 1.327 . S
C1454 C1442 1.349 . S
C1454 H1448 0.950 . S
C1454 C1455 1.327 . S
C1455 H1449 0.950 . S
C1455 C1454 1.327 . S
C1455 C1459 1.429 . S
C1456 C1439 1.574 . S
C1456 H1450 0.949 . S
C1456 C1460 1.368 . S
C1457 C1438 1.429 . S
C1457 C1451 1.429 . S
C1457 C1458 1.523 1_556 S
C1458 C1439 1.368 . S
C1458 C1452 1.368 . S
C1458 C1457 1.523 1_554 S
C1459 C1443 1.429 . S
C1459 C1455 1.429 . S
C1459 C1460 1.523 . S
C1460 C1444 1.368 . S
C1460 C1456 1.368 . S
C1460 C1459 1.523 . S
H1461 C1436 0.950 . S
H1462 C1438 0.950 . S
H1463 C1439 0.949 . S
H1464 C1441 0.950 . S
H1465 C1443 0.950 . S
C1466 C1467 1.349 . S
C1466 C1468 1.327 . S
C1466 H1491 0.950 . S
C1467 C1466 1.349 . S
C1467 C1483 1.349 . S
C1468 C1466 1.327 . S
C1468 C1487 1.429 . S
C1468 H1492 0.950 . S
C1469 C1486 1.574 . S
C1469 C1488 1.368 . S
C1469 H1493 0.949 . S
H1470 C1474 0.949 . S
C1471 C1472 1.349 . S
C1471 C1473 1.327 . S
C1471 H1494 0.950 . S
C1472 C1471 1.349 . S
C1472 C1484 1.349 . S
C1473 C1471 1.327 . S
C1473 C1489 1.429 . S
C1473 H1495 0.950 . S
C1474 H1470 0.949 . S
C1474 C1482 1.574 . S
C1474 C1490 1.368 . S
H1475 C1483 0.950 . S
H1476 C1481 0.950 1_565 S
H1477 C1482 0.949 . S
H1478 C1484 0.950 . S
H1479 C1485 0.950 . S
H1480 C1486 0.949 . S
C1481 H1476 0.950 1_545 S
C1481 C1483 1.327 . S
C1481 C1487 1.429 . S
C1482 C1474 1.574 . S
C1482 H1477 0.949 . S
C1482 C1488 1.368 . S
C1483 C1467 1.349 . S
C1483 H1475 0.950 . S
C1483 C1481 1.327 . S
C1484 C1472 1.349 . S
C1484 H1478 0.950 . S
C1484 C1485 1.327 . S
C1485 H1479 0.950 . S
C1485 C1484 1.327 . S
C1485 C1489 1.429 . S
C1486 C1469 1.574 . S
C1486 H1480 0.949 . S
C1486 C1490 1.368 . S
C1487 C1468 1.429 . S
C1487 C1481 1.429 . S
C1487 C1488 1.523 1_545 S
C1488 C1469 1.368 . S
C1488 C1482 1.368 . S
C1488 C1487 1.523 1_565 S
C1489 C1473 1.429 . S
C1489 C1485 1.429 . S
C1489 C1490 1.523 . S
C1490 C1474 1.368 . S
C1490 C1486 1.368 . S
C1490 C1489 1.523 . S
H1491 C1466 0.950 . S
H1492 C1468 0.950 . S
H1493 C1469 0.949 . S
H1494 C1471 0.950 . S
H1495 C1473 0.950 . S
C1496 C1497 1.349 . S
C1496 C1498 1.327 . S
C1496 H1521 0.950 . S
C1497 C1496 1.349 . S
C1497 C1513 1.349 . S
C1498 C1496 1.327 . S
C1498 C1517 1.429 . S
C1498 H1522 0.950 . S
C1499 C1516 1.574 . S
C1499 C1518 1.368 . S
C1499 H1523 0.949 . S
H1500 C1504 0.949 . S
C1501 C1502 1.349 . S
C1501 C1503 1.327 . S
C1501 H1524 0.950 . S
C1502 C1501 1.349 . S
C1502 C1514 1.349 . S
C1503 C1501 1.327 . S
C1503 C1519 1.429 . S
C1503 H1525 0.950 . S
C1504 H1500 0.949 . S
C1504 C1512 1.574 . S
C1504 C1520 1.368 . S
H1505 C1513 0.950 . S
H1506 C1511 0.950 . S
H1507 C1512 0.949 . S
H1508 C1514 0.950 . S
H1509 C1515 0.950 . S
H1510 C1516 0.949 . S
C1511 H1506 0.950 . S
C1511 C1513 1.327 . S
C1511 C1517 1.429 . S
C1512 C1504 1.574 . S
C1512 H1507 0.949 . S
C1512 C1518 1.368 . S
C1513 C1497 1.349 . S
C1513 H1505 0.950 . S
C1513 C1511 1.327 . S
C1514 C1502 1.349 . S
C1514 H1508 0.950 . S
C1514 C1515 1.327 . S
C1515 H1509 0.950 . S
C1515 C1514 1.327 . S
C1515 C1519 1.429 . S
C1516 C1499 1.574 . S
C1516 H1510 0.949 . S
C1516 C1520 1.368 . S
C1517 C1498 1.429 . S
C1517 C1511 1.429 . S
C1517 C1518 1.523 . S
C1518 C1499 1.368 . S
C1518 C1512 1.368 . S
C1518 C1517 1.523 . S
C1519 C1503 1.429 . S
C1519 C1515 1.429 . S
C1519 C1520 1.523 . S
C1520 C1504 1.368 . S
C1520 C1516 1.368 . S
C1520 C1519 1.523 . S
H1521 C1496 0.950 . S
H1522 C1498 0.950 . S
H1523 C1499 0.949 . S
H1524 C1501 0.950 . S
H1525 C1503 0.950 . S
C1526 C1527 1.349 . S
C1526 C1528 1.327 . S
C1526 H1551 0.950 . S
C1527 C1526 1.349 . S
C1527 C1543 1.349 . S
C1528 C1526 1.327 . S
C1528 C1547 1.429 . S
C1528 H1552 0.950 . S
C1529 C1546 1.574 . S
C1529 C1548 1.368 . S
C1529 H1553 0.949 . S
H1530 C1534 0.949 . S
C1531 C1532 1.349 . S
C1531 C1533 1.327 . S
C1531 H1554 0.950 . S
C1532 C1531 1.349 . S
C1532 C1544 1.349 . S
C1533 C1531 1.327 . S
C1533 C1549 1.429 . S
C1533 H1555 0.950 . S
C1534 H1530 0.949 . S
C1534 C1542 1.558 1_545 S
C1534 C1550 1.368 . S
H1535 C1543 0.950 . S
H1536 C1541 0.950 . S
H1537 C1542 0.967 . S
H1538 C1544 0.950 . S
H1539 C1545 0.950 . S
H1540 C1546 0.949 . S
C1541 H1536 0.950 . S
C1541 C1543 1.327 . S
C1541 C1547 1.429 . S
C1542 C1534 1.558 1_565 S
C1542 H1537 0.967 . S
C1542 C1548 1.365 1_565 S
C1543 C1527 1.349 . S
C1543 H1535 0.950 . S
C1543 C1541 1.327 . S
C1544 C1532 1.349 . S
C1544 H1538 0.950 . S
C1544 C1545 1.327 . S
C1545 H1539 0.950 . S
C1545 C1544 1.327 . S
C1545 C1549 1.429 . S
C1546 C1529 1.574 . S
C1546 H1540 0.949 . S
C1546 C1550 1.368 . S
C1547 C1528 1.429 . S
C1547 C1541 1.429 . S
C1547 C1548 1.523 1_565 S
C1548 C1529 1.368 . S
C1548 C1542 1.365 1_545 S
C1548 C1547 1.523 1_545 S
C1549 C1533 1.429 . S
C1549 C1545 1.429 . S
C1549 C1550 1.523 . S
C1550 C1534 1.368 . S
C1550 C1546 1.368 . S
C1550 C1549 1.523 . S
H1551 C1526 0.950 . S
H1552 C1528 0.950 . S
H1553 C1529 0.949 . S
H1554 C1531 0.950 . S
H1555 C1533 0.950 . S
C1556 C1557 1.349 . S
C1556 C1558 1.327 . S
C1556 H1581 0.950 . S
C1557 C1556 1.349 . S
C1557 C1573 1.349 . S
C1558 C1556 1.327 . S
C1558 C1577 1.429 1_554 S
C1558 H1582 0.950 1_554 S
C1559 C1576 1.574 . S
C1559 C1578 1.368 . S
C1559 H1583 0.949 . S
H1560 C1564 0.949 . S
C1561 C1562 1.349 . S
C1561 C1563 1.327 . S
C1561 H1584 0.950 . S
C1562 C1561 1.349 . S
C1562 C1574 1.349 . S
C1563 C1561 1.327 . S
C1563 C1579 1.429 . S
C1563 H1585 0.950 . S
C1564 H1560 0.949 . S
C1564 C1572 1.574 . S
C1564 C1580 1.368 . S
H1565 C1573 0.950 . S
H1566 C1571 0.950 . S
H1567 C1572 0.949 . S
H1568 C1574 0.950 . S
H1569 C1575 0.950 . S
H1570 C1576 0.949 . S
C1571 H1566 0.950 . S
C1571 C1573 1.327 1_556 S
C1571 C1577 1.429 . S
C1572 C1564 1.574 . S
C1572 H1567 0.949 . S
C1572 C1578 1.368 . S
C1573 C1557 1.349 . S
C1573 H1565 0.950 . S
C1573 C1571 1.327 1_554 S
C1574 C1562 1.349 . S
C1574 H1568 0.950 . S
C1574 C1575 1.327 . S
C1575 H1569 0.950 . S
C1575 C1574 1.327 . S
C1575 C1579 1.429 . S
C1576 C1559 1.574 . S
C1576 H1570 0.949 . S
C1576 C1580 1.368 . S
C1577 C1558 1.429 1_556 S
C1577 C1571 1.429 . S
C1577 C1578 1.523 . S
C1578 C1559 1.368 . S
C1578 C1572 1.368 . S
C1578 C1577 1.523 . S
C1579 C1563 1.429 . S
C1579 C1575 1.429 . S
C1579 C1580 1.523 . S
C1580 C1564 1.368 . S
C1580 C1576 1.368 . S
C1580 C1579 1.523 . S
H1581 C1556 0.950 . S
H1582 C1558 0.950 1_556 S
H1583 C1559 0.949 . S
H1584 C1561 0.950 . S
H1585 C1563 0.950 . S
C1586 C1587 1.349 . S
C1586 C1588 1.327 . S
C1586 H1611 0.950 . S
C1587 C1586 1.349 . S
C1587 C1603 1.349 . S
C1588 C1586 1.327 . S
C1588 C1607 1.429 . S
C1588 H1612 0.950 . S
C1589 C1606 1.574 1_655 S
C1589 C1608 1.368 . S
C1589 H1613 0.949 . S
H1590 C1594 0.949 . S
C1591 C1592 1.349 . S
C1591 C1593 1.327 . S
C1591 H1614 0.950 . S
C1592 C1591 1.349 . S
C1592 C1604 1.349 . S
C1593 C1591 1.327 . S
C1593 C1609 1.429 . S
C1593 H1615 0.950 . S
C1594 H1590 0.949 . S
C1594 C1602 1.574 . S
C1594 C1610 1.368 . S
H1595 C1603 0.950 . S
H1596 C1601 0.950 . S
H1597 C1602 0.949 . S
H1598 C1604 0.950 . S
H1599 C1605 0.950 1_655 S
H1600 C1606 0.949 . S
C1601 H1596 0.950 . S
C1601 C1603 1.327 . S
C1601 C1607 1.429 . S
C1602 C1594 1.574 . S
C1602 H1597 0.949 . S
C1602 C1608 1.368 . S
C1603 C1587 1.349 . S
C1603 H1595 0.950 . S
C1603 C1601 1.327 . S
C1604 C1592 1.349 . S
C1604 H1598 0.950 . S
C1604 C1605 1.327 . S
C1605 H1599 0.950 1_455 S
C1605 C1604 1.327 . S
C1605 C1609 1.429 . S
C1606 C1589 1.574 1_455 S
C1606 H1600 0.949 . S
C1606 C1610 1.368 1_455 S
C1607 C1588 1.429 . S
C1607 C1601 1.429 . S
C1607 C1608 1.523 . S
C1608 C1589 1.368 . S
C1608 C1602 1.368 . S
C1608 C1607 1.523 . S
C1609 C1593 1.429 . S
C1609 C1605 1.429 . S
C1609 C1610 1.523 1_455 S
C1610 C1594 1.368 . S
C1610 C1606 1.368 1_655 S
C1610 C1609 1.523 1_655 S
H1611 C1586 0.950 . S
H1612 C1588 0.950 . S
H1613 C1589 0.949 . S
H1614 C1591 0.950 . S
H1615 C1593 0.950 . S
C1616 C1617 1.349 . S
C1616 C1618 1.327 . S
C1616 H1641 0.950 . S
C1617 C1616 1.349 . S
C1617 C1633 1.349 . S
C1618 C1616 1.327 . S
C1618 C1637 1.429 . S
C1618 H1642 0.950 . S
C1619 C1636 1.574 . S
C1619 C1638 1.368 . S
C1619 H1643 0.949 . S
H1620 C1624 0.949 . S
C1621 C1622 1.349 . S
C1621 C1623 1.327 . S
C1621 H1644 0.950 . S
C1622 C1621 1.349 . S
C1622 C1634 1.349 . S
C1623 C1621 1.327 . S
C1623 C1639 1.429 . S
C1623 H1645 0.950 . S
C1624 H1620 0.949 . S
C1624 C1632 1.574 . S
C1624 C1640 1.368 . S
H1625 C1633 0.950 . S
H1626 C1631 0.950 . S
H1627 C1632 0.949 . S
H1628 C1634 0.950 . S
H1629 C1635 0.950 . S
H1630 C1636 0.949 . S
C1631 H1626 0.950 . S
C1631 C1633 1.327 . S
C1631 C1637 1.429 . S
C1632 C1624 1.574 . S
C1632 H1627 0.949 . S
C1632 C1638 1.368 . S
C1633 C1617 1.349 . S
C1633 H1625 0.950 . S
C1633 C1631 1.327 . S
C1634 C1622 1.349 . S
C1634 H1628 0.950 . S
C1634 C1635 1.327 . S
C1635 H1629 0.950 . S
C1635 C1634 1.327 . S
C1635 C1639 1.429 . S
C1636 C1619 1.574 . S
C1636 H1630 0.949 . S
C1636 C1640 1.368 . S
C1637 C1618 1.429 . S
C1637 C1631 1.429 . S
C1637 C1638 1.523 . S
C1638 C1619 1.368 . S
C1638 C1632 1.368 . S
C1638 C1637 1.523 . S
C1639 C1623 1.429 . S
C1639 C1635 1.429 . S
C1639 C1640 1.523 . S
C1640 C1624 1.368 . S
C1640 C1636 1.368 . S
C1640 C1639 1.523 . S
H1641 C1616 0.950 . S
H1642 C1618 0.950 . S
H1643 C1619 0.949 . S
H1644 C1621 0.950 . S
H1645 C1623 0.950 . S
C1646 C1647 1.349 . S
C1646 C1648 1.327 . S
C1646 H1671 0.950 . S
C1647 C1646 1.349 . S
C1647 C1663 1.349 . S
C1648 C1646 1.327 . S
C1648 C1667 1.429 . S
C1648 H1672 0.950 . S
C1649 C1666 1.574 . S
C1649 C1668 1.368 . S
C1649 H1673 0.949 . S
H1650 C1654 0.949 . S
C1651 C1652 1.349 . S
C1651 C1653 1.327 . S
C1651 H1674 0.950 . S
C1652 C1651 1.349 . S
C1652 C1664 1.349 . S
C1653 C1651 1.327 . S
C1653 C1669 1.429 . S
C1653 H1675 0.950 . S
C1654 H1650 0.949 . S
C1654 C1662 1.574 . S
C1654 C1670 1.368 . S
H1655 C1663 0.950 . S
H1656 C1661 0.950 . S
H1657 C1662 0.949 . S
H1658 C1664 0.950 . S
H1659 C1665 0.950 1_455 S
H1660 C1666 0.949 . S
C1661 H1656 0.950 . S
C1661 C1663 1.327 . S
C1661 C1667 1.429 . S
C1662 C1654 1.574 . S
C1662 H1657 0.949 . S
C1662 C1668 1.368 . S
C1663 C1647 1.349 . S
C1663 H1655 0.950 . S
C1663 C1661 1.327 . S
C1664 C1652 1.349 . S
C1664 H1658 0.950 . S
C1664 C1665 1.327 . S
C1665 H1659 0.950 1_655 S
C1665 C1664 1.327 . S
C1665 C1669 1.429 . S
C1666 C1649 1.574 . S
C1666 H1660 0.949 . S
C1666 C1670 1.368 . S
C1667 C1648 1.429 . S
C1667 C1661 1.429 . S
C1667 C1668 1.523 . S
C1668 C1649 1.368 . S
C1668 C1662 1.368 . S
C1668 C1667 1.523 . S
C1669 C1653 1.429 . S
C1669 C1665 1.429 . S
C1669 C1670 1.523 1_655 S
C1670 C1654 1.368 . S
C1670 C1666 1.368 . S
C1670 C1669 1.523 1_455 S
H1671 C1646 0.950 . S
H1672 C1648 0.950 . S
H1673 C1649 0.949 . S
H1674 C1651 0.950 . S
H1675 C1653 0.950 . S
C1676 C1677 1.349 . S
C1676 C1678 1.327 . S
C1676 H1701 0.950 . S
C1677 C1676 1.349 . S
C1677 C1693 1.349 . S
C1678 C1676 1.327 . S
C1678 C1697 1.429 . S
C1678 H1702 0.950 . S
C1679 C1696 1.574 . S
C1679 C1698 1.368 1_655 S
C1679 H1703 0.949 . S
H1680 C1684 0.949 . S
C1681 C1682 1.349 . S
C1681 C1683 1.327 . S
C1681 H1704 0.950 . S
C1682 C1681 1.349 . S
C1682 C1694 1.349 . S
C1683 C1681 1.327 . S
C1683 C1699 1.429 . S
C1683 H1705 0.950 . S
C1684 H1680 0.949 . S
C1684 C1692 1.574 . S
C1684 C1700 1.368 1_455 S
H1685 C1693 0.950 . S
H1686 C1691 0.950 1_655 S
H1687 C1692 0.949 . S
H1688 C1694 0.950 . S
H1689 C1695 0.950 . S
H1690 C1696 0.949 . S
C1691 H1686 0.950 1_455 S
C1691 C1693 1.327 . S
C1691 C1697 1.429 . S
C1692 C1684 1.574 . S
C1692 H1687 0.949 . S
C1692 C1698 1.368 . S
C1693 C1677 1.349 . S
C1693 H1685 0.950 . S
C1693 C1691 1.327 . S
C1694 C1682 1.349 . S
C1694 H1688 0.950 . S
C1694 C1695 1.327 . S
C1695 H1689 0.950 . S
C1695 C1694 1.327 . S
C1695 C1699 1.429 . S
C1696 C1679 1.574 . S
C1696 H1690 0.949 . S
C1696 C1700 1.368 . S
C1697 C1678 1.429 . S
C1697 C1691 1.429 . S
C1697 C1698 1.523 . S
C1698 C1679 1.368 1_455 S
C1698 C1692 1.368 . S
C1698 C1697 1.523 . S
C1699 C1683 1.429 . S
C1699 C1695 1.429 . S
C1699 C1700 1.523 . S
C1700 C1684 1.368 1_655 S
C1700 C1696 1.368 . S
C1700 C1699 1.523 . S
H1701 C1676 0.950 . S
H1702 C1678 0.950 . S
H1703 C1679 0.949 . S
H1704 C1681 0.950 . S
H1705 C1683 0.950 . S
C1706 C1707 1.349 . S
C1706 C1708 1.327 . S
C1706 H1731 0.950 . S
C1707 C1706 1.349 . S
C1707 C1723 1.349 . S
C1708 C1706 1.327 . S
C1708 C1727 1.429 . S
C1708 H1732 0.950 . S
C1709 C1726 1.574 . S
C1709 C1728 1.368 . S
C1709 H1733 0.949 . S
H1710 C1714 0.949 . S
C1711 C1712 1.349 . S
C1711 C1713 1.327 . S
C1711 H1734 0.950 . S
C1712 C1711 1.349 . S
C1712 C1724 1.349 . S
C1713 C1711 1.327 . S
C1713 C1729 1.429 . S
C1713 H1735 0.950 . S
C1714 H1710 0.949 . S
C1714 C1722 1.574 . S
C1714 C1730 1.368 . S
H1715 C1723 0.950 . S
H1716 C1721 0.950 . S
H1717 C1722 0.949 . S
H1718 C1724 0.950 . S
H1719 C1725 0.950 . S
H1720 C1726 0.949 . S
C1721 H1716 0.950 . S
C1721 C1723 1.327 . S
C1721 C1727 1.429 . S
C1722 C1714 1.574 . S
C1722 H1717 0.949 . S
C1722 C1728 1.368 . S
C1723 C1707 1.349 . S
C1723 H1715 0.950 . S
C1723 C1721 1.327 . S
C1724 C1712 1.349 . S
C1724 H1718 0.950 . S
C1724 C1725 1.327 . S
C1725 H1719 0.950 . S
C1725 C1724 1.327 . S
C1725 C1729 1.429 . S
C1726 C1709 1.574 . S
C1726 H1720 0.949 . S
C1726 C1730 1.368 . S
C1727 C1708 1.429 . S
C1727 C1721 1.429 . S
C1727 C1728 1.523 . S
C1728 C1709 1.368 . S
C1728 C1722 1.368 . S
C1728 C1727 1.523 . S
C1729 C1713 1.429 . S
C1729 C1725 1.429 . S
C1729 C1730 1.523 . S
C1730 C1714 1.368 . S
C1730 C1726 1.368 . S
C1730 C1729 1.523 . S
H1731 C1706 0.950 . S
H1732 C1708 0.950 . S
H1733 C1709 0.949 . S
H1734 C1711 0.950 . S
H1735 C1713 0.950 . S
C1736 C1737 1.349 . S
C1736 C1738 1.327 . S
C1736 H1761 0.950 . S
C1737 C1736 1.349 . S
C1737 C1753 1.349 . S
C1738 C1736 1.327 . S
C1738 C1757 1.429 . S
C1738 H1762 0.950 . S
C1739 C1756 1.574 . S
C1739 C1758 1.368 . S
C1739 H1763 0.949 . S
H1740 C1744 0.949 . S
C1741 C1742 1.349 . S
C1741 C1743 1.327 . S
C1741 H1764 0.950 . S
C1742 C1741 1.349 . S
C1742 C1754 1.349 . S
C1743 C1741 1.327 . S
C1743 C1759 1.429 . S
C1743 H1765 0.950 . S
C1744 H1740 0.949 . S
C1744 C1752 1.574 . S
C1744 C1760 1.368 . S
H1745 C1753 0.950 . S
H1746 C1751 0.950 . S
H1747 C1752 0.949 . S
H1748 C1754 0.950 . S
H1749 C1755 0.950 1_655 S
H1750 C1756 0.949 1_455 S
C1751 H1746 0.950 . S
C1751 C1753 1.327 . S
C1751 C1757 1.429 . S
C1752 C1744 1.574 . S
C1752 H1747 0.949 . S
C1752 C1758 1.368 . S
C1753 C1737 1.349 . S
C1753 H1745 0.950 . S
C1753 C1751 1.327 . S
C1754 C1742 1.349 . S
C1754 H1748 0.950 . S
C1754 C1755 1.327 . S
C1755 H1749 0.950 1_455 S
C1755 C1754 1.327 . S
C1755 C1759 1.429 . S
C1756 C1739 1.574 . S
C1756 H1750 0.949 1_655 S
C1756 C1760 1.368 . S
C1757 C1738 1.429 . S
C1757 C1751 1.429 . S
C1757 C1758 1.523 . S
C1758 C1739 1.368 . S
C1758 C1752 1.368 . S
C1758 C1757 1.523 . S
C1759 C1743 1.429 . S
C1759 C1755 1.429 . S
C1759 C1760 1.523 1_455 S
C1760 C1744 1.368 . S
C1760 C1756 1.368 . S
C1760 C1759 1.523 1_655 S
H1761 C1736 0.950 . S
H1762 C1738 0.950 . S
H1763 C1739 0.949 . S
H1764 C1741 0.950 . S
H1765 C1743 0.950 . S
C1766 C1767 1.349 . S
C1766 C1768 1.327 . S
C1766 H1791 0.950 . S
C1767 C1766 1.349 . S
C1767 C1783 1.349 . S
C1768 C1766 1.327 . S
C1768 C1787 1.429 . S
C1768 H1792 0.950 . S
C1769 C1786 1.574 . S
C1769 C1788 1.368 . S
C1769 H1793 0.949 . S
H1770 C1774 0.949 . S
C1771 C1772 1.349 . S
C1771 C1773 1.327 . S
C1771 H1794 0.950 . S
C1772 C1771 1.349 . S
C1772 C1784 1.349 . S
C1773 C1771 1.327 . S
C1773 C1789 1.429 . S
C1773 H1795 0.950 . S
C1774 H1770 0.949 . S
C1774 C1782 1.574 . S
C1774 C1790 1.368 . S
H1775 C1783 0.950 . S
H1776 C1781 0.950 . S
H1777 C1782 0.949 . S
H1778 C1784 0.950 . S
H1779 C1785 0.950 . S
H1780 C1786 0.949 . S
C1781 H1776 0.950 . S
C1781 C1783 1.327 . S
C1781 C1787 1.429 . S
C1782 C1774 1.574 . S
C1782 H1777 0.949 . S
C1782 C1788 1.368 . S
C1783 C1767 1.349 . S
C1783 H1775 0.950 . S
C1783 C1781 1.327 . S
C1784 C1772 1.349 . S
C1784 H1778 0.950 . S
C1784 C1785 1.327 . S
C1785 H1779 0.950 . S
C1785 C1784 1.327 . S
C1785 C1789 1.429 . S
C1786 C1769 1.574 . S
C1786 H1780 0.949 . S
C1786 C1790 1.368 . S
C1787 C1768 1.429 . S
C1787 C1781 1.429 . S
C1787 C1788 1.523 . S
C1788 C1769 1.368 . S
C1788 C1782 1.368 . S
C1788 C1787 1.523 . S
C1789 C1773 1.429 . S
C1789 C1785 1.429 . S
C1789 C1790 1.523 . S
C1790 C1774 1.368 . S
C1790 C1786 1.368 . S
C1790 C1789 1.523 . S
H1791 C1766 0.950 . S
H1792 C1768 0.950 . S
H1793 C1769 0.949 . S
H1794 C1771 0.950 . S
H1795 C1773 0.950 . S
C1796 C1797 1.349 . S
C1796 C1798 1.327 . S
C1796 H1821 0.950 . S
C1797 C1796 1.349 . S
C1797 C1813 1.349 . S
C1798 C1796 1.327 . S
C1798 C1817 1.429 . S
C1798 H1822 0.950 . S
C1799 C1816 1.574 . S
C1799 C1818 1.368 . S
C1799 H1823 0.949 . S
H1800 C1804 0.949 . S
C1801 C1802 1.349 . S
C1801 C1803 1.327 . S
C1801 H1824 0.950 . S
C1802 C1801 1.349 . S
C1802 C1814 1.349 . S
C1803 C1801 1.327 . S
C1803 C1819 1.429 . S
C1803 H1825 0.950 . S
C1804 H1800 0.949 . S
C1804 C1812 1.574 . S
C1804 C1820 1.368 . S
H1805 C1813 0.950 . S
H1806 C1811 0.950 . S
H1807 C1812 0.949 . S
H1808 C1814 0.950 . S
H1809 C1815 0.950 . S
H1810 C1816 0.949 . S
C1811 H1806 0.950 . S
C1811 C1813 1.327 . S
C1811 C1817 1.429 . S
C1812 C1804 1.574 . S
C1812 H1807 0.949 . S
C1812 C1818 1.368 . S
C1813 C1797 1.349 . S
C1813 H1805 0.950 . S
C1813 C1811 1.327 . S
C1814 C1802 1.349 . S
C1814 H1808 0.950 . S
C1814 C1815 1.327 . S
C1815 H1809 0.950 . S
C1815 C1814 1.327 . S
C1815 C1819 1.429 . S
C1816 C1799 1.574 . S
C1816 H1810 0.949 . S
C1816 C1820 1.368 . S
C1817 C1798 1.429 . S
C1817 C1811 1.429 . S
C1817 C1818 1.523 . S
C1818 C1799 1.368 . S
C1818 C1812 1.368 . S
C1818 C1817 1.523 . S
C1819 C1803 1.429 . S
C1819 C1815 1.429 . S
C1819 C1820 1.523 . S
C1820 C1804 1.368 . S
C1820 C1816 1.368 . S
C1820 C1819 1.523 . S
H1821 C1796 0.950 . S
H1822 C1798 0.950 . S
H1823 C1799 0.949 . S
H1824 C1801 0.950 . S
H1825 C1803 0.950 . S
C1826 C1827 1.349 . S
C1826 C1828 1.327 . S
C1826 H1851 0.950 . S
C1827 C1826 1.349 . S
C1827 C1843 1.349 . S
C1828 C1826 1.327 . S
C1828 C1847 1.429 . S
C1828 H1852 0.950 . S
C1829 C1846 1.574 . S
C1829 C1848 1.368 . S
C1829 H1853 0.949 . S
H1830 C1834 0.949 . S
C1831 C1832 1.349 . S
C1831 C1833 1.327 . S
C1831 H1854 0.950 . S
C1832 C1831 1.349 . S
C1832 C1844 1.349 . S
C1833 C1831 1.327 . S
C1833 C1849 1.429 . S
C1833 H1855 0.950 . S
C1834 H1830 0.949 . S
C1834 C1842 1.574 . S
C1834 C1850 1.368 . S
H1835 C1843 0.950 . S
H1836 C1841 0.950 . S
H1837 C1842 0.949 1_554 S
H1838 C1844 0.950 . S
H1839 C1845 0.950 . S
H1840 C1846 0.949 . S
C1841 H1836 0.950 . S
C1841 C1843 1.327 . S
C1841 C1847 1.429 . S
C1842 C1834 1.574 . S
C1842 H1837 0.949 1_556 S
C1842 C1848 1.368 . S
C1843 C1827 1.349 . S
C1843 H1835 0.950 . S
C1843 C1841 1.327 . S
C1844 C1832 1.349 . S
C1844 H1838 0.950 . S
C1844 C1845 1.327 . S
C1845 H1839 0.950 . S
C1845 C1844 1.327 . S
C1845 C1849 1.429 . S
C1846 C1829 1.574 . S
C1846 H1840 0.949 . S
C1846 C1850 1.368 . S
C1847 C1828 1.429 . S
C1847 C1841 1.429 . S
C1847 C1848 1.523 1_554 S
C1848 C1829 1.368 . S
C1848 C1842 1.368 . S
C1848 C1847 1.523 1_556 S
C1849 C1833 1.429 . S
C1849 C1845 1.429 . S
C1849 C1850 1.523 . S
C1850 C1834 1.368 . S
C1850 C1846 1.368 . S
C1850 C1849 1.523 . S
H1851 C1826 0.950 . S
H1852 C1828 0.950 . S
H1853 C1829 0.949 . S
H1854 C1831 0.950 . S
H1855 C1833 0.950 . S
C1856 C1857 1.349 . S
C1856 C1858 1.327 . S
C1856 H1881 0.950 . S
C1857 C1856 1.349 . S
C1857 C1873 1.349 . S
C1858 C1856 1.327 . S
C1858 C1877 1.429 . S
C1858 H1882 0.950 . S
C1859 C1876 1.574 . S
C1859 C1878 1.368 . S
C1859 H1883 0.949 . S
H1860 C1864 0.949 . S
C1861 C1862 1.349 . S
C1861 C1863 1.327 . S
C1861 H1884 0.950 . S
C1862 C1861 1.349 . S
C1862 C1874 1.349 . S
C1863 C1861 1.327 . S
C1863 C1879 1.429 . S
C1863 H1885 0.950 . S
C1864 H1860 0.949 . S
C1864 C1872 1.574 . S
C1864 C1880 1.368 . S
H1865 C1873 0.950 . S
H1866 C1871 0.950 . S
H1867 C1872 0.949 . S
H1868 C1874 0.950 . S
H1869 C1875 0.950 . S
H1870 C1876 0.949 . S
C1871 H1866 0.950 . S
C1871 C1873 1.327 . S
C1871 C1877 1.429 . S
C1872 C1864 1.574 . S
C1872 H1867 0.949 . S
C1872 C1878 1.368 . S
C1873 C1857 1.349 . S
C1873 H1865 0.950 . S
C1873 C1871 1.327 . S
C1874 C1862 1.349 . S
C1874 H1868 0.950 . S
C1874 C1875 1.327 . S
C1875 H1869 0.950 . S
C1875 C1874 1.327 . S
C1875 C1879 1.429 . S
C1876 C1859 1.574 . S
C1876 H1870 0.949 . S
C1876 C1880 1.368 . S
C1877 C1858 1.429 . S
C1877 C1871 1.429 . S
C1877 C1878 1.523 . S
C1878 C1859 1.368 . S
C1878 C1872 1.368 . S
C1878 C1877 1.523 . S
C1879 C1863 1.429 . S
C1879 C1875 1.429 . S
C1879 C1880 1.523 . S
C1880 C1864 1.368 . S
C1880 C1876 1.368 . S
C1880 C1879 1.523 . S
H1881 C1856 0.950 . S
H1882 C1858 0.950 . S
H1883 C1859 0.949 . S
H1884 C1861 0.950 . S
H1885 C1863 0.950 . S
C1886 C1887 1.349 . S
C1886 C1888 1.327 . S
C1886 H1911 0.950 . S
C1887 C1886 1.349 . S
C1887 C1903 1.349 . S
C1888 C1886 1.327 . S
C1888 C1907 1.429 . S
C1888 H1912 0.950 . S
C1889 C1906 1.574 . S
C1889 C1908 1.368 . S
C1889 H1913 0.949 . S
H1890 C1894 0.949 . S
C1891 C1892 1.349 . S
C1891 C1893 1.327 . S
C1891 H1914 0.950 . S
C1892 C1891 1.349 . S
C1892 C1904 1.349 . S
C1893 C1891 1.327 . S
C1893 C1909 1.429 . S
C1893 H1915 0.950 . S
C1894 H1890 0.949 . S
C1894 C1902 1.574 . S
C1894 C1910 1.368 . S
H1895 C1903 0.950 . S
H1896 C1901 0.950 . S
H1897 C1902 0.949 . S
H1898 C1904 0.950 . S
H1899 C1905 0.950 . S
H1900 C1906 0.949 . S
C1901 H1896 0.950 . S
C1901 C1903 1.327 . S
C1901 C1907 1.429 . S
C1902 C1894 1.574 . S
C1902 H1897 0.949 . S
C1902 C1908 1.368 . S
C1903 C1887 1.349 . S
C1903 H1895 0.950 . S
C1903 C1901 1.327 . S
C1904 C1892 1.349 . S
C1904 H1898 0.950 . S
C1904 C1905 1.327 . S
C1905 H1899 0.950 . S
C1905 C1904 1.327 . S
C1905 C1909 1.429 . S
C1906 C1889 1.574 . S
C1906 H1900 0.949 . S
C1906 C1910 1.368 . S
C1907 C1888 1.429 . S
C1907 C1901 1.429 . S
C1907 C1908 1.523 . S
C1908 C1889 1.368 . S
C1908 C1902 1.368 . S
C1908 C1907 1.523 . S
C1909 C1893 1.429 . S
C1909 C1905 1.429 . S
C1909 C1910 1.523 . S
C1910 C1894 1.368 . S
C1910 C1906 1.368 . S
C1910 C1909 1.523 . S
H1911 C1886 0.950 . S
H1912 C1888 0.950 . S
H1913 C1889 0.949 . S
H1914 C1891 0.950 . S
H1915 C1893 0.950 . S
C1916 C1917 1.349 . S
C1916 C1918 1.327 . S
C1916 H1941 0.950 . S
C1917 C1916 1.349 . S
C1917 C1933 1.349 . S
C1918 C1916 1.327 . S
C1918 C1937 1.429 . S
C1918 H1942 0.950 . S
C1919 C1936 1.574 . S
C1919 C1938 1.368 . S
C1919 H1943 0.949 . S
H1920 C1924 0.949 . S
C1921 C1922 1.349 . S
C1921 C1923 1.327 . S
C1921 H1944 0.950 . S
C1922 C1921 1.349 . S
C1922 C1934 1.349 . S
C1923 C1921 1.327 . S
C1923 C1939 1.429 . S
C1923 H1945 0.950 . S
C1924 H1920 0.949 . S
C1924 C1932 1.574 . S
C1924 C1940 1.368 . S
H1925 C1933 0.950 . S
H1926 C1931 0.950 . S
H1927 C1932 0.949 . S
H1928 C1934 0.950 . S
H1929 C1935 0.950 . S
H1930 C1936 0.949 . S
C1931 H1926 0.950 . S
C1931 C1933 1.327 . S
C1931 C1937 1.429 . S
C1932 C1924 1.574 . S
C1932 H1927 0.949 . S
C1932 C1938 1.368 . S
C1933 C1917 1.349 . S
C1933 H1925 0.950 . S
C1933 C1931 1.327 . S
C1934 C1922 1.349 . S
C1934 H1928 0.950 . S
C1934 C1935 1.327 . S
C1935 H1929 0.950 . S
C1935 C1934 1.327 . S
C1935 C1939 1.429 . S
C1936 C1919 1.574 . S
C1936 H1930 0.949 . S
C1936 C1940 1.368 . S
C1937 C1918 1.429 . S
C1937 C1931 1.429 . S
C1937 C1938 1.523 . S
C1938 C1919 1.368 . S
C1938 C1932 1.368 . S
C1938 C1937 1.523 . S
C1939 C1923 1.429 . S
C1939 C1935 1.429 . S
C1939 C1940 1.523 . S
C1940 C1924 1.368 . S
C1940 C1936 1.368 . S
C1940 C1939 1.523 . S
H1941 C1916 0.950 . S
H1942 C1918 0.950 . S
H1943 C1919 0.949 . S
H1944 C1921 0.950 . S
H1945 C1923 0.950 . S
C1946 C1947 1.349 . S
C1946 C1948 1.327 . S
C1946 H1971 0.950 . S
C1947 C1946 1.349 . S
C1947 C1963 1.349 . S
C1948 C1946 1.327 . S
C1948 C1967 1.429 . S
C1948 H1972 0.950 . S
C1949 C1966 1.574 . S
C1949 C1968 1.368 . S
C1949 H1973 0.949 . S
H1950 C1954 0.949 . S
C1951 C1952 1.349 . S
C1951 C1953 1.327 . S
C1951 H1974 0.950 . S
C1952 C1951 1.349 . S
C1952 C1964 1.349 . S
C1953 C1951 1.327 . S
C1953 C1969 1.429 1_556 S
C1953 H1975 0.950 1_556 S
C1954 H1950 0.949 . S
C1954 C1962 1.574 . S
C1954 C1970 1.368 . S
H1955 C1963 0.950 . S
H1956 C1961 0.950 . S
H1957 C1962 0.949 . S
H1958 C1964 0.950 . S
H1959 C1965 0.950 . S
H1960 C1966 0.949 . S
C1961 H1956 0.950 . S
C1961 C1963 1.327 . S
C1961 C1967 1.429 . S
C1962 C1954 1.574 . S
C1962 H1957 0.949 . S
C1962 C1968 1.368 . S
C1963 C1947 1.349 . S
C1963 H1955 0.950 . S
C1963 C1961 1.327 . S
C1964 C1952 1.349 . S
C1964 H1958 0.950 . S
C1964 C1965 1.327 . S
C1965 H1959 0.950 . S
C1965 C1964 1.327 . S
C1965 C1969 1.429 1_556 S
C1966 C1949 1.574 . S
C1966 H1960 0.949 . S
C1966 C1970 1.368 . S
C1967 C1948 1.429 . S
C1967 C1961 1.429 . S
C1967 C1968 1.523 . S
C1968 C1949 1.368 . S
C1968 C1962 1.368 . S
C1968 C1967 1.523 . S
C1969 C1953 1.429 1_554 S
C1969 C1965 1.429 1_554 S
C1969 C1970 1.523 . S
C1970 C1954 1.368 . S
C1970 C1966 1.368 . S
C1970 C1969 1.523 . S
H1971 C1946 0.950 . S
H1972 C1948 0.950 . S
H1973 C1949 0.949 . S
H1974 C1951 0.950 . S
H1975 C1953 0.950 1_554 S
C1976 C1977 1.349 . S
C1976 C1978 1.327 . S
C1976 H2001 0.950 . S
C1977 C1976 1.349 . S
C1977 C1993 1.349 . S
C1978 C1976 1.327 . S
C1978 C1997 1.429 . S
C1978 H2002 0.950 . S
C1979 C1996 1.574 . S
C1979 C1998 1.368 . S
C1979 H2003 0.949 . S
H1980 C1984 0.949 . S
C1981 C1982 1.349 . S
C1981 C1983 1.327 . S
C1981 H2004 0.950 . S
C1982 C1981 1.349 . S
C1982 C1994 1.349 . S
C1983 C1981 1.327 . S
C1983 C1999 1.429 . S
C1983 H2005 0.950 . S
C1984 H1980 0.949 . S
C1984 C1992 1.574 . S
C1984 C2000 1.368 . S
H1985 C1993 0.950 . S
H1986 C1991 0.950 . S
H1987 C1992 0.949 . S
H1988 C1994 0.950 . S
H1989 C1995 0.950 . S
H1990 C1996 0.949 . S
C1991 H1986 0.950 . S
C1991 C1993 1.327 . S
C1991 C1997 1.429 . S
C1992 C1984 1.574 . S
C1992 H1987 0.949 . S
C1992 C1998 1.368 . S
C1993 C1977 1.349 . S
C1993 H1985 0.950 . S
C1993 C1991 1.327 . S
C1994 C1982 1.349 . S
C1994 H1988 0.950 . S
C1994 C1995 1.327 . S
C1995 H1989 0.950 . S
C1995 C1994 1.327 . S
C1995 C1999 1.429 . S
C1996 C1979 1.574 . S
C1996 H1990 0.949 . S
C1996 C2000 1.368 . S
C1997 C1978 1.429 . S
C1997 C1991 1.429 . S
C1997 C1998 1.523 . S
C1998 C1979 1.368 . S
C1998 C1992 1.368 . S
C1998 C1997 1.523 . S
C1999 C1983 1.429 . S
C1999 C1995 1.429 . S
C1999 C2000 1.523 . S
C2000 C1984 1.368 . S
C2000 C1996 1.368 . S
C2000 C1999 1.523 . S
H2001 C1976 0.950 . S
H2002 C1978 0.950 . S
H2003 C1979 0.949 . S
H2004 C1981 0.950 . S
H2005 C1983 0.950 . S
C2006 C2007 1.349 . S
C2006 C2008 1.327 . S
C2006 H2031 0.950 . S
C2007 C2006 1.349 . S
C2007 C2023 1.349 . S
C2008 C2006 1.327 . S
C2008 C2027 1.429 . S
C2008 H2032 0.950 . S
C2009 C2026 1.574 . S
C2009 C2028 1.368 . S
C2009 H2033 0.949 . S
H2010 C2014 0.949 . S
C2011 C2012 1.349 . S
C2011 C2013 1.327 . S
C2011 H2034 0.950 . S
C2012 C2011 1.349 . S
C2012 C2024 1.349 . S
C2013 C2011 1.327 . S
C2013 C2029 1.429 . S
C2013 H2035 0.950 . S
C2014 H2010 0.949 . S
C2014 C2022 1.574 . S
C2014 C2030 1.368 . S
H2015 C2023 0.950 . S
H2016 C2021 0.950 . S
H2017 C2022 0.949 . S
H2018 C2024 0.950 . S
H2019 C2025 0.950 . S
H2020 C2026 0.949 . S
C2021 H2016 0.950 . S
C2021 C2023 1.327 . S
C2021 C2027 1.429 . S
C2022 C2014 1.574 . S
C2022 H2017 0.949 . S
C2022 C2028 1.368 . S
C2023 C2007 1.349 . S
C2023 H2015 0.950 . S
C2023 C2021 1.327 . S
C2024 C2012 1.349 . S
C2024 H2018 0.950 . S
C2024 C2025 1.327 . S
C2025 H2019 0.950 . S
C2025 C2024 1.327 . S
C2025 C2029 1.429 . S
C2026 C2009 1.574 . S
C2026 H2020 0.949 . S
C2026 C2030 1.368 . S
C2027 C2008 1.429 . S
C2027 C2021 1.429 . S
C2027 C2028 1.523 . S
C2028 C2009 1.368 . S
C2028 C2022 1.368 . S
C2028 C2027 1.523 . S
C2029 C2013 1.429 . S
C2029 C2025 1.429 . S
C2029 C2030 1.523 . S
C2030 C2014 1.368 . S
C2030 C2026 1.368 . S
C2030 C2029 1.523 . S
H2031 C2006 0.950 . S
H2032 C2008 0.950 . S
H2033 C2009 0.949 . S
H2034 C2011 0.950 . S
H2035 C2013 0.950 . S
C2036 C2037 1.349 . S
C2036 C2038 1.327 . S
C2036 H2061 0.950 . S
C2037 C2036 1.349 . S
C2037 C2053 1.349 . S
C2038 C2036 1.327 . S
C2038 C2057 1.429 . S
C2038 H2062 0.950 . S
C2039 C2056 1.574 . S
C2039 C2058 1.368 . S
C2039 H2063 0.949 . S
H2040 C2044 0.949 . S
C2041 C2042 1.349 . S
C2041 C2043 1.327 . S
C2041 H2064 0.950 . S
C2042 C2041 1.349 . S
C2042 C2054 1.349 . S
C2043 C2041 1.327 . S
C2043 C2059 1.429 . S
C2043 H2065 0.950 . S
C2044 H2040 0.949 . S
C2044 C2052 1.574 . S
C2044 C2060 1.368 . S
H2045 C2053 0.950 . S
H2046 C2051 0.950 . S
H2047 C2052 0.949 . S
H2048 C2054 0.950 . S
H2049 C2055 0.950 . S
H2050 C2056 0.949 . S
C2051 H2046 0.950 . S
C2051 C2053 1.327 . S
C2051 C2057 1.429 . S
C2052 C2044 1.574 . S
C2052 H2047 0.949 . S
C2052 C2058 1.368 . S
C2053 C2037 1.349 . S
C2053 H2045 0.950 . S
C2053 C2051 1.327 . S
C2054 C2042 1.349 . S
C2054 H2048 0.950 . S
C2054 C2055 1.327 . S
C2055 H2049 0.950 . S
C2055 C2054 1.327 . S
C2055 C2059 1.429 . S
C2056 C2039 1.574 . S
C2056 H2050 0.949 . S
C2056 C2060 1.368 . S
C2057 C2038 1.429 . S
C2057 C2051 1.429 . S
C2057 C2058 1.523 . S
C2058 C2039 1.368 . S
C2058 C2052 1.368 . S
C2058 C2057 1.523 . S
C2059 C2043 1.429 . S
C2059 C2055 1.429 . S
C2059 C2060 1.523 . S
C2060 C2044 1.368 . S
C2060 C2056 1.368 . S
C2060 C2059 1.523 . S
H2061 C2036 0.950 . S
H2062 C2038 0.950 . S
H2063 C2039 0.949 . S
H2064 C2041 0.950 . S
H2065 C2043 0.950 . S
C2066 C2067 1.349 . S
C2066 C2068 1.327 . S
C2066 H2091 0.950 . S
C2067 C2066 1.349 . S
C2067 C2083 1.349 . S
C2068 C2066 1.327 . S
C2068 C2087 1.429 . S
C2068 H2092 0.950 . S
C2069 C2086 1.574 . S
C2069 C2088 1.368 . S
C2069 H2093 0.949 . S
H2070 C2074 0.949 . S
C2071 C2072 1.349 . S
C2071 C2073 1.327 . S
C2071 H2094 0.950 . S
C2072 C2071 1.349 . S
C2072 C2084 1.349 . S
C2073 C2071 1.327 . S
C2073 C2089 1.429 . S
C2073 H2095 0.950 . S
C2074 H2070 0.949 . S
C2074 C2082 1.574 . S
C2074 C2090 1.368 . S
H2075 C2083 0.950 . S
H2076 C2081 0.950 . S
H2077 C2082 0.949 . S
H2078 C2084 0.950 . S
H2079 C2085 0.950 . S
H2080 C2086 0.949 . S
C2081 H2076 0.950 . S
C2081 C2083 1.327 . S
C2081 C2087 1.429 . S
C2082 C2074 1.574 . S
C2082 H2077 0.949 . S
C2082 C2088 1.368 . S
C2083 C2067 1.349 . S
C2083 H2075 0.950 . S
C2083 C2081 1.327 . S
C2084 C2072 1.349 . S
C2084 H2078 0.950 . S
C2084 C2085 1.327 . S
C2085 H2079 0.950 . S
C2085 C2084 1.327 . S
C2085 C2089 1.429 . S
C2086 C2069 1.574 . S
C2086 H2080 0.949 . S
C2086 C2090 1.368 . S
C2087 C2068 1.429 . S
C2087 C2081 1.429 . S
C2087 C2088 1.523 . S
C2088 C2069 1.368 . S
C2088 C2082 1.368 . S
C2088 C2087 1.523 . S
C2089 C2073 1.429 . S
C2089 C2085 1.429 . S
C2089 C2090 1.523 . S
C2090 C2074 1.368 . S
C2090 C2086 1.368 . S
C2090 C2089 1.523 . S
H2091 C2066 0.950 . S
H2092 C2068 0.950 . S
H2093 C2069 0.949 . S
H2094 C2071 0.950 . S
H2095 C2073 0.950 . S
C2096 C2097 1.349 . S
C2096 C2098 1.327 . S
C2096 H2121 0.950 . S
C2097 C2096 1.349 . S
C2097 C2113 1.349 . S
C2098 C2096 1.327 . S
C2098 C2117 1.429 . S
C2098 H2122 0.950 . S
C2099 C2116 1.574 . S
C2099 C2118 1.368 . S
C2099 H2123 0.949 . S
H2100 C2104 0.949 . S
C2101 C2102 1.349 . S
C2101 C2103 1.327 . S
C2101 H2124 0.950 . S
C2102 C2101 1.349 . S
C2102 C2114 1.349 . S
C2103 C2101 1.327 . S
C2103 C2119 1.429 . S
C2103 H2125 0.950 . S
C2104 H2100 0.949 . S
C2104 C2112 1.574 . S
C2104 C2120 1.368 . S
H2105 C2113 0.950 . S
H2106 C2111 0.950 . S
H2107 C2112 0.949 . S
H2108 C2114 0.950 . S
H2109 C2115 0.950 1_554 S
H2110 C2116 0.949 1_556 S
C2111 H2106 0.950 . S
C2111 C2113 1.327 . S
C2111 C2117 1.429 . S
C2112 C2104 1.574 . S
C2112 H2107 0.949 . S
C2112 C2118 1.368 . S
C2113 C2097 1.349 . S
C2113 H2105 0.950 . S
C2113 C2111 1.327 . S
C2114 C2102 1.349 . S
C2114 H2108 0.950 . S
C2114 C2115 1.327 . S
C2115 H2109 0.950 1_556 S
C2115 C2114 1.327 . S
C2115 C2119 1.429 . S
C2116 C2099 1.574 . S
C2116 H2110 0.949 1_554 S
C2116 C2120 1.368 . S
C2117 C2098 1.429 . S
C2117 C2111 1.429 . S
C2117 C2118 1.523 . S
C2118 C2099 1.368 . S
C2118 C2112 1.368 . S
C2118 C2117 1.523 . S
C2119 C2103 1.429 . S
C2119 C2115 1.429 . S
C2119 C2120 1.523 1_556 S
C2120 C2104 1.368 . S
C2120 C2116 1.368 . S
C2120 C2119 1.523 1_554 S
H2121 C2096 0.950 . S
H2122 C2098 0.950 . S
H2123 C2099 0.949 . S
H2124 C2101 0.950 . S
H2125 C2103 0.950 . S
C2126 C2127 1.349 . S
C2126 C2128 1.327 . S
C2126 H2151 0.950 . S
C2127 C2126 1.349 . S
C2127 C2143 1.349 . S
C2128 C2126 1.327 . S
C2128 C2147 1.429 . S
C2128 H2152 0.950 . S
C2129 C2146 1.574 . S
C2129 C2148 1.368 . S
C2129 H2153 0.949 . S
H2130 C2134 0.949 . S
C2131 C2132 1.349 . S
C2131 C2133 1.327 . S
C2131 H2154 0.950 . S
C2132 C2131 1.349 . S
C2132 C2144 1.349 . S
C2133 C2131 1.327 . S
C2133 C2149 1.429 . S
C2133 H2155 0.950 . S
C2134 H2130 0.949 . S
C2134 C2142 1.574 . S
C2134 C2150 1.368 . S
H2135 C2143 0.950 . S
H2136 C2141 0.950 . S
H2137 C2142 0.949 . S
H2138 C2144 0.950 . S
H2139 C2145 0.950 . S
H2140 C2146 0.949 . S
C2141 H2136 0.950 . S
C2141 C2143 1.327 . S
C2141 C2147 1.429 . S
C2142 C2134 1.574 . S
C2142 H2137 0.949 . S
C2142 C2148 1.368 . S
C2143 C2127 1.349 . S
C2143 H2135 0.950 . S
C2143 C2141 1.327 . S
C2144 C2132 1.349 . S
C2144 H2138 0.950 . S
C2144 C2145 1.327 . S
C2145 H2139 0.950 . S
C2145 C2144 1.327 . S
C2145 C2149 1.429 . S
C2146 C2129 1.574 . S
C2146 H2140 0.949 . S
C2146 C2150 1.368 . S
C2147 C2128 1.429 . S
C2147 C2141 1.429 . S
C2147 C2148 1.523 . S
C2148 C2129 1.368 . S
C2148 C2142 1.368 . S
C2148 C2147 1.523 . S
C2149 C2133 1.429 . S
C2149 C2145 1.429 . S
C2149 C2150 1.523 . S
C2150 C2134 1.368 . S
C2150 C2146 1.368 . S
C2150 C2149 1.523 . S
H2151 C2126 0.950 . S
H2152 C2128 0.950 . S
H2153 C2129 0.949 . S
H2154 C2131 0.950 . S
H2155 C2133 0.950 . S
C2156 C2157 1.349 . S
C2156 C2158 1.327 . S
C2156 H2181 0.950 . S
C2157 C2156 1.349 . S
C2157 C2173 1.349 . S
C2158 C2156 1.327 . S
C2158 C2177 1.429 . S
C2158 H2182 0.950 . S
C2159 C2176 1.574 . S
C2159 C2178 1.368 . S
C2159 H2183 0.949 . S
H2160 C2164 0.949 . S
C2161 C2162 1.349 . S
C2161 C2163 1.327 . S
C2161 H2184 0.950 . S
C2162 C2161 1.349 . S
C2162 C2174 1.349 . S
C2163 C2161 1.327 . S
C2163 C2179 1.429 . S
C2163 H2185 0.950 . S
C2164 H2160 0.949 . S
C2164 C2172 1.574 . S
C2164 C2180 1.368 . S
H2165 C2173 0.950 . S
H2166 C2171 0.950 . S
H2167 C2172 0.949 . S
H2168 C2174 0.950 . S
H2169 C2175 0.950 . S
H2170 C2176 0.949 . S
C2171 H2166 0.950 . S
C2171 C2173 1.327 . S
C2171 C2177 1.429 . S
C2172 C2164 1.574 . S
C2172 H2167 0.949 . S
C2172 C2178 1.368 . S
C2173 C2157 1.349 . S
C2173 H2165 0.950 . S
C2173 C2171 1.327 . S
C2174 C2162 1.349 . S
C2174 H2168 0.950 . S
C2174 C2175 1.327 . S
C2175 H2169 0.950 . S
C2175 C2174 1.327 . S
C2175 C2179 1.429 . S
C2176 C2159 1.574 . S
C2176 H2170 0.949 . S
C2176 C2180 1.368 . S
C2177 C2158 1.429 . S
C2177 C2171 1.429 . S
C2177 C2178 1.523 . S
C2178 C2159 1.368 . S
C2178 C2172 1.368 . S
C2178 C2177 1.523 . S
C2179 C2163 1.429 . S
C2179 C2175 1.429 . S
C2179 C2180 1.523 . S
C2180 C2164 1.368 . S
C2180 C2176 1.368 . S
C2180 C2179 1.523 . S
H2181 C2156 0.950 . S
H2182 C2158 0.950 . S
H2183 C2159 0.949 . S
H2184 C2161 0.950 . S
H2185 C2163 0.950 . S
C2186 C2187 1.349 . S
C2186 C2188 1.327 . S
C2186 H2211 0.950 . S
C2187 C2186 1.349 . S
C2187 C2203 1.349 . S
C2188 C2186 1.327 . S
C2188 C2207 1.429 . S
C2188 H2212 0.950 . S
C2189 C2206 1.574 . S
C2189 C2208 1.368 . S
C2189 H2213 0.949 . S
H2190 C2194 0.949 . S
C2191 C2192 1.349 . S
C2191 C2193 1.327 . S
C2191 H2214 0.950 . S
C2192 C2191 1.349 . S
C2192 C2204 1.349 . S
C2193 C2191 1.327 . S
C2193 C2209 1.429 . S
C2193 H2215 0.950 . S
C2194 H2190 0.949 . S
C2194 C2202 1.574 . S
C2194 C2210 1.368 . S
H2195 C2203 0.950 . S
H2196 C2201 0.950 . S
H2197 C2202 0.949 . S
H2198 C2204 0.950 . S
H2199 C2205 0.950 . S
H2200 C2206 0.949 . S
C2201 H2196 0.950 . S
C2201 C2203 1.327 . S
C2201 C2207 1.429 . S
C2202 C2194 1.574 . S
C2202 H2197 0.949 . S
C2202 C2208 1.368 . S
C2203 C2187 1.349 . S
C2203 H2195 0.950 . S
C2203 C2201 1.327 . S
C2204 C2192 1.349 . S
C2204 H2198 0.950 . S
C2204 C2205 1.327 . S
C2205 H2199 0.950 . S
C2205 C2204 1.327 . S
C2205 C2209 1.429 . S
C2206 C2189 1.574 . S
C2206 H2200 0.949 . S
C2206 C2210 1.368 . S
C2207 C2188 1.429 . S
C2207 C2201 1.429 . S
C2207 C2208 1.523 . S
C2208 C2189 1.368 . S
C2208 C2202 1.368 . S
C2208 C2207 1.523 . S
C2209 C2193 1.429 . S
C2209 C2205 1.429 . S
C2209 C2210 1.523 . S
C2210 C2194 1.368 . S
C2210 C2206 1.368 . S
C2210 C2209 1.523 . S
H2211 C2186 0.950 . S
H2212 C2188 0.950 . S
H2213 C2189 0.949 . S
H2214 C2191 0.950 . S
H2215 C2193 0.950 . S
C2216 C2217 1.349 . S
C2216 C2218 1.327 . S
C2216 H2241 0.950 . S
C2217 C2216 1.349 . S
C2217 C2233 1.349 . S
C2218 C2216 1.327 . S
C2218 C2237 1.429 . S
C2218 H2242 0.950 . S
C2219 C2236 1.574 . S
C2219 C2238 1.368 . S
C2219 H2243 0.949 . S
H2220 C2224 0.949 . S
C2221 C2222 1.349 . S
C2221 C2223 1.327 . S
C2221 H2244 0.950 . S
C2222 C2221 1.349 . S
C2222 C2234 1.349 . S
C2223 C2221 1.327 . S
C2223 C2239 1.429 . S
C2223 H2245 0.950 . S
C2224 H2220 0.949 . S
C2224 C2232 1.574 . S
C2224 C2240 1.368 . S
H2225 C2233 0.950 . S
H2226 C2231 0.950 . S
H2227 C2232 0.949 . S
H2228 C2234 0.950 . S
H2229 C2235 0.950 . S
H2230 C2236 0.949 . S
C2231 H2226 0.950 . S
C2231 C2233 1.327 . S
C2231 C2237 1.429 . S
C2232 C2224 1.574 . S
C2232 H2227 0.949 . S
C2232 C2238 1.368 . S
C2233 C2217 1.349 . S
C2233 H2225 0.950 . S
C2233 C2231 1.327 . S
C2234 C2222 1.349 . S
C2234 H2228 0.950 . S
C2234 C2235 1.327 . S
C2235 H2229 0.950 . S
C2235 C2234 1.327 . S
C2235 C2239 1.429 . S
C2236 C2219 1.574 . S
C2236 H2230 0.949 . S
C2236 C2240 1.368 . S
C2237 C2218 1.429 . S
C2237 C2231 1.429 . S
C2237 C2238 1.523 1_554 S
C2238 C2219 1.368 . S
C2238 C2232 1.368 . S
C2238 C2237 1.523 1_556 S
C2239 C2223 1.429 . S
C2239 C2235 1.429 . S
C2239 C2240 1.523 . S
C2240 C2224 1.368 . S
C2240 C2236 1.368 . S
C2240 C2239 1.523 . S
H2241 C2216 0.950 . S
H2242 C2218 0.950 . S
H2243 C2219 0.949 . S
H2244 C2221 0.950 . S
H2245 C2223 0.950 . S
C2246 C2247 1.349 . S
C2246 C2248 1.327 . S
C2246 H2271 0.950 . S
C2247 C2246 1.349 . S
C2247 C2263 1.349 . S
C2248 C2246 1.327 . S
C2248 C2267 1.429 . S
C2248 H2272 0.950 . S
C2249 C2266 1.574 . S
C2249 C2268 1.368 . S
C2249 H2273 0.949 . S
H2250 C2254 0.949 . S
C2251 C2252 1.349 . S
C2251 C2253 1.327 . S
C2251 H2274 0.950 . S
C2252 C2251 1.349 . S
C2252 C2264 1.349 . S
C2253 C2251 1.327 . S
C2253 C2269 1.429 . S
C2253 H2275 0.950 . S
C2254 H2250 0.949 . S
C2254 C2262 1.574 . S
C2254 C2270 1.368 . S
H2255 C2263 0.950 . S
H2256 C2261 0.950 . S
H2257 C2262 0.949 . S
H2258 C2264 0.950 . S
H2259 C2265 0.950 . S
H2260 C2266 0.949 . S
C2261 H2256 0.950 . S
C2261 C2263 1.327 . S
C2261 C2267 1.429 . S
C2262 C2254 1.574 . S
C2262 H2257 0.949 . S
C2262 C2268 1.368 . S
C2263 C2247 1.349 . S
C2263 H2255 0.950 . S
C2263 C2261 1.327 . S
C2264 C2252 1.349 . S
C2264 H2258 0.950 . S
C2264 C2265 1.327 . S
C2265 H2259 0.950 . S
C2265 C2264 1.327 . S
C2265 C2269 1.429 . S
C2266 C2249 1.574 . S
C2266 H2260 0.949 . S
C2266 C2270 1.368 . S
C2267 C2248 1.429 . S
C2267 C2261 1.429 . S
C2267 C2268 1.523 . S
C2268 C2249 1.368 . S
C2268 C2262 1.368 . S
C2268 C2267 1.523 . S
C2269 C2253 1.429 . S
C2269 C2265 1.429 . S
C2269 C2270 1.523 . S
C2270 C2254 1.368 . S
C2270 C2266 1.368 . S
C2270 C2269 1.523 . S
H2271 C2246 0.950 . S
H2272 C2248 0.950 . S
H2273 C2249 0.949 . S
H2274 C2251 0.950 . S
H2275 C2253 0.950 . S
C2276 C2277 1.349 . S
C2276 C2278 1.327 . S
C2276 H2301 0.950 . S
C2277 C2276 1.349 . S
C2277 C2293 1.349 . S
C2278 C2276 1.327 . S
C2278 C2297 1.429 . S
C2278 H2302 0.950 . S
C2279 C2296 1.574 . S
C2279 C2298 1.368 . S
C2279 H2303 0.949 . S
H2280 C2284 0.949 . S
C2281 C2282 1.349 . S
C2281 C2283 1.327 . S
C2281 H2304 0.950 . S
C2282 C2281 1.349 . S
C2282 C2294 1.349 . S
C2283 C2281 1.327 . S
C2283 C2299 1.429 . S
C2283 H2305 0.950 . S
C2284 H2280 0.949 . S
C2284 C2292 1.574 . S
C2284 C2300 1.368 . S
H2285 C2293 0.950 . S
H2286 C2291 0.950 . S
H2287 C2292 0.949 . S
H2288 C2294 0.950 . S
H2289 C2295 0.950 . S
H2290 C2296 0.949 . S
C2291 H2286 0.950 . S
C2291 C2293 1.327 . S
C2291 C2297 1.429 . S
C2292 C2284 1.574 . S
C2292 H2287 0.949 . S
C2292 C2298 1.368 . S
C2293 C2277 1.349 . S
C2293 H2285 0.950 . S
C2293 C2291 1.327 . S
C2294 C2282 1.349 . S
C2294 H2288 0.950 . S
C2294 C2295 1.327 . S
C2295 H2289 0.950 . S
C2295 C2294 1.327 . S
C2295 C2299 1.429 . S
C2296 C2279 1.574 . S
C2296 H2290 0.949 . S
C2296 C2300 1.368 . S
C2297 C2278 1.429 . S
C2297 C2291 1.429 . S
C2297 C2298 1.523 . S
C2298 C2279 1.368 . S
C2298 C2292 1.368 . S
C2298 C2297 1.523 . S
C2299 C2283 1.429 . S
C2299 C2295 1.429 . S
C2299 C2300 1.523 . S
C2300 C2284 1.368 . S
C2300 C2296 1.368 . S
C2300 C2299 1.523 . S
H2301 C2276 0.950 . S
H2302 C2278 0.950 . S
H2303 C2279 0.949 . S
H2304 C2281 0.950 . S
H2305 C2283 0.950 . S
C2306 C2307 1.349 . S
C2306 C2308 1.327 . S
C2306 H2331 0.950 . S
C2307 C2306 1.349 . S
C2307 C2323 1.349 . S
C2308 C2306 1.327 . S
C2308 C2327 1.429 . S
C2308 H2332 0.950 . S
C2309 C2326 1.574 . S
C2309 C2328 1.368 . S
C2309 H2333 0.949 . S
H2310 C2314 0.949 . S
C2311 C2312 1.349 . S
C2311 C2313 1.327 . S
C2311 H2334 0.950 . S
C2312 C2311 1.349 . S
C2312 C2324 1.349 . S
C2313 C2311 1.327 . S
C2313 C2329 1.429 . S
C2313 H2335 0.950 . S
C2314 H2310 0.949 . S
C2314 C2322 1.574 . S
C2314 C2330 1.368 . S
H2315 C2323 0.950 . S
H2316 C2321 0.950 . S
H2317 C2322 0.949 . S
H2318 C2324 0.950 . S
H2319 C2325 0.950 . S
H2320 C2326 0.949 . S
C2321 H2316 0.950 . S
C2321 C2323 1.327 . S
C2321 C2327 1.429 . S
C2322 C2314 1.574 . S
C2322 H2317 0.949 . S
C2322 C2328 1.368 . S
C2323 C2307 1.349 . S
C2323 H2315 0.950 . S
C2323 C2321 1.327 . S
C2324 C2312 1.349 . S
C2324 H2318 0.950 . S
C2324 C2325 1.327 . S
C2325 H2319 0.950 . S
C2325 C2324 1.327 . S
C2325 C2329 1.429 . S
C2326 C2309 1.574 . S
C2326 H2320 0.949 . S
C2326 C2330 1.368 . S
C2327 C2308 1.429 . S
C2327 C2321 1.429 . S
C2327 C2328 1.523 . S
C2328 C2309 1.368 . S
C2328 C2322 1.368 . S
C2328 C2327 1.523 . S
C2329 C2313 1.429 . S
C2329 C2325 1.429 . S
C2329 C2330 1.523 . S
C2330 C2314 1.368 . S
C2330 C2326 1.368 . S
C2330 C2329 1.523 . S
H2331 C2306 0.950 . S
H2332 C2308 0.950 . S
H2333 C2309 0.949 . S
H2334 C2311 0.950 . S
H2335 C2313 0.950 . S
C417 C5 0.970 . S
C422 C172 0.974 . S
C447 C328 1.295 . S
C452 C16 1.303 . S
C477 C31 1.082 . S
C482 C198 1.086 . S
C507 C42 1.684 . S
C512 C315 1.669 . S
C537 C57 1.277 . S
C542 C224 1.277 . S
C567 C68 1.112 . S
C572 C289 1.111 . S
C597 C81 1.112 . S
C602 C250 1.112 . S
C627 C406 0.435 . S
C632 C96 0.439 . S
C657 C276 1.277 . S
C662 C107 1.277 . S
C687 C122 1.112 . S
C692 C237 1.111 . S
C717 C302 1.112 . S
C722 C135 1.112 . S
C747 C148 1.684 . S
C752 C211 1.669 . S
C777 C187 1.295 . S
C782 C159 1.303 . S
C807 C265 0.435 . S
C812 C369 0.439 . S
C837 C380 0.974 . S
C842 C343 0.970 . S
C867 C393 1.086 . S
C872 C354 1.082 . S
C897 C3 2.228 . S
C902 C18 2.229 . S
C927 C36 1.680 . S
C932 C23 1.680 . S
C957 C44 2.244 . S
C962 C29 2.242 . S
C987 C49 1.884 . S
C992 C10 1.872 . S
C1017 C94 1.988 . S
C1022 C55 1.992 . S
C1047 C75 1.066 . S
C1052 C62 1.067 . S
C1077 C83 1.432 . S
C1082 C70 1.432 . S
C1107 C82 1.535 . S
C1112 C95 1.513 . S
C1137 C127 1.556 . S
C1142 C4 1.540 . S
C1167 C114 1.156 . S
C1172 C43 1.170 . S
C1197 C134 1.002 . S
C1202 C17 1.004 . S
C1227 C361 1.687 . S
C1232 C101 1.675 . S
C1257 C374 1.675 . S
C1262 C30 1.687 . S
C1287 C153 1.170 . S
C1292 C56 1.156 . S
C1317 C88 1.002 . S
C1322 C160 1.004 . S
C1347 C185 1.860 . S
C1352 C173 1.868 . S
C1377 C200 1.373 . S
C1382 C192 1.379 . S
C1407 C213 1.914 . S
C1412 C199 1.927 . S
C1437 C174 1.074 . S
C1442 C212 1.073 . S
C1467 C226 2.032 . S
C1472 C270 2.047 . S
C1497 C231 1.457 . S
C1502 C244 1.489 . S
C1527 C251 2.239 . S
C1532 C238 2.235 . S
C1557 C252 1.555 . S
C1562 C264 1.549 . S
C1587 C179 1.067 . S
C1592 C291 1.069 . S
C1617 C277 1.513 . S
C1622 C218 1.444 . S
C1647 C309 1.528 . S
C1652 C186 1.496 . S
C1677 C400 1.214 . S
C1682 C263 1.228 . S
C1707 C408 1.228 . S
C1712 C205 1.214 . S
C1737 C225 1.513 . S
C1742 C322 1.444 . S
C1767 C335 1.496 . S
C1772 C257 1.528 . S
C1797 C161 2.229 . S
C1802 C341 2.228 . S
C1827 C355 1.680 . S
C1832 C166 1.680 . S
C1857 C146 2.244 . S
C1862 C356 2.242 . S
C1887 C147 1.884 . S
C1892 C348 1.872 . S
C1917 C109 1.992 . S
C1922 C367 1.988 . S
C1947 C121 1.066 . S
C1952 C108 1.067 . S
C1977 C133 1.432 . S
C1982 C120 1.432 . S
C2007 C140 1.535 . S
C2012 C368 1.513 . S
C2037 C342 1.540 . S
C2042 C69 1.556 . S
C2067 C330 1.860 . S
C2072 C381 1.868 . S
C2097 C329 1.379 . S
C2102 C395 1.373 . S
C2127 C394 1.927 . S
C2132 C317 1.914 . S
C2157 C316 1.073 . S
C2162 C382 1.074 . S
C2187 C407 2.047 . S
C2192 C278 2.032 . S
C2217 C283 1.457 . S
C2222 C296 1.489 . S
C2247 C303 2.239 . S
C2252 C290 2.235 . S
C2277 C304 1.555 . S
C2282 C413 1.549 . S
C2307 C387 1.067 . S
C2312 C239 1.069 . S
