# Generated by pormake.
# Topology smu, (6)-cn, num edge types: 1
# Building blocks:
#     Node 0, Type 0, BuildingBlock: INOVEN_clean_sbu_0, # of connection points: 6
#     Node 1, Type 0, BuildingBlock: INOVEN_clean_sbu_0, # of connection points: 6
#     Node 2, Type 0, BuildingBlock: INOVEN_clean_sbu_0, # of connection points: 6
#     Node 3, Type 0, BuildingBlock: INOVEN_clean_sbu_0, # of connection points: 6
#     Node 4, Type 0, BuildingBlock: INOVEN_clean_sbu_0, # of connection points: 6
#     Node 5, Type 0, BuildingBlock: INOVEN_clean_sbu_0, # of connection points: 6
#     Edge 6, Type (0, 0), BuildingBlock: MIFKUJ_clean_linker_0, # of connection points: 2
#     Edge 7, Type (0, 0), BuildingBlock: MIFKUJ_clean_linker_0, # of connection points: 2
#     Edge 8, Type (0, 0), BuildingBlock: MIFKUJ_clean_linker_0, # of connection points: 2
#     Edge 9, Type (0, 0), BuildingBlock: MIFKUJ_clean_linker_0, # of connection points: 2
#     Edge 10, Type (0, 0), BuildingBlock: MIFKUJ_clean_linker_0, # of connection points: 2
#     Edge 11, Type (0, 0), BuildingBlock: MIFKUJ_clean_linker_0, # of connection points: 2
#     Edge 12, Type (0, 0), BuildingBlock: MIFKUJ_clean_linker_0, # of connection points: 2
#     Edge 13, Type (0, 0), BuildingBlock: MIFKUJ_clean_linker_0, # of connection points: 2
#     Edge 14, Type (0, 0), BuildingBlock: MIFKUJ_clean_linker_0, # of connection points: 2
#     Edge 15, Type (0, 0), BuildingBlock: MIFKUJ_clean_linker_0, # of connection points: 2
#     Edge 16, Type (0, 0), BuildingBlock: MIFKUJ_clean_linker_0, # of connection points: 2
#     Edge 17, Type (0, 0), BuildingBlock: MIFKUJ_clean_linker_0, # of connection points: 2
#     Edge 18, Type (0, 0), BuildingBlock: MIFKUJ_clean_linker_0, # of connection points: 2
#     Edge 19, Type (0, 0), BuildingBlock: MIFKUJ_clean_linker_0, # of connection points: 2
#     Edge 20, Type (0, 0), BuildingBlock: MIFKUJ_clean_linker_0, # of connection points: 2
#     Edge 21, Type (0, 0), BuildingBlock: MIFKUJ_clean_linker_0, # of connection points: 2
#     Edge 22, Type (0, 0), BuildingBlock: MIFKUJ_clean_linker_0, # of connection points: 2
#     Edge 23, Type (0, 0), BuildingBlock: MIFKUJ_clean_linker_0, # of connection points: 2
# Relax obj value: 0.208
# Max RMSD: 0.300
# Mean RMSD: 0.300
data_MOF--net-smu--node1-INOVEN_clean_sbu_0--edge1-MIFKUJ_clean_linker_0
_symmetry_space_group_name_H-M    P1
_symmetry_Int_Tables_number       1
_symmetry_cell_setting            triclinic
loop_
_symmetry_equiv_pos_as_xyz
'x, y, z'
_cell_length_a     47.969752
_cell_length_b     47.973106
_cell_length_c     35.434529
_cell_angle_alpha  90.144345
_cell_angle_beta   89.394837
_cell_angle_gamma 119.89038
loop_
_atom_site_label
_atom_site_type_symbol
_atom_site_fract_x
_atom_site_fract_y
_atom_site_fract_z
_atom_type_partial_charge
Gd0 Gd 0.37498 0.09008 0.27054 0.0
Gd1 Gd 0.32014 0.10658 0.29015 0.0
C2 C 0.39373 0.16531 0.27916 0.0
C3 C 0.42061 0.08488 0.23697 0.0
C4 C 0.45557 0.09816 0.24333 0.0
C5 C 0.47208 0.12215 0.27043 0.0
C6 C 0.47304 0.08791 0.22093 0.0
C7 C 0.52324 0.1257 0.25228 0.0
C8 C 0.50639 0.10145 0.22533 0.0
C9 C 0.50546 0.13574 0.27486 0.0
C10 C 0.3652 0.0878 0.34752 0.0
C11 C 0.303 0.03456 0.28738 0.0
C12 C 0.28175 0.12411 0.32037 0.0
C13 C 0.26377 0.14073 0.31079 0.0
C14 C 0.27497 0.16533 0.28356 0.0
C15 C 0.23454 0.13152 0.32948 0.0
C16 C 0.22765 0.17119 0.29401 0.0
C17 C 0.2167 0.14653 0.32125 0.0
C18 C 0.25712 0.1805 0.27534 0.0
C19 C 0.32004 0.08827 0.21737 0.0
O20 O 0.40393 0.14427 0.27627 0.0
O21 O 0.36288 0.15637 0.28269 0.0
O22 O 0.40066 0.06377 0.2615 0.0
O23 O 0.41206 0.10583 0.22729 0.0
O24 O 0.38656 0.0829 0.33084 0.0
O25 O 0.35209 0.09553 0.32209 0.0
O26 O 0.30173 0.05609 0.30963 0.0
O27 O 0.32767 0.043 0.26363 0.0
O28 O 0.31315 0.14143 0.32185 0.0
O29 O 0.27181 0.096 0.30487 0.0
O30 O 0.29529 0.08638 0.23484 0.0
O31 O 0.34469 0.10417 0.23761 0.0
H32 H 0.45917 0.13055 0.28803 0.0
H33 H 0.46093 0.06967 0.19959 0.0
H34 H 0.51906 0.0933 0.20698 0.0
H35 H 0.51728 0.15396 0.29625 0.0
H36 H 0.29742 0.17275 0.26862 0.0
H37 H 0.2255 0.11268 0.35066 0.0
H38 H 0.19447 0.13906 0.33668 0.0
H39 H 0.26617 0.1992 0.25401 0.0
Gd40 Gd 0.73622 0.65576 0.27056 0.0
Gd41 Gd 0.81198 0.71016 0.28486 0.0
C42 C 0.7924 0.63511 0.27412 0.0
C43 C 0.68394 0.61203 0.23945 0.0
C44 C 0.66151 0.57673 0.24436 0.0
C45 C 0.6416 0.56403 0.27655 0.0
C46 C 0.65969 0.55522 0.21614 0.0
C47 C 0.61887 0.50917 0.25217 0.0
C48 C 0.63881 0.52197 0.22002 0.0
C49 C 0.62056 0.53075 0.28035 0.0
C50 C 0.74935 0.66624 0.34618 0.0
C51 C 0.7574 0.72933 0.28687 0.0
C52 C 0.86707 0.74952 0.31439 0.0
C53 C 0.90198 0.76804 0.30552 0.0
C54 C 0.91738 0.7555 0.28291 0.0
C55 C 0.92048 0.79874 0.32117 0.0
C56 C 0.96945 0.80414 0.29236 0.0
C57 C 0.95372 0.81656 0.31471 0.0
C58 C 0.95076 0.77335 0.27645 0.0
C59 C 0.79374 0.70731 0.21056 0.0
O60 O 0.76153 0.62638 0.27038 0.0
O61 O 0.81534 0.66524 0.2798 0.0
O62 O 0.68421 0.63147 0.26584 0.0
O63 O 0.71279 0.62064 0.22621 0.0
O64 O 0.72153 0.6457 0.33245 0.0
O65 O 0.76869 0.6779 0.31846 0.0
O66 O 0.78214 0.73105 0.30506 0.0
O67 O 0.73837 0.70423 0.26531 0.0
O68 O 0.85354 0.7181 0.31687 0.0
O69 O 0.84876 0.759 0.29814 0.0
O70 O 0.82252 0.72683 0.22273 0.0
O71 O 0.77829 0.69021 0.23838 0.0
H72 H 0.64227 0.57975 0.29894 0.0
H73 H 0.67444 0.56415 0.19085 0.0
H74 H 0.63794 0.50632 0.19743 0.0
H75 H 0.60591 0.52189 0.3057 0.0
H76 H 0.90366 0.73189 0.27039 0.0
H77 H 0.9092 0.80885 0.33888 0.0
H78 H 0.9672 0.83987 0.32797 0.0
H79 H 0.96189 0.7631 0.25875 0.0
Gd80 Gd 0.94297 0.29277 0.27066 0.0
Gd81 Gd 0.92118 0.22414 0.28652 0.0
C82 C 0.86675 0.24523 0.28133 0.0
C83 C 0.95159 0.34719 0.24435 0.0
C84 C 0.9357 0.3671 0.24673 0.0
C85 C 0.95139 0.39687 0.26531 0.0
C86 C 0.90568 0.3575 0.23024 0.0
C87 C 0.90778 0.40738 0.25058 0.0
C88 C 0.8919 0.37739 0.23214 0.0
C89 C 0.93762 0.4166 0.2674 0.0
C90 C 0.95063 0.28285 0.34397 0.0
C91 C 0.99581 0.27178 0.28174 0.0
C92 C 0.89323 0.16501 0.31007 0.0
C93 C 0.88942 0.13257 0.30726 0.0
C94 C 0.89411 0.12054 0.27305 0.0
C95 C 0.87603 0.11167 0.33813 0.0
C96 C 0.86965 0.06641 0.30006 0.0
C97 C 0.86621 0.07902 0.33462 0.0
C98 C 0.88442 0.08779 0.26952 0.0
C99 C 0.94426 0.24192 0.21481 0.0
O100 O 0.88999 0.27554 0.28052 0.0
O101 O 0.8734 0.22176 0.2821 0.0
O102 O 0.9647 0.34458 0.2752 0.0
O103 O 0.93746 0.32028 0.2254 0.0
O104 O 0.96968 0.30819 0.32451 0.0
O105 O 0.92627 0.2636 0.32445 0.0
O106 O 0.97321 0.24738 0.30121 0.0
O107 O 0.98879 0.29037 0.26076 0.0
O108 O 0.88364 0.17485 0.28127 0.0
O109 O 0.9186 0.18815 0.32648 0.0
O110 O 0.94719 0.2209 0.23461 0.0
O111 O 0.92713 0.25086 0.23287 0.0
H112 H 0.97454 0.405 0.27828 0.0
H113 H 0.89289 0.33475 0.2156 0.0
H114 H 0.86908 0.36947 0.21849 0.0
H115 H 0.95039 0.43908 0.28255 0.0
H116 H 0.90421 0.13619 0.24872 0.0
H117 H 0.8717 0.12032 0.3646 0.0
H118 H 0.85457 0.06345 0.35864 0.0
H119 H 0.888 0.07916 0.24266 0.0
Gd120 Gd 0.11199 0.31888 0.78439 0.0
Gd121 Gd 0.0943 0.36853 0.76663 0.0
C122 C 0.03904 0.29645 0.7757 0.0
C123 C 0.13326 0.2832 0.8134 0.0
C124 C 0.14695 0.26246 0.80286 0.0
C125 C 0.17471 0.2737 0.78006 0.0
C126 C 0.13316 0.23138 0.81819 0.0
C127 C 0.17533 0.22351 0.78968 0.0
C128 C 0.147 0.2121 0.81155 0.0
C129 C 0.18873 0.25445 0.77356 0.0
C130 C 0.09441 0.31581 0.71093 0.0
C131 C 0.16949 0.39116 0.77457 0.0
C132 C 0.09074 0.41737 0.73984 0.0
C133 C 0.10877 0.45305 0.74177 0.0
C134 C 0.1366 0.46982 0.7636 0.0
C135 C 0.09704 0.4706 0.72266 0.0
C136 C 0.1401 0.52122 0.74793 0.0
C137 C 0.11244 0.50419 0.7257 0.0
C138 C 0.15222 0.50355 0.76647 0.0
C139 C 0.08196 0.34979 0.8399 0.0
O140 O 0.05953 0.29466 0.79869 0.0
O141 O 0.04845 0.32183 0.75335 0.0
O142 O 0.15102 0.31412 0.80786 0.0
O143 O 0.10305 0.27261 0.80598 0.0
O144 O 0.09148 0.29166 0.73028 0.0
O145 O 0.11011 0.34134 0.72998 0.0
O146 O 0.14748 0.39987 0.77845 0.0
O147 O 0.16107 0.36059 0.77153 0.0
O148 O 0.07659 0.4022 0.7709 0.0
O149 O 0.10421 0.40336 0.72168 0.0
O150 O 0.0647 0.3574 0.81913 0.0
O151 O 0.10674 0.35373 0.82152 0.0
H152 H 0.18603 0.29762 0.76792 0.0
H153 H 0.11191 0.22218 0.83606 0.0
H154 H 0.13554 0.18825 0.82386 0.0
H155 H 0.21065 0.26426 0.75687 0.0
H156 H 0.14593 0.45681 0.77894 0.0
H157 H 0.07563 0.45825 0.70565 0.0
H158 H 0.10262 0.51686 0.7105 0.0
H159 H 0.17326 0.51568 0.78408 0.0
Gd160 Gd 0.23204 0.91489 0.78746 0.0
Gd161 Gd 0.30174 0.94019 0.77438 0.0
C162 C 0.27632 0.99007 0.78044 0.0
C163 C 0.17215 0.88669 0.80887 0.0
C164 C 0.1399 0.8823 0.80074 0.0
C165 C 0.12419 0.86834 0.76673 0.0
C166 C 0.12273 0.88781 0.8293 0.0
C167 C 0.07398 0.86295 0.79133 0.0
C168 C 0.09023 0.87843 0.82461 0.0
C169 C 0.09168 0.85874 0.76213 0.0
C170 C 0.25051 0.93565 0.71509 0.0
C171 C 0.256 0.86291 0.78383 0.0
C172 C 0.35884 0.95112 0.75484 0.0
C173 C 0.37706 0.93342 0.75473 0.0
C174 C 0.40453 0.94483 0.77722 0.0
C175 C 0.36771 0.90549 0.73319 0.0
C176 C 0.41339 0.90115 0.75653 0.0
C177 C 0.38568 0.88958 0.73405 0.0
C178 C 0.42228 0.9289 0.7783 0.0
C179 C 0.28821 0.94865 0.84646 0.0
O180 O 0.25231 0.96706 0.79995 0.0
O181 O 0.29698 0.98428 0.76141 0.0
O182 O 0.18393 0.87466 0.78456 0.0
O183 O 0.19418 0.91383 0.82353 0.0
O184 O 0.22765 0.93689 0.73327 0.0
O185 O 0.26091 0.92083 0.73491 0.0
O186 O 0.28574 0.88705 0.78019 0.0
O187 O 0.23172 0.86814 0.78736 0.0
O188 O 0.35168 0.95769 0.78802 0.0
O189 O 0.33553 0.94288 0.73077 0.0
O190 O 0.31287 0.96906 0.8269 0.0
O191 O 0.27116 0.92313 0.82736 0.0
H192 H 0.13658 0.86352 0.74415 0.0
H193 H 0.13412 0.89831 0.85588 0.0
H194 H 0.0777 0.88274 0.84745 0.0
H195 H 0.08013 0.84666 0.73626 0.0
H196 H 0.41227 0.96617 0.79428 0.0
H197 H 0.34659 0.89594 0.71562 0.0
H198 H 0.3781 0.86852 0.7166 0.0
H199 H 0.44289 0.9383 0.79666 0.0
Gd200 Gd 0.7089 0.80053 0.78325 0.0
Gd201 Gd 0.6634 0.73012 0.77388 0.0
C202 C 0.73837 0.75465 0.77793 0.0
C203 C 0.74112 0.86083 0.80165 0.0
C204 C 0.76943 0.89296 0.79359 0.0
C205 C 0.77212 0.90925 0.75956 0.0
C206 C 0.79143 0.90959 0.82239 0.0
C207 C 0.81636 0.95894 0.7847 0.0
C208 C 0.8147 0.9421 0.81796 0.0
C209 C 0.79526 0.94179 0.7552 0.0
C210 C 0.71005 0.78003 0.7118 0.0
C211 C 0.63323 0.77741 0.78129 0.0
C212 C 0.6169 0.6725 0.75839 0.0
C213 C 0.5814 0.65551 0.7537 0.0
C214 C 0.56186 0.66357 0.77571 0.0
C215 C 0.56651 0.62888 0.72962 0.0
C216 C 0.51311 0.61712 0.75165 0.0
C217 C 0.53285 0.61 0.72848 0.0
C218 C 0.52821 0.64462 0.77475 0.0
C219 C 0.68698 0.74637 0.84466 0.0
O220 O 0.74052 0.77983 0.79579 0.0
O221 O 0.71161 0.73368 0.76049 0.0
O222 O 0.71826 0.84903 0.7766 0.0
O223 O 0.74521 0.83875 0.8183 0.0
O224 O 0.73431 0.8033 0.72857 0.0
O225 O 0.68498 0.77018 0.73238 0.0
O226 O 0.62733 0.74772 0.77603 0.0
O227 O 0.66267 0.80118 0.7861 0.0
O228 O 0.62723 0.68271 0.79234 0.0
O229 O 0.63505 0.69303 0.73234 0.0
O230 O 0.68216 0.72072 0.82709 0.0
O231 O 0.67802 0.76245 0.82462 0.0
H232 H 0.75543 0.89731 0.73681 0.0
H233 H 0.78981 0.89779 0.84902 0.0
H234 H 0.83092 0.95421 0.84104 0.0
H235 H 0.79549 0.95384 0.7293 0.0
H236 H 0.57262 0.68394 0.79467 0.0
H237 H 0.58096 0.62212 0.71236 0.0
H238 H 0.52235 0.58956 0.70966 0.0
H239 H 0.51413 0.65091 0.7933 0.0
H240 H 0.23675 0.93936 0.89174 0.0
H241 H 0.23988 0.95923 0.95679 0.0
H242 H 0.3411 0.99033 0.95863 0.0
H243 H 0.33798 0.97074 0.89436 0.0
H244 H 0.3152 0.96677 0.02644 0.0
H245 H 0.31349 0.04224 0.93799 0.0
H246 H 0.29139 0.06072 0.88763 0.0
H247 H 0.20768 0.03579 0.95593 0.0
H248 H 0.22903 0.01662 1.00647 0.0
H249 H 0.36745 0.08512 0.17451 0.0
H250 H 0.36076 0.058 0.11337 0.0
H251 H 0.26013 0.0295 0.11454 0.0
H252 H 0.26671 0.05635 0.1749 0.0
H253 H 0.28423 0.05015 0.04613 0.0
H254 H 0.286 0.9763 0.13531 0.0
H255 H 0.3086 0.95985 0.18717 0.0
H256 H 0.39163 0.9821 0.1188 0.0
H257 H 0.36974 0.99919 0.06669 0.0
C258 C 0.25936 0.94952 0.90655 0.0
C259 C 0.28702 0.95313 0.888 0.0
C260 C 0.26129 0.9613 0.94359 0.0
C261 C 0.29091 0.97678 0.9628 0.0
C262 C 0.31798 0.97861 0.94482 0.0
C263 C 0.31613 0.96727 0.90795 0.0
C264 C 0.29461 0.99284 1.00047 0.0
C265 C 0.30858 0.98514 0.03056 0.0
C266 C 0.28575 0.01666 1.00651 0.0
C267 C 0.27267 0.02762 0.97582 0.0
C268 C 0.2902 0.04035 0.9421 0.0
C269 C 0.27783 0.05099 0.91354 0.0
C270 C 0.24811 0.04935 0.91856 0.0
C271 C 0.23066 0.03698 0.95207 0.0
C272 C 0.24287 0.0262 0.98066 0.0
C273 C 0.34399 0.07312 0.16167 0.0
C274 C 0.3177 0.07302 0.17976 0.0
C275 C 0.34008 0.05747 0.1267 0.0
C276 C 0.30979 0.04137 0.10909 0.0
C277 C 0.28375 0.04169 0.12712 0.0
C278 C 0.28761 0.0571 0.16188 0.0
C279 C 0.30477 0.02408 0.07207 0.0
C280 C 0.29066 0.03163 0.04208 0.0
C281 C 0.3134 1.00009 0.06621 0.0
C282 C 0.32638 0.98932 0.09722 0.0
C283 C 0.30918 0.97788 0.1314 0.0
C284 C 0.32185 0.96843 0.16084 0.0
C285 C 0.35157 0.97 0.15631 0.0
C286 C 0.36863 0.98093 0.12228 0.0
C287 C 0.35609 0.99049 0.09277 0.0
H288 H 0.36136 0.96269 0.17914 0.0
H289 H 0.23864 0.05782 0.89662 0.0
H290 H 0.66816 0.72347 0.67455 0.0
H291 H 0.67733 0.70441 0.61352 0.0
H292 H 0.76747 0.79264 0.6004 0.0
H293 H 0.75907 0.81108 0.66156 0.0
H294 H 0.72631 0.77128 0.53294 0.0
H295 H 0.77448 0.73384 0.62461 0.0
H296 H 0.77446 0.70499 0.68214 0.0
H297 H 0.69716 0.61712 0.63841 0.0
H298 H 0.69667 0.64548 0.5806 0.0
H299 H 0.79193 0.72659 0.37616 0.0
H300 H 0.78722 0.7471 0.43832 0.0
H301 H 0.70847 0.65336 0.46768 0.0
H302 H 0.71267 0.63319 0.40591 0.0
H303 H 0.74498 0.67854 0.52769 0.0
H304 H 0.69494 0.7123 0.43785 0.0
H305 H 0.68817 0.73881 0.38201 0.0
H306 H 0.76162 0.83056 0.42214 0.0
H307 H 0.76924 0.80453 0.478 0.0
C308 C 0.68983 0.73878 0.65866 0.0
C309 C 0.71286 0.76874 0.67323 0.0
C310 C 0.69512 0.72788 0.62371 0.0
C311 C 0.72321 0.74705 0.60221 0.0
C312 C 0.74562 0.77737 0.61622 0.0
C313 C 0.74072 0.78787 0.65135 0.0
C314 C 0.72981 0.73547 0.56559 0.0
C315 C 0.73087 0.7513 0.53183 0.0
C316 C 0.73501 0.70892 0.56382 0.0
C317 C 0.73531 0.69183 0.59847 0.0
C318 C 0.7573 0.70842 0.6274 0.0
C319 C 0.75742 0.69216 0.66003 0.0
C320 C 0.7357 0.6593 0.66403 0.0
C321 C 0.71392 0.64259 0.63531 0.0
C322 C 0.71377 0.65872 0.60256 0.0
C323 C 0.774 0.71027 0.39606 0.0
C324 C 0.75258 0.67822 0.38582 0.0
C325 C 0.77112 0.72207 0.43162 0.0
C326 C 0.74711 0.70195 0.45787 0.0
C327 C 0.72713 0.66954 0.44828 0.0
C328 C 0.72966 0.65797 0.4128 0.0
C329 C 0.74167 0.71444 0.49467 0.0
C330 C 0.74075 0.69873 0.5286 0.0
C331 C 0.73608 0.74084 0.49648 0.0
C332 C 0.73293 0.7564 0.46192 0.0
C333 C 0.71001 0.73807 0.43452 0.0
C334 C 0.70589 0.75302 0.40296 0.0
C335 C 0.72432 0.78635 0.39867 0.0
C336 C 0.74726 0.80475 0.42562 0.0
C337 C 0.75153 0.78991 0.4572 0.0
H338 H 0.72082 0.79791 0.37445 0.0
H339 H 0.73582 0.64677 0.68933 0.0
H340 H 0.93624 0.28071 0.16355 0.0
H341 H 0.96241 0.2989 0.10138 0.0
H342 H 1.01453 0.24837 0.119 0.0
H343 H 0.98869 0.23046 0.18094 0.0
H344 H 0.05368 0.30559 0.08706 0.0
H345 H 0.94871 0.21763 0.06138 0.0
H346 H 0.88947 0.18675 0.06429 0.0
H347 H 0.88506 0.26469 1.01087 0.0
H348 H 0.94433 0.29622 1.0081 0.0
H349 H 0.10262 0.31836 0.88902 0.0
H350 H 0.08217 0.29924 0.95362 0.0
H351 H 0.02113 0.34124 0.94608 0.0
H352 H 0.04063 0.35939 0.8824 0.0
H353 H 0.98711 0.28434 0.97304 0.0
H354 H 0.09261 0.3733 1.00099 0.0
H355 H 0.15189 0.40385 0.99834 0.0
H356 H 0.15544 0.32385 0.04713 0.0
H357 H 0.09614 0.29266 0.04962 0.0
C358 C 0.95331 0.27355 0.15416 0.0
C359 C 0.96008 0.25386 0.17713 0.0
C360 C 0.96823 0.28386 0.11849 0.0
C361 C 0.99033 0.27477 0.10495 0.0
C362 C 0.99763 0.25575 0.12842 0.0
C363 C 0.98261 0.24532 0.16385 0.0
C364 C 1.00535 0.28448 0.06621 0.0
C365 C 0.03907 0.30061 0.06209 0.0
C366 C 0.98659 0.27831 0.03335 0.0
C367 C 0.95096 0.2594 0.03488 0.0
C368 C 0.93511 0.22828 0.05052 0.0
C369 C 0.90153 0.21064 0.0521 0.0
C370 C 0.88351 0.22378 0.03787 0.0
C371 C 0.89905 0.25456 1.02193 0.0
C372 C 0.93264 0.27232 1.02032 0.0
C373 C 0.08518 0.32381 0.90148 0.0
C374 C 0.07337 0.34048 0.88042 0.0
C375 C 0.07342 0.31286 0.93846 0.0
C376 C 0.0499 0.31869 0.95518 0.0
C377 C 0.03891 0.33601 0.93418 0.0
C378 C 0.05032 0.34658 0.89756 0.0
C379 C 0.03557 0.30632 0.99381 0.0
C380 C 1.00184 0.2894 0.99793 0.0
C381 C 0.05436 0.31182 0.02657 0.0
C382 C 0.08996 0.33052 1.02506 0.0
C383 C 0.10604 0.36213 1.01085 0.0
C384 C 0.13963 0.37958 1.00944 0.0
C385 C 0.15741 0.36576 1.02244 0.0
C386 C 0.14163 0.33449 0.03699 0.0
C387 C 0.10803 0.31692 0.03842 0.0
H388 H 0.18342 0.37931 1.02133 0.0
H389 H 0.85751 0.21009 0.03911 0.0
H390 H 0.30979 0.07919 0.38417 0.0
H391 H 0.28922 0.05415 0.4465 0.0
H392 H 0.37394 0.04601 0.46182 0.0
H393 H 0.39416 0.07045 0.40008 0.0
H394 H 0.32212 0.99055 0.47925 0.0
H395 H 0.36059 0.10209 0.51023 0.0
H396 H 0.36315 0.15452 0.50413 0.0
H397 H 0.26229 0.11017 0.53011 0.0
H398 H 0.25905 0.05738 0.53587 0.0
H399 H 0.30265 0.94249 0.67285 0.0
H400 H 0.32209 0.96977 0.61178 0.0
H401 H 0.24246 0.98768 0.60861 0.0
H402 H 0.22431 0.96225 0.6703 0.0
H403 H 0.2899 0.0377 0.58382 0.0
H404 H 0.2494 0.92699 0.55231 0.0
H405 H 0.24403 0.87321 0.55664 0.0
H406 H 0.34426 0.91354 0.52929 0.0
H407 H 0.3503 0.96763 0.52521 0.0
C408 C 0.32418 0.07249 0.40113 0.0
C409 C 0.35367 0.07689 0.38702 0.0
C410 C 0.31241 0.0581 0.43683 0.0
C411 C 0.32994 0.04798 0.45923 0.0
C412 C 0.35971 0.05324 0.44533 0.0
C413 C 0.37138 0.0675 0.40994 0.0
C414 C 0.31733 0.03104 0.49652 0.0
C415 C 0.3154 1.00109 0.50223 0.0
C416 C 0.30753 0.04401 0.52643 0.0
C417 C 0.30952 0.07574 0.52308 0.0
C418 C 0.33891 0.10348 0.51435 0.0
C419 C 0.34049 0.13327 0.511 0.0
C420 C 0.31288 0.13566 0.51661 0.0
C421 C 0.28364 0.10828 0.5257 0.0
C422 C 0.28193 0.07842 0.52903 0.0
C423 C 0.28938 0.9523 0.65916 0.0
C424 C 0.26193 0.95013 0.6767 0.0
C425 C 0.30032 0.96772 0.62388 0.0
C426 C 0.28363 0.98067 0.60471 0.0
C427 C 0.25607 0.9782 0.62233 0.0
C428 C 0.24552 0.96334 0.65773 0.0
C429 C 0.29481 0.99714 0.56679 0.0
C430 C 0.29648 0.027 0.56089 0.0
C431 C 0.30392 0.98386 0.53646 0.0
C432 C 0.30036 0.95139 0.53883 0.0
C433 C 0.27034 0.92441 0.54747 0.0
C434 C 0.26717 0.89387 0.54983 0.0
C435 C 0.29381 0.88998 0.54334 0.0
C436 C 0.32366 0.9166 0.53436 0.0
C437 C 0.32696 0.9472 0.53198 0.0
H438 H 0.29131 0.86632 0.5452 0.0
H439 H 0.31415 0.15874 0.51401 0.0
H440 H 0.74651 0.78367 0.8744 0.0
H441 H 0.76378 0.77885 0.93788 0.0
H442 H 0.66544 0.71185 0.96881 0.0
H443 H 0.64828 0.71659 0.90522 0.0
H444 H 0.69945 0.75295 0.02868 0.0
H445 H 0.71351 0.68419 0.94004 0.0
H446 H 0.73376 0.67469 0.87992 0.0
H447 H 0.83078 0.74031 0.91285 0.0
H448 H 0.81107 0.75062 0.97303 0.0
H449 H 0.73074 0.68046 0.18694 0.0
H450 H 0.71157 0.68879 0.12616 0.0
H451 H 0.80964 0.74883 0.08852 0.0
H452 H 0.82872 0.74064 0.14901 0.0
H453 H 0.77529 0.71093 0.03176 0.0
H454 H 0.7657 0.78694 0.11038 0.0
H455 H 0.75055 0.80694 0.16634 0.0
H456 H 0.65154 0.73473 0.15211 0.0
H457 H 0.66618 0.71498 0.09495 0.0
C458 C 0.72847 0.7689 0.89521 0.0
C459 C 0.69592 0.75118 0.88512 0.0
C460 C 0.73839 0.76579 0.93141 0.0
C461 C 0.71601 0.74464 0.95829 0.0
C462 C 0.68324 0.72837 0.94885 0.0
C463 C 0.67338 0.73131 0.91255 0.0
C464 C 0.72687 0.7376 0.99493 0.0
C465 C 0.71559 0.74324 0.02925 0.0
C466 C 0.74873 0.72578 0.9961 0.0
C467 C 0.76079 0.71836 0.96092 0.0
C468 C 0.73917 0.69663 0.93446 0.0
C469 C 0.75054 0.69112 0.90037 0.0
C470 C 0.78352 0.70695 0.89257 0.0
C471 C 0.80523 0.7281 0.91897 0.0
C472 C 0.79398 0.73375 0.9531 0.0
C473 C 0.74817 0.69516 0.16556 0.0
C474 C 0.78129 0.70977 0.17289 0.0
C475 C 0.73721 0.70017 0.13082 0.0
C476 C 0.75908 0.71974 0.10245 0.0
C477 C 0.79214 0.73363 0.10958 0.0
C478 C 0.80305 0.72892 0.14434 0.0
C479 C 0.74771 0.72613 0.06565 0.0
C480 C 0.75889 0.72032 0.03124 0.0
C481 C 0.72619 0.73829 0.0643 0.0
C482 C 0.71706 0.74927 0.09885 0.0
C483 C 0.74073 0.7752 0.11938 0.0
C484 C 0.73221 0.78655 0.15126 0.0
C485 C 0.70013 0.77184 0.16325 0.0
C486 C 0.67641 0.74601 0.14293 0.0
C487 C 0.68477 0.73487 0.11061 0.0
H488 H 0.69363 0.78058 0.18811 0.0
H489 H 0.79219 0.70289 0.86599 0.0
H490 H 0.97607 0.33263 0.39219 0.0
H491 H 0.99681 0.33495 0.45518 0.0
H492 H 0.96143 0.2329 0.45203 0.0
H493 H 0.93979 0.23041 0.3883 0.0
H494 H 0.95581 0.25329 0.52421 0.0
H495 H 0.03959 0.28459 0.43235 0.0
H496 H 0.07264 0.31439 0.37712 0.0
H497 H 0.10413 0.40372 0.4351 0.0
H498 H 0.07091 0.37448 0.49054 0.0
H499 H 0.05963 0.26062 0.6714 0.0
H500 H 0.03217 0.25267 0.61143 0.0
H501 H 0.06675 0.35446 0.60419 0.0
H502 H 0.09466 0.36256 0.66461 0.0
H503 H 0.07228 0.33146 0.53669 0.0
H504 H 0.98761 0.29923 0.62869 0.0
H505 H 0.95261 0.26894 0.68249 0.0
H506 H 0.92254 0.18017 0.62387 0.0
H507 H 0.95772 0.2099 0.56984 0.0
C508 C 0.97199 0.31044 0.40512 0.0
C509 C 0.95616 0.2813 0.38511 0.0
C510 C 0.98416 0.31188 0.44119 0.0
C511 C 0.98155 0.28431 0.45833 0.0
C512 C 0.96402 0.25463 0.43947 0.0
C513 C 0.95143 0.25312 0.40311 0.0
C514 C 0.99878 0.28746 0.49474 0.0
C515 C 0.98138 0.26995 0.52675 0.0
C516 C 0.03213 0.30967 0.4986 0.0
C517 C 0.05256 0.32734 0.46553 0.0
C518 C 0.05342 0.3106 0.43326 0.0
C519 C 0.07219 0.32739 0.40191 0.0
C520 C 0.09042 0.36093 0.40257 0.0
C521 C 0.08999 0.37774 0.43463 0.0
C522 C 0.07122 0.36107 0.46605 0.0
C523 C 0.06155 0.28145 0.65709 0.0
C524 C 0.07932 0.31229 0.67312 0.0
C525 C 0.04552 0.27677 0.62276 0.0
C526 C 0.04672 0.3028 0.6032 0.0
C527 C 0.06514 0.33384 0.61865 0.0
C528 C 0.08112 0.33851 0.65329 0.0
C529 C 0.02928 0.29756 0.56644 0.0
C530 C 0.04672 0.31467 0.53424 0.0
C531 C 0.99604 0.27479 0.56245 0.0
C532 C 0.97551 0.25681 0.59531 0.0
C533 C 0.97379 0.27324 0.62739 0.0
C534 C 0.95382 0.25618 0.65786 0.0
C535 C 0.93527 0.22268 0.6565 0.0
C536 C 0.93685 0.20613 0.6248 0.0
C537 C 0.95678 0.22308 0.59424 0.0
H538 H 0.91973 0.20955 0.68005 0.0
H539 H 0.10492 0.37389 0.37826 0.0
H540 H 0.55976 0.09603 0.2472 0.0
H541 H 0.61781 0.11985 0.25368 0.0
H542 H 0.62661 0.21239 0.27495 0.0
H543 H 0.56851 0.18893 0.26711 0.0
H544 H 0.67478 0.21965 0.22973 0.0
H545 H 0.63105 0.16639 0.34724 0.0
H546 H 0.59566 0.12135 0.38932 0.0
H547 H 0.63657 0.0658 0.346 0.0
H548 H 0.67191 0.11036 0.30327 0.0
H549 H 0.83979 0.28463 0.28738 0.0
H550 H 0.78247 0.26846 0.28561 0.0
H551 H 0.75812 0.16969 0.26993 0.0
H552 H 0.81459 0.18535 0.27304 0.0
H553 H 0.71784 0.17009 0.31715 0.0
H554 H 0.75885 0.2226 0.19599 0.0
H555 H 0.79478 0.26837 0.15505 0.0
H556 H 0.75962 0.32617 0.20659 0.0
H557 H 0.7237 0.28081 0.24812 0.0
C558 C 0.57393 0.12153 0.25288 0.0
C559 C 0.55905 0.14038 0.2567 0.0
C560 C 0.60729 0.13512 0.257 0.0
C561 C 0.62687 0.16797 0.26538 0.0
C562 C 0.61222 0.187 0.26868 0.0
C563 C 0.5788 0.1734 0.26455 0.0
C564 C 0.66245 0.18218 0.27086 0.0
C565 C 0.68416 0.20904 0.24924 0.0
C566 C 0.67507 0.16844 0.29606 0.0
C567 C 0.65394 0.14163 0.32183 0.0
C568 C 0.63234 0.14449 0.3465 0.0
C569 C 0.61231 0.11905 0.3705 0.0
C570 C 0.61381 0.09071 0.37028 0.0
C571 C 0.63541 0.08776 0.34612 0.0
C572 C 0.65547 0.11311 0.32203 0.0
C573 C 0.82219 0.25947 0.28368 0.0
C574 C 0.83207 0.23638 0.28049 0.0
C575 C 0.78931 0.25021 0.2824 0.0
C576 C 0.76557 0.21773 0.2772 0.0
C577 C 0.77559 0.19484 0.27412 0.0
C578 C 0.80818 0.20395 0.27583 0.0
C579 C 0.73028 0.20697 0.27518 0.0
C580 C 0.70854 0.1808 0.29766 0.0
C581 C 0.71773 0.2214 0.25082 0.0
C582 C 0.73885 0.24843 0.22539 0.0
C583 C 0.7589 0.24512 0.19869 0.0
C584 C 0.77925 0.27098 0.17539 0.0
C585 C 0.77955 0.30019 0.1783 0.0
C586 C 0.75939 0.30355 0.20441 0.0
C587 C 0.73901 0.27776 0.2278 0.0
H588 H 0.79537 0.3202 0.16029 0.0
H589 H 0.59829 0.07104 0.38888 0.0
H590 H 0.55676 0.47766 0.28002 0.0
H591 H 0.52002 0.41978 0.28567 0.0
H592 H 0.59286 0.40169 0.23894 0.0
H593 H 0.62964 0.45959 0.23294 0.0
H594 H 0.53808 0.36144 0.2089 0.0
H595 H 0.57195 0.39225 0.33575 0.0
H596 H 0.58208 0.4234 0.39447 0.0
H597 H 0.48141 0.39185 0.40531 0.0
H598 H 0.47073 0.36085 0.34634 0.0
H599 H 0.45828 0.19477 0.26094 0.0
H600 H 0.49705 0.25248 0.25729 0.0
H601 H 0.4229 0.27359 0.2907 0.0
H602 H 0.38399 0.21605 0.29433 0.0
H603 H 0.47938 0.31169 0.32821 0.0
H604 H 0.44681 0.28113 0.19959 0.0
H605 H 0.43803 0.24921 0.14176 0.0
H606 H 0.53866 0.2796 0.13587 0.0
H607 H 0.54797 0.31138 0.19399 0.0
C608 C 0.56516 0.46144 0.27129 0.0
C609 C 0.59637 0.47357 0.25611 0.0
C610 C 0.54403 0.42817 0.27455 0.0
C611 C 0.55359 0.406 0.26324 0.0
C612 C 0.58468 0.41806 0.24788 0.0
C613 C 0.60575 0.45131 0.24438 0.0
C614 C 0.53111 0.37037 0.2669 0.0
C615 C 0.52568 0.35062 0.23522 0.0
C616 C 0.51428 0.35587 0.30096 0.0
C617 C 0.52059 0.37449 0.33642 0.0
C618 C 0.55201 0.39216 0.35049 0.0
C619 C 0.55784 0.40976 0.38385 0.0
C620 C 0.53242 0.40968 0.40355 0.0
C621 C 0.50109 0.39193 0.38998 0.0
C622 C 0.49512 0.37432 0.35661 0.0
C623 C 0.45015 0.21163 0.26761 0.0
C624 C 0.41781 0.20052 0.27781 0.0
C625 C 0.4724 0.24473 0.26536 0.0
C626 C 0.46297 0.2676 0.27341 0.0
C627 C 0.43088 0.25657 0.2843 0.0
C628 C 0.40856 0.22353 0.28623 0.0
C629 C 0.48636 0.30297 0.27023 0.0
C630 C 0.49192 0.32261 0.30198 0.0
C631 C 0.50354 0.31731 0.23638 0.0
C632 C 0.49802 0.29836 0.20135 0.0
C633 C 0.46702 0.2808 0.18613 0.0
C634 C 0.46196 0.26277 0.15327 0.0
C635 C 0.48775 0.26231 0.13521 0.0
C636 C 0.51869 0.27995 0.14992 0.0
C637 C 0.52388 0.29799 0.1828 0.0
H638 H 0.48378 0.24833 0.10977 0.0
H639 H 0.53699 0.4233 0.42938 0.0
H640 H 0.84397 0.3912 0.2579 0.0
H641 H 0.82175 0.42734 0.26172 0.0
H642 H 0.91721 0.50921 0.25143 0.0
H643 H 0.93955 0.47347 0.24666 0.0
H644 H 0.88335 0.51732 0.30831 0.0
H645 H 0.86544 0.48479 0.17765 0.0
H646 H 0.84444 0.44528 0.12595 0.0
H647 H 0.74822 0.40864 0.16845 0.0
H648 H 0.76872 0.44769 0.22071 0.0
H649 H 0.85342 0.64391 0.27147 0.0
H650 H 0.86972 0.60336 0.26773 0.0
H651 H 0.77024 0.52842 0.26809 0.0
H652 H 0.75359 0.56913 0.27085 0.0
H653 H 0.8025 0.51361 0.21922 0.0
H654 H 0.8186 0.5463 0.34793 0.0
H655 H 0.83829 0.58416 0.40131 0.0
H656 H 0.93581 0.6182 0.36543 0.0
H657 H 0.91669 0.58084 0.31151 0.0
C658 C 0.86028 0.41687 0.25593 0.0
C659 C 0.89371 0.42922 0.25214 0.0
C660 C 0.84749 0.43756 0.25827 0.0
C661 C 0.86775 0.47112 0.25681 0.0
C662 C 0.90103 0.48348 0.25291 0.0
C663 C 0.91381 0.46288 0.25037 0.0
C664 C 0.85459 0.49353 0.25982 0.0
C665 C 0.86594 0.51672 0.28856 0.0
C666 C 0.83102 0.49217 0.23491 0.0
C667 C 0.81865 0.46893 0.2033 0.0
C668 C 0.83983 0.46815 0.17612 0.0
C669 C 0.82801 0.44587 0.14669 0.0
C670 C 0.79502 0.4244 0.14398 0.0
C671 C 0.77377 0.42525 0.17062 0.0
C672 C 0.78547 0.44747 0.20013 0.0
C673 C 0.83486 0.61884 0.27085 0.0
C674 C 0.80209 0.60996 0.27177 0.0
C675 C 0.84429 0.59555 0.26886 0.0
C676 C 0.82131 0.56261 0.26834 0.0
C677 C 0.78854 0.5536 0.26862 0.0
C678 C 0.77903 0.57697 0.27032 0.0
C679 C 0.83168 0.53784 0.2674 0.0
C680 C 0.81979 0.51416 0.23913 0.0
C681 C 0.85455 0.53851 0.293 0.0
C682 C 0.86618 0.56095 0.32548 0.0
C683 C 0.84424 0.56202 0.35127 0.0
C684 C 0.8553 0.58337 0.38164 0.0
C685 C 0.88828 0.60363 0.38671 0.0
C686 C 0.91027 0.60252 0.36145 0.0
C687 C 0.89933 0.58123 0.33099 0.0
H688 H 0.89679 0.62014 0.41025 0.0
H689 H 0.78592 0.40715 0.12119 0.0
H690 H 0.11045 0.5571 0.75735 0.0
H691 H 0.1349 0.61528 0.76282 0.0
H692 H 0.22926 0.62545 0.75418 0.0
H693 H 0.20478 0.56684 0.74904 0.0
H694 H 0.23067 0.66646 0.805 0.0
H695 H 0.19484 0.64326 0.6787 0.0
H696 H 0.15731 0.61585 0.62659 0.0
H697 H 0.09451 0.64868 0.66904 0.0
H698 H 0.13145 0.67591 0.72176 0.0
H699 H 0.29762 0.83888 0.77334 0.0
H700 H 0.28332 0.78216 0.76694 0.0
H701 H 0.18332 0.7529 0.78405 0.0
H702 H 0.19716 0.80875 0.79044 0.0
H703 H 0.19119 0.72314 0.72358 0.0
H704 H 0.22874 0.74404 0.85315 0.0
H705 H 0.26917 0.77241 0.90238 0.0
H706 H 0.33294 0.7456 0.84853 0.0
H707 H 0.29305 0.71741 0.79876 0.0
C708 C 0.13642 0.57162 0.75628 0.0
C709 C 0.15553 0.55705 0.75226 0.0
C710 C 0.15045 0.60507 0.75945 0.0
C711 C 0.18406 0.62516 0.75817 0.0
C712 C 0.2033 0.61069 0.75512 0.0
C713 C 0.18923 0.57708 0.75221 0.0
C714 C 0.19871 0.6611 0.75975 0.0
C715 C 0.22235 0.67887 0.78675 0.0
C716 C 0.18812 0.6777 0.73606 0.0
C717 C 0.16581 0.66141 0.70437 0.0
C718 C 0.17291 0.64444 0.67709 0.0
C719 C 0.15176 0.62896 0.64742 0.0
C720 C 0.12351 0.63046 0.64456 0.0
C721 C 0.11639 0.64751 0.67132 0.0
C722 C 0.13745 0.663 0.70109 0.0
C723 C 0.27263 0.82033 0.77612 0.0
C724 C 0.24863 0.82866 0.78244 0.0
C725 C 0.26446 0.78784 0.77247 0.0
C726 C 0.23213 0.76301 0.77499 0.0
C727 C 0.20838 0.7714 0.78178 0.0
C728 C 0.21646 0.80359 0.78558 0.0
C729 C 0.22232 0.72828 0.76958 0.0
C730 C 0.19964 0.71074 0.74166 0.0
C731 C 0.23422 0.71211 0.79198 0.0
C732 C 0.25807 0.72893 0.82202 0.0
C733 C 0.25149 0.74442 0.85166 0.0
C734 C 0.2743 0.76043 0.8797 0.0
C735 C 0.30367 0.76091 0.87854 0.0
C736 C 0.31024 0.74529 0.84939 0.0
C737 C 0.28753 0.72927 0.82128 0.0
H738 H 0.32129 0.77331 0.90026 0.0
H739 H 0.10717 0.61847 0.62156 0.0
H740 H 0.39326 0.83614 0.75207 0.0
H741 H 0.42621 0.81032 0.75382 0.0
H742 H 0.51141 0.90308 0.76616 0.0
H743 H 0.47908 0.92907 0.76215 0.0
H744 H 0.52463 0.87037 0.71986 0.0
H745 H 0.47253 0.84643 0.84208 0.0
H746 H 0.42634 0.82464 0.88631 0.0
H747 H 0.39093 0.7303 0.83985 0.0
H748 H 0.43678 0.75162 0.79504 0.0
H749 H 0.63785 0.83561 0.79475 0.0
H750 H 0.59665 0.85068 0.789 0.0
H751 H 0.52697 0.75315 0.76008 0.0
H752 H 0.56849 0.73754 0.766 0.0
H753 H 0.50184 0.78208 0.80954 0.0
H754 H 0.55866 0.8072 0.6912 0.0
H755 H 0.60678 0.83051 0.64993 0.0
H756 H 0.63476 0.9248 0.69195 0.0
H757 H 0.58705 0.90201 0.73388 0.0
C758 C 0.41905 0.85114 0.75469 0.0
C759 C 0.43327 0.88486 0.75724 0.0
C760 C 0.43791 0.83623 0.75621 0.0
C761 C 0.47145 0.85457 0.76078 0.0
C762 C 0.48566 0.88819 0.7628 0.0
C763 C 0.46694 0.90308 0.76094 0.0
C764 C 0.4921 0.83922 0.763 0.0
C765 C 0.51965 0.85125 0.73976 0.0
C766 C 0.48543 0.81354 0.78809 0.0
C767 C 0.45789 0.80068 0.81497 0.0
C768 C 0.45477 0.82108 0.84112 0.0
C769 C 0.42868 0.80881 0.86633 0.0
C770 C 0.4057 0.77612 0.86585 0.0
C771 C 0.40876 0.75562 0.84017 0.0
C772 C 0.4348 0.76778 0.81489 0.0
C773 C 0.61379 0.81711 0.78735 0.0
C774 C 0.60674 0.7853 0.78053 0.0
C775 C 0.59017 0.82589 0.78398 0.0
C776 C 0.55873 0.80326 0.77348 0.0
C777 C 0.55108 0.77114 0.76804 0.0
C778 C 0.57488 0.76225 0.77138 0.0
C779 C 0.53462 0.8139 0.76713 0.0
C780 C 0.50649 0.80096 0.78943 0.0
C781 C 0.54085 0.839 0.74143 0.0
C782 C 0.56936 0.85285 0.71586 0.0
C783 C 0.57517 0.83288 0.6918 0.0
C784 C 0.60237 0.84601 0.66827 0.0
C785 C 0.62384 0.87911 0.66836 0.0
C786 C 0.61811 0.89917 0.69191 0.0
C787 C 0.59097 0.88616 0.71553 0.0
H788 H 0.64489 0.88922 0.65014 0.0
H789 H 0.38558 0.76667 0.88546 0.0
H790 H 0.19783 0.45691 0.78341 0.0
H791 H 0.25519 0.49698 0.78084 0.0
H792 H 0.27779 0.42184 0.75958 0.0
H793 H 0.22076 0.38174 0.76291 0.0
H794 H 0.31822 0.46228 0.80908 0.0
H795 H 0.27897 0.47447 0.68822 0.0
H796 H 0.24327 0.48414 0.64742 0.0
H797 H 0.2764 0.57635 0.69894 0.0
H798 H 0.3121 0.56708 0.7403 0.0
H799 H 0.47876 0.55109 0.7456 0.0
H800 H 0.42078 0.51544 0.74938 0.0
H801 H 0.40733 0.59696 0.76671 0.0
H802 H 0.4654 0.63312 0.76091 0.0
H803 H 0.36185 0.556 0.72233 0.0
H804 H 0.40237 0.5463 0.84084 0.0
H805 H 0.43706 0.53748 0.8843 0.0
H806 H 0.4006 0.44198 0.84101 0.0
H807 H 0.366 0.45038 0.79689 0.0
C808 C 0.21496 0.44887 0.77817 0.0
C809 C 0.20443 0.41595 0.77327 0.0
C810 C 0.24788 0.47191 0.77651 0.0
C811 C 0.27109 0.46266 0.76951 0.0
C812 C 0.26057 0.42978 0.765 0.0
C813 C 0.22777 0.40678 0.76682 0.0
C814 C 0.30631 0.4869 0.76711 0.0
C815 C 0.32773 0.48252 0.78973 0.0
C816 C 0.31893 0.51412 0.74292 0.0
C817 C 0.29798 0.51996 0.71755 0.0
C818 C 0.27853 0.49675 0.69094 0.0
C819 C 0.25832 0.50216 0.66771 0.0
C820 C 0.25751 0.53081 0.67065 0.0
C821 C 0.27704 0.55417 0.69671 0.0
C822 C 0.2973 0.54887 0.72001 0.0
C823 C 0.46361 0.56169 0.74957 0.0
C824 C 0.4772 0.59526 0.75299 0.0
C825 C 0.43026 0.54107 0.75229 0.0
C826 C 0.4094 0.55325 0.75912 0.0
C827 C 0.42273 0.58677 0.76172 0.0
C828 C 0.45614 0.60748 0.75875 0.0
C829 C 0.37384 0.53097 0.76376 0.0
C830 C 0.35237 0.53578 0.74171 0.0
C831 C 0.36108 0.50427 0.78877 0.0
C832 C 0.38181 0.49908 0.81532 0.0
C833 C 0.40192 0.5235 0.84039 0.0
C834 C 0.42155 0.51856 0.86517 0.0
C835 C 0.4211 0.48922 0.86536 0.0
C836 C 0.40096 0.46471 0.84081 0.0
C837 C 0.38131 0.46954 0.81593 0.0
H838 H 0.4363 0.48544 0.88457 0.0
H839 H 0.2418 0.53493 0.65268 0.0
H840 H 0.24907 0.23545 0.28171 0.0
H841 H 0.21668 0.26135 0.27229 0.0
H842 H 0.13011 0.16891 0.27896 0.0
H843 H 0.16225 0.14285 0.28721 0.0
H844 H 0.12423 0.20487 0.22552 0.0
H845 H 0.1586 0.21929 0.35575 0.0
H846 H 0.19862 0.23756 0.40658 0.0
H847 H 0.24076 0.33478 0.3664 0.0
H848 H 0.2012 0.31698 0.31503 0.0
H849 H 0.02406 0.25769 0.33845 0.0
H850 H 0.0711 0.25097 0.3343 0.0
H851 H 0.08771 0.28562 0.2194 0.0
H852 H 0.03995 0.29201 0.22338 0.0
H853 H 0.13405 0.28538 0.32051 0.0
H854 H 0.11074 0.23984 0.16903 0.0
H855 H 0.0669 0.21898 0.12257 0.0
H856 H 0.99693 0.1782 0.2122 0.0
H857 H 0.04035 0.19858 0.25909 0.0
C858 C 0.22316 0.22057 0.28055 0.0
C859 C 0.20831 0.18704 0.28564 0.0
C860 C 0.20464 0.23546 0.27541 0.0
C861 C 0.17086 0.21717 0.27535 0.0
C862 C 0.15608 0.18362 0.27896 0.0
C863 C 0.17453 0.16875 0.2841 0.0
C864 C 0.15064 0.23279 0.27363 0.0
C865 C 0.1267 0.22277 0.24603 0.0
C866 C 0.15353 0.25605 0.30042 0.0
C867 C 0.17722 0.26676 0.33132 0.0
C868 C 0.17656 0.24452 0.35761 0.0
C869 C 0.19912 0.2548 0.38653 0.0
C870 C 0.22228 0.2873 0.38964 0.0
C871 C 0.22286 0.30961 0.3639 0.0
C872 C 0.20037 0.29944 0.33489 0.0
C873 C 0.03811 0.26453 0.31251 0.0
C874 C 0.02821 0.27513 0.28113 0.0
C875 C 0.06513 0.26079 0.31022 0.0
C876 C 0.08275 0.26726 0.27636 0.0
C877 C 0.07428 0.28009 0.24571 0.0
C878 C 0.04718 0.28403 0.24808 0.0
C879 C 0.10755 0.25727 0.27265 0.0
C880 C 0.13223 0.26819 0.29933 0.0
C881 C 0.10498 0.23442 0.24545 0.0
C882 C 0.07876 0.22094 0.21748 0.0
C883 C 0.08599 0.22624 0.17875 0.0
C884 C 0.06123 0.21455 0.15237 0.0
C885 C 0.02916 0.19731 0.16443 0.0
C886 C 0.02177 0.19157 0.20289 0.0
C887 C 0.04644 0.2032 0.22937 0.0
H888 H 1.01002 0.18842 0.14399 0.0
H889 H 0.23973 0.29521 0.41206 0.0
H890 H 1.00724 0.86925 0.28085 0.0
H891 H 0.06564 0.90082 0.27479 0.0
H892 H 0.07152 0.81422 0.28291 0.0
H893 H 1.01298 0.7825 0.29042 0.0
H894 H 0.11585 0.85857 0.32527 0.0
H895 H 0.08506 0.85522 0.19799 0.0
H896 H 0.05522 0.86003 0.14453 0.0
H897 H 0.09542 0.9608 0.16682 0.0
H898 H 0.12516 0.95652 0.22077 0.0
H899 H 0.27983 0.99144 0.22839 0.0
H900 H 0.22578 0.94395 0.22386 0.0
H901 H 0.20511 0.95932 0.33836 0.0
H902 H 0.25877 1.00563 0.34329 0.0
H903 H 0.17028 0.94189 0.22614 0.0
H904 H 0.14975 0.89352 0.38068 0.0
H905 H 0.18064 0.88608 0.43094 0.0
H906 H 0.24469 0.88256 0.34797 0.0
H907 H 0.21394 0.88954 0.29716 0.0
C908 C 0.02086 0.85682 0.28151 0.0
C909 C 1.00517 0.8232 0.28627 0.0
C910 C 0.05438 0.87494 0.27758 0.0
C911 C 0.07321 0.86 0.27792 0.0
C912 C 0.05765 0.82642 0.28239 0.0
C913 C 0.02406 0.80823 0.28636 0.0
C914 C 0.10912 0.87967 0.27511 0.0
C915 C 0.12773 0.87664 0.30345 0.0
C916 C 0.12498 0.90274 0.24608 0.0
C917 C 0.10718 0.90549 0.21361 0.0
C918 C 0.08737 0.87836 0.19167 0.0
C919 C 0.0705 0.881 0.16125 0.0
C920 C 0.07338 0.91069 0.15233 0.0
C921 C 0.0932 0.93782 0.17377 0.0
C922 C 0.11011 0.93531 0.20425 0.0
C923 C 0.2641 0.98393 0.25296 0.0
C924 C 0.27369 1.00225 0.28626 0.0
C925 C 0.23305 0.957 0.25023 0.0
C926 C 0.21118 0.94774 0.28084 0.0
C927 C 0.22145 0.96532 0.31452 0.0
C928 C 0.25225 0.99203 0.31725 0.0
C929 C 0.17686 0.92165 0.27716 0.0
C930 C 0.15849 0.92351 0.24767 0.0
C931 C 0.16132 0.89707 0.30471 0.0
C932 C 0.1796 0.89223 0.3351 0.0
C933 C 0.17028 0.89093 0.37312 0.0
C934 C 0.18782 0.88686 0.40172 0.0
C935 C 0.21465 0.88392 0.39266 0.0
C936 C 0.22395 0.88494 0.35496 0.0
C937 C 0.2065 0.88899 0.32625 0.0
H938 H 0.22821 0.88081 0.41485 0.0
H939 H 0.0603 0.91268 0.12876 0.0
H940 H 0.86918 0.02378 0.35214 0.0
H941 H 0.84463 0.96567 0.34683 0.0
H942 H 0.8168 0.97003 0.23262 0.0
H943 H 0.83973 0.02822 0.23848 0.0
H944 H 0.76929 0.92007 0.26659 0.0
H945 H 0.8813 0.95851 0.25254 0.0
H946 H 0.93895 0.98945 0.26777 0.0
H947 H 0.92051 0.9388 0.37305 0.0
H948 H 0.86265 0.90786 0.3587 0.0
H949 H 0.74206 0.75846 0.23023 0.0
H950 H 0.75552 0.81521 0.22997 0.0
H951 H 0.78316 0.82394 0.34644 0.0
H952 H 0.76932 0.76774 0.34729 0.0
H953 H 0.83116 0.86728 0.30417 0.0
H954 H 0.71692 0.83002 0.31635 0.0
H955 H 0.6605 0.79766 0.29635 0.0
H956 H 0.68519 0.84474 0.18831 0.0
H957 H 0.74184 0.87714 0.20756 0.0
C958 C 0.85764 1.0125 0.32593 0.0
C959 C 0.85658 0.03098 0.29575 0.0
C960 C 0.84386 0.97915 0.32277 0.0
C961 C 0.82917 0.9633 0.28911 0.0
C962 C 0.82805 0.98159 0.25886 0.0
C963 C 0.8416 0.01501 0.26212 0.0
C964 C 0.81511 0.92773 0.28579 0.0
C965 C 0.78299 0.90859 0.27436 0.0
C966 C 0.83278 0.91248 0.29588 0.0
C967 C 0.86758 0.93106 0.30467 0.0
C968 C 0.8895 0.95414 0.27907 0.0
C969 C 0.92222 0.97165 0.28753 0.0
C970 C 0.93338 0.96615 0.32139 0.0
C971 C 0.91183 0.94307 0.34684 0.0
C972 C 0.87907 0.92551 0.33854 0.0
C973 C 0.74959 0.77213 0.25618 0.0
C974 C 0.75469 0.7587 0.28876 0.0
C975 C 0.75761 0.80461 0.25586 0.0
C976 C 0.77075 0.82396 0.28797 0.0
C977 C 0.77335 0.80968 0.32121 0.0
C978 C 0.7652 0.77743 0.32169 0.0
C979 C 0.78507 0.85959 0.28636 0.0
C980 C 0.81744 0.87878 0.2965 0.0
C981 C 0.76777 0.87474 0.27453 0.0
C982 C 0.73362 0.85584 0.26331 0.0
C983 C 0.71032 0.83337 0.28828 0.0
C984 C 0.6783 0.81504 0.27708 0.0
C985 C 0.66927 0.81912 0.24106 0.0
C986 C 0.69221 0.84163 0.21621 0.0
C987 C 0.72427 0.86001 0.22727 0.0
H988 H 0.64448 0.80485 0.23241 0.0
H989 H 0.95873 0.97973 0.32788 0.0
H990 H 0.2066 0.21751 0.72687 0.0
H991 H 0.23289 0.18516 0.7202 0.0
H992 H 0.20569 0.15129 0.83466 0.0
H993 H 0.18084 0.18457 0.84211 0.0
H994 H 0.26467 0.16461 0.82259 0.0
H995 H 0.16525 0.10551 0.75442 0.0
H996 H 0.12565 0.09758 0.70566 0.0
H997 H 0.19645 0.11776 0.6189 0.0
H998 H 0.2366 0.12623 0.66722 0.0
H999 H 0.25534 0.01517 0.83445 0.0
H1000 H 0.2479 0.06157 0.82987 0.0
H1001 H 0.29159 0.0829 0.71905 0.0
H1002 H 0.29866 0.03542 0.72317 0.0
H1003 H 0.23422 0.0833 0.72127 0.0
H1004 H 0.33058 0.13236 0.79251 0.0
H1005 H 0.36732 0.13674 0.84324 0.0
H1006 H 0.29977 0.13267 0.92659 0.0
H1007 H 0.26233 0.12765 0.87644 0.0
C1008 C 0.20647 0.20343 0.75077 0.0
C1009 C 0.19127 0.2036 0.78497 0.0
C1010 C 0.22128 0.18464 0.74677 0.0
C1011 C 0.22104 0.16536 0.77676 0.0
C1012 C 0.20623 0.16582 0.811 0.0
C1013 C 0.19161 0.18465 0.81507 0.0
C1014 C 0.23598 0.14454 0.77296 0.0
C1015 C 0.25787 0.14675 0.8005 0.0
C1016 C 0.22808 0.12186 0.74345 0.0
C1017 C 0.20403 0.11693 0.71443 0.0
C1018 C 0.17244 0.10855 0.72495 0.0
C1019 C 0.14989 0.1039 0.6974 0.0
C1020 C 0.15856 0.10729 0.65921 0.0
C1021 C 0.18979 0.11524 0.64849 0.0
C1022 C 0.21246 0.11996 0.67595 0.0
C1023 C 0.26399 0.03001 0.8093 0.0
C1024 C 0.27778 0.02169 0.77924 0.0
C1025 C 0.25984 0.05671 0.80685 0.0
C1026 C 0.26952 0.07609 0.77441 0.0
C1027 C 0.28413 0.06844 0.74452 0.0
C1028 C 0.28846 0.04154 0.74703 0.0
C1029 C 0.26208 0.10275 0.77158 0.0
C1030 C 0.24158 0.10164 0.74287 0.0
C1031 C 0.27096 0.12623 0.80028 0.0
C1032 C 0.29358 0.12955 0.83062 0.0
C1033 C 0.32346 0.13222 0.82165 0.0
C1034 C 0.34443 0.13483 0.85032 0.0
C1035 C 0.33591 0.13503 0.88811 0.0
C1036 C 0.30641 0.13266 0.8973 0.0
C1037 C 0.2853 0.12993 0.86875 0.0
H1038 H 0.35213 0.13698 0.91026 0.0
H1039 H 0.14106 0.10365 0.63792 0.0
H1040 H 0.03966 0.85999 0.72799 0.0
H1041 H 0.98151 0.83526 0.72183 0.0
H1042 H 0.96938 0.81213 0.84058 0.0
H1043 H 0.02731 0.83499 0.84652 0.0
H1044 H 0.92564 0.76341 0.80443 0.0
H1045 H 0.96276 0.87618 0.80185 0.0
H1046 H 0.99508 0.9324 0.78029 0.0
H1047 H 0.95503 0.90508 0.66953 0.0
H1048 H 0.92276 0.84857 0.69031 0.0
H1049 H 0.77363 0.75425 0.83657 0.0
H1050 H 0.82924 0.76526 0.83403 0.0
H1051 H 0.82671 0.76479 0.71236 0.0
H1052 H 0.7706 0.75316 0.71497 0.0
H1053 H 0.87684 0.82214 0.74477 0.0
H1054 H 0.83418 0.7085 0.7538 0.0
H1055 H 0.80083 0.65416 0.78048 0.0
H1056 H 0.8503 0.6857 0.88583 0.0
H1057 H 0.88355 0.74043 0.86004 0.0
C1058 C 0.0247 0.84942 0.75281 0.0
C1059 C 0.03848 0.8497 0.78782 0.0
C1060 C 0.99133 0.83555 0.7493 0.0
C1061 C 0.97086 0.82208 0.78082 0.0
C1062 C 0.98452 0.82236 0.81579 0.0
C1063 C 1.01785 0.83592 0.81925 0.0
C1064 C 0.93526 0.80759 0.77744 0.0
C1065 C 0.91503 0.77643 0.79169 0.0
C1066 C 0.92117 0.82417 0.76017 0.0
C1067 C 0.94065 0.85809 0.74751 0.0
C1068 C 0.96106 0.88211 0.7728 0.0
C1069 C 0.97933 0.91404 0.76074 0.0
C1070 C 0.97719 0.92229 0.72353 0.0
C1071 C 0.95671 0.89864 0.69832 0.0
C1072 C 0.93842 0.86666 0.71022 0.0
C1073 C 0.7846 0.75528 0.80933 0.0
C1074 C 0.76782 0.75234 0.77596 0.0
C1075 C 0.81638 0.76169 0.80788 0.0
C1076 C 0.83216 0.76586 0.77301 0.0
C1077 C 0.81493 0.76151 0.73956 0.0
C1078 C 0.78283 0.7545 0.74103 0.0
C1079 C 0.86741 0.77816 0.77192 0.0
C1080 C 0.88755 0.80901 0.75703 0.0
C1081 C 0.88133 0.76157 0.78934 0.0
C1082 C 0.86126 0.72867 0.80501 0.0
C1083 C 0.83777 0.70395 0.78276 0.0
C1084 C 0.81892 0.67305 0.79771 0.0
C1085 C 0.82347 0.66647 0.83481 0.0
C1086 C 0.84688 0.6908 0.85705 0.0
C1087 C 0.86573 0.72178 0.84228 0.0
H1088 H 0.80883 0.64253 0.84634 0.0
H1089 H 0.99134 0.94703 0.71425 0.0
H1090 H 0.99738 0.26316 0.83213 0.0
H1091 H 0.95474 0.20687 0.82999 0.0
H1092 H 0.97009 0.20531 0.71002 0.0
H1093 H 1.0112 0.26249 0.71183 0.0
H1094 H 0.90808 0.16484 0.72706 0.0
H1095 H 1.00865 0.18184 0.77146 0.0
H1096 H 0.05713 0.20649 0.81075 0.0
H1097 H 0.99874 0.1678 0.91056 0.0
H1098 H 0.94977 0.14312 0.87177 0.0
H1099 H 0.85021 0.99459 0.72229 0.0
H1100 H 0.88424 0.05304 0.71728 0.0
H1101 H 0.86715 0.06254 0.83503 0.0
H1102 H 0.83259 1.0044 0.84016 0.0
H1103 H 0.93065 0.09885 0.81586 0.0
H1104 H 0.82904 0.07933 0.76587 0.0
H1105 H 0.7831 0.05501 0.72249 0.0
H1106 H 0.84712 0.09815 0.62787 0.0
H1107 H 0.89352 0.12232 0.67064 0.0
C1108 C 0.99055 0.25118 0.80505 0.0
C1109 C 1.0074 0.26713 0.77211 0.0
C1110 C 0.96651 0.21888 0.80389 0.0
C1111 C 0.95973 0.20151 0.76999 0.0
C1112 C 0.9748 0.21813 0.73649 0.0
C1113 C 0.99826 0.25083 0.73751 0.0
C1114 C 0.93957 0.16571 0.77042 0.0
C1115 C 0.91322 0.15039 0.74617 0.0
C1116 C 0.9462 0.14667 0.79529 0.0
C1117 C 0.97555 0.16086 0.81874 0.0
C1118 C 1.00614 0.1787 0.8018 0.0
C1119 C 0.03371 0.19268 0.82399 0.0
C1120 C 0.03104 0.18882 0.86317 0.0
C1121 C 1.00077 0.1708 0.88021 0.0
C1122 C 0.97309 0.15676 0.85813 0.0
C1123 C 0.85344 1.00907 0.7471 0.0
C1124 C 0.83854 0.99452 0.78168 0.0
C1125 C 0.87298 0.04256 0.74416 0.0
C1126 C 0.87806 0.0623 0.77569 0.0
C1127 C 0.86366 0.04786 0.8103 0.0
C1128 C 0.84404 0.01447 0.81324 0.0
C1129 C 0.89872 0.09795 0.77302 0.0
C1130 C 0.92541 0.11326 0.79678 0.0
C1131 C 0.89271 0.11679 0.74712 0.0
C1132 C 0.86479 0.10229 0.72144 0.0
C1133 C 0.83336 0.08337 0.73579 0.0
C1134 C 0.80723 0.06966 0.71131 0.0
C1135 C 0.8122 0.07493 0.67244 0.0
C1136 C 0.84331 0.09401 0.65797 0.0
C1137 C 0.86953 0.10773 0.68232 0.0
H1138 H 0.79194 0.0643 0.65354 0.0
H1139 H 0.05243 0.19972 0.8803 0.0
loop_
_geom_bond_atom_site_label_1
_geom_bond_atom_site_label_2
_geom_bond_distance
_geom_bond_site_symmetry_2
_ccdc_geom_bond_type
Gd0 C3 2.818 . S
Gd0 O20 2.377 . S
Gd0 O22 2.448 . S
Gd0 O23 2.506 . S
Gd0 O24 2.435 . S
Gd0 O25 2.717 . S
Gd0 O27 2.395 . S
Gd0 O31 2.327 . S
Gd1 C12 2.818 . S
Gd1 O21 2.395 . S
Gd1 O25 2.327 . S
Gd1 O26 2.377 . S
Gd1 O28 2.448 . S
Gd1 O29 2.506 . S
Gd1 O30 2.435 . S
Gd1 O31 2.717 . S
C2 O20 1.240 . S
C2 O21 1.240 . S
C3 Gd0 2.818 . S
C3 C4 1.510 . S
C3 O22 1.249 . S
C3 O23 1.252 . S
C4 C3 1.510 . S
C4 C5 1.404 . S
C4 C6 1.352 . S
C5 C4 1.404 . S
C5 C9 1.389 . S
C5 H32 0.930 . S
C6 C4 1.352 . S
C6 C8 1.374 . S
C6 H33 0.931 . S
C7 C8 1.359 . S
C7 C9 1.364 . S
C8 C6 1.374 . S
C8 C7 1.359 . S
C8 H34 0.931 . S
C9 C5 1.389 . S
C9 C7 1.364 . S
C9 H35 0.931 . S
C10 O24 1.256 . S
C10 O25 1.257 . S
C11 O26 1.240 . S
C11 O27 1.240 . S
C12 Gd1 2.818 . S
C12 C13 1.510 . S
C12 O28 1.249 . S
C12 O29 1.252 . S
C13 C12 1.510 . S
C13 C14 1.404 . S
C13 C15 1.352 . S
C14 C13 1.404 . S
C14 C18 1.389 . S
C14 H36 0.930 . S
C15 C13 1.352 . S
C15 C17 1.374 . S
C15 H37 0.931 . S
C16 C17 1.359 . S
C16 C18 1.364 . S
C17 C15 1.374 . S
C17 C16 1.359 . S
C17 H38 0.931 . S
C18 C14 1.389 . S
C18 C16 1.364 . S
C18 H39 0.931 . S
C19 O30 1.256 . S
C19 O31 1.257 . S
O20 Gd0 2.377 . S
O20 C2 1.240 . S
O21 Gd1 2.395 . S
O21 C2 1.240 . S
O22 Gd0 2.448 . S
O22 C3 1.249 . S
O23 Gd0 2.506 . S
O23 C3 1.252 . S
O24 Gd0 2.435 . S
O24 C10 1.256 . S
O25 Gd0 2.717 . S
O25 Gd1 2.327 . S
O25 C10 1.257 . S
O26 Gd1 2.377 . S
O26 C11 1.240 . S
O27 Gd0 2.395 . S
O27 C11 1.240 . S
O28 Gd1 2.448 . S
O28 C12 1.249 . S
O29 Gd1 2.506 . S
O29 C12 1.252 . S
O30 Gd1 2.435 . S
O30 C19 1.256 . S
O31 Gd0 2.327 . S
O31 Gd1 2.717 . S
O31 C19 1.257 . S
H32 C5 0.930 . S
H33 C6 0.931 . S
H34 C8 0.931 . S
H35 C9 0.931 . S
H36 C14 0.930 . S
H37 C15 0.931 . S
H38 C17 0.931 . S
H39 C18 0.931 . S
Gd40 C43 2.818 . S
Gd40 O60 2.377 . S
Gd40 O62 2.448 . S
Gd40 O63 2.506 . S
Gd40 O64 2.435 . S
Gd40 O65 2.717 . S
Gd40 O67 2.395 . S
Gd40 O71 2.327 . S
Gd41 C52 2.818 . S
Gd41 O61 2.395 . S
Gd41 O65 2.327 . S
Gd41 O66 2.377 . S
Gd41 O68 2.448 . S
Gd41 O69 2.506 . S
Gd41 O70 2.435 . S
Gd41 O71 2.717 . S
C42 O60 1.240 . S
C42 O61 1.240 . S
C43 Gd40 2.818 . S
C43 C44 1.510 . S
C43 O62 1.249 . S
C43 O63 1.252 . S
C44 C43 1.510 . S
C44 C45 1.404 . S
C44 C46 1.352 . S
C45 C44 1.404 . S
C45 C49 1.389 . S
C45 H72 0.930 . S
C46 C44 1.352 . S
C46 C48 1.374 . S
C46 H73 0.931 . S
C47 C48 1.359 . S
C47 C49 1.364 . S
C48 C46 1.374 . S
C48 C47 1.359 . S
C48 H74 0.931 . S
C49 C45 1.389 . S
C49 C47 1.364 . S
C49 H75 0.931 . S
C50 O64 1.256 . S
C50 O65 1.257 . S
C51 O66 1.240 . S
C51 O67 1.240 . S
C52 Gd41 2.818 . S
C52 C53 1.510 . S
C52 O68 1.249 . S
C52 O69 1.252 . S
C53 C52 1.510 . S
C53 C54 1.404 . S
C53 C55 1.352 . S
C54 C53 1.404 . S
C54 C58 1.389 . S
C54 H76 0.930 . S
C55 C53 1.352 . S
C55 C57 1.374 . S
C55 H77 0.931 . S
C56 C57 1.359 . S
C56 C58 1.364 . S
C57 C55 1.374 . S
C57 C56 1.359 . S
C57 H78 0.931 . S
C58 C54 1.389 . S
C58 C56 1.364 . S
C58 H79 0.931 . S
C59 O70 1.256 . S
C59 O71 1.257 . S
O60 Gd40 2.377 . S
O60 C42 1.240 . S
O61 Gd41 2.395 . S
O61 C42 1.240 . S
O62 Gd40 2.448 . S
O62 C43 1.249 . S
O63 Gd40 2.506 . S
O63 C43 1.252 . S
O64 Gd40 2.435 . S
O64 C50 1.256 . S
O65 Gd40 2.717 . S
O65 Gd41 2.327 . S
O65 C50 1.257 . S
O66 Gd41 2.377 . S
O66 C51 1.240 . S
O67 Gd40 2.395 . S
O67 C51 1.240 . S
O68 Gd41 2.448 . S
O68 C52 1.249 . S
O69 Gd41 2.506 . S
O69 C52 1.252 . S
O70 Gd41 2.435 . S
O70 C59 1.256 . S
O71 Gd40 2.327 . S
O71 Gd41 2.717 . S
O71 C59 1.257 . S
H72 C45 0.930 . S
H73 C46 0.931 . S
H74 C48 0.931 . S
H75 C49 0.931 . S
H76 C54 0.930 . S
H77 C55 0.931 . S
H78 C57 0.931 . S
H79 C58 0.931 . S
Gd80 C83 2.818 . S
Gd80 O100 2.377 . S
Gd80 O102 2.448 . S
Gd80 O103 2.506 . S
Gd80 O104 2.435 . S
Gd80 O105 2.717 . S
Gd80 O107 2.395 . S
Gd80 O111 2.327 . S
Gd81 C92 2.818 . S
Gd81 O101 2.395 . S
Gd81 O105 2.327 . S
Gd81 O106 2.377 . S
Gd81 O108 2.448 . S
Gd81 O109 2.506 . S
Gd81 O110 2.435 . S
Gd81 O111 2.717 . S
C82 O100 1.240 . S
C82 O101 1.240 . S
C83 Gd80 2.818 . S
C83 C84 1.510 . S
C83 O102 1.249 . S
C83 O103 1.252 . S
C84 C83 1.510 . S
C84 C85 1.404 . S
C84 C86 1.352 . S
C85 C84 1.404 . S
C85 C89 1.389 . S
C85 H112 0.930 . S
C86 C84 1.352 . S
C86 C88 1.374 . S
C86 H113 0.931 . S
C87 C88 1.359 . S
C87 C89 1.364 . S
C88 C86 1.374 . S
C88 C87 1.359 . S
C88 H114 0.931 . S
C89 C85 1.389 . S
C89 C87 1.364 . S
C89 H115 0.931 . S
C90 O104 1.256 . S
C90 O105 1.257 . S
C91 O106 1.240 . S
C91 O107 1.240 . S
C92 Gd81 2.818 . S
C92 C93 1.510 . S
C92 O108 1.249 . S
C92 O109 1.252 . S
C93 C92 1.510 . S
C93 C94 1.404 . S
C93 C95 1.352 . S
C94 C93 1.404 . S
C94 C98 1.389 . S
C94 H116 0.930 . S
C95 C93 1.352 . S
C95 C97 1.374 . S
C95 H117 0.931 . S
C96 C97 1.359 . S
C96 C98 1.364 . S
C97 C95 1.374 . S
C97 C96 1.359 . S
C97 H118 0.931 . S
C98 C94 1.389 . S
C98 C96 1.364 . S
C98 H119 0.931 . S
C99 O110 1.256 . S
C99 O111 1.257 . S
O100 Gd80 2.377 . S
O100 C82 1.240 . S
O101 Gd81 2.395 . S
O101 C82 1.240 . S
O102 Gd80 2.448 . S
O102 C83 1.249 . S
O103 Gd80 2.506 . S
O103 C83 1.252 . S
O104 Gd80 2.435 . S
O104 C90 1.256 . S
O105 Gd80 2.717 . S
O105 Gd81 2.327 . S
O105 C90 1.257 . S
O106 Gd81 2.377 . S
O106 C91 1.240 . S
O107 Gd80 2.395 . S
O107 C91 1.240 . S
O108 Gd81 2.448 . S
O108 C92 1.249 . S
O109 Gd81 2.506 . S
O109 C92 1.252 . S
O110 Gd81 2.435 . S
O110 C99 1.256 . S
O111 Gd80 2.327 . S
O111 Gd81 2.717 . S
O111 C99 1.257 . S
H112 C85 0.930 . S
H113 C86 0.931 . S
H114 C88 0.931 . S
H115 C89 0.931 . S
H116 C94 0.930 . S
H117 C95 0.931 . S
H118 C97 0.931 . S
H119 C98 0.931 . S
Gd120 C123 2.818 . S
Gd120 O140 2.377 . S
Gd120 O142 2.448 . S
Gd120 O143 2.506 . S
Gd120 O144 2.435 . S
Gd120 O145 2.717 . S
Gd120 O147 2.395 . S
Gd120 O151 2.327 . S
Gd121 C132 2.818 . S
Gd121 O141 2.395 . S
Gd121 O145 2.327 . S
Gd121 O146 2.377 . S
Gd121 O148 2.448 . S
Gd121 O149 2.506 . S
Gd121 O150 2.435 . S
Gd121 O151 2.717 . S
C122 O140 1.240 . S
C122 O141 1.240 . S
C123 Gd120 2.818 . S
C123 C124 1.510 . S
C123 O142 1.249 . S
C123 O143 1.252 . S
C124 C123 1.510 . S
C124 C125 1.404 . S
C124 C126 1.352 . S
C125 C124 1.404 . S
C125 C129 1.389 . S
C125 H152 0.930 . S
C126 C124 1.352 . S
C126 C128 1.374 . S
C126 H153 0.931 . S
C127 C128 1.359 . S
C127 C129 1.364 . S
C128 C126 1.374 . S
C128 C127 1.359 . S
C128 H154 0.931 . S
C129 C125 1.389 . S
C129 C127 1.364 . S
C129 H155 0.931 . S
C130 O144 1.256 . S
C130 O145 1.257 . S
C131 O146 1.240 . S
C131 O147 1.240 . S
C132 Gd121 2.818 . S
C132 C133 1.510 . S
C132 O148 1.249 . S
C132 O149 1.252 . S
C133 C132 1.510 . S
C133 C134 1.404 . S
C133 C135 1.352 . S
C134 C133 1.404 . S
C134 C138 1.389 . S
C134 H156 0.930 . S
C135 C133 1.352 . S
C135 C137 1.374 . S
C135 H157 0.931 . S
C136 C137 1.359 . S
C136 C138 1.364 . S
C137 C135 1.374 . S
C137 C136 1.359 . S
C137 H158 0.931 . S
C138 C134 1.389 . S
C138 C136 1.364 . S
C138 H159 0.931 . S
C139 O150 1.256 . S
C139 O151 1.257 . S
O140 Gd120 2.377 . S
O140 C122 1.240 . S
O141 Gd121 2.395 . S
O141 C122 1.240 . S
O142 Gd120 2.448 . S
O142 C123 1.249 . S
O143 Gd120 2.506 . S
O143 C123 1.252 . S
O144 Gd120 2.435 . S
O144 C130 1.256 . S
O145 Gd120 2.717 . S
O145 Gd121 2.327 . S
O145 C130 1.257 . S
O146 Gd121 2.377 . S
O146 C131 1.240 . S
O147 Gd120 2.395 . S
O147 C131 1.240 . S
O148 Gd121 2.448 . S
O148 C132 1.249 . S
O149 Gd121 2.506 . S
O149 C132 1.252 . S
O150 Gd121 2.435 . S
O150 C139 1.256 . S
O151 Gd120 2.327 . S
O151 Gd121 2.717 . S
O151 C139 1.257 . S
H152 C125 0.930 . S
H153 C126 0.931 . S
H154 C128 0.931 . S
H155 C129 0.931 . S
H156 C134 0.930 . S
H157 C135 0.931 . S
H158 C137 0.931 . S
H159 C138 0.931 . S
Gd160 C163 2.818 . S
Gd160 O180 2.377 . S
Gd160 O182 2.448 . S
Gd160 O183 2.506 . S
Gd160 O184 2.435 . S
Gd160 O185 2.717 . S
Gd160 O187 2.395 . S
Gd160 O191 2.327 . S
Gd161 C172 2.818 . S
Gd161 O181 2.395 . S
Gd161 O185 2.327 . S
Gd161 O186 2.377 . S
Gd161 O188 2.448 . S
Gd161 O189 2.506 . S
Gd161 O190 2.435 . S
Gd161 O191 2.717 . S
C162 O180 1.240 . S
C162 O181 1.240 . S
C163 Gd160 2.818 . S
C163 C164 1.510 . S
C163 O182 1.249 . S
C163 O183 1.252 . S
C164 C163 1.510 . S
C164 C165 1.404 . S
C164 C166 1.352 . S
C165 C164 1.404 . S
C165 C169 1.389 . S
C165 H192 0.930 . S
C166 C164 1.352 . S
C166 C168 1.374 . S
C166 H193 0.931 . S
C167 C168 1.359 . S
C167 C169 1.364 . S
C168 C166 1.374 . S
C168 C167 1.359 . S
C168 H194 0.931 . S
C169 C165 1.389 . S
C169 C167 1.364 . S
C169 H195 0.931 . S
C170 O184 1.256 . S
C170 O185 1.257 . S
C171 O186 1.240 . S
C171 O187 1.240 . S
C172 Gd161 2.818 . S
C172 C173 1.510 . S
C172 O188 1.249 . S
C172 O189 1.252 . S
C173 C172 1.510 . S
C173 C174 1.404 . S
C173 C175 1.352 . S
C174 C173 1.404 . S
C174 C178 1.389 . S
C174 H196 0.930 . S
C175 C173 1.352 . S
C175 C177 1.374 . S
C175 H197 0.931 . S
C176 C177 1.359 . S
C176 C178 1.364 . S
C177 C175 1.374 . S
C177 C176 1.359 . S
C177 H198 0.931 . S
C178 C174 1.389 . S
C178 C176 1.364 . S
C178 H199 0.931 . S
C179 O190 1.256 . S
C179 O191 1.257 . S
O180 Gd160 2.377 . S
O180 C162 1.240 . S
O181 Gd161 2.395 . S
O181 C162 1.240 . S
O182 Gd160 2.448 . S
O182 C163 1.249 . S
O183 Gd160 2.506 . S
O183 C163 1.252 . S
O184 Gd160 2.435 . S
O184 C170 1.256 . S
O185 Gd160 2.717 . S
O185 Gd161 2.327 . S
O185 C170 1.257 . S
O186 Gd161 2.377 . S
O186 C171 1.240 . S
O187 Gd160 2.395 . S
O187 C171 1.240 . S
O188 Gd161 2.448 . S
O188 C172 1.249 . S
O189 Gd161 2.506 . S
O189 C172 1.252 . S
O190 Gd161 2.435 . S
O190 C179 1.256 . S
O191 Gd160 2.327 . S
O191 Gd161 2.717 . S
O191 C179 1.257 . S
H192 C165 0.930 . S
H193 C166 0.931 . S
H194 C168 0.931 . S
H195 C169 0.931 . S
H196 C174 0.930 . S
H197 C175 0.931 . S
H198 C177 0.931 . S
H199 C178 0.931 . S
Gd200 C203 2.818 . S
Gd200 O220 2.377 . S
Gd200 O222 2.448 . S
Gd200 O223 2.506 . S
Gd200 O224 2.435 . S
Gd200 O225 2.717 . S
Gd200 O227 2.395 . S
Gd200 O231 2.327 . S
Gd201 C212 2.818 . S
Gd201 O221 2.395 . S
Gd201 O225 2.327 . S
Gd201 O226 2.377 . S
Gd201 O228 2.448 . S
Gd201 O229 2.506 . S
Gd201 O230 2.435 . S
Gd201 O231 2.717 . S
C202 O220 1.240 . S
C202 O221 1.240 . S
C203 Gd200 2.818 . S
C203 C204 1.510 . S
C203 O222 1.249 . S
C203 O223 1.252 . S
C204 C203 1.510 . S
C204 C205 1.404 . S
C204 C206 1.352 . S
C205 C204 1.404 . S
C205 C209 1.389 . S
C205 H232 0.930 . S
C206 C204 1.352 . S
C206 C208 1.374 . S
C206 H233 0.931 . S
C207 C208 1.359 . S
C207 C209 1.364 . S
C208 C206 1.374 . S
C208 C207 1.359 . S
C208 H234 0.931 . S
C209 C205 1.389 . S
C209 C207 1.364 . S
C209 H235 0.931 . S
C210 O224 1.256 . S
C210 O225 1.257 . S
C211 O226 1.240 . S
C211 O227 1.240 . S
C212 Gd201 2.818 . S
C212 C213 1.510 . S
C212 O228 1.249 . S
C212 O229 1.252 . S
C213 C212 1.510 . S
C213 C214 1.404 . S
C213 C215 1.352 . S
C214 C213 1.404 . S
C214 C218 1.389 . S
C214 H236 0.930 . S
C215 C213 1.352 . S
C215 C217 1.374 . S
C215 H237 0.931 . S
C216 C217 1.359 . S
C216 C218 1.364 . S
C217 C215 1.374 . S
C217 C216 1.359 . S
C217 H238 0.931 . S
C218 C214 1.389 . S
C218 C216 1.364 . S
C218 H239 0.931 . S
C219 O230 1.256 . S
C219 O231 1.257 . S
O220 Gd200 2.377 . S
O220 C202 1.240 . S
O221 Gd201 2.395 . S
O221 C202 1.240 . S
O222 Gd200 2.448 . S
O222 C203 1.249 . S
O223 Gd200 2.506 . S
O223 C203 1.252 . S
O224 Gd200 2.435 . S
O224 C210 1.256 . S
O225 Gd200 2.717 . S
O225 Gd201 2.327 . S
O225 C210 1.257 . S
O226 Gd201 2.377 . S
O226 C211 1.240 . S
O227 Gd200 2.395 . S
O227 C211 1.240 . S
O228 Gd201 2.448 . S
O228 C212 1.249 . S
O229 Gd201 2.506 . S
O229 C212 1.252 . S
O230 Gd201 2.435 . S
O230 C219 1.256 . S
O231 Gd200 2.327 . S
O231 Gd201 2.717 . S
O231 C219 1.257 . S
H232 C205 0.930 . S
H233 C206 0.931 . S
H234 C208 0.931 . S
H235 C209 0.931 . S
H236 C214 0.930 . S
H237 C215 0.931 . S
H238 C217 0.931 . S
H239 C218 0.931 . S
H240 C258 0.951 . S
H241 C260 0.951 . S
H242 C262 0.950 . S
H243 C263 0.950 . S
H244 C265 0.950 . S
H245 C268 0.950 1_545 S
H246 C269 0.950 . S
H247 C271 0.960 . S
H248 C272 0.950 1_554 S
H249 C273 0.951 . S
H250 C275 0.951 . S
H251 C277 0.950 . S
H252 C278 0.950 . S
H253 C280 0.950 . S
H254 C283 0.950 1_565 S
H255 C284 0.950 . S
H256 C286 0.960 . S
H257 C287 0.950 1_556 S
C258 H240 0.951 . S
C258 C259 1.366 . S
C258 C260 1.388 . S
C259 C258 1.366 . S
C259 C263 1.385 . S
C260 H241 0.951 . S
C260 C258 1.388 . S
C260 C261 1.366 . S
C261 C260 1.366 . S
C261 C262 1.414 . S
C261 C264 1.499 . S
C262 H242 0.950 . S
C262 C261 1.414 . S
C262 C263 1.374 . S
C263 H243 0.950 . S
C263 C259 1.385 . S
C263 C262 1.374 . S
C264 C261 1.499 . S
C264 C265 1.373 . S
C264 C266 1.389 . S
C265 H244 0.950 . S
C265 C264 1.373 . S
C265 C281 1.377 1_566 S
C266 C264 1.389 . S
C266 C267 1.524 . S
C266 C280 1.377 1_566 S
C267 C266 1.524 . S
C267 C268 1.397 . S
C267 C272 1.363 . S
C268 H245 0.950 1_565 S
C268 C267 1.397 . S
C268 C269 1.334 . S
C269 H246 0.950 . S
C269 C268 1.334 . S
C269 C270 1.287 . S
C270 C269 1.287 . S
C270 C271 1.524 . S
C270 H289 0.913 . S
C271 H247 0.960 . S
C271 C270 1.524 . S
C271 C272 1.415 . S
C272 H248 0.950 1_556 S
C272 C267 1.363 . S
C272 C271 1.415 . S
C273 H249 0.951 . S
C273 C274 1.366 . S
C273 C275 1.388 . S
C274 C273 1.366 . S
C274 C278 1.385 . S
C275 H250 0.951 . S
C275 C273 1.388 . S
C275 C276 1.366 . S
C276 C275 1.366 . S
C276 C277 1.414 . S
C276 C279 1.499 . S
C277 H251 0.950 . S
C277 C276 1.414 . S
C277 C278 1.374 . S
C278 H252 0.950 . S
C278 C274 1.385 . S
C278 C277 1.374 . S
C279 C276 1.499 . S
C279 C280 1.373 . S
C279 C281 1.389 . S
C280 H253 0.950 . S
C280 C266 1.377 1_544 S
C280 C279 1.373 . S
C281 C265 1.377 1_544 S
C281 C279 1.389 . S
C281 C282 1.524 . S
C282 C281 1.524 . S
C282 C283 1.397 . S
C282 C287 1.363 . S
C283 H254 0.950 1_545 S
C283 C282 1.397 . S
C283 C284 1.334 . S
C284 H255 0.950 . S
C284 C283 1.334 . S
C284 C285 1.287 . S
C285 C284 1.287 . S
C285 C286 1.524 . S
C285 H288 0.999 . S
C286 H256 0.960 . S
C286 C285 1.524 . S
C286 C287 1.415 . S
C287 H257 0.950 1_554 S
C287 C282 1.363 . S
C287 C286 1.415 . S
H288 C285 0.999 . S
H289 C270 0.913 . S
H290 C308 0.951 . S
H291 C310 0.951 . S
H292 C312 0.950 . S
H293 C313 0.950 . S
H294 C315 0.950 . S
H295 C318 0.950 . S
H296 C319 0.950 . S
H297 C321 0.950 . S
H298 C322 0.950 . S
H299 C323 0.951 . S
H300 C325 0.951 . S
H301 C327 0.950 . S
H302 C328 0.950 . S
H303 C330 0.950 . S
H304 C333 0.950 . S
H305 C334 0.950 . S
H306 C336 0.950 . S
H307 C337 0.950 . S
C308 H290 0.951 . S
C308 C309 1.366 . S
C308 C310 1.388 . S
C309 C308 1.366 . S
C309 C313 1.385 . S
C310 H291 0.951 . S
C310 C308 1.388 . S
C310 C311 1.366 . S
C311 C310 1.366 . S
C311 C312 1.414 . S
C311 C314 1.499 . S
C312 H292 0.950 . S
C312 C311 1.414 . S
C312 C313 1.374 . S
C313 H293 0.950 . S
C313 C309 1.385 . S
C313 C312 1.374 . S
C314 C311 1.499 . S
C314 C315 1.373 . S
C314 C316 1.389 . S
C315 H294 0.950 . S
C315 C314 1.373 . S
C315 C331 1.377 . S
C316 C314 1.389 . S
C316 C317 1.524 . S
C316 C330 1.377 . S
C317 C316 1.524 . S
C317 C318 1.397 . S
C317 C322 1.363 . S
C318 H295 0.950 . S
C318 C317 1.397 . S
C318 C319 1.334 . S
C319 H296 0.950 . S
C319 C318 1.334 . S
C319 C320 1.287 . S
C320 C319 1.287 . S
C320 C321 1.524 . S
C320 H339 0.913 . S
C321 H297 0.950 . S
C321 C320 1.524 . S
C321 C322 1.415 . S
C322 H298 0.950 . S
C322 C317 1.363 . S
C322 C321 1.415 . S
C323 H299 0.951 . S
C323 C324 1.366 . S
C323 C325 1.388 . S
C324 C323 1.366 . S
C324 C328 1.385 . S
C325 H300 0.951 . S
C325 C323 1.388 . S
C325 C326 1.366 . S
C326 C325 1.366 . S
C326 C327 1.414 . S
C326 C329 1.499 . S
C327 H301 0.950 . S
C327 C326 1.414 . S
C327 C328 1.374 . S
C328 H302 0.950 . S
C328 C324 1.385 . S
C328 C327 1.374 . S
C329 C326 1.499 . S
C329 C330 1.373 . S
C329 C331 1.389 . S
C330 H303 0.950 . S
C330 C316 1.377 . S
C330 C329 1.373 . S
C331 C315 1.377 . S
C331 C329 1.389 . S
C331 C332 1.524 . S
C332 C331 1.524 . S
C332 C333 1.397 . S
C332 C337 1.363 . S
C333 H304 0.950 . S
C333 C332 1.397 . S
C333 C334 1.334 . S
C334 H305 0.950 . S
C334 C333 1.334 . S
C334 C335 1.287 . S
C335 C334 1.287 . S
C335 C336 1.524 . S
C335 H338 0.999 . S
C336 H306 0.950 . S
C336 C335 1.524 . S
C336 C337 1.415 . S
C337 H307 0.950 . S
C337 C332 1.363 . S
C337 C336 1.415 . S
H338 C335 0.999 . S
H339 C320 0.913 . S
H340 C358 0.951 . S
H341 C360 0.951 . S
H342 C362 0.950 . S
H343 C363 0.950 . S
H344 C365 0.950 . S
H345 C368 0.950 . S
H346 C369 0.950 . S
H347 C371 0.950 . S
H348 C372 0.950 . S
H349 C373 0.951 . S
H350 C375 0.951 . S
H351 C377 0.950 . S
H352 C378 0.950 . S
H353 C380 0.950 . S
H354 C383 0.950 . S
H355 C384 0.950 . S
H356 C386 0.950 . S
H357 C387 0.950 . S
C358 H340 0.951 . S
C358 C359 1.366 . S
C358 C360 1.388 . S
C359 C358 1.366 . S
C359 C363 1.385 . S
C360 H341 0.951 . S
C360 C358 1.388 . S
C360 C361 1.366 . S
C361 C360 1.366 . S
C361 C362 1.414 . S
C361 C364 1.499 . S
C362 H342 0.950 . S
C362 C361 1.414 . S
C362 C363 1.374 . S
C363 H343 0.950 . S
C363 C359 1.385 . S
C363 C362 1.374 . S
C364 C361 1.499 . S
C364 C365 1.373 1_655 S
C364 C366 1.389 1_554 S
C365 H344 0.950 . S
C365 C364 1.373 1_455 S
C365 C381 1.377 . S
C366 C364 1.389 1_556 S
C366 C367 1.524 . S
C366 C380 1.377 . S
C367 C366 1.524 . S
C367 C368 1.397 1_556 S
C367 C372 1.363 . S
C368 H345 0.950 . S
C368 C367 1.397 1_554 S
C368 C369 1.334 . S
C369 H346 0.950 . S
C369 C368 1.334 . S
C369 C370 1.287 1_554 S
C370 C369 1.287 1_556 S
C370 C371 1.524 . S
C370 H389 0.913 . S
C371 H347 0.950 . S
C371 C370 1.524 . S
C371 C372 1.415 . S
C372 H348 0.950 . S
C372 C367 1.363 . S
C372 C371 1.415 . S
C373 H349 0.951 . S
C373 C374 1.366 . S
C373 C375 1.388 . S
C374 C373 1.366 . S
C374 C378 1.385 . S
C375 H350 0.951 . S
C375 C373 1.388 . S
C375 C376 1.366 . S
C376 C375 1.366 . S
C376 C377 1.414 . S
C376 C379 1.499 . S
C377 H351 0.950 . S
C377 C376 1.414 . S
C377 C378 1.374 . S
C378 H352 0.950 . S
C378 C374 1.385 . S
C378 C377 1.374 . S
C379 C376 1.499 . S
C379 C380 1.373 1_455 S
C379 C381 1.389 1_556 S
C380 H353 0.950 . S
C380 C366 1.377 . S
C380 C379 1.373 1_655 S
C381 C365 1.377 . S
C381 C379 1.389 1_554 S
C381 C382 1.524 . S
C382 C381 1.524 . S
C382 C383 1.397 1_554 S
C382 C387 1.363 . S
C383 H354 0.950 . S
C383 C382 1.397 1_556 S
C383 C384 1.334 . S
C384 H355 0.950 . S
C384 C383 1.334 . S
C384 C385 1.287 1_556 S
C385 C384 1.287 1_554 S
C385 C386 1.524 . S
C385 H388 0.999 . S
C386 H356 0.950 . S
C386 C385 1.524 . S
C386 C387 1.415 . S
C387 H357 0.950 . S
C387 C382 1.363 . S
C387 C386 1.415 . S
H388 C385 0.999 . S
H389 C370 0.913 . S
H390 C408 0.951 . S
H391 C410 0.951 . S
H392 C412 0.950 . S
H393 C413 0.950 . S
H394 C415 0.950 . S
H395 C418 0.950 . S
H396 C419 0.950 . S
H397 C421 0.950 . S
H398 C422 0.950 . S
H399 C423 0.951 . S
H400 C425 0.951 . S
H401 C427 0.950 . S
H402 C428 0.950 . S
H403 C430 0.934 1_545 S
H404 C433 0.950 . S
H405 C434 0.950 . S
H406 C436 0.950 . S
H407 C437 0.950 . S
C408 H390 0.951 . S
C408 C409 1.366 . S
C408 C410 1.388 . S
C409 C408 1.366 . S
C409 C413 1.385 . S
C410 H391 0.951 . S
C410 C408 1.388 . S
C410 C411 1.366 . S
C411 C410 1.366 . S
C411 C412 1.414 . S
C411 C414 1.499 . S
C412 H392 0.950 . S
C412 C411 1.414 . S
C412 C413 1.374 . S
C413 H393 0.950 . S
C413 C409 1.385 . S
C413 C412 1.374 . S
C414 C411 1.499 . S
C414 C415 1.373 1_545 S
C414 C416 1.389 . S
C415 H394 0.950 . S
C415 C414 1.373 1_565 S
C415 C431 1.377 . S
C416 C414 1.389 . S
C416 C417 1.524 . S
C416 C430 1.365 1_545 S
C417 C416 1.524 . S
C417 C418 1.397 . S
C417 C422 1.363 . S
C418 H395 0.950 . S
C418 C417 1.397 . S
C418 C419 1.334 . S
C419 H396 0.950 . S
C419 C418 1.334 . S
C419 C420 1.287 . S
C420 C419 1.287 . S
C420 C421 1.524 . S
C420 H439 0.913 . S
C421 H397 0.950 . S
C421 C420 1.524 . S
C421 C422 1.415 . S
C422 H398 0.950 . S
C422 C417 1.363 . S
C422 C421 1.415 . S
C423 H399 0.951 . S
C423 C424 1.366 . S
C423 C425 1.388 . S
C424 C423 1.366 . S
C424 C428 1.385 . S
C425 H400 0.951 . S
C425 C423 1.388 . S
C425 C426 1.366 . S
C426 C425 1.366 . S
C426 C427 1.414 . S
C426 C429 1.499 . S
C427 H401 0.950 . S
C427 C426 1.414 . S
C427 C428 1.374 . S
C428 H402 0.950 . S
C428 C424 1.385 . S
C428 C427 1.374 . S
C429 C426 1.499 . S
C429 C430 1.393 . S
C429 C431 1.389 . S
C430 H403 0.934 1_565 S
C430 C416 1.365 1_565 S
C430 C429 1.393 . S
C431 C415 1.377 . S
C431 C429 1.389 . S
C431 C432 1.524 . S
C432 C431 1.524 . S
C432 C433 1.397 . S
C432 C437 1.363 . S
C433 H404 0.950 . S
C433 C432 1.397 . S
C433 C434 1.334 . S
C434 H405 0.950 . S
C434 C433 1.334 . S
C434 C435 1.287 . S
C435 C434 1.287 . S
C435 C436 1.524 . S
C435 H438 0.999 . S
C436 H406 0.950 . S
C436 C435 1.524 . S
C436 C437 1.415 . S
C437 H407 0.950 . S
C437 C432 1.363 . S
C437 C436 1.415 . S
H438 C435 0.999 . S
H439 C420 0.913 . S
H440 C458 0.951 . S
H441 C460 0.951 . S
H442 C462 0.950 . S
H443 C463 0.950 . S
H444 C465 0.950 . S
H445 C468 0.950 . S
H446 C469 0.950 . S
H447 C471 0.950 . S
H448 C472 0.950 . S
H449 C473 0.951 . S
H450 C475 0.951 . S
H451 C477 0.950 . S
H452 C478 0.950 . S
H453 C480 0.950 . S
H454 C483 0.950 . S
H455 C484 0.950 . S
H456 C486 0.950 . S
H457 C487 0.950 . S
C458 H440 0.951 . S
C458 C459 1.366 . S
C458 C460 1.388 . S
C459 C458 1.366 . S
C459 C463 1.385 . S
C460 H441 0.951 . S
C460 C458 1.388 . S
C460 C461 1.366 . S
C461 C460 1.366 . S
C461 C462 1.414 . S
C461 C464 1.499 . S
C462 H442 0.950 . S
C462 C461 1.414 . S
C462 C463 1.374 . S
C463 H443 0.950 . S
C463 C459 1.385 . S
C463 C462 1.374 . S
C464 C461 1.499 . S
C464 C465 1.376 1_556 S
C464 C466 1.389 . S
C465 H444 0.950 . S
C465 C464 1.376 1_554 S
C465 C481 1.374 . S
C466 C464 1.389 . S
C466 C467 1.524 . S
C466 C480 1.374 . S
C467 C466 1.524 . S
C467 C468 1.397 . S
C467 C472 1.363 . S
C468 H445 0.950 . S
C468 C467 1.397 . S
C468 C469 1.334 . S
C469 H446 0.950 . S
C469 C468 1.334 . S
C469 C470 1.287 . S
C470 C469 1.287 . S
C470 C471 1.524 . S
C470 H489 0.913 . S
C471 H447 0.950 . S
C471 C470 1.524 . S
C471 C472 1.415 . S
C472 H448 0.950 . S
C472 C467 1.363 . S
C472 C471 1.415 . S
C473 H449 0.951 . S
C473 C474 1.366 . S
C473 C475 1.388 . S
C474 C473 1.366 . S
C474 C478 1.385 . S
C475 H450 0.951 . S
C475 C473 1.388 . S
C475 C476 1.366 . S
C476 C475 1.366 . S
C476 C477 1.414 . S
C476 C479 1.499 . S
C477 H451 0.950 . S
C477 C476 1.414 . S
C477 C478 1.374 . S
C478 H452 0.950 . S
C478 C474 1.385 . S
C478 C477 1.374 . S
C479 C476 1.499 . S
C479 C480 1.376 1_554 S
C479 C481 1.389 . S
C480 H453 0.950 . S
C480 C466 1.374 . S
C480 C479 1.376 1_556 S
C481 C465 1.374 . S
C481 C479 1.389 . S
C481 C482 1.524 . S
C482 C481 1.524 . S
C482 C483 1.397 . S
C482 C487 1.363 . S
C483 H454 0.950 . S
C483 C482 1.397 . S
C483 C484 1.334 . S
C484 H455 0.950 . S
C484 C483 1.334 . S
C484 C485 1.287 . S
C485 C484 1.287 . S
C485 C486 1.524 . S
C485 H488 0.999 . S
C486 H456 0.950 . S
C486 C485 1.524 . S
C486 C487 1.415 . S
C487 H457 0.950 . S
C487 C482 1.363 . S
C487 C486 1.415 . S
H488 C485 0.999 . S
H489 C470 0.913 . S
H490 C508 0.951 . S
H491 C510 0.951 . S
H492 C512 0.950 . S
H493 C513 0.950 . S
H494 C515 0.950 . S
H495 C518 0.950 . S
H496 C519 0.950 . S
H497 C521 0.950 . S
H498 C522 0.950 . S
H499 C523 0.951 . S
H500 C525 0.951 . S
H501 C527 0.950 . S
H502 C528 0.950 . S
H503 C530 0.950 . S
H504 C533 0.950 . S
H505 C534 0.950 . S
H506 C536 0.950 . S
H507 C537 0.950 . S
C508 H490 0.951 . S
C508 C509 1.366 . S
C508 C510 1.388 . S
C509 C508 1.366 . S
C509 C513 1.385 . S
C510 H491 0.951 . S
C510 C508 1.388 . S
C510 C511 1.366 . S
C511 C510 1.366 . S
C511 C512 1.414 . S
C511 C514 1.499 . S
C512 H492 0.950 . S
C512 C511 1.414 . S
C512 C513 1.374 . S
C513 H493 0.950 . S
C513 C509 1.385 . S
C513 C512 1.374 . S
C514 C511 1.499 . S
C514 C515 1.373 . S
C514 C516 1.389 1_655 S
C515 H494 0.950 . S
C515 C514 1.373 . S
C515 C531 1.377 . S
C516 C514 1.389 1_455 S
C516 C517 1.524 . S
C516 C530 1.377 . S
C517 C516 1.524 . S
C517 C518 1.397 . S
C517 C522 1.363 . S
C518 H495 0.950 . S
C518 C517 1.397 . S
C518 C519 1.334 . S
C519 H496 0.950 . S
C519 C518 1.334 . S
C519 C520 1.287 . S
C520 C519 1.287 . S
C520 C521 1.524 . S
C520 H539 0.913 . S
C521 H497 0.950 . S
C521 C520 1.524 . S
C521 C522 1.415 . S
C522 H498 0.950 . S
C522 C517 1.363 . S
C522 C521 1.415 . S
C523 H499 0.951 . S
C523 C524 1.366 . S
C523 C525 1.388 . S
C524 C523 1.366 . S
C524 C528 1.385 . S
C525 H500 0.951 . S
C525 C523 1.388 . S
C525 C526 1.366 . S
C526 C525 1.366 . S
C526 C527 1.414 . S
C526 C529 1.499 . S
C527 H501 0.950 . S
C527 C526 1.414 . S
C527 C528 1.374 . S
C528 H502 0.950 . S
C528 C524 1.385 . S
C528 C527 1.374 . S
C529 C526 1.499 . S
C529 C530 1.373 . S
C529 C531 1.389 1_455 S
C530 H503 0.950 . S
C530 C516 1.377 . S
C530 C529 1.373 . S
C531 C515 1.377 . S
C531 C529 1.389 1_655 S
C531 C532 1.524 . S
C532 C531 1.524 . S
C532 C533 1.397 . S
C532 C537 1.363 . S
C533 H504 0.950 . S
C533 C532 1.397 . S
C533 C534 1.334 . S
C534 H505 0.950 . S
C534 C533 1.334 . S
C534 C535 1.287 . S
C535 C534 1.287 . S
C535 C536 1.524 . S
C535 H538 0.999 . S
C536 H506 0.950 . S
C536 C535 1.524 . S
C536 C537 1.415 . S
C537 H507 0.950 . S
C537 C532 1.363 . S
C537 C536 1.415 . S
H538 C535 0.999 . S
H539 C520 0.913 . S
H540 C558 0.951 . S
H541 C560 0.951 . S
H542 C562 0.950 . S
H543 C563 0.950 . S
H544 C565 0.950 . S
H545 C568 0.950 . S
H546 C569 0.950 . S
H547 C571 0.950 . S
H548 C572 0.950 . S
H549 C573 0.951 . S
H550 C575 0.951 . S
H551 C577 0.950 . S
H552 C578 0.950 . S
H553 C580 0.950 . S
H554 C583 0.950 . S
H555 C584 0.950 . S
H556 C586 0.950 . S
H557 C587 0.950 . S
C558 H540 0.951 . S
C558 C559 1.366 . S
C558 C560 1.388 . S
C559 C558 1.366 . S
C559 C563 1.385 . S
C560 H541 0.951 . S
C560 C558 1.388 . S
C560 C561 1.366 . S
C561 C560 1.366 . S
C561 C562 1.414 . S
C561 C564 1.499 . S
C562 H542 0.950 . S
C562 C561 1.414 . S
C562 C563 1.374 . S
C563 H543 0.950 . S
C563 C559 1.385 . S
C563 C562 1.374 . S
C564 C561 1.499 . S
C564 C565 1.373 . S
C564 C566 1.389 . S
C565 H544 0.950 . S
C565 C564 1.373 . S
C565 C581 1.377 . S
C566 C564 1.389 . S
C566 C567 1.524 . S
C566 C580 1.377 . S
C567 C566 1.524 . S
C567 C568 1.397 . S
C567 C572 1.363 . S
C568 H545 0.950 . S
C568 C567 1.397 . S
C568 C569 1.334 . S
C569 H546 0.950 . S
C569 C568 1.334 . S
C569 C570 1.287 . S
C570 C569 1.287 . S
C570 C571 1.524 . S
C570 H589 0.913 . S
C571 H547 0.950 . S
C571 C570 1.524 . S
C571 C572 1.415 . S
C572 H548 0.950 . S
C572 C567 1.363 . S
C572 C571 1.415 . S
C573 H549 0.951 . S
C573 C574 1.366 . S
C573 C575 1.388 . S
C574 C573 1.366 . S
C574 C578 1.385 . S
C575 H550 0.951 . S
C575 C573 1.388 . S
C575 C576 1.366 . S
C576 C575 1.366 . S
C576 C577 1.414 . S
C576 C579 1.499 . S
C577 H551 0.950 . S
C577 C576 1.414 . S
C577 C578 1.374 . S
C578 H552 0.950 . S
C578 C574 1.385 . S
C578 C577 1.374 . S
C579 C576 1.499 . S
C579 C580 1.373 . S
C579 C581 1.389 . S
C580 H553 0.950 . S
C580 C566 1.377 . S
C580 C579 1.373 . S
C581 C565 1.377 . S
C581 C579 1.389 . S
C581 C582 1.524 . S
C582 C581 1.524 . S
C582 C583 1.397 . S
C582 C587 1.363 . S
C583 H554 0.950 . S
C583 C582 1.397 . S
C583 C584 1.334 . S
C584 H555 0.950 . S
C584 C583 1.334 . S
C584 C585 1.287 . S
C585 C584 1.287 . S
C585 C586 1.524 . S
C585 H588 0.999 . S
C586 H556 0.950 . S
C586 C585 1.524 . S
C586 C587 1.415 . S
C587 H557 0.950 . S
C587 C582 1.363 . S
C587 C586 1.415 . S
H588 C585 0.999 . S
H589 C570 0.913 . S
H590 C608 0.951 . S
H591 C610 0.951 . S
H592 C612 0.950 . S
H593 C613 0.950 . S
H594 C615 0.950 . S
H595 C618 0.950 . S
H596 C619 0.950 . S
H597 C621 0.950 . S
H598 C622 0.950 . S
H599 C623 0.951 . S
H600 C625 0.951 . S
H601 C627 0.950 . S
H602 C628 0.950 . S
H603 C630 0.950 . S
H604 C633 0.950 . S
H605 C634 0.950 . S
H606 C636 0.950 . S
H607 C637 0.950 . S
C608 H590 0.951 . S
C608 C609 1.366 . S
C608 C610 1.388 . S
C609 C608 1.366 . S
C609 C613 1.385 . S
C610 H591 0.951 . S
C610 C608 1.388 . S
C610 C611 1.366 . S
C611 C610 1.366 . S
C611 C612 1.414 . S
C611 C614 1.499 . S
C612 H592 0.950 . S
C612 C611 1.414 . S
C612 C613 1.374 . S
C613 H593 0.950 . S
C613 C609 1.385 . S
C613 C612 1.374 . S
C614 C611 1.499 . S
C614 C615 1.373 . S
C614 C616 1.389 . S
C615 H594 0.950 . S
C615 C614 1.373 . S
C615 C631 1.377 . S
C616 C614 1.389 . S
C616 C617 1.524 . S
C616 C630 1.377 . S
C617 C616 1.524 . S
C617 C618 1.397 . S
C617 C622 1.363 . S
C618 H595 0.950 . S
C618 C617 1.397 . S
C618 C619 1.334 . S
C619 H596 0.950 . S
C619 C618 1.334 . S
C619 C620 1.287 . S
C620 C619 1.287 . S
C620 C621 1.524 . S
C620 H639 0.913 . S
C621 H597 0.950 . S
C621 C620 1.524 . S
C621 C622 1.415 . S
C622 H598 0.950 . S
C622 C617 1.363 . S
C622 C621 1.415 . S
C623 H599 0.951 . S
C623 C624 1.366 . S
C623 C625 1.388 . S
C624 C623 1.366 . S
C624 C628 1.385 . S
C625 H600 0.951 . S
C625 C623 1.388 . S
C625 C626 1.366 . S
C626 C625 1.366 . S
C626 C627 1.414 . S
C626 C629 1.499 . S
C627 H601 0.950 . S
C627 C626 1.414 . S
C627 C628 1.374 . S
C628 H602 0.950 . S
C628 C624 1.385 . S
C628 C627 1.374 . S
C629 C626 1.499 . S
C629 C630 1.373 . S
C629 C631 1.389 . S
C630 H603 0.950 . S
C630 C616 1.377 . S
C630 C629 1.373 . S
C631 C615 1.377 . S
C631 C629 1.389 . S
C631 C632 1.524 . S
C632 C631 1.524 . S
C632 C633 1.397 . S
C632 C637 1.363 . S
C633 H604 0.950 . S
C633 C632 1.397 . S
C633 C634 1.334 . S
C634 H605 0.950 . S
C634 C633 1.334 . S
C634 C635 1.287 . S
C635 C634 1.287 . S
C635 C636 1.524 . S
C635 H638 0.999 . S
C636 H606 0.950 . S
C636 C635 1.524 . S
C636 C637 1.415 . S
C637 H607 0.950 . S
C637 C632 1.363 . S
C637 C636 1.415 . S
H638 C635 0.999 . S
H639 C620 0.913 . S
H640 C658 0.951 . S
H641 C660 0.951 . S
H642 C662 0.950 . S
H643 C663 0.950 . S
H644 C665 0.950 . S
H645 C668 0.950 . S
H646 C669 0.950 . S
H647 C671 0.950 . S
H648 C672 0.950 . S
H649 C673 0.951 . S
H650 C675 0.951 . S
H651 C677 0.950 . S
H652 C678 0.950 . S
H653 C680 0.950 . S
H654 C683 0.950 . S
H655 C684 0.950 . S
H656 C686 0.950 . S
H657 C687 0.950 . S
C658 H640 0.951 . S
C658 C659 1.366 . S
C658 C660 1.388 . S
C659 C658 1.366 . S
C659 C663 1.385 . S
C660 H641 0.951 . S
C660 C658 1.388 . S
C660 C661 1.366 . S
C661 C660 1.366 . S
C661 C662 1.414 . S
C661 C664 1.499 . S
C662 H642 0.950 . S
C662 C661 1.414 . S
C662 C663 1.374 . S
C663 H643 0.950 . S
C663 C659 1.385 . S
C663 C662 1.374 . S
C664 C661 1.499 . S
C664 C665 1.373 . S
C664 C666 1.389 . S
C665 H644 0.950 . S
C665 C664 1.373 . S
C665 C681 1.377 . S
C666 C664 1.389 . S
C666 C667 1.524 . S
C666 C680 1.377 . S
C667 C666 1.524 . S
C667 C668 1.397 . S
C667 C672 1.363 . S
C668 H645 0.950 . S
C668 C667 1.397 . S
C668 C669 1.334 . S
C669 H646 0.950 . S
C669 C668 1.334 . S
C669 C670 1.287 . S
C670 C669 1.287 . S
C670 C671 1.524 . S
C670 H689 0.913 . S
C671 H647 0.950 . S
C671 C670 1.524 . S
C671 C672 1.415 . S
C672 H648 0.950 . S
C672 C667 1.363 . S
C672 C671 1.415 . S
C673 H649 0.951 . S
C673 C674 1.366 . S
C673 C675 1.388 . S
C674 C673 1.366 . S
C674 C678 1.385 . S
C675 H650 0.951 . S
C675 C673 1.388 . S
C675 C676 1.366 . S
C676 C675 1.366 . S
C676 C677 1.414 . S
C676 C679 1.499 . S
C677 H651 0.950 . S
C677 C676 1.414 . S
C677 C678 1.374 . S
C678 H652 0.950 . S
C678 C674 1.385 . S
C678 C677 1.374 . S
C679 C676 1.499 . S
C679 C680 1.373 . S
C679 C681 1.389 . S
C680 H653 0.950 . S
C680 C666 1.377 . S
C680 C679 1.373 . S
C681 C665 1.377 . S
C681 C679 1.389 . S
C681 C682 1.524 . S
C682 C681 1.524 . S
C682 C683 1.397 . S
C682 C687 1.363 . S
C683 H654 0.950 . S
C683 C682 1.397 . S
C683 C684 1.334 . S
C684 H655 0.950 . S
C684 C683 1.334 . S
C684 C685 1.287 . S
C685 C684 1.287 . S
C685 C686 1.524 . S
C685 H688 0.999 . S
C686 H656 0.950 . S
C686 C685 1.524 . S
C686 C687 1.415 . S
C687 H657 0.950 . S
C687 C682 1.363 . S
C687 C686 1.415 . S
H688 C685 0.999 . S
H689 C670 0.913 . S
H690 C708 0.951 . S
H691 C710 0.951 . S
H692 C712 0.950 . S
H693 C713 0.950 . S
H694 C715 0.950 . S
H695 C718 0.950 . S
H696 C719 0.950 . S
H697 C721 0.950 . S
H698 C722 0.950 . S
H699 C723 0.951 . S
H700 C725 0.951 . S
H701 C727 0.950 . S
H702 C728 0.950 . S
H703 C730 0.950 . S
H704 C733 0.950 . S
H705 C734 0.950 . S
H706 C736 0.950 . S
H707 C737 0.950 . S
C708 H690 0.951 . S
C708 C709 1.366 . S
C708 C710 1.388 . S
C709 C708 1.366 . S
C709 C713 1.385 . S
C710 H691 0.951 . S
C710 C708 1.388 . S
C710 C711 1.366 . S
C711 C710 1.366 . S
C711 C712 1.414 . S
C711 C714 1.499 . S
C712 H692 0.950 . S
C712 C711 1.414 . S
C712 C713 1.374 . S
C713 H693 0.950 . S
C713 C709 1.385 . S
C713 C712 1.374 . S
C714 C711 1.499 . S
C714 C715 1.373 . S
C714 C716 1.389 . S
C715 H694 0.950 . S
C715 C714 1.373 . S
C715 C731 1.377 . S
C716 C714 1.389 . S
C716 C717 1.524 . S
C716 C730 1.377 . S
C717 C716 1.524 . S
C717 C718 1.397 . S
C717 C722 1.363 . S
C718 H695 0.950 . S
C718 C717 1.397 . S
C718 C719 1.334 . S
C719 H696 0.950 . S
C719 C718 1.334 . S
C719 C720 1.287 . S
C720 C719 1.287 . S
C720 C721 1.524 . S
C720 H739 0.913 . S
C721 H697 0.950 . S
C721 C720 1.524 . S
C721 C722 1.415 . S
C722 H698 0.950 . S
C722 C717 1.363 . S
C722 C721 1.415 . S
C723 H699 0.951 . S
C723 C724 1.366 . S
C723 C725 1.388 . S
C724 C723 1.366 . S
C724 C728 1.385 . S
C725 H700 0.951 . S
C725 C723 1.388 . S
C725 C726 1.366 . S
C726 C725 1.366 . S
C726 C727 1.414 . S
C726 C729 1.499 . S
C727 H701 0.950 . S
C727 C726 1.414 . S
C727 C728 1.374 . S
C728 H702 0.950 . S
C728 C724 1.385 . S
C728 C727 1.374 . S
C729 C726 1.499 . S
C729 C730 1.373 . S
C729 C731 1.389 . S
C730 H703 0.950 . S
C730 C716 1.377 . S
C730 C729 1.373 . S
C731 C715 1.377 . S
C731 C729 1.389 . S
C731 C732 1.524 . S
C732 C731 1.524 . S
C732 C733 1.397 . S
C732 C737 1.363 . S
C733 H704 0.950 . S
C733 C732 1.397 . S
C733 C734 1.334 . S
C734 H705 0.950 . S
C734 C733 1.334 . S
C734 C735 1.287 . S
C735 C734 1.287 . S
C735 C736 1.524 . S
C735 H738 0.999 . S
C736 H706 0.950 . S
C736 C735 1.524 . S
C736 C737 1.415 . S
C737 H707 0.950 . S
C737 C732 1.363 . S
C737 C736 1.415 . S
H738 C735 0.999 . S
H739 C720 0.913 . S
H740 C758 0.951 . S
H741 C760 0.951 . S
H742 C762 0.950 . S
H743 C763 0.950 . S
H744 C765 0.950 . S
H745 C768 0.950 . S
H746 C769 0.950 . S
H747 C771 0.950 . S
H748 C772 0.950 . S
H749 C773 0.951 . S
H750 C775 0.951 . S
H751 C777 0.950 . S
H752 C778 0.950 . S
H753 C780 0.950 . S
H754 C783 0.950 . S
H755 C784 0.950 . S
H756 C786 0.950 . S
H757 C787 0.950 . S
C758 H740 0.951 . S
C758 C759 1.366 . S
C758 C760 1.388 . S
C759 C758 1.366 . S
C759 C763 1.385 . S
C760 H741 0.951 . S
C760 C758 1.388 . S
C760 C761 1.366 . S
C761 C760 1.366 . S
C761 C762 1.414 . S
C761 C764 1.499 . S
C762 H742 0.950 . S
C762 C761 1.414 . S
C762 C763 1.374 . S
C763 H743 0.950 . S
C763 C759 1.385 . S
C763 C762 1.374 . S
C764 C761 1.499 . S
C764 C765 1.373 . S
C764 C766 1.389 . S
C765 H744 0.950 . S
C765 C764 1.373 . S
C765 C781 1.377 . S
C766 C764 1.389 . S
C766 C767 1.524 . S
C766 C780 1.377 . S
C767 C766 1.524 . S
C767 C768 1.397 . S
C767 C772 1.363 . S
C768 H745 0.950 . S
C768 C767 1.397 . S
C768 C769 1.334 . S
C769 H746 0.950 . S
C769 C768 1.334 . S
C769 C770 1.287 . S
C770 C769 1.287 . S
C770 C771 1.524 . S
C770 H789 0.913 . S
C771 H747 0.950 . S
C771 C770 1.524 . S
C771 C772 1.415 . S
C772 H748 0.950 . S
C772 C767 1.363 . S
C772 C771 1.415 . S
C773 H749 0.951 . S
C773 C774 1.366 . S
C773 C775 1.388 . S
C774 C773 1.366 . S
C774 C778 1.385 . S
C775 H750 0.951 . S
C775 C773 1.388 . S
C775 C776 1.366 . S
C776 C775 1.366 . S
C776 C777 1.414 . S
C776 C779 1.499 . S
C777 H751 0.950 . S
C777 C776 1.414 . S
C777 C778 1.374 . S
C778 H752 0.950 . S
C778 C774 1.385 . S
C778 C777 1.374 . S
C779 C776 1.499 . S
C779 C780 1.373 . S
C779 C781 1.389 . S
C780 H753 0.950 . S
C780 C766 1.377 . S
C780 C779 1.373 . S
C781 C765 1.377 . S
C781 C779 1.389 . S
C781 C782 1.524 . S
C782 C781 1.524 . S
C782 C783 1.397 . S
C782 C787 1.363 . S
C783 H754 0.950 . S
C783 C782 1.397 . S
C783 C784 1.334 . S
C784 H755 0.950 . S
C784 C783 1.334 . S
C784 C785 1.287 . S
C785 C784 1.287 . S
C785 C786 1.524 . S
C785 H788 0.999 . S
C786 H756 0.950 . S
C786 C785 1.524 . S
C786 C787 1.415 . S
C787 H757 0.950 . S
C787 C782 1.363 . S
C787 C786 1.415 . S
H788 C785 0.999 . S
H789 C770 0.913 . S
H790 C808 0.951 . S
H791 C810 0.951 . S
H792 C812 0.950 . S
H793 C813 0.950 . S
H794 C815 0.950 . S
H795 C818 0.950 . S
H796 C819 0.950 . S
H797 C821 0.950 . S
H798 C822 0.950 . S
H799 C823 0.951 . S
H800 C825 0.951 . S
H801 C827 0.950 . S
H802 C828 0.950 . S
H803 C830 0.950 . S
H804 C833 0.950 . S
H805 C834 0.950 . S
H806 C836 0.950 . S
H807 C837 0.950 . S
C808 H790 0.951 . S
C808 C809 1.366 . S
C808 C810 1.388 . S
C809 C808 1.366 . S
C809 C813 1.385 . S
C810 H791 0.951 . S
C810 C808 1.388 . S
C810 C811 1.366 . S
C811 C810 1.366 . S
C811 C812 1.414 . S
C811 C814 1.499 . S
C812 H792 0.950 . S
C812 C811 1.414 . S
C812 C813 1.374 . S
C813 H793 0.950 . S
C813 C809 1.385 . S
C813 C812 1.374 . S
C814 C811 1.499 . S
C814 C815 1.373 . S
C814 C816 1.389 . S
C815 H794 0.950 . S
C815 C814 1.373 . S
C815 C831 1.377 . S
C816 C814 1.389 . S
C816 C817 1.524 . S
C816 C830 1.377 . S
C817 C816 1.524 . S
C817 C818 1.397 . S
C817 C822 1.363 . S
C818 H795 0.950 . S
C818 C817 1.397 . S
C818 C819 1.334 . S
C819 H796 0.950 . S
C819 C818 1.334 . S
C819 C820 1.287 . S
C820 C819 1.287 . S
C820 C821 1.524 . S
C820 H839 0.913 . S
C821 H797 0.950 . S
C821 C820 1.524 . S
C821 C822 1.415 . S
C822 H798 0.950 . S
C822 C817 1.363 . S
C822 C821 1.415 . S
C823 H799 0.951 . S
C823 C824 1.366 . S
C823 C825 1.388 . S
C824 C823 1.366 . S
C824 C828 1.385 . S
C825 H800 0.951 . S
C825 C823 1.388 . S
C825 C826 1.366 . S
C826 C825 1.366 . S
C826 C827 1.414 . S
C826 C829 1.499 . S
C827 H801 0.950 . S
C827 C826 1.414 . S
C827 C828 1.374 . S
C828 H802 0.950 . S
C828 C824 1.385 . S
C828 C827 1.374 . S
C829 C826 1.499 . S
C829 C830 1.373 . S
C829 C831 1.389 . S
C830 H803 0.950 . S
C830 C816 1.377 . S
C830 C829 1.373 . S
C831 C815 1.377 . S
C831 C829 1.389 . S
C831 C832 1.524 . S
C832 C831 1.524 . S
C832 C833 1.397 . S
C832 C837 1.363 . S
C833 H804 0.950 . S
C833 C832 1.397 . S
C833 C834 1.334 . S
C834 H805 0.950 . S
C834 C833 1.334 . S
C834 C835 1.287 . S
C835 C834 1.287 . S
C835 C836 1.524 . S
C835 H838 0.999 . S
C836 H806 0.950 . S
C836 C835 1.524 . S
C836 C837 1.415 . S
C837 H807 0.950 . S
C837 C832 1.363 . S
C837 C836 1.415 . S
H838 C835 0.999 . S
H839 C820 0.913 . S
H840 C858 0.951 . S
H841 C860 0.951 . S
H842 C862 0.950 . S
H843 C863 0.950 . S
H844 C865 0.950 . S
H845 C868 0.950 . S
H846 C869 0.950 . S
H847 C871 0.950 . S
H848 C872 0.950 . S
H849 C873 0.951 . S
H850 C875 0.951 . S
H851 C877 0.950 . S
H852 C878 0.950 1_455 S
H853 C880 0.950 . S
H854 C883 0.950 . S
H855 C884 0.950 . S
H856 C886 0.950 . S
H857 C887 0.950 . S
C858 H840 0.951 . S
C858 C859 1.366 . S
C858 C860 1.388 . S
C859 C858 1.366 . S
C859 C863 1.385 . S
C860 H841 0.951 . S
C860 C858 1.388 . S
C860 C861 1.366 . S
C861 C860 1.366 . S
C861 C862 1.414 . S
C861 C864 1.499 . S
C862 H842 0.950 . S
C862 C861 1.414 . S
C862 C863 1.374 . S
C863 H843 0.950 . S
C863 C859 1.385 . S
C863 C862 1.374 . S
C864 C861 1.499 . S
C864 C865 1.373 . S
C864 C866 1.389 . S
C865 H844 0.950 . S
C865 C864 1.373 . S
C865 C881 1.377 . S
C866 C864 1.389 . S
C866 C867 1.524 . S
C866 C880 1.377 . S
C867 C866 1.524 . S
C867 C868 1.397 . S
C867 C872 1.363 . S
C868 H845 0.950 . S
C868 C867 1.397 . S
C868 C869 1.334 . S
C869 H846 0.950 . S
C869 C868 1.334 . S
C869 C870 1.287 . S
C870 C869 1.287 . S
C870 C871 1.524 . S
C870 H889 0.913 . S
C871 H847 0.950 . S
C871 C870 1.524 . S
C871 C872 1.415 . S
C872 H848 0.950 . S
C872 C867 1.363 . S
C872 C871 1.415 . S
C873 H849 0.951 . S
C873 C874 1.366 . S
C873 C875 1.388 . S
C874 C873 1.366 . S
C874 C878 1.381 . S
C875 H850 0.951 . S
C875 C873 1.388 . S
C875 C876 1.366 1_655 S
C876 C875 1.366 1_455 S
C876 C877 1.414 . S
C876 C879 1.499 . S
C877 H851 0.950 . S
C877 C876 1.414 . S
C877 C878 1.378 1_455 S
C878 H852 0.950 1_655 S
C878 C874 1.381 . S
C878 C877 1.378 1_655 S
C879 C876 1.499 . S
C879 C880 1.373 . S
C879 C881 1.389 . S
C880 H853 0.950 . S
C880 C866 1.377 . S
C880 C879 1.373 . S
C881 C865 1.377 . S
C881 C879 1.389 . S
C881 C882 1.524 1_455 S
C882 C881 1.524 1_655 S
C882 C883 1.397 . S
C882 C887 1.363 . S
C883 H854 0.950 . S
C883 C882 1.397 . S
C883 C884 1.334 . S
C884 H855 0.950 . S
C884 C883 1.334 . S
C884 C885 1.287 . S
C885 C884 1.287 . S
C885 C886 1.524 . S
C885 H888 0.999 . S
C886 H856 0.950 . S
C886 C885 1.524 . S
C886 C887 1.415 . S
C887 H857 0.950 . S
C887 C882 1.363 . S
C887 C886 1.415 . S
H888 C885 0.999 . S
H889 C870 0.913 . S
H890 C908 0.951 . S
H891 C910 0.951 . S
H892 C912 0.950 . S
H893 C913 0.950 . S
H894 C915 0.950 . S
H895 C918 0.950 . S
H896 C919 0.950 . S
H897 C921 0.950 . S
H898 C922 0.950 1_545 S
H899 C923 0.951 . S
H900 C925 0.951 . S
H901 C927 0.950 . S
H902 C928 0.950 . S
H903 C930 0.950 . S
H904 C933 0.950 . S
H905 C934 0.950 . S
H906 C936 0.950 . S
H907 C937 0.950 . S
C908 H890 0.951 . S
C908 C909 1.366 . S
C908 C910 1.388 1_655 S
C909 C908 1.366 . S
C909 C913 1.385 . S
C910 H891 0.951 . S
C910 C908 1.388 1_455 S
C910 C911 1.366 . S
C911 C910 1.366 . S
C911 C912 1.414 . S
C911 C914 1.499 . S
C912 H892 0.950 . S
C912 C911 1.414 . S
C912 C913 1.374 1_455 S
C913 H893 0.950 . S
C913 C909 1.385 . S
C913 C912 1.374 1_655 S
C914 C911 1.499 . S
C914 C915 1.373 . S
C914 C916 1.389 . S
C915 H894 0.950 . S
C915 C914 1.373 . S
C915 C931 1.377 . S
C916 C914 1.389 . S
C916 C917 1.524 . S
C916 C930 1.377 . S
C917 C916 1.524 . S
C917 C918 1.397 . S
C917 C922 1.363 . S
C918 H895 0.950 . S
C918 C917 1.397 . S
C918 C919 1.334 . S
C919 H896 0.950 . S
C919 C918 1.334 . S
C919 C920 1.287 . S
C920 C919 1.287 . S
C920 C921 1.524 1_565 S
C920 H939 0.913 . S
C921 H897 0.950 . S
C921 C920 1.524 1_545 S
C921 C922 1.415 1_545 S
C922 H898 0.950 1_565 S
C922 C917 1.363 . S
C922 C921 1.415 1_565 S
C923 H899 0.951 . S
C923 C924 1.366 1_565 S
C923 C925 1.388 . S
C924 C923 1.366 1_545 S
C924 C928 1.385 . S
C925 H900 0.951 . S
C925 C923 1.388 . S
C925 C926 1.366 . S
C926 C925 1.366 . S
C926 C927 1.414 1_565 S
C926 C929 1.499 . S
C927 H901 0.950 . S
C927 C926 1.414 1_545 S
C927 C928 1.374 . S
C928 H902 0.950 . S
C928 C924 1.385 . S
C928 C927 1.374 . S
C929 C926 1.499 . S
C929 C930 1.373 . S
C929 C931 1.389 . S
C930 H903 0.950 . S
C930 C916 1.377 . S
C930 C929 1.373 . S
C931 C915 1.377 . S
C931 C929 1.389 . S
C931 C932 1.524 . S
C932 C931 1.524 . S
C932 C933 1.397 . S
C932 C937 1.363 . S
C933 H904 0.950 . S
C933 C932 1.397 . S
C933 C934 1.334 . S
C934 H905 0.950 . S
C934 C933 1.334 . S
C934 C935 1.287 . S
C935 C934 1.287 . S
C935 C936 1.524 . S
C935 H938 0.999 . S
C936 H906 0.950 . S
C936 C935 1.524 . S
C936 C937 1.415 . S
C937 H907 0.950 . S
C937 C932 1.363 . S
C937 C936 1.415 . S
H938 C935 0.999 . S
H939 C920 0.913 . S
H940 C958 0.951 . S
H941 C960 0.951 . S
H942 C962 0.950 . S
H943 C963 0.950 . S
H944 C965 0.950 . S
H945 C968 0.950 . S
H946 C969 0.950 . S
H947 C971 0.950 . S
H948 C972 0.950 . S
H949 C973 0.951 . S
H950 C975 0.951 . S
H951 C977 0.950 . S
H952 C978 0.950 . S
H953 C980 0.950 . S
H954 C983 0.950 . S
H955 C984 0.950 . S
H956 C986 0.950 . S
H957 C987 0.950 . S
C958 H940 0.951 . S
C958 C959 1.366 . S
C958 C960 1.388 1_545 S
C959 C958 1.366 . S
C959 C963 1.385 . S
C960 H941 0.951 . S
C960 C958 1.388 1_565 S
C960 C961 1.366 . S
C961 C960 1.366 . S
C961 C962 1.414 . S
C961 C964 1.499 . S
C962 H942 0.950 . S
C962 C961 1.414 . S
C962 C963 1.374 1_565 S
C963 H943 0.950 . S
C963 C959 1.385 . S
C963 C962 1.374 1_545 S
C964 C961 1.499 . S
C964 C965 1.373 . S
C964 C966 1.389 . S
C965 H944 0.950 . S
C965 C964 1.373 . S
C965 C981 1.377 . S
C966 C964 1.389 . S
C966 C967 1.524 . S
C966 C980 1.377 . S
C967 C966 1.524 . S
C967 C968 1.397 . S
C967 C972 1.363 . S
C968 H945 0.950 . S
C968 C967 1.397 . S
C968 C969 1.334 . S
C969 H946 0.950 . S
C969 C968 1.334 . S
C969 C970 1.287 . S
C970 C969 1.287 . S
C970 C971 1.524 . S
C970 H989 0.913 . S
C971 H947 0.950 . S
C971 C970 1.524 . S
C971 C972 1.415 . S
C972 H948 0.950 . S
C972 C967 1.363 . S
C972 C971 1.415 . S
C973 H949 0.951 . S
C973 C974 1.366 . S
C973 C975 1.388 . S
C974 C973 1.366 . S
C974 C978 1.385 . S
C975 H950 0.951 . S
C975 C973 1.388 . S
C975 C976 1.366 . S
C976 C975 1.366 . S
C976 C977 1.414 . S
C976 C979 1.499 . S
C977 H951 0.950 . S
C977 C976 1.414 . S
C977 C978 1.374 . S
C978 H952 0.950 . S
C978 C974 1.385 . S
C978 C977 1.374 . S
C979 C976 1.499 . S
C979 C980 1.373 . S
C979 C981 1.389 . S
C980 H953 0.950 . S
C980 C966 1.377 . S
C980 C979 1.373 . S
C981 C965 1.377 . S
C981 C979 1.389 . S
C981 C982 1.524 . S
C982 C981 1.524 . S
C982 C983 1.397 . S
C982 C987 1.363 . S
C983 H954 0.950 . S
C983 C982 1.397 . S
C983 C984 1.334 . S
C984 H955 0.950 . S
C984 C983 1.334 . S
C984 C985 1.287 . S
C985 C984 1.287 . S
C985 C986 1.524 . S
C985 H988 0.999 . S
C986 H956 0.950 . S
C986 C985 1.524 . S
C986 C987 1.415 . S
C987 H957 0.950 . S
C987 C982 1.363 . S
C987 C986 1.415 . S
H988 C985 0.999 . S
H989 C970 0.913 . S
H990 C1008 0.951 . S
H991 C1010 0.951 . S
H992 C1012 0.950 . S
H993 C1013 0.950 . S
H994 C1015 0.950 . S
H995 C1018 0.950 . S
H996 C1019 0.934 . S
H997 C1021 0.950 . S
H998 C1022 0.950 . S
H999 C1023 0.951 . S
H1000 C1025 0.951 . S
H1001 C1027 0.950 . S
H1002 C1028 0.950 . S
H1003 C1030 0.950 1_565 S
H1004 C1033 0.950 . S
H1005 C1034 0.950 . S
H1006 C1036 0.950 . S
H1007 C1037 0.950 . S
C1008 H990 0.951 . S
C1008 C1009 1.366 . S
C1008 C1010 1.388 . S
C1009 C1008 1.366 . S
C1009 C1013 1.385 . S
C1010 H991 0.951 . S
C1010 C1008 1.388 . S
C1010 C1011 1.366 . S
C1011 C1010 1.366 . S
C1011 C1012 1.414 . S
C1011 C1014 1.499 . S
C1012 H992 0.950 . S
C1012 C1011 1.414 . S
C1012 C1013 1.374 . S
C1013 H993 0.950 . S
C1013 C1009 1.385 . S
C1013 C1012 1.374 . S
C1014 C1011 1.499 . S
C1014 C1015 1.373 . S
C1014 C1016 1.389 . S
C1015 H994 0.950 . S
C1015 C1014 1.373 . S
C1015 C1031 1.377 . S
C1016 C1014 1.389 . S
C1016 C1017 1.524 . S
C1016 C1030 1.377 . S
C1017 C1016 1.524 . S
C1017 C1018 1.397 . S
C1017 C1022 1.363 1_545 S
C1018 H995 0.950 . S
C1018 C1017 1.397 . S
C1018 C1019 1.335 1_545 S
C1019 H996 0.934 . S
C1019 C1018 1.335 1_565 S
C1019 C1020 1.305 . S
C1020 C1019 1.305 . S
C1020 C1021 1.524 . S
C1020 H1039 0.913 . S
C1021 H997 0.950 . S
C1021 C1020 1.524 . S
C1021 C1022 1.415 . S
C1022 H998 0.950 . S
C1022 C1017 1.363 1_565 S
C1022 C1021 1.415 . S
C1023 H999 0.951 . S
C1023 C1024 1.366 . S
C1023 C1025 1.388 1_565 S
C1024 C1023 1.366 . S
C1024 C1028 1.385 . S
C1025 H1000 0.951 . S
C1025 C1023 1.388 1_545 S
C1025 C1026 1.366 . S
C1026 C1025 1.366 . S
C1026 C1027 1.414 1_545 S
C1026 C1029 1.499 . S
C1027 H1001 0.950 . S
C1027 C1026 1.414 1_565 S
C1027 C1028 1.374 . S
C1028 H1002 0.950 . S
C1028 C1024 1.385 . S
C1028 C1027 1.374 . S
C1029 C1026 1.499 . S
C1029 C1030 1.373 . S
C1029 C1031 1.389 . S
C1030 H1003 0.950 1_545 S
C1030 C1016 1.377 . S
C1030 C1029 1.373 . S
C1031 C1015 1.377 . S
C1031 C1029 1.389 . S
C1031 C1032 1.524 . S
C1032 C1031 1.524 . S
C1032 C1033 1.397 . S
C1032 C1037 1.363 . S
C1033 H1004 0.950 . S
C1033 C1032 1.397 . S
C1033 C1034 1.334 . S
C1034 H1005 0.950 . S
C1034 C1033 1.334 . S
C1034 C1035 1.287 . S
C1035 C1034 1.287 . S
C1035 C1036 1.524 . S
C1035 H1038 0.999 . S
C1036 H1006 0.950 . S
C1036 C1035 1.524 . S
C1036 C1037 1.415 . S
C1037 H1007 0.950 . S
C1037 C1032 1.363 . S
C1037 C1036 1.415 . S
H1038 C1035 0.999 . S
H1039 C1020 0.913 . S
H1040 C1058 0.951 . S
H1041 C1060 0.951 . S
H1042 C1062 0.950 . S
H1043 C1063 0.950 . S
H1044 C1065 0.950 . S
H1045 C1068 0.950 . S
H1046 C1069 0.950 . S
H1047 C1071 0.950 . S
H1048 C1072 0.950 . S
H1049 C1073 0.951 . S
H1050 C1075 0.951 . S
H1051 C1077 0.950 . S
H1052 C1078 0.950 . S
H1053 C1080 0.950 . S
H1054 C1083 0.950 . S
H1055 C1084 0.950 . S
H1056 C1086 0.950 . S
H1057 C1087 0.950 . S
C1058 H1040 0.951 . S
C1058 C1059 1.366 . S
C1058 C1060 1.388 1_455 S
C1059 C1058 1.366 . S
C1059 C1063 1.385 . S
C1060 H1041 0.951 . S
C1060 C1058 1.388 1_655 S
C1060 C1061 1.366 . S
C1061 C1060 1.366 . S
C1061 C1062 1.414 . S
C1061 C1064 1.499 . S
C1062 H1042 0.950 . S
C1062 C1061 1.414 . S
C1062 C1063 1.374 1_655 S
C1063 H1043 0.950 . S
C1063 C1059 1.385 . S
C1063 C1062 1.374 1_455 S
C1064 C1061 1.499 . S
C1064 C1065 1.373 . S
C1064 C1066 1.389 . S
C1065 H1044 0.950 . S
C1065 C1064 1.373 . S
C1065 C1081 1.377 . S
C1066 C1064 1.389 . S
C1066 C1067 1.524 . S
C1066 C1080 1.377 . S
C1067 C1066 1.524 . S
C1067 C1068 1.397 . S
C1067 C1072 1.363 . S
C1068 H1045 0.950 . S
C1068 C1067 1.397 . S
C1068 C1069 1.334 . S
C1069 H1046 0.950 . S
C1069 C1068 1.334 . S
C1069 C1070 1.287 . S
C1070 C1069 1.287 . S
C1070 C1071 1.524 . S
C1070 H1089 0.913 . S
C1071 H1047 0.950 . S
C1071 C1070 1.524 . S
C1071 C1072 1.415 . S
C1072 H1048 0.950 . S
C1072 C1067 1.363 . S
C1072 C1071 1.415 . S
C1073 H1049 0.951 . S
C1073 C1074 1.366 . S
C1073 C1075 1.388 . S
C1074 C1073 1.366 . S
C1074 C1078 1.385 . S
C1075 H1050 0.951 . S
C1075 C1073 1.388 . S
C1075 C1076 1.366 . S
C1076 C1075 1.366 . S
C1076 C1077 1.414 . S
C1076 C1079 1.499 . S
C1077 H1051 0.950 . S
C1077 C1076 1.414 . S
C1077 C1078 1.374 . S
C1078 H1052 0.950 . S
C1078 C1074 1.385 . S
C1078 C1077 1.374 . S
C1079 C1076 1.499 . S
C1079 C1080 1.373 . S
C1079 C1081 1.389 . S
C1080 H1053 0.950 . S
C1080 C1066 1.377 . S
C1080 C1079 1.373 . S
C1081 C1065 1.377 . S
C1081 C1079 1.389 . S
C1081 C1082 1.524 . S
C1082 C1081 1.524 . S
C1082 C1083 1.397 . S
C1082 C1087 1.363 . S
C1083 H1054 0.950 . S
C1083 C1082 1.397 . S
C1083 C1084 1.334 . S
C1084 H1055 0.950 . S
C1084 C1083 1.334 . S
C1084 C1085 1.287 . S
C1085 C1084 1.287 . S
C1085 C1086 1.524 . S
C1085 H1088 0.999 . S
C1086 H1056 0.950 . S
C1086 C1085 1.524 . S
C1086 C1087 1.415 . S
C1087 H1057 0.950 . S
C1087 C1082 1.363 . S
C1087 C1086 1.415 . S
H1088 C1085 0.999 . S
H1089 C1070 0.913 . S
H1090 C1108 0.951 . S
H1091 C1110 0.951 . S
H1092 C1112 0.950 . S
H1093 C1113 0.950 . S
H1094 C1115 0.950 . S
H1095 C1118 0.950 . S
H1096 C1119 0.950 . S
H1097 C1121 0.950 . S
H1098 C1122 0.950 . S
H1099 C1123 0.951 . S
H1100 C1125 0.951 . S
H1101 C1127 0.950 . S
H1102 C1128 0.950 . S
H1103 C1130 0.950 . S
H1104 C1133 0.950 . S
H1105 C1134 0.950 . S
H1106 C1136 0.950 . S
H1107 C1137 0.950 . S
C1108 H1090 0.951 . S
C1108 C1109 1.366 . S
C1108 C1110 1.388 1_455 S
C1109 C1108 1.366 . S
C1109 C1113 1.385 . S
C1110 H1091 0.951 . S
C1110 C1108 1.388 1_655 S
C1110 C1111 1.366 . S
C1111 C1110 1.366 . S
C1111 C1112 1.414 1_655 S
C1111 C1114 1.499 . S
C1112 H1092 0.950 . S
C1112 C1111 1.414 1_455 S
C1112 C1113 1.374 . S
C1113 H1093 0.950 . S
C1113 C1109 1.385 . S
C1113 C1112 1.374 . S
C1114 C1111 1.499 . S
C1114 C1115 1.373 . S
C1114 C1116 1.389 . S
C1115 H1094 0.950 . S
C1115 C1114 1.373 . S
C1115 C1131 1.377 . S
C1116 C1114 1.389 . S
C1116 C1117 1.524 . S
C1116 C1130 1.377 . S
C1117 C1116 1.524 . S
C1117 C1118 1.397 1_655 S
C1117 C1122 1.363 . S
C1118 H1095 0.950 . S
C1118 C1117 1.397 1_455 S
C1118 C1119 1.334 . S
C1119 H1096 0.950 . S
C1119 C1118 1.334 . S
C1119 C1120 1.287 . S
C1120 C1119 1.287 . S
C1120 C1121 1.524 1_455 S
C1120 H1139 0.913 . S
C1121 H1097 0.950 . S
C1121 C1120 1.524 1_655 S
C1121 C1122 1.415 . S
C1122 H1098 0.950 . S
C1122 C1117 1.363 . S
C1122 C1121 1.415 . S
C1123 H1099 0.951 . S
C1123 C1124 1.366 . S
C1123 C1125 1.388 1_565 S
C1124 C1123 1.366 . S
C1124 C1128 1.385 . S
C1125 H1100 0.951 . S
C1125 C1123 1.388 1_545 S
C1125 C1126 1.366 . S
C1126 C1125 1.366 . S
C1126 C1127 1.414 . S
C1126 C1129 1.499 . S
C1127 H1101 0.950 . S
C1127 C1126 1.414 . S
C1127 C1128 1.374 1_545 S
C1128 H1102 0.950 . S
C1128 C1124 1.385 . S
C1128 C1127 1.374 1_565 S
C1129 C1126 1.499 . S
C1129 C1130 1.373 . S
C1129 C1131 1.389 . S
C1130 H1103 0.950 . S
C1130 C1116 1.377 . S
C1130 C1129 1.373 . S
C1131 C1115 1.377 . S
C1131 C1129 1.389 . S
C1131 C1132 1.524 . S
C1132 C1131 1.524 . S
C1132 C1133 1.397 . S
C1132 C1137 1.363 . S
C1133 H1104 0.950 . S
C1133 C1132 1.397 . S
C1133 C1134 1.334 . S
C1134 H1105 0.950 . S
C1134 C1133 1.334 . S
C1134 C1135 1.287 . S
C1135 C1134 1.287 . S
C1135 C1136 1.524 . S
C1135 H1138 0.999 . S
C1136 H1106 0.950 . S
C1136 C1135 1.524 . S
C1136 C1137 1.415 . S
C1137 H1107 0.950 . S
C1137 C1132 1.363 . S
C1137 C1136 1.415 . S
H1138 C1135 0.999 . S
H1139 C1120 0.913 . S
C259 C179 2.344 . S
C274 C19 2.465 . S
C309 C210 2.465 . S
C324 C50 2.344 . S
C359 C99 2.465 . S
C374 C139 2.344 . S
C409 C10 2.343 . S
C424 C170 2.465 . S
C459 C219 2.344 . S
C474 C59 2.466 . S
C509 C90 2.344 . S
C524 C130 2.466 . S
C559 C7 1.910 . S
C574 C82 1.864 . S
C609 C47 1.911 . S
C624 C2 1.865 . S
C659 C87 1.910 . S
C674 C42 1.865 . S
C709 C136 1.910 . S
C724 C171 1.865 . S
C759 C176 1.910 . S
C774 C211 1.865 . S
C809 C131 1.865 . S
C824 C216 1.910 . S
C859 C16 1.032 . S
C874 C91 1.053 . S
C909 C56 1.031 . S
C924 C11 1.052 . S
C959 C96 1.031 . S
C974 C51 1.052 . S
C1009 C127 1.030 . S
C1024 C162 1.052 . S
C1059 C167 1.030 . S
C1074 C202 1.052 . S
C1109 C122 1.053 . S
C1124 C207 1.032 . S
