# Generated by pormake.
# Topology ull, (4)-cn, num edge types: 1
# Building blocks:
#     Node 0, Type 0, BuildingBlock: TATPOV_clean_sbu_0, # of connection points: 4
#     Node 1, Type 0, BuildingBlock: TATPOV_clean_sbu_0, # of connection points: 4
#     Node 2, Type 0, BuildingBlock: TATPOV_clean_sbu_0, # of connection points: 4
#     Node 3, Type 0, BuildingBlock: TATPOV_clean_sbu_0, # of connection points: 4
#     Node 4, Type 0, BuildingBlock: TATPOV_clean_sbu_0, # of connection points: 4
#     Node 5, Type 0, BuildingBlock: TATPOV_clean_sbu_0, # of connection points: 4
#     Node 6, Type 0, BuildingBlock: TATPOV_clean_sbu_0, # of connection points: 4
#     Node 7, Type 0, BuildingBlock: TATPOV_clean_sbu_0, # of connection points: 4
#     Node 8, Type 0, BuildingBlock: TATPOV_clean_sbu_0, # of connection points: 4
#     Node 9, Type 0, BuildingBlock: TATPOV_clean_sbu_0, # of connection points: 4
#     Node 10, Type 0, BuildingBlock: TATPOV_clean_sbu_0, # of connection points: 4
#     Node 11, Type 0, BuildingBlock: TATPOV_clean_sbu_0, # of connection points: 4
#     Node 12, Type 0, BuildingBlock: TATPOV_clean_sbu_0, # of connection points: 4
#     Node 13, Type 0, BuildingBlock: TATPOV_clean_sbu_0, # of connection points: 4
#     Node 14, Type 0, BuildingBlock: TATPOV_clean_sbu_0, # of connection points: 4
#     Node 15, Type 0, BuildingBlock: TATPOV_clean_sbu_0, # of connection points: 4
#     Node 16, Type 0, BuildingBlock: TATPOV_clean_sbu_0, # of connection points: 4
#     Node 17, Type 0, BuildingBlock: TATPOV_clean_sbu_0, # of connection points: 4
#     Node 18, Type 0, BuildingBlock: TATPOV_clean_sbu_0, # of connection points: 4
#     Node 19, Type 0, BuildingBlock: TATPOV_clean_sbu_0, # of connection points: 4
#     Node 20, Type 0, BuildingBlock: TATPOV_clean_sbu_0, # of connection points: 4
#     Node 21, Type 0, BuildingBlock: TATPOV_clean_sbu_0, # of connection points: 4
#     Node 22, Type 0, BuildingBlock: TATPOV_clean_sbu_0, # of connection points: 4
#     Node 23, Type 0, BuildingBlock: TATPOV_clean_sbu_0, # of connection points: 4
#     Node 24, Type 0, BuildingBlock: TATPOV_clean_sbu_0, # of connection points: 4
#     Node 25, Type 0, BuildingBlock: TATPOV_clean_sbu_0, # of connection points: 4
#     Node 26, Type 0, BuildingBlock: TATPOV_clean_sbu_0, # of connection points: 4
#     Node 27, Type 0, BuildingBlock: TATPOV_clean_sbu_0, # of connection points: 4
#     Node 28, Type 0, BuildingBlock: TATPOV_clean_sbu_0, # of connection points: 4
#     Node 29, Type 0, BuildingBlock: TATPOV_clean_sbu_0, # of connection points: 4
#     Node 30, Type 0, BuildingBlock: TATPOV_clean_sbu_0, # of connection points: 4
#     Node 31, Type 0, BuildingBlock: TATPOV_clean_sbu_0, # of connection points: 4
#     Node 32, Type 0, BuildingBlock: TATPOV_clean_sbu_0, # of connection points: 4
#     Node 33, Type 0, BuildingBlock: TATPOV_clean_sbu_0, # of connection points: 4
#     Node 34, Type 0, BuildingBlock: TATPOV_clean_sbu_0, # of connection points: 4
#     Node 35, Type 0, BuildingBlock: TATPOV_clean_sbu_0, # of connection points: 4
#     Node 36, Type 0, BuildingBlock: TATPOV_clean_sbu_0, # of connection points: 4
#     Node 37, Type 0, BuildingBlock: TATPOV_clean_sbu_0, # of connection points: 4
#     Node 38, Type 0, BuildingBlock: TATPOV_clean_sbu_0, # of connection points: 4
#     Node 39, Type 0, BuildingBlock: TATPOV_clean_sbu_0, # of connection points: 4
#     Node 40, Type 0, BuildingBlock: TATPOV_clean_sbu_0, # of connection points: 4
#     Node 41, Type 0, BuildingBlock: TATPOV_clean_sbu_0, # of connection points: 4
#     Node 42, Type 0, BuildingBlock: TATPOV_clean_sbu_0, # of connection points: 4
#     Node 43, Type 0, BuildingBlock: TATPOV_clean_sbu_0, # of connection points: 4
#     Node 44, Type 0, BuildingBlock: TATPOV_clean_sbu_0, # of connection points: 4
#     Node 45, Type 0, BuildingBlock: TATPOV_clean_sbu_0, # of connection points: 4
#     Node 46, Type 0, BuildingBlock: TATPOV_clean_sbu_0, # of connection points: 4
#     Node 47, Type 0, BuildingBlock: TATPOV_clean_sbu_0, # of connection points: 4
#     Edge 48, Type (0, 0), BuildingBlock: KIFKEQ_clean_linker_1, # of connection points: 2
#     Edge 49, Type (0, 0), BuildingBlock: KIFKEQ_clean_linker_1, # of connection points: 2
#     Edge 50, Type (0, 0), BuildingBlock: KIFKEQ_clean_linker_1, # of connection points: 2
#     Edge 51, Type (0, 0), BuildingBlock: KIFKEQ_clean_linker_1, # of connection points: 2
#     Edge 52, Type (0, 0), BuildingBlock: KIFKEQ_clean_linker_1, # of connection points: 2
#     Edge 53, Type (0, 0), BuildingBlock: KIFKEQ_clean_linker_1, # of connection points: 2
#     Edge 54, Type (0, 0), BuildingBlock: KIFKEQ_clean_linker_1, # of connection points: 2
#     Edge 55, Type (0, 0), BuildingBlock: KIFKEQ_clean_linker_1, # of connection points: 2
#     Edge 56, Type (0, 0), BuildingBlock: KIFKEQ_clean_linker_1, # of connection points: 2
#     Edge 57, Type (0, 0), BuildingBlock: KIFKEQ_clean_linker_1, # of connection points: 2
#     Edge 58, Type (0, 0), BuildingBlock: KIFKEQ_clean_linker_1, # of connection points: 2
#     Edge 59, Type (0, 0), BuildingBlock: KIFKEQ_clean_linker_1, # of connection points: 2
#     Edge 60, Type (0, 0), BuildingBlock: KIFKEQ_clean_linker_1, # of connection points: 2
#     Edge 61, Type (0, 0), BuildingBlock: KIFKEQ_clean_linker_1, # of connection points: 2
#     Edge 62, Type (0, 0), BuildingBlock: KIFKEQ_clean_linker_1, # of connection points: 2
#     Edge 63, Type (0, 0), BuildingBlock: KIFKEQ_clean_linker_1, # of connection points: 2
#     Edge 64, Type (0, 0), BuildingBlock: KIFKEQ_clean_linker_1, # of connection points: 2
#     Edge 65, Type (0, 0), BuildingBlock: KIFKEQ_clean_linker_1, # of connection points: 2
#     Edge 66, Type (0, 0), BuildingBlock: KIFKEQ_clean_linker_1, # of connection points: 2
#     Edge 67, Type (0, 0), BuildingBlock: KIFKEQ_clean_linker_1, # of connection points: 2
#     Edge 68, Type (0, 0), BuildingBlock: KIFKEQ_clean_linker_1, # of connection points: 2
#     Edge 69, Type (0, 0), BuildingBlock: KIFKEQ_clean_linker_1, # of connection points: 2
#     Edge 70, Type (0, 0), BuildingBlock: KIFKEQ_clean_linker_1, # of connection points: 2
#     Edge 71, Type (0, 0), BuildingBlock: KIFKEQ_clean_linker_1, # of connection points: 2
#     Edge 72, Type (0, 0), BuildingBlock: KIFKEQ_clean_linker_1, # of connection points: 2
#     Edge 73, Type (0, 0), BuildingBlock: KIFKEQ_clean_linker_1, # of connection points: 2
#     Edge 74, Type (0, 0), BuildingBlock: KIFKEQ_clean_linker_1, # of connection points: 2
#     Edge 75, Type (0, 0), BuildingBlock: KIFKEQ_clean_linker_1, # of connection points: 2
#     Edge 76, Type (0, 0), BuildingBlock: KIFKEQ_clean_linker_1, # of connection points: 2
#     Edge 77, Type (0, 0), BuildingBlock: KIFKEQ_clean_linker_1, # of connection points: 2
#     Edge 78, Type (0, 0), BuildingBlock: KIFKEQ_clean_linker_1, # of connection points: 2
#     Edge 79, Type (0, 0), BuildingBlock: KIFKEQ_clean_linker_1, # of connection points: 2
#     Edge 80, Type (0, 0), BuildingBlock: KIFKEQ_clean_linker_1, # of connection points: 2
#     Edge 81, Type (0, 0), BuildingBlock: KIFKEQ_clean_linker_1, # of connection points: 2
#     Edge 82, Type (0, 0), BuildingBlock: KIFKEQ_clean_linker_1, # of connection points: 2
#     Edge 83, Type (0, 0), BuildingBlock: KIFKEQ_clean_linker_1, # of connection points: 2
#     Edge 84, Type (0, 0), BuildingBlock: KIFKEQ_clean_linker_1, # of connection points: 2
#     Edge 85, Type (0, 0), BuildingBlock: KIFKEQ_clean_linker_1, # of connection points: 2
#     Edge 86, Type (0, 0), BuildingBlock: KIFKEQ_clean_linker_1, # of connection points: 2
#     Edge 87, Type (0, 0), BuildingBlock: KIFKEQ_clean_linker_1, # of connection points: 2
#     Edge 88, Type (0, 0), BuildingBlock: KIFKEQ_clean_linker_1, # of connection points: 2
#     Edge 89, Type (0, 0), BuildingBlock: KIFKEQ_clean_linker_1, # of connection points: 2
#     Edge 90, Type (0, 0), BuildingBlock: KIFKEQ_clean_linker_1, # of connection points: 2
#     Edge 91, Type (0, 0), BuildingBlock: KIFKEQ_clean_linker_1, # of connection points: 2
#     Edge 92, Type (0, 0), BuildingBlock: KIFKEQ_clean_linker_1, # of connection points: 2
#     Edge 93, Type (0, 0), BuildingBlock: KIFKEQ_clean_linker_1, # of connection points: 2
#     Edge 94, Type (0, 0), BuildingBlock: KIFKEQ_clean_linker_1, # of connection points: 2
#     Edge 95, Type (0, 0), BuildingBlock: KIFKEQ_clean_linker_1, # of connection points: 2
#     Edge 96, Type (0, 0), BuildingBlock: KIFKEQ_clean_linker_1, # of connection points: 2
#     Edge 97, Type (0, 0), BuildingBlock: KIFKEQ_clean_linker_1, # of connection points: 2
#     Edge 98, Type (0, 0), BuildingBlock: KIFKEQ_clean_linker_1, # of connection points: 2
#     Edge 99, Type (0, 0), BuildingBlock: KIFKEQ_clean_linker_1, # of connection points: 2
#     Edge 100, Type (0, 0), BuildingBlock: KIFKEQ_clean_linker_1, # of connection points: 2
#     Edge 101, Type (0, 0), BuildingBlock: KIFKEQ_clean_linker_1, # of connection points: 2
#     Edge 102, Type (0, 0), BuildingBlock: KIFKEQ_clean_linker_1, # of connection points: 2
#     Edge 103, Type (0, 0), BuildingBlock: KIFKEQ_clean_linker_1, # of connection points: 2
#     Edge 104, Type (0, 0), BuildingBlock: KIFKEQ_clean_linker_1, # of connection points: 2
#     Edge 105, Type (0, 0), BuildingBlock: KIFKEQ_clean_linker_1, # of connection points: 2
#     Edge 106, Type (0, 0), BuildingBlock: KIFKEQ_clean_linker_1, # of connection points: 2
#     Edge 107, Type (0, 0), BuildingBlock: KIFKEQ_clean_linker_1, # of connection points: 2
#     Edge 108, Type (0, 0), BuildingBlock: KIFKEQ_clean_linker_1, # of connection points: 2
#     Edge 109, Type (0, 0), BuildingBlock: KIFKEQ_clean_linker_1, # of connection points: 2
#     Edge 110, Type (0, 0), BuildingBlock: KIFKEQ_clean_linker_1, # of connection points: 2
#     Edge 111, Type (0, 0), BuildingBlock: KIFKEQ_clean_linker_1, # of connection points: 2
#     Edge 112, Type (0, 0), BuildingBlock: KIFKEQ_clean_linker_1, # of connection points: 2
#     Edge 113, Type (0, 0), BuildingBlock: KIFKEQ_clean_linker_1, # of connection points: 2
#     Edge 114, Type (0, 0), BuildingBlock: KIFKEQ_clean_linker_1, # of connection points: 2
#     Edge 115, Type (0, 0), BuildingBlock: KIFKEQ_clean_linker_1, # of connection points: 2
#     Edge 116, Type (0, 0), BuildingBlock: KIFKEQ_clean_linker_1, # of connection points: 2
#     Edge 117, Type (0, 0), BuildingBlock: KIFKEQ_clean_linker_1, # of connection points: 2
#     Edge 118, Type (0, 0), BuildingBlock: KIFKEQ_clean_linker_1, # of connection points: 2
#     Edge 119, Type (0, 0), BuildingBlock: KIFKEQ_clean_linker_1, # of connection points: 2
#     Edge 120, Type (0, 0), BuildingBlock: KIFKEQ_clean_linker_1, # of connection points: 2
#     Edge 121, Type (0, 0), BuildingBlock: KIFKEQ_clean_linker_1, # of connection points: 2
#     Edge 122, Type (0, 0), BuildingBlock: KIFKEQ_clean_linker_1, # of connection points: 2
#     Edge 123, Type (0, 0), BuildingBlock: KIFKEQ_clean_linker_1, # of connection points: 2
#     Edge 124, Type (0, 0), BuildingBlock: KIFKEQ_clean_linker_1, # of connection points: 2
#     Edge 125, Type (0, 0), BuildingBlock: KIFKEQ_clean_linker_1, # of connection points: 2
#     Edge 126, Type (0, 0), BuildingBlock: KIFKEQ_clean_linker_1, # of connection points: 2
#     Edge 127, Type (0, 0), BuildingBlock: KIFKEQ_clean_linker_1, # of connection points: 2
#     Edge 128, Type (0, 0), BuildingBlock: KIFKEQ_clean_linker_1, # of connection points: 2
#     Edge 129, Type (0, 0), BuildingBlock: KIFKEQ_clean_linker_1, # of connection points: 2
#     Edge 130, Type (0, 0), BuildingBlock: KIFKEQ_clean_linker_1, # of connection points: 2
#     Edge 131, Type (0, 0), BuildingBlock: KIFKEQ_clean_linker_1, # of connection points: 2
#     Edge 132, Type (0, 0), BuildingBlock: KIFKEQ_clean_linker_1, # of connection points: 2
#     Edge 133, Type (0, 0), BuildingBlock: KIFKEQ_clean_linker_1, # of connection points: 2
#     Edge 134, Type (0, 0), BuildingBlock: KIFKEQ_clean_linker_1, # of connection points: 2
#     Edge 135, Type (0, 0), BuildingBlock: KIFKEQ_clean_linker_1, # of connection points: 2
#     Edge 136, Type (0, 0), BuildingBlock: KIFKEQ_clean_linker_1, # of connection points: 2
#     Edge 137, Type (0, 0), BuildingBlock: KIFKEQ_clean_linker_1, # of connection points: 2
#     Edge 138, Type (0, 0), BuildingBlock: KIFKEQ_clean_linker_1, # of connection points: 2
#     Edge 139, Type (0, 0), BuildingBlock: KIFKEQ_clean_linker_1, # of connection points: 2
#     Edge 140, Type (0, 0), BuildingBlock: KIFKEQ_clean_linker_1, # of connection points: 2
#     Edge 141, Type (0, 0), BuildingBlock: KIFKEQ_clean_linker_1, # of connection points: 2
#     Edge 142, Type (0, 0), BuildingBlock: KIFKEQ_clean_linker_1, # of connection points: 2
#     Edge 143, Type (0, 0), BuildingBlock: KIFKEQ_clean_linker_1, # of connection points: 2
# Relax obj value: 0.152
# Max RMSD: 0.208
# Mean RMSD: 0.208
data_MOF--net-ull--node1-TATPOV_clean_sbu_0--edge1-KIFKEQ_clean_linker_1
_symmetry_space_group_name_H-M    P1
_symmetry_Int_Tables_number       1
_symmetry_cell_setting            triclinic
loop_
_symmetry_equiv_pos_as_xyz
'x, y, z'
_cell_length_a     60.872308
_cell_length_b     60.873272
_cell_length_c     60.883488
_cell_angle_alpha  90.027822
_cell_angle_beta   89.960801
_cell_angle_gamma 90.059211
loop_
_atom_site_label
_atom_site_type_symbol
_atom_site_fract_x
_atom_site_fract_y
_atom_site_fract_z
_atom_type_partial_charge
Zn0 Zn 0.99772 0.33772 0.14784 0.0
Zn1 Zn 0.01134 0.36813 0.17494 0.0
O2 O 0.03703 0.36553 0.1525 0.0
O3 O 0.02664 0.33743 0.1323 0.0
O4 O 0.02359 0.38963 0.19686 0.0
O5 O 0.99216 0.31638 0.17232 0.0
O6 O 0.00667 0.34073 0.19468 0.0
C7 C 0.04081 0.35188 0.13705 0.0
C8 C 0.9704 0.37596 0.14707 0.0
O9 O 0.98267 0.38233 0.16282 0.0
O10 O 0.974 0.35789 0.13748 0.0
C11 C 0.02756 0.40978 0.19308 0.0
O12 O 0.02248 0.41812 0.17385 0.0
C13 C -0.00152 0.32172 0.19139 0.0
Zn14 Zn 0.67803 0.99063 0.15456 0.0
Zn15 Zn 0.64285 0.00301 0.1765 0.0
O16 O 0.64734 0.029 0.1551 0.0
O17 O 0.677 0.01871 0.13713 0.0
O18 O 0.61755 0.01286 0.19526 0.0
O19 O 0.69647 0.98913 0.18139 0.0
O20 O 0.66713 -0.00157 0.20025 0.0
C21 C 0.6619 0.03261 0.14047 0.0
C22 C 0.64164 0.96116 0.14878 0.0
O23 O 0.63154 0.97522 0.16057 0.0
O24 O 0.66182 0.96365 0.14444 0.0
C25 C 0.59867 0.01799 0.18802 0.0
O26 O 0.59467 0.01639 0.16688 0.0
C27 C 0.68742 0.99319 0.19963 0.0
Zn28 Zn -0.00178 0.69611 0.15691 0.0
Zn29 Zn 0.98659 0.65867 0.17514 0.0
O30 O 0.9622 0.66309 0.15189 0.0
O31 O 0.97209 0.69438 0.1367 0.0
O32 O 0.97694 0.63123 0.19084 0.0
O33 O 0.99564 0.71264 0.18493 0.0
O34 O 0.98683 0.68143 0.20081 0.0
C35 C 0.95888 0.67834 0.13793 0.0
C36 C 0.03108 0.6627 0.15208 0.0
O37 O 0.01678 0.65061 0.16149 0.0
O38 O 0.02728 0.68286 0.14877 0.0
C39 C 0.98863 0.62279 0.20592 0.0
O40 O 0.0078 0.63161 0.21051 0.0
C41 C 0.9905 0.70205 0.20203 0.0
Zn42 Zn 0.30976 0.00735 0.14703 0.0
Zn43 Zn 0.34634 0.99766 0.16761 0.0
O44 O 0.34419 0.97164 0.1457 0.0
O45 O 0.31276 0.97936 0.12958 0.0
O46 O 0.37244 0.99039 0.18663 0.0
O47 O 0.29148 0.00766 0.17404 0.0
O48 O 0.3217 -0.00124 0.19163 0.0
C49 C 0.32923 0.96686 0.13182 0.0
C50 C 0.34292 0.04016 0.14076 0.0
O51 O 0.35463 0.02709 0.1522 0.0
O52 O 0.32308 0.03557 0.1366 0.0
C53 C 0.39144 0.98461 0.1802 0.0
O54 O 0.39558 0.98339 0.15905 0.0
C55 C 0.30116 0.00302 0.19179 0.0
Zn56 Zn -0.0019 0.66548 0.84152 0.0
Zn57 Zn 0.99379 0.63233 0.81439 0.0
O58 O 0.02251 0.62611 0.83178 0.0
O59 O 0.02854 0.65673 0.85005 0.0
O60 O 0.99356 0.60696 0.79341 0.0
O61 O 0.99416 0.68694 0.81688 0.0
O62 O 0.99342 0.65928 0.79364 0.0
C63 C 0.03462 0.63773 0.84431 0.0
C64 C 0.96012 0.63828 0.85039 0.0
O65 O 0.9655 0.6289 0.83248 0.0
O66 O 0.97195 0.65348 0.85829 0.0
C67 C 0.99438 0.58737 0.80055 0.0
O68 O 0.99375 0.58396 0.82185 0.0
C69 C 0.99315 0.6799 0.79734 0.0
Zn70 Zn 0.34987 0.00448 0.82829 0.0
Zn71 Zn 0.38043 0.00018 0.79885 0.0
O72 O 0.38792 0.02891 0.81608 0.0
O73 O 0.35865 0.03487 0.83645 0.0
O74 O 0.40436 0.00072 0.77598 0.0
O75 O 0.32619 0.00074 0.80598 0.0
O76 O 0.35159 6e-05 0.78026 0.0
C77 C 0.37718 0.041 0.8294 0.0
C78 C 0.37737 0.96661 0.83536 0.0
O79 O 0.38527 0.9717 0.81665 0.0
O80 O 0.36293 0.97862 0.84432 0.0
C81 C 0.42444 0.00177 0.78165 0.0
O82 O 0.42945 0.00026 0.80259 0.0
C83 C 0.33137 -2e-05 0.78587 0.0
Zn84 Zn -0.0001 0.31629 0.84373 0.0
Zn85 Zn 0.99088 0.35052 0.81924 0.0
O86 O 0.96522 0.35003 0.8419 0.0
O87 O 0.97137 0.3193 0.85988 0.0
O88 O 0.98217 0.37509 0.79878 0.0
O89 O 0.00242 0.29611 0.8181 0.0
O90 O 0.99294 0.32409 0.79735 0.0
C91 C 0.95961 0.33609 0.85651 0.0
C92 C 0.03251 0.3503 0.84707 0.0
O93 O 0.0207 0.36012 0.83284 0.0
O94 O 0.02691 0.33173 0.85451 0.0
C95 C 0.97631 0.39413 0.80505 0.0
O96 O 0.97671 0.39889 0.8261 0.0
C97 C -0.00186 0.30386 0.79933 0.0
Zn98 Zn 0.64672 -0.00075 0.83926 0.0
Zn99 Zn 0.61372 0.00042 0.81203 0.0
O100 O 0.60901 0.9714 0.82955 0.0
O101 O 0.63987 0.9683 0.84805 0.0
O102 O 0.58904 -0.00106 0.79002 0.0
O103 O 0.66849 0.0048 0.81507 0.0
O104 O 0.6412 0.00132 0.79171 0.0
C105 C 0.62148 0.96048 0.84235 0.0
C106 C 0.61733 0.03509 0.8479 0.0
O107 O 0.60845 0.02895 0.82994 0.0
O108 O 0.63316 0.02435 0.85599 0.0
C109 C 0.56907 0.99597 0.79542 0.0
O110 O 0.56383 0.99535 0.81635 0.0
C111 C 0.66167 0.00385 0.79547 0.0
Zn112 Zn 0.15176 0.97654 0.33342 0.0
Zn113 Zn 0.17956 0.98558 0.36524 0.0
O114 O 0.15831 0.01204 0.36567 0.0
O115 O 0.13253 0.00207 0.34237 0.0
O116 O 0.20095 0.99337 0.38922 0.0
O117 O 0.17558 0.98025 0.31093 0.0
O118 O 0.19953 0.98463 0.3376 0.0
C119 C 0.13996 0.01561 0.3563 0.0
C120 C 0.15374 0.94223 0.36505 0.0
O121 O 0.16587 0.95587 0.37535 0.0
O122 O 0.14648 0.94677 0.34614 0.0
C123 C 0.19446 0.00184 0.40718 0.0
O124 O 0.1733 0.00448 0.41052 0.0
C125 C 0.19523 0.98296 0.31716 0.0
Zn126 Zn 0.00977 0.14873 0.30416 0.0
Zn127 Zn 0.00202 0.17055 0.34098 0.0
O128 O 0.97486 0.15034 0.33938 0.0
O129 O 0.981 0.13267 0.30841 0.0
O130 O 0.99631 0.18924 0.36771 0.0
O131 O 0.01057 0.17592 0.28605 0.0
O132 O 0.00413 0.19441 0.31639 0.0
C133 C 0.96904 0.1362 0.32508 0.0
C134 C 0.04246 0.14069 0.33695 0.0
O135 O 0.03013 0.15299 0.34859 0.0
O136 O 0.03776 0.13689 0.31706 0.0
C137 C 0.99048 0.18167 0.38628 0.0
O138 O 0.98845 0.16033 0.38882 0.0
C139 C 0.00748 0.19405 0.29568 0.0
Zn140 Zn 0.84081 0.97334 0.329 0.0
Zn141 Zn 0.82112 0.9895 0.3642 0.0
O142 O 0.83653 0.96068 0.37412 0.0
O143 O 0.85086 0.94619 0.34431 0.0
O144 O 0.80441 0.99696 0.39176 0.0
O145 O 0.81257 0.97214 0.31256 0.0
O146 O 0.79598 0.98687 0.34114 0.0
C147 C 0.84702 0.94523 0.36468 0.0
C148 C 0.8572 0.01635 0.34311 0.0
O149 O 0.84267 0.01493 0.35815 0.0
O150 O 0.85941 0.00093 0.32927 0.0
C151 C 0.81285 0.99349 0.41054 0.0
O152 O 0.83378 0.98838 0.41177 0.0
C153 C 0.7953 0.97928 0.32162 0.0
Zn154 Zn 0.9934 0.84059 0.35251 0.0
Zn155 Zn 0.99647 0.81141 0.38298 0.0
O156 O 0.02642 0.82782 0.38455 0.0
O157 O 0.02545 0.84764 0.35439 0.0
O158 O 0.00038 0.78801 0.40577 0.0
O159 O 0.98295 0.81824 0.33055 0.0
O160 O 0.99141 0.79294 0.35484 0.0
C161 C 0.03579 0.84079 0.37104 0.0
C162 C 0.96304 0.84819 0.3873 0.0
O163 O 0.96944 0.82923 0.39342 0.0
O164 O 0.97192 0.85748 0.37096 0.0
C165 C 0.00418 0.7926 0.42576 0.0
O166 O 0.00438 0.81328 0.43195 0.0
C167 C 0.98514 0.79819 0.33557 0.0
Zn168 Zn 0.15335 0.99593 0.68092 0.0
Zn169 Zn 0.17311 0.98768 0.6434 0.0
O170 O 0.15121 0.96158 0.64538 0.0
O171 O 0.13467 0.96896 0.67669 0.0
O172 O 0.19162 0.98073 0.61684 0.0
O173 O 0.18069 0.99363 0.6987 0.0
O174 O 0.19779 0.98911 0.66722 0.0
C175 C 0.13692 0.95681 0.65994 0.0
C176 C 0.14644 0.02987 0.64873 0.0
O177 O 0.157 0.01677 0.63623 0.0
O178 O 0.14361 0.02523 0.66881 0.0
C179 C 0.18492 0.97205 0.59908 0.0
O180 O 0.16386 0.968 0.59658 0.0
C181 C 0.19833 0.99096 0.68809 0.0
Zn182 Zn 0.98891 0.1459 0.66367 0.0
Zn183 Zn 0.99534 0.17368 0.63104 0.0
O184 O 0.02155 0.15199 0.62847 0.0
O185 O 0.01384 0.12683 0.65329 0.0
O186 O 0.00174 0.19514 0.6067 0.0
O187 O 0.99345 0.17003 0.68578 0.0
O188 O 0.99578 0.19371 0.65861 0.0
C189 C 0.02598 0.13386 0.63795 0.0
C190 C 0.95215 0.1481 0.63458 0.0
O191 O 0.96461 0.16073 0.62343 0.0
O192 O 0.95851 0.14023 0.6527 0.0
C193 C 0.00516 0.18908 0.58701 0.0
O194 O 0.00346 0.16815 0.58201 0.0
C195 C 0.99525 0.18967 0.67916 0.0
Zn196 Zn 0.82661 0.00533 0.6683 0.0
Zn197 Zn 0.80047 0.00877 0.63408 0.0
O198 O 0.82034 0.03642 0.63273 0.0
O199 O 0.83844 0.03584 0.66396 0.0
O200 O 0.78076 0.01408 0.60821 0.0
O201 O 0.8006 0.00036 0.68817 0.0
O202 O 0.7787 0.00707 0.66026 0.0
C203 C 0.83381 0.04531 0.64606 0.0
C204 C 0.83346 0.97154 0.63578 0.0
O205 O 0.81647 0.97981 0.62682 0.0
O206 O 0.84156 0.98003 0.65294 0.0
C207 C 0.78921 0.01906 0.58977 0.0
O208 O 0.8107 0.01894 0.5877 0.0
C209 C 0.7814 0.00295 0.68063 0.0
Zn210 Zn 0.96553 0.84454 0.67616 0.0
Zn211 Zn 0.97375 0.82211 0.64037 0.0
O212 O 0.94494 0.83963 0.63443 0.0
O213 O 0.93626 0.85499 0.66595 0.0
O214 O 0.97465 0.80218 0.6138 0.0
O215 O 0.96688 0.81829 0.69548 0.0
O216 O 0.97363 0.79902 0.66568 0.0
C217 C 0.93181 0.85105 0.64608 0.0
C218 C 0.00599 0.85748 0.65338 0.0
O219 O 0.00157 0.84181 0.64014 0.0
O220 O 0.99304 0.86171 0.66915 0.0
C221 C 0.96743 0.80831 0.59519 0.0
O222 O 0.96229 0.82907 0.59232 0.0
C223 C 0.97068 0.8 0.68641 0.0
Zn224 Zn 0.34222 0.14806 0.97531 0.0
Zn225 Zn 0.37519 0.17439 0.98357 0.0
O226 O 0.37395 0.15561 0.01211 0.0
O227 O 0.34334 0.13719 0.0064 0.0
O228 O 0.39949 0.19599 0.98909 0.0
O229 O 0.32242 0.17344 0.96776 0.0
O230 O 0.34868 0.19532 0.97942 0.0
C231 C 0.35929 0.14219 0.01878 0.0
C232 C 0.37799 0.14105 0.94604 0.0
O233 O 0.38565 0.15796 0.9557 0.0
O234 O 0.35994 0.13271 0.95209 0.0
C235 C 0.4199 0.19176 0.98788 0.0
O236 O 0.42634 0.17171 0.98315 0.0
C237 C 0.32916 0.19257 0.97236 0.0
Zn238 Zn 0.31225 0.84583 0.965 0.0
Zn239 Zn 0.34639 0.82219 0.97728 0.0
O240 O 0.3562 0.83808 0.94866 0.0
O241 O 0.32656 0.85505 0.9369 0.0
O242 O 0.3716 0.80123 0.98187 0.0
O243 O 0.29202 0.82004 0.9646 0.0
O244 O 0.32022 0.80022 0.97535 0.0
C245 C 0.34649 0.84984 0.93432 0.0
C246 C 0.33184 0.85907 0.00709 0.0
O247 O 0.34501 0.84305 0.00407 0.0
O248 O 0.31715 0.86324 0.99293 0.0
C249 C 0.39151 0.80666 0.97863 0.0
O250 O 0.39625 0.82738 0.97482 0.0
C251 C 0.30001 0.80167 0.97002 0.0
Zn252 Zn 0.16219 0.31377 0.98763 0.0
Zn253 Zn 0.18612 0.34981 0.98576 0.0
O254 O 0.16516 0.35343 0.9592 0.0
O255 O 0.14596 0.32279 0.96031 0.0
O256 O 0.20614 0.376 0.9827 0.0
O257 O 0.1881 0.29412 0.98502 0.0
O258 O 0.20858 0.32385 0.98367 0.0
C259 C 0.15033 0.34098 0.95123 0.0
C260 C 0.15761 0.34098 0.02608 0.0
O261 O 0.17047 0.35394 0.01578 0.0
O262 O 0.15199 0.32281 0.01766 0.0
C263 C 0.19929 0.39551 0.97988 0.0
O264 O 0.17804 0.39932 0.98003 0.0
C265 C 0.20685 0.30293 0.98355 0.0
Zn266 Zn 0.67667 0.15993 0.97728 0.0
Zn267 Zn 0.64122 0.18058 0.99041 0.0
O268 O 0.63245 0.16502 0.96121 0.0
O269 O 0.66332 0.15122 0.9485 0.0
O270 O 0.6141 0.19833 0.9969 0.0
O271 O 0.69508 0.18703 0.97919 0.0
O272 O 0.66551 0.2048 0.98981 0.0
C273 C 0.64297 0.15472 0.9463 0.0
C274 C 0.65836 0.14335 0.01838 0.0
O275 O 0.64451 0.15889 0.01613 0.0
O276 O 0.67307 0.14035 0.00394 0.0
C277 C 0.59485 0.19018 0.99675 0.0
O278 O 0.59246 0.16892 0.99387 0.0
C279 C 0.68597 0.20471 0.9852 0.0
Zn280 Zn 0.83091 0.69729 0.97512 0.0
Zn281 Zn 0.80976 0.66175 0.9877 0.0
O282 O 0.82596 0.65332 0.95891 0.0
O283 O 0.83996 0.68418 0.94636 0.0
O284 O 0.79155 0.63454 0.99282 0.0
O285 O 0.80399 0.71583 0.97653 0.0
O286 O 0.78581 0.68621 0.98641 0.0
C287 C 0.83649 0.66382 0.94416 0.0
C288 C 0.84691 0.67816 0.01619 0.0
O289 O 0.83118 0.6645 0.01381 0.0
O290 O 0.85004 0.69303 0.00194 0.0
C291 C 0.7996 0.61539 0.99062 0.0
O292 O 0.82081 0.61331 0.98715 0.0
C293 C 0.78611 0.70667 0.98183 0.0
Zn294 Zn 0.64112 0.85487 0.98802 0.0
Zn295 Zn 0.61035 0.82541 0.99531 0.0
O296 O 0.60857 0.84652 0.02201 0.0
O297 O 0.63085 0.87359 0.01315 0.0
O298 O 0.58771 0.80261 0.00342 0.0
O299 O 0.66465 0.8321 0.99236 0.0
O300 O 0.63882 0.80686 0.99378 0.0
C301 C 0.6169 0.86528 0.02612 0.0
C302 C 0.61036 0.85171 0.95259 0.0
O303 O 0.6002 0.83863 0.96545 0.0
O304 O 0.62864 0.85992 0.95808 0.0
C305 C 0.56955 0.80805 0.0122 0.0
O306 O 0.56474 0.82899 0.01419 0.0
C307 C 0.65911 0.81209 0.99351 0.0
Zn308 Zn 0.14079 0.66939 0.99159 0.0
Zn309 Zn 0.16878 0.63714 -0.00181 0.0
O310 O 0.15047 0.63774 0.02709 0.0
O311 O 0.13 0.66717 0.02247 0.0
O312 O 0.19093 0.61351 0.00418 0.0
O313 O 0.1653 0.69042 0.98485 0.0
O314 O 0.18876 0.66416 0.99278 0.0
C315 C 0.1363 0.65135 0.03435 0.0
C316 C 0.13506 0.63363 0.96139 0.0
O317 O 0.15222 0.62612 0.97069 0.0
O318 O 0.12644 0.6514 0.96785 0.0
C319 C 0.18541 0.59391 0.00875 0.0
O320 O 0.16448 0.58862 0.00905 0.0
C321 C 0.18491 0.68401 0.98733 0.0
Zn322 Zn 0.84241 0.33114 0.02563 0.0
Zn323 Zn 0.82086 0.36616 0.01428 0.0
O324 O 0.83752 0.37412 0.04322 0.0
O325 O 0.8522 0.34316 0.0545 0.0
O326 O 0.80191 0.39309 0.01063 0.0
O327 O 0.81606 0.31183 0.02434 0.0
O328 O 0.79728 0.34109 0.01476 0.0
C329 C 0.84848 0.36337 0.05745 0.0
C330 C 0.85711 0.35065 0.98425 0.0
O331 O 0.84149 0.36429 0.9873 0.0
O332 O 0.86078 0.33579 -0.00163 0.0
C333 C 0.80931 0.41235 0.01395 0.0
O334 O 0.83048 0.41502 0.0172 0.0
C335 C 0.79802 0.32055 0.01894 0.0
Zn336 Zn 0.51386 0.82298 0.65302 0.0
Zn337 Zn 0.50113 0.85709 0.67487 0.0
O338 O 0.53048 0.86626 0.65989 0.0
O339 O 0.54365 0.8354 0.64659 0.0
O340 O 0.49517 0.88362 0.69378 0.0
O341 O 0.50965 0.80273 0.6783 0.0
O342 O 0.50225 0.83192 0.69821 0.0
C343 C 0.5458 0.85573 0.65024 0.0
C344 C 0.47407 0.84242 0.63578 0.0
O345 O 0.47537 0.85478 0.65268 0.0
O346 O 0.48893 0.82834 0.63206 0.0
C347 C 0.49696 0.90308 0.68641 0.0
O348 O 0.50058 0.90598 0.66533 0.0
C349 C 0.50515 0.8112 0.69671 0.0
Zn350 Zn 0.15531 0.4783 0.66034 0.0
Zn351 Zn 0.12263 0.48337 0.68706 0.0
O352 O 0.12269 0.51235 0.66914 0.0
O353 O 0.15386 0.50979 0.65106 0.0
O354 O 0.09759 0.48852 0.70779 0.0
O355 O 0.17531 0.46968 0.68516 0.0
O356 O 0.14921 0.47983 0.70798 0.0
C357 C 0.13704 0.52075 0.6564 0.0
C358 C 0.1211 0.4476 0.65205 0.0
O359 O 0.11354 0.45535 0.66997 0.0
O360 O 0.13827 0.45565 0.64354 0.0
C361 C 0.07837 0.49213 0.70051 0.0
O362 O 0.07489 0.49129 0.67923 0.0
C363 C 0.16883 0.47337 0.70457 0.0
Zn364 Zn 0.47905 0.18702 0.66041 0.0
Zn365 Zn 0.49391 0.15176 0.67947 0.0
O366 O 0.46576 0.14265 0.66256 0.0
O367 O 0.45036 0.17333 0.65155 0.0
O368 O 0.50041 0.12368 0.69576 0.0
O369 O 0.4816 0.20497 0.68768 0.0
O370 O 0.49174 0.17487 0.70483 0.0
C371 C 0.44999 0.15262 0.6531 0.0
C372 C 0.5205 0.17104 0.64243 0.0
O373 O 0.51965 0.15705 0.65801 0.0
O374 O 0.50504 0.18475 0.63994 0.0
C375 C 0.49959 0.10521 0.68601 0.0
O376 O 0.49696 0.10482 0.6646 0.0
C377 C 0.48727 0.19536 0.70517 0.0
Zn378 Zn 0.80117 0.46495 0.66284 0.0
Zn379 Zn 0.83692 0.47535 0.68505 0.0
O380 O 0.84446 0.44661 0.66834 0.0
O381 O 0.81368 0.43605 0.65274 0.0
O382 O 0.86364 0.47841 0.70443 0.0
O383 O 0.78214 0.46661 0.68971 0.0
O384 O 0.81207 0.47407 0.70848 0.0
C385 C 0.83378 0.43274 0.65684 0.0
C386 C 0.82199 0.50609 0.64892 0.0
O387 O 0.83544 0.50259 0.66462 0.0
O388 O 0.80678 0.49239 0.64501 0.0
C389 C 0.88289 0.47406 0.69759 0.0
O390 O 0.88592 0.47031 0.67655 0.0
C391 C 0.79138 0.4708 0.70785 0.0
Zn392 Zn 0.5146 0.19765 0.32414 0.0
Zn393 Zn 0.51228 0.16064 0.30174 0.0
O394 O 0.54012 0.15637 0.3209 0.0
O395 O 0.54248 0.18794 0.33843 0.0
O396 O 0.51291 0.13382 0.28253 0.0
O397 O 0.5168 0.216 0.29721 0.0
O398 O 0.51386 0.1854 0.27818 0.0
C399 C 0.55003 0.16903 0.33433 0.0
C400 C 0.47527 0.17238 0.33326 0.0
O401 O 0.48345 0.15873 0.31961 0.0
O402 O 0.4853 0.19013 0.3375 0.0
C403 C 0.51568 0.11448 0.28985 0.0
O404 O 0.51654 0.11136 0.31119 0.0
C405 C 0.51601 0.20623 0.27891 0.0
Zn406 Zn 0.84127 0.48483 0.35079 0.0
Zn407 Zn 0.87323 0.49868 0.32511 0.0
O408 O 0.87034 0.52397 0.34756 0.0
O409 O 0.84664 0.51048 0.37133 0.0
O410 O 0.8964 0.50994 0.30432 0.0
O411 O 0.81934 0.48642 0.32632 0.0
O412 O 0.84657 0.49508 0.30419 0.0
C413 C 0.85969 0.52561 0.3655 0.0
C414 C 0.87702 0.45462 0.34922 0.0
O415 O 0.88628 0.46996 0.33833 0.0
O416 O 0.85728 0.45655 0.35541 0.0
C417 C 0.91305 0.52073 0.31087 0.0
O418 O 0.91603 0.52362 0.33205 0.0
C419 C 0.82632 0.49059 0.30719 0.0
Zn420 Zn 0.49615 0.84018 0.34364 0.0
Zn421 Zn 0.49454 0.87193 0.31557 0.0
O422 O 0.46748 0.87741 0.3357 0.0
O423 O 0.47332 0.85429 0.36283 0.0
O424 O 0.49048 0.89491 0.29208 0.0
O425 O 0.48768 0.81761 0.32111 0.0
O426 O 0.49333 0.84357 0.29668 0.0
C427 C 0.4623 0.8698 0.35451 0.0
C428 C 0.53611 0.86486 0.34225 0.0
O429 O 0.52483 0.87794 0.33038 0.0
O430 O 0.52801 0.84681 0.34862 0.0
C431 C 0.4841 0.91438 0.29604 0.0
O432 O 0.482 0.92078 0.31655 0.0
C433 C 0.48935 0.82352 0.30127 0.0
Zn434 Zn 0.20199 0.4922 0.35153 0.0
Zn435 Zn 0.16475 0.48336 0.33055 0.0
O436 O 0.16733 0.45701 0.35177 0.0
O437 O 0.198 0.46457 0.36938 0.0
O438 O 0.13737 0.47623 0.31328 0.0
O439 O 0.21965 0.49082 0.32396 0.0
O440 O 0.18874 0.48527 0.30608 0.0
C441 C 0.18161 0.45212 0.36627 0.0
C442 C 0.16888 0.52509 0.35845 0.0
O443 O 0.15712 0.51195 0.34714 0.0
O444 O 0.18897 0.52093 0.36184 0.0
C445 C 0.13377 0.48477 0.29456 0.0
O446 O 0.14777 0.49921 0.28671 0.0
C447 C 0.20955 0.48781 0.30607 0.0
Zn448 Zn 0.64681 0.48898 0.85537 0.0
Zn449 Zn 0.67629 0.49488 0.88564 0.0
O450 O 0.65745 0.52341 0.88641 0.0
O451 O 0.63694 0.52031 0.85685 0.0
O452 O 0.69945 0.50212 0.90816 0.0
O453 O 0.66974 0.47999 0.83338 0.0
O454 O 0.69485 0.49002 0.85734 0.0
C455 C 0.64338 0.53144 0.87316 0.0
C456 C 0.64228 0.45856 0.89089 0.0
O457 O 0.6606 0.46674 0.89696 0.0
O458 O 0.63227 0.46627 0.8744 0.0
C459 C 0.69432 0.50861 0.92734 0.0
O460 O 0.67351 0.50881 0.93311 0.0
C461 C 0.68971 0.48317 0.83821 0.0
Zn462 Zn 0.51209 0.65412 0.82906 0.0
Zn463 Zn 0.4994 0.6776 0.86268 0.0
O464 O 0.47337 0.65574 0.85931 0.0
O465 O 0.48449 0.63612 0.83108 0.0
O466 O 0.48946 0.69794 0.88685 0.0
O467 O 0.51378 0.67974 0.80894 0.0
O468 O 0.503 0.69998 0.83685 0.0
C469 C 0.47021 0.64014 0.84566 0.0
C470 C 0.54219 0.65097 0.8647 0.0
O471 O 0.52817 0.6631 0.8745 0.0
O472 O 0.53918 0.64517 0.845 0.0
C473 C 0.48206 0.69212 0.90549 0.0
O474 O 0.48114 0.67113 0.91041 0.0
C475 C 0.50888 0.69833 0.81679 0.0
Zn476 Zn 0.34206 0.48819 0.81663 0.0
Zn477 Zn 0.31887 0.49293 0.85344 0.0
O478 O 0.33848 0.46605 0.85963 0.0
O479 O 0.35629 0.46074 0.82861 0.0
O480 O 0.29897 0.4929 0.87988 0.0
O481 O 0.31523 0.48556 0.79806 0.0
O482 O 0.29589 0.48938 0.82833 0.0
C483 C 0.35206 0.45504 0.84815 0.0
C484 C 0.34997 0.52947 0.83973 0.0
O485 O 0.33639 0.52211 0.85391 0.0
O486 O 0.35462 0.51827 0.82281 0.0
C487 C 0.3056 0.48815 0.8991 0.0
O488 O 0.32675 0.48563 0.90255 0.0
C489 C 0.29679 0.48662 0.80757 0.0
Zn490 Zn 0.50596 0.34021 0.85141 0.0
Zn491 Zn 0.5003 0.31293 0.88292 0.0
O492 O 0.52935 0.32957 0.89021 0.0
O493 O 0.53742 0.34612 0.85917 0.0
O494 O 0.49896 0.29098 0.9076 0.0
O495 O 0.49826 0.31748 0.82884 0.0
O496 O 0.49993 0.29286 0.85519 0.0
C497 C 0.54258 0.34094 0.87859 0.0
C498 C 0.46893 0.35108 0.87816 0.0
O499 O 0.47242 0.33203 0.88611 0.0
O500 O 0.4821 0.35924 0.86429 0.0
C501 C 0.50035 0.29664 0.92766 0.0
O502 O 0.50096 0.31764 0.93261 0.0
C503 C 0.49775 0.29762 0.83491 0.0
Zn504 Zn 0.66658 0.47807 0.1757 0.0
Zn505 Zn 0.68973 0.49381 0.14353 0.0
O506 O 0.67545 0.46498 0.13231 0.0
O507 O 0.66117 0.44893 0.16128 0.0
O508 O 0.70996 0.50033 0.11811 0.0
O509 O 0.69067 0.48183 0.19747 0.0
O510 O 0.71158 0.49225 0.16991 0.0
C511 C 0.66563 0.44867 0.141 0.0
C512 C 0.64952 0.51896 0.15749 0.0
O513 O 0.66701 0.51901 0.14589 0.0
O514 O 0.64562 0.50309 0.17039 0.0
C515 C 0.70341 0.49821 0.09838 0.0
O516 O 0.68237 0.49509 0.09468 0.0
C517 C 0.70918 0.48792 0.19028 0.0
Zn518 Zn 0.49263 0.64952 0.18878 0.0
Zn519 Zn 0.50264 0.67144 0.15275 0.0
O520 O 0.52911 0.65047 0.15621 0.0
O521 O 0.5203 0.63164 0.18576 0.0
O522 O 0.51137 0.689 0.12613 0.0
O523 O 0.49303 0.67669 0.20699 0.0
O524 O 0.49914 0.69563 0.17682 0.0
C525 C 0.53351 0.63549 0.17015 0.0
C526 C 0.46082 0.64348 0.15452 0.0
O527 O 0.47436 0.65502 0.14344 0.0
O528 O 0.46441 0.63954 0.17462 0.0
C529 C 0.49846 0.70188 0.11598 0.0
O530 O 0.47802 0.70373 0.12267 0.0
C531 C 0.49586 0.69497 0.19753 0.0
Zn532 Zn 0.3504 0.48348 0.15357 0.0
Zn533 Zn 0.32078 0.49236 0.12451 0.0
O534 O 0.34131 0.51945 0.12288 0.0
O535 O 0.36943 0.50829 0.14261 0.0
O536 O 0.29717 0.5 0.10287 0.0
O537 O 0.32917 0.48855 0.17832 0.0
O538 O 0.30299 0.48978 0.1535 0.0
C539 C 0.36072 0.52243 0.13013 0.0
C540 C 0.34657 0.4495 0.12188 0.0
O541 O 0.33452 0.46364 0.11226 0.0
O542 O 0.35407 0.45329 0.14087 0.0
C543 C 0.30143 0.50521 0.08312 0.0
O544 O 0.3219 0.50477 0.07628 0.0
C545 C 0.30897 0.48964 0.17357 0.0
Zn546 Zn 0.5091 0.35563 0.13517 0.0
Zn547 Zn 0.5088 0.3261 0.1042 0.0
O548 O 0.4786 0.34196 0.10052 0.0
O549 O 0.47806 0.36382 0.12933 0.0
O550 O 0.50757 0.30339 0.08034 0.0
O551 O 0.51474 0.33243 0.15789 0.0
O552 O 0.51119 0.30717 0.13229 0.0
C553 C 0.46861 0.3558 0.11267 0.0
C554 C 0.54389 0.36214 0.10471 0.0
O555 O 0.53699 0.34384 0.09723 0.0
O556 O 0.53386 0.37154 0.1203 0.0
C557 C 0.50426 0.30877 0.06046 0.0
O558 O 0.50268 0.32968 0.05538 0.0
C559 C 0.51388 0.31239 0.15239 0.0
Zn560 Zn 0.80209 0.65075 0.50369 0.0
Zn561 Zn 0.83895 0.67008 0.51521 0.0
O562 O 0.83417 0.6478 0.54054 0.0
O563 O 0.80307 0.63202 0.53101 0.0
O564 O 0.86615 0.68636 0.52503 0.0
O565 O 0.78532 0.67876 0.50371 0.0
O566 O 0.81598 0.69565 0.51258 0.0
C567 C 0.81898 0.63385 0.54428 0.0
C568 C 0.83649 0.64357 0.47238 0.0
O569 O 0.84791 0.65433 0.48629 0.0
O570 O 0.8162 0.6404 0.47567 0.0
C571 C 0.87604 0.70037 0.51309 0.0
O572 O 0.86893 0.70396 0.49304 0.0
C573 C 0.7955 0.69635 0.50803 0.0
Zn574 Zn 0.85264 0.34593 0.4965 0.0
Zn575 Zn 0.88236 0.3141 0.49603 0.0
O576 O 0.8911 0.33482 0.47018 0.0
O577 O 0.86811 0.3626 0.47286 0.0
O578 O 0.90388 0.28926 0.49195 0.0
O579 O 0.82854 0.3242 0.48945 0.0
O580 O 0.85287 0.29771 0.49276 0.0
C581 C 0.8844 0.35357 0.4637 0.0
C582 C 0.87653 0.34185 0.53727 0.0
O583 O 0.88709 0.32662 0.52747 0.0
O584 O 0.86111 0.35195 0.5277 0.0
C585 C 0.92391 0.29257 0.48705 0.0
O586 O 0.93149 0.31279 0.48699 0.0
C587 C 0.83312 0.30392 0.48974 0.0
Zn588 Zn 0.64966 0.84004 0.50055 0.0
Zn589 Zn 0.67676 0.87236 0.49514 0.0
O590 O 0.65768 0.87168 0.46674 0.0
O591 O 0.63869 0.84111 0.46958 0.0
O592 O 0.6965 0.89783 0.48794 0.0
O593 O 0.67469 0.82012 0.50863 0.0
O594 O 0.69819 0.84604 0.49952 0.0
C595 C 0.64412 0.8579 0.45863 0.0
C596 C 0.64268 0.8743 0.53174 0.0
O597 O 0.6604 0.88187 0.52352 0.0
O598 O 0.63387 0.8572 0.52386 0.0
C599 C 0.71001 0.90781 0.50034 0.0
O600 O 0.71239 0.90144 0.52082 0.0
C601 C 0.69432 0.82643 0.50586 0.0
Zn602 Zn 0.17196 0.64009 0.51736 0.0
Zn603 Zn 0.13761 0.66507 0.51045 0.0
O604 O 0.13634 0.64402 0.48392 0.0
O605 O 0.16194 0.62006 0.49278 0.0
O606 O 0.11234 0.6855 0.50528 0.0
O607 O 0.19266 0.66507 0.51141 0.0
O608 O 0.16384 0.68668 0.50942 0.0
C609 C 0.14671 0.62626 0.48007 0.0
C610 C 0.1427 0.64001 0.55374 0.0
O611 O 0.13046 0.65064 0.54051 0.0
O612 O 0.16201 0.63469 0.54822 0.0
C613 C 0.09275 0.67921 0.50178 0.0
O614 O 0.08821 0.6581 0.50194 0.0
C615 C 0.18462 0.6841 0.50926 0.0
Zn616 Zn 0.35845 0.16515 0.49224 0.0
Zn617 Zn 0.33497 0.13002 0.48535 0.0
O618 O 0.3537 0.13383 0.45695 0.0
O619 O 0.36884 0.16642 0.46117 0.0
O620 O 0.31711 0.10344 0.47739 0.0
O621 O 0.33141 0.18201 0.50054 0.0
O622 O 0.31119 0.15365 0.49094 0.0
C623 C 0.3652 0.14966 0.44948 0.0
C624 C 0.36836 0.1306 0.52253 0.0
O625 O 0.35177 0.12147 0.5136 0.0
O626 O 0.37559 0.14871 0.51528 0.0
C627 C 0.30169 0.09546 0.48898 0.0
O628 O 0.29724 0.10426 0.50818 0.0
C629 C 0.31268 0.17345 0.49763 0.0
Zn630 Zn 0.18098 0.32477 0.53017 0.0
Zn631 Zn 0.1467 0.30381 0.51385 0.0
O632 O 0.13588 0.31894 0.5425 0.0
O633 O 0.16523 0.33373 0.5575 0.0
O634 O 0.12016 0.28545 0.5066 0.0
O635 O 0.19911 0.29755 0.53082 0.0
O636 O 0.17111 0.28002 0.51612 0.0
C637 C 0.14492 0.32948 0.55816 0.0
C638 C 0.16586 0.34096 0.48731 0.0
O639 O 0.15157 0.32566 0.48848 0.0
O640 O 0.17952 0.34367 0.5028 0.0
C641 C 0.10086 0.29318 0.50858 0.0
O642 O 0.09843 0.31432 0.51219 0.0
C643 C 0.19075 0.28004 0.52342 0.0
Zn644 Zn 0.65413 0.19828 0.48594 0.0
Zn645 Zn 0.67493 0.16154 0.4972 0.0
O646 O 0.65194 0.1661 0.52181 0.0
O647 O 0.63478 0.19652 0.51266 0.0
O648 O 0.69028 0.13459 0.50823 0.0
O649 O 0.6822 0.21528 0.48768 0.0
O650 O 0.69999 0.18473 0.49521 0.0
C651 C 0.63738 0.1806 0.52575 0.0
C652 C 0.65071 0.16344 0.45369 0.0
O653 O 0.66171 0.15225 0.46748 0.0
O654 O 0.64573 0.18325 0.45761 0.0
C655 C 0.70252 0.12187 0.4971 0.0
O656 O 0.70602 0.12603 0.47622 0.0
C657 C 0.70002 0.20539 0.49165 0.0
Zn658 Zn 0.33989 0.81701 0.48107 0.0
Zn659 Zn 0.31575 0.85029 0.49471 0.0
O660 O 0.33815 0.84809 0.52002 0.0
O661 O 0.35767 0.81972 0.50898 0.0
O662 O 0.2943 0.87325 0.50506 0.0
O663 O 0.31488 0.79605 0.47968 0.0
O664 O 0.29466 0.82341 0.49176 0.0
C665 C 0.35382 0.83456 0.52307 0.0
C666 C 0.34204 0.85379 0.45184 0.0
O667 O 0.3299 0.86294 0.46629 0.0
O668 O 0.34801 0.83403 0.45411 0.0
C669 C 0.29852 0.89321 0.5095 0.0
O670 O 0.31862 0.90065 0.50683 0.0
C671 C 0.29643 0.80343 0.48567 0.0
H672 H 0.09895 0.45937 0.30729 0.0
H673 H 0.12673 0.49234 0.25091 0.0
H674 H 0.07029 0.44378 0.2841 0.0
H675 H 0.09863 0.47611 0.22757 0.0
H676 H 0.03819 0.45356 0.1914 0.0
H677 H 0.06095 0.47419 0.21721 0.0
H678 H 0.0681 0.41592 0.25712 0.0
H679 H 0.04485 0.39568 0.2319 0.0
C680 C 0.09889 0.46335 0.28995 0.0
C681 C 0.11522 0.47694 0.28091 0.0
C682 C 0.08252 0.45431 0.27661 0.0
C683 C 0.08224 0.45845 0.25387 0.0
C684 C 0.09813 0.47273 0.24502 0.0
C685 C 0.11436 0.48195 0.2584 0.0
C686 C 0.04441 0.44526 0.20584 0.0
C687 C 0.03979 0.42294 0.20951 0.0
C688 C 0.05758 0.45705 0.22058 0.0
C689 C 0.0665 0.44673 0.23923 0.0
C690 C 0.06128 0.42456 0.24317 0.0
C691 C 0.04804 0.41286 0.22856 0.0
H692 H 0.60211 0.02322 0.23238 0.0
H693 H 0.55806 0.0347 0.17794 0.0
H694 H 0.57748 0.04305 0.25662 0.0
H695 H 0.53301 0.05423 0.20248 0.0
H696 H 0.51832 0.11652 0.24511 0.0
H697 H 0.53446 0.08955 0.22055 0.0
H698 H 0.54239 0.04467 0.27494 0.0
H699 H 0.52671 0.07199 0.29974 0.0
C700 C 0.58696 0.02965 0.22564 0.0
C701 C 0.58221 0.02763 0.20314 0.0
C702 C 0.57269 0.04088 0.23963 0.0
C703 C 0.55328 0.05034 0.2315 0.0
C704 C 0.54798 0.04738 0.2092 0.0
C705 C 0.56229 0.03612 0.19516 0.0
C706 C 0.52315 0.10076 0.25182 0.0
C707 C 0.52159 0.09657 0.27448 0.0
C708 C 0.53228 0.0852 0.23766 0.0
C709 C 0.54 0.06503 0.24581 0.0
C710 C 0.537 0.06023 0.26821 0.0
C711 C 0.5279 0.07584 0.28241 0.0
H712 H 0.94822 0.60345 0.20307 0.0
H713 H 0.00901 0.60109 0.23961 0.0
H714 H 0.93232 0.57627 0.22761 0.0
H715 H 0.99324 0.57336 0.26389 0.0
H716 H 0.94583 0.55033 0.31912 0.0
H717 H 0.96597 0.57243 0.29256 0.0
H718 H 0.93299 0.5387 0.2395 0.0
H719 H 0.91238 0.51701 0.2661 0.0
C720 C 0.95833 0.59687 0.21613 0.0
C721 C 0.97983 0.60459 0.21948 0.0
C722 C 0.94924 0.58114 0.23015 0.0
C723 C 0.96147 0.57265 0.24781 0.0
C724 C 0.98326 0.5798 0.25066 0.0
C725 C 0.99234 0.59561 0.23666 0.0
C726 C 0.94306 0.54743 0.30179 0.0
C727 C 0.92731 0.53208 0.29475 0.0
C728 C 0.95472 0.56003 0.28653 0.0
C729 C 0.95097 0.5575 0.26387 0.0
C730 C 0.93597 0.54138 0.25683 0.0
C731 C 0.92425 0.52885 0.27209 0.0
H732 H 0.46713 0.95595 0.2986 0.0
H733 H 0.48139 0.90395 0.25242 0.0
H734 H 0.44797 0.97615 0.26984 0.0
H735 H 0.46178 0.92381 0.2239 0.0
H736 H 0.4331 0.96898 0.17278 0.0
H737 H 0.45925 0.95536 0.19998 0.0
H738 H 0.41325 0.97087 0.2518 0.0
H739 H 0.3875 0.98487 0.22484 0.0
C740 C 0.46643 0.94894 0.28226 0.0
C741 C 0.47556 0.9282 0.27791 0.0
C742 C 0.45532 0.96046 0.2658 0.0
C743 C 0.45303 0.95147 0.24462 0.0
C744 C 0.46332 0.93133 0.23995 0.0
C745 C 0.47449 0.91985 0.25639 0.0
C746 C 0.4287 0.96971 0.19 0.0
C747 C 0.40813 0.97787 0.19659 0.0
C748 C 0.44366 0.96182 0.20559 0.0
C749 C 0.43836 0.96195 0.2281 0.0
C750 C 0.41807 0.97079 0.23467 0.0
C751 C 0.40317 0.97867 0.21914 0.0
H752 H 0.08045 0.49592 0.74512 0.0
H753 H 0.03726 0.50693 0.6899 0.0
H754 H 0.0548 0.51495 0.76904 0.0
H755 H 0.01131 0.5257 0.71404 0.0
H756 H 0.00337 0.54453 0.81077 0.0
H757 H 0.01875 0.51662 0.78643 0.0
H758 H 0.01364 0.56156 0.73177 0.0
H759 H -0.00206 0.58921 0.75588 0.0
C760 C 0.06525 0.50199 0.73816 0.0
C761 C 0.06108 0.50025 0.71553 0.0
C762 C 0.05042 0.51275 0.75194 0.0
C763 C 0.03109 0.52201 0.7434 0.0
C764 C 0.02622 0.519 0.72103 0.0
C765 C 0.04106 0.50818 0.70723 0.0
C766 C 0.00507 0.54827 0.79346 0.0
C767 C -0.00021 0.56922 0.78533 0.0
C768 C 0.01397 0.53231 0.77955 0.0
C769 C 0.01769 0.53697 0.75724 0.0
C770 C 0.01086 0.55735 0.74883 0.0
C771 C 0.002 0.57329 0.76272 0.0
H772 H 0.41892 0.00917 0.73775 0.0
H773 H 0.46783 0.01135 0.78912 0.0
H774 H 0.44349 0.02916 0.71351 0.0
H775 H 0.49268 0.03113 0.76459 0.0
H776 H 0.50248 0.10042 0.73057 0.0
H777 H 0.48978 0.06938 0.75224 0.0
H778 H 0.47765 0.0326 0.69277 0.0
H779 H 0.49007 0.06387 0.67098 0.0
C780 C 0.43515 0.01339 0.7437 0.0
C781 C 0.44118 0.00913 0.76556 0.0
C782 C 0.44935 0.02474 0.7297 0.0
C783 C 0.46993 0.03208 0.73723 0.0
C784 C 0.47676 0.02607 0.75845 0.0
C785 C 0.46253 0.01466 0.77248 0.0
C786 C 0.49761 0.08554 0.72209 0.0
C787 C 0.49685 0.08482 0.69903 0.0
C788 C 0.49047 0.06763 0.73454 0.0
C789 C 0.48239 0.04859 0.72422 0.0
C790 C 0.48344 0.04717 0.70119 0.0
C791 C 0.49064 0.06509 0.68872 0.0
H792 H 0.92513 0.46117 0.68902 0.0
H793 H 0.88025 0.47431 0.74245 0.0
H794 H 0.95146 0.44584 0.71498 0.0
H795 H 0.90624 0.45846 0.76823 0.0
H796 H 0.95996 0.4354 0.81278 0.0
H797 H 0.94111 0.45941 0.78681 0.0
H798 H 0.95211 0.41197 0.73515 0.0
H799 H 0.97135 0.38835 0.76084 0.0
C800 C 0.92101 0.46112 0.70633 0.0
C801 C 0.90044 0.4687 0.7136 0.0
C802 C 0.93605 0.45218 0.7212 0.0
C803 C 0.93085 0.45056 0.74367 0.0
C804 C 0.9109 0.45954 0.7511 0.0
C805 C 0.8959 0.46855 0.73625 0.0
C806 C 0.95864 0.43026 0.7958 0.0
C807 C 0.96699 0.40984 0.78896 0.0
C808 C 0.94774 0.44399 0.78093 0.0
C809 C 0.94495 0.4376 0.75889 0.0
C810 C 0.95417 0.41761 0.75189 0.0
C811 C 0.96508 0.40393 0.76672 0.0
H812 H 0.57529 0.99373 0.75107 0.0
H813 H 0.52617 0.98335 0.8013 0.0
H814 H 0.55166 0.9761 0.72426 0.0
H815 H 0.50217 0.96606 0.77418 0.0
H816 H 0.49335 0.90217 0.73116 0.0
H817 H 0.50543 0.93023 0.75682 0.0
H818 H 0.51824 0.9744 0.70278 0.0
H819 H 0.50658 0.94604 0.67694 0.0
C820 C 0.55921 0.98818 0.7563 0.0
C821 C 0.55285 0.9895 0.77845 0.0
C822 C 0.54552 0.97821 0.74083 0.0
C823 C 0.52511 0.96936 0.74712 0.0
C824 C 0.51797 0.97233 0.7689 0.0
C825 C 0.53171 0.98232 0.78442 0.0
C826 C 0.49827 0.91802 0.72472 0.0
C827 C 0.49946 0.92167 0.70195 0.0
C828 C 0.50505 0.93423 0.7395 0.0
C829 C 0.51314 0.95448 0.73185 0.0
C830 C 0.5125 0.95882 0.70917 0.0
C831 C 0.50572 0.94258 0.69437 0.0
H832 H 0.18662 0.02948 0.44166 0.0
H833 H 0.23887 0.99536 0.40786 0.0
H834 H 0.2136 0.04893 0.46382 0.0
H835 H 0.26588 0.01422 0.43059 0.0
H836 H 0.30483 0.07643 0.44857 0.0
H837 H 0.27961 0.0507 0.43164 0.0
H838 H 0.24152 0.04834 0.49154 0.0
H839 H 0.26655 0.07484 0.50836 0.0
C840 C 0.20385 0.02577 0.43929 0.0
C841 C 0.21062 0.01112 0.42278 0.0
C842 C 0.21936 0.03684 0.45212 0.0
C843 C 0.24197 0.03336 0.44884 0.0
C844 C 0.24863 0.01768 0.43322 0.0
C845 C 0.23314 0.00677 0.42025 0.0
C846 C 0.29122 0.07029 0.45827 0.0
C847 C 0.2876 0.07788 0.47977 0.0
C848 C 0.27681 0.05534 0.44858 0.0
C849 C 0.25846 0.04743 0.46018 0.0
C850 C 0.2553 0.05434 0.48202 0.0
C851 C 0.26972 0.06944 0.49171 0.0
H852 H 0.96617 0.29439 0.47173 0.0
H853 H 0.91157 0.24982 0.48056 0.0
H854 H 0.98554 0.2664 0.45062 0.0
H855 H 0.93069 0.2221 0.45907 0.0
H856 H 0.97423 0.17155 0.42708 0.0
H857 H 0.96149 0.19705 0.45534 0.0
H858 H 0.97987 0.25179 0.41407 0.0
H859 H 0.99294 0.22646 0.38615 0.0
C860 C 0.95842 0.27853 0.46946 0.0
C861 C 0.93719 0.27447 0.4776 0.0
C862 C 0.96947 0.26253 0.45723 0.0
C863 C 0.95954 0.24211 0.45286 0.0
C864 C 0.93891 0.23757 0.46221 0.0
C865 C 0.92787 0.25355 0.47446 0.0
C866 C 0.9758 0.18903 0.42417 0.0
C867 C 0.98445 0.19695 0.40427 0.0
C868 C 0.96842 0.20364 0.44034 0.0
C869 C 0.96959 0.22647 0.43697 0.0
C870 C 0.97898 0.23434 0.41738 0.0
C871 C 0.98632 0.21977 0.40125 0.0
H872 H 0.74443 0.92985 0.51969 0.0
H873 H 0.70637 0.92634 0.45989 0.0
H874 H 0.76861 0.9571 0.50257 0.0
H875 H 0.73054 0.95285 0.44281 0.0
H876 H 0.76973 0.00513 0.41511 0.0
H877 H 0.74356 0.98986 0.4413 0.0
H878 H 0.79642 0.95582 0.47415 0.0
H879 H 0.82261 0.9717 0.44852 0.0
C880 C 0.74108 0.93504 0.50301 0.0
C881 C 0.72362 0.92574 0.49108 0.0
C882 C 0.75496 0.95059 0.49319 0.0
C883 C 0.75154 0.95721 0.47131 0.0
C884 C 0.7335 0.94852 0.4598 0.0
C885 C 0.71974 0.93304 0.46955 0.0
C886 C 0.77583 0.99491 0.42833 0.0
C887 C 0.79817 0.98924 0.42945 0.0
C888 C 0.76082 0.98604 0.44326 0.0
C889 C 0.7678 0.97111 0.45945 0.0
C890 C 0.79043 0.96724 0.46191 0.0
C891 C 0.80549 0.97631 0.44711 0.0
H892 H 0.01836 0.79696 0.46821 0.0
H893 H 0.00671 0.74858 0.41754 0.0
H894 H 0.03576 0.76889 0.49089 0.0
H895 H 0.02444 0.72076 0.43995 0.0
H896 H 0.05069 0.67156 0.4876 0.0
H897 H 0.02466 0.69849 0.47325 0.0
H898 H 0.07101 0.7505 0.48705 0.0
H899 H 0.09671 0.72381 0.50169 0.0
C900 C 0.0192 0.7803 0.46204 0.0
C901 C 0.01147 0.77509 0.44093 0.0
C902 C 0.02925 0.76424 0.475 0.0
C903 C 0.03173 0.74266 0.46711 0.0
C904 C 0.02267 0.73716 0.44661 0.0
C905 C 0.01264 0.75319 0.43367 0.0
C906 C 0.05515 0.68878 0.48789 0.0
C907 C 0.07588 0.69551 0.49553 0.0
C908 C 0.04027 0.70419 0.4796 0.0
C909 C 0.04581 0.72662 0.47888 0.0
C910 C 0.06609 0.7334 0.48758 0.0
C911 C 0.08094 0.71804 0.4958 0.0
H912 H 0.17699 0.95092 0.56009 0.0
H913 H 0.22964 0.97536 0.60097 0.0
H914 H 0.20393 0.9346 0.53528 0.0
H915 H 0.25643 0.9586 0.5766 0.0
H916 H 0.30164 0.93627 0.52254 0.0
H917 H 0.27361 0.95829 0.54097 0.0
H918 H 0.22835 0.90367 0.5372 0.0
H919 H 0.25602 0.88199 0.51839 0.0
C920 C 0.19429 0.95298 0.56369 0.0
C921 C 0.20112 0.96427 0.58264 0.0
C922 C 0.20974 0.94352 0.54954 0.0
C923 C 0.23237 0.94509 0.55403 0.0
C924 C 0.23918 0.95723 0.57246 0.0
C925 C 0.22376 0.96673 0.58655 0.0
C926 C 0.28562 0.92907 0.52543 0.0
C927 C 0.28115 0.90731 0.51913 0.0
C928 C 0.26958 0.94165 0.53608 0.0
C929 C 0.24872 0.93274 0.54067 0.0
C930 C 0.24409 0.91122 0.53369 0.0
C931 C 0.26007 0.89868 0.52303 0.0
H932 H 0.0188 0.18107 0.54483 0.0
H933 H 0.01088 0.23325 0.59232 0.0
H934 H 0.03739 0.20655 0.52003 0.0
H935 H 0.02976 0.25847 0.56784 0.0
H936 H 0.05843 0.30353 0.51936 0.0
H937 H 0.03046 0.27857 0.53354 0.0
H938 H 0.07345 0.2235 0.52117 0.0
H939 H 0.10112 0.24829 0.50657 0.0
C940 C 0.02074 0.19803 0.54987 0.0
C941 C 0.01362 0.20505 0.57069 0.0
C942 C 0.03146 0.2126 0.53567 0.0
C943 C 0.03523 0.23451 0.54199 0.0
C944 C 0.02694 0.24179 0.56229 0.0
C945 C 0.01626 0.22725 0.57646 0.0
C946 C 0.06169 0.28605 0.51912 0.0
C947 C 0.08219 0.27796 0.51222 0.0
C948 C 0.0457 0.27175 0.52739 0.0
C949 C 0.04987 0.24908 0.5289 0.0
C950 C 0.06961 0.24084 0.5202 0.0
C951 C 0.08558 0.25511 0.51192 0.0
H952 H 0.80254 0.03983 0.55226 0.0
H953 H 0.74437 0.01981 0.58775 0.0
H954 H 0.77993 0.06129 0.52726 0.0
H955 H 0.72169 0.04078 0.56235 0.0
H956 H 0.6973 0.1086 0.53947 0.0
H957 H 0.71684 0.07981 0.5587 0.0
H958 H 0.75166 0.0633 0.49905 0.0
H959 H 0.73227 0.09271 0.47973 0.0
C960 C 0.78488 0.03956 0.5544 0.0
C961 C 0.77528 0.02846 0.57224 0.0
C962 C 0.77189 0.05178 0.53998 0.0
C963 C 0.74903 0.05305 0.54303 0.0
C964 C 0.73931 0.04055 0.55986 0.0
C965 C 0.7523 0.02845 0.57436 0.0
C966 C 0.70898 0.09877 0.53033 0.0
C967 C 0.71336 0.1031 0.50809 0.0
C968 C 0.72005 0.08206 0.54134 0.0
C969 C 0.73578 0.06918 0.53041 0.0
C970 C 0.73976 0.07307 0.50798 0.0
C971 C 0.72861 0.08985 0.4969 0.0
H972 H 0.89263 0.69889 0.55474 0.0
H973 H 0.89996 0.73274 0.4928 0.0
H974 H 0.91898 0.72374 0.57147 0.0
H975 H 0.9269 0.75737 0.50946 0.0
H976 H 0.94398 0.81489 0.55748 0.0
H977 H 0.92564 0.78718 0.53532 0.0
H978 H 0.95631 0.73603 0.57372 0.0
H979 H 0.9742 0.76383 0.59635 0.0
C980 C 0.90015 0.71141 0.54457 0.0
C981 C 0.89397 0.71395 0.52248 0.0
C982 C 0.91545 0.72559 0.55414 0.0
C983 C 0.92507 0.74266 0.54186 0.0
C984 C 0.91959 0.74461 0.51949 0.0
C985 C 0.90421 0.73043 0.50991 0.0
C986 C 0.94719 0.79774 0.56095 0.0
C987 C 0.96028 0.7916 0.57894 0.0
C988 C 0.93672 0.78179 0.54814 0.0
C989 C 0.93919 0.75932 0.55294 0.0
C990 C 0.95363 0.75319 0.56989 0.0
C991 C 0.96402 0.76914 0.58277 0.0
H992 H 0.48606 0.31438 0.01978 0.0
H993 H 0.50935 0.26439 0.06442 0.0
H994 H 0.46977 0.286 0.99663 0.0
H995 H 0.49299 0.23612 0.04136 0.0
H996 H 0.4644 0.18768 0.99409 0.0
H997 H 0.48998 0.21633 0.00612 0.0
H998 H 0.43725 0.26374 0.00483 0.0
H999 H 0.41194 0.23546 0.9927 0.0
C1000 C 0.48812 0.29733 0.02442 0.0
C1001 C 0.49854 0.29164 0.0442 0.0
C1002 C 0.4787 0.28109 0.0112 0.0
C1003 C 0.47976 0.25887 0.01738 0.0
C1004 C 0.49194 0.25308 0.03609 0.0
C1005 C 0.50117 0.26931 0.04942 0.0
C1006 C 0.4584 0.20431 0.99606 0.0
C1007 C 0.43607 0.20923 0.9928 0.0
C1008 C 0.47304 0.22068 0.00294 0.0
C1009 C 0.46563 0.24226 0.00648 0.0
C1010 C 0.44358 0.24736 0.002 0.0
C1011 C 0.42898 0.23104 0.99529 0.0
H1012 H 0.43508 0.81199 0.96868 0.0
H1013 H 0.3856 0.76211 0.97908 0.0
H1014 H 0.46043 0.784 0.95537 0.0
H1015 H 0.41064 0.73432 0.9652 0.0
H1016 H 0.48057 0.7365 0.89939 0.0
H1017 H 0.46175 0.76363 0.92169 0.0
H1018 H 0.44386 0.71316 0.96831 0.0
H1019 H 0.46232 0.68574 0.94555 0.0
C1020 C 0.42971 0.79503 0.96846 0.0
C1021 C 0.40819 0.78936 0.97463 0.0
C1022 C 0.4442 0.77899 0.96068 0.0
C1023 C 0.43747 0.75694 0.95882 0.0
C1024 C 0.41647 0.75108 0.96649 0.0
C1025 C 0.40203 0.76709 0.97436 0.0
C1026 C 0.47285 0.73116 0.91452 0.0
C1027 C 0.47274 0.70887 0.92053 0.0
C1028 C 0.4622 0.74681 0.92746 0.0
C1029 C 0.4512 0.74062 0.94681 0.0
C1030 C 0.45191 0.71846 0.95335 0.0
C1031 C 0.46257 0.70275 0.94035 0.0
H1032 H 0.3138 0.47241 0.94044 0.0
H1033 H 0.26083 0.48734 0.89566 0.0
H1034 H 0.28786 0.45407 0.96488 0.0
H1035 H 0.23511 0.46856 0.9197 0.0
H1036 H 0.19028 0.43826 0.96892 0.0
H1037 H 0.21578 0.46549 0.95413 0.0
H1038 H 0.26917 0.41935 0.96153 0.0
H1039 H 0.24392 0.39248 0.97672 0.0
C1040 C 0.29658 0.47214 0.93598 0.0
C1041 C 0.28947 0.48103 0.91591 0.0
C1042 C 0.28173 0.46149 0.94993 0.0
C1043 C 0.25945 0.4595 0.94409 0.0
C1044 C 0.2521 0.46987 0.92482 0.0
C1045 C 0.26692 0.48055 0.91092 0.0
C1046 C 0.20753 0.43409 0.96775 0.0
C1047 C 0.215 0.41308 0.97374 0.0
C1048 C 0.22213 0.44967 0.95918 0.0
C1049 C 0.24451 0.44458 0.95645 0.0
C1050 C 0.25212 0.42399 0.96361 0.0
C1051 C 0.23756 0.40845 0.97217 0.0
H1052 H 0.55174 0.17926 0.98939 0.0
H1053 H 0.59441 0.23479 0.0012 0.0
H1054 H 0.52201 0.20426 0.97958 0.0
H1055 H 0.56509 0.2596 0.99092 0.0
H1056 H 0.51278 0.30324 0.97045 0.0
H1057 H 0.52982 0.27639 0.99479 0.0
H1058 H 0.51768 0.22545 0.94683 0.0
H1059 H 0.50029 0.25205 0.92288 0.0
C1060 C 0.55466 0.19679 0.99036 0.0
C1061 C 0.57561 0.20502 0.99557 0.0
C1062 C 0.53763 0.21112 0.98466 0.0
C1063 C 0.54122 0.23395 0.98406 0.0
C1064 C 0.56158 0.24216 0.99129 0.0
C1065 C 0.57855 0.22787 0.99699 0.0
C1066 C 0.51325 0.2862 0.96536 0.0
C1067 C 0.50574 0.27988 0.94445 0.0
C1068 C 0.52311 0.27082 0.97928 0.0
C1069 C 0.52562 0.24885 0.97258 0.0
C1070 C 0.51603 0.24218 0.95264 0.0
C1071 C 0.50621 0.25753 0.93874 0.0
H1072 H 0.68862 0.52694 0.96805 0.0
H1073 H 0.73802 0.51432 0.91863 0.0
H1074 H 0.71491 0.54919 0.98857 0.0
H1075 H 0.76402 0.53691 0.93879 0.0
H1076 H 0.81082 0.57275 0.98166 0.0
H1077 H 0.78623 0.54289 0.97107 0.0
H1078 H 0.73031 0.58516 0.9821 0.0
H1079 H 0.75476 0.61472 0.99315 0.0
C1080 C 0.70516 0.52864 0.9617 0.0
C1081 C 0.71111 0.51909 0.94153 0.0
C1082 C 0.7202 0.5415 0.97342 0.0
C1083 C 0.74151 0.54509 0.96522 0.0
C1084 C 0.74784 0.53438 0.94574 0.0
C1085 C 0.73284 0.52151 0.93406 0.0
C1086 C 0.79325 0.57552 0.98227 0.0
C1087 C 0.78478 0.59624 0.98796 0.0
C1088 C 0.77917 0.55843 0.97607 0.0
C1089 C 0.7563 0.56169 0.97544 0.0
C1090 C 0.7478 0.58196 0.98255 0.0
C1091 C 0.76187 0.59902 0.98876 0.0
H1092 H 0.54018 0.70303 0.09956 0.0
H1093 H 0.47588 0.73184 0.0911 0.0
H1094 H 0.55489 0.72739 0.07162 0.0
H1095 H 0.49057 0.75598 0.0626 0.0
H1096 H 0.53361 0.81459 0.03834 0.0
H1097 H 0.51464 0.7875 0.06083 0.0
H1098 H 0.55511 0.73618 0.03315 0.0
H1099 H 0.57451 0.76338 0.01107 0.0
C1100 C 0.52909 0.71437 0.09153 0.0
C1101 C 0.50687 0.71558 0.09771 0.0
C1102 C 0.53751 0.72825 0.07533 0.0
C1103 C 0.52392 0.74367 0.06482 0.0
C1104 C 0.50154 0.74447 0.07056 0.0
C1105 C 0.49311 0.73057 0.08682 0.0
C1106 C 0.53825 0.79748 0.03678 0.0
C1107 C 0.55577 0.7912 0.02311 0.0
C1108 C 0.52728 0.78191 0.04963 0.0
C1109 C 0.53352 0.75968 0.04901 0.0
C1110 C 0.5502 0.75323 0.03437 0.0
C1111 C 0.56123 0.76882 0.0216 0.0
H1112 H 0.22987 0.59975 0.00953 0.0
H1113 H 0.17931 0.55183 0.02347 0.0
H1114 H 0.25744 0.57508 0.02446 0.0
H1115 H 0.20708 0.5269 0.0381 0.0
H1116 H 0.2577 0.50847 0.09257 0.0
H1117 H 0.22954 0.52709 0.0713 0.0
H1118 H 0.27684 0.54029 0.02004 0.0
H1119 H 0.30526 0.52196 0.04155 0.0
C1120 C 0.22466 0.58381 0.01548 0.0
C1121 C 0.20234 0.57787 0.01555 0.0
C1122 C 0.24052 0.56957 0.02388 0.0
C1123 C 0.23445 0.54906 0.03257 0.0
C1124 C 0.21224 0.54272 0.03178 0.0
C1125 C 0.19634 0.55697 0.02332 0.0
C1126 C 0.26208 0.51509 0.07664 0.0
C1127 C 0.2838 0.51398 0.06888 0.0
C1128 C 0.24586 0.52563 0.06436 0.0
C1129 C 0.25098 0.53531 0.04404 0.0
C1130 C 0.27247 0.53327 0.03579 0.0
C1131 C 0.28871 0.52268 0.04807 0.0
H1132 H 0.74821 0.49773 0.10169 0.0
H1133 H 0.69541 0.48832 0.0552 0.0
H1134 H 0.77396 0.48193 0.07569 0.0
H1135 H 0.72141 0.47301 0.02883 0.0
H1136 H 0.76443 0.41122 0.01286 0.0
H1137 H 0.73932 0.43791 0.02851 0.0
H1138 H 0.79375 0.48163 0.0416 0.0
H1139 H 0.81905 0.45453 0.02641 0.0
C1140 C 0.74218 0.4929 0.08566 0.0
C1141 C 0.71965 0.49387 0.08073 0.0
C1142 C 0.75703 0.48393 0.07063 0.0
C1143 C 0.74972 0.47582 0.05025 0.0
C1144 C 0.72751 0.47865 0.04456 0.0
C1145 C 0.71262 0.48756 0.05965 0.0
C1146 C 0.77104 0.4267 0.01863 0.0
C1147 C 0.79382 0.43052 0.01878 0.0
C1148 C 0.75657 0.44215 0.02749 0.0
C1149 C 0.76452 0.46185 0.03664 0.0
C1150 C 0.78712 0.46645 0.0351 0.0
C1151 C 0.80162 0.45094 0.02627 0.0
H1152 H -0.00149 0.23648 0.30909 0.0
H1153 H 0.01522 0.19777 0.25191 0.0
H1154 H 0.99514 0.26918 0.28566 0.0
H1155 H 0.01196 0.23005 0.22895 0.0
H1156 H 0.97817 0.28194 0.19027 0.0
H1157 H 0.97993 0.25274 0.21734 0.0
H1158 H 0.0184 0.29428 0.26007 0.0
H1159 H 0.01652 0.32394 0.23284 0.0
C1160 C 0.00161 0.23496 0.29164 0.0
C1161 C 0.0069 0.21444 0.28237 0.0
C1162 C -0.00027 0.25366 0.27827 0.0
C1163 C 0.00293 0.25205 0.25545 0.0
C1164 C 0.00891 0.23171 0.24641 0.0
C1165 C 0.01088 0.21319 0.25965 0.0
C1166 C 0.98686 0.28503 0.20549 0.0
C1167 C 0.99749 0.30519 0.20923 0.0
C1168 C 0.98791 0.26824 0.22098 0.0
C1169 C -0.00037 0.2711 0.24063 0.0
C1170 C 0.00926 0.29164 0.24503 0.0
C1171 C 0.00823 0.30856 0.22943 0.0
H1172 H 0.76173 0.00951 0.32179 0.0
H1173 H 0.78293 0.94869 0.29212 0.0
H1174 H 0.73233 0.01251 0.29422 0.0
H1175 H 0.75355 0.95132 0.26527 0.0
H1176 H 0.73062 0.98284 0.20238 0.0
H1177 H 0.75294 0.97856 0.23484 0.0
H1178 H 0.69745 0.99508 0.27584 0.0
H1179 H 0.67463 -0.00036 0.24278 0.0
C1180 C 0.75967 0.9965 0.30983 0.0
C1181 C 0.7748 0.9791 0.30874 0.0
C1182 C 0.74288 -0.00181 0.29411 0.0
C1183 C 0.74102 0.98239 0.27733 0.0
C1184 C 0.75493 0.96401 0.27768 0.0
C1185 C 0.77172 0.96248 0.29308 0.0
C1186 C 0.72298 0.98558 0.21822 0.0
C1187 C 0.70072 0.99139 0.21993 0.0
C1188 C 0.73582 0.98298 0.23689 0.0
C1189 C 0.72683 0.98607 0.2579 0.0
C1190 C 0.70473 0.99249 0.25981 0.0
C1191 C 0.69171 0.99504 0.24093 0.0
H1192 H 0.97994 0.68595 0.24316 0.0
H1193 H 0.99664 0.74572 0.20856 0.0
H1194 H 0.97584 0.70718 0.27729 0.0
H1195 H 0.99281 0.76645 0.24218 0.0
H1196 H 0.96329 0.80289 0.297 0.0
H1197 H 0.96236 0.77753 0.26621 0.0
H1198 H -0.00098 0.73 0.3039 0.0
H1199 H -0.0004 0.7554 0.33518 0.0
C1200 C 0.98276 0.70352 0.24281 0.0
C1201 C 0.98847 0.71413 0.22308 0.0
C1202 C 0.98047 0.71563 0.26233 0.0
C1203 C 0.98367 0.73852 0.26231 0.0
C1204 C 0.98971 0.74893 0.24265 0.0
C1205 C 0.99207 0.73694 0.22335 0.0
C1206 C 0.97091 0.78693 0.2989 0.0
C1207 C 0.98186 0.78131 0.31839 0.0
C1208 C 0.97042 0.77241 0.28122 0.0
C1209 C 0.98102 0.75196 0.28249 0.0
C1210 C 0.99072 0.74566 0.30246 0.0
C1211 C 0.9911 0.76022 0.32032 0.0
H1212 H 0.23884 0.99414 0.32276 0.0
H1213 H 0.19133 0.97566 0.27332 0.0
H1214 H 0.26648 -0.00031 0.29386 0.0
H1215 H 0.21871 0.9809 0.24493 0.0
H1216 H 0.26004 0.01887 0.19821 0.0
H1217 H 0.23643 0.01404 0.22989 0.0
H1218 H 0.28832 0.97958 0.26371 0.0
H1219 H 0.31244 0.98472 0.23171 0.0
C1220 C 0.23435 0.99108 0.30583 0.0
C1221 C 0.21278 0.98475 0.30035 0.0
C1222 C 0.25018 0.99419 0.28932 0.0
C1223 C 0.24463 0.99109 0.26711 0.0
C1224 C 0.22335 0.98393 0.26184 0.0
C1225 C 0.20765 0.98084 0.27818 0.0
C1226 C 0.26658 0.01036 0.2124 0.0
C1227 C 0.28804 0.00188 0.21228 0.0
C1228 C 0.25298 0.00754 0.23056 0.0
C1229 C 0.26036 0.99604 0.24911 0.0
C1230 C 0.2822 0.98848 0.24959 0.0
C1231 C 0.29595 0.99138 0.23128 0.0
H1232 H 0.98288 0.67219 0.75391 0.0
H1233 H -0.00086 0.72401 0.79969 0.0
H1234 H 0.97673 0.69979 0.72516 0.0
H1235 H 0.99346 0.75114 0.77119 0.0
H1236 H 0.95516 0.79528 0.72784 0.0
H1237 H 0.96061 0.76478 0.75278 0.0
H1238 H 0.99544 0.72925 0.70219 0.0
H1239 H 0.98953 0.75998 0.67671 0.0
C1240 C 0.98536 0.68938 0.75777 0.0
C1241 C 0.99117 0.69593 0.77917 0.0
C1242 C 0.9819 0.70514 0.74132 0.0
C1243 C 0.98421 0.72764 0.74605 0.0
C1244 C 0.99097 0.73398 0.76717 0.0
C1245 C 0.99433 0.71837 0.78351 0.0
C1246 C 0.96387 0.78095 0.72189 0.0
C1247 C 0.97222 0.78019 0.70039 0.0
C1248 C 0.96707 0.76348 0.73625 0.0
C1249 C 0.97889 0.74482 0.72961 0.0
C1250 C 0.98631 0.74346 0.70776 0.0
C1251 C 0.98297 0.76104 0.69322 0.0
H1252 H 0.20386 0.97995 0.73077 0.0
H1253 H 0.24017 -0.00015 0.67314 0.0
H1254 H 0.23719 0.9813 0.75242 0.0
H1255 H 0.27385 0.00205 0.69526 0.0
H1256 H 0.33284 0.9856 0.74282 0.0
H1257 H 0.30166 0.98211 0.71738 0.0
H1258 H 0.25894 0.01058 0.76642 0.0
H1259 H 0.28945 0.01332 0.79166 0.0
C1260 C 0.21902 0.98469 0.72272 0.0
C1261 C 0.21932 0.99013 0.70032 0.0
C1262 C 0.23816 0.98558 0.73518 0.0
C1263 C 0.25813 0.99233 0.72572 0.0
C1264 C 0.25873 0.99683 0.70304 0.0
C1265 C 0.23946 0.99564 0.69041 0.0
C1266 C 0.31676 0.99115 0.74801 0.0
C1267 C 0.31352 -0.00064 0.76937 0.0
C1268 C 0.29894 0.98922 0.73346 0.0
C1269 C 0.27769 0.99561 0.74004 0.0
C1270 C 0.27488 0.0048 0.76102 0.0
C1271 C 0.29246 0.00649 0.7755 0.0
H1272 H 0.0015 0.23403 0.67219 0.0
H1273 H 0.99068 0.18609 0.72343 0.0
H1274 H 0.00317 0.26315 0.70001 0.0
H1275 H 0.99179 0.2149 0.75078 0.0
H1276 H 0.01852 0.26435 0.79709 0.0
H1277 H 0.01888 0.2384 0.76695 0.0
H1278 H 0.9806 0.28325 0.72756 0.0
H1279 H 0.98076 0.30984 0.7579 0.0
C1280 C -0.00056 0.2297 0.68932 0.0
C1281 C 0.99618 0.20768 0.69557 0.0
C1282 C 0.00026 0.24639 0.70522 0.0
C1283 C -0.00213 0.24133 0.72765 0.0
C1284 C 0.99423 0.21936 0.73373 0.0
C1285 C 0.99348 0.20279 0.71797 0.0
C1286 C 0.01021 0.26881 0.78201 0.0
C1287 C -0.00068 0.28906 0.78003 0.0
C1288 C 0.01036 0.25385 0.76472 0.0
C1289 C -0.0006 0.25853 0.74497 0.0
C1290 C 0.98921 0.27915 0.74256 0.0
C1291 C 0.98922 0.29433 0.75994 0.0
H1292 H 0.78133 0.98775 0.72261 0.0
H1293 H 0.73856 0.01555 0.67332 0.0
H1294 H 0.75141 0.98801 0.74889 0.0
H1295 H 0.70846 0.01632 0.70008 0.0
H1296 H 0.70461 0.01586 0.7981 0.0
H1297 H 0.73212 0.0156 0.7693 0.0
H1298 H 0.68335 0.99371 0.72262 0.0
H1299 H 0.6554 0.9945 0.75162 0.0
C1300 C 0.76552 0.99396 0.71736 0.0
C1301 C 0.76243 0.00184 0.69589 0.0
C1302 C 0.74835 0.99423 0.73252 0.0
C1303 C 0.72762 0.00256 0.72674 0.0
C1304 C 0.72422 0.00976 0.70504 0.0
C1305 C 0.74148 0.00938 0.68974 0.0
C1306 C 0.69964 0.01106 0.78171 0.0
C1307 C 0.67781 0.00499 0.77724 0.0
C1308 C 0.71549 0.01078 0.76518 0.0
C1309 C 0.71006 0.00425 0.74371 0.0
C1310 C 0.68807 -0.00114 0.73898 0.0
C1311 C 0.67208 -0.00075 0.7556 0.0
H1312 H 0.25025 0.31456 0.97674 0.0
H1313 H 0.20763 0.25841 0.98571 0.0
H1314 H 0.28165 0.28966 0.97193 0.0
H1315 H 0.23859 0.234 0.9813 0.0
H1316 H 0.33286 0.23361 0.99092 0.0
H1317 H 0.30451 0.26212 0.99254 0.0
H1318 H 0.26241 0.22226 0.95162 0.0
H1319 H 0.29028 0.19376 0.95044 0.0
C1320 C 0.24758 0.297 0.97777 0.0
C1321 C 0.22638 0.28851 0.98142 0.0
C1322 C 0.26554 0.28277 0.97506 0.0
C1323 C 0.26254 0.25984 0.97587 0.0
C1324 C 0.24142 0.25153 0.98 0.0
C1325 C 0.22363 0.26561 0.98269 0.0
C1326 C 0.31766 0.23112 0.98203 0.0
C1327 C 0.31366 0.21127 0.97086 0.0
C1328 C 0.30146 0.24748 0.98291 0.0
C1329 C 0.28105 0.24426 0.97256 0.0
C1330 C 0.27773 0.22501 0.96024 0.0
C1331 C 0.29376 0.20869 0.95949 0.0
H1332 H 0.18149 0.72822 0.98242 0.0
H1333 H 0.22942 0.67599 0.98558 0.0
H1334 H 0.21062 0.75483 0.97753 0.0
H1335 H 0.25888 0.70287 0.9799 0.0
H1336 H 0.30489 0.76346 0.99357 0.0
H1337 H 0.27806 0.73361 0.99718 0.0
H1338 H 0.23595 0.76612 0.95023 0.0
H1339 H 0.26213 0.79604 0.94736 0.0
C1340 C 0.19828 0.72236 0.98185 0.0
C1341 C 0.20309 0.69992 0.98424 0.0
C1342 C 0.21503 0.73766 0.97889 0.0
C1343 C 0.23712 0.73099 0.97797 0.0
C1344 C 0.24205 0.70856 0.98061 0.0
C1345 C 0.22518 0.69316 0.98376 0.0
C1346 C 0.28996 0.76404 0.98391 0.0
C1347 C 0.28542 0.78224 0.97048 0.0
C1348 C 0.27464 0.74693 0.98591 0.0
C1349 C 0.25464 0.74767 0.97431 0.0
C1350 C 0.25084 0.76531 0.95992 0.0
C1351 C 0.26592 0.78244 0.95818 0.0
H1352 H 0.79421 0.2778 0.03097 0.0
H1353 H 0.7577 0.33055 0.00057 0.0
H1354 H 0.7649 0.25229 0.02218 0.0
H1355 H 0.72796 0.30453 0.99183 0.0
H1356 H 0.67458 0.24481 0.00323 0.0
H1357 H 0.69952 0.27541 0.01203 0.0
H1358 H 0.75333 0.23978 0.98276 0.0
H1359 H 0.72887 0.2096 0.97392 0.0
C1360 C 0.77982 0.28406 0.0226 0.0
C1361 C 0.7785 0.3062 0.01617 0.0
C1362 C 0.76303 0.26938 0.01756 0.0
C1363 C 0.74438 0.27639 0.00603 0.0
C1364 C 0.74225 0.29876 0.0007 0.0
C1365 C 0.75925 0.31358 0.00568 0.0
C1366 C 0.69166 0.24371 -0.00161 0.0
C1367 C 0.69978 0.2246 0.98816 0.0
C1368 C 0.70588 0.26122 0.00339 0.0
C1369 C 0.72836 0.25973 -0.00164 0.0
C1370 C 0.73612 0.24117 0.98713 0.0
C1371 C 0.72205 0.22388 0.98206 0.0
H1372 H 0.78042 0.74769 0.96543 0.0
H1373 H 0.74613 0.6964 0.00061 0.0
H1374 H 0.74877 0.77147 0.969 0.0
H1375 H 0.71423 0.72072 0.00465 0.0
H1376 H 0.65492 0.76751 0.98691 0.0
H1377 H 0.68462 0.74044 0.98421 0.0
H1378 H 0.73196 0.79128 -0.00111 0.0
H1379 H 0.70268 0.81815 0.00103 0.0
C1380 C 0.76611 0.74147 0.974 0.0
C1381 C 0.76592 0.72021 0.98297 0.0
C1382 C 0.74796 0.75519 0.97615 0.0
C1383 C 0.72913 0.74817 0.9875 0.0
C1384 C 0.72852 0.72661 0.99582 0.0
C1385 C 0.74678 0.71272 0.99356 0.0
C1386 C 0.67168 0.7728 0.9897 0.0
C1387 C 0.67647 0.79504 0.99385 0.0
C1388 C 0.68866 0.7573 0.98823 0.0
C1389 C 0.71068 0.76379 0.99095 0.0
C1390 C 0.71524 0.78583 0.99612 0.0
C1391 C 0.6984 0.80124 0.99745 0.0
H1392 H 0.4872 0.73795 0.82078 0.0
H1393 H 0.5327 0.70238 0.77954 0.0
H1394 H 0.48551 0.76739 0.79315 0.0
H1395 H 0.5314 0.7316 0.75257 0.0
H1396 H 0.50609 0.82235 0.74074 0.0
H1397 H 0.50738 0.79692 0.77213 0.0
H1398 H 0.50171 0.74203 0.72752 0.0
H1399 H 0.50082 0.76696 0.69661 0.0
C1400 C 0.49709 0.7366 0.80605 0.0
C1401 C 0.50974 0.71767 0.80211 0.0
C1402 C 0.49616 0.75344 0.79029 0.0
C1403 C 0.50793 0.75154 0.77048 0.0
C1404 C 0.52164 0.73326 0.76737 0.0
C1405 C 0.52244 0.71652 0.78288 0.0
C1406 C 0.50495 0.80484 0.73776 0.0
C1407 C 0.50374 0.79666 0.71617 0.0
C1408 C 0.50565 0.79033 0.75569 0.0
C1409 C 0.50513 0.76748 0.75223 0.0
C1410 C 0.50278 0.75951 0.73071 0.0
C1411 C 0.50218 0.77386 0.71296 0.0
H1412 H 0.25389 0.48284 0.82176 0.0
H1413 H 0.29387 0.48512 0.76309 0.0
H1414 H 0.2211 0.47727 0.79899 0.0
H1415 H 0.26148 0.48009 0.74067 0.0
H1416 H 0.16758 0.49382 0.74476 0.0
H1417 H 0.19748 0.49605 0.7716 0.0
H1418 H 0.23586 0.45121 0.73219 0.0
H1419 H 0.20648 0.44956 0.70525 0.0
C1420 C 0.25568 0.48227 0.80407 0.0
C1421 C 0.27654 0.48424 0.79427 0.0
C1422 C 0.23692 0.47912 0.79105 0.0
C1423 C 0.23872 0.47786 0.76804 0.0
C1424 C 0.25953 0.48036 0.75836 0.0
C1425 C 0.27815 0.48342 0.77126 0.0
C1426 C 0.18228 0.48417 0.74209 0.0
C1427 C 0.18486 0.47181 0.72274 0.0
C1428 C 0.19938 0.48541 0.75747 0.0
C1429 C 0.21923 0.47418 0.75378 0.0
C1430 C 0.22104 0.46057 0.73521 0.0
C1431 C 0.20414 0.45951 0.71982 0.0
H1432 H 0.51289 0.25498 0.8347 0.0
H1433 H 0.47474 0.30146 0.79724 0.0
H1434 H 0.5104 0.22857 0.80428 0.0
H1435 H 0.47128 0.27508 0.76764 0.0
H1436 H 0.4929 0.23931 0.70795 0.0
H1437 H 0.49513 0.26199 0.74042 0.0
H1438 H 0.48795 0.20446 0.78141 0.0
H1439 H 0.48664 0.18132 0.74834 0.0
C1440 C 0.50367 0.25937 0.82014 0.0
C1441 C 0.49436 0.28039 0.81812 0.0
C1442 C 0.50217 0.24425 0.80276 0.0
C1443 C 0.49107 0.24986 0.78325 0.0
C1444 C 0.48063 0.27042 0.78203 0.0
C1445 C 0.48248 0.28555 0.79908 0.0
C1446 C 0.49176 0.23139 0.72385 0.0
C1447 C 0.48929 0.20852 0.72555 0.0
C1448 C 0.4929 0.24447 0.74256 0.0
C1449 C 0.49118 0.23518 0.76363 0.0
C1450 C 0.48931 0.21217 0.76545 0.0
C1451 C 0.48848 0.19893 0.74654 0.0
H1452 H 0.80507 0.47271 0.75095 0.0
H1453 H 0.74684 0.47242 0.71041 0.0
H1454 H 0.78196 0.47428 0.78388 0.0
H1455 H 0.72402 0.47477 0.74287 0.0
H1456 H 0.68637 0.45688 0.8024 0.0
H1457 H 0.71227 0.45273 0.77241 0.0
H1458 H 0.75708 0.49738 0.80473 0.0
H1459 H 0.73125 0.50081 0.83544 0.0
C1460 C 0.78738 0.47309 0.74905 0.0
C1461 C 0.77781 0.47222 0.72805 0.0
C1462 C 0.77414 0.47409 0.76791 0.0
C1463 C 0.75108 0.47437 0.7661 0.0
C1464 C 0.74166 0.47396 0.74502 0.0
C1465 C 0.7548 0.47276 0.72631 0.0
C1466 C 0.70182 0.4657 0.80323 0.0
C1467 C 0.70665 0.47938 0.82117 0.0
C1468 C 0.71665 0.46343 0.78593 0.0
C1469 C 0.73661 0.47509 0.78586 0.0
C1470 C 0.7419 0.48811 0.80425 0.0
C1471 C 0.72709 0.49014 0.82181 0.0
H1472 H 0.53754 0.24476 0.27434 0.0
H1473 H 0.49935 0.19739 0.23784 0.0
H1474 H 0.53885 0.26859 0.2425 0.0
H1475 H 0.49976 0.22193 0.20586 0.0
H1476 H 0.51879 0.26761 0.14765 0.0
H1477 H 0.52104 0.24013 0.17701 0.0
H1478 H 0.51286 0.29156 0.2253 0.0
H1479 H 0.51144 0.3187 0.19642 0.0
C1480 C 0.52934 0.23948 0.25945 0.0
C1481 C 0.51803 0.2194 0.25866 0.0
C1482 C 0.52999 0.2532 0.2412 0.0
C1483 C 0.51896 0.24745 0.22176 0.0
C1484 C 0.50845 0.22685 0.22057 0.0
C1485 C 0.50812 0.21285 0.23888 0.0
C1486 C 0.51761 0.27296 0.16457 0.0
C1487 C 0.51519 0.29537 0.1697 0.0
C1488 C 0.51877 0.25723 0.18137 0.0
C1489 C 0.51744 0.26365 0.20354 0.0
C1490 C 0.51459 0.28603 0.20848 0.0
C1491 C 0.51364 0.30164 0.19184 0.0
H1492 H 0.83088 0.50877 0.26602 0.0
H1493 H 0.78653 0.4706 0.30622 0.0
H1494 H 0.80347 0.50925 0.2365 0.0
H1495 H 0.75981 0.47032 0.2768 0.0
H1496 H 0.75371 0.48685 0.182 0.0
H1497 H 0.78342 0.48751 0.20926 0.0
H1498 H 0.7354 0.49587 0.26092 0.0
H1499 H 0.70611 0.49433 0.23411 0.0
C1500 C 0.81541 0.50032 0.26846 0.0
C1501 C 0.81072 0.48995 0.28856 0.0
C1502 C 0.79976 0.5005 0.25154 0.0
C1503 C 0.77926 0.49016 0.25441 0.0
C1504 C 0.77511 0.47905 0.27422 0.0
C1505 C 0.79052 0.4791 0.2911 0.0
C1506 C 0.74964 0.48891 0.1992 0.0
C1507 C 0.72759 0.49016 0.20597 0.0
C1508 C 0.76662 0.48936 0.2148 0.0
C1509 C 0.76178 0.49129 0.23735 0.0
C1510 C 0.73974 0.49363 0.24381 0.0
C1511 C 0.72291 0.49288 0.22839 0.0
H1512 H 0.49072 0.73793 0.18395 0.0
H1513 H 0.49985 0.69777 0.24173 0.0
H1514 H 0.48738 0.77058 0.20743 0.0
H1515 H 0.49724 0.72999 0.26479 0.0
H1516 H 0.46893 0.78398 0.30371 0.0
H1517 H 0.46941 0.75445 0.27692 0.0
H1518 H 0.50731 0.79502 0.23263 0.0
H1519 H 0.50606 0.8251 0.25936 0.0
C1520 C 0.4922 0.7361 0.20159 0.0
C1521 C 0.49526 0.71523 0.21099 0.0
C1522 C 0.49034 0.75478 0.21502 0.0
C1523 C 0.4916 0.75285 0.23804 0.0
C1524 C 0.49547 0.73204 0.24721 0.0
C1525 C 0.49713 0.71352 0.23392 0.0
C1526 C 0.47718 0.78671 0.28817 0.0
C1527 C 0.48771 0.80675 0.28376 0.0
C1528 C 0.47758 0.76972 0.27284 0.0
C1529 C 0.48886 0.77215 0.25281 0.0
C1530 C 0.49847 0.7926 0.24788 0.0
C1531 C 0.49781 0.8098 0.26321 0.0
H1532 H 0.31579 0.50442 0.21495 0.0
H1533 H 0.26539 0.4776 0.17284 0.0
H1534 H 0.29038 0.50449 0.24558 0.0
H1535 H 0.23992 0.47665 0.20406 0.0
H1536 H 0.19558 0.49579 0.26377 0.0
H1537 H 0.21839 0.49715 0.23053 0.0
H1538 H 0.27495 0.47813 0.26897 0.0
H1539 H 0.25261 0.47778 0.30184 0.0
C1540 C 0.29925 0.49839 0.21228 0.0
C1541 C 0.29267 0.49074 0.19156 0.0
C1542 C 0.28467 0.49828 0.22992 0.0
C1543 C 0.2632 0.49008 0.22749 0.0
C1544 C 0.25631 0.48311 0.20653 0.0
C1545 C 0.2709 0.48356 0.18867 0.0
C1546 C 0.21289 0.49187 0.26497 0.0
C1547 C 0.22239 0.48703 0.28544 0.0
C1548 C 0.22595 0.49258 0.24596 0.0
C1549 C 0.24864 0.48819 0.2471 0.0
C1550 C 0.25774 0.48236 0.2675 0.0
C1551 C 0.24486 0.482 0.2864 0.0
H1552 H 0.81038 0.73858 0.51649 0.0
H1553 H 0.75215 0.70165 0.4993 0.0
H1554 H 0.78822 0.77241 0.51769 0.0
H1555 H 0.73056 0.7349 0.50041 0.0
H1556 H 0.69224 0.78886 0.52956 0.0
H1557 H 0.71902 0.75945 0.53135 0.0
H1558 H 0.7639 0.7974 0.49164 0.0
H1559 H 0.73688 0.82741 0.49003 0.0
C1560 C 0.79298 0.73766 0.51291 0.0
C1561 C 0.78304 0.71732 0.50803 0.0
C1562 C 0.78036 0.757 0.51352 0.0
C1563 C 0.75761 0.75621 0.50948 0.0
C1564 C 0.74795 0.73599 0.50406 0.0
C1565 C 0.76043 0.71688 0.50334 0.0
C1566 C 0.70788 0.79115 0.52138 0.0
C1567 C 0.71225 0.81032 0.50929 0.0
C1568 C 0.72324 0.77425 0.52241 0.0
C1569 C 0.74337 0.77594 0.51127 0.0
C1570 C 0.74848 0.79567 0.50035 0.0
C1571 C 0.73301 0.81278 0.49939 0.0
H1572 H 0.74252 0.19075 0.48648 0.0
H1573 H 0.70404 0.24929 0.49757 0.0
H1574 H 0.77587 0.21328 0.48424 0.0
H1575 H 0.73701 0.27148 0.49627 0.0
H1576 H 0.79316 0.30992 0.47084 0.0
H1577 H 0.76225 0.28467 0.47028 0.0
H1578 H 0.80115 0.2361 0.50441 0.0
H1579 H 0.83254 0.2612 0.50401 0.0
C1580 C 0.74124 0.20836 0.48869 0.0
C1581 C 0.72065 0.21828 0.49194 0.0
C1582 C 0.76032 0.22127 0.48745 0.0
C1583 C 0.75913 0.24428 0.48967 0.0
C1584 C 0.73855 0.25393 0.49375 0.0
C1585 C 0.7196 0.24116 0.49469 0.0
C1586 C 0.79519 0.29377 0.47804 0.0
C1587 C 0.81519 0.28763 0.48767 0.0
C1588 C 0.77741 0.27932 0.47788 0.0
C1589 C 0.77899 0.25848 0.48775 0.0
C1590 C 0.79933 0.25197 0.4966 0.0
C1591 C 0.8173 0.26637 0.49644 0.0
H1592 H 0.25716 0.80877 0.50747 0.0
H1593 H 0.29297 0.76349 0.46614 0.0
H1594 H 0.22848 0.78095 0.51283 0.0
H1595 H 0.26438 0.73614 0.47115 0.0
H1596 H 0.22928 0.68373 0.50979 0.0
H1597 H 0.25426 0.71401 0.50308 0.0
H1598 H 0.19924 0.7579 0.49445 0.0
H1599 H 0.1739 0.72737 0.50154 0.0
C1600 C 0.25872 0.79307 0.49924 0.0
C1601 C 0.2775 0.78819 0.48668 0.0
C1602 C 0.2423 0.77718 0.50227 0.0
C1603 C 0.24442 0.75623 0.49276 0.0
C1604 C 0.26256 0.75193 0.47917 0.0
C1605 C 0.27891 0.76767 0.47622 0.0
C1606 C 0.22239 0.6998 0.50651 0.0
C1607 C 0.19955 0.70306 0.50604 0.0
C1608 C 0.23675 0.71716 0.50252 0.0
C1609 C 0.22872 0.73828 0.49789 0.0
C1610 C 0.20589 0.74179 0.49798 0.0
C1611 C 0.19142 0.72431 0.50197 0.0
H1612 H 0.18925 0.24628 0.4935 0.0
H1613 H 0.22368 0.26923 0.5511 0.0
H1614 H 0.2172 0.2177 0.48828 0.0
H1615 H 0.25095 0.2405 0.5464 0.0
H1616 H 0.31137 0.21591 0.51116 0.0
H1617 H 0.27957 0.23835 0.51883 0.0
H1618 H 0.2368 0.18411 0.50242 0.0
H1619 H 0.26909 0.16134 0.49425 0.0
C1620 C 0.20243 0.24481 0.50536 0.0
C1621 C 0.20459 0.26018 0.52245 0.0
C1622 C 0.21838 0.22846 0.50241 0.0
C1623 C 0.23654 0.2272 0.51665 0.0
C1624 C 0.23751 0.24144 0.53479 0.0
C1625 C 0.22184 0.25784 0.53754 0.0
C1626 C 0.29525 0.2086 0.5092 0.0
C1627 C 0.29282 0.18675 0.50217 0.0
C1628 C 0.27696 0.22148 0.51378 0.0
C1629 C 0.25565 0.21291 0.51159 0.0
C1630 C 0.25304 0.19113 0.50428 0.0
C1631 C 0.2715 0.17812 0.49967 0.0
H1632 H 0.05737 0.31931 0.11178 0.0
H1633 H 0.07123 0.38545 0.13361 0.0
H1634 H 0.09001 0.31974 0.08922 0.0
H1635 H 0.10456 0.38582 0.11066 0.0
H1636 H 0.13822 0.37976 0.03806 0.0
H1637 H 0.11301 0.38472 0.0692 0.0
H1638 H 0.13017 0.32018 0.09308 0.0
H1639 H 0.15451 0.31504 0.06175 0.0
C1640 C 0.06751 0.33395 0.1119 0.0
C1641 C 0.06163 0.35238 0.12446 0.0
C1642 C 0.08641 0.33411 0.09908 0.0
C1643 C 0.10005 0.35272 0.09834 0.0
C1644 C 0.09437 0.37122 0.11098 0.0
C1645 C 0.07539 0.37098 0.12413 0.0
C1646 C 0.13711 0.36703 0.05044 0.0
C1647 C 0.14799 0.34691 0.04747 0.0
C1648 C 0.12271 0.36984 0.06824 0.0
C1649 C 0.11925 0.35261 0.08327 0.0
C1650 C 0.13211 0.33354 0.08148 0.0
C1651 C 0.14612 0.33062 0.06363 0.0
H1652 H 0.6257 0.05681 0.12877 0.0
H1653 H 0.69599 0.05275 0.12017 0.0
H1654 H 0.62402 0.08543 0.10048 0.0
H1655 H 0.6945 0.08167 0.09276 0.0
H1656 H 0.68172 0.10588 0.02436 0.0
H1657 H 0.68177 0.0816 0.05575 0.0
H1658 H 0.63387 0.12277 0.08815 0.0
H1659 H 0.63337 0.14711 0.05604 0.0
C1660 C 0.64082 0.06241 0.12121 0.0
C1661 C 0.66093 0.05232 0.12636 0.0
C1662 C 0.63988 0.07881 0.10505 0.0
C1663 C 0.65907 0.08548 0.094 0.0
C1664 C 0.67931 0.07645 0.10044 0.0
C1665 C 0.6802 0.05995 0.11625 0.0
C1666 C 0.67118 0.10989 0.03813 0.0
C1667 C 0.65767 0.12858 0.03771 0.0
C1668 C 0.67133 0.096 0.05627 0.0
C1669 C 0.65813 0.10043 0.07468 0.0
C1670 C 0.64424 0.1189 0.07422 0.0
C1671 C 0.644 0.13286 0.05587 0.0
H1672 H 0.93468 0.64239 0.12492 0.0
H1673 H 0.94019 0.71265 0.11667 0.0
H1674 H 0.90614 0.64136 0.09649 0.0
H1675 H 0.91143 0.71177 0.08915 0.0
H1676 H 0.88515 0.70042 0.0215 0.0
H1677 H 0.91034 0.69932 0.0521 0.0
H1678 H 0.8687 0.65219 0.08507 0.0
H1679 H 0.84338 0.65282 0.05369 0.0
C1680 C 0.92955 0.65762 0.11731 0.0
C1681 C 0.93994 0.67754 0.12273 0.0
C1682 C 0.91316 0.65705 0.10111 0.0
C1683 C 0.9068 0.67643 0.09023 0.0
C1684 C 0.91637 0.69644 0.09669 0.0
C1685 C 0.93281 0.69697 0.11257 0.0
C1686 C 0.8812 0.68982 0.03524 0.0
C1687 C 0.86208 0.67687 0.0352 0.0
C1688 C 0.89565 0.6893 0.05292 0.0
C1689 C 0.89138 0.67598 0.07127 0.0
C1690 C 0.87247 0.66263 0.07117 0.0
C1691 C 0.85794 0.66305 0.05326 0.0
H1692 H 0.30773 0.89552 0.01572 0.0
H1693 H 0.35902 0.85499 0.04334 0.0
H1694 H 0.30855 0.91877 0.04781 0.0
H1695 H 0.35954 0.87852 0.0762 0.0
H1696 H 0.3665 0.94565 0.11734 0.0
H1697 H 0.36845 0.91737 0.08857 0.0
H1698 H 0.29757 0.91557 0.0859 0.0
H1699 H 0.29568 0.94398 0.11382 0.0
C1700 C 0.31915 0.89143 0.02872 0.0
C1701 C 0.33318 0.87319 0.02696 0.0
C1702 C 0.31951 0.90477 0.04727 0.0
C1703 C 0.33381 0.90029 0.06479 0.0
C1704 C 0.34829 0.88235 0.06298 0.0
C1705 C 0.34794 0.86886 0.04422 0.0
C1706 C 0.3514 0.93888 0.11081 0.0
C1707 C 0.33095 0.9473 0.11749 0.0
C1708 C 0.3525 0.92268 0.09439 0.0
C1709 C 0.33316 0.9146 0.0846 0.0
C1710 C 0.31278 0.92189 0.09264 0.0
C1711 C 0.31169 0.93813 0.10871 0.0
H1712 H 0.07341 0.65865 0.84979 0.0
H1713 H 0.04048 0.59709 0.86212 0.0
H1714 H 0.10273 0.64819 0.8749 0.0
H1715 H 0.06968 0.58677 0.88794 0.0
H1716 H 0.09427 0.6167 0.95856 0.0
H1717 H 0.07418 0.60894 0.92477 0.0
H1718 H 0.13319 0.62037 0.88707 0.0
H1719 H 0.15347 0.62754 0.9212 0.0
C1720 C 0.0729 0.64253 0.85732 0.0
C1721 C 0.05471 0.62872 0.85422 0.0
C1722 C 0.08974 0.63647 0.87159 0.0
C1723 C 0.0884 0.61671 0.88343 0.0
C1724 C 0.07109 0.60206 0.87894 0.0
C1725 C 0.05446 0.60793 0.86418 0.0
C1726 C 0.10313 0.61649 0.94311 0.0
C1727 C 0.12531 0.6226 0.94232 0.0
C1728 C 0.09169 0.61197 0.92378 0.0
C1729 C 0.10214 0.61412 0.90331 0.0
C1730 C 0.12482 0.61851 0.90267 0.0
C1731 C 0.13641 0.62254 0.92213 0.0
H1732 H 0.41719 0.04586 0.8487 0.0
H1733 H 0.35777 0.08071 0.83236 0.0
H1734 H 0.42701 0.07501 0.8748 0.0
H1735 H 0.36775 0.10998 0.85778 0.0
H1736 H 0.39347 0.09973 0.94344 0.0
H1737 H 0.4027 0.07982 0.90992 0.0
H1738 H 0.39526 0.13953 0.8724 0.0
H1739 H 0.3866 0.15962 0.90634 0.0
C1740 C 0.40685 0.06029 0.84987 0.0
C1741 C 0.3867 0.06112 0.83872 0.0
C1742 C 0.4124 0.07689 0.86483 0.0
C1743 C 0.39808 0.09467 0.86836 0.0
C1744 C 0.37922 0.09661 0.85524 0.0
C1745 C 0.37344 0.07983 0.84075 0.0
C1746 C 0.3948 0.10874 0.92815 0.0
C1747 C 0.3894 0.13109 0.92731 0.0
C1748 C 0.40019 0.09741 0.90898 0.0
C1749 C 0.39966 0.10814 0.88856 0.0
C1750 C 0.39589 0.13093 0.88796 0.0
C1751 C 0.39099 0.1424 0.90731 0.0
H1752 H 0.85188 0.37561 0.94657 0.0
H1753 H 0.89394 0.32689 0.9765 0.0
H1754 H 0.87401 0.37351 0.91276 0.0
H1755 H 0.91568 0.32504 0.94336 0.0
H1756 H 0.94042 0.37528 0.86849 0.0
H1757 H 0.91348 0.38071 0.89811 0.0
H1758 H 0.90851 0.31042 0.90618 0.0
H1759 H 0.93549 0.30505 0.87727 0.0
C1760 C 0.86585 0.36462 0.94602 0.0
C1761 C 0.87094 0.35121 0.96416 0.0
C1762 C 0.8785 0.36345 0.92671 0.0
C1763 C 0.89628 0.34876 0.92526 0.0
C1764 C 0.90173 0.33607 0.94371 0.0
C1765 C 0.88926 0.33725 0.96282 0.0
C1766 C 0.93316 0.36104 0.87632 0.0
C1767 C 0.94034 0.33975 0.87088 0.0
C1768 C 0.91776 0.36415 0.89323 0.0
C1769 C 0.9093 0.346 0.90479 0.0
C1770 C 0.91517 0.32475 0.89797 0.0
C1771 C 0.93058 0.32167 0.88135 0.0
H1772 H 0.62229 0.83788 0.91222 0.0
H1773 H 0.57961 0.88304 0.94606 0.0
H1774 H 0.61912 0.85975 0.87875 0.0
H1775 H 0.57687 0.90541 0.91289 0.0
H1776 H 0.6478 0.92698 0.85469 0.0
H1777 H 0.63797 0.89493 0.87611 0.0
H1778 H 0.56957 0.91367 0.87336 0.0
H1779 H 0.57962 0.94616 0.85159 0.0
C1780 C 0.61133 0.8519 0.91211 0.0
C1781 C 0.60107 0.85877 0.93154 0.0
C1782 C 0.6097 0.86457 0.89306 0.0
C1783 C 0.59818 0.8846 0.89331 0.0
C1784 C 0.5858 0.89005 0.91207 0.0
C1785 C 0.58729 0.87722 0.93109 0.0
C1786 C 0.63059 0.92403 0.85821 0.0
C1787 C 0.61451 0.93918 0.85169 0.0
C1788 C 0.62489 0.90549 0.87032 0.0
C1789 C 0.60294 0.90168 0.87648 0.0
C1790 C 0.58661 0.91619 0.86891 0.0
C1791 C 0.59234 0.93471 0.8564 0.0
H1792 H 0.09571 0.0203 0.35784 0.0
H1793 H 0.15628 0.05671 0.36418 0.0
H1794 H 0.07488 0.05453 0.35998 0.0
H1795 H 0.13531 0.0912 0.36548 0.0
H1796 H 0.08254 0.13316 0.31908 0.0
H1797 H 0.10893 0.10516 0.33053 0.0
H1798 H 0.06904 0.09077 0.38732 0.0
H1799 H 0.04295 0.11946 0.37628 0.0
C1800 C 0.10451 0.03562 0.36006 0.0
C1801 C 0.12756 0.03594 0.36074 0.0
C1802 C 0.09261 0.05515 0.36145 0.0
C1803 C 0.10354 0.0754 0.363 0.0
C1804 C 0.12657 0.07572 0.36447 0.0
C1805 C 0.1385 0.05606 0.36372 0.0
C1806 C 0.07991 0.12463 0.33448 0.0
C1807 C 0.06079 0.1284 0.34683 0.0
C1808 C 0.095 0.10868 0.34104 0.0
C1809 C 0.09091 0.09586 0.35975 0.0
C1810 C 0.07254 0.10059 0.3729 0.0
C1811 C 0.05772 0.11701 0.36664 0.0
H1812 H 0.9482 0.12572 0.36369 0.0
H1813 H 0.94491 0.11607 0.2935 0.0
H1814 H 0.91906 0.09837 0.36874 0.0
H1815 H 0.91546 0.08957 0.2984 0.0
H1816 H 0.89173 0.0216 0.31536 0.0
H1817 H 0.91607 0.05274 0.3118 0.0
H1818 H 0.88057 0.08679 0.36298 0.0
H1819 H 0.85615 0.05493 0.36702 0.0
C1820 C 0.94088 0.11815 0.34934 0.0
C1821 C 0.94907 0.12271 0.32823 0.0
C1822 C 0.92416 0.10254 0.35222 0.0
C1823 C 0.91526 0.09143 0.334 0.0
C1824 C 0.9224 0.09732 0.31284 0.0
C1825 C 0.93921 0.11261 0.31 0.0
C1826 C 0.88894 0.03568 0.32588 0.0
C1827 C 0.87185 0.03576 0.34141 0.0
C1828 C 0.90287 0.05369 0.3237 0.0
C1829 C 0.90008 0.07246 0.33684 0.0
C1830 C 0.88316 0.07256 0.35262 0.0
C1831 C 0.86914 0.05436 0.35488 0.0
H1832 H 0.86391 0.94675 0.40622 0.0
H1833 H 0.85258 0.90313 0.35147 0.0
H1834 H 0.88875 0.9196 0.42257 0.0
H1835 H 0.87685 0.87601 0.36787 0.0
H1836 H 0.95976 0.89058 0.39975 0.0
H1837 H 0.92579 0.91118 0.40407 0.0
H1838 H 0.88861 0.85087 0.39963 0.0
H1839 H 0.92295 0.83015 0.39576 0.0
C1840 C 0.86603 0.93102 0.39817 0.0
C1841 C 0.85671 0.92711 0.37743 0.0
C1842 C 0.88021 0.91552 0.40751 0.0
C1843 C 0.88482 0.89576 0.39643 0.0
C1844 C 0.87349 0.89097 0.37691 0.0
C1845 C 0.85975 0.90658 0.36739 0.0
C1846 C 0.94438 0.88165 0.40077 0.0
C1847 C 0.94384 0.85889 0.39727 0.0
C1848 C 0.92491 0.89341 0.40336 0.0
C1849 C 0.90454 0.88264 0.40196 0.0
C1850 C 0.90412 0.85955 0.40073 0.0
C1851 C 0.92372 0.8477 0.39861 0.0
H1852 H 0.12731 0.93782 0.40067 0.0
H1853 H 0.16144 0.90104 0.35073 0.0
H1854 H 0.10284 0.90658 0.40701 0.0
H1855 H 0.13771 0.86945 0.35759 0.0
H1856 H 0.05703 0.84826 0.41021 0.0
H1857 H 0.09225 0.86753 0.41515 0.0
H1858 H 0.09997 0.87061 0.34464 0.0
H1859 H 0.06532 0.85171 0.33987 0.0
C1860 C 0.13038 0.92257 0.39201 0.0
C1861 C 0.14609 0.92173 0.37517 0.0
C1862 C 0.11635 0.90466 0.39559 0.0
C1863 C 0.118 0.88574 0.38239 0.0
C1864 C 0.13574 0.88398 0.36768 0.0
C1865 C 0.14947 0.90195 0.36389 0.0
C1866 C 0.06664 0.85262 0.39587 0.0
C1867 C 0.05841 0.84873 0.37465 0.0
C1868 C 0.0867 0.86369 0.39869 0.0
C1869 C 0.09897 0.87055 0.38031 0.0
C1870 C 0.09124 0.86528 0.3592 0.0
C1871 C 0.0712 0.85462 0.35642 0.0
H1872 H 0.04253 0.85028 0.62712 0.0
H1873 H 0.01536 0.89526 0.6749 0.0
H1874 H 0.07694 0.87166 0.62701 0.0
H1875 H 0.04905 0.91623 0.67461 0.0
H1876 H 0.11639 0.93418 0.69221 0.0
H1877 H 0.08652 0.90798 0.68849 0.0
H1878 H 0.09238 0.91088 0.61788 0.0
H1879 H 0.12296 0.93709 0.62163 0.0
C1880 C 0.0438 0.86474 0.63741 0.0
C1881 C 0.0263 0.87084 0.65127 0.0
C1882 C 0.06344 0.87695 0.63733 0.0
C1883 C 0.06584 0.89532 0.65118 0.0
C1884 C 0.04797 0.90182 0.66422 0.0
C1885 C 0.02855 0.88978 0.66429 0.0
C1886 C 0.11161 0.92899 0.67587 0.0
C1887 C 0.12176 0.93798 0.65721 0.0
C1888 C 0.09444 0.91402 0.67373 0.0
C1889 C 0.08677 0.90779 0.65288 0.0
C1890 C 0.09794 0.91545 0.63415 0.0
C1891 C 0.11539 0.93044 0.6363 0.0
H1892 H 0.12376 0.03273 0.61026 0.0
H1893 H 0.14197 0.06989 0.66782 0.0
H1894 H 0.09628 0.06072 0.60103 0.0
H1895 H 0.11512 0.09813 0.6582 0.0
H1896 H 0.06747 0.14886 0.62928 0.0
H1897 H 0.10092 0.12642 0.62568 0.0
H1898 H 0.06157 0.06751 0.62897 0.0
H1899 H 0.02849 0.08976 0.63341 0.0
C1900 C 0.12257 0.04734 0.62037 0.0
C1901 C 0.13487 0.04917 0.63979 0.0
C1902 C 0.10682 0.06327 0.61514 0.0
C1903 C 0.10364 0.08152 0.62894 0.0
C1904 C 0.11742 0.08433 0.64719 0.0
C1905 C 0.13271 0.06816 0.65273 0.0
C1906 C 0.06602 0.13113 0.62871 0.0
C1907 C 0.04552 0.12096 0.63174 0.0
C1908 C 0.08508 0.11835 0.62667 0.0
C1909 C 0.08372 0.09529 0.6269 0.0
C1910 C 0.06301 0.08525 0.62844 0.0
C1911 C 0.04413 0.09795 0.63113 0.0
H1912 H 0.91357 0.16225 0.65085 0.0
H1913 H 0.94183 0.11837 0.60304 0.0
H1914 H 0.8789 0.14212 0.64902 0.0
H1915 H 0.90735 0.09773 0.60152 0.0
H1916 H 0.85173 0.07476 0.67423 0.0
H1917 H 0.8756 0.10545 0.6655 0.0
H1918 H 0.86648 0.09319 0.5962 0.0
H1919 H 0.84224 0.06215 0.60507 0.0
C1920 C 0.91195 0.1489 0.63918 0.0
C1921 C 0.93017 0.14185 0.62698 0.0
C1922 C 0.89222 0.13723 0.63828 0.0
C1923 C 0.89055 0.11807 0.62549 0.0
C1924 C 0.90807 0.11248 0.61146 0.0
C1925 C 0.9278 0.12431 0.61225 0.0
C1926 C 0.85443 0.07885 0.65712 0.0
C1927 C 0.84529 0.06594 0.64035 0.0
C1928 C 0.86797 0.09661 0.65208 0.0
C1929 C 0.87292 0.10182 0.63013 0.0
C1930 C 0.86297 0.08954 0.61326 0.0
C1931 C 0.84907 0.07186 0.61833 0.0
H1932 H 0.92869 0.8702 0.60571 0.0
H1933 H 0.892 0.85709 0.66495 0.0
H1934 H 0.90074 0.89694 0.59445 0.0
H1935 H 0.86392 0.8832 0.6535 0.0
H1936 H 0.81512 0.93121 0.62923 0.0
H1937 H 0.83536 0.89666 0.62388 0.0
H1938 H 0.89578 0.93333 0.61742 0.0
H1939 H 0.87572 0.96748 0.62343 0.0
C1940 C 0.91419 0.87233 0.61581 0.0
C1941 C 0.91253 0.86186 0.63629 0.0
C1942 C 0.89826 0.88762 0.6094 0.0
C1943 C 0.88024 0.89215 0.62315 0.0
C1944 C 0.8775 0.87988 0.64248 0.0
C1945 C 0.89364 0.86505 0.64911 0.0
C1946 C 0.83259 0.9318 0.62585 0.0
C1947 C 0.84399 0.95181 0.62677 0.0
C1948 C 0.84413 0.91212 0.62283 0.0
C1949 C 0.86709 0.91238 0.62019 0.0
C1950 C 0.87806 0.93265 0.6191 0.0
C1951 C 0.86665 0.95218 0.62265 0.0
H1952 H 0.32537 0.08076 0.14151 0.0
H1953 H 0.3804 0.04402 0.11629 0.0
H1954 H 0.33343 0.11057 0.11604 0.0
H1955 H 0.38809 0.07359 0.09001 0.0
H1956 H 0.32507 0.12724 0.04268 0.0
H1957 H 0.32581 0.10699 0.07682 0.0
H1958 H 0.39646 0.11332 0.07937 0.0
H1959 H 0.39568 0.13395 0.04457 0.0
C1960 C 0.33965 0.07943 0.13095 0.0
C1961 C 0.35217 0.06011 0.13067 0.0
C1962 C 0.34419 0.09641 0.11627 0.0
C1963 C 0.36103 0.09418 0.10062 0.0
C1964 C 0.37502 0.07581 0.10187 0.0
C1965 C 0.37065 0.05888 0.11691 0.0
C1966 C 0.34079 0.12461 0.05059 0.0
C1967 C 0.36032 0.13208 0.04086 0.0
C1968 C 0.34121 0.11316 0.07034 0.0
C1969 C 0.36119 0.10867 0.08096 0.0
C1970 C 0.38082 0.11657 0.07157 0.0
C1971 C 0.38036 0.12842 0.05176 0.0
H1972 H 0.38779 0.96186 0.87814 0.0
H1973 H 0.37962 0.92535 0.81796 0.0
H1974 H 0.38825 0.9277 0.89897 0.0
H1975 H 0.37948 0.8909 0.83897 0.0
H1976 H 0.331 0.85774 0.89339 0.0
H1977 H 0.34729 0.88177 0.86583 0.0
H1978 H 0.40517 0.88901 0.90615 0.0
H1979 H 0.38896 0.86439 0.93365 0.0
C1980 C 0.38686 0.94641 0.86933 0.0
C1981 C 0.38357 0.94613 0.84654 0.0
C1982 C 0.38725 0.92684 0.88122 0.0
C1983 C 0.38381 0.90666 0.87058 0.0
C1984 C 0.38222 0.90626 0.84752 0.0
C1985 C 0.38236 0.9259 0.83553 0.0
C1986 C 0.34753 0.86383 0.89599 0.0
C1987 C 0.35864 0.85946 0.9157 0.0
C1988 C 0.35694 0.87745 0.88014 0.0
C1989 C 0.37744 0.88733 0.88392 0.0
C1990 C 0.38934 0.88156 0.90286 0.0
C1991 C 0.38009 0.86748 0.91854 0.0
H1992 H 0.03825 0.37872 0.88085 0.0
H1993 H 0.07309 0.34053 0.8325 0.0
H1994 H 0.07186 0.38182 0.90272 0.0
H1995 H 0.10676 0.34369 0.85415 0.0
H1996 H 0.13365 0.31389 0.9203 0.0
H1997 H 0.1092 0.32314 0.8902 0.0
H1998 H 0.11332 0.39179 0.90765 0.0
H1999 H 0.13844 0.38244 0.93791 0.0
C2000 C 0.05342 0.37207 0.87435 0.0
C2001 C 0.05328 0.35958 0.85499 0.0
C2002 C 0.07265 0.37377 0.88686 0.0
C2003 C 0.09183 0.36272 0.88026 0.0
C2004 C 0.09215 0.35221 0.85969 0.0
C2005 C 0.07298 0.35057 0.84721 0.0
C2006 C 0.12969 0.33101 0.9175 0.0
C2007 C 0.13781 0.34743 0.9315 0.0
C2008 C 0.11584 0.33635 0.90011 0.0
C2009 C 0.10944 0.35822 0.89648 0.0
C2010 C 0.11808 0.37482 0.91005 0.0
C2011 C 0.13243 0.36949 0.92728 0.0
H2012 H 0.60154 0.13741 0.94591 0.0
H2013 H 0.65877 0.14748 0.90522 0.0
H2014 H 0.58693 0.11145 0.91878 0.0
H2015 H 0.64401 0.12205 0.87803 0.0
H2016 H 0.61317 0.07617 0.83049 0.0
H2017 H 0.61225 0.1107 0.85143 0.0
H2018 H 0.60605 0.07379 0.91166 0.0
H2019 H 0.6076 0.03958 0.89087 0.0
C2020 C 0.61055 0.13477 0.93078 0.0
C2021 C 0.63139 0.14422 0.92774 0.0
C2022 C 0.60222 0.11989 0.91532 0.0
C2023 C 0.61439 0.11468 0.89637 0.0
C2024 C 0.63417 0.12588 0.89236 0.0
C2025 C 0.64269 0.14034 0.908 0.0
C2026 C 0.61077 0.07558 0.84811 0.0
C2027 C 0.61049 0.05535 0.85916 0.0
C2028 C 0.61034 0.09527 0.86007 0.0
C2029 C 0.60909 0.0949 0.88315 0.0
C2030 C 0.60674 0.07462 0.8939 0.0
C2031 C 0.60772 0.05503 0.88203 0.0
H2032 H 0.95413 0.63342 0.89407 0.0
H2033 H 0.91977 0.63133 0.83214 0.0
H2034 H 0.9192 0.63156 0.91366 0.0
H2035 H 0.88451 0.63026 0.85186 0.0
H2036 H 0.84432 0.67891 0.90293 0.0
H2037 H 0.87115 0.66432 0.87695 0.0
H2038 H 0.88194 0.60858 0.91934 0.0
H2039 H 0.85453 0.62289 0.94515 0.0
C2040 C 0.93907 0.63199 0.8847 0.0
C2041 C 0.93952 0.63261 0.86168 0.0
C2042 C 0.91911 0.63076 0.89588 0.0
C2043 C 0.89921 0.63072 0.88423 0.0
C2044 C 0.89968 0.63011 0.86115 0.0
C2045 C 0.91977 0.63072 0.84993 0.0
C2046 C 0.85177 0.6631 0.90625 0.0
C2047 C 0.84757 0.65212 0.92609 0.0
C2048 C 0.86702 0.65469 0.89134 0.0
C2049 C 0.87865 0.63542 0.89626 0.0
C2050 C 0.87311 0.62346 0.91521 0.0
C2051 C 0.85743 0.63162 0.92991 0.0
H2052 H 0.60135 0.96282 0.12938 0.0
H2053 H 0.6559 0.91953 0.14237 0.0
H2054 H 0.58733 0.93676 0.102 0.0
H2055 H 0.64164 0.89332 0.1156 0.0
H2056 H 0.60956 0.84809 0.06694 0.0
H2057 H 0.60812 0.86861 0.10169 0.0
H2058 H 0.61052 0.9296 0.06563 0.0
H2059 H 0.61264 0.90923 0.0312 0.0
C2060 C 0.60975 0.9473 0.1271 0.0
C2061 C 0.62976 0.94318 0.13777 0.0
C2062 C 0.60179 0.93247 0.11142 0.0
C2063 C 0.61347 0.91312 0.10668 0.0
C2064 C 0.63221 0.90801 0.11908 0.0
C2065 C 0.64043 0.92304 0.13432 0.0
C2066 C 0.60917 0.86587 0.0665 0.0
C2067 C 0.61144 0.87714 0.0465 0.0
C2068 C 0.60834 0.87756 0.08632 0.0
C2069 C 0.60913 0.90065 0.08627 0.0
C2070 C 0.6096 0.91183 0.06612 0.0
C2071 C 0.611 0.90019 0.04644 0.0
H2072 H 0.07193 0.67926 0.15673 0.0
H2073 H 0.03596 0.62632 0.12631 0.0
H2074 H 0.10332 0.67177 0.13303 0.0
H2075 H 0.06709 0.61933 0.10177 0.0
H2076 H 0.12278 0.68431 0.06054 0.0
H2077 H 0.10214 0.68183 0.09439 0.0
H2078 H 0.10679 0.61101 0.09241 0.0
H2079 H 0.12783 0.61362 0.05793 0.0
C2080 C 0.07107 0.66554 0.14542 0.0
C2081 C 0.05155 0.65351 0.1431 0.0
C2082 C 0.08897 0.66131 0.13177 0.0
C2083 C 0.08745 0.64537 0.11512 0.0
C2084 C 0.06878 0.63171 0.11444 0.0
C2085 C 0.05094 0.63571 0.12846 0.0
C2086 C 0.11977 0.66819 0.06748 0.0
C2087 C 0.12675 0.64916 0.05654 0.0
C2088 C 0.10811 0.66675 0.08706 0.0
C2089 C 0.1029 0.6462 0.09621 0.0
C2090 C 0.11058 0.62706 0.08574 0.0
C2091 C 0.12267 0.62855 0.06612 0.0
H2092 H 0.96461 0.39627 0.10825 0.0
H2093 H 0.93215 0.3813 0.16935 0.0
H2094 H 0.92922 0.40244 0.09077 0.0
H2095 H 0.89642 0.38734 0.15187 0.0
H2096 H 0.85675 0.34625 0.09764 0.0
H2097 H 0.88285 0.35998 0.1245 0.0
H2098 H 0.89169 0.41895 0.08605 0.0
H2099 H 0.86514 0.40512 0.05908 0.0
C2100 C 0.94987 0.39553 0.11823 0.0
C2101 C 0.95099 0.38842 0.14009 0.0
C2102 C 0.92954 0.39905 0.10823 0.0
C2103 C 0.90997 0.39504 0.11985 0.0
C2104 C 0.91123 0.3904 0.14247 0.0
C2105 C 0.93165 0.38713 0.15255 0.0
C2106 C 0.86366 0.36249 0.09532 0.0
C2107 C 0.8592 0.37448 0.07616 0.0
C2108 C 0.87851 0.37049 0.11082 0.0
C2109 C 0.88952 0.3905 0.10732 0.0
C2110 C 0.88353 0.40344 0.08912 0.0
C2111 C 0.8683 0.39556 0.07374 0.0
H2112 H 0.66159 0.88042 0.57177 0.0
H2113 H 0.6009 0.88817 0.53618 0.0
H2114 H 0.64158 0.88433 0.60659 0.0
H2115 H 0.58103 0.89259 0.57064 0.0
H2116 H 0.58697 0.8398 0.64411 0.0
H2117 H 0.61459 0.85421 0.61903 0.0
H2118 H 0.57459 0.91164 0.60783 0.0
H2119 H 0.54696 0.8973 0.6334 0.0
C2120 C 0.64418 0.88408 0.57141 0.0
C2121 C 0.63268 0.88399 0.55145 0.0
C2122 C 0.63273 0.8862 0.59128 0.0
C2123 C 0.60974 0.88865 0.59132 0.0
C2124 C 0.59874 0.89097 0.57117 0.0
C2125 C 0.61008 0.88838 0.55142 0.0
C2126 C 0.58446 0.85589 0.63695 0.0
C2127 C 0.56473 0.8673 0.64043 0.0
C2128 C 0.60037 0.86424 0.6227 0.0
C2129 C 0.59665 0.88397 0.61133 0.0
C2130 C 0.57782 0.89638 0.61637 0.0
C2131 C 0.56206 0.88819 0.63102 0.0
H2132 H 0.09886 0.54421 0.65029 0.0
H2133 H 0.16922 0.54755 0.64171 0.0
H2134 H 0.09502 0.57937 0.63078 0.0
H2135 H 0.16549 0.58203 0.62245 0.0
H2136 H 0.10615 0.61518 0.56048 0.0
H2137 H 0.10082 0.59015 0.59147 0.0
H2138 H 0.15556 0.62044 0.62503 0.0
H2139 H 0.1614 0.6446 0.59363 0.0
C2140 C 0.11348 0.55264 0.64462 0.0
C2141 C 0.13432 0.54307 0.6473 0.0
C2142 C 0.11128 0.57268 0.63343 0.0
C2143 C 0.12994 0.58358 0.62517 0.0
C2144 C 0.15078 0.57439 0.62892 0.0
C2145 C 0.15292 0.55441 0.63977 0.0
C2146 C 0.11636 0.61707 0.57493 0.0
C2147 C 0.13432 0.63153 0.5747 0.0
C2148 C 0.11334 0.60274 0.59269 0.0
C2149 C 0.12816 0.60294 0.61043 0.0
C2150 C 0.14422 0.61953 0.61134 0.0
C2151 C 0.14748 0.63348 0.59348 0.0
H2152 H 0.41143 0.12432 0.53115 0.0
H2153 H 0.34692 0.11921 0.56004 0.0
H2154 H 0.42807 0.12074 0.56741 0.0
H2155 H 0.3636 0.11639 0.59666 0.0
H2156 H 0.40842 0.16544 0.64275 0.0
H2157 H 0.38557 0.15037 0.61348 0.0
H2158 H 0.43198 0.09763 0.60418 0.0
H2159 H 0.45465 0.1124 0.63393 0.0
C2160 C 0.40088 0.12157 0.54523 0.0
C2161 C 0.37797 0.12197 0.54292 0.0
C2162 C 0.41037 0.11947 0.56598 0.0
C2163 C 0.39709 0.11835 0.58482 0.0
C2164 C 0.37416 0.11713 0.58236 0.0
C2165 C 0.36466 0.11863 0.56146 0.0
C2166 C 0.41329 0.15014 0.63507 0.0
C2167 C 0.43341 0.14024 0.64042 0.0
C2168 C 0.40015 0.14144 0.61839 0.0
C2169 C 0.40713 0.12293 0.60649 0.0
C2170 C 0.42627 0.11191 0.61314 0.0
C2171 C 0.43918 0.12035 0.63019 0.0
H2172 H 0.86398 0.32073 0.57438 0.0
H2173 H 0.89744 0.37844 0.55069 0.0
H2174 H 0.85861 0.33849 0.61011 0.0
H2175 H 0.89213 0.39629 0.58612 0.0
H2176 H 0.8151 0.39612 0.63917 0.0
H2177 H 0.8325 0.369 0.61564 0.0
H2178 H 0.89556 0.39968 0.62664 0.0
H2179 H 0.87802 0.42705 0.65032 0.0
C2180 C 0.87121 0.33675 0.57725 0.0
C2181 C 0.88131 0.3482 0.56001 0.0
C2182 C 0.86792 0.34703 0.59757 0.0
C2183 C 0.87466 0.36893 0.60085 0.0
C2184 C 0.88689 0.37939 0.58426 0.0
C2185 C 0.89001 0.36917 0.56395 0.0
C2186 C 0.83276 0.39681 0.63701 0.0
C2187 C 0.84511 0.41395 0.64632 0.0
C2188 C 0.8428 0.3811 0.62367 0.0
C2189 C 0.86543 0.38223 0.61915 0.0
C2190 C 0.87807 0.39847 0.62971 0.0
C2191 C 0.86802 0.4141 0.6433 0.0
H2192 H 0.58425 0.19459 0.3459 0.0
H2193 H 0.56061 0.12781 0.3493 0.0
H2194 H 0.61383 0.18568 0.3709 0.0
H2195 H 0.59059 0.11866 0.37476 0.0
H2196 H 0.66688 0.17099 0.41317 0.0
H2197 H 0.64721 0.16527 0.37866 0.0
H2198 H 0.5961 0.1306 0.41373 0.0
H2199 H 0.61634 0.13572 0.44804 0.0
C2200 C 0.58575 0.17781 0.35165 0.0
C2201 C 0.57006 0.16195 0.3459 0.0
C2202 C 0.60286 0.1726 0.36584 0.0
C2203 C 0.6046 0.15143 0.37486 0.0
C2204 C 0.58963 0.13513 0.3681 0.0
C2205 C 0.57257 0.14031 0.3535 0.0
C2206 C 0.65197 0.16125 0.41322 0.0
C2207 C 0.64302 0.15376 0.43305 0.0
C2208 C 0.64063 0.15809 0.39356 0.0
C2209 C 0.61987 0.1479 0.39354 0.0
C2210 C 0.61209 0.1384 0.41314 0.0
C2211 C 0.62362 0.14134 0.4328 0.0
H2212 H 0.86742 0.56817 0.35311 0.0
H2213 H 0.85763 0.52691 0.40996 0.0
H2214 H 0.86747 0.60081 0.37697 0.0
H2215 H 0.85849 0.55927 0.43367 0.0
H2216 H 0.87492 0.62068 0.47193 0.0
H2217 H 0.88615 0.5938 0.44401 0.0
H2218 H 0.83211 0.6139 0.40288 0.0
H2219 H 0.82046 0.64012 0.43101 0.0
C2220 C 0.86578 0.56607 0.3707 0.0
C2221 C 0.86231 0.54509 0.37972 0.0
C2222 C 0.86585 0.58467 0.38429 0.0
C2223 C 0.86319 0.58245 0.40711 0.0
C2224 C 0.86088 0.56137 0.41616 0.0
C2225 C 0.86019 0.54291 0.40258 0.0
C2226 C 0.86596 0.61987 0.45658 0.0
C2227 C 0.84682 0.63236 0.45357 0.0
C2228 C 0.87231 0.60447 0.4407 0.0
C2229 C 0.85994 0.60184 0.42138 0.0
C2230 C 0.84201 0.61577 0.41755 0.0
C2231 C 0.83533 0.63071 0.43363 0.0
H2232 H 0.36339 0.89301 0.45418 0.0
H2233 H 0.34422 0.84176 0.40917 0.0
H2234 H 0.39069 0.9061 0.42756 0.0
H2235 H 0.37094 0.85505 0.38244 0.0
H2236 H 0.42233 0.88135 0.33756 0.0
H2237 H 0.3881 0.88638 0.35839 0.0
H2238 H 0.42442 0.88112 0.41904 0.0
H2239 H 0.45823 0.87553 0.39837 0.0
C2240 C 0.3642 0.88531 0.43815 0.0
C2241 C 0.35185 0.86636 0.43367 0.0
C2242 C 0.37988 0.8927 0.42299 0.0
C2243 C 0.38302 0.88147 0.40303 0.0
C2244 C 0.36877 0.86415 0.39759 0.0
C2245 C 0.3535 0.8565 0.4129 0.0
C2246 C 0.423 0.88196 0.35533 0.0
C2247 C 0.44279 0.87783 0.36642 0.0
C2248 C 0.40347 0.88482 0.36722 0.0
C2249 C 0.40363 0.88419 0.39032 0.0
C2250 C 0.42381 0.88199 0.40128 0.0
C2251 C 0.44314 0.87859 0.38946 0.0
H2252 H 0.21347 0.43035 0.38848 0.0
H2253 H 0.14358 0.42986 0.37627 0.0
H2254 H 0.209 0.40147 0.4156 0.0
H2255 H 0.13895 0.40122 0.4042 0.0
H2256 H 0.14305 0.33848 0.44816 0.0
H2257 H 0.14648 0.3631 0.41641 0.0
H2258 H 0.19406 0.40198 0.45196 0.0
H2259 H 0.1911 0.37749 0.48303 0.0
C2260 C 0.19712 0.42398 0.39153 0.0
C2261 C 0.17884 0.4326 0.38048 0.0
C2262 C 0.19454 0.40748 0.40718 0.0
C2263 C 0.17355 0.39938 0.41246 0.0
C2264 C 0.15534 0.40709 0.40051 0.0
C2265 C 0.15798 0.42353 0.38457 0.0
C2266 C 0.15424 0.35229 0.4491 0.0
C2267 C 0.16695 0.35587 0.46807 0.0
C2268 C 0.15615 0.36641 0.43096 0.0
C2269 C 0.17081 0.38431 0.4315 0.0
C2270 C 0.18307 0.38803 0.45069 0.0
C2271 C 0.18124 0.37401 0.46864 0.0
H2272 H 0.63071 0.55996 0.84176 0.0
H2273 H 0.63456 0.55251 0.91216 0.0
H2274 H 0.611 0.59427 0.84632 0.0
H2275 H 0.6142 0.58717 0.91684 0.0
H2276 H 0.54351 0.62283 0.8994 0.0
H2277 H 0.57369 0.59719 0.90656 0.0
H2278 H 0.61461 0.63278 0.86083 0.0
H2279 H 0.58434 0.65791 0.85338 0.0
C2280 C 0.6276 0.56589 0.85826 0.0
C2281 C 0.63406 0.55356 0.87659 0.0
C2282 C 0.61646 0.58567 0.8609 0.0
C2283 C 0.61117 0.59351 0.88196 0.0
C2284 C 0.61816 0.58153 0.90043 0.0
C2285 C 0.62982 0.5618 0.89776 0.0
C2286 C 0.55935 0.6258 0.89184 0.0
C2287 C 0.5617 0.64222 0.87584 0.0
C2288 C 0.57661 0.6111 0.89586 0.0
C2289 C 0.59633 0.61276 0.88388 0.0
C2290 C 0.59949 0.63095 0.87004 0.0
C2291 C 0.58224 0.64543 0.86591 0.0
H2292 H 0.45827 0.60845 0.81669 0.0
H2293 H 0.43645 0.64063 0.87613 0.0
H2294 H 0.426 0.58538 0.81713 0.0
H2295 H 0.40344 0.61727 0.87636 0.0
H2296 H 0.36614 0.54701 0.87804 0.0
H2297 H 0.39308 0.57698 0.88092 0.0
H2298 H 0.38666 0.5891 0.81132 0.0
H2299 H 0.3606 0.55894 0.80841 0.0
C2300 C 0.4465 0.61074 0.82984 0.0
C2301 C 0.44999 0.6265 0.84635 0.0
C2302 C 0.42782 0.59757 0.82997 0.0
C2303 C 0.41194 0.59971 0.84658 0.0
C2304 C 0.41538 0.6153 0.86331 0.0
C2305 C 0.43421 0.62869 0.86313 0.0
C2306 C 0.37011 0.55654 0.86354 0.0
C2307 C 0.36162 0.5505 0.84294 0.0
C2308 C 0.3855 0.57367 0.86517 0.0
C2309 C 0.39239 0.58503 0.84624 0.0
C2310 C 0.38216 0.58027 0.8261 0.0
C2311 C 0.36714 0.56308 0.82444 0.0
H2312 H 0.36554 0.45 0.89063 0.0
H2313 H 0.36584 0.41816 0.82723 0.0
H2314 H 0.39074 0.42185 0.90475 0.0
H2315 H 0.39029 0.38978 0.84154 0.0
H2316 H 0.46562 0.39389 0.88939 0.0
H2317 H 0.43246 0.41647 0.88796 0.0
H2318 H 0.39368 0.35871 0.87419 0.0
H2319 H 0.4269 0.33592 0.87647 0.0
C2320 C 0.37047 0.43664 0.87995 0.0
C2321 C 0.36397 0.4363 0.8578 0.0
C2322 C 0.38481 0.42059 0.88802 0.0
C2323 C 0.39227 0.40365 0.87424 0.0
C2324 C 0.38453 0.40252 0.85256 0.0
C2325 C 0.37071 0.41883 0.84434 0.0
C2326 C 0.44986 0.38594 0.88699 0.0
C2327 C 0.44868 0.36325 0.88309 0.0
C2328 C 0.43093 0.39881 0.88622 0.0
C2329 C 0.41061 0.38927 0.88094 0.0
C2330 C 0.40919 0.36636 0.87842 0.0
C2331 C 0.42811 0.35336 0.87981 0.0
H2332 H 0.54835 0.35634 0.92032 0.0
H2333 H 0.58139 0.34855 0.85808 0.0
H2334 H 0.57732 0.38163 0.93243 0.0
H2335 H 0.61045 0.37324 0.87028 0.0
H2336 H 0.66103 0.4182 0.8938 0.0
H2337 H 0.64086 0.38355 0.89827 0.0
H2338 H 0.58215 0.41997 0.91421 0.0
H2339 H 0.60214 0.45433 0.90919 0.0
C2340 C 0.56226 0.3593 0.90962 0.0
C2341 C 0.56258 0.35073 0.88819 0.0
C2342 C 0.57878 0.37379 0.91652 0.0
C2343 C 0.59608 0.37945 0.90227 0.0
C2344 C 0.59747 0.36904 0.88172 0.0
C2345 C 0.58076 0.355 0.87466 0.0
C2346 C 0.64411 0.41867 0.8993 0.0
C2347 C 0.63307 0.43879 0.90124 0.0
C2348 C 0.63254 0.39889 0.90172 0.0
C2349 C 0.60992 0.39908 0.90648 0.0
C2350 C 0.5996 0.41927 0.91079 0.0
C2351 C 0.61101 0.43896 0.9079 0.0
H2352 H 0.58289 0.34089 0.0998 0.0
H2353 H 0.55238 0.40462 0.09513 0.0
H2354 H 0.61921 0.35841 0.1004 0.0
H2355 H 0.58841 0.42205 0.0951 0.0
H2356 H 0.65562 0.40681 0.15307 0.0
H2357 H 0.63047 0.38208 0.13419 0.0
H2358 H 0.62769 0.42674 0.07922 0.0
H2359 H 0.6533 0.45141 0.09799 0.0
C2360 C 0.58403 0.35853 0.09779 0.0
C2361 C 0.56498 0.3715 0.09756 0.0
C2362 C 0.60476 0.36854 0.09822 0.0
C2363 C 0.6066 0.39157 0.09792 0.0
C2364 C 0.58754 0.40427 0.09513 0.0
C2365 C 0.5669 0.39433 0.09524 0.0
C2366 C 0.65033 0.41094 0.1366 0.0
C2367 C 0.65609 0.43118 0.12716 0.0
C2368 C 0.63604 0.39669 0.12569 0.0
C2369 C 0.62697 0.40262 0.10533 0.0
C2370 C 0.63444 0.42183 0.09493 0.0
C2371 C 0.64909 0.43592 0.10568 0.0
H2372 H 0.65445 0.56048 0.1396 0.0
H2373 H 0.60806 0.51873 0.17355 0.0
H2374 H 0.62815 0.5911 0.14192 0.0
H2375 H 0.58219 0.54874 0.17554 0.0
H2376 H 0.55182 0.60931 0.2012 0.0
H2377 H 0.58145 0.58306 0.19671 0.0
H2378 H 0.58981 0.60342 0.12929 0.0
H2379 H 0.56012 0.63031 0.1339 0.0
C2380 C 0.63865 0.55778 0.14733 0.0
C2381 C 0.63351 0.53727 0.15669 0.0
C2382 C 0.62363 0.57525 0.14864 0.0
C2383 C 0.60332 0.57243 0.15935 0.0
C2384 C 0.59794 0.55165 0.16775 0.0
C2385 C 0.6128 0.53437 0.1665 0.0
C2386 C 0.56006 0.60841 0.18544 0.0
C2387 C 0.55336 0.62165 0.1678 0.0
C2388 C 0.57702 0.5933 0.18286 0.0
C2389 C 0.58764 0.59085 0.16251 0.0
C2390 C 0.58189 0.60494 0.14515 0.0
C2391 C 0.56488 0.62026 0.14779 0.0
H2392 H 0.42043 0.63609 0.17179 0.0
H2393 H 0.45963 0.62484 0.11378 0.0
H2394 H 0.3931 0.6099 0.15853 0.0
H2395 H 0.43246 0.59804 0.10075 0.0
H2396 H 0.40454 0.52664 0.12373 0.0
H2397 H 0.4258 0.56061 0.12256 0.0
H2398 H 0.36589 0.59832 0.12598 0.0
H2399 H 0.34444 0.5641 0.12646 0.0
C2400 C 0.42283 0.6285 0.15586 0.0
C2401 C 0.44215 0.63234 0.14385 0.0
C2402 C 0.40715 0.6136 0.14823 0.0
C2403 C 0.41076 0.60191 0.12868 0.0
C2404 C 0.42932 0.60691 0.11586 0.0
C2405 C 0.44479 0.62227 0.12326 0.0
C2406 C 0.39589 0.54219 0.12359 0.0
C2407 C 0.3729 0.54282 0.12534 0.0
C2408 C 0.40803 0.56161 0.12275 0.0
C2409 C 0.39746 0.58205 0.12416 0.0
C2410 C 0.37438 0.58274 0.12476 0.0
C2411 C 0.36215 0.56322 0.12502 0.0
H2412 H 0.44826 0.36405 0.07305 0.0
H2413 H 0.43744 0.36242 0.14308 0.0
H2414 H 0.41185 0.38099 0.06803 0.0
H2415 H 0.40174 0.37899 0.13831 0.0
H2416 H 0.3728 0.44814 0.08598 0.0
H2417 H 0.3984 0.41837 0.07784 0.0
H2418 H 0.36473 0.37692 0.12463 0.0
H2419 H 0.34 0.40717 0.13351 0.0
C2420 C 0.43787 0.36678 0.08724 0.0
C2421 C 0.44566 0.36223 0.10847 0.0
C2422 C 0.41712 0.3765 0.0844 0.0
C2423 C 0.40381 0.3813 0.10274 0.0
C2424 C 0.41124 0.37522 0.12373 0.0
C2425 C 0.43189 0.36594 0.12654 0.0
C2426 C 0.37025 0.43228 0.09366 0.0
C2427 C 0.35465 0.42987 0.11046 0.0
C2428 C 0.38492 0.41519 0.08902 0.0
C2429 C 0.38399 0.39548 0.10107 0.0
C2430 C 0.36621 0.39211 0.11548 0.0
C2431 C 0.35191 0.40932 0.12044 0.0
H2432 H 0.84742 0.54341 0.65478 0.0
H2433 H 0.79993 0.51383 0.61105 0.0
H2434 H 0.84743 0.57671 0.6319 0.0
H2435 H 0.8003 0.54636 0.58839 0.0
H2436 H 0.78515 0.61238 0.56381 0.0
H2437 H 0.78701 0.58343 0.59116 0.0
H2438 H 0.85749 0.59101 0.5946 0.0
H2439 H 0.85551 0.62075 0.56746 0.0
C2440 C 0.83712 0.54394 0.6403 0.0
C2441 C 0.82348 0.52604 0.63494 0.0
C2442 C 0.83715 0.56296 0.62719 0.0
C2443 C 0.82352 0.56437 0.60855 0.0
C2444 C 0.8105 0.54616 0.60296 0.0
C2445 C 0.81042 0.52736 0.61595 0.0
C2446 C 0.80104 0.60811 0.57059 0.0
C2447 C 0.82021 0.61863 0.56323 0.0
C2448 C 0.80213 0.59142 0.5862 0.0
C2449 C 0.82247 0.58451 0.59469 0.0
C2450 C 0.84158 0.59592 0.58838 0.0
C2451 C 0.84045 0.61291 0.57281 0.0
H2452 H 0.86438 0.41212 0.34798 0.0
H2453 H 0.9164 0.45468 0.37042 0.0
H2454 H 0.87661 0.38357 0.3731 0.0
H2455 H 0.92857 0.42611 0.39603 0.0
H2456 H 0.89486 0.39653 0.46147 0.0
H2457 H 0.90359 0.41753 0.42863 0.0
H2458 H 0.90487 0.35764 0.39058 0.0
H2459 H 0.89656 0.33644 0.42395 0.0
C2460 C 0.87911 0.41491 0.35757 0.0
C2461 C 0.88937 0.43557 0.35745 0.0
C2462 C 0.88619 0.39853 0.37194 0.0
C2463 C 0.90336 0.40273 0.38676 0.0
C2464 C 0.91522 0.42251 0.38483 0.0
C2465 C 0.90836 0.43879 0.37011 0.0
C2466 C 0.8978 0.38779 0.44624 0.0
C2467 C 0.89486 0.36497 0.4451 0.0
C2468 C 0.903 0.39978 0.42744 0.0
C2469 C 0.90488 0.38923 0.407 0.0
C2470 C 0.90357 0.36615 0.40615 0.0
C2471 C 0.89884 0.35405 0.42518 0.0
H2472 H 0.54733 0.89992 0.36769 0.0
H2473 H 0.57342 0.8417 0.337 0.0
H2474 H 0.57903 0.90112 0.39242 0.0
H2475 H 0.60547 0.84327 0.36095 0.0
H2476 H 0.64019 0.89664 0.43559 0.0
H2477 H 0.6191 0.90268 0.40173 0.0
H2478 H 0.60356 0.83344 0.39946 0.0
H2479 H 0.62443 0.8275 0.43273 0.0
C2480 C 0.56046 0.88812 0.36546 0.0
C2481 C 0.55802 0.87069 0.35058 0.0
C2482 C 0.57859 0.88873 0.37966 0.0
C2483 C 0.5945 0.87196 0.379 0.0
C2484 C 0.59324 0.85613 0.36222 0.0
C2485 C 0.57504 0.85534 0.34833 0.0
C2486 C 0.63257 0.88271 0.42755 0.0
C2487 C 0.63384 0.86162 0.4369 0.0
C2488 C 0.62045 0.88618 0.40824 0.0
C2489 C 0.60973 0.86854 0.3978 0.0
C2490 C 0.61189 0.84737 0.40676 0.0
C2491 C 0.62371 0.84397 0.42603 0.0
H2492 H 0.13895 0.64129 0.43856 0.0
H2493 H 0.14501 0.58195 0.47682 0.0
H2494 H 0.13851 0.61926 0.40467 0.0
H2495 H 0.14366 0.56003 0.4432 0.0
H2496 H 0.12889 0.52637 0.3785 0.0
H2497 H 0.11697 0.55326 0.40608 0.0
H2498 H 0.1746 0.59238 0.39288 0.0
H2499 H 0.18693 0.5652 0.36597 0.0
C2500 C 0.13943 0.62354 0.43973 0.0
C2501 C 0.14211 0.61324 0.46019 0.0
C2502 C 0.1392 0.61101 0.42041 0.0
C2503 C 0.14089 0.58802 0.42145 0.0
C2504 C 0.14204 0.57772 0.44203 0.0
C2505 C 0.14294 0.59023 0.46121 0.0
C2506 C 0.13859 0.5411 0.38096 0.0
C2507 C 0.15887 0.54373 0.37024 0.0
C2508 C 0.1318 0.55639 0.39674 0.0
C2509 C 0.14488 0.57481 0.40148 0.0
C2510 C 0.16414 0.57842 0.38931 0.0
C2511 C 0.17122 0.56286 0.37401 0.0
H2512 H 0.45268 0.13312 0.33604 0.0
H2513 H 0.45162 0.20052 0.35835 0.0
H2514 H 0.42116 0.12493 0.35983 0.0
H2515 H 0.42111 0.19235 0.38222 0.0
H2516 H 0.36159 0.18045 0.41797 0.0
H2517 H 0.38359 0.18369 0.3847 0.0
H2518 H 0.41424 0.12127 0.39903 0.0
H2519 H 0.391 0.11756 0.43172 0.0
C2520 C 0.44557 0.14622 0.34575 0.0
C2521 C 0.45475 0.16744 0.34539 0.0
C2522 C 0.42762 0.1415 0.35948 0.0
C2523 C 0.41849 0.15797 0.37293 0.0
C2524 C 0.42729 0.1793 0.37182 0.0
C2525 C 0.44506 0.18397 0.35823 0.0
C2526 C 0.37256 0.16714 0.41357 0.0
C2527 C 0.37484 0.14888 0.42736 0.0
C2528 C 0.3853 0.16904 0.39464 0.0
C2529 C 0.40117 0.15305 0.3895 0.0
C2530 C 0.40217 0.13388 0.40243 0.0
C2531 C 0.38894 0.13175 0.42118 0.0
H2532 H 0.11 0.44314 0.60946 0.0
H2533 H 0.11194 0.4081 0.67095 0.0
H2534 H 0.10574 0.40863 0.58971 0.0
H2535 H 0.10818 0.37319 0.65109 0.0
H2536 H 0.15711 0.3353 0.60053 0.0
H2537 H 0.14033 0.36021 0.62689 0.0
H2538 H 0.08666 0.37167 0.582 0.0
H2539 H 0.10339 0.3462 0.55564 0.0
C2540 C 0.10856 0.42804 0.61877 0.0
C2541 C 0.1114 0.42813 0.64161 0.0
C2542 C 0.106 0.40827 0.6075 0.0
C2543 C 0.10681 0.3882 0.61886 0.0
C2544 C 0.1075 0.38845 0.64197 0.0
C2545 C 0.10958 0.40837 0.65332 0.0
C2546 C 0.14129 0.34246 0.59667 0.0
C2547 C 0.13169 0.33915 0.57598 0.0
C2548 C 0.13156 0.3566 0.61184 0.0
C2549 C 0.11227 0.36802 0.60641 0.0
C2550 C 0.10155 0.36306 0.58655 0.0
C2551 C 0.1111 0.34851 0.57151 0.0
H2552 H 0.61456 0.21345 0.5454 0.0
H2553 H 0.62788 0.14395 0.55035 0.0
H2554 H 0.58849 0.2107 0.57544 0.0
H2555 H 0.60092 0.14097 0.58011 0.0
H2556 H 0.52288 0.19428 0.60454 0.0
H2557 H 0.55255 0.19579 0.57827 0.0
H2558 H 0.59036 0.15071 0.61789 0.0
H2559 H 0.55992 0.14864 0.6443 0.0
C2560 C 0.61189 0.19754 0.55292 0.0
C2561 C 0.62303 0.17886 0.54529 0.0
C2562 C 0.59685 0.19593 0.5701 0.0
C2563 C 0.59224 0.17552 0.57989 0.0
C2564 C 0.60412 0.15695 0.57296 0.0
C2565 C 0.61947 0.15863 0.55586 0.0
C2566 C 0.5375 0.18469 0.60782 0.0
C2567 C 0.53907 0.17147 0.62668 0.0
C2568 C 0.55464 0.18568 0.59275 0.0
C2569 C 0.57404 0.17369 0.59612 0.0
C2570 C 0.57561 0.16014 0.6148 0.0
C2571 C 0.55824 0.15902 0.62996 0.0
H2572 H 0.47234 0.82556 0.5947 0.0
H2573 H 0.43371 0.86251 0.64143 0.0
H2574 H 0.44165 0.82484 0.56957 0.0
H2575 H 0.40233 0.86138 0.61599 0.0
H2576 H 0.36106 0.87041 0.54974 0.0
H2577 H 0.38908 0.87388 0.57855 0.0
H2578 H 0.40665 0.80579 0.56917 0.0
H2579 H 0.3794 0.80252 0.54031 0.0
C2580 C 0.45722 0.83351 0.59968 0.0
C2581 C 0.4554 0.84382 0.62025 0.0
C2582 C 0.43953 0.83298 0.58525 0.0
C2583 C 0.41937 0.84259 0.59098 0.0
C2584 C 0.41766 0.85375 0.61117 0.0
C2585 C 0.43558 0.85437 0.62572 0.0
C2586 C 0.37076 0.85616 0.55409 0.0
C2587 C 0.36833 0.83631 0.54249 0.0
C2588 C 0.38674 0.85814 0.5706 0.0
C2589 C 0.40039 0.84024 0.57579 0.0
C2590 C 0.39684 0.82007 0.56513 0.0
C2591 C 0.38114 0.81817 0.54863 0.0
loop_
_geom_bond_atom_site_label_1
_geom_bond_atom_site_label_2
_geom_bond_distance
_geom_bond_site_symmetry_2
_ccdc_geom_bond_type
Zn0 O3 2.031 . S
Zn0 O5 2.049 . S
Zn0 O10 2.067 1_455 S
Zn1 O2 1.962 . S
Zn1 O4 1.986 . S
Zn1 O6 1.996 . S
Zn1 O9 1.943 . S
O2 Zn1 1.962 . S
O2 C7 1.254 . S
O3 Zn0 2.031 . S
O3 C7 1.269 . S
O4 Zn1 1.986 . S
O4 C11 1.262 . S
O5 Zn0 2.049 . S
O5 C13 1.260 . S
O6 Zn1 1.996 . S
O6 C13 1.257 . S
C7 O2 1.254 . S
C7 O3 1.269 . S
C8 O9 1.249 1_655 S
C8 O10 1.270 . S
O9 Zn1 1.943 . S
O9 C8 1.249 1_455 S
O10 Zn0 2.067 1_655 S
O10 C8 1.270 . S
C11 O4 1.262 . S
C11 O12 1.232 . S
O12 C11 1.232 . S
C13 O5 1.260 . S
C13 O6 1.257 . S
Zn14 O17 2.031 . S
Zn14 O19 2.049 . S
Zn14 O24 2.067 1_545 S
Zn15 O16 1.962 . S
Zn15 O18 1.986 . S
Zn15 O20 1.996 . S
Zn15 O23 1.943 . S
O16 Zn15 1.962 . S
O16 C21 1.254 . S
O17 Zn14 2.031 . S
O17 C21 1.269 . S
O18 Zn15 1.986 . S
O18 C25 1.262 . S
O19 Zn14 2.049 . S
O19 C27 1.260 . S
O20 Zn15 1.996 . S
O20 C27 1.257 . S
C21 O16 1.254 . S
C21 O17 1.269 . S
C22 O23 1.249 1_565 S
C22 O24 1.270 . S
O23 Zn15 1.943 . S
O23 C22 1.249 1_545 S
O24 Zn14 2.067 1_565 S
O24 C22 1.270 . S
C25 O18 1.262 . S
C25 O26 1.232 . S
O26 C25 1.232 . S
C27 O19 1.260 . S
C27 O20 1.257 . S
Zn28 O31 2.031 . S
Zn28 O33 2.049 . S
Zn28 O38 2.067 1_655 S
Zn29 O30 1.962 . S
Zn29 O32 1.986 . S
Zn29 O34 1.996 . S
Zn29 O37 1.943 . S
O30 Zn29 1.962 . S
O30 C35 1.254 . S
O31 Zn28 2.031 . S
O31 C35 1.269 . S
O32 Zn29 1.986 . S
O32 C39 1.262 . S
O33 Zn28 2.049 . S
O33 C41 1.260 . S
O34 Zn29 1.996 . S
O34 C41 1.257 . S
C35 O30 1.254 . S
C35 O31 1.269 . S
C36 O37 1.249 1_455 S
C36 O38 1.270 . S
O37 Zn29 1.943 . S
O37 C36 1.249 1_655 S
O38 Zn28 2.067 1_455 S
O38 C36 1.270 . S
C39 O32 1.262 . S
C39 O40 1.232 . S
O40 C39 1.232 . S
C41 O33 1.260 . S
C41 O34 1.257 . S
Zn42 O45 2.031 . S
Zn42 O47 2.049 . S
Zn42 O52 2.067 1_565 S
Zn43 O44 1.962 . S
Zn43 O46 1.986 . S
Zn43 O48 1.996 . S
Zn43 O51 1.943 . S
O44 Zn43 1.962 . S
O44 C49 1.254 . S
O45 Zn42 2.031 . S
O45 C49 1.269 . S
O46 Zn43 1.986 . S
O46 C53 1.262 . S
O47 Zn42 2.049 . S
O47 C55 1.260 . S
O48 Zn43 1.996 . S
O48 C55 1.257 . S
C49 O44 1.254 . S
C49 O45 1.269 . S
C50 O51 1.249 1_545 S
C50 O52 1.270 . S
O51 Zn43 1.943 . S
O51 C50 1.249 1_565 S
O52 Zn42 2.067 1_545 S
O52 C50 1.270 . S
C53 O46 1.262 . S
C53 O54 1.232 . S
O54 C53 1.232 . S
C55 O47 1.260 . S
C55 O48 1.257 . S
Zn56 O59 2.031 . S
Zn56 O61 2.049 . S
Zn56 O66 2.067 1_455 S
Zn57 O58 1.962 . S
Zn57 O60 1.986 . S
Zn57 O62 1.996 . S
Zn57 O65 1.943 . S
O58 Zn57 1.962 . S
O58 C63 1.254 . S
O59 Zn56 2.031 . S
O59 C63 1.269 . S
O60 Zn57 1.986 . S
O60 C67 1.262 . S
O61 Zn56 2.049 . S
O61 C69 1.260 . S
O62 Zn57 1.996 . S
O62 C69 1.257 . S
C63 O58 1.254 . S
C63 O59 1.269 . S
C64 O65 1.249 1_655 S
C64 O66 1.270 . S
O65 Zn57 1.943 . S
O65 C64 1.249 1_455 S
O66 Zn56 2.067 1_655 S
O66 C64 1.270 . S
C67 O60 1.262 . S
C67 O68 1.232 . S
O68 C67 1.232 . S
C69 O61 1.260 . S
C69 O62 1.257 . S
Zn70 O73 2.031 . S
Zn70 O75 2.049 . S
Zn70 O80 2.067 1_545 S
Zn71 O72 1.962 . S
Zn71 O74 1.986 . S
Zn71 O76 1.996 . S
Zn71 O79 1.943 . S
O72 Zn71 1.962 . S
O72 C77 1.254 . S
O73 Zn70 2.031 . S
O73 C77 1.269 . S
O74 Zn71 1.986 . S
O74 C81 1.262 . S
O75 Zn70 2.049 . S
O75 C83 1.260 . S
O76 Zn71 1.996 . S
O76 C83 1.257 . S
C77 O72 1.254 . S
C77 O73 1.269 . S
C78 O79 1.249 1_565 S
C78 O80 1.270 . S
O79 Zn71 1.943 . S
O79 C78 1.249 1_545 S
O80 Zn70 2.067 1_565 S
O80 C78 1.270 . S
C81 O74 1.262 . S
C81 O82 1.232 . S
O82 C81 1.232 . S
C83 O75 1.260 . S
C83 O76 1.257 . S
Zn84 O87 2.031 . S
Zn84 O89 2.049 . S
Zn84 O94 2.067 1_655 S
Zn85 O86 1.962 . S
Zn85 O88 1.986 . S
Zn85 O90 1.996 . S
Zn85 O93 1.943 . S
O86 Zn85 1.962 . S
O86 C91 1.254 . S
O87 Zn84 2.031 . S
O87 C91 1.269 . S
O88 Zn85 1.986 . S
O88 C95 1.262 . S
O89 Zn84 2.049 . S
O89 C97 1.260 . S
O90 Zn85 1.996 . S
O90 C97 1.257 . S
C91 O86 1.254 . S
C91 O87 1.269 . S
C92 O93 1.249 1_455 S
C92 O94 1.270 . S
O93 Zn85 1.943 . S
O93 C92 1.249 1_655 S
O94 Zn84 2.067 1_455 S
O94 C92 1.270 . S
C95 O88 1.262 . S
C95 O96 1.232 . S
O96 C95 1.232 . S
C97 O89 1.260 . S
C97 O90 1.257 . S
Zn98 O101 2.031 . S
Zn98 O103 2.049 . S
Zn98 O108 2.067 1_565 S
Zn99 O100 1.962 . S
Zn99 O102 1.986 . S
Zn99 O104 1.996 . S
Zn99 O107 1.943 . S
O100 Zn99 1.962 . S
O100 C105 1.254 . S
O101 Zn98 2.031 . S
O101 C105 1.269 . S
O102 Zn99 1.986 . S
O102 C109 1.262 . S
O103 Zn98 2.049 . S
O103 C111 1.260 . S
O104 Zn99 1.996 . S
O104 C111 1.257 . S
C105 O100 1.254 . S
C105 O101 1.269 . S
C106 O107 1.249 1_545 S
C106 O108 1.270 . S
O107 Zn99 1.943 . S
O107 C106 1.249 1_565 S
O108 Zn98 2.067 1_545 S
O108 C106 1.270 . S
C109 O102 1.262 . S
C109 O110 1.232 . S
O110 C109 1.232 . S
C111 O103 1.260 . S
C111 O104 1.257 . S
Zn112 O115 2.031 . S
Zn112 O117 2.049 . S
Zn112 O122 2.067 1_545 S
Zn113 O114 1.962 . S
Zn113 O116 1.986 . S
Zn113 O118 1.996 . S
Zn113 O121 1.943 . S
O114 Zn113 1.962 . S
O114 C119 1.254 . S
O115 Zn112 2.031 . S
O115 C119 1.269 . S
O116 Zn113 1.986 . S
O116 C123 1.262 . S
O117 Zn112 2.049 . S
O117 C125 1.260 . S
O118 Zn113 1.996 . S
O118 C125 1.257 . S
C119 O114 1.254 . S
C119 O115 1.269 . S
C120 O121 1.249 1_565 S
C120 O122 1.270 . S
O121 Zn113 1.943 . S
O121 C120 1.249 1_545 S
O122 Zn112 2.067 1_565 S
O122 C120 1.270 . S
C123 O116 1.262 . S
C123 O124 1.232 . S
O124 C123 1.232 . S
C125 O117 1.260 . S
C125 O118 1.257 . S
Zn126 O129 2.031 . S
Zn126 O131 2.049 . S
Zn126 O136 2.067 1_655 S
Zn127 O128 1.962 . S
Zn127 O130 1.986 . S
Zn127 O132 1.996 . S
Zn127 O135 1.943 . S
O128 Zn127 1.962 . S
O128 C133 1.254 . S
O129 Zn126 2.031 . S
O129 C133 1.269 . S
O130 Zn127 1.986 . S
O130 C137 1.262 . S
O131 Zn126 2.049 . S
O131 C139 1.260 . S
O132 Zn127 1.996 . S
O132 C139 1.257 . S
C133 O128 1.254 . S
C133 O129 1.269 . S
C134 O135 1.249 1_455 S
C134 O136 1.270 . S
O135 Zn127 1.943 . S
O135 C134 1.249 1_655 S
O136 Zn126 2.067 1_455 S
O136 C134 1.270 . S
C137 O130 1.262 . S
C137 O138 1.232 . S
O138 C137 1.232 . S
C139 O131 1.260 . S
C139 O132 1.257 . S
Zn140 O143 2.031 . S
Zn140 O145 2.049 . S
Zn140 O150 2.067 1_565 S
Zn141 O142 1.962 . S
Zn141 O144 1.986 . S
Zn141 O146 1.996 . S
Zn141 O149 1.943 . S
O142 Zn141 1.962 . S
O142 C147 1.254 . S
O143 Zn140 2.031 . S
O143 C147 1.269 . S
O144 Zn141 1.986 . S
O144 C151 1.262 . S
O145 Zn140 2.049 . S
O145 C153 1.260 . S
O146 Zn141 1.996 . S
O146 C153 1.257 . S
C147 O142 1.254 . S
C147 O143 1.269 . S
C148 O149 1.249 1_545 S
C148 O150 1.270 . S
O149 Zn141 1.943 . S
O149 C148 1.249 1_565 S
O150 Zn140 2.067 1_545 S
O150 C148 1.270 . S
C151 O144 1.262 . S
C151 O152 1.232 . S
O152 C151 1.232 . S
C153 O145 1.260 . S
C153 O146 1.257 . S
Zn154 O157 2.031 . S
Zn154 O159 2.049 . S
Zn154 O164 2.067 1_455 S
Zn155 O156 1.962 . S
Zn155 O158 1.986 . S
Zn155 O160 1.996 . S
Zn155 O163 1.943 . S
O156 Zn155 1.962 . S
O156 C161 1.254 . S
O157 Zn154 2.031 . S
O157 C161 1.269 . S
O158 Zn155 1.986 . S
O158 C165 1.262 . S
O159 Zn154 2.049 . S
O159 C167 1.260 . S
O160 Zn155 1.996 . S
O160 C167 1.257 . S
C161 O156 1.254 . S
C161 O157 1.269 . S
C162 O163 1.249 1_655 S
C162 O164 1.270 . S
O163 Zn155 1.943 . S
O163 C162 1.249 1_455 S
O164 Zn154 2.067 1_655 S
O164 C162 1.270 . S
C165 O158 1.262 . S
C165 O166 1.232 . S
O166 C165 1.232 . S
C167 O159 1.260 . S
C167 O160 1.257 . S
Zn168 O171 2.031 . S
Zn168 O173 2.049 . S
Zn168 O178 2.067 1_565 S
Zn169 O170 1.962 . S
Zn169 O172 1.986 . S
Zn169 O174 1.996 . S
Zn169 O177 1.943 . S
O170 Zn169 1.962 . S
O170 C175 1.254 . S
O171 Zn168 2.031 . S
O171 C175 1.269 . S
O172 Zn169 1.986 . S
O172 C179 1.262 . S
O173 Zn168 2.049 . S
O173 C181 1.260 . S
O174 Zn169 1.996 . S
O174 C181 1.257 . S
C175 O170 1.254 . S
C175 O171 1.269 . S
C176 O177 1.249 1_545 S
C176 O178 1.270 . S
O177 Zn169 1.943 . S
O177 C176 1.249 1_565 S
O178 Zn168 2.067 1_545 S
O178 C176 1.270 . S
C179 O172 1.262 . S
C179 O180 1.232 . S
O180 C179 1.232 . S
C181 O173 1.260 . S
C181 O174 1.257 . S
Zn182 O185 2.031 . S
Zn182 O187 2.049 . S
Zn182 O192 2.067 1_455 S
Zn183 O184 1.962 . S
Zn183 O186 1.986 . S
Zn183 O188 1.996 . S
Zn183 O191 1.943 . S
O184 Zn183 1.962 . S
O184 C189 1.254 . S
O185 Zn182 2.031 . S
O185 C189 1.269 . S
O186 Zn183 1.986 . S
O186 C193 1.262 . S
O187 Zn182 2.049 . S
O187 C195 1.260 . S
O188 Zn183 1.996 . S
O188 C195 1.257 . S
C189 O184 1.254 . S
C189 O185 1.269 . S
C190 O191 1.249 1_655 S
C190 O192 1.270 . S
O191 Zn183 1.943 . S
O191 C190 1.249 1_455 S
O192 Zn182 2.067 1_655 S
O192 C190 1.270 . S
C193 O186 1.262 . S
C193 O194 1.232 . S
O194 C193 1.232 . S
C195 O187 1.260 . S
C195 O188 1.257 . S
Zn196 O199 2.031 . S
Zn196 O201 2.049 . S
Zn196 O206 2.067 1_545 S
Zn197 O198 1.962 . S
Zn197 O200 1.986 . S
Zn197 O202 1.996 . S
Zn197 O205 1.943 . S
O198 Zn197 1.962 . S
O198 C203 1.254 . S
O199 Zn196 2.031 . S
O199 C203 1.269 . S
O200 Zn197 1.986 . S
O200 C207 1.262 . S
O201 Zn196 2.049 . S
O201 C209 1.260 . S
O202 Zn197 1.996 . S
O202 C209 1.257 . S
C203 O198 1.254 . S
C203 O199 1.269 . S
C204 O205 1.249 1_565 S
C204 O206 1.270 . S
O205 Zn197 1.943 . S
O205 C204 1.249 1_545 S
O206 Zn196 2.067 1_565 S
O206 C204 1.270 . S
C207 O200 1.262 . S
C207 O208 1.232 . S
O208 C207 1.232 . S
C209 O201 1.260 . S
C209 O202 1.257 . S
Zn210 O213 2.031 . S
Zn210 O215 2.049 . S
Zn210 O220 2.067 1_655 S
Zn211 O212 1.962 . S
Zn211 O214 1.986 . S
Zn211 O216 1.996 . S
Zn211 O219 1.943 . S
O212 Zn211 1.962 . S
O212 C217 1.254 . S
O213 Zn210 2.031 . S
O213 C217 1.269 . S
O214 Zn211 1.986 . S
O214 C221 1.262 . S
O215 Zn210 2.049 . S
O215 C223 1.260 . S
O216 Zn211 1.996 . S
O216 C223 1.257 . S
C217 O212 1.254 . S
C217 O213 1.269 . S
C218 O219 1.249 1_455 S
C218 O220 1.270 . S
O219 Zn211 1.943 . S
O219 C218 1.249 1_655 S
O220 Zn210 2.067 1_455 S
O220 C218 1.270 . S
C221 O214 1.262 . S
C221 O222 1.232 . S
O222 C221 1.232 . S
C223 O215 1.260 . S
C223 O216 1.257 . S
Zn224 O227 2.031 . S
Zn224 O229 2.049 . S
Zn224 O234 2.067 1_554 S
Zn225 O226 1.962 . S
Zn225 O228 1.986 . S
Zn225 O230 1.996 . S
Zn225 O233 1.943 . S
O226 Zn225 1.962 . S
O226 C231 1.254 . S
O227 Zn224 2.031 . S
O227 C231 1.269 . S
O228 Zn225 1.986 . S
O228 C235 1.262 . S
O229 Zn224 2.049 . S
O229 C237 1.260 . S
O230 Zn225 1.996 . S
O230 C237 1.257 . S
C231 O226 1.254 . S
C231 O227 1.269 . S
C232 O233 1.249 1_556 S
C232 O234 1.270 . S
O233 Zn225 1.943 . S
O233 C232 1.249 1_554 S
O234 Zn224 2.067 1_556 S
O234 C232 1.270 . S
C235 O228 1.262 . S
C235 O236 1.232 . S
O236 C235 1.232 . S
C237 O229 1.260 . S
C237 O230 1.257 . S
Zn238 O241 2.031 . S
Zn238 O243 2.049 . S
Zn238 O248 2.067 1_556 S
Zn239 O240 1.962 . S
Zn239 O242 1.986 . S
Zn239 O244 1.996 . S
Zn239 O247 1.943 . S
O240 Zn239 1.962 . S
O240 C245 1.254 . S
O241 Zn238 2.031 . S
O241 C245 1.269 . S
O242 Zn239 1.986 . S
O242 C249 1.262 . S
O243 Zn238 2.049 . S
O243 C251 1.260 . S
O244 Zn239 1.996 . S
O244 C251 1.257 . S
C245 O240 1.254 . S
C245 O241 1.269 . S
C246 O247 1.249 1_554 S
C246 O248 1.270 . S
O247 Zn239 1.943 . S
O247 C246 1.249 1_556 S
O248 Zn238 2.067 1_554 S
O248 C246 1.270 . S
C249 O242 1.262 . S
C249 O250 1.232 . S
O250 C249 1.232 . S
C251 O243 1.260 . S
C251 O244 1.257 . S
Zn252 O255 2.031 . S
Zn252 O257 2.049 . S
Zn252 O262 2.067 1_556 S
Zn253 O254 1.962 . S
Zn253 O256 1.986 . S
Zn253 O258 1.996 . S
Zn253 O261 1.943 . S
O254 Zn253 1.962 . S
O254 C259 1.254 . S
O255 Zn252 2.031 . S
O255 C259 1.269 . S
O256 Zn253 1.986 . S
O256 C263 1.262 . S
O257 Zn252 2.049 . S
O257 C265 1.260 . S
O258 Zn253 1.996 . S
O258 C265 1.257 . S
C259 O254 1.254 . S
C259 O255 1.269 . S
C260 O261 1.249 1_554 S
C260 O262 1.270 . S
O261 Zn253 1.943 . S
O261 C260 1.249 1_556 S
O262 Zn252 2.067 1_554 S
O262 C260 1.270 . S
C263 O256 1.262 . S
C263 O264 1.232 . S
O264 C263 1.232 . S
C265 O257 1.260 . S
C265 O258 1.257 . S
Zn266 O269 2.031 . S
Zn266 O271 2.049 . S
Zn266 O276 2.067 1_556 S
Zn267 O268 1.962 . S
Zn267 O270 1.986 . S
Zn267 O272 1.996 . S
Zn267 O275 1.943 . S
O268 Zn267 1.962 . S
O268 C273 1.254 . S
O269 Zn266 2.031 . S
O269 C273 1.269 . S
O270 Zn267 1.986 . S
O270 C277 1.262 . S
O271 Zn266 2.049 . S
O271 C279 1.260 . S
O272 Zn267 1.996 . S
O272 C279 1.257 . S
C273 O268 1.254 . S
C273 O269 1.269 . S
C274 O275 1.249 1_554 S
C274 O276 1.270 . S
O275 Zn267 1.943 . S
O275 C274 1.249 1_556 S
O276 Zn266 2.067 1_554 S
O276 C274 1.270 . S
C277 O270 1.262 . S
C277 O278 1.232 . S
O278 C277 1.232 . S
C279 O271 1.260 . S
C279 O272 1.257 . S
Zn280 O283 2.031 . S
Zn280 O285 2.049 . S
Zn280 O290 2.067 1_556 S
Zn281 O282 1.962 . S
Zn281 O284 1.986 . S
Zn281 O286 1.996 . S
Zn281 O289 1.943 . S
O282 Zn281 1.962 . S
O282 C287 1.254 . S
O283 Zn280 2.031 . S
O283 C287 1.269 . S
O284 Zn281 1.986 . S
O284 C291 1.262 . S
O285 Zn280 2.049 . S
O285 C293 1.260 . S
O286 Zn281 1.996 . S
O286 C293 1.257 . S
C287 O282 1.254 . S
C287 O283 1.269 . S
C288 O289 1.249 1_554 S
C288 O290 1.270 . S
O289 Zn281 1.943 . S
O289 C288 1.249 1_556 S
O290 Zn280 2.067 1_554 S
O290 C288 1.270 . S
C291 O284 1.262 . S
C291 O292 1.232 . S
O292 C291 1.232 . S
C293 O285 1.260 . S
C293 O286 1.257 . S
Zn294 O297 2.031 . S
Zn294 O299 2.049 . S
Zn294 O304 2.067 1_554 S
Zn295 O296 1.962 . S
Zn295 O298 1.986 . S
Zn295 O300 1.996 . S
Zn295 O303 1.943 . S
O296 Zn295 1.962 . S
O296 C301 1.254 . S
O297 Zn294 2.031 . S
O297 C301 1.269 . S
O298 Zn295 1.986 . S
O298 C305 1.262 . S
O299 Zn294 2.049 . S
O299 C307 1.260 . S
O300 Zn295 1.996 . S
O300 C307 1.257 . S
C301 O296 1.254 . S
C301 O297 1.269 . S
C302 O303 1.249 1_556 S
C302 O304 1.270 . S
O303 Zn295 1.943 . S
O303 C302 1.249 1_554 S
O304 Zn294 2.067 1_556 S
O304 C302 1.270 . S
C305 O298 1.262 . S
C305 O306 1.232 . S
O306 C305 1.232 . S
C307 O299 1.260 . S
C307 O300 1.257 . S
Zn308 O311 2.031 . S
Zn308 O313 2.049 . S
Zn308 O318 2.067 1_554 S
Zn309 O310 1.962 . S
Zn309 O312 1.986 . S
Zn309 O314 1.996 . S
Zn309 O317 1.943 . S
O310 Zn309 1.962 . S
O310 C315 1.254 . S
O311 Zn308 2.031 . S
O311 C315 1.269 . S
O312 Zn309 1.986 . S
O312 C319 1.262 . S
O313 Zn308 2.049 . S
O313 C321 1.260 . S
O314 Zn309 1.996 . S
O314 C321 1.257 . S
C315 O310 1.254 . S
C315 O311 1.269 . S
C316 O317 1.249 1_556 S
C316 O318 1.270 . S
O317 Zn309 1.943 . S
O317 C316 1.249 1_554 S
O318 Zn308 2.067 1_556 S
O318 C316 1.270 . S
C319 O312 1.262 . S
C319 O320 1.232 . S
O320 C319 1.232 . S
C321 O313 1.260 . S
C321 O314 1.257 . S
Zn322 O325 2.031 . S
Zn322 O327 2.049 . S
Zn322 O332 2.067 1_554 S
Zn323 O324 1.962 . S
Zn323 O326 1.986 . S
Zn323 O328 1.996 . S
Zn323 O331 1.943 . S
O324 Zn323 1.962 . S
O324 C329 1.254 . S
O325 Zn322 2.031 . S
O325 C329 1.269 . S
O326 Zn323 1.986 . S
O326 C333 1.262 . S
O327 Zn322 2.049 . S
O327 C335 1.260 . S
O328 Zn323 1.996 . S
O328 C335 1.257 . S
C329 O324 1.254 . S
C329 O325 1.269 . S
C330 O331 1.249 1_556 S
C330 O332 1.270 . S
O331 Zn323 1.943 . S
O331 C330 1.249 1_554 S
O332 Zn322 2.067 1_556 S
O332 C330 1.270 . S
C333 O326 1.262 . S
C333 O334 1.232 . S
O334 C333 1.232 . S
C335 O327 1.260 . S
C335 O328 1.257 . S
Zn336 O339 2.031 . S
Zn336 O341 2.049 . S
Zn336 O346 2.067 . S
Zn337 O338 1.962 . S
Zn337 O340 1.986 . S
Zn337 O342 1.996 . S
Zn337 O345 1.943 . S
O338 Zn337 1.962 . S
O338 C343 1.254 . S
O339 Zn336 2.031 . S
O339 C343 1.269 . S
O340 Zn337 1.986 . S
O340 C347 1.262 . S
O341 Zn336 2.049 . S
O341 C349 1.260 . S
O342 Zn337 1.996 . S
O342 C349 1.257 . S
C343 O338 1.254 . S
C343 O339 1.269 . S
C344 O345 1.249 . S
C344 O346 1.270 . S
O345 Zn337 1.943 . S
O345 C344 1.249 . S
O346 Zn336 2.067 . S
O346 C344 1.270 . S
C347 O340 1.262 . S
C347 O348 1.232 . S
O348 C347 1.232 . S
C349 O341 1.260 . S
C349 O342 1.257 . S
Zn350 O353 2.031 . S
Zn350 O355 2.049 . S
Zn350 O360 2.067 . S
Zn351 O352 1.962 . S
Zn351 O354 1.986 . S
Zn351 O356 1.996 . S
Zn351 O359 1.943 . S
O352 Zn351 1.962 . S
O352 C357 1.254 . S
O353 Zn350 2.031 . S
O353 C357 1.269 . S
O354 Zn351 1.986 . S
O354 C361 1.262 . S
O355 Zn350 2.049 . S
O355 C363 1.260 . S
O356 Zn351 1.996 . S
O356 C363 1.257 . S
C357 O352 1.254 . S
C357 O353 1.269 . S
C358 O359 1.249 . S
C358 O360 1.270 . S
O359 Zn351 1.943 . S
O359 C358 1.249 . S
O360 Zn350 2.067 . S
O360 C358 1.270 . S
C361 O354 1.262 . S
C361 O362 1.232 . S
O362 C361 1.232 . S
C363 O355 1.260 . S
C363 O356 1.257 . S
Zn364 O367 2.031 . S
Zn364 O369 2.049 . S
Zn364 O374 2.067 . S
Zn365 O366 1.962 . S
Zn365 O368 1.986 . S
Zn365 O370 1.996 . S
Zn365 O373 1.943 . S
O366 Zn365 1.962 . S
O366 C371 1.254 . S
O367 Zn364 2.031 . S
O367 C371 1.269 . S
O368 Zn365 1.986 . S
O368 C375 1.262 . S
O369 Zn364 2.049 . S
O369 C377 1.260 . S
O370 Zn365 1.996 . S
O370 C377 1.257 . S
C371 O366 1.254 . S
C371 O367 1.269 . S
C372 O373 1.249 . S
C372 O374 1.270 . S
O373 Zn365 1.943 . S
O373 C372 1.249 . S
O374 Zn364 2.067 . S
O374 C372 1.270 . S
C375 O368 1.262 . S
C375 O376 1.232 . S
O376 C375 1.232 . S
C377 O369 1.260 . S
C377 O370 1.257 . S
Zn378 O381 2.031 . S
Zn378 O383 2.049 . S
Zn378 O388 2.067 . S
Zn379 O380 1.962 . S
Zn379 O382 1.986 . S
Zn379 O384 1.996 . S
Zn379 O387 1.943 . S
O380 Zn379 1.962 . S
O380 C385 1.254 . S
O381 Zn378 2.031 . S
O381 C385 1.269 . S
O382 Zn379 1.986 . S
O382 C389 1.262 . S
O383 Zn378 2.049 . S
O383 C391 1.260 . S
O384 Zn379 1.996 . S
O384 C391 1.257 . S
C385 O380 1.254 . S
C385 O381 1.269 . S
C386 O387 1.249 . S
C386 O388 1.270 . S
O387 Zn379 1.943 . S
O387 C386 1.249 . S
O388 Zn378 2.067 . S
O388 C386 1.270 . S
C389 O382 1.262 . S
C389 O390 1.232 . S
O390 C389 1.232 . S
C391 O383 1.260 . S
C391 O384 1.257 . S
Zn392 O395 2.031 . S
Zn392 O397 2.049 . S
Zn392 O402 2.067 . S
Zn393 O394 1.962 . S
Zn393 O396 1.986 . S
Zn393 O398 1.996 . S
Zn393 O401 1.943 . S
O394 Zn393 1.962 . S
O394 C399 1.254 . S
O395 Zn392 2.031 . S
O395 C399 1.269 . S
O396 Zn393 1.986 . S
O396 C403 1.262 . S
O397 Zn392 2.049 . S
O397 C405 1.260 . S
O398 Zn393 1.996 . S
O398 C405 1.257 . S
C399 O394 1.254 . S
C399 O395 1.269 . S
C400 O401 1.249 . S
C400 O402 1.270 . S
O401 Zn393 1.943 . S
O401 C400 1.249 . S
O402 Zn392 2.067 . S
O402 C400 1.270 . S
C403 O396 1.262 . S
C403 O404 1.232 . S
O404 C403 1.232 . S
C405 O397 1.260 . S
C405 O398 1.257 . S
Zn406 O409 2.031 . S
Zn406 O411 2.049 . S
Zn406 O416 2.067 . S
Zn407 O408 1.962 . S
Zn407 O410 1.986 . S
Zn407 O412 1.996 . S
Zn407 O415 1.943 . S
O408 Zn407 1.962 . S
O408 C413 1.254 . S
O409 Zn406 2.031 . S
O409 C413 1.269 . S
O410 Zn407 1.986 . S
O410 C417 1.262 . S
O411 Zn406 2.049 . S
O411 C419 1.260 . S
O412 Zn407 1.996 . S
O412 C419 1.257 . S
C413 O408 1.254 . S
C413 O409 1.269 . S
C414 O415 1.249 . S
C414 O416 1.270 . S
O415 Zn407 1.943 . S
O415 C414 1.249 . S
O416 Zn406 2.067 . S
O416 C414 1.270 . S
C417 O410 1.262 . S
C417 O418 1.232 . S
O418 C417 1.232 . S
C419 O411 1.260 . S
C419 O412 1.257 . S
Zn420 O423 2.031 . S
Zn420 O425 2.049 . S
Zn420 O430 2.067 . S
Zn421 O422 1.962 . S
Zn421 O424 1.986 . S
Zn421 O426 1.996 . S
Zn421 O429 1.943 . S
O422 Zn421 1.962 . S
O422 C427 1.254 . S
O423 Zn420 2.031 . S
O423 C427 1.269 . S
O424 Zn421 1.986 . S
O424 C431 1.262 . S
O425 Zn420 2.049 . S
O425 C433 1.260 . S
O426 Zn421 1.996 . S
O426 C433 1.257 . S
C427 O422 1.254 . S
C427 O423 1.269 . S
C428 O429 1.249 . S
C428 O430 1.270 . S
O429 Zn421 1.943 . S
O429 C428 1.249 . S
O430 Zn420 2.067 . S
O430 C428 1.270 . S
C431 O424 1.262 . S
C431 O432 1.232 . S
O432 C431 1.232 . S
C433 O425 1.260 . S
C433 O426 1.257 . S
Zn434 O437 2.031 . S
Zn434 O439 2.049 . S
Zn434 O444 2.067 . S
Zn435 O436 1.962 . S
Zn435 O438 1.986 . S
Zn435 O440 1.996 . S
Zn435 O443 1.943 . S
O436 Zn435 1.962 . S
O436 C441 1.254 . S
O437 Zn434 2.031 . S
O437 C441 1.269 . S
O438 Zn435 1.986 . S
O438 C445 1.262 . S
O439 Zn434 2.049 . S
O439 C447 1.260 . S
O440 Zn435 1.996 . S
O440 C447 1.257 . S
C441 O436 1.254 . S
C441 O437 1.269 . S
C442 O443 1.249 . S
C442 O444 1.270 . S
O443 Zn435 1.943 . S
O443 C442 1.249 . S
O444 Zn434 2.067 . S
O444 C442 1.270 . S
C445 O438 1.262 . S
C445 O446 1.232 . S
O446 C445 1.232 . S
C447 O439 1.260 . S
C447 O440 1.257 . S
Zn448 O451 2.031 . S
Zn448 O453 2.049 . S
Zn448 O458 2.067 . S
Zn449 O450 1.962 . S
Zn449 O452 1.986 . S
Zn449 O454 1.996 . S
Zn449 O457 1.943 . S
O450 Zn449 1.962 . S
O450 C455 1.254 . S
O451 Zn448 2.031 . S
O451 C455 1.269 . S
O452 Zn449 1.986 . S
O452 C459 1.262 . S
O453 Zn448 2.049 . S
O453 C461 1.260 . S
O454 Zn449 1.996 . S
O454 C461 1.257 . S
C455 O450 1.254 . S
C455 O451 1.269 . S
C456 O457 1.249 . S
C456 O458 1.270 . S
O457 Zn449 1.943 . S
O457 C456 1.249 . S
O458 Zn448 2.067 . S
O458 C456 1.270 . S
C459 O452 1.262 . S
C459 O460 1.232 . S
O460 C459 1.232 . S
C461 O453 1.260 . S
C461 O454 1.257 . S
Zn462 O465 2.031 . S
Zn462 O467 2.049 . S
Zn462 O472 2.067 . S
Zn463 O464 1.962 . S
Zn463 O466 1.986 . S
Zn463 O468 1.996 . S
Zn463 O471 1.943 . S
O464 Zn463 1.962 . S
O464 C469 1.254 . S
O465 Zn462 2.031 . S
O465 C469 1.269 . S
O466 Zn463 1.986 . S
O466 C473 1.262 . S
O467 Zn462 2.049 . S
O467 C475 1.260 . S
O468 Zn463 1.996 . S
O468 C475 1.257 . S
C469 O464 1.254 . S
C469 O465 1.269 . S
C470 O471 1.249 . S
C470 O472 1.270 . S
O471 Zn463 1.943 . S
O471 C470 1.249 . S
O472 Zn462 2.067 . S
O472 C470 1.270 . S
C473 O466 1.262 . S
C473 O474 1.232 . S
O474 C473 1.232 . S
C475 O467 1.260 . S
C475 O468 1.257 . S
Zn476 O479 2.031 . S
Zn476 O481 2.049 . S
Zn476 O486 2.067 . S
Zn477 O478 1.962 . S
Zn477 O480 1.986 . S
Zn477 O482 1.996 . S
Zn477 O485 1.943 . S
O478 Zn477 1.962 . S
O478 C483 1.254 . S
O479 Zn476 2.031 . S
O479 C483 1.269 . S
O480 Zn477 1.986 . S
O480 C487 1.262 . S
O481 Zn476 2.049 . S
O481 C489 1.260 . S
O482 Zn477 1.996 . S
O482 C489 1.257 . S
C483 O478 1.254 . S
C483 O479 1.269 . S
C484 O485 1.249 . S
C484 O486 1.270 . S
O485 Zn477 1.943 . S
O485 C484 1.249 . S
O486 Zn476 2.067 . S
O486 C484 1.270 . S
C487 O480 1.262 . S
C487 O488 1.232 . S
O488 C487 1.232 . S
C489 O481 1.260 . S
C489 O482 1.257 . S
Zn490 O493 2.031 . S
Zn490 O495 2.049 . S
Zn490 O500 2.067 . S
Zn491 O492 1.962 . S
Zn491 O494 1.986 . S
Zn491 O496 1.996 . S
Zn491 O499 1.943 . S
O492 Zn491 1.962 . S
O492 C497 1.254 . S
O493 Zn490 2.031 . S
O493 C497 1.269 . S
O494 Zn491 1.986 . S
O494 C501 1.262 . S
O495 Zn490 2.049 . S
O495 C503 1.260 . S
O496 Zn491 1.996 . S
O496 C503 1.257 . S
C497 O492 1.254 . S
C497 O493 1.269 . S
C498 O499 1.249 . S
C498 O500 1.270 . S
O499 Zn491 1.943 . S
O499 C498 1.249 . S
O500 Zn490 2.067 . S
O500 C498 1.270 . S
C501 O494 1.262 . S
C501 O502 1.232 . S
O502 C501 1.232 . S
C503 O495 1.260 . S
C503 O496 1.257 . S
Zn504 O507 2.031 . S
Zn504 O509 2.049 . S
Zn504 O514 2.067 . S
Zn505 O506 1.962 . S
Zn505 O508 1.986 . S
Zn505 O510 1.996 . S
Zn505 O513 1.943 . S
O506 Zn505 1.962 . S
O506 C511 1.254 . S
O507 Zn504 2.031 . S
O507 C511 1.269 . S
O508 Zn505 1.986 . S
O508 C515 1.262 . S
O509 Zn504 2.049 . S
O509 C517 1.260 . S
O510 Zn505 1.996 . S
O510 C517 1.257 . S
C511 O506 1.254 . S
C511 O507 1.269 . S
C512 O513 1.249 . S
C512 O514 1.270 . S
O513 Zn505 1.943 . S
O513 C512 1.249 . S
O514 Zn504 2.067 . S
O514 C512 1.270 . S
C515 O508 1.262 . S
C515 O516 1.232 . S
O516 C515 1.232 . S
C517 O509 1.260 . S
C517 O510 1.257 . S
Zn518 O521 2.031 . S
Zn518 O523 2.049 . S
Zn518 O528 2.067 . S
Zn519 O520 1.962 . S
Zn519 O522 1.986 . S
Zn519 O524 1.996 . S
Zn519 O527 1.943 . S
O520 Zn519 1.962 . S
O520 C525 1.254 . S
O521 Zn518 2.031 . S
O521 C525 1.269 . S
O522 Zn519 1.986 . S
O522 C529 1.262 . S
O523 Zn518 2.049 . S
O523 C531 1.260 . S
O524 Zn519 1.996 . S
O524 C531 1.257 . S
C525 O520 1.254 . S
C525 O521 1.269 . S
C526 O527 1.249 . S
C526 O528 1.270 . S
O527 Zn519 1.943 . S
O527 C526 1.249 . S
O528 Zn518 2.067 . S
O528 C526 1.270 . S
C529 O522 1.262 . S
C529 O530 1.232 . S
O530 C529 1.232 . S
C531 O523 1.260 . S
C531 O524 1.257 . S
Zn532 O535 2.031 . S
Zn532 O537 2.049 . S
Zn532 O542 2.067 . S
Zn533 O534 1.962 . S
Zn533 O536 1.986 . S
Zn533 O538 1.996 . S
Zn533 O541 1.943 . S
O534 Zn533 1.962 . S
O534 C539 1.254 . S
O535 Zn532 2.031 . S
O535 C539 1.269 . S
O536 Zn533 1.986 . S
O536 C543 1.262 . S
O537 Zn532 2.049 . S
O537 C545 1.260 . S
O538 Zn533 1.996 . S
O538 C545 1.257 . S
C539 O534 1.254 . S
C539 O535 1.269 . S
C540 O541 1.249 . S
C540 O542 1.270 . S
O541 Zn533 1.943 . S
O541 C540 1.249 . S
O542 Zn532 2.067 . S
O542 C540 1.270 . S
C543 O536 1.262 . S
C543 O544 1.232 . S
O544 C543 1.232 . S
C545 O537 1.260 . S
C545 O538 1.257 . S
Zn546 O549 2.031 . S
Zn546 O551 2.049 . S
Zn546 O556 2.067 . S
Zn547 O548 1.962 . S
Zn547 O550 1.986 . S
Zn547 O552 1.996 . S
Zn547 O555 1.943 . S
O548 Zn547 1.962 . S
O548 C553 1.254 . S
O549 Zn546 2.031 . S
O549 C553 1.269 . S
O550 Zn547 1.986 . S
O550 C557 1.262 . S
O551 Zn546 2.049 . S
O551 C559 1.260 . S
O552 Zn547 1.996 . S
O552 C559 1.257 . S
C553 O548 1.254 . S
C553 O549 1.269 . S
C554 O555 1.249 . S
C554 O556 1.270 . S
O555 Zn547 1.943 . S
O555 C554 1.249 . S
O556 Zn546 2.067 . S
O556 C554 1.270 . S
C557 O550 1.262 . S
C557 O558 1.232 . S
O558 C557 1.232 . S
C559 O551 1.260 . S
C559 O552 1.257 . S
Zn560 O563 2.031 . S
Zn560 O565 2.049 . S
Zn560 O570 2.067 . S
Zn561 O562 1.962 . S
Zn561 O564 1.986 . S
Zn561 O566 1.996 . S
Zn561 O569 1.943 . S
O562 Zn561 1.962 . S
O562 C567 1.254 . S
O563 Zn560 2.031 . S
O563 C567 1.269 . S
O564 Zn561 1.986 . S
O564 C571 1.262 . S
O565 Zn560 2.049 . S
O565 C573 1.260 . S
O566 Zn561 1.996 . S
O566 C573 1.257 . S
C567 O562 1.254 . S
C567 O563 1.269 . S
C568 O569 1.249 . S
C568 O570 1.270 . S
O569 Zn561 1.943 . S
O569 C568 1.249 . S
O570 Zn560 2.067 . S
O570 C568 1.270 . S
C571 O564 1.262 . S
C571 O572 1.232 . S
O572 C571 1.232 . S
C573 O565 1.260 . S
C573 O566 1.257 . S
Zn574 O577 2.031 . S
Zn574 O579 2.049 . S
Zn574 O584 2.067 . S
Zn575 O576 1.962 . S
Zn575 O578 1.986 . S
Zn575 O580 1.996 . S
Zn575 O583 1.943 . S
O576 Zn575 1.962 . S
O576 C581 1.254 . S
O577 Zn574 2.031 . S
O577 C581 1.269 . S
O578 Zn575 1.986 . S
O578 C585 1.262 . S
O579 Zn574 2.049 . S
O579 C587 1.260 . S
O580 Zn575 1.996 . S
O580 C587 1.257 . S
C581 O576 1.254 . S
C581 O577 1.269 . S
C582 O583 1.249 . S
C582 O584 1.270 . S
O583 Zn575 1.943 . S
O583 C582 1.249 . S
O584 Zn574 2.067 . S
O584 C582 1.270 . S
C585 O578 1.262 . S
C585 O586 1.232 . S
O586 C585 1.232 . S
C587 O579 1.260 . S
C587 O580 1.257 . S
Zn588 O591 2.031 . S
Zn588 O593 2.049 . S
Zn588 O598 2.067 . S
Zn589 O590 1.962 . S
Zn589 O592 1.986 . S
Zn589 O594 1.996 . S
Zn589 O597 1.943 . S
O590 Zn589 1.962 . S
O590 C595 1.254 . S
O591 Zn588 2.031 . S
O591 C595 1.269 . S
O592 Zn589 1.986 . S
O592 C599 1.262 . S
O593 Zn588 2.049 . S
O593 C601 1.260 . S
O594 Zn589 1.996 . S
O594 C601 1.257 . S
C595 O590 1.254 . S
C595 O591 1.269 . S
C596 O597 1.249 . S
C596 O598 1.270 . S
O597 Zn589 1.943 . S
O597 C596 1.249 . S
O598 Zn588 2.067 . S
O598 C596 1.270 . S
C599 O592 1.262 . S
C599 O600 1.232 . S
O600 C599 1.232 . S
C601 O593 1.260 . S
C601 O594 1.257 . S
Zn602 O605 2.031 . S
Zn602 O607 2.049 . S
Zn602 O612 2.067 . S
Zn603 O604 1.962 . S
Zn603 O606 1.986 . S
Zn603 O608 1.996 . S
Zn603 O611 1.943 . S
O604 Zn603 1.962 . S
O604 C609 1.254 . S
O605 Zn602 2.031 . S
O605 C609 1.269 . S
O606 Zn603 1.986 . S
O606 C613 1.262 . S
O607 Zn602 2.049 . S
O607 C615 1.260 . S
O608 Zn603 1.996 . S
O608 C615 1.257 . S
C609 O604 1.254 . S
C609 O605 1.269 . S
C610 O611 1.249 . S
C610 O612 1.270 . S
O611 Zn603 1.943 . S
O611 C610 1.249 . S
O612 Zn602 2.067 . S
O612 C610 1.270 . S
C613 O606 1.262 . S
C613 O614 1.232 . S
O614 C613 1.232 . S
C615 O607 1.260 . S
C615 O608 1.257 . S
Zn616 O619 2.031 . S
Zn616 O621 2.049 . S
Zn616 O626 2.067 . S
Zn617 O618 1.962 . S
Zn617 O620 1.986 . S
Zn617 O622 1.996 . S
Zn617 O625 1.943 . S
O618 Zn617 1.962 . S
O618 C623 1.254 . S
O619 Zn616 2.031 . S
O619 C623 1.269 . S
O620 Zn617 1.986 . S
O620 C627 1.262 . S
O621 Zn616 2.049 . S
O621 C629 1.260 . S
O622 Zn617 1.996 . S
O622 C629 1.257 . S
C623 O618 1.254 . S
C623 O619 1.269 . S
C624 O625 1.249 . S
C624 O626 1.270 . S
O625 Zn617 1.943 . S
O625 C624 1.249 . S
O626 Zn616 2.067 . S
O626 C624 1.270 . S
C627 O620 1.262 . S
C627 O628 1.232 . S
O628 C627 1.232 . S
C629 O621 1.260 . S
C629 O622 1.257 . S
Zn630 O633 2.031 . S
Zn630 O635 2.049 . S
Zn630 O640 2.067 . S
Zn631 O632 1.962 . S
Zn631 O634 1.986 . S
Zn631 O636 1.996 . S
Zn631 O639 1.943 . S
O632 Zn631 1.962 . S
O632 C637 1.254 . S
O633 Zn630 2.031 . S
O633 C637 1.269 . S
O634 Zn631 1.986 . S
O634 C641 1.262 . S
O635 Zn630 2.049 . S
O635 C643 1.260 . S
O636 Zn631 1.996 . S
O636 C643 1.257 . S
C637 O632 1.254 . S
C637 O633 1.269 . S
C638 O639 1.249 . S
C638 O640 1.270 . S
O639 Zn631 1.943 . S
O639 C638 1.249 . S
O640 Zn630 2.067 . S
O640 C638 1.270 . S
C641 O634 1.262 . S
C641 O642 1.232 . S
O642 C641 1.232 . S
C643 O635 1.260 . S
C643 O636 1.257 . S
Zn644 O647 2.031 . S
Zn644 O649 2.049 . S
Zn644 O654 2.067 . S
Zn645 O646 1.962 . S
Zn645 O648 1.986 . S
Zn645 O650 1.996 . S
Zn645 O653 1.943 . S
O646 Zn645 1.962 . S
O646 C651 1.254 . S
O647 Zn644 2.031 . S
O647 C651 1.269 . S
O648 Zn645 1.986 . S
O648 C655 1.262 . S
O649 Zn644 2.049 . S
O649 C657 1.260 . S
O650 Zn645 1.996 . S
O650 C657 1.257 . S
C651 O646 1.254 . S
C651 O647 1.269 . S
C652 O653 1.249 . S
C652 O654 1.270 . S
O653 Zn645 1.943 . S
O653 C652 1.249 . S
O654 Zn644 2.067 . S
O654 C652 1.270 . S
C655 O648 1.262 . S
C655 O656 1.232 . S
O656 C655 1.232 . S
C657 O649 1.260 . S
C657 O650 1.257 . S
Zn658 O661 2.031 . S
Zn658 O663 2.049 . S
Zn658 O668 2.067 . S
Zn659 O660 1.962 . S
Zn659 O662 1.986 . S
Zn659 O664 1.996 . S
Zn659 O667 1.943 . S
O660 Zn659 1.962 . S
O660 C665 1.254 . S
O661 Zn658 2.031 . S
O661 C665 1.269 . S
O662 Zn659 1.986 . S
O662 C669 1.262 . S
O663 Zn658 2.049 . S
O663 C671 1.260 . S
O664 Zn659 1.996 . S
O664 C671 1.257 . S
C665 O660 1.254 . S
C665 O661 1.269 . S
C666 O667 1.249 . S
C666 O668 1.270 . S
O667 Zn659 1.943 . S
O667 C666 1.249 . S
O668 Zn658 2.067 . S
O668 C666 1.270 . S
C669 O662 1.262 . S
C669 O670 1.232 . S
O670 C669 1.232 . S
C671 O663 1.260 . S
C671 O664 1.257 . S
H672 C680 0.950 . S
H673 C685 0.950 . S
H674 C682 0.950 . S
H675 C684 0.950 . S
H676 C686 0.950 . S
H677 C688 0.950 . S
H678 C690 0.950 . S
H679 C691 0.950 . S
C680 H672 0.950 . S
C680 C681 1.386 . S
C680 C682 1.391 . S
C681 C680 1.386 . S
C681 C685 1.393 . S
C682 H674 0.950 . S
C682 C680 1.391 . S
C682 C683 1.400 . S
C683 C682 1.400 . S
C683 C684 1.398 . S
C683 C689 1.491 . S
C684 H675 0.950 . S
C684 C683 1.398 . S
C684 C685 1.391 . S
C685 H673 0.950 . S
C685 C681 1.393 . S
C685 C684 1.391 . S
C686 H676 0.950 . S
C686 C687 1.386 . S
C686 C688 1.391 . S
C687 C686 1.386 . S
C687 C691 1.393 . S
C688 H677 0.950 . S
C688 C686 1.391 . S
C688 C689 1.400 . S
C689 C683 1.491 . S
C689 C688 1.400 . S
C689 C690 1.398 . S
C690 H678 0.950 . S
C690 C689 1.398 . S
C690 C691 1.391 . S
C691 H679 0.950 . S
C691 C687 1.393 . S
C691 C690 1.391 . S
H692 C700 0.950 . S
H693 C705 0.950 . S
H694 C702 0.950 . S
H695 C704 0.950 . S
H696 C706 0.950 . S
H697 C708 0.950 . S
H698 C710 0.950 . S
H699 C711 0.950 . S
C700 H692 0.950 . S
C700 C701 1.386 . S
C700 C702 1.391 . S
C701 C700 1.386 . S
C701 C705 1.393 . S
C702 H694 0.950 . S
C702 C700 1.391 . S
C702 C703 1.400 . S
C703 C702 1.400 . S
C703 C704 1.398 . S
C703 C709 1.491 . S
C704 H695 0.950 . S
C704 C703 1.398 . S
C704 C705 1.391 . S
C705 H693 0.950 . S
C705 C701 1.393 . S
C705 C704 1.391 . S
C706 H696 0.950 . S
C706 C707 1.386 . S
C706 C708 1.391 . S
C707 C706 1.386 . S
C707 C711 1.393 . S
C708 H697 0.950 . S
C708 C706 1.391 . S
C708 C709 1.400 . S
C709 C703 1.491 . S
C709 C708 1.400 . S
C709 C710 1.398 . S
C710 H698 0.950 . S
C710 C709 1.398 . S
C710 C711 1.391 . S
C711 H699 0.950 . S
C711 C707 1.393 . S
C711 C710 1.391 . S
H712 C720 0.950 . S
H713 C725 0.950 . S
H714 C722 0.950 . S
H715 C724 0.950 . S
H716 C726 0.950 . S
H717 C728 0.950 . S
H718 C730 0.950 . S
H719 C731 0.950 . S
C720 H712 0.950 . S
C720 C721 1.386 . S
C720 C722 1.391 . S
C721 C720 1.386 . S
C721 C725 1.393 . S
C722 H714 0.950 . S
C722 C720 1.391 . S
C722 C723 1.400 . S
C723 C722 1.400 . S
C723 C724 1.398 . S
C723 C729 1.491 . S
C724 H715 0.950 . S
C724 C723 1.398 . S
C724 C725 1.391 . S
C725 H713 0.950 . S
C725 C721 1.393 . S
C725 C724 1.391 . S
C726 H716 0.950 . S
C726 C727 1.386 . S
C726 C728 1.391 . S
C727 C726 1.386 . S
C727 C731 1.393 . S
C728 H717 0.950 . S
C728 C726 1.391 . S
C728 C729 1.400 . S
C729 C723 1.491 . S
C729 C728 1.400 . S
C729 C730 1.398 . S
C730 H718 0.950 . S
C730 C729 1.398 . S
C730 C731 1.391 . S
C731 H719 0.950 . S
C731 C727 1.393 . S
C731 C730 1.391 . S
H732 C740 0.950 . S
H733 C745 0.950 . S
H734 C742 0.950 . S
H735 C744 0.950 . S
H736 C746 0.950 . S
H737 C748 0.950 . S
H738 C750 0.950 . S
H739 C751 0.950 . S
C740 H732 0.950 . S
C740 C741 1.386 . S
C740 C742 1.391 . S
C741 C740 1.386 . S
C741 C745 1.393 . S
C742 H734 0.950 . S
C742 C740 1.391 . S
C742 C743 1.400 . S
C743 C742 1.400 . S
C743 C744 1.398 . S
C743 C749 1.491 . S
C744 H735 0.950 . S
C744 C743 1.398 . S
C744 C745 1.391 . S
C745 H733 0.950 . S
C745 C741 1.393 . S
C745 C744 1.391 . S
C746 H736 0.950 . S
C746 C747 1.386 . S
C746 C748 1.391 . S
C747 C746 1.386 . S
C747 C751 1.393 . S
C748 H737 0.950 . S
C748 C746 1.391 . S
C748 C749 1.400 . S
C749 C743 1.491 . S
C749 C748 1.400 . S
C749 C750 1.398 . S
C750 H738 0.950 . S
C750 C749 1.398 . S
C750 C751 1.391 . S
C751 H739 0.950 . S
C751 C747 1.393 . S
C751 C750 1.391 . S
H752 C760 0.950 . S
H753 C765 0.950 . S
H754 C762 0.950 . S
H755 C764 0.950 . S
H756 C766 0.950 . S
H757 C768 0.950 . S
H758 C770 0.950 . S
H759 C771 0.950 . S
C760 H752 0.950 . S
C760 C761 1.386 . S
C760 C762 1.391 . S
C761 C760 1.386 . S
C761 C765 1.393 . S
C762 H754 0.950 . S
C762 C760 1.391 . S
C762 C763 1.400 . S
C763 C762 1.400 . S
C763 C764 1.398 . S
C763 C769 1.491 . S
C764 H755 0.950 . S
C764 C763 1.398 . S
C764 C765 1.391 . S
C765 H753 0.950 . S
C765 C761 1.393 . S
C765 C764 1.391 . S
C766 H756 0.950 . S
C766 C767 1.386 . S
C766 C768 1.391 . S
C767 C766 1.386 . S
C767 C771 1.393 . S
C768 H757 0.950 . S
C768 C766 1.391 . S
C768 C769 1.400 . S
C769 C763 1.491 . S
C769 C768 1.400 . S
C769 C770 1.398 . S
C770 H758 0.950 . S
C770 C769 1.398 . S
C770 C771 1.391 . S
C771 H759 0.950 . S
C771 C767 1.393 . S
C771 C770 1.391 . S
H772 C780 0.950 . S
H773 C785 0.950 . S
H774 C782 0.950 . S
H775 C784 0.950 . S
H776 C786 0.950 . S
H777 C788 0.950 . S
H778 C790 0.950 . S
H779 C791 0.950 . S
C780 H772 0.950 . S
C780 C781 1.386 . S
C780 C782 1.391 . S
C781 C780 1.386 . S
C781 C785 1.393 . S
C782 H774 0.950 . S
C782 C780 1.391 . S
C782 C783 1.400 . S
C783 C782 1.400 . S
C783 C784 1.398 . S
C783 C789 1.491 . S
C784 H775 0.950 . S
C784 C783 1.398 . S
C784 C785 1.391 . S
C785 H773 0.950 . S
C785 C781 1.393 . S
C785 C784 1.391 . S
C786 H776 0.950 . S
C786 C787 1.386 . S
C786 C788 1.391 . S
C787 C786 1.386 . S
C787 C791 1.393 . S
C788 H777 0.950 . S
C788 C786 1.391 . S
C788 C789 1.400 . S
C789 C783 1.491 . S
C789 C788 1.400 . S
C789 C790 1.398 . S
C790 H778 0.950 . S
C790 C789 1.398 . S
C790 C791 1.391 . S
C791 H779 0.950 . S
C791 C787 1.393 . S
C791 C790 1.391 . S
H792 C800 0.950 . S
H793 C805 0.950 . S
H794 C802 0.950 . S
H795 C804 0.950 . S
H796 C806 0.950 . S
H797 C808 0.950 . S
H798 C810 0.950 . S
H799 C811 0.950 . S
C800 H792 0.950 . S
C800 C801 1.386 . S
C800 C802 1.391 . S
C801 C800 1.386 . S
C801 C805 1.393 . S
C802 H794 0.950 . S
C802 C800 1.391 . S
C802 C803 1.400 . S
C803 C802 1.400 . S
C803 C804 1.398 . S
C803 C809 1.491 . S
C804 H795 0.950 . S
C804 C803 1.398 . S
C804 C805 1.391 . S
C805 H793 0.950 . S
C805 C801 1.393 . S
C805 C804 1.391 . S
C806 H796 0.950 . S
C806 C807 1.386 . S
C806 C808 1.391 . S
C807 C806 1.386 . S
C807 C811 1.393 . S
C808 H797 0.950 . S
C808 C806 1.391 . S
C808 C809 1.400 . S
C809 C803 1.491 . S
C809 C808 1.400 . S
C809 C810 1.398 . S
C810 H798 0.950 . S
C810 C809 1.398 . S
C810 C811 1.391 . S
C811 H799 0.950 . S
C811 C807 1.393 . S
C811 C810 1.391 . S
H812 C820 0.950 . S
H813 C825 0.950 . S
H814 C822 0.950 . S
H815 C824 0.950 . S
H816 C826 0.950 . S
H817 C828 0.950 . S
H818 C830 0.950 . S
H819 C831 0.950 . S
C820 H812 0.950 . S
C820 C821 1.386 . S
C820 C822 1.391 . S
C821 C820 1.386 . S
C821 C825 1.393 . S
C822 H814 0.950 . S
C822 C820 1.391 . S
C822 C823 1.400 . S
C823 C822 1.400 . S
C823 C824 1.398 . S
C823 C829 1.491 . S
C824 H815 0.950 . S
C824 C823 1.398 . S
C824 C825 1.391 . S
C825 H813 0.950 . S
C825 C821 1.393 . S
C825 C824 1.391 . S
C826 H816 0.950 . S
C826 C827 1.386 . S
C826 C828 1.391 . S
C827 C826 1.386 . S
C827 C831 1.393 . S
C828 H817 0.950 . S
C828 C826 1.391 . S
C828 C829 1.400 . S
C829 C823 1.491 . S
C829 C828 1.400 . S
C829 C830 1.398 . S
C830 H818 0.950 . S
C830 C829 1.398 . S
C830 C831 1.391 . S
C831 H819 0.950 . S
C831 C827 1.393 . S
C831 C830 1.391 . S
H832 C840 0.950 . S
H833 C845 0.950 . S
H834 C842 0.950 . S
H835 C844 0.950 . S
H836 C846 0.950 . S
H837 C848 0.950 . S
H838 C850 0.950 . S
H839 C851 0.950 . S
C840 H832 0.950 . S
C840 C841 1.386 . S
C840 C842 1.391 . S
C841 C840 1.386 . S
C841 C845 1.393 . S
C842 H834 0.950 . S
C842 C840 1.391 . S
C842 C843 1.400 . S
C843 C842 1.400 . S
C843 C844 1.398 . S
C843 C849 1.491 . S
C844 H835 0.950 . S
C844 C843 1.398 . S
C844 C845 1.391 . S
C845 H833 0.950 . S
C845 C841 1.393 . S
C845 C844 1.391 . S
C846 H836 0.950 . S
C846 C847 1.386 . S
C846 C848 1.391 . S
C847 C846 1.386 . S
C847 C851 1.393 . S
C848 H837 0.950 . S
C848 C846 1.391 . S
C848 C849 1.400 . S
C849 C843 1.491 . S
C849 C848 1.400 . S
C849 C850 1.398 . S
C850 H838 0.950 . S
C850 C849 1.398 . S
C850 C851 1.391 . S
C851 H839 0.950 . S
C851 C847 1.393 . S
C851 C850 1.391 . S
H852 C860 0.950 . S
H853 C865 0.950 . S
H854 C862 0.950 . S
H855 C864 0.950 . S
H856 C866 0.950 . S
H857 C868 0.950 . S
H858 C870 0.950 . S
H859 C871 0.950 . S
C860 H852 0.950 . S
C860 C861 1.386 . S
C860 C862 1.391 . S
C861 C860 1.386 . S
C861 C865 1.393 . S
C862 H854 0.950 . S
C862 C860 1.391 . S
C862 C863 1.400 . S
C863 C862 1.400 . S
C863 C864 1.398 . S
C863 C869 1.491 . S
C864 H855 0.950 . S
C864 C863 1.398 . S
C864 C865 1.391 . S
C865 H853 0.950 . S
C865 C861 1.393 . S
C865 C864 1.391 . S
C866 H856 0.950 . S
C866 C867 1.386 . S
C866 C868 1.391 . S
C867 C866 1.386 . S
C867 C871 1.393 . S
C868 H857 0.950 . S
C868 C866 1.391 . S
C868 C869 1.400 . S
C869 C863 1.491 . S
C869 C868 1.400 . S
C869 C870 1.398 . S
C870 H858 0.950 . S
C870 C869 1.398 . S
C870 C871 1.391 . S
C871 H859 0.950 . S
C871 C867 1.393 . S
C871 C870 1.391 . S
H872 C880 0.950 . S
H873 C885 0.950 . S
H874 C882 0.950 . S
H875 C884 0.950 . S
H876 C886 0.950 . S
H877 C888 0.950 . S
H878 C890 0.950 . S
H879 C891 0.950 . S
C880 H872 0.950 . S
C880 C881 1.386 . S
C880 C882 1.391 . S
C881 C880 1.386 . S
C881 C885 1.393 . S
C882 H874 0.950 . S
C882 C880 1.391 . S
C882 C883 1.400 . S
C883 C882 1.400 . S
C883 C884 1.398 . S
C883 C889 1.491 . S
C884 H875 0.950 . S
C884 C883 1.398 . S
C884 C885 1.391 . S
C885 H873 0.950 . S
C885 C881 1.393 . S
C885 C884 1.391 . S
C886 H876 0.950 . S
C886 C887 1.386 . S
C886 C888 1.391 . S
C887 C886 1.386 . S
C887 C891 1.393 . S
C888 H877 0.950 . S
C888 C886 1.391 . S
C888 C889 1.400 . S
C889 C883 1.491 . S
C889 C888 1.400 . S
C889 C890 1.398 . S
C890 H878 0.950 . S
C890 C889 1.398 . S
C890 C891 1.391 . S
C891 H879 0.950 . S
C891 C887 1.393 . S
C891 C890 1.391 . S
H892 C900 0.950 . S
H893 C905 0.950 . S
H894 C902 0.950 . S
H895 C904 0.950 . S
H896 C906 0.950 . S
H897 C908 0.950 . S
H898 C910 0.950 . S
H899 C911 0.950 . S
C900 H892 0.950 . S
C900 C901 1.386 . S
C900 C902 1.391 . S
C901 C900 1.386 . S
C901 C905 1.393 . S
C902 H894 0.950 . S
C902 C900 1.391 . S
C902 C903 1.400 . S
C903 C902 1.400 . S
C903 C904 1.398 . S
C903 C909 1.491 . S
C904 H895 0.950 . S
C904 C903 1.398 . S
C904 C905 1.391 . S
C905 H893 0.950 . S
C905 C901 1.393 . S
C905 C904 1.391 . S
C906 H896 0.950 . S
C906 C907 1.386 . S
C906 C908 1.391 . S
C907 C906 1.386 . S
C907 C911 1.393 . S
C908 H897 0.950 . S
C908 C906 1.391 . S
C908 C909 1.400 . S
C909 C903 1.491 . S
C909 C908 1.400 . S
C909 C910 1.398 . S
C910 H898 0.950 . S
C910 C909 1.398 . S
C910 C911 1.391 . S
C911 H899 0.950 . S
C911 C907 1.393 . S
C911 C910 1.391 . S
H912 C920 0.950 . S
H913 C925 0.950 . S
H914 C922 0.950 . S
H915 C924 0.950 . S
H916 C926 0.950 . S
H917 C928 0.950 . S
H918 C930 0.950 . S
H919 C931 0.950 . S
C920 H912 0.950 . S
C920 C921 1.386 . S
C920 C922 1.391 . S
C921 C920 1.386 . S
C921 C925 1.393 . S
C922 H914 0.950 . S
C922 C920 1.391 . S
C922 C923 1.400 . S
C923 C922 1.400 . S
C923 C924 1.398 . S
C923 C929 1.491 . S
C924 H915 0.950 . S
C924 C923 1.398 . S
C924 C925 1.391 . S
C925 H913 0.950 . S
C925 C921 1.393 . S
C925 C924 1.391 . S
C926 H916 0.950 . S
C926 C927 1.386 . S
C926 C928 1.391 . S
C927 C926 1.386 . S
C927 C931 1.393 . S
C928 H917 0.950 . S
C928 C926 1.391 . S
C928 C929 1.400 . S
C929 C923 1.491 . S
C929 C928 1.400 . S
C929 C930 1.398 . S
C930 H918 0.950 . S
C930 C929 1.398 . S
C930 C931 1.391 . S
C931 H919 0.950 . S
C931 C927 1.393 . S
C931 C930 1.391 . S
H932 C940 0.950 . S
H933 C945 0.950 . S
H934 C942 0.950 . S
H935 C944 0.950 . S
H936 C946 0.950 . S
H937 C948 0.950 . S
H938 C950 0.950 . S
H939 C951 0.950 . S
C940 H932 0.950 . S
C940 C941 1.386 . S
C940 C942 1.391 . S
C941 C940 1.386 . S
C941 C945 1.393 . S
C942 H934 0.950 . S
C942 C940 1.391 . S
C942 C943 1.400 . S
C943 C942 1.400 . S
C943 C944 1.398 . S
C943 C949 1.491 . S
C944 H935 0.950 . S
C944 C943 1.398 . S
C944 C945 1.391 . S
C945 H933 0.950 . S
C945 C941 1.393 . S
C945 C944 1.391 . S
C946 H936 0.950 . S
C946 C947 1.386 . S
C946 C948 1.391 . S
C947 C946 1.386 . S
C947 C951 1.393 . S
C948 H937 0.950 . S
C948 C946 1.391 . S
C948 C949 1.400 . S
C949 C943 1.491 . S
C949 C948 1.400 . S
C949 C950 1.398 . S
C950 H938 0.950 . S
C950 C949 1.398 . S
C950 C951 1.391 . S
C951 H939 0.950 . S
C951 C947 1.393 . S
C951 C950 1.391 . S
H952 C960 0.950 . S
H953 C965 0.950 . S
H954 C962 0.950 . S
H955 C964 0.950 . S
H956 C966 0.950 . S
H957 C968 0.950 . S
H958 C970 0.950 . S
H959 C971 0.950 . S
C960 H952 0.950 . S
C960 C961 1.386 . S
C960 C962 1.391 . S
C961 C960 1.386 . S
C961 C965 1.393 . S
C962 H954 0.950 . S
C962 C960 1.391 . S
C962 C963 1.400 . S
C963 C962 1.400 . S
C963 C964 1.398 . S
C963 C969 1.491 . S
C964 H955 0.950 . S
C964 C963 1.398 . S
C964 C965 1.391 . S
C965 H953 0.950 . S
C965 C961 1.393 . S
C965 C964 1.391 . S
C966 H956 0.950 . S
C966 C967 1.386 . S
C966 C968 1.391 . S
C967 C966 1.386 . S
C967 C971 1.393 . S
C968 H957 0.950 . S
C968 C966 1.391 . S
C968 C969 1.400 . S
C969 C963 1.491 . S
C969 C968 1.400 . S
C969 C970 1.398 . S
C970 H958 0.950 . S
C970 C969 1.398 . S
C970 C971 1.391 . S
C971 H959 0.950 . S
C971 C967 1.393 . S
C971 C970 1.391 . S
H972 C980 0.950 . S
H973 C985 0.950 . S
H974 C982 0.950 . S
H975 C984 0.950 . S
H976 C986 0.950 . S
H977 C988 0.950 . S
H978 C990 0.950 . S
H979 C991 0.950 . S
C980 H972 0.950 . S
C980 C981 1.386 . S
C980 C982 1.391 . S
C981 C980 1.386 . S
C981 C985 1.393 . S
C982 H974 0.950 . S
C982 C980 1.391 . S
C982 C983 1.400 . S
C983 C982 1.400 . S
C983 C984 1.398 . S
C983 C989 1.491 . S
C984 H975 0.950 . S
C984 C983 1.398 . S
C984 C985 1.391 . S
C985 H973 0.950 . S
C985 C981 1.393 . S
C985 C984 1.391 . S
C986 H976 0.950 . S
C986 C987 1.386 . S
C986 C988 1.391 . S
C987 C986 1.386 . S
C987 C991 1.393 . S
C988 H977 0.950 . S
C988 C986 1.391 . S
C988 C989 1.400 . S
C989 C983 1.491 . S
C989 C988 1.400 . S
C989 C990 1.398 . S
C990 H978 0.950 . S
C990 C989 1.398 . S
C990 C991 1.391 . S
C991 H979 0.950 . S
C991 C987 1.393 . S
C991 C990 1.391 . S
H992 C1000 0.950 . S
H993 C1005 0.950 . S
H994 C1002 0.950 . S
H995 C1004 0.950 . S
H996 C1006 0.950 . S
H997 C1008 0.950 . S
H998 C1010 0.950 . S
H999 C1011 0.950 . S
C1000 H992 0.950 . S
C1000 C1001 1.386 . S
C1000 C1002 1.391 . S
C1001 C1000 1.386 . S
C1001 C1005 1.393 . S
C1002 H994 0.950 . S
C1002 C1000 1.391 . S
C1002 C1003 1.400 . S
C1003 C1002 1.400 . S
C1003 C1004 1.398 . S
C1003 C1009 1.491 . S
C1004 H995 0.950 . S
C1004 C1003 1.398 . S
C1004 C1005 1.391 . S
C1005 H993 0.950 . S
C1005 C1001 1.393 . S
C1005 C1004 1.391 . S
C1006 H996 0.950 . S
C1006 C1007 1.386 . S
C1006 C1008 1.391 . S
C1007 C1006 1.386 . S
C1007 C1011 1.393 . S
C1008 H997 0.950 . S
C1008 C1006 1.391 . S
C1008 C1009 1.400 . S
C1009 C1003 1.491 . S
C1009 C1008 1.400 . S
C1009 C1010 1.398 . S
C1010 H998 0.950 . S
C1010 C1009 1.398 . S
C1010 C1011 1.391 . S
C1011 H999 0.950 . S
C1011 C1007 1.393 . S
C1011 C1010 1.391 . S
H1012 C1020 0.950 . S
H1013 C1025 0.950 . S
H1014 C1022 0.950 . S
H1015 C1024 0.950 . S
H1016 C1026 0.950 . S
H1017 C1028 0.950 . S
H1018 C1030 0.950 . S
H1019 C1031 0.950 . S
C1020 H1012 0.950 . S
C1020 C1021 1.386 . S
C1020 C1022 1.391 . S
C1021 C1020 1.386 . S
C1021 C1025 1.393 . S
C1022 H1014 0.950 . S
C1022 C1020 1.391 . S
C1022 C1023 1.400 . S
C1023 C1022 1.400 . S
C1023 C1024 1.398 . S
C1023 C1029 1.491 . S
C1024 H1015 0.950 . S
C1024 C1023 1.398 . S
C1024 C1025 1.391 . S
C1025 H1013 0.950 . S
C1025 C1021 1.393 . S
C1025 C1024 1.391 . S
C1026 H1016 0.950 . S
C1026 C1027 1.386 . S
C1026 C1028 1.391 . S
C1027 C1026 1.386 . S
C1027 C1031 1.393 . S
C1028 H1017 0.950 . S
C1028 C1026 1.391 . S
C1028 C1029 1.400 . S
C1029 C1023 1.491 . S
C1029 C1028 1.400 . S
C1029 C1030 1.398 . S
C1030 H1018 0.950 . S
C1030 C1029 1.398 . S
C1030 C1031 1.391 . S
C1031 H1019 0.950 . S
C1031 C1027 1.393 . S
C1031 C1030 1.391 . S
H1032 C1040 0.950 . S
H1033 C1045 0.950 . S
H1034 C1042 0.950 . S
H1035 C1044 0.950 . S
H1036 C1046 0.950 . S
H1037 C1048 0.950 . S
H1038 C1050 0.950 . S
H1039 C1051 0.950 . S
C1040 H1032 0.950 . S
C1040 C1041 1.386 . S
C1040 C1042 1.391 . S
C1041 C1040 1.386 . S
C1041 C1045 1.393 . S
C1042 H1034 0.950 . S
C1042 C1040 1.391 . S
C1042 C1043 1.400 . S
C1043 C1042 1.400 . S
C1043 C1044 1.398 . S
C1043 C1049 1.491 . S
C1044 H1035 0.950 . S
C1044 C1043 1.398 . S
C1044 C1045 1.391 . S
C1045 H1033 0.950 . S
C1045 C1041 1.393 . S
C1045 C1044 1.391 . S
C1046 H1036 0.950 . S
C1046 C1047 1.386 . S
C1046 C1048 1.391 . S
C1047 C1046 1.386 . S
C1047 C1051 1.393 . S
C1048 H1037 0.950 . S
C1048 C1046 1.391 . S
C1048 C1049 1.400 . S
C1049 C1043 1.491 . S
C1049 C1048 1.400 . S
C1049 C1050 1.398 . S
C1050 H1038 0.950 . S
C1050 C1049 1.398 . S
C1050 C1051 1.391 . S
C1051 H1039 0.950 . S
C1051 C1047 1.393 . S
C1051 C1050 1.391 . S
H1052 C1060 0.950 . S
H1053 C1065 0.950 . S
H1054 C1062 0.950 . S
H1055 C1064 0.950 . S
H1056 C1066 0.950 . S
H1057 C1068 0.950 . S
H1058 C1070 0.950 . S
H1059 C1071 0.950 . S
C1060 H1052 0.950 . S
C1060 C1061 1.386 . S
C1060 C1062 1.391 . S
C1061 C1060 1.386 . S
C1061 C1065 1.393 . S
C1062 H1054 0.950 . S
C1062 C1060 1.391 . S
C1062 C1063 1.400 . S
C1063 C1062 1.400 . S
C1063 C1064 1.398 . S
C1063 C1069 1.491 . S
C1064 H1055 0.950 . S
C1064 C1063 1.398 . S
C1064 C1065 1.391 . S
C1065 H1053 0.950 . S
C1065 C1061 1.393 . S
C1065 C1064 1.391 . S
C1066 H1056 0.950 . S
C1066 C1067 1.386 . S
C1066 C1068 1.391 . S
C1067 C1066 1.386 . S
C1067 C1071 1.393 . S
C1068 H1057 0.950 . S
C1068 C1066 1.391 . S
C1068 C1069 1.400 . S
C1069 C1063 1.491 . S
C1069 C1068 1.400 . S
C1069 C1070 1.398 . S
C1070 H1058 0.950 . S
C1070 C1069 1.398 . S
C1070 C1071 1.391 . S
C1071 H1059 0.950 . S
C1071 C1067 1.393 . S
C1071 C1070 1.391 . S
H1072 C1080 0.950 . S
H1073 C1085 0.950 . S
H1074 C1082 0.950 . S
H1075 C1084 0.950 . S
H1076 C1086 0.950 . S
H1077 C1088 0.950 . S
H1078 C1090 0.950 . S
H1079 C1091 0.950 . S
C1080 H1072 0.950 . S
C1080 C1081 1.386 . S
C1080 C1082 1.391 . S
C1081 C1080 1.386 . S
C1081 C1085 1.393 . S
C1082 H1074 0.950 . S
C1082 C1080 1.391 . S
C1082 C1083 1.400 . S
C1083 C1082 1.400 . S
C1083 C1084 1.398 . S
C1083 C1089 1.491 . S
C1084 H1075 0.950 . S
C1084 C1083 1.398 . S
C1084 C1085 1.391 . S
C1085 H1073 0.950 . S
C1085 C1081 1.393 . S
C1085 C1084 1.391 . S
C1086 H1076 0.950 . S
C1086 C1087 1.386 . S
C1086 C1088 1.391 . S
C1087 C1086 1.386 . S
C1087 C1091 1.393 . S
C1088 H1077 0.950 . S
C1088 C1086 1.391 . S
C1088 C1089 1.400 . S
C1089 C1083 1.491 . S
C1089 C1088 1.400 . S
C1089 C1090 1.398 . S
C1090 H1078 0.950 . S
C1090 C1089 1.398 . S
C1090 C1091 1.391 . S
C1091 H1079 0.950 . S
C1091 C1087 1.393 . S
C1091 C1090 1.391 . S
H1092 C1100 0.950 . S
H1093 C1105 0.950 . S
H1094 C1102 0.950 . S
H1095 C1104 0.950 . S
H1096 C1106 0.950 . S
H1097 C1108 0.950 . S
H1098 C1110 0.950 . S
H1099 C1111 0.950 . S
C1100 H1092 0.950 . S
C1100 C1101 1.386 . S
C1100 C1102 1.391 . S
C1101 C1100 1.386 . S
C1101 C1105 1.393 . S
C1102 H1094 0.950 . S
C1102 C1100 1.391 . S
C1102 C1103 1.400 . S
C1103 C1102 1.400 . S
C1103 C1104 1.398 . S
C1103 C1109 1.491 . S
C1104 H1095 0.950 . S
C1104 C1103 1.398 . S
C1104 C1105 1.391 . S
C1105 H1093 0.950 . S
C1105 C1101 1.393 . S
C1105 C1104 1.391 . S
C1106 H1096 0.950 . S
C1106 C1107 1.386 . S
C1106 C1108 1.391 . S
C1107 C1106 1.386 . S
C1107 C1111 1.393 . S
C1108 H1097 0.950 . S
C1108 C1106 1.391 . S
C1108 C1109 1.400 . S
C1109 C1103 1.491 . S
C1109 C1108 1.400 . S
C1109 C1110 1.398 . S
C1110 H1098 0.950 . S
C1110 C1109 1.398 . S
C1110 C1111 1.391 . S
C1111 H1099 0.950 . S
C1111 C1107 1.393 . S
C1111 C1110 1.391 . S
H1112 C1120 0.950 . S
H1113 C1125 0.950 . S
H1114 C1122 0.950 . S
H1115 C1124 0.950 . S
H1116 C1126 0.950 . S
H1117 C1128 0.950 . S
H1118 C1130 0.950 . S
H1119 C1131 0.950 . S
C1120 H1112 0.950 . S
C1120 C1121 1.386 . S
C1120 C1122 1.391 . S
C1121 C1120 1.386 . S
C1121 C1125 1.393 . S
C1122 H1114 0.950 . S
C1122 C1120 1.391 . S
C1122 C1123 1.400 . S
C1123 C1122 1.400 . S
C1123 C1124 1.398 . S
C1123 C1129 1.491 . S
C1124 H1115 0.950 . S
C1124 C1123 1.398 . S
C1124 C1125 1.391 . S
C1125 H1113 0.950 . S
C1125 C1121 1.393 . S
C1125 C1124 1.391 . S
C1126 H1116 0.950 . S
C1126 C1127 1.386 . S
C1126 C1128 1.391 . S
C1127 C1126 1.386 . S
C1127 C1131 1.393 . S
C1128 H1117 0.950 . S
C1128 C1126 1.391 . S
C1128 C1129 1.400 . S
C1129 C1123 1.491 . S
C1129 C1128 1.400 . S
C1129 C1130 1.398 . S
C1130 H1118 0.950 . S
C1130 C1129 1.398 . S
C1130 C1131 1.391 . S
C1131 H1119 0.950 . S
C1131 C1127 1.393 . S
C1131 C1130 1.391 . S
H1132 C1140 0.950 . S
H1133 C1145 0.950 . S
H1134 C1142 0.950 . S
H1135 C1144 0.950 . S
H1136 C1146 0.950 . S
H1137 C1148 0.950 . S
H1138 C1150 0.950 . S
H1139 C1151 0.950 . S
C1140 H1132 0.950 . S
C1140 C1141 1.386 . S
C1140 C1142 1.391 . S
C1141 C1140 1.386 . S
C1141 C1145 1.393 . S
C1142 H1134 0.950 . S
C1142 C1140 1.391 . S
C1142 C1143 1.400 . S
C1143 C1142 1.400 . S
C1143 C1144 1.398 . S
C1143 C1149 1.491 . S
C1144 H1135 0.950 . S
C1144 C1143 1.398 . S
C1144 C1145 1.391 . S
C1145 H1133 0.950 . S
C1145 C1141 1.393 . S
C1145 C1144 1.391 . S
C1146 H1136 0.950 . S
C1146 C1147 1.386 . S
C1146 C1148 1.391 . S
C1147 C1146 1.386 . S
C1147 C1151 1.393 . S
C1148 H1137 0.950 . S
C1148 C1146 1.391 . S
C1148 C1149 1.400 . S
C1149 C1143 1.491 . S
C1149 C1148 1.400 . S
C1149 C1150 1.398 . S
C1150 H1138 0.950 . S
C1150 C1149 1.398 . S
C1150 C1151 1.391 . S
C1151 H1139 0.950 . S
C1151 C1147 1.393 . S
C1151 C1150 1.391 . S
H1152 C1160 0.950 1_455 S
H1153 C1165 0.950 . S
H1154 C1162 0.950 . S
H1155 C1164 0.950 . S
H1156 C1166 0.950 1_655 S
H1157 C1168 0.950 . S
H1158 C1170 0.950 . S
H1159 C1171 0.950 . S
C1160 H1152 0.950 1_655 S
C1160 C1161 1.386 . S
C1160 C1162 1.391 1_655 S
C1161 C1160 1.386 . S
C1161 C1165 1.393 . S
C1162 H1154 0.950 . S
C1162 C1160 1.391 1_455 S
C1162 C1163 1.400 1_455 S
C1163 C1162 1.400 1_655 S
C1163 C1164 1.398 . S
C1163 C1169 1.491 1_655 S
C1164 H1155 0.950 . S
C1164 C1163 1.398 . S
C1164 C1165 1.391 . S
C1165 H1153 0.950 . S
C1165 C1161 1.393 . S
C1165 C1164 1.391 . S
C1166 H1156 0.950 1_455 S
C1166 C1167 1.386 . S
C1166 C1168 1.391 1_455 S
C1167 C1166 1.386 . S
C1167 C1171 1.393 . S
C1168 H1157 0.950 . S
C1168 C1166 1.391 1_655 S
C1168 C1169 1.400 1_655 S
C1169 C1163 1.491 1_455 S
C1169 C1168 1.400 1_455 S
C1169 C1170 1.398 . S
C1170 H1158 0.950 . S
C1170 C1169 1.398 . S
C1170 C1171 1.391 . S
C1171 H1159 0.950 . S
C1171 C1167 1.393 . S
C1171 C1170 1.391 . S
H1172 C1180 0.950 . S
H1173 C1185 0.950 . S
H1174 C1182 0.936 1_545 S
H1175 C1184 0.950 . S
H1176 C1186 0.950 . S
H1177 C1188 0.936 1_565 S
H1178 C1190 0.950 . S
H1179 C1191 0.950 . S
C1180 H1172 0.950 . S
C1180 C1181 1.386 . S
C1180 C1182 1.391 . S
C1181 C1180 1.386 . S
C1181 C1185 1.393 . S
C1182 H1174 0.936 1_565 S
C1182 C1180 1.391 . S
C1182 C1183 1.400 . S
C1183 C1182 1.400 . S
C1183 C1184 1.398 . S
C1183 C1189 1.491 1_565 S
C1184 H1175 0.950 . S
C1184 C1183 1.398 . S
C1184 C1185 1.391 . S
C1185 H1173 0.950 . S
C1185 C1181 1.393 . S
C1185 C1184 1.391 . S
C1186 H1176 0.950 . S
C1186 C1187 1.386 . S
C1186 C1188 1.391 . S
C1187 C1186 1.386 . S
C1187 C1191 1.393 . S
C1188 H1177 0.936 1_545 S
C1188 C1186 1.391 . S
C1188 C1189 1.400 . S
C1189 C1183 1.491 1_545 S
C1189 C1188 1.400 . S
C1189 C1190 1.398 . S
C1190 H1178 0.950 . S
C1190 C1189 1.398 . S
C1190 C1191 1.391 . S
C1191 H1179 0.950 . S
C1191 C1187 1.393 . S
C1191 C1190 1.391 . S
H1192 C1200 0.950 . S
H1193 C1205 0.950 . S
H1194 C1202 0.950 . S
H1195 C1204 0.950 . S
H1196 C1206 0.950 . S
H1197 C1208 0.950 . S
H1198 C1210 0.950 . S
H1199 C1211 0.950 . S
C1200 H1192 0.950 . S
C1200 C1201 1.386 1_455 S
C1200 C1202 1.391 . S
C1201 C1200 1.386 1_655 S
C1201 C1205 1.393 . S
C1202 H1194 0.950 . S
C1202 C1200 1.391 . S
C1202 C1203 1.400 1_455 S
C1203 C1202 1.400 1_655 S
C1203 C1204 1.398 . S
C1203 C1209 1.491 1_655 S
C1204 H1195 0.950 . S
C1204 C1203 1.398 . S
C1204 C1205 1.391 . S
C1205 H1193 0.950 . S
C1205 C1201 1.393 . S
C1205 C1204 1.391 . S
C1206 H1196 0.950 . S
C1206 C1207 1.386 1_655 S
C1206 C1208 1.391 . S
C1207 C1206 1.386 1_455 S
C1207 C1211 1.393 . S
C1208 H1197 0.950 . S
C1208 C1206 1.391 . S
C1208 C1209 1.400 1_655 S
C1209 C1203 1.491 1_455 S
C1209 C1208 1.400 1_455 S
C1209 C1210 1.398 . S
C1210 H1198 0.950 . S
C1210 C1209 1.398 . S
C1210 C1211 1.391 . S
C1211 H1199 0.950 . S
C1211 C1207 1.393 . S
C1211 C1210 1.391 . S
H1212 C1220 0.950 1_565 S
H1213 C1225 0.950 . S
H1214 C1222 0.950 . S
H1215 C1224 0.950 . S
H1216 C1226 0.950 1_545 S
H1217 C1228 0.950 . S
H1218 C1230 0.950 . S
H1219 C1231 0.950 . S
C1220 H1212 0.950 1_545 S
C1220 C1221 1.386 . S
C1220 C1222 1.391 1_545 S
C1221 C1220 1.386 . S
C1221 C1225 1.393 . S
C1222 H1214 0.950 . S
C1222 C1220 1.391 1_565 S
C1222 C1223 1.400 1_565 S
C1223 C1222 1.400 1_545 S
C1223 C1224 1.398 . S
C1223 C1229 1.491 1_545 S
C1224 H1215 0.950 . S
C1224 C1223 1.398 . S
C1224 C1225 1.391 . S
C1225 H1213 0.950 . S
C1225 C1221 1.393 . S
C1225 C1224 1.391 . S
C1226 H1216 0.950 1_565 S
C1226 C1227 1.386 . S
C1226 C1228 1.391 1_565 S
C1227 C1226 1.386 . S
C1227 C1231 1.393 . S
C1228 H1217 0.950 . S
C1228 C1226 1.391 1_545 S
C1228 C1229 1.400 1_545 S
C1229 C1223 1.491 1_565 S
C1229 C1228 1.400 1_565 S
C1229 C1230 1.398 . S
C1230 H1218 0.950 . S
C1230 C1229 1.398 . S
C1230 C1231 1.391 . S
C1231 H1219 0.950 . S
C1231 C1227 1.393 . S
C1231 C1230 1.391 . S
H1232 C1240 0.950 . S
H1233 C1245 0.950 . S
H1234 C1242 0.950 . S
H1235 C1244 0.950 1_655 S
H1236 C1246 0.950 . S
H1237 C1248 0.950 . S
H1238 C1250 0.950 1_455 S
H1239 C1251 0.950 . S
C1240 H1232 0.950 . S
C1240 C1241 1.386 . S
C1240 C1242 1.391 . S
C1241 C1240 1.386 . S
C1241 C1245 1.393 . S
C1242 H1234 0.950 . S
C1242 C1240 1.391 . S
C1242 C1243 1.400 . S
C1243 C1242 1.400 . S
C1243 C1244 1.398 . S
C1243 C1249 1.491 1_455 S
C1244 H1235 0.950 1_455 S
C1244 C1243 1.398 . S
C1244 C1245 1.391 . S
C1245 H1233 0.950 . S
C1245 C1241 1.393 . S
C1245 C1244 1.391 . S
C1246 H1236 0.950 . S
C1246 C1247 1.386 . S
C1246 C1248 1.391 . S
C1247 C1246 1.386 . S
C1247 C1251 1.393 . S
C1248 H1237 0.950 . S
C1248 C1246 1.391 . S
C1248 C1249 1.400 . S
C1249 C1243 1.491 1_655 S
C1249 C1248 1.400 . S
C1249 C1250 1.398 . S
C1250 H1238 0.950 1_655 S
C1250 C1249 1.398 . S
C1250 C1251 1.391 . S
C1251 H1239 0.950 . S
C1251 C1247 1.393 . S
C1251 C1250 1.391 . S
H1252 C1260 0.950 . S
H1253 C1265 0.950 . S
H1254 C1262 0.950 . S
H1255 C1264 0.950 . S
H1256 C1266 0.950 . S
H1257 C1268 0.950 . S
H1258 C1270 0.950 . S
H1259 C1271 0.950 . S
C1260 H1252 0.950 . S
C1260 C1261 1.386 . S
C1260 C1262 1.391 . S
C1261 C1260 1.386 . S
C1261 C1265 1.393 . S
C1262 H1254 0.950 . S
C1262 C1260 1.391 . S
C1262 C1263 1.400 . S
C1263 C1262 1.400 . S
C1263 C1264 1.398 . S
C1263 C1269 1.491 1_565 S
C1264 H1255 0.950 . S
C1264 C1263 1.398 . S
C1264 C1265 1.391 . S
C1265 H1253 0.950 . S
C1265 C1261 1.393 . S
C1265 C1264 1.391 . S
C1266 H1256 0.950 . S
C1266 C1267 1.386 . S
C1266 C1268 1.391 . S
C1267 C1266 1.386 . S
C1267 C1271 1.393 . S
C1268 H1257 0.950 . S
C1268 C1266 1.391 . S
C1268 C1269 1.400 . S
C1269 C1263 1.491 1_545 S
C1269 C1268 1.400 . S
C1269 C1270 1.398 . S
C1270 H1258 0.950 . S
C1270 C1269 1.398 . S
C1270 C1271 1.391 . S
C1271 H1259 0.950 . S
C1271 C1267 1.393 . S
C1271 C1270 1.391 . S
H1272 C1280 0.950 1_655 S
H1273 C1285 0.950 . S
H1274 C1282 0.950 . S
H1275 C1284 0.950 . S
H1276 C1286 0.950 1_455 S
H1277 C1288 0.950 . S
H1278 C1290 0.950 . S
H1279 C1291 0.950 . S
C1280 H1272 0.950 1_455 S
C1280 C1281 1.386 . S
C1280 C1282 1.391 1_455 S
C1281 C1280 1.386 . S
C1281 C1285 1.393 . S
C1282 H1274 0.950 . S
C1282 C1280 1.391 1_655 S
C1282 C1283 1.400 1_655 S
C1283 C1282 1.400 1_455 S
C1283 C1284 1.398 . S
C1283 C1289 1.491 1_455 S
C1284 H1275 0.950 . S
C1284 C1283 1.398 . S
C1284 C1285 1.391 . S
C1285 H1273 0.950 . S
C1285 C1281 1.393 . S
C1285 C1284 1.391 . S
C1286 H1276 0.950 1_655 S
C1286 C1287 1.386 . S
C1286 C1288 1.391 1_655 S
C1287 C1286 1.386 . S
C1287 C1291 1.393 . S
C1288 H1277 0.950 . S
C1288 C1286 1.391 1_455 S
C1288 C1289 1.400 1_455 S
C1289 C1283 1.491 1_655 S
C1289 C1288 1.400 1_655 S
C1289 C1290 1.398 . S
C1290 H1278 0.950 . S
C1290 C1289 1.398 . S
C1290 C1291 1.391 . S
C1291 H1279 0.950 . S
C1291 C1287 1.393 . S
C1291 C1290 1.391 . S
H1292 C1300 0.950 . S
H1293 C1305 0.950 . S
H1294 C1302 0.950 . S
H1295 C1304 0.950 . S
H1296 C1306 0.950 . S
H1297 C1308 0.950 . S
H1298 C1310 0.950 . S
H1299 C1311 0.950 . S
C1300 H1292 0.950 . S
C1300 C1301 1.386 1_565 S
C1300 C1302 1.391 . S
C1301 C1300 1.386 1_545 S
C1301 C1305 1.393 . S
C1302 H1294 0.950 . S
C1302 C1300 1.391 . S
C1302 C1303 1.400 1_565 S
C1303 C1302 1.400 1_545 S
C1303 C1304 1.398 . S
C1303 C1309 1.491 1_545 S
C1304 H1295 0.950 . S
C1304 C1303 1.398 . S
C1304 C1305 1.391 . S
C1305 H1293 0.950 . S
C1305 C1301 1.393 . S
C1305 C1304 1.391 . S
C1306 H1296 0.950 . S
C1306 C1307 1.386 1_545 S
C1306 C1308 1.391 . S
C1307 C1306 1.386 1_565 S
C1307 C1311 1.393 . S
C1308 H1297 0.950 . S
C1308 C1306 1.391 . S
C1308 C1309 1.400 1_545 S
C1309 C1303 1.491 1_565 S
C1309 C1308 1.400 1_565 S
C1309 C1310 1.398 . S
C1310 H1298 0.950 . S
C1310 C1309 1.398 . S
C1310 C1311 1.391 . S
C1311 H1299 0.950 . S
C1311 C1307 1.393 . S
C1311 C1310 1.391 . S
H1312 C1320 0.950 . S
H1313 C1325 0.950 . S
H1314 C1322 0.950 . S
H1315 C1324 0.950 . S
H1316 C1326 0.950 . S
H1317 C1328 0.950 . S
H1318 C1330 0.950 . S
H1319 C1331 0.950 . S
C1320 H1312 0.950 . S
C1320 C1321 1.386 . S
C1320 C1322 1.391 . S
C1321 C1320 1.386 . S
C1321 C1325 1.393 1_556 S
C1322 H1314 0.950 . S
C1322 C1320 1.391 . S
C1322 C1323 1.400 . S
C1323 C1322 1.400 . S
C1323 C1324 1.398 1_556 S
C1323 C1329 1.491 1_556 S
C1324 H1315 0.950 . S
C1324 C1323 1.398 1_554 S
C1324 C1325 1.391 . S
C1325 H1313 0.950 . S
C1325 C1321 1.393 1_554 S
C1325 C1324 1.391 . S
C1326 H1316 0.950 . S
C1326 C1327 1.386 . S
C1326 C1328 1.391 . S
C1327 C1326 1.386 . S
C1327 C1331 1.393 1_554 S
C1328 H1317 0.950 . S
C1328 C1326 1.391 . S
C1328 C1329 1.400 . S
C1329 C1323 1.491 1_554 S
C1329 C1328 1.400 . S
C1329 C1330 1.398 1_554 S
C1330 H1318 0.950 . S
C1330 C1329 1.398 1_556 S
C1330 C1331 1.391 . S
C1331 H1319 0.950 . S
C1331 C1327 1.393 1_556 S
C1331 C1330 1.391 . S
H1332 C1340 0.950 . S
H1333 C1345 0.950 . S
H1334 C1342 0.950 . S
H1335 C1344 0.950 . S
H1336 C1346 0.950 . S
H1337 C1348 0.950 . S
H1338 C1350 0.950 . S
H1339 C1351 0.950 . S
C1340 H1332 0.950 . S
C1340 C1341 1.386 . S
C1340 C1342 1.391 . S
C1341 C1340 1.386 . S
C1341 C1345 1.393 . S
C1342 H1334 0.950 . S
C1342 C1340 1.391 . S
C1342 C1343 1.400 . S
C1343 C1342 1.400 . S
C1343 C1344 1.398 . S
C1343 C1349 1.491 1_554 S
C1344 H1335 0.950 . S
C1344 C1343 1.398 . S
C1344 C1345 1.391 . S
C1345 H1333 0.950 . S
C1345 C1341 1.393 . S
C1345 C1344 1.391 . S
C1346 H1336 0.950 . S
C1346 C1347 1.386 . S
C1346 C1348 1.391 . S
C1347 C1346 1.386 . S
C1347 C1351 1.393 . S
C1348 H1337 0.950 . S
C1348 C1346 1.391 . S
C1348 C1349 1.400 . S
C1349 C1343 1.491 1_556 S
C1349 C1348 1.400 . S
C1349 C1350 1.398 . S
C1350 H1338 0.950 . S
C1350 C1349 1.398 . S
C1350 C1351 1.391 . S
C1351 H1339 0.950 . S
C1351 C1347 1.393 . S
C1351 C1350 1.391 . S
H1352 C1360 0.950 . S
H1353 C1365 0.950 . S
H1354 C1362 0.950 1_556 S
H1355 C1364 0.950 . S
H1356 C1366 0.950 . S
H1357 C1368 0.950 1_554 S
H1358 C1370 0.950 . S
H1359 C1371 0.950 . S
C1360 H1352 0.950 . S
C1360 C1361 1.386 . S
C1360 C1362 1.391 . S
C1361 C1360 1.386 . S
C1361 C1365 1.393 . S
C1362 H1354 0.950 1_554 S
C1362 C1360 1.391 . S
C1362 C1363 1.400 . S
C1363 C1362 1.400 . S
C1363 C1364 1.398 . S
C1363 C1369 1.491 1_554 S
C1364 H1355 0.950 . S
C1364 C1363 1.398 . S
C1364 C1365 1.391 . S
C1365 H1353 0.950 . S
C1365 C1361 1.393 . S
C1365 C1364 1.391 . S
C1366 H1356 0.950 . S
C1366 C1367 1.386 . S
C1366 C1368 1.391 . S
C1367 C1366 1.386 . S
C1367 C1371 1.393 . S
C1368 H1357 0.950 1_556 S
C1368 C1366 1.391 . S
C1368 C1369 1.400 . S
C1369 C1363 1.491 1_556 S
C1369 C1368 1.400 . S
C1369 C1370 1.398 . S
C1370 H1358 0.950 . S
C1370 C1369 1.398 . S
C1370 C1371 1.391 . S
C1371 H1359 0.950 . S
C1371 C1367 1.393 . S
C1371 C1370 1.391 . S
H1372 C1380 0.950 . S
H1373 C1385 0.950 . S
H1374 C1382 0.950 . S
H1375 C1384 0.961 . S
H1376 C1386 0.950 . S
H1377 C1388 0.950 . S
H1378 C1390 0.961 . S
H1379 C1391 0.950 . S
C1380 H1372 0.950 . S
C1380 C1381 1.386 . S
C1380 C1382 1.391 . S
C1381 C1380 1.386 . S
C1381 C1385 1.393 . S
C1382 H1374 0.950 . S
C1382 C1380 1.391 . S
C1382 C1383 1.400 . S
C1383 C1382 1.400 . S
C1383 C1384 1.398 . S
C1383 C1389 1.491 1_556 S
C1384 H1375 0.961 . S
C1384 C1383 1.398 . S
C1384 C1385 1.391 . S
C1385 H1373 0.950 . S
C1385 C1381 1.393 . S
C1385 C1384 1.391 . S
C1386 H1376 0.950 . S
C1386 C1387 1.386 . S
C1386 C1388 1.391 . S
C1387 C1386 1.386 . S
C1387 C1391 1.393 . S
C1388 H1377 0.950 . S
C1388 C1386 1.391 . S
C1388 C1389 1.400 . S
C1389 C1383 1.491 1_554 S
C1389 C1388 1.400 . S
C1389 C1390 1.398 . S
C1390 H1378 0.961 . S
C1390 C1389 1.398 . S
C1390 C1391 1.391 . S
C1391 H1379 0.950 . S
C1391 C1387 1.393 . S
C1391 C1390 1.391 . S
H1392 C1400 0.950 . S
H1393 C1405 0.950 . S
H1394 C1402 0.950 . S
H1395 C1404 0.950 . S
H1396 C1406 0.950 . S
H1397 C1408 0.950 . S
H1398 C1410 0.950 . S
H1399 C1411 0.950 . S
C1400 H1392 0.950 . S
C1400 C1401 1.386 . S
C1400 C1402 1.391 . S
C1401 C1400 1.386 . S
C1401 C1405 1.393 . S
C1402 H1394 0.950 . S
C1402 C1400 1.391 . S
C1402 C1403 1.400 . S
C1403 C1402 1.400 . S
C1403 C1404 1.398 . S
C1403 C1409 1.491 . S
C1404 H1395 0.950 . S
C1404 C1403 1.398 . S
C1404 C1405 1.391 . S
C1405 H1393 0.950 . S
C1405 C1401 1.393 . S
C1405 C1404 1.391 . S
C1406 H1396 0.950 . S
C1406 C1407 1.386 . S
C1406 C1408 1.391 . S
C1407 C1406 1.386 . S
C1407 C1411 1.393 . S
C1408 H1397 0.950 . S
C1408 C1406 1.391 . S
C1408 C1409 1.400 . S
C1409 C1403 1.491 . S
C1409 C1408 1.400 . S
C1409 C1410 1.398 . S
C1410 H1398 0.950 . S
C1410 C1409 1.398 . S
C1410 C1411 1.391 . S
C1411 H1399 0.950 . S
C1411 C1407 1.393 . S
C1411 C1410 1.391 . S
H1412 C1420 0.950 . S
H1413 C1425 0.950 . S
H1414 C1422 0.950 . S
H1415 C1424 0.950 . S
H1416 C1426 0.950 . S
H1417 C1428 0.950 . S
H1418 C1430 0.950 . S
H1419 C1431 0.950 . S
C1420 H1412 0.950 . S
C1420 C1421 1.386 . S
C1420 C1422 1.391 . S
C1421 C1420 1.386 . S
C1421 C1425 1.393 . S
C1422 H1414 0.950 . S
C1422 C1420 1.391 . S
C1422 C1423 1.400 . S
C1423 C1422 1.400 . S
C1423 C1424 1.398 . S
C1423 C1429 1.491 . S
C1424 H1415 0.950 . S
C1424 C1423 1.398 . S
C1424 C1425 1.391 . S
C1425 H1413 0.950 . S
C1425 C1421 1.393 . S
C1425 C1424 1.391 . S
C1426 H1416 0.950 . S
C1426 C1427 1.386 . S
C1426 C1428 1.391 . S
C1427 C1426 1.386 . S
C1427 C1431 1.393 . S
C1428 H1417 0.950 . S
C1428 C1426 1.391 . S
C1428 C1429 1.400 . S
C1429 C1423 1.491 . S
C1429 C1428 1.400 . S
C1429 C1430 1.398 . S
C1430 H1418 0.950 . S
C1430 C1429 1.398 . S
C1430 C1431 1.391 . S
C1431 H1419 0.950 . S
C1431 C1427 1.393 . S
C1431 C1430 1.391 . S
H1432 C1440 0.950 . S
H1433 C1445 0.950 . S
H1434 C1442 0.950 . S
H1435 C1444 0.950 . S
H1436 C1446 0.950 . S
H1437 C1448 0.950 . S
H1438 C1450 0.950 . S
H1439 C1451 0.950 . S
C1440 H1432 0.950 . S
C1440 C1441 1.386 . S
C1440 C1442 1.391 . S
C1441 C1440 1.386 . S
C1441 C1445 1.393 . S
C1442 H1434 0.950 . S
C1442 C1440 1.391 . S
C1442 C1443 1.400 . S
C1443 C1442 1.400 . S
C1443 C1444 1.398 . S
C1443 C1449 1.491 . S
C1444 H1435 0.950 . S
C1444 C1443 1.398 . S
C1444 C1445 1.391 . S
C1445 H1433 0.950 . S
C1445 C1441 1.393 . S
C1445 C1444 1.391 . S
C1446 H1436 0.950 . S
C1446 C1447 1.386 . S
C1446 C1448 1.391 . S
C1447 C1446 1.386 . S
C1447 C1451 1.393 . S
C1448 H1437 0.950 . S
C1448 C1446 1.391 . S
C1448 C1449 1.400 . S
C1449 C1443 1.491 . S
C1449 C1448 1.400 . S
C1449 C1450 1.398 . S
C1450 H1438 0.950 . S
C1450 C1449 1.398 . S
C1450 C1451 1.391 . S
C1451 H1439 0.950 . S
C1451 C1447 1.393 . S
C1451 C1450 1.391 . S
H1452 C1460 0.950 . S
H1453 C1465 0.950 . S
H1454 C1462 0.950 . S
H1455 C1464 0.950 . S
H1456 C1466 0.950 . S
H1457 C1468 0.950 . S
H1458 C1470 0.950 . S
H1459 C1471 0.950 . S
C1460 H1452 0.950 . S
C1460 C1461 1.386 . S
C1460 C1462 1.391 . S
C1461 C1460 1.386 . S
C1461 C1465 1.393 . S
C1462 H1454 0.950 . S
C1462 C1460 1.391 . S
C1462 C1463 1.400 . S
C1463 C1462 1.400 . S
C1463 C1464 1.398 . S
C1463 C1469 1.491 . S
C1464 H1455 0.950 . S
C1464 C1463 1.398 . S
C1464 C1465 1.391 . S
C1465 H1453 0.950 . S
C1465 C1461 1.393 . S
C1465 C1464 1.391 . S
C1466 H1456 0.950 . S
C1466 C1467 1.386 . S
C1466 C1468 1.391 . S
C1467 C1466 1.386 . S
C1467 C1471 1.393 . S
C1468 H1457 0.950 . S
C1468 C1466 1.391 . S
C1468 C1469 1.400 . S
C1469 C1463 1.491 . S
C1469 C1468 1.400 . S
C1469 C1470 1.398 . S
C1470 H1458 0.950 . S
C1470 C1469 1.398 . S
C1470 C1471 1.391 . S
C1471 H1459 0.950 . S
C1471 C1467 1.393 . S
C1471 C1470 1.391 . S
H1472 C1480 0.950 . S
H1473 C1485 0.950 . S
H1474 C1482 0.950 . S
H1475 C1484 0.950 . S
H1476 C1486 0.950 . S
H1477 C1488 0.950 . S
H1478 C1490 0.950 . S
H1479 C1491 0.950 . S
C1480 H1472 0.950 . S
C1480 C1481 1.386 . S
C1480 C1482 1.391 . S
C1481 C1480 1.386 . S
C1481 C1485 1.393 . S
C1482 H1474 0.950 . S
C1482 C1480 1.391 . S
C1482 C1483 1.400 . S
C1483 C1482 1.400 . S
C1483 C1484 1.398 . S
C1483 C1489 1.491 . S
C1484 H1475 0.950 . S
C1484 C1483 1.398 . S
C1484 C1485 1.391 . S
C1485 H1473 0.950 . S
C1485 C1481 1.393 . S
C1485 C1484 1.391 . S
C1486 H1476 0.950 . S
C1486 C1487 1.386 . S
C1486 C1488 1.391 . S
C1487 C1486 1.386 . S
C1487 C1491 1.393 . S
C1488 H1477 0.950 . S
C1488 C1486 1.391 . S
C1488 C1489 1.400 . S
C1489 C1483 1.491 . S
C1489 C1488 1.400 . S
C1489 C1490 1.398 . S
C1490 H1478 0.950 . S
C1490 C1489 1.398 . S
C1490 C1491 1.391 . S
C1491 H1479 0.950 . S
C1491 C1487 1.393 . S
C1491 C1490 1.391 . S
H1492 C1500 0.950 . S
H1493 C1505 0.950 . S
H1494 C1502 0.950 . S
H1495 C1504 0.950 . S
H1496 C1506 0.950 . S
H1497 C1508 0.950 . S
H1498 C1510 0.950 . S
H1499 C1511 0.950 . S
C1500 H1492 0.950 . S
C1500 C1501 1.386 . S
C1500 C1502 1.391 . S
C1501 C1500 1.386 . S
C1501 C1505 1.393 . S
C1502 H1494 0.950 . S
C1502 C1500 1.391 . S
C1502 C1503 1.400 . S
C1503 C1502 1.400 . S
C1503 C1504 1.398 . S
C1503 C1509 1.491 . S
C1504 H1495 0.950 . S
C1504 C1503 1.398 . S
C1504 C1505 1.391 . S
C1505 H1493 0.950 . S
C1505 C1501 1.393 . S
C1505 C1504 1.391 . S
C1506 H1496 0.950 . S
C1506 C1507 1.386 . S
C1506 C1508 1.391 . S
C1507 C1506 1.386 . S
C1507 C1511 1.393 . S
C1508 H1497 0.950 . S
C1508 C1506 1.391 . S
C1508 C1509 1.400 . S
C1509 C1503 1.491 . S
C1509 C1508 1.400 . S
C1509 C1510 1.398 . S
C1510 H1498 0.950 . S
C1510 C1509 1.398 . S
C1510 C1511 1.391 . S
C1511 H1499 0.950 . S
C1511 C1507 1.393 . S
C1511 C1510 1.391 . S
H1512 C1520 0.950 . S
H1513 C1525 0.950 . S
H1514 C1522 0.950 . S
H1515 C1524 0.950 . S
H1516 C1526 0.950 . S
H1517 C1528 0.950 . S
H1518 C1530 0.950 . S
H1519 C1531 0.950 . S
C1520 H1512 0.950 . S
C1520 C1521 1.386 . S
C1520 C1522 1.391 . S
C1521 C1520 1.386 . S
C1521 C1525 1.393 . S
C1522 H1514 0.950 . S
C1522 C1520 1.391 . S
C1522 C1523 1.400 . S
C1523 C1522 1.400 . S
C1523 C1524 1.398 . S
C1523 C1529 1.491 . S
C1524 H1515 0.950 . S
C1524 C1523 1.398 . S
C1524 C1525 1.391 . S
C1525 H1513 0.950 . S
C1525 C1521 1.393 . S
C1525 C1524 1.391 . S
C1526 H1516 0.950 . S
C1526 C1527 1.386 . S
C1526 C1528 1.391 . S
C1527 C1526 1.386 . S
C1527 C1531 1.393 . S
C1528 H1517 0.950 . S
C1528 C1526 1.391 . S
C1528 C1529 1.400 . S
C1529 C1523 1.491 . S
C1529 C1528 1.400 . S
C1529 C1530 1.398 . S
C1530 H1518 0.950 . S
C1530 C1529 1.398 . S
C1530 C1531 1.391 . S
C1531 H1519 0.950 . S
C1531 C1527 1.393 . S
C1531 C1530 1.391 . S
H1532 C1540 0.950 . S
H1533 C1545 0.950 . S
H1534 C1542 0.950 . S
H1535 C1544 0.950 . S
H1536 C1546 0.950 . S
H1537 C1548 0.950 . S
H1538 C1550 0.950 . S
H1539 C1551 0.950 . S
C1540 H1532 0.950 . S
C1540 C1541 1.386 . S
C1540 C1542 1.391 . S
C1541 C1540 1.386 . S
C1541 C1545 1.393 . S
C1542 H1534 0.950 . S
C1542 C1540 1.391 . S
C1542 C1543 1.400 . S
C1543 C1542 1.400 . S
C1543 C1544 1.398 . S
C1543 C1549 1.491 . S
C1544 H1535 0.950 . S
C1544 C1543 1.398 . S
C1544 C1545 1.391 . S
C1545 H1533 0.950 . S
C1545 C1541 1.393 . S
C1545 C1544 1.391 . S
C1546 H1536 0.950 . S
C1546 C1547 1.386 . S
C1546 C1548 1.391 . S
C1547 C1546 1.386 . S
C1547 C1551 1.393 . S
C1548 H1537 0.950 . S
C1548 C1546 1.391 . S
C1548 C1549 1.400 . S
C1549 C1543 1.491 . S
C1549 C1548 1.400 . S
C1549 C1550 1.398 . S
C1550 H1538 0.950 . S
C1550 C1549 1.398 . S
C1550 C1551 1.391 . S
C1551 H1539 0.950 . S
C1551 C1547 1.393 . S
C1551 C1550 1.391 . S
H1552 C1560 0.950 . S
H1553 C1565 0.950 . S
H1554 C1562 0.950 . S
H1555 C1564 0.950 . S
H1556 C1566 0.950 . S
H1557 C1568 0.950 . S
H1558 C1570 0.950 . S
H1559 C1571 0.950 . S
C1560 H1552 0.950 . S
C1560 C1561 1.386 . S
C1560 C1562 1.391 . S
C1561 C1560 1.386 . S
C1561 C1565 1.393 . S
C1562 H1554 0.950 . S
C1562 C1560 1.391 . S
C1562 C1563 1.400 . S
C1563 C1562 1.400 . S
C1563 C1564 1.398 . S
C1563 C1569 1.491 . S
C1564 H1555 0.950 . S
C1564 C1563 1.398 . S
C1564 C1565 1.391 . S
C1565 H1553 0.950 . S
C1565 C1561 1.393 . S
C1565 C1564 1.391 . S
C1566 H1556 0.950 . S
C1566 C1567 1.386 . S
C1566 C1568 1.391 . S
C1567 C1566 1.386 . S
C1567 C1571 1.393 . S
C1568 H1557 0.950 . S
C1568 C1566 1.391 . S
C1568 C1569 1.400 . S
C1569 C1563 1.491 . S
C1569 C1568 1.400 . S
C1569 C1570 1.398 . S
C1570 H1558 0.950 . S
C1570 C1569 1.398 . S
C1570 C1571 1.391 . S
C1571 H1559 0.950 . S
C1571 C1567 1.393 . S
C1571 C1570 1.391 . S
H1572 C1580 0.950 . S
H1573 C1585 0.950 . S
H1574 C1582 0.950 . S
H1575 C1584 0.950 . S
H1576 C1586 0.950 . S
H1577 C1588 0.950 . S
H1578 C1590 0.950 . S
H1579 C1591 0.950 . S
C1580 H1572 0.950 . S
C1580 C1581 1.386 . S
C1580 C1582 1.391 . S
C1581 C1580 1.386 . S
C1581 C1585 1.393 . S
C1582 H1574 0.950 . S
C1582 C1580 1.391 . S
C1582 C1583 1.400 . S
C1583 C1582 1.400 . S
C1583 C1584 1.398 . S
C1583 C1589 1.491 . S
C1584 H1575 0.950 . S
C1584 C1583 1.398 . S
C1584 C1585 1.391 . S
C1585 H1573 0.950 . S
C1585 C1581 1.393 . S
C1585 C1584 1.391 . S
C1586 H1576 0.950 . S
C1586 C1587 1.386 . S
C1586 C1588 1.391 . S
C1587 C1586 1.386 . S
C1587 C1591 1.393 . S
C1588 H1577 0.950 . S
C1588 C1586 1.391 . S
C1588 C1589 1.400 . S
C1589 C1583 1.491 . S
C1589 C1588 1.400 . S
C1589 C1590 1.398 . S
C1590 H1578 0.950 . S
C1590 C1589 1.398 . S
C1590 C1591 1.391 . S
C1591 H1579 0.950 . S
C1591 C1587 1.393 . S
C1591 C1590 1.391 . S
H1592 C1600 0.950 . S
H1593 C1605 0.950 . S
H1594 C1602 0.950 . S
H1595 C1604 0.950 . S
H1596 C1606 0.950 . S
H1597 C1608 0.950 . S
H1598 C1610 0.950 . S
H1599 C1611 0.950 . S
C1600 H1592 0.950 . S
C1600 C1601 1.386 . S
C1600 C1602 1.391 . S
C1601 C1600 1.386 . S
C1601 C1605 1.393 . S
C1602 H1594 0.950 . S
C1602 C1600 1.391 . S
C1602 C1603 1.400 . S
C1603 C1602 1.400 . S
C1603 C1604 1.398 . S
C1603 C1609 1.491 . S
C1604 H1595 0.950 . S
C1604 C1603 1.398 . S
C1604 C1605 1.391 . S
C1605 H1593 0.950 . S
C1605 C1601 1.393 . S
C1605 C1604 1.391 . S
C1606 H1596 0.950 . S
C1606 C1607 1.386 . S
C1606 C1608 1.391 . S
C1607 C1606 1.386 . S
C1607 C1611 1.393 . S
C1608 H1597 0.950 . S
C1608 C1606 1.391 . S
C1608 C1609 1.400 . S
C1609 C1603 1.491 . S
C1609 C1608 1.400 . S
C1609 C1610 1.398 . S
C1610 H1598 0.950 . S
C1610 C1609 1.398 . S
C1610 C1611 1.391 . S
C1611 H1599 0.950 . S
C1611 C1607 1.393 . S
C1611 C1610 1.391 . S
H1612 C1620 0.950 . S
H1613 C1625 0.950 . S
H1614 C1622 0.950 . S
H1615 C1624 0.950 . S
H1616 C1626 0.950 . S
H1617 C1628 0.950 . S
H1618 C1630 0.950 . S
H1619 C1631 0.950 . S
C1620 H1612 0.950 . S
C1620 C1621 1.386 . S
C1620 C1622 1.391 . S
C1621 C1620 1.386 . S
C1621 C1625 1.393 . S
C1622 H1614 0.950 . S
C1622 C1620 1.391 . S
C1622 C1623 1.400 . S
C1623 C1622 1.400 . S
C1623 C1624 1.398 . S
C1623 C1629 1.491 . S
C1624 H1615 0.950 . S
C1624 C1623 1.398 . S
C1624 C1625 1.391 . S
C1625 H1613 0.950 . S
C1625 C1621 1.393 . S
C1625 C1624 1.391 . S
C1626 H1616 0.950 . S
C1626 C1627 1.386 . S
C1626 C1628 1.391 . S
C1627 C1626 1.386 . S
C1627 C1631 1.393 . S
C1628 H1617 0.950 . S
C1628 C1626 1.391 . S
C1628 C1629 1.400 . S
C1629 C1623 1.491 . S
C1629 C1628 1.400 . S
C1629 C1630 1.398 . S
C1630 H1618 0.950 . S
C1630 C1629 1.398 . S
C1630 C1631 1.391 . S
C1631 H1619 0.950 . S
C1631 C1627 1.393 . S
C1631 C1630 1.391 . S
H1632 C1640 0.950 . S
H1633 C1645 0.950 . S
H1634 C1642 0.950 . S
H1635 C1644 0.950 . S
H1636 C1646 0.950 . S
H1637 C1648 0.950 . S
H1638 C1650 0.950 . S
H1639 C1651 0.950 . S
C1640 H1632 0.950 . S
C1640 C1641 1.386 . S
C1640 C1642 1.391 . S
C1641 C1640 1.386 . S
C1641 C1645 1.393 . S
C1642 H1634 0.950 . S
C1642 C1640 1.391 . S
C1642 C1643 1.400 . S
C1643 C1642 1.400 . S
C1643 C1644 1.398 . S
C1643 C1649 1.491 . S
C1644 H1635 0.950 . S
C1644 C1643 1.398 . S
C1644 C1645 1.391 . S
C1645 H1633 0.950 . S
C1645 C1641 1.393 . S
C1645 C1644 1.391 . S
C1646 H1636 0.950 . S
C1646 C1647 1.386 . S
C1646 C1648 1.391 . S
C1647 C1646 1.386 . S
C1647 C1651 1.393 . S
C1648 H1637 0.950 . S
C1648 C1646 1.391 . S
C1648 C1649 1.400 . S
C1649 C1643 1.491 . S
C1649 C1648 1.400 . S
C1649 C1650 1.398 . S
C1650 H1638 0.950 . S
C1650 C1649 1.398 . S
C1650 C1651 1.391 . S
C1651 H1639 0.950 . S
C1651 C1647 1.393 . S
C1651 C1650 1.391 . S
H1652 C1660 0.950 . S
H1653 C1665 0.950 . S
H1654 C1662 0.950 . S
H1655 C1664 0.950 . S
H1656 C1666 0.950 . S
H1657 C1668 0.950 . S
H1658 C1670 0.950 . S
H1659 C1671 0.950 . S
C1660 H1652 0.950 . S
C1660 C1661 1.386 . S
C1660 C1662 1.391 . S
C1661 C1660 1.386 . S
C1661 C1665 1.393 . S
C1662 H1654 0.950 . S
C1662 C1660 1.391 . S
C1662 C1663 1.400 . S
C1663 C1662 1.400 . S
C1663 C1664 1.398 . S
C1663 C1669 1.491 . S
C1664 H1655 0.950 . S
C1664 C1663 1.398 . S
C1664 C1665 1.391 . S
C1665 H1653 0.950 . S
C1665 C1661 1.393 . S
C1665 C1664 1.391 . S
C1666 H1656 0.950 . S
C1666 C1667 1.386 . S
C1666 C1668 1.391 . S
C1667 C1666 1.386 . S
C1667 C1671 1.393 . S
C1668 H1657 0.950 . S
C1668 C1666 1.391 . S
C1668 C1669 1.400 . S
C1669 C1663 1.491 . S
C1669 C1668 1.400 . S
C1669 C1670 1.398 . S
C1670 H1658 0.950 . S
C1670 C1669 1.398 . S
C1670 C1671 1.391 . S
C1671 H1659 0.950 . S
C1671 C1667 1.393 . S
C1671 C1670 1.391 . S
H1672 C1680 0.950 . S
H1673 C1685 0.950 . S
H1674 C1682 0.950 . S
H1675 C1684 0.950 . S
H1676 C1686 0.950 . S
H1677 C1688 0.950 . S
H1678 C1690 0.950 . S
H1679 C1691 0.950 . S
C1680 H1672 0.950 . S
C1680 C1681 1.386 . S
C1680 C1682 1.391 . S
C1681 C1680 1.386 . S
C1681 C1685 1.393 . S
C1682 H1674 0.950 . S
C1682 C1680 1.391 . S
C1682 C1683 1.400 . S
C1683 C1682 1.400 . S
C1683 C1684 1.398 . S
C1683 C1689 1.491 . S
C1684 H1675 0.950 . S
C1684 C1683 1.398 . S
C1684 C1685 1.391 . S
C1685 H1673 0.950 . S
C1685 C1681 1.393 . S
C1685 C1684 1.391 . S
C1686 H1676 0.950 . S
C1686 C1687 1.386 . S
C1686 C1688 1.391 . S
C1687 C1686 1.386 . S
C1687 C1691 1.393 . S
C1688 H1677 0.950 . S
C1688 C1686 1.391 . S
C1688 C1689 1.400 . S
C1689 C1683 1.491 . S
C1689 C1688 1.400 . S
C1689 C1690 1.398 . S
C1690 H1678 0.950 . S
C1690 C1689 1.398 . S
C1690 C1691 1.391 . S
C1691 H1679 0.950 . S
C1691 C1687 1.393 . S
C1691 C1690 1.391 . S
H1692 C1700 0.950 . S
H1693 C1705 0.950 . S
H1694 C1702 0.950 . S
H1695 C1704 0.950 . S
H1696 C1706 0.950 . S
H1697 C1708 0.950 . S
H1698 C1710 0.950 . S
H1699 C1711 0.950 . S
C1700 H1692 0.950 . S
C1700 C1701 1.386 . S
C1700 C1702 1.391 . S
C1701 C1700 1.386 . S
C1701 C1705 1.393 . S
C1702 H1694 0.950 . S
C1702 C1700 1.391 . S
C1702 C1703 1.400 . S
C1703 C1702 1.400 . S
C1703 C1704 1.398 . S
C1703 C1709 1.491 . S
C1704 H1695 0.950 . S
C1704 C1703 1.398 . S
C1704 C1705 1.391 . S
C1705 H1693 0.950 . S
C1705 C1701 1.393 . S
C1705 C1704 1.391 . S
C1706 H1696 0.950 . S
C1706 C1707 1.386 . S
C1706 C1708 1.391 . S
C1707 C1706 1.386 . S
C1707 C1711 1.393 . S
C1708 H1697 0.950 . S
C1708 C1706 1.391 . S
C1708 C1709 1.400 . S
C1709 C1703 1.491 . S
C1709 C1708 1.400 . S
C1709 C1710 1.398 . S
C1710 H1698 0.950 . S
C1710 C1709 1.398 . S
C1710 C1711 1.391 . S
C1711 H1699 0.950 . S
C1711 C1707 1.393 . S
C1711 C1710 1.391 . S
H1712 C1720 0.950 . S
H1713 C1725 0.950 . S
H1714 C1722 0.950 . S
H1715 C1724 0.950 . S
H1716 C1726 0.950 . S
H1717 C1728 0.950 . S
H1718 C1730 0.950 . S
H1719 C1731 0.950 . S
C1720 H1712 0.950 . S
C1720 C1721 1.386 . S
C1720 C1722 1.391 . S
C1721 C1720 1.386 . S
C1721 C1725 1.393 . S
C1722 H1714 0.950 . S
C1722 C1720 1.391 . S
C1722 C1723 1.400 . S
C1723 C1722 1.400 . S
C1723 C1724 1.398 . S
C1723 C1729 1.491 . S
C1724 H1715 0.950 . S
C1724 C1723 1.398 . S
C1724 C1725 1.391 . S
C1725 H1713 0.950 . S
C1725 C1721 1.393 . S
C1725 C1724 1.391 . S
C1726 H1716 0.950 . S
C1726 C1727 1.386 . S
C1726 C1728 1.391 . S
C1727 C1726 1.386 . S
C1727 C1731 1.393 . S
C1728 H1717 0.950 . S
C1728 C1726 1.391 . S
C1728 C1729 1.400 . S
C1729 C1723 1.491 . S
C1729 C1728 1.400 . S
C1729 C1730 1.398 . S
C1730 H1718 0.950 . S
C1730 C1729 1.398 . S
C1730 C1731 1.391 . S
C1731 H1719 0.950 . S
C1731 C1727 1.393 . S
C1731 C1730 1.391 . S
H1732 C1740 0.950 . S
H1733 C1745 0.950 . S
H1734 C1742 0.950 . S
H1735 C1744 0.950 . S
H1736 C1746 0.950 . S
H1737 C1748 0.950 . S
H1738 C1750 0.950 . S
H1739 C1751 0.950 . S
C1740 H1732 0.950 . S
C1740 C1741 1.386 . S
C1740 C1742 1.391 . S
C1741 C1740 1.386 . S
C1741 C1745 1.393 . S
C1742 H1734 0.950 . S
C1742 C1740 1.391 . S
C1742 C1743 1.400 . S
C1743 C1742 1.400 . S
C1743 C1744 1.398 . S
C1743 C1749 1.491 . S
C1744 H1735 0.950 . S
C1744 C1743 1.398 . S
C1744 C1745 1.391 . S
C1745 H1733 0.950 . S
C1745 C1741 1.393 . S
C1745 C1744 1.391 . S
C1746 H1736 0.950 . S
C1746 C1747 1.386 . S
C1746 C1748 1.391 . S
C1747 C1746 1.386 . S
C1747 C1751 1.393 . S
C1748 H1737 0.950 . S
C1748 C1746 1.391 . S
C1748 C1749 1.400 . S
C1749 C1743 1.491 . S
C1749 C1748 1.400 . S
C1749 C1750 1.398 . S
C1750 H1738 0.950 . S
C1750 C1749 1.398 . S
C1750 C1751 1.391 . S
C1751 H1739 0.950 . S
C1751 C1747 1.393 . S
C1751 C1750 1.391 . S
H1752 C1760 0.950 . S
H1753 C1765 0.950 . S
H1754 C1762 0.950 . S
H1755 C1764 0.950 . S
H1756 C1766 0.950 . S
H1757 C1768 0.950 . S
H1758 C1770 0.950 . S
H1759 C1771 0.950 . S
C1760 H1752 0.950 . S
C1760 C1761 1.386 . S
C1760 C1762 1.391 . S
C1761 C1760 1.386 . S
C1761 C1765 1.393 . S
C1762 H1754 0.950 . S
C1762 C1760 1.391 . S
C1762 C1763 1.400 . S
C1763 C1762 1.400 . S
C1763 C1764 1.398 . S
C1763 C1769 1.491 . S
C1764 H1755 0.950 . S
C1764 C1763 1.398 . S
C1764 C1765 1.391 . S
C1765 H1753 0.950 . S
C1765 C1761 1.393 . S
C1765 C1764 1.391 . S
C1766 H1756 0.950 . S
C1766 C1767 1.386 . S
C1766 C1768 1.391 . S
C1767 C1766 1.386 . S
C1767 C1771 1.393 . S
C1768 H1757 0.950 . S
C1768 C1766 1.391 . S
C1768 C1769 1.400 . S
C1769 C1763 1.491 . S
C1769 C1768 1.400 . S
C1769 C1770 1.398 . S
C1770 H1758 0.950 . S
C1770 C1769 1.398 . S
C1770 C1771 1.391 . S
C1771 H1759 0.950 . S
C1771 C1767 1.393 . S
C1771 C1770 1.391 . S
H1772 C1780 0.950 . S
H1773 C1785 0.950 . S
H1774 C1782 0.950 . S
H1775 C1784 0.950 . S
H1776 C1786 0.950 . S
H1777 C1788 0.950 . S
H1778 C1790 0.950 . S
H1779 C1791 0.950 . S
C1780 H1772 0.950 . S
C1780 C1781 1.386 . S
C1780 C1782 1.391 . S
C1781 C1780 1.386 . S
C1781 C1785 1.393 . S
C1782 H1774 0.950 . S
C1782 C1780 1.391 . S
C1782 C1783 1.400 . S
C1783 C1782 1.400 . S
C1783 C1784 1.398 . S
C1783 C1789 1.491 . S
C1784 H1775 0.950 . S
C1784 C1783 1.398 . S
C1784 C1785 1.391 . S
C1785 H1773 0.950 . S
C1785 C1781 1.393 . S
C1785 C1784 1.391 . S
C1786 H1776 0.950 . S
C1786 C1787 1.386 . S
C1786 C1788 1.391 . S
C1787 C1786 1.386 . S
C1787 C1791 1.393 . S
C1788 H1777 0.950 . S
C1788 C1786 1.391 . S
C1788 C1789 1.400 . S
C1789 C1783 1.491 . S
C1789 C1788 1.400 . S
C1789 C1790 1.398 . S
C1790 H1778 0.950 . S
C1790 C1789 1.398 . S
C1790 C1791 1.391 . S
C1791 H1779 0.950 . S
C1791 C1787 1.393 . S
C1791 C1790 1.391 . S
H1792 C1800 0.950 . S
H1793 C1805 0.950 . S
H1794 C1802 0.950 . S
H1795 C1804 0.950 . S
H1796 C1806 0.950 . S
H1797 C1808 0.950 . S
H1798 C1810 0.950 . S
H1799 C1811 0.950 . S
C1800 H1792 0.950 . S
C1800 C1801 1.386 . S
C1800 C1802 1.391 . S
C1801 C1800 1.386 . S
C1801 C1805 1.393 . S
C1802 H1794 0.950 . S
C1802 C1800 1.391 . S
C1802 C1803 1.400 . S
C1803 C1802 1.400 . S
C1803 C1804 1.398 . S
C1803 C1809 1.491 . S
C1804 H1795 0.950 . S
C1804 C1803 1.398 . S
C1804 C1805 1.391 . S
C1805 H1793 0.950 . S
C1805 C1801 1.393 . S
C1805 C1804 1.391 . S
C1806 H1796 0.950 . S
C1806 C1807 1.386 . S
C1806 C1808 1.391 . S
C1807 C1806 1.386 . S
C1807 C1811 1.393 . S
C1808 H1797 0.950 . S
C1808 C1806 1.391 . S
C1808 C1809 1.400 . S
C1809 C1803 1.491 . S
C1809 C1808 1.400 . S
C1809 C1810 1.398 . S
C1810 H1798 0.950 . S
C1810 C1809 1.398 . S
C1810 C1811 1.391 . S
C1811 H1799 0.950 . S
C1811 C1807 1.393 . S
C1811 C1810 1.391 . S
H1812 C1820 0.950 . S
H1813 C1825 0.950 . S
H1814 C1822 0.950 . S
H1815 C1824 0.950 . S
H1816 C1826 0.950 . S
H1817 C1828 0.950 . S
H1818 C1830 0.950 . S
H1819 C1831 0.950 . S
C1820 H1812 0.950 . S
C1820 C1821 1.386 . S
C1820 C1822 1.391 . S
C1821 C1820 1.386 . S
C1821 C1825 1.393 . S
C1822 H1814 0.950 . S
C1822 C1820 1.391 . S
C1822 C1823 1.400 . S
C1823 C1822 1.400 . S
C1823 C1824 1.398 . S
C1823 C1829 1.491 . S
C1824 H1815 0.950 . S
C1824 C1823 1.398 . S
C1824 C1825 1.391 . S
C1825 H1813 0.950 . S
C1825 C1821 1.393 . S
C1825 C1824 1.391 . S
C1826 H1816 0.950 . S
C1826 C1827 1.386 . S
C1826 C1828 1.391 . S
C1827 C1826 1.386 . S
C1827 C1831 1.393 . S
C1828 H1817 0.950 . S
C1828 C1826 1.391 . S
C1828 C1829 1.400 . S
C1829 C1823 1.491 . S
C1829 C1828 1.400 . S
C1829 C1830 1.398 . S
C1830 H1818 0.950 . S
C1830 C1829 1.398 . S
C1830 C1831 1.391 . S
C1831 H1819 0.950 . S
C1831 C1827 1.393 . S
C1831 C1830 1.391 . S
H1832 C1840 0.950 . S
H1833 C1845 0.950 . S
H1834 C1842 0.950 . S
H1835 C1844 0.950 . S
H1836 C1846 0.950 . S
H1837 C1848 0.950 . S
H1838 C1850 0.950 . S
H1839 C1851 0.950 . S
C1840 H1832 0.950 . S
C1840 C1841 1.386 . S
C1840 C1842 1.391 . S
C1841 C1840 1.386 . S
C1841 C1845 1.393 . S
C1842 H1834 0.950 . S
C1842 C1840 1.391 . S
C1842 C1843 1.400 . S
C1843 C1842 1.400 . S
C1843 C1844 1.398 . S
C1843 C1849 1.491 . S
C1844 H1835 0.950 . S
C1844 C1843 1.398 . S
C1844 C1845 1.391 . S
C1845 H1833 0.950 . S
C1845 C1841 1.393 . S
C1845 C1844 1.391 . S
C1846 H1836 0.950 . S
C1846 C1847 1.386 . S
C1846 C1848 1.391 . S
C1847 C1846 1.386 . S
C1847 C1851 1.393 . S
C1848 H1837 0.950 . S
C1848 C1846 1.391 . S
C1848 C1849 1.400 . S
C1849 C1843 1.491 . S
C1849 C1848 1.400 . S
C1849 C1850 1.398 . S
C1850 H1838 0.950 . S
C1850 C1849 1.398 . S
C1850 C1851 1.391 . S
C1851 H1839 0.950 . S
C1851 C1847 1.393 . S
C1851 C1850 1.391 . S
H1852 C1860 0.950 . S
H1853 C1865 0.950 . S
H1854 C1862 0.950 . S
H1855 C1864 0.950 . S
H1856 C1866 0.950 . S
H1857 C1868 0.950 . S
H1858 C1870 0.950 . S
H1859 C1871 0.950 . S
C1860 H1852 0.950 . S
C1860 C1861 1.386 . S
C1860 C1862 1.391 . S
C1861 C1860 1.386 . S
C1861 C1865 1.393 . S
C1862 H1854 0.950 . S
C1862 C1860 1.391 . S
C1862 C1863 1.400 . S
C1863 C1862 1.400 . S
C1863 C1864 1.398 . S
C1863 C1869 1.491 . S
C1864 H1855 0.950 . S
C1864 C1863 1.398 . S
C1864 C1865 1.391 . S
C1865 H1853 0.950 . S
C1865 C1861 1.393 . S
C1865 C1864 1.391 . S
C1866 H1856 0.950 . S
C1866 C1867 1.386 . S
C1866 C1868 1.391 . S
C1867 C1866 1.386 . S
C1867 C1871 1.393 . S
C1868 H1857 0.950 . S
C1868 C1866 1.391 . S
C1868 C1869 1.400 . S
C1869 C1863 1.491 . S
C1869 C1868 1.400 . S
C1869 C1870 1.398 . S
C1870 H1858 0.950 . S
C1870 C1869 1.398 . S
C1870 C1871 1.391 . S
C1871 H1859 0.950 . S
C1871 C1867 1.393 . S
C1871 C1870 1.391 . S
H1872 C1880 0.950 . S
H1873 C1885 0.950 . S
H1874 C1882 0.950 . S
H1875 C1884 0.950 . S
H1876 C1886 0.950 . S
H1877 C1888 0.950 . S
H1878 C1890 0.950 . S
H1879 C1891 0.950 . S
C1880 H1872 0.950 . S
C1880 C1881 1.386 . S
C1880 C1882 1.391 . S
C1881 C1880 1.386 . S
C1881 C1885 1.393 . S
C1882 H1874 0.950 . S
C1882 C1880 1.391 . S
C1882 C1883 1.400 . S
C1883 C1882 1.400 . S
C1883 C1884 1.398 . S
C1883 C1889 1.491 . S
C1884 H1875 0.950 . S
C1884 C1883 1.398 . S
C1884 C1885 1.391 . S
C1885 H1873 0.950 . S
C1885 C1881 1.393 . S
C1885 C1884 1.391 . S
C1886 H1876 0.950 . S
C1886 C1887 1.386 . S
C1886 C1888 1.391 . S
C1887 C1886 1.386 . S
C1887 C1891 1.393 . S
C1888 H1877 0.950 . S
C1888 C1886 1.391 . S
C1888 C1889 1.400 . S
C1889 C1883 1.491 . S
C1889 C1888 1.400 . S
C1889 C1890 1.398 . S
C1890 H1878 0.950 . S
C1890 C1889 1.398 . S
C1890 C1891 1.391 . S
C1891 H1879 0.950 . S
C1891 C1887 1.393 . S
C1891 C1890 1.391 . S
H1892 C1900 0.950 . S
H1893 C1905 0.950 . S
H1894 C1902 0.950 . S
H1895 C1904 0.950 . S
H1896 C1906 0.950 . S
H1897 C1908 0.950 . S
H1898 C1910 0.950 . S
H1899 C1911 0.950 . S
C1900 H1892 0.950 . S
C1900 C1901 1.386 . S
C1900 C1902 1.391 . S
C1901 C1900 1.386 . S
C1901 C1905 1.393 . S
C1902 H1894 0.950 . S
C1902 C1900 1.391 . S
C1902 C1903 1.400 . S
C1903 C1902 1.400 . S
C1903 C1904 1.398 . S
C1903 C1909 1.491 . S
C1904 H1895 0.950 . S
C1904 C1903 1.398 . S
C1904 C1905 1.391 . S
C1905 H1893 0.950 . S
C1905 C1901 1.393 . S
C1905 C1904 1.391 . S
C1906 H1896 0.950 . S
C1906 C1907 1.386 . S
C1906 C1908 1.391 . S
C1907 C1906 1.386 . S
C1907 C1911 1.393 . S
C1908 H1897 0.950 . S
C1908 C1906 1.391 . S
C1908 C1909 1.400 . S
C1909 C1903 1.491 . S
C1909 C1908 1.400 . S
C1909 C1910 1.398 . S
C1910 H1898 0.950 . S
C1910 C1909 1.398 . S
C1910 C1911 1.391 . S
C1911 H1899 0.950 . S
C1911 C1907 1.393 . S
C1911 C1910 1.391 . S
H1912 C1920 0.950 . S
H1913 C1925 0.950 . S
H1914 C1922 0.950 . S
H1915 C1924 0.950 . S
H1916 C1926 0.950 . S
H1917 C1928 0.950 . S
H1918 C1930 0.950 . S
H1919 C1931 0.950 . S
C1920 H1912 0.950 . S
C1920 C1921 1.386 . S
C1920 C1922 1.391 . S
C1921 C1920 1.386 . S
C1921 C1925 1.393 . S
C1922 H1914 0.950 . S
C1922 C1920 1.391 . S
C1922 C1923 1.400 . S
C1923 C1922 1.400 . S
C1923 C1924 1.398 . S
C1923 C1929 1.491 . S
C1924 H1915 0.950 . S
C1924 C1923 1.398 . S
C1924 C1925 1.391 . S
C1925 H1913 0.950 . S
C1925 C1921 1.393 . S
C1925 C1924 1.391 . S
C1926 H1916 0.950 . S
C1926 C1927 1.386 . S
C1926 C1928 1.391 . S
C1927 C1926 1.386 . S
C1927 C1931 1.393 . S
C1928 H1917 0.950 . S
C1928 C1926 1.391 . S
C1928 C1929 1.400 . S
C1929 C1923 1.491 . S
C1929 C1928 1.400 . S
C1929 C1930 1.398 . S
C1930 H1918 0.950 . S
C1930 C1929 1.398 . S
C1930 C1931 1.391 . S
C1931 H1919 0.950 . S
C1931 C1927 1.393 . S
C1931 C1930 1.391 . S
H1932 C1940 0.950 . S
H1933 C1945 0.950 . S
H1934 C1942 0.950 . S
H1935 C1944 0.950 . S
H1936 C1946 0.950 . S
H1937 C1948 0.950 . S
H1938 C1950 0.950 . S
H1939 C1951 0.950 . S
C1940 H1932 0.950 . S
C1940 C1941 1.386 . S
C1940 C1942 1.391 . S
C1941 C1940 1.386 . S
C1941 C1945 1.393 . S
C1942 H1934 0.950 . S
C1942 C1940 1.391 . S
C1942 C1943 1.400 . S
C1943 C1942 1.400 . S
C1943 C1944 1.398 . S
C1943 C1949 1.491 . S
C1944 H1935 0.950 . S
C1944 C1943 1.398 . S
C1944 C1945 1.391 . S
C1945 H1933 0.950 . S
C1945 C1941 1.393 . S
C1945 C1944 1.391 . S
C1946 H1936 0.950 . S
C1946 C1947 1.386 . S
C1946 C1948 1.391 . S
C1947 C1946 1.386 . S
C1947 C1951 1.393 . S
C1948 H1937 0.950 . S
C1948 C1946 1.391 . S
C1948 C1949 1.400 . S
C1949 C1943 1.491 . S
C1949 C1948 1.400 . S
C1949 C1950 1.398 . S
C1950 H1938 0.950 . S
C1950 C1949 1.398 . S
C1950 C1951 1.391 . S
C1951 H1939 0.950 . S
C1951 C1947 1.393 . S
C1951 C1950 1.391 . S
H1952 C1960 0.950 . S
H1953 C1965 0.950 . S
H1954 C1962 0.950 . S
H1955 C1964 0.950 . S
H1956 C1966 0.950 . S
H1957 C1968 0.950 . S
H1958 C1970 0.950 . S
H1959 C1971 0.950 . S
C1960 H1952 0.950 . S
C1960 C1961 1.386 . S
C1960 C1962 1.391 . S
C1961 C1960 1.386 . S
C1961 C1965 1.393 . S
C1962 H1954 0.950 . S
C1962 C1960 1.391 . S
C1962 C1963 1.400 . S
C1963 C1962 1.400 . S
C1963 C1964 1.398 . S
C1963 C1969 1.491 . S
C1964 H1955 0.950 . S
C1964 C1963 1.398 . S
C1964 C1965 1.391 . S
C1965 H1953 0.950 . S
C1965 C1961 1.393 . S
C1965 C1964 1.391 . S
C1966 H1956 0.950 . S
C1966 C1967 1.386 . S
C1966 C1968 1.391 . S
C1967 C1966 1.386 . S
C1967 C1971 1.393 . S
C1968 H1957 0.950 . S
C1968 C1966 1.391 . S
C1968 C1969 1.400 . S
C1969 C1963 1.491 . S
C1969 C1968 1.400 . S
C1969 C1970 1.398 . S
C1970 H1958 0.950 . S
C1970 C1969 1.398 . S
C1970 C1971 1.391 . S
C1971 H1959 0.950 . S
C1971 C1967 1.393 . S
C1971 C1970 1.391 . S
H1972 C1980 0.950 . S
H1973 C1985 0.950 . S
H1974 C1982 0.950 . S
H1975 C1984 0.950 . S
H1976 C1986 0.950 . S
H1977 C1988 0.950 . S
H1978 C1990 0.950 . S
H1979 C1991 0.950 . S
C1980 H1972 0.950 . S
C1980 C1981 1.386 . S
C1980 C1982 1.391 . S
C1981 C1980 1.386 . S
C1981 C1985 1.393 . S
C1982 H1974 0.950 . S
C1982 C1980 1.391 . S
C1982 C1983 1.400 . S
C1983 C1982 1.400 . S
C1983 C1984 1.398 . S
C1983 C1989 1.491 . S
C1984 H1975 0.950 . S
C1984 C1983 1.398 . S
C1984 C1985 1.391 . S
C1985 H1973 0.950 . S
C1985 C1981 1.393 . S
C1985 C1984 1.391 . S
C1986 H1976 0.950 . S
C1986 C1987 1.386 . S
C1986 C1988 1.391 . S
C1987 C1986 1.386 . S
C1987 C1991 1.393 . S
C1988 H1977 0.950 . S
C1988 C1986 1.391 . S
C1988 C1989 1.400 . S
C1989 C1983 1.491 . S
C1989 C1988 1.400 . S
C1989 C1990 1.398 . S
C1990 H1978 0.950 . S
C1990 C1989 1.398 . S
C1990 C1991 1.391 . S
C1991 H1979 0.950 . S
C1991 C1987 1.393 . S
C1991 C1990 1.391 . S
H1992 C2000 0.950 . S
H1993 C2005 0.950 . S
H1994 C2002 0.950 . S
H1995 C2004 0.950 . S
H1996 C2006 0.950 . S
H1997 C2008 0.950 . S
H1998 C2010 0.950 . S
H1999 C2011 0.950 . S
C2000 H1992 0.950 . S
C2000 C2001 1.386 . S
C2000 C2002 1.391 . S
C2001 C2000 1.386 . S
C2001 C2005 1.393 . S
C2002 H1994 0.950 . S
C2002 C2000 1.391 . S
C2002 C2003 1.400 . S
C2003 C2002 1.400 . S
C2003 C2004 1.398 . S
C2003 C2009 1.491 . S
C2004 H1995 0.950 . S
C2004 C2003 1.398 . S
C2004 C2005 1.391 . S
C2005 H1993 0.950 . S
C2005 C2001 1.393 . S
C2005 C2004 1.391 . S
C2006 H1996 0.950 . S
C2006 C2007 1.386 . S
C2006 C2008 1.391 . S
C2007 C2006 1.386 . S
C2007 C2011 1.393 . S
C2008 H1997 0.950 . S
C2008 C2006 1.391 . S
C2008 C2009 1.400 . S
C2009 C2003 1.491 . S
C2009 C2008 1.400 . S
C2009 C2010 1.398 . S
C2010 H1998 0.950 . S
C2010 C2009 1.398 . S
C2010 C2011 1.391 . S
C2011 H1999 0.950 . S
C2011 C2007 1.393 . S
C2011 C2010 1.391 . S
H2012 C2020 0.950 . S
H2013 C2025 0.950 . S
H2014 C2022 0.950 . S
H2015 C2024 0.950 . S
H2016 C2026 0.950 . S
H2017 C2028 0.950 . S
H2018 C2030 0.950 . S
H2019 C2031 0.950 . S
C2020 H2012 0.950 . S
C2020 C2021 1.386 . S
C2020 C2022 1.391 . S
C2021 C2020 1.386 . S
C2021 C2025 1.393 . S
C2022 H2014 0.950 . S
C2022 C2020 1.391 . S
C2022 C2023 1.400 . S
C2023 C2022 1.400 . S
C2023 C2024 1.398 . S
C2023 C2029 1.491 . S
C2024 H2015 0.950 . S
C2024 C2023 1.398 . S
C2024 C2025 1.391 . S
C2025 H2013 0.950 . S
C2025 C2021 1.393 . S
C2025 C2024 1.391 . S
C2026 H2016 0.950 . S
C2026 C2027 1.386 . S
C2026 C2028 1.391 . S
C2027 C2026 1.386 . S
C2027 C2031 1.393 . S
C2028 H2017 0.950 . S
C2028 C2026 1.391 . S
C2028 C2029 1.400 . S
C2029 C2023 1.491 . S
C2029 C2028 1.400 . S
C2029 C2030 1.398 . S
C2030 H2018 0.950 . S
C2030 C2029 1.398 . S
C2030 C2031 1.391 . S
C2031 H2019 0.950 . S
C2031 C2027 1.393 . S
C2031 C2030 1.391 . S
H2032 C2040 0.950 . S
H2033 C2045 0.950 . S
H2034 C2042 0.950 . S
H2035 C2044 0.950 . S
H2036 C2046 0.950 . S
H2037 C2048 0.950 . S
H2038 C2050 0.950 . S
H2039 C2051 0.950 . S
C2040 H2032 0.950 . S
C2040 C2041 1.386 . S
C2040 C2042 1.391 . S
C2041 C2040 1.386 . S
C2041 C2045 1.393 . S
C2042 H2034 0.950 . S
C2042 C2040 1.391 . S
C2042 C2043 1.400 . S
C2043 C2042 1.400 . S
C2043 C2044 1.398 . S
C2043 C2049 1.491 . S
C2044 H2035 0.950 . S
C2044 C2043 1.398 . S
C2044 C2045 1.391 . S
C2045 H2033 0.950 . S
C2045 C2041 1.393 . S
C2045 C2044 1.391 . S
C2046 H2036 0.950 . S
C2046 C2047 1.386 . S
C2046 C2048 1.391 . S
C2047 C2046 1.386 . S
C2047 C2051 1.393 . S
C2048 H2037 0.950 . S
C2048 C2046 1.391 . S
C2048 C2049 1.400 . S
C2049 C2043 1.491 . S
C2049 C2048 1.400 . S
C2049 C2050 1.398 . S
C2050 H2038 0.950 . S
C2050 C2049 1.398 . S
C2050 C2051 1.391 . S
C2051 H2039 0.950 . S
C2051 C2047 1.393 . S
C2051 C2050 1.391 . S
H2052 C2060 0.950 . S
H2053 C2065 0.950 . S
H2054 C2062 0.950 . S
H2055 C2064 0.950 . S
H2056 C2066 0.950 . S
H2057 C2068 0.950 . S
H2058 C2070 0.950 . S
H2059 C2071 0.950 . S
C2060 H2052 0.950 . S
C2060 C2061 1.386 . S
C2060 C2062 1.391 . S
C2061 C2060 1.386 . S
C2061 C2065 1.393 . S
C2062 H2054 0.950 . S
C2062 C2060 1.391 . S
C2062 C2063 1.400 . S
C2063 C2062 1.400 . S
C2063 C2064 1.398 . S
C2063 C2069 1.491 . S
C2064 H2055 0.950 . S
C2064 C2063 1.398 . S
C2064 C2065 1.391 . S
C2065 H2053 0.950 . S
C2065 C2061 1.393 . S
C2065 C2064 1.391 . S
C2066 H2056 0.950 . S
C2066 C2067 1.386 . S
C2066 C2068 1.391 . S
C2067 C2066 1.386 . S
C2067 C2071 1.393 . S
C2068 H2057 0.950 . S
C2068 C2066 1.391 . S
C2068 C2069 1.400 . S
C2069 C2063 1.491 . S
C2069 C2068 1.400 . S
C2069 C2070 1.398 . S
C2070 H2058 0.950 . S
C2070 C2069 1.398 . S
C2070 C2071 1.391 . S
C2071 H2059 0.950 . S
C2071 C2067 1.393 . S
C2071 C2070 1.391 . S
H2072 C2080 0.950 . S
H2073 C2085 0.950 . S
H2074 C2082 0.950 . S
H2075 C2084 0.950 . S
H2076 C2086 0.950 . S
H2077 C2088 0.950 . S
H2078 C2090 0.950 . S
H2079 C2091 0.950 . S
C2080 H2072 0.950 . S
C2080 C2081 1.386 . S
C2080 C2082 1.391 . S
C2081 C2080 1.386 . S
C2081 C2085 1.393 . S
C2082 H2074 0.950 . S
C2082 C2080 1.391 . S
C2082 C2083 1.400 . S
C2083 C2082 1.400 . S
C2083 C2084 1.398 . S
C2083 C2089 1.491 . S
C2084 H2075 0.950 . S
C2084 C2083 1.398 . S
C2084 C2085 1.391 . S
C2085 H2073 0.950 . S
C2085 C2081 1.393 . S
C2085 C2084 1.391 . S
C2086 H2076 0.950 . S
C2086 C2087 1.386 . S
C2086 C2088 1.391 . S
C2087 C2086 1.386 . S
C2087 C2091 1.393 . S
C2088 H2077 0.950 . S
C2088 C2086 1.391 . S
C2088 C2089 1.400 . S
C2089 C2083 1.491 . S
C2089 C2088 1.400 . S
C2089 C2090 1.398 . S
C2090 H2078 0.950 . S
C2090 C2089 1.398 . S
C2090 C2091 1.391 . S
C2091 H2079 0.950 . S
C2091 C2087 1.393 . S
C2091 C2090 1.391 . S
H2092 C2100 0.950 . S
H2093 C2105 0.950 . S
H2094 C2102 0.950 . S
H2095 C2104 0.950 . S
H2096 C2106 0.950 . S
H2097 C2108 0.950 . S
H2098 C2110 0.950 . S
H2099 C2111 0.950 . S
C2100 H2092 0.950 . S
C2100 C2101 1.386 . S
C2100 C2102 1.391 . S
C2101 C2100 1.386 . S
C2101 C2105 1.393 . S
C2102 H2094 0.950 . S
C2102 C2100 1.391 . S
C2102 C2103 1.400 . S
C2103 C2102 1.400 . S
C2103 C2104 1.398 . S
C2103 C2109 1.491 . S
C2104 H2095 0.950 . S
C2104 C2103 1.398 . S
C2104 C2105 1.391 . S
C2105 H2093 0.950 . S
C2105 C2101 1.393 . S
C2105 C2104 1.391 . S
C2106 H2096 0.950 . S
C2106 C2107 1.386 . S
C2106 C2108 1.391 . S
C2107 C2106 1.386 . S
C2107 C2111 1.393 . S
C2108 H2097 0.950 . S
C2108 C2106 1.391 . S
C2108 C2109 1.400 . S
C2109 C2103 1.491 . S
C2109 C2108 1.400 . S
C2109 C2110 1.398 . S
C2110 H2098 0.950 . S
C2110 C2109 1.398 . S
C2110 C2111 1.391 . S
C2111 H2099 0.950 . S
C2111 C2107 1.393 . S
C2111 C2110 1.391 . S
H2112 C2120 0.950 . S
H2113 C2125 0.950 . S
H2114 C2122 0.950 . S
H2115 C2124 0.950 . S
H2116 C2126 0.950 . S
H2117 C2128 0.950 . S
H2118 C2130 0.950 . S
H2119 C2131 0.950 . S
C2120 H2112 0.950 . S
C2120 C2121 1.386 . S
C2120 C2122 1.391 . S
C2121 C2120 1.386 . S
C2121 C2125 1.393 . S
C2122 H2114 0.950 . S
C2122 C2120 1.391 . S
C2122 C2123 1.400 . S
C2123 C2122 1.400 . S
C2123 C2124 1.398 . S
C2123 C2129 1.491 . S
C2124 H2115 0.950 . S
C2124 C2123 1.398 . S
C2124 C2125 1.391 . S
C2125 H2113 0.950 . S
C2125 C2121 1.393 . S
C2125 C2124 1.391 . S
C2126 H2116 0.950 . S
C2126 C2127 1.386 . S
C2126 C2128 1.391 . S
C2127 C2126 1.386 . S
C2127 C2131 1.393 . S
C2128 H2117 0.950 . S
C2128 C2126 1.391 . S
C2128 C2129 1.400 . S
C2129 C2123 1.491 . S
C2129 C2128 1.400 . S
C2129 C2130 1.398 . S
C2130 H2118 0.950 . S
C2130 C2129 1.398 . S
C2130 C2131 1.391 . S
C2131 H2119 0.950 . S
C2131 C2127 1.393 . S
C2131 C2130 1.391 . S
H2132 C2140 0.950 . S
H2133 C2145 0.950 . S
H2134 C2142 0.950 . S
H2135 C2144 0.950 . S
H2136 C2146 0.950 . S
H2137 C2148 0.950 . S
H2138 C2150 0.950 . S
H2139 C2151 0.950 . S
C2140 H2132 0.950 . S
C2140 C2141 1.386 . S
C2140 C2142 1.391 . S
C2141 C2140 1.386 . S
C2141 C2145 1.393 . S
C2142 H2134 0.950 . S
C2142 C2140 1.391 . S
C2142 C2143 1.400 . S
C2143 C2142 1.400 . S
C2143 C2144 1.398 . S
C2143 C2149 1.491 . S
C2144 H2135 0.950 . S
C2144 C2143 1.398 . S
C2144 C2145 1.391 . S
C2145 H2133 0.950 . S
C2145 C2141 1.393 . S
C2145 C2144 1.391 . S
C2146 H2136 0.950 . S
C2146 C2147 1.386 . S
C2146 C2148 1.391 . S
C2147 C2146 1.386 . S
C2147 C2151 1.393 . S
C2148 H2137 0.950 . S
C2148 C2146 1.391 . S
C2148 C2149 1.400 . S
C2149 C2143 1.491 . S
C2149 C2148 1.400 . S
C2149 C2150 1.398 . S
C2150 H2138 0.950 . S
C2150 C2149 1.398 . S
C2150 C2151 1.391 . S
C2151 H2139 0.950 . S
C2151 C2147 1.393 . S
C2151 C2150 1.391 . S
H2152 C2160 0.950 . S
H2153 C2165 0.950 . S
H2154 C2162 0.950 . S
H2155 C2164 0.950 . S
H2156 C2166 0.950 . S
H2157 C2168 0.950 . S
H2158 C2170 0.950 . S
H2159 C2171 0.950 . S
C2160 H2152 0.950 . S
C2160 C2161 1.386 . S
C2160 C2162 1.391 . S
C2161 C2160 1.386 . S
C2161 C2165 1.393 . S
C2162 H2154 0.950 . S
C2162 C2160 1.391 . S
C2162 C2163 1.400 . S
C2163 C2162 1.400 . S
C2163 C2164 1.398 . S
C2163 C2169 1.491 . S
C2164 H2155 0.950 . S
C2164 C2163 1.398 . S
C2164 C2165 1.391 . S
C2165 H2153 0.950 . S
C2165 C2161 1.393 . S
C2165 C2164 1.391 . S
C2166 H2156 0.950 . S
C2166 C2167 1.386 . S
C2166 C2168 1.391 . S
C2167 C2166 1.386 . S
C2167 C2171 1.393 . S
C2168 H2157 0.950 . S
C2168 C2166 1.391 . S
C2168 C2169 1.400 . S
C2169 C2163 1.491 . S
C2169 C2168 1.400 . S
C2169 C2170 1.398 . S
C2170 H2158 0.950 . S
C2170 C2169 1.398 . S
C2170 C2171 1.391 . S
C2171 H2159 0.950 . S
C2171 C2167 1.393 . S
C2171 C2170 1.391 . S
H2172 C2180 0.950 . S
H2173 C2185 0.950 . S
H2174 C2182 0.950 . S
H2175 C2184 0.950 . S
H2176 C2186 0.950 . S
H2177 C2188 0.950 . S
H2178 C2190 0.950 . S
H2179 C2191 0.950 . S
C2180 H2172 0.950 . S
C2180 C2181 1.386 . S
C2180 C2182 1.391 . S
C2181 C2180 1.386 . S
C2181 C2185 1.393 . S
C2182 H2174 0.950 . S
C2182 C2180 1.391 . S
C2182 C2183 1.400 . S
C2183 C2182 1.400 . S
C2183 C2184 1.398 . S
C2183 C2189 1.491 . S
C2184 H2175 0.950 . S
C2184 C2183 1.398 . S
C2184 C2185 1.391 . S
C2185 H2173 0.950 . S
C2185 C2181 1.393 . S
C2185 C2184 1.391 . S
C2186 H2176 0.950 . S
C2186 C2187 1.386 . S
C2186 C2188 1.391 . S
C2187 C2186 1.386 . S
C2187 C2191 1.393 . S
C2188 H2177 0.950 . S
C2188 C2186 1.391 . S
C2188 C2189 1.400 . S
C2189 C2183 1.491 . S
C2189 C2188 1.400 . S
C2189 C2190 1.398 . S
C2190 H2178 0.950 . S
C2190 C2189 1.398 . S
C2190 C2191 1.391 . S
C2191 H2179 0.950 . S
C2191 C2187 1.393 . S
C2191 C2190 1.391 . S
H2192 C2200 0.950 . S
H2193 C2205 0.950 . S
H2194 C2202 0.950 . S
H2195 C2204 0.950 . S
H2196 C2206 0.950 . S
H2197 C2208 0.950 . S
H2198 C2210 0.950 . S
H2199 C2211 0.950 . S
C2200 H2192 0.950 . S
C2200 C2201 1.386 . S
C2200 C2202 1.391 . S
C2201 C2200 1.386 . S
C2201 C2205 1.393 . S
C2202 H2194 0.950 . S
C2202 C2200 1.391 . S
C2202 C2203 1.400 . S
C2203 C2202 1.400 . S
C2203 C2204 1.398 . S
C2203 C2209 1.491 . S
C2204 H2195 0.950 . S
C2204 C2203 1.398 . S
C2204 C2205 1.391 . S
C2205 H2193 0.950 . S
C2205 C2201 1.393 . S
C2205 C2204 1.391 . S
C2206 H2196 0.950 . S
C2206 C2207 1.386 . S
C2206 C2208 1.391 . S
C2207 C2206 1.386 . S
C2207 C2211 1.393 . S
C2208 H2197 0.950 . S
C2208 C2206 1.391 . S
C2208 C2209 1.400 . S
C2209 C2203 1.491 . S
C2209 C2208 1.400 . S
C2209 C2210 1.398 . S
C2210 H2198 0.950 . S
C2210 C2209 1.398 . S
C2210 C2211 1.391 . S
C2211 H2199 0.950 . S
C2211 C2207 1.393 . S
C2211 C2210 1.391 . S
H2212 C2220 0.950 . S
H2213 C2225 0.950 . S
H2214 C2222 0.950 . S
H2215 C2224 0.950 . S
H2216 C2226 0.950 . S
H2217 C2228 0.950 . S
H2218 C2230 0.950 . S
H2219 C2231 0.950 . S
C2220 H2212 0.950 . S
C2220 C2221 1.386 . S
C2220 C2222 1.391 . S
C2221 C2220 1.386 . S
C2221 C2225 1.393 . S
C2222 H2214 0.950 . S
C2222 C2220 1.391 . S
C2222 C2223 1.400 . S
C2223 C2222 1.400 . S
C2223 C2224 1.398 . S
C2223 C2229 1.491 . S
C2224 H2215 0.950 . S
C2224 C2223 1.398 . S
C2224 C2225 1.391 . S
C2225 H2213 0.950 . S
C2225 C2221 1.393 . S
C2225 C2224 1.391 . S
C2226 H2216 0.950 . S
C2226 C2227 1.386 . S
C2226 C2228 1.391 . S
C2227 C2226 1.386 . S
C2227 C2231 1.393 . S
C2228 H2217 0.950 . S
C2228 C2226 1.391 . S
C2228 C2229 1.400 . S
C2229 C2223 1.491 . S
C2229 C2228 1.400 . S
C2229 C2230 1.398 . S
C2230 H2218 0.950 . S
C2230 C2229 1.398 . S
C2230 C2231 1.391 . S
C2231 H2219 0.950 . S
C2231 C2227 1.393 . S
C2231 C2230 1.391 . S
H2232 C2240 0.950 . S
H2233 C2245 0.950 . S
H2234 C2242 0.950 . S
H2235 C2244 0.950 . S
H2236 C2246 0.950 . S
H2237 C2248 0.950 . S
H2238 C2250 0.950 . S
H2239 C2251 0.950 . S
C2240 H2232 0.950 . S
C2240 C2241 1.386 . S
C2240 C2242 1.391 . S
C2241 C2240 1.386 . S
C2241 C2245 1.393 . S
C2242 H2234 0.950 . S
C2242 C2240 1.391 . S
C2242 C2243 1.400 . S
C2243 C2242 1.400 . S
C2243 C2244 1.398 . S
C2243 C2249 1.491 . S
C2244 H2235 0.950 . S
C2244 C2243 1.398 . S
C2244 C2245 1.391 . S
C2245 H2233 0.950 . S
C2245 C2241 1.393 . S
C2245 C2244 1.391 . S
C2246 H2236 0.950 . S
C2246 C2247 1.386 . S
C2246 C2248 1.391 . S
C2247 C2246 1.386 . S
C2247 C2251 1.393 . S
C2248 H2237 0.950 . S
C2248 C2246 1.391 . S
C2248 C2249 1.400 . S
C2249 C2243 1.491 . S
C2249 C2248 1.400 . S
C2249 C2250 1.398 . S
C2250 H2238 0.950 . S
C2250 C2249 1.398 . S
C2250 C2251 1.391 . S
C2251 H2239 0.950 . S
C2251 C2247 1.393 . S
C2251 C2250 1.391 . S
H2252 C2260 0.950 . S
H2253 C2265 0.950 . S
H2254 C2262 0.950 . S
H2255 C2264 0.950 . S
H2256 C2266 0.950 . S
H2257 C2268 0.950 . S
H2258 C2270 0.950 . S
H2259 C2271 0.950 . S
C2260 H2252 0.950 . S
C2260 C2261 1.386 . S
C2260 C2262 1.391 . S
C2261 C2260 1.386 . S
C2261 C2265 1.393 . S
C2262 H2254 0.950 . S
C2262 C2260 1.391 . S
C2262 C2263 1.400 . S
C2263 C2262 1.400 . S
C2263 C2264 1.398 . S
C2263 C2269 1.491 . S
C2264 H2255 0.950 . S
C2264 C2263 1.398 . S
C2264 C2265 1.391 . S
C2265 H2253 0.950 . S
C2265 C2261 1.393 . S
C2265 C2264 1.391 . S
C2266 H2256 0.950 . S
C2266 C2267 1.386 . S
C2266 C2268 1.391 . S
C2267 C2266 1.386 . S
C2267 C2271 1.393 . S
C2268 H2257 0.950 . S
C2268 C2266 1.391 . S
C2268 C2269 1.400 . S
C2269 C2263 1.491 . S
C2269 C2268 1.400 . S
C2269 C2270 1.398 . S
C2270 H2258 0.950 . S
C2270 C2269 1.398 . S
C2270 C2271 1.391 . S
C2271 H2259 0.950 . S
C2271 C2267 1.393 . S
C2271 C2270 1.391 . S
H2272 C2280 0.950 . S
H2273 C2285 0.950 . S
H2274 C2282 0.950 . S
H2275 C2284 0.950 . S
H2276 C2286 0.950 . S
H2277 C2288 0.950 . S
H2278 C2290 0.950 . S
H2279 C2291 0.950 . S
C2280 H2272 0.950 . S
C2280 C2281 1.386 . S
C2280 C2282 1.391 . S
C2281 C2280 1.386 . S
C2281 C2285 1.393 . S
C2282 H2274 0.950 . S
C2282 C2280 1.391 . S
C2282 C2283 1.400 . S
C2283 C2282 1.400 . S
C2283 C2284 1.398 . S
C2283 C2289 1.491 . S
C2284 H2275 0.950 . S
C2284 C2283 1.398 . S
C2284 C2285 1.391 . S
C2285 H2273 0.950 . S
C2285 C2281 1.393 . S
C2285 C2284 1.391 . S
C2286 H2276 0.950 . S
C2286 C2287 1.386 . S
C2286 C2288 1.391 . S
C2287 C2286 1.386 . S
C2287 C2291 1.393 . S
C2288 H2277 0.950 . S
C2288 C2286 1.391 . S
C2288 C2289 1.400 . S
C2289 C2283 1.491 . S
C2289 C2288 1.400 . S
C2289 C2290 1.398 . S
C2290 H2278 0.950 . S
C2290 C2289 1.398 . S
C2290 C2291 1.391 . S
C2291 H2279 0.950 . S
C2291 C2287 1.393 . S
C2291 C2290 1.391 . S
H2292 C2300 0.950 . S
H2293 C2305 0.950 . S
H2294 C2302 0.950 . S
H2295 C2304 0.950 . S
H2296 C2306 0.950 . S
H2297 C2308 0.950 . S
H2298 C2310 0.950 . S
H2299 C2311 0.950 . S
C2300 H2292 0.950 . S
C2300 C2301 1.386 . S
C2300 C2302 1.391 . S
C2301 C2300 1.386 . S
C2301 C2305 1.393 . S
C2302 H2294 0.950 . S
C2302 C2300 1.391 . S
C2302 C2303 1.400 . S
C2303 C2302 1.400 . S
C2303 C2304 1.398 . S
C2303 C2309 1.491 . S
C2304 H2295 0.950 . S
C2304 C2303 1.398 . S
C2304 C2305 1.391 . S
C2305 H2293 0.950 . S
C2305 C2301 1.393 . S
C2305 C2304 1.391 . S
C2306 H2296 0.950 . S
C2306 C2307 1.386 . S
C2306 C2308 1.391 . S
C2307 C2306 1.386 . S
C2307 C2311 1.393 . S
C2308 H2297 0.950 . S
C2308 C2306 1.391 . S
C2308 C2309 1.400 . S
C2309 C2303 1.491 . S
C2309 C2308 1.400 . S
C2309 C2310 1.398 . S
C2310 H2298 0.950 . S
C2310 C2309 1.398 . S
C2310 C2311 1.391 . S
C2311 H2299 0.950 . S
C2311 C2307 1.393 . S
C2311 C2310 1.391 . S
H2312 C2320 0.950 . S
H2313 C2325 0.950 . S
H2314 C2322 0.950 . S
H2315 C2324 0.950 . S
H2316 C2326 0.950 . S
H2317 C2328 0.950 . S
H2318 C2330 0.950 . S
H2319 C2331 0.950 . S
C2320 H2312 0.950 . S
C2320 C2321 1.386 . S
C2320 C2322 1.391 . S
C2321 C2320 1.386 . S
C2321 C2325 1.393 . S
C2322 H2314 0.950 . S
C2322 C2320 1.391 . S
C2322 C2323 1.400 . S
C2323 C2322 1.400 . S
C2323 C2324 1.398 . S
C2323 C2329 1.491 . S
C2324 H2315 0.950 . S
C2324 C2323 1.398 . S
C2324 C2325 1.391 . S
C2325 H2313 0.950 . S
C2325 C2321 1.393 . S
C2325 C2324 1.391 . S
C2326 H2316 0.950 . S
C2326 C2327 1.386 . S
C2326 C2328 1.391 . S
C2327 C2326 1.386 . S
C2327 C2331 1.393 . S
C2328 H2317 0.950 . S
C2328 C2326 1.391 . S
C2328 C2329 1.400 . S
C2329 C2323 1.491 . S
C2329 C2328 1.400 . S
C2329 C2330 1.398 . S
C2330 H2318 0.950 . S
C2330 C2329 1.398 . S
C2330 C2331 1.391 . S
C2331 H2319 0.950 . S
C2331 C2327 1.393 . S
C2331 C2330 1.391 . S
H2332 C2340 0.950 . S
H2333 C2345 0.950 . S
H2334 C2342 0.950 . S
H2335 C2344 0.950 . S
H2336 C2346 0.950 . S
H2337 C2348 0.950 . S
H2338 C2350 0.950 . S
H2339 C2351 0.950 . S
C2340 H2332 0.950 . S
C2340 C2341 1.386 . S
C2340 C2342 1.391 . S
C2341 C2340 1.386 . S
C2341 C2345 1.393 . S
C2342 H2334 0.950 . S
C2342 C2340 1.391 . S
C2342 C2343 1.400 . S
C2343 C2342 1.400 . S
C2343 C2344 1.398 . S
C2343 C2349 1.491 . S
C2344 H2335 0.950 . S
C2344 C2343 1.398 . S
C2344 C2345 1.391 . S
C2345 H2333 0.950 . S
C2345 C2341 1.393 . S
C2345 C2344 1.391 . S
C2346 H2336 0.950 . S
C2346 C2347 1.386 . S
C2346 C2348 1.391 . S
C2347 C2346 1.386 . S
C2347 C2351 1.393 . S
C2348 H2337 0.950 . S
C2348 C2346 1.391 . S
C2348 C2349 1.400 . S
C2349 C2343 1.491 . S
C2349 C2348 1.400 . S
C2349 C2350 1.398 . S
C2350 H2338 0.950 . S
C2350 C2349 1.398 . S
C2350 C2351 1.391 . S
C2351 H2339 0.950 . S
C2351 C2347 1.393 . S
C2351 C2350 1.391 . S
H2352 C2360 0.950 . S
H2353 C2365 0.950 . S
H2354 C2362 0.950 . S
H2355 C2364 0.950 . S
H2356 C2366 0.950 . S
H2357 C2368 0.950 . S
H2358 C2370 0.950 . S
H2359 C2371 0.950 . S
C2360 H2352 0.950 . S
C2360 C2361 1.386 . S
C2360 C2362 1.391 . S
C2361 C2360 1.386 . S
C2361 C2365 1.393 . S
C2362 H2354 0.950 . S
C2362 C2360 1.391 . S
C2362 C2363 1.400 . S
C2363 C2362 1.400 . S
C2363 C2364 1.398 . S
C2363 C2369 1.491 . S
C2364 H2355 0.950 . S
C2364 C2363 1.398 . S
C2364 C2365 1.391 . S
C2365 H2353 0.950 . S
C2365 C2361 1.393 . S
C2365 C2364 1.391 . S
C2366 H2356 0.950 . S
C2366 C2367 1.386 . S
C2366 C2368 1.391 . S
C2367 C2366 1.386 . S
C2367 C2371 1.393 . S
C2368 H2357 0.950 . S
C2368 C2366 1.391 . S
C2368 C2369 1.400 . S
C2369 C2363 1.491 . S
C2369 C2368 1.400 . S
C2369 C2370 1.398 . S
C2370 H2358 0.950 . S
C2370 C2369 1.398 . S
C2370 C2371 1.391 . S
C2371 H2359 0.950 . S
C2371 C2367 1.393 . S
C2371 C2370 1.391 . S
H2372 C2380 0.950 . S
H2373 C2385 0.950 . S
H2374 C2382 0.950 . S
H2375 C2384 0.950 . S
H2376 C2386 0.950 . S
H2377 C2388 0.950 . S
H2378 C2390 0.950 . S
H2379 C2391 0.950 . S
C2380 H2372 0.950 . S
C2380 C2381 1.386 . S
C2380 C2382 1.391 . S
C2381 C2380 1.386 . S
C2381 C2385 1.393 . S
C2382 H2374 0.950 . S
C2382 C2380 1.391 . S
C2382 C2383 1.400 . S
C2383 C2382 1.400 . S
C2383 C2384 1.398 . S
C2383 C2389 1.491 . S
C2384 H2375 0.950 . S
C2384 C2383 1.398 . S
C2384 C2385 1.391 . S
C2385 H2373 0.950 . S
C2385 C2381 1.393 . S
C2385 C2384 1.391 . S
C2386 H2376 0.950 . S
C2386 C2387 1.386 . S
C2386 C2388 1.391 . S
C2387 C2386 1.386 . S
C2387 C2391 1.393 . S
C2388 H2377 0.950 . S
C2388 C2386 1.391 . S
C2388 C2389 1.400 . S
C2389 C2383 1.491 . S
C2389 C2388 1.400 . S
C2389 C2390 1.398 . S
C2390 H2378 0.950 . S
C2390 C2389 1.398 . S
C2390 C2391 1.391 . S
C2391 H2379 0.950 . S
C2391 C2387 1.393 . S
C2391 C2390 1.391 . S
H2392 C2400 0.950 . S
H2393 C2405 0.950 . S
H2394 C2402 0.950 . S
H2395 C2404 0.950 . S
H2396 C2406 0.950 . S
H2397 C2408 0.950 . S
H2398 C2410 0.950 . S
H2399 C2411 0.950 . S
C2400 H2392 0.950 . S
C2400 C2401 1.386 . S
C2400 C2402 1.391 . S
C2401 C2400 1.386 . S
C2401 C2405 1.393 . S
C2402 H2394 0.950 . S
C2402 C2400 1.391 . S
C2402 C2403 1.400 . S
C2403 C2402 1.400 . S
C2403 C2404 1.398 . S
C2403 C2409 1.491 . S
C2404 H2395 0.950 . S
C2404 C2403 1.398 . S
C2404 C2405 1.391 . S
C2405 H2393 0.950 . S
C2405 C2401 1.393 . S
C2405 C2404 1.391 . S
C2406 H2396 0.950 . S
C2406 C2407 1.386 . S
C2406 C2408 1.391 . S
C2407 C2406 1.386 . S
C2407 C2411 1.393 . S
C2408 H2397 0.950 . S
C2408 C2406 1.391 . S
C2408 C2409 1.400 . S
C2409 C2403 1.491 . S
C2409 C2408 1.400 . S
C2409 C2410 1.398 . S
C2410 H2398 0.950 . S
C2410 C2409 1.398 . S
C2410 C2411 1.391 . S
C2411 H2399 0.950 . S
C2411 C2407 1.393 . S
C2411 C2410 1.391 . S
H2412 C2420 0.950 . S
H2413 C2425 0.950 . S
H2414 C2422 0.950 . S
H2415 C2424 0.950 . S
H2416 C2426 0.950 . S
H2417 C2428 0.950 . S
H2418 C2430 0.950 . S
H2419 C2431 0.950 . S
C2420 H2412 0.950 . S
C2420 C2421 1.386 . S
C2420 C2422 1.391 . S
C2421 C2420 1.386 . S
C2421 C2425 1.393 . S
C2422 H2414 0.950 . S
C2422 C2420 1.391 . S
C2422 C2423 1.400 . S
C2423 C2422 1.400 . S
C2423 C2424 1.398 . S
C2423 C2429 1.491 . S
C2424 H2415 0.950 . S
C2424 C2423 1.398 . S
C2424 C2425 1.391 . S
C2425 H2413 0.950 . S
C2425 C2421 1.393 . S
C2425 C2424 1.391 . S
C2426 H2416 0.950 . S
C2426 C2427 1.386 . S
C2426 C2428 1.391 . S
C2427 C2426 1.386 . S
C2427 C2431 1.393 . S
C2428 H2417 0.950 . S
C2428 C2426 1.391 . S
C2428 C2429 1.400 . S
C2429 C2423 1.491 . S
C2429 C2428 1.400 . S
C2429 C2430 1.398 . S
C2430 H2418 0.950 . S
C2430 C2429 1.398 . S
C2430 C2431 1.391 . S
C2431 H2419 0.950 . S
C2431 C2427 1.393 . S
C2431 C2430 1.391 . S
H2432 C2440 0.950 . S
H2433 C2445 0.950 . S
H2434 C2442 0.950 . S
H2435 C2444 0.950 . S
H2436 C2446 0.950 . S
H2437 C2448 0.950 . S
H2438 C2450 0.950 . S
H2439 C2451 0.950 . S
C2440 H2432 0.950 . S
C2440 C2441 1.386 . S
C2440 C2442 1.391 . S
C2441 C2440 1.386 . S
C2441 C2445 1.393 . S
C2442 H2434 0.950 . S
C2442 C2440 1.391 . S
C2442 C2443 1.400 . S
C2443 C2442 1.400 . S
C2443 C2444 1.398 . S
C2443 C2449 1.491 . S
C2444 H2435 0.950 . S
C2444 C2443 1.398 . S
C2444 C2445 1.391 . S
C2445 H2433 0.950 . S
C2445 C2441 1.393 . S
C2445 C2444 1.391 . S
C2446 H2436 0.950 . S
C2446 C2447 1.386 . S
C2446 C2448 1.391 . S
C2447 C2446 1.386 . S
C2447 C2451 1.393 . S
C2448 H2437 0.950 . S
C2448 C2446 1.391 . S
C2448 C2449 1.400 . S
C2449 C2443 1.491 . S
C2449 C2448 1.400 . S
C2449 C2450 1.398 . S
C2450 H2438 0.950 . S
C2450 C2449 1.398 . S
C2450 C2451 1.391 . S
C2451 H2439 0.950 . S
C2451 C2447 1.393 . S
C2451 C2450 1.391 . S
H2452 C2460 0.950 . S
H2453 C2465 0.950 . S
H2454 C2462 0.950 . S
H2455 C2464 0.950 . S
H2456 C2466 0.950 . S
H2457 C2468 0.950 . S
H2458 C2470 0.950 . S
H2459 C2471 0.950 . S
C2460 H2452 0.950 . S
C2460 C2461 1.386 . S
C2460 C2462 1.391 . S
C2461 C2460 1.386 . S
C2461 C2465 1.393 . S
C2462 H2454 0.950 . S
C2462 C2460 1.391 . S
C2462 C2463 1.400 . S
C2463 C2462 1.400 . S
C2463 C2464 1.398 . S
C2463 C2469 1.491 . S
C2464 H2455 0.950 . S
C2464 C2463 1.398 . S
C2464 C2465 1.391 . S
C2465 H2453 0.950 . S
C2465 C2461 1.393 . S
C2465 C2464 1.391 . S
C2466 H2456 0.950 . S
C2466 C2467 1.386 . S
C2466 C2468 1.391 . S
C2467 C2466 1.386 . S
C2467 C2471 1.393 . S
C2468 H2457 0.950 . S
C2468 C2466 1.391 . S
C2468 C2469 1.400 . S
C2469 C2463 1.491 . S
C2469 C2468 1.400 . S
C2469 C2470 1.398 . S
C2470 H2458 0.950 . S
C2470 C2469 1.398 . S
C2470 C2471 1.391 . S
C2471 H2459 0.950 . S
C2471 C2467 1.393 . S
C2471 C2470 1.391 . S
H2472 C2480 0.950 . S
H2473 C2485 0.950 . S
H2474 C2482 0.950 . S
H2475 C2484 0.950 . S
H2476 C2486 0.950 . S
H2477 C2488 0.950 . S
H2478 C2490 0.950 . S
H2479 C2491 0.950 . S
C2480 H2472 0.950 . S
C2480 C2481 1.386 . S
C2480 C2482 1.391 . S
C2481 C2480 1.386 . S
C2481 C2485 1.393 . S
C2482 H2474 0.950 . S
C2482 C2480 1.391 . S
C2482 C2483 1.400 . S
C2483 C2482 1.400 . S
C2483 C2484 1.398 . S
C2483 C2489 1.491 . S
C2484 H2475 0.950 . S
C2484 C2483 1.398 . S
C2484 C2485 1.391 . S
C2485 H2473 0.950 . S
C2485 C2481 1.393 . S
C2485 C2484 1.391 . S
C2486 H2476 0.950 . S
C2486 C2487 1.386 . S
C2486 C2488 1.391 . S
C2487 C2486 1.386 . S
C2487 C2491 1.393 . S
C2488 H2477 0.950 . S
C2488 C2486 1.391 . S
C2488 C2489 1.400 . S
C2489 C2483 1.491 . S
C2489 C2488 1.400 . S
C2489 C2490 1.398 . S
C2490 H2478 0.950 . S
C2490 C2489 1.398 . S
C2490 C2491 1.391 . S
C2491 H2479 0.950 . S
C2491 C2487 1.393 . S
C2491 C2490 1.391 . S
H2492 C2500 0.950 . S
H2493 C2505 0.950 . S
H2494 C2502 0.950 . S
H2495 C2504 0.950 . S
H2496 C2506 0.950 . S
H2497 C2508 0.950 . S
H2498 C2510 0.950 . S
H2499 C2511 0.950 . S
C2500 H2492 0.950 . S
C2500 C2501 1.386 . S
C2500 C2502 1.391 . S
C2501 C2500 1.386 . S
C2501 C2505 1.393 . S
C2502 H2494 0.950 . S
C2502 C2500 1.391 . S
C2502 C2503 1.400 . S
C2503 C2502 1.400 . S
C2503 C2504 1.398 . S
C2503 C2509 1.491 . S
C2504 H2495 0.950 . S
C2504 C2503 1.398 . S
C2504 C2505 1.391 . S
C2505 H2493 0.950 . S
C2505 C2501 1.393 . S
C2505 C2504 1.391 . S
C2506 H2496 0.950 . S
C2506 C2507 1.386 . S
C2506 C2508 1.391 . S
C2507 C2506 1.386 . S
C2507 C2511 1.393 . S
C2508 H2497 0.950 . S
C2508 C2506 1.391 . S
C2508 C2509 1.400 . S
C2509 C2503 1.491 . S
C2509 C2508 1.400 . S
C2509 C2510 1.398 . S
C2510 H2498 0.950 . S
C2510 C2509 1.398 . S
C2510 C2511 1.391 . S
C2511 H2499 0.950 . S
C2511 C2507 1.393 . S
C2511 C2510 1.391 . S
H2512 C2520 0.950 . S
H2513 C2525 0.950 . S
H2514 C2522 0.950 . S
H2515 C2524 0.950 . S
H2516 C2526 0.950 . S
H2517 C2528 0.950 . S
H2518 C2530 0.950 . S
H2519 C2531 0.950 . S
C2520 H2512 0.950 . S
C2520 C2521 1.386 . S
C2520 C2522 1.391 . S
C2521 C2520 1.386 . S
C2521 C2525 1.393 . S
C2522 H2514 0.950 . S
C2522 C2520 1.391 . S
C2522 C2523 1.400 . S
C2523 C2522 1.400 . S
C2523 C2524 1.398 . S
C2523 C2529 1.491 . S
C2524 H2515 0.950 . S
C2524 C2523 1.398 . S
C2524 C2525 1.391 . S
C2525 H2513 0.950 . S
C2525 C2521 1.393 . S
C2525 C2524 1.391 . S
C2526 H2516 0.950 . S
C2526 C2527 1.386 . S
C2526 C2528 1.391 . S
C2527 C2526 1.386 . S
C2527 C2531 1.393 . S
C2528 H2517 0.950 . S
C2528 C2526 1.391 . S
C2528 C2529 1.400 . S
C2529 C2523 1.491 . S
C2529 C2528 1.400 . S
C2529 C2530 1.398 . S
C2530 H2518 0.950 . S
C2530 C2529 1.398 . S
C2530 C2531 1.391 . S
C2531 H2519 0.950 . S
C2531 C2527 1.393 . S
C2531 C2530 1.391 . S
H2532 C2540 0.950 . S
H2533 C2545 0.950 . S
H2534 C2542 0.950 . S
H2535 C2544 0.950 . S
H2536 C2546 0.950 . S
H2537 C2548 0.950 . S
H2538 C2550 0.950 . S
H2539 C2551 0.950 . S
C2540 H2532 0.950 . S
C2540 C2541 1.386 . S
C2540 C2542 1.391 . S
C2541 C2540 1.386 . S
C2541 C2545 1.393 . S
C2542 H2534 0.950 . S
C2542 C2540 1.391 . S
C2542 C2543 1.400 . S
C2543 C2542 1.400 . S
C2543 C2544 1.398 . S
C2543 C2549 1.491 . S
C2544 H2535 0.950 . S
C2544 C2543 1.398 . S
C2544 C2545 1.391 . S
C2545 H2533 0.950 . S
C2545 C2541 1.393 . S
C2545 C2544 1.391 . S
C2546 H2536 0.950 . S
C2546 C2547 1.386 . S
C2546 C2548 1.391 . S
C2547 C2546 1.386 . S
C2547 C2551 1.393 . S
C2548 H2537 0.950 . S
C2548 C2546 1.391 . S
C2548 C2549 1.400 . S
C2549 C2543 1.491 . S
C2549 C2548 1.400 . S
C2549 C2550 1.398 . S
C2550 H2538 0.950 . S
C2550 C2549 1.398 . S
C2550 C2551 1.391 . S
C2551 H2539 0.950 . S
C2551 C2547 1.393 . S
C2551 C2550 1.391 . S
H2552 C2560 0.950 . S
H2553 C2565 0.950 . S
H2554 C2562 0.950 . S
H2555 C2564 0.950 . S
H2556 C2566 0.950 . S
H2557 C2568 0.950 . S
H2558 C2570 0.950 . S
H2559 C2571 0.950 . S
C2560 H2552 0.950 . S
C2560 C2561 1.386 . S
C2560 C2562 1.391 . S
C2561 C2560 1.386 . S
C2561 C2565 1.393 . S
C2562 H2554 0.950 . S
C2562 C2560 1.391 . S
C2562 C2563 1.400 . S
C2563 C2562 1.400 . S
C2563 C2564 1.398 . S
C2563 C2569 1.491 . S
C2564 H2555 0.950 . S
C2564 C2563 1.398 . S
C2564 C2565 1.391 . S
C2565 H2553 0.950 . S
C2565 C2561 1.393 . S
C2565 C2564 1.391 . S
C2566 H2556 0.950 . S
C2566 C2567 1.386 . S
C2566 C2568 1.391 . S
C2567 C2566 1.386 . S
C2567 C2571 1.393 . S
C2568 H2557 0.950 . S
C2568 C2566 1.391 . S
C2568 C2569 1.400 . S
C2569 C2563 1.491 . S
C2569 C2568 1.400 . S
C2569 C2570 1.398 . S
C2570 H2558 0.950 . S
C2570 C2569 1.398 . S
C2570 C2571 1.391 . S
C2571 H2559 0.950 . S
C2571 C2567 1.393 . S
C2571 C2570 1.391 . S
H2572 C2580 0.950 . S
H2573 C2585 0.950 . S
H2574 C2582 0.950 . S
H2575 C2584 0.950 . S
H2576 C2586 0.950 . S
H2577 C2588 0.950 . S
H2578 C2590 0.950 . S
H2579 C2591 0.950 . S
C2580 H2572 0.950 . S
C2580 C2581 1.386 . S
C2580 C2582 1.391 . S
C2581 C2580 1.386 . S
C2581 C2585 1.393 . S
C2582 H2574 0.950 . S
C2582 C2580 1.391 . S
C2582 C2583 1.400 . S
C2583 C2582 1.400 . S
C2583 C2584 1.398 . S
C2583 C2589 1.491 . S
C2584 H2575 0.950 . S
C2584 C2583 1.398 . S
C2584 C2585 1.391 . S
C2585 H2573 0.950 . S
C2585 C2581 1.393 . S
C2585 C2584 1.391 . S
C2586 H2576 0.950 . S
C2586 C2587 1.386 . S
C2586 C2588 1.391 . S
C2587 C2586 1.386 . S
C2587 C2591 1.393 . S
C2588 H2577 0.950 . S
C2588 C2586 1.391 . S
C2588 C2589 1.400 . S
C2589 C2583 1.491 . S
C2589 C2588 1.400 . S
C2589 C2590 1.398 . S
C2590 H2578 0.950 . S
C2590 C2589 1.398 . S
C2590 C2591 1.391 . S
C2591 H2579 0.950 . S
C2591 C2587 1.393 . S
C2591 C2590 1.391 . S
C681 C445 1.282 . S
C687 C11 1.271 . S
C701 C25 1.268 . S
C707 C403 1.286 . S
C721 C39 1.281 . S
C727 C417 1.271 . S
C741 C431 1.287 . S
C747 C53 1.269 . S
C761 C361 1.281 . S
C767 C67 1.271 . S
C781 C81 1.268 . S
C787 C375 1.286 . S
C801 C389 1.283 . S
C807 C95 1.270 . S
C821 C109 1.269 . S
C827 C347 1.285 . S
C841 C123 1.282 . S
C847 C627 1.276 . S
C861 C585 1.285 . S
C867 C137 1.272 . S
C881 C599 1.275 . S
C887 C151 1.283 . S
C901 C165 1.283 . S
C907 C613 1.270 . S
C921 C179 1.286 . S
C927 C669 1.270 . S
C941 C193 1.286 . S
C947 C641 1.268 . S
C961 C207 1.283 . S
C967 C655 1.275 . S
C981 C571 1.281 . S
C987 C221 1.271 . S
C1001 C557 1.284 . S
C1007 C235 1.269 . S
C1021 C249 1.278 . S
C1027 C473 1.280 . S
C1041 C487 1.286 . S
C1047 C263 1.270 . S
C1061 C277 1.284 . S
C1067 C501 1.269 . S
C1081 C459 1.286 . S
C1087 C291 1.271 . S
C1101 C529 1.280 . S
C1107 C305 1.272 . S
C1121 C319 1.268 . S
C1127 C543 1.286 . S
C1141 C515 1.268 . S
C1147 C333 1.286 . S
C1161 C139 1.128 . S
C1167 C13 1.152 . S
C1181 C153 1.134 . S
C1187 C27 1.143 . S
C1201 C41 1.127 . S
C1207 C167 1.159 . S
C1221 C125 1.129 . S
C1227 C55 1.151 . S
C1241 C69 1.140 . S
C1247 C223 1.136 . S
C1261 C181 1.155 . S
C1267 C83 1.146 . S
C1281 C195 1.128 . S
C1287 C97 1.151 . S
C1301 C209 1.134 . S
C1307 C111 1.162 . S
C1321 C265 1.162 . S
C1327 C237 1.132 . S
C1341 C321 1.153 . S
C1347 C251 1.148 . S
C1361 C335 1.147 . S
C1367 C279 1.155 . S
C1381 C293 1.156 . S
C1387 C307 1.145 . S
C1401 C475 1.162 . S
C1407 C349 1.131 . S
C1421 C489 1.160 . S
C1427 C363 1.127 . S
C1441 C503 1.146 . S
C1447 C377 1.132 . S
C1461 C391 1.127 . S
C1467 C461 1.160 . S
C1481 C405 1.153 . S
C1487 C559 1.148 . S
C1501 C419 1.156 . S
C1507 C517 1.127 . S
C1521 C531 1.139 . S
C1527 C433 1.137 . S
C1541 C545 1.145 . S
C1547 C447 1.156 . S
C1561 C573 1.127 . S
C1567 C601 1.157 . S
C1581 C657 1.141 . S
C1587 C587 1.135 . S
C1601 C671 1.128 . S
C1607 C615 1.151 . S
C1621 C643 1.135 . S
C1627 C629 1.142 . S
C1641 C7 1.310 . S
C1647 C260 1.220 . S
C1661 C21 1.310 . S
C1667 C274 1.198 . S
C1681 C35 1.312 . S
C1687 C288 1.233 . S
C1701 C246 1.205 . S
C1707 C49 1.308 . S
C1721 C63 1.311 . S
C1727 C316 1.227 . S
C1741 C77 1.314 . S
C1747 C232 1.237 . S
C1761 C330 1.238 . S
C1767 C91 1.314 . S
C1781 C302 1.221 . S
C1787 C105 1.314 . S
C1801 C119 1.310 . S
C1807 C134 1.199 . S
C1821 C133 1.314 . S
C1827 C148 1.219 . S
C1841 C147 1.313 . S
C1847 C162 1.237 . S
C1861 C120 1.211 . S
C1867 C161 1.309 . S
C1881 C218 1.234 . S
C1887 C175 1.315 . S
C1901 C176 1.200 . S
C1907 C189 1.308 . S
C1921 C190 1.225 . S
C1927 C203 1.314 . S
C1941 C217 1.311 . S
C1947 C204 1.204 . S
C1961 C50 1.229 . S
C1967 C231 1.314 . S
C1981 C78 1.202 . S
C1987 C245 1.311 . S
C2001 C92 1.198 . S
C2007 C259 1.310 . S
C2021 C273 1.311 . S
C2027 C106 1.202 . S
C2041 C64 1.209 . S
C2047 C287 1.312 . S
C2061 C22 1.212 . S
C2067 C301 1.313 . S
C2081 C36 1.234 . S
C2087 C315 1.315 . S
C2101 C8 1.196 . S
C2107 C329 1.309 . S
C2121 C596 1.231 . S
C2127 C343 1.315 . S
C2141 C357 1.314 . S
C2147 C610 1.225 . S
C2161 C624 1.197 . S
C2167 C371 1.310 . S
C2181 C582 1.229 . S
C2187 C385 1.314 . S
C2201 C399 1.308 . S
C2207 C652 1.197 . S
C2221 C413 1.314 . S
C2227 C568 1.236 . S
C2241 C666 1.198 . S
C2247 C427 1.308 . S
C2261 C441 1.308 . S
C2267 C638 1.204 . S
C2281 C455 1.310 . S
C2287 C470 1.219 . S
C2301 C469 1.310 . S
C2307 C484 1.222 . S
C2321 C483 1.313 . S
C2327 C498 1.237 . S
C2341 C497 1.311 . S
C2347 C456 1.201 . S
C2361 C554 1.233 . S
C2367 C511 1.315 . S
C2381 C512 1.238 . S
C2387 C525 1.314 . S
C2401 C526 1.236 . S
C2407 C539 1.315 . S
C2421 C553 1.314 . S
C2427 C540 1.225 . S
C2441 C386 1.231 . S
C2447 C567 1.315 . S
C2461 C414 1.238 . S
C2467 C581 1.314 . S
C2481 C428 1.200 . S
C2487 C595 1.308 . S
C2501 C609 1.315 . S
C2507 C442 1.233 . S
C2521 C400 1.222 . S
C2527 C623 1.314 . S
C2541 C358 1.199 . S
C2547 C637 1.310 . S
C2561 C651 1.312 . S
C2567 C372 1.232 . S
C2581 C344 1.200 . S
C2587 C665 1.308 . S
