# Generated by pormake.
# Topology wiq, (6)-cn, num edge types: 1
# Building blocks:
#     Node 0, Type 0, BuildingBlock: MAKGUD_clean_sbu_1, # of connection points: 6
#     Node 1, Type 0, BuildingBlock: MAKGUD_clean_sbu_1, # of connection points: 6
#     Node 2, Type 0, BuildingBlock: MAKGUD_clean_sbu_1, # of connection points: 6
#     Node 3, Type 0, BuildingBlock: MAKGUD_clean_sbu_1, # of connection points: 6
#     Node 4, Type 0, BuildingBlock: MAKGUD_clean_sbu_1, # of connection points: 6
#     Node 5, Type 0, BuildingBlock: MAKGUD_clean_sbu_1, # of connection points: 6
#     Node 6, Type 0, BuildingBlock: MAKGUD_clean_sbu_1, # of connection points: 6
#     Node 7, Type 0, BuildingBlock: MAKGUD_clean_sbu_1, # of connection points: 6
#     Node 8, Type 0, BuildingBlock: MAKGUD_clean_sbu_1, # of connection points: 6
#     Node 9, Type 0, BuildingBlock: MAKGUD_clean_sbu_1, # of connection points: 6
#     Node 10, Type 0, BuildingBlock: MAKGUD_clean_sbu_1, # of connection points: 6
#     Node 11, Type 0, BuildingBlock: MAKGUD_clean_sbu_1, # of connection points: 6
#     Node 12, Type 0, BuildingBlock: MAKGUD_clean_sbu_1, # of connection points: 6
#     Node 13, Type 0, BuildingBlock: MAKGUD_clean_sbu_1, # of connection points: 6
#     Node 14, Type 0, BuildingBlock: MAKGUD_clean_sbu_1, # of connection points: 6
#     Node 15, Type 0, BuildingBlock: MAKGUD_clean_sbu_1, # of connection points: 6
#     Node 16, Type 0, BuildingBlock: MAKGUD_clean_sbu_1, # of connection points: 6
#     Node 17, Type 0, BuildingBlock: MAKGUD_clean_sbu_1, # of connection points: 6
#     Node 18, Type 0, BuildingBlock: MAKGUD_clean_sbu_1, # of connection points: 6
#     Node 19, Type 0, BuildingBlock: MAKGUD_clean_sbu_1, # of connection points: 6
#     Node 20, Type 0, BuildingBlock: MAKGUD_clean_sbu_1, # of connection points: 6
#     Node 21, Type 0, BuildingBlock: MAKGUD_clean_sbu_1, # of connection points: 6
#     Node 22, Type 0, BuildingBlock: MAKGUD_clean_sbu_1, # of connection points: 6
#     Node 23, Type 0, BuildingBlock: MAKGUD_clean_sbu_1, # of connection points: 6
#     Node 24, Type 0, BuildingBlock: MAKGUD_clean_sbu_1, # of connection points: 6
#     Node 25, Type 0, BuildingBlock: MAKGUD_clean_sbu_1, # of connection points: 6
#     Node 26, Type 0, BuildingBlock: MAKGUD_clean_sbu_1, # of connection points: 6
#     Node 27, Type 0, BuildingBlock: MAKGUD_clean_sbu_1, # of connection points: 6
#     Node 28, Type 0, BuildingBlock: MAKGUD_clean_sbu_1, # of connection points: 6
#     Node 29, Type 0, BuildingBlock: MAKGUD_clean_sbu_1, # of connection points: 6
#     Node 30, Type 0, BuildingBlock: MAKGUD_clean_sbu_1, # of connection points: 6
#     Node 31, Type 0, BuildingBlock: MAKGUD_clean_sbu_1, # of connection points: 6
#     Edge 32, Type (0, 0), BuildingBlock: AJUNOK_clean_linker_0, # of connection points: 2
#     Edge 33, Type (0, 0), BuildingBlock: AJUNOK_clean_linker_0, # of connection points: 2
#     Edge 34, Type (0, 0), BuildingBlock: AJUNOK_clean_linker_0, # of connection points: 2
#     Edge 35, Type (0, 0), BuildingBlock: AJUNOK_clean_linker_0, # of connection points: 2
#     Edge 36, Type (0, 0), BuildingBlock: AJUNOK_clean_linker_0, # of connection points: 2
#     Edge 37, Type (0, 0), BuildingBlock: AJUNOK_clean_linker_0, # of connection points: 2
#     Edge 38, Type (0, 0), BuildingBlock: AJUNOK_clean_linker_0, # of connection points: 2
#     Edge 39, Type (0, 0), BuildingBlock: AJUNOK_clean_linker_0, # of connection points: 2
#     Edge 40, Type (0, 0), BuildingBlock: AJUNOK_clean_linker_0, # of connection points: 2
#     Edge 41, Type (0, 0), BuildingBlock: AJUNOK_clean_linker_0, # of connection points: 2
#     Edge 42, Type (0, 0), BuildingBlock: AJUNOK_clean_linker_0, # of connection points: 2
#     Edge 43, Type (0, 0), BuildingBlock: AJUNOK_clean_linker_0, # of connection points: 2
#     Edge 44, Type (0, 0), BuildingBlock: AJUNOK_clean_linker_0, # of connection points: 2
#     Edge 45, Type (0, 0), BuildingBlock: AJUNOK_clean_linker_0, # of connection points: 2
#     Edge 46, Type (0, 0), BuildingBlock: AJUNOK_clean_linker_0, # of connection points: 2
#     Edge 47, Type (0, 0), BuildingBlock: AJUNOK_clean_linker_0, # of connection points: 2
#     Edge 48, Type (0, 0), BuildingBlock: AJUNOK_clean_linker_0, # of connection points: 2
#     Edge 49, Type (0, 0), BuildingBlock: AJUNOK_clean_linker_0, # of connection points: 2
#     Edge 50, Type (0, 0), BuildingBlock: AJUNOK_clean_linker_0, # of connection points: 2
#     Edge 51, Type (0, 0), BuildingBlock: AJUNOK_clean_linker_0, # of connection points: 2
#     Edge 52, Type (0, 0), BuildingBlock: AJUNOK_clean_linker_0, # of connection points: 2
#     Edge 53, Type (0, 0), BuildingBlock: AJUNOK_clean_linker_0, # of connection points: 2
#     Edge 54, Type (0, 0), BuildingBlock: AJUNOK_clean_linker_0, # of connection points: 2
#     Edge 55, Type (0, 0), BuildingBlock: AJUNOK_clean_linker_0, # of connection points: 2
#     Edge 56, Type (0, 0), BuildingBlock: AJUNOK_clean_linker_0, # of connection points: 2
#     Edge 57, Type (0, 0), BuildingBlock: AJUNOK_clean_linker_0, # of connection points: 2
#     Edge 58, Type (0, 0), BuildingBlock: AJUNOK_clean_linker_0, # of connection points: 2
#     Edge 59, Type (0, 0), BuildingBlock: AJUNOK_clean_linker_0, # of connection points: 2
#     Edge 60, Type (0, 0), BuildingBlock: AJUNOK_clean_linker_0, # of connection points: 2
#     Edge 61, Type (0, 0), BuildingBlock: AJUNOK_clean_linker_0, # of connection points: 2
#     Edge 62, Type (0, 0), BuildingBlock: AJUNOK_clean_linker_0, # of connection points: 2
#     Edge 63, Type (0, 0), BuildingBlock: AJUNOK_clean_linker_0, # of connection points: 2
#     Edge 64, Type (0, 0), BuildingBlock: AJUNOK_clean_linker_0, # of connection points: 2
#     Edge 65, Type (0, 0), BuildingBlock: AJUNOK_clean_linker_0, # of connection points: 2
#     Edge 66, Type (0, 0), BuildingBlock: AJUNOK_clean_linker_0, # of connection points: 2
#     Edge 67, Type (0, 0), BuildingBlock: AJUNOK_clean_linker_0, # of connection points: 2
#     Edge 68, Type (0, 0), BuildingBlock: AJUNOK_clean_linker_0, # of connection points: 2
#     Edge 69, Type (0, 0), BuildingBlock: AJUNOK_clean_linker_0, # of connection points: 2
#     Edge 70, Type (0, 0), BuildingBlock: AJUNOK_clean_linker_0, # of connection points: 2
#     Edge 71, Type (0, 0), BuildingBlock: AJUNOK_clean_linker_0, # of connection points: 2
#     Edge 72, Type (0, 0), BuildingBlock: AJUNOK_clean_linker_0, # of connection points: 2
#     Edge 73, Type (0, 0), BuildingBlock: AJUNOK_clean_linker_0, # of connection points: 2
#     Edge 74, Type (0, 0), BuildingBlock: AJUNOK_clean_linker_0, # of connection points: 2
#     Edge 75, Type (0, 0), BuildingBlock: AJUNOK_clean_linker_0, # of connection points: 2
#     Edge 76, Type (0, 0), BuildingBlock: AJUNOK_clean_linker_0, # of connection points: 2
#     Edge 77, Type (0, 0), BuildingBlock: AJUNOK_clean_linker_0, # of connection points: 2
#     Edge 78, Type (0, 0), BuildingBlock: AJUNOK_clean_linker_0, # of connection points: 2
#     Edge 79, Type (0, 0), BuildingBlock: AJUNOK_clean_linker_0, # of connection points: 2
#     Edge 80, Type (0, 0), BuildingBlock: AJUNOK_clean_linker_0, # of connection points: 2
#     Edge 81, Type (0, 0), BuildingBlock: AJUNOK_clean_linker_0, # of connection points: 2
#     Edge 82, Type (0, 0), BuildingBlock: AJUNOK_clean_linker_0, # of connection points: 2
#     Edge 83, Type (0, 0), BuildingBlock: AJUNOK_clean_linker_0, # of connection points: 2
#     Edge 84, Type (0, 0), BuildingBlock: AJUNOK_clean_linker_0, # of connection points: 2
#     Edge 85, Type (0, 0), BuildingBlock: AJUNOK_clean_linker_0, # of connection points: 2
#     Edge 86, Type (0, 0), BuildingBlock: AJUNOK_clean_linker_0, # of connection points: 2
#     Edge 87, Type (0, 0), BuildingBlock: AJUNOK_clean_linker_0, # of connection points: 2
#     Edge 88, Type (0, 0), BuildingBlock: AJUNOK_clean_linker_0, # of connection points: 2
#     Edge 89, Type (0, 0), BuildingBlock: AJUNOK_clean_linker_0, # of connection points: 2
#     Edge 90, Type (0, 0), BuildingBlock: AJUNOK_clean_linker_0, # of connection points: 2
#     Edge 91, Type (0, 0), BuildingBlock: AJUNOK_clean_linker_0, # of connection points: 2
#     Edge 92, Type (0, 0), BuildingBlock: AJUNOK_clean_linker_0, # of connection points: 2
#     Edge 93, Type (0, 0), BuildingBlock: AJUNOK_clean_linker_0, # of connection points: 2
#     Edge 94, Type (0, 0), BuildingBlock: AJUNOK_clean_linker_0, # of connection points: 2
#     Edge 95, Type (0, 0), BuildingBlock: AJUNOK_clean_linker_0, # of connection points: 2
#     Edge 96, Type (0, 0), BuildingBlock: AJUNOK_clean_linker_0, # of connection points: 2
#     Edge 97, Type (0, 0), BuildingBlock: AJUNOK_clean_linker_0, # of connection points: 2
#     Edge 98, Type (0, 0), BuildingBlock: AJUNOK_clean_linker_0, # of connection points: 2
#     Edge 99, Type (0, 0), BuildingBlock: AJUNOK_clean_linker_0, # of connection points: 2
#     Edge 100, Type (0, 0), BuildingBlock: AJUNOK_clean_linker_0, # of connection points: 2
#     Edge 101, Type (0, 0), BuildingBlock: AJUNOK_clean_linker_0, # of connection points: 2
#     Edge 102, Type (0, 0), BuildingBlock: AJUNOK_clean_linker_0, # of connection points: 2
#     Edge 103, Type (0, 0), BuildingBlock: AJUNOK_clean_linker_0, # of connection points: 2
#     Edge 104, Type (0, 0), BuildingBlock: AJUNOK_clean_linker_0, # of connection points: 2
#     Edge 105, Type (0, 0), BuildingBlock: AJUNOK_clean_linker_0, # of connection points: 2
#     Edge 106, Type (0, 0), BuildingBlock: AJUNOK_clean_linker_0, # of connection points: 2
#     Edge 107, Type (0, 0), BuildingBlock: AJUNOK_clean_linker_0, # of connection points: 2
#     Edge 108, Type (0, 0), BuildingBlock: AJUNOK_clean_linker_0, # of connection points: 2
#     Edge 109, Type (0, 0), BuildingBlock: AJUNOK_clean_linker_0, # of connection points: 2
#     Edge 110, Type (0, 0), BuildingBlock: AJUNOK_clean_linker_0, # of connection points: 2
#     Edge 111, Type (0, 0), BuildingBlock: AJUNOK_clean_linker_0, # of connection points: 2
#     Edge 112, Type (0, 0), BuildingBlock: AJUNOK_clean_linker_0, # of connection points: 2
#     Edge 113, Type (0, 0), BuildingBlock: AJUNOK_clean_linker_0, # of connection points: 2
#     Edge 114, Type (0, 0), BuildingBlock: AJUNOK_clean_linker_0, # of connection points: 2
#     Edge 115, Type (0, 0), BuildingBlock: AJUNOK_clean_linker_0, # of connection points: 2
#     Edge 116, Type (0, 0), BuildingBlock: AJUNOK_clean_linker_0, # of connection points: 2
#     Edge 117, Type (0, 0), BuildingBlock: AJUNOK_clean_linker_0, # of connection points: 2
#     Edge 118, Type (0, 0), BuildingBlock: AJUNOK_clean_linker_0, # of connection points: 2
#     Edge 119, Type (0, 0), BuildingBlock: AJUNOK_clean_linker_0, # of connection points: 2
#     Edge 120, Type (0, 0), BuildingBlock: AJUNOK_clean_linker_0, # of connection points: 2
#     Edge 121, Type (0, 0), BuildingBlock: AJUNOK_clean_linker_0, # of connection points: 2
#     Edge 122, Type (0, 0), BuildingBlock: AJUNOK_clean_linker_0, # of connection points: 2
#     Edge 123, Type (0, 0), BuildingBlock: AJUNOK_clean_linker_0, # of connection points: 2
#     Edge 124, Type (0, 0), BuildingBlock: AJUNOK_clean_linker_0, # of connection points: 2
#     Edge 125, Type (0, 0), BuildingBlock: AJUNOK_clean_linker_0, # of connection points: 2
#     Edge 126, Type (0, 0), BuildingBlock: AJUNOK_clean_linker_0, # of connection points: 2
#     Edge 127, Type (0, 0), BuildingBlock: AJUNOK_clean_linker_0, # of connection points: 2
# Relax obj value: 0.275
# Max RMSD: 0.259
# Mean RMSD: 0.259
data_MOF--net-wiq--node1-MAKGUD_clean_sbu_1--edge1-AJUNOK_clean_linker_0
_symmetry_space_group_name_H-M    P1
_symmetry_Int_Tables_number       1
_symmetry_cell_setting            triclinic
loop_
_symmetry_equiv_pos_as_xyz
'x, y, z'
_cell_length_a     39.704328
_cell_length_b     39.628282
_cell_length_c     43.77177
_cell_angle_alpha  89.818191
_cell_angle_beta   89.822516
_cell_angle_gamma 89.931252
loop_
_atom_site_label
_atom_site_type_symbol
_atom_site_fract_x
_atom_site_fract_y
_atom_site_fract_z
_atom_type_partial_charge
O0 O 0.18898 0.31444 0.38102 0.0
Tb1 Tb 0.18681 0.26141 0.3683 0.0
C2 C 0.16495 0.19044 0.37936 0.0
O3 O 0.24166 0.21527 0.31849 0.0
Tb4 Tb 0.19936 0.17953 0.31644 0.0
C5 C 0.22071 0.11569 0.31093 0.0
O6 O 0.2088 0.26199 0.32334 0.0
O7 O 0.17199 0.19011 0.27417 0.0
C8 C 0.18891 0.19775 0.2491 0.0
O9 O 0.22139 0.20346 0.2514 0.0
O10 O 0.1909 0.21005 0.38424 0.0
O11 O 0.15974 0.17902 0.35152 0.0
O12 O 0.13306 0.26513 0.36506 0.0
C13 C 0.23845 0.24846 0.31934 0.0
C14 C 0.20398 0.31041 0.4071 0.0
O15 O 0.22162 0.13342 0.3359 0.0
O16 O 0.20845 0.13426 0.28919 0.0
C17 C 0.12005 0.28818 0.34711 0.0
O18 O 0.13987 0.30507 0.32849 0.0
O19 O 0.21083 0.27849 0.41081 0.0
O20 O 0.22013 0.97567 0.59092 0.0
Tb21 Tb 0.17413 0.95663 0.56913 0.0
C22 C 0.10289 0.99268 0.5753 0.0
O23 O 0.14321 0.94598 0.63558 0.0
Tb24 Tb 0.091 0.93882 0.62393 0.0
C25 C 1.04561 0.95872 0.66547 0.0
O26 O 0.17515 0.91579 0.60306 0.0
O27 O 0.08272 0.88534 0.61925 0.0
C28 C 0.07402 0.86823 0.64374 0.0
O29 O 0.07494 0.88339 0.67037 0.0
O30 O 0.13589 0.99713 0.57262 0.0
O31 O 0.09073 0.96225 0.57919 0.0
O32 O 0.16639 0.9271 0.52765 0.0
C33 C 0.16325 0.92026 0.63086 0.0
C34 C 0.23776 0.97964 0.56604 0.0
O35 O 0.07756 0.95403 0.6705 0.0
O36 O 1.03995 0.95422 0.6365 0.0
C37 C 0.15448 0.94129 0.50263 0.0
O38 O 0.14318 0.97242 0.50416 0.0
O39 O 0.21896 0.9717 0.54289 0.0
O40 O 0.37831 0.95713 0.78695 0.0
Tb41 Tb 0.3914 0.91202 0.81372 0.0
C42 C 0.3504 0.84429 0.81899 0.0
O43 O 0.41101 0.88173 0.88355 0.0
Tb44 Tb 0.41076 0.83371 0.85994 0.0
C45 C 0.40345 0.78199 0.89902 0.0
O46 O 0.43453 0.91272 0.84519 0.0
O47 O 0.4628 0.83396 0.84591 0.0
C48 C 0.48503 0.82692 0.867 0.0
O49 O 0.47459 0.8236 0.89531 0.0
O50 O 0.34799 0.87759 0.81957 0.0
O51 O 0.38006 0.83014 0.81966 0.0
O52 O 0.41854 0.90053 0.77138 0.0
C53 C 0.43165 0.90561 0.87454 0.0
C54 C 0.37237 0.97709 0.80986 0.0
O55 O 0.38986 0.81172 0.90217 0.0
O56 O 0.42025 0.78137 0.87351 0.0
C57 C 0.40222 0.89453 0.74575 0.0
O58 O 0.36936 0.89082 0.74696 0.0
O59 O 0.37611 0.95992 0.83503 0.0
O60 O 0.38518 0.12605 1.03852 0.0
Tb61 Tb 0.43133 0.14211 0.06148 0.0
C62 C 0.50112 0.10458 0.06299 0.0
O63 O 0.46021 0.15506 0.13043 0.0
Tb64 Tb 0.51119 0.1563 0.11316 0.0
C65 C 0.56043 0.14083 0.15226 0.0
O66 O 0.43231 0.18407 0.09363 0.0
O67 O 0.51485 0.21012 0.11076 0.0
C68 C 0.5395 0.22383 0.09523 0.0
O69 O 0.55771 0.20528 0.07664 0.0
O70 O 0.4681 0.10076 0.0631 0.0
O71 O 0.51435 0.13416 0.06826 0.0
O72 O 0.43668 0.17124 1.01935 0.0
C73 C 0.44043 0.18012 0.12254 0.0
C74 C 0.36802 0.11928 0.06311 0.0
O75 O 0.52868 0.1335 0.1562 0.0
O76 O 0.56416 0.15516 0.12578 0.0
C77 C 0.44611 0.15675 0.99367 0.0
O78 O 0.45676 0.12536 0.99457 0.0
O79 O 0.387 0.12448 0.08681 0.0
O80 O 0.21911 0.95239 0.33384 0.0
Tb81 Tb 0.20233 0.9055 0.31243 0.0
C82 C 0.24054 0.83694 0.30927 0.0
O83 O 0.18589 0.87716 0.24233 0.0
Tb84 Tb 0.18801 0.82636 0.26072 0.0
C85 C 0.20357 0.77592 0.22298 0.0
O86 O 0.15849 0.9017 0.28217 0.0
O87 O 0.1343 0.82154 0.26313 0.0
C88 C 0.11882 0.81854 0.23688 0.0
O89 O 0.13656 0.82132 0.21161 0.0
O90 O 0.24468 0.86992 0.30984 0.0
O91 O 0.21031 0.82481 0.30552 0.0
O92 O 0.17641 0.90099 0.35637 0.0
C93 C 0.16154 0.89659 0.2525 0.0
C94 C 0.22307 0.96961 0.30879 0.0
O95 O 0.21284 0.80729 0.21919 0.0
O96 O 0.18694 0.7733 0.24847 0.0
C97 C 0.19343 0.89458 0.38156 0.0
O98 O 0.22533 0.88611 0.37914 0.0
O99 O 0.21622 0.95029 0.28565 0.0
O100 O 0.40013 0.96109 0.58266 0.0
Tb101 Tb 0.44328 0.94202 0.55685 0.0
C102 C 0.50251 0.99427 0.54061 0.0
O103 O 0.449 0.92789 0.48001 0.0
Tb104 Tb 0.50024 0.93879 0.49294 0.0
C105 C 0.54714 0.93542 0.44898 0.0
O106 O 0.43661 0.90008 0.52447 0.0
O107 O 0.51399 0.89724 0.52241 0.0
C108 C 0.51111 0.86704 0.51054 0.0
O109 O 0.49597 0.864 0.48408 0.0
O110 O 0.48779 0.97515 0.56161 0.0
O111 O 0.49827 0.98885 0.5114 0.0
O112 O 0.44326 0.9128 0.59946 0.0
C113 C 0.43148 0.90507 0.49492 0.0
C114 C 0.38352 0.9737 0.55983 0.0
O115 O 0.51493 0.93099 0.4449 0.0
O116 O 0.55241 0.94267 0.47747 0.0
C117 C 0.45552 0.92598 0.62478 0.0
O118 O 0.47163 0.95485 0.62295 0.0
O119 O 0.40143 0.96968 0.53505 0.0
O120 O 0.38309 0.14203 0.78032 0.0
Tb121 Tb 0.40023 0.18764 0.8042 0.0
C122 C 0.3613 0.25819 0.79793 0.0
O123 O 0.42566 0.21448 0.73562 0.0
Tb124 Tb 0.42588 0.26275 0.75859 0.0
C125 C 0.42835 0.31269 0.71711 0.0
O126 O 0.44543 0.18406 0.77569 0.0
O127 O 0.47282 0.2638 0.78368 0.0
C128 C 0.50138 0.25634 0.77009 0.0
O129 O 0.50068 0.24312 0.74263 0.0
O130 O 0.35919 0.22477 0.79765 0.0
O131 O 0.3901 0.27382 0.79433 0.0
O132 O 0.42483 0.19509 0.84817 0.0
C133 C 0.44392 0.1895 0.74611 0.0
C134 C 0.37679 0.12396 0.80456 0.0
O135 O 0.40496 0.28974 0.71876 0.0
O136 O 0.44994 0.30745 0.73882 0.0
C137 C 0.40721 0.20327 0.87261 0.0
O138 O 0.37537 0.2115 0.86927 0.0
O139 O 0.38261 0.14234 0.82852 0.0
O140 O 1.03028 0.16809 0.9983 0.0
Tb141 Tb 0.08199 0.15808 1.01191 0.0
C142 C 0.15316 0.17963 0.99785 0.0
O143 O 0.12409 0.10054 1.0578 0.0
Tb144 Tb 0.15883 0.1435 1.06042 0.0
C145 C 0.22235 0.12095 0.06257 0.0
O146 O 0.07543 0.13095 1.05433 0.0
O147 O 0.15183 0.17217 0.10258 0.0
C148 C 0.14371 0.15695 0.12841 0.0
O149 O 0.13404 0.12527 0.12753 0.0
O150 O 0.13122 0.15635 0.99032 0.0
O151 O 0.15955 0.18471 1.02699 0.0
O152 O 0.08226 0.21185 1.018 0.0
C153 C 0.09094 0.10234 1.05931 0.0
C154 C 1.03056 0.1503 0.97346 0.0
O155 O 0.20384 0.12886 0.08598 0.0
O156 O 0.20472 0.12509 1.03783 0.0
C157 C 0.08225 0.2296 0.99267 0.0
O158 O 0.08499 0.21367 0.96651 0.0
O159 O 0.05986 0.13566 0.97065 0.0
O160 O 0.8866 0.95164 0.83615 0.0
Tb161 Tb 0.90208 0.90695 0.8104 0.0
C162 C 0.84884 0.8482 0.79586 0.0
O163 O 0.91862 0.8977 0.73274 0.0
Tb164 Tb 0.90374 0.84811 0.74775 0.0
C165 C 0.90562 0.79696 0.70804 0.0
O166 O 0.94457 0.91048 0.778 0.0
O167 O 0.94698 0.83773 0.77634 0.0
C168 C 0.97329 0.82667 0.76107 0.0
O169 O 0.97158 0.82544 0.73114 0.0
O170 O 0.86744 0.86359 0.81664 0.0
O171 O 0.85414 0.85278 0.76668 0.0
O172 O 0.93219 0.90464 0.85222 0.0
C173 C 0.94133 0.91469 0.7481 0.0
C174 C 0.87477 0.9691 0.81343 0.0
O175 O 0.9051 0.82889 0.70051 0.0
O176 O 0.90416 0.79434 0.7376 0.0
C177 C 0.919 0.89304 0.8779 0.0
O178 O 0.88917 0.8788 0.87695 0.0
O179 O 0.8769 0.9507 0.78879 0.0
O180 O 0.8968 0.12894 0.53942 0.0
Tb181 Tb 0.94109 0.14751 0.56421 0.0
C182 C 1.01221 0.10926 0.5615 0.0
O183 O 0.96812 0.16838 0.4961 0.0
Tb184 Tb 1.01635 0.17111 0.51875 0.0
C185 C 0.06543 0.17281 0.47667 0.0
O186 O 0.93802 0.19173 0.53435 0.0
O187 O 1.01536 0.2219 0.53708 0.0
C188 C 1.01026 0.2471 0.51806 0.0
O189 O 1.00141 0.24022 0.48988 0.0
O190 O 0.97893 0.10663 0.56001 0.0
O191 O 1.02745 0.13818 0.55682 0.0
O192 O 0.94712 0.17425 0.60731 0.0
C193 C 0.94426 0.18893 0.505 0.0
C194 C 0.87761 0.12395 0.56317 0.0
O195 O 1.04211 0.14977 0.47838 0.0
O196 O 0.06145 0.19372 0.49911 0.0
C197 C 0.95355 0.15777 0.6328 0.0
O198 O 0.96146 0.12562 0.63119 0.0
O199 O 0.89483 0.13101 0.58756 0.0
O200 O 0.71345 0.13876 0.32725 0.0
Tb201 Tb 0.69729 0.18411 0.30245 0.0
C202 C 0.73617 0.25453 0.2958 0.0
O203 O 0.67723 0.20474 0.2314 0.0
Tb204 Tb 0.67539 0.25426 0.2519 0.0
C205 C 0.67026 0.30356 0.21039 0.0
O206 O 0.65374 0.17911 0.27234 0.0
O207 O 0.63113 0.25722 0.28031 0.0
C208 C 0.6017 0.24925 0.26909 0.0
O209 O 0.60034 0.23303 0.24303 0.0
O210 O 0.73849 0.22125 0.29805 0.0
O211 O 0.70821 0.26965 0.28808 0.0
O212 O 0.6708 0.19094 0.34576 0.0
C213 C 0.65745 0.18134 0.24256 0.0
C214 C 0.72169 0.12101 0.30345 0.0
O215 O 0.69767 0.28652 0.21606 0.0
O216 O 0.64606 0.29238 0.22763 0.0
C217 C 0.68751 0.19785 0.37093 0.0
O218 O 0.71946 0.20612 0.36867 0.0
O219 O 0.71731 0.13941 0.27911 0.0
O220 O 0.70918 0.96821 1.029 0.0
Tb221 Tb 0.66299 0.95414 1.05379 0.0
C222 C 0.59386 0.99122 1.04746 0.0
O223 O 0.63311 0.93363 0.98516 0.0
Tb224 Tb 0.58287 0.93279 1.00447 0.0
C225 C 0.53152 0.94251 0.96552 0.0
O226 O 0.66197 0.9094 1.02443 0.0
O227 O 0.5797 0.8797 1.01387 0.0
C228 C 0.5721 0.86087 0.99041 0.0
O229 O 0.57286 0.87439 0.96298 0.0
O230 O 0.62682 0.99566 1.04752 0.0
O231 O 0.58165 0.96067 1.04662 0.0
O232 O 0.65425 0.93189 0.09895 0.0
C233 C 0.65512 0.91139 0.995 0.0
C234 C 0.72729 0.97519 1.05288 0.0
O235 O 0.56272 0.95131 0.96052 0.0
O236 O 0.52946 0.92961 0.99278 0.0
C237 C 0.67548 0.90906 0.1095 0.0
O238 O 0.6986 0.89735 0.09076 0.0
O239 O 0.70867 0.97138 0.0771 0.0
O240 O 0.87569 0.1342 0.84254 0.0
Tb241 Tb 0.89345 0.18054 0.81982 0.0
C242 C 0.85456 0.25141 0.82378 0.0
O243 O 0.91346 0.21075 0.88821 0.0
Tb244 Tb 0.91795 0.25811 0.86391 0.0
C245 C 0.92097 0.31046 0.90246 0.0
O246 O 0.93615 0.17792 0.85123 0.0
O247 O 0.96846 0.25209 0.84618 0.0
C248 C 0.97865 0.27107 0.82327 0.0
O249 O 0.95629 0.28901 0.80823 0.0
O250 O 0.85217 0.21797 0.82395 0.0
O251 O 0.88338 0.26708 0.82693 0.0
O252 O 0.92206 0.18884 0.77788 0.0
C253 C 0.93327 0.18582 0.88027 0.0
C254 C 0.87154 0.11618 0.81801 0.0
O255 O 0.90157 0.28421 0.90581 0.0
O256 O 0.93808 0.30717 0.87733 0.0
C257 C 0.90726 0.19976 0.75285 0.0
O258 O 0.87582 0.20996 0.75449 0.0
O259 O 0.87845 0.13507 0.79444 0.0
O260 O 0.71219 0.12825 0.58546 0.0
Tb261 Tb 0.66607 0.14221 0.56059 0.0
C262 C 0.59772 0.10168 0.56766 0.0
O263 O 0.63838 0.16107 0.63017 0.0
Tb264 Tb 0.5873 0.15907 0.61306 0.0
C265 C 0.53881 0.1473 0.65408 0.0
O266 O 0.66314 0.18703 0.58967 0.0
O267 O 0.58209 0.21268 0.60634 0.0
C268 C 0.58034 0.23014 0.63168 0.0
O269 O 0.58448 0.21406 0.6577 0.0
O270 O 0.63082 0.0994 0.56469 0.0
O271 O 0.583 0.13096 0.57117 0.0
O272 O 0.65887 0.16849 0.51718 0.0
C273 C 0.65761 0.18517 0.61931 0.0
C274 C 0.7309 0.12256 0.56151 0.0
O275 O 0.57023 0.13821 0.65715 0.0
O276 O 0.53494 0.16149 0.62755 0.0
C277 C 0.64855 0.15254 0.49257 0.0
O278 O 0.63869 0.12102 0.49517 0.0
O279 O 0.71262 0.12702 0.53722 0.0
O280 O 0.71622 0.95672 0.33069 0.0
Tb281 Tb 0.70138 0.91 0.30734 0.0
C282 C 0.74164 0.84273 0.31674 0.0
O283 O 0.682 0.88606 0.37769 0.0
Tb284 Tb 0.68555 0.83383 0.3635 0.0
C285 C 0.69806 0.78583 0.40505 0.0
O286 O 0.65599 0.90784 0.33576 0.0
O287 O 0.63208 0.82865 0.35837 0.0
C288 C 0.61468 0.82778 0.38386 0.0
O289 O 0.63059 0.83277 0.40972 0.0
O290 O 0.74412 0.87586 0.31477 0.0
O291 O 0.71214 0.82865 0.32062 0.0
O292 O 0.68054 0.89928 0.2622 0.0
C293 C 0.65754 0.90404 0.36565 0.0
C294 C 0.72121 0.97466 0.30613 0.0
O295 O 0.70603 0.81765 0.40801 0.0
O296 O 0.68442 0.78144 0.37843 0.0
C297 C 0.70082 0.89013 0.23979 0.0
O298 O 0.73248 0.88374 0.2463 0.0
O299 O 0.71559 0.95587 0.28245 0.0
O300 O 0.89298 0.96071 1.03796 0.0
Tb301 Tb 0.9358 0.9459 0.06671 0.0
C302 C 1.0061 0.98297 0.07678 0.0
O303 O 0.95911 0.93273 0.13592 0.0
Tb304 Tb 1.00866 0.92002 0.11892 0.0
C305 C 0.05427 0.91885 0.16403 0.0
O306 O 0.92901 0.90549 0.10014 0.0
O307 O 1.01093 0.87195 0.09618 0.0
C308 C 1.0389 0.86379 0.08195 0.0
O309 O 0.06344 0.88599 0.08068 0.0
O310 O 0.97296 0.98616 0.07449 0.0
O311 O 1.02045 0.95352 0.08122 0.0
O312 O 0.94782 0.91916 1.0244 0.0
C313 C 0.93493 0.91161 0.12913 0.0
C314 C 0.87325 0.97081 1.05982 0.0
O315 O 1.02589 0.90257 0.1639 0.0
O316 O 0.05679 0.93617 0.13883 0.0
C317 C 0.95727 0.93631 0.99994 0.0
O318 O 0.96398 0.96857 1.00299 0.0
O319 O 0.8893 0.96785 0.08555 0.0
O320 O 0.67688 0.81153 0.87832 0.0
Tb321 Tb 0.68573 0.75929 0.86512 0.0
C322 C 0.66621 0.68785 0.87634 0.0
O323 O 0.74731 0.71573 0.81901 0.0
Tb324 Tb 0.7062 0.67801 0.8156 0.0
C325 C 0.72873 0.61392 0.81406 0.0
O326 O 0.71464 0.76345 0.82362 0.0
O327 O 0.67718 0.68535 0.77365 0.0
C328 C 0.69191 0.69406 0.74775 0.0
O329 O 0.72372 0.70316 0.74833 0.0
O330 O 0.69053 0.70881 0.88304 0.0
O331 O 0.6639 0.67666 0.84811 0.0
O332 O 0.63265 0.7576 0.85571 0.0
C333 C 0.74417 0.74905 0.82088 0.0
C334 C 0.69131 0.81009 0.90485 0.0
O335 O 0.72175 0.63259 0.79043 0.0
O336 O 0.72415 0.63195 0.83855 0.0
C337 C 0.61945 0.78062 0.83777 0.0
O338 O 0.63957 0.79981 0.82138 0.0
O339 O 0.70414 0.78005 0.90865 0.0
O340 O 0.70533 0.4471 1.03365 0.0
Tb341 Tb 0.65917 0.44956 1.06068 0.0
C342 C 0.59128 0.48973 0.06503 0.0
O343 O 0.63072 0.43908 0.13047 0.0
Tb344 Tb 0.581 0.43412 0.11132 0.0
C345 C 0.53054 0.44352 0.15098 0.0
O346 O 0.6607 0.4098 0.0956 0.0
O347 O 0.58385 0.3809 0.10281 0.0
C348 C 0.5756 0.36034 0.12505 0.0
O349 O 0.56751 0.37308 0.15173 0.0
O350 O 0.62443 0.49288 0.06383 0.0
O351 O 0.57785 0.4599 0.06814 0.0
O352 O 0.64319 0.42523 1.01839 0.0
C353 C 0.65197 0.41476 0.12429 0.0
C354 C 0.72407 0.46529 1.05132 0.0
O355 O 0.56094 0.4554 0.154 0.0
O356 O 0.52856 0.42749 0.12519 0.0
C357 C 0.64059 0.44305 0.99299 0.0
O358 O 0.64238 0.47609 0.99485 0.0
O359 O 0.70576 0.47594 0.07412 0.0
O360 O 0.87934 0.45339 0.292 0.0
Tb361 Tb 0.89348 0.40758 0.31691 0.0
C362 C 0.85202 0.33959 0.32374 0.0
O363 O 0.91292 0.38618 0.38659 0.0
Tb364 Tb 0.91124 0.33526 0.36904 0.0
C365 C 0.90921 0.28714 0.41187 0.0
O366 O 0.93879 0.40819 0.34505 0.0
O367 O 0.96275 0.33557 0.35398 0.0
C368 C 0.98569 0.33422 0.37537 0.0
O369 O 0.97605 0.33552 0.4041 0.0
O370 O 0.85074 0.37293 0.32323 0.0
O371 O 0.87959 0.32329 0.33076 0.0
O372 O 0.91406 0.39843 0.27133 0.0
C373 C 0.93602 0.40606 0.37494 0.0
C374 C 0.8719 0.47177 0.31552 0.0
O375 O 0.8938 0.31617 0.41372 0.0
O376 O 0.92493 0.28538 0.38589 0.0
C377 C 0.89253 0.39567 0.24865 0.0
O378 O 0.86041 0.39274 0.25551 0.0
O379 O 0.87605 0.4537 0.34011 0.0
O380 O 0.8847 0.62823 0.5878 0.0
Tb381 Tb 0.93175 0.64446 0.56551 0.0
C382 C 1.00125 0.60579 0.57361 0.0
O383 O 0.95703 0.66165 0.63488 0.0
Tb384 Tb 1.00853 0.66375 0.61893 0.0
C385 C 0.05662 0.65357 0.66036 0.0
O386 O 0.93069 0.68823 0.59591 0.0
O387 O 1.01142 0.71761 0.61292 0.0
C388 C 1.01332 0.73529 0.63816 0.0
O389 O 1.00884 0.71955 0.66433 0.0
O390 O 0.96822 0.60273 0.57056 0.0
O391 O 1.01518 0.63542 0.57734 0.0
O392 O 0.9406 0.6718 0.52291 0.0
C393 C 0.93684 0.68562 0.62535 0.0
C394 C 0.86762 0.6231 0.56288 0.0
O395 O 1.02534 0.64402 0.66337 0.0
O396 O 0.06066 0.66737 0.63367 0.0
C397 C 0.94814 0.65562 0.49754 0.0
O398 O 0.9556 0.62336 0.49922 0.0
O399 O 0.8872 0.62893 0.53961 0.0
O400 O 0.72222 0.44923 0.78491 0.0
Tb401 Tb 0.69494 0.40663 0.80613 0.0
C402 C 0.74613 0.34468 0.79263 0.0
O403 O 0.68156 0.39309 0.73021 0.0
Tb404 Tb 0.68773 0.34236 0.74756 0.0
C405 C 0.68352 0.2954 0.70384 0.0
O406 O 0.65446 0.41331 0.77234 0.0
O407 O 0.65013 0.32812 0.78127 0.0
C408 C 0.61855 0.33685 0.77734 0.0
O409 O 0.61141 0.36036 0.75723 0.0
O410 O 0.72915 0.36289 0.81289 0.0
O411 O 0.73869 0.34503 0.76351 0.0
O412 O 0.66305 0.40646 0.84702 0.0
C413 C 0.65995 0.41406 0.74254 0.0
C414 C 0.7248 0.46736 0.80963 0.0
O415 O 0.67289 0.32637 0.70145 0.0
O416 O 0.69698 0.29125 0.73059 0.0
C417 C 0.67266 0.39108 0.87232 0.0
O418 O 0.69943 0.37162 0.87144 0.0
O419 O 0.71195 0.45037 0.83223 0.0
O420 O 0.88311 0.4316 0.06488 0.0
Tb421 Tb 0.93574 0.44553 1.05829 0.0
C422 C 1.00338 0.48661 1.05721 0.0
O423 O 0.96974 0.43751 0.98823 0.0
Tb424 Tb 1.01834 0.43408 1.00994 0.0
C425 C 0.06993 0.44736 0.97248 0.0
O426 O 0.94166 0.40645 1.02325 0.0
O427 O 1.02059 0.38011 1.01335 0.0
C428 C 1.02819 0.36448 0.98792 0.0
O429 O 1.02847 0.38187 0.96233 0.0
O430 O 0.97018 0.48921 1.05636 0.0
O431 O 1.01735 0.457 1.05435 0.0
O432 O 0.94295 0.42868 0.10542 0.0
C433 C 0.94829 0.41341 0.99441 0.0
C434 C 0.86988 0.45958 1.05538 0.0
O435 O 1.03924 0.4584 0.96895 0.0
O436 O 0.0716 0.43077 0.99809 0.0
C437 C 0.92576 0.44502 0.12651 0.0
O438 O 0.90906 0.47216 0.11818 0.0
O439 O 0.89381 0.48032 1.04741 0.0
O440 O 0.87412 0.63635 0.28686 0.0
Tb441 Tb 0.89358 0.68162 0.30955 0.0
C442 C 0.85757 0.75186 0.3083 0.0
O443 O 0.90575 0.71503 0.24184 0.0
Tb444 Tb 0.91087 0.76513 0.2606 0.0
C445 C 0.89586 0.81759 0.22455 0.0
O446 O 0.93425 0.68238 0.27564 0.0
O447 O 0.965 0.76687 0.26123 0.0
C448 C 0.97948 0.7763 0.2356 0.0
O449 O 0.9605 0.78115 0.21151 0.0
O450 O 0.85268 0.71891 0.30775 0.0
O451 O 0.88812 0.76375 0.30541 0.0
O452 O 0.92217 0.68868 0.35155 0.0
C453 C 0.93013 0.69356 0.24748 0.0
C454 C 0.87098 0.61795 0.31139 0.0
O455 O 0.887 0.78638 0.21954 0.0
O456 O 0.91145 0.81897 0.25057 0.0
C457 C 0.90696 0.69945 0.37649 0.0
O458 O 0.87568 0.71003 0.37442 0.0
O459 O 0.87968 0.63589 0.33485 0.0
O460 O 0.53751 0.69337 0.49163 0.0
Tb461 Tb 0.5844 0.67251 0.5097 0.0
C462 C 0.65751 0.69081 0.49827 0.0
O463 O 0.62123 0.60827 0.55265 0.0
Tb464 Tb 0.65781 0.64999 0.55805 0.0
C465 C 0.72125 0.62617 0.55852 0.0
O466 O 0.57188 0.63815 0.54639 0.0
O467 O 0.65109 0.67498 0.60217 0.0
C468 C 0.64325 0.65743 0.62684 0.0
O469 O 0.63465 0.62564 0.62366 0.0
O470 O 0.63353 0.67121 0.48807 0.0
O471 O 0.66146 0.69419 0.52793 0.0
O472 O 0.58492 0.72223 0.52982 0.0
C473 C 0.58785 0.60992 0.55241 0.0
C474 C 0.53549 0.67447 0.46757 0.0
O475 O 0.70313 0.63162 0.53428 0.0
O476 O 0.70309 0.63311 0.58243 0.0
C477 C 0.59052 0.7484 0.51211 0.0
O478 O 0.60082 0.74324 0.48396 0.0
O479 O 0.56109 0.65387 0.46725 0.0
O480 O 0.38128 0.44875 0.33262 0.0
Tb481 Tb 0.39702 0.40435 0.30651 0.0
C482 C 0.35597 0.33451 0.30005 0.0
O483 O 0.41146 0.38613 0.23548 0.0
Tb484 Tb 0.4155 0.3356 0.25355 0.0
C485 C 0.42101 0.28973 0.2092 0.0
O486 O 0.43913 0.41014 0.27448 0.0
O487 O 0.45834 0.3288 0.28305 0.0
C488 C 0.48851 0.33668 0.2733 0.0
O489 O 0.49161 0.35641 0.24932 0.0
O490 O 0.35523 0.3678 0.30304 0.0
O491 O 0.3818 0.31828 0.28856 0.0
O492 O 0.42356 0.397 0.34977 0.0
C493 C 0.43366 0.40801 0.24493 0.0
C494 C 0.37209 0.46717 0.30952 0.0
O495 O 0.44586 0.30323 0.22399 0.0
O496 O 0.39272 0.30245 0.21909 0.0
C497 C 0.40668 0.3888 0.37472 0.0
O498 O 0.37492 0.38005 0.37203 0.0
O499 O 0.37605 0.4497 0.28465 0.0
O500 O 0.3876 0.62824 0.081 0.0
Tb501 Tb 0.4315 0.64384 1.05393 0.0
C502 C 0.50166 0.6056 1.05024 0.0
O503 O 0.45693 0.65993 0.98316 0.0
Tb504 Tb 0.50589 0.66378 1.00459 0.0
C505 C 0.5575 0.66702 0.96503 0.0
O506 O 0.42786 0.68562 1.02115 0.0
O507 O 0.50204 0.71516 1.0198 0.0
C508 C 0.49807 0.73808 0.99853 0.0
O509 O 0.49152 0.72821 0.97057 0.0
O510 O 0.46846 0.60257 1.04924 0.0
O511 O 0.5164 0.6345 1.04489 0.0
O512 O 0.44015 0.67072 0.09682 0.0
C513 C 0.43336 0.68116 0.99172 0.0
C514 C 0.36815 0.62046 1.0583 0.0
O515 O 0.53391 0.64408 0.96461 0.0
O516 O 0.55218 0.68683 0.98803 0.0
C517 C 0.4501 0.65409 0.12137 0.0
O518 O 0.45931 0.62242 0.11834 0.0
O519 O 0.38491 0.62485 1.033 0.0
O520 O 0.20958 0.64019 0.78737 0.0
Tb521 Tb 0.19374 0.68583 0.8122 0.0
C522 C 0.23212 0.75645 0.80777 0.0
O523 O 0.17331 0.71537 0.74356 0.0
Tb524 Tb 0.17104 0.76436 0.76526 0.0
C525 C 0.17451 0.81501 0.7245 0.0
O526 O 0.14966 0.68571 0.78249 0.0
O527 O 0.1187 0.7611 0.77879 0.0
C528 C 0.10531 0.7841 0.79672 0.0
O529 O 0.12533 0.80562 0.81039 0.0
O530 O 0.23476 0.72307 0.8068 0.0
O531 O 0.20293 0.77157 0.80465 0.0
O532 O 0.16769 0.69272 0.85573 0.0
C533 C 0.15253 0.69187 0.75307 0.0
C534 C 0.21523 0.62126 0.81119 0.0
O535 O 0.19075 0.78649 0.72245 0.0
O536 O 0.15708 0.81494 0.74964 0.0
C537 C 0.1841 0.70227 0.88034 0.0
O538 O 0.21565 0.71176 0.8775 0.0
O539 O 0.21 0.6393 0.83553 0.0
O540 O 0.20248 0.46058 0.58273 0.0
Tb541 Tb 0.15657 0.44536 0.55889 0.0
C542 C 0.09657 0.49813 0.54574 0.0
O543 O 0.14513 0.43231 0.48263 0.0
Tb544 Tb 0.09469 0.44169 0.49865 0.0
C545 C 1.04555 0.44048 0.45706 0.0
O546 O 0.16078 0.40388 0.52568 0.0
O547 O 0.08269 0.39872 0.52737 0.0
C548 C 0.08488 0.3691 0.51414 0.0
O549 O 0.09848 0.3675 0.48681 0.0
O550 O 0.11353 0.48019 0.56615 0.0
O551 O 0.0986 0.49184 0.5165 0.0
O552 O 0.1557 0.41507 0.6008 0.0
C553 C 0.16369 0.4092 0.49593 0.0
C554 C 0.21806 0.47373 0.55944 0.0
O555 O 0.07734 0.43495 0.45135 0.0
O556 O 1.04199 0.44744 0.48585 0.0
C557 C 0.14464 0.42818 0.62664 0.0
O558 O 0.13023 0.45803 0.62584 0.0
O559 O 0.19809 0.47242 0.53585 0.0
O560 O 0.37753 0.63169 0.33635 0.0
Tb561 Tb 0.39585 0.67679 0.31227 0.0
C562 C 0.35671 0.74627 0.31853 0.0
O563 O 0.40427 0.70665 0.37938 0.0
Tb564 Tb 0.40822 0.75962 0.36838 0.0
C565 C 0.38693 0.80457 0.4098 0.0
O566 O 0.43648 0.67763 0.34603 0.0
O567 O 0.46146 0.76845 0.36448 0.0
C568 C 0.4777 0.77833 0.38889 0.0
O569 O 0.46167 0.77931 0.41515 0.0
O570 O 0.35411 0.71319 0.31536 0.0
O571 O 0.38614 0.76017 0.32328 0.0
O572 O 0.42385 0.68353 0.2695 0.0
C573 C 0.43112 0.68826 0.37412 0.0
C574 C 0.37296 0.61316 0.31225 0.0
O575 O 0.39062 0.77233 0.41452 0.0
O576 O 0.39328 0.81079 0.38114 0.0
C577 C 0.40815 0.69244 0.24418 0.0
O578 O 0.37649 0.70194 0.24609 0.0
O579 O 0.38058 0.63088 0.2882 0.0
O580 O 0.2046 0.62572 0.091 0.0
Tb581 Tb 0.15893 0.64572 0.06925 0.0
C582 C 0.08904 0.60537 0.07411 0.0
O583 O 0.13588 0.66392 0.1402 0.0
Tb584 Tb 0.08778 0.66719 0.1174 0.0
C585 C 1.03801 0.67369 0.15834 0.0
O586 O 0.16421 0.68794 0.10095 0.0
O587 O 0.09143 0.71435 0.09285 0.0
C588 C 0.06688 0.72214 0.07405 0.0
O589 O 1.04453 0.69889 0.06741 0.0
O590 O 0.12242 0.60389 0.07347 0.0
O591 O 0.07284 0.63278 0.08204 0.0
O592 O 0.15061 0.67417 1.02716 0.0
C593 C 0.16049 0.68312 0.13047 0.0
C594 C 0.22212 0.62168 0.0661 0.0
O595 O 0.05874 0.64825 0.15684 0.0
O596 O 1.04557 0.69523 0.13704 0.0
C597 C 0.14256 0.6586 1.00166 0.0
O598 O 0.13417 0.62657 1.00304 0.0
O599 O 0.20347 0.63015 1.04294 0.0
O600 O 0.21085 0.45447 0.78981 0.0
Tb601 Tb 0.19822 0.40841 0.81559 0.0
C602 C 0.24034 0.34004 0.81942 0.0
O603 O 0.18027 0.37797 0.88499 0.0
Tb604 Tb 0.17908 0.32959 0.86209 0.0
C605 C 0.18297 0.27891 0.90274 0.0
O606 O 0.1555 0.40843 0.84719 0.0
O607 O 0.12681 0.33004 0.84853 0.0
C608 C 0.11699 0.31655 0.82268 0.0
O609 O 0.13945 0.3076 0.80216 0.0
O610 O 0.24115 0.37346 0.82087 0.0
O611 O 0.21225 0.32312 0.82327 0.0
O612 O 0.1725 0.39777 0.77263 0.0
C613 C 0.1596 0.40201 0.87645 0.0
C614 C 0.21718 0.47373 0.81308 0.0
O615 O 0.19821 0.30788 0.90506 0.0
O616 O 0.16646 0.2784 0.87718 0.0
C617 C 0.18984 0.38927 0.74808 0.0
O618 O 0.22217 0.38301 0.751 0.0
O619 O 0.21394 0.45569 0.83783 0.0
O620 O 0.38223 0.47192 0.58504 0.0
Tb621 Tb 0.42869 0.45471 0.56229 0.0
C622 C 0.49971 0.49155 0.56615 0.0
O623 O 0.46308 0.44338 0.62822 0.0
Tb624 Tb 0.51452 0.437 0.61313 0.0
C625 C 0.56235 0.45602 0.65266 0.0
O626 O 0.42913 0.41418 0.59661 0.0
O627 O 0.52075 0.38304 0.60953 0.0
C628 C 0.53038 0.36761 0.63457 0.0
O629 O 0.53145 0.38513 0.65993 0.0
O630 O 0.46653 0.49557 0.56504 0.0
O631 O 0.51255 0.46121 0.56882 0.0
O632 O 0.43566 0.42441 0.52102 0.0
C633 C 0.44249 0.41807 0.6239 0.0
C634 C 0.36457 0.47694 0.56042 0.0
O635 O 0.53004 0.4567 0.65783 0.0
O636 O 0.56725 0.44641 0.6246 0.0
C637 C 0.44449 0.4386 0.49489 0.0
O638 O 0.45384 0.47039 0.495 0.0
O639 O 0.38359 0.47052 0.53691 0.0
C640 C 0.23376 0.05998 0.33525 0.0
C641 C 0.2266 0.07882 0.30878 0.0
C642 C 0.23431 1.02456 0.33467 0.0
C643 C 0.22789 1.00667 0.30757 0.0
H644 H 0.23758 0.0726 0.35688 0.0
H645 H 0.23855 1.01109 0.35589 0.0
S646 S 0.21066 1.0442 0.23143 0.0
N647 N 0.21516 0.077 0.25423 0.0
N648 N 0.21634 1.01055 0.25316 0.0
C649 C 0.2225 1.02523 0.2806 0.0
C650 C 0.2218 0.06129 0.2812 0.0
C651 C 0.3273 0.98205 0.53463 0.0
C652 C 0.34707 0.98243 0.56126 0.0
C653 C 0.29188 0.98316 0.53626 0.0
C654 C 0.27489 0.98485 0.56456 0.0
H655 H 0.33913 0.97893 0.51248 0.0
H656 H 0.2777 0.98105 0.51525 0.0
S657 S 0.31523 0.99098 0.64071 0.0
N658 N 0.34711 0.98795 0.61656 0.0
N659 N 0.28086 0.99021 0.61957 0.0
C660 C 0.29448 0.98758 0.59116 0.0
C661 C 0.33047 0.98632 0.58951 0.0
C662 C 0.36916 0.06954 0.83324 0.0
C663 C 0.37056 0.08687 0.80512 0.0
C664 C 0.3681 1.03406 0.83456 0.0
C665 C 0.36841 1.01444 0.8078 0.0
H666 H 0.37014 0.08341 0.85451 0.0
H667 H 0.36831 1.02193 0.85677 0.0
S668 S 0.36891 1.04746 0.72831 0.0
N669 N 0.36989 0.08162 0.74981 0.0
N670 N 0.36789 1.01518 0.75225 0.0
C671 C 0.36817 1.03149 0.77951 0.0
C672 C 0.36925 0.06762 0.77818 0.0
C673 C 0.31301 0.11224 1.03636 0.0
C674 C 0.33113 0.11371 0.06391 0.0
C675 C 0.27766 0.11268 1.03619 0.0
C676 C 0.25913 0.1147 0.06356 0.0
H677 H 0.3262 0.11218 1.01466 0.0
H678 H 0.26484 0.11294 1.01438 0.0
S679 S 0.29445 0.11575 0.14196 0.0
N680 N 0.32783 0.11459 0.11938 0.0
N681 N 0.26148 0.11549 0.11907 0.0
C682 C 0.27689 0.11426 0.09133 0.0
C683 C 0.31289 0.11374 0.0915 0.0
C684 C 0.86739 1.02582 0.78791 0.0
C685 C 0.86786 1.00615 0.81476 0.0
C686 C 0.8669 0.06141 0.78911 0.0
C687 C 0.86667 0.07877 0.8172 0.0
H688 H 0.86905 1.01373 0.7658 0.0
H689 H 0.86804 0.0754 0.76784 0.0
S690 S 0.86426 1.039 0.89409 0.0
N691 N 0.86549 1.00681 0.87026 0.0
N692 N 0.86435 0.07323 0.87248 0.0
C693 C 0.86525 0.05933 0.84414 0.0
C694 C 0.86591 1.02318 0.84293 0.0
C695 C 0.82158 0.11951 0.58968 0.0
C696 C 0.84052 0.11827 0.56242 0.0
C697 C 0.78612 0.11927 0.5893 0.0
C698 C 0.76815 0.1178 0.56166 0.0
H699 H 0.8342 0.12198 0.61146 0.0
H700 H 0.77273 0.12154 0.6108 0.0
S701 S 0.80571 0.11109 0.48411 0.0
N702 N 0.8385 0.11315 0.50714 0.0
N703 N 0.77213 0.11268 0.50642 0.0
C704 C 0.78679 0.11489 0.53436 0.0
C705 C 0.82287 0.11513 0.53475 0.0
C706 C 0.72597 0.06609 0.33162 0.0
C707 C 0.72742 0.08397 0.30379 0.0
C708 C 0.72569 1.03063 0.33231 0.0
C709 C 0.72678 1.0117 0.30518 0.0
H710 H 0.72361 0.07955 0.35303 0.0
H711 H 0.72318 1.01802 0.35419 0.0
S712 S 0.73426 1.04628 0.22653 0.0
N713 N 0.73268 0.07997 0.24858 0.0
N714 N 0.73211 1.0135 0.24983 0.0
C715 C 0.73009 1.02924 0.27732 0.0
C716 C 0.73044 0.06533 0.27663 0.0
C717 C 0.81661 0.98194 0.08309 0.0
C718 C 0.83655 0.97755 1.05677 0.0
C719 C 0.78128 0.98296 0.08138 0.0
C720 C 0.76447 0.9797 1.05326 0.0
H721 H 0.82828 0.98317 0.1054 0.0
H722 H 0.76703 0.98496 0.10244 0.0
S723 S 0.80511 0.97104 0.97721 0.0
N724 N 0.83691 0.97249 1.00141 0.0
N725 N 0.77064 0.97444 0.99821 0.0
C726 C 0.78415 0.97716 1.02658 0.0
C727 C 0.82015 0.97608 1.02833 0.0
C728 C 0.73371 0.55929 0.78522 0.0
C729 C 0.73395 0.57663 0.8133 0.0
C730 C 0.73311 0.52374 0.78405 0.0
C731 C 0.73252 0.50415 0.81094 0.0
H732 H 0.73251 0.57326 0.76394 0.0
H733 H 0.73127 0.51165 0.76196 0.0
S734 S 0.73664 0.53697 0.8902 0.0
N735 N 0.73656 0.57119 0.86856 0.0
N736 N 0.73519 0.50476 0.8664 0.0
C737 C 0.73472 0.52114 0.83908 0.0
C738 C 0.7355 0.55725 0.84026 0.0
C739 C 0.81555 0.4905 0.06524 0.0
C740 C 0.83333 0.4642 1.0509 0.0
C741 C 0.78002 0.49142 0.06479 0.0
C742 C 0.76138 0.46658 1.04928 0.0
H743 H 0.82906 0.50947 0.07807 0.0
H744 H 0.76707 0.51127 0.0771 0.0
S745 S 0.79678 0.39355 1.00685 0.0
N746 N 0.83006 0.41343 1.02031 0.0
N747 N 0.76387 0.41574 1.01825 0.0
C748 C 0.77921 0.44106 1.03378 0.0
C749 C 0.81506 0.43971 1.03495 0.0
C750 C 0.86716 0.52797 0.34128 0.0
C751 C 0.8659 0.50872 0.31438 0.0
C752 C 0.86695 0.56342 0.34019 0.0
C753 C 0.86535 0.58092 0.31217 0.0
H754 H 0.86986 0.51563 0.36326 0.0
H755 H 0.86945 0.57717 0.36141 0.0
S756 S 0.85778 0.54222 0.23543 0.0
N757 N 0.86009 0.50976 0.25908 0.0
N758 N 0.8596 0.57622 0.25708 0.0
C759 C 0.86206 0.56195 0.28526 0.0
C760 C 0.86238 0.52589 0.28636 0.0
C761 C 0.77555 0.61927 0.58701 0.0
C762 C 0.75823 0.61988 0.55897 0.0
C763 C 0.81095 0.6185 0.58811 0.0
C764 C 0.83047 0.61834 0.56121 0.0
H765 H 0.76171 0.62072 0.60833 0.0
H766 H 0.82309 0.61942 0.61022 0.0
S767 S 0.79744 0.6166 0.48196 0.0
N768 N 0.76337 0.61783 0.50366 0.0
N769 N 0.82969 0.61639 0.50569 0.0
C770 C 0.81344 0.61718 0.53305 0.0
C771 C 0.7774 0.61796 0.53194 0.0
C772 C 0.36584 0.52319 0.28364 0.0
C773 C 0.36594 0.50407 0.31077 0.0
C774 C 0.36625 0.55862 0.28435 0.0
C775 C 0.36664 0.57626 0.31221 0.0
H776 H 0.36714 0.51074 0.26166 0.0
H777 H 0.36775 0.57222 0.26288 0.0
S778 S 0.36284 0.53804 0.38966 0.0
N779 N 0.36332 0.50543 0.36626 0.0
N780 N 0.36393 0.57191 0.36759 0.0
C781 C 0.36454 0.55748 0.33947 0.0
C782 C 0.36424 0.5214 0.33875 0.0
C783 C 0.31112 0.6155 1.03422 0.0
C784 C 0.33119 0.61484 1.06066 0.0
C785 C 0.27574 0.61589 1.03615 0.0
C786 C 0.25906 0.6155 0.06459 0.0
H787 H 0.32277 0.61727 1.01186 0.0
H788 H 0.26143 0.6179 1.01519 0.0
S789 S 0.29995 0.6102 0.14059 0.0
N790 N 0.33167 0.61113 0.11612 0.0
N791 N 0.2654 0.6117 0.11971 0.0
C792 C 0.27881 0.61288 0.09113 0.0
C793 C 0.31481 0.6126 0.08917 0.0
C794 C 0.22146 0.56568 0.83861 0.0
C795 C 0.22041 0.58389 0.81091 0.0
C796 C 0.22193 0.53011 0.8391 0.0
C797 C 0.22131 0.51121 0.8119 0.0
H798 H 0.2208 0.57896 0.86019 0.0
H799 H 0.22159 0.51736 0.86102 0.0
S800 S 0.22108 0.54655 0.73322 0.0
N801 N 0.22077 0.58011 0.75551 0.0
N802 N 0.2216 0.51359 0.7564 0.0
C803 C 0.22168 0.5291 0.78404 0.0
C804 C 0.22124 0.56531 0.78355 0.0
C805 C 0.27312 0.48052 0.58654 0.0
C806 C 0.25493 0.48093 0.55894 0.0
C807 C 0.30854 0.48121 0.58684 0.0
C808 C 0.32734 0.48208 0.55953 0.0
H809 H 0.25992 0.47829 0.60815 0.0
H810 H 0.32126 0.4795 0.60864 0.0
S811 S 0.292 0.48637 0.48116 0.0
N812 N 0.25852 0.48469 0.50361 0.0
N813 N 0.32495 0.48573 0.50411 0.0
C814 C 0.30948 0.48425 0.53182 0.0
C815 C 0.27334 0.48376 0.53153 0.0
C816 C 0.32768 0.27813 0.30355 0.0
C817 C 0.32595 0.31348 0.30757 0.0
C818 C 0.29953 0.2574 0.30776 0.0
C819 C 0.26822 0.27098 0.31615 0.0
H820 H 0.35095 0.26606 0.29655 0.0
H821 H 0.30231 0.23058 0.30389 0.0
S822 S 0.25031 0.36154 0.33195 0.0
N823 N 0.29049 0.36081 0.32222 0.0
N824 N 0.23741 0.32204 0.32996 0.0
C825 C 0.26619 0.30617 0.32112 0.0
C826 C 0.29503 0.32734 0.31694 0.0
C827 C 0.06959 0.08272 0.56694 0.0
C828 C 1.03418 0.07895 0.56668 0.0
C829 C 0.0914 0.05494 0.56978 0.0
C830 C 0.07898 1.02186 0.57255 0.0
H831 H 0.0809 0.10747 0.56457 0.0
H832 H 0.11826 0.05955 0.56968 0.0
S833 S 0.98834 0.9977 0.57383 0.0
N834 N 0.98781 1.03915 0.57008 0.0
N835 N 1.02848 0.98697 0.57516 0.0
C836 C 1.04359 1.01763 0.57267 0.0
C837 C 1.02132 1.04604 0.56984 0.0
C838 C 0.28884 0.83447 0.80768 0.0
C839 C 0.32016 0.82189 0.81731 0.0
C840 C 0.26067 0.81316 0.80497 0.0
C841 C 0.26248 0.77829 0.81185 0.0
H842 H 0.28613 0.86087 0.80168 0.0
H843 H 0.23734 0.82418 0.79692 0.0
S844 S 0.33789 0.7332 0.84083 0.0
N845 N 0.3507 0.77241 0.83567 0.0
N846 N 0.29796 0.73277 0.83048 0.0
C847 C 0.29345 0.76555 0.82218 0.0
C848 C 0.32215 0.7872 0.82496 0.0
C849 C 0.55914 0.07931 0.06236 0.0
C850 C 0.52415 0.07549 1.05777 0.0
C851 C 0.58158 0.05223 1.05855 0.0
C852 C 0.57001 1.02011 1.05013 0.0
H853 H 0.56942 0.10337 0.06935 0.0
H854 H 0.60811 0.05645 0.06275 0.0
S855 S 0.48106 0.99708 1.03341 0.0
N856 N 0.47932 1.03729 1.04291 0.0
N857 N 0.52113 0.98644 1.03597 0.0
C858 C 0.53512 1.01608 1.04491 0.0
C859 C 0.51232 1.0437 1.04869 0.0
C860 C 0.30215 0.82561 0.31776 0.0
C861 C 0.26968 0.81328 0.31168 0.0
C862 C 0.32993 0.80377 0.31989 0.0
C863 C 0.32656 0.76859 0.31594 0.0
H864 H 0.30624 0.85237 0.321 0.0
H865 H 0.35431 0.81476 0.3247 0.0
S866 S 0.24699 0.72324 0.29919 0.0
N867 N 0.23582 0.76325 0.3016 0.0
N868 N 0.28794 0.72255 0.30537 0.0
C869 C 0.29424 0.75589 0.30976 0.0
C870 C 0.2659 0.77811 0.3077 0.0
C871 C 0.55612 1.02591 0.5306 0.0
C872 C 0.52772 1.02017 0.54944 0.0
C873 C 0.57987 0.05106 0.53744 0.0
C874 C 0.57568 0.07194 0.56301 0.0
H875 H 0.55998 1.01092 0.51023 0.0
H876 H 0.60082 0.0551 0.52195 0.0
S877 S 0.50678 0.06655 0.62037 0.0
N878 N 0.49793 1.03649 0.5956 0.0
N879 N 0.54182 0.08443 0.60791 0.0
C880 C 0.54786 0.06603 0.58236 0.0
C881 C 0.52411 1.03994 0.57577 0.0
C882 C 0.27209 0.2851 0.8199 0.0
C883 C 0.27158 0.32007 0.81339 0.0
C884 C 0.30092 0.26527 0.81476 0.0
C885 C 0.33065 0.27947 0.80292 0.0
H886 H 0.25006 0.27279 0.82939 0.0
H887 H 0.29994 0.23866 0.82043 0.0
S888 S 0.34206 0.36938 0.77999 0.0
N889 N 0.30314 0.36766 0.79324 0.0
N890 N 0.35717 0.33074 0.78336 0.0
C891 C 0.33037 0.31438 0.79588 0.0
C892 C 0.30097 0.33455 0.80119 0.0
C893 C 1.01466 1.04414 0.0633 0.0
C894 C 1.02833 1.01303 0.07261 0.0
C895 C 1.03507 0.07275 1.05942 0.0
C896 C 0.07011 0.07162 0.0647 0.0
H897 H 0.98796 1.04651 1.05876 0.0
H898 H 1.02313 0.09589 1.05185 0.0
S899 S 0.11852 0.99684 0.09088 0.0
N900 N 0.07942 0.98321 0.08793 0.0
N901 N 0.1174 1.03695 0.08072 0.0
C902 C 0.08413 1.04083 0.07435 0.0
C903 C 0.06337 1.01162 0.07828 0.0
C904 C 0.79624 0.76787 0.79287 0.0
C905 C 0.77361 0.77183 0.81728 0.0
C906 C 0.82072 0.79258 0.78649 0.0
C907 C 0.82404 0.82178 0.80471 0.0
H908 H 0.794 0.74639 0.77775 0.0
H909 H 0.83701 0.78893 0.76687 0.0
S910 S 0.77255 0.84259 0.87276 0.0
N911 N 0.757 0.80642 0.86057 0.0
N912 N 0.80372 0.85206 0.84917 0.0
C913 C 0.80265 0.82516 0.83004 0.0
C914 C 0.77723 0.80042 0.83611 0.0
C915 C 0.79325 0.26399 0.31884 0.0
C916 C 0.76558 0.27654 0.30248 0.0
C917 C 0.82082 0.28472 0.32566 0.0
C918 C 0.82195 0.31889 0.31639 0.0
H919 H 0.79355 0.23805 0.32673 0.0
H920 H 0.84137 0.27377 0.33857 0.0
S921 S 0.75687 0.36373 0.27124 0.0
N922 N 0.74174 0.32529 0.27588 0.0
N923 N 0.79342 0.36394 0.28908 0.0
C924 C 0.7946 0.33174 0.29982 0.0
C925 C 0.76654 0.31065 0.29274 0.0
C926 C 0.80224 0.26639 0.79444 0.0
C927 C 0.82461 0.27312 0.81841 0.0
C928 C 0.77687 0.28966 0.78654 0.0
C929 C 0.77241 0.32019 0.80271 0.0
H930 H 0.80523 0.24375 0.7809 0.0
H931 H 0.76071 0.2837 0.76742 0.0
S932 S 0.82301 0.3483 0.8689 0.0
N933 N 0.83988 0.31176 0.85914 0.0
N934 N 0.79163 0.35476 0.84487 0.0
C935 C 0.79372 0.32643 0.82757 0.0
C936 C 0.81997 0.30311 0.83521 0.0
C937 C 0.79591 0.7634 0.31557 0.0
C938 C 0.82863 0.77574 0.3105 0.0
C939 C 0.76819 0.78527 0.31748 0.0
C940 C 0.77183 0.82053 0.31425 0.0
H941 H 0.79155 0.73657 0.31821 0.0
H942 H 0.74363 0.77423 0.32161 0.0
S943 S 0.85214 0.86601 0.30036 0.0
N944 N 0.86308 0.82589 0.30236 0.0
N945 N 0.81096 0.86672 0.30548 0.0
C946 C 0.8044 0.83329 0.3091 0.0
C947 C 0.83273 0.811 0.30735 0.0
C948 C 0.58015 0.55024 1.05112 0.0
C949 C 0.56832 0.51931 0.06249 0.0
C950 C 0.5584 0.57789 1.04756 0.0
C951 C 0.52386 0.57586 1.05532 0.0
H952 H 0.60629 0.55302 1.04439 0.0
H953 H 0.56882 0.60095 1.03816 0.0
S954 S 0.48075 0.50141 0.08869 0.0
N955 N 0.51996 0.48886 0.08328 0.0
N956 N 0.47941 0.54085 0.07655 0.0
C957 C 0.51184 0.54533 0.06738 0.0
C958 C 0.53396 0.51712 0.071 0.0
C959 C 1.04135 0.52765 0.53873 0.0
C960 C 0.07162 0.52408 0.55533 0.0
C961 C 1.01781 0.55305 0.54565 0.0
C962 C 1.02401 0.57643 0.56898 0.0
H963 H 1.03584 0.51076 0.51999 0.0
H964 H 0.9953 0.55519 0.53186 0.0
S965 S 0.09837 0.57721 0.62031 0.0
N966 N 0.10543 0.54504 0.59724 0.0
N967 N 0.06188 0.59345 0.60967 0.0
C968 C 0.05377 0.57267 0.58621 0.0
C969 C 0.07736 0.54631 0.5796 0.0
C970 C 1.03271 0.57652 0.07216 0.0
C971 C 0.06801 0.57494 0.06777 0.0
C972 C 1.01202 0.54817 0.06832 0.0
C973 C 1.0256 0.5168 1.06001 0.0
H974 H 1.02071 0.59982 0.07913 0.0
H975 H 0.98523 0.55081 0.07242 0.0
S976 S 0.11603 0.49926 1.04339 0.0
N977 N 0.11522 0.53949 1.05295 0.0
N978 N 0.07666 0.48621 1.04586 0.0
C979 C 0.06076 0.51494 1.05479 0.0
C980 C 0.08183 0.54392 1.05862 0.0
C981 C 0.53104 0.58218 0.55747 0.0
C982 C 0.56653 0.5792 0.55775 0.0
C983 C 0.50984 0.55398 0.56036 0.0
C984 C 0.52299 0.52122 0.56365 0.0
H985 H 0.51917 0.60664 0.55464 0.0
H986 H 0.4829 0.558 0.55976 0.0
S987 S 0.61415 0.49914 0.56678 0.0
N988 N 0.61377 0.54053 0.56246 0.0
N989 N 0.57426 0.48753 0.56759 0.0
C990 C 0.55847 0.51779 0.56441 0.0
C991 C 0.58012 0.54665 0.56158 0.0
C992 C 0.19607 0.36985 0.42285 0.0
C993 C 0.20307 0.3364 0.43134 0.0
C994 C 0.18575 0.39369 0.44444 0.0
C995 C 0.18158 0.38505 0.4755 0.0
H996 H 0.19666 0.37728 0.399 0.0
H997 H 0.17927 0.4187 0.4363 0.0
S998 S 0.20217 0.30204 0.51028 0.0
N999 N 0.20976 0.29683 0.47345 0.0
N1000 N 0.18955 0.34154 0.51417 0.0
C1001 C 0.19138 0.35242 0.48476 0.0
C1002 C 0.20233 0.32811 0.46263 0.0
C1003 C 0.9851 0.95456 0.67997 0.0
C1004 C 1.01894 0.95605 0.68917 0.0
C1005 C 0.9599 0.94309 0.69993 0.0
C1006 C 0.96744 0.93275 0.72996 0.0
H1007 H 0.97824 0.96032 0.65659 0.0
H1008 H 0.93448 0.94088 0.69123 0.0
S1009 S 0.05154 0.93607 0.76655 0.0
N1010 N 0.0582 0.94966 0.73134 0.0
N1011 N 1.0108 0.92809 0.76887 0.0
C1012 C 1.00074 0.93672 0.74025 0.0
C1013 C 1.02649 0.94839 0.71984 0.0
C1014 C 0.41931 0.72368 0.91487 0.0
C1015 C 0.40516 0.75503 0.9226 0.0
C1016 C 0.42638 0.69931 0.93724 0.0
C1017 C 0.42 0.70533 0.96846 0.0
H1018 H 0.42609 0.71827 0.89139 0.0
H1019 H 0.43828 0.67604 0.93001 0.0
S1020 S 0.38035 0.78258 1.00039 0.0
N1021 N 0.38258 0.79002 0.96329 0.0
N1022 N 0.39627 0.74446 1.00554 0.0
C1023 C 0.40408 0.73595 0.97632 0.0
C1024 C 0.39662 0.76074 0.95336 0.0
C1025 C 0.64257 0.16286 0.18995 0.0
C1026 C 0.63419 0.16401 0.22118 0.0
C1027 C 0.61921 0.15243 0.16806 0.0
C1028 C 0.5864 0.14275 0.17642 0.0
H1029 H 0.66699 0.17154 0.18209 0.0
H1030 H 0.62641 0.15378 0.14419 0.0
S1031 S 0.55279 0.13723 0.25543 0.0
N1032 N 0.59166 0.15123 0.25968 0.0
N1033 N 0.54757 0.13189 0.21833 0.0
C1034 C 0.57835 0.14129 0.20771 0.0
C1035 C 0.60231 0.15183 0.23016 0.0
C1036 C 0.18969 0.73698 0.14521 0.0
C1037 C 0.17853 0.70432 0.15302 0.0
C1038 C 0.20096 0.75952 0.16778 0.0
C1039 C 0.20157 0.75001 0.19878 0.0
H1040 H 0.18764 0.74596 0.12189 0.0
H1041 H 0.20688 0.7852 0.16115 0.0
S1042 S 0.18147 0.66534 0.23016 0.0
N1043 N 0.17363 0.66217 0.19326 0.0
N1044 N 0.19469 0.70437 0.23541 0.0
C1045 C 0.19339 0.71654 0.20637 0.0
C1046 C 0.18187 0.69373 0.18355 0.0
C1047 C 0.60816 0.9308 0.43588 0.0
C1048 C 0.57438 0.92933 0.42632 0.0
C1049 C 0.63473 0.9229 0.41597 0.0
C1050 C 0.62872 0.91386 0.38545 0.0
H1051 H 0.61421 0.93741 0.45922 0.0
H1052 H 0.66026 0.92383 0.4246 0.0
S1053 S 0.54485 0.90541 0.34905 0.0
N1054 N 0.53631 0.91729 0.38438 0.0
N1055 N 0.58634 0.90343 0.34661 0.0
C1056 C 0.59509 0.91277 0.37535 0.0
C1057 C 0.56791 0.92021 0.39587 0.0
C1058 C 0.41919 0.36238 0.64276 0.0
C1059 C 0.43827 0.39176 0.64823 0.0
C1060 C 0.41536 0.33718 0.6653 0.0
C1061 C 0.43092 0.34011 0.69401 0.0
H1062 H 0.40719 0.35867 0.62084 0.0
H1063 H 0.40072 0.31493 0.65997 0.0
S1064 S 0.48137 0.41272 0.72112 0.0
N1065 N 0.47073 0.42302 0.68589 0.0
N1066 N 0.46485 0.37512 0.72725 0.0
C1067 C 0.44961 0.3694 0.69998 0.0
C1068 C 0.45291 0.39535 0.6774 0.0
C1069 C 0.95061 0.17862 0.93466 0.0
C1070 C 0.95664 0.17173 0.90359 0.0
C1071 C 0.97388 0.16958 0.9572 0.0
C1072 C 1.00419 0.15318 0.94974 0.0
H1073 H 0.92815 0.19209 0.94169 0.0
H1074 H 0.96856 0.17672 0.9806 0.0
S1075 S 1.03111 0.12657 0.87227 0.0
N1076 N 0.99437 0.1452 0.86681 0.0
N1077 N 1.03817 0.12829 0.90941 0.0
C1078 C 1.00986 0.14437 0.91906 0.0
C1079 C 0.98607 0.15362 0.89594 0.0
C1080 C 0.91652 0.74495 0.63544 0.0
C1081 C 0.92734 0.71335 0.64668 0.0
C1082 C 0.90922 0.77191 0.65531 0.0
C1083 C 0.91196 0.76813 0.68716 0.0
H1084 H 0.91431 0.74919 0.61108 0.0
H1085 H 0.90153 0.79589 0.64564 0.0
S1086 S 0.93923 0.69074 0.72839 0.0
N1087 N 0.94024 0.68009 0.692 0.0
N1088 N 0.92646 0.73037 0.72903 0.0
C1089 C 0.92236 0.7366 0.6987 0.0
C1090 C 0.93002 0.70933 0.67856 0.0
C1091 C 0.09456 0.15301 0.42862 0.0
C1092 C 0.09066 0.17718 0.45187 0.0
C1093 C 0.11821 0.15765 0.40486 0.0
C1094 C 0.13893 0.18649 0.4037 0.0
H1095 H 0.07934 0.13035 0.4288 0.0
H1096 H 0.12068 0.13827 0.3876 0.0
S1097 S 0.13589 0.25885 0.45747 0.0
N1098 N 0.10774 0.23209 0.47094 0.0
N1099 N 0.15211 0.2405 0.42703 0.0
C1100 C 0.13466 0.21105 0.42658 0.0
C1101 C 0.11055 0.20648 0.45046 0.0
C1102 C 0.68072 0.36113 0.14122 0.0
C1103 C 0.65823 0.38784 0.14758 0.0
C1104 C 0.68537 0.3343 0.16196 0.0
C1105 C 0.66702 0.33274 0.18941 0.0
H1106 H 0.69468 0.36076 0.11993 0.0
H1107 H 0.70266 0.31418 0.15604 0.0
S1108 S 0.60697 0.39689 0.21843 0.0
N1109 N 0.61957 0.41191 0.18509 0.0
N1110 N 0.62685 0.36061 0.22276 0.0
C1111 C 0.64499 0.35938 0.19638 0.0
C1112 C 0.64105 0.38719 0.17586 0.0
C1113 C 0.48844 0.92958 0.88869 0.0
C1114 C 0.45556 0.91999 0.89729 0.0
C1115 C 0.51254 0.93894 0.91072 0.0
C1116 C 0.50458 0.93923 0.94211 0.0
H1117 H 0.49613 0.92829 0.86496 0.0
H1118 H 0.53799 0.94436 0.90321 0.0
S1119 S 0.42074 0.92125 0.97611 0.0
N1120 N 0.4155 0.91496 0.93916 0.0
N1121 N 0.46048 0.93253 0.98022 0.0
C1122 C 0.47125 0.93177 0.95072 0.0
C1123 C 0.44686 0.92212 0.92843 0.0
C1124 C 0.91975 0.36006 0.9769 0.0
C1125 C 0.93943 0.38872 0.96997 0.0
C1126 C 0.9129 0.33535 0.95474 0.0
C1127 C 0.92565 0.33818 0.92483 0.0
H1128 H 0.90994 0.35632 0.99977 0.0
H1129 H 0.89826 0.31345 0.96134 0.0
S1130 S 0.97646 0.40915 0.89395 0.0
N1131 N 0.96968 0.41924 0.92999 0.0
N1132 N 0.95747 0.37258 0.88893 0.0
C1133 C 0.9445 0.36706 0.91729 0.0
C1134 C 0.95117 0.39239 0.93967 0.0
C1135 C 0.4807 0.16071 0.67088 0.0
C1136 C 0.51329 0.14993 0.67869 0.0
C1137 C 0.45786 0.17153 0.69318 0.0
C1138 C 0.46654 0.17186 0.72431 0.0
H1139 H 0.47329 0.16258 0.64713 0.0
H1140 H 0.43363 0.18106 0.68577 0.0
S1141 S 0.54735 0.14205 0.75719 0.0
N1142 N 0.55216 0.13717 0.71995 0.0
N1143 N 0.50896 0.15724 0.76213 0.0
C1144 C 0.49812 0.15863 0.73274 0.0
C1145 C 0.52159 0.14773 0.70985 0.0
C1146 C 0.69298 0.77017 0.46069 0.0
C1147 C 0.69584 0.76032 0.42989 0.0
C1148 C 0.68279 0.74699 0.48344 0.0
C1149 C 0.67486 0.71334 0.47601 0.0
H1150 H 0.69649 0.79635 0.46695 0.0
H1151 H 0.67892 0.75606 0.50651 0.0
S1152 S 0.68404 0.67377 0.39973 0.0
N1153 N 0.69423 0.71368 0.39406 0.0
N1154 N 0.67496 0.6705 0.43645 0.0
C1155 C 0.68017 0.70277 0.44575 0.0
C1156 C 0.69068 0.72616 0.42279 0.0
C1157 C 0.1407 0.91429 0.20097 0.0
C1158 C 0.13347 0.90491 0.23133 0.0
C1159 C 0.11487 0.92003 0.17967 0.0
C1160 C 0.08083 0.91547 0.18764 0.0
H1161 H 0.16662 0.91709 0.19356 0.0
H1162 H 0.12168 0.92699 0.15651 0.0
S1163 S 0.04825 0.89076 0.26398 0.0
N1164 N 0.08954 0.89209 0.26841 0.0
N1165 N 1.04119 0.90105 0.22797 0.0
C1166 C 0.07319 0.90614 0.21789 0.0
C1167 C 0.09944 0.9014 0.23987 0.0
C1168 C 0.67371 0.86793 0.91966 0.0
C1169 C 0.68735 0.83663 0.92838 0.0
C1170 C 0.66444 0.89208 0.94138 0.0
C1171 C 0.66833 0.88606 0.9729 0.0
H1172 H 0.66915 0.87353 0.89578 0.0
H1173 H 0.65342 0.91545 0.93327 0.0
S1174 S 0.7045 0.80853 1.00771 0.0
N1175 N 0.70574 0.80125 0.97059 0.0
N1176 N 0.68828 0.84669 1.01166 0.0
C1177 C 0.68323 0.85532 0.98196 0.0
C1178 C 0.69275 0.83061 0.95966 0.0
C1179 C 0.47269 0.42846 0.16788 0.0
C1180 C 0.50462 0.44116 0.17532 0.0
C1181 C 0.44943 0.41961 0.19062 0.0
C1182 C 0.45713 0.42283 0.22189 0.0
H1183 H 0.46603 0.42401 0.14425 0.0
H1184 H 0.42563 0.40892 0.18349 0.0
S1185 S 0.53628 0.45811 0.25342 0.0
N1186 N 0.54191 0.45924 0.21603 0.0
N1187 N 0.49822 0.44239 0.25896 0.0
C1188 C 0.48825 0.43749 0.22965 0.0
C1189 C 0.51199 0.44667 0.20633 0.0
C1190 C 0.9344 0.20597 0.45093 0.0
C1191 C 0.93013 0.21297 0.48221 0.0
C1192 C 0.92597 0.22967 0.42848 0.0
C1193 C 0.91268 0.26139 0.43623 0.0
H1194 H 0.9454 0.18229 0.44361 0.0
H1195 H 0.9309 0.22338 0.40481 0.0
S1196 S 0.89448 0.29187 0.51456 0.0
N1197 N 0.91003 0.25359 0.51971 0.0
N1198 N 0.89397 0.29816 0.47723 0.0
C1199 C 0.90664 0.2683 0.46725 0.0
C1200 C 0.91538 0.24407 0.49031 0.0
C1201 C 0.11484 0.66603 0.67734 0.0
C1202 C 0.08177 0.65661 0.68506 0.0
C1203 C 0.13783 0.67607 0.69971 0.0
C1204 C 0.12875 0.67699 0.73078 0.0
H1205 H 0.12269 0.66703 0.65362 0.0
H1206 H 0.16268 0.6841 0.69245 0.0
S1207 S 1.04561 0.65306 0.76321 0.0
N1208 N 1.04139 0.64734 0.72606 0.0
N1209 N 0.08472 0.666 0.7683 0.0
C1210 C 0.09626 0.66594 0.73905 0.0
C1211 C 0.07273 0.65578 0.71613 0.0
C1212 C 0.67427 0.20767 0.6703 0.0
C1213 C 0.66599 0.21393 0.63959 0.0
C1214 C 0.68078 0.23422 0.6906 0.0
C1215 C 0.67836 0.26812 0.6812 0.0
H1216 H 0.67575 0.18199 0.67875 0.0
H1217 H 0.68695 0.22808 0.71406 0.0
S1218 S 0.65579 0.29824 0.60362 0.0
N1219 N 0.65536 0.25668 0.60081 0.0
N1220 N 0.66621 0.30656 0.63931 0.0
C1221 C 0.66981 0.27481 0.65063 0.0
C1222 C 0.66404 0.24772 0.62972 0.0
C1223 C 0.12569 0.4269 0.95437 0.0
C1224 C 0.095 0.44295 0.94764 0.0
C1225 C 0.14686 0.41499 0.93113 0.0
C1226 C 0.13833 0.41866 0.90009 0.0
H1227 H 0.13273 0.422 0.97787 0.0
H1228 H 0.16965 0.40182 0.9377 0.0
S1229 S 0.06192 0.46149 0.8702 0.0
N1230 N 0.05802 0.46395 0.9077 0.0
N1231 N 0.09794 0.44178 0.86388 0.0
C1232 C 0.1086 0.43645 0.89296 0.0
C1233 C 0.08693 0.44856 0.91677 0.0
C1234 C 0.90535 0.85865 0.14653 0.0
C1235 C 0.92046 0.88982 0.15363 0.0
C1236 C 0.89503 0.83616 0.16969 0.0
C1237 C 0.89922 0.84413 0.20076 0.0
H1238 H 0.90282 0.85084 0.12296 0.0
H1239 H 0.88537 0.81168 0.16315 0.0
S1240 S 0.93323 0.92426 0.23157 0.0
N1241 N 0.93596 0.92868 0.19414 0.0
N1242 N 0.9165 0.88667 0.23736 0.0
C1243 C 0.91228 0.87605 0.20811 0.0
C1244 C 0.92294 0.8988 0.18465 0.0
C1245 C 0.51322 0.66424 0.41455 0.0
C1246 C 0.50857 0.67713 0.44418 0.0
C1247 C 0.48823 0.66804 0.39197 0.0
C1248 C 0.45744 0.68447 0.39829 0.0
H1249 H 0.53654 0.65164 0.40859 0.0
H1250 H 0.49316 0.65802 0.36941 0.0
S1251 S 0.43217 0.72044 0.47337 0.0
N1252 N 0.47064 0.70601 0.47898 0.0
N1253 N 0.42336 0.71186 0.43742 0.0
C1254 C 0.45233 0.69663 0.42822 0.0
C1255 C 0.47795 0.69332 0.4509 0.0
C1256 C 0.45865 0.21526 0.16696 0.0
C1257 C 0.43451 0.20803 0.14445 0.0
C1258 C 0.45414 0.24209 0.18738 0.0
C1259 C 0.42489 0.26214 0.18672 0.0
H1260 H 0.48153 0.20044 0.16855 0.0
H1261 H 0.47357 0.24684 0.20412 0.0
S1262 S 0.35339 0.25284 0.13314 0.0
N1263 N 0.38009 0.22289 0.12292 0.0
N1264 N 0.37105 0.27254 0.16219 0.0
C1265 C 0.40024 0.25485 0.16476 0.0
C1266 C 0.40521 0.22801 0.14339 0.0
C1267 C 0.5912 0.64883 0.91876 0.0
C1268 C 0.58483 0.67229 0.94217 0.0
C1269 C 0.61722 0.65417 0.89722 0.0
C1270 C 0.6379 0.68305 0.89846 0.0
H1271 H 0.57615 0.62613 0.91716 0.0
H1272 H 0.62151 0.63529 0.8798 0.0
S1273 S 0.62918 0.75382 0.95353 0.0
N1274 N 0.59984 0.72665 0.96389 0.0
N1275 N 0.64837 0.73641 0.92405 0.0
C1276 C 0.63114 0.70697 0.92142 0.0
C1277 C 0.60471 0.70166 0.94308 0.0
C1278 C 0.18371 0.83652 0.67081 0.0
C1279 C 0.17346 0.84237 0.70116 0.0
C1280 C 0.18055 0.86175 0.64818 0.0
C1281 C 0.16714 0.89383 0.65507 0.0
H1282 H 0.19359 0.81207 0.66434 0.0
H1283 H 0.18831 0.85586 0.62506 0.0
S1284 S 0.13978 0.92274 0.73196 0.0
N1285 N 0.15118 0.88312 0.73726 0.0
N1286 N 0.14591 0.93048 0.69531 0.0
C1287 C 0.15779 0.90015 0.68563 0.0
C1288 C 0.16075 0.87446 0.70848 0.0
C1289 C 0.99686 0.41997 0.38462 0.0
C1290 C 0.96333 0.41827 0.39514 0.0
C1291 C 1.0234 0.42789 0.40459 0.0
C1292 C 1.01723 0.43513 0.43557 0.0
H1293 H 1.00284 0.41376 0.36114 0.0
H1294 H 0.04894 0.42772 0.39582 0.0
S1295 S 0.93355 0.43681 0.47371 0.0
N1296 N 0.92532 0.42606 0.43811 0.0
N1297 N 0.97476 0.44191 0.47529 0.0
C1298 C 0.98364 0.43491 0.44596 0.0
C1299 C 0.95682 0.42623 0.42584 0.0
C1300 C 0.41119 0.84605 0.48445 0.0
C1301 C 0.41231 0.88041 0.47625 0.0
C1302 C 0.39983 0.82154 0.46366 0.0
C1303 C 0.38915 0.83058 0.43405 0.0
H1304 H 0.42137 0.83775 0.50614 0.0
H1305 H 0.40174 0.79521 0.4701 0.0
S1306 S 0.38087 0.91765 0.40379 0.0
N1307 N 0.39697 0.92254 0.43823 0.0
N1308 N 0.37586 0.8766 0.39938 0.0
C1309 C 0.38724 0.86504 0.42674 0.0
C1310 C 0.39879 0.88991 0.44778 0.0
C1311 C 0.98474 0.66693 0.23053 0.0
C1312 C 0.95662 0.68744 0.22383 0.0
C1313 C 1.01069 0.66192 0.20905 0.0
C1314 C 1.00985 0.67776 0.1803 0.0
H1315 H 0.98692 0.65478 0.25263 0.0
H1316 H 1.03193 0.64618 0.21528 0.0
S1317 S 0.94115 0.73176 0.1501 0.0
N1318 N 0.92863 0.72144 0.18489 0.0
N1319 N 0.97818 0.71348 0.14554 0.0
C1320 C 0.98181 0.69786 0.17304 0.0
C1321 C 0.95498 0.70225 0.1945 0.0
C1322 C 0.16502 0.22151 0.92004 0.0
C1323 C 0.17988 0.25273 0.92701 0.0
C1324 C 0.15782 0.19766 0.94292 0.0
C1325 C 0.16473 0.2041 0.97394 0.0
H1326 H 0.15811 0.2157 0.89672 0.0
H1327 H 0.14577 0.17433 0.93622 0.0
S1328 S 0.20471 0.28186 1.00417 0.0
N1329 N 0.20244 0.28848 0.96697 0.0
N1330 N 0.18862 0.24398 1.01009 0.0
C1331 C 0.18063 0.23489 0.98111 0.0
C1332 C 0.18822 0.25911 0.95766 0.0
C1333 C 0.60297 0.43836 0.72953 0.0
C1334 C 0.63676 0.4322 0.72138 0.0
C1335 C 0.57925 0.44891 0.70758 0.0
C1336 C 0.58855 0.45385 0.67677 0.0
H1337 H 0.59425 0.4329 0.75249 0.0
H1338 H 0.55311 0.45109 0.71442 0.0
S1339 S 0.67499 0.44745 0.64501 0.0
N1340 N 0.67908 0.43654 0.68124 0.0
N1341 N 0.63468 0.45623 0.64031 0.0
C1342 C 0.62274 0.45064 0.66902 0.0
C1343 C 0.64679 0.43985 0.69123 0.0
C1344 C 0.07109 0.29388 0.38187 0.0
C1345 C 0.08546 0.29977 0.35294 0.0
C1346 C 1.03926 0.30634 0.38922 0.0
C1347 C 1.02036 0.32459 0.36772 0.0
H1348 H 0.08467 0.27995 0.39927 0.0
H1349 H 1.02914 0.30089 0.41173 0.0
S1350 S 1.04665 0.34727 0.28894 0.0
N1351 N 0.07876 0.32564 0.30285 0.0
N1352 N 1.0182 0.34852 0.31653 0.0
C1353 C 1.03434 0.33079 0.33873 0.0
C1354 C 0.06711 0.3185 0.33136 0.0
C1355 C 1.04551 0.81873 0.66753 0.0
C1356 C 0.05891 0.83427 0.64124 0.0
C1357 C 1.02962 0.78737 0.66595 0.0
C1358 C 1.02659 0.77011 0.63807 0.0
H1359 H 1.04715 0.83083 0.68964 0.0
H1360 H 1.02009 0.77641 0.68697 0.0
S1361 S 0.05672 0.80014 0.56234 0.0
N1362 N 0.06752 0.83033 0.58626 0.0
N1363 N 1.03767 0.77119 0.58334 0.0
C1364 C 1.03938 0.78553 0.61146 0.0
C1365 C 0.05563 0.81758 0.61306 0.0
C1366 C 0.53673 0.79424 0.87837 0.0
C1367 C 0.51924 0.81603 0.85859 0.0
C1368 C 0.56842 0.78167 0.8706 0.0
C1369 C 0.5842 0.79089 0.84299 0.0
H1370 H 0.52577 0.78643 0.89996 0.0
H1371 H 0.58094 0.76534 0.88691 0.0
S1372 S 0.54894 0.84727 0.78325 0.0
N1373 N 0.51959 0.84605 0.81005 0.0
N1374 N 0.57986 0.82294 0.79565 0.0
C1375 C 0.56698 0.8126 0.82291 0.0
C1376 C 0.53434 0.82506 0.83067 0.0
C1377 C 0.56262 0.2798 0.08083 0.0
C1378 C 0.55057 0.25778 0.10341 0.0
C1379 C 0.57204 0.31272 0.08829 0.0
C1380 C 0.57004 0.32439 0.11862 0.0
H1381 H 0.56382 0.27189 1.05718 0.0
H1382 H 0.58 0.32935 0.06995 0.0
S1383 S 0.54594 0.27387 0.18683 0.0
N1384 N 0.54097 0.24803 0.15768 0.0
N1385 N 0.55912 0.3098 0.17186 0.0
C1386 C 0.56005 0.30174 0.14168 0.0
C1387 C 0.55011 0.26841 0.13401 0.0
C1388 C 1.03396 0.78574 0.26206 0.0
C1389 C 1.01528 0.78597 0.23487 0.0
C1390 C 0.06725 0.79699 0.26255 0.0
C1391 C 0.08315 0.8087 0.23582 0.0
H1392 H 1.02277 0.77714 0.2833 0.0
H1393 H 0.08066 0.79616 0.28405 0.0
S1394 S 1.04521 0.81478 0.15858 0.0
N1395 N 1.01509 0.79899 0.18037 0.0
N1396 N 0.0777 0.82037 0.18142 0.0
C1397 C 0.0648 0.80915 0.20841 0.0
C1398 C 1.03086 0.79766 0.20789 0.0
C1399 C 0.54249 0.78128 0.53313 0.0
C1400 C 0.57471 0.78097 0.51955 0.0
C1401 C 0.5225 0.81047 0.53256 0.0
C1402 C 0.53466 0.84034 0.51935 0.0
H1403 H 0.53143 0.75816 0.5418 0.0
H1404 H 0.49675 0.8091 0.54073 0.0
S1405 S 0.61865 0.85375 0.4843 0.0
N1406 N 0.61876 0.81367 0.49482 0.0
N1407 N 0.58162 0.8689 0.49481 0.0
C1408 C 0.56777 0.84109 0.50802 0.0
C1409 C 0.58777 0.81126 0.50792 0.0
C1410 C 0.53105 0.30557 0.79247 0.0
C1411 C 0.53265 0.27259 0.78066 0.0
C1412 C 0.55999 0.32564 0.79434 0.0
C1413 C 0.59158 0.31298 0.78556 0.0
H1414 H 0.50694 0.31712 0.79756 0.0
H1415 H 0.55729 0.35194 0.80063 0.0
S1416 S 0.60977 0.22675 0.75712 0.0
N1417 N 0.5686 0.22723 0.76261 0.0
N1418 N 0.62337 0.26427 0.76779 0.0
C1419 C 0.59402 0.2789 0.77686 0.0
C1420 C 0.56438 0.25886 0.7739 0.0
C1421 C 1.03548 0.30899 1.01379 0.0
C1422 C 1.04268 0.33039 0.98898 0.0
C1423 C 0.0498 0.2768 1.01567 0.0
C1424 C 0.07174 0.26507 0.99277 0.0
H1425 H 1.01828 0.31696 1.03163 0.0
H1426 H 1.04267 0.26061 1.03459 0.0
S1427 S 0.10252 0.3132 0.92558 0.0
N1428 N 0.0759 0.33897 0.94272 0.0
N1429 N 0.10245 0.27823 0.94616 0.0
C1430 C 0.08017 0.28668 0.9685 0.0
C1431 C 0.06567 0.31943 0.96659 0.0
C1432 C 0.04965 0.77251 0.77305 0.0
C1433 C 0.06872 0.79117 0.79414 0.0
C1434 C 1.01776 0.78334 0.76395 0.0
C1435 C 1.00329 0.81275 0.77608 0.0
H1436 H 0.06017 0.75051 0.76187 0.0
H1437 H 1.00487 0.7693 0.74628 0.0
S1438 S 1.03969 0.86764 0.83564 0.0
N1439 N 0.06878 0.83852 0.82965 0.0
N1440 N 1.0081 0.85824 0.81272 0.0
C1441 C 1.0204 0.82996 0.79921 0.0
C1442 C 0.05332 0.81927 0.80824 0.0
C1443 C 0.07374 0.31369 0.53924 0.0
C1444 C 0.06184 0.34182 0.52298 0.0
C1445 C 0.05493 0.28369 0.5404 0.0
C1446 C 1.02417 0.28082 0.52461 0.0
H1447 H 0.0986 0.31417 0.54938 0.0
H1448 H 0.06596 0.26183 0.55145 0.0
S1449 S 0.98117 0.34852 0.48106 0.0
N1450 N 1.01642 0.36608 0.49307 0.0
N1451 N 0.98154 0.30954 0.49451 0.0
C1452 C 1.01119 0.30953 0.50996 0.0
C1453 C 1.02999 0.3401 0.50925 0.0
C1454 C 0.54909 0.32631 0.28302 0.0
C1455 C 0.51631 0.31361 0.28043 0.0
C1456 C 0.57684 0.30455 0.28249 0.0
C1457 C 0.57257 0.2696 0.27826 0.0
H1458 H 0.55336 0.3533 0.28386 0.0
H1459 H 0.60182 0.31553 0.28282 0.0
S1460 S 0.4919 0.22367 0.27201 0.0
N1461 N 0.48093 0.26366 0.27584 0.0
N1462 N 0.53346 0.22308 0.27322 0.0
C1463 C 0.53995 0.25645 0.27713 0.0
C1464 C 0.51165 0.27843 0.27864 0.0
C1465 C 0.56469 0.80328 1.01195 0.0
C1466 C 0.55174 0.83076 0.99555 0.0
C1467 C 0.54571 0.77372 1.01525 0.0
C1468 C 0.51334 0.77125 1.0024 0.0
H1469 H 0.59002 0.80413 1.02108 0.0
H1470 H 0.55726 0.75206 1.02621 0.0
S1471 S 0.46581 0.83899 0.96354 0.0
N1472 N 0.50306 0.85575 0.97055 0.0
N1473 N 0.46755 0.79995 0.97668 0.0
C1474 C 0.49937 0.79944 0.98799 0.0
C1475 C 0.51859 0.82937 0.98456 0.0
C1476 C 1.03603 0.27388 0.84569 0.0
C1477 C 1.01489 0.27922 0.82039 0.0
C1478 C 0.069 0.28609 0.84593 0.0
C1479 C 0.08236 0.30363 0.82077 0.0
H1480 H 1.02676 0.26132 0.86606 0.0
H1481 H 0.08422 0.28169 0.86604 0.0
S1482 S 1.03897 0.3216 0.74779 0.0
N1483 N 1.01048 0.30166 0.7687 0.0
N1484 N 0.07321 0.3238 0.76907 0.0
C1485 C 0.06233 0.30773 0.79471 0.0
C1486 C 1.02837 0.29578 0.79458 0.0
C1487 C 0.54004 0.31277 0.60754 0.0
C1488 C 0.54368 0.33277 0.63383 0.0
C1489 C 0.55304 0.27985 0.60647 0.0
C1490 C 0.57 0.26587 0.63168 0.0
H1491 H 0.52679 0.32242 0.58777 0.0
H1492 H 0.54898 0.26502 0.58607 0.0
S1493 S 0.58919 0.30882 0.70455 0.0
N1494 N 0.56764 0.33687 0.68481 0.0
N1495 N 0.5918 0.27517 0.68271 0.0
C1496 C 0.57467 0.28593 0.65767 0.0
C1497 C 0.56154 0.31932 0.65879 0.0
C1498 C 0.53042 0.79804 0.41353 0.0
C1499 C 0.51249 0.79101 0.38666 0.0
C1500 C 0.5631 0.81087 0.41231 0.0
C1501 C 0.57916 0.81711 0.38417 0.0
H1502 H 0.51928 0.79341 0.43579 0.0
H1503 H 0.57599 0.81532 0.43368 0.0
S1504 S 0.5423 0.80521 0.30714 0.0
N1505 N 0.51254 0.79277 0.33102 0.0
N1506 N 0.57416 0.81689 0.32877 0.0
C1507 C 0.5613 0.81093 0.35709 0.0
C1508 C 0.52794 0.79779 0.35833 0.0
C1509 C 0.07849 0.81642 0.07118 0.0
C1510 C 1.04517 0.82836 0.07328 0.0
C1511 C 0.08536 0.78185 0.06928 0.0
C1512 C 0.05917 0.75808 0.0688 0.0
H1513 H 0.09955 0.83365 0.07299 0.0
H1514 H 0.11139 0.77358 0.06966 0.0
S1515 S 0.96745 0.77667 0.06978 0.0
N1516 N 0.98566 0.81401 0.0718 0.0
N1517 N 0.9985 0.74902 0.0678 0.0
C1518 C 1.02569 0.76984 0.06844 0.0
C1519 C 1.01871 0.80502 0.07081 0.0
C1520 C 0.13538 0.16095 0.18527 0.0
C1521 C 0.15151 0.17265 0.15853 0.0
C1522 C 0.14603 0.1711 0.21448 0.0
C1523 C 0.17374 0.19286 0.21824 0.0
H1524 H 0.11503 0.14287 0.18367 0.0
H1525 H 0.13362 0.16024 0.23427 0.0
S1526 S 0.22333 0.23254 0.15565 0.0
N1527 N 0.19532 0.20903 0.13783 0.0
N1528 N 0.21563 0.22757 0.19248 0.0
C1529 C 0.18908 0.20597 0.19166 0.0
C1530 C 0.17791 0.19604 0.16191 0.0
C1531 C 0.18606 0.90169 0.46812 0.0
C1532 C 0.15983 0.92522 0.4722 0.0
C1533 C 0.19561 0.89066 0.43884 0.0
C1534 C 0.17903 0.90223 0.41235 0.0
H1535 H 0.2006 0.89304 0.48754 0.0
H1536 H 0.21697 0.87376 0.43691 0.0
S1537 S 0.10589 0.96077 0.41086 0.0
N1538 N 0.11549 0.95747 0.44743 0.0
N1539 N 0.13298 0.9364 0.39258 0.0
C1540 C 0.1513 0.92404 0.41629 0.0
C1541 C 0.14187 0.93563 0.44612 0.0
C1542 C 0.40214 0.88783 0.68854 0.0
C1543 C 0.41932 0.89745 0.71532 0.0
C1544 C 0.41512 0.89504 0.65927 0.0
C1545 C 0.44565 0.91261 0.65546 0.0
H1546 H 0.37779 0.87566 0.69013 0.0
H1547 H 0.40013 0.88844 0.63954 0.0
S1548 S 0.50251 0.94016 0.71778 0.0
N1549 N 0.47026 0.92279 0.73576 0.0
N1550 N 0.49422 0.93675 0.68097 0.0
C1551 C 0.46399 0.92073 0.68194 0.0
C1552 C 0.45099 0.91302 0.71176 0.0
C1553 C 0.44632 0.17205 0.90774 0.0
C1554 C 0.42079 0.19636 0.90373 0.0
C1555 C 0.45543 0.16055 0.93699 0.0
C1556 C 0.43984 0.17328 0.96353 0.0
H1557 H 0.45816 0.1604 0.88809 0.0
H1558 H 0.47412 0.14071 0.93872 0.0
S1559 S 0.3743 0.24023 0.9657 0.0
N1560 N 0.382 0.2348 0.92895 0.0
N1561 N 0.39947 0.21375 0.98382 0.0
C1562 C 0.41582 0.19919 0.95992 0.0
C1563 C 0.40619 0.21054 0.93009 0.0
C1564 C 0.93199 0.89385 0.96412 0.0
C1565 C 0.95325 0.92178 0.96868 0.0
C1566 C 0.92257 0.88365 0.9346 0.0
C1567 C 0.93432 0.90061 0.90828 0.0
H1568 H 0.92097 0.88082 0.9835 0.0
H1569 H 0.90487 0.86301 0.9325 0.0
S1570 S 0.99404 0.97264 0.90747 0.0
N1571 N 0.9883 0.96431 0.9441 0.0
N1572 N 0.97095 0.94492 0.88883 0.0
C1573 C 0.95745 0.9271 0.91243 0.0
C1574 C 0.96677 0.93774 0.94253 0.0
C1575 C 0.95832 0.15777 0.68995 0.0
C1576 C 0.94606 0.17314 0.66313 0.0
C1577 C 0.94736 0.16812 0.71901 0.0
C1578 C 0.9232 0.19389 0.72247 0.0
H1579 H 0.97568 0.13673 0.68849 0.0
H1580 H 0.95655 0.15447 0.73878 0.0
S1581 S 0.88567 0.24476 0.65988 0.0
N1582 N 0.91056 0.21765 0.64222 0.0
N1583 N 0.88958 0.23655 0.69671 0.0
C1584 C 0.91209 0.2107 0.69598 0.0
C1585 C 0.92363 0.20051 0.66638 0.0
C1586 C 0.67864 0.1927 0.45743 0.0
C1587 C 0.65384 0.16773 0.46172 0.0
C1588 C 0.68815 0.20352 0.42803 0.0
C1589 C 0.67287 0.19031 0.40164 0.0
H1590 H 0.69213 0.20278 0.47683 0.0
H1591 H 0.70847 0.22161 0.42596 0.0
S1592 S 0.60379 0.12717 0.4005 0.0
N1593 N 0.61229 0.13205 0.43712 0.0
N1594 N 0.62963 0.15275 0.38202 0.0
C1595 C 0.64652 0.1669 0.4057 0.0
C1596 C 0.63719 0.15549 0.43565 0.0
C1597 C 0.71044 0.87592 0.18474 0.0
C1598 C 0.6901 0.89133 0.20711 0.0
C1599 C 0.70428 0.88041 0.15344 0.0
C1600 C 0.67764 0.90084 0.14285 0.0
H1601 H 0.73206 0.86093 0.19142 0.0
H1602 H 0.72152 0.86868 0.13745 0.0
S1603 S 0.61498 0.94468 0.19193 0.0
N1604 N 0.64057 0.92603 0.21642 0.0
N1605 N 0.62914 0.93474 0.1576 0.0
C1606 C 0.65602 0.91511 0.16495 0.0
C1607 C 0.66218 0.91029 0.197 0.0
C1608 C 0.67619 0.69524 0.6618 0.0
C1609 C 0.65083 0.6708 0.65793 0.0
C1610 C 0.68819 0.70374 0.69101 0.0
C1611 C 0.67497 0.68866 0.71769 0.0
H1612 H 0.68823 0.70659 0.64205 0.0
H1613 H 0.7088 0.72153 0.69259 0.0
S1614 S 0.60547 0.62601 0.72026 0.0
N1615 N 0.61104 0.6336 0.68347 0.0
N1616 N 0.63299 0.64999 0.7382 0.0
C1617 C 0.6481 0.66579 0.71422 0.0
C1618 C 0.63624 0.65674 0.68443 0.0
C1619 C 0.64458 0.43355 0.90646 0.0
C1620 C 0.65831 0.40109 0.90251 0.0
C1621 C 0.63708 0.44614 0.93572 0.0
C1622 C 0.64255 0.42668 0.96229 0.0
H1623 H 0.64145 0.45021 0.887 0.0
H1624 H 0.62821 0.47192 0.93754 0.0
S1625 S 0.67352 0.3382 0.96399 0.0
N1626 N 0.67387 0.34847 0.9274 0.0
N1627 N 0.65934 0.37179 0.98219 0.0
C1628 C 0.65392 0.39326 0.95844 0.0
C1629 C 0.66195 0.3806 0.92864 0.0
C1630 C 0.88631 0.434 0.16949 0.0
C1631 C 0.9188 0.43018 0.1571 0.0
C1632 C 0.8781 0.42153 0.19848 0.0
C1633 C 0.9022 0.40527 0.2169 0.0
H1634 H 0.8668 0.44678 0.1566 0.0
H1635 H 0.85274 0.42572 0.20685 0.0
S1636 S 0.99097 0.38816 0.19509 0.0
N1637 N 0.97514 0.40788 0.16502 0.0
N1638 N 0.96006 0.38546 0.22039 0.0
C1639 C 0.93486 0.40097 0.20482 0.0
C1640 C 0.94304 0.41306 0.17471 0.0
C1641 C 0.95527 0.65621 0.4405 0.0
C1642 C 0.94216 0.67145 0.46705 0.0
C1643 C 0.94558 0.667 0.41118 0.0
C1644 C 0.92193 0.69314 0.40716 0.0
H1645 H 0.97227 0.6349 0.44235 0.0
H1646 H 0.9553 0.65342 0.3916 0.0
S1647 S 0.88255 0.74376 0.46894 0.0
N1648 N 0.9064 0.71616 0.48715 0.0
N1649 N 0.88786 0.73595 0.43221 0.0
C1650 C 0.91003 0.70981 0.43343 0.0
C1651 C 0.92024 0.69914 0.46329 0.0
C1652 C 0.45384 0.43404 0.43817 0.0
C1653 C 0.43887 0.42121 0.46506 0.0
C1654 C 0.44507 0.42176 0.40912 0.0
C1655 C 0.4205 0.39647 0.40563 0.0
H1656 H 0.47172 0.45461 0.43945 0.0
H1657 H 0.4563 0.43357 0.38921 0.0
S1658 S 0.3759 0.35205 0.46865 0.0
N1659 N 0.40013 0.37968 0.48619 0.0
N1660 N 0.38329 0.35712 0.43178 0.0
C1661 C 0.40658 0.38222 0.43236 0.0
C1662 C 0.41586 0.39439 0.46198 0.0
C1663 C 0.40875 0.70139 0.18723 0.0
C1664 C 0.42357 0.68676 0.21337 0.0
C1665 C 0.41907 0.69246 0.15753 0.0
C1666 C 0.44433 0.66808 0.15262 0.0
H1667 H 0.38812 0.7191 0.18965 0.0
H1668 H 0.40579 0.70341 0.13832 0.0
S1669 S 0.49363 0.62456 0.21303 0.0
N1670 N 0.46697 0.64865 0.23211 0.0
N1671 N 0.48589 0.63154 0.17651 0.0
C1672 C 0.46058 0.65456 0.1785 0.0
C1673 C 0.45038 0.66399 0.20877 0.0
C1674 C 0.13488 0.66037 0.94477 0.0
C1675 C 0.14897 0.67457 0.97128 0.0
C1676 C 0.14474 0.67107 0.91542 0.0
C1677 C 0.16959 0.69603 0.91131 0.0
H1678 H 0.11688 0.63994 0.94664 0.0
H1679 H 0.13409 0.65831 0.89586 0.0
S1680 S 0.21205 0.74372 0.97303 0.0
N1681 N 0.18708 0.71712 0.99131 0.0
N1682 N 0.206 0.73667 0.93629 0.0
C1683 C 0.18261 0.71168 0.93757 0.0
C1684 C 0.17219 0.70115 0.96748 0.0
C1685 C 0.13619 0.42421 0.6834 0.0
C1686 C 0.15285 0.41274 0.65689 0.0
C1687 C 0.14688 0.41464 0.71276 0.0
C1688 C 0.17506 0.39355 0.71698 0.0
H1689 H 0.11536 0.44177 0.68154 0.0
H1690 H 0.13401 0.42541 0.7323 0.0
S1691 S 0.2253 0.35342 0.65524 0.0
N1692 N 0.19716 0.37649 0.63691 0.0
N1693 N 0.21749 0.3589 0.69197 0.0
C1694 C 0.19076 0.38031 0.69068 0.0
C1695 C 0.1796 0.38975 0.66072 0.0
loop_
_geom_bond_atom_site_label_1
_geom_bond_atom_site_label_2
_geom_bond_distance
_geom_bond_site_symmetry_2
_ccdc_geom_bond_type
O0 Tb1 2.506 . S
O0 C14 1.265 . S
Tb1 O0 2.506 . S
Tb1 O6 2.312 . S
Tb1 O10 2.271 . S
Tb1 O12 2.338 . S
Tb1 O19 2.441 . S
C2 O10 1.252 . S
C2 O11 1.253 . S
O3 Tb4 2.271 . S
O3 C13 1.252 . S
Tb4 O3 2.271 . S
Tb4 O7 2.338 . S
Tb4 O11 2.312 . S
Tb4 O15 2.441 . S
Tb4 O16 2.506 . S
C5 O15 1.244 . S
C5 O16 1.265 . S
O6 Tb1 2.312 . S
O6 C13 1.253 . S
O7 Tb4 2.338 . S
O7 C8 1.258 . S
C8 O7 1.258 . S
C8 O9 1.251 . S
O9 C8 1.251 . S
O10 Tb1 2.271 . S
O10 C2 1.252 . S
O11 C2 1.253 . S
O11 Tb4 2.312 . S
O12 Tb1 2.338 . S
O12 C17 1.258 . S
C13 O3 1.252 . S
C13 O6 1.253 . S
C14 O0 1.265 . S
C14 O19 1.244 . S
O15 Tb4 2.441 . S
O15 C5 1.244 . S
O16 Tb4 2.506 . S
O16 C5 1.265 . S
C17 O12 1.258 . S
C17 O18 1.251 . S
O18 C17 1.251 . S
O19 Tb1 2.441 . S
O19 C14 1.244 . S
O20 Tb21 2.506 . S
O20 C34 1.265 . S
Tb21 O20 2.506 . S
Tb21 O26 2.312 . S
Tb21 O30 2.271 . S
Tb21 O32 2.338 . S
Tb21 O39 2.441 . S
C22 O30 1.252 . S
C22 O31 1.253 . S
O23 Tb24 2.271 . S
O23 C33 1.252 . S
Tb24 O23 2.271 . S
Tb24 O27 2.338 1_455 S
Tb24 O31 2.312 . S
Tb24 O35 2.441 . S
Tb24 O36 2.506 1_455 S
C25 O35 1.244 1_655 S
C25 O36 1.265 . S
O26 Tb21 2.312 . S
O26 C33 1.253 . S
O27 Tb24 2.338 1_655 S
O27 C28 1.258 1_655 S
C28 O27 1.258 1_455 S
C28 O29 1.251 . S
O29 C28 1.251 . S
O30 Tb21 2.271 . S
O30 C22 1.252 . S
O31 C22 1.253 . S
O31 Tb24 2.312 . S
O32 Tb21 2.338 . S
O32 C37 1.258 . S
C33 O23 1.252 . S
C33 O26 1.253 . S
C34 O20 1.265 . S
C34 O39 1.244 . S
O35 Tb24 2.441 . S
O35 C25 1.244 1_455 S
O36 Tb24 2.506 1_655 S
O36 C25 1.265 . S
C37 O32 1.258 . S
C37 O38 1.251 . S
O38 C37 1.251 . S
O39 Tb21 2.441 . S
O39 C34 1.244 . S
O40 Tb41 2.506 . S
O40 C54 1.265 . S
Tb41 O40 2.506 . S
Tb41 O46 2.312 . S
Tb41 O50 2.271 . S
Tb41 O52 2.338 . S
Tb41 O59 2.441 . S
C42 O50 1.252 . S
C42 O51 1.253 . S
O43 Tb44 2.271 . S
O43 C53 1.252 . S
Tb44 O43 2.271 . S
Tb44 O47 2.338 . S
Tb44 O51 2.312 . S
Tb44 O55 2.441 . S
Tb44 O56 2.506 . S
C45 O55 1.244 . S
C45 O56 1.265 . S
O46 Tb41 2.312 . S
O46 C53 1.253 . S
O47 Tb44 2.338 . S
O47 C48 1.258 . S
C48 O47 1.258 . S
C48 O49 1.251 . S
O49 C48 1.251 . S
O50 Tb41 2.271 . S
O50 C42 1.252 . S
O51 C42 1.253 . S
O51 Tb44 2.312 . S
O52 Tb41 2.338 . S
O52 C57 1.258 . S
C53 O43 1.252 . S
C53 O46 1.253 . S
C54 O40 1.265 . S
C54 O59 1.244 . S
O55 Tb44 2.441 . S
O55 C45 1.244 . S
O56 Tb44 2.506 . S
O56 C45 1.265 . S
C57 O52 1.258 . S
C57 O58 1.251 . S
O58 C57 1.251 . S
O59 Tb41 2.441 . S
O59 C54 1.244 . S
O60 Tb61 2.506 . S
O60 C74 1.265 . S
Tb61 O60 2.506 . S
Tb61 O66 2.312 . S
Tb61 O70 2.271 . S
Tb61 O72 2.338 1_554 S
Tb61 O79 2.441 . S
C62 O70 1.252 . S
C62 O71 1.253 . S
O63 Tb64 2.271 . S
O63 C73 1.252 . S
Tb64 O63 2.271 . S
Tb64 O67 2.338 . S
Tb64 O71 2.312 . S
Tb64 O75 2.441 . S
Tb64 O76 2.506 . S
C65 O75 1.244 . S
C65 O76 1.265 . S
O66 Tb61 2.312 . S
O66 C73 1.253 . S
O67 Tb64 2.338 . S
O67 C68 1.258 . S
C68 O67 1.258 . S
C68 O69 1.251 . S
O69 C68 1.251 . S
O70 Tb61 2.271 . S
O70 C62 1.252 . S
O71 C62 1.253 . S
O71 Tb64 2.312 . S
O72 Tb61 2.338 1_556 S
O72 C77 1.258 . S
C73 O63 1.252 . S
C73 O66 1.253 . S
C74 O60 1.265 . S
C74 O79 1.244 . S
O75 Tb64 2.441 . S
O75 C65 1.244 . S
O76 Tb64 2.506 . S
O76 C65 1.265 . S
C77 O72 1.258 . S
C77 O78 1.251 . S
O78 C77 1.251 . S
O79 Tb61 2.441 . S
O79 C74 1.244 . S
O80 Tb81 2.506 . S
O80 C94 1.265 . S
Tb81 O80 2.506 . S
Tb81 O86 2.312 . S
Tb81 O90 2.271 . S
Tb81 O92 2.338 . S
Tb81 O99 2.441 . S
C82 O90 1.252 . S
C82 O91 1.253 . S
O83 Tb84 2.271 . S
O83 C93 1.252 . S
Tb84 O83 2.271 . S
Tb84 O87 2.338 . S
Tb84 O91 2.312 . S
Tb84 O95 2.441 . S
Tb84 O96 2.506 . S
C85 O95 1.244 . S
C85 O96 1.265 . S
O86 Tb81 2.312 . S
O86 C93 1.253 . S
O87 Tb84 2.338 . S
O87 C88 1.258 . S
C88 O87 1.258 . S
C88 O89 1.251 . S
O89 C88 1.251 . S
O90 Tb81 2.271 . S
O90 C82 1.252 . S
O91 C82 1.253 . S
O91 Tb84 2.312 . S
O92 Tb81 2.338 . S
O92 C97 1.258 . S
C93 O83 1.252 . S
C93 O86 1.253 . S
C94 O80 1.265 . S
C94 O99 1.244 . S
O95 Tb84 2.441 . S
O95 C85 1.244 . S
O96 Tb84 2.506 . S
O96 C85 1.265 . S
C97 O92 1.258 . S
C97 O98 1.251 . S
O98 C97 1.251 . S
O99 Tb81 2.441 . S
O99 C94 1.244 . S
O100 Tb101 2.506 . S
O100 C114 1.265 . S
Tb101 O100 2.506 . S
Tb101 O106 2.312 . S
Tb101 O110 2.271 . S
Tb101 O112 2.338 . S
Tb101 O119 2.441 . S
C102 O110 1.252 . S
C102 O111 1.253 . S
O103 Tb104 2.271 . S
O103 C113 1.252 . S
Tb104 O103 2.271 . S
Tb104 O107 2.338 . S
Tb104 O111 2.312 . S
Tb104 O115 2.441 . S
Tb104 O116 2.506 . S
C105 O115 1.244 . S
C105 O116 1.265 . S
O106 Tb101 2.312 . S
O106 C113 1.253 . S
O107 Tb104 2.338 . S
O107 C108 1.258 . S
C108 O107 1.258 . S
C108 O109 1.251 . S
O109 C108 1.251 . S
O110 Tb101 2.271 . S
O110 C102 1.252 . S
O111 C102 1.253 . S
O111 Tb104 2.312 . S
O112 Tb101 2.338 . S
O112 C117 1.258 . S
C113 O103 1.252 . S
C113 O106 1.253 . S
C114 O100 1.265 . S
C114 O119 1.244 . S
O115 Tb104 2.441 . S
O115 C105 1.244 . S
O116 Tb104 2.506 . S
O116 C105 1.265 . S
C117 O112 1.258 . S
C117 O118 1.251 . S
O118 C117 1.251 . S
O119 Tb101 2.441 . S
O119 C114 1.244 . S
O120 Tb121 2.506 . S
O120 C134 1.265 . S
Tb121 O120 2.506 . S
Tb121 O126 2.312 . S
Tb121 O130 2.271 . S
Tb121 O132 2.338 . S
Tb121 O139 2.441 . S
C122 O130 1.252 . S
C122 O131 1.253 . S
O123 Tb124 2.271 . S
O123 C133 1.252 . S
Tb124 O123 2.271 . S
Tb124 O127 2.338 . S
Tb124 O131 2.312 . S
Tb124 O135 2.441 . S
Tb124 O136 2.506 . S
C125 O135 1.244 . S
C125 O136 1.265 . S
O126 Tb121 2.312 . S
O126 C133 1.253 . S
O127 Tb124 2.338 . S
O127 C128 1.258 . S
C128 O127 1.258 . S
C128 O129 1.251 . S
O129 C128 1.251 . S
O130 Tb121 2.271 . S
O130 C122 1.252 . S
O131 C122 1.253 . S
O131 Tb124 2.312 . S
O132 Tb121 2.338 . S
O132 C137 1.258 . S
C133 O123 1.252 . S
C133 O126 1.253 . S
C134 O120 1.265 . S
C134 O139 1.244 . S
O135 Tb124 2.441 . S
O135 C125 1.244 . S
O136 Tb124 2.506 . S
O136 C125 1.265 . S
C137 O132 1.258 . S
C137 O138 1.251 . S
O138 C137 1.251 . S
O139 Tb121 2.441 . S
O139 C134 1.244 . S
O140 Tb141 2.506 1_655 S
O140 C154 1.265 . S
Tb141 O140 2.506 1_455 S
Tb141 O146 2.312 . S
Tb141 O150 2.271 . S
Tb141 O152 2.338 1_455 S
Tb141 O159 2.441 . S
C142 O150 1.252 . S
C142 O151 1.253 . S
O143 Tb144 2.271 . S
O143 C153 1.252 . S
Tb144 O143 2.271 . S
Tb144 O147 2.338 1_556 S
Tb144 O151 2.312 . S
Tb144 O155 2.441 . S
Tb144 O156 2.506 . S
C145 O155 1.244 . S
C145 O156 1.265 . S
O146 Tb141 2.312 . S
O146 C153 1.253 . S
O147 Tb144 2.338 1_554 S
O147 C148 1.258 . S
C148 O147 1.258 . S
C148 O149 1.251 . S
O149 C148 1.251 . S
O150 Tb141 2.271 . S
O150 C142 1.252 . S
O151 C142 1.253 . S
O151 Tb144 2.312 . S
O152 Tb141 2.338 1_655 S
O152 C157 1.258 1_655 S
C153 O143 1.252 . S
C153 O146 1.253 . S
C154 O140 1.265 . S
C154 O159 1.244 1_655 S
O155 Tb144 2.441 . S
O155 C145 1.244 . S
O156 Tb144 2.506 . S
O156 C145 1.265 . S
C157 O152 1.258 1_455 S
C157 O158 1.251 . S
O158 C157 1.251 . S
O159 Tb141 2.441 . S
O159 C154 1.244 1_455 S
O160 Tb161 2.506 . S
O160 C174 1.265 . S
Tb161 O160 2.506 . S
Tb161 O166 2.312 . S
Tb161 O170 2.271 . S
Tb161 O172 2.338 . S
Tb161 O179 2.441 . S
C162 O170 1.252 . S
C162 O171 1.253 . S
O163 Tb164 2.271 . S
O163 C173 1.252 . S
Tb164 O163 2.271 . S
Tb164 O167 2.338 . S
Tb164 O171 2.312 . S
Tb164 O175 2.441 . S
Tb164 O176 2.506 . S
C165 O175 1.244 . S
C165 O176 1.265 . S
O166 Tb161 2.312 . S
O166 C173 1.253 . S
O167 Tb164 2.338 . S
O167 C168 1.258 . S
C168 O167 1.258 . S
C168 O169 1.251 . S
O169 C168 1.251 . S
O170 Tb161 2.271 . S
O170 C162 1.252 . S
O171 C162 1.253 . S
O171 Tb164 2.312 . S
O172 Tb161 2.338 . S
O172 C177 1.258 . S
C173 O163 1.252 . S
C173 O166 1.253 . S
C174 O160 1.265 . S
C174 O179 1.244 . S
O175 Tb164 2.441 . S
O175 C165 1.244 . S
O176 Tb164 2.506 . S
O176 C165 1.265 . S
C177 O172 1.258 . S
C177 O178 1.251 . S
O178 C177 1.251 . S
O179 Tb161 2.441 . S
O179 C174 1.244 . S
O180 Tb181 2.506 . S
O180 C194 1.265 . S
Tb181 O180 2.506 . S
Tb181 O186 2.312 . S
Tb181 O190 2.271 . S
Tb181 O192 2.338 . S
Tb181 O199 2.441 . S
C182 O190 1.252 . S
C182 O191 1.253 . S
O183 Tb184 2.271 . S
O183 C193 1.252 . S
Tb184 O183 2.271 . S
Tb184 O187 2.338 1_655 S
Tb184 O191 2.312 . S
Tb184 O195 2.441 . S
Tb184 O196 2.506 1_655 S
C185 O195 1.244 1_455 S
C185 O196 1.265 . S
O186 Tb181 2.312 . S
O186 C193 1.253 . S
O187 Tb184 2.338 1_455 S
O187 C188 1.258 1_455 S
C188 O187 1.258 1_655 S
C188 O189 1.251 . S
O189 C188 1.251 . S
O190 Tb181 2.271 . S
O190 C182 1.252 . S
O191 C182 1.253 . S
O191 Tb184 2.312 . S
O192 Tb181 2.338 . S
O192 C197 1.258 . S
C193 O183 1.252 . S
C193 O186 1.253 . S
C194 O180 1.265 . S
C194 O199 1.244 . S
O195 Tb184 2.441 . S
O195 C185 1.244 1_655 S
O196 Tb184 2.506 1_455 S
O196 C185 1.265 . S
C197 O192 1.258 . S
C197 O198 1.251 . S
O198 C197 1.251 . S
O199 Tb181 2.441 . S
O199 C194 1.244 . S
O200 Tb201 2.506 . S
O200 C214 1.265 . S
Tb201 O200 2.506 . S
Tb201 O206 2.312 . S
Tb201 O210 2.271 . S
Tb201 O212 2.338 . S
Tb201 O219 2.441 . S
C202 O210 1.252 . S
C202 O211 1.253 . S
O203 Tb204 2.271 . S
O203 C213 1.252 . S
Tb204 O203 2.271 . S
Tb204 O207 2.338 . S
Tb204 O211 2.312 . S
Tb204 O215 2.441 . S
Tb204 O216 2.506 . S
C205 O215 1.244 . S
C205 O216 1.265 . S
O206 Tb201 2.312 . S
O206 C213 1.253 . S
O207 Tb204 2.338 . S
O207 C208 1.258 . S
C208 O207 1.258 . S
C208 O209 1.251 . S
O209 C208 1.251 . S
O210 Tb201 2.271 . S
O210 C202 1.252 . S
O211 C202 1.253 . S
O211 Tb204 2.312 . S
O212 Tb201 2.338 . S
O212 C217 1.258 . S
C213 O203 1.252 . S
C213 O206 1.253 . S
C214 O200 1.265 . S
C214 O219 1.244 . S
O215 Tb204 2.441 . S
O215 C205 1.244 . S
O216 Tb204 2.506 . S
O216 C205 1.265 . S
C217 O212 1.258 . S
C217 O218 1.251 . S
O218 C217 1.251 . S
O219 Tb201 2.441 . S
O219 C214 1.244 . S
O220 Tb221 2.506 . S
O220 C234 1.265 . S
Tb221 O220 2.506 . S
Tb221 O226 2.312 . S
Tb221 O230 2.271 . S
Tb221 O232 2.338 1_556 S
Tb221 O239 2.441 . S
C222 O230 1.252 . S
C222 O231 1.253 . S
O223 Tb224 2.271 . S
O223 C233 1.252 . S
Tb224 O223 2.271 . S
Tb224 O227 2.338 . S
Tb224 O231 2.312 . S
Tb224 O235 2.441 . S
Tb224 O236 2.506 . S
C225 O235 1.244 . S
C225 O236 1.265 . S
O226 Tb221 2.312 . S
O226 C233 1.253 . S
O227 Tb224 2.338 . S
O227 C228 1.258 . S
C228 O227 1.258 . S
C228 O229 1.251 . S
O229 C228 1.251 . S
O230 Tb221 2.271 . S
O230 C222 1.252 . S
O231 C222 1.253 . S
O231 Tb224 2.312 . S
O232 Tb221 2.338 1_554 S
O232 C237 1.258 . S
C233 O223 1.252 . S
C233 O226 1.253 . S
C234 O220 1.265 . S
C234 O239 1.244 . S
O235 Tb224 2.441 . S
O235 C225 1.244 . S
O236 Tb224 2.506 . S
O236 C225 1.265 . S
C237 O232 1.258 . S
C237 O238 1.251 . S
O238 C237 1.251 . S
O239 Tb221 2.441 . S
O239 C234 1.244 . S
O240 Tb241 2.506 . S
O240 C254 1.265 . S
Tb241 O240 2.506 . S
Tb241 O246 2.312 . S
Tb241 O250 2.271 . S
Tb241 O252 2.338 . S
Tb241 O259 2.441 . S
C242 O250 1.252 . S
C242 O251 1.253 . S
O243 Tb244 2.271 . S
O243 C253 1.252 . S
Tb244 O243 2.271 . S
Tb244 O247 2.338 . S
Tb244 O251 2.312 . S
Tb244 O255 2.441 . S
Tb244 O256 2.506 . S
C245 O255 1.244 . S
C245 O256 1.265 . S
O246 Tb241 2.312 . S
O246 C253 1.253 . S
O247 Tb244 2.338 . S
O247 C248 1.258 . S
C248 O247 1.258 . S
C248 O249 1.251 . S
O249 C248 1.251 . S
O250 Tb241 2.271 . S
O250 C242 1.252 . S
O251 C242 1.253 . S
O251 Tb244 2.312 . S
O252 Tb241 2.338 . S
O252 C257 1.258 . S
C253 O243 1.252 . S
C253 O246 1.253 . S
C254 O240 1.265 . S
C254 O259 1.244 . S
O255 Tb244 2.441 . S
O255 C245 1.244 . S
O256 Tb244 2.506 . S
O256 C245 1.265 . S
C257 O252 1.258 . S
C257 O258 1.251 . S
O258 C257 1.251 . S
O259 Tb241 2.441 . S
O259 C254 1.244 . S
O260 Tb261 2.506 . S
O260 C274 1.265 . S
Tb261 O260 2.506 . S
Tb261 O266 2.312 . S
Tb261 O270 2.271 . S
Tb261 O272 2.338 . S
Tb261 O279 2.441 . S
C262 O270 1.252 . S
C262 O271 1.253 . S
O263 Tb264 2.271 . S
O263 C273 1.252 . S
Tb264 O263 2.271 . S
Tb264 O267 2.338 . S
Tb264 O271 2.312 . S
Tb264 O275 2.441 . S
Tb264 O276 2.506 . S
C265 O275 1.244 . S
C265 O276 1.265 . S
O266 Tb261 2.312 . S
O266 C273 1.253 . S
O267 Tb264 2.338 . S
O267 C268 1.258 . S
C268 O267 1.258 . S
C268 O269 1.251 . S
O269 C268 1.251 . S
O270 Tb261 2.271 . S
O270 C262 1.252 . S
O271 C262 1.253 . S
O271 Tb264 2.312 . S
O272 Tb261 2.338 . S
O272 C277 1.258 . S
C273 O263 1.252 . S
C273 O266 1.253 . S
C274 O260 1.265 . S
C274 O279 1.244 . S
O275 Tb264 2.441 . S
O275 C265 1.244 . S
O276 Tb264 2.506 . S
O276 C265 1.265 . S
C277 O272 1.258 . S
C277 O278 1.251 . S
O278 C277 1.251 . S
O279 Tb261 2.441 . S
O279 C274 1.244 . S
O280 Tb281 2.506 . S
O280 C294 1.265 . S
Tb281 O280 2.506 . S
Tb281 O286 2.312 . S
Tb281 O290 2.271 . S
Tb281 O292 2.338 . S
Tb281 O299 2.441 . S
C282 O290 1.252 . S
C282 O291 1.253 . S
O283 Tb284 2.271 . S
O283 C293 1.252 . S
Tb284 O283 2.271 . S
Tb284 O287 2.338 . S
Tb284 O291 2.312 . S
Tb284 O295 2.441 . S
Tb284 O296 2.506 . S
C285 O295 1.244 . S
C285 O296 1.265 . S
O286 Tb281 2.312 . S
O286 C293 1.253 . S
O287 Tb284 2.338 . S
O287 C288 1.258 . S
C288 O287 1.258 . S
C288 O289 1.251 . S
O289 C288 1.251 . S
O290 Tb281 2.271 . S
O290 C282 1.252 . S
O291 C282 1.253 . S
O291 Tb284 2.312 . S
O292 Tb281 2.338 . S
O292 C297 1.258 . S
C293 O283 1.252 . S
C293 O286 1.253 . S
C294 O280 1.265 . S
C294 O299 1.244 . S
O295 Tb284 2.441 . S
O295 C285 1.244 . S
O296 Tb284 2.506 . S
O296 C285 1.265 . S
C297 O292 1.258 . S
C297 O298 1.251 . S
O298 C297 1.251 . S
O299 Tb281 2.441 . S
O299 C294 1.244 . S
O300 Tb301 2.506 . S
O300 C314 1.265 . S
Tb301 O300 2.506 . S
Tb301 O306 2.312 . S
Tb301 O310 2.271 . S
Tb301 O312 2.338 1_554 S
Tb301 O319 2.441 . S
C302 O310 1.252 . S
C302 O311 1.253 . S
O303 Tb304 2.271 . S
O303 C313 1.252 . S
Tb304 O303 2.271 . S
Tb304 O307 2.338 1_655 S
Tb304 O311 2.312 . S
Tb304 O315 2.441 . S
Tb304 O316 2.506 1_655 S
C305 O315 1.244 1_455 S
C305 O316 1.265 . S
O306 Tb301 2.312 . S
O306 C313 1.253 . S
O307 Tb304 2.338 1_455 S
O307 C308 1.258 1_455 S
C308 O307 1.258 1_655 S
C308 O309 1.251 . S
O309 C308 1.251 . S
O310 Tb301 2.271 . S
O310 C302 1.252 . S
O311 C302 1.253 . S
O311 Tb304 2.312 . S
O312 Tb301 2.338 1_556 S
O312 C317 1.258 . S
C313 O303 1.252 . S
C313 O306 1.253 . S
C314 O300 1.265 . S
C314 O319 1.244 . S
O315 Tb304 2.441 . S
O315 C305 1.244 1_655 S
O316 Tb304 2.506 1_455 S
O316 C305 1.265 . S
C317 O312 1.258 . S
C317 O318 1.251 . S
O318 C317 1.251 . S
O319 Tb301 2.441 . S
O319 C314 1.244 . S
O320 Tb321 2.506 . S
O320 C334 1.265 . S
Tb321 O320 2.506 . S
Tb321 O326 2.312 . S
Tb321 O330 2.271 . S
Tb321 O332 2.338 . S
Tb321 O339 2.441 . S
C322 O330 1.252 . S
C322 O331 1.253 . S
O323 Tb324 2.271 . S
O323 C333 1.252 . S
Tb324 O323 2.271 . S
Tb324 O327 2.338 . S
Tb324 O331 2.312 . S
Tb324 O335 2.441 . S
Tb324 O336 2.506 . S
C325 O335 1.244 . S
C325 O336 1.265 . S
O326 Tb321 2.312 . S
O326 C333 1.253 . S
O327 Tb324 2.338 . S
O327 C328 1.258 . S
C328 O327 1.258 . S
C328 O329 1.251 . S
O329 C328 1.251 . S
O330 Tb321 2.271 . S
O330 C322 1.252 . S
O331 C322 1.253 . S
O331 Tb324 2.312 . S
O332 Tb321 2.338 . S
O332 C337 1.258 . S
C333 O323 1.252 . S
C333 O326 1.253 . S
C334 O320 1.265 . S
C334 O339 1.244 . S
O335 Tb324 2.441 . S
O335 C325 1.244 . S
O336 Tb324 2.506 . S
O336 C325 1.265 . S
C337 O332 1.258 . S
C337 O338 1.251 . S
O338 C337 1.251 . S
O339 Tb321 2.441 . S
O339 C334 1.244 . S
O340 Tb341 2.506 . S
O340 C354 1.265 . S
Tb341 O340 2.506 . S
Tb341 O346 2.312 . S
Tb341 O350 2.271 . S
Tb341 O352 2.338 1_554 S
Tb341 O359 2.441 . S
C342 O350 1.252 . S
C342 O351 1.253 . S
O343 Tb344 2.271 . S
O343 C353 1.252 . S
Tb344 O343 2.271 . S
Tb344 O347 2.338 . S
Tb344 O351 2.312 . S
Tb344 O355 2.441 . S
Tb344 O356 2.506 . S
C345 O355 1.244 . S
C345 O356 1.265 . S
O346 Tb341 2.312 . S
O346 C353 1.253 . S
O347 Tb344 2.338 . S
O347 C348 1.258 . S
C348 O347 1.258 . S
C348 O349 1.251 . S
O349 C348 1.251 . S
O350 Tb341 2.271 . S
O350 C342 1.252 . S
O351 C342 1.253 . S
O351 Tb344 2.312 . S
O352 Tb341 2.338 1_556 S
O352 C357 1.258 . S
C353 O343 1.252 . S
C353 O346 1.253 . S
C354 O340 1.265 . S
C354 O359 1.244 . S
O355 Tb344 2.441 . S
O355 C345 1.244 . S
O356 Tb344 2.506 . S
O356 C345 1.265 . S
C357 O352 1.258 . S
C357 O358 1.251 . S
O358 C357 1.251 . S
O359 Tb341 2.441 . S
O359 C354 1.244 . S
O360 Tb361 2.506 . S
O360 C374 1.265 . S
Tb361 O360 2.506 . S
Tb361 O366 2.312 . S
Tb361 O370 2.271 . S
Tb361 O372 2.338 . S
Tb361 O379 2.441 . S
C362 O370 1.252 . S
C362 O371 1.253 . S
O363 Tb364 2.271 . S
O363 C373 1.252 . S
Tb364 O363 2.271 . S
Tb364 O367 2.338 . S
Tb364 O371 2.312 . S
Tb364 O375 2.441 . S
Tb364 O376 2.506 . S
C365 O375 1.244 . S
C365 O376 1.265 . S
O366 Tb361 2.312 . S
O366 C373 1.253 . S
O367 Tb364 2.338 . S
O367 C368 1.258 . S
C368 O367 1.258 . S
C368 O369 1.251 . S
O369 C368 1.251 . S
O370 Tb361 2.271 . S
O370 C362 1.252 . S
O371 C362 1.253 . S
O371 Tb364 2.312 . S
O372 Tb361 2.338 . S
O372 C377 1.258 . S
C373 O363 1.252 . S
C373 O366 1.253 . S
C374 O360 1.265 . S
C374 O379 1.244 . S
O375 Tb364 2.441 . S
O375 C365 1.244 . S
O376 Tb364 2.506 . S
O376 C365 1.265 . S
C377 O372 1.258 . S
C377 O378 1.251 . S
O378 C377 1.251 . S
O379 Tb361 2.441 . S
O379 C374 1.244 . S
O380 Tb381 2.506 . S
O380 C394 1.265 . S
Tb381 O380 2.506 . S
Tb381 O386 2.312 . S
Tb381 O390 2.271 . S
Tb381 O392 2.338 . S
Tb381 O399 2.441 . S
C382 O390 1.252 . S
C382 O391 1.253 . S
O383 Tb384 2.271 . S
O383 C393 1.252 . S
Tb384 O383 2.271 . S
Tb384 O387 2.338 1_655 S
Tb384 O391 2.312 . S
Tb384 O395 2.441 . S
Tb384 O396 2.506 1_655 S
C385 O395 1.244 1_455 S
C385 O396 1.265 . S
O386 Tb381 2.312 . S
O386 C393 1.253 . S
O387 Tb384 2.338 1_455 S
O387 C388 1.258 1_455 S
C388 O387 1.258 1_655 S
C388 O389 1.251 . S
O389 C388 1.251 . S
O390 Tb381 2.271 . S
O390 C382 1.252 . S
O391 C382 1.253 . S
O391 Tb384 2.312 . S
O392 Tb381 2.338 . S
O392 C397 1.258 . S
C393 O383 1.252 . S
C393 O386 1.253 . S
C394 O380 1.265 . S
C394 O399 1.244 . S
O395 Tb384 2.441 . S
O395 C385 1.244 1_655 S
O396 Tb384 2.506 1_455 S
O396 C385 1.265 . S
C397 O392 1.258 . S
C397 O398 1.251 . S
O398 C397 1.251 . S
O399 Tb381 2.441 . S
O399 C394 1.244 . S
O400 Tb401 2.506 . S
O400 C414 1.265 . S
Tb401 O400 2.506 . S
Tb401 O406 2.312 . S
Tb401 O410 2.271 . S
Tb401 O412 2.338 . S
Tb401 O419 2.441 . S
C402 O410 1.252 . S
C402 O411 1.253 . S
O403 Tb404 2.271 . S
O403 C413 1.252 . S
Tb404 O403 2.271 . S
Tb404 O407 2.338 . S
Tb404 O411 2.312 . S
Tb404 O415 2.441 . S
Tb404 O416 2.506 . S
C405 O415 1.244 . S
C405 O416 1.265 . S
O406 Tb401 2.312 . S
O406 C413 1.253 . S
O407 Tb404 2.338 . S
O407 C408 1.258 . S
C408 O407 1.258 . S
C408 O409 1.251 . S
O409 C408 1.251 . S
O410 Tb401 2.271 . S
O410 C402 1.252 . S
O411 C402 1.253 . S
O411 Tb404 2.312 . S
O412 Tb401 2.338 . S
O412 C417 1.258 . S
C413 O403 1.252 . S
C413 O406 1.253 . S
C414 O400 1.265 . S
C414 O419 1.244 . S
O415 Tb404 2.441 . S
O415 C405 1.244 . S
O416 Tb404 2.506 . S
O416 C405 1.265 . S
C417 O412 1.258 . S
C417 O418 1.251 . S
O418 C417 1.251 . S
O419 Tb401 2.441 . S
O419 C414 1.244 . S
O420 Tb421 2.506 . S
O420 C434 1.265 . S
Tb421 O420 2.506 . S
Tb421 O426 2.312 . S
Tb421 O430 2.271 . S
Tb421 O432 2.338 1_556 S
Tb421 O439 2.441 . S
C422 O430 1.252 . S
C422 O431 1.253 . S
O423 Tb424 2.271 . S
O423 C433 1.252 . S
Tb424 O423 2.271 . S
Tb424 O427 2.338 1_655 S
Tb424 O431 2.312 . S
Tb424 O435 2.441 . S
Tb424 O436 2.506 1_655 S
C425 O435 1.244 1_455 S
C425 O436 1.265 . S
O426 Tb421 2.312 . S
O426 C433 1.253 . S
O427 Tb424 2.338 1_455 S
O427 C428 1.258 1_455 S
C428 O427 1.258 1_655 S
C428 O429 1.251 . S
O429 C428 1.251 . S
O430 Tb421 2.271 . S
O430 C422 1.252 . S
O431 C422 1.253 . S
O431 Tb424 2.312 . S
O432 Tb421 2.338 1_554 S
O432 C437 1.258 . S
C433 O423 1.252 . S
C433 O426 1.253 . S
C434 O420 1.265 . S
C434 O439 1.244 . S
O435 Tb424 2.441 . S
O435 C425 1.244 1_655 S
O436 Tb424 2.506 1_455 S
O436 C425 1.265 . S
C437 O432 1.258 . S
C437 O438 1.251 . S
O438 C437 1.251 . S
O439 Tb421 2.441 . S
O439 C434 1.244 . S
O440 Tb441 2.506 . S
O440 C454 1.265 . S
Tb441 O440 2.506 . S
Tb441 O446 2.312 . S
Tb441 O450 2.271 . S
Tb441 O452 2.338 . S
Tb441 O459 2.441 . S
C442 O450 1.252 . S
C442 O451 1.253 . S
O443 Tb444 2.271 . S
O443 C453 1.252 . S
Tb444 O443 2.271 . S
Tb444 O447 2.338 . S
Tb444 O451 2.312 . S
Tb444 O455 2.441 . S
Tb444 O456 2.506 . S
C445 O455 1.244 . S
C445 O456 1.265 . S
O446 Tb441 2.312 . S
O446 C453 1.253 . S
O447 Tb444 2.338 . S
O447 C448 1.258 . S
C448 O447 1.258 . S
C448 O449 1.251 . S
O449 C448 1.251 . S
O450 Tb441 2.271 . S
O450 C442 1.252 . S
O451 C442 1.253 . S
O451 Tb444 2.312 . S
O452 Tb441 2.338 . S
O452 C457 1.258 . S
C453 O443 1.252 . S
C453 O446 1.253 . S
C454 O440 1.265 . S
C454 O459 1.244 . S
O455 Tb444 2.441 . S
O455 C445 1.244 . S
O456 Tb444 2.506 . S
O456 C445 1.265 . S
C457 O452 1.258 . S
C457 O458 1.251 . S
O458 C457 1.251 . S
O459 Tb441 2.441 . S
O459 C454 1.244 . S
O460 Tb461 2.506 . S
O460 C474 1.265 . S
Tb461 O460 2.506 . S
Tb461 O466 2.312 . S
Tb461 O470 2.271 . S
Tb461 O472 2.338 . S
Tb461 O479 2.441 . S
C462 O470 1.252 . S
C462 O471 1.253 . S
O463 Tb464 2.271 . S
O463 C473 1.252 . S
Tb464 O463 2.271 . S
Tb464 O467 2.338 . S
Tb464 O471 2.312 . S
Tb464 O475 2.441 . S
Tb464 O476 2.506 . S
C465 O475 1.244 . S
C465 O476 1.265 . S
O466 Tb461 2.312 . S
O466 C473 1.253 . S
O467 Tb464 2.338 . S
O467 C468 1.258 . S
C468 O467 1.258 . S
C468 O469 1.251 . S
O469 C468 1.251 . S
O470 Tb461 2.271 . S
O470 C462 1.252 . S
O471 C462 1.253 . S
O471 Tb464 2.312 . S
O472 Tb461 2.338 . S
O472 C477 1.258 . S
C473 O463 1.252 . S
C473 O466 1.253 . S
C474 O460 1.265 . S
C474 O479 1.244 . S
O475 Tb464 2.441 . S
O475 C465 1.244 . S
O476 Tb464 2.506 . S
O476 C465 1.265 . S
C477 O472 1.258 . S
C477 O478 1.251 . S
O478 C477 1.251 . S
O479 Tb461 2.441 . S
O479 C474 1.244 . S
O480 Tb481 2.506 . S
O480 C494 1.265 . S
Tb481 O480 2.506 . S
Tb481 O486 2.312 . S
Tb481 O490 2.271 . S
Tb481 O492 2.338 . S
Tb481 O499 2.441 . S
C482 O490 1.252 . S
C482 O491 1.253 . S
O483 Tb484 2.271 . S
O483 C493 1.252 . S
Tb484 O483 2.271 . S
Tb484 O487 2.338 . S
Tb484 O491 2.312 . S
Tb484 O495 2.441 . S
Tb484 O496 2.506 . S
C485 O495 1.244 . S
C485 O496 1.265 . S
O486 Tb481 2.312 . S
O486 C493 1.253 . S
O487 Tb484 2.338 . S
O487 C488 1.258 . S
C488 O487 1.258 . S
C488 O489 1.251 . S
O489 C488 1.251 . S
O490 Tb481 2.271 . S
O490 C482 1.252 . S
O491 C482 1.253 . S
O491 Tb484 2.312 . S
O492 Tb481 2.338 . S
O492 C497 1.258 . S
C493 O483 1.252 . S
C493 O486 1.253 . S
C494 O480 1.265 . S
C494 O499 1.244 . S
O495 Tb484 2.441 . S
O495 C485 1.244 . S
O496 Tb484 2.506 . S
O496 C485 1.265 . S
C497 O492 1.258 . S
C497 O498 1.251 . S
O498 C497 1.251 . S
O499 Tb481 2.441 . S
O499 C494 1.244 . S
O500 Tb501 2.506 . S
O500 C514 1.265 . S
Tb501 O500 2.506 . S
Tb501 O506 2.312 . S
Tb501 O510 2.271 . S
Tb501 O512 2.338 1_556 S
Tb501 O519 2.441 . S
C502 O510 1.252 . S
C502 O511 1.253 . S
O503 Tb504 2.271 . S
O503 C513 1.252 . S
Tb504 O503 2.271 . S
Tb504 O507 2.338 . S
Tb504 O511 2.312 . S
Tb504 O515 2.441 . S
Tb504 O516 2.506 . S
C505 O515 1.244 . S
C505 O516 1.265 . S
O506 Tb501 2.312 . S
O506 C513 1.253 . S
O507 Tb504 2.338 . S
O507 C508 1.258 . S
C508 O507 1.258 . S
C508 O509 1.251 . S
O509 C508 1.251 . S
O510 Tb501 2.271 . S
O510 C502 1.252 . S
O511 C502 1.253 . S
O511 Tb504 2.312 . S
O512 Tb501 2.338 1_554 S
O512 C517 1.258 . S
C513 O503 1.252 . S
C513 O506 1.253 . S
C514 O500 1.265 . S
C514 O519 1.244 . S
O515 Tb504 2.441 . S
O515 C505 1.244 . S
O516 Tb504 2.506 . S
O516 C505 1.265 . S
C517 O512 1.258 . S
C517 O518 1.251 . S
O518 C517 1.251 . S
O519 Tb501 2.441 . S
O519 C514 1.244 . S
O520 Tb521 2.506 . S
O520 C534 1.265 . S
Tb521 O520 2.506 . S
Tb521 O526 2.312 . S
Tb521 O530 2.271 . S
Tb521 O532 2.338 . S
Tb521 O539 2.441 . S
C522 O530 1.252 . S
C522 O531 1.253 . S
O523 Tb524 2.271 . S
O523 C533 1.252 . S
Tb524 O523 2.271 . S
Tb524 O527 2.338 . S
Tb524 O531 2.312 . S
Tb524 O535 2.441 . S
Tb524 O536 2.506 . S
C525 O535 1.244 . S
C525 O536 1.265 . S
O526 Tb521 2.312 . S
O526 C533 1.253 . S
O527 Tb524 2.338 . S
O527 C528 1.258 . S
C528 O527 1.258 . S
C528 O529 1.251 . S
O529 C528 1.251 . S
O530 Tb521 2.271 . S
O530 C522 1.252 . S
O531 C522 1.253 . S
O531 Tb524 2.312 . S
O532 Tb521 2.338 . S
O532 C537 1.258 . S
C533 O523 1.252 . S
C533 O526 1.253 . S
C534 O520 1.265 . S
C534 O539 1.244 . S
O535 Tb524 2.441 . S
O535 C525 1.244 . S
O536 Tb524 2.506 . S
O536 C525 1.265 . S
C537 O532 1.258 . S
C537 O538 1.251 . S
O538 C537 1.251 . S
O539 Tb521 2.441 . S
O539 C534 1.244 . S
O540 Tb541 2.506 . S
O540 C554 1.265 . S
Tb541 O540 2.506 . S
Tb541 O546 2.312 . S
Tb541 O550 2.271 . S
Tb541 O552 2.338 . S
Tb541 O559 2.441 . S
C542 O550 1.252 . S
C542 O551 1.253 . S
O543 Tb544 2.271 . S
O543 C553 1.252 . S
Tb544 O543 2.271 . S
Tb544 O547 2.338 1_455 S
Tb544 O551 2.312 . S
Tb544 O555 2.441 . S
Tb544 O556 2.506 1_455 S
C545 O555 1.244 1_655 S
C545 O556 1.265 . S
O546 Tb541 2.312 . S
O546 C553 1.253 . S
O547 Tb544 2.338 1_655 S
O547 C548 1.258 1_655 S
C548 O547 1.258 1_455 S
C548 O549 1.251 . S
O549 C548 1.251 . S
O550 Tb541 2.271 . S
O550 C542 1.252 . S
O551 C542 1.253 . S
O551 Tb544 2.312 . S
O552 Tb541 2.338 . S
O552 C557 1.258 . S
C553 O543 1.252 . S
C553 O546 1.253 . S
C554 O540 1.265 . S
C554 O559 1.244 . S
O555 Tb544 2.441 . S
O555 C545 1.244 1_455 S
O556 Tb544 2.506 1_655 S
O556 C545 1.265 . S
C557 O552 1.258 . S
C557 O558 1.251 . S
O558 C557 1.251 . S
O559 Tb541 2.441 . S
O559 C554 1.244 . S
O560 Tb561 2.506 . S
O560 C574 1.265 . S
Tb561 O560 2.506 . S
Tb561 O566 2.312 . S
Tb561 O570 2.271 . S
Tb561 O572 2.338 . S
Tb561 O579 2.441 . S
C562 O570 1.252 . S
C562 O571 1.253 . S
O563 Tb564 2.271 . S
O563 C573 1.252 . S
Tb564 O563 2.271 . S
Tb564 O567 2.338 . S
Tb564 O571 2.312 . S
Tb564 O575 2.441 . S
Tb564 O576 2.506 . S
C565 O575 1.244 . S
C565 O576 1.265 . S
O566 Tb561 2.312 . S
O566 C573 1.253 . S
O567 Tb564 2.338 . S
O567 C568 1.258 . S
C568 O567 1.258 . S
C568 O569 1.251 . S
O569 C568 1.251 . S
O570 Tb561 2.271 . S
O570 C562 1.252 . S
O571 C562 1.253 . S
O571 Tb564 2.312 . S
O572 Tb561 2.338 . S
O572 C577 1.258 . S
C573 O563 1.252 . S
C573 O566 1.253 . S
C574 O560 1.265 . S
C574 O579 1.244 . S
O575 Tb564 2.441 . S
O575 C565 1.244 . S
O576 Tb564 2.506 . S
O576 C565 1.265 . S
C577 O572 1.258 . S
C577 O578 1.251 . S
O578 C577 1.251 . S
O579 Tb561 2.441 . S
O579 C574 1.244 . S
O580 Tb581 2.506 . S
O580 C594 1.265 . S
Tb581 O580 2.506 . S
Tb581 O586 2.312 . S
Tb581 O590 2.271 . S
Tb581 O592 2.338 1_554 S
Tb581 O599 2.441 . S
C582 O590 1.252 . S
C582 O591 1.253 . S
O583 Tb584 2.271 . S
O583 C593 1.252 . S
Tb584 O583 2.271 . S
Tb584 O587 2.338 1_455 S
Tb584 O591 2.312 . S
Tb584 O595 2.441 . S
Tb584 O596 2.506 1_455 S
C585 O595 1.244 1_655 S
C585 O596 1.265 . S
O586 Tb581 2.312 . S
O586 C593 1.253 . S
O587 Tb584 2.338 1_655 S
O587 C588 1.258 1_655 S
C588 O587 1.258 1_455 S
C588 O589 1.251 . S
O589 C588 1.251 . S
O590 Tb581 2.271 . S
O590 C582 1.252 . S
O591 C582 1.253 . S
O591 Tb584 2.312 . S
O592 Tb581 2.338 1_556 S
O592 C597 1.258 . S
C593 O583 1.252 . S
C593 O586 1.253 . S
C594 O580 1.265 . S
C594 O599 1.244 . S
O595 Tb584 2.441 . S
O595 C585 1.244 1_455 S
O596 Tb584 2.506 1_655 S
O596 C585 1.265 . S
C597 O592 1.258 . S
C597 O598 1.251 . S
O598 C597 1.251 . S
O599 Tb581 2.441 . S
O599 C594 1.244 . S
O600 Tb601 2.506 . S
O600 C614 1.265 . S
Tb601 O600 2.506 . S
Tb601 O606 2.312 . S
Tb601 O610 2.271 . S
Tb601 O612 2.338 . S
Tb601 O619 2.441 . S
C602 O610 1.252 . S
C602 O611 1.253 . S
O603 Tb604 2.271 . S
O603 C613 1.252 . S
Tb604 O603 2.271 . S
Tb604 O607 2.338 . S
Tb604 O611 2.312 . S
Tb604 O615 2.441 . S
Tb604 O616 2.506 . S
C605 O615 1.244 . S
C605 O616 1.265 . S
O606 Tb601 2.312 . S
O606 C613 1.253 . S
O607 Tb604 2.338 . S
O607 C608 1.258 . S
C608 O607 1.258 . S
C608 O609 1.251 . S
O609 C608 1.251 . S
O610 Tb601 2.271 . S
O610 C602 1.252 . S
O611 C602 1.253 . S
O611 Tb604 2.312 . S
O612 Tb601 2.338 . S
O612 C617 1.258 . S
C613 O603 1.252 . S
C613 O606 1.253 . S
C614 O600 1.265 . S
C614 O619 1.244 . S
O615 Tb604 2.441 . S
O615 C605 1.244 . S
O616 Tb604 2.506 . S
O616 C605 1.265 . S
C617 O612 1.258 . S
C617 O618 1.251 . S
O618 C617 1.251 . S
O619 Tb601 2.441 . S
O619 C614 1.244 . S
O620 Tb621 2.506 . S
O620 C634 1.265 . S
Tb621 O620 2.506 . S
Tb621 O626 2.312 . S
Tb621 O630 2.271 . S
Tb621 O632 2.338 . S
Tb621 O639 2.441 . S
C622 O630 1.252 . S
C622 O631 1.253 . S
O623 Tb624 2.271 . S
O623 C633 1.252 . S
Tb624 O623 2.271 . S
Tb624 O627 2.338 . S
Tb624 O631 2.312 . S
Tb624 O635 2.441 . S
Tb624 O636 2.506 . S
C625 O635 1.244 . S
C625 O636 1.265 . S
O626 Tb621 2.312 . S
O626 C633 1.253 . S
O627 Tb624 2.338 . S
O627 C628 1.258 . S
C628 O627 1.258 . S
C628 O629 1.251 . S
O629 C628 1.251 . S
O630 Tb621 2.271 . S
O630 C622 1.252 . S
O631 C622 1.253 . S
O631 Tb624 2.312 . S
O632 Tb621 2.338 . S
O632 C637 1.258 . S
C633 O623 1.252 . S
C633 O626 1.253 . S
C634 O620 1.265 . S
C634 O639 1.244 . S
O635 Tb624 2.441 . S
O635 C625 1.244 . S
O636 Tb624 2.506 . S
O636 C625 1.265 . S
C637 O632 1.258 . S
C637 O638 1.251 . S
O638 C637 1.251 . S
O639 Tb621 2.441 . S
O639 C634 1.244 . S
C640 C641 1.369 . S
C640 C642 1.419 1_545 S
C640 H644 0.930 . S
C641 C640 1.369 . S
C641 C650 1.429 . S
C642 C640 1.419 1_565 S
C642 C643 1.363 . S
C642 H645 0.929 . S
C643 C642 1.363 . S
C643 C649 1.428 . S
H644 C640 0.930 . S
H645 C642 0.929 . S
S646 N647 1.613 1_565 S
S646 N648 1.610 . S
N647 S646 1.613 1_545 S
N647 C650 1.350 . S
N648 S646 1.610 . S
N648 C649 1.351 . S
C649 C643 1.428 . S
C649 N648 1.351 . S
C649 C650 1.434 1_565 S
C650 C641 1.429 . S
C650 N647 1.350 . S
C650 C649 1.434 1_545 S
C651 C652 1.369 . S
C651 C653 1.419 . S
C651 H655 0.930 . S
C652 C651 1.369 . S
C652 C661 1.429 . S
C653 C651 1.419 . S
C653 C654 1.363 . S
C653 H656 0.929 . S
C654 C653 1.363 . S
C654 C660 1.428 . S
H655 C651 0.930 . S
H656 C653 0.929 . S
S657 N658 1.613 . S
S657 N659 1.610 . S
N658 S657 1.613 . S
N658 C661 1.350 . S
N659 S657 1.610 . S
N659 C660 1.351 . S
C660 C654 1.428 . S
C660 N659 1.351 . S
C660 C661 1.434 . S
C661 C652 1.429 . S
C661 N658 1.350 . S
C661 C660 1.434 . S
C662 C663 1.369 . S
C662 C664 1.419 1_545 S
C662 H666 0.930 . S
C663 C662 1.369 . S
C663 C672 1.429 . S
C664 C662 1.419 1_565 S
C664 C665 1.363 . S
C664 H667 0.929 . S
C665 C664 1.363 . S
C665 C671 1.428 . S
H666 C662 0.930 . S
H667 C664 0.929 . S
S668 N669 1.613 1_565 S
S668 N670 1.610 . S
N669 S668 1.613 1_545 S
N669 C672 1.350 . S
N670 S668 1.610 . S
N670 C671 1.351 . S
C671 C665 1.428 . S
C671 N670 1.351 . S
C671 C672 1.434 1_565 S
C672 C663 1.429 . S
C672 N669 1.350 . S
C672 C671 1.434 1_545 S
C673 C674 1.371 . S
C673 C675 1.419 . S
C673 H677 0.930 . S
C674 C673 1.371 . S
C674 C683 1.426 1_554 S
C675 C673 1.419 . S
C675 C676 1.363 1_554 S
C675 H678 0.929 . S
C676 C675 1.363 1_556 S
C676 C682 1.428 . S
H677 C673 0.930 . S
H678 C675 0.929 . S
S679 N680 1.613 . S
S679 N681 1.610 . S
N680 S679 1.613 . S
N680 C683 1.350 1_565 S
N681 S679 1.610 . S
N681 C682 1.351 1_565 S
C682 C676 1.428 . S
C682 N681 1.351 1_545 S
C682 C683 1.434 . S
C683 C674 1.426 1_556 S
C683 N680 1.350 1_545 S
C683 C682 1.434 . S
C684 C685 1.369 . S
C684 C686 1.419 1_565 S
C684 H688 0.930 . S
C685 C684 1.369 . S
C685 C694 1.429 . S
C686 C684 1.419 1_545 S
C686 C687 1.363 . S
C686 H689 0.929 . S
C687 C686 1.363 . S
C687 C693 1.428 . S
H688 C684 0.930 . S
H689 C686 0.929 . S
S690 N691 1.613 . S
S690 N692 1.610 1_565 S
N691 S690 1.613 . S
N691 C694 1.350 . S
N692 S690 1.610 1_545 S
N692 C693 1.351 . S
C693 C687 1.428 . S
C693 N692 1.351 . S
C693 C694 1.434 1_545 S
C694 C685 1.429 . S
C694 N691 1.350 . S
C694 C693 1.434 1_565 S
C695 C696 1.369 . S
C695 C697 1.419 . S
C695 H699 0.930 . S
C696 C695 1.369 . S
C696 C705 1.429 . S
C697 C695 1.419 . S
C697 C698 1.363 . S
C697 H700 0.929 . S
C698 C697 1.363 . S
C698 C704 1.428 . S
H699 C695 0.930 . S
H700 C697 0.929 . S
S701 N702 1.613 . S
S701 N703 1.610 . S
N702 S701 1.613 . S
N702 C705 1.350 . S
N703 S701 1.610 . S
N703 C704 1.351 . S
C704 C698 1.428 . S
C704 N703 1.351 . S
C704 C705 1.434 . S
C705 C696 1.429 . S
C705 N702 1.350 . S
C705 C704 1.434 . S
C706 C707 1.369 . S
C706 C708 1.419 1_545 S
C706 H710 0.930 . S
C707 C706 1.369 . S
C707 C716 1.429 . S
C708 C706 1.419 1_565 S
C708 C709 1.363 . S
C708 H711 0.929 . S
C709 C708 1.363 . S
C709 C715 1.428 . S
H710 C706 0.930 . S
H711 C708 0.929 . S
S712 N713 1.613 1_565 S
S712 N714 1.610 . S
N713 S712 1.613 1_545 S
N713 C716 1.350 . S
N714 S712 1.610 . S
N714 C715 1.351 . S
C715 C709 1.428 . S
C715 N714 1.351 . S
C715 C716 1.434 1_565 S
C716 C707 1.429 . S
C716 N713 1.350 . S
C716 C715 1.434 1_545 S
C717 C718 1.378 . S
C717 C719 1.419 . S
C717 H721 0.930 . S
C718 C717 1.378 . S
C718 C727 1.419 1_554 S
C719 C717 1.419 . S
C719 C720 1.363 1_554 S
C719 H722 0.929 . S
C720 C719 1.363 1_556 S
C720 C726 1.428 . S
H721 C717 0.930 . S
H722 C719 0.929 . S
S723 N724 1.613 . S
S723 N725 1.610 . S
N724 S723 1.613 . S
N724 C727 1.350 . S
N725 S723 1.610 . S
N725 C726 1.351 . S
C726 C720 1.428 . S
C726 N725 1.351 . S
C726 C727 1.434 . S
C727 C718 1.419 1_556 S
C727 N724 1.350 . S
C727 C726 1.434 . S
C728 C729 1.369 . S
C728 C730 1.419 . S
C728 H732 0.930 . S
C729 C728 1.369 . S
C729 C738 1.429 . S
C730 C728 1.419 . S
C730 C731 1.363 . S
C730 H733 0.929 . S
C731 C730 1.363 . S
C731 C737 1.428 . S
H732 C728 0.930 . S
H733 C730 0.929 . S
S734 N735 1.613 . S
S734 N736 1.610 . S
N735 S734 1.613 . S
N735 C738 1.350 . S
N736 S734 1.610 . S
N736 C737 1.351 . S
C737 C731 1.428 . S
C737 N736 1.351 . S
C737 C738 1.434 . S
C738 C729 1.429 . S
C738 N735 1.350 . S
C738 C737 1.434 . S
C739 C740 1.369 . S
C739 C741 1.419 . S
C739 H743 0.930 . S
C740 C739 1.369 . S
C740 C749 1.426 1_556 S
C741 C739 1.419 . S
C741 C742 1.360 1_556 S
C741 H744 0.929 . S
C742 C741 1.360 1_554 S
C742 C748 1.430 . S
H743 C739 0.930 . S
H744 C741 0.929 . S
S745 N746 1.615 . S
S745 N747 1.610 . S
N746 S745 1.615 . S
N746 C749 1.350 . S
N747 S745 1.610 . S
N747 C748 1.351 . S
C748 C742 1.430 . S
C748 N747 1.351 . S
C748 C749 1.436 . S
C749 C740 1.426 1_554 S
C749 N746 1.350 . S
C749 C748 1.436 . S
C750 C751 1.369 . S
C750 C752 1.419 . S
C750 H754 0.930 . S
C751 C750 1.369 . S
C751 C760 1.429 . S
C752 C750 1.419 . S
C752 C753 1.363 . S
C752 H755 0.929 . S
C753 C752 1.363 . S
C753 C759 1.428 . S
H754 C750 0.930 . S
H755 C752 0.929 . S
S756 N757 1.613 . S
S756 N758 1.610 . S
N757 S756 1.613 . S
N757 C760 1.350 . S
N758 S756 1.610 . S
N758 C759 1.351 . S
C759 C753 1.428 . S
C759 N758 1.351 . S
C759 C760 1.434 . S
C760 C751 1.429 . S
C760 N757 1.350 . S
C760 C759 1.434 . S
C761 C762 1.369 . S
C761 C763 1.419 . S
C761 H765 0.930 . S
C762 C761 1.369 . S
C762 C771 1.429 . S
C763 C761 1.419 . S
C763 C764 1.363 . S
C763 H766 0.929 . S
C764 C763 1.363 . S
C764 C770 1.428 . S
H765 C761 0.930 . S
H766 C763 0.929 . S
S767 N768 1.613 . S
S767 N769 1.610 . S
N768 S767 1.613 . S
N768 C771 1.350 . S
N769 S767 1.610 . S
N769 C770 1.351 . S
C770 C764 1.428 . S
C770 N769 1.351 . S
C770 C771 1.434 . S
C771 C762 1.429 . S
C771 N768 1.350 . S
C771 C770 1.434 . S
C772 C773 1.369 . S
C772 C774 1.419 . S
C772 H776 0.930 . S
C773 C772 1.369 . S
C773 C782 1.429 . S
C774 C772 1.419 . S
C774 C775 1.363 . S
C774 H777 0.929 . S
C775 C774 1.363 . S
C775 C781 1.428 . S
H776 C772 0.930 . S
H777 C774 0.929 . S
S778 N779 1.613 . S
S778 N780 1.610 . S
N779 S778 1.613 . S
N779 C782 1.350 . S
N780 S778 1.610 . S
N780 C781 1.351 . S
C781 C775 1.428 . S
C781 N780 1.351 . S
C781 C782 1.434 . S
C782 C773 1.429 . S
C782 N779 1.350 . S
C782 C781 1.434 . S
C783 C784 1.380 . S
C783 C785 1.419 . S
C783 H787 0.930 . S
C784 C783 1.380 . S
C784 C793 1.417 1_556 S
C785 C783 1.419 . S
C785 C786 1.363 1_556 S
C785 H788 0.929 . S
C786 C785 1.363 1_554 S
C786 C792 1.428 . S
H787 C783 0.930 . S
H788 C785 0.929 . S
S789 N790 1.613 . S
S789 N791 1.610 . S
N790 S789 1.613 . S
N790 C793 1.350 . S
N791 S789 1.610 . S
N791 C792 1.351 . S
C792 C786 1.428 . S
C792 N791 1.351 . S
C792 C793 1.434 . S
C793 C784 1.417 1_554 S
C793 N790 1.350 . S
C793 C792 1.434 . S
C794 C795 1.369 . S
C794 C796 1.419 . S
C794 H798 0.930 . S
C795 C794 1.369 . S
C795 C804 1.429 . S
C796 C794 1.419 . S
C796 C797 1.363 . S
C796 H799 0.929 . S
C797 C796 1.363 . S
C797 C803 1.428 . S
H798 C794 0.930 . S
H799 C796 0.929 . S
S800 N801 1.613 . S
S800 N802 1.610 . S
N801 S800 1.613 . S
N801 C804 1.350 . S
N802 S800 1.610 . S
N802 C803 1.351 . S
C803 C797 1.428 . S
C803 N802 1.351 . S
C803 C804 1.434 . S
C804 C795 1.429 . S
C804 N801 1.350 . S
C804 C803 1.434 . S
C805 C806 1.369 . S
C805 C807 1.419 . S
C805 H809 0.930 . S
C806 C805 1.369 . S
C806 C815 1.429 . S
C807 C805 1.419 . S
C807 C808 1.363 . S
C807 H810 0.929 . S
C808 C807 1.363 . S
C808 C814 1.428 . S
H809 C805 0.930 . S
H810 C807 0.929 . S
S811 N812 1.613 . S
S811 N813 1.610 . S
N812 S811 1.613 . S
N812 C815 1.350 . S
N813 S811 1.610 . S
N813 C814 1.351 . S
C814 C808 1.428 . S
C814 N813 1.351 . S
C814 C815 1.434 . S
C815 C806 1.429 . S
C815 N812 1.350 . S
C815 C814 1.434 . S
C816 C817 1.369 . S
C816 C818 1.419 . S
C816 H820 0.930 . S
C817 C816 1.369 . S
C817 C826 1.429 . S
C818 C816 1.419 . S
C818 C819 1.363 . S
C818 H821 0.929 . S
C819 C818 1.363 . S
C819 C825 1.428 . S
H820 C816 0.930 . S
H821 C818 0.929 . S
S822 N823 1.613 . S
S822 N824 1.610 . S
N823 S822 1.613 . S
N823 C826 1.350 . S
N824 S822 1.610 . S
N824 C825 1.351 . S
C825 C819 1.428 . S
C825 N824 1.351 . S
C825 C826 1.434 . S
C826 C817 1.429 . S
C826 N823 1.350 . S
C826 C825 1.434 . S
C827 C828 1.369 1_455 S
C827 C829 1.419 . S
C827 H831 0.930 . S
C828 C827 1.369 1_655 S
C828 C837 1.429 1_545 S
C829 C827 1.419 . S
C829 C830 1.363 1_545 S
C829 H832 0.929 . S
C830 C829 1.363 1_565 S
C830 C836 1.428 1_455 S
H831 C827 0.930 . S
H832 C829 0.929 . S
S833 N834 1.613 . S
S833 N835 1.610 . S
N834 S833 1.613 . S
N834 C837 1.350 . S
N835 S833 1.610 . S
N835 C836 1.351 . S
C836 C830 1.428 1_655 S
C836 N835 1.351 . S
C836 C837 1.434 . S
C837 C828 1.429 1_565 S
C837 N834 1.350 . S
C837 C836 1.434 . S
C838 C839 1.369 . S
C838 C840 1.419 . S
C838 H842 0.930 . S
C839 C838 1.369 . S
C839 C848 1.429 . S
C840 C838 1.419 . S
C840 C841 1.363 . S
C840 H843 0.929 . S
C841 C840 1.363 . S
C841 C847 1.428 . S
H842 C838 0.930 . S
H843 C840 0.929 . S
S844 N845 1.613 . S
S844 N846 1.610 . S
N845 S844 1.613 . S
N845 C848 1.350 . S
N846 S844 1.610 . S
N846 C847 1.351 . S
C847 C841 1.428 . S
C847 N846 1.351 . S
C847 C848 1.434 . S
C848 C839 1.429 . S
C848 N845 1.350 . S
C848 C847 1.434 . S
C849 C850 1.369 1_556 S
C849 C851 1.418 . S
C849 H853 0.930 . S
C850 C849 1.369 1_554 S
C850 C859 1.429 1_545 S
C851 C849 1.418 . S
C851 C852 1.363 1_545 S
C851 H854 0.929 . S
C852 C851 1.363 1_565 S
C852 C858 1.421 1_556 S
H853 C849 0.930 . S
H854 C851 0.929 . S
S855 N856 1.613 . S
S855 N857 1.610 . S
N856 S855 1.613 . S
N856 C859 1.350 . S
N857 S855 1.610 . S
N857 C858 1.354 . S
C858 C852 1.421 1_554 S
C858 N857 1.354 . S
C858 C859 1.441 . S
C859 C850 1.429 1_565 S
C859 N856 1.350 . S
C859 C858 1.441 . S
C860 C861 1.369 . S
C860 C862 1.419 . S
C860 H864 0.930 . S
C861 C860 1.369 . S
C861 C870 1.429 . S
C862 C860 1.419 . S
C862 C863 1.363 . S
C862 H865 0.929 . S
C863 C862 1.363 . S
C863 C869 1.428 . S
H864 C860 0.930 . S
H865 C862 0.929 . S
S866 N867 1.613 . S
S866 N868 1.610 . S
N867 S866 1.613 . S
N867 C870 1.350 . S
N868 S866 1.610 . S
N868 C869 1.351 . S
C869 C863 1.428 . S
C869 N868 1.351 . S
C869 C870 1.434 . S
C870 C861 1.429 . S
C870 N867 1.350 . S
C870 C869 1.434 . S
C871 C872 1.369 . S
C871 C873 1.419 . S
C871 H875 0.930 . S
C872 C871 1.369 . S
C872 C881 1.429 1_565 S
C873 C871 1.419 . S
C873 C874 1.363 1_565 S
C873 H876 0.929 . S
C874 C873 1.363 1_545 S
C874 C880 1.428 . S
H875 C871 0.930 . S
H876 C873 0.929 . S
S877 N878 1.613 . S
S877 N879 1.610 . S
N878 S877 1.613 . S
N878 C881 1.350 . S
N879 S877 1.610 . S
N879 C880 1.351 . S
C880 C874 1.428 . S
C880 N879 1.351 . S
C880 C881 1.434 . S
C881 C872 1.429 1_545 S
C881 N878 1.350 . S
C881 C880 1.434 . S
C882 C883 1.369 . S
C882 C884 1.419 . S
C882 H886 0.930 . S
C883 C882 1.369 . S
C883 C892 1.429 . S
C884 C882 1.419 . S
C884 C885 1.363 . S
C884 H887 0.929 . S
C885 C884 1.363 . S
C885 C891 1.428 . S
H886 C882 0.930 . S
H887 C884 0.929 . S
S888 N889 1.613 . S
S888 N890 1.610 . S
N889 S888 1.613 . S
N889 C892 1.350 . S
N890 S888 1.610 . S
N890 C891 1.351 . S
C891 C885 1.428 . S
C891 N890 1.351 . S
C891 C892 1.434 . S
C892 C883 1.429 . S
C892 N889 1.350 . S
C892 C891 1.434 . S
C893 C894 1.369 1_545 S
C893 C895 1.419 1_655 S
C893 H897 0.930 . S
C894 C893 1.369 1_565 S
C894 C903 1.429 1_554 S
C895 C893 1.419 1_455 S
C895 C896 1.363 1_554 S
C895 H898 0.929 . S
C896 C895 1.363 1_556 S
C896 C902 1.428 1_545 S
H897 C893 0.930 . S
H898 C895 0.929 . S
S899 N900 1.613 1_455 S
S899 N901 1.610 . S
N900 S899 1.613 1_655 S
N900 C903 1.350 . S
N901 S899 1.610 . S
N901 C902 1.351 . S
C902 C896 1.428 1_565 S
C902 N901 1.351 . S
C902 C903 1.434 1_455 S
C903 C894 1.429 1_556 S
C903 N900 1.350 . S
C903 C902 1.434 1_655 S
C904 C905 1.369 . S
C904 C906 1.419 . S
C904 H908 0.930 . S
C905 C904 1.369 . S
C905 C914 1.429 . S
C906 C904 1.419 . S
C906 C907 1.363 . S
C906 H909 0.929 . S
C907 C906 1.363 . S
C907 C913 1.428 . S
H908 C904 0.930 . S
H909 C906 0.929 . S
S910 N911 1.613 . S
S910 N912 1.610 . S
N911 S910 1.613 . S
N911 C914 1.350 . S
N912 S910 1.610 . S
N912 C913 1.351 . S
C913 C907 1.428 . S
C913 N912 1.351 . S
C913 C914 1.434 . S
C914 C905 1.429 . S
C914 N911 1.350 . S
C914 C913 1.434 . S
C915 C916 1.369 . S
C915 C917 1.419 . S
C915 H919 0.930 . S
C916 C915 1.369 . S
C916 C925 1.429 . S
C917 C915 1.419 . S
C917 C918 1.363 . S
C917 H920 0.929 . S
C918 C917 1.363 . S
C918 C924 1.428 . S
H919 C915 0.930 . S
H920 C917 0.929 . S
S921 N922 1.613 . S
S921 N923 1.610 . S
N922 S921 1.613 . S
N922 C925 1.350 . S
N923 S921 1.610 . S
N923 C924 1.351 . S
C924 C918 1.428 . S
C924 N923 1.351 . S
C924 C925 1.434 . S
C925 C916 1.429 . S
C925 N922 1.350 . S
C925 C924 1.434 . S
C926 C927 1.369 . S
C926 C928 1.419 . S
C926 H930 0.930 . S
C927 C926 1.369 . S
C927 C936 1.429 . S
C928 C926 1.419 . S
C928 C929 1.363 . S
C928 H931 0.929 . S
C929 C928 1.363 . S
C929 C935 1.428 . S
H930 C926 0.930 . S
H931 C928 0.929 . S
S932 N933 1.613 . S
S932 N934 1.610 . S
N933 S932 1.613 . S
N933 C936 1.350 . S
N934 S932 1.610 . S
N934 C935 1.351 . S
C935 C929 1.428 . S
C935 N934 1.351 . S
C935 C936 1.434 . S
C936 C927 1.429 . S
C936 N933 1.350 . S
C936 C935 1.434 . S
C937 C938 1.369 . S
C937 C939 1.419 . S
C937 H941 0.930 . S
C938 C937 1.369 . S
C938 C947 1.429 . S
C939 C937 1.419 . S
C939 C940 1.363 . S
C939 H942 0.929 . S
C940 C939 1.363 . S
C940 C946 1.428 . S
H941 C937 0.930 . S
H942 C939 0.929 . S
S943 N944 1.613 . S
S943 N945 1.610 . S
N944 S943 1.613 . S
N944 C947 1.350 . S
N945 S943 1.610 . S
N945 C946 1.351 . S
C946 C940 1.428 . S
C946 N945 1.351 . S
C946 C947 1.434 . S
C947 C938 1.429 . S
C947 N944 1.350 . S
C947 C946 1.434 . S
C948 C949 1.369 1_556 S
C948 C950 1.419 . S
C948 H952 0.930 . S
C949 C948 1.369 1_554 S
C949 C958 1.429 . S
C950 C948 1.419 . S
C950 C951 1.363 . S
C950 H953 0.929 . S
C951 C950 1.363 . S
C951 C957 1.428 1_556 S
H952 C948 0.930 . S
H953 C950 0.929 . S
S954 N955 1.613 . S
S954 N956 1.610 . S
N955 S954 1.613 . S
N955 C958 1.350 . S
N956 S954 1.610 . S
N956 C957 1.351 . S
C957 C951 1.428 1_554 S
C957 N956 1.351 . S
C957 C958 1.434 . S
C958 C949 1.429 . S
C958 N955 1.350 . S
C958 C957 1.434 . S
C959 C960 1.369 1_655 S
C959 C961 1.419 . S
C959 H963 0.930 . S
C960 C959 1.369 1_455 S
C960 C969 1.429 . S
C961 C959 1.419 . S
C961 C962 1.363 . S
C961 H964 0.929 . S
C962 C961 1.363 . S
C962 C968 1.428 1_655 S
H963 C959 0.930 . S
H964 C961 0.929 . S
S965 N966 1.613 . S
S965 N967 1.610 . S
N966 S965 1.613 . S
N966 C969 1.350 . S
N967 S965 1.610 . S
N967 C968 1.351 . S
C968 C962 1.428 1_455 S
C968 N967 1.351 . S
C968 C969 1.434 . S
C969 C960 1.429 . S
C969 N966 1.350 . S
C969 C968 1.434 . S
C970 C971 1.369 1_655 S
C970 C972 1.419 . S
C970 H974 0.930 . S
C971 C970 1.369 1_455 S
C971 C980 1.429 1_554 S
C972 C970 1.419 . S
C972 C973 1.363 1_554 S
C972 H975 0.929 . S
C973 C972 1.363 1_556 S
C973 C979 1.428 1_655 S
H974 C970 0.930 . S
H975 C972 0.929 . S
S976 N977 1.613 . S
S976 N978 1.610 . S
N977 S976 1.613 . S
N977 C980 1.350 . S
N978 S976 1.610 . S
N978 C979 1.351 . S
C979 C973 1.428 1_455 S
C979 N978 1.351 . S
C979 C980 1.434 . S
C980 C971 1.429 1_556 S
C980 N977 1.350 . S
C980 C979 1.434 . S
C981 C982 1.369 . S
C981 C983 1.419 . S
C981 H985 0.930 . S
C982 C981 1.369 . S
C982 C991 1.429 . S
C983 C981 1.419 . S
C983 C984 1.363 . S
C983 H986 0.929 . S
C984 C983 1.363 . S
C984 C990 1.428 . S
H985 C981 0.930 . S
H986 C983 0.929 . S
S987 N988 1.613 . S
S987 N989 1.610 . S
N988 S987 1.613 . S
N988 C991 1.350 . S
N989 S987 1.610 . S
N989 C990 1.351 . S
C990 C984 1.428 . S
C990 N989 1.351 . S
C990 C991 1.434 . S
C991 C982 1.429 . S
C991 N988 1.350 . S
C991 C990 1.434 . S
C992 C993 1.369 . S
C992 C994 1.419 . S
C992 H996 0.930 . S
C993 C992 1.369 . S
C993 C1002 1.429 . S
C994 C992 1.419 . S
C994 C995 1.363 . S
C994 H997 0.929 . S
C995 C994 1.363 . S
C995 C1001 1.428 . S
H996 C992 0.930 . S
H997 C994 0.929 . S
S998 N999 1.613 . S
S998 N1000 1.610 . S
N999 S998 1.613 . S
N999 C1002 1.350 . S
N1000 S998 1.610 . S
N1000 C1001 1.351 . S
C1001 C995 1.428 . S
C1001 N1000 1.351 . S
C1001 C1002 1.434 . S
C1002 C993 1.429 . S
C1002 N999 1.350 . S
C1002 C1001 1.434 . S
C1003 C1004 1.369 . S
C1003 C1005 1.419 . S
C1003 H1007 0.930 . S
C1004 C1003 1.369 . S
C1004 C1013 1.429 . S
C1005 C1003 1.419 . S
C1005 C1006 1.363 . S
C1005 H1008 0.929 . S
C1006 C1005 1.363 . S
C1006 C1012 1.428 . S
H1007 C1003 0.930 . S
H1008 C1005 0.929 . S
S1009 N1010 1.613 . S
S1009 N1011 1.610 . S
N1010 S1009 1.613 . S
N1010 C1013 1.350 . S
N1011 S1009 1.610 . S
N1011 C1012 1.351 . S
C1012 C1006 1.428 . S
C1012 N1011 1.351 . S
C1012 C1013 1.434 . S
C1013 C1004 1.429 . S
C1013 N1010 1.350 . S
C1013 C1012 1.434 . S
C1014 C1015 1.369 . S
C1014 C1016 1.419 . S
C1014 H1018 0.930 . S
C1015 C1014 1.369 . S
C1015 C1024 1.429 . S
C1016 C1014 1.419 . S
C1016 C1017 1.363 . S
C1016 H1019 0.929 . S
C1017 C1016 1.363 . S
C1017 C1023 1.428 . S
H1018 C1014 0.930 . S
H1019 C1016 0.929 . S
S1020 N1021 1.613 . S
S1020 N1022 1.610 . S
N1021 S1020 1.613 . S
N1021 C1024 1.350 . S
N1022 S1020 1.610 . S
N1022 C1023 1.351 . S
C1023 C1017 1.428 . S
C1023 N1022 1.351 . S
C1023 C1024 1.434 . S
C1024 C1015 1.429 . S
C1024 N1021 1.350 . S
C1024 C1023 1.434 . S
C1025 C1026 1.369 . S
C1025 C1027 1.419 . S
C1025 H1029 0.930 . S
C1026 C1025 1.369 . S
C1026 C1035 1.429 . S
C1027 C1025 1.419 . S
C1027 C1028 1.363 . S
C1027 H1030 0.929 . S
C1028 C1027 1.363 . S
C1028 C1034 1.428 . S
H1029 C1025 0.930 . S
H1030 C1027 0.929 . S
S1031 N1032 1.613 . S
S1031 N1033 1.610 . S
N1032 S1031 1.613 . S
N1032 C1035 1.350 . S
N1033 S1031 1.610 . S
N1033 C1034 1.351 . S
C1034 C1028 1.428 . S
C1034 N1033 1.351 . S
C1034 C1035 1.434 . S
C1035 C1026 1.429 . S
C1035 N1032 1.350 . S
C1035 C1034 1.434 . S
C1036 C1037 1.369 . S
C1036 C1038 1.419 . S
C1036 H1040 0.930 . S
C1037 C1036 1.369 . S
C1037 C1046 1.429 . S
C1038 C1036 1.419 . S
C1038 C1039 1.363 . S
C1038 H1041 0.929 . S
C1039 C1038 1.363 . S
C1039 C1045 1.428 . S
H1040 C1036 0.930 . S
H1041 C1038 0.929 . S
S1042 N1043 1.613 . S
S1042 N1044 1.610 . S
N1043 S1042 1.613 . S
N1043 C1046 1.350 . S
N1044 S1042 1.610 . S
N1044 C1045 1.351 . S
C1045 C1039 1.428 . S
C1045 N1044 1.351 . S
C1045 C1046 1.434 . S
C1046 C1037 1.429 . S
C1046 N1043 1.350 . S
C1046 C1045 1.434 . S
C1047 C1048 1.369 . S
C1047 C1049 1.419 . S
C1047 H1051 0.930 . S
C1048 C1047 1.369 . S
C1048 C1057 1.429 . S
C1049 C1047 1.419 . S
C1049 C1050 1.363 . S
C1049 H1052 0.929 . S
C1050 C1049 1.363 . S
C1050 C1056 1.428 . S
H1051 C1047 0.930 . S
H1052 C1049 0.929 . S
S1053 N1054 1.613 . S
S1053 N1055 1.610 . S
N1054 S1053 1.613 . S
N1054 C1057 1.350 . S
N1055 S1053 1.610 . S
N1055 C1056 1.351 . S
C1056 C1050 1.428 . S
C1056 N1055 1.351 . S
C1056 C1057 1.434 . S
C1057 C1048 1.429 . S
C1057 N1054 1.350 . S
C1057 C1056 1.434 . S
C1058 C1059 1.369 . S
C1058 C1060 1.419 . S
C1058 H1062 0.930 . S
C1059 C1058 1.369 . S
C1059 C1068 1.429 . S
C1060 C1058 1.419 . S
C1060 C1061 1.363 . S
C1060 H1063 0.929 . S
C1061 C1060 1.363 . S
C1061 C1067 1.428 . S
H1062 C1058 0.930 . S
H1063 C1060 0.929 . S
S1064 N1065 1.613 . S
S1064 N1066 1.610 . S
N1065 S1064 1.613 . S
N1065 C1068 1.350 . S
N1066 S1064 1.610 . S
N1066 C1067 1.351 . S
C1067 C1061 1.428 . S
C1067 N1066 1.351 . S
C1067 C1068 1.434 . S
C1068 C1059 1.429 . S
C1068 N1065 1.350 . S
C1068 C1067 1.434 . S
C1069 C1070 1.369 . S
C1069 C1071 1.419 . S
C1069 H1073 0.930 . S
C1070 C1069 1.369 . S
C1070 C1079 1.429 . S
C1071 C1069 1.419 . S
C1071 C1072 1.363 . S
C1071 H1074 0.929 . S
C1072 C1071 1.363 . S
C1072 C1078 1.428 . S
H1073 C1069 0.930 . S
H1074 C1071 0.929 . S
S1075 N1076 1.613 . S
S1075 N1077 1.610 . S
N1076 S1075 1.613 . S
N1076 C1079 1.350 . S
N1077 S1075 1.610 . S
N1077 C1078 1.351 . S
C1078 C1072 1.428 . S
C1078 N1077 1.351 . S
C1078 C1079 1.434 . S
C1079 C1070 1.429 . S
C1079 N1076 1.350 . S
C1079 C1078 1.434 . S
C1080 C1081 1.369 . S
C1080 C1082 1.419 . S
C1080 H1084 0.930 . S
C1081 C1080 1.369 . S
C1081 C1090 1.429 . S
C1082 C1080 1.419 . S
C1082 C1083 1.363 . S
C1082 H1085 0.929 . S
C1083 C1082 1.363 . S
C1083 C1089 1.428 . S
H1084 C1080 0.930 . S
H1085 C1082 0.929 . S
S1086 N1087 1.613 . S
S1086 N1088 1.610 . S
N1087 S1086 1.613 . S
N1087 C1090 1.350 . S
N1088 S1086 1.610 . S
N1088 C1089 1.351 . S
C1089 C1083 1.428 . S
C1089 N1088 1.351 . S
C1089 C1090 1.434 . S
C1090 C1081 1.429 . S
C1090 N1087 1.350 . S
C1090 C1089 1.434 . S
C1091 C1092 1.369 . S
C1091 C1093 1.419 . S
C1091 H1095 0.930 . S
C1092 C1091 1.369 . S
C1092 C1101 1.429 . S
C1093 C1091 1.419 . S
C1093 C1094 1.363 . S
C1093 H1096 0.929 . S
C1094 C1093 1.363 . S
C1094 C1100 1.428 . S
H1095 C1091 0.930 . S
H1096 C1093 0.929 . S
S1097 N1098 1.613 . S
S1097 N1099 1.610 . S
N1098 S1097 1.613 . S
N1098 C1101 1.350 . S
N1099 S1097 1.610 . S
N1099 C1100 1.351 . S
C1100 C1094 1.428 . S
C1100 N1099 1.351 . S
C1100 C1101 1.434 . S
C1101 C1092 1.429 . S
C1101 N1098 1.350 . S
C1101 C1100 1.434 . S
C1102 C1103 1.369 . S
C1102 C1104 1.419 . S
C1102 H1106 0.930 . S
C1103 C1102 1.369 . S
C1103 C1112 1.429 . S
C1104 C1102 1.419 . S
C1104 C1105 1.363 . S
C1104 H1107 0.929 . S
C1105 C1104 1.363 . S
C1105 C1111 1.428 . S
H1106 C1102 0.930 . S
H1107 C1104 0.929 . S
S1108 N1109 1.613 . S
S1108 N1110 1.610 . S
N1109 S1108 1.613 . S
N1109 C1112 1.350 . S
N1110 S1108 1.610 . S
N1110 C1111 1.351 . S
C1111 C1105 1.428 . S
C1111 N1110 1.351 . S
C1111 C1112 1.434 . S
C1112 C1103 1.429 . S
C1112 N1109 1.350 . S
C1112 C1111 1.434 . S
C1113 C1114 1.369 . S
C1113 C1115 1.419 . S
C1113 H1117 0.930 . S
C1114 C1113 1.369 . S
C1114 C1123 1.429 . S
C1115 C1113 1.419 . S
C1115 C1116 1.363 . S
C1115 H1118 0.929 . S
C1116 C1115 1.363 . S
C1116 C1122 1.428 . S
H1117 C1113 0.930 . S
H1118 C1115 0.929 . S
S1119 N1120 1.613 . S
S1119 N1121 1.610 . S
N1120 S1119 1.613 . S
N1120 C1123 1.350 . S
N1121 S1119 1.610 . S
N1121 C1122 1.351 . S
C1122 C1116 1.428 . S
C1122 N1121 1.351 . S
C1122 C1123 1.434 . S
C1123 C1114 1.429 . S
C1123 N1120 1.350 . S
C1123 C1122 1.434 . S
C1124 C1125 1.369 . S
C1124 C1126 1.419 . S
C1124 H1128 0.930 . S
C1125 C1124 1.369 . S
C1125 C1134 1.429 . S
C1126 C1124 1.419 . S
C1126 C1127 1.363 . S
C1126 H1129 0.929 . S
C1127 C1126 1.363 . S
C1127 C1133 1.428 . S
H1128 C1124 0.930 . S
H1129 C1126 0.929 . S
S1130 N1131 1.613 . S
S1130 N1132 1.610 . S
N1131 S1130 1.613 . S
N1131 C1134 1.350 . S
N1132 S1130 1.610 . S
N1132 C1133 1.351 . S
C1133 C1127 1.428 . S
C1133 N1132 1.351 . S
C1133 C1134 1.434 . S
C1134 C1125 1.429 . S
C1134 N1131 1.350 . S
C1134 C1133 1.434 . S
C1135 C1136 1.369 . S
C1135 C1137 1.419 . S
C1135 H1139 0.930 . S
C1136 C1135 1.369 . S
C1136 C1145 1.429 . S
C1137 C1135 1.419 . S
C1137 C1138 1.363 . S
C1137 H1140 0.929 . S
C1138 C1137 1.363 . S
C1138 C1144 1.428 . S
H1139 C1135 0.930 . S
H1140 C1137 0.929 . S
S1141 N1142 1.613 . S
S1141 N1143 1.610 . S
N1142 S1141 1.613 . S
N1142 C1145 1.350 . S
N1143 S1141 1.610 . S
N1143 C1144 1.351 . S
C1144 C1138 1.428 . S
C1144 N1143 1.351 . S
C1144 C1145 1.434 . S
C1145 C1136 1.429 . S
C1145 N1142 1.350 . S
C1145 C1144 1.434 . S
C1146 C1147 1.369 . S
C1146 C1148 1.419 . S
C1146 H1150 0.930 . S
C1147 C1146 1.369 . S
C1147 C1156 1.429 . S
C1148 C1146 1.419 . S
C1148 C1149 1.363 . S
C1148 H1151 0.929 . S
C1149 C1148 1.363 . S
C1149 C1155 1.428 . S
H1150 C1146 0.930 . S
H1151 C1148 0.929 . S
S1152 N1153 1.613 . S
S1152 N1154 1.610 . S
N1153 S1152 1.613 . S
N1153 C1156 1.350 . S
N1154 S1152 1.610 . S
N1154 C1155 1.351 . S
C1155 C1149 1.428 . S
C1155 N1154 1.351 . S
C1155 C1156 1.434 . S
C1156 C1147 1.429 . S
C1156 N1153 1.350 . S
C1156 C1155 1.434 . S
C1157 C1158 1.369 . S
C1157 C1159 1.419 . S
C1157 H1161 0.930 . S
C1158 C1157 1.369 . S
C1158 C1167 1.429 . S
C1159 C1157 1.419 . S
C1159 C1160 1.363 . S
C1159 H1162 0.929 . S
C1160 C1159 1.363 . S
C1160 C1166 1.428 . S
H1161 C1157 0.930 . S
H1162 C1159 0.929 . S
S1163 N1164 1.613 . S
S1163 N1165 1.610 . S
N1164 S1163 1.613 . S
N1164 C1167 1.350 . S
N1165 S1163 1.610 . S
N1165 C1166 1.351 . S
C1166 C1160 1.428 . S
C1166 N1165 1.351 . S
C1166 C1167 1.434 . S
C1167 C1158 1.429 . S
C1167 N1164 1.350 . S
C1167 C1166 1.434 . S
C1168 C1169 1.369 . S
C1168 C1170 1.419 . S
C1168 H1172 0.930 . S
C1169 C1168 1.369 . S
C1169 C1178 1.429 . S
C1170 C1168 1.419 . S
C1170 C1171 1.363 . S
C1170 H1173 0.929 . S
C1171 C1170 1.363 . S
C1171 C1177 1.428 . S
H1172 C1168 0.930 . S
H1173 C1170 0.929 . S
S1174 N1175 1.613 . S
S1174 N1176 1.610 . S
N1175 S1174 1.613 . S
N1175 C1178 1.350 . S
N1176 S1174 1.610 . S
N1176 C1177 1.351 . S
C1177 C1171 1.428 . S
C1177 N1176 1.351 . S
C1177 C1178 1.434 . S
C1178 C1169 1.429 . S
C1178 N1175 1.350 . S
C1178 C1177 1.434 . S
C1179 C1180 1.369 . S
C1179 C1181 1.419 . S
C1179 H1183 0.930 . S
C1180 C1179 1.369 . S
C1180 C1189 1.429 . S
C1181 C1179 1.419 . S
C1181 C1182 1.363 . S
C1181 H1184 0.929 . S
C1182 C1181 1.363 . S
C1182 C1188 1.428 . S
H1183 C1179 0.930 . S
H1184 C1181 0.929 . S
S1185 N1186 1.613 . S
S1185 N1187 1.610 . S
N1186 S1185 1.613 . S
N1186 C1189 1.350 . S
N1187 S1185 1.610 . S
N1187 C1188 1.351 . S
C1188 C1182 1.428 . S
C1188 N1187 1.351 . S
C1188 C1189 1.434 . S
C1189 C1180 1.429 . S
C1189 N1186 1.350 . S
C1189 C1188 1.434 . S
C1190 C1191 1.369 . S
C1190 C1192 1.419 . S
C1190 H1194 0.930 . S
C1191 C1190 1.369 . S
C1191 C1200 1.429 . S
C1192 C1190 1.419 . S
C1192 C1193 1.363 . S
C1192 H1195 0.929 . S
C1193 C1192 1.363 . S
C1193 C1199 1.428 . S
H1194 C1190 0.930 . S
H1195 C1192 0.929 . S
S1196 N1197 1.613 . S
S1196 N1198 1.610 . S
N1197 S1196 1.613 . S
N1197 C1200 1.350 . S
N1198 S1196 1.610 . S
N1198 C1199 1.351 . S
C1199 C1193 1.428 . S
C1199 N1198 1.351 . S
C1199 C1200 1.434 . S
C1200 C1191 1.429 . S
C1200 N1197 1.350 . S
C1200 C1199 1.434 . S
C1201 C1202 1.369 . S
C1201 C1203 1.419 . S
C1201 H1205 0.930 . S
C1202 C1201 1.369 . S
C1202 C1211 1.429 . S
C1203 C1201 1.419 . S
C1203 C1204 1.363 . S
C1203 H1206 0.929 . S
C1204 C1203 1.363 . S
C1204 C1210 1.428 . S
H1205 C1201 0.930 . S
H1206 C1203 0.929 . S
S1207 N1208 1.613 . S
S1207 N1209 1.610 . S
N1208 S1207 1.613 . S
N1208 C1211 1.350 . S
N1209 S1207 1.610 . S
N1209 C1210 1.351 . S
C1210 C1204 1.428 . S
C1210 N1209 1.351 . S
C1210 C1211 1.434 . S
C1211 C1202 1.429 . S
C1211 N1208 1.350 . S
C1211 C1210 1.434 . S
C1212 C1213 1.369 . S
C1212 C1214 1.419 . S
C1212 H1216 0.930 . S
C1213 C1212 1.369 . S
C1213 C1222 1.429 . S
C1214 C1212 1.419 . S
C1214 C1215 1.363 . S
C1214 H1217 0.929 . S
C1215 C1214 1.363 . S
C1215 C1221 1.428 . S
H1216 C1212 0.930 . S
H1217 C1214 0.929 . S
S1218 N1219 1.613 . S
S1218 N1220 1.610 . S
N1219 S1218 1.613 . S
N1219 C1222 1.350 . S
N1220 S1218 1.610 . S
N1220 C1221 1.351 . S
C1221 C1215 1.428 . S
C1221 N1220 1.351 . S
C1221 C1222 1.434 . S
C1222 C1213 1.429 . S
C1222 N1219 1.350 . S
C1222 C1221 1.434 . S
C1223 C1224 1.369 . S
C1223 C1225 1.419 . S
C1223 H1227 0.930 . S
C1224 C1223 1.369 . S
C1224 C1233 1.429 . S
C1225 C1223 1.419 . S
C1225 C1226 1.363 . S
C1225 H1228 0.929 . S
C1226 C1225 1.363 . S
C1226 C1232 1.428 . S
H1227 C1223 0.930 . S
H1228 C1225 0.929 . S
S1229 N1230 1.613 . S
S1229 N1231 1.610 . S
N1230 S1229 1.613 . S
N1230 C1233 1.350 . S
N1231 S1229 1.610 . S
N1231 C1232 1.351 . S
C1232 C1226 1.428 . S
C1232 N1231 1.351 . S
C1232 C1233 1.434 . S
C1233 C1224 1.429 . S
C1233 N1230 1.350 . S
C1233 C1232 1.434 . S
C1234 C1235 1.369 . S
C1234 C1236 1.419 . S
C1234 H1238 0.930 . S
C1235 C1234 1.369 . S
C1235 C1244 1.429 . S
C1236 C1234 1.419 . S
C1236 C1237 1.363 . S
C1236 H1239 0.929 . S
C1237 C1236 1.363 . S
C1237 C1243 1.428 . S
H1238 C1234 0.930 . S
H1239 C1236 0.929 . S
S1240 N1241 1.613 . S
S1240 N1242 1.610 . S
N1241 S1240 1.613 . S
N1241 C1244 1.350 . S
N1242 S1240 1.610 . S
N1242 C1243 1.351 . S
C1243 C1237 1.428 . S
C1243 N1242 1.351 . S
C1243 C1244 1.434 . S
C1244 C1235 1.429 . S
C1244 N1241 1.350 . S
C1244 C1243 1.434 . S
C1245 C1246 1.369 . S
C1245 C1247 1.419 . S
C1245 H1249 0.930 . S
C1246 C1245 1.369 . S
C1246 C1255 1.429 . S
C1247 C1245 1.419 . S
C1247 C1248 1.363 . S
C1247 H1250 0.929 . S
C1248 C1247 1.363 . S
C1248 C1254 1.428 . S
H1249 C1245 0.930 . S
H1250 C1247 0.929 . S
S1251 N1252 1.613 . S
S1251 N1253 1.610 . S
N1252 S1251 1.613 . S
N1252 C1255 1.350 . S
N1253 S1251 1.610 . S
N1253 C1254 1.351 . S
C1254 C1248 1.428 . S
C1254 N1253 1.351 . S
C1254 C1255 1.434 . S
C1255 C1246 1.429 . S
C1255 N1252 1.350 . S
C1255 C1254 1.434 . S
C1256 C1257 1.369 . S
C1256 C1258 1.419 . S
C1256 H1260 0.930 . S
C1257 C1256 1.369 . S
C1257 C1266 1.429 . S
C1258 C1256 1.419 . S
C1258 C1259 1.363 . S
C1258 H1261 0.929 . S
C1259 C1258 1.363 . S
C1259 C1265 1.428 . S
H1260 C1256 0.930 . S
H1261 C1258 0.929 . S
S1262 N1263 1.613 . S
S1262 N1264 1.610 . S
N1263 S1262 1.613 . S
N1263 C1266 1.350 . S
N1264 S1262 1.610 . S
N1264 C1265 1.351 . S
C1265 C1259 1.428 . S
C1265 N1264 1.351 . S
C1265 C1266 1.434 . S
C1266 C1257 1.429 . S
C1266 N1263 1.350 . S
C1266 C1265 1.434 . S
C1267 C1268 1.369 . S
C1267 C1269 1.419 . S
C1267 H1271 0.930 . S
C1268 C1267 1.369 . S
C1268 C1277 1.429 . S
C1269 C1267 1.419 . S
C1269 C1270 1.363 . S
C1269 H1272 0.929 . S
C1270 C1269 1.363 . S
C1270 C1276 1.428 . S
H1271 C1267 0.930 . S
H1272 C1269 0.929 . S
S1273 N1274 1.613 . S
S1273 N1275 1.610 . S
N1274 S1273 1.613 . S
N1274 C1277 1.350 . S
N1275 S1273 1.610 . S
N1275 C1276 1.351 . S
C1276 C1270 1.428 . S
C1276 N1275 1.351 . S
C1276 C1277 1.434 . S
C1277 C1268 1.429 . S
C1277 N1274 1.350 . S
C1277 C1276 1.434 . S
C1278 C1279 1.369 . S
C1278 C1280 1.419 . S
C1278 H1282 0.930 . S
C1279 C1278 1.369 . S
C1279 C1288 1.429 . S
C1280 C1278 1.419 . S
C1280 C1281 1.363 . S
C1280 H1283 0.929 . S
C1281 C1280 1.363 . S
C1281 C1287 1.428 . S
H1282 C1278 0.930 . S
H1283 C1280 0.929 . S
S1284 N1285 1.613 . S
S1284 N1286 1.610 . S
N1285 S1284 1.613 . S
N1285 C1288 1.350 . S
N1286 S1284 1.610 . S
N1286 C1287 1.351 . S
C1287 C1281 1.428 . S
C1287 N1286 1.351 . S
C1287 C1288 1.434 . S
C1288 C1279 1.429 . S
C1288 N1285 1.350 . S
C1288 C1287 1.434 . S
C1289 C1290 1.369 . S
C1289 C1291 1.419 . S
C1289 H1293 0.930 . S
C1290 C1289 1.369 . S
C1290 C1299 1.429 . S
C1291 C1289 1.419 . S
C1291 C1292 1.363 . S
C1291 H1294 0.929 . S
C1292 C1291 1.363 . S
C1292 C1298 1.428 . S
H1293 C1289 0.930 . S
H1294 C1291 0.929 . S
S1295 N1296 1.613 . S
S1295 N1297 1.610 . S
N1296 S1295 1.613 . S
N1296 C1299 1.350 . S
N1297 S1295 1.610 . S
N1297 C1298 1.351 . S
C1298 C1292 1.428 . S
C1298 N1297 1.351 . S
C1298 C1299 1.434 . S
C1299 C1290 1.429 . S
C1299 N1296 1.350 . S
C1299 C1298 1.434 . S
C1300 C1301 1.369 . S
C1300 C1302 1.419 . S
C1300 H1304 0.930 . S
C1301 C1300 1.369 . S
C1301 C1310 1.429 . S
C1302 C1300 1.419 . S
C1302 C1303 1.363 . S
C1302 H1305 0.929 . S
C1303 C1302 1.363 . S
C1303 C1309 1.428 . S
H1304 C1300 0.930 . S
H1305 C1302 0.929 . S
S1306 N1307 1.613 . S
S1306 N1308 1.610 . S
N1307 S1306 1.613 . S
N1307 C1310 1.350 . S
N1308 S1306 1.610 . S
N1308 C1309 1.351 . S
C1309 C1303 1.428 . S
C1309 N1308 1.351 . S
C1309 C1310 1.434 . S
C1310 C1301 1.429 . S
C1310 N1307 1.350 . S
C1310 C1309 1.434 . S
C1311 C1312 1.369 . S
C1311 C1313 1.419 . S
C1311 H1315 0.930 . S
C1312 C1311 1.369 . S
C1312 C1321 1.429 . S
C1313 C1311 1.419 . S
C1313 C1314 1.363 . S
C1313 H1316 0.929 . S
C1314 C1313 1.363 . S
C1314 C1320 1.428 . S
H1315 C1311 0.930 . S
H1316 C1313 0.929 . S
S1317 N1318 1.613 . S
S1317 N1319 1.610 . S
N1318 S1317 1.613 . S
N1318 C1321 1.350 . S
N1319 S1317 1.610 . S
N1319 C1320 1.351 . S
C1320 C1314 1.428 . S
C1320 N1319 1.351 . S
C1320 C1321 1.434 . S
C1321 C1312 1.429 . S
C1321 N1318 1.350 . S
C1321 C1320 1.434 . S
C1322 C1323 1.369 . S
C1322 C1324 1.419 . S
C1322 H1326 0.930 . S
C1323 C1322 1.369 . S
C1323 C1332 1.429 . S
C1324 C1322 1.419 . S
C1324 C1325 1.363 . S
C1324 H1327 0.929 . S
C1325 C1324 1.363 . S
C1325 C1331 1.428 . S
H1326 C1322 0.930 . S
H1327 C1324 0.929 . S
S1328 N1329 1.613 . S
S1328 N1330 1.610 . S
N1329 S1328 1.613 . S
N1329 C1332 1.350 . S
N1330 S1328 1.610 . S
N1330 C1331 1.351 . S
C1331 C1325 1.428 . S
C1331 N1330 1.351 . S
C1331 C1332 1.434 . S
C1332 C1323 1.429 . S
C1332 N1329 1.350 . S
C1332 C1331 1.434 . S
C1333 C1334 1.369 . S
C1333 C1335 1.419 . S
C1333 H1337 0.930 . S
C1334 C1333 1.369 . S
C1334 C1343 1.429 . S
C1335 C1333 1.419 . S
C1335 C1336 1.363 . S
C1335 H1338 0.929 . S
C1336 C1335 1.363 . S
C1336 C1342 1.428 . S
H1337 C1333 0.930 . S
H1338 C1335 0.929 . S
S1339 N1340 1.613 . S
S1339 N1341 1.610 . S
N1340 S1339 1.613 . S
N1340 C1343 1.350 . S
N1341 S1339 1.610 . S
N1341 C1342 1.351 . S
C1342 C1336 1.428 . S
C1342 N1341 1.351 . S
C1342 C1343 1.434 . S
C1343 C1334 1.429 . S
C1343 N1340 1.350 . S
C1343 C1342 1.434 . S
C1344 C1345 1.369 . S
C1344 C1346 1.419 1_455 S
C1344 H1348 0.930 . S
C1345 C1344 1.369 . S
C1345 C1354 1.429 . S
C1346 C1344 1.419 1_655 S
C1346 C1347 1.363 . S
C1346 H1349 0.929 . S
C1347 C1346 1.363 . S
C1347 C1353 1.428 . S
H1348 C1344 0.930 . S
H1349 C1346 0.929 . S
S1350 N1351 1.613 1_655 S
S1350 N1352 1.610 . S
N1351 S1350 1.613 1_455 S
N1351 C1354 1.350 . S
N1352 S1350 1.610 . S
N1352 C1353 1.351 . S
C1353 C1347 1.428 . S
C1353 N1352 1.351 . S
C1353 C1354 1.434 1_655 S
C1354 C1345 1.429 . S
C1354 N1351 1.350 . S
C1354 C1353 1.434 1_455 S
C1355 C1356 1.369 1_655 S
C1355 C1357 1.419 . S
C1355 H1359 0.930 . S
C1356 C1355 1.369 1_455 S
C1356 C1365 1.429 . S
C1357 C1355 1.419 . S
C1357 C1358 1.363 . S
C1357 H1360 0.929 . S
C1358 C1357 1.363 . S
C1358 C1364 1.428 1_655 S
H1359 C1355 0.930 . S
H1360 C1357 0.929 . S
S1361 N1362 1.613 . S
S1361 N1363 1.610 . S
N1362 S1361 1.613 . S
N1362 C1365 1.350 . S
N1363 S1361 1.610 . S
N1363 C1364 1.351 . S
C1364 C1358 1.428 1_455 S
C1364 N1363 1.351 . S
C1364 C1365 1.434 . S
C1365 C1356 1.429 . S
C1365 N1362 1.350 . S
C1365 C1364 1.434 . S
C1366 C1367 1.369 . S
C1366 C1368 1.419 . S
C1366 H1370 0.930 . S
C1367 C1366 1.369 . S
C1367 C1376 1.429 . S
C1368 C1366 1.419 . S
C1368 C1369 1.363 . S
C1368 H1371 0.929 . S
C1369 C1368 1.363 . S
C1369 C1375 1.428 . S
H1370 C1366 0.930 . S
H1371 C1368 0.929 . S
S1372 N1373 1.613 . S
S1372 N1374 1.610 . S
N1373 S1372 1.613 . S
N1373 C1376 1.350 . S
N1374 S1372 1.610 . S
N1374 C1375 1.351 . S
C1375 C1369 1.428 . S
C1375 N1374 1.351 . S
C1375 C1376 1.434 . S
C1376 C1367 1.429 . S
C1376 N1373 1.350 . S
C1376 C1375 1.434 . S
C1377 C1378 1.369 . S
C1377 C1379 1.419 . S
C1377 H1381 0.930 . S
C1378 C1377 1.369 . S
C1378 C1387 1.429 . S
C1379 C1377 1.419 . S
C1379 C1380 1.363 . S
C1379 H1382 0.929 . S
C1380 C1379 1.363 . S
C1380 C1386 1.428 . S
H1381 C1377 0.930 . S
H1382 C1379 0.929 . S
S1383 N1384 1.613 . S
S1383 N1385 1.610 . S
N1384 S1383 1.613 . S
N1384 C1387 1.350 . S
N1385 S1383 1.610 . S
N1385 C1386 1.351 . S
C1386 C1380 1.428 . S
C1386 N1385 1.351 . S
C1386 C1387 1.434 . S
C1387 C1378 1.429 . S
C1387 N1384 1.350 . S
C1387 C1386 1.434 . S
C1388 C1389 1.369 . S
C1388 C1390 1.419 1_655 S
C1388 H1392 0.930 . S
C1389 C1388 1.369 . S
C1389 C1398 1.429 . S
C1390 C1388 1.419 1_455 S
C1390 C1391 1.363 . S
C1390 H1393 0.929 . S
C1391 C1390 1.363 . S
C1391 C1397 1.428 . S
H1392 C1388 0.930 . S
H1393 C1390 0.929 . S
S1394 N1395 1.613 . S
S1394 N1396 1.610 1_655 S
N1395 S1394 1.613 . S
N1395 C1398 1.350 . S
N1396 S1394 1.610 1_455 S
N1396 C1397 1.351 . S
C1397 C1391 1.428 . S
C1397 N1396 1.351 . S
C1397 C1398 1.434 1_455 S
C1398 C1389 1.429 . S
C1398 N1395 1.350 . S
C1398 C1397 1.434 1_655 S
C1399 C1400 1.369 . S
C1399 C1401 1.419 . S
C1399 H1403 0.930 . S
C1400 C1399 1.369 . S
C1400 C1409 1.429 . S
C1401 C1399 1.419 . S
C1401 C1402 1.363 . S
C1401 H1404 0.929 . S
C1402 C1401 1.363 . S
C1402 C1408 1.428 . S
H1403 C1399 0.930 . S
H1404 C1401 0.929 . S
S1405 N1406 1.613 . S
S1405 N1407 1.610 . S
N1406 S1405 1.613 . S
N1406 C1409 1.350 . S
N1407 S1405 1.610 . S
N1407 C1408 1.351 . S
C1408 C1402 1.428 . S
C1408 N1407 1.351 . S
C1408 C1409 1.434 . S
C1409 C1400 1.429 . S
C1409 N1406 1.350 . S
C1409 C1408 1.434 . S
C1410 C1411 1.369 . S
C1410 C1412 1.419 . S
C1410 H1414 0.930 . S
C1411 C1410 1.369 . S
C1411 C1420 1.429 . S
C1412 C1410 1.419 . S
C1412 C1413 1.363 . S
C1412 H1415 0.929 . S
C1413 C1412 1.363 . S
C1413 C1419 1.428 . S
H1414 C1410 0.930 . S
H1415 C1412 0.929 . S
S1416 N1417 1.613 . S
S1416 N1418 1.610 . S
N1417 S1416 1.613 . S
N1417 C1420 1.350 . S
N1418 S1416 1.610 . S
N1418 C1419 1.351 . S
C1419 C1413 1.428 . S
C1419 N1418 1.351 . S
C1419 C1420 1.434 . S
C1420 C1411 1.429 . S
C1420 N1417 1.350 . S
C1420 C1419 1.434 . S
C1421 C1422 1.371 . S
C1421 C1423 1.417 1_655 S
C1421 H1425 0.930 . S
C1422 C1421 1.371 . S
C1422 C1431 1.429 . S
C1423 C1421 1.417 1_455 S
C1423 C1424 1.363 . S
C1423 H1426 0.929 . S
C1424 C1423 1.363 . S
C1424 C1430 1.429 . S
H1425 C1421 0.930 . S
H1426 C1423 0.929 . S
S1427 N1428 1.613 . S
S1427 N1429 1.610 . S
N1428 S1427 1.613 . S
N1428 C1431 1.350 . S
N1429 S1427 1.610 . S
N1429 C1430 1.351 1_655 S
C1430 C1424 1.429 . S
C1430 N1429 1.351 1_455 S
C1430 C1431 1.434 1_455 S
C1431 C1422 1.429 . S
C1431 N1428 1.350 . S
C1431 C1430 1.434 1_655 S
C1432 C1433 1.369 . S
C1432 C1434 1.419 1_455 S
C1432 H1436 0.930 . S
C1433 C1432 1.369 . S
C1433 C1442 1.429 . S
C1434 C1432 1.419 1_655 S
C1434 C1435 1.363 . S
C1434 H1437 0.929 . S
C1435 C1434 1.363 . S
C1435 C1441 1.428 . S
H1436 C1432 0.930 . S
H1437 C1434 0.929 . S
S1438 N1439 1.611 . S
S1438 N1440 1.612 1_455 S
N1439 S1438 1.611 . S
N1439 C1442 1.350 . S
N1440 S1438 1.612 1_655 S
N1440 C1441 1.351 . S
C1441 C1435 1.428 . S
C1441 N1440 1.351 . S
C1441 C1442 1.434 1_655 S
C1442 C1433 1.429 . S
C1442 N1439 1.350 . S
C1442 C1441 1.434 1_455 S
C1443 C1444 1.369 . S
C1443 C1445 1.419 . S
C1443 H1447 0.930 . S
C1444 C1443 1.369 . S
C1444 C1453 1.429 1_455 S
C1445 C1443 1.419 . S
C1445 C1446 1.363 1_455 S
C1445 H1448 0.929 . S
C1446 C1445 1.363 1_655 S
C1446 C1452 1.428 . S
H1447 C1443 0.930 . S
H1448 C1445 0.929 . S
S1449 N1450 1.613 . S
S1449 N1451 1.610 . S
N1450 S1449 1.613 . S
N1450 C1453 1.350 . S
N1451 S1449 1.610 . S
N1451 C1452 1.351 . S
C1452 C1446 1.428 . S
C1452 N1451 1.351 . S
C1452 C1453 1.434 . S
C1453 C1444 1.429 1_655 S
C1453 N1450 1.350 . S
C1453 C1452 1.434 . S
C1454 C1455 1.369 . S
C1454 C1456 1.419 . S
C1454 H1458 0.930 . S
C1455 C1454 1.369 . S
C1455 C1464 1.429 . S
C1456 C1454 1.419 . S
C1456 C1457 1.363 . S
C1456 H1459 0.929 . S
C1457 C1456 1.363 . S
C1457 C1463 1.428 . S
H1458 C1454 0.930 . S
H1459 C1456 0.929 . S
S1460 N1461 1.613 . S
S1460 N1462 1.610 . S
N1461 S1460 1.613 . S
N1461 C1464 1.350 . S
N1462 S1460 1.610 . S
N1462 C1463 1.351 . S
C1463 C1457 1.428 . S
C1463 N1462 1.351 . S
C1463 C1464 1.434 . S
C1464 C1455 1.429 . S
C1464 N1461 1.350 . S
C1464 C1463 1.434 . S
C1465 C1466 1.369 . S
C1465 C1467 1.419 . S
C1465 H1469 0.930 . S
C1466 C1465 1.369 . S
C1466 C1475 1.429 . S
C1467 C1465 1.419 . S
C1467 C1468 1.363 . S
C1467 H1470 0.929 . S
C1468 C1467 1.363 . S
C1468 C1474 1.428 . S
H1469 C1465 0.930 . S
H1470 C1467 0.929 . S
S1471 N1472 1.613 . S
S1471 N1473 1.610 . S
N1472 S1471 1.613 . S
N1472 C1475 1.350 . S
N1473 S1471 1.610 . S
N1473 C1474 1.351 . S
C1474 C1468 1.428 . S
C1474 N1473 1.351 . S
C1474 C1475 1.434 . S
C1475 C1466 1.429 . S
C1475 N1472 1.350 . S
C1475 C1474 1.434 . S
C1476 C1477 1.369 . S
C1476 C1478 1.419 1_655 S
C1476 H1480 0.930 . S
C1477 C1476 1.369 . S
C1477 C1486 1.429 . S
C1478 C1476 1.419 1_455 S
C1478 C1479 1.363 . S
C1478 H1481 0.929 . S
C1479 C1478 1.363 . S
C1479 C1485 1.428 . S
H1480 C1476 0.930 . S
H1481 C1478 0.929 . S
S1482 N1483 1.613 . S
S1482 N1484 1.610 1_655 S
N1483 S1482 1.613 . S
N1483 C1486 1.350 . S
N1484 S1482 1.610 1_455 S
N1484 C1485 1.351 . S
C1485 C1479 1.428 . S
C1485 N1484 1.351 . S
C1485 C1486 1.434 1_455 S
C1486 C1477 1.429 . S
C1486 N1483 1.350 . S
C1486 C1485 1.434 1_655 S
C1487 C1488 1.369 . S
C1487 C1489 1.419 . S
C1487 H1491 0.930 . S
C1488 C1487 1.369 . S
C1488 C1497 1.429 . S
C1489 C1487 1.419 . S
C1489 C1490 1.363 . S
C1489 H1492 0.929 . S
C1490 C1489 1.363 . S
C1490 C1496 1.428 . S
H1491 C1487 0.930 . S
H1492 C1489 0.929 . S
S1493 N1494 1.613 . S
S1493 N1495 1.610 . S
N1494 S1493 1.613 . S
N1494 C1497 1.350 . S
N1495 S1493 1.610 . S
N1495 C1496 1.351 . S
C1496 C1490 1.428 . S
C1496 N1495 1.351 . S
C1496 C1497 1.434 . S
C1497 C1488 1.429 . S
C1497 N1494 1.350 . S
C1497 C1496 1.434 . S
C1498 C1499 1.369 . S
C1498 C1500 1.419 . S
C1498 H1502 0.930 . S
C1499 C1498 1.369 . S
C1499 C1508 1.429 . S
C1500 C1498 1.419 . S
C1500 C1501 1.363 . S
C1500 H1503 0.929 . S
C1501 C1500 1.363 . S
C1501 C1507 1.428 . S
H1502 C1498 0.930 . S
H1503 C1500 0.929 . S
S1504 N1505 1.613 . S
S1504 N1506 1.610 . S
N1505 S1504 1.613 . S
N1505 C1508 1.350 . S
N1506 S1504 1.610 . S
N1506 C1507 1.351 . S
C1507 C1501 1.428 . S
C1507 N1506 1.351 . S
C1507 C1508 1.434 . S
C1508 C1499 1.429 . S
C1508 N1505 1.350 . S
C1508 C1507 1.434 . S
C1509 C1510 1.369 1_455 S
C1509 C1511 1.419 . S
C1509 H1513 0.930 . S
C1510 C1509 1.369 1_655 S
C1510 C1519 1.429 . S
C1511 C1509 1.419 . S
C1511 C1512 1.363 . S
C1511 H1514 0.929 . S
C1512 C1511 1.363 . S
C1512 C1518 1.428 1_455 S
H1513 C1509 0.930 . S
H1514 C1511 0.929 . S
S1515 N1516 1.613 . S
S1515 N1517 1.610 . S
N1516 S1515 1.613 . S
N1516 C1519 1.350 . S
N1517 S1515 1.610 . S
N1517 C1518 1.351 . S
C1518 C1512 1.428 1_655 S
C1518 N1517 1.351 . S
C1518 C1519 1.434 . S
C1519 C1510 1.429 . S
C1519 N1516 1.350 . S
C1519 C1518 1.434 . S
C1520 C1521 1.369 . S
C1520 C1522 1.419 . S
C1520 H1524 0.930 . S
C1521 C1520 1.369 . S
C1521 C1530 1.429 . S
C1522 C1520 1.419 . S
C1522 C1523 1.363 . S
C1522 H1525 0.929 . S
C1523 C1522 1.363 . S
C1523 C1529 1.428 . S
H1524 C1520 0.930 . S
H1525 C1522 0.929 . S
S1526 N1527 1.613 . S
S1526 N1528 1.610 . S
N1527 S1526 1.613 . S
N1527 C1530 1.350 . S
N1528 S1526 1.610 . S
N1528 C1529 1.351 . S
C1529 C1523 1.428 . S
C1529 N1528 1.351 . S
C1529 C1530 1.434 . S
C1530 C1521 1.429 . S
C1530 N1527 1.350 . S
C1530 C1529 1.434 . S
C1531 C1532 1.369 . S
C1531 C1533 1.419 . S
C1531 H1535 0.930 . S
C1532 C1531 1.369 . S
C1532 C1541 1.429 . S
C1533 C1531 1.419 . S
C1533 C1534 1.363 . S
C1533 H1536 0.929 . S
C1534 C1533 1.363 . S
C1534 C1540 1.428 . S
H1535 C1531 0.930 . S
H1536 C1533 0.929 . S
S1537 N1538 1.613 . S
S1537 N1539 1.610 . S
N1538 S1537 1.613 . S
N1538 C1541 1.350 . S
N1539 S1537 1.610 . S
N1539 C1540 1.351 . S
C1540 C1534 1.428 . S
C1540 N1539 1.351 . S
C1540 C1541 1.434 . S
C1541 C1532 1.429 . S
C1541 N1538 1.350 . S
C1541 C1540 1.434 . S
C1542 C1543 1.369 . S
C1542 C1544 1.419 . S
C1542 H1546 0.930 . S
C1543 C1542 1.369 . S
C1543 C1552 1.429 . S
C1544 C1542 1.419 . S
C1544 C1545 1.363 . S
C1544 H1547 0.929 . S
C1545 C1544 1.363 . S
C1545 C1551 1.428 . S
H1546 C1542 0.930 . S
H1547 C1544 0.929 . S
S1548 N1549 1.613 . S
S1548 N1550 1.610 . S
N1549 S1548 1.613 . S
N1549 C1552 1.350 . S
N1550 S1548 1.610 . S
N1550 C1551 1.351 . S
C1551 C1545 1.428 . S
C1551 N1550 1.351 . S
C1551 C1552 1.434 . S
C1552 C1543 1.429 . S
C1552 N1549 1.350 . S
C1552 C1551 1.434 . S
C1553 C1554 1.369 . S
C1553 C1555 1.419 . S
C1553 H1557 0.930 . S
C1554 C1553 1.369 . S
C1554 C1563 1.429 . S
C1555 C1553 1.419 . S
C1555 C1556 1.363 . S
C1555 H1558 0.929 . S
C1556 C1555 1.363 . S
C1556 C1562 1.428 . S
H1557 C1553 0.930 . S
H1558 C1555 0.929 . S
S1559 N1560 1.613 . S
S1559 N1561 1.610 . S
N1560 S1559 1.613 . S
N1560 C1563 1.350 . S
N1561 S1559 1.610 . S
N1561 C1562 1.351 . S
C1562 C1556 1.428 . S
C1562 N1561 1.351 . S
C1562 C1563 1.434 . S
C1563 C1554 1.429 . S
C1563 N1560 1.350 . S
C1563 C1562 1.434 . S
C1564 C1565 1.369 . S
C1564 C1566 1.419 . S
C1564 H1568 0.930 . S
C1565 C1564 1.369 . S
C1565 C1574 1.429 . S
C1566 C1564 1.419 . S
C1566 C1567 1.363 . S
C1566 H1569 0.929 . S
C1567 C1566 1.363 . S
C1567 C1573 1.428 . S
H1568 C1564 0.930 . S
H1569 C1566 0.929 . S
S1570 N1571 1.613 . S
S1570 N1572 1.610 . S
N1571 S1570 1.613 . S
N1571 C1574 1.350 . S
N1572 S1570 1.610 . S
N1572 C1573 1.351 . S
C1573 C1567 1.428 . S
C1573 N1572 1.351 . S
C1573 C1574 1.434 . S
C1574 C1565 1.429 . S
C1574 N1571 1.350 . S
C1574 C1573 1.434 . S
C1575 C1576 1.369 . S
C1575 C1577 1.419 . S
C1575 H1579 0.930 . S
C1576 C1575 1.369 . S
C1576 C1585 1.429 . S
C1577 C1575 1.419 . S
C1577 C1578 1.363 . S
C1577 H1580 0.929 . S
C1578 C1577 1.363 . S
C1578 C1584 1.428 . S
H1579 C1575 0.930 . S
H1580 C1577 0.929 . S
S1581 N1582 1.613 . S
S1581 N1583 1.610 . S
N1582 S1581 1.613 . S
N1582 C1585 1.350 . S
N1583 S1581 1.610 . S
N1583 C1584 1.351 . S
C1584 C1578 1.428 . S
C1584 N1583 1.351 . S
C1584 C1585 1.434 . S
C1585 C1576 1.429 . S
C1585 N1582 1.350 . S
C1585 C1584 1.434 . S
C1586 C1587 1.369 . S
C1586 C1588 1.419 . S
C1586 H1590 0.930 . S
C1587 C1586 1.369 . S
C1587 C1596 1.429 . S
C1588 C1586 1.419 . S
C1588 C1589 1.363 . S
C1588 H1591 0.929 . S
C1589 C1588 1.363 . S
C1589 C1595 1.428 . S
H1590 C1586 0.930 . S
H1591 C1588 0.929 . S
S1592 N1593 1.613 . S
S1592 N1594 1.610 . S
N1593 S1592 1.613 . S
N1593 C1596 1.350 . S
N1594 S1592 1.610 . S
N1594 C1595 1.351 . S
C1595 C1589 1.428 . S
C1595 N1594 1.351 . S
C1595 C1596 1.434 . S
C1596 C1587 1.429 . S
C1596 N1593 1.350 . S
C1596 C1595 1.434 . S
C1597 C1598 1.369 . S
C1597 C1599 1.419 . S
C1597 H1601 0.930 . S
C1598 C1597 1.369 . S
C1598 C1607 1.429 . S
C1599 C1597 1.419 . S
C1599 C1600 1.363 . S
C1599 H1602 0.929 . S
C1600 C1599 1.363 . S
C1600 C1606 1.428 . S
H1601 C1597 0.930 . S
H1602 C1599 0.929 . S
S1603 N1604 1.613 . S
S1603 N1605 1.610 . S
N1604 S1603 1.613 . S
N1604 C1607 1.350 . S
N1605 S1603 1.610 . S
N1605 C1606 1.351 . S
C1606 C1600 1.428 . S
C1606 N1605 1.351 . S
C1606 C1607 1.434 . S
C1607 C1598 1.429 . S
C1607 N1604 1.350 . S
C1607 C1606 1.434 . S
C1608 C1609 1.369 . S
C1608 C1610 1.419 . S
C1608 H1612 0.930 . S
C1609 C1608 1.369 . S
C1609 C1618 1.429 . S
C1610 C1608 1.419 . S
C1610 C1611 1.363 . S
C1610 H1613 0.929 . S
C1611 C1610 1.363 . S
C1611 C1617 1.428 . S
H1612 C1608 0.930 . S
H1613 C1610 0.929 . S
S1614 N1615 1.613 . S
S1614 N1616 1.610 . S
N1615 S1614 1.613 . S
N1615 C1618 1.350 . S
N1616 S1614 1.610 . S
N1616 C1617 1.351 . S
C1617 C1611 1.428 . S
C1617 N1616 1.351 . S
C1617 C1618 1.434 . S
C1618 C1609 1.429 . S
C1618 N1615 1.350 . S
C1618 C1617 1.434 . S
C1619 C1620 1.369 . S
C1619 C1621 1.419 . S
C1619 H1623 0.930 . S
C1620 C1619 1.369 . S
C1620 C1629 1.429 . S
C1621 C1619 1.419 . S
C1621 C1622 1.363 . S
C1621 H1624 0.929 . S
C1622 C1621 1.363 . S
C1622 C1628 1.428 . S
H1623 C1619 0.930 . S
H1624 C1621 0.929 . S
S1625 N1626 1.613 . S
S1625 N1627 1.610 . S
N1626 S1625 1.613 . S
N1626 C1629 1.350 . S
N1627 S1625 1.610 . S
N1627 C1628 1.351 . S
C1628 C1622 1.428 . S
C1628 N1627 1.351 . S
C1628 C1629 1.434 . S
C1629 C1620 1.429 . S
C1629 N1626 1.350 . S
C1629 C1628 1.434 . S
C1630 C1631 1.369 . S
C1630 C1632 1.419 . S
C1630 H1634 0.930 . S
C1631 C1630 1.369 . S
C1631 C1640 1.429 . S
C1632 C1630 1.419 . S
C1632 C1633 1.363 . S
C1632 H1635 0.929 . S
C1633 C1632 1.363 . S
C1633 C1639 1.428 . S
H1634 C1630 0.930 . S
H1635 C1632 0.929 . S
S1636 N1637 1.613 . S
S1636 N1638 1.610 . S
N1637 S1636 1.613 . S
N1637 C1640 1.350 . S
N1638 S1636 1.610 . S
N1638 C1639 1.351 . S
C1639 C1633 1.428 . S
C1639 N1638 1.351 . S
C1639 C1640 1.434 . S
C1640 C1631 1.429 . S
C1640 N1637 1.350 . S
C1640 C1639 1.434 . S
C1641 C1642 1.369 . S
C1641 C1643 1.419 . S
C1641 H1645 0.930 . S
C1642 C1641 1.369 . S
C1642 C1651 1.429 . S
C1643 C1641 1.419 . S
C1643 C1644 1.363 . S
C1643 H1646 0.929 . S
C1644 C1643 1.363 . S
C1644 C1650 1.428 . S
H1645 C1641 0.930 . S
H1646 C1643 0.929 . S
S1647 N1648 1.613 . S
S1647 N1649 1.610 . S
N1648 S1647 1.613 . S
N1648 C1651 1.350 . S
N1649 S1647 1.610 . S
N1649 C1650 1.351 . S
C1650 C1644 1.428 . S
C1650 N1649 1.351 . S
C1650 C1651 1.434 . S
C1651 C1642 1.429 . S
C1651 N1648 1.350 . S
C1651 C1650 1.434 . S
C1652 C1653 1.369 . S
C1652 C1654 1.419 . S
C1652 H1656 0.930 . S
C1653 C1652 1.369 . S
C1653 C1662 1.429 . S
C1654 C1652 1.419 . S
C1654 C1655 1.363 . S
C1654 H1657 0.929 . S
C1655 C1654 1.363 . S
C1655 C1661 1.428 . S
H1656 C1652 0.930 . S
H1657 C1654 0.929 . S
S1658 N1659 1.613 . S
S1658 N1660 1.610 . S
N1659 S1658 1.613 . S
N1659 C1662 1.350 . S
N1660 S1658 1.610 . S
N1660 C1661 1.351 . S
C1661 C1655 1.428 . S
C1661 N1660 1.351 . S
C1661 C1662 1.434 . S
C1662 C1653 1.429 . S
C1662 N1659 1.350 . S
C1662 C1661 1.434 . S
C1663 C1664 1.369 . S
C1663 C1665 1.419 . S
C1663 H1667 0.930 . S
C1664 C1663 1.369 . S
C1664 C1673 1.429 . S
C1665 C1663 1.419 . S
C1665 C1666 1.363 . S
C1665 H1668 0.929 . S
C1666 C1665 1.363 . S
C1666 C1672 1.428 . S
H1667 C1663 0.930 . S
H1668 C1665 0.929 . S
S1669 N1670 1.613 . S
S1669 N1671 1.610 . S
N1670 S1669 1.613 . S
N1670 C1673 1.350 . S
N1671 S1669 1.610 . S
N1671 C1672 1.351 . S
C1672 C1666 1.428 . S
C1672 N1671 1.351 . S
C1672 C1673 1.434 . S
C1673 C1664 1.429 . S
C1673 N1670 1.350 . S
C1673 C1672 1.434 . S
C1674 C1675 1.369 . S
C1674 C1676 1.419 . S
C1674 H1678 0.930 . S
C1675 C1674 1.369 . S
C1675 C1684 1.429 . S
C1676 C1674 1.419 . S
C1676 C1677 1.363 . S
C1676 H1679 0.929 . S
C1677 C1676 1.363 . S
C1677 C1683 1.428 . S
H1678 C1674 0.930 . S
H1679 C1676 0.929 . S
S1680 N1681 1.613 . S
S1680 N1682 1.610 . S
N1681 S1680 1.613 . S
N1681 C1684 1.350 . S
N1682 S1680 1.610 . S
N1682 C1683 1.351 . S
C1683 C1677 1.428 . S
C1683 N1682 1.351 . S
C1683 C1684 1.434 . S
C1684 C1675 1.429 . S
C1684 N1681 1.350 . S
C1684 C1683 1.434 . S
C1685 C1686 1.369 . S
C1685 C1687 1.419 . S
C1685 H1689 0.930 . S
C1686 C1685 1.369 . S
C1686 C1695 1.429 . S
C1687 C1685 1.419 . S
C1687 C1688 1.363 . S
C1687 H1690 0.929 . S
C1688 C1687 1.363 . S
C1688 C1694 1.428 . S
H1689 C1685 0.930 . S
H1690 C1687 0.929 . S
S1691 N1692 1.613 . S
S1691 N1693 1.610 . S
N1692 S1691 1.613 . S
N1692 C1695 1.350 . S
N1693 S1691 1.610 . S
N1693 C1694 1.351 . S
C1694 C1688 1.428 . S
C1694 N1693 1.351 . S
C1694 C1695 1.434 . S
C1695 C1686 1.429 . S
C1695 N1692 1.350 . S
C1695 C1694 1.434 . S
C641 C5 1.609 . S
C643 C94 1.614 . S
C652 C114 1.607 . S
C654 C34 1.609 . S
C663 C134 1.609 . S
C665 C54 1.615 . S
C674 C74 1.627 . S
C676 C145 1.615 . S
C685 C174 1.616 . S
C687 C254 1.610 . S
C696 C194 1.608 . S
C698 C274 1.614 . S
C707 C214 1.610 . S
C709 C294 1.616 . S
C718 C314 1.619 . S
C720 C234 1.608 . S
C729 C325 1.611 . S
C731 C414 1.616 . S
C740 C434 1.607 . S
C742 C354 1.619 . S
C751 C374 1.611 . S
C753 C454 1.608 . S
C762 C465 1.619 . S
C764 C394 1.616 . S
C773 C494 1.612 . S
C775 C574 1.608 . S
C784 C514 1.619 . S
C786 C594 1.608 . S
C795 C534 1.607 . S
C797 C614 1.613 . S
C806 C554 1.609 . S
C808 C634 1.616 . S
C817 C482 2.695 . S
C819 C13 2.691 . S
C828 C182 2.696 . S
C830 C22 2.690 . S
C839 C42 2.694 . S
C841 C522 2.692 . S
C850 C62 2.693 . S
C852 C222 2.692 . S
C861 C82 2.692 . S
C863 C562 2.693 . S
C872 C102 2.692 . S
C874 C262 2.692 . S
C883 C602 2.692 . S
C885 C122 2.693 . S
C894 C302 2.691 . S
C896 C153 2.693 . S
C905 C333 2.691 . S
C907 C162 2.694 . S
C916 C202 2.691 . S
C918 C362 2.693 . S
C927 C242 2.689 . S
C929 C402 2.695 . S
C938 C442 2.689 . S
C940 C282 2.695 . S
C949 C342 2.689 . S
C951 C502 2.695 . S
C960 C542 2.696 . S
C962 C382 2.690 . S
C971 C582 2.696 . S
C973 C422 2.690 . S
C982 C473 2.695 . S
C984 C622 2.690 . S
C993 C14 1.304 . S
C995 C553 1.347 . S
C1004 C25 1.307 . S
C1006 C173 1.343 . S
C1015 C45 1.307 . S
C1017 C513 1.346 . S
C1026 C213 1.343 . S
C1028 C65 1.305 . S
C1037 C593 1.345 . S
C1039 C85 1.300 . S
C1048 C105 1.307 . S
C1050 C293 1.346 . S
C1059 C633 1.344 . S
C1061 C125 1.302 . S
C1070 C253 1.346 . S
C1072 C154 1.306 . S
C1081 C393 1.343 . S
C1083 C165 1.304 . S
C1092 C185 1.305 . S
C1094 C2 1.347 . S
C1103 C353 1.345 . S
C1105 C205 1.300 . S
C1114 C53 1.345 . S
C1116 C225 1.300 . S
C1125 C433 1.348 . S
C1127 C245 1.300 . S
C1136 C265 1.307 . S
C1138 C133 1.346 . S
C1147 C285 1.300 . S
C1149 C462 1.344 . S
C1158 C93 1.342 . S
C1160 C305 1.306 . S
C1169 C334 1.309 . S
C1171 C233 1.344 . S
C1180 C345 1.306 . S
C1182 C493 1.343 . S
C1191 C193 1.343 . S
C1193 C365 1.304 . S
C1202 C385 1.306 . S
C1204 C533 1.346 . S
C1213 C273 1.343 . S
C1215 C405 1.308 . S
C1224 C425 1.307 . S
C1226 C613 1.343 . S
C1235 C313 1.346 . S
C1237 C445 1.300 . S
C1246 C474 1.299 . S
C1248 C573 1.347 . S
C1257 C73 1.342 . S
C1259 C485 1.305 . S
C1268 C505 1.305 . S
C1270 C322 1.347 . S
C1279 C525 1.299 . S
C1281 C33 1.347 . S
C1290 C373 1.345 . S
C1292 C545 1.300 . S
C1301 C113 1.348 . S
C1303 C565 1.300 . S
C1312 C453 1.347 . S
C1314 C585 1.300 . S
C1323 C605 1.303 . S
C1325 C142 1.343 . S
C1334 C413 1.346 . S
C1336 C625 1.300 . S
C1345 C17 1.804 . S
C1347 C368 1.806 . S
C1356 C28 1.804 . S
C1358 C388 1.806 . S
C1367 C48 1.808 . S
C1369 C337 1.806 . S
C1378 C68 1.813 . S
C1380 C348 1.810 . S
C1389 C448 1.813 . S
C1391 C88 1.810 . S
C1400 C477 1.804 . S
C1402 C108 1.807 . S
C1411 C128 1.808 . S
C1413 C408 1.811 . S
C1422 C428 1.813 . S
C1424 C157 1.813 . S
C1433 C528 1.804 . S
C1435 C168 1.805 . S
C1444 C548 1.812 . S
C1446 C188 1.810 . S
C1455 C488 1.804 . S
C1457 C208 1.805 . S
C1466 C228 1.809 . S
C1468 C508 1.807 . S
C1477 C248 1.804 . S
C1479 C608 1.805 . S
C1488 C628 1.814 . S
C1490 C268 1.812 . S
C1499 C568 1.806 . S
C1501 C288 1.808 . S
C1510 C308 1.804 . S
C1512 C588 1.806 . S
C1521 C148 3.046 . S
C1523 C8 3.045 . S
C1532 C37 3.041 . S
C1534 C97 3.041 . S
C1543 C57 3.040 . S
C1545 C117 3.045 . S
C1554 C137 3.047 . S
C1556 C77 3.043 . S
C1565 C317 3.043 . S
C1567 C177 3.040 . S
C1576 C197 3.040 . S
C1578 C257 3.042 . S
C1587 C277 3.046 . S
C1589 C217 3.041 . S
C1598 C297 3.041 . S
C1600 C237 3.041 . S
C1609 C468 3.047 . S
C1611 C328 3.043 . S
C1620 C417 3.040 . S
C1622 C357 3.041 . S
C1631 C437 3.040 . S
C1633 C377 3.043 . S
C1642 C397 3.040 . S
C1644 C457 3.044 . S
C1653 C637 3.040 . S
C1655 C497 3.042 . S
C1664 C577 3.039 . S
C1666 C517 3.043 . S
C1675 C597 3.040 . S
C1677 C537 3.044 . S
C1686 C557 3.040 . S
C1688 C617 3.044 . S
