# Generated by pormake.
# Topology upc, (4)-cn, num edge types: 1
# Building blocks:
#     Node 0, Type 0, BuildingBlock: CEKHIL_clean_sbu_0, # of connection points: 4
#     Node 1, Type 0, BuildingBlock: CEKHIL_clean_sbu_0, # of connection points: 4
#     Node 2, Type 0, BuildingBlock: CEKHIL_clean_sbu_0, # of connection points: 4
#     Node 3, Type 0, BuildingBlock: CEKHIL_clean_sbu_0, # of connection points: 4
#     Node 4, Type 0, BuildingBlock: CEKHIL_clean_sbu_0, # of connection points: 4
#     Node 5, Type 0, BuildingBlock: CEKHIL_clean_sbu_0, # of connection points: 4
#     Node 6, Type 0, BuildingBlock: CEKHIL_clean_sbu_0, # of connection points: 4
#     Node 7, Type 0, BuildingBlock: CEKHIL_clean_sbu_0, # of connection points: 4
#     Node 8, Type 0, BuildingBlock: CEKHIL_clean_sbu_0, # of connection points: 4
#     Node 9, Type 0, BuildingBlock: CEKHIL_clean_sbu_0, # of connection points: 4
#     Node 10, Type 0, BuildingBlock: CEKHIL_clean_sbu_0, # of connection points: 4
#     Node 11, Type 0, BuildingBlock: CEKHIL_clean_sbu_0, # of connection points: 4
#     Node 12, Type 0, BuildingBlock: CEKHIL_clean_sbu_0, # of connection points: 4
#     Node 13, Type 0, BuildingBlock: CEKHIL_clean_sbu_0, # of connection points: 4
#     Node 14, Type 0, BuildingBlock: CEKHIL_clean_sbu_0, # of connection points: 4
#     Node 15, Type 0, BuildingBlock: CEKHIL_clean_sbu_0, # of connection points: 4
#     Edge 16, Type (0, 0), BuildingBlock: XUDNAN_clean_linker_2, # of connection points: 2
#     Edge 17, Type (0, 0), BuildingBlock: XUDNAN_clean_linker_2, # of connection points: 2
#     Edge 18, Type (0, 0), BuildingBlock: XUDNAN_clean_linker_2, # of connection points: 2
#     Edge 19, Type (0, 0), BuildingBlock: XUDNAN_clean_linker_2, # of connection points: 2
#     Edge 20, Type (0, 0), BuildingBlock: XUDNAN_clean_linker_2, # of connection points: 2
#     Edge 21, Type (0, 0), BuildingBlock: XUDNAN_clean_linker_2, # of connection points: 2
#     Edge 22, Type (0, 0), BuildingBlock: XUDNAN_clean_linker_2, # of connection points: 2
#     Edge 23, Type (0, 0), BuildingBlock: XUDNAN_clean_linker_2, # of connection points: 2
#     Edge 24, Type (0, 0), BuildingBlock: XUDNAN_clean_linker_2, # of connection points: 2
#     Edge 25, Type (0, 0), BuildingBlock: XUDNAN_clean_linker_2, # of connection points: 2
#     Edge 26, Type (0, 0), BuildingBlock: XUDNAN_clean_linker_2, # of connection points: 2
#     Edge 27, Type (0, 0), BuildingBlock: XUDNAN_clean_linker_2, # of connection points: 2
#     Edge 28, Type (0, 0), BuildingBlock: XUDNAN_clean_linker_2, # of connection points: 2
#     Edge 29, Type (0, 0), BuildingBlock: XUDNAN_clean_linker_2, # of connection points: 2
#     Edge 30, Type (0, 0), BuildingBlock: XUDNAN_clean_linker_2, # of connection points: 2
#     Edge 31, Type (0, 0), BuildingBlock: XUDNAN_clean_linker_2, # of connection points: 2
#     Edge 32, Type (0, 0), BuildingBlock: XUDNAN_clean_linker_2, # of connection points: 2
#     Edge 33, Type (0, 0), BuildingBlock: XUDNAN_clean_linker_2, # of connection points: 2
#     Edge 34, Type (0, 0), BuildingBlock: XUDNAN_clean_linker_2, # of connection points: 2
#     Edge 35, Type (0, 0), BuildingBlock: XUDNAN_clean_linker_2, # of connection points: 2
#     Edge 36, Type (0, 0), BuildingBlock: XUDNAN_clean_linker_2, # of connection points: 2
#     Edge 37, Type (0, 0), BuildingBlock: XUDNAN_clean_linker_2, # of connection points: 2
#     Edge 38, Type (0, 0), BuildingBlock: XUDNAN_clean_linker_2, # of connection points: 2
#     Edge 39, Type (0, 0), BuildingBlock: XUDNAN_clean_linker_2, # of connection points: 2
#     Edge 40, Type (0, 0), BuildingBlock: XUDNAN_clean_linker_2, # of connection points: 2
#     Edge 41, Type (0, 0), BuildingBlock: XUDNAN_clean_linker_2, # of connection points: 2
#     Edge 42, Type (0, 0), BuildingBlock: XUDNAN_clean_linker_2, # of connection points: 2
#     Edge 43, Type (0, 0), BuildingBlock: XUDNAN_clean_linker_2, # of connection points: 2
#     Edge 44, Type (0, 0), BuildingBlock: XUDNAN_clean_linker_2, # of connection points: 2
#     Edge 45, Type (0, 0), BuildingBlock: XUDNAN_clean_linker_2, # of connection points: 2
#     Edge 46, Type (0, 0), BuildingBlock: XUDNAN_clean_linker_2, # of connection points: 2
#     Edge 47, Type (0, 0), BuildingBlock: XUDNAN_clean_linker_2, # of connection points: 2
# Relax obj value: 0.268
# Max RMSD: 0.292
# Mean RMSD: 0.292
data_MOF--net-upc--node1-CEKHIL_clean_sbu_0--edge1-XUDNAN_clean_linker_2
_symmetry_space_group_name_H-M    P1
_symmetry_Int_Tables_number       1
_symmetry_cell_setting            triclinic
loop_
_symmetry_equiv_pos_as_xyz
'x, y, z'
_cell_length_a     33.1349
_cell_length_b     33.125501
_cell_length_c     42.963456
_cell_angle_alpha  90.048605
_cell_angle_beta   90.09425
_cell_angle_gamma 89.978315
loop_
_atom_site_label
_atom_site_type_symbol
_atom_site_fract_x
_atom_site_fract_y
_atom_site_fract_z
_atom_type_partial_charge
Co0 Co 0.12002 0.60191 0.11538 0.0
O1 O 0.12663 0.57034 0.07824 0.0
O2 O 0.06886 0.59757 0.09307 0.0
C3 C 0.17505 0.64131 0.10944 0.0
O4 O 0.10309 0.63765 0.15182 0.0
Co5 Co 0.18636 0.59395 0.16663 0.0
O6 O 0.15486 0.63814 0.18601 0.0
C7 C 0.1225 0.53275 0.16332 0.0
C8 C 0.08867 0.57635 0.07261 0.0
C9 C 0.12 0.64989 0.17717 0.0
O10 O 0.10624 0.55218 0.14053 0.0
O11 O 0.15627 0.54283 0.17555 0.0
O12 O 0.14182 0.64977 0.09473 0.0
O13 O 0.17543 0.60696 0.12362 0.0
Co14 Co 0.90112 0.10546 0.11488 0.0
O15 O 0.93362 0.11567 0.07869 0.0
O16 O 0.92093 0.05499 0.09788 0.0
C17 C 0.84843 0.14565 0.10273 0.0
O18 O 0.86783 0.08364 0.15115 0.0
Co19 Co 0.88561 0.17695 0.16067 0.0
O20 O 0.85009 0.13701 0.1809 0.0
C21 C 0.9617 0.13194 0.16526 0.0
C22 C 0.93845 0.07688 0.07669 0.0
C23 C 0.84918 0.09946 0.17446 0.0
O24 O 0.95031 0.10931 0.14255 0.0
O25 O 0.94094 0.16161 0.17559 0.0
O26 O 0.85193 0.11002 0.09041 0.0
O27 O 0.87961 0.15799 0.11827 0.0
Co28 Co 0.40199 0.92494 0.12631 0.0
O29 O 0.38979 0.95624 0.08984 0.0
O30 O 0.45151 0.94318 0.10678 0.0
C31 C 0.36021 0.87265 0.11639 0.0
O32 O 0.42595 0.89238 0.16213 0.0
Co33 Co 0.33375 0.91044 0.17482 0.0
O34 O 0.37505 0.87578 0.19453 0.0
C35 C 0.38082 0.98569 0.17787 0.0
C36 C 0.42842 0.95978 0.08584 0.0
C37 C 0.41203 0.87455 0.18646 0.0
O38 O 0.40082 0.97493 0.15354 0.0
O39 O 0.352 0.9649 0.18944 0.0
O40 O 0.39533 0.87484 0.10319 0.0
O41 O 0.34919 0.90446 0.13167 0.0
Co42 Co 0.5692 0.36944 0.13324 0.0
O43 O 0.52925 0.35969 0.10177 0.0
O44 O 0.55889 0.41862 0.10994 0.0
C45 C 0.60765 0.31503 0.12361 0.0
O46 O 0.61342 0.38969 0.16233 0.0
Co47 Co 0.57696 0.30869 0.18807 0.0
O48 O 0.6249 0.34143 0.19835 0.0
C49 C 0.51356 0.37031 0.19052 0.0
C50 C 0.53375 0.39709 0.09356 0.0
C51 C 0.63306 0.37516 0.18564 0.0
O52 O 0.52583 0.38441 0.16428 0.0
O53 O 0.52891 0.33927 0.20365 0.0
O54 O 0.611 0.34717 0.10662 0.0
O55 O 0.5779 0.3146 0.14312 0.0
Co56 Co 0.11791 0.9349 0.36433 0.0
O57 O 0.12523 0.97787 0.3939 0.0
O58 O 0.06613 0.95183 0.38072 0.0
C59 C 0.16681 0.89429 0.38351 0.0
O60 O 0.09893 0.8895 0.33553 0.0
Co61 Co 0.18784 0.91317 0.31877 0.0
O62 O 0.15339 0.86563 0.31001 0.0
C63 C 0.13579 0.9835 0.30527 0.0
C64 C 0.08644 0.9771 0.39786 0.0
C65 C 0.11627 0.86377 0.31746 0.0
O66 O 0.11357 0.97494 0.32896 0.0
O67 O 0.16822 0.96426 0.29868 0.0
O68 O 0.13145 0.89526 0.39639 0.0
O69 O 0.17273 0.92056 0.36178 0.0
Co70 Co 0.59452 0.11253 0.37678 0.0
O71 O 0.55852 0.12386 0.41076 0.0
O72 O 0.57209 0.06267 0.39299 0.0
C73 C 0.64613 0.15218 0.39287 0.0
O74 O 0.63134 0.08941 0.34323 0.0
Co75 Co 0.62036 0.18199 0.33228 0.0
O76 O 0.66318 0.14247 0.32153 0.0
C77 C 0.54212 0.14103 0.32201 0.0
C78 C 0.55359 0.08516 0.41333 0.0
C79 C 0.6591 0.10464 0.32595 0.0
O80 O 0.54911 0.11733 0.34524 0.0
O81 O 0.56561 0.17015 0.31452 0.0
O82 O 0.64117 0.11638 0.40449 0.0
O83 O 0.61726 0.16464 0.37504 0.0
Co84 Co 0.39507 0.61493 0.37887 0.0
O85 O 0.38002 0.57662 0.4104 0.0
O86 O 0.44288 0.59283 0.39824 0.0
C87 C 0.35142 0.66381 0.39351 0.0
O88 O 0.42233 0.65416 0.34899 0.0
Co89 Co 0.33201 0.64232 0.32913 0.0
O90 O 0.37408 0.68276 0.31921 0.0
C91 C 0.37261 0.56336 0.32224 0.0
C92 C 0.41833 0.5727 0.416 0.0
C93 C 0.4104 0.68006 0.32868 0.0
O94 O 0.39543 0.57117 0.34584 0.0
O95 O 0.3436 0.58641 0.31369 0.0
O96 O 0.38542 0.65928 0.40811 0.0
O97 O 0.34321 0.63654 0.37297 0.0
Co98 Co 0.9122 0.39053 0.37147 0.0
O99 O 0.94632 0.4006 0.40711 0.0
O100 O 0.91161 0.44736 0.38189 0.0
C101 C 0.87827 0.33654 0.39005 0.0
O102 O 0.87322 0.39152 0.33491 0.0
Co103 Co 0.92208 0.30985 0.33461 0.0
O104 O 0.87802 0.33267 0.30862 0.0
C105 C 0.97564 0.37829 0.32032 0.0
C106 C 0.93569 0.4382 0.40477 0.0
C107 C 0.86313 0.36781 0.3125 0.0
O108 O 0.95812 0.39994 0.34123 0.0
O109 O 0.9676 0.34102 0.31564 0.0
O110 O 0.86814 0.37286 0.39827 0.0
O111 O 0.9118 0.33373 0.37485 0.0
Co112 Co 0.88296 0.41513 0.8766 0.0
O113 O 0.88884 0.45235 0.91114 0.0
O114 O 0.93901 0.42889 0.88244 0.0
C115 C 0.84223 0.36777 0.89819 0.0
O116 O 0.88891 0.37528 0.84084 0.0
Co117 Co 0.79931 0.40564 0.84499 0.0
O118 O 0.82555 0.35665 0.82825 0.0
C119 C 0.85216 0.47161 0.82442 0.0
C120 C 0.9274 0.45108 0.90573 0.0
C121 C 0.86368 0.35199 0.8268 0.0
O122 O 0.8778 0.46109 0.84549 0.0
O123 O 0.81789 0.4543 0.82115 0.0
O124 O 0.88036 0.36952 0.90496 0.0
O125 O 0.82853 0.39956 0.88391 0.0
Co126 Co 0.08456 0.87053 0.87454 0.0
O127 O 0.05015 0.87951 0.91011 0.0
O128 O 0.08965 0.92558 0.88858 0.0
C129 C 0.11416 0.812 0.8887 0.0
O130 O 0.12472 0.87225 0.83926 0.0
Co131 Co 0.06696 0.79789 0.83108 0.0
O132 O 0.12057 0.81291 0.81397 0.0
C133 C 0.02137 0.87246 0.82148 0.0
C134 C 0.06368 0.91633 0.91008 0.0
C135 C 0.13744 0.84694 0.81885 0.0
O136 O 0.04079 0.88807 0.84453 0.0
O137 O 0.02509 0.83549 0.81335 0.0
O138 O 0.12619 0.84608 0.90039 0.0
O139 O 0.08036 0.81362 0.87342 0.0
Co140 Co 0.6222 0.08001 0.86698 0.0
O141 O 0.61627 0.05158 0.90595 0.0
O142 O 0.56598 0.07718 0.87831 0.0
C143 C 0.67304 0.12243 0.88064 0.0
O144 O 0.61634 0.11202 0.82735 0.0
Co145 Co 0.70114 0.07051 0.82906 0.0
O146 O 0.67594 0.11248 0.80238 0.0
C147 C 0.6389 0.008 0.82311 0.0
C148 C 0.57778 0.05822 0.90321 0.0
C149 C 0.63918 0.1234 0.80493 0.0
O150 O 0.61622 0.02835 0.84178 0.0
O151 O 0.67537 0.01783 0.817 0.0
O152 O 0.63608 0.13 0.88865 0.0
O153 O 0.67895 0.08681 0.86891 0.0
Co154 Co 0.39366 0.5789 0.87494 0.0
O155 O 0.42409 0.57814 0.91357 0.0
O156 O 0.40634 0.52434 0.88618 0.0
C157 C 0.34325 0.62152 0.88899 0.0
O158 O 0.36101 0.56602 0.83619 0.0
Co159 Co 0.38553 0.6557 0.83466 0.0
O160 O 0.33941 0.62538 0.81705 0.0
C161 C 0.45737 0.60445 0.82685 0.0
C162 C 0.42353 0.539 0.91089 0.0
C163 C 0.33809 0.58703 0.81841 0.0
O164 O 0.44494 0.582 0.84933 0.0
O165 O 0.4383 0.63574 0.81742 0.0
O166 O 0.34339 0.58404 0.89772 0.0
O167 O 0.37656 0.63381 0.87614 0.0
Co168 Co 0.8841 0.09849 0.61099 0.0
O169 O 0.89192 0.07015 0.57225 0.0
O170 O 0.93958 0.10324 0.59791 0.0
C171 C 0.82778 0.13332 0.59915 0.0
O172 O 0.88689 0.13199 0.65037 0.0
Co173 Co 0.80964 0.07704 0.65115 0.0
O174 O 0.82767 0.12478 0.67532 0.0
C175 C 0.88228 0.02748 0.6576 0.0
C176 C 0.92924 0.08198 0.57371 0.0
C177 C 0.86238 0.14099 0.67247 0.0
O178 O 0.89874 0.04904 0.63616 0.0
O179 O 0.8455 0.03186 0.66597 0.0
O180 O 0.86281 0.14536 0.58947 0.0
O181 O 0.82696 0.09716 0.61083 0.0
Co182 Co 0.41585 0.88214 0.62058 0.0
O183 O 0.44681 0.89036 0.58312 0.0
O184 O 0.42298 0.93925 0.61302 0.0
C185 C 0.36942 0.83684 0.60347 0.0
O186 O 0.38152 0.88421 0.65972 0.0
Co187 Co 0.42337 0.79798 0.65137 0.0
O188 O 0.37762 0.81947 0.67574 0.0
C189 C 0.48555 0.85752 0.66513 0.0
C190 C 0.44236 0.92879 0.58795 0.0
C191 C 0.36691 0.85641 0.67734 0.0
O192 O 0.46619 0.88249 0.64766 0.0
O193 O 0.47542 0.82046 0.66796 0.0
O194 O 0.36683 0.87477 0.59639 0.0
O195 O 0.40452 0.82637 0.61451 0.0
Co196 Co 0.60421 0.41378 0.62183 0.0
O197 O 0.59933 0.45338 0.58923 0.0
O198 O 0.54811 0.42581 0.61459 0.0
C199 C 0.64758 0.3701 0.59899 0.0
O200 O 0.59764 0.37061 0.65494 0.0
Co201 Co 0.68615 0.40413 0.6558 0.0
O202 O 0.66103 0.35226 0.66765 0.0
C203 C 0.63089 0.46774 0.67694 0.0
C204 C 0.56054 0.44974 0.59264 0.0
C205 C 0.62305 0.34618 0.66748 0.0
O206 O 0.60618 0.45723 0.65521 0.0
O207 O 0.66563 0.45141 0.68037 0.0
O208 O 0.60979 0.37109 0.59122 0.0
O209 O 0.65943 0.40079 0.61558 0.0
Co210 Co 0.07438 0.6228 0.62303 0.0
O211 O 0.04097 0.63405 0.58732 0.0
O212 O 0.06261 0.57331 0.6007 0.0
C213 C 0.12083 0.67259 0.61611 0.0
O214 O 0.1102 0.59991 0.65704 0.0
Co215 Co 0.08031 0.68716 0.67582 0.0
O216 O 0.12057 0.64891 0.69264 0.0
C217 C 0.01244 0.62969 0.67637 0.0
C218 C 0.04235 0.59567 0.58129 0.0
C219 C 0.12641 0.61338 0.68217 0.0
O220 O 0.025 0.61413 0.65056 0.0
O221 O 0.02948 0.65985 0.68956 0.0
O222 O 0.12319 0.63917 0.60042 0.0
O223 O 0.08787 0.67698 0.63189 0.0
H224 H 0.17082 0.72369 0.10503 0.0
H225 H 0.25429 0.6249 0.12085 0.0
H226 H 0.31055 0.6737 0.12527 0.0
H227 H 0.23603 0.78676 0.06015 0.0
H228 H 0.21898 0.83323 0.0776 0.0
H229 H 0.18546 0.79054 0.0753 0.0
H230 H 0.17455 0.79365 0.13497 0.0
H231 H 0.20807 0.83636 0.13746 0.0
H232 H 0.21763 0.792 0.16061 0.0
H233 H 0.35799 0.73266 0.12456 0.0
H234 H 0.39312 0.79842 0.12321 0.0
H235 H 0.27834 0.85983 0.11268 0.0
C236 C 0.201 0.7124 0.10929 0.0
C237 C 0.20846 0.67056 0.11222 0.0
C238 C 0.2481 0.65686 0.1184 0.0
C239 C 0.28017 0.68432 0.12093 0.0
C240 C 0.27187 0.7254 0.11786 0.0
C241 C 0.2332 0.73948 0.11261 0.0
C242 C 0.23235 0.78524 0.11111 0.0
C243 C 0.21732 0.79978 0.07914 0.0
C244 C 0.20663 0.80284 0.13762 0.0
C245 C 0.27673 0.79468 0.11574 0.0
C246 C 0.29898 0.75964 0.11931 0.0
C247 C 0.34085 0.7603 0.12216 0.0
C248 C 0.36052 0.79771 0.12124 0.0
C249 C 0.33832 0.83398 0.11803 0.0
C250 C 0.29586 0.83248 0.11561 0.0
H251 H 0.82311 0.20955 0.13938 0.0
H252 H 0.78534 0.13026 0.06428 0.0
H253 H 0.71828 0.16232 0.06402 0.0
H254 H 0.72701 0.20913 0.17982 0.0
H255 H 0.72996 0.26139 0.19134 0.0
H256 H 0.77551 0.23247 0.18592 0.0
H257 H 0.80149 0.28532 0.14629 0.0
H258 H 0.75626 0.31451 0.15196 0.0
H259 H 0.77041 0.29859 0.11335 0.0
H260 H 0.65574 0.20274 0.07112 0.0
H261 H 0.60229 0.25246 0.0836 0.0
H262 H 0.67917 0.30546 0.15428 0.0
C263 C 0.80079 0.19921 0.12276 0.0
C264 C 0.80946 0.16742 0.10181 0.0
C265 C 0.77935 0.15448 0.08059 0.0
C266 C 0.74111 0.17241 0.08031 0.0
C267 C 0.73322 0.20313 0.10155 0.0
C268 C 0.76215 0.21666 0.12231 0.0
C269 C 0.74555 0.25037 0.14256 0.0
C270 C 0.74445 0.23756 0.17695 0.0
C271 C 0.76987 0.28951 0.13826 0.0
C272 C 0.70323 0.25423 0.12932 0.0
C273 C 0.69666 0.22629 0.10595 0.0
C274 C 0.66031 0.22449 0.0896 0.0
C275 C 0.63009 0.25254 0.09692 0.0
C276 C 0.6365 0.28177 0.12032 0.0
C277 C 0.67333 0.28252 0.13687 0.0
H278 H 0.21469 0.85076 0.34404 0.0
H279 H 0.18495 0.86658 0.44144 0.0
H280 H 0.23246 0.81159 0.45534 0.0
H281 H 0.21317 0.74344 0.34823 0.0
H282 H 0.2523 0.7368 0.31957 0.0
H283 H 0.22037 0.78076 0.31818 0.0
H284 H 0.2838 0.82649 0.32 0.0
H285 H 0.31583 0.7826 0.32197 0.0
H286 H 0.3192 0.82103 0.35163 0.0
H287 H 0.28486 0.75536 0.45812 0.0
H288 H 0.32984 0.69656 0.44918 0.0
H289 H 0.31467 0.71081 0.34962 0.0
C290 C 0.21849 0.84297 0.36829 0.0
C291 C 0.19669 0.86314 0.39176 0.0
C292 C 0.2018 0.85157 0.42321 0.0
C293 C 0.22873 0.82052 0.43129 0.0
C294 C 0.24934 0.80068 0.40748 0.0
C295 C 0.24385 0.81098 0.37658 0.0
C296 C 0.26591 0.78218 0.3552 0.0
C297 C 0.23617 0.75945 0.33403 0.0
C298 C 0.2981 0.80443 0.33607 0.0
C299 C 0.28493 0.75422 0.37885 0.0
C300 C 0.27591 0.76594 0.40892 0.0
C301 C 0.29171 0.74566 0.43466 0.0
C302 C 0.31716 0.71241 0.42941 0.0
C303 C 0.3253 0.69911 0.39876 0.0
C304 C 0.30874 0.72016 0.37327 0.0
H305 H 0.79614 0.34087 0.39276 0.0
H306 H 0.89555 0.25575 0.39143 0.0
H307 H 0.84684 0.199 0.3938 0.0
H308 H 0.72944 0.28555 0.4439 0.0
H309 H 0.68464 0.29895 0.4224 0.0
H310 H 0.72744 0.33247 0.42271 0.0
H311 H 0.72912 0.33131 0.36263 0.0
H312 H 0.68637 0.29779 0.36186 0.0
H313 H 0.73244 0.28377 0.34235 0.0
H314 H 0.78681 0.15184 0.39755 0.0
H315 H 0.72047 0.11761 0.39746 0.0
H316 H 0.6604 0.23365 0.39146 0.0
C317 C 0.80767 0.31028 0.39344 0.0
C318 C 0.84959 0.30255 0.3925 0.0
C319 C 0.86352 0.26218 0.39245 0.0
C320 C 0.8361 0.22986 0.39383 0.0
C321 C 0.79488 0.23852 0.39467 0.0
C322 C 0.78073 0.27776 0.3941 0.0
C323 C 0.73502 0.27896 0.39327 0.0
C324 C 0.71815 0.30024 0.4223 0.0
C325 C 0.71983 0.29911 0.36322 0.0
C326 C 0.72552 0.23425 0.39364 0.0
C327 C 0.76046 0.21143 0.39492 0.0
C328 C 0.75932 0.16942 0.39644 0.0
C329 C 0.72153 0.15028 0.39655 0.0
C330 C 0.68546 0.17307 0.39453 0.0
C331 C 0.68758 0.21556 0.39292 0.0
H332 H 0.76043 0.349 0.89092 0.0
H333 H 0.87883 0.29459 0.902 0.0
H334 H 0.84915 0.22717 0.89624 0.0
H335 H 0.707 0.27325 0.93552 0.0
H336 H 0.66283 0.2736 0.91097 0.0
H337 H 0.6934 0.31832 0.91447 0.0
H338 H 0.70196 0.32013 0.85454 0.0
H339 H 0.67164 0.27521 0.85088 0.0
H340 H 0.72178 0.27646 0.83468 0.0
H341 H 0.80755 0.16489 0.88759 0.0
H342 H 0.75504 0.11201 0.88276 0.0
H343 H 0.66259 0.20472 0.88145 0.0
C344 C 0.77996 0.32286 0.89237 0.0
C345 C 0.82204 0.32744 0.8971 0.0
C346 C 0.8465 0.29227 0.89874 0.0
C347 C 0.82998 0.2536 0.89524 0.0
C348 C 0.78863 0.25005 0.89054 0.0
C349 C 0.76374 0.28359 0.88955 0.0
C350 C 0.71998 0.27079 0.88553 0.0
C351 C 0.69429 0.28482 0.91328 0.0
C352 C 0.70283 0.2866 0.85457 0.0
C353 C 0.72429 0.22504 0.88494 0.0
C354 C 0.76429 0.21379 0.88715 0.0
C355 C 0.77604 0.1733 0.88616 0.0
C356 C 0.74607 0.14344 0.88336 0.0
C357 C 0.70477 0.15412 0.8822 0.0
C358 C 0.69392 0.19555 0.8828 0.0
H359 H 0.33066 0.70392 0.88052 0.0
H360 H 0.26774 0.59057 0.8949 0.0
H361 H 0.20259 0.62601 0.89293 0.0
H362 H 0.26721 0.76311 0.9291 0.0
H363 H 0.26797 0.80737 0.90471 0.0
H364 H 0.30992 0.77283 0.90425 0.0
H365 H 0.30209 0.76476 0.8445 0.0
H366 H 0.25989 0.79913 0.84478 0.0
H367 H 0.25415 0.74928 0.82861 0.0
H368 H 0.14335 0.67364 0.88963 0.0
H369 H 0.09549 0.73135 0.89026 0.0
H370 H 0.19608 0.8143 0.88235 0.0
C371 C 0.30314 0.68664 0.88311 0.0
C372 C 0.30452 0.64439 0.88792 0.0
C373 C 0.26772 0.62295 0.89142 0.0
C374 C 0.23037 0.64277 0.89011 0.0
C375 C 0.22995 0.68435 0.88563 0.0
C376 C 0.26532 0.70618 0.88241 0.0
C377 C 0.25623 0.75098 0.87962 0.0
C378 C 0.27654 0.77497 0.906 0.0
C379 C 0.26886 0.76698 0.84748 0.0
C380 C 0.21057 0.75086 0.88293 0.0
C381 C 0.19588 0.71203 0.88544 0.0
C382 C 0.15454 0.70424 0.88789 0.0
C383 C 0.12755 0.73709 0.88822 0.0
C384 C 0.14213 0.77713 0.88696 0.0
C385 C 0.18416 0.78393 0.88402 0.0
H386 H 0.72913 0.35377 0.60898 0.0
H387 H 0.61456 0.29657 0.58735 0.0
H388 H 0.64683 0.22994 0.58912 0.0
H389 H 0.78919 0.28839 0.5613 0.0
H390 H 0.83136 0.28676 0.58783 0.0
H391 H 0.79878 0.33025 0.58713 0.0
H392 H 0.7857 0.32184 0.64626 0.0
H393 H 0.81796 0.27801 0.64707 0.0
H394 H 0.7667 0.27447 0.66075 0.0
H395 H 0.69103 0.16844 0.5939 0.0
H396 H 0.74647 0.11795 0.5946 0.0
H397 H 0.83301 0.21434 0.60899 0.0
C398 C 0.71098 0.32723 0.60447 0.0
C399 C 0.66929 0.33071 0.5979 0.0
C400 C 0.64661 0.29506 0.59216 0.0
C401 C 0.66457 0.25682 0.59339 0.0
C402 C 0.70554 0.25432 0.60001 0.0
C403 C 0.72867 0.28853 0.60504 0.0
C404 C 0.7726 0.27724 0.60993 0.0
C405 C 0.79957 0.29682 0.58506 0.0
C406 C 0.78655 0.28857 0.64296 0.0
C407 C 0.77053 0.23171 0.60595 0.0
C408 C 0.7314 0.21895 0.60114 0.0
C409 C 0.7219 0.17809 0.59742 0.0
C410 C 0.75344 0.14961 0.59793 0.0
C411 C 0.79389 0.16232 0.60134 0.0
C412 C 0.80232 0.20384 0.60581 0.0
H413 H 0.20003 0.66166 0.59745 0.0
H414 H 0.11921 0.74887 0.63989 0.0
H415 H 0.17514 0.79783 0.64328 0.0
H416 H 0.28873 0.68893 0.64465 0.0
H417 H 0.32391 0.6815 0.61321 0.0
H418 H 0.2779 0.65253 0.61456 0.0
H419 H 0.25917 0.67742 0.55927 0.0
H420 H 0.30509 0.70643 0.55775 0.0
H421 H 0.25713 0.73088 0.55156 0.0
H422 H 0.23705 0.83879 0.63866 0.0
H423 H 0.3029 0.86966 0.62869 0.0
H424 H 0.34812 0.75582 0.59272 0.0
C425 C 0.19417 0.69108 0.60748 0.0
C426 C 0.15502 0.70157 0.6182 0.0
C427 C 0.14875 0.74017 0.63145 0.0
C428 C 0.18039 0.76817 0.63351 0.0
C429 C 0.21845 0.75701 0.62267 0.0
C430 C 0.22575 0.71934 0.61016 0.0
C431 C 0.26976 0.71545 0.60024 0.0
C432 C 0.29135 0.68265 0.61931 0.0
C433 C 0.27296 0.70705 0.56512 0.0
C434 C 0.28574 0.75725 0.60834 0.0
C435 C 0.25531 0.78049 0.62124 0.0
C436 C 0.2612 0.82075 0.62896 0.0
C437 C 0.29889 0.83802 0.62311 0.0
C438 C 0.33105 0.81511 0.6103 0.0
C439 C 0.32447 0.77388 0.60312 0.0
H440 H 0.05551 0.40239 0.31115 0.0
H441 H 0.93605 0.40204 0.27008 0.0
H442 H 0.96265 0.43389 0.22255 0.0
H443 H 0.0839 0.49973 0.28202 0.0
H444 H 0.13579 0.48638 0.27479 0.0
H445 H 0.10791 0.46078 0.30477 0.0
H446 H 0.12475 0.39214 0.27884 0.0
H447 H 0.15214 0.41772 0.24846 0.0
H448 H 0.11148 0.38389 0.23862 0.0
H449 H 0.00074 0.4664 0.18024 0.0
H450 H 0.04664 0.50668 0.14784 0.0
H451 H 0.14225 0.48908 0.21593 0.0
C452 C 0.03526 0.4091 0.29204 0.0
C453 C 0.99381 0.39961 0.29387 0.0
C454 C 0.96792 0.40888 0.2687 0.0
C455 C 0.98277 0.42675 0.24163 0.0
C456 C 0.02377 0.43532 0.2401 0.0
C457 C 0.04969 0.42742 0.26467 0.0
C458 C 0.09193 0.44231 0.25732 0.0
C459 C 0.10567 0.47421 0.28113 0.0
C460 C 0.12185 0.4069 0.25572 0.0
C461 C 0.08518 0.46071 0.22533 0.0
C462 C 0.04583 0.45542 0.21564 0.0
C463 C 0.03175 0.47069 0.18745 0.0
C464 C 0.05819 0.49346 0.16911 0.0
C465 C 0.09817 0.50128 0.17922 0.0
C466 C 0.11204 0.48351 0.20731 0.0
H467 H 0.96888 0.12339 0.22778 0.0
H468 H 0.03462 0.10942 0.14139 0.0
H469 H 0.09185 0.0791 0.17026 0.0
H470 H 0.05696 0.13971 0.28127 0.0
H471 H 0.03457 0.10916 0.31133 0.0
H472 H 0.00284 0.1375 0.28513 0.0
H473 H 0.96492 0.07189 0.27018 0.0
H474 H 0.99655 0.04339 0.29614 0.0
H475 H 0.99315 0.02932 0.25569 0.0
H476 H 0.13832 0.04426 0.20735 0.0
H477 H 0.16811 0.00183 0.24833 0.0
H478 H 0.06957 0.0336 0.3103 0.0
C479 C 0.99607 0.11543 0.21522 0.0
C480 C 0.99811 0.11976 0.18257 0.0
C481 C 0.03307 0.10706 0.16651 0.0
C482 C 0.06564 0.08994 0.18273 0.0
C483 C 0.06238 0.08518 0.21491 0.0
C484 C 0.02833 0.0973 0.23097 0.0
C485 C 0.02976 0.08335 0.26457 0.0
C486 C 0.03112 0.1196 0.28689 0.0
C487 C 0.99399 0.05532 0.27206 0.0
C488 C 0.06941 0.06057 0.2647 0.0
C489 C 0.08818 0.06288 0.23605 0.0
C490 C 0.12412 0.04259 0.22998 0.0
C491 C 0.14082 0.0185 0.25351 0.0
C492 C 0.12125 0.01422 0.28268 0.0
C493 C 0.08551 0.03637 0.28842 0.0
H494 H 0.48681 0.07882 0.32584 0.0
H495 H 0.52271 0.17972 0.26761 0.0
H496 H 0.47788 0.15537 0.22606 0.0
H497 H 0.48647 0.00693 0.26934 0.0
H498 H 0.4426 0.97969 0.28246 0.0
H499 H 0.47206 0.00837 0.30978 0.0
H500 H 0.40849 0.04872 0.32605 0.0
H501 H 0.37864 0.0198 0.2989 0.0
H502 H 0.37893 0.07414 0.29675 0.0
H503 H 0.44102 0.11271 0.18708 0.0
H504 H 0.4078 0.05879 0.15622 0.0
H505 H 0.3908 0.98892 0.24039 0.0
C506 C 0.48424 0.09661 0.3048 0.0
C507 C 0.50857 0.1312 0.30018 0.0
C508 C 0.50452 0.15318 0.27198 0.0
C509 C 0.47905 0.13959 0.24809 0.0
C510 C 0.45698 0.1044 0.25284 0.0
C511 C 0.4585 0.08373 0.28079 0.0
C512 C 0.43389 0.04521 0.27912 0.0
C513 C 0.46034 0.00787 0.28554 0.0
C514 C 0.39784 0.0471 0.30154 0.0
C515 C 0.42002 0.04655 0.24549 0.0
C516 C 0.43358 0.08097 0.23069 0.0
C517 C 0.42898 0.08631 0.19862 0.0
C518 C 0.41023 0.05559 0.18125 0.0
C519 C 0.39573 0.02043 0.1961 0.0
C520 C 0.40015 0.01631 0.22867 0.0
H521 H 0.51562 0.3931 0.25129 0.0
H522 H 0.44318 0.40091 0.16745 0.0
H523 H 0.39392 0.44414 0.1952 0.0
H524 H 0.43296 0.39748 0.3094 0.0
H525 H 0.46145 0.42964 0.33519 0.0
H526 H 0.48724 0.39394 0.31055 0.0
H527 H 0.53043 0.4518 0.28751 0.0
H528 H 0.50485 0.48759 0.31204 0.0
H529 H 0.50563 0.49492 0.27048 0.0
H530 H 0.35543 0.48963 0.23065 0.0
H531 H 0.33379 0.54045 0.26877 0.0
H532 H 0.43425 0.50763 0.32883 0.0
C533 C 0.48871 0.40301 0.23915 0.0
C534 C 0.48243 0.39306 0.20753 0.0
C535 C 0.44799 0.40786 0.19182 0.0
C536 C 0.41988 0.43221 0.20743 0.0
C537 C 0.42714 0.44196 0.23855 0.0
C538 C 0.46095 0.42821 0.25416 0.0
C539 C 0.46439 0.4473 0.28617 0.0
C540 C 0.46131 0.41516 0.31185 0.0
C541 C 0.50364 0.47186 0.28921 0.0
C542 C 0.42759 0.47449 0.28593 0.0
C543 C 0.40611 0.47019 0.25851 0.0
C544 C 0.37188 0.49312 0.25227 0.0
C545 C 0.35984 0.52199 0.27419 0.0
C546 C 0.38233 0.52833 0.30193 0.0
C547 C 0.41618 0.50349 0.30805 0.0
H548 H 0.00938 0.61651 0.73876 0.0
H549 H 0.94301 0.59472 0.65338 0.0
H550 H 0.89049 0.55822 0.68345 0.0
H551 H 0.99326 0.5191 0.76972 0.0
H552 H 0.99018 0.53576 0.8096 0.0
H553 H 0.01939 0.56415 0.78196 0.0
H554 H 0.97819 0.62836 0.7952 0.0
H555 H 0.94867 0.60007 0.82281 0.0
H556 H 0.92395 0.62736 0.7919 0.0
H557 H 0.84595 0.52306 0.72326 0.0
H558 H 0.81803 0.48417 0.76708 0.0
H559 H 0.91702 0.5242 0.8258 0.0
C560 C 0.98331 0.60481 0.72647 0.0
C561 C 0.97967 0.60925 0.69381 0.0
C562 C 0.94603 0.59212 0.6784 0.0
C563 C 0.91605 0.57151 0.69534 0.0
C564 C 0.92062 0.56765 0.72757 0.0
C565 C 0.9538 0.58332 0.74287 0.0
C566 C 0.9539 0.57154 0.77701 0.0
C567 C 0.99139 0.54612 0.78503 0.0
C568 C 0.95099 0.60908 0.79796 0.0
C569 C 0.91564 0.54654 0.77864 0.0
C570 C 0.89645 0.54538 0.75003 0.0
C571 C 0.86078 0.52382 0.74572 0.0
C572 C 0.84499 0.50196 0.77092 0.0
C573 C 0.86516 0.50102 0.80011 0.0
C574 C 0.90064 0.52435 0.80397 0.0
H575 H 0.94794 0.86651 0.78961 0.0
H576 H 0.05426 0.94155 0.80142 0.0
H577 H 0.0319 0.98492 0.75834 0.0
H578 H 0.93895 0.87337 0.7067 0.0
H579 H 0.88481 0.87858 0.70584 0.0
H580 H 0.90879 0.85181 0.73736 0.0
H581 H 0.87445 0.899 0.77744 0.0
H582 H 0.84979 0.9254 0.74608 0.0
H583 H 0.88022 0.95289 0.7737 0.0
H584 H 0.00295 0.01586 0.71138 0.0
H585 H 0.96003 0.0449 0.67061 0.0
H586 H 0.86614 0.95773 0.69199 0.0
C587 C 0.96603 0.89246 0.78332 0.0
C588 C 0.00283 0.90076 0.79893 0.0
C589 C 0.02576 0.93493 0.7901 0.0
C590 C 0.01357 0.9595 0.76539 0.0
C591 C 0.97775 0.95023 0.75008 0.0
C592 C 0.95343 0.91853 0.75925 0.0
C593 C 0.91491 0.91758 0.73984 0.0
C594 C 0.91169 0.87797 0.72134 0.0
C595 C 0.87763 0.92412 0.7605 0.0
C596 C 0.92187 0.95338 0.71826 0.0
C597 C 0.95896 0.9708 0.7242 0.0
C598 C 0.97355 0.00293 0.70675 0.0
C599 C 0.949 0.01893 0.68333 0.0
C600 C 0.90964 0.00364 0.67795 0.0
C601 C 0.89608 0.97002 0.6955 0.0
H602 H 0.56724 0.01254 0.79256 0.0
H603 H 0.67 0.9339 0.80706 0.0
H604 H 0.64234 0.88591 0.76804 0.0
H605 H 0.49072 0.93558 0.77753 0.0
H606 H 0.46678 0.96496 0.74742 0.0
H607 H 0.49256 0.98995 0.77894 0.0
H608 H 0.53644 0.02863 0.73898 0.0
H609 H 0.51129 0.00324 0.70736 0.0
H610 H 0.56545 0.00067 0.71079 0.0
H611 H 0.60198 0.84628 0.7269 0.0
H612 H 0.55512 0.82088 0.68619 0.0
H613 H 0.48403 0.93017 0.69475 0.0
C614 C 0.58328 0.98461 0.7882 0.0
C615 C 0.62012 0.97623 0.80352 0.0
C616 C 0.64127 0.94035 0.79608 0.0
C617 C 0.62585 0.91308 0.77385 0.0
C618 C 0.58979 0.92267 0.75866 0.0
C619 C 0.56899 0.9578 0.76543 0.0
C620 C 0.53273 0.96289 0.74423 0.0
C621 C 0.49337 0.96335 0.76316 0.0
C622 C 0.53674 0.00112 0.72416 0.0
C623 C 0.53607 0.92504 0.72457 0.0
C624 C 0.56881 0.90186 0.73345 0.0
C625 C 0.5766 0.8645 0.71955 0.0
C626 C 0.54996 0.85036 0.69637 0.0
C627 C 0.51655 0.87395 0.68673 0.0
C628 C 0.51001 0.91196 0.7009 0.0
H629 H 0.56428 0.518 0.67552 0.0
H630 H 0.66337 0.4799 0.73488 0.0
H631 H 0.63292 0.5163 0.77899 0.0
H632 H 0.55155 0.61997 0.71237 0.0
H633 H 0.49748 0.61829 0.70786 0.0
H634 H 0.52948 0.5931 0.68005 0.0
H635 H 0.49129 0.52614 0.68999 0.0
H636 H 0.45946 0.55095 0.71797 0.0
H637 H 0.48785 0.50683 0.72913 0.0
H638 H 0.58568 0.54647 0.81876 0.0
H639 H 0.52927 0.57564 0.8493 0.0
H640 H 0.46405 0.59964 0.76382 0.0
C641 C 0.58019 0.51821 0.69755 0.0
C642 C 0.61637 0.496 0.70153 0.0
C643 C 0.63588 0.49687 0.73096 0.0
C644 C 0.61871 0.51739 0.75631 0.0
C645 C 0.58238 0.53778 0.75185 0.0
C646 C 0.56382 0.5392 0.72302 0.0
C647 C 0.52413 0.56194 0.72477 0.0
C648 C 0.52577 0.60063 0.70509 0.0
C649 C 0.4886 0.53484 0.71489 0.0
C650 C 0.52253 0.57168 0.75926 0.0
C651 C 0.55637 0.55738 0.77453 0.0
C652 C 0.55963 0.5589 0.80694 0.0
C653 C 0.52749 0.5754 0.82412 0.0
C654 C 0.49295 0.59086 0.80885 0.0
C655 C 0.49081 0.58937 0.77599 0.0
H656 H 0.12813 0.65629 0.23946 0.0
H657 H 0.06625 0.70996 0.16086 0.0
H658 H 0.04262 0.76568 0.19487 0.0
H659 H 0.05505 0.69304 0.30244 0.0
H660 H 0.09664 0.7009 0.32884 0.0
H661 H 0.09848 0.66031 0.30087 0.0
H662 H 0.16647 0.68779 0.27931 0.0
H663 H 0.16439 0.727 0.30783 0.0
H664 H 0.16938 0.73989 0.26724 0.0
H665 H 0.03877 0.82198 0.23437 0.0
H666 H 0.05882 0.87377 0.27301 0.0
H667 H 0.12521 0.78362 0.32468 0.0
C668 C 0.10852 0.67913 0.22961 0.0
C669 C 0.09905 0.679 0.19761 0.0
C670 C 0.07349 0.70936 0.18545 0.0
C671 C 0.05987 0.74101 0.20465 0.0
C672 C 0.07143 0.74123 0.23599 0.0
C673 C 0.09486 0.71062 0.24838 0.0
C674 C 0.10862 0.72032 0.28108 0.0
C675 C 0.08848 0.69196 0.3047 0.0
C676 C 0.15496 0.7187 0.28392 0.0
C677 C 0.09263 0.76284 0.28427 0.0
C678 C 0.06967 0.77384 0.25865 0.0
C679 C 0.05562 0.8133 0.2549 0.0
C680 C 0.06691 0.8425 0.27702 0.0
C681 C 0.0926 0.83212 0.30204 0.0
C682 C 0.10431 0.79167 0.30628 0.0
H683 H 0.85635 0.09947 0.23631 0.0
H684 H 0.7881 0.04633 0.16094 0.0
H685 H 0.73654 0.02301 0.19859 0.0
H686 H 0.82095 0.02603 0.30195 0.0
H687 H 0.81969 0.0679 0.32876 0.0
H688 H 0.85742 0.06614 0.29856 0.0
H689 H 0.83464 0.13683 0.27967 0.0
H690 H 0.79693 0.13864 0.30932 0.0
H691 H 0.78251 0.14475 0.26911 0.0
H692 H 0.6848 0.02353 0.24086 0.0
H693 H 0.63882 0.04938 0.28166 0.0
H694 H 0.73991 0.10453 0.32897 0.0
C695 C 0.83159 0.08091 0.22814 0.0
C696 C 0.82615 0.07407 0.19607 0.0
C697 C 0.79307 0.05089 0.18562 0.0
C698 C 0.76369 0.03765 0.2069 0.0
C699 C 0.76841 0.04743 0.2384 0.0
C700 C 0.80213 0.068 0.24901 0.0
C701 C 0.79693 0.08222 0.28223 0.0
C702 C 0.82544 0.05918 0.30417 0.0
C703 C 0.80305 0.12829 0.28519 0.0
C704 C 0.75357 0.0702 0.2877 0.0
C705 C 0.73805 0.04854 0.2628 0.0
C706 C 0.69699 0.03918 0.2609 0.0
C707 C 0.67106 0.05382 0.28417 0.0
C708 C 0.68634 0.07817 0.30848 0.0
C709 C 0.72808 0.08494 0.31093 0.0
H710 H 0.41589 0.7599 0.3373 0.0
H711 H 0.46509 0.66082 0.28427 0.0
H712 H 0.49192 0.70878 0.24551 0.0
H713 H 0.37474 0.80671 0.28366 0.0
H714 H 0.38491 0.85856 0.29386 0.0
H715 H 0.38594 0.82075 0.32338 0.0
H716 H 0.45853 0.84005 0.33866 0.0
H717 H 0.45798 0.87907 0.30938 0.0
H718 H 0.49744 0.8416 0.30942 0.0
H719 H 0.49103 0.76202 0.20532 0.0
H720 H 0.46426 0.81434 0.16973 0.0
H721 H 0.41698 0.88023 0.24849 0.0
C722 C 0.43493 0.74893 0.31865 0.0
C723 C 0.43948 0.7072 0.31391 0.0
C724 C 0.46256 0.69294 0.28862 0.0
C725 C 0.4778 0.72006 0.26648 0.0
C726 C 0.47021 0.76125 0.27041 0.0
C727 C 0.45035 0.77578 0.29654 0.0
C728 C 0.43879 0.8197 0.29262 0.0
C729 C 0.39342 0.82675 0.29865 0.0
C730 C 0.46475 0.84669 0.31377 0.0
C731 C 0.4498 0.82581 0.25882 0.0
C732 C 0.46977 0.7926 0.24674 0.0
C733 C 0.47693 0.78882 0.21477 0.0
C734 C 0.4617 0.81863 0.19464 0.0
C735 C 0.43906 0.85116 0.20668 0.0
C736 C 0.43496 0.85579 0.23909 0.0
H737 H 0.64706 0.40017 0.2444 0.0
H738 H 0.70095 0.39099 0.15306 0.0
H739 H 0.76845 0.40154 0.17615 0.0
H740 H 0.72673 0.47561 0.27829 0.0
H741 H 0.72337 0.45105 0.31562 0.0
H742 H 0.67928 0.45491 0.29112 0.0
H743 H 0.67019 0.37725 0.29413 0.0
H744 H 0.71428 0.37352 0.31813 0.0
H745 H 0.7113 0.34485 0.28252 0.0
H746 H 0.82788 0.39082 0.20953 0.0
H747 H 0.8763 0.37147 0.25052 0.0
H748 H 0.78589 0.39391 0.32107 0.0
C749 C 0.67298 0.40299 0.22924 0.0
C750 C 0.6692 0.39572 0.19705 0.0
C751 C 0.70346 0.39779 0.17766 0.0
C752 C 0.74185 0.40352 0.19065 0.0
C753 C 0.74501 0.40816 0.22286 0.0
C754 C 0.71134 0.40944 0.24185 0.0
C755 C 0.72309 0.40955 0.27597 0.0
C756 C 0.7125 0.45021 0.29114 0.0
C757 C 0.70356 0.37415 0.29366 0.0
C758 C 0.7683 0.40432 0.27327 0.0
C759 C 0.78036 0.4041 0.24241 0.0
C760 C 0.81929 0.3929 0.23376 0.0
C761 C 0.84651 0.38173 0.25715 0.0
C762 C 0.83491 0.38256 0.28878 0.0
C763 C 0.79564 0.39466 0.29702 0.0
H764 H 0.8228 0.16017 0.72596 0.0
H765 H 0.92962 0.1898 0.67217 0.0
H766 H 0.94775 0.24184 0.71105 0.0
H767 H 0.79604 0.25711 0.74392 0.0
H768 H 0.77812 0.2462 0.78263 0.0
H769 H 0.77713 0.20758 0.75331 0.0
H770 H 0.81921 0.16053 0.78879 0.0
H771 H 0.82048 0.19906 0.81842 0.0
H772 H 0.86692 0.17777 0.80403 0.0
H773 H 0.9499 0.29551 0.75302 0.0
H774 H 0.93339 0.3479 0.79234 0.0
H775 H 0.82585 0.28109 0.81769 0.0
C776 C 0.85039 0.17708 0.72247 0.0
C777 C 0.8748 0.17092 0.69603 0.0
C778 C 0.91051 0.19394 0.69234 0.0
C779 C 0.92118 0.22337 0.71438 0.0
C780 C 0.89609 0.2289 0.74004 0.0
C781 C 0.86149 0.2062 0.74417 0.0
C782 C 0.8375 0.22018 0.77198 0.0
C783 C 0.79471 0.23361 0.76236 0.0
C784 C 0.83597 0.18743 0.7973 0.0
C785 C 0.8631 0.25542 0.78212 0.0
C786 C 0.89722 0.25967 0.76394 0.0
C787 C 0.92365 0.29213 0.76774 0.0
C788 C 0.91418 0.3216 0.79009 0.0
C789 C 0.87834 0.31837 0.80772 0.0
C790 C 0.85342 0.28422 0.80437 0.0
H791 H 0.31001 0.80439 0.69697 0.0
H792 H 0.34826 0.92924 0.70534 0.0
H793 H 0.29265 0.94156 0.74299 0.0
H794 H 0.20392 0.82314 0.70025 0.0
H795 H 0.19374 0.77759 0.72177 0.0
H796 H 0.236 0.77963 0.69555 0.0
H797 H 0.28425 0.75882 0.74025 0.0
H798 H 0.24235 0.75662 0.76677 0.0
H799 H 0.28524 0.78809 0.77564 0.0
H800 H 0.23402 0.93796 0.78169 0.0
H801 H 0.17594 0.92045 0.81521 0.0
H802 H 0.17863 0.79786 0.77927 0.0
C803 C 0.30702 0.83439 0.70679 0.0
C804 C 0.33368 0.86579 0.69874 0.0
C805 C 0.32807 0.9048 0.71143 0.0
C806 C 0.29674 0.91196 0.73279 0.0
C807 C 0.27139 0.87986 0.74062 0.0
C808 C 0.27614 0.84199 0.72767 0.0
C809 C 0.24526 0.81234 0.73938 0.0
C810 C 0.21812 0.79732 0.71266 0.0
C811 C 0.2655 0.7769 0.75654 0.0
C812 C 0.22248 0.83918 0.7615 0.0
C813 C 0.23779 0.87801 0.76202 0.0
C814 C 0.22167 0.90773 0.78131 0.0
C815 C 0.18884 0.89743 0.80032 0.0
C816 C 0.17265 0.85782 0.79974 0.0
C817 C 0.19 0.82849 0.78013 0.0
H818 H 0.67313 0.14458 0.74961 0.0
H819 H 0.56761 0.16493 0.80729 0.0
H820 H 0.54371 0.21665 0.77038 0.0
H821 H 0.69435 0.24064 0.73563 0.0
H822 H 0.71049 0.23509 0.69579 0.0
H823 H 0.71405 0.1931 0.7219 0.0
H824 H 0.67126 0.14954 0.68436 0.0
H825 H 0.66744 0.19159 0.65789 0.0
H826 H 0.62238 0.16719 0.67188 0.0
H827 H 0.53819 0.2744 0.7334 0.0
H828 H 0.55341 0.33409 0.70069 0.0
H829 H 0.66187 0.27507 0.66746 0.0
C830 C 0.64444 0.15911 0.75407 0.0
C831 C 0.62232 0.15088 0.78132 0.0
C832 C 0.58504 0.17071 0.78646 0.0
C833 C 0.57103 0.19991 0.76551 0.0
C834 C 0.59429 0.20828 0.73933 0.0
C835 C 0.63003 0.18806 0.73337 0.0
C836 C 0.65233 0.20622 0.70616 0.0
C837 C 0.69528 0.2196 0.71547 0.0
C838 C 0.65338 0.17687 0.67843 0.0
C839 C 0.62523 0.24175 0.69942 0.0
C840 C 0.59117 0.24182 0.71799 0.0
C841 C 0.56416 0.2742 0.71816 0.0
C842 C 0.57297 0.30792 0.69962 0.0
C843 C 0.60883 0.30887 0.68194 0.0
C844 C 0.63422 0.27483 0.6809 0.0
H845 H 0.2589 0.59343 0.82695 0.0
H846 H 0.34877 0.53924 0.76738 0.0
H847 H 0.29575 0.52259 0.72869 0.0
H848 H 0.16825 0.52607 0.80048 0.0
H849 H 0.13543 0.56932 0.80337 0.0
H850 H 0.17686 0.56345 0.83028 0.0
H851 H 0.20296 0.63438 0.81525 0.0
H852 H 0.16242 0.64042 0.78815 0.0
H853 H 0.21383 0.64527 0.77499 0.0
H854 H 0.23842 0.52992 0.69165 0.0
H855 H 0.18334 0.56034 0.66044 0.0
H856 H 0.13093 0.60972 0.74447 0.0
C857 C 0.26672 0.57601 0.8065 0.0
C858 C 0.30715 0.56687 0.8 0.0
C859 C 0.31745 0.5455 0.77275 0.0
C860 C 0.28753 0.53593 0.75079 0.0
C861 C 0.24776 0.54747 0.75696 0.0
C862 C 0.23725 0.56636 0.78461 0.0
C863 C 0.19473 0.58266 0.78358 0.0
C864 C 0.16719 0.55894 0.80573 0.0
C865 C 0.1935 0.62834 0.79087 0.0
C866 C 0.18441 0.57388 0.75003 0.0
C867 C 0.21454 0.55214 0.73529 0.0
C868 C 0.21402 0.54569 0.70314 0.0
C869 C 0.18276 0.56308 0.68556 0.0
C870 C 0.15329 0.58722 0.70029 0.0
C871 C 0.15319 0.59106 0.7329 0.0
H872 H 0.00744 0.56632 0.05847 0.0
H873 H 0.12813 0.54852 0.0217 0.0
H874 H 0.09954 0.51851 0.97419 0.0
H875 H 0.9674 0.47313 0.03049 0.0
H876 H 0.91827 0.49303 0.02097 0.0
H877 H 0.94772 0.51597 0.05148 0.0
H878 H 0.94241 0.58518 0.02375 0.0
H879 H 0.91293 0.56241 0.99313 0.0
H880 H 0.95839 0.58968 0.98381 0.0
H881 H 0.05911 0.48792 0.93167 0.0
H882 H 0.00867 0.45679 0.89694 0.0
H883 H 0.91329 0.49269 0.9604 0.0
C884 C 0.02773 0.55653 0.04023 0.0
C885 C 0.07007 0.55991 0.04382 0.0
C886 C 0.09564 0.54622 0.01959 0.0
C887 C 0.0797 0.52922 0.99239 0.0
C888 C 0.038 0.52589 0.98964 0.0
C889 C 0.01225 0.53903 0.01283 0.0
C890 C 0.96864 0.52995 0.00433 0.0
C891 C 0.94939 0.50131 0.02824 0.0
C892 C 0.94415 0.56914 0.00106 0.0
C893 C 0.97414 0.50931 0.97301 0.0
C894 C 0.01443 0.50765 0.96496 0.0
C895 C 0.02741 0.4892 0.9376 0.0
C896 C 0.9985 0.47155 0.91802 0.0
C897 C 0.95701 0.47233 0.92585 0.0
C898 C 0.94474 0.49186 0.95363 0.0
H899 H 0.01411 0.90396 0.9604 0.0
H900 H 0.08239 0.99665 0.91229 0.0
H901 H 0.05912 0.04717 0.95054 0.0
H902 H 0.92878 0.96529 0.97945 0.0
H903 H 0.92121 0.94288 0.01721 0.0
H904 H 0.94384 0.91377 0.98642 0.0
H905 H 0.00583 0.89929 0.02152 0.0
H906 H 0.98341 0.9284 0.05243 0.0
H907 H 0.03316 0.94089 0.03855 0.0
H908 H 0.02679 0.08798 0.99274 0.0
H909 H 0.98844 0.11642 0.03673 0.0
H910 H 0.9422 0.99716 0.05853 0.0
C911 C 0.02424 0.93487 0.95795 0.0
C912 C 0.05005 0.94639 0.93332 0.0
C913 C 0.06267 0.98711 0.93096 0.0
C914 C 0.04962 0.01603 0.95258 0.0
C915 C 0.02414 0.00371 0.97653 0.0
C916 C 0.01168 0.9641 0.97944 0.0
C917 C 0.98401 0.95892 0.00725 0.0
C918 C 0.94197 0.94436 0.99695 0.0
C919 C 0.00273 0.93017 0.03136 0.0
C920 C 0.98259 0.00189 0.01935 0.0
C921 C 0.00595 0.0272 0.00124 0.0
C922 C 0.00859 0.06843 0.00719 0.0
C923 C 0.98662 0.08429 0.03222 0.0
C924 C 0.96244 0.05899 0.05113 0.0
C925 C 0.9607 0.01718 0.04467 0.0
H926 H 0.50756 0.96387 0.06605 0.0
H927 H 0.38569 0.00038 0.04162 0.0
H928 H 0.41079 0.02968 0.99268 0.0
H929 H 0.55826 0.05225 0.03354 0.0
H930 H 0.60082 0.0236 0.01962 0.0
H931 H 0.57358 0.00688 0.05349 0.0
H932 H 0.56168 0.9374 0.02731 0.0
H933 H 0.58861 0.954 0.99327 0.0
H934 H 0.53777 0.93523 0.98962 0.0
H935 H 0.44816 0.05269 0.94549 0.0
H936 H 0.4962 0.07036 0.90385 0.0
H937 H 0.59414 0.01925 0.95835 0.0
C938 C 0.48627 0.97846 0.05057 0.0
C939 C 0.44465 0.97988 0.05773 0.0
C940 C 0.41771 0.99892 0.0367 0.0
C941 C 0.43165 0.01565 0.00879 0.0
C942 C 0.47267 0.0132 0.00217 0.0
C943 C 0.4997 0.99534 0.02248 0.0
C944 C 0.54216 0.99617 0.00934 0.0
C945 C 0.57036 0.02123 0.03024 0.0
C946 C 0.5585 0.95314 0.0046 0.0
C947 C 0.53464 0.01701 0.97844 0.0
C948 C 0.49433 0.02656 0.97481 0.0
C949 C 0.47985 0.04553 0.9481 0.0
C950 C 0.50737 0.05535 0.92453 0.0
C951 C 0.54892 0.04621 0.9278 0.0
C952 C 0.56257 0.02663 0.95513 0.0
H953 H 0.46793 0.55865 0.96344 0.0
H954 H 0.41319 0.45783 0.91432 0.0
H955 H 0.43411 0.41201 0.95632 0.0
H956 H 0.55481 0.50231 0.99204 0.0
H957 H 0.55626 0.52806 0.02901 0.0
H958 H 0.53691 0.55356 0.9951 0.0
H959 H 0.47011 0.56811 0.02426 0.0
H960 H 0.48914 0.54238 0.05818 0.0
H961 H 0.44208 0.52676 0.04085 0.0
H962 H 0.45792 0.37737 0.00364 0.0
H963 H 0.48916 0.35393 0.05226 0.0
H964 H 0.53182 0.47554 0.07115 0.0
C965 C 0.46058 0.52689 0.96151 0.0
C966 C 0.43884 0.51185 0.93558 0.0
C967 C 0.42988 0.4701 0.93385 0.0
C968 C 0.44149 0.44378 0.95767 0.0
C969 C 0.4624 0.45952 0.98301 0.0
C970 C 0.47239 0.49993 0.98504 0.0
C971 C 0.49589 0.50845 0.01474 0.0
C972 C 0.5385 0.52401 0.00727 0.0
C973 C 0.47292 0.53819 0.03575 0.0
C974 C 0.49727 0.46653 0.02901 0.0
C975 C 0.47738 0.439 0.01032 0.0
C976 C 0.47381 0.39854 0.01843 0.0
C977 C 0.49159 0.38557 0.04621 0.0
C978 C 0.51305 0.41284 0.06553 0.0
C979 C 0.51568 0.45398 0.05685 0.0
H980 H 0.00813 0.97318 0.41911 0.0
H981 H 0.12213 0.03503 0.43358 0.0
H982 H 0.09353 0.07021 0.47904 0.0
H983 H 0.9427 0.05775 0.44311 0.0
H984 H 0.9069 0.02495 0.46196 0.0
H985 H 0.93533 0.00701 0.429 0.0
H986 H 0.96107 0.94667 0.46184 0.0
H987 H 0.93309 0.96461 0.49496 0.0
H988 H 0.98668 0.95619 0.49817 0.0
H989 H 0.05468 0.09468 0.52523 0.0
H990 H 0.00656 0.10969 0.56753 0.0
H991 H 0.91746 0.03265 0.52313 0.0
C992 C 0.02679 0.99473 0.43147 0.0
C993 C 0.06734 0.00145 0.42271 0.0
C994 C 0.09096 0.02944 0.43978 0.0
C995 C 0.07501 0.04958 0.46568 0.0
C996 C 0.0353 0.04157 0.47419 0.0
C997 C 0.01132 0.01513 0.45746 0.0
C998 C 0.97007 0.01083 0.47232 0.0
C999 C 0.93678 0.02606 0.45028 0.0
C1000 C 0.9623 0.96697 0.48242 0.0
C1001 C 0.97491 0.03846 0.50023 0.0
C1002 C 0.01275 0.05593 0.50082 0.0
C1003 C 0.0248 0.08151 0.52487 0.0
C1004 C 0.99733 0.08973 0.54886 0.0
C1005 C 0.95825 0.07246 0.5486 0.0
C1006 C 0.94704 0.0465 0.5239 0.0
H1007 H 0.54553 0.00518 0.43019 0.0
H1008 H 0.51114 0.12672 0.45721 0.0
H1009 H 0.47897 0.09999 0.50457 0.0
H1010 H 0.45415 0.95535 0.45903 0.0
H1011 H 0.48118 0.91132 0.4722 0.0
H1012 H 0.49976 0.93986 0.43955 0.0
H1013 H 0.56857 0.94838 0.46751 0.0
H1014 H 0.55008 0.92026 0.50038 0.0
H1015 H 0.57009 0.97036 0.5059 0.0
H1016 H 0.45358 0.06076 0.55045 0.0
H1017 H 0.4331 0.01091 0.59015 0.0
H1018 H 0.48345 0.91472 0.53353 0.0
C1019 C 0.53069 0.02607 0.44583 0.0
C1020 C 0.53081 0.06806 0.43991 0.0
C1021 C 0.51141 0.09443 0.46116 0.0
C1022 C 0.49309 0.07956 0.4882 0.0
C1023 C 0.49424 0.03817 0.49371 0.0
C1024 C 0.51218 0.01171 0.47302 0.0
C1025 C 0.50976 0.96865 0.48484 0.0
C1026 C 0.48471 0.94224 0.46258 0.0
C1027 C 0.55215 0.95088 0.48996 0.0
C1028 C 0.48807 0.97517 0.5155 0.0
C1029 C 0.47942 0.0155 0.52017 0.0
C1030 C 0.45999 0.02904 0.54698 0.0
C1031 C 0.4486 0.00052 0.56946 0.0
C1032 C 0.45664 0.95893 0.565 0.0
C1033 C 0.47686 0.94629 0.53767 0.0
H1034 H 0.5786 0.49626 0.5418 0.0
H1035 H 0.47814 0.44479 0.59295 0.0
H1036 H 0.43103 0.46977 0.55275 0.0
H1037 H 0.52579 0.58649 0.51498 0.0
H1038 H 0.55057 0.58623 0.47766 0.0
H1039 H 0.57592 0.56589 0.51128 0.0
H1040 H 0.5862 0.49822 0.48204 0.0
H1041 H 0.56035 0.51812 0.44849 0.0
H1042 H 0.54298 0.47209 0.46635 0.0
H1043 H 0.39535 0.49727 0.50583 0.0
H1044 H 0.37265 0.5302 0.4574 0.0
H1045 H 0.49637 0.56389 0.43674 0.0
C1046 C 0.54664 0.49073 0.5448 0.0
C1047 C 0.53201 0.46862 0.57054 0.0
C1048 C 0.49001 0.46176 0.57347 0.0
C1049 C 0.46303 0.4757 0.5507 0.0
C1050 C 0.47856 0.49651 0.52523 0.0
C1051 C 0.51931 0.50441 0.5223 0.0
C1052 C 0.52822 0.52707 0.49247 0.0
C1053 C 0.54617 0.5689 0.49953 0.0
C1054 C 0.55608 0.50239 0.47108 0.0
C1055 C 0.48612 0.53042 0.47896 0.0
C1056 C 0.45795 0.51249 0.49819 0.0
C1057 C 0.41709 0.51157 0.49064 0.0
C1058 C 0.40453 0.5302 0.463 0.0
C1059 C 0.43274 0.54956 0.44326 0.0
C1060 C 0.47411 0.54919 0.45126 0.0
H1061 H 0.98251 0.42596 0.45671 0.0
H1062 H 0.91876 0.51919 0.40544 0.0
H1063 H 0.93889 0.56939 0.44513 0.0
H1064 H 0.95629 0.46089 0.53299 0.0
H1065 H 0.00449 0.44848 0.54997 0.0
H1066 H 0.98586 0.42003 0.51723 0.0
H1067 H 0.05119 0.43609 0.48657 0.0
H1068 H 0.07009 0.46444 0.51927 0.0
H1069 H 0.06642 0.48792 0.48154 0.0
H1070 H 0.96527 0.60923 0.49074 0.0
H1071 H 0.99688 0.63624 0.53843 0.0
H1072 H 0.04323 0.51698 0.56034 0.0
C1073 C 0.97296 0.45698 0.4537 0.0
C1074 C 0.94911 0.46868 0.42788 0.0
C1075 C 0.93709 0.50953 0.42495 0.0
C1076 C 0.94834 0.53825 0.44741 0.0
C1077 C 0.97159 0.52564 0.47268 0.0
C1078 C 0.98385 0.48601 0.47592 0.0
C1079 C 0.00845 0.48026 0.5054 0.0
C1080 C 0.98751 0.45066 0.52771 0.0
C1081 C 0.0516 0.46636 0.49773 0.0
C1082 C 0.00811 0.52288 0.51827 0.0
C1083 C 0.98666 0.54856 0.49903 0.0
C1084 C 0.98215 0.5894 0.50596 0.0
C1085 C 0.00021 0.60444 0.53315 0.0
C1086 C 0.02253 0.57876 0.55318 0.0
C1087 C 0.02631 0.53738 0.54558 0.0
loop_
_geom_bond_atom_site_label_1
_geom_bond_atom_site_label_2
_geom_bond_distance
_geom_bond_site_symmetry_2
_ccdc_geom_bond_type
Co0 O1 2.216 . S
Co0 O2 2.091 . S
Co0 O4 2.004 . S
Co0 O10 2.021 . S
Co0 O12 2.137 . S
Co0 O13 2.244 . S
O1 Co0 2.216 . S
O1 C8 1.247 . S
O2 Co0 2.091 . S
O2 C8 1.261 . S
C3 O12 1.247 . S
C3 O13 1.272 . S
O4 Co0 2.004 . S
O4 C9 1.259 . S
Co5 O6 2.061 . S
Co5 O11 2.052 . S
Co5 O13 2.135 . S
O6 Co5 2.061 . S
O6 C9 1.235 . S
C7 O10 1.238 . S
C7 O11 1.241 . S
C8 O1 1.247 . S
C8 O2 1.261 . S
C9 O4 1.259 . S
C9 O6 1.235 . S
O10 Co0 2.021 . S
O10 C7 1.238 . S
O11 Co5 2.052 . S
O11 C7 1.241 . S
O12 Co0 2.137 . S
O12 C3 1.247 . S
O13 Co0 2.244 . S
O13 C3 1.272 . S
O13 Co5 2.135 . S
Co14 O15 2.216 . S
Co14 O16 2.091 . S
Co14 O18 2.004 . S
Co14 O24 2.021 . S
Co14 O26 2.137 . S
Co14 O27 2.244 . S
O15 Co14 2.216 . S
O15 C22 1.247 . S
O16 Co14 2.091 . S
O16 C22 1.261 . S
C17 O26 1.247 . S
C17 O27 1.272 . S
O18 Co14 2.004 . S
O18 C23 1.259 . S
Co19 O20 2.061 . S
Co19 O25 2.052 . S
Co19 O27 2.135 . S
O20 Co19 2.061 . S
O20 C23 1.235 . S
C21 O24 1.238 . S
C21 O25 1.241 . S
C22 O15 1.247 . S
C22 O16 1.261 . S
C23 O18 1.259 . S
C23 O20 1.235 . S
O24 Co14 2.021 . S
O24 C21 1.238 . S
O25 Co19 2.052 . S
O25 C21 1.241 . S
O26 Co14 2.137 . S
O26 C17 1.247 . S
O27 Co14 2.244 . S
O27 C17 1.272 . S
O27 Co19 2.135 . S
Co28 O29 2.216 . S
Co28 O30 2.091 . S
Co28 O32 2.004 . S
Co28 O38 2.021 . S
Co28 O40 2.137 . S
Co28 O41 2.244 . S
O29 Co28 2.216 . S
O29 C36 1.247 . S
O30 Co28 2.091 . S
O30 C36 1.261 . S
C31 O40 1.247 . S
C31 O41 1.272 . S
O32 Co28 2.004 . S
O32 C37 1.259 . S
Co33 O34 2.061 . S
Co33 O39 2.052 . S
Co33 O41 2.135 . S
O34 Co33 2.061 . S
O34 C37 1.235 . S
C35 O38 1.238 . S
C35 O39 1.241 . S
C36 O29 1.247 . S
C36 O30 1.261 . S
C37 O32 1.259 . S
C37 O34 1.235 . S
O38 Co28 2.021 . S
O38 C35 1.238 . S
O39 Co33 2.052 . S
O39 C35 1.241 . S
O40 Co28 2.137 . S
O40 C31 1.247 . S
O41 Co28 2.244 . S
O41 C31 1.272 . S
O41 Co33 2.135 . S
Co42 O43 2.216 . S
Co42 O44 2.091 . S
Co42 O46 2.004 . S
Co42 O52 2.021 . S
Co42 O54 2.137 . S
Co42 O55 2.244 . S
O43 Co42 2.216 . S
O43 C50 1.247 . S
O44 Co42 2.091 . S
O44 C50 1.261 . S
C45 O54 1.247 . S
C45 O55 1.272 . S
O46 Co42 2.004 . S
O46 C51 1.259 . S
Co47 O48 2.061 . S
Co47 O53 2.052 . S
Co47 O55 2.135 . S
O48 Co47 2.061 . S
O48 C51 1.235 . S
C49 O52 1.238 . S
C49 O53 1.241 . S
C50 O43 1.247 . S
C50 O44 1.261 . S
C51 O46 1.259 . S
C51 O48 1.235 . S
O52 Co42 2.021 . S
O52 C49 1.238 . S
O53 Co47 2.052 . S
O53 C49 1.241 . S
O54 Co42 2.137 . S
O54 C45 1.247 . S
O55 Co42 2.244 . S
O55 C45 1.272 . S
O55 Co47 2.135 . S
Co56 O57 2.216 . S
Co56 O58 2.091 . S
Co56 O60 2.004 . S
Co56 O66 2.021 . S
Co56 O68 2.137 . S
Co56 O69 2.244 . S
O57 Co56 2.216 . S
O57 C64 1.247 . S
O58 Co56 2.091 . S
O58 C64 1.261 . S
C59 O68 1.247 . S
C59 O69 1.272 . S
O60 Co56 2.004 . S
O60 C65 1.259 . S
Co61 O62 2.061 . S
Co61 O67 2.052 . S
Co61 O69 2.135 . S
O62 Co61 2.061 . S
O62 C65 1.235 . S
C63 O66 1.238 . S
C63 O67 1.241 . S
C64 O57 1.247 . S
C64 O58 1.261 . S
C65 O60 1.259 . S
C65 O62 1.235 . S
O66 Co56 2.021 . S
O66 C63 1.238 . S
O67 Co61 2.052 . S
O67 C63 1.241 . S
O68 Co56 2.137 . S
O68 C59 1.247 . S
O69 Co56 2.244 . S
O69 C59 1.272 . S
O69 Co61 2.135 . S
Co70 O71 2.216 . S
Co70 O72 2.091 . S
Co70 O74 2.004 . S
Co70 O80 2.021 . S
Co70 O82 2.137 . S
Co70 O83 2.244 . S
O71 Co70 2.216 . S
O71 C78 1.247 . S
O72 Co70 2.091 . S
O72 C78 1.261 . S
C73 O82 1.247 . S
C73 O83 1.272 . S
O74 Co70 2.004 . S
O74 C79 1.259 . S
Co75 O76 2.061 . S
Co75 O81 2.052 . S
Co75 O83 2.135 . S
O76 Co75 2.061 . S
O76 C79 1.235 . S
C77 O80 1.238 . S
C77 O81 1.241 . S
C78 O71 1.247 . S
C78 O72 1.261 . S
C79 O74 1.259 . S
C79 O76 1.235 . S
O80 Co70 2.021 . S
O80 C77 1.238 . S
O81 Co75 2.052 . S
O81 C77 1.241 . S
O82 Co70 2.137 . S
O82 C73 1.247 . S
O83 Co70 2.244 . S
O83 C73 1.272 . S
O83 Co75 2.135 . S
Co84 O85 2.216 . S
Co84 O86 2.091 . S
Co84 O88 2.004 . S
Co84 O94 2.021 . S
Co84 O96 2.137 . S
Co84 O97 2.244 . S
O85 Co84 2.216 . S
O85 C92 1.247 . S
O86 Co84 2.091 . S
O86 C92 1.261 . S
C87 O96 1.247 . S
C87 O97 1.272 . S
O88 Co84 2.004 . S
O88 C93 1.259 . S
Co89 O90 2.061 . S
Co89 O95 2.052 . S
Co89 O97 2.135 . S
O90 Co89 2.061 . S
O90 C93 1.235 . S
C91 O94 1.238 . S
C91 O95 1.241 . S
C92 O85 1.247 . S
C92 O86 1.261 . S
C93 O88 1.259 . S
C93 O90 1.235 . S
O94 Co84 2.021 . S
O94 C91 1.238 . S
O95 Co89 2.052 . S
O95 C91 1.241 . S
O96 Co84 2.137 . S
O96 C87 1.247 . S
O97 Co84 2.244 . S
O97 C87 1.272 . S
O97 Co89 2.135 . S
Co98 O99 2.216 . S
Co98 O100 2.091 . S
Co98 O102 2.004 . S
Co98 O108 2.021 . S
Co98 O110 2.137 . S
Co98 O111 2.244 . S
O99 Co98 2.216 . S
O99 C106 1.247 . S
O100 Co98 2.091 . S
O100 C106 1.261 . S
C101 O110 1.247 . S
C101 O111 1.272 . S
O102 Co98 2.004 . S
O102 C107 1.259 . S
Co103 O104 2.061 . S
Co103 O109 2.052 . S
Co103 O111 2.135 . S
O104 Co103 2.061 . S
O104 C107 1.235 . S
C105 O108 1.238 . S
C105 O109 1.241 . S
C106 O99 1.247 . S
C106 O100 1.261 . S
C107 O102 1.259 . S
C107 O104 1.235 . S
O108 Co98 2.021 . S
O108 C105 1.238 . S
O109 Co103 2.052 . S
O109 C105 1.241 . S
O110 Co98 2.137 . S
O110 C101 1.247 . S
O111 Co98 2.244 . S
O111 C101 1.272 . S
O111 Co103 2.135 . S
Co112 O113 2.216 . S
Co112 O114 2.091 . S
Co112 O116 2.004 . S
Co112 O122 2.021 . S
Co112 O124 2.137 . S
Co112 O125 2.244 . S
O113 Co112 2.216 . S
O113 C120 1.247 . S
O114 Co112 2.091 . S
O114 C120 1.261 . S
C115 O124 1.247 . S
C115 O125 1.272 . S
O116 Co112 2.004 . S
O116 C121 1.259 . S
Co117 O118 2.061 . S
Co117 O123 2.052 . S
Co117 O125 2.135 . S
O118 Co117 2.061 . S
O118 C121 1.235 . S
C119 O122 1.238 . S
C119 O123 1.241 . S
C120 O113 1.247 . S
C120 O114 1.261 . S
C121 O116 1.259 . S
C121 O118 1.235 . S
O122 Co112 2.021 . S
O122 C119 1.238 . S
O123 Co117 2.052 . S
O123 C119 1.241 . S
O124 Co112 2.137 . S
O124 C115 1.247 . S
O125 Co112 2.244 . S
O125 C115 1.272 . S
O125 Co117 2.135 . S
Co126 O127 2.216 . S
Co126 O128 2.091 . S
Co126 O130 2.004 . S
Co126 O136 2.021 . S
Co126 O138 2.137 . S
Co126 O139 2.244 . S
O127 Co126 2.216 . S
O127 C134 1.247 . S
O128 Co126 2.091 . S
O128 C134 1.261 . S
C129 O138 1.247 . S
C129 O139 1.272 . S
O130 Co126 2.004 . S
O130 C135 1.259 . S
Co131 O132 2.061 . S
Co131 O137 2.052 . S
Co131 O139 2.135 . S
O132 Co131 2.061 . S
O132 C135 1.235 . S
C133 O136 1.238 . S
C133 O137 1.241 . S
C134 O127 1.247 . S
C134 O128 1.261 . S
C135 O130 1.259 . S
C135 O132 1.235 . S
O136 Co126 2.021 . S
O136 C133 1.238 . S
O137 Co131 2.052 . S
O137 C133 1.241 . S
O138 Co126 2.137 . S
O138 C129 1.247 . S
O139 Co126 2.244 . S
O139 C129 1.272 . S
O139 Co131 2.135 . S
Co140 O141 2.216 . S
Co140 O142 2.091 . S
Co140 O144 2.004 . S
Co140 O150 2.021 . S
Co140 O152 2.137 . S
Co140 O153 2.244 . S
O141 Co140 2.216 . S
O141 C148 1.247 . S
O142 Co140 2.091 . S
O142 C148 1.261 . S
C143 O152 1.247 . S
C143 O153 1.272 . S
O144 Co140 2.004 . S
O144 C149 1.259 . S
Co145 O146 2.061 . S
Co145 O151 2.052 . S
Co145 O153 2.135 . S
O146 Co145 2.061 . S
O146 C149 1.235 . S
C147 O150 1.238 . S
C147 O151 1.241 . S
C148 O141 1.247 . S
C148 O142 1.261 . S
C149 O144 1.259 . S
C149 O146 1.235 . S
O150 Co140 2.021 . S
O150 C147 1.238 . S
O151 Co145 2.052 . S
O151 C147 1.241 . S
O152 Co140 2.137 . S
O152 C143 1.247 . S
O153 Co140 2.244 . S
O153 C143 1.272 . S
O153 Co145 2.135 . S
Co154 O155 2.216 . S
Co154 O156 2.091 . S
Co154 O158 2.004 . S
Co154 O164 2.021 . S
Co154 O166 2.137 . S
Co154 O167 2.244 . S
O155 Co154 2.216 . S
O155 C162 1.247 . S
O156 Co154 2.091 . S
O156 C162 1.261 . S
C157 O166 1.247 . S
C157 O167 1.272 . S
O158 Co154 2.004 . S
O158 C163 1.259 . S
Co159 O160 2.061 . S
Co159 O165 2.052 . S
Co159 O167 2.135 . S
O160 Co159 2.061 . S
O160 C163 1.235 . S
C161 O164 1.238 . S
C161 O165 1.241 . S
C162 O155 1.247 . S
C162 O156 1.261 . S
C163 O158 1.259 . S
C163 O160 1.235 . S
O164 Co154 2.021 . S
O164 C161 1.238 . S
O165 Co159 2.052 . S
O165 C161 1.241 . S
O166 Co154 2.137 . S
O166 C157 1.247 . S
O167 Co154 2.244 . S
O167 C157 1.272 . S
O167 Co159 2.135 . S
Co168 O169 2.216 . S
Co168 O170 2.091 . S
Co168 O172 2.004 . S
Co168 O178 2.021 . S
Co168 O180 2.137 . S
Co168 O181 2.244 . S
O169 Co168 2.216 . S
O169 C176 1.247 . S
O170 Co168 2.091 . S
O170 C176 1.261 . S
C171 O180 1.247 . S
C171 O181 1.272 . S
O172 Co168 2.004 . S
O172 C177 1.259 . S
Co173 O174 2.061 . S
Co173 O179 2.052 . S
Co173 O181 2.135 . S
O174 Co173 2.061 . S
O174 C177 1.235 . S
C175 O178 1.238 . S
C175 O179 1.241 . S
C176 O169 1.247 . S
C176 O170 1.261 . S
C177 O172 1.259 . S
C177 O174 1.235 . S
O178 Co168 2.021 . S
O178 C175 1.238 . S
O179 Co173 2.052 . S
O179 C175 1.241 . S
O180 Co168 2.137 . S
O180 C171 1.247 . S
O181 Co168 2.244 . S
O181 C171 1.272 . S
O181 Co173 2.135 . S
Co182 O183 2.216 . S
Co182 O184 2.091 . S
Co182 O186 2.004 . S
Co182 O192 2.021 . S
Co182 O194 2.137 . S
Co182 O195 2.244 . S
O183 Co182 2.216 . S
O183 C190 1.247 . S
O184 Co182 2.091 . S
O184 C190 1.261 . S
C185 O194 1.247 . S
C185 O195 1.272 . S
O186 Co182 2.004 . S
O186 C191 1.259 . S
Co187 O188 2.061 . S
Co187 O193 2.052 . S
Co187 O195 2.135 . S
O188 Co187 2.061 . S
O188 C191 1.235 . S
C189 O192 1.238 . S
C189 O193 1.241 . S
C190 O183 1.247 . S
C190 O184 1.261 . S
C191 O186 1.259 . S
C191 O188 1.235 . S
O192 Co182 2.021 . S
O192 C189 1.238 . S
O193 Co187 2.052 . S
O193 C189 1.241 . S
O194 Co182 2.137 . S
O194 C185 1.247 . S
O195 Co182 2.244 . S
O195 C185 1.272 . S
O195 Co187 2.135 . S
Co196 O197 2.216 . S
Co196 O198 2.091 . S
Co196 O200 2.004 . S
Co196 O206 2.021 . S
Co196 O208 2.137 . S
Co196 O209 2.244 . S
O197 Co196 2.216 . S
O197 C204 1.247 . S
O198 Co196 2.091 . S
O198 C204 1.261 . S
C199 O208 1.247 . S
C199 O209 1.272 . S
O200 Co196 2.004 . S
O200 C205 1.259 . S
Co201 O202 2.061 . S
Co201 O207 2.052 . S
Co201 O209 2.135 . S
O202 Co201 2.061 . S
O202 C205 1.235 . S
C203 O206 1.238 . S
C203 O207 1.241 . S
C204 O197 1.247 . S
C204 O198 1.261 . S
C205 O200 1.259 . S
C205 O202 1.235 . S
O206 Co196 2.021 . S
O206 C203 1.238 . S
O207 Co201 2.052 . S
O207 C203 1.241 . S
O208 Co196 2.137 . S
O208 C199 1.247 . S
O209 Co196 2.244 . S
O209 C199 1.272 . S
O209 Co201 2.135 . S
Co210 O211 2.216 . S
Co210 O212 2.091 . S
Co210 O214 2.004 . S
Co210 O220 2.021 . S
Co210 O222 2.137 . S
Co210 O223 2.244 . S
O211 Co210 2.216 . S
O211 C218 1.247 . S
O212 Co210 2.091 . S
O212 C218 1.261 . S
C213 O222 1.247 . S
C213 O223 1.272 . S
O214 Co210 2.004 . S
O214 C219 1.259 . S
Co215 O216 2.061 . S
Co215 O221 2.052 . S
Co215 O223 2.135 . S
O216 Co215 2.061 . S
O216 C219 1.235 . S
C217 O220 1.238 . S
C217 O221 1.241 . S
C218 O211 1.247 . S
C218 O212 1.261 . S
C219 O214 1.259 . S
C219 O216 1.235 . S
O220 Co210 2.021 . S
O220 C217 1.238 . S
O221 Co215 2.052 . S
O221 C217 1.241 . S
O222 Co210 2.137 . S
O222 C213 1.247 . S
O223 Co210 2.244 . S
O223 C213 1.272 . S
O223 Co215 2.135 . S
H224 C236 0.930 . S
H225 C238 0.930 . S
H226 C239 0.930 . S
H227 C243 0.959 . S
H228 C243 0.959 . S
H229 C243 0.961 . S
H230 C244 0.960 . S
H231 C244 0.961 . S
H232 C244 0.959 . S
H233 C247 0.929 . S
H234 C248 0.931 . S
H235 C250 0.930 . S
C236 H224 0.930 . S
C236 C237 1.399 . S
C236 C241 1.399 . S
C237 C236 1.399 . S
C237 C238 1.376 . S
C238 H225 0.930 . S
C238 C237 1.376 . S
C238 C239 1.388 . S
C239 H226 0.930 . S
C239 C238 1.388 . S
C239 C240 1.390 . S
C240 C239 1.390 . S
C240 C241 1.394 . S
C240 C246 1.465 . S
C241 C236 1.399 . S
C241 C240 1.394 . S
C241 C242 1.516 . S
C242 C241 1.516 . S
C242 C243 1.502 . S
C242 C244 1.561 . S
C242 C245 1.526 . S
C243 H227 0.959 . S
C243 H228 0.959 . S
C243 H229 0.961 . S
C243 C242 1.502 . S
C244 H230 0.960 . S
C244 H231 0.961 . S
C244 H232 0.959 . S
C244 C242 1.561 . S
C245 C242 1.526 . S
C245 C246 1.396 . S
C245 C250 1.390 . S
C246 C240 1.465 . S
C246 C245 1.396 . S
C246 C247 1.399 . S
C247 H233 0.929 . S
C247 C246 1.399 . S
C247 C248 1.385 . S
C248 H234 0.931 . S
C248 C247 1.385 . S
C248 C249 1.389 . S
C249 C248 1.389 . S
C249 C250 1.387 . S
C250 H235 0.930 . S
C250 C245 1.390 . S
C250 C249 1.387 . S
H251 C263 0.930 . S
H252 C265 0.930 . S
H253 C266 0.930 . S
H254 C270 0.959 . S
H255 C270 0.959 . S
H256 C270 0.961 . S
H257 C271 0.960 . S
H258 C271 0.961 . S
H259 C271 0.959 . S
H260 C274 0.929 . S
H261 C275 0.931 . S
H262 C277 0.930 . S
C263 H251 0.930 . S
C263 C264 1.399 . S
C263 C268 1.399 . S
C264 C263 1.399 . S
C264 C265 1.376 . S
C265 H252 0.930 . S
C265 C264 1.376 . S
C265 C266 1.388 . S
C266 H253 0.930 . S
C266 C265 1.388 . S
C266 C267 1.390 . S
C267 C266 1.390 . S
C267 C268 1.394 . S
C267 C273 1.465 . S
C268 C263 1.399 . S
C268 C267 1.394 . S
C268 C269 1.516 . S
C269 C268 1.516 . S
C269 C270 1.502 . S
C269 C271 1.561 . S
C269 C272 1.526 . S
C270 H254 0.959 . S
C270 H255 0.959 . S
C270 H256 0.961 . S
C270 C269 1.502 . S
C271 H257 0.960 . S
C271 H258 0.961 . S
C271 H259 0.959 . S
C271 C269 1.561 . S
C272 C269 1.526 . S
C272 C273 1.396 . S
C272 C277 1.390 . S
C273 C267 1.465 . S
C273 C272 1.396 . S
C273 C274 1.399 . S
C274 H260 0.929 . S
C274 C273 1.399 . S
C274 C275 1.385 . S
C275 H261 0.931 . S
C275 C274 1.385 . S
C275 C276 1.389 . S
C276 C275 1.389 . S
C276 C277 1.387 . S
C277 H262 0.930 . S
C277 C272 1.390 . S
C277 C276 1.387 . S
H278 C290 0.930 . S
H279 C292 0.930 . S
H280 C293 0.930 . S
H281 C297 0.959 . S
H282 C297 0.959 . S
H283 C297 0.961 . S
H284 C298 0.960 . S
H285 C298 0.961 . S
H286 C298 0.959 . S
H287 C301 0.929 . S
H288 C302 0.931 . S
H289 C304 0.930 . S
C290 H278 0.930 . S
C290 C291 1.399 . S
C290 C295 1.399 . S
C291 C290 1.399 . S
C291 C292 1.376 . S
C292 H279 0.930 . S
C292 C291 1.376 . S
C292 C293 1.388 . S
C293 H280 0.930 . S
C293 C292 1.388 . S
C293 C294 1.390 . S
C294 C293 1.390 . S
C294 C295 1.394 . S
C294 C300 1.465 . S
C295 C290 1.399 . S
C295 C294 1.394 . S
C295 C296 1.516 . S
C296 C295 1.516 . S
C296 C297 1.502 . S
C296 C298 1.561 . S
C296 C299 1.526 . S
C297 H281 0.959 . S
C297 H282 0.959 . S
C297 H283 0.961 . S
C297 C296 1.502 . S
C298 H284 0.960 . S
C298 H285 0.961 . S
C298 H286 0.959 . S
C298 C296 1.561 . S
C299 C296 1.526 . S
C299 C300 1.396 . S
C299 C304 1.390 . S
C300 C294 1.465 . S
C300 C299 1.396 . S
C300 C301 1.399 . S
C301 H287 0.929 . S
C301 C300 1.399 . S
C301 C302 1.385 . S
C302 H288 0.931 . S
C302 C301 1.385 . S
C302 C303 1.389 . S
C303 C302 1.389 . S
C303 C304 1.387 . S
C304 H289 0.930 . S
C304 C299 1.390 . S
C304 C303 1.387 . S
H305 C317 0.930 . S
H306 C319 0.930 . S
H307 C320 0.930 . S
H308 C324 0.959 . S
H309 C324 0.959 . S
H310 C324 0.961 . S
H311 C325 0.960 . S
H312 C325 0.961 . S
H313 C325 0.959 . S
H314 C328 0.929 . S
H315 C329 0.931 . S
H316 C331 0.930 . S
C317 H305 0.930 . S
C317 C318 1.399 . S
C317 C322 1.399 . S
C318 C317 1.399 . S
C318 C319 1.376 . S
C319 H306 0.930 . S
C319 C318 1.376 . S
C319 C320 1.388 . S
C320 H307 0.930 . S
C320 C319 1.388 . S
C320 C321 1.390 . S
C321 C320 1.390 . S
C321 C322 1.394 . S
C321 C327 1.465 . S
C322 C317 1.399 . S
C322 C321 1.394 . S
C322 C323 1.516 . S
C323 C322 1.516 . S
C323 C324 1.502 . S
C323 C325 1.561 . S
C323 C326 1.526 . S
C324 H308 0.959 . S
C324 H309 0.959 . S
C324 H310 0.961 . S
C324 C323 1.502 . S
C325 H311 0.960 . S
C325 H312 0.961 . S
C325 H313 0.959 . S
C325 C323 1.561 . S
C326 C323 1.526 . S
C326 C327 1.396 . S
C326 C331 1.390 . S
C327 C321 1.465 . S
C327 C326 1.396 . S
C327 C328 1.399 . S
C328 H314 0.929 . S
C328 C327 1.399 . S
C328 C329 1.385 . S
C329 H315 0.931 . S
C329 C328 1.385 . S
C329 C330 1.389 . S
C330 C329 1.389 . S
C330 C331 1.387 . S
C331 H316 0.930 . S
C331 C326 1.390 . S
C331 C330 1.387 . S
H332 C344 0.930 . S
H333 C346 0.930 . S
H334 C347 0.930 . S
H335 C351 0.959 . S
H336 C351 0.959 . S
H337 C351 0.961 . S
H338 C352 0.960 . S
H339 C352 0.961 . S
H340 C352 0.959 . S
H341 C355 0.929 . S
H342 C356 0.931 . S
H343 C358 0.930 . S
C344 H332 0.930 . S
C344 C345 1.399 . S
C344 C349 1.399 . S
C345 C344 1.399 . S
C345 C346 1.376 . S
C346 H333 0.930 . S
C346 C345 1.376 . S
C346 C347 1.388 . S
C347 H334 0.930 . S
C347 C346 1.388 . S
C347 C348 1.390 . S
C348 C347 1.390 . S
C348 C349 1.394 . S
C348 C354 1.465 . S
C349 C344 1.399 . S
C349 C348 1.394 . S
C349 C350 1.516 . S
C350 C349 1.516 . S
C350 C351 1.502 . S
C350 C352 1.561 . S
C350 C353 1.526 . S
C351 H335 0.959 . S
C351 H336 0.959 . S
C351 H337 0.961 . S
C351 C350 1.502 . S
C352 H338 0.960 . S
C352 H339 0.961 . S
C352 H340 0.959 . S
C352 C350 1.561 . S
C353 C350 1.526 . S
C353 C354 1.396 . S
C353 C358 1.390 . S
C354 C348 1.465 . S
C354 C353 1.396 . S
C354 C355 1.399 . S
C355 H341 0.929 . S
C355 C354 1.399 . S
C355 C356 1.385 . S
C356 H342 0.931 . S
C356 C355 1.385 . S
C356 C357 1.389 . S
C357 C356 1.389 . S
C357 C358 1.387 . S
C358 H343 0.930 . S
C358 C353 1.390 . S
C358 C357 1.387 . S
H359 C371 0.930 . S
H360 C373 0.930 . S
H361 C374 0.930 . S
H362 C378 0.959 . S
H363 C378 0.959 . S
H364 C378 0.961 . S
H365 C379 0.960 . S
H366 C379 0.961 . S
H367 C379 0.959 . S
H368 C382 0.929 . S
H369 C383 0.931 . S
H370 C385 0.930 . S
C371 H359 0.930 . S
C371 C372 1.399 . S
C371 C376 1.399 . S
C372 C371 1.399 . S
C372 C373 1.376 . S
C373 H360 0.930 . S
C373 C372 1.376 . S
C373 C374 1.388 . S
C374 H361 0.930 . S
C374 C373 1.388 . S
C374 C375 1.390 . S
C375 C374 1.390 . S
C375 C376 1.394 . S
C375 C381 1.465 . S
C376 C371 1.399 . S
C376 C375 1.394 . S
C376 C377 1.516 . S
C377 C376 1.516 . S
C377 C378 1.502 . S
C377 C379 1.561 . S
C377 C380 1.526 . S
C378 H362 0.959 . S
C378 H363 0.959 . S
C378 H364 0.961 . S
C378 C377 1.502 . S
C379 H365 0.960 . S
C379 H366 0.961 . S
C379 H367 0.959 . S
C379 C377 1.561 . S
C380 C377 1.526 . S
C380 C381 1.396 . S
C380 C385 1.390 . S
C381 C375 1.465 . S
C381 C380 1.396 . S
C381 C382 1.399 . S
C382 H368 0.929 . S
C382 C381 1.399 . S
C382 C383 1.385 . S
C383 H369 0.931 . S
C383 C382 1.385 . S
C383 C384 1.389 . S
C384 C383 1.389 . S
C384 C385 1.387 . S
C385 H370 0.930 . S
C385 C380 1.390 . S
C385 C384 1.387 . S
H386 C398 0.930 . S
H387 C400 0.930 . S
H388 C401 0.930 . S
H389 C405 0.959 . S
H390 C405 0.959 . S
H391 C405 0.961 . S
H392 C406 0.960 . S
H393 C406 0.961 . S
H394 C406 0.959 . S
H395 C409 0.929 . S
H396 C410 0.931 . S
H397 C412 0.930 . S
C398 H386 0.930 . S
C398 C399 1.399 . S
C398 C403 1.399 . S
C399 C398 1.399 . S
C399 C400 1.376 . S
C400 H387 0.930 . S
C400 C399 1.376 . S
C400 C401 1.388 . S
C401 H388 0.930 . S
C401 C400 1.388 . S
C401 C402 1.390 . S
C402 C401 1.390 . S
C402 C403 1.394 . S
C402 C408 1.465 . S
C403 C398 1.399 . S
C403 C402 1.394 . S
C403 C404 1.516 . S
C404 C403 1.516 . S
C404 C405 1.502 . S
C404 C406 1.561 . S
C404 C407 1.526 . S
C405 H389 0.959 . S
C405 H390 0.959 . S
C405 H391 0.961 . S
C405 C404 1.502 . S
C406 H392 0.960 . S
C406 H393 0.961 . S
C406 H394 0.959 . S
C406 C404 1.561 . S
C407 C404 1.526 . S
C407 C408 1.396 . S
C407 C412 1.390 . S
C408 C402 1.465 . S
C408 C407 1.396 . S
C408 C409 1.399 . S
C409 H395 0.929 . S
C409 C408 1.399 . S
C409 C410 1.385 . S
C410 H396 0.931 . S
C410 C409 1.385 . S
C410 C411 1.389 . S
C411 C410 1.389 . S
C411 C412 1.387 . S
C412 H397 0.930 . S
C412 C407 1.390 . S
C412 C411 1.387 . S
H413 C425 0.930 . S
H414 C427 0.930 . S
H415 C428 0.930 . S
H416 C432 0.959 . S
H417 C432 0.959 . S
H418 C432 0.961 . S
H419 C433 0.960 . S
H420 C433 0.961 . S
H421 C433 0.959 . S
H422 C436 0.929 . S
H423 C437 0.931 . S
H424 C439 0.930 . S
C425 H413 0.930 . S
C425 C426 1.399 . S
C425 C430 1.399 . S
C426 C425 1.399 . S
C426 C427 1.376 . S
C427 H414 0.930 . S
C427 C426 1.376 . S
C427 C428 1.388 . S
C428 H415 0.930 . S
C428 C427 1.388 . S
C428 C429 1.390 . S
C429 C428 1.390 . S
C429 C430 1.394 . S
C429 C435 1.465 . S
C430 C425 1.399 . S
C430 C429 1.394 . S
C430 C431 1.516 . S
C431 C430 1.516 . S
C431 C432 1.502 . S
C431 C433 1.561 . S
C431 C434 1.526 . S
C432 H416 0.959 . S
C432 H417 0.959 . S
C432 H418 0.961 . S
C432 C431 1.502 . S
C433 H419 0.960 . S
C433 H420 0.961 . S
C433 H421 0.959 . S
C433 C431 1.561 . S
C434 C431 1.526 . S
C434 C435 1.396 . S
C434 C439 1.390 . S
C435 C429 1.465 . S
C435 C434 1.396 . S
C435 C436 1.399 . S
C436 H422 0.929 . S
C436 C435 1.399 . S
C436 C437 1.385 . S
C437 H423 0.931 . S
C437 C436 1.385 . S
C437 C438 1.389 . S
C438 C437 1.389 . S
C438 C439 1.387 . S
C439 H424 0.930 . S
C439 C434 1.390 . S
C439 C438 1.387 . S
H440 C452 0.930 . S
H441 C454 0.930 . S
H442 C455 0.930 . S
H443 C459 0.959 1_455 S
H444 C459 0.959 . S
H445 C459 0.961 . S
H446 C460 0.960 . S
H447 C460 0.961 . S
H448 C460 0.959 . S
H449 C463 0.929 . S
H450 C464 0.937 . S
H451 C466 0.930 . S
C452 H440 0.930 . S
C452 C453 1.399 . S
C452 C457 1.399 . S
C453 C452 1.399 . S
C453 C454 1.376 . S
C454 H441 0.930 . S
C454 C453 1.376 . S
C454 C455 1.388 . S
C455 H442 0.930 . S
C455 C454 1.388 . S
C455 C456 1.390 . S
C456 C455 1.390 . S
C456 C457 1.394 . S
C456 C462 1.465 . S
C457 C452 1.399 . S
C457 C456 1.394 . S
C457 C458 1.516 . S
C458 C457 1.516 . S
C458 C459 1.502 . S
C458 C460 1.561 . S
C458 C461 1.526 . S
C459 H443 0.959 1_655 S
C459 H444 0.959 . S
C459 H445 0.961 . S
C459 C458 1.502 . S
C460 H446 0.960 . S
C460 H447 0.961 . S
C460 H448 0.959 . S
C460 C458 1.561 . S
C461 C458 1.526 . S
C461 C462 1.396 . S
C461 C466 1.390 . S
C462 C456 1.465 . S
C462 C461 1.396 . S
C462 C463 1.399 . S
C463 H449 0.929 . S
C463 C462 1.399 . S
C463 C464 1.385 . S
C464 H450 0.937 . S
C464 C463 1.385 . S
C464 C465 1.389 1_655 S
C465 C464 1.389 1_455 S
C465 C466 1.387 1_455 S
C466 H451 0.930 . S
C466 C461 1.390 . S
C466 C465 1.387 1_655 S
H467 C479 0.930 . S
H468 C481 0.930 . S
H469 C482 0.930 . S
H470 C486 0.959 1_455 S
H471 C486 0.959 1_455 S
H472 C486 0.961 . S
H473 C487 0.960 . S
H474 C487 0.961 . S
H475 C487 0.959 . S
H476 C490 0.929 . S
H477 C491 0.931 . S
H478 C493 0.932 . S
C479 H467 0.930 . S
C479 C480 1.399 1_545 S
C479 C484 1.399 1_545 S
C480 C479 1.399 1_565 S
C480 C481 1.376 . S
C481 H468 0.930 . S
C481 C480 1.376 . S
C481 C482 1.388 . S
C482 H469 0.930 . S
C482 C481 1.388 . S
C482 C483 1.390 . S
C483 C482 1.390 . S
C483 C484 1.394 . S
C483 C489 1.465 . S
C484 C479 1.399 1_565 S
C484 C483 1.394 . S
C484 C485 1.516 1_565 S
C485 C484 1.516 1_545 S
C485 C486 1.502 . S
C485 C487 1.561 . S
C485 C488 1.526 1_545 S
C486 H470 0.959 1_655 S
C486 H471 0.959 1_655 S
C486 H472 0.961 . S
C486 C485 1.502 . S
C487 H473 0.960 . S
C487 H474 0.961 . S
C487 H475 0.959 . S
C487 C485 1.561 . S
C488 C485 1.526 1_565 S
C488 C489 1.396 . S
C488 C493 1.390 . S
C489 C483 1.465 . S
C489 C488 1.396 . S
C489 C490 1.399 . S
C490 H476 0.929 . S
C490 C489 1.399 . S
C490 C491 1.385 . S
C491 H477 0.931 . S
C491 C490 1.385 . S
C491 C492 1.389 1_655 S
C492 C491 1.389 1_455 S
C492 C493 1.387 1_455 S
C493 H478 0.932 . S
C493 C488 1.390 . S
C493 C492 1.387 1_655 S
H494 C506 0.930 . S
H495 C508 0.930 . S
H496 C509 0.930 . S
H497 C513 0.959 . S
H498 C513 0.959 . S
H499 C513 0.961 . S
H500 C514 0.960 . S
H501 C514 0.961 . S
H502 C514 0.959 . S
H503 C517 0.929 1_545 S
H504 C518 0.931 . S
H505 C520 0.930 . S
C506 H494 0.930 . S
C506 C507 1.399 1_565 S
C506 C511 1.399 . S
C507 C506 1.399 1_545 S
C507 C508 1.376 . S
C508 H495 0.930 . S
C508 C507 1.376 . S
C508 C509 1.388 . S
C509 H496 0.930 . S
C509 C508 1.388 . S
C509 C510 1.390 1_545 S
C510 C509 1.390 1_565 S
C510 C511 1.394 . S
C510 C516 1.465 . S
C511 C506 1.399 . S
C511 C510 1.394 . S
C511 C512 1.516 . S
C512 C511 1.516 . S
C512 C513 1.502 . S
C512 C514 1.561 . S
C512 C515 1.526 . S
C513 H497 0.959 . S
C513 H498 0.959 . S
C513 H499 0.961 . S
C513 C512 1.502 . S
C514 H500 0.960 . S
C514 H501 0.961 . S
C514 H502 0.959 . S
C514 C512 1.561 . S
C515 C512 1.526 . S
C515 C516 1.396 . S
C515 C520 1.390 . S
C516 C510 1.465 . S
C516 C515 1.396 . S
C516 C517 1.399 . S
C517 H503 0.929 1_565 S
C517 C516 1.399 . S
C517 C518 1.385 . S
C518 H504 0.931 . S
C518 C517 1.385 . S
C518 C519 1.389 . S
C519 C518 1.389 . S
C519 C520 1.387 . S
C520 H505 0.930 . S
C520 C515 1.390 . S
C520 C519 1.387 . S
H521 C533 0.930 . S
H522 C535 0.930 . S
H523 C536 0.930 . S
H524 C540 0.959 . S
H525 C540 0.959 . S
H526 C540 0.961 . S
H527 C541 0.960 . S
H528 C541 0.961 . S
H529 C541 0.959 . S
H530 C544 0.929 . S
H531 C545 0.931 . S
H532 C547 0.930 . S
C533 H521 0.930 . S
C533 C534 1.399 . S
C533 C538 1.399 . S
C534 C533 1.399 . S
C534 C535 1.376 . S
C535 H522 0.930 . S
C535 C534 1.376 . S
C535 C536 1.388 . S
C536 H523 0.930 . S
C536 C535 1.388 . S
C536 C537 1.390 . S
C537 C536 1.390 . S
C537 C538 1.394 . S
C537 C543 1.465 . S
C538 C533 1.399 . S
C538 C537 1.394 . S
C538 C539 1.516 . S
C539 C538 1.516 . S
C539 C540 1.502 . S
C539 C541 1.561 . S
C539 C542 1.526 . S
C540 H524 0.959 . S
C540 H525 0.959 . S
C540 H526 0.961 . S
C540 C539 1.502 . S
C541 H527 0.960 . S
C541 H528 0.961 . S
C541 H529 0.959 . S
C541 C539 1.561 . S
C542 C539 1.526 . S
C542 C543 1.396 . S
C542 C547 1.390 . S
C543 C537 1.465 . S
C543 C542 1.396 . S
C543 C544 1.399 . S
C544 H530 0.929 . S
C544 C543 1.399 . S
C544 C545 1.385 . S
C545 H531 0.931 . S
C545 C544 1.385 . S
C545 C546 1.389 . S
C546 C545 1.389 . S
C546 C547 1.387 . S
C547 H532 0.930 . S
C547 C542 1.390 . S
C547 C546 1.387 . S
H548 C560 0.930 . S
H549 C562 0.930 . S
H550 C563 0.930 . S
H551 C567 0.959 . S
H552 C567 0.959 . S
H553 C567 0.961 . S
H554 C568 0.960 . S
H555 C568 0.961 . S
H556 C568 0.959 . S
H557 C571 0.929 . S
H558 C572 0.927 1_655 S
H559 C574 0.928 1_655 S
C560 H548 0.930 . S
C560 C561 1.399 . S
C560 C565 1.399 . S
C561 C560 1.399 . S
C561 C562 1.376 . S
C562 H549 0.930 . S
C562 C561 1.376 . S
C562 C563 1.388 . S
C563 H550 0.930 . S
C563 C562 1.388 . S
C563 C564 1.390 . S
C564 C563 1.390 . S
C564 C565 1.394 . S
C564 C570 1.465 . S
C565 C560 1.399 . S
C565 C564 1.394 . S
C565 C566 1.516 . S
C566 C565 1.516 . S
C566 C567 1.502 . S
C566 C568 1.561 1_455 S
C566 C569 1.526 . S
C567 H551 0.959 . S
C567 H552 0.959 . S
C567 H553 0.961 . S
C567 C566 1.502 . S
C568 H554 0.960 . S
C568 H555 0.961 . S
C568 H556 0.959 . S
C568 C566 1.561 1_655 S
C569 C566 1.526 . S
C569 C570 1.396 . S
C569 C574 1.390 . S
C570 C564 1.465 . S
C570 C569 1.396 . S
C570 C571 1.399 . S
C571 H557 0.929 . S
C571 C570 1.399 . S
C571 C572 1.385 . S
C572 H558 0.927 1_455 S
C572 C571 1.385 . S
C572 C573 1.389 1_455 S
C573 C572 1.389 1_655 S
C573 C574 1.387 1_655 S
C574 H559 0.928 1_455 S
C574 C569 1.390 . S
C574 C573 1.387 1_455 S
H575 C587 0.930 . S
H576 C589 0.930 . S
H577 C590 0.930 . S
H578 C594 0.959 . S
H579 C594 0.959 . S
H580 C594 0.961 . S
H581 C595 0.960 . S
H582 C595 0.961 . S
H583 C595 0.959 1_545 S
H584 C598 0.929 . S
H585 C599 0.931 . S
H586 C601 0.930 . S
C587 H575 0.930 . S
C587 C588 1.399 1_565 S
C587 C592 1.399 1_565 S
C588 C587 1.399 1_545 S
C588 C589 1.376 . S
C589 H576 0.930 . S
C589 C588 1.376 . S
C589 C590 1.388 . S
C590 H577 0.930 . S
C590 C589 1.388 . S
C590 C591 1.390 . S
C591 C590 1.390 . S
C591 C592 1.394 . S
C591 C597 1.465 . S
C592 C587 1.399 1_545 S
C592 C591 1.394 . S
C592 C593 1.516 1_545 S
C593 C592 1.516 1_565 S
C593 C594 1.502 . S
C593 C595 1.561 1_455 S
C593 C596 1.526 1_565 S
C594 H578 0.959 . S
C594 H579 0.959 . S
C594 H580 0.961 . S
C594 C593 1.502 . S
C595 H581 0.960 . S
C595 H582 0.961 . S
C595 H583 0.959 1_565 S
C595 C593 1.561 1_655 S
C596 C593 1.526 1_545 S
C596 C597 1.396 . S
C596 C601 1.390 1_455 S
C597 C591 1.465 . S
C597 C596 1.396 . S
C597 C598 1.399 . S
C598 H584 0.929 . S
C598 C597 1.399 . S
C598 C599 1.385 . S
C599 H585 0.931 . S
C599 C598 1.385 . S
C599 C600 1.389 1_455 S
C600 C599 1.389 1_655 S
C600 C601 1.387 . S
C601 H586 0.930 . S
C601 C596 1.390 1_655 S
C601 C600 1.387 . S
H602 C614 0.930 . S
H603 C616 0.930 . S
H604 C617 0.930 1_565 S
H605 C621 0.959 . S
H606 C621 0.959 . S
H607 C621 0.961 . S
H608 C622 0.960 . S
H609 C622 0.961 . S
H610 C622 0.959 . S
H611 C625 0.929 . S
H612 C626 0.931 . S
H613 C628 0.930 . S
C614 H602 0.930 . S
C614 C615 1.399 . S
C614 C619 1.399 . S
C615 C614 1.399 . S
C615 C616 1.376 . S
C616 H603 0.930 . S
C616 C615 1.376 . S
C616 C617 1.388 . S
C617 H604 0.930 1_545 S
C617 C616 1.388 . S
C617 C618 1.390 . S
C618 C617 1.390 . S
C618 C619 1.394 . S
C618 C624 1.465 . S
C619 C614 1.399 . S
C619 C618 1.394 . S
C619 C620 1.516 . S
C620 C619 1.516 . S
C620 C621 1.502 . S
C620 C622 1.561 . S
C620 C623 1.526 . S
C621 H605 0.959 . S
C621 H606 0.959 . S
C621 H607 0.961 . S
C621 C620 1.502 . S
C622 H608 0.960 . S
C622 H609 0.961 . S
C622 H610 0.959 . S
C622 C620 1.561 . S
C623 C620 1.526 . S
C623 C624 1.396 . S
C623 C628 1.390 . S
C624 C618 1.465 . S
C624 C623 1.396 . S
C624 C625 1.399 1_545 S
C625 H611 0.929 . S
C625 C624 1.399 1_565 S
C625 C626 1.385 . S
C626 H612 0.931 . S
C626 C625 1.385 . S
C626 C627 1.389 . S
C627 C626 1.389 . S
C627 C628 1.387 1_565 S
C628 H613 0.930 . S
C628 C623 1.390 . S
C628 C627 1.387 1_545 S
H629 C641 0.930 . S
H630 C643 0.930 . S
H631 C644 0.930 . S
H632 C648 0.959 . S
H633 C648 0.959 . S
H634 C648 0.961 . S
H635 C649 0.960 . S
H636 C649 0.961 . S
H637 C649 0.959 . S
H638 C652 0.929 . S
H639 C653 0.931 . S
H640 C655 0.930 . S
C641 H629 0.930 . S
C641 C642 1.399 . S
C641 C646 1.399 . S
C642 C641 1.399 . S
C642 C643 1.376 . S
C643 H630 0.930 . S
C643 C642 1.376 . S
C643 C644 1.388 . S
C644 H631 0.930 . S
C644 C643 1.388 . S
C644 C645 1.390 . S
C645 C644 1.390 . S
C645 C646 1.394 . S
C645 C651 1.465 . S
C646 C641 1.399 . S
C646 C645 1.394 . S
C646 C647 1.516 . S
C647 C646 1.516 . S
C647 C648 1.502 . S
C647 C649 1.561 . S
C647 C650 1.526 . S
C648 H632 0.959 . S
C648 H633 0.959 . S
C648 H634 0.961 . S
C648 C647 1.502 . S
C649 H635 0.960 . S
C649 H636 0.961 . S
C649 H637 0.959 . S
C649 C647 1.561 . S
C650 C647 1.526 . S
C650 C651 1.396 . S
C650 C655 1.390 . S
C651 C645 1.465 . S
C651 C650 1.396 . S
C651 C652 1.399 . S
C652 H638 0.929 . S
C652 C651 1.399 . S
C652 C653 1.385 . S
C653 H639 0.931 . S
C653 C652 1.385 . S
C653 C654 1.389 . S
C654 C653 1.389 . S
C654 C655 1.387 . S
C655 H640 0.930 . S
C655 C650 1.390 . S
C655 C654 1.387 . S
H656 C668 0.930 . S
H657 C670 0.930 . S
H658 C671 0.930 . S
H659 C675 0.959 . S
H660 C675 0.959 . S
H661 C675 0.961 . S
H662 C676 0.960 . S
H663 C676 0.961 . S
H664 C676 0.959 . S
H665 C679 0.929 . S
H666 C680 0.931 . S
H667 C682 0.930 . S
C668 H656 0.930 . S
C668 C669 1.399 . S
C668 C673 1.399 . S
C669 C668 1.399 . S
C669 C670 1.376 . S
C670 H657 0.930 . S
C670 C669 1.376 . S
C670 C671 1.388 . S
C671 H658 0.930 . S
C671 C670 1.388 . S
C671 C672 1.390 . S
C672 C671 1.390 . S
C672 C673 1.394 . S
C672 C678 1.465 . S
C673 C668 1.399 . S
C673 C672 1.394 . S
C673 C674 1.516 . S
C674 C673 1.516 . S
C674 C675 1.502 1_455 S
C674 C676 1.561 . S
C674 C677 1.526 . S
C675 H659 0.959 . S
C675 H660 0.959 . S
C675 H661 0.961 . S
C675 C674 1.502 1_655 S
C676 H662 0.960 . S
C676 H663 0.961 . S
C676 H664 0.959 . S
C676 C674 1.561 . S
C677 C674 1.526 . S
C677 C678 1.396 . S
C677 C682 1.390 . S
C678 C672 1.465 . S
C678 C677 1.396 . S
C678 C679 1.399 . S
C679 H665 0.929 . S
C679 C678 1.399 . S
C679 C680 1.385 . S
C680 H666 0.931 . S
C680 C679 1.385 . S
C680 C681 1.389 . S
C681 C680 1.389 . S
C681 C682 1.387 . S
C682 H667 0.930 . S
C682 C677 1.390 . S
C682 C681 1.387 . S
H683 C695 0.930 . S
H684 C697 0.930 . S
H685 C698 0.930 . S
H686 C702 0.959 . S
H687 C702 0.959 . S
H688 C702 0.961 . S
H689 C703 0.960 . S
H690 C703 0.961 . S
H691 C703 0.959 . S
H692 C706 0.929 . S
H693 C707 0.931 . S
H694 C709 0.930 . S
C695 H683 0.930 . S
C695 C696 1.399 1_565 S
C695 C700 1.397 1_565 S
C696 C695 1.399 1_545 S
C696 C697 1.376 . S
C697 H684 0.930 . S
C697 C696 1.376 . S
C697 C698 1.388 . S
C698 H685 0.930 . S
C698 C697 1.388 . S
C698 C699 1.390 . S
C699 C698 1.390 . S
C699 C700 1.402 . S
C699 C705 1.465 . S
C700 C695 1.397 1_545 S
C700 C699 1.402 . S
C700 C701 1.511 1_545 S
C701 C700 1.511 1_565 S
C701 C702 1.502 . S
C701 C703 1.561 . S
C701 C704 1.514 1_565 S
C702 H686 0.959 . S
C702 H687 0.959 . S
C702 H688 0.961 . S
C702 C701 1.502 . S
C703 H689 0.960 . S
C703 H690 0.961 . S
C703 H691 0.959 . S
C703 C701 1.561 . S
C704 C701 1.514 1_545 S
C704 C705 1.414 . S
C704 C709 1.386 1_545 S
C705 C699 1.465 . S
C705 C704 1.414 . S
C705 C706 1.399 . S
C706 H692 0.929 . S
C706 C705 1.399 . S
C706 C707 1.385 . S
C707 H693 0.931 . S
C707 C706 1.385 . S
C707 C708 1.389 . S
C708 C707 1.389 . S
C708 C709 1.387 1_545 S
C709 H694 0.930 . S
C709 C704 1.386 1_565 S
C709 C708 1.387 1_565 S
H710 C722 0.930 . S
H711 C724 0.930 . S
H712 C725 0.930 . S
H713 C729 0.959 . S
H714 C729 0.959 . S
H715 C729 0.961 . S
H716 C730 0.960 . S
H717 C730 0.961 . S
H718 C730 0.959 . S
H719 C733 0.929 . S
H720 C734 0.931 . S
H721 C736 0.930 . S
C722 H710 0.930 . S
C722 C723 1.399 . S
C722 C727 1.399 . S
C723 C722 1.399 . S
C723 C724 1.376 . S
C724 H711 0.930 . S
C724 C723 1.376 . S
C724 C725 1.388 . S
C725 H712 0.930 . S
C725 C724 1.388 . S
C725 C726 1.390 . S
C726 C725 1.390 . S
C726 C727 1.394 . S
C726 C732 1.465 . S
C727 C722 1.399 . S
C727 C726 1.394 . S
C727 C728 1.516 . S
C728 C727 1.516 . S
C728 C729 1.502 . S
C728 C730 1.561 . S
C728 C731 1.526 . S
C729 H713 0.959 . S
C729 H714 0.959 . S
C729 H715 0.961 . S
C729 C728 1.502 . S
C730 H716 0.960 . S
C730 H717 0.961 . S
C730 H718 0.959 . S
C730 C728 1.561 . S
C731 C728 1.526 . S
C731 C732 1.396 . S
C731 C736 1.390 . S
C732 C726 1.465 . S
C732 C731 1.396 . S
C732 C733 1.399 . S
C733 H719 0.929 . S
C733 C732 1.399 . S
C733 C734 1.385 . S
C734 H720 0.931 . S
C734 C733 1.385 . S
C734 C735 1.389 . S
C735 C734 1.389 . S
C735 C736 1.387 . S
C736 H721 0.930 . S
C736 C731 1.390 . S
C736 C735 1.387 . S
H737 C749 0.930 . S
H738 C751 0.930 . S
H739 C752 0.930 . S
H740 C756 0.959 . S
H741 C756 0.959 . S
H742 C756 0.961 . S
H743 C757 0.960 . S
H744 C757 0.961 . S
H745 C757 0.959 . S
H746 C760 0.929 . S
H747 C761 0.931 . S
H748 C763 0.930 . S
C749 H737 0.930 . S
C749 C750 1.399 . S
C749 C754 1.399 . S
C750 C749 1.399 . S
C750 C751 1.376 . S
C751 H738 0.930 . S
C751 C750 1.376 . S
C751 C752 1.388 . S
C752 H739 0.930 . S
C752 C751 1.388 . S
C752 C753 1.390 . S
C753 C752 1.390 . S
C753 C754 1.394 . S
C753 C759 1.465 . S
C754 C749 1.399 . S
C754 C753 1.394 . S
C754 C755 1.516 . S
C755 C754 1.516 . S
C755 C756 1.502 . S
C755 C757 1.561 . S
C755 C758 1.526 . S
C756 H740 0.959 . S
C756 H741 0.959 . S
C756 H742 0.961 . S
C756 C755 1.502 . S
C757 H743 0.960 . S
C757 H744 0.961 . S
C757 H745 0.959 . S
C757 C755 1.561 . S
C758 C755 1.526 . S
C758 C759 1.396 . S
C758 C763 1.390 . S
C759 C753 1.465 . S
C759 C758 1.396 . S
C759 C760 1.399 . S
C760 H746 0.929 . S
C760 C759 1.399 . S
C760 C761 1.385 . S
C761 H747 0.931 . S
C761 C760 1.385 . S
C761 C762 1.389 . S
C762 C761 1.389 . S
C762 C763 1.387 . S
C763 H748 0.930 . S
C763 C758 1.390 . S
C763 C762 1.387 . S
H764 C776 0.930 . S
H765 C778 0.930 . S
H766 C779 0.930 . S
H767 C783 0.959 . S
H768 C783 0.959 . S
H769 C783 0.961 . S
H770 C784 0.960 . S
H771 C784 0.961 . S
H772 C784 0.959 1_455 S
H773 C787 0.929 . S
H774 C788 0.940 . S
H775 C790 0.930 . S
C776 H764 0.930 . S
C776 C777 1.399 . S
C776 C781 1.399 . S
C777 C776 1.399 . S
C777 C778 1.376 1_655 S
C778 H765 0.930 . S
C778 C777 1.376 1_455 S
C778 C779 1.388 . S
C779 H766 0.930 . S
C779 C778 1.388 . S
C779 C780 1.390 1_455 S
C780 C779 1.390 1_655 S
C780 C781 1.394 . S
C780 C786 1.465 . S
C781 C776 1.399 . S
C781 C780 1.394 . S
C781 C782 1.516 . S
C782 C781 1.516 . S
C782 C783 1.502 . S
C782 C784 1.561 . S
C782 C785 1.526 . S
C783 H767 0.959 . S
C783 H768 0.959 . S
C783 H769 0.961 . S
C783 C782 1.502 . S
C784 H770 0.960 . S
C784 H771 0.961 . S
C784 H772 0.959 1_655 S
C784 C782 1.561 . S
C785 C782 1.526 . S
C785 C786 1.396 . S
C785 C790 1.390 . S
C786 C780 1.465 . S
C786 C785 1.396 . S
C786 C787 1.399 1_655 S
C787 H773 0.929 . S
C787 C786 1.399 1_455 S
C787 C788 1.389 . S
C788 H774 0.940 . S
C788 C787 1.389 . S
C788 C789 1.377 1_455 S
C789 C788 1.377 1_655 S
C789 C790 1.387 . S
C790 H775 0.930 . S
C790 C785 1.390 . S
C790 C789 1.387 . S
H791 C803 0.930 . S
H792 C805 0.930 . S
H793 C806 0.930 . S
H794 C810 0.959 . S
H795 C810 0.959 . S
H796 C810 0.961 . S
H797 C811 0.960 . S
H798 C811 0.961 . S
H799 C811 0.959 . S
H800 C814 0.929 . S
H801 C815 0.931 . S
H802 C817 0.930 . S
C803 H791 0.930 . S
C803 C804 1.399 . S
C803 C808 1.399 . S
C804 C803 1.399 . S
C804 C805 1.376 1_565 S
C805 H792 0.930 . S
C805 C804 1.376 1_545 S
C805 C806 1.388 . S
C806 H793 0.930 . S
C806 C805 1.388 . S
C806 C807 1.390 1_545 S
C807 C806 1.390 1_565 S
C807 C808 1.394 . S
C807 C813 1.465 . S
C808 C803 1.399 . S
C808 C807 1.394 . S
C808 C809 1.516 . S
C809 C808 1.516 . S
C809 C810 1.502 . S
C809 C811 1.561 . S
C809 C812 1.526 . S
C810 H794 0.959 . S
C810 H795 0.959 . S
C810 H796 0.961 . S
C810 C809 1.502 . S
C811 H797 0.960 . S
C811 H798 0.961 . S
C811 H799 0.959 . S
C811 C809 1.561 . S
C812 C809 1.526 . S
C812 C813 1.396 . S
C812 C817 1.390 . S
C813 C807 1.465 . S
C813 C812 1.396 . S
C813 C814 1.399 1_565 S
C814 H800 0.929 . S
C814 C813 1.399 1_545 S
C814 C815 1.385 . S
C815 H801 0.931 . S
C815 C814 1.385 . S
C815 C816 1.389 1_545 S
C816 C815 1.389 1_565 S
C816 C817 1.387 . S
C817 H802 0.930 . S
C817 C812 1.390 . S
C817 C816 1.387 . S
H818 C830 0.930 . S
H819 C832 0.930 . S
H820 C833 0.930 . S
H821 C837 0.959 . S
H822 C837 0.959 . S
H823 C837 0.961 . S
H824 C838 0.960 . S
H825 C838 0.961 . S
H826 C838 0.959 . S
H827 C841 0.929 . S
H828 C842 0.931 . S
H829 C844 0.930 . S
C830 H818 0.930 . S
C830 C831 1.399 . S
C830 C835 1.399 . S
C831 C830 1.399 . S
C831 C832 1.376 . S
C832 H819 0.930 . S
C832 C831 1.376 . S
C832 C833 1.388 . S
C833 H820 0.930 . S
C833 C832 1.388 . S
C833 C834 1.390 . S
C834 C833 1.390 . S
C834 C835 1.394 . S
C834 C840 1.465 . S
C835 C830 1.399 . S
C835 C834 1.394 . S
C835 C836 1.516 . S
C836 C835 1.516 . S
C836 C837 1.502 . S
C836 C838 1.561 . S
C836 C839 1.526 . S
C837 H821 0.959 . S
C837 H822 0.959 . S
C837 H823 0.961 . S
C837 C836 1.502 . S
C838 H824 0.960 . S
C838 H825 0.961 . S
C838 H826 0.959 . S
C838 C836 1.561 . S
C839 C836 1.526 . S
C839 C840 1.396 . S
C839 C844 1.390 . S
C840 C834 1.465 . S
C840 C839 1.396 . S
C840 C841 1.399 . S
C841 H827 0.929 . S
C841 C840 1.399 . S
C841 C842 1.385 . S
C842 H828 0.931 . S
C842 C841 1.385 . S
C842 C843 1.389 . S
C843 C842 1.389 . S
C843 C844 1.387 . S
C844 H829 0.930 . S
C844 C839 1.390 . S
C844 C843 1.387 . S
H845 C857 0.930 . S
H846 C859 0.930 . S
H847 C860 0.930 . S
H848 C864 0.959 . S
H849 C864 0.959 . S
H850 C864 0.961 . S
H851 C865 0.960 . S
H852 C865 0.961 . S
H853 C865 0.959 . S
H854 C868 0.929 . S
H855 C869 0.931 . S
H856 C871 0.930 . S
C857 H845 0.930 . S
C857 C858 1.399 . S
C857 C862 1.399 . S
C858 C857 1.399 . S
C858 C859 1.376 . S
C859 H846 0.930 . S
C859 C858 1.376 . S
C859 C860 1.388 . S
C860 H847 0.930 . S
C860 C859 1.388 . S
C860 C861 1.390 . S
C861 C860 1.390 . S
C861 C862 1.394 . S
C861 C867 1.465 . S
C862 C857 1.399 . S
C862 C861 1.394 . S
C862 C863 1.516 . S
C863 C862 1.516 . S
C863 C864 1.502 . S
C863 C865 1.561 . S
C863 C866 1.526 . S
C864 H848 0.959 . S
C864 H849 0.959 . S
C864 H850 0.961 . S
C864 C863 1.502 . S
C865 H851 0.960 . S
C865 H852 0.961 . S
C865 H853 0.959 . S
C865 C863 1.561 . S
C866 C863 1.526 . S
C866 C867 1.396 . S
C866 C871 1.390 . S
C867 C861 1.465 . S
C867 C866 1.396 . S
C867 C868 1.399 . S
C868 H854 0.929 . S
C868 C867 1.399 . S
C868 C869 1.385 . S
C869 H855 0.931 . S
C869 C868 1.385 . S
C869 C870 1.389 . S
C870 C869 1.389 . S
C870 C871 1.387 . S
C871 H856 0.930 . S
C871 C866 1.390 . S
C871 C870 1.387 . S
H872 C884 0.930 1_655 S
H873 C886 0.930 . S
H874 C887 0.930 . S
H875 C891 0.959 . S
H876 C891 0.959 . S
H877 C891 0.961 . S
H878 C892 0.960 . S
H879 C892 0.961 . S
H880 C892 0.959 . S
H881 C895 0.929 . S
H882 C896 0.931 . S
H883 C898 0.930 . S
C884 H872 0.930 1_455 S
C884 C885 1.399 . S
C884 C889 1.399 . S
C885 C884 1.399 . S
C885 C886 1.376 . S
C886 H873 0.930 . S
C886 C885 1.376 . S
C886 C887 1.388 . S
C887 H874 0.930 . S
C887 C886 1.388 . S
C887 C888 1.390 . S
C888 C887 1.390 . S
C888 C889 1.394 . S
C888 C894 1.465 . S
C889 C884 1.399 . S
C889 C888 1.394 . S
C889 C890 1.516 1_454 S
C890 C889 1.516 1_656 S
C890 C891 1.502 . S
C890 C892 1.561 1_655 S
C890 C893 1.526 . S
C891 H875 0.959 . S
C891 H876 0.959 . S
C891 H877 0.961 . S
C891 C890 1.502 . S
C892 H878 0.960 . S
C892 H879 0.961 . S
C892 H880 0.959 . S
C892 C890 1.561 1_455 S
C893 C890 1.526 . S
C893 C894 1.396 1_656 S
C893 C898 1.390 . S
C894 C888 1.465 . S
C894 C893 1.396 1_454 S
C894 C895 1.399 . S
C895 H881 0.929 . S
C895 C894 1.399 . S
C895 C896 1.385 1_554 S
C896 H882 0.931 . S
C896 C895 1.385 1_556 S
C896 C897 1.389 1_455 S
C897 C896 1.389 1_655 S
C897 C898 1.387 . S
C898 H883 0.930 . S
C898 C893 1.390 . S
C898 C897 1.387 . S
H899 C911 0.930 . S
H900 C913 0.930 . S
H901 C914 0.930 . S
H902 C918 0.959 . S
H903 C918 0.959 . S
H904 C918 0.961 . S
H905 C919 0.960 . S
H906 C919 0.961 1_655 S
H907 C919 0.959 . S
H908 C922 0.929 . S
H909 C923 0.931 . S
H910 C925 0.930 . S
C911 H899 0.930 . S
C911 C912 1.399 . S
C911 C916 1.399 . S
C912 C911 1.399 . S
C912 C913 1.376 1_565 S
C913 H900 0.930 . S
C913 C912 1.376 1_545 S
C913 C914 1.388 . S
C914 H901 0.930 . S
C914 C913 1.388 . S
C914 C915 1.390 . S
C915 C914 1.390 . S
C915 C916 1.394 1_545 S
C915 C921 1.465 1_456 S
C916 C911 1.399 . S
C916 C915 1.394 1_565 S
C916 C917 1.516 1_456 S
C917 C916 1.516 1_654 S
C917 C918 1.502 1_554 S
C917 C919 1.561 1_655 S
C917 C920 1.526 . S
C918 H902 0.959 . S
C918 H903 0.959 . S
C918 H904 0.961 . S
C918 C917 1.502 1_556 S
C919 H905 0.960 . S
C919 H906 0.961 1_455 S
C919 H907 0.959 . S
C919 C917 1.561 1_455 S
C920 C917 1.526 . S
C920 C921 1.396 1_565 S
C920 C925 1.390 . S
C921 C915 1.465 1_654 S
C921 C920 1.396 1_545 S
C921 C922 1.399 . S
C922 H908 0.929 . S
C922 C921 1.399 . S
C922 C923 1.385 . S
C923 H909 0.931 . S
C923 C922 1.385 . S
C923 C924 1.389 . S
C924 C923 1.389 . S
C924 C925 1.387 1_545 S
C925 H910 0.930 . S
C925 C920 1.390 . S
C925 C924 1.387 1_565 S
H926 C938 0.930 . S
H927 C940 0.930 . S
H928 C941 0.930 1_545 S
H929 C945 0.959 . S
H930 C945 0.959 . S
H931 C945 0.961 . S
H932 C946 0.960 . S
H933 C946 0.961 . S
H934 C946 0.959 . S
H935 C949 0.929 . S
H936 C950 0.931 . S
H937 C952 0.930 . S
C938 H926 0.930 . S
C938 C939 1.399 . S
C938 C943 1.399 . S
C939 C938 1.399 . S
C939 C940 1.376 . S
C940 H927 0.930 . S
C940 C939 1.376 . S
C940 C941 1.388 . S
C941 H928 0.930 1_565 S
C941 C940 1.388 . S
C941 C942 1.390 . S
C942 C941 1.390 . S
C942 C943 1.394 . S
C942 C948 1.483 1_565 S
C943 C938 1.399 . S
C943 C942 1.394 . S
C943 C944 1.516 1_554 S
C944 C943 1.516 1_556 S
C944 C945 1.502 . S
C944 C946 1.561 . S
C944 C947 1.526 1_565 S
C945 H929 0.959 . S
C945 H930 0.959 . S
C945 H931 0.961 . S
C945 C944 1.502 . S
C946 H932 0.960 . S
C946 H933 0.961 . S
C946 H934 0.959 . S
C946 C944 1.561 . S
C947 C944 1.526 1_545 S
C947 C948 1.368 1_556 S
C947 C952 1.390 . S
C948 C942 1.483 1_545 S
C948 C947 1.368 1_554 S
C948 C949 1.405 . S
C949 H935 0.929 . S
C949 C948 1.405 . S
C949 C950 1.385 1_554 S
C950 H936 0.931 . S
C950 C949 1.385 1_556 S
C950 C951 1.389 . S
C951 C950 1.389 . S
C951 C952 1.387 . S
C952 H937 0.930 . S
C952 C947 1.390 . S
C952 C951 1.387 . S
H953 C965 0.930 . S
H954 C967 0.930 . S
H955 C968 0.930 . S
H956 C972 0.959 . S
H957 C972 0.959 . S
H958 C972 0.961 . S
H959 C973 0.960 . S
H960 C973 0.961 . S
H961 C973 0.959 . S
H962 C976 0.929 . S
H963 C977 0.931 . S
H964 C979 0.930 . S
C965 H953 0.930 . S
C965 C966 1.399 . S
C965 C970 1.399 . S
C966 C965 1.399 . S
C966 C967 1.376 . S
C967 H954 0.930 . S
C967 C966 1.376 . S
C967 C968 1.388 1_556 S
C968 H955 0.930 . S
C968 C967 1.388 1_554 S
C968 C969 1.390 . S
C969 C968 1.390 . S
C969 C970 1.394 1_554 S
C969 C975 1.465 . S
C970 C965 1.399 . S
C970 C969 1.394 1_556 S
C970 C971 1.516 . S
C971 C970 1.516 . S
C971 C972 1.502 . S
C971 C973 1.561 . S
C971 C974 1.526 1_556 S
C972 H956 0.959 . S
C972 H957 0.959 . S
C972 H958 0.961 . S
C972 C971 1.502 . S
C973 H959 0.960 . S
C973 H960 0.961 . S
C973 H961 0.959 . S
C973 C971 1.561 . S
C974 C971 1.526 1_554 S
C974 C975 1.396 . S
C974 C979 1.390 . S
C975 C969 1.465 . S
C975 C974 1.396 . S
C975 C976 1.399 . S
C976 H962 0.929 . S
C976 C975 1.399 . S
C976 C977 1.385 . S
C977 H963 0.931 . S
C977 C976 1.385 . S
C977 C978 1.389 . S
C978 C977 1.389 . S
C978 C979 1.387 . S
C979 H964 0.930 . S
C979 C974 1.390 . S
C979 C978 1.387 . S
H980 C992 0.930 1_655 S
H981 C994 0.930 . S
H982 C995 0.930 1_545 S
H983 C999 0.959 . S
H984 C999 0.959 . S
H985 C999 0.961 . S
H986 C1000 0.960 . S
H987 C1000 0.961 . S
H988 C1000 0.959 . S
H989 C1003 0.929 . S
H990 C1004 0.931 . S
H991 C1006 0.930 . S
C992 H980 0.930 1_455 S
C992 C993 1.399 . S
C992 C997 1.399 . S
C993 C992 1.399 . S
C993 C994 1.376 . S
C994 H981 0.930 . S
C994 C993 1.376 . S
C994 C995 1.388 . S
C995 H982 0.930 1_565 S
C995 C994 1.388 . S
C995 C996 1.390 . S
C996 C995 1.390 . S
C996 C997 1.396 . S
C996 C1002 1.465 1_565 S
C997 C992 1.399 . S
C997 C996 1.396 . S
C997 C998 1.515 1_455 S
C998 C997 1.515 1_655 S
C998 C999 1.502 . S
C998 C1000 1.561 1_655 S
C998 C1001 1.526 1_565 S
C999 H983 0.959 . S
C999 H984 0.959 . S
C999 H985 0.961 . S
C999 C998 1.502 . S
C1000 H986 0.960 . S
C1000 H987 0.961 . S
C1000 H988 0.959 . S
C1000 C998 1.561 1_455 S
C1001 C998 1.526 1_545 S
C1001 C1002 1.396 1_655 S
C1001 C1006 1.390 . S
C1002 C996 1.465 1_545 S
C1002 C1001 1.396 1_455 S
C1002 C1003 1.399 . S
C1003 H989 0.929 . S
C1003 C1002 1.399 . S
C1003 C1004 1.385 . S
C1004 H990 0.931 . S
C1004 C1003 1.385 . S
C1004 C1005 1.389 1_455 S
C1005 C1004 1.389 1_655 S
C1005 C1006 1.387 . S
C1006 H991 0.930 . S
C1006 C1001 1.390 . S
C1006 C1005 1.387 . S
H1007 C1019 0.930 . S
H1008 C1021 0.930 . S
H1009 C1022 0.930 . S
H1010 C1026 0.959 . S
H1011 C1026 0.959 . S
H1012 C1026 0.961 . S
H1013 C1027 0.960 . S
H1014 C1027 0.961 . S
H1015 C1027 0.959 . S
H1016 C1030 0.929 . S
H1017 C1031 0.931 . S
H1018 C1033 0.930 . S
C1019 H1007 0.930 . S
C1019 C1020 1.399 1_565 S
C1019 C1024 1.399 . S
C1020 C1019 1.399 1_545 S
C1020 C1021 1.376 . S
C1021 H1008 0.930 . S
C1021 C1020 1.376 . S
C1021 C1022 1.388 . S
C1022 H1009 0.930 . S
C1022 C1021 1.388 . S
C1022 C1023 1.390 . S
C1023 C1022 1.390 . S
C1023 C1024 1.394 1_545 S
C1023 C1029 1.465 . S
C1024 C1019 1.399 . S
C1024 C1023 1.394 1_565 S
C1024 C1025 1.516 . S
C1025 C1024 1.516 . S
C1025 C1026 1.502 . S
C1025 C1027 1.561 . S
C1025 C1028 1.526 . S
C1026 H1010 0.959 . S
C1026 H1011 0.959 . S
C1026 H1012 0.961 . S
C1026 C1025 1.502 . S
C1027 H1013 0.960 . S
C1027 H1014 0.961 . S
C1027 H1015 0.959 . S
C1027 C1025 1.561 . S
C1028 C1025 1.526 . S
C1028 C1029 1.396 1_565 S
C1028 C1033 1.390 . S
C1029 C1023 1.465 . S
C1029 C1028 1.396 1_545 S
C1029 C1030 1.399 . S
C1030 H1016 0.929 . S
C1030 C1029 1.399 . S
C1030 C1031 1.385 . S
C1031 H1017 0.931 . S
C1031 C1030 1.385 . S
C1031 C1032 1.389 1_545 S
C1032 C1031 1.389 1_565 S
C1032 C1033 1.387 . S
C1033 H1018 0.930 . S
C1033 C1028 1.390 . S
C1033 C1032 1.387 . S
H1034 C1046 0.930 . S
H1035 C1048 0.930 . S
H1036 C1049 0.930 . S
H1037 C1053 0.959 . S
H1038 C1053 0.959 . S
H1039 C1053 0.961 . S
H1040 C1054 0.960 . S
H1041 C1054 0.961 . S
H1042 C1054 0.959 . S
H1043 C1057 0.929 . S
H1044 C1058 0.931 . S
H1045 C1060 0.930 . S
C1046 H1034 0.930 . S
C1046 C1047 1.399 . S
C1046 C1051 1.399 . S
C1047 C1046 1.399 . S
C1047 C1048 1.376 . S
C1048 H1035 0.930 . S
C1048 C1047 1.376 . S
C1048 C1049 1.388 . S
C1049 H1036 0.930 . S
C1049 C1048 1.388 . S
C1049 C1050 1.390 . S
C1050 C1049 1.390 . S
C1050 C1051 1.394 . S
C1050 C1056 1.465 . S
C1051 C1046 1.399 . S
C1051 C1050 1.394 . S
C1051 C1052 1.516 . S
C1052 C1051 1.516 . S
C1052 C1053 1.502 . S
C1052 C1054 1.561 . S
C1052 C1055 1.526 . S
C1053 H1037 0.959 . S
C1053 H1038 0.959 . S
C1053 H1039 0.961 . S
C1053 C1052 1.502 . S
C1054 H1040 0.960 . S
C1054 H1041 0.961 . S
C1054 H1042 0.959 . S
C1054 C1052 1.561 . S
C1055 C1052 1.526 . S
C1055 C1056 1.396 . S
C1055 C1060 1.390 . S
C1056 C1050 1.465 . S
C1056 C1055 1.396 . S
C1056 C1057 1.399 . S
C1057 H1043 0.929 . S
C1057 C1056 1.399 . S
C1057 C1058 1.385 . S
C1058 H1044 0.931 . S
C1058 C1057 1.385 . S
C1058 C1059 1.389 . S
C1059 C1058 1.389 . S
C1059 C1060 1.387 . S
C1060 H1045 0.930 . S
C1060 C1055 1.390 . S
C1060 C1059 1.387 . S
H1061 C1073 0.930 . S
H1062 C1075 0.930 . S
H1063 C1076 0.930 . S
H1064 C1080 0.959 . S
H1065 C1080 0.959 . S
H1066 C1080 0.961 . S
H1067 C1081 0.960 1_655 S
H1068 C1081 0.961 . S
H1069 C1081 0.959 . S
H1070 C1084 0.929 . S
H1071 C1085 0.931 . S
H1072 C1087 0.930 . S
C1073 H1061 0.930 . S
C1073 C1074 1.399 . S
C1073 C1078 1.399 . S
C1074 C1073 1.399 . S
C1074 C1075 1.376 . S
C1075 H1062 0.930 . S
C1075 C1074 1.376 . S
C1075 C1076 1.388 . S
C1076 H1063 0.930 . S
C1076 C1075 1.388 . S
C1076 C1077 1.390 . S
C1077 C1076 1.390 . S
C1077 C1078 1.394 . S
C1077 C1083 1.465 1_655 S
C1078 C1073 1.399 . S
C1078 C1077 1.394 . S
C1078 C1079 1.516 . S
C1079 C1078 1.516 . S
C1079 C1080 1.502 . S
C1079 C1081 1.561 1_655 S
C1079 C1082 1.526 1_655 S
C1080 H1064 0.959 . S
C1080 H1065 0.959 . S
C1080 H1066 0.961 . S
C1080 C1079 1.502 . S
C1081 H1067 0.960 1_455 S
C1081 H1068 0.961 . S
C1081 H1069 0.959 . S
C1081 C1079 1.561 1_455 S
C1082 C1079 1.526 1_455 S
C1082 C1083 1.396 . S
C1082 C1087 1.390 . S
C1083 C1077 1.465 1_455 S
C1083 C1082 1.396 . S
C1083 C1084 1.399 . S
C1084 H1070 0.929 . S
C1084 C1083 1.399 . S
C1084 C1085 1.385 . S
C1085 H1071 0.931 . S
C1085 C1084 1.385 . S
C1085 C1086 1.389 . S
C1086 C1085 1.389 . S
C1086 C1087 1.387 . S
C1087 H1072 0.930 . S
C1087 C1082 1.390 . S
C1087 C1086 1.387 . S
C237 C3 1.623 . S
C249 C31 1.656 . S
C264 C17 1.668 . S
C276 C45 1.640 . S
C291 C59 1.671 . S
C303 C87 1.621 . S
C318 C101 1.635 . S
C330 C73 1.640 . S
C345 C115 1.624 . S
C357 C143 1.667 . S
C372 C157 1.625 . S
C384 C129 1.668 . S
C399 C199 1.622 . S
C411 C171 1.671 . S
C426 C213 1.666 . S
C438 C185 1.627 . S
C453 C105 1.175 . S
C465 C7 1.121 . S
C480 C21 1.173 1_565 S
C492 C63 1.123 . S
C507 C77 1.129 . S
C519 C35 1.223 . S
C534 C49 1.209 . S
C546 C91 1.165 . S
C561 C217 1.216 . S
C573 C119 1.114 . S
C588 C133 1.202 1_545 S
C600 C175 1.125 . S
C615 C147 1.172 . S
C627 C189 1.173 . S
C642 C203 1.111 . S
C654 C161 1.216 . S
C669 C9 0.855 . S
C681 C65 0.652 . S
C696 C23 0.644 . S
C708 C79 0.796 . S
C723 C93 0.749 . S
C735 C37 0.905 . S
C750 C51 0.651 . S
C762 C107 0.774 . S
C777 C177 0.899 . S
C789 C121 0.721 . S
C804 C191 0.746 . S
C816 C135 0.886 . S
C831 C149 0.906 . S
C843 C205 0.662 . S
C858 C163 0.850 . S
C870 C219 0.653 . S
C885 C8 1.693 . S
C897 C120 1.754 . S
C912 C134 1.747 . S
C924 C22 1.707 . S
C939 C36 1.696 . S
C951 C148 1.754 . S
C966 C162 1.752 . S
C978 C50 1.693 . S
C993 C64 1.694 . S
C1005 C176 1.754 . S
C1020 C78 1.740 . S
C1032 C190 1.715 . S
C1047 C204 1.710 . S
C1059 C92 1.745 . S
C1074 C106 1.705 . S
C1086 C218 1.733 . S
