# Generated by pormake.
# Topology vbe, (5)-cn, num edge types: 1
# Building blocks:
#     Node 0, Type 0, BuildingBlock: BEQFEK_clean_sbu_0, # of connection points: 5
#     Node 1, Type 0, BuildingBlock: BEQFEK_clean_sbu_0, # of connection points: 5
#     Node 2, Type 0, BuildingBlock: BEQFEK_clean_sbu_0, # of connection points: 5
#     Node 3, Type 0, BuildingBlock: BEQFEK_clean_sbu_0, # of connection points: 5
#     Node 4, Type 0, BuildingBlock: BEQFEK_clean_sbu_0, # of connection points: 5
#     Node 5, Type 0, BuildingBlock: BEQFEK_clean_sbu_0, # of connection points: 5
#     Node 6, Type 0, BuildingBlock: BEQFEK_clean_sbu_0, # of connection points: 5
#     Node 7, Type 0, BuildingBlock: BEQFEK_clean_sbu_0, # of connection points: 5
#     Node 8, Type 0, BuildingBlock: BEQFEK_clean_sbu_0, # of connection points: 5
#     Node 9, Type 0, BuildingBlock: BEQFEK_clean_sbu_0, # of connection points: 5
#     Node 10, Type 0, BuildingBlock: BEQFEK_clean_sbu_0, # of connection points: 5
#     Node 11, Type 0, BuildingBlock: BEQFEK_clean_sbu_0, # of connection points: 5
#     Node 12, Type 0, BuildingBlock: BEQFEK_clean_sbu_0, # of connection points: 5
#     Node 13, Type 0, BuildingBlock: BEQFEK_clean_sbu_0, # of connection points: 5
#     Node 14, Type 0, BuildingBlock: BEQFEK_clean_sbu_0, # of connection points: 5
#     Node 15, Type 0, BuildingBlock: BEQFEK_clean_sbu_0, # of connection points: 5
#     Edge 16, Type (0, 0), BuildingBlock: EZIPEK_clean_linker_0, # of connection points: 2
#     Edge 17, Type (0, 0), BuildingBlock: EZIPEK_clean_linker_0, # of connection points: 2
#     Edge 18, Type (0, 0), BuildingBlock: EZIPEK_clean_linker_0, # of connection points: 2
#     Edge 19, Type (0, 0), BuildingBlock: EZIPEK_clean_linker_0, # of connection points: 2
#     Edge 20, Type (0, 0), BuildingBlock: EZIPEK_clean_linker_0, # of connection points: 2
#     Edge 21, Type (0, 0), BuildingBlock: EZIPEK_clean_linker_0, # of connection points: 2
#     Edge 22, Type (0, 0), BuildingBlock: EZIPEK_clean_linker_0, # of connection points: 2
#     Edge 23, Type (0, 0), BuildingBlock: EZIPEK_clean_linker_0, # of connection points: 2
#     Edge 24, Type (0, 0), BuildingBlock: EZIPEK_clean_linker_0, # of connection points: 2
#     Edge 25, Type (0, 0), BuildingBlock: EZIPEK_clean_linker_0, # of connection points: 2
#     Edge 26, Type (0, 0), BuildingBlock: EZIPEK_clean_linker_0, # of connection points: 2
#     Edge 27, Type (0, 0), BuildingBlock: EZIPEK_clean_linker_0, # of connection points: 2
#     Edge 28, Type (0, 0), BuildingBlock: EZIPEK_clean_linker_0, # of connection points: 2
#     Edge 29, Type (0, 0), BuildingBlock: EZIPEK_clean_linker_0, # of connection points: 2
#     Edge 30, Type (0, 0), BuildingBlock: EZIPEK_clean_linker_0, # of connection points: 2
#     Edge 31, Type (0, 0), BuildingBlock: EZIPEK_clean_linker_0, # of connection points: 2
#     Edge 32, Type (0, 0), BuildingBlock: EZIPEK_clean_linker_0, # of connection points: 2
#     Edge 33, Type (0, 0), BuildingBlock: EZIPEK_clean_linker_0, # of connection points: 2
#     Edge 34, Type (0, 0), BuildingBlock: EZIPEK_clean_linker_0, # of connection points: 2
#     Edge 35, Type (0, 0), BuildingBlock: EZIPEK_clean_linker_0, # of connection points: 2
#     Edge 36, Type (0, 0), BuildingBlock: EZIPEK_clean_linker_0, # of connection points: 2
#     Edge 37, Type (0, 0), BuildingBlock: EZIPEK_clean_linker_0, # of connection points: 2
#     Edge 38, Type (0, 0), BuildingBlock: EZIPEK_clean_linker_0, # of connection points: 2
#     Edge 39, Type (0, 0), BuildingBlock: EZIPEK_clean_linker_0, # of connection points: 2
#     Edge 40, Type (0, 0), BuildingBlock: EZIPEK_clean_linker_0, # of connection points: 2
#     Edge 41, Type (0, 0), BuildingBlock: EZIPEK_clean_linker_0, # of connection points: 2
#     Edge 42, Type (0, 0), BuildingBlock: EZIPEK_clean_linker_0, # of connection points: 2
#     Edge 43, Type (0, 0), BuildingBlock: EZIPEK_clean_linker_0, # of connection points: 2
#     Edge 44, Type (0, 0), BuildingBlock: EZIPEK_clean_linker_0, # of connection points: 2
#     Edge 45, Type (0, 0), BuildingBlock: EZIPEK_clean_linker_0, # of connection points: 2
#     Edge 46, Type (0, 0), BuildingBlock: EZIPEK_clean_linker_0, # of connection points: 2
#     Edge 47, Type (0, 0), BuildingBlock: EZIPEK_clean_linker_0, # of connection points: 2
#     Edge 48, Type (0, 0), BuildingBlock: EZIPEK_clean_linker_0, # of connection points: 2
#     Edge 49, Type (0, 0), BuildingBlock: EZIPEK_clean_linker_0, # of connection points: 2
#     Edge 50, Type (0, 0), BuildingBlock: EZIPEK_clean_linker_0, # of connection points: 2
#     Edge 51, Type (0, 0), BuildingBlock: EZIPEK_clean_linker_0, # of connection points: 2
#     Edge 52, Type (0, 0), BuildingBlock: EZIPEK_clean_linker_0, # of connection points: 2
#     Edge 53, Type (0, 0), BuildingBlock: EZIPEK_clean_linker_0, # of connection points: 2
#     Edge 54, Type (0, 0), BuildingBlock: EZIPEK_clean_linker_0, # of connection points: 2
#     Edge 55, Type (0, 0), BuildingBlock: EZIPEK_clean_linker_0, # of connection points: 2
# Relax obj value: 0.333
# Max RMSD: 0.206
# Mean RMSD: 0.206
data_MOF--net-vbe--node1-BEQFEK_clean_sbu_0--edge1-EZIPEK_clean_linker_0
_symmetry_space_group_name_H-M    P1
_symmetry_Int_Tables_number       1
_symmetry_cell_setting            triclinic
loop_
_symmetry_equiv_pos_as_xyz
'x, y, z'
_cell_length_a     33.453734
_cell_length_b     30.858015
_cell_length_c     45.508327
_cell_angle_alpha  90.027106
_cell_angle_beta   90.04648
_cell_angle_gamma 89.985724
loop_
_atom_site_label
_atom_site_type_symbol
_atom_site_fract_x
_atom_site_fract_y
_atom_site_fract_z
_atom_type_partial_charge
Co0 Co 0.11372 0.13295 0.32668 0.0
Co1 Co 0.05811 0.08194 0.36979 0.0
C2 C 0.05794 0.18005 0.36412 0.0
O3 O 0.09072 0.18049 0.35002 0.0
O4 O 0.0421 0.14458 0.37251 0.0
C5 C 0.17673 0.18681 0.29893 0.0
O6 O 0.19334 0.19224 0.32482 0.0
C7 C 0.03347 0.05914 0.42985 0.0
C8 C 0.99893 0.99904 0.42266 0.0
C9 C 0.0126 0.02684 0.44432 0.0
N10 N 0.03255 0.05076 0.40086 0.0
N11 N 0.01156 0.01495 0.39671 0.0
C12 C 0.05484 0.09667 0.44342 0.0
H13 H 0.03258 0.12138 0.45021 0.0
H14 H 0.07589 0.11145 0.42746 0.0
H15 H 0.07117 0.08601 0.4634 0.0
C16 C 0.17542 0.07536 0.35281 0.0
N17 N 0.13813 0.09164 0.35116 0.0
N18 N 0.11508 0.07177 0.3704 0.0
C19 C 0.13747 0.04271 0.38527 0.0
C20 C 0.17629 0.04396 0.37452 0.0
C21 C 0.20874 0.08696 0.33241 0.0
H22 H 0.19666 0.09544 0.31049 0.0
H23 H 0.22491 0.11541 0.34139 0.0
H24 H 0.23034 0.05982 0.33028 0.0
O25 O 0.07004 0.10597 0.30379 0.0
O26 O 0.03416 0.06211 0.33199 0.0
H27 H 0.09517 0.99496 0.39934 0.0
H28 H 0.14447 0.98836 0.41508 0.0
C29 C 0.12165 0.0123 0.40808 0.0
H30 H 0.11245 0.03115 0.42763 0.0
H31 H 0.00644 0.00094 0.37617 0.0
O32 O 0.14736 0.16101 0.29614 0.0
C33 C 0.04203 0.07849 0.307 0.0
Co34 Co 0.37793 0.85547 0.32496 0.0
Co35 Co 0.43567 0.90729 0.36617 0.0
C36 C 0.43696 0.80855 0.35982 0.0
O37 O 0.404 0.80762 0.34598 0.0
O38 O 0.45227 0.84437 0.36826 0.0
C39 C 0.32755 0.79211 0.29485 0.0
O40 O 0.33899 0.76575 0.31591 0.0
C41 C 0.45888 0.93388 0.426 0.0
C42 C 0.50384 0.98469 0.41727 0.0
C43 C 0.48421 0.96311 0.43965 0.0
N44 N 0.46315 0.93794 0.39675 0.0
N45 N 0.4902 0.96829 0.3917 0.0
C46 C 0.43084 0.90299 0.44057 0.0
H47 H 0.44802 0.8808 0.45504 0.0
H48 H 0.41402 0.88388 0.42399 0.0
H49 H 0.40968 0.9213 0.45467 0.0
C50 C 0.31736 0.90786 0.35435 0.0
N51 N 0.35509 0.89403 0.35167 0.0
N52 N 0.37854 0.91647 0.36902 0.0
C53 C 0.35623 0.94623 0.38335 0.0
C54 C 0.31537 0.93929 0.37666 0.0
C55 C 0.28693 0.89857 0.33085 0.0
H56 H 0.30194 0.89689 0.3092 0.0
H57 H 0.27271 0.86668 0.335 0.0
H58 H 0.26391 0.92423 0.32909 0.0
O59 O 0.41786 0.88577 0.30043 0.0
O60 O 0.45684 0.9277 0.32776 0.0
H61 H 0.35702 0.01544 0.3912 0.0
H62 H 0.38047 0.98236 0.4196 0.0
C63 C 0.3753 0.98626 0.3957 0.0
H64 H 0.40481 0.99162 0.38527 0.0
H65 H 0.49915 0.97808 0.37077 0.0
O66 O 0.33969 0.83108 0.29579 0.0
C67 C 0.44636 0.91291 0.30281 0.0
Co68 Co 0.61258 0.87124 0.17668 0.0
Co69 Co 0.55756 0.92635 0.13584 0.0
C70 C 0.55472 0.82744 0.13939 0.0
O71 O 0.58746 0.82538 0.15344 0.0
O72 O 0.5397 0.86389 0.13201 0.0
C73 C 0.65297 0.80357 0.20763 0.0
O74 O 0.64148 0.77953 0.18539 0.0
C75 C 0.5358 0.95256 0.07615 0.0
C76 C 0.49289 0.00578 0.08389 0.0
C77 C 0.51147 0.98212 0.06197 0.0
N78 N 0.53199 0.95833 0.10526 0.0
N79 N 0.50627 0.99021 0.10977 0.0
C80 C 0.56215 0.91934 0.06218 0.0
H81 H 0.57907 0.901 0.07908 0.0
H82 H 0.58325 0.93554 0.0469 0.0
H83 H 0.5436 0.89669 0.04901 0.0
C84 C 0.67554 0.92231 0.14909 0.0
N85 N 0.63719 0.91071 0.15169 0.0
N86 N 0.61495 0.93403 0.13405 0.0
C87 C 0.63876 0.96215 0.11953 0.0
C88 C 0.67921 0.95312 0.12648 0.0
C89 C 0.70536 0.91093 0.17259 0.0
H90 H 0.69005 0.90902 0.19413 0.0
H91 H 0.71843 0.87858 0.16803 0.0
H92 H 0.72924 0.93556 0.17479 0.0
O93 O 0.57036 0.89892 0.20038 0.0
O94 O 0.53486 0.94557 0.17412 0.0
H95 H 0.64151 0.03076 0.10965 0.0
H96 H 0.61588 0.99744 0.08241 0.0
C97 C 0.62165 0.00251 0.10615 0.0
H98 H 0.59258 0.01029 0.11659 0.0
H99 H 0.49776 0.00126 0.13051 0.0
O100 O 0.6482 0.84438 0.20657 0.0
C101 C 0.54289 0.92726 0.19846 0.0
Co102 Co 0.87876 0.14185 0.17659 0.0
Co103 Co 0.93905 0.0895 0.13734 0.0
C104 C 0.93946 0.18782 0.14181 0.0
O105 O 0.90632 0.18878 0.1554 0.0
O106 O 0.95508 0.15197 0.13385 0.0
C107 C 0.82995 0.20741 0.20426 0.0
O108 O 0.84355 0.23186 0.18287 0.0
C109 C 0.96748 0.06369 0.07889 0.0
C110 C 0.00356 0.00543 0.08847 0.0
C111 C 0.98998 0.03143 0.06577 0.0
N112 N 0.96736 0.0571 0.10808 0.0
N113 N 0.98925 0.02237 0.11369 0.0
C114 C 0.94553 0.09946 0.06374 0.0
H115 H 0.92436 0.11549 0.07905 0.0
H116 H 0.92921 0.08653 0.04438 0.0
H117 H 0.96745 0.12363 0.05562 0.0
C118 C 0.82013 0.08652 0.14716 0.0
N119 N 0.85756 0.10145 0.15053 0.0
N120 N 0.88219 0.0795 0.13356 0.0
C121 C 0.86066 0.04983 0.1185 0.0
C122 C 0.82073 0.05313 0.12684 0.0
C123 C 0.78543 0.10144 0.16525 0.0
H124 H 0.79191 0.09534 0.18881 0.0
H125 H 0.78163 0.13693 0.16246 0.0
H126 H 0.75736 0.08462 0.15905 0.0
O127 O 0.91752 0.11311 0.20286 0.0
O128 O 0.95911 0.07209 0.17699 0.0
H129 H 0.90438 0.00125 0.10845 0.0
H130 H 0.85601 0.99188 0.09169 0.0
C131 C 0.87815 0.01695 0.09802 0.0
H132 H 0.88821 0.03345 0.07774 0.0
H133 H 0.99387 0.00976 0.1347 0.0
O134 O 0.83901 0.16742 0.20404 0.0
C135 C 0.94703 0.0871 0.20152 0.0
Co136 Co 0.88171 0.87062 0.67583 0.0
Co137 Co 0.93875 0.92207 0.63439 0.0
C138 C 0.94864 0.82866 0.63973 0.0
O139 O 0.92124 0.82912 0.65916 0.0
O140 O 0.95798 0.8627 0.62558 0.0
C141 C 0.82705 0.80174 0.69425 0.0
O142 O 0.82125 0.79229 0.66643 0.0
C143 C 0.97092 0.95631 0.57924 0.0
C144 C 0.99208 0.02147 0.59198 0.0
C145 C 0.98762 0.99393 0.56816 0.0
N146 N 0.96516 0.96137 0.60826 0.0
N147 N 0.97834 1.00022 0.61583 0.0
C148 C 0.95863 0.91703 0.56222 0.0
H149 H 0.98464 0.89489 0.56033 0.0
H150 H 0.93418 0.89966 0.57373 0.0
H151 H 0.94897 0.92612 0.5397 0.0
C152 C 0.81953 0.91845 0.64379 0.0
N153 N 0.85756 0.90526 0.64736 0.0
N154 N 0.88124 0.92754 0.62987 0.0
C155 C 0.85842 0.95488 0.61386 0.0
C156 C 0.81873 0.95048 0.62246 0.0
C157 C 0.78574 0.90444 0.66308 0.0
H158 H 0.79582 0.90337 0.6863 0.0
H159 H 0.77655 0.87118 0.65673 0.0
H160 H 0.7596 0.92639 0.66098 0.0
O161 O 0.90905 0.90841 0.7035 0.0
O162 O 0.95839 0.93358 0.67597 0.0
H163 H 0.89618 0.0088 0.60388 0.0
H164 H 0.85022 0.00765 0.58297 0.0
C165 C 0.87438 0.98749 0.59258 0.0
H166 H 0.8898 0.97041 0.57446 0.0
H167 H 0.97691 0.01271 0.63711 0.0
O168 O 0.84629 0.83566 0.7012 0.0
C169 C 0.94264 0.92707 0.70116 0.0
Co170 Co 0.61064 0.133 0.66907 0.0
Co171 Co 0.55625 0.07696 0.62886 0.0
C172 C 0.54176 0.17042 0.63369 0.0
O173 O 0.56922 0.17181 0.65299 0.0
O174 O 0.53413 0.13563 0.61975 0.0
C175 C 0.66669 0.20253 0.68602 0.0
O176 O 0.67397 0.21004 0.65813 0.0
C177 C 0.53055 0.03875 0.57308 0.0
C178 C 0.49707 0.98062 0.58702 0.0
C179 C 0.50948 0.00348 0.56249 0.0
N180 N 0.5308 0.03704 0.60258 0.0
N181 N 0.51061 0.00225 0.6108 0.0
C182 C 0.55085 0.07299 0.55533 0.0
H183 H 0.52798 0.09226 0.54343 0.0
H184 H 0.56875 0.09473 0.56964 0.0
H185 H 0.57044 0.05758 0.53865 0.0
C186 C 0.67464 0.0887 0.63838 0.0
N187 N 0.6361 0.10005 0.6404 0.0
N188 N 0.61406 0.07383 0.62454 0.0
C189 C 0.63829 0.04447 0.61154 0.0
C190 C 0.67862 0.05527 0.61756 0.0
C191 C 0.70332 0.09998 0.66268 0.0
H192 H 0.6867 0.10493 0.68346 0.0
H193 H 0.71894 0.13071 0.65745 0.0
H194 H 0.72534 0.07387 0.6668 0.0
O195 O 0.58614 0.09356 0.69707 0.0
O196 O 0.53742 0.06507 0.67033 0.0
H197 H 0.64342 0.97463 0.60708 0.0
H198 H 0.61464 0.00182 0.57847 0.0
C199 C 0.62221 0.00121 0.60219 0.0
H200 H 0.59447 0.99384 0.61447 0.0
H201 H 0.5063 0.99309 0.63264 0.0
O202 O 0.64478 0.17085 0.69348 0.0
C203 C 0.55343 0.07297 0.69525 0.0
Co204 Co 0.39616 0.12647 0.82145 0.0
Co205 Co 0.44606 0.06801 0.86408 0.0
C206 C 0.45827 0.16496 0.85951 0.0
O207 O 0.4278 0.16899 0.84309 0.0
O208 O 0.46925 0.12793 0.86899 0.0
C209 C 0.34001 0.19204 0.80368 0.0
O210 O 0.33315 0.19626 0.83196 0.0
C211 C 0.46739 0.03937 0.92332 0.0
C212 C 0.50102 0.97897 0.91502 0.0
C213 C 0.48757 0.00603 0.93717 0.0
N214 N 0.46871 0.03256 0.89419 0.0
N215 N 0.48894 0.99642 0.88935 0.0
C216 C 0.44666 0.07668 0.93764 0.0
H217 H 0.42951 0.09574 0.92123 0.0
H218 H 0.4263 0.06454 0.95504 0.0
H219 H 0.46921 0.09783 0.94836 0.0
C220 C 0.3292 0.08144 0.84949 0.0
N221 N 0.3682 0.09082 0.84759 0.0
N222 N 0.38846 0.06632 0.86581 0.0
C223 C 0.36273 0.03992 0.88 0.0
C224 C 0.32317 0.05147 0.8723 0.0
C225 C 0.30119 0.09175 0.82466 0.0
H226 H 0.31825 0.09377 0.80383 0.0
H227 H 0.28678 0.12362 0.82839 0.0
H228 H 0.278 0.06644 0.82184 0.0
O229 O 0.43328 0.093 0.79657 0.0
O230 O 0.46622 0.04716 0.82543 0.0
H231 H 0.3552 0.97151 0.88945 0.0
H232 H 0.38345 0.00229 0.9167 0.0
C233 C 0.377 0.998 0.89298 0.0
H234 H 0.40514 0.98783 0.88218 0.0
H235 H 0.49441 0.98359 0.86851 0.0
O236 O 0.36258 0.16172 0.79466 0.0
C237 C 0.45865 0.06272 0.80011 0.0
Co238 Co 0.10539 0.87719 0.82614 0.0
Co239 Co 0.05494 0.93511 0.86944 0.0
C240 C 0.04515 0.83831 0.86626 0.0
O241 O 0.0752 0.83474 0.84934 0.0
O242 O 0.03358 0.87513 0.87568 0.0
C243 C 0.16458 0.81396 0.80409 0.0
O244 O 0.1787 0.81085 0.83093 0.0
C245 C 0.03043 0.96497 0.92807 0.0
C246 C 0.00661 0.03036 0.91894 0.0
C247 C 0.01414 0.00121 0.94139 0.0
N248 N 0.03278 0.97225 0.899 0.0
N249 N 0.01817 0.01131 0.89366 0.0
C250 C 0.04512 0.92483 0.94291 0.0
H251 H 0.0665 0.90728 0.92855 0.0
H252 H 0.05956 0.93307 0.96417 0.0
H253 H 0.01925 0.90343 0.94758 0.0
C254 C 0.17189 0.92849 0.85168 0.0
N255 N 0.13334 0.91597 0.85059 0.0
N256 N 0.11247 0.93867 0.86976 0.0
C257 C 0.13755 0.96566 0.8841 0.0
C258 C 0.17584 0.96014 0.87302 0.0
C259 C 0.2035 0.91394 0.83068 0.0
H260 H 0.18991 0.90536 0.80926 0.0
H261 H 0.2187 0.88499 0.83983 0.0
H262 H 0.22633 0.9396 0.82745 0.0
O263 O 0.06632 0.90845 0.80149 0.0
O264 O 0.03284 0.95353 0.83058 0.0
H265 H 0.10166 0.02 0.89663 0.0
H266 H 0.15036 0.01877 0.91386 0.0
C267 C 0.12485 0.99866 0.9063 0.0
H268 H 0.11192 0.98189 0.92558 0.0
H269 H 0.01673 0.02527 0.87281 0.0
O270 O 0.13778 0.84195 0.79833 0.0
C271 C 0.04007 0.93777 0.80524 0.0
Co272 Co 0.60846 0.62566 0.32746 0.0
Co273 Co 0.55906 0.56355 0.36715 0.0
C274 C 0.54477 0.66112 0.36367 0.0
O275 O 0.57719 0.66761 0.34993 0.0
O276 O 0.53388 0.62296 0.37089 0.0
C277 C 0.66027 0.6945 0.30857 0.0
O278 O 0.66561 0.70235 0.33667 0.0
C279 C 0.53539 0.53489 0.42606 0.0
C280 C 0.50451 0.47299 0.41713 0.0
C281 C 0.51551 0.50097 0.4395 0.0
N282 N 0.5362 0.52755 0.39697 0.0
N283 N 0.51763 0.49049 0.39176 0.0
C284 C 0.55345 0.57353 0.44072 0.0
H285 H 0.52927 0.59384 0.45016 0.0
H286 H 0.57103 0.59298 0.42479 0.0
H287 H 0.57292 0.56286 0.45911 0.0
C288 C 0.67606 0.58122 0.35496 0.0
N289 N 0.63689 0.58954 0.35277 0.0
N290 N 0.61675 0.56332 0.36986 0.0
C291 C 0.64274 0.53663 0.38355 0.0
C292 C 0.68227 0.54961 0.37677 0.0
C293 C 0.70449 0.59529 0.33125 0.0
H294 H 0.68826 0.59839 0.31011 0.0
H295 H 0.71706 0.62757 0.33665 0.0
H296 H 0.72893 0.57158 0.32783 0.0
O297 O 0.57154 0.59259 0.30187 0.0
O298 O 0.5406 0.54218 0.32813 0.0
H299 H 0.65111 0.46784 0.39116 0.0
H300 H 0.62231 0.49663 0.41908 0.0
C301 C 0.62895 0.49378 0.3953 0.0
H302 H 0.60094 0.48391 0.38415 0.0
H303 H 0.51392 0.4771 0.37087 0.0
O304 O 0.64091 0.66117 0.30058 0.0
C305 C 0.54761 0.56066 0.30366 0.0
Co306 Co 0.89722 0.37654 0.32543 0.0
Co307 Co 0.94965 0.43037 0.36965 0.0
C308 C 0.95681 0.33313 0.36326 0.0
O309 O 0.92584 0.33089 0.34712 0.0
O310 O 0.96943 0.36924 0.37322 0.0
C311 C 0.84128 0.31289 0.30449 0.0
O312 O 0.83678 0.30373 0.33249 0.0
C313 C 0.97368 0.45503 0.42936 0.0
C314 C 0.00286 0.51841 0.42235 0.0
C315 C 0.99211 0.48901 0.44391 0.0
N316 N 0.97327 0.4639 0.40045 0.0
N317 N 0.99107 0.50169 0.39638 0.0
C318 C 0.95553 0.41549 0.44281 0.0
H319 H 0.93435 0.39993 0.42726 0.0
H320 H 0.94 0.42402 0.46358 0.0
H321 H 0.97966 0.3921 0.44818 0.0
C322 C 0.8324 0.42721 0.35302 0.0
N323 N 0.87077 0.41439 0.35121 0.0
N324 N 0.89236 0.43593 0.37054 0.0
C325 C 0.86797 0.46286 0.38555 0.0
C326 C 0.82932 0.45828 0.37485 0.0
C327 C 0.80027 0.41313 0.33228 0.0
H328 H 0.8117 0.41473 0.30944 0.0
H329 H 0.79218 0.37901 0.33706 0.0
H330 H 0.77313 0.4336 0.33434 0.0
O331 O 0.93737 0.40803 0.30162 0.0
O332 O 0.97175 0.45121 0.33148 0.0
H333 H 0.9066 0.51433 0.39931 0.0
H334 H 0.85711 0.51655 0.41525 0.0
C335 C 0.88164 0.4947 0.40822 0.0
H336 H 0.89252 0.47684 0.42774 0.0
H337 H 0.99453 0.51645 0.37591 0.0
O338 O 0.86219 0.34548 0.29708 0.0
C339 C 0.96416 0.43668 0.30587 0.0
Co340 Co 0.1181 0.36321 0.1764 0.0
Co341 Co 0.06804 0.42438 0.13577 0.0
C342 C 0.04952 0.33155 0.13834 0.0
O343 O 0.07568 0.32684 0.15841 0.0
O344 O 0.04449 0.36764 0.12547 0.0
C345 C 0.17609 0.29442 0.19684 0.0
O346 O 0.19019 0.28917 0.17015 0.0
C347 C 0.04644 0.46083 0.07892 0.0
C348 C 0.0122 0.51961 0.09039 0.0
C349 C 0.0256 0.49515 0.06684 0.0
N350 N 0.04563 0.46459 0.10833 0.0
N351 N 0.02519 0.4999 0.11509 0.0
C352 C 0.06603 0.42446 0.0627 0.0
H353 H 0.04264 0.40263 0.05375 0.0
H354 H 0.0859 0.40568 0.07751 0.0
H355 H 0.08339 0.43744 0.04388 0.0
C356 C 0.18525 0.40621 0.14697 0.0
N357 N 0.14619 0.39666 0.14881 0.0
N358 N 0.1256 0.42397 0.13274 0.0
C359 C 0.15109 0.45171 0.1196 0.0
C360 C 0.19075 0.4389 0.12576 0.0
C361 C 0.21285 0.39522 0.17193 0.0
H362 H 0.19521 0.39078 0.1923 0.0
H363 H 0.22863 0.36437 0.1674 0.0
H364 H 0.23482 0.42136 0.17619 0.0
O365 O 0.09252 0.40255 0.20416 0.0
O366 O 0.04757 0.43666 0.1768 0.0
H367 H 0.16002 0.52096 0.11362 0.0
H368 H 0.12847 0.49473 0.08631 0.0
C369 C 0.13709 0.49567 0.10984 0.0
H370 H 0.11035 0.50533 0.12261 0.0
H371 H 0.01972 0.51027 0.13655 0.0
O372 O 0.14997 0.32345 0.20185 0.0
C373 C 0.06145 0.42598 0.20194 0.0
Co374 Co 0.39188 0.63093 0.17258 0.0
Co375 Co 0.44909 0.57853 0.13131 0.0
C376 C 0.45589 0.67347 0.13507 0.0
O377 O 0.42882 0.6739 0.15471 0.0
O378 O 0.46612 0.63856 0.12229 0.0
C379 C 0.33382 0.69644 0.1909 0.0
O380 O 0.32949 0.7062 0.16299 0.0
C381 C 0.47796 0.54717 0.07471 0.0
C382 C 0.50643 0.48471 0.08585 0.0
C383 C 0.4971 0.51174 0.06252 0.0
N384 N 0.47564 0.54141 0.10392 0.0
N385 N 0.49311 0.5042 0.11051 0.0
C386 C 0.46035 0.58491 0.05867 0.0
H387 H 0.43632 0.60018 0.07192 0.0
H388 H 0.44841 0.57455 0.03701 0.0
H389 H 0.48415 0.60928 0.05477 0.0
C390 C 0.33051 0.5789 0.14292 0.0
N391 N 0.36816 0.59384 0.14517 0.0
N392 N 0.39191 0.57086 0.12813 0.0
C393 C 0.36957 0.54101 0.11392 0.0
C394 C 0.33011 0.54488 0.12308 0.0
C395 C 0.29713 0.5926 0.16268 0.0
H396 H 0.30714 0.59034 0.18588 0.0
H397 H 0.28958 0.62694 0.15813 0.0
H398 H 0.27006 0.57237 0.15948 0.0
O399 O 0.42243 0.59543 0.19987 0.0
O400 O 0.47005 0.56642 0.17231 0.0
H401 H 0.41028 0.48884 0.10583 0.0
H402 H 0.36262 0.48304 0.08746 0.0
C403 C 0.38601 0.50644 0.09431 0.0
H404 H 0.39853 0.52169 0.07432 0.0
H405 H 0.4951 0.49164 0.13175 0.0
O406 O 0.35492 0.66399 0.19821 0.0
C407 C 0.45507 0.57472 0.19752 0.0
Co408 Co 0.38944 0.37032 0.68354 0.0
Co409 Co 0.44032 0.4231 0.63828 0.0
C410 C 0.44444 0.32484 0.64348 0.0
O411 O 0.41517 0.32368 0.66127 0.0
O412 O 0.45736 0.36071 0.63324 0.0
C413 C 0.33451 0.30831 0.70949 0.0
O414 O 0.33717 0.28885 0.68388 0.0
C415 C 0.46045 0.4494 0.578 0.0
C416 C 0.50212 0.50385 0.58546 0.0
C417 C 0.48419 0.47938 0.56365 0.0
N418 N 0.46402 0.45574 0.6071 0.0
N419 N 0.4889 0.48845 0.61141 0.0
C420 C 0.43553 0.41475 0.56424 0.0
H421 H 0.45536 0.39109 0.55306 0.0
H422 H 0.4173 0.39783 0.58107 0.0
H423 H 0.41574 0.42924 0.54728 0.0
C424 C 0.32419 0.42045 0.65748 0.0
N425 N 0.36261 0.40829 0.6582 0.0
N426 N 0.3831 0.43072 0.63898 0.0
C427 C 0.35817 0.45874 0.62538 0.0
C428 C 0.31848 0.45052 0.63466 0.0
C429 C 0.29664 0.41085 0.68273 0.0
H430 H 0.31397 0.41016 0.70348 0.0
H431 H 0.28288 0.37845 0.67973 0.0
H432 H 0.27313 0.43583 0.68537 0.0
O433 O 0.43151 0.4001 0.70634 0.0
O434 O 0.46541 0.44236 0.67576 0.0
H435 H 0.35522 0.52719 0.61501 0.0
H436 H 0.37785 0.49284 0.58685 0.0
C437 C 0.37434 0.49858 0.61076 0.0
H438 H 0.40433 0.50627 0.6197 0.0
H439 H 0.49722 0.49998 0.63208 0.0
O440 O 0.35407 0.34317 0.71317 0.0
C441 C 0.45883 0.42782 0.70148 0.0
Co442 Co 0.10563 0.63216 0.68586 0.0
Co443 Co 0.05355 0.5773 0.64199 0.0
C444 C 0.04727 0.67452 0.64583 0.0
O445 O 0.07726 0.6765 0.66296 0.0
O446 O 0.03451 0.63836 0.63607 0.0
C447 C 0.16565 0.69332 0.70867 0.0
O448 O 0.1798 0.69667 0.68187 0.0
C449 C 0.02948 0.54938 0.58292 0.0
C450 C 0.00032 0.48642 0.59146 0.0
C451 C 0.01094 0.51475 0.56922 0.0
N452 N 0.03013 0.54195 0.61201 0.0
N453 N 0.01236 0.50438 0.617 0.0
C454 C 0.04745 0.58823 0.56846 0.0
H455 H 0.0686 0.60471 0.58358 0.0
H456 H 0.06301 0.57861 0.54793 0.0
H457 H 0.0232 0.61113 0.56247 0.0
C458 C 0.17072 0.57882 0.66 0.0
N459 N 0.13253 0.59264 0.66124 0.0
N460 N 0.11093 0.57095 0.64195 0.0
C461 C 0.13514 0.54317 0.62749 0.0
C462 C 0.17366 0.54725 0.63849 0.0
C463 C 0.20296 0.59251 0.68078 0.0
H464 H 0.18994 0.60123 0.70237 0.0
H465 H 0.21844 0.62125 0.67162 0.0
H466 H 0.2254 0.56634 0.68368 0.0
O467 O 0.06517 0.60226 0.71003 0.0
O468 O 0.03035 0.55912 0.68045 0.0
H469 H 0.09646 0.49149 0.61418 0.0
H470 H 0.14583 0.48899 0.59814 0.0
C471 C 0.12135 0.51099 0.60507 0.0
H472 H 0.11039 0.52852 0.58544 0.0
H473 H 0.00899 0.49067 0.6378 0.0
O474 O 0.13868 0.66548 0.71421 0.0
C475 C 0.03789 0.5742 0.70593 0.0
Co476 Co 0.87749 0.64369 0.83626 0.0
Co477 Co 0.93776 0.5922 0.87655 0.0
C478 C 0.94287 0.68724 0.87265 0.0
O479 O 0.91436 0.68735 0.85405 0.0
O480 O 0.95448 0.65244 0.88492 0.0
C481 C 0.8494 0.70641 0.79743 0.0
O482 O 0.88535 0.72111 0.80319 0.0
C483 C 0.97149 0.56172 0.93222 0.0
C484 C 0.99793 0.49851 0.92038 0.0
C485 C 0.99139 0.52631 0.94379 0.0
N486 N 0.96617 0.55528 0.90326 0.0
N487 N 0.98241 0.51758 0.89624 0.0
C488 C 0.95614 0.60022 0.94868 0.0
H489 H 0.98024 0.62484 0.9501 0.0
H490 H 0.93027 0.61475 0.93699 0.0
H491 H 0.94744 0.59101 0.97137 0.0
C492 C 0.81899 0.58968 0.86676 0.0
N493 N 0.85618 0.60566 0.864 0.0
N494 N 0.88088 0.58378 0.88098 0.0
C495 C 0.85957 0.55374 0.89578 0.0
C496 C 0.81986 0.55596 0.88683 0.0
C497 C 0.78486 0.60246 0.84736 0.0
H498 H 0.79264 0.59515 0.82417 0.0
H499 H 0.78002 0.63795 0.84908 0.0
H500 H 0.75694 0.58515 0.85329 0.0
O501 O 0.90828 0.6095 0.80813 0.0
O502 O 0.95679 0.58061 0.83497 0.0
H503 H 0.90035 0.50173 0.90404 0.0
H504 H 0.85424 0.4982 0.92465 0.0
C505 C 0.87727 0.52063 0.91592 0.0
H506 H 0.89164 0.53738 0.93467 0.0
H507 H 0.98213 0.50443 0.87511 0.0
O508 O 0.83666 0.6733 0.81118 0.0
C509 C 0.94117 0.58916 0.80997 0.0
Co510 Co 0.62454 0.3599 0.82837 0.0
Co511 Co 0.56658 0.41189 0.86915 0.0
C512 C 0.5597 0.31691 0.865 0.0
O513 O 0.58722 0.31676 0.8457 0.0
O514 O 0.5494 0.35165 0.87798 0.0
C515 C 0.65214 0.29495 0.79015 0.0
O516 O 0.61774 0.2779 0.79768 0.0
C517 C 0.54224 0.44517 0.92617 0.0
C518 C 0.50143 0.49902 0.91515 0.0
C519 C 0.51864 0.47707 0.9385 0.0
N520 N 0.5395 0.44801 0.8968 0.0
N521 N 0.51496 0.48022 0.89028 0.0
C522 C 0.5673 0.41275 0.94218 0.0
H523 H 0.58528 0.39313 0.9266 0.0
H524 H 0.58734 0.42974 0.95786 0.0
H525 H 0.54761 0.39106 0.95515 0.0
C526 C 0.68525 0.40921 0.85997 0.0
N527 N 0.6474 0.39578 0.85685 0.0
N528 N 0.62367 0.41969 0.87301 0.0
C529 C 0.64589 0.44963 0.88722 0.0
C530 C 0.68683 0.44146 0.88182 0.0
C531 C 0.71549 0.40036 0.83629 0.0
H532 H 0.70013 0.39742 0.8148 0.0
H533 H 0.7308 0.36913 0.84068 0.0
H534 H 0.73758 0.42683 0.83398 0.0
O535 O 0.59451 0.39599 0.80069 0.0
O536 O 0.5459 0.42318 0.82816 0.0
H537 H 0.64773 0.51931 0.8937 0.0
H538 H 0.61907 0.4892 0.9208 0.0
C539 C 0.62746 0.49144 0.8973 0.0
H540 H 0.59983 0.49802 0.88461 0.0
H541 H 0.50757 0.48947 0.8689 0.0
O542 O 0.66405 0.32929 0.80286 0.0
C543 C 0.5611 0.41517 0.80299 0.0
C544 C 0.97898 0.11891 0.24595 0.0
C545 C 0.97135 0.08151 0.2287 0.0
C546 C 0.00945 0.03823 0.26451 0.0
C547 C 0.01269 0.07538 0.28273 0.0
N548 N 0.9874 0.14618 0.29506 0.0
N549 N 0.9739 0.00354 0.22419 0.0
C550 C 0.99288 0.114 0.27488 0.0
C551 C 0.98503 0.04035 0.23868 0.0
N552 N 0.9761 0.15939 0.23404 0.0
N553 N 0.03024 0.00161 0.27147 0.0
H554 H 0.95555 0.00401 0.20567 0.0
H555 H 0.98011 0.97252 0.23198 0.0
H556 H 0.04716 0.99908 0.29068 0.0
H557 H 0.0324 0.97496 0.25751 0.0
H558 H 0.98411 0.18739 0.24547 0.0
H559 H 0.97152 0.16422 0.21163 0.0
H560 H 0.97034 0.17374 0.29064 0.0
H561 H 0.99614 0.14288 0.31697 0.0
C562 C 0.50837 0.9655 0.24109 0.0
C563 C 0.5138 0.92857 0.22294 0.0
C564 C 0.48198 0.88313 0.25952 0.0
C565 C 0.47177 0.92001 0.27644 0.0
N566 N 0.47036 0.99799 0.28102 0.0
N567 N 0.49193 0.85639 0.21054 0.0
C568 C 0.48358 0.96193 0.26665 0.0
C569 C 0.49594 0.88879 0.23074 0.0
N570 N 0.52743 0.00328 0.23436 0.0
N571 N 0.48103 0.84262 0.27154 0.0
H572 H 0.50012 0.86036 0.18858 0.0
H573 H 0.47631 0.82787 0.21498 0.0
H574 H 0.47601 0.8377 0.2939 0.0
H575 H 0.49085 0.81513 0.26031 0.0
H576 H 0.52788 0.03004 0.24831 0.0
H577 H 0.54474 0.00673 0.21544 0.0
H578 H 0.47512 0.02934 0.27332 0.0
H579 H 0.4519 0.99639 0.29944 0.0
C580 C 0.99031 0.97127 0.73319 0.0
C581 C 0.96606 0.93386 0.72876 0.0
C582 C 0.98079 0.91072 0.77909 0.0
C583 C 0.01039 0.94306 0.78144 0.0
N584 N 0.04589 0.00307 0.76021 0.0
N585 N 0.94926 0.8612 0.74585 0.0
C586 C 0.01592 0.9732 0.75833 0.0
C587 C 0.96397 0.9018 0.75133 0.0
N588 N 0.98795 0.00536 0.71416 0.0
N589 N 0.96942 0.88753 0.80325 0.0
H590 H 0.94058 0.85037 0.72516 0.0
H591 H 0.95087 0.8361 0.76114 0.0
H592 H 0.9813 0.89304 0.82412 0.0
H593 H 0.94538 0.866 0.80297 0.0
H594 H 0.00253 0.03472 0.7177 0.0
H595 H 0.96828 0.00589 0.69639 0.0
H596 H 0.05423 0.02291 0.74275 0.0
H597 H 0.06374 0.00616 0.77893 0.0
C598 C 0.53236 0.09888 0.74515 0.0
C599 C 0.5308 0.06607 0.72308 0.0
C600 C 0.48279 0.02596 0.75367 0.0
C601 C 0.48804 0.05701 0.77626 0.0
N602 N 0.52848 0.11398 0.79698 0.0
N603 N 0.5107 0.99342 0.70961 0.0
C604 C 0.51684 0.09001 0.77322 0.0
C605 C 0.5078 0.02796 0.72824 0.0
N606 N 0.54508 0.14001 0.7389 0.0
N607 N 0.45368 0.99527 0.7563 0.0
H608 H 0.52997 0.99305 0.69163 0.0
H609 H 0.497 0.96371 0.71367 0.0
H610 H 0.43633 0.9923 0.77525 0.0
H611 H 0.44555 0.97455 0.73922 0.0
H612 H 0.54321 0.16534 0.75402 0.0
H613 H 0.552 0.15073 0.71783 0.0
H614 H 0.55188 0.13628 0.79604 0.0
H615 H 0.51758 0.10836 0.81811 0.0
C616 C 0.5258 0.52603 0.25571 0.0
C617 C 0.51912 0.55551 0.27906 0.0
C618 C 0.4756 0.59848 0.24801 0.0
C619 C 0.47814 0.56697 0.22517 0.0
N620 N 0.49956 0.49517 0.21054 0.0
N621 N 0.47625 0.60979 0.30033 0.0
C622 C 0.50151 0.52892 0.22987 0.0
C623 C 0.48979 0.58798 0.27621 0.0
N624 N 0.55546 0.4959 0.25804 0.0
N625 N 0.4631 0.6399 0.2425 0.0
H626 H 0.486 0.60262 0.32157 0.0
H627 H 0.45255 0.63173 0.29931 0.0
H628 H 0.45776 0.6518 0.22144 0.0
H629 H 0.46375 0.6642 0.25843 0.0
H630 H 0.56454 0.47645 0.24055 0.0
H631 H 0.5723 0.49225 0.27721 0.0
H632 H 0.51359 0.46553 0.21425 0.0
H633 H 0.48069 0.49517 0.19231 0.0
C634 C 0.99065 0.47405 0.26022 0.0
C635 C 0.99415 0.4419 0.2823 0.0
C636 C 0.0368 0.39902 0.2506 0.0
C637 C 0.03763 0.43288 0.22932 0.0
N638 N 0.02107 0.50712 0.21726 0.0
N639 N 0.03245 0.38262 0.30217 0.0
C640 C 0.0162 0.47193 0.23504 0.0
C641 C 0.02164 0.40772 0.27879 0.0
N642 N 0.96275 0.506 0.26312 0.0
N643 N 0.04675 0.35734 0.24341 0.0
H644 H 0.02193 0.38829 0.3234 0.0
H645 H 0.05482 0.35913 0.30074 0.0
H646 H 0.05224 0.34719 0.22195 0.0
H647 H 0.04359 0.33163 0.2581 0.0
H648 H 0.9559 0.52779 0.24637 0.0
H649 H 0.94505 0.50898 0.2819 0.0
H650 H 0.00857 0.53729 0.22184 0.0
H651 H 0.04076 0.50733 0.19952 0.0
C652 C 0.51489 0.46081 0.77106 0.0
C653 C 0.53729 0.42205 0.77557 0.0
C654 C 0.51753 0.39709 0.72643 0.0
C655 C 0.49023 0.43178 0.72416 0.0
N656 N 0.46033 0.49575 0.7447 0.0
N657 N 0.55225 0.34883 0.75723 0.0
C658 C 0.48825 0.4636 0.74655 0.0
C659 C 0.53694 0.38934 0.75328 0.0
N660 N 0.52018 0.49545 0.78935 0.0
N661 N 0.52314 0.36923 0.70342 0.0
H662 H 0.5635 0.3367 0.77691 0.0
H663 H 0.5635 0.3367 0.77691 0.0
H664 H 0.50988 0.37371 0.68289 0.0
H665 H 0.54284 0.343 0.7045 0.0
H666 H 0.50723 0.52565 0.78563 0.0
H667 H 0.5407 0.4954 0.8066 0.0
H668 H 0.45419 0.5171 0.76185 0.0
H669 H 0.44181 0.49939 0.7264 0.0
C670 C 0.9623 0.6129 0.75924 0.0
C671 C 0.96371 0.58118 0.78208 0.0
C672 C 0.01234 0.5398 0.75272 0.0
C673 C 0.00778 0.56992 0.7295 0.0
N674 N 0.96838 0.62645 0.70725 0.0
N675 N 0.98298 0.50871 0.79666 0.0
C676 C 0.97896 0.60312 0.73156 0.0
C677 C 0.98668 0.54278 0.77773 0.0
N678 N 0.9486 0.65398 0.76436 0.0
N679 N 0.04144 0.5089 0.75106 0.0
H680 H 0.96291 0.50871 0.81417 0.0
H681 H 0.99663 0.47881 0.79315 0.0
H682 H 0.05927 0.50503 0.73242 0.0
H683 H 0.04914 0.48896 0.76865 0.0
H684 H 0.95067 0.67878 0.74888 0.0
H685 H 0.94028 0.66539 0.78493 0.0
H686 H 0.94486 0.64862 0.70729 0.0
H687 H 0.98032 0.62047 0.68647 0.0
C688 C 0.19051 0.19409 0.24511 0.0
C689 C 0.188 0.21401 0.27317 0.0
C690 C 0.19564 0.28471 0.24936 0.0
C691 C 0.18802 0.26554 0.2216 0.0
N692 N 0.17429 0.20031 0.1936 0.0
N693 N 0.18273 0.28069 0.30133 0.0
C694 C 0.18514 0.21966 0.21941 0.0
C695 C 0.18984 0.25998 0.2753 0.0
N696 N 0.19786 0.15067 0.24305 0.0
N697 N 0.20818 0.32674 0.25092 0.0
H698 H 0.17604 0.26483 0.32086 0.0
H699 H 0.17945 0.31421 0.30286 0.0
H700 H 0.21395 0.3451 0.23217 0.0
H701 H 0.2173 0.34129 0.27049 0.0
H702 H 0.20336 0.13508 0.22314 0.0
H703 H 0.20291 0.13138 0.26152 0.0
H704 H 0.16735 0.16747 0.19205 0.0
H705 H 0.16874 0.21723 0.17426 0.0
C706 C 0.29832 0.70715 0.23888 0.0
C707 C 0.31885 0.72551 0.21454 0.0
C708 C 0.31893 0.79534 0.23993 0.0
C709 C 0.31103 0.77385 0.26676 0.0
N710 N 0.28052 0.71282 0.29062 0.0
N711 N 0.35095 0.78852 0.19287 0.0
C712 C 0.29632 0.73076 0.26581 0.0
C713 C 0.329 0.77028 0.21494 0.0
N714 N 0.28051 0.66755 0.23592 0.0
N715 N 0.31596 0.83934 0.23809 0.0
H716 H 0.36102 0.77161 0.17454 0.0
H717 H 0.36241 0.81989 0.19425 0.0
H718 H 0.3042 0.85791 0.25518 0.0
H719 H 0.31924 0.85614 0.21836 0.0
H720 H 0.26309 0.65303 0.25207 0.0
H721 H 0.28037 0.65077 0.21601 0.0
H722 H 0.27367 0.6801 0.29285 0.0
H723 H 0.27404 0.73148 0.30916 0.0
C724 C 0.69457 0.72619 0.26464 0.0
C725 C 0.66486 0.7295 0.28671 0.0
C726 C 0.6299 0.7854 0.2585 0.0
C727 C 0.65978 0.78238 0.23636 0.0
N728 N 0.72429 0.75703 0.2206 0.0
N729 N 0.60937 0.76842 0.30814 0.0
C730 C 0.69342 0.75502 0.24021 0.0
C731 C 0.63452 0.76151 0.2849 0.0
N732 N 0.72303 0.69454 0.26666 0.0
N733 N 0.59549 0.80826 0.25347 0.0
H734 H 0.61018 0.75028 0.32742 0.0
H735 H 0.58979 0.7946 0.3094 0.0
H736 H 0.59027 0.82643 0.23461 0.0
H737 H 0.5704 0.80654 0.26694 0.0
H738 H 0.74279 0.68686 0.24979 0.0
H739 H 0.72574 0.67453 0.28504 0.0
H740 H 0.75128 0.74075 0.22336 0.0
H741 H 0.7241 0.778 0.20261 0.0
C742 C 0.80535 0.29839 0.25688 0.0
C743 C 0.82722 0.2824 0.28138 0.0
C744 C 0.82575 0.2101 0.25939 0.0
C745 C 0.81552 0.2286 0.23196 0.0
N746 N 0.78512 0.28783 0.20598 0.0
N747 N 0.86217 0.22214 0.30423 0.0
C748 C 0.80163 0.27205 0.23124 0.0
C749 C 0.8379 0.2378 0.28252 0.0
N750 N 0.78771 0.33825 0.25846 0.0
N751 N 0.82317 0.16643 0.26364 0.0
H752 H 0.87435 0.24129 0.3208 0.0
H753 H 0.87369 0.19073 0.30386 0.0
H754 H 0.80984 0.14597 0.24824 0.0
H755 H 0.82834 0.15194 0.28398 0.0
H756 H 0.76908 0.35086 0.24227 0.0
H757 H 0.78892 0.35727 0.27737 0.0
H758 H 0.77889 0.32044 0.20238 0.0
H759 H 0.77786 0.26757 0.18838 0.0
C760 C 0.84166 0.70329 0.74335 0.0
C761 C 0.8296 0.72189 0.77032 0.0
C762 C 0.80013 0.78302 0.74374 0.0
C763 C 0.82016 0.76934 0.71786 0.0
N764 N 0.86296 0.71685 0.69357 0.0
N765 N 0.79546 0.7779 0.79696 0.0
C766 C 0.84083 0.72896 0.71746 0.0
C767 C 0.80757 0.76099 0.77069 0.0
N768 N 0.85518 0.66151 0.74274 0.0
N769 N 0.77446 0.8174 0.74241 0.0
H770 H 0.79905 0.76119 0.81673 0.0
H771 H 0.78336 0.80879 0.79929 0.0
H772 H 0.76841 0.83357 0.72275 0.0
H773 H 0.75663 0.82727 0.75991 0.0
H774 H 0.86115 0.64473 0.72337 0.0
H775 H 0.8565 0.64223 0.76154 0.0
H776 H 0.88266 0.69072 0.69375 0.0
H777 H 0.86441 0.73442 0.67413 0.0
C778 C 0.69162 0.24033 0.76186 0.0
C779 C 0.67064 0.28011 0.76245 0.0
C780 C 0.65833 0.2757 0.70956 0.0
C781 C 0.67706 0.23432 0.70922 0.0
N782 N 0.72168 0.18353 0.73214 0.0
N783 N 0.64606 0.34244 0.73624 0.0
C784 C 0.69741 0.21895 0.73449 0.0
C785 C 0.65854 0.30027 0.73595 0.0
N786 N 0.70426 0.22225 0.78763 0.0
N787 N 0.63716 0.28989 0.68571 0.0
H788 H 0.64539 0.36106 0.75535 0.0
H789 H 0.64015 0.36018 0.71727 0.0
H790 H 0.6363 0.27358 0.66571 0.0
H791 H 0.61824 0.31668 0.68625 0.0
H792 H 0.71566 0.19096 0.78931 0.0
H793 H 0.70195 0.2385 0.80769 0.0
H794 H 0.73963 0.17213 0.74915 0.0
H795 H 0.7265 0.16795 0.71207 0.0
C796 C 0.30178 0.24263 0.73279 0.0
C797 C 0.31862 0.28453 0.73576 0.0
C798 C 0.33713 0.2696 0.78652 0.0
C799 C 0.32633 0.22541 0.78242 0.0
N800 N 0.29099 0.17131 0.75441 0.0
N801 N 0.32666 0.34323 0.77008 0.0
C802 C 0.30584 0.21246 0.75642 0.0
C803 C 0.32789 0.29989 0.76421 0.0
N804 N 0.2804 0.23299 0.70807 0.0
N805 N 0.35925 0.2824 0.81026 0.0
H806 H 0.31604 0.36554 0.75471 0.0
H807 H 0.3305 0.3559 0.79113 0.0
H808 H 0.36894 0.26146 0.8267 0.0
H809 H 0.37136 0.31341 0.81211 0.0
H810 H 0.26705 0.20324 0.70381 0.0
H811 H 0.27309 0.25675 0.69265 0.0
H812 H 0.27829 0.15809 0.73559 0.0
H813 H 0.29105 0.15003 0.77218 0.0
C814 C 0.18183 0.70879 0.76125 0.0
C815 C 0.17678 0.72465 0.73225 0.0
C816 C 0.18147 0.7986 0.75161 0.0
C817 C 0.17615 0.7827 0.78057 0.0
N818 N 0.16595 0.72031 0.81227 0.0
N819 N 0.1662 0.78696 0.7005 0.0
C820 C 0.17563 0.73712 0.78543 0.0
C821 C 0.17581 0.77022 0.72739 0.0
N822 N 0.1922 0.66649 0.7657 0.0
N823 N 0.19162 0.84096 0.74722 0.0
H824 H 0.15939 0.76824 0.68218 0.0
H825 H 0.16096 0.81989 0.69715 0.0
H826 H 0.1971 0.86219 0.76461 0.0
H827 H 0.19906 0.85333 0.72662 0.0
H828 H 0.19946 0.65414 0.78634 0.0
H829 H 0.19795 0.64529 0.74833 0.0
H830 H 0.16103 0.68733 0.81563 0.0
H831 H 0.1588 0.739 0.83054 0.0
C832 C 0.97734 0.04324 0.49164 0.0
C833 C 0.00791 0.02063 0.47646 0.0
C834 C 0.02842 0.98504 0.52232 0.0
C835 C 0.9955 0.00449 0.53686 0.0
N836 N 0.93559 0.04799 0.53504 0.0
N837 N 0.06091 0.96763 0.47614 0.0
C838 C 0.96927 0.03276 0.5215 0.0
C839 C 0.03305 0.99086 0.49148 0.0
N840 N 0.95618 0.07497 0.47754 0.0
N841 N 0.05592 0.96209 0.53823 0.0
H842 H 0.06657 0.97248 0.45386 0.0
H843 H 0.07686 0.94174 0.48494 0.0
H844 H 0.05335 0.95705 0.56082 0.0
H845 H 0.08286 0.95091 0.52969 0.0
H846 H 0.9368 0.09615 0.48821 0.0
H847 H 0.96009 0.08234 0.45536 0.0
H848 H 0.91278 0.06429 0.52409 0.0
H849 H 0.92882 0.04164 0.55695 0.0
C850 C 0.46645 0.00529 0.48496 0.0
C851 C 0.48889 0.97162 0.47156 0.0
C852 C 0.52566 0.95969 0.51753 0.0
C853 C 0.50188 0.99188 0.53134 0.0
N854 N 0.44579 0.04084 0.53009 0.0
N855 N 0.53537 0.91226 0.47554 0.0
C856 C 0.47114 0.01344 0.51557 0.0
C857 C 0.51713 0.9474 0.48803 0.0
N858 N 0.4413 0.0301 0.46825 0.0
N859 N 0.55735 0.94205 0.5323 0.0
H860 H 0.5306 0.90299 0.45377 0.0
H861 H 0.55289 0.89035 0.48724 0.0
H862 H 0.56412 0.94968 0.55407 0.0
H863 H 0.57869 0.92223 0.52248 0.0
H864 H 0.42762 0.05828 0.47578 0.0
H865 H 0.43593 0.02408 0.44605 0.0
H866 H 0.42011 0.05399 0.52074 0.0
H867 H 0.4487 0.04805 0.55239 0.0
C868 C 0.469 0.97063 0.98478 0.0
C869 C 0.49377 0.99992 0.96913 0.0
C870 C 0.52896 0.01905 0.01466 0.0
C871 C 0.50586 0.98776 0.02992 0.0
N872 N 0.45769 0.92968 0.02952 0.0
N873 N 0.55039 0.04815 0.96767 0.0
C874 C 0.47697 0.96231 0.01496 0.0
C875 C 0.52458 0.02317 0.98367 0.0
N876 N 0.43704 0.95188 0.97097 0.0
N877 N 0.5546 0.04528 0.02992 0.0
H878 H 0.54765 0.05253 0.94503 0.0
H879 H 0.57614 0.06216 0.97629 0.0
H880 H 0.5598 0.04201 0.05241 0.0
H881 H 0.56891 0.07202 0.02082 0.0
H882 H 0.41512 0.93416 0.98186 0.0
H883 H 0.43064 0.95666 0.94878 0.0
H884 H 0.43976 0.90672 0.01917 0.0
H885 H 0.46179 0.92352 0.05186 0.0
C886 C 0.97133 0.99367 0.01883 0.0
C887 C 0.99604 0.02382 0.03389 0.0
C888 C 0.03438 0.03666 0.98879 0.0
C889 C 0.00795 0.00886 0.97327 0.0
N890 N 0.94817 0.96537 0.97202 0.0
N891 N 0.04765 0.07828 0.033 0.0
C892 C 0.97561 0.98845 0.98791 0.0
C893 C 0.02654 0.04663 0.01877 0.0
N894 N 0.94409 0.96963 0.03419 0.0
N895 N 0.06788 0.05216 0.97516 0.0
H896 H 0.04386 0.08533 0.05524 0.0
H897 H 0.06694 0.09962 0.02241 0.0
H898 H 0.07456 0.0458 0.9532 0.0
H899 H 0.09071 0.06848 0.98608 0.0
H900 H 0.92845 0.9436 0.02527 0.0
H901 H 0.93884 0.97379 0.05659 0.0
H902 H 0.92148 0.9537 0.98069 0.0
H903 H 0.95053 0.96053 0.9494 0.0
C904 C 0.53428 0.47111 0.48884 0.0
C905 C 0.50719 0.49517 0.47125 0.0
C906 C 0.4653 0.50973 0.51442 0.0
C907 C 0.49124 0.48366 0.53163 0.0
N908 N 0.54684 0.43424 0.53504 0.0
N909 N 0.44461 0.533 0.46574 0.0
C910 C 0.52476 0.46283 0.51878 0.0
C911 C 0.47199 0.51325 0.48361 0.0
N912 N 0.56961 0.45712 0.47706 0.0
N913 N 0.43492 0.53198 0.52771 0.0
H914 H 0.44908 0.53733 0.44325 0.0
H915 H 0.41631 0.54259 0.47266 0.0
H916 H 0.42846 0.52918 0.55005 0.0
H917 H 0.41763 0.55532 0.51718 0.0
H918 H 0.59278 0.44392 0.48944 0.0
H919 H 0.57704 0.46141 0.45501 0.0
H920 H 0.56891 0.41436 0.52622 0.0
H921 H 0.54108 0.42782 0.55714 0.0
C922 C 0.97474 0.52971 0.52201 0.0
C923 C 0.00565 0.50755 0.53721 0.0
C924 C 0.02738 0.47272 0.49133 0.0
C925 C 0.99667 0.49513 0.47609 0.0
N926 N 0.93789 0.54031 0.47652 0.0
N927 N 0.06436 0.46227 0.53678 0.0
C928 C 0.96959 0.52262 0.4913 0.0
C929 C 0.03261 0.4799 0.52202 0.0
N930 N 0.95095 0.55831 0.53693 0.0
N931 N 0.05099 0.4439 0.47645 0.0
H932 H 0.06887 0.46628 0.55928 0.0
H933 H 0.08775 0.44575 0.52675 0.0
H934 H 0.04934 0.43942 0.45377 0.0
H935 H 0.07085 0.42261 0.48648 0.0
H936 H 0.93093 0.57948 0.52696 0.0
H937 H 0.95249 0.56264 0.55964 0.0
H938 H 0.91445 0.55679 0.48653 0.0
H939 H 0.93348 0.53641 0.45401 0.0
C940 C 0.04144 0.53199 0.01905 0.0
C941 C 0.01703 0.503 0.03528 0.0
C942 C 0.97506 0.49044 0.99183 0.0
C943 C 0.00066 0.51768 0.97518 0.0
N944 N 0.06074 0.56026 0.97127 0.0
N945 N 0.96362 0.45062 0.03703 0.0
C946 C 0.03454 0.53742 0.98836 0.0
C947 C 0.9847 0.48104 0.02162 0.0
N948 N 0.07089 0.55471 0.03313 0.0
N949 N 0.94075 0.47474 0.9794 0.0
H950 H 0.96848 0.44426 0.05925 0.0
H951 H 0.943 0.42963 0.0275 0.0
H952 H 0.93335 0.47955 0.9574 0.0
H953 H 0.91824 0.4593 0.99119 0.0
H954 H 0.08694 0.57985 0.02353 0.0
H955 H 0.07786 0.5502 0.05527 0.0
H956 H 0.08823 0.57168 0.97863 0.0
H957 H 0.05629 0.56534 0.94884 0.0
C958 C 0.53611 0.51891 0.98402 0.0
C959 C 0.51293 0.4862 0.9702 0.0
C960 C 0.47804 0.47173 0.01655 0.0
C961 C 0.50303 0.50241 0.03083 0.0
N962 N 0.55918 0.55124 0.02966 0.0
N963 N 0.46538 0.4277 0.97336 0.0
C964 C 0.53294 0.52504 0.01495 0.0
C965 C 0.48494 0.46146 0.98651 0.0
N966 N 0.56079 0.54443 0.96747 0.0
N967 N 0.44666 0.45368 0.03141 0.0
H968 H 0.46818 0.42041 0.95108 0.0
H969 H 0.4484 0.40506 0.98482 0.0
H970 H 0.44095 0.45971 0.05354 0.0
H971 H 0.42445 0.43521 0.02141 0.0
H972 H 0.5751 0.57196 0.97547 0.0
H973 H 0.56507 0.53982 0.94499 0.0
H974 H 0.58434 0.56509 0.02006 0.0
H975 H 0.55758 0.55666 0.05226 0.0
C976 C 0.20718 0.96956 0.3744 0.0
C977 C 0.20985 0.01426 0.38163 0.0
C978 C 0.27632 0.00106 0.40238 0.0
C979 C 0.27733 0.96108 0.38738 0.0
N980 N 0.23512 0.89848 0.38353 0.0
N981 N 0.24599 0.07197 0.40597 0.0
C982 C 0.23984 0.94221 0.38119 0.0
C983 C 0.24411 0.02994 0.39677 0.0
N984 N 0.17504 0.95359 0.35939 0.0
N985 N 0.30007 0.00691 0.4263 0.0
H986 H 0.22221 0.09357 0.40363 0.0
H987 H 0.27206 0.08548 0.41461 0.0
H988 H 0.31675 0.98119 0.43475 0.0
H989 H 0.29824 0.03402 0.43992 0.0
H990 H 0.17408 0.92196 0.35134 0.0
H991 H 0.15102 0.97275 0.35276 0.0
H992 H 0.20744 0.88322 0.38154 0.0
H993 H 0.25848 0.87858 0.39062 0.0
C994 C 0.754 0.03863 0.10293 0.0
C995 C 0.78719 0.02346 0.11958 0.0
C996 C 0.75495 0.95282 0.1227 0.0
C997 C 0.71818 0.9724 0.11538 0.0
N998 N 0.69731 0.01498 0.07425 0.0
N999 N 0.819 0.96398 0.14552 0.0
C1000 C 0.72083 0.01057 0.09845 0.0
C1001 C 0.78814 0.97957 0.12897 0.0
N1002 N 0.75396 0.07948 0.0915 0.0
N1003 N 0.75874 0.9089 0.12149 0.0
H1004 H 0.84325 0.98288 0.15203 0.0
H1005 H 0.81851 0.93312 0.15486 0.0
H1006 H 0.73514 0.8893 0.11444 0.0
H1007 H 0.78602 0.89309 0.12437 0.0
H1008 H 0.72868 0.09312 0.08177 0.0
H1009 H 0.77855 0.10016 0.093 0.0
H1010 H 0.70022 0.04043 0.05936 0.0
H1011 H 0.67945 0.98932 0.06711 0.0
C1012 C 0.7546 0.05189 0.61637 0.0
C1013 C 0.71753 0.03334 0.60866 0.0
C1014 C 0.75178 0.96504 0.59872 0.0
C1015 C 0.78493 0.98003 0.61547 0.0
N1016 N 0.81723 0.03965 0.64095 0.0
N1017 N 0.69615 0.98849 0.56873 0.0
C1018 C 0.78663 0.02428 0.62405 0.0
C1019 C 0.71961 0.99399 0.59288 0.0
N1020 N 0.76012 0.09546 0.61382 0.0
N1021 N 0.75082 0.9235 0.58847 0.0
H1022 H 0.67824 0.01374 0.56098 0.0
H1023 H 0.69875 0.96208 0.55456 0.0
H1024 H 0.77457 0.90195 0.5912 0.0
H1025 H 0.72546 0.91016 0.57867 0.0
H1026 H 0.78783 0.11025 0.6169 0.0
H1027 H 0.73771 0.11552 0.60539 0.0
H1028 H 0.81726 0.07099 0.64956 0.0
H1029 H 0.84046 0.0202 0.64863 0.0
C1030 C 0.27816 0.99697 0.90002 0.0
C1031 C 0.28295 0.03438 0.88258 0.0
C1032 C 0.21264 0.0309 0.8689 0.0
C1033 C 0.21154 0.98729 0.87882 0.0
N1034 N 0.24231 0.92977 0.90698 0.0
N1035 N 0.24581 0.09993 0.87479 0.0
C1036 C 0.24397 0.97053 0.89547 0.0
C1037 C 0.24732 0.05581 0.87445 0.0
N1038 N 0.30083 0.99205 0.92462 0.0
N1039 N 0.1819 0.04795 0.8529 0.0
H1040 H 0.27025 0.11839 0.88171 0.0
H1041 H 0.21947 0.11734 0.87149 0.0
H1042 H 0.1562 0.03055 0.84756 0.0
H1043 H 0.18361 0.07833 0.84296 0.0
H1044 H 0.29627 0.96726 0.93981 0.0
H1045 H 0.3199 0.01677 0.9316 0.0
H1046 H 0.26694 0.91515 0.91696 0.0
H1047 H 0.21709 0.91004 0.90514 0.0
C1048 C 0.76154 0.46765 0.39805 0.0
C1049 C 0.7939 0.48531 0.38177 0.0
C1050 C 0.75815 0.5541 0.37949 0.0
C1051 C 0.72252 0.5322 0.38683 0.0
N1052 N 0.70454 0.48738 0.42761 0.0
N1053 N 0.8234 0.54754 0.35756 0.0
C1054 C 0.72732 0.49379 0.40326 0.0
C1055 C 0.79278 0.52952 0.37314 0.0
N1056 N 0.76329 0.42629 0.40853 0.0
N1057 N 0.75973 0.59813 0.38133 0.0
H1058 H 0.84901 0.53044 0.35159 0.0
H1059 H 0.82164 0.57858 0.34859 0.0
H1060 H 0.7353 0.61608 0.38885 0.0
H1061 H 0.78611 0.61568 0.37862 0.0
H1062 H 0.73871 0.41108 0.41813 0.0
H1063 H 0.78857 0.40675 0.40626 0.0
H1064 H 0.70908 0.46175 0.44216 0.0
H1065 H 0.68526 0.51158 0.43512 0.0
C1066 C 0.29903 0.47143 0.1306 0.0
C1067 C 0.29707 0.51362 0.1182 0.0
C1068 C 0.23215 0.49502 0.0968 0.0
C1069 C 0.23 0.45919 0.11606 0.0
N1070 N 0.27319 0.39883 0.1259 0.0
N1071 N 0.26295 0.56429 0.08636 0.0
C1072 C 0.26707 0.44245 0.12552 0.0
C1073 C 0.2641 0.52501 0.10009 0.0
N1074 N 0.33014 0.45938 0.14822 0.0
N1075 N 0.20817 0.49616 0.07262 0.0
H1076 H 0.28653 0.58637 0.08735 0.0
H1077 H 0.23763 0.57552 0.07538 0.0
H1078 H 0.18952 0.47011 0.06745 0.0
H1079 H 0.21073 0.51955 0.05622 0.0
H1080 H 0.33039 0.42998 0.15952 0.0
H1081 H 0.35379 0.47996 0.15347 0.0
H1082 H 0.30102 0.38498 0.13024 0.0
H1083 H 0.25137 0.37737 0.11828 0.0
C1084 C 0.27422 0.50832 0.60917 0.0
C1085 C 0.27848 0.46973 0.62549 0.0
C1086 C 0.20884 0.47526 0.6408 0.0
C1087 C 0.20874 0.51939 0.63196 0.0
N1088 N 0.24049 0.57727 0.60477 0.0
N1089 N 0.23975 0.40527 0.63317 0.0
C1090 C 0.24118 0.53585 0.61521 0.0
C1091 C 0.2425 0.44932 0.63397 0.0
N1092 N 0.29538 0.51339 0.58392 0.0
N1093 N 0.17816 0.45859 0.65702 0.0
H1094 H 0.26342 0.38618 0.62564 0.0
H1095 H 0.21308 0.38863 0.63673 0.0
H1096 H 0.15329 0.47673 0.66328 0.0
H1097 H 0.1792 0.4277 0.66625 0.0
H1098 H 0.29094 0.53922 0.56951 0.0
H1099 H 0.31242 0.48791 0.57553 0.0
H1100 H 0.26525 0.59142 0.59468 0.0
H1101 H 0.21608 0.5979 0.60762 0.0
C1102 C 0.76243 0.44967 0.88539 0.0
C1103 C 0.72398 0.46461 0.89296 0.0
C1104 C 0.75354 0.53332 0.90825 0.0
C1105 C 0.78817 0.523 0.89155 0.0
N1106 N 0.82526 0.46934 0.86358 0.0
N1107 N 0.69783 0.50229 0.93474 0.0
C1108 C 0.79302 0.4803 0.88038 0.0
C1109 C 0.72294 0.50161 0.91123 0.0
N1110 N 0.77061 0.40643 0.88586 0.0
N1111 N 0.74963 0.5731 0.92101 0.0
H1112 H 0.68099 0.47499 0.94026 0.0
H1113 H 0.69806 0.52675 0.95053 0.0
H1114 H 0.77217 0.59645 0.92035 0.0
H1115 H 0.72312 0.58334 0.93086 0.0
H1116 H 0.79933 0.39408 0.88282 0.0
H1117 H 0.74921 0.38393 0.89267 0.0
H1118 H 0.82758 0.43931 0.85318 0.0
H1119 H 0.84761 0.49124 0.8578 0.0
C1120 C 0.02381 0.24091 0.33748 0.0
C1121 C 0.03345 0.22036 0.36464 0.0
C1122 C 0.99339 0.27455 0.39142 0.0
C1123 C 0.98362 0.29469 0.36429 0.0
N1124 N 0.98703 0.29593 0.31113 0.0
N1125 N 0.03283 0.22042 0.41751 0.0
C1126 C 0.99846 0.27776 0.3373 0.0
C1127 C 0.01952 0.23784 0.39166 0.0
N1128 N 0.03958 0.22584 0.31163 0.0
N1129 N 0.9761 0.28939 0.41673 0.0
H1130 H 0.05237 0.19411 0.41834 0.0
H1131 H 0.02705 0.23354 0.43812 0.0
H1132 H 0.95693 0.31604 0.4172 0.0
H1133 H 0.97849 0.27404 0.43699 0.0
H1134 H 0.04065 0.24382 0.29231 0.0
H1135 H 0.05286 0.1956 0.30912 0.0
H1136 H 0.9901 0.28082 0.29081 0.0
H1137 H 0.97288 0.32583 0.30931 0.0
C1138 C 0.47615 0.75322 0.38929 0.0
C1139 C 0.46113 0.76799 0.36175 0.0
C1140 C 0.50107 0.71281 0.33623 0.0
C1141 C 0.51504 0.69694 0.36372 0.0
N1142 N 0.51243 0.69768 0.41653 0.0
N1143 N 0.45297 0.75478 0.30929 0.0
C1144 C 0.50135 0.71573 0.39034 0.0
C1145 C 0.47151 0.74562 0.33541 0.0
N1146 N 0.46641 0.77517 0.41438 0.0
N1147 N 0.51682 0.6975 0.31046 0.0
H1148 H 0.43382 0.78066 0.30563 0.0
H1149 H 0.45459 0.73449 0.29102 0.0
H1150 H 0.53484 0.67013 0.30888 0.0
H1151 H 0.51361 0.71346 0.29042 0.0
H1152 H 0.47985 0.76966 0.43466 0.0
H1153 H 0.44561 0.80035 0.41477 0.0
H1154 H 0.50055 0.70677 0.43673 0.0
H1155 H 0.53206 0.6715 0.41793 0.0
C1156 C 0.51039 0.77618 0.11012 0.0
C1157 C 0.53052 0.78701 0.13672 0.0
C1158 C 0.50817 0.71854 0.15841 0.0
C1159 C 0.48332 0.71101 0.1338 0.0
N1160 N 0.45816 0.73339 0.08668 0.0
N1161 N 0.5392 0.77227 0.1889 0.0
C1162 C 0.48369 0.74001 0.10967 0.0
C1163 C 0.52704 0.75916 0.1616 0.0
N1164 N 0.5179 0.79927 0.08513 0.0
N1165 N 0.51434 0.68652 0.1787 0.0
H1166 H 0.5506 0.80287 0.19344 0.0
H1167 H 0.53327 0.75465 0.20795 0.0
H1168 H 0.50168 0.65575 0.17692 0.0
H1169 H 0.53546 0.68898 0.19548 0.0
H1170 H 0.50687 0.79062 0.06454 0.0
H1171 H 0.53828 0.82481 0.08444 0.0
H1172 H 0.45388 0.75577 0.06986 0.0
H1173 H 0.43929 0.7065 0.08552 0.0
C1174 C 0.9849 0.23686 0.11251 0.0
C1175 C 0.96306 0.22865 0.13878 0.0
C1176 C 0.99035 0.29555 0.15993 0.0
C1177 C 0.01759 0.29861 0.1363 0.0
N1178 N 0.04227 0.27212 0.09006 0.0
N1179 N 0.95098 0.2483 0.19005 0.0
C1180 C 0.01519 0.26939 0.11242 0.0
C1181 C 0.96691 0.25771 0.1631 0.0
N1182 N 0.97565 0.2147 0.08742 0.0
N1183 N 0.98659 0.3291 0.17941 0.0
H1184 H 0.93426 0.22093 0.19488 0.0
H1185 H 0.95785 0.26595 0.20892 0.0
H1186 H 0.0031 0.35766 0.17775 0.0
H1187 H 0.96412 0.33052 0.19523 0.0
H1188 H 0.98832 0.22154 0.06705 0.0
H1189 H 0.95205 0.1927 0.08637 0.0
H1190 H 0.04485 0.24883 0.0736 0.0
H1191 H 0.06388 0.29647 0.08909 0.0
C1192 C 0.98188 0.76529 0.61365 0.0
C1193 C 0.97596 0.79078 0.63925 0.0
C1194 C 0.01232 0.73774 0.66859 0.0
C1195 C 0.02223 0.71415 0.64276 0.0
N1196 N 0.02161 0.70939 0.58985 0.0
N1197 N 0.99771 0.80827 0.68843 0.0
C1198 C 0.0084 0.72894 0.61494 0.0
C1199 C 0.99492 0.77914 0.66589 0.0
N1200 N 0.96158 0.77511 0.58849 0.0
N1201 N 0.0174 0.71998 0.69588 0.0
H1202 H 0.98776 0.84018 0.68657 0.0
H1203 H 0.01429 0.80231 0.70743 0.0
H1204 H 0.02745 0.68844 0.69933 0.0
H1205 H 0.0069 0.73479 0.71497 0.0
H1206 H 0.96147 0.75522 0.56999 0.0
H1207 H 0.94255 0.8018 0.58689 0.0
H1208 H 0.01546 0.7211 0.56887 0.0
H1209 H 0.04173 0.68359 0.59009 0.0
C1210 C 0.48134 0.27072 0.61098 0.0
C1211 C 0.46797 0.28427 0.63925 0.0
C1212 C 0.49363 0.21693 0.6603 0.0
C1213 C 0.51274 0.20681 0.63346 0.0
N1214 N 0.52743 0.22531 0.58326 0.0
N1215 N 0.4726 0.27455 0.69215 0.0
C1216 C 0.50724 0.23394 0.60865 0.0
C1217 C 0.47708 0.25852 0.6643 0.0
N1218 N 0.46837 0.29192 0.58643 0.0
N1219 N 0.49071 0.18644 0.68197 0.0
H1220 H 0.46391 0.30627 0.69667 0.0
H1221 H 0.48253 0.258 0.71075 0.0
H1222 H 0.50087 0.15471 0.67925 0.0
H1223 H 0.47408 0.19127 0.70106 0.0
H1224 H 0.47428 0.28124 0.56516 0.0
H1225 H 0.44857 0.31798 0.58732 0.0
H1226 H 0.52801 0.2464 0.5654 0.0
H1227 H 0.54572 0.19814 0.58085 0.0
C1228 C 0.50088 0.21675 0.89 0.0
C1229 C 0.4851 0.20324 0.86241 0.0
C1230 C 0.51172 0.26871 0.83954 0.0
C1231 C 0.53234 0.27915 0.86573 0.0
N1232 N 0.54952 0.26172 0.91569 0.0
N1233 N 0.48671 0.21106 0.8093 0.0
C1234 C 0.52779 0.25279 0.89103 0.0
C1235 C 0.49375 0.22766 0.8367 0.0
N1236 N 0.48905 0.19645 0.91519 0.0
N1237 N 0.50787 0.2987 0.81763 0.0
H1238 H 0.476 0.17984 0.80562 0.0
H1239 H 0.49619 0.22645 0.79013 0.0
H1240 H 0.51843 0.33036 0.81965 0.0
H1241 H 0.49002 0.29371 0.79914 0.0
H1242 H 0.49664 0.20734 0.93612 0.0
H1243 H 0.46877 0.17082 0.91525 0.0
H1244 H 0.55064 0.24125 0.93386 0.0
H1245 H 0.5686 0.28841 0.91711 0.0
C1246 C 0.98961 0.73578 0.84632 0.0
C1247 C 0.97008 0.72509 0.87289 0.0
C1248 C 0.004 0.78598 0.89715 0.0
C1249 C 0.01863 0.7999 0.86935 0.0
N1250 N 0.01435 0.79362 0.81621 0.0
N1251 N 0.95594 0.74128 0.92355 0.0
C1252 C 0.00826 0.77645 0.84355 0.0
C1253 C 0.97648 0.75055 0.89842 0.0
N1254 N 0.99195 0.70627 0.82399 0.0
N1255 N 0.01752 0.80533 0.92224 0.0
H1256 H 0.93639 0.71504 0.9251 0.0
H1257 H 0.95625 0.76115 0.94205 0.0
H1258 H 0.03848 0.83032 0.922 0.0
H1259 H 0.01072 0.79419 0.94324 0.0
H1260 H 0.00897 0.71141 0.80512 0.0
H1261 H 0.98115 0.67471 0.82595 0.0
H1262 H 0.00356 0.77902 0.79711 0.0
H1263 H 0.02566 0.82461 0.81264 0.0
loop_
_geom_bond_atom_site_label_1
_geom_bond_atom_site_label_2
_geom_bond_distance
_geom_bond_site_symmetry_2
_ccdc_geom_bond_type
Co0 O3 1.970 . S
Co0 N17 1.989 . S
Co0 O25 1.967 . S
Co0 O32 1.920 . S
Co1 O4 1.966 . S
Co1 N10 2.022 . S
Co1 N18 1.993 . S
Co1 O26 1.941 . S
C2 O3 1.258 . S
C2 O4 1.263 . S
O3 Co0 1.970 . S
O3 C2 1.258 . S
O4 Co1 1.966 . S
O4 C2 1.263 . S
C5 O6 1.235 . S
C5 O32 1.289 . S
O6 C5 1.235 . S
C7 C9 1.400 . S
C7 N10 1.351 . S
C7 C12 1.501 . S
C8 C9 1.387 1_565 S
C8 N11 1.341 1_565 S
C9 C7 1.400 . S
C9 C8 1.387 1_545 S
N10 Co1 2.022 . S
N10 C7 1.351 . S
N10 N11 1.365 . S
N11 C8 1.341 1_545 S
N11 N10 1.365 . S
N11 H31 0.862 1_545 S
C12 C7 1.501 . S
C12 H13 0.961 . S
C12 H14 0.961 . S
C12 H15 0.960 . S
H13 C12 0.961 . S
H14 C12 0.961 . S
H15 C12 0.960 . S
C16 N17 1.342 . S
C16 C20 1.401 . S
C16 C21 1.499 . S
N17 Co0 1.989 . S
N17 C16 1.342 . S
N17 N18 1.388 . S
N18 Co1 1.993 . S
N18 N17 1.388 . S
N18 C19 1.346 . S
C19 N18 1.346 . S
C19 C20 1.396 . S
C19 C29 1.510 . S
C20 C16 1.401 . S
C20 C19 1.396 . S
C21 C16 1.499 . S
C21 H22 0.959 . S
C21 H23 0.960 . S
C21 H24 0.961 . S
H22 C21 0.959 . S
H23 C21 0.960 . S
H24 C21 0.961 . S
O25 Co0 1.967 . S
O25 C33 1.258 . S
O26 Co1 1.941 . S
O26 C33 1.266 . S
H27 C29 0.959 1_565 S
H28 C29 0.961 . S
C29 C19 1.510 . S
C29 H27 0.959 1_545 S
C29 H28 0.961 . S
C29 H30 0.960 . S
H30 C29 0.960 . S
H31 N11 0.862 1_565 S
O32 Co0 1.920 . S
O32 C5 1.289 . S
C33 O25 1.258 . S
C33 O26 1.266 . S
Co34 O37 1.970 . S
Co34 N51 1.989 . S
Co34 O59 1.967 . S
Co34 O66 1.920 . S
Co35 O38 1.966 . S
Co35 N44 2.022 . S
Co35 N52 1.993 . S
Co35 O60 1.941 . S
C36 O37 1.258 . S
C36 O38 1.263 . S
O37 Co34 1.970 . S
O37 C36 1.258 . S
O38 Co35 1.966 . S
O38 C36 1.263 . S
C39 O40 1.235 . S
C39 O66 1.289 . S
O40 C39 1.235 . S
C41 C43 1.400 . S
C41 N44 1.351 . S
C41 C46 1.501 . S
C42 C43 1.387 1_545 S
C42 N45 1.341 1_545 S
C43 C41 1.400 . S
C43 C42 1.387 1_565 S
N44 Co35 2.022 . S
N44 C41 1.351 . S
N44 N45 1.365 . S
N45 C42 1.341 1_565 S
N45 N44 1.365 . S
N45 H65 0.862 1_565 S
C46 C41 1.501 . S
C46 H47 0.961 . S
C46 H48 0.961 . S
C46 H49 0.960 . S
H47 C46 0.961 . S
H48 C46 0.961 . S
H49 C46 0.960 . S
C50 N51 1.342 . S
C50 C54 1.401 . S
C50 C55 1.499 . S
N51 Co34 1.989 . S
N51 C50 1.342 . S
N51 N52 1.388 . S
N52 Co35 1.993 . S
N52 N51 1.388 . S
N52 C53 1.346 . S
C53 N52 1.346 . S
C53 C54 1.396 . S
C53 C63 1.510 . S
C54 C50 1.401 . S
C54 C53 1.396 . S
C55 C50 1.499 . S
C55 H56 0.959 . S
C55 H57 0.960 . S
C55 H58 0.961 . S
H56 C55 0.959 . S
H57 C55 0.960 . S
H58 C55 0.961 . S
O59 Co34 1.967 . S
O59 C67 1.258 . S
O60 Co35 1.941 . S
O60 C67 1.266 . S
H61 C63 0.959 1_545 S
H62 C63 0.961 . S
C63 C53 1.510 . S
C63 H61 0.959 1_565 S
C63 H62 0.961 . S
C63 H64 0.960 . S
H64 C63 0.960 . S
H65 N45 0.862 1_545 S
O66 Co34 1.920 . S
O66 C39 1.289 . S
C67 O59 1.258 . S
C67 O60 1.266 . S
Co68 O71 1.970 . S
Co68 N85 1.989 . S
Co68 O93 1.967 . S
Co68 O100 1.920 . S
Co69 O72 1.966 . S
Co69 N78 2.022 . S
Co69 N86 1.993 . S
Co69 O94 1.941 . S
C70 O71 1.258 . S
C70 O72 1.263 . S
O71 Co68 1.970 . S
O71 C70 1.258 . S
O72 Co69 1.966 . S
O72 C70 1.263 . S
C73 O74 1.235 . S
C73 O100 1.289 . S
O74 C73 1.235 . S
C75 C77 1.400 . S
C75 N78 1.351 . S
C75 C80 1.501 . S
C76 C77 1.387 1_545 S
C76 N79 1.341 1_545 S
C77 C75 1.400 . S
C77 C76 1.387 1_565 S
N78 Co69 2.022 . S
N78 C75 1.351 . S
N78 N79 1.365 . S
N79 C76 1.341 1_565 S
N79 N78 1.365 . S
N79 H99 0.862 1_565 S
C80 C75 1.501 . S
C80 H81 0.961 . S
C80 H82 0.961 . S
C80 H83 0.960 . S
H81 C80 0.961 . S
H82 C80 0.961 . S
H83 C80 0.960 . S
C84 N85 1.342 . S
C84 C88 1.401 . S
C84 C89 1.499 . S
N85 Co68 1.989 . S
N85 C84 1.342 . S
N85 N86 1.388 . S
N86 Co69 1.993 . S
N86 N85 1.388 . S
N86 C87 1.346 . S
C87 N86 1.346 . S
C87 C88 1.396 . S
C87 C97 1.510 . S
C88 C84 1.401 . S
C88 C87 1.396 . S
C89 C84 1.499 . S
C89 H90 0.959 . S
C89 H91 0.960 . S
C89 H92 0.961 . S
H90 C89 0.959 . S
H91 C89 0.960 . S
H92 C89 0.961 . S
O93 Co68 1.967 . S
O93 C101 1.258 . S
O94 Co69 1.941 . S
O94 C101 1.266 . S
H95 C97 0.959 1_545 S
H96 C97 0.961 . S
C97 C87 1.510 . S
C97 H95 0.959 1_565 S
C97 H96 0.961 . S
C97 H98 0.960 . S
H98 C97 0.960 . S
H99 N79 0.862 1_545 S
O100 Co68 1.920 . S
O100 C73 1.289 . S
C101 O93 1.258 . S
C101 O94 1.266 . S
Co102 O105 1.970 . S
Co102 N119 1.989 . S
Co102 O127 1.967 . S
Co102 O134 1.920 . S
Co103 O106 1.966 . S
Co103 N112 2.022 . S
Co103 N120 1.993 . S
Co103 O128 1.941 . S
C104 O105 1.258 . S
C104 O106 1.263 . S
O105 Co102 1.970 . S
O105 C104 1.258 . S
O106 Co103 1.966 . S
O106 C104 1.263 . S
C107 O108 1.235 . S
C107 O134 1.289 . S
O108 C107 1.235 . S
C109 C111 1.400 . S
C109 N112 1.351 . S
C109 C114 1.501 . S
C110 C111 1.387 1_565 S
C110 N113 1.341 1_565 S
C111 C109 1.400 . S
C111 C110 1.387 1_545 S
N112 Co103 2.022 . S
N112 C109 1.351 . S
N112 N113 1.365 . S
N113 C110 1.341 1_545 S
N113 N112 1.365 . S
N113 H133 0.862 1_545 S
C114 C109 1.501 . S
C114 H115 0.961 . S
C114 H116 0.961 . S
C114 H117 0.960 . S
H115 C114 0.961 . S
H116 C114 0.961 . S
H117 C114 0.960 . S
C118 N119 1.342 . S
C118 C122 1.401 . S
C118 C123 1.499 . S
N119 Co102 1.989 . S
N119 C118 1.342 . S
N119 N120 1.388 . S
N120 Co103 1.993 . S
N120 N119 1.388 . S
N120 C121 1.346 . S
C121 N120 1.346 . S
C121 C122 1.396 . S
C121 C131 1.510 . S
C122 C118 1.401 . S
C122 C121 1.396 . S
C123 C118 1.499 . S
C123 H124 0.959 . S
C123 H125 0.960 . S
C123 H126 0.961 . S
H124 C123 0.959 . S
H125 C123 0.960 . S
H126 C123 0.961 . S
O127 Co102 1.967 . S
O127 C135 1.258 . S
O128 Co103 1.941 . S
O128 C135 1.266 . S
H129 C131 0.959 1_565 S
H130 C131 0.961 . S
C131 C121 1.510 . S
C131 H129 0.959 1_545 S
C131 H130 0.961 . S
C131 H132 0.960 . S
H132 C131 0.960 . S
H133 N113 0.862 1_565 S
O134 Co102 1.920 . S
O134 C107 1.289 . S
C135 O127 1.258 . S
C135 O128 1.266 . S
Co136 O139 1.970 . S
Co136 N153 1.989 . S
Co136 O161 1.967 . S
Co136 O168 1.920 . S
Co137 O140 1.966 . S
Co137 N146 2.022 . S
Co137 N154 1.993 . S
Co137 O162 1.941 . S
C138 O139 1.258 . S
C138 O140 1.263 . S
O139 Co136 1.970 . S
O139 C138 1.258 . S
O140 Co137 1.966 . S
O140 C138 1.263 . S
C141 O142 1.235 . S
C141 O168 1.289 . S
O142 C141 1.235 . S
C143 C145 1.400 . S
C143 N146 1.351 . S
C143 C148 1.501 . S
C144 C145 1.387 1_545 S
C144 N147 1.341 1_545 S
C145 C143 1.400 . S
C145 C144 1.387 1_565 S
N146 Co137 2.022 . S
N146 C143 1.351 . S
N146 N147 1.365 . S
N147 C144 1.341 1_565 S
N147 N146 1.365 . S
N147 H167 0.862 1_565 S
C148 C143 1.501 . S
C148 H149 0.961 . S
C148 H150 0.961 . S
C148 H151 0.960 . S
H149 C148 0.961 . S
H150 C148 0.961 . S
H151 C148 0.960 . S
C152 N153 1.342 . S
C152 C156 1.401 . S
C152 C157 1.499 . S
N153 Co136 1.989 . S
N153 C152 1.342 . S
N153 N154 1.388 . S
N154 Co137 1.993 . S
N154 N153 1.388 . S
N154 C155 1.346 . S
C155 N154 1.346 . S
C155 C156 1.396 . S
C155 C165 1.510 . S
C156 C152 1.401 . S
C156 C155 1.396 . S
C157 C152 1.499 . S
C157 H158 0.959 . S
C157 H159 0.960 . S
C157 H160 0.961 . S
H158 C157 0.959 . S
H159 C157 0.960 . S
H160 C157 0.961 . S
O161 Co136 1.967 . S
O161 C169 1.258 . S
O162 Co137 1.941 . S
O162 C169 1.266 . S
H163 C165 0.959 1_545 S
H164 C165 0.961 . S
C165 C155 1.510 . S
C165 H163 0.959 1_565 S
C165 H164 0.961 . S
C165 H166 0.960 . S
H166 C165 0.960 . S
H167 N147 0.862 1_545 S
O168 Co136 1.920 . S
O168 C141 1.289 . S
C169 O161 1.258 . S
C169 O162 1.266 . S
Co170 O173 1.970 . S
Co170 N187 1.989 . S
Co170 O195 1.967 . S
Co170 O202 1.920 . S
Co171 O174 1.966 . S
Co171 N180 2.022 . S
Co171 N188 1.993 . S
Co171 O196 1.941 . S
C172 O173 1.258 . S
C172 O174 1.263 . S
O173 Co170 1.970 . S
O173 C172 1.258 . S
O174 Co171 1.966 . S
O174 C172 1.263 . S
C175 O176 1.235 . S
C175 O202 1.289 . S
O176 C175 1.235 . S
C177 C179 1.400 . S
C177 N180 1.351 . S
C177 C182 1.501 . S
C178 C179 1.387 1_565 S
C178 N181 1.341 1_565 S
C179 C177 1.400 . S
C179 C178 1.387 1_545 S
N180 Co171 2.022 . S
N180 C177 1.351 . S
N180 N181 1.365 . S
N181 C178 1.341 1_545 S
N181 N180 1.365 . S
N181 H201 0.862 1_545 S
C182 C177 1.501 . S
C182 H183 0.961 . S
C182 H184 0.961 . S
C182 H185 0.960 . S
H183 C182 0.961 . S
H184 C182 0.961 . S
H185 C182 0.960 . S
C186 N187 1.342 . S
C186 C190 1.401 . S
C186 C191 1.499 . S
N187 Co170 1.989 . S
N187 C186 1.342 . S
N187 N188 1.388 . S
N188 Co171 1.993 . S
N188 N187 1.388 . S
N188 C189 1.346 . S
C189 N188 1.346 . S
C189 C190 1.396 . S
C189 C199 1.510 . S
C190 C186 1.401 . S
C190 C189 1.396 . S
C191 C186 1.499 . S
C191 H192 0.959 . S
C191 H193 0.960 . S
C191 H194 0.961 . S
H192 C191 0.959 . S
H193 C191 0.960 . S
H194 C191 0.961 . S
O195 Co170 1.967 . S
O195 C203 1.258 . S
O196 Co171 1.941 . S
O196 C203 1.266 . S
H197 C199 0.959 1_565 S
H198 C199 0.961 . S
C199 C189 1.510 . S
C199 H197 0.959 1_545 S
C199 H198 0.961 . S
C199 H200 0.960 . S
H200 C199 0.960 . S
H201 N181 0.862 1_565 S
O202 Co170 1.920 . S
O202 C175 1.289 . S
C203 O195 1.258 . S
C203 O196 1.266 . S
Co204 O207 1.970 . S
Co204 N221 1.989 . S
Co204 O229 1.967 . S
Co204 O236 1.920 . S
Co205 O208 1.966 . S
Co205 N214 2.022 . S
Co205 N222 1.993 . S
Co205 O230 1.941 . S
C206 O207 1.258 . S
C206 O208 1.263 . S
O207 Co204 1.970 . S
O207 C206 1.258 . S
O208 Co205 1.966 . S
O208 C206 1.263 . S
C209 O210 1.235 . S
C209 O236 1.289 . S
O210 C209 1.235 . S
C211 C213 1.400 . S
C211 N214 1.351 . S
C211 C216 1.501 . S
C212 C213 1.387 1_565 S
C212 N215 1.341 1_565 S
C213 C211 1.400 . S
C213 C212 1.387 1_545 S
N214 Co205 2.022 . S
N214 C211 1.351 . S
N214 N215 1.365 . S
N215 C212 1.341 1_545 S
N215 N214 1.365 . S
N215 H235 0.862 1_545 S
C216 C211 1.501 . S
C216 H217 0.961 . S
C216 H218 0.961 . S
C216 H219 0.960 . S
H217 C216 0.961 . S
H218 C216 0.961 . S
H219 C216 0.960 . S
C220 N221 1.342 . S
C220 C224 1.401 . S
C220 C225 1.499 . S
N221 Co204 1.989 . S
N221 C220 1.342 . S
N221 N222 1.388 . S
N222 Co205 1.993 . S
N222 N221 1.388 . S
N222 C223 1.346 . S
C223 N222 1.346 . S
C223 C224 1.396 . S
C223 C233 1.510 . S
C224 C220 1.401 . S
C224 C223 1.396 . S
C225 C220 1.499 . S
C225 H226 0.959 . S
C225 H227 0.960 . S
C225 H228 0.961 . S
H226 C225 0.959 . S
H227 C225 0.960 . S
H228 C225 0.961 . S
O229 Co204 1.967 . S
O229 C237 1.258 . S
O230 Co205 1.941 . S
O230 C237 1.266 . S
H231 C233 0.959 1_565 S
H232 C233 0.961 . S
C233 C223 1.510 . S
C233 H231 0.959 1_545 S
C233 H232 0.961 . S
C233 H234 0.960 . S
H234 C233 0.960 . S
H235 N215 0.862 1_565 S
O236 Co204 1.920 . S
O236 C209 1.289 . S
C237 O229 1.258 . S
C237 O230 1.266 . S
Co238 O241 1.970 . S
Co238 N255 1.989 . S
Co238 O263 1.967 . S
Co238 O270 1.920 . S
Co239 O242 1.966 . S
Co239 N248 2.022 . S
Co239 N256 1.993 . S
Co239 O264 1.941 . S
C240 O241 1.258 . S
C240 O242 1.263 . S
O241 Co238 1.970 . S
O241 C240 1.258 . S
O242 Co239 1.966 . S
O242 C240 1.263 . S
C243 O244 1.235 . S
C243 O270 1.289 . S
O244 C243 1.235 . S
C245 C247 1.400 . S
C245 N248 1.351 . S
C245 C250 1.501 . S
C246 C247 1.387 1_545 S
C246 N249 1.341 1_545 S
C247 C245 1.400 . S
C247 C246 1.387 1_565 S
N248 Co239 2.022 . S
N248 C245 1.351 . S
N248 N249 1.365 . S
N249 C246 1.341 1_565 S
N249 N248 1.365 . S
N249 H269 0.862 1_565 S
C250 C245 1.501 . S
C250 H251 0.961 . S
C250 H252 0.961 . S
C250 H253 0.960 . S
H251 C250 0.961 . S
H252 C250 0.961 . S
H253 C250 0.960 . S
C254 N255 1.342 . S
C254 C258 1.401 . S
C254 C259 1.499 . S
N255 Co238 1.989 . S
N255 C254 1.342 . S
N255 N256 1.388 . S
N256 Co239 1.993 . S
N256 N255 1.388 . S
N256 C257 1.346 . S
C257 N256 1.346 . S
C257 C258 1.396 . S
C257 C267 1.510 . S
C258 C254 1.401 . S
C258 C257 1.396 . S
C259 C254 1.499 . S
C259 H260 0.959 . S
C259 H261 0.960 . S
C259 H262 0.961 . S
H260 C259 0.959 . S
H261 C259 0.960 . S
H262 C259 0.961 . S
O263 Co238 1.967 . S
O263 C271 1.258 . S
O264 Co239 1.941 . S
O264 C271 1.266 . S
H265 C267 0.959 1_545 S
H266 C267 0.961 . S
C267 C257 1.510 . S
C267 H265 0.959 1_565 S
C267 H266 0.961 . S
C267 H268 0.960 . S
H268 C267 0.960 . S
H269 N249 0.862 1_545 S
O270 Co238 1.920 . S
O270 C243 1.289 . S
C271 O263 1.258 . S
C271 O264 1.266 . S
Co272 O275 1.970 . S
Co272 N289 1.989 . S
Co272 O297 1.967 . S
Co272 O304 1.920 . S
Co273 O276 1.966 . S
Co273 N282 2.022 . S
Co273 N290 1.993 . S
Co273 O298 1.941 . S
C274 O275 1.258 . S
C274 O276 1.263 . S
O275 Co272 1.970 . S
O275 C274 1.258 . S
O276 Co273 1.966 . S
O276 C274 1.263 . S
C277 O278 1.235 . S
C277 O304 1.289 . S
O278 C277 1.235 . S
C279 C281 1.400 . S
C279 N282 1.351 . S
C279 C284 1.501 . S
C280 C281 1.387 . S
C280 N283 1.341 . S
C281 C279 1.400 . S
C281 C280 1.387 . S
N282 Co273 2.022 . S
N282 C279 1.351 . S
N282 N283 1.365 . S
N283 C280 1.341 . S
N283 N282 1.365 . S
N283 H303 0.862 . S
C284 C279 1.501 . S
C284 H285 0.961 . S
C284 H286 0.961 . S
C284 H287 0.960 . S
H285 C284 0.961 . S
H286 C284 0.961 . S
H287 C284 0.960 . S
C288 N289 1.342 . S
C288 C292 1.401 . S
C288 C293 1.499 . S
N289 Co272 1.989 . S
N289 C288 1.342 . S
N289 N290 1.388 . S
N290 Co273 1.993 . S
N290 N289 1.388 . S
N290 C291 1.346 . S
C291 N290 1.346 . S
C291 C292 1.396 . S
C291 C301 1.510 . S
C292 C288 1.401 . S
C292 C291 1.396 . S
C293 C288 1.499 . S
C293 H294 0.959 . S
C293 H295 0.960 . S
C293 H296 0.961 . S
H294 C293 0.959 . S
H295 C293 0.960 . S
H296 C293 0.961 . S
O297 Co272 1.967 . S
O297 C305 1.258 . S
O298 Co273 1.941 . S
O298 C305 1.266 . S
H299 C301 0.959 . S
H300 C301 0.961 . S
C301 C291 1.510 . S
C301 H299 0.959 . S
C301 H300 0.961 . S
C301 H302 0.960 . S
H302 C301 0.960 . S
H303 N283 0.862 . S
O304 Co272 1.920 . S
O304 C277 1.289 . S
C305 O297 1.258 . S
C305 O298 1.266 . S
Co306 O309 1.970 . S
Co306 N323 1.989 . S
Co306 O331 1.967 . S
Co306 O338 1.920 . S
Co307 O310 1.966 . S
Co307 N316 2.022 . S
Co307 N324 1.993 . S
Co307 O332 1.941 . S
C308 O309 1.258 . S
C308 O310 1.263 . S
O309 Co306 1.970 . S
O309 C308 1.258 . S
O310 Co307 1.966 . S
O310 C308 1.263 . S
C311 O312 1.235 . S
C311 O338 1.289 . S
O312 C311 1.235 . S
C313 C315 1.400 . S
C313 N316 1.351 . S
C313 C318 1.501 . S
C314 C315 1.387 . S
C314 N317 1.341 . S
C315 C313 1.400 . S
C315 C314 1.387 . S
N316 Co307 2.022 . S
N316 C313 1.351 . S
N316 N317 1.365 . S
N317 C314 1.341 . S
N317 N316 1.365 . S
N317 H337 0.862 . S
C318 C313 1.501 . S
C318 H319 0.961 . S
C318 H320 0.961 . S
C318 H321 0.960 . S
H319 C318 0.961 . S
H320 C318 0.961 . S
H321 C318 0.960 . S
C322 N323 1.342 . S
C322 C326 1.401 . S
C322 C327 1.499 . S
N323 Co306 1.989 . S
N323 C322 1.342 . S
N323 N324 1.388 . S
N324 Co307 1.993 . S
N324 N323 1.388 . S
N324 C325 1.346 . S
C325 N324 1.346 . S
C325 C326 1.396 . S
C325 C335 1.510 . S
C326 C322 1.401 . S
C326 C325 1.396 . S
C327 C322 1.499 . S
C327 H328 0.959 . S
C327 H329 0.960 . S
C327 H330 0.961 . S
H328 C327 0.959 . S
H329 C327 0.960 . S
H330 C327 0.961 . S
O331 Co306 1.967 . S
O331 C339 1.258 . S
O332 Co307 1.941 . S
O332 C339 1.266 . S
H333 C335 0.959 . S
H334 C335 0.961 . S
C335 C325 1.510 . S
C335 H333 0.959 . S
C335 H334 0.961 . S
C335 H336 0.960 . S
H336 C335 0.960 . S
H337 N317 0.862 . S
O338 Co306 1.920 . S
O338 C311 1.289 . S
C339 O331 1.258 . S
C339 O332 1.266 . S
Co340 O343 1.970 . S
Co340 N357 1.989 . S
Co340 O365 1.967 . S
Co340 O372 1.920 . S
Co341 O344 1.966 . S
Co341 N350 2.022 . S
Co341 N358 1.993 . S
Co341 O366 1.941 . S
C342 O343 1.258 . S
C342 O344 1.263 . S
O343 Co340 1.970 . S
O343 C342 1.258 . S
O344 Co341 1.966 . S
O344 C342 1.263 . S
C345 O346 1.235 . S
C345 O372 1.289 . S
O346 C345 1.235 . S
C347 C349 1.400 . S
C347 N350 1.351 . S
C347 C352 1.501 . S
C348 C349 1.387 . S
C348 N351 1.341 . S
C349 C347 1.400 . S
C349 C348 1.387 . S
N350 Co341 2.022 . S
N350 C347 1.351 . S
N350 N351 1.365 . S
N351 C348 1.341 . S
N351 N350 1.365 . S
N351 H371 0.862 . S
C352 C347 1.501 . S
C352 H353 0.961 . S
C352 H354 0.961 . S
C352 H355 0.960 . S
H353 C352 0.961 . S
H354 C352 0.961 . S
H355 C352 0.960 . S
C356 N357 1.342 . S
C356 C360 1.401 . S
C356 C361 1.499 . S
N357 Co340 1.989 . S
N357 C356 1.342 . S
N357 N358 1.388 . S
N358 Co341 1.993 . S
N358 N357 1.388 . S
N358 C359 1.346 . S
C359 N358 1.346 . S
C359 C360 1.396 . S
C359 C369 1.510 . S
C360 C356 1.401 . S
C360 C359 1.396 . S
C361 C356 1.499 . S
C361 H362 0.959 . S
C361 H363 0.960 . S
C361 H364 0.961 . S
H362 C361 0.959 . S
H363 C361 0.960 . S
H364 C361 0.961 . S
O365 Co340 1.967 . S
O365 C373 1.258 . S
O366 Co341 1.941 . S
O366 C373 1.266 . S
H367 C369 0.959 . S
H368 C369 0.961 . S
C369 C359 1.510 . S
C369 H367 0.959 . S
C369 H368 0.961 . S
C369 H370 0.960 . S
H370 C369 0.960 . S
H371 N351 0.862 . S
O372 Co340 1.920 . S
O372 C345 1.289 . S
C373 O365 1.258 . S
C373 O366 1.266 . S
Co374 O377 1.970 . S
Co374 N391 1.989 . S
Co374 O399 1.967 . S
Co374 O406 1.920 . S
Co375 O378 1.966 . S
Co375 N384 2.022 . S
Co375 N392 1.993 . S
Co375 O400 1.941 . S
C376 O377 1.258 . S
C376 O378 1.263 . S
O377 Co374 1.970 . S
O377 C376 1.258 . S
O378 Co375 1.966 . S
O378 C376 1.263 . S
C379 O380 1.235 . S
C379 O406 1.289 . S
O380 C379 1.235 . S
C381 C383 1.400 . S
C381 N384 1.351 . S
C381 C386 1.501 . S
C382 C383 1.387 . S
C382 N385 1.341 . S
C383 C381 1.400 . S
C383 C382 1.387 . S
N384 Co375 2.022 . S
N384 C381 1.351 . S
N384 N385 1.365 . S
N385 C382 1.341 . S
N385 N384 1.365 . S
N385 H405 0.862 . S
C386 C381 1.501 . S
C386 H387 0.961 . S
C386 H388 0.961 . S
C386 H389 0.960 . S
H387 C386 0.961 . S
H388 C386 0.961 . S
H389 C386 0.960 . S
C390 N391 1.342 . S
C390 C394 1.401 . S
C390 C395 1.499 . S
N391 Co374 1.989 . S
N391 C390 1.342 . S
N391 N392 1.388 . S
N392 Co375 1.993 . S
N392 N391 1.388 . S
N392 C393 1.346 . S
C393 N392 1.346 . S
C393 C394 1.396 . S
C393 C403 1.510 . S
C394 C390 1.401 . S
C394 C393 1.396 . S
C395 C390 1.499 . S
C395 H396 0.959 . S
C395 H397 0.960 . S
C395 H398 0.961 . S
H396 C395 0.959 . S
H397 C395 0.960 . S
H398 C395 0.961 . S
O399 Co374 1.967 . S
O399 C407 1.258 . S
O400 Co375 1.941 . S
O400 C407 1.266 . S
H401 C403 0.959 . S
H402 C403 0.961 . S
C403 C393 1.510 . S
C403 H401 0.959 . S
C403 H402 0.961 . S
C403 H404 0.960 . S
H404 C403 0.960 . S
H405 N385 0.862 . S
O406 Co374 1.920 . S
O406 C379 1.289 . S
C407 O399 1.258 . S
C407 O400 1.266 . S
Co408 O411 1.970 . S
Co408 N425 1.989 . S
Co408 O433 1.967 . S
Co408 O440 1.920 . S
Co409 O412 1.966 . S
Co409 N418 2.022 . S
Co409 N426 1.993 . S
Co409 O434 1.941 . S
C410 O411 1.258 . S
C410 O412 1.263 . S
O411 Co408 1.970 . S
O411 C410 1.258 . S
O412 Co409 1.966 . S
O412 C410 1.263 . S
C413 O414 1.235 . S
C413 O440 1.289 . S
O414 C413 1.235 . S
C415 C417 1.400 . S
C415 N418 1.351 . S
C415 C420 1.501 . S
C416 C417 1.387 . S
C416 N419 1.341 . S
C417 C415 1.400 . S
C417 C416 1.387 . S
N418 Co409 2.022 . S
N418 C415 1.351 . S
N418 N419 1.365 . S
N419 C416 1.341 . S
N419 N418 1.365 . S
N419 H439 0.862 . S
C420 C415 1.501 . S
C420 H421 0.961 . S
C420 H422 0.961 . S
C420 H423 0.960 . S
H421 C420 0.961 . S
H422 C420 0.961 . S
H423 C420 0.960 . S
C424 N425 1.342 . S
C424 C428 1.401 . S
C424 C429 1.499 . S
N425 Co408 1.989 . S
N425 C424 1.342 . S
N425 N426 1.388 . S
N426 Co409 1.993 . S
N426 N425 1.388 . S
N426 C427 1.346 . S
C427 N426 1.346 . S
C427 C428 1.396 . S
C427 C437 1.510 . S
C428 C424 1.401 . S
C428 C427 1.396 . S
C429 C424 1.499 . S
C429 H430 0.959 . S
C429 H431 0.960 . S
C429 H432 0.961 . S
H430 C429 0.959 . S
H431 C429 0.960 . S
H432 C429 0.961 . S
O433 Co408 1.967 . S
O433 C441 1.258 . S
O434 Co409 1.941 . S
O434 C441 1.266 . S
H435 C437 0.959 . S
H436 C437 0.961 . S
C437 C427 1.510 . S
C437 H435 0.959 . S
C437 H436 0.961 . S
C437 H438 0.960 . S
H438 C437 0.960 . S
H439 N419 0.862 . S
O440 Co408 1.920 . S
O440 C413 1.289 . S
C441 O433 1.258 . S
C441 O434 1.266 . S
Co442 O445 1.970 . S
Co442 N459 1.989 . S
Co442 O467 1.967 . S
Co442 O474 1.920 . S
Co443 O446 1.966 . S
Co443 N452 2.022 . S
Co443 N460 1.993 . S
Co443 O468 1.941 . S
C444 O445 1.258 . S
C444 O446 1.263 . S
O445 Co442 1.970 . S
O445 C444 1.258 . S
O446 Co443 1.966 . S
O446 C444 1.263 . S
C447 O448 1.235 . S
C447 O474 1.289 . S
O448 C447 1.235 . S
C449 C451 1.400 . S
C449 N452 1.351 . S
C449 C454 1.501 . S
C450 C451 1.387 . S
C450 N453 1.341 . S
C451 C449 1.400 . S
C451 C450 1.387 . S
N452 Co443 2.022 . S
N452 C449 1.351 . S
N452 N453 1.365 . S
N453 C450 1.341 . S
N453 N452 1.365 . S
N453 H473 0.862 . S
C454 C449 1.501 . S
C454 H455 0.961 . S
C454 H456 0.961 . S
C454 H457 0.960 . S
H455 C454 0.961 . S
H456 C454 0.961 . S
H457 C454 0.960 . S
C458 N459 1.342 . S
C458 C462 1.401 . S
C458 C463 1.499 . S
N459 Co442 1.989 . S
N459 C458 1.342 . S
N459 N460 1.388 . S
N460 Co443 1.993 . S
N460 N459 1.388 . S
N460 C461 1.346 . S
C461 N460 1.346 . S
C461 C462 1.396 . S
C461 C471 1.510 . S
C462 C458 1.401 . S
C462 C461 1.396 . S
C463 C458 1.499 . S
C463 H464 0.959 . S
C463 H465 0.960 . S
C463 H466 0.961 . S
H464 C463 0.959 . S
H465 C463 0.960 . S
H466 C463 0.961 . S
O467 Co442 1.967 . S
O467 C475 1.258 . S
O468 Co443 1.941 . S
O468 C475 1.266 . S
H469 C471 0.959 . S
H470 C471 0.961 . S
C471 C461 1.510 . S
C471 H469 0.959 . S
C471 H470 0.961 . S
C471 H472 0.960 . S
H472 C471 0.960 . S
H473 N453 0.862 . S
O474 Co442 1.920 . S
O474 C447 1.289 . S
C475 O467 1.258 . S
C475 O468 1.266 . S
Co476 O479 1.970 . S
Co476 N493 1.989 . S
Co476 O501 1.967 . S
Co476 O508 1.920 . S
Co477 O480 1.966 . S
Co477 N486 2.022 . S
Co477 N494 1.993 . S
Co477 O502 1.941 . S
C478 O479 1.258 . S
C478 O480 1.263 . S
O479 Co476 1.970 . S
O479 C478 1.258 . S
O480 Co477 1.966 . S
O480 C478 1.263 . S
C481 O482 1.235 . S
C481 O508 1.289 . S
O482 C481 1.235 . S
C483 C485 1.400 . S
C483 N486 1.351 . S
C483 C488 1.501 . S
C484 C485 1.387 . S
C484 N487 1.341 . S
C485 C483 1.400 . S
C485 C484 1.387 . S
N486 Co477 2.022 . S
N486 C483 1.351 . S
N486 N487 1.365 . S
N487 C484 1.341 . S
N487 N486 1.365 . S
N487 H507 0.862 . S
C488 C483 1.501 . S
C488 H489 0.961 . S
C488 H490 0.961 . S
C488 H491 0.960 . S
H489 C488 0.961 . S
H490 C488 0.961 . S
H491 C488 0.960 . S
C492 N493 1.342 . S
C492 C496 1.401 . S
C492 C497 1.499 . S
N493 Co476 1.989 . S
N493 C492 1.342 . S
N493 N494 1.388 . S
N494 Co477 1.993 . S
N494 N493 1.388 . S
N494 C495 1.346 . S
C495 N494 1.346 . S
C495 C496 1.396 . S
C495 C505 1.510 . S
C496 C492 1.401 . S
C496 C495 1.396 . S
C497 C492 1.499 . S
C497 H498 0.959 . S
C497 H499 0.960 . S
C497 H500 0.961 . S
H498 C497 0.959 . S
H499 C497 0.960 . S
H500 C497 0.961 . S
O501 Co476 1.967 . S
O501 C509 1.258 . S
O502 Co477 1.941 . S
O502 C509 1.266 . S
H503 C505 0.959 . S
H504 C505 0.961 . S
C505 C495 1.510 . S
C505 H503 0.959 . S
C505 H504 0.961 . S
C505 H506 0.960 . S
H506 C505 0.960 . S
H507 N487 0.862 . S
O508 Co476 1.920 . S
O508 C481 1.289 . S
C509 O501 1.258 . S
C509 O502 1.266 . S
Co510 O513 1.970 . S
Co510 N527 1.989 . S
Co510 O535 1.967 . S
Co510 O542 1.920 . S
Co511 O514 1.966 . S
Co511 N520 2.022 . S
Co511 N528 1.993 . S
Co511 O536 1.941 . S
C512 O513 1.258 . S
C512 O514 1.263 . S
O513 Co510 1.970 . S
O513 C512 1.258 . S
O514 Co511 1.966 . S
O514 C512 1.263 . S
C515 O516 1.235 . S
C515 O542 1.289 . S
O516 C515 1.235 . S
C517 C519 1.400 . S
C517 N520 1.351 . S
C517 C522 1.501 . S
C518 C519 1.387 . S
C518 N521 1.341 . S
C519 C517 1.400 . S
C519 C518 1.387 . S
N520 Co511 2.022 . S
N520 C517 1.351 . S
N520 N521 1.365 . S
N521 C518 1.341 . S
N521 N520 1.365 . S
N521 H541 0.862 . S
C522 C517 1.501 . S
C522 H523 0.961 . S
C522 H524 0.961 . S
C522 H525 0.960 . S
H523 C522 0.961 . S
H524 C522 0.961 . S
H525 C522 0.960 . S
C526 N527 1.342 . S
C526 C530 1.401 . S
C526 C531 1.499 . S
N527 Co510 1.989 . S
N527 C526 1.342 . S
N527 N528 1.388 . S
N528 Co511 1.993 . S
N528 N527 1.388 . S
N528 C529 1.346 . S
C529 N528 1.346 . S
C529 C530 1.396 . S
C529 C539 1.510 . S
C530 C526 1.401 . S
C530 C529 1.396 . S
C531 C526 1.499 . S
C531 H532 0.959 . S
C531 H533 0.960 . S
C531 H534 0.961 . S
H532 C531 0.959 . S
H533 C531 0.960 . S
H534 C531 0.961 . S
O535 Co510 1.967 . S
O535 C543 1.258 . S
O536 Co511 1.941 . S
O536 C543 1.266 . S
H537 C539 0.959 . S
H538 C539 0.961 . S
C539 C529 1.510 . S
C539 H537 0.959 . S
C539 H538 0.961 . S
C539 H540 0.960 . S
H540 C539 0.960 . S
H541 N521 0.862 . S
O542 Co510 1.920 . S
O542 C515 1.289 . S
C543 O535 1.258 . S
C543 O536 1.266 . S
C544 C545 1.363 1_455 S
C544 C550 1.379 . S
C544 N552 1.356 . S
C545 C544 1.363 1_655 S
C545 C551 1.363 . S
C546 C547 1.363 1_655 S
C546 C551 1.379 . S
C546 N553 1.356 . S
C547 C546 1.363 1_455 S
C547 C550 1.363 . S
N548 C550 1.356 . S
N548 H560 0.984 . S
N548 H561 0.985 . S
N549 C551 1.356 . S
N549 H554 0.984 . S
N549 H555 0.985 . S
C550 C544 1.379 . S
C550 C547 1.363 . S
C550 N548 1.356 . S
C551 C545 1.363 . S
C551 C546 1.379 . S
C551 N549 1.356 . S
N552 C544 1.356 . S
N552 H558 0.984 . S
N552 H559 0.984 1_455 S
N553 C546 1.356 . S
N553 H556 0.984 1_655 S
N553 H557 0.985 . S
H554 N549 0.984 . S
H555 N549 0.985 . S
H556 N553 0.984 1_455 S
H557 N553 0.985 . S
H558 N552 0.984 . S
H559 N552 0.984 1_655 S
H560 N548 0.984 . S
H561 N548 0.985 . S
C562 C563 1.363 . S
C562 C568 1.379 . S
C562 N570 1.356 . S
C563 C562 1.363 . S
C563 C569 1.363 . S
C564 C565 1.363 . S
C564 C569 1.379 . S
C564 N571 1.356 . S
C565 C564 1.363 . S
C565 C568 1.363 . S
N566 C568 1.356 . S
N566 H578 0.984 . S
N566 H579 0.985 . S
N567 C569 1.356 . S
N567 H572 0.984 . S
N567 H573 0.985 . S
C568 C562 1.379 . S
C568 C565 1.363 . S
C568 N566 1.356 . S
C569 C563 1.363 . S
C569 C564 1.379 . S
C569 N567 1.356 . S
N570 C562 1.356 . S
N570 H576 0.984 . S
N570 H577 0.984 . S
N571 C564 1.356 . S
N571 H574 0.984 . S
N571 H575 0.985 . S
H572 N567 0.984 . S
H573 N567 0.985 . S
H574 N571 0.984 . S
H575 N571 0.985 . S
H576 N570 0.984 . S
H577 N570 0.984 . S
H578 N566 0.984 . S
H579 N566 0.985 . S
C580 C581 1.363 1_455 S
C580 C586 1.379 . S
C580 N588 1.356 . S
C581 C580 1.363 1_655 S
C581 C587 1.363 . S
C582 C583 1.363 1_655 S
C582 C587 1.379 . S
C582 N589 1.356 . S
C583 C582 1.363 1_455 S
C583 C586 1.363 . S
N584 C586 1.356 . S
N584 H596 0.984 . S
N584 H597 0.985 . S
N585 C587 1.356 . S
N585 H590 0.984 . S
N585 H591 0.985 . S
C586 C580 1.379 . S
C586 C583 1.363 . S
C586 N584 1.356 . S
C587 C581 1.363 . S
C587 C582 1.379 . S
C587 N585 1.356 . S
N588 C580 1.356 . S
N588 H594 0.984 . S
N588 H595 0.984 1_455 S
N589 C582 1.356 . S
N589 H592 0.984 1_655 S
N589 H593 0.985 . S
H590 N585 0.984 . S
H591 N585 0.985 . S
H592 N589 0.984 1_455 S
H593 N589 0.985 . S
H594 N588 0.984 . S
H595 N588 0.984 1_655 S
H596 N584 0.984 . S
H597 N584 0.985 . S
C598 C599 1.363 . S
C598 C604 1.379 . S
C598 N606 1.356 . S
C599 C598 1.363 . S
C599 C605 1.363 . S
C600 C601 1.363 . S
C600 C605 1.379 . S
C600 N607 1.356 . S
C601 C600 1.363 . S
C601 C604 1.363 . S
N602 C604 1.356 . S
N602 H614 0.984 . S
N602 H615 0.985 . S
N603 C605 1.356 . S
N603 H608 0.984 . S
N603 H609 0.985 . S
C604 C598 1.379 . S
C604 C601 1.363 . S
C604 N602 1.356 . S
C605 C599 1.363 . S
C605 C600 1.379 . S
C605 N603 1.356 . S
N606 C598 1.356 . S
N606 H612 0.984 . S
N606 H613 0.984 . S
N607 C600 1.356 . S
N607 H610 0.984 . S
N607 H611 0.985 . S
H608 N603 0.984 . S
H609 N603 0.985 . S
H610 N607 0.984 . S
H611 N607 0.985 . S
H612 N606 0.984 . S
H613 N606 0.984 . S
H614 N602 0.984 . S
H615 N602 0.985 . S
C616 C617 1.363 . S
C616 C622 1.379 . S
C616 N624 1.356 . S
C617 C616 1.363 . S
C617 C623 1.363 . S
C618 C619 1.363 . S
C618 C623 1.379 . S
C618 N625 1.356 . S
C619 C618 1.363 . S
C619 C622 1.363 . S
N620 C622 1.356 . S
N620 H632 0.984 . S
N620 H633 0.985 . S
N621 C623 1.356 . S
N621 H626 0.984 . S
N621 H627 0.985 . S
C622 C616 1.379 . S
C622 C619 1.363 . S
C622 N620 1.356 . S
C623 C617 1.363 . S
C623 C618 1.379 . S
C623 N621 1.356 . S
N624 C616 1.356 . S
N624 H630 0.984 . S
N624 H631 0.984 . S
N625 C618 1.356 . S
N625 H628 0.984 . S
N625 H629 0.985 . S
H626 N621 0.984 . S
H627 N621 0.985 . S
H628 N625 0.984 . S
H629 N625 0.985 . S
H630 N624 0.984 . S
H631 N624 0.984 . S
H632 N620 0.984 . S
H633 N620 0.985 . S
C634 C635 1.363 . S
C634 C640 1.379 . S
C634 N642 1.356 . S
C635 C634 1.363 . S
C635 C641 1.363 1_655 S
C636 C637 1.363 . S
C636 C641 1.379 . S
C636 N643 1.356 . S
C637 C636 1.363 . S
C637 C640 1.363 1_455 S
N638 C640 1.356 . S
N638 H650 0.984 . S
N638 H651 0.985 1_655 S
N639 C641 1.356 . S
N639 H644 0.984 1_455 S
N639 H645 0.985 . S
C640 C634 1.379 . S
C640 C637 1.363 1_655 S
C640 N638 1.356 . S
C641 C635 1.363 1_455 S
C641 C636 1.379 . S
C641 N639 1.356 . S
N642 C634 1.356 . S
N642 H648 0.984 . S
N642 H649 0.984 . S
N643 C636 1.356 . S
N643 H646 0.984 . S
N643 H647 0.985 . S
H644 N639 0.984 1_655 S
H645 N639 0.985 . S
H646 N643 0.984 . S
H647 N643 0.985 . S
H648 N642 0.984 . S
H649 N642 0.984 . S
H650 N638 0.984 . S
H651 N638 0.985 1_455 S
C652 C653 1.363 . S
C652 C658 1.379 . S
C652 N660 1.356 . S
C653 C652 1.363 . S
C653 C659 1.363 . S
C654 C655 1.363 . S
C654 C659 1.379 . S
C654 N661 1.356 . S
C655 C654 1.363 . S
C655 C658 1.363 . S
N656 C658 1.356 . S
N656 H668 0.984 . S
N656 H669 0.985 . S
N657 C659 1.356 . S
N657 H662 0.984 . S
N657 H663 0.985 . S
C658 C652 1.379 . S
C658 C655 1.363 . S
C658 N656 1.356 . S
C659 C653 1.363 . S
C659 C654 1.379 . S
C659 N657 1.356 . S
N660 C652 1.356 . S
N660 H666 0.984 . S
N660 H667 0.984 . S
N661 C654 1.356 . S
N661 H664 0.984 . S
N661 H665 0.985 . S
H662 N657 0.984 . S
H663 N657 0.985 . S
H664 N661 0.984 . S
H665 N661 0.985 . S
H666 N660 0.984 . S
H667 N660 0.984 . S
H668 N656 0.984 . S
H669 N656 0.985 . S
C670 C671 1.363 . S
C670 C676 1.379 . S
C670 N678 1.356 . S
C671 C670 1.363 . S
C671 C677 1.363 1_655 S
C672 C673 1.363 . S
C672 C677 1.379 . S
C672 N679 1.356 . S
C673 C672 1.363 . S
C673 C676 1.363 1_455 S
N674 C676 1.356 . S
N674 H686 0.984 . S
N674 H687 0.985 1_655 S
N675 C677 1.356 . S
N675 H680 0.984 1_455 S
N675 H681 0.985 . S
C676 C670 1.379 . S
C676 C673 1.363 1_655 S
C676 N674 1.356 . S
C677 C671 1.363 1_455 S
C677 C672 1.379 . S
C677 N675 1.356 . S
N678 C670 1.356 . S
N678 H684 0.984 . S
N678 H685 0.984 . S
N679 C672 1.356 . S
N679 H682 0.984 . S
N679 H683 0.985 . S
H680 N675 0.984 1_655 S
H681 N675 0.985 . S
H682 N679 0.984 . S
H683 N679 0.985 . S
H684 N678 0.984 . S
H685 N678 0.984 . S
H686 N674 0.984 . S
H687 N674 0.985 1_455 S
C688 C689 1.363 . S
C688 C694 1.379 . S
C688 N696 1.356 . S
C689 C688 1.363 . S
C689 C695 1.363 . S
C690 C691 1.363 . S
C690 C695 1.379 . S
C690 N697 1.356 . S
C691 C690 1.363 . S
C691 C694 1.363 . S
N692 C694 1.356 . S
N692 H704 0.984 . S
N692 H705 0.985 . S
N693 C695 1.356 . S
N693 H698 0.984 . S
N693 H699 0.985 . S
C694 C688 1.379 . S
C694 C691 1.363 . S
C694 N692 1.356 . S
C695 C689 1.363 . S
C695 C690 1.379 . S
C695 N693 1.356 . S
N696 C688 1.356 . S
N696 H702 0.984 . S
N696 H703 0.984 . S
N697 C690 1.356 . S
N697 H700 0.984 . S
N697 H701 0.985 . S
H698 N693 0.984 . S
H699 N693 0.985 . S
H700 N697 0.984 . S
H701 N697 0.985 . S
H702 N696 0.984 . S
H703 N696 0.984 . S
H704 N692 0.984 . S
H705 N692 0.985 . S
C706 C707 1.363 . S
C706 C712 1.379 . S
C706 N714 1.356 . S
C707 C706 1.363 . S
C707 C713 1.363 . S
C708 C709 1.363 . S
C708 C713 1.379 . S
C708 N715 1.356 . S
C709 C708 1.363 . S
C709 C712 1.363 . S
N710 C712 1.356 . S
N710 H722 0.984 . S
N710 H723 0.985 . S
N711 C713 1.356 . S
N711 H716 0.984 . S
N711 H717 0.985 . S
C712 C706 1.379 . S
C712 C709 1.363 . S
C712 N710 1.356 . S
C713 C707 1.363 . S
C713 C708 1.379 . S
C713 N711 1.356 . S
N714 C706 1.356 . S
N714 H720 0.984 . S
N714 H721 0.984 . S
N715 C708 1.356 . S
N715 H718 0.984 . S
N715 H719 0.985 . S
H716 N711 0.984 . S
H717 N711 0.985 . S
H718 N715 0.984 . S
H719 N715 0.985 . S
H720 N714 0.984 . S
H721 N714 0.984 . S
H722 N710 0.984 . S
H723 N710 0.985 . S
C724 C725 1.363 . S
C724 C730 1.379 . S
C724 N732 1.356 . S
C725 C724 1.363 . S
C725 C731 1.363 . S
C726 C727 1.363 . S
C726 C731 1.379 . S
C726 N733 1.356 . S
C727 C726 1.363 . S
C727 C730 1.363 . S
N728 C730 1.356 . S
N728 H740 0.984 . S
N728 H741 0.985 . S
N729 C731 1.356 . S
N729 H734 0.984 . S
N729 H735 0.985 . S
C730 C724 1.379 . S
C730 C727 1.363 . S
C730 N728 1.356 . S
C731 C725 1.363 . S
C731 C726 1.379 . S
C731 N729 1.356 . S
N732 C724 1.356 . S
N732 H738 0.984 . S
N732 H739 0.984 . S
N733 C726 1.356 . S
N733 H736 0.984 . S
N733 H737 0.985 . S
H734 N729 0.984 . S
H735 N729 0.985 . S
H736 N733 0.984 . S
H737 N733 0.985 . S
H738 N732 0.984 . S
H739 N732 0.984 . S
H740 N728 0.984 . S
H741 N728 0.985 . S
C742 C743 1.363 . S
C742 C748 1.379 . S
C742 N750 1.356 . S
C743 C742 1.363 . S
C743 C749 1.363 . S
C744 C745 1.363 . S
C744 C749 1.379 . S
C744 N751 1.356 . S
C745 C744 1.363 . S
C745 C748 1.363 . S
N746 C748 1.356 . S
N746 H758 0.984 . S
N746 H759 0.985 . S
N747 C749 1.356 . S
N747 H752 0.984 . S
N747 H753 0.985 . S
C748 C742 1.379 . S
C748 C745 1.363 . S
C748 N746 1.356 . S
C749 C743 1.363 . S
C749 C744 1.379 . S
C749 N747 1.356 . S
N750 C742 1.356 . S
N750 H756 0.984 . S
N750 H757 0.984 . S
N751 C744 1.356 . S
N751 H754 0.984 . S
N751 H755 0.985 . S
H752 N747 0.984 . S
H753 N747 0.985 . S
H754 N751 0.984 . S
H755 N751 0.985 . S
H756 N750 0.984 . S
H757 N750 0.984 . S
H758 N746 0.984 . S
H759 N746 0.985 . S
C760 C761 1.363 . S
C760 C766 1.379 . S
C760 N768 1.356 . S
C761 C760 1.363 . S
C761 C767 1.363 . S
C762 C763 1.363 . S
C762 C767 1.379 . S
C762 N769 1.356 . S
C763 C762 1.363 . S
C763 C766 1.363 . S
N764 C766 1.356 . S
N764 H776 0.984 . S
N764 H777 0.985 . S
N765 C767 1.356 . S
N765 H770 0.984 . S
N765 H771 0.985 . S
C766 C760 1.379 . S
C766 C763 1.363 . S
C766 N764 1.356 . S
C767 C761 1.363 . S
C767 C762 1.379 . S
C767 N765 1.356 . S
N768 C760 1.356 . S
N768 H774 0.984 . S
N768 H775 0.984 . S
N769 C762 1.356 . S
N769 H772 0.984 . S
N769 H773 0.985 . S
H770 N765 0.984 . S
H771 N765 0.985 . S
H772 N769 0.984 . S
H773 N769 0.985 . S
H774 N768 0.984 . S
H775 N768 0.984 . S
H776 N764 0.984 . S
H777 N764 0.985 . S
C778 C779 1.363 . S
C778 C784 1.379 . S
C778 N786 1.356 . S
C779 C778 1.363 . S
C779 C785 1.363 . S
C780 C781 1.363 . S
C780 C785 1.379 . S
C780 N787 1.356 . S
C781 C780 1.363 . S
C781 C784 1.363 . S
N782 C784 1.356 . S
N782 H794 0.984 . S
N782 H795 0.985 . S
N783 C785 1.356 . S
N783 H788 0.984 . S
N783 H789 0.985 . S
C784 C778 1.379 . S
C784 C781 1.363 . S
C784 N782 1.356 . S
C785 C779 1.363 . S
C785 C780 1.379 . S
C785 N783 1.356 . S
N786 C778 1.356 . S
N786 H792 0.984 . S
N786 H793 0.984 . S
N787 C780 1.356 . S
N787 H790 0.984 . S
N787 H791 0.985 . S
H788 N783 0.984 . S
H789 N783 0.985 . S
H790 N787 0.984 . S
H791 N787 0.985 . S
H792 N786 0.984 . S
H793 N786 0.984 . S
H794 N782 0.984 . S
H795 N782 0.985 . S
C796 C797 1.363 . S
C796 C802 1.379 . S
C796 N804 1.356 . S
C797 C796 1.363 . S
C797 C803 1.363 . S
C798 C799 1.363 . S
C798 C803 1.379 . S
C798 N805 1.356 . S
C799 C798 1.363 . S
C799 C802 1.363 . S
N800 C802 1.356 . S
N800 H812 0.984 . S
N800 H813 0.985 . S
N801 C803 1.356 . S
N801 H806 0.984 . S
N801 H807 0.985 . S
C802 C796 1.379 . S
C802 C799 1.363 . S
C802 N800 1.356 . S
C803 C797 1.363 . S
C803 C798 1.379 . S
C803 N801 1.356 . S
N804 C796 1.356 . S
N804 H810 0.984 . S
N804 H811 0.984 . S
N805 C798 1.356 . S
N805 H808 0.984 . S
N805 H809 0.985 . S
H806 N801 0.984 . S
H807 N801 0.985 . S
H808 N805 0.984 . S
H809 N805 0.985 . S
H810 N804 0.984 . S
H811 N804 0.984 . S
H812 N800 0.984 . S
H813 N800 0.985 . S
C814 C815 1.363 . S
C814 C820 1.379 . S
C814 N822 1.356 . S
C815 C814 1.363 . S
C815 C821 1.363 . S
C816 C817 1.363 . S
C816 C821 1.379 . S
C816 N823 1.356 . S
C817 C816 1.363 . S
C817 C820 1.363 . S
N818 C820 1.356 . S
N818 H830 0.984 . S
N818 H831 0.985 . S
N819 C821 1.356 . S
N819 H824 0.984 . S
N819 H825 0.985 . S
C820 C814 1.379 . S
C820 C817 1.363 . S
C820 N818 1.356 . S
C821 C815 1.363 . S
C821 C816 1.379 . S
C821 N819 1.356 . S
N822 C814 1.356 . S
N822 H828 0.984 . S
N822 H829 0.984 . S
N823 C816 1.356 . S
N823 H826 0.984 . S
N823 H827 0.985 . S
H824 N819 0.984 . S
H825 N819 0.985 . S
H826 N823 0.984 . S
H827 N823 0.985 . S
H828 N822 0.984 . S
H829 N822 0.984 . S
H830 N818 0.984 . S
H831 N818 0.985 . S
C832 C833 1.363 1_665 S
C832 C838 1.379 . S
C832 N840 1.357 . S
C833 C832 1.363 1_445 S
C833 C839 1.363 . S
C834 C835 1.363 1_445 S
C834 C839 1.379 . S
C834 N841 1.357 . S
C835 C834 1.363 1_665 S
C835 C838 1.363 . S
N836 C838 1.356 . S
N836 H848 0.984 . S
N836 H849 0.985 . S
N837 C839 1.356 . S
N837 H842 0.984 . S
N837 H843 0.985 . S
C838 C832 1.379 . S
C838 C835 1.363 . S
C838 N836 1.356 . S
C839 C833 1.363 . S
C839 C834 1.379 . S
C839 N837 1.356 . S
N840 C832 1.357 . S
N840 H846 0.986 . S
N840 H847 0.983 1_655 S
N841 C834 1.357 . S
N841 H844 0.983 1_455 S
N841 H845 0.986 . S
H842 N837 0.984 . S
H843 N837 0.985 . S
H844 N841 0.983 1_655 S
H845 N841 0.986 . S
H846 N840 0.986 . S
H847 N840 0.983 1_455 S
H848 N836 0.984 . S
H849 N836 0.985 . S
C850 C851 1.363 . S
C850 C856 1.379 . S
C850 N858 1.356 . S
C851 C850 1.363 . S
C851 C857 1.363 1_565 S
C852 C853 1.363 . S
C852 C857 1.379 . S
C852 N859 1.356 . S
C853 C852 1.363 . S
C853 C856 1.363 1_545 S
N854 C856 1.356 . S
N854 H866 0.984 . S
N854 H867 0.985 . S
N855 C857 1.356 . S
N855 H860 0.984 . S
N855 H861 0.985 . S
C856 C850 1.379 . S
C856 C853 1.363 1_565 S
C856 N854 1.356 . S
C857 C851 1.363 1_545 S
C857 C852 1.379 . S
C857 N855 1.356 . S
N858 C850 1.356 . S
N858 H864 0.984 . S
N858 H865 0.984 . S
N859 C852 1.356 . S
N859 H862 0.984 . S
N859 H863 0.985 . S
H860 N855 0.984 . S
H861 N855 0.985 . S
H862 N859 0.984 . S
H863 N859 0.985 . S
H864 N858 0.984 . S
H865 N858 0.984 . S
H866 N854 0.984 . S
H867 N854 0.985 . S
C868 C869 1.363 1_565 S
C868 C874 1.379 1_556 S
C868 N876 1.356 . S
C869 C868 1.363 1_545 S
C869 C875 1.363 . S
C870 C871 1.363 1_545 S
C870 C875 1.379 1_554 S
C870 N877 1.356 . S
C871 C870 1.363 1_565 S
C871 C874 1.363 . S
N872 C874 1.356 . S
N872 H884 0.984 . S
N872 H885 0.985 . S
N873 C875 1.356 . S
N873 H878 0.984 . S
N873 H879 0.985 . S
C874 C868 1.379 1_554 S
C874 C871 1.363 . S
C874 N872 1.356 . S
C875 C869 1.363 . S
C875 C870 1.379 1_556 S
C875 N873 1.356 . S
N876 C868 1.356 . S
N876 H882 0.984 . S
N876 H883 0.984 . S
N877 C870 1.356 . S
N877 H880 0.984 . S
N877 H881 0.985 . S
H878 N873 0.984 . S
H879 N873 0.985 . S
H880 N877 0.984 . S
H881 N877 0.985 . S
H882 N876 0.984 . S
H883 N876 0.984 . S
H884 N872 0.984 . S
H885 N872 0.985 . S
C886 C887 1.363 1_556 S
C886 C892 1.379 . S
C886 N894 1.356 1_556 S
C887 C886 1.363 1_554 S
C887 C893 1.363 1_645 S
C888 C889 1.363 1_554 S
C888 C893 1.379 . S
C888 N895 1.356 1_554 S
C889 C888 1.363 1_556 S
C889 C892 1.363 1_465 S
N890 C892 1.356 . S
N890 H902 0.984 . S
N890 H903 0.985 1_655 S
N891 C893 1.356 . S
N891 H896 0.984 1_455 S
N891 H897 0.985 . S
C892 C886 1.379 . S
C892 C889 1.363 1_645 S
C892 N890 1.356 . S
C893 C887 1.363 1_465 S
C893 C888 1.379 . S
C893 N891 1.356 . S
N894 C886 1.356 1_554 S
N894 H900 0.984 1_554 S
N894 H901 0.984 . S
N895 C888 1.356 1_556 S
N895 H898 0.984 . S
N895 H899 0.985 1_556 S
H896 N891 0.984 1_655 S
H897 N891 0.985 . S
H898 N895 0.984 . S
H899 N895 0.985 1_554 S
H900 N894 0.984 1_556 S
H901 N894 0.984 . S
H902 N890 0.984 . S
H903 N890 0.985 1_455 S
C904 C905 1.363 . S
C904 C910 1.379 . S
C904 N912 1.356 . S
C905 C904 1.363 . S
C905 C911 1.363 . S
C906 C907 1.363 . S
C906 C911 1.379 . S
C906 N913 1.356 . S
C907 C906 1.363 . S
C907 C910 1.363 . S
N908 C910 1.356 . S
N908 H920 0.984 . S
N908 H921 0.985 . S
N909 C911 1.356 . S
N909 H914 0.984 . S
N909 H915 0.985 . S
C910 C904 1.379 . S
C910 C907 1.363 . S
C910 N908 1.356 . S
C911 C905 1.363 . S
C911 C906 1.379 . S
C911 N909 1.356 . S
N912 C904 1.356 . S
N912 H918 0.984 . S
N912 H919 0.984 . S
N913 C906 1.356 . S
N913 H916 0.984 . S
N913 H917 0.985 . S
H914 N909 0.984 . S
H915 N909 0.985 . S
H916 N913 0.984 . S
H917 N913 0.985 . S
H918 N912 0.984 . S
H919 N912 0.984 . S
H920 N908 0.984 . S
H921 N908 0.985 . S
C922 C923 1.363 1_655 S
C922 C928 1.379 . S
C922 N930 1.356 1_655 S
C923 C922 1.363 1_455 S
C923 C929 1.363 . S
C924 C925 1.363 1_455 S
C924 C929 1.379 . S
C924 N931 1.356 1_455 S
C925 C924 1.363 1_655 S
C925 C928 1.363 . S
N926 C928 1.356 . S
N926 H938 0.984 . S
N926 H939 0.985 . S
N927 C929 1.356 . S
N927 H932 0.984 . S
N927 H933 0.985 . S
C928 C922 1.379 . S
C928 C925 1.363 . S
C928 N926 1.356 . S
C929 C923 1.363 . S
C929 C924 1.379 . S
C929 N927 1.356 . S
N930 C922 1.356 1_455 S
N930 H936 0.984 1_455 S
N930 H937 0.984 . S
N931 C924 1.356 1_655 S
N931 H934 0.984 . S
N931 H935 0.985 1_655 S
H932 N927 0.984 . S
H933 N927 0.985 . S
H934 N931 0.984 . S
H935 N931 0.985 1_455 S
H936 N930 0.984 1_655 S
H937 N930 0.984 . S
H938 N926 0.984 . S
H939 N926 0.985 . S
C940 C941 1.354 1_556 S
C940 C946 1.402 . S
C940 N948 1.354 1_556 S
C941 C940 1.354 1_554 S
C941 C947 1.348 1_455 S
C942 C943 1.354 1_554 S
C942 C947 1.402 . S
C942 N949 1.353 1_554 S
C943 C942 1.354 1_556 S
C943 C946 1.348 1_655 S
N944 C946 1.352 1_655 S
N944 H956 0.984 1_655 S
N944 H957 0.985 . S
N945 C947 1.352 1_455 S
N945 H950 0.984 . S
N945 H951 0.985 1_455 S
C946 C940 1.402 . S
C946 C943 1.348 1_455 S
C946 N944 1.352 1_455 S
C947 C941 1.348 1_655 S
C947 C942 1.402 . S
C947 N945 1.352 1_655 S
N948 C940 1.354 1_554 S
N948 H954 0.984 1_554 S
N948 H955 0.984 . S
N949 C942 1.353 1_556 S
N949 H952 0.984 . S
N949 H953 0.985 1_556 S
H950 N945 0.984 . S
H951 N945 0.985 1_655 S
H952 N949 0.984 . S
H953 N949 0.985 1_554 S
H954 N948 0.984 1_556 S
H955 N948 0.984 . S
H956 N944 0.984 1_455 S
H957 N944 0.985 . S
C958 C959 1.363 . S
C958 C964 1.379 1_556 S
C958 N966 1.356 . S
C959 C958 1.363 . S
C959 C965 1.363 . S
C960 C961 1.363 . S
C960 C965 1.379 1_554 S
C960 N967 1.356 . S
C961 C960 1.363 . S
C961 C964 1.363 . S
N962 C964 1.356 . S
N962 H974 0.984 . S
N962 H975 0.985 . S
N963 C965 1.356 . S
N963 H968 0.984 . S
N963 H969 0.985 . S
C964 C958 1.379 1_554 S
C964 C961 1.363 . S
C964 N962 1.356 . S
C965 C959 1.363 . S
C965 C960 1.379 1_556 S
C965 N963 1.356 . S
N966 C958 1.356 . S
N966 H972 0.984 . S
N966 H973 0.984 . S
N967 C960 1.356 . S
N967 H970 0.984 . S
N967 H971 0.985 . S
H968 N963 0.984 . S
H969 N963 0.985 . S
H970 N967 0.984 . S
H971 N967 0.985 . S
H972 N966 0.984 . S
H973 N966 0.984 . S
H974 N962 0.984 . S
H975 N962 0.985 . S
C976 C977 1.369 . S
C976 C982 1.373 1_545 S
C976 N984 1.358 . S
C977 C976 1.369 . S
C977 C983 1.363 . S
C978 C979 1.369 . S
C978 C983 1.373 1_565 S
C978 N985 1.358 . S
C979 C978 1.369 . S
C979 C982 1.363 . S
N980 C982 1.356 . S
N980 H992 0.984 . S
N980 H993 0.985 . S
N981 C983 1.356 . S
N981 H986 0.984 . S
N981 H987 0.985 . S
C982 C976 1.373 1_565 S
C982 C979 1.363 . S
C982 N980 1.356 . S
C983 C977 1.363 . S
C983 C978 1.373 1_545 S
C983 N981 1.356 . S
N984 C976 1.358 . S
N984 H990 0.984 1_545 S
N984 H991 0.984 . S
N985 C978 1.358 . S
N985 H988 0.984 . S
N985 H989 0.985 1_565 S
H986 N981 0.984 . S
H987 N981 0.985 . S
H988 N985 0.984 . S
H989 N985 0.985 1_545 S
H990 N984 0.984 1_565 S
H991 N984 0.984 . S
H992 N980 0.984 . S
H993 N980 0.985 . S
C994 C995 1.363 . S
C994 C1000 1.373 1_545 S
C994 N1002 1.356 . S
C995 C994 1.363 . S
C995 C1001 1.369 . S
C996 C997 1.363 . S
C996 C1001 1.373 1_565 S
C996 N1003 1.356 . S
C997 C996 1.363 . S
C997 C1000 1.369 . S
N998 C1000 1.358 . S
N998 H1010 0.984 1_565 S
N998 H1011 0.985 . S
N999 C1001 1.358 . S
N999 H1004 0.984 . S
N999 H1005 0.985 1_545 S
C1000 C994 1.373 1_565 S
C1000 C997 1.369 . S
C1000 N998 1.358 . S
C1001 C995 1.369 . S
C1001 C996 1.373 1_545 S
C1001 N999 1.358 . S
N1002 C994 1.356 . S
N1002 H1008 0.984 . S
N1002 H1009 0.984 . S
N1003 C996 1.356 . S
N1003 H1006 0.984 . S
N1003 H1007 0.985 . S
H1004 N999 0.984 . S
H1005 N999 0.985 1_565 S
H1006 N1003 0.984 . S
H1007 N1003 0.985 . S
H1008 N1002 0.984 . S
H1009 N1002 0.984 . S
H1010 N998 0.984 1_545 S
H1011 N998 0.985 . S
C1012 C1013 1.363 . S
C1012 C1018 1.373 1_545 S
C1012 N1020 1.356 . S
C1013 C1012 1.363 . S
C1013 C1019 1.369 . S
C1014 C1015 1.363 . S
C1014 C1019 1.373 1_565 S
C1014 N1021 1.356 . S
C1015 C1014 1.363 . S
C1015 C1018 1.369 . S
N1016 C1018 1.358 . S
N1016 H1028 0.984 1_565 S
N1016 H1029 0.985 . S
N1017 C1019 1.358 . S
N1017 H1022 0.984 . S
N1017 H1023 0.985 1_545 S
C1018 C1012 1.373 1_565 S
C1018 C1015 1.369 . S
C1018 N1016 1.358 . S
C1019 C1013 1.369 . S
C1019 C1014 1.373 1_545 S
C1019 N1017 1.358 . S
N1020 C1012 1.356 . S
N1020 H1026 0.984 . S
N1020 H1027 0.984 . S
N1021 C1014 1.356 . S
N1021 H1024 0.984 . S
N1021 H1025 0.985 . S
H1022 N1017 0.984 . S
H1023 N1017 0.985 1_565 S
H1024 N1021 0.984 . S
H1025 N1021 0.985 . S
H1026 N1020 0.984 . S
H1027 N1020 0.984 . S
H1028 N1016 0.984 1_545 S
H1029 N1016 0.985 . S
C1030 C1031 1.368 . S
C1030 C1036 1.373 1_545 S
C1030 N1038 1.358 . S
C1031 C1030 1.368 . S
C1031 C1037 1.363 . S
C1032 C1033 1.369 . S
C1032 C1037 1.373 1_565 S
C1032 N1039 1.358 . S
C1033 C1032 1.369 . S
C1033 C1036 1.363 . S
N1034 C1036 1.356 . S
N1034 H1046 0.984 . S
N1034 H1047 0.985 . S
N1035 C1037 1.356 . S
N1035 H1040 0.984 . S
N1035 H1041 0.985 . S
C1036 C1030 1.373 1_565 S
C1036 C1033 1.363 . S
C1036 N1034 1.356 . S
C1037 C1031 1.363 . S
C1037 C1032 1.373 1_545 S
C1037 N1035 1.356 . S
N1038 C1030 1.358 . S
N1038 H1044 0.984 1_545 S
N1038 H1045 0.984 . S
N1039 C1032 1.358 . S
N1039 H1042 0.984 . S
N1039 H1043 0.985 1_565 S
H1040 N1035 0.984 . S
H1041 N1035 0.985 . S
H1042 N1039 0.984 . S
H1043 N1039 0.985 1_545 S
H1044 N1038 0.984 1_565 S
H1045 N1038 0.984 . S
H1046 N1034 0.984 . S
H1047 N1034 0.985 . S
C1048 C1049 1.363 . S
C1048 C1054 1.379 . S
C1048 N1056 1.356 . S
C1049 C1048 1.363 . S
C1049 C1055 1.363 . S
C1050 C1051 1.363 . S
C1050 C1055 1.379 . S
C1050 N1057 1.356 . S
C1051 C1050 1.363 . S
C1051 C1054 1.363 . S
N1052 C1054 1.356 . S
N1052 H1064 0.984 . S
N1052 H1065 0.985 . S
N1053 C1055 1.356 . S
N1053 H1058 0.984 . S
N1053 H1059 0.985 . S
C1054 C1048 1.379 . S
C1054 C1051 1.363 . S
C1054 N1052 1.356 . S
C1055 C1049 1.363 . S
C1055 C1050 1.379 . S
C1055 N1053 1.356 . S
N1056 C1048 1.356 . S
N1056 H1062 0.984 . S
N1056 H1063 0.984 . S
N1057 C1050 1.356 . S
N1057 H1060 0.984 . S
N1057 H1061 0.985 . S
H1058 N1053 0.984 . S
H1059 N1053 0.985 . S
H1060 N1057 0.984 . S
H1061 N1057 0.985 . S
H1062 N1056 0.984 . S
H1063 N1056 0.984 . S
H1064 N1052 0.984 . S
H1065 N1052 0.985 . S
C1066 C1067 1.363 . S
C1066 C1072 1.379 . S
C1066 N1074 1.356 . S
C1067 C1066 1.363 . S
C1067 C1073 1.363 . S
C1068 C1069 1.363 . S
C1068 C1073 1.379 . S
C1068 N1075 1.356 . S
C1069 C1068 1.363 . S
C1069 C1072 1.363 . S
N1070 C1072 1.356 . S
N1070 H1082 0.984 . S
N1070 H1083 0.985 . S
N1071 C1073 1.356 . S
N1071 H1076 0.984 . S
N1071 H1077 0.985 . S
C1072 C1066 1.379 . S
C1072 C1069 1.363 . S
C1072 N1070 1.356 . S
C1073 C1067 1.363 . S
C1073 C1068 1.379 . S
C1073 N1071 1.356 . S
N1074 C1066 1.356 . S
N1074 H1080 0.984 . S
N1074 H1081 0.984 . S
N1075 C1068 1.356 . S
N1075 H1078 0.984 . S
N1075 H1079 0.985 . S
H1076 N1071 0.984 . S
H1077 N1071 0.985 . S
H1078 N1075 0.984 . S
H1079 N1075 0.985 . S
H1080 N1074 0.984 . S
H1081 N1074 0.984 . S
H1082 N1070 0.984 . S
H1083 N1070 0.985 . S
C1084 C1085 1.363 . S
C1084 C1090 1.379 . S
C1084 N1092 1.356 . S
C1085 C1084 1.363 . S
C1085 C1091 1.363 . S
C1086 C1087 1.363 . S
C1086 C1091 1.379 . S
C1086 N1093 1.356 . S
C1087 C1086 1.363 . S
C1087 C1090 1.363 . S
N1088 C1090 1.356 . S
N1088 H1100 0.984 . S
N1088 H1101 0.985 . S
N1089 C1091 1.356 . S
N1089 H1094 0.984 . S
N1089 H1095 0.985 . S
C1090 C1084 1.379 . S
C1090 C1087 1.363 . S
C1090 N1088 1.356 . S
C1091 C1085 1.363 . S
C1091 C1086 1.379 . S
C1091 N1089 1.356 . S
N1092 C1084 1.356 . S
N1092 H1098 0.984 . S
N1092 H1099 0.984 . S
N1093 C1086 1.356 . S
N1093 H1096 0.984 . S
N1093 H1097 0.985 . S
H1094 N1089 0.984 . S
H1095 N1089 0.985 . S
H1096 N1093 0.984 . S
H1097 N1093 0.985 . S
H1098 N1092 0.984 . S
H1099 N1092 0.984 . S
H1100 N1088 0.984 . S
H1101 N1088 0.985 . S
C1102 C1103 1.363 . S
C1102 C1108 1.379 . S
C1102 N1110 1.356 . S
C1103 C1102 1.363 . S
C1103 C1109 1.363 . S
C1104 C1105 1.363 . S
C1104 C1109 1.379 . S
C1104 N1111 1.356 . S
C1105 C1104 1.363 . S
C1105 C1108 1.363 . S
N1106 C1108 1.356 . S
N1106 H1118 0.984 . S
N1106 H1119 0.985 . S
N1107 C1109 1.356 . S
N1107 H1112 0.984 . S
N1107 H1113 0.985 . S
C1108 C1102 1.379 . S
C1108 C1105 1.363 . S
C1108 N1106 1.356 . S
C1109 C1103 1.363 . S
C1109 C1104 1.379 . S
C1109 N1107 1.356 . S
N1110 C1102 1.356 . S
N1110 H1116 0.984 . S
N1110 H1117 0.984 . S
N1111 C1104 1.356 . S
N1111 H1114 0.984 . S
N1111 H1115 0.985 . S
H1112 N1107 0.984 . S
H1113 N1107 0.985 . S
H1114 N1111 0.984 . S
H1115 N1111 0.985 . S
H1116 N1110 0.984 . S
H1117 N1110 0.984 . S
H1118 N1106 0.984 . S
H1119 N1106 0.985 . S
C1120 C1121 1.363 . S
C1120 C1126 1.379 . S
C1120 N1128 1.356 . S
C1121 C1120 1.363 . S
C1121 C1127 1.363 1_455 S
C1122 C1123 1.363 . S
C1122 C1127 1.379 . S
C1122 N1129 1.356 . S
C1123 C1122 1.363 . S
C1123 C1126 1.363 1_655 S
N1124 C1126 1.356 1_655 S
N1124 H1136 0.984 1_655 S
N1124 H1137 0.985 . S
N1125 C1127 1.356 1_455 S
N1125 H1130 0.984 . S
N1125 H1131 0.985 1_455 S
C1126 C1120 1.379 . S
C1126 C1123 1.363 1_455 S
C1126 N1124 1.356 1_455 S
C1127 C1121 1.363 1_655 S
C1127 C1122 1.379 . S
C1127 N1125 1.356 1_655 S
N1128 C1120 1.356 . S
N1128 H1134 0.984 . S
N1128 H1135 0.984 . S
N1129 C1122 1.356 . S
N1129 H1132 0.984 . S
N1129 H1133 0.985 . S
H1130 N1125 0.984 . S
H1131 N1125 0.985 1_655 S
H1132 N1129 0.984 . S
H1133 N1129 0.985 . S
H1134 N1128 0.984 . S
H1135 N1128 0.984 . S
H1136 N1124 0.984 1_455 S
H1137 N1124 0.985 . S
C1138 C1139 1.363 . S
C1138 C1144 1.379 . S
C1138 N1146 1.356 . S
C1139 C1138 1.363 . S
C1139 C1145 1.363 . S
C1140 C1141 1.363 . S
C1140 C1145 1.379 . S
C1140 N1147 1.356 . S
C1141 C1140 1.363 . S
C1141 C1144 1.363 . S
N1142 C1144 1.356 . S
N1142 H1154 0.984 . S
N1142 H1155 0.985 . S
N1143 C1145 1.356 . S
N1143 H1148 0.984 . S
N1143 H1149 0.985 . S
C1144 C1138 1.379 . S
C1144 C1141 1.363 . S
C1144 N1142 1.356 . S
C1145 C1139 1.363 . S
C1145 C1140 1.379 . S
C1145 N1143 1.356 . S
N1146 C1138 1.356 . S
N1146 H1152 0.984 . S
N1146 H1153 0.984 . S
N1147 C1140 1.356 . S
N1147 H1150 0.984 . S
N1147 H1151 0.985 . S
H1148 N1143 0.984 . S
H1149 N1143 0.985 . S
H1150 N1147 0.984 . S
H1151 N1147 0.985 . S
H1152 N1146 0.984 . S
H1153 N1146 0.984 . S
H1154 N1142 0.984 . S
H1155 N1142 0.985 . S
C1156 C1157 1.363 . S
C1156 C1162 1.379 . S
C1156 N1164 1.356 . S
C1157 C1156 1.363 . S
C1157 C1163 1.363 . S
C1158 C1159 1.363 . S
C1158 C1163 1.379 . S
C1158 N1165 1.356 . S
C1159 C1158 1.363 . S
C1159 C1162 1.363 . S
N1160 C1162 1.356 . S
N1160 H1172 0.984 . S
N1160 H1173 0.985 . S
N1161 C1163 1.356 . S
N1161 H1166 0.984 . S
N1161 H1167 0.985 . S
C1162 C1156 1.379 . S
C1162 C1159 1.363 . S
C1162 N1160 1.356 . S
C1163 C1157 1.363 . S
C1163 C1158 1.379 . S
C1163 N1161 1.356 . S
N1164 C1156 1.356 . S
N1164 H1170 0.984 . S
N1164 H1171 0.984 . S
N1165 C1158 1.356 . S
N1165 H1168 0.984 . S
N1165 H1169 0.985 . S
H1166 N1161 0.984 . S
H1167 N1161 0.985 . S
H1168 N1165 0.984 . S
H1169 N1165 0.985 . S
H1170 N1164 0.984 . S
H1171 N1164 0.984 . S
H1172 N1160 0.984 . S
H1173 N1160 0.985 . S
C1174 C1175 1.363 1_455 S
C1174 C1180 1.379 . S
C1174 N1182 1.356 1_455 S
C1175 C1174 1.363 1_655 S
C1175 C1181 1.363 . S
C1176 C1177 1.363 1_655 S
C1176 C1181 1.379 . S
C1176 N1183 1.356 1_655 S
C1177 C1176 1.363 1_455 S
C1177 C1180 1.363 . S
N1178 C1180 1.356 . S
N1178 H1190 0.984 . S
N1178 H1191 0.985 . S
N1179 C1181 1.356 . S
N1179 H1184 0.984 . S
N1179 H1185 0.985 . S
C1180 C1174 1.379 . S
C1180 C1177 1.363 . S
C1180 N1178 1.356 . S
C1181 C1175 1.363 . S
C1181 C1176 1.379 . S
C1181 N1179 1.356 . S
N1182 C1174 1.356 1_655 S
N1182 H1188 0.984 1_655 S
N1182 H1189 0.984 . S
N1183 C1176 1.356 1_455 S
N1183 H1186 0.984 . S
N1183 H1187 0.985 1_455 S
H1184 N1179 0.984 . S
H1185 N1179 0.985 . S
H1186 N1183 0.984 . S
H1187 N1183 0.985 1_655 S
H1188 N1182 0.984 1_455 S
H1189 N1182 0.984 . S
H1190 N1178 0.984 . S
H1191 N1178 0.985 . S
C1192 C1193 1.363 . S
C1192 C1198 1.379 . S
C1192 N1200 1.356 . S
C1193 C1192 1.363 . S
C1193 C1199 1.363 1_655 S
C1194 C1195 1.363 . S
C1194 C1199 1.379 . S
C1194 N1201 1.356 . S
C1195 C1194 1.363 . S
C1195 C1198 1.363 1_455 S
N1196 C1198 1.356 1_455 S
N1196 H1208 0.984 1_455 S
N1196 H1209 0.985 . S
N1197 C1199 1.356 1_655 S
N1197 H1202 0.984 . S
N1197 H1203 0.985 1_655 S
C1198 C1192 1.379 . S
C1198 C1195 1.363 1_655 S
C1198 N1196 1.356 1_655 S
C1199 C1193 1.363 1_455 S
C1199 C1194 1.379 . S
C1199 N1197 1.356 1_455 S
N1200 C1192 1.356 . S
N1200 H1206 0.984 . S
N1200 H1207 0.984 . S
N1201 C1194 1.356 . S
N1201 H1204 0.984 . S
N1201 H1205 0.985 . S
H1202 N1197 0.984 . S
H1203 N1197 0.985 1_455 S
H1204 N1201 0.984 . S
H1205 N1201 0.985 . S
H1206 N1200 0.984 . S
H1207 N1200 0.984 . S
H1208 N1196 0.984 1_655 S
H1209 N1196 0.985 . S
C1210 C1211 1.363 . S
C1210 C1216 1.379 . S
C1210 N1218 1.356 . S
C1211 C1210 1.363 . S
C1211 C1217 1.363 . S
C1212 C1213 1.363 . S
C1212 C1217 1.379 . S
C1212 N1219 1.356 . S
C1213 C1212 1.363 . S
C1213 C1216 1.363 . S
N1214 C1216 1.356 . S
N1214 H1226 0.984 . S
N1214 H1227 0.985 . S
N1215 C1217 1.356 . S
N1215 H1220 0.984 . S
N1215 H1221 0.985 . S
C1216 C1210 1.379 . S
C1216 C1213 1.363 . S
C1216 N1214 1.356 . S
C1217 C1211 1.363 . S
C1217 C1212 1.379 . S
C1217 N1215 1.356 . S
N1218 C1210 1.356 . S
N1218 H1224 0.984 . S
N1218 H1225 0.984 . S
N1219 C1212 1.356 . S
N1219 H1222 0.984 . S
N1219 H1223 0.985 . S
H1220 N1215 0.984 . S
H1221 N1215 0.985 . S
H1222 N1219 0.984 . S
H1223 N1219 0.985 . S
H1224 N1218 0.984 . S
H1225 N1218 0.984 . S
H1226 N1214 0.984 . S
H1227 N1214 0.985 . S
C1228 C1229 1.363 . S
C1228 C1234 1.379 . S
C1228 N1236 1.356 . S
C1229 C1228 1.363 . S
C1229 C1235 1.363 . S
C1230 C1231 1.363 . S
C1230 C1235 1.379 . S
C1230 N1237 1.356 . S
C1231 C1230 1.363 . S
C1231 C1234 1.363 . S
N1232 C1234 1.356 . S
N1232 H1244 0.984 . S
N1232 H1245 0.985 . S
N1233 C1235 1.356 . S
N1233 H1238 0.984 . S
N1233 H1239 0.985 . S
C1234 C1228 1.379 . S
C1234 C1231 1.363 . S
C1234 N1232 1.356 . S
C1235 C1229 1.363 . S
C1235 C1230 1.379 . S
C1235 N1233 1.356 . S
N1236 C1228 1.356 . S
N1236 H1242 0.984 . S
N1236 H1243 0.984 . S
N1237 C1230 1.356 . S
N1237 H1240 0.984 . S
N1237 H1241 0.985 . S
H1238 N1233 0.984 . S
H1239 N1233 0.985 . S
H1240 N1237 0.984 . S
H1241 N1237 0.985 . S
H1242 N1236 0.984 . S
H1243 N1236 0.984 . S
H1244 N1232 0.984 . S
H1245 N1232 0.985 . S
C1246 C1247 1.363 1_455 S
C1246 C1252 1.379 . S
C1246 N1254 1.356 1_455 S
C1247 C1246 1.363 1_655 S
C1247 C1253 1.363 . S
C1248 C1249 1.363 1_655 S
C1248 C1253 1.379 . S
C1248 N1255 1.356 1_655 S
C1249 C1248 1.363 1_455 S
C1249 C1252 1.363 . S
N1250 C1252 1.356 . S
N1250 H1262 0.984 . S
N1250 H1263 0.985 . S
N1251 C1253 1.356 . S
N1251 H1256 0.984 . S
N1251 H1257 0.985 . S
C1252 C1246 1.379 . S
C1252 C1249 1.363 . S
C1252 N1250 1.356 . S
C1253 C1247 1.363 . S
C1253 C1248 1.379 . S
C1253 N1251 1.356 . S
N1254 C1246 1.356 1_655 S
N1254 H1260 0.984 1_655 S
N1254 H1261 0.984 . S
N1255 C1248 1.356 1_455 S
N1255 H1258 0.984 . S
N1255 H1259 0.985 1_455 S
H1256 N1251 0.984 . S
H1257 N1251 0.985 . S
H1258 N1255 0.984 . S
H1259 N1255 0.985 1_655 S
H1260 N1254 0.984 1_455 S
H1261 N1254 0.984 . S
H1262 N1250 0.984 . S
H1263 N1250 0.985 . S
C545 C135 1.455 . S
C547 C33 1.455 . S
C563 C101 1.455 . S
C565 C67 1.455 . S
C581 C169 1.455 . S
C583 C271 1.455 . S
C599 C203 1.455 . S
C601 C237 1.455 . S
C617 C305 1.455 . S
C619 C407 1.455 . S
C635 C339 1.455 . S
C637 C373 1.455 . S
C653 C543 1.455 . S
C655 C441 1.455 . S
C671 C509 1.455 . S
C673 C475 1.455 . S
C689 C5 0.911 . S
C691 C345 0.911 . S
C707 C379 0.910 . S
C709 C39 0.910 . S
C725 C277 0.911 . S
C727 C73 0.911 . S
C743 C311 0.910 . S
C745 C107 0.910 . S
C761 C481 0.911 . S
C763 C141 0.911 . S
C779 C515 0.910 . S
C781 C175 0.910 . S
C797 C413 0.911 . S
C799 C209 0.911 . S
C815 C447 0.910 . S
C817 C243 0.910 . S
C833 C9 1.620 . S
C835 C145 1.620 . S
C851 C43 1.620 . S
C853 C179 1.620 . S
C869 C213 1.620 . S
C871 C77 1.620 . S
C887 C111 1.620 . S
C889 C247 1.620 . S
C905 C281 1.620 . S
C907 C417 1.620 . S
C923 C451 1.620 . S
C925 C315 1.620 . S
C941 C349 1.620 . S
C943 C485 1.620 . S
C959 C519 1.620 . S
C961 C383 1.620 . S
C977 C20 1.426 . S
C979 C54 1.426 . S
C995 C122 1.426 . S
C997 C88 1.426 . S
C1013 C190 1.426 . S
C1015 C156 1.426 . S
C1031 C224 1.426 . S
C1033 C258 1.426 . S
C1049 C326 1.426 . S
C1051 C292 1.426 . S
C1067 C394 1.426 . S
C1069 C360 1.426 . S
C1085 C428 1.426 . S
C1087 C462 1.426 . S
C1103 C530 1.426 . S
C1105 C496 1.426 . S
C1121 C2 1.376 . S
C1123 C308 1.376 . S
C1139 C36 1.376 . S
C1141 C274 1.376 . S
C1157 C70 1.376 . S
C1159 C376 1.376 . S
C1175 C104 1.376 . S
C1177 C342 1.376 . S
C1193 C138 1.376 . S
C1195 C444 1.376 . S
C1211 C410 1.376 . S
C1213 C172 1.376 . S
C1229 C206 1.376 . S
C1231 C512 1.376 . S
C1247 C478 1.376 . S
C1249 C240 1.376 . S
