# Generated by pormake.
# Topology sms, (6)-cn, num edge types: 1
# Building blocks:
#     Node 0, Type 0, BuildingBlock: IZENUY_clean_sbu_0, # of connection points: 6
#     Node 1, Type 0, BuildingBlock: IZENUY_clean_sbu_0, # of connection points: 6
#     Node 2, Type 0, BuildingBlock: IZENUY_clean_sbu_0, # of connection points: 6
#     Node 3, Type 0, BuildingBlock: IZENUY_clean_sbu_0, # of connection points: 6
#     Node 4, Type 0, BuildingBlock: IZENUY_clean_sbu_0, # of connection points: 6
#     Node 5, Type 0, BuildingBlock: IZENUY_clean_sbu_0, # of connection points: 6
#     Node 6, Type 0, BuildingBlock: IZENUY_clean_sbu_0, # of connection points: 6
#     Node 7, Type 0, BuildingBlock: IZENUY_clean_sbu_0, # of connection points: 6
#     Node 8, Type 0, BuildingBlock: IZENUY_clean_sbu_0, # of connection points: 6
#     Node 9, Type 0, BuildingBlock: IZENUY_clean_sbu_0, # of connection points: 6
#     Node 10, Type 0, BuildingBlock: IZENUY_clean_sbu_0, # of connection points: 6
#     Node 11, Type 0, BuildingBlock: IZENUY_clean_sbu_0, # of connection points: 6
#     Node 12, Type 0, BuildingBlock: IZENUY_clean_sbu_0, # of connection points: 6
#     Node 13, Type 0, BuildingBlock: IZENUY_clean_sbu_0, # of connection points: 6
#     Node 14, Type 0, BuildingBlock: IZENUY_clean_sbu_0, # of connection points: 6
#     Node 15, Type 0, BuildingBlock: IZENUY_clean_sbu_0, # of connection points: 6
#     Node 16, Type 0, BuildingBlock: IZENUY_clean_sbu_0, # of connection points: 6
#     Node 17, Type 0, BuildingBlock: IZENUY_clean_sbu_0, # of connection points: 6
#     Edge 18, Type (0, 0), BuildingBlock: CIFDUS_clean_linker_0, # of connection points: 2
#     Edge 19, Type (0, 0), BuildingBlock: CIFDUS_clean_linker_0, # of connection points: 2
#     Edge 20, Type (0, 0), BuildingBlock: CIFDUS_clean_linker_0, # of connection points: 2
#     Edge 21, Type (0, 0), BuildingBlock: CIFDUS_clean_linker_0, # of connection points: 2
#     Edge 22, Type (0, 0), BuildingBlock: CIFDUS_clean_linker_0, # of connection points: 2
#     Edge 23, Type (0, 0), BuildingBlock: CIFDUS_clean_linker_0, # of connection points: 2
#     Edge 24, Type (0, 0), BuildingBlock: CIFDUS_clean_linker_0, # of connection points: 2
#     Edge 25, Type (0, 0), BuildingBlock: CIFDUS_clean_linker_0, # of connection points: 2
#     Edge 26, Type (0, 0), BuildingBlock: CIFDUS_clean_linker_0, # of connection points: 2
#     Edge 27, Type (0, 0), BuildingBlock: CIFDUS_clean_linker_0, # of connection points: 2
#     Edge 28, Type (0, 0), BuildingBlock: CIFDUS_clean_linker_0, # of connection points: 2
#     Edge 29, Type (0, 0), BuildingBlock: CIFDUS_clean_linker_0, # of connection points: 2
#     Edge 30, Type (0, 0), BuildingBlock: CIFDUS_clean_linker_0, # of connection points: 2
#     Edge 31, Type (0, 0), BuildingBlock: CIFDUS_clean_linker_0, # of connection points: 2
#     Edge 32, Type (0, 0), BuildingBlock: CIFDUS_clean_linker_0, # of connection points: 2
#     Edge 33, Type (0, 0), BuildingBlock: CIFDUS_clean_linker_0, # of connection points: 2
#     Edge 34, Type (0, 0), BuildingBlock: CIFDUS_clean_linker_0, # of connection points: 2
#     Edge 35, Type (0, 0), BuildingBlock: CIFDUS_clean_linker_0, # of connection points: 2
#     Edge 36, Type (0, 0), BuildingBlock: CIFDUS_clean_linker_0, # of connection points: 2
#     Edge 37, Type (0, 0), BuildingBlock: CIFDUS_clean_linker_0, # of connection points: 2
#     Edge 38, Type (0, 0), BuildingBlock: CIFDUS_clean_linker_0, # of connection points: 2
#     Edge 39, Type (0, 0), BuildingBlock: CIFDUS_clean_linker_0, # of connection points: 2
#     Edge 40, Type (0, 0), BuildingBlock: CIFDUS_clean_linker_0, # of connection points: 2
#     Edge 41, Type (0, 0), BuildingBlock: CIFDUS_clean_linker_0, # of connection points: 2
#     Edge 42, Type (0, 0), BuildingBlock: CIFDUS_clean_linker_0, # of connection points: 2
#     Edge 43, Type (0, 0), BuildingBlock: CIFDUS_clean_linker_0, # of connection points: 2
#     Edge 44, Type (0, 0), BuildingBlock: CIFDUS_clean_linker_0, # of connection points: 2
#     Edge 45, Type (0, 0), BuildingBlock: CIFDUS_clean_linker_0, # of connection points: 2
#     Edge 46, Type (0, 0), BuildingBlock: CIFDUS_clean_linker_0, # of connection points: 2
#     Edge 47, Type (0, 0), BuildingBlock: CIFDUS_clean_linker_0, # of connection points: 2
#     Edge 48, Type (0, 0), BuildingBlock: CIFDUS_clean_linker_0, # of connection points: 2
#     Edge 49, Type (0, 0), BuildingBlock: CIFDUS_clean_linker_0, # of connection points: 2
#     Edge 50, Type (0, 0), BuildingBlock: CIFDUS_clean_linker_0, # of connection points: 2
#     Edge 51, Type (0, 0), BuildingBlock: CIFDUS_clean_linker_0, # of connection points: 2
#     Edge 52, Type (0, 0), BuildingBlock: CIFDUS_clean_linker_0, # of connection points: 2
#     Edge 53, Type (0, 0), BuildingBlock: CIFDUS_clean_linker_0, # of connection points: 2
#     Edge 54, Type (0, 0), BuildingBlock: CIFDUS_clean_linker_0, # of connection points: 2
#     Edge 55, Type (0, 0), BuildingBlock: CIFDUS_clean_linker_0, # of connection points: 2
#     Edge 56, Type (0, 0), BuildingBlock: CIFDUS_clean_linker_0, # of connection points: 2
#     Edge 57, Type (0, 0), BuildingBlock: CIFDUS_clean_linker_0, # of connection points: 2
#     Edge 58, Type (0, 0), BuildingBlock: CIFDUS_clean_linker_0, # of connection points: 2
#     Edge 59, Type (0, 0), BuildingBlock: CIFDUS_clean_linker_0, # of connection points: 2
#     Edge 60, Type (0, 0), BuildingBlock: CIFDUS_clean_linker_0, # of connection points: 2
#     Edge 61, Type (0, 0), BuildingBlock: CIFDUS_clean_linker_0, # of connection points: 2
#     Edge 62, Type (0, 0), BuildingBlock: CIFDUS_clean_linker_0, # of connection points: 2
#     Edge 63, Type (0, 0), BuildingBlock: CIFDUS_clean_linker_0, # of connection points: 2
#     Edge 64, Type (0, 0), BuildingBlock: CIFDUS_clean_linker_0, # of connection points: 2
#     Edge 65, Type (0, 0), BuildingBlock: CIFDUS_clean_linker_0, # of connection points: 2
#     Edge 66, Type (0, 0), BuildingBlock: CIFDUS_clean_linker_0, # of connection points: 2
#     Edge 67, Type (0, 0), BuildingBlock: CIFDUS_clean_linker_0, # of connection points: 2
#     Edge 68, Type (0, 0), BuildingBlock: CIFDUS_clean_linker_0, # of connection points: 2
#     Edge 69, Type (0, 0), BuildingBlock: CIFDUS_clean_linker_0, # of connection points: 2
#     Edge 70, Type (0, 0), BuildingBlock: CIFDUS_clean_linker_0, # of connection points: 2
#     Edge 71, Type (0, 0), BuildingBlock: CIFDUS_clean_linker_0, # of connection points: 2
# Relax obj value: 0.430
# Max RMSD: 0.158
# Mean RMSD: 0.158
data_MOF--net-sms--node1-IZENUY_clean_sbu_0--edge1-CIFDUS_clean_linker_0
_symmetry_space_group_name_H-M    P1
_symmetry_Int_Tables_number       1
_symmetry_cell_setting            triclinic
loop_
_symmetry_equiv_pos_as_xyz
'x, y, z'
_cell_length_a     33.579812
_cell_length_b     33.650599
_cell_length_c     53.011335
_cell_angle_alpha  90.089588
_cell_angle_beta   89.969156
_cell_angle_gamma 119.88285
loop_
_atom_site_label
_atom_site_type_symbol
_atom_site_fract_x
_atom_site_fract_y
_atom_site_fract_z
_atom_type_partial_charge
Fe0 Fe 0.22717 0.44973 0.09164 0.0
Fe1 Fe 0.18234 0.34797 0.07962 0.0
O2 O 0.20733 0.40544 0.06904 0.0
Fe3 Fe 0.21263 0.41872 0.03635 0.0
O4 O 0.26853 0.47244 0.03968 0.0
O5 O 0.28497 0.47393 0.08006 0.0
O6 O 0.24257 0.41989 0.1154 0.0
C7 C 0.25423 0.38984 0.11222 0.0
C8 C 0.18994 0.48113 0.05395 0.0
O9 O 0.23565 0.35977 0.09523 0.0
C10 C 0.12359 0.3407 0.04152 0.0
O11 O 0.16997 0.42735 0.1042 0.0
O12 O 0.15857 0.3578 0.10917 0.0
O13 O 0.1804 0.44869 0.0389 0.0
O14 O 0.2163 0.48847 0.07249 0.0
C15 C 0.23216 0.34905 0.03591 0.0
O16 O 0.12836 0.33369 0.06448 0.0
O17 O 0.15789 0.36717 0.02794 0.0
C18 C 0.1484 0.38857 0.11443 0.0
O19 O 0.20125 0.32749 0.05228 0.0
O20 O 0.24512 0.39015 0.0307 0.0
C21 C 0.29756 0.48587 0.05761 0.0
Fe22 Fe 0.55769 0.77572 0.09071 0.0
Fe23 Fe 0.66056 0.82654 0.08039 0.0
O24 O 0.60348 0.80343 0.06922 0.0
Fe25 Fe 0.59161 0.80758 0.03702 0.0
O26 O 0.5411 0.81404 0.0439 0.0
O27 O 0.54049 0.81789 0.08538 0.0
O28 O 0.58971 0.80945 0.11817 0.0
C29 C 0.6229 0.84998 0.11915 0.0
C30 C 0.52257 0.72118 0.04732 0.0
O31 O 0.6537 0.86469 0.10242 0.0
C32 C 0.66431 0.78739 0.03546 0.0
O33 O 0.57305 0.73236 0.09681 0.0
O34 O 0.64549 0.78156 0.10491 0.0
O35 O 0.55657 0.74573 0.03355 0.0
O36 O 0.5163 0.73637 0.06778 0.0
C37 C 0.66727 0.89201 0.04388 0.0
O38 O 0.67084 0.79031 0.05905 0.0
O39 O 0.64004 0.80204 0.0251 0.0
C40 C 0.61106 0.74114 0.10612 0.0
O41 O 0.68549 0.87486 0.05789 0.0
O42 O 0.62566 0.86926 0.03756 0.0
C43 C 0.52941 0.82603 0.0641 0.0
Fe44 Fe 0.1714 0.82942 0.08819 0.0
Fe45 Fe 0.20149 0.79089 0.04382 0.0
O46 O 0.19892 0.79977 0.07663 0.0
Fe47 Fe 0.22403 0.77884 0.09812 0.0
O48 O 0.16907 0.74214 0.11261 0.0
O49 O 0.15119 0.79616 0.11781 0.0
O50 O 0.11711 0.78741 0.07405 0.0
C51 C 0.11196 0.77667 0.05094 0.0
C52 C 0.24701 0.86442 0.11849 0.0
O53 O 0.1461 0.7866 0.03685 0.0
C54 C 0.28959 0.81242 0.06156 0.0
O55 O 0.18684 0.86779 0.06089 0.0
O56 O 0.23202 0.85203 0.03794 0.0
O57 O 0.23887 0.82392 0.12161 0.0
O58 O 0.22452 0.87336 0.10272 0.0
C59 C 0.18329 0.70793 0.06261 0.0
O60 O 0.25784 0.79418 0.04523 0.0
O61 O 0.28023 0.81443 0.08442 0.0
C62 C 0.21854 0.87934 0.04473 0.0
O63 O 0.17073 0.7286 0.04755 0.0
O64 O 0.21388 0.72975 0.07892 0.0
C65 C 0.14455 0.7564 0.12266 0.0
Fe66 Fe 0.41966 0.19879 0.97373 0.0
Fe67 Fe 0.45626 0.21735 0.91943 0.0
O68 O 0.40966 0.19615 0.94067 0.0
Fe69 Fe 0.35307 0.17223 0.9285 0.0
O70 O 0.3306 0.1899 0.95543 0.0
O71 O 0.39143 0.23181 0.97896 0.0
O72 O 0.47433 0.25369 0.97251 0.0
C73 C 0.49102 0.28437 0.95556 0.0
C74 C 0.34166 0.11123 0.96584 0.0
O75 O 0.48058 0.27439 0.93263 0.0
C76 C 0.39586 0.1395 0.89469 0.0
O77 O 0.44903 0.16589 0.97156 0.0
O78 O 0.49231 0.20384 0.93932 0.0
O79 O 0.33703 0.1174 0.94279 0.0
O80 O 0.36676 0.14448 0.98031 0.0
C81 C 0.39824 0.24605 0.89763 0.0
O82 O 0.43454 0.16125 0.90523 0.0
O83 O 0.36499 0.14985 0.89922 0.0
C84 C 0.48297 0.17628 0.95745 0.0
O85 O 0.4292 0.23534 0.89533 0.0
O86 O 0.36632 0.22613 0.91349 0.0
C87 C 0.35103 0.21991 0.97238 0.0
Fe88 Fe 0.83571 0.1741 0.91889 0.0
Fe89 Fe 0.80277 0.20638 0.96503 0.0
O90 O 0.80723 0.20169 0.93189 0.0
Fe91 Fe 0.78237 0.22475 0.91148 0.0
O92 O 0.74326 0.16867 0.89939 0.0
O93 O 0.79572 0.14916 0.89163 0.0
O94 O 0.79781 0.12112 0.93545 0.0
C95 C 0.78968 0.11715 0.95886 0.0
C96 C 0.86353 0.24596 0.88611 0.0
O97 O 0.79998 0.15182 0.97252 0.0
C98 C 0.82133 0.29298 0.94606 0.0
O99 O 0.87965 0.19379 0.94391 0.0
O100 O 0.86455 0.23753 0.9687 0.0
O101 O 0.82235 0.23677 0.88532 0.0
O102 O 0.87589 0.2259 0.90166 0.0
C103 C 0.71713 0.18638 0.94974 0.0
O104 O 0.80549 0.26251 0.9632 0.0
O105 O 0.8205 0.28187 0.92321 0.0
C106 C 0.89182 0.22481 0.96063 0.0
O107 O 0.73996 0.17463 0.96362 0.0
O108 O 0.73695 0.21693 0.93322 0.0
C109 C 0.75479 0.14176 0.88967 0.0
Fe110 Fe 0.8322 0.66311 0.9254 0.0
Fe111 Fe 0.80146 0.58649 0.9655 0.0
O112 O 0.80547 0.60428 0.93364 0.0
Fe113 Fe 0.78201 0.56267 0.90958 0.0
O114 O 0.82228 0.59835 0.88517 0.0
O115 O 0.87437 0.65885 0.90535 0.0
O116 O 0.87488 0.68226 0.95081 0.0
C117 C 0.88833 0.66083 0.96485 0.0
C118 C 0.75371 0.62095 0.89372 0.0
O119 O 0.86312 0.61874 0.9695 0.0
C120 C 0.71693 0.52231 0.948 0.0
O121 O 0.79231 0.67137 0.94491 0.0
O122 O 0.79503 0.63368 0.97828 0.0
O123 O 0.74166 0.58115 0.90143 0.0
O124 O 0.79375 0.65398 0.89832 0.0
C125 C 0.82414 0.52756 0.93824 0.0
O126 O 0.73884 0.55294 0.96422 0.0
O127 O 0.73693 0.51841 0.92887 0.0
C128 C 0.78435 0.66111 0.96802 0.0
O129 O 0.80783 0.53632 0.95778 0.0
O130 O 0.82136 0.54254 0.91691 0.0
C131 C 0.86292 0.63102 0.88718 0.0
Fe132 Fe 0.88845 0.77682 0.43175 0.0
Fe133 Fe 0.84241 0.67439 0.42082 0.0
O134 O 0.86702 0.73152 0.40972 0.0
Fe135 Fe 0.87126 0.7443 0.37696 0.0
O136 O 0.93369 0.77973 0.37868 0.0
O137 O 0.93242 0.8193 0.4111 0.0
O138 O 0.93095 0.76299 0.44245 0.0
C139 C 0.92179 0.72477 0.45147 0.0
C140 C 0.84457 0.80467 0.39955 0.0
O141 O 0.88241 0.68945 0.44819 0.0
C142 C 0.78489 0.66858 0.37943 0.0
O143 O 0.84919 0.74375 0.45709 0.0
O144 O 0.79926 0.67906 0.43942 0.0
O145 O 0.86236 0.79431 0.38122 0.0
O146 O 0.84679 0.79237 0.42173 0.0
C147 C 0.89277 0.67288 0.38015 0.0
O148 O 0.79885 0.64999 0.39539 0.0
O149 O 0.80988 0.70975 0.37277 0.0
C150 C 0.80958 0.70913 0.45618 0.0
O151 O 0.88358 0.66567 0.4033 0.0
O152 O 0.8803 0.69656 0.36729 0.0
C153 C 0.954 0.81317 0.39353 0.0
Fe154 Fe 0.25528 0.13339 0.37171 0.0
Fe155 Fe 0.22198 0.11311 0.42623 0.0
O156 O 0.26762 0.13515 0.40441 0.0
Fe157 Fe 0.32508 0.15905 0.41525 0.0
O158 O 0.34078 0.21385 0.4006 0.0
O159 O 0.30892 0.18621 0.36377 0.0
O160 O 0.22848 0.1687 0.37596 0.0
C161 C 0.19608 0.15856 0.39132 0.0
C162 C 0.32077 0.10752 0.37173 0.0
O163 O 0.18541 0.12741 0.40749 0.0
C164 C 0.28187 0.08574 0.44734 0.0
O165 O 0.19948 0.07994 0.37351 0.0
O166 O 0.19723 0.05642 0.41237 0.0
O167 O 0.34427 0.13908 0.38757 0.0
O168 O 0.28064 0.09797 0.36571 0.0
C169 C 0.28376 0.19149 0.4504 0.0
O170 O 0.2499 0.09495 0.44937 0.0
O171 O 0.31338 0.10602 0.43121 0.0
C172 C 0.18445 0.04791 0.38965 0.0
O173 O 0.2442 0.16861 0.441 0.0
O174 O 0.31537 0.18274 0.44472 0.0
C175 C 0.33519 0.2198 0.37765 0.0
Fe176 Fe 0.8386 0.15818 0.41959 0.0
Fe177 Fe 0.87039 0.12499 0.37346 0.0
O178 O 0.86702 0.13014 0.40665 0.0
Fe179 Fe 0.89195 0.10708 0.42695 0.0
O180 O 0.83687 0.06918 0.44137 0.0
O181 O 0.81779 0.12202 0.44802 0.0
O182 O 0.78504 0.11762 0.40446 0.0
C183 C 0.78023 0.10905 0.38114 0.0
C184 C 0.91263 0.19042 0.45084 0.0
O185 O 0.81477 0.12066 0.36705 0.0
C186 C 0.9582 0.14416 0.39054 0.0
O187 O 0.85471 0.19969 0.39368 0.0
O188 O 0.90053 0.18654 0.36972 0.0
O189 O 0.90719 0.15048 0.45159 0.0
O190 O 0.89016 0.20056 0.43574 0.0
C191 C 0.85317 0.04027 0.38836 0.0
O192 O 0.92678 0.12853 0.37401 0.0
O193 O 0.94856 0.14356 0.41361 0.0
C194 C 0.88655 0.21288 0.37747 0.0
O195 O 0.84055 0.06266 0.37472 0.0
O196 O 0.8813 0.05928 0.40623 0.0
C197 C 0.81213 0.08249 0.45219 0.0
Fe198 Fe 0.01522 0.5037 0.26041 0.0
Fe199 Fe 0.07979 0.53582 0.30669 0.0
O200 O 0.07135 0.53133 0.27347 0.0
Fe201 Fe 0.11913 0.55442 0.2531 0.0
O202 O 0.0912 0.56865 0.22789 0.0
O203 O 0.02531 0.55522 0.24384 0.0
O204 O 0.98982 0.52103 0.28599 0.0
C205 C 0.00852 0.5532 0.30202 0.0
C206 C 0.06399 0.47471 0.22839 0.0
O207 O 0.04869 0.56667 0.3099 0.0
C208 C 0.14696 0.51718 0.29243 0.0
O209 O 1.00186 0.45068 0.27593 0.0
O210 O 0.02813 0.48041 0.31348 0.0
O211 O 0.10164 0.49856 0.23966 0.0
O212 O 0.03057 0.48157 0.23225 0.0
C213 C 0.1489 0.62232 0.28834 0.0
O214 O 0.11207 0.50545 0.30607 0.0
O215 O 0.15617 0.54467 0.2743 0.0
C216 C 0.00548 0.44598 0.29926 0.0
O217 O 0.13299 0.59206 0.30552 0.0
O218 O 0.13922 0.61136 0.26547 0.0
C219 C 0.05789 0.57611 0.22851 0.0
Fe220 Fe 0.5013 0.50776 0.25557 0.0
Fe221 Fe 0.46335 0.53981 0.29967 0.0
O222 O 0.47085 0.53455 0.26686 0.0
Fe223 Fe 0.4475 0.55662 0.24479 0.0
O224 O 0.43967 0.5165 0.21936 0.0
O225 O 0.45113 0.46524 0.23796 0.0
O226 O 0.48235 0.46519 0.28118 0.0
C227 C 0.45058 0.45237 0.29748 0.0
C228 C 0.53191 0.58663 0.22458 0.0
O229 O 0.43555 0.47834 0.30444 0.0
C230 C 0.47864 0.62301 0.28263 0.0
O231 O 0.55272 0.54794 0.27263 0.0
O232 O 0.51986 0.5475 0.30882 0.0
O233 O 0.50411 0.59761 0.23374 0.0
O234 O 0.52597 0.54652 0.22784 0.0
C235 C 0.37628 0.51442 0.27763 0.0
O236 O 0.49142 0.60241 0.29755 0.0
O237 O 0.45035 0.60137 0.26534 0.0
C238 C 0.55544 0.55747 0.29586 0.0
O239 O 0.40483 0.53215 0.29577 0.0
O240 O 0.39018 0.51651 0.25527 0.0
C241 C 0.43177 0.47591 0.22109 0.0
Fe242 Fe 0.50139 0.99191 0.25604 0.0
Fe243 Fe 0.46103 0.92279 0.29983 0.0
O244 O 0.47077 0.93468 0.26715 0.0
Fe245 Fe 0.44948 0.88952 0.2451 0.0
O246 O 0.50682 0.90671 0.23449 0.0
O247 O 0.52569 0.97826 0.22789 0.0
O248 O 0.55199 0.00168 0.27294 0.0
C249 C 0.55364 0.9954 0.29631 0.0
C250 C 0.4318 0.95416 0.22206 0.0
O251 O 0.51721 0.97183 0.30912 0.0
C252 C 0.37621 0.85902 0.27691 0.0
O253 O 0.48376 0.01648 0.28204 0.0
O254 O 0.43218 0.95594 0.30245 0.0
O255 O 0.44031 0.92168 0.21993 0.0
O256 O 0.45126 0.98443 0.2388 0.0
C257 C 0.47807 0.85462 0.28552 0.0
O258 O 0.40347 0.87172 0.29564 0.0
O259 O 0.39121 0.8701 0.25474 0.0
C260 C 0.44972 0.9977 0.29688 0.0
O261 O 0.48877 0.8882 0.29997 0.0
O262 O 0.45433 0.84877 0.26592 0.0
C263 C 0.53287 0.94492 0.22445 0.0
Fe264 Fe 0.50719 0.00594 0.74842 0.0
Fe265 Fe 0.55138 0.08849 0.71248 0.0
O266 O 0.53598 0.06581 0.74321 0.0
Fe267 Fe 0.55014 0.10316 0.76914 0.0
O268 O 0.55717 0.06543 0.7914 0.0
O269 O 0.55541 0.01178 0.76726 0.0
O270 O 0.5339 0.99341 0.7214 0.0
C271 C 0.57153 0.01944 0.71028 0.0
C272 C 0.46527 0.0386 0.78343 0.0
O273 O 0.58614 0.06177 0.70826 0.0
C274 C 0.52214 0.1441 0.73258 0.0
O275 O 0.45867 0.99759 0.72909 0.0
O276 O 0.50121 0.04041 0.6975 0.0
O277 O 0.49034 0.07943 0.77663 0.0
O278 O 0.47535 0.0082 0.77687 0.0
C279 C 0.62884 0.14771 0.7419 0.0
O280 O 0.51758 0.11708 0.71488 0.0
O281 O 0.54562 0.14751 0.75188 0.0
C282 C 0.46257 0.01074 0.70634 0.0
O283 O 0.60431 0.14024 0.72235 0.0
O284 O 0.61078 0.12894 0.76257 0.0
C285 C 0.57039 0.03712 0.78649 0.0
Fe286 Fe 0.89181 0.45929 0.7602 0.0
Fe287 Fe 0.9941 0.50541 0.74836 0.0
O288 O 0.93632 0.47748 0.73775 0.0
Fe289 Fe 0.92334 0.46722 0.70517 0.0
O290 O 0.89131 0.49791 0.70494 0.0
O291 O 0.85246 0.46717 0.73972 0.0
O292 O 0.91318 0.51754 0.77077 0.0
C293 C 0.95219 0.5414 0.78059 0.0
C294 C 0.85626 0.38525 0.72858 0.0
O295 O 0.98359 0.53158 0.77661 0.0
C296 C 0.99569 0.45152 0.70742 0.0
O297 O 0.92266 0.4475 0.78509 0.0
O298 O 0.98357 0.45424 0.7658 0.0
O299 O 0.87064 0.41204 0.7098 0.0
O300 O 0.86791 0.40019 0.75075 0.0
C301 C 1.00018 0.55735 0.70746 0.0
O302 O 0.01598 0.48526 0.72231 0.0
O303 O 0.9537 0.43531 0.70245 0.0
C304 C 0.95306 0.43605 0.78263 0.0
O305 O 0.00677 0.55695 0.73096 0.0
O306 O 0.97409 0.52088 0.69538 0.0
C307 C 0.85854 0.48974 0.71966 0.0
Fe308 Fe 0.49931 0.48884 0.7539 0.0
Fe309 Fe 0.5378 0.46153 0.70822 0.0
O310 O 0.53128 0.46445 0.74131 0.0
Fe311 Fe 0.55694 0.44291 0.76213 0.0
O312 O 0.51352 0.42625 0.78687 0.0
O313 O 0.45917 0.43519 0.7696 0.0
O314 O 0.45829 0.47057 0.72779 0.0
C315 C 0.44712 0.43926 0.71151 0.0
C316 C 0.57584 0.52142 0.78651 0.0
O317 O 0.47584 0.42824 0.70362 0.0
C318 C 0.62424 0.48434 0.72447 0.0
O319 O 0.53733 0.54359 0.73895 0.0
O320 O 0.53877 0.51544 0.7016 0.0
O321 O 0.59219 0.49912 0.77591 0.0
O322 O 0.53472 0.51155 0.78252 0.0
C323 C 0.52304 0.3759 0.72621 0.0
O324 O 0.60069 0.49491 0.71032 0.0
O325 O 0.60541 0.45509 0.74172 0.0
C326 C 0.54714 0.54916 0.71572 0.0
O327 O 0.53765 0.40677 0.70938 0.0
O328 O 0.523 0.38586 0.74919 0.0
C329 C 0.4719 0.41558 0.78528 0.0
Fe330 Fe 0.74349 0.86599 0.63712 0.0
Fe331 Fe 0.77822 0.88144 0.58279 0.0
O332 O 0.73211 0.86033 0.60423 0.0
Fe333 Fe 0.67493 0.83318 0.59264 0.0
O334 O 0.65295 0.85278 0.61882 0.0
O335 O 0.71449 0.8988 0.64096 0.0
O336 O 0.7978 0.92116 0.63448 0.0
C337 C 0.81329 0.95093 0.61701 0.0
C338 C 0.66597 0.77699 0.63225 0.0
O339 O 0.80087 0.93942 0.59443 0.0
C340 C 0.71921 0.8 0.56049 0.0
O341 O 0.77341 0.83328 0.63547 0.0
O342 O 0.816 0.87175 0.6032 0.0
O343 O 0.66113 0.78059 0.60892 0.0
O344 O 0.69139 0.812 0.64554 0.0
C345 C 0.7164 0.9031 0.55897 0.0
O346 O 0.75818 0.82458 0.5703 0.0
O347 O 0.68687 0.80839 0.56445 0.0
C348 C 0.80644 0.84311 0.62068 0.0
O349 O 0.74915 0.89491 0.55808 0.0
O350 O 0.68504 0.8842 0.57526 0.0
C351 C 0.67346 0.8851 0.63459 0.0
Fe352 Fe 0.13687 0.89203 0.63867 0.0
Fe353 Fe 0.11673 0.90188 0.58366 0.0
O354 O 0.13888 0.87961 0.60629 0.0
Fe355 Fe 0.16227 0.84504 0.59662 0.0
O356 O 0.14152 0.80775 0.62474 0.0
O357 O 0.10102 0.83208 0.6459 0.0
O358 O 0.08419 0.89544 0.63607 0.0
C359 C 0.05169 0.87613 0.62037 0.0
C360 C 0.22179 0.89372 0.63482 0.0
O361 O 0.05986 0.87095 0.59772 0.0
C362 C 0.19445 0.91618 0.55953 0.0
O363 O 0.1732 0.9533 0.63338 0.0
O364 O 0.13182 0.95387 0.60149 0.0
O365 O 0.21764 0.8835 0.61161 0.0
O366 O 0.18825 0.89007 0.64742 0.0
C367 C 0.08811 0.81352 0.5648 0.0
O368 O 0.17208 0.93376 0.56857 0.0
O369 O 0.18638 0.87665 0.56655 0.0
C370 C 0.16362 0.97491 0.61736 0.0
O371 O 0.09803 0.85448 0.56129 0.0
O372 O 0.10857 0.80351 0.58137 0.0
C373 C 0.11134 0.80156 0.64118 0.0
Fe374 Fe 0.16342 0.32851 0.58976 0.0
Fe375 Fe 0.12529 0.25742 0.6328 0.0
O376 O 0.13695 0.2709 0.60036 0.0
Fe377 Fe 0.12268 0.227 0.57819 0.0
O378 O 0.18225 0.25076 0.56954 0.0
O379 O 0.19319 0.3196 0.56253 0.0
O380 O 0.21387 0.34239 0.60803 0.0
C381 C 0.21485 0.33436 0.63117 0.0
C382 C 0.0995 0.28667 0.55318 0.0
O383 O 0.17791 0.30987 0.64345 0.0
C384 C 0.0458 0.18827 0.60757 0.0
O385 O 0.13894 0.34814 0.61506 0.0
O386 O 0.09021 0.28408 0.63399 0.0
O387 O 0.11158 0.25657 0.55247 0.0
O388 O 0.11375 0.3166 0.57041 0.0
C389 C 0.15413 0.19763 0.61955 0.0
O390 O 0.07109 0.20258 0.62716 0.0
O391 O 0.06268 0.20122 0.58589 0.0
C392 C 0.10319 0.32498 0.62832 0.0
O393 O 0.15923 0.22924 0.63416 0.0
O394 O 0.13079 0.18913 0.59958 0.0
C395 C 0.20506 0.28944 0.55934 0.0
H396 H 0.18384 0.65719 0.02237 0.0
H397 H 0.14534 0.6487 0.10059 0.0
H398 H 0.1371 0.57277 0.10384 0.0
H399 H 0.15489 0.51594 0.0868 0.0
H400 H 0.19485 0.52315 0.00902 0.0
H401 H 0.18817 0.59195 1.00299 0.0
C402 C 0.17194 0.63777 0.03975 0.0
C403 C 0.16523 0.65823 0.06124 0.0
C404 C 0.1686 0.59441 0.04169 0.0
C405 C 0.15057 0.63335 0.08384 0.0
C406 C 0.14625 0.59014 0.08578 0.0
C407 C 0.16098 0.53202 0.06838 0.0
C408 C 0.17581 0.51519 0.04847 0.0
C409 C 0.15738 0.57143 0.06521 0.0
C410 C 0.1833 0.53574 0.0246 0.0
C411 C 0.1798 0.5752 0.02122 0.0
H412 H 0.4993 0.64372 0.07163 0.0
H413 H 0.46534 0.6973 0.00659 0.0
H414 H 0.39309 0.62441 1.0014 0.0
H415 H 0.33449 0.55049 0.02014 0.0
H416 H 0.36975 0.50016 0.08645 0.0
H417 H 0.44682 0.56609 0.08612 0.0
C418 C 0.47666 0.6387 0.05584 0.0
C419 C 0.48716 0.67521 0.03947 0.0
C420 C 0.43515 0.59749 0.05346 0.0
C421 C 0.45783 0.66908 0.01918 0.0
C422 C 0.4164 0.62768 0.01643 0.0
C423 C 0.35947 0.55348 0.03408 0.0
C424 C 0.34616 0.52092 0.05356 0.0
C425 C 0.40382 0.5923 0.03413 0.0
C426 C 0.3789 0.52513 0.07149 0.0
C427 C 0.42303 0.56286 0.07136 0.0
H428 H 0.46665 0.80938 0.02722 0.0
H429 H 0.51244 0.87292 0.10026 0.0
H430 H 0.444 0.88018 0.10435 0.0
H431 H 0.36637 0.85771 0.09019 0.0
H432 H 0.31863 0.79103 0.018 0.0
H433 H 0.39287 0.79645 0.01042 0.0
C434 C 0.46221 0.8259 0.04371 0.0
C435 C 0.49409 0.83988 0.06358 0.0
C436 C 0.4221 0.82876 0.04629 0.0
C437 C 0.48795 0.86126 0.08486 0.0
C438 C 0.44878 0.8653 0.08726 0.0
C439 C 0.37237 0.84493 0.07263 0.0
C440 C 0.33667 0.82307 0.05496 0.0
C441 C 0.41476 0.84735 0.06859 0.0
C442 C 0.34534 0.80755 0.03208 0.0
C443 C 0.38777 0.81049 0.02774 0.0
H444 H 0.51842 0.13987 0.9262 0.0
H445 H 0.52524 0.18521 1.00284 0.0
H446 H 0.59721 0.18429 0.00933 0.0
H447 H 0.66525 0.18482 0.99006 0.0
H448 H 0.65759 0.14339 0.91243 0.0
H449 H 0.57871 0.12708 0.90959 0.0
C450 C 0.53499 0.14804 0.94456 0.0
C451 C 0.51712 0.16279 0.96396 0.0
C452 C 0.5765 0.14838 0.94787 0.0
C453 C 0.5385 0.17342 0.9877 0.0
C454 C 0.57985 0.17336 0.9913 0.0
C455 C 0.6455 0.17056 0.97294 0.0
C456 C 0.66692 0.16501 0.9515 0.0
C457 C 0.60029 0.16294 0.97112 0.0
C458 C 0.64156 0.14742 0.9292 0.0
C459 C 0.59656 0.13852 0.92747 0.0
H460 H 0.80963 0.46697 0.97608 0.0
H461 H 0.87042 0.50912 0.90216 0.0
H462 H 0.88102 0.44268 0.8997 0.0
H463 H 0.86314 0.36759 0.91582 0.0
H464 H 0.79995 0.32361 0.98904 0.0
H465 H 0.80115 0.39623 0.99468 0.0
C466 C 0.82602 0.46211 0.95966 0.0
C467 C 0.83825 0.4924 0.93912 0.0
C468 C 0.83124 0.42328 0.95811 0.0
C469 C 0.85984 0.48582 0.91805 0.0
C470 C 0.86593 0.44783 0.9166 0.0
C471 C 0.85023 0.37413 0.93318 0.0
C472 C 0.83058 0.33986 0.95172 0.0
C473 C 0.85012 0.41546 0.93608 0.0
C474 C 0.81489 0.34924 0.97434 0.0
C475 C 0.81533 0.39068 0.97753 0.0
H476 H 0.67661 0.46006 0.98583 0.0
H477 H 0.64934 0.50704 0.91584 0.0
H478 H 0.57317 0.43911 0.91365 0.0
H479 H 0.51976 0.36156 0.9281 0.0
H480 H 0.5473 0.31163 0.99704 0.0
H481 H 0.61738 0.38537 1.00341 0.0
C482 C 0.65319 0.45594 0.97065 0.0
C483 C 0.66809 0.48831 0.95109 0.0
C484 C 0.60991 0.41584 0.96906 0.0
C485 C 0.63817 0.48247 0.93115 0.0
C486 C 0.59484 0.44352 0.92978 0.0
C487 C 0.54074 0.36702 0.94472 0.0
C488 C 0.52879 0.33094 0.96181 0.0
C489 C 0.58118 0.40913 0.94805 0.0
C490 C 0.55588 0.33879 0.9835 0.0
C491 C 0.59609 0.38091 0.9871 0.0
H492 H 0.80654 0.96629 0.41742 0.0
H493 H 0.87499 0.00994 0.34576 0.0
H494 H 0.873 0.93638 0.34081 0.0
H495 H 0.86261 0.86498 0.36048 0.0
H496 H 0.79363 0.82269 0.43243 0.0
H497 H 0.78407 0.88969 0.43341 0.0
C498 C 0.8196 0.95892 0.40037 0.0
C499 C 0.84069 0.99297 0.38194 0.0
C500 C 0.81879 0.91702 0.39789 0.0
C501 C 0.85802 0.98369 0.35999 0.0
C502 C 0.85731 0.94189 0.35733 0.0
C503 C 0.84445 0.86982 0.37603 0.0
C504 C 0.82989 0.83936 0.39663 0.0
C505 C 0.83937 0.90897 0.37665 0.0
C506 C 0.80608 0.84604 0.41656 0.0
C507 C 0.80058 0.88442 0.41718 0.0
H508 H 0.99684 0.877 0.35687 0.0
H509 H 0.0195 0.82537 0.42643 0.0
H510 H 0.09646 0.89172 0.42986 0.0
H511 H 0.15227 0.9693 0.41645 0.0
H512 H 0.129 0.02388 0.34796 0.0
H513 H 0.05791 0.95174 0.34053 0.0
C514 C 0.01945 0.87976 0.37221 0.0
C515 C 1.00315 0.84635 0.39122 0.0
C516 C 0.06316 0.91904 0.37453 0.0
C517 C 0.03191 0.85051 0.41144 0.0
C518 C 0.07567 0.88866 0.41354 0.0
C519 C 0.13197 0.96524 0.39972 0.0
C520 C 0.14549 0.0022 0.38307 0.0
C521 C 0.0909 0.92396 0.39574 0.0
C522 C 0.11921 0.99608 0.36123 0.0
C523 C 0.07842 0.95485 0.35698 0.0
H524 H 0.13526 0.14279 0.35393 0.0
H525 H 0.18502 0.21162 0.42515 0.0
H526 H 0.11646 0.21872 0.42996 0.0
H527 H 0.03683 0.19272 0.41757 0.0
H528 H 0.98529 0.12074 0.34708 0.0
H529 H 0.05983 0.12781 0.33817 0.0
C530 C 0.13184 0.16117 0.36985 0.0
C531 C 0.16507 0.17724 0.38901 0.0
C532 C 0.09136 0.16335 0.37297 0.0
C533 C 0.15997 0.19975 0.41002 0.0
C534 C 0.12052 0.2032 0.41293 0.0
C535 C 0.04215 0.17923 0.40008 0.0
C536 C 0.00528 0.1554 0.38331 0.0
C537 C 0.08501 0.18306 0.39515 0.0
C538 C 0.01295 0.13888 0.36047 0.0
C539 C 0.05559 0.14281 0.35535 0.0
H540 H 0.33429 0.53089 0.31764 0.0
H541 H 0.30674 0.46293 0.24529 0.0
H542 H 0.22895 0.45028 0.2459 0.0
H543 H 0.17363 0.47014 0.26324 0.0
H544 H 0.19972 0.53909 0.33485 0.0
H545 H 0.2726 0.53901 0.3386 0.0
C546 C 0.3109 0.51235 0.30233 0.0
C547 C 0.32681 0.49886 0.28119 0.0
C548 C 0.26595 0.50563 0.30259 0.0
C549 C 0.29584 0.47454 0.26158 0.0
C550 C 0.25121 0.46723 0.26187 0.0
C551 C 0.19459 0.48357 0.28008 0.0
C552 C 0.18158 0.50429 0.29881 0.0
C553 C 0.2366 0.48431 0.28173 0.0
C554 C 0.20895 0.52227 0.32043 0.0
C555 C 0.25084 0.52276 0.32237 0.0
H556 H 0.47017 0.67292 0.32112 0.0
H557 H 0.52395 0.68341 0.24606 0.0
H558 H 0.53421 0.75989 0.24147 0.0
H559 H 0.51581 0.81788 0.25586 0.0
H560 H 0.46183 0.80951 0.33054 0.0
H561 H 0.46393 0.73863 0.33844 0.0
C562 C 0.48567 0.69281 0.30422 0.0
C563 C 0.49637 0.67276 0.28395 0.0
C564 C 0.49048 0.73673 0.30145 0.0
C565 C 0.51565 0.69833 0.2619 0.0
C566 C 0.52118 0.74192 0.25918 0.0
C567 C 0.50557 0.80101 0.27407 0.0
C568 C 0.48835 0.81832 0.29252 0.0
C569 C 0.50681 0.76055 0.27835 0.0
C570 C 0.47536 0.79664 0.31611 0.0
C571 C 0.47628 0.756 0.32054 0.0
H572 H 0.17627 0.69834 0.26009 0.0
H573 H 0.20601 0.65125 0.32941 0.0
H574 H 0.27715 0.72455 0.33419 0.0
H575 H 0.33624 0.79711 0.3151 0.0
H576 H 0.30648 0.84204 0.24495 0.0
H577 H 0.22988 0.77488 0.24428 0.0
C578 C 0.19795 0.70441 0.27648 0.0
C579 C 0.18636 0.66919 0.29411 0.0
C580 C 0.23907 0.74616 0.27884 0.0
C581 C 0.21429 0.67777 0.31549 0.0
C582 C 0.25514 0.71959 0.31815 0.0
C583 C 0.31254 0.79274 0.30003 0.0
C584 C 0.32728 0.82403 0.27988 0.0
C585 C 0.26872 0.75337 0.29944 0.0
C586 C 0.29619 0.818 0.26048 0.0
C587 C 0.25239 0.77957 0.26004 0.0
H588 H 0.53563 0.20294 0.69417 0.0
H589 H 0.47207 0.15811 0.76709 0.0
H590 H 0.45992 0.2237 0.7698 0.0
H591 H 0.47905 0.29957 0.75479 0.0
H592 H 0.54725 0.34799 0.68313 0.0
H593 H 0.5453 0.27519 0.67632 0.0
C594 C 0.5178 0.20697 0.71018 0.0
C595 C 0.5048 0.17621 0.73043 0.0
C596 C 0.5126 0.24583 0.71205 0.0
C597 C 0.48235 0.18172 0.75134 0.0
C598 C 0.47567 0.21928 0.75297 0.0
C599 C 0.49289 0.29397 0.7375 0.0
C600 C 0.51418 0.32945 0.71979 0.0
C601 C 0.49258 0.25258 0.73399 0.0
C602 C 0.53107 0.32135 0.69722 0.0
C603 C 0.53014 0.27978 0.69335 0.0
H604 H 0.67597 0.20307 0.70271 0.0
H605 H 0.69057 0.17565 0.78074 0.0
H606 H 0.76597 0.24458 0.78241 0.0
H607 H 0.82265 0.31725 0.7634 0.0
H608 H 0.80674 0.34583 0.68579 0.0
H609 H 0.73721 0.27127 0.68221 0.0
C610 C 0.69584 0.2118 0.72 0.0
C611 C 0.67716 0.18494 0.74173 0.0
C612 C 0.73877 0.25182 0.72098 0.0
C613 C 0.70375 0.19627 0.76386 0.0
C614 C 0.74687 0.23568 0.76485 0.0
C615 C 0.80428 0.30698 0.7456 0.0
C616 C 0.81924 0.33744 0.72508 0.0
C617 C 0.7639 0.26451 0.7438 0.0
C618 C 0.79567 0.32323 0.70198 0.0
C619 C 0.75579 0.28067 0.69993 0.0
H620 H 0.82359 0.53113 0.74816 0.0
H621 H 0.811 0.46956 0.67522 0.0
H622 H 0.73867 0.46927 0.66778 0.0
H623 H 0.67275 0.47481 0.68557 0.0
H624 H 0.68712 0.53628 0.7588 0.0
H625 H 0.76521 0.54956 0.76238 0.0
C626 C 0.80562 0.51893 0.73034 0.0
C627 C 0.82231 0.50025 0.71231 0.0
C628 C 0.76415 0.51872 0.72633 0.0
C629 C 0.79889 0.48445 0.68928 0.0
C630 C 0.75732 0.48393 0.68515 0.0
C631 C 0.69383 0.49283 0.70175 0.0
C632 C 0.67446 0.5049 0.72184 0.0
C633 C 0.7387 0.49941 0.70396 0.0
C634 C 0.70158 0.52717 0.74304 0.0
C635 C 0.74607 0.53434 0.74521 0.0
H636 H 0.97072 0.8159 0.59831 0.0
H637 H 0.0284 0.91326 0.65941 0.0
H638 H 0.95288 0.90323 0.66898 0.0
H639 H 0.87322 0.87604 0.65561 0.0
H640 H 0.81636 0.78095 0.59378 0.0
H641 H 0.88805 0.77941 0.58936 0.0
C642 C 0.96658 0.8345 0.61388 0.0
C643 C 0.00516 0.866 0.62774 0.0
C644 C 0.92303 0.82853 0.61933 0.0
C645 C 0.99926 0.88916 0.64824 0.0
C646 C 0.95608 0.88343 0.65377 0.0
C647 C 0.876 0.85332 0.64207 0.0
C648 C 0.83972 0.82802 0.62532 0.0
C649 C 0.91799 0.85429 0.63896 0.0
C650 C 0.8438 0.79985 0.60719 0.0
C651 C 0.88501 0.79963 0.60439 0.0
H652 H 0.19675 0.16607 0.59008 0.0
H653 H 0.1452 0.15734 0.66547 0.0
H654 H 0.15352 0.09016 0.67391 0.0
H655 H 0.16058 0.02555 0.65639 0.0
H656 H 0.20878 0.03405 0.58016 0.0
H657 H 0.21828 0.11043 0.57561 0.0
C658 C 0.18857 0.15007 0.60856 0.0
C659 C 0.16973 0.16567 0.62701 0.0
C660 C 0.19282 0.11141 0.61303 0.0
C661 C 0.15967 0.14549 0.65102 0.0
C662 C 0.16414 0.10699 0.65575 0.0
C663 C 0.17505 0.04518 0.63927 0.0
C664 C 0.18398 0.02471 0.6186 0.0
C665 C 0.17864 0.08839 0.63648 0.0
C666 C 0.2019 0.04962 0.59626 0.0
C667 C 0.20687 0.09298 0.59358 0.0
H668 H 1.00302 0.12457 0.64503 0.0
H669 H 0.97919 0.16869 0.57298 0.0
H670 H 0.903 0.1013 0.57081 0.0
H671 H 0.84665 0.02584 0.58684 0.0
H672 H 0.86971 0.97988 0.65844 0.0
H673 H 0.94198 0.05196 0.66345 0.0
C674 C 0.98077 0.11982 0.62913 0.0
C675 C 0.99714 0.15129 0.60903 0.0
C676 C 0.93689 0.08036 0.62776 0.0
C677 C 0.96779 0.14464 0.58854 0.0
C678 C 0.92414 0.10607 0.58724 0.0
C679 C 0.86717 0.03178 0.60371 0.0
C680 C 0.853 0.9972 0.62204 0.0
C681 C 0.90892 0.07301 0.60633 0.0
C682 C 0.87977 0.00581 0.64396 0.0
C683 C 0.9213 0.04699 0.64679 0.0
H684 H 0.08175 0.4105 0.1203 0.0
H685 H 0.1621 0.3642 0.16095 0.0
H686 H 0.13903 0.38282 0.20106 0.0
H687 H 0.10587 0.42376 0.22379 0.0
H688 H 0.02213 0.4662 0.18322 0.0
H689 H 0.03594 0.43704 0.14389 0.0
C690 C 0.09276 0.40298 0.13802 0.0
C691 C 0.12346 0.38604 0.13779 0.0
C692 C 0.07932 0.41377 0.16096 0.0
C693 C 0.13792 0.37666 0.16075 0.0
C694 C 0.12519 0.38785 0.18366 0.0
C695 C 0.08977 0.42552 0.20642 0.0
C696 C 0.06364 0.44771 0.20628 0.0
C697 C 0.0974 0.40814 0.18391 0.0
C698 C 0.04249 0.4494 0.18377 0.0
C699 C 0.05058 0.43295 0.16124 0.0
H700 H 0.64065 0.75536 0.15456 0.0
H701 H 0.57509 0.65017 0.09809 0.0
H702 H 0.55226 0.59079 0.13031 0.0
H703 H 0.53844 0.56952 0.17526 0.0
H704 H 0.59583 0.67537 0.23186 0.0
H705 H 0.63488 0.73354 0.19927 0.0
C706 C 0.62299 0.71943 0.14927 0.0
C707 C 0.60992 0.70703 0.12403 0.0
C708 C 0.60783 0.68552 0.16812 0.0
C709 C 0.58584 0.66037 0.11742 0.0
C710 C 0.57244 0.62645 0.13588 0.0
C711 C 0.56099 0.60512 0.18039 0.0
C712 C 0.56479 0.61829 0.20582 0.0
C713 C 0.58143 0.63861 0.16142 0.0
C714 C 0.59288 0.66461 0.21234 0.0
C715 C 0.6149 0.69786 0.1937 0.0
H716 H 0.43514 0.96315 0.17144 0.0
H717 H 0.34905 0.94138 0.23611 0.0
H718 H 0.28251 0.91846 0.20856 0.0
H719 H 0.24714 0.89105 0.16659 0.0
H720 H 0.3337 0.91423 0.10197 0.0
H721 H 0.40212 0.9513 0.12869 0.0
C722 C 0.4021 0.95503 0.17931 0.0
C723 C 0.39661 0.95391 0.20557 0.0
C724 C 0.36419 0.94193 0.16334 0.0
C725 C 0.35384 0.94294 0.21584 0.0
C726 C 0.3158 0.92945 0.20011 0.0
C727 C 0.28117 0.90629 0.15832 0.0
C728 C 0.28579 0.90058 0.13247 0.0
C729 C 0.32023 0.92702 0.1739 0.0
C730 C 0.32973 0.91917 0.12183 0.0
C731 C 0.36874 0.93979 0.13715 0.0
H732 H 0.4264 0.07859 0.89109 0.0
H733 H 0.35581 0.1349 0.84941 0.0
H734 H 0.36244 0.09889 0.81074 0.0
H735 H 0.40078 0.0635 0.78785 0.0
H736 H 0.4701 0.00588 0.8294 0.0
H737 H 0.45009 0.02864 0.86917 0.0
C738 C 0.41147 0.08191 0.87363 0.0
C739 C 0.39122 0.10982 0.87296 0.0
C740 C 0.41507 0.06073 0.85149 0.0
C741 C 0.37156 0.11359 0.85037 0.0
C742 C 0.37553 0.09317 0.82823 0.0
C743 C 0.40944 0.05393 0.80569 0.0
C744 C 0.43665 0.03289 0.80575 0.0
C745 C 0.39874 0.06814 0.82841 0.0
C746 C 0.44842 0.02127 0.8289 0.0
C747 C 0.43775 0.03513 0.85164 0.0
H748 H 0.97103 0.43545 0.83255 0.0
H749 H 0.92056 0.34939 0.76668 0.0
H750 H 0.8925 0.28085 0.79299 0.0
H751 H 0.8725 0.2457 0.83537 0.0
H752 H 0.92527 0.33146 0.90121 0.0
H753 H 0.96313 0.39981 0.87451 0.0
C754 C 0.95539 0.40168 0.824 0.0
C755 C 0.94821 0.39722 0.79779 0.0
C756 C 0.93955 0.36244 0.83929 0.0
C757 C 0.92712 0.35344 0.78681 0.0
C758 C 0.91071 0.31429 0.80187 0.0
C759 C 0.89386 0.27926 0.84372 0.0
C760 C 0.89679 0.28373 0.87011 0.0
C761 C 0.91544 0.31833 0.8282 0.0
C762 C 0.92352 0.32731 0.88089 0.0
C763 C 0.94467 0.3664 0.86563 0.0
H764 H 0.66466 0.58851 0.78858 0.0
H765 H 0.54199 0.51581 0.83344 0.0
H766 H 0.58653 0.54837 0.872 0.0
H767 H 0.66212 0.58568 0.89269 0.0
H768 H 0.78462 0.66047 0.84802 0.0
H769 H 0.73845 0.64031 0.80952 0.0
C770 C 0.64772 0.58103 0.8068 0.0
C771 C 0.60053 0.54958 0.80842 0.0
C772 C 0.67348 0.60012 0.82881 0.0
C773 C 0.57842 0.54009 0.83192 0.0
C774 C 0.60387 0.55846 0.85393 0.0
C775 C 0.67838 0.59904 0.87458 0.0
C776 C 0.72646 0.62398 0.87298 0.0
C777 C 0.65166 0.58692 0.85262 0.0
C778 C 0.74755 0.64132 0.84958 0.0
C779 C 0.7212 0.6293 0.82757 0.0
H780 H 0.91841 0.59915 0.78193 0.0
H781 H 0.99213 0.5501 0.82662 0.0
H782 H 0.97887 0.58344 0.8646 0.0
H783 H 0.93282 0.61285 0.88581 0.0
H784 H 0.85804 0.66 0.84069 0.0
H785 H 0.8861 0.64248 0.80213 0.0
C786 C 0.93282 0.59713 0.79988 0.0
C787 C 0.9558 0.57195 0.80159 0.0
C788 C 0.92464 0.61596 0.82158 0.0
C789 C 0.97449 0.56953 0.82486 0.0
C790 C 0.96655 0.58826 0.84662 0.0
C791 C 0.92472 0.62139 0.86751 0.0
C792 C 0.89393 0.63816 0.86595 0.0
C793 C 0.93992 0.60979 0.84537 0.0
C794 C 0.88232 0.64779 0.84221 0.0
C795 C 0.89786 0.63719 0.82018 0.0
H796 H 0.37232 0.23724 0.8487 0.0
H797 H 0.43182 0.33507 0.9092 0.0
H798 H 0.45402 0.39831 0.87944 0.0
H799 H 0.46743 0.4253 0.83539 0.0
H800 H 0.40826 0.32783 0.77474 0.0
H801 H 0.37393 0.26472 0.80518 0.0
C802 C 0.38867 0.2724 0.85534 0.0
C803 C 0.40019 0.28184 0.88098 0.0
C804 C 0.40156 0.30848 0.83805 0.0
C805 C 0.42215 0.32731 0.88954 0.0
C806 C 0.43513 0.36338 0.87251 0.0
C807 C 0.44536 0.39035 0.82901 0.0
C808 C 0.43964 0.38098 0.80302 0.0
C809 C 0.42646 0.3544 0.84662 0.0
C810 C 0.41209 0.33567 0.79473 0.0
C811 C 0.39304 0.29963 0.81212 0.0
H812 H 0.56959 0.02083 0.83621 0.0
H813 H 0.65662 0.06379 0.77062 0.0
H814 H 0.72503 0.09455 0.7975 0.0
H815 H 0.75929 0.12248 0.83993 0.0
H816 H 0.67093 0.07839 0.9051 0.0
H817 H 0.60398 0.03377 0.87839 0.0
C818 C 0.60352 0.0351 0.82788 0.0
C819 C 0.60834 0.03987 0.80163 0.0
C820 C 0.64249 0.05308 0.84346 0.0
C821 C 0.6523 0.0591 0.79086 0.0
C822 C 0.6914 0.07721 0.80625 0.0
C823 C 0.72561 0.10147 0.84824 0.0
C824 C 0.71969 0.10404 0.87432 0.0
C825 C 0.68696 0.07627 0.83262 0.0
C826 C 0.67594 0.07719 0.88498 0.0
C827 C 0.63766 0.05185 0.86972 0.0
H828 H 0.61431 0.92593 0.12182 0.0
H829 H 0.63467 0.8311 0.16688 0.0
H830 H 0.6154 0.85859 0.20507 0.0
H831 H 0.57942 0.89904 0.2242 0.0
H832 H 0.55467 0.99138 0.17948 0.0
H833 H 0.58969 0.97636 0.14274 0.0
C834 C 0.61642 0.91289 0.14018 0.0
C835 C 0.62646 0.87706 0.14172 0.0
C836 C 0.6036 0.92781 0.16202 0.0
C837 C 0.62772 0.85921 0.16542 0.0
C838 C 0.61622 0.87457 0.18719 0.0
C839 C 0.58284 0.91682 0.20657 0.0
C840 C 0.56412 0.94588 0.20444 0.0
C841 C 0.60208 0.90728 0.18553 0.0
C842 C 0.56897 0.96896 0.18159 0.0
C843 C 0.58863 0.96003 0.16052 0.0
H844 H 0.08671 0.66575 0.12373 0.0
H845 H 0.13953 0.78765 0.16937 0.0
H846 H 0.10872 0.74072 0.20742 0.0
H847 H 0.08 0.66508 0.2279 0.0
H848 H 0.02955 0.54408 0.18173 0.0
H849 H 0.04529 0.59018 0.14357 0.0
C850 C 0.09016 0.68188 0.14197 0.0
C851 C 0.11555 0.72977 0.14397 0.0
C852 C 0.07307 0.65475 0.16362 0.0
C853 C 0.11982 0.75069 0.16751 0.0
C854 C 0.10262 0.72387 0.18925 0.0
C855 C 0.07074 0.64889 0.20948 0.0
C856 C 0.0534 0.6015 0.20737 0.0
C857 C 0.08099 0.67588 0.18762 0.0
C858 C 0.04242 0.58055 0.18357 0.0
C859 C 0.05181 0.60692 0.1618 0.0
H860 H 0.43812 0.4649 0.17094 0.0
H861 H 0.34511 0.41359 0.23396 0.0
H862 H 0.27961 0.37613 0.20512 0.0
H863 H 0.24884 0.36988 0.16198 0.0
H864 H 0.34181 0.41791 0.09887 0.0
H865 H 0.40749 0.44415 0.1275 0.0
C866 C 0.40362 0.44377 0.17825 0.0
C867 C 0.39622 0.4415 0.20443 0.0
C868 C 0.36621 0.42238 0.16151 0.0
C869 C 0.35146 0.415 0.21384 0.0
C870 C 0.31402 0.39407 0.19735 0.0
C871 C 0.28343 0.38447 0.15455 0.0
C872 C 0.29079 0.39201 0.12847 0.0
C873 C 0.32089 0.39913 0.17115 0.0
C874 C 0.33558 0.41149 0.11891 0.0
C875 C 0.37308 0.42679 0.13529 0.0
H876 H 0.75474 0.74397 0.56052 0.0
H877 H 0.67695 0.7869 0.51484 0.0
H878 H 0.69007 0.7518 0.47759 0.0
H879 H 0.73756 0.7236 0.45706 0.0
H880 H 0.81753 0.68384 0.50303 0.0
H881 H 0.78886 0.70169 0.54128 0.0
C882 C 0.7396 0.7444 0.54252 0.0
C883 C 0.71571 0.76853 0.54019 0.0
C884 C 0.74786 0.72477 0.52127 0.0
C885 C 0.69562 0.76855 0.51697 0.0
C886 C 0.70341 0.74878 0.49566 0.0
C887 C 0.7467 0.71675 0.47553 0.0
C888 C 0.77903 0.70205 0.47747 0.0
C889 C 0.73133 0.72874 0.49738 0.0
C890 C 0.79199 0.69443 0.50132 0.0
C891 C 0.77611 0.70523 0.52312 0.0
H892 H 0.24539 0.99341 0.45022 0.0
H893 H 0.32453 0.11899 0.49165 0.0
H894 H 0.30948 0.076 0.531 0.0
H895 H 0.26215 0.00402 0.55418 0.0
H896 H 0.18421 0.87778 0.5131 0.0
H897 H 0.211 0.91913 0.47305 0.0
C898 C 0.26103 0.01101 0.46773 0.0
C899 C 0.28652 0.05922 0.4681 0.0
C900 C 0.25178 0.9859 0.49038 0.0
C901 C 0.30554 0.08189 0.49094 0.0
C902 C 0.29647 0.05731 0.51347 0.0
C903 C 0.25254 0.98544 0.53643 0.0
C904 C 0.22143 0.938 0.53651 0.0
C905 C 0.26801 0.00951 0.51354 0.0
C906 C 0.20868 0.9142 0.51347 0.0
C907 C 0.22359 0.93796 0.49057 0.0
H908 H 0.0123 0.27088 0.55251 0.0
H909 H 0.12911 0.3043 0.50523 0.0
H910 H 0.08115 0.28494 0.46756 0.0
H911 H 0.00389 0.24427 0.44916 0.0
H912 H 0.88583 0.20526 0.49634 0.0
H913 H 0.93579 0.24137 0.53293 0.0
C914 C 0.02732 0.27573 0.53385 0.0
C915 C 0.07401 0.28935 0.53142 0.0
C916 C 0.99903 0.26272 0.51233 0.0
C917 C 0.09325 0.29434 0.50733 0.0
C918 C 0.06577 0.28287 0.48585 0.0
C919 C 0.98945 0.24545 0.46729 0.0
C920 C 0.94169 0.22296 0.47025 0.0
C921 C 0.01831 0.26498 0.48823 0.0
C922 C 0.92275 0.22329 0.49378 0.0
C923 C 0.95127 0.24349 0.51468 0.0
H924 H 0.26323 0.25583 0.55709 0.0
H925 H 0.21023 0.32683 0.51309 0.0
H926 H 0.23617 0.30733 0.4743 0.0
H927 H 0.26045 0.25751 0.45296 0.0
H928 H 0.31589 0.18884 0.49696 0.0
H929 H 0.30328 0.22054 0.53577 0.0
C930 C 0.25894 0.26845 0.53905 0.0
C931 C 0.23428 0.2921 0.53785 0.0
C932 C 0.27378 0.2569 0.51686 0.0
C933 C 0.22905 0.30852 0.51446 0.0
C934 C 0.24347 0.29695 0.49226 0.0
C935 C 0.2711 0.25082 0.47102 0.0
C936 C 0.28864 0.22066 0.47227 0.0
C937 C 0.26381 0.26927 0.49319 0.0
C938 C 0.30254 0.21216 0.49563 0.0
C939 C 0.29496 0.22997 0.51781 0.0
H940 H 0.757 0.99073 0.45369 0.0
H941 H 0.8036 0.11322 0.49825 0.0
H942 H 0.76864 0.06687 0.536 0.0
H943 H 0.73687 0.99158 0.55721 0.0
H944 H 0.69049 0.86973 0.51223 0.0
H945 H 0.71185 0.91532 0.47364 0.0
C946 C 0.75842 0.00711 0.47158 0.0
C947 C 0.78319 0.05506 0.4734 0.0
C948 C 0.73814 0.98028 0.49309 0.0
C949 C 0.78462 0.07621 0.49651 0.0
C950 C 0.76485 0.04974 0.5181 0.0
C951 C 0.72943 0.97505 0.53887 0.0
C952 C 0.71171 0.92753 0.53736 0.0
C953 C 0.74299 0.00174 0.51678 0.0
C954 C 0.70336 0.90627 0.51364 0.0
C955 C 0.7162 0.93239 0.49163 0.0
H956 H 0.0984 0.79939 0.51591 0.0
H957 H 0.99947 0.7527 0.57616 0.0
H958 H 0.93681 0.71199 0.54578 0.0
H959 H 0.91012 0.70223 0.50134 0.0
H960 H 0.01008 0.75162 0.44146 0.0
H961 H 0.07237 0.77765 0.47216 0.0
C962 C 0.06323 0.7787 0.52237 0.0
C963 C 0.05335 0.77838 0.54811 0.0
C964 C 0.02754 0.75629 0.50475 0.0
C965 C 0.00773 0.75253 0.55641 0.0
C966 C 0.97193 0.72972 0.539 0.0
C967 C 0.94544 0.71687 0.4951 0.0
C968 C 0.95571 0.72512 0.46925 0.0
C969 C 0.98128 0.73292 0.51301 0.0
C970 C 1.00159 0.74506 0.46131 0.0
C971 C 0.03719 0.76021 0.47885 0.0
H972 H 0.25735 0.28773 0.05153 0.0
H973 H 0.24757 0.3571 0.98557 0.0
H974 H 0.28001 0.32026 0.95949 0.0
H975 H 0.31457 0.27079 0.95569 0.0
H976 H 0.33203 0.2079 0.02225 0.0
H977 H 0.29321 0.23921 0.04784 0.0
C978 C 0.26203 0.29432 0.03142 0.0
C979 C 0.25002 0.32484 0.02043 0.0
C980 C 0.28223 0.27423 0.01668 0.0
C981 C 0.25679 0.3338 0.99442 0.0
C982 C 0.27527 0.31272 0.9795 0.0
C983 C 0.30935 0.26373 0.97575 0.0
C984 C 0.32555 0.23696 0.98717 0.0
C985 C 0.28858 0.28325 0.99044 0.0
C986 C 0.31955 0.22846 0.0132 0.0
C987 C 0.29745 0.24635 0.02779 0.0
H988 H 0.79848 0.09521 0.00719 0.0
H989 H 0.72874 0.03616 0.93702 0.0
H990 H 0.6845 0.96141 0.95733 0.0
H991 H 0.66336 0.9136 0.99538 0.0
H992 H 0.73646 0.97034 0.0649 0.0
H993 H 0.78184 0.0454 0.04456 0.0
C994 C 0.77383 0.06584 0.99634 0.0
C995 C 0.76671 0.07121 0.97067 0.0
C996 C 0.74899 0.02277 0.00806 0.0
C997 C 0.73504 0.03283 0.95675 0.0
C998 C 0.70953 0.99017 0.96839 0.0
C999 C 0.68924 0.94248 0.00606 0.0
C1000 C 0.69619 0.93687 0.03167 0.0
C1001 C 0.71582 0.9849 0.99408 0.0
C1002 C 0.73047 0.97408 0.04519 0.0
C1003 C 0.75629 0.01689 0.03357 0.0
H1004 H 0.90817 0.65218 0.01337 0.0
H1005 H 0.96765 0.72814 0.945 0.0
H1006 H 0.04219 0.77168 0.96595 0.0
H1007 H 0.09049 0.7869 1.00334 0.0
H1008 H 0.03056 0.71524 0.07277 0.0
H1009 H 0.95568 0.67157 0.05193 0.0
C1010 C 0.93761 0.67817 1.00312 0.0
C1011 C 0.93293 0.68669 0.97766 0.0
C1012 C 0.97991 0.70395 0.01551 0.0
C1013 C 0.97078 0.72103 0.96461 0.0
C1014 C 0.01326 0.74587 0.97656 0.0
C1015 C 0.06093 0.76188 0.01393 0.0
C1016 C 0.06588 0.75395 0.03945 0.0
C1017 C 0.01821 0.7375 1.00195 0.0
C1018 C 0.02735 0.72198 0.05311 0.0
C1019 C 0.98472 0.69685 0.04117 0.0
H1020 H 0.70624 0.73992 0.05054 0.0
H1021 H 0.6722 0.79084 0.98405 0.0
H1022 H 0.70701 0.75724 0.95738 0.0
H1023 H 0.74606 0.7122 0.95278 0.0
H1024 H 0.7782 0.65984 0.01938 0.0
H1025 H 0.74527 0.69518 0.04598 0.0
C1026 C 0.70666 0.74394 0.03022 0.0
C1027 C 0.68669 0.76801 0.01938 0.0
C1028 C 0.72631 0.72412 0.01492 0.0
C1029 C 0.68722 0.77245 0.99297 0.0
C1030 C 0.70716 0.75325 0.97765 0.0
C1031 C 0.74604 0.70867 0.97311 0.0
C1032 C 0.76468 0.68337 0.98397 0.0
C1033 C 0.72665 0.72882 0.98841 0.0
C1034 C 0.76402 0.67895 0.0104 0.0
C1035 C 0.74523 0.69923 0.0257 0.0
H1036 H 0.24897 0.90293 0.99661 0.0
H1037 H 0.23334 0.95802 0.06704 0.0
H1038 H 0.27004 0.03496 0.04886 0.0
H1039 H 0.30829 0.08679 0.01324 0.0
H1040 H 0.31903 0.03123 0.94185 0.0
H1041 H 0.28222 0.95415 0.95997 0.0
C1042 C 0.2536 0.93186 0.00789 0.0
C1043 C 0.23887 0.92508 0.03312 0.0
C1044 C 0.27372 0.97577 0.99714 0.0
C1045 C 0.24436 0.96255 0.04753 0.0
C1046 C 0.26542 0.0065 0.03719 0.0
C1047 C 0.30238 0.05772 1.00167 0.0
C1048 C 0.31652 0.06454 0.97635 0.0
C1049 C 0.28047 0.01354 0.01207 0.0
C1050 C 0.3082 0.02665 0.9614 0.0
C1051 C 0.28738 0.98268 0.97177 0.0
H1052 H 0.91538 0.25103 0.00927 0.0
H1053 H 0.97164 0.24263 0.93765 0.0
H1054 H 0.0487 0.2782 0.95618 0.0
H1055 H 0.10029 0.31307 0.99274 0.0
H1056 H 0.0426 0.31572 0.06502 0.0
H1057 H 0.96594 0.28087 0.04634 0.0
C1058 C 0.94457 0.25703 0.99775 0.0
C1059 C 0.93802 0.24466 0.9721 0.0
C1060 C 0.98847 0.27638 0.00868 0.0
C1061 C 0.97592 0.25186 0.95746 0.0
C1062 C 0.01994 0.27228 0.96802 0.0
C1063 C 0.07087 0.30587 1.00437 0.0
C1064 C 0.07711 0.31716 0.03019 0.0
C1065 C 0.02668 0.28489 0.9936 0.0
C1066 C 0.03864 0.30715 0.04513 0.0
C1067 C 0.99483 0.28741 0.03444 0.0
H1068 H 0.88245 0.6365 0.33275 0.0
H1069 H 0.96124 0.66439 0.40128 0.0
H1070 H 0.0046 0.6309 0.38306 0.0
H1071 H 0.0198 0.59296 0.34797 0.0
H1072 H 0.93784 0.55928 0.28037 0.0
H1073 H 0.89593 0.59533 0.29785 0.0
C1074 C 0.90928 0.63535 0.34355 0.0
C1075 C 0.9188 0.65302 0.36826 0.0
C1076 C 0.93332 0.61477 0.33319 0.0
C1077 C 0.95319 0.65082 0.38225 0.0
C1078 C 0.97804 0.63174 0.37185 0.0
C1079 C 0.9928 0.59354 0.33704 0.0
C1080 C 0.98207 0.57363 0.31288 0.0
C1081 C 0.96831 0.61345 0.34739 0.0
C1082 C 0.9466 0.57419 0.29908 0.0
C1083 C 0.92276 0.59496 0.30903 0.0
H1084 H 0.42347 0.42822 0.34617 0.0
H1085 H 0.43533 0.37341 0.27481 0.0
H1086 H 0.40076 0.29654 0.29314 0.0
H1087 H 0.36523 0.24442 0.32932 0.0
H1088 H 0.35927 0.30034 0.40155 0.0
H1089 H 0.39366 0.3771 0.38318 0.0
C1090 C 0.41851 0.3994 0.33469 0.0
C1091 C 0.43155 0.40638 0.30911 0.0
C1092 C 0.39974 0.35549 0.34555 0.0
C1093 C 0.42563 0.3689 0.29454 0.0
C1094 C 0.40575 0.32493 0.305 0.0
C1095 C 0.37171 0.27349 0.34104 0.0
C1096 C 0.35949 0.26664 0.36674 0.0
C1097 C 0.39242 0.31774 0.33046 0.0
C1098 C 0.36856 0.30471 0.38176 0.0
C1099 C 0.38802 0.34859 0.37123 0.0
H1100 H 0.57207 0.00629 0.34693 0.0
H1101 H 0.63742 0.03645 0.27376 0.0
H1102 H 0.71263 0.07456 0.29363 0.0
H1103 H 0.76001 0.09885 0.33135 0.0
H1104 H 0.69648 0.07024 0.4049 0.0
H1105 H 0.62041 0.0322 0.38523 0.0
C1106 C 0.60278 0.02118 0.33536 0.0
C1107 C 0.59899 0.01849 0.30889 0.0
C1108 C 0.64625 0.04341 0.34692 0.0
C1109 C 0.63918 0.03815 0.29417 0.0
C1110 C 0.68232 0.05994 0.30549 0.0
C1111 C 0.72961 0.08439 0.34317 0.0
C1112 C 0.734 0.08738 0.36956 0.0
C1113 C 0.68623 0.06273 0.3318 0.0
C1114 C 0.69411 0.06857 0.38451 0.0
C1115 C 0.6506 0.0467 0.37329 0.0
H1116 H 0.40734 0.13973 0.35259 0.0
H1117 H 0.27657 0.01673 0.36264 0.0
H1118 H 0.30493 0.97189 0.34073 0.0
H1119 H 0.36613 0.9675 0.31812 0.0
H1120 H 0.49557 0.09059 0.30501 0.0
H1121 H 0.46852 0.13553 0.32833 0.0
C1122 C 0.38537 0.10307 0.35011 0.0
C1123 C 0.34008 0.08143 0.35936 0.0
C1124 C 0.40149 0.07759 0.33672 0.0
C1125 C 0.31156 0.03407 0.35567 0.0
C1126 C 0.32772 0.00842 0.34313 0.0
C1127 C 0.38848 0.00417 0.32037 0.0
C1128 C 0.43287 0.02557 0.30993 0.0
C1129 C 0.37248 0.02982 0.33344 0.0
C1130 C 0.46115 0.07324 0.31276 0.0
C1131 C 0.44578 0.09894 0.32621 0.0
H1132 H 0.97147 0.42069 0.34677 0.0
H1133 H 0.98747 0.36701 0.27589 0.0
H1134 H 0.95236 0.2901 0.29387 0.0
H1135 H 0.9186 0.23836 0.32995 0.0
H1136 H 0.89749 0.29042 0.40005 0.0
H1137 H 0.93293 0.36771 0.3822 0.0
C1138 C 0.96715 0.39208 0.33531 0.0
C1139 C 0.9822 0.39945 0.31012 0.0
C1140 C 0.94607 0.34775 0.34562 0.0
C1141 C 0.97594 0.36208 0.29532 0.0
C1142 C 0.95604 0.31816 0.3056 0.0
C1143 C 0.92175 0.26667 0.34128 0.0
C1144 C 0.90585 0.25895 0.36629 0.0
C1145 C 0.94122 0.31065 0.33075 0.0
C1146 C 0.90944 0.29566 0.3807 0.0
C1147 C 0.92981 0.33981 0.37054 0.0
H1148 H 0.76153 0.67717 0.33167 0.0
H1149 H 0.70583 0.59898 0.39978 0.0
H1150 H 0.6294 0.55817 0.38031 0.0
H1151 H 0.57792 0.54617 0.34394 0.0
H1152 H 0.63606 0.62072 0.275 0.0
H1153 H 0.71184 0.66148 0.2947 0.0
C1154 C 0.73267 0.65108 0.34224 0.0
C1155 C 0.73926 0.64135 0.36721 0.0
C1156 C 0.68919 0.62722 0.33075 0.0
C1157 C 0.70168 0.607 0.38052 0.0
C1158 C 0.65794 0.58383 0.36942 0.0
C1159 C 0.60726 0.57135 0.33329 0.0
C1160 C 0.60132 0.58066 0.30808 0.0
C1161 C 0.65118 0.59389 0.34458 0.0
C1162 C 0.63973 0.61286 0.29438 0.0
C1163 C 0.68307 0.63627 0.30566 0.0
H1164 H 0.70801 0.96755 0.65791 0.0
H1165 H 0.58061 0.84447 0.64071 0.0
H1166 H 0.53782 0.87424 0.66359 0.0
H1167 H 0.53658 0.93548 0.6885 0.0
H1168 H 0.66359 0.06038 0.70329 0.0
H1169 H 0.70659 0.02961 0.68151 0.0
C1170 C 0.67088 0.94724 0.65921 0.0
C1171 C 0.64755 0.90384 0.64773 0.0
C1172 C 0.64644 0.96485 0.67203 0.0
C1173 C 0.59939 0.87811 0.6493 0.0
C1174 C 0.57489 0.89501 0.66247 0.0
C1175 C 0.57368 0.95574 0.68705 0.0
C1176 C 0.59698 0.99995 0.69755 0.0
C1177 C 0.59805 0.9383 0.67394 0.0
C1178 C 0.64497 0.02626 0.69526 0.0
C1179 C 0.66955 0.0087 0.68284 0.0
H1180 H 0.10097 0.71832 0.62958 0.0
H1181 H 0.07686 0.79214 0.68868 0.0
H1182 H 0.04365 0.72402 0.71532 0.0
H1183 H 0.01908 0.64246 0.72139 0.0
H1184 H 0.03761 0.56722 0.66102 0.0
H1185 H 0.07574 0.63676 0.63545 0.0
C1186 C 0.08863 0.71947 0.64833 0.0
C1187 C 0.09136 0.76012 0.65713 0.0
C1188 C 0.06866 0.6799 0.66337 0.0
C1189 C 0.07483 0.7611 0.68139 0.0
C1190 C 0.056 0.72223 0.69669 0.0
C1191 C 0.032 0.64162 0.70275 0.0
C1192 C 0.0259 0.60014 0.69308 0.0
C1193 C 0.05248 0.68135 0.68784 0.0
C1194 C 0.04196 0.59897 0.66877 0.0
C1195 C 0.0637 0.63863 0.65415 0.0
H1196 H 0.23863 0.35851 0.68074 0.0
H1197 H 0.29347 0.35031 0.60852 0.0
H1198 H 0.36926 0.37916 0.62706 0.0
H1199 H 0.42102 0.40847 0.66354 0.0
H1200 H 0.36853 0.42269 0.73515 0.0
H1201 H 0.2913 0.3898 0.7173 0.0
C1202 C 0.26723 0.36306 0.66915 0.0
C1203 C 0.26041 0.35251 0.64329 0.0
C1204 C 0.31133 0.38076 0.67983 0.0
C1205 C 0.29786 0.35873 0.62844 0.0
C1206 C 0.34127 0.37503 0.63902 0.0
C1207 C 0.39257 0.40403 0.67524 0.0
C1208 C 0.40038 0.41779 0.7006 0.0
C1209 C 0.34853 0.38638 0.66466 0.0
C1210 C 0.36334 0.41247 0.7155 0.0
C1211 C 0.31916 0.39363 0.70531 0.0
H1212 H 0.96326 0.37383 0.67905 0.0
H1213 H 0.08924 0.49163 0.70389 0.0
H1214 H 0.13385 0.46541 0.67978 0.0
H1215 H 0.13733 0.40757 0.65229 0.0
H1216 H 0.01122 0.28774 0.62997 0.0
H1217 H 0.96659 0.31644 0.65194 0.0
C1218 C 1.00047 0.39384 0.67919 0.0
C1219 C 0.02271 0.43464 0.69334 0.0
C1220 C 0.02601 0.37834 0.66548 0.0
C1221 C 0.07106 0.45993 0.69334 0.0
C1222 C 0.09669 0.44508 0.67943 0.0
C1223 C 0.1001 0.38829 0.65196 0.0
C1224 C 0.0775 0.34591 0.63932 0.0
C1225 C 0.07459 0.40427 0.66544 0.0
C1226 C 0.02926 0.32059 0.63948 0.0
C1227 C 0.00375 0.33687 0.65213 0.0
H1228 H 0.5551 0.57009 0.66593 0.0
H1229 H 0.58618 0.63239 0.73984 0.0
H1230 H 0.62521 0.70858 0.72058 0.0
H1231 H 0.65288 0.75734 0.68263 0.0
H1232 H 0.62045 0.69383 0.60897 0.0
H1233 H 0.57962 0.61829 0.62836 0.0
C1234 C 0.57023 0.60027 0.6779 0.0
C1235 C 0.56785 0.59545 0.70432 0.0
C1236 C 0.59257 0.64381 0.66674 0.0
C1237 C 0.58736 0.63506 0.71946 0.0
C1238 C 0.60986 0.67865 0.70846 0.0
C1239 C 0.63681 0.72698 0.67082 0.0
C1240 C 0.63994 0.73137 0.64435 0.0
C1241 C 0.61308 0.68342 0.6821 0.0
C1242 C 0.61858 0.6916 0.62936 0.0
C1243 C 0.59525 0.6483 0.64043 0.0
H1244 H 0.31133 0.94973 0.62076 0.0
H1245 H 0.2262 0.86418 0.68134 0.0
H1246 H 0.2931 0.89101 0.70862 0.0
H1247 H 0.37487 0.94315 0.71656 0.0
H1248 H 0.4604 0.03085 0.65659 0.0
H1249 H 0.3948 0.99907 0.62809 0.0
C1250 C 0.30778 0.93641 0.63975 0.0
C1251 C 0.264 0.90519 0.64904 0.0
C1252 C 0.34645 0.95289 0.65569 0.0
C1253 C 0.25964 0.88851 0.67381 0.0
C1254 C 0.29784 0.90391 0.68948 0.0
C1255 C 0.37927 0.95516 0.69724 0.0
C1256 C 0.42257 0.98959 0.68893 0.0
C1257 C 0.34127 0.93693 0.68086 0.0
C1258 C 0.42749 0.00452 0.66369 0.0
C1259 C 0.38993 0.98632 0.64726 0.0
loop_
_geom_bond_atom_site_label_1
_geom_bond_atom_site_label_2
_geom_bond_distance
_geom_bond_site_symmetry_2
_ccdc_geom_bond_type
Fe0 O2 1.918 . S
Fe0 O5 1.997 . S
Fe0 O6 2.002 . S
Fe0 O11 1.976 . S
Fe0 O14 1.996 . S
Fe1 O2 1.918 . S
Fe1 O9 1.997 . S
Fe1 O12 1.996 . S
Fe1 O16 1.976 . S
Fe1 O19 2.002 . S
O2 Fe0 1.918 . S
O2 Fe1 1.918 . S
O2 Fe3 1.918 . S
Fe3 O2 1.918 . S
Fe3 O4 2.002 . S
Fe3 O13 1.976 . S
Fe3 O17 1.996 . S
Fe3 O20 1.997 . S
O4 Fe3 2.002 . S
O4 C21 1.295 . S
O5 Fe0 1.997 . S
O5 C21 1.235 . S
O6 Fe0 2.002 . S
O6 C7 1.295 . S
C7 O6 1.295 . S
C7 O9 1.235 . S
C8 O13 1.287 . S
C8 O14 1.255 . S
O9 Fe1 1.997 . S
O9 C7 1.235 . S
C10 O16 1.287 . S
C10 O17 1.255 . S
O11 Fe0 1.976 . S
O11 C18 1.287 . S
O12 Fe1 1.996 . S
O12 C18 1.255 . S
O13 Fe3 1.976 . S
O13 C8 1.287 . S
O14 Fe0 1.996 . S
O14 C8 1.255 . S
C15 O19 1.295 . S
C15 O20 1.235 . S
O16 Fe1 1.976 . S
O16 C10 1.287 . S
O17 Fe3 1.996 . S
O17 C10 1.255 . S
C18 O11 1.287 . S
C18 O12 1.255 . S
O19 Fe1 2.002 . S
O19 C15 1.295 . S
O20 Fe3 1.997 . S
O20 C15 1.235 . S
C21 O4 1.295 . S
C21 O5 1.235 . S
Fe22 O24 1.918 . S
Fe22 O27 1.997 . S
Fe22 O28 2.002 . S
Fe22 O33 1.976 . S
Fe22 O36 1.996 . S
Fe23 O24 1.918 . S
Fe23 O31 1.997 . S
Fe23 O34 1.996 . S
Fe23 O38 1.976 . S
Fe23 O41 2.002 . S
O24 Fe22 1.918 . S
O24 Fe23 1.918 . S
O24 Fe25 1.918 . S
Fe25 O24 1.918 . S
Fe25 O26 2.002 . S
Fe25 O35 1.976 . S
Fe25 O39 1.996 . S
Fe25 O42 1.997 . S
O26 Fe25 2.002 . S
O26 C43 1.295 . S
O27 Fe22 1.997 . S
O27 C43 1.235 . S
O28 Fe22 2.002 . S
O28 C29 1.295 . S
C29 O28 1.295 . S
C29 O31 1.235 . S
C30 O35 1.287 . S
C30 O36 1.255 . S
O31 Fe23 1.997 . S
O31 C29 1.235 . S
C32 O38 1.287 . S
C32 O39 1.255 . S
O33 Fe22 1.976 . S
O33 C40 1.287 . S
O34 Fe23 1.996 . S
O34 C40 1.255 . S
O35 Fe25 1.976 . S
O35 C30 1.287 . S
O36 Fe22 1.996 . S
O36 C30 1.255 . S
C37 O41 1.295 . S
C37 O42 1.235 . S
O38 Fe23 1.976 . S
O38 C32 1.287 . S
O39 Fe25 1.996 . S
O39 C32 1.255 . S
C40 O33 1.287 . S
C40 O34 1.255 . S
O41 Fe23 2.002 . S
O41 C37 1.295 . S
O42 Fe25 1.997 . S
O42 C37 1.235 . S
C43 O26 1.295 . S
C43 O27 1.235 . S
Fe44 O46 1.918 . S
Fe44 O49 1.997 . S
Fe44 O50 2.002 . S
Fe44 O55 1.976 . S
Fe44 O58 1.996 . S
Fe45 O46 1.918 . S
Fe45 O53 1.997 . S
Fe45 O56 1.996 . S
Fe45 O60 1.976 . S
Fe45 O63 2.002 . S
O46 Fe44 1.918 . S
O46 Fe45 1.918 . S
O46 Fe47 1.918 . S
Fe47 O46 1.918 . S
Fe47 O48 2.002 . S
Fe47 O57 1.976 . S
Fe47 O61 1.996 . S
Fe47 O64 1.997 . S
O48 Fe47 2.002 . S
O48 C65 1.295 . S
O49 Fe44 1.997 . S
O49 C65 1.235 . S
O50 Fe44 2.002 . S
O50 C51 1.295 . S
C51 O50 1.295 . S
C51 O53 1.235 . S
C52 O57 1.287 . S
C52 O58 1.255 . S
O53 Fe45 1.997 . S
O53 C51 1.235 . S
C54 O60 1.287 . S
C54 O61 1.255 . S
O55 Fe44 1.976 . S
O55 C62 1.287 . S
O56 Fe45 1.996 . S
O56 C62 1.255 . S
O57 Fe47 1.976 . S
O57 C52 1.287 . S
O58 Fe44 1.996 . S
O58 C52 1.255 . S
C59 O63 1.295 . S
C59 O64 1.235 . S
O60 Fe45 1.976 . S
O60 C54 1.287 . S
O61 Fe47 1.996 . S
O61 C54 1.255 . S
C62 O55 1.287 . S
C62 O56 1.255 . S
O63 Fe45 2.002 . S
O63 C59 1.295 . S
O64 Fe47 1.997 . S
O64 C59 1.235 . S
C65 O48 1.295 . S
C65 O49 1.235 . S
Fe66 O68 1.918 . S
Fe66 O71 1.997 . S
Fe66 O72 2.002 . S
Fe66 O77 1.976 . S
Fe66 O80 1.996 . S
Fe67 O68 1.918 . S
Fe67 O75 1.997 . S
Fe67 O78 1.996 . S
Fe67 O82 1.976 . S
Fe67 O85 2.002 . S
O68 Fe66 1.918 . S
O68 Fe67 1.918 . S
O68 Fe69 1.918 . S
Fe69 O68 1.918 . S
Fe69 O70 2.002 . S
Fe69 O79 1.976 . S
Fe69 O83 1.996 . S
Fe69 O86 1.997 . S
O70 Fe69 2.002 . S
O70 C87 1.295 . S
O71 Fe66 1.997 . S
O71 C87 1.235 . S
O72 Fe66 2.002 . S
O72 C73 1.295 . S
C73 O72 1.295 . S
C73 O75 1.235 . S
C74 O79 1.287 . S
C74 O80 1.255 . S
O75 Fe67 1.997 . S
O75 C73 1.235 . S
C76 O82 1.287 . S
C76 O83 1.255 . S
O77 Fe66 1.976 . S
O77 C84 1.287 . S
O78 Fe67 1.996 . S
O78 C84 1.255 . S
O79 Fe69 1.976 . S
O79 C74 1.287 . S
O80 Fe66 1.996 . S
O80 C74 1.255 . S
C81 O85 1.295 . S
C81 O86 1.235 . S
O82 Fe67 1.976 . S
O82 C76 1.287 . S
O83 Fe69 1.996 . S
O83 C76 1.255 . S
C84 O77 1.287 . S
C84 O78 1.255 . S
O85 Fe67 2.002 . S
O85 C81 1.295 . S
O86 Fe69 1.997 . S
O86 C81 1.235 . S
C87 O70 1.295 . S
C87 O71 1.235 . S
Fe88 O90 1.918 . S
Fe88 O93 1.997 . S
Fe88 O94 2.002 . S
Fe88 O99 1.976 . S
Fe88 O102 1.996 . S
Fe89 O90 1.918 . S
Fe89 O97 1.997 . S
Fe89 O100 1.996 . S
Fe89 O104 1.976 . S
Fe89 O107 2.002 . S
O90 Fe88 1.918 . S
O90 Fe89 1.918 . S
O90 Fe91 1.918 . S
Fe91 O90 1.918 . S
Fe91 O92 2.002 . S
Fe91 O101 1.976 . S
Fe91 O105 1.996 . S
Fe91 O108 1.997 . S
O92 Fe91 2.002 . S
O92 C109 1.295 . S
O93 Fe88 1.997 . S
O93 C109 1.235 . S
O94 Fe88 2.002 . S
O94 C95 1.295 . S
C95 O94 1.295 . S
C95 O97 1.235 . S
C96 O101 1.287 . S
C96 O102 1.255 . S
O97 Fe89 1.997 . S
O97 C95 1.235 . S
C98 O104 1.287 . S
C98 O105 1.255 . S
O99 Fe88 1.976 . S
O99 C106 1.287 . S
O100 Fe89 1.996 . S
O100 C106 1.255 . S
O101 Fe91 1.976 . S
O101 C96 1.287 . S
O102 Fe88 1.996 . S
O102 C96 1.255 . S
C103 O107 1.295 . S
C103 O108 1.235 . S
O104 Fe89 1.976 . S
O104 C98 1.287 . S
O105 Fe91 1.996 . S
O105 C98 1.255 . S
C106 O99 1.287 . S
C106 O100 1.255 . S
O107 Fe89 2.002 . S
O107 C103 1.295 . S
O108 Fe91 1.997 . S
O108 C103 1.235 . S
C109 O92 1.295 . S
C109 O93 1.235 . S
Fe110 O112 1.918 . S
Fe110 O115 1.997 . S
Fe110 O116 2.002 . S
Fe110 O121 1.976 . S
Fe110 O124 1.996 . S
Fe111 O112 1.918 . S
Fe111 O119 1.997 . S
Fe111 O122 1.996 . S
Fe111 O126 1.976 . S
Fe111 O129 2.002 . S
O112 Fe110 1.918 . S
O112 Fe111 1.918 . S
O112 Fe113 1.918 . S
Fe113 O112 1.918 . S
Fe113 O114 2.002 . S
Fe113 O123 1.976 . S
Fe113 O127 1.996 . S
Fe113 O130 1.997 . S
O114 Fe113 2.002 . S
O114 C131 1.295 . S
O115 Fe110 1.997 . S
O115 C131 1.235 . S
O116 Fe110 2.002 . S
O116 C117 1.295 . S
C117 O116 1.295 . S
C117 O119 1.235 . S
C118 O123 1.287 . S
C118 O124 1.255 . S
O119 Fe111 1.997 . S
O119 C117 1.235 . S
C120 O126 1.287 . S
C120 O127 1.255 . S
O121 Fe110 1.976 . S
O121 C128 1.287 . S
O122 Fe111 1.996 . S
O122 C128 1.255 . S
O123 Fe113 1.976 . S
O123 C118 1.287 . S
O124 Fe110 1.996 . S
O124 C118 1.255 . S
C125 O129 1.295 . S
C125 O130 1.235 . S
O126 Fe111 1.976 . S
O126 C120 1.287 . S
O127 Fe113 1.996 . S
O127 C120 1.255 . S
C128 O121 1.287 . S
C128 O122 1.255 . S
O129 Fe111 2.002 . S
O129 C125 1.295 . S
O130 Fe113 1.997 . S
O130 C125 1.235 . S
C131 O114 1.295 . S
C131 O115 1.235 . S
Fe132 O134 1.918 . S
Fe132 O137 1.997 . S
Fe132 O138 2.002 . S
Fe132 O143 1.976 . S
Fe132 O146 1.996 . S
Fe133 O134 1.918 . S
Fe133 O141 1.997 . S
Fe133 O144 1.996 . S
Fe133 O148 1.976 . S
Fe133 O151 2.002 . S
O134 Fe132 1.918 . S
O134 Fe133 1.918 . S
O134 Fe135 1.918 . S
Fe135 O134 1.918 . S
Fe135 O136 2.002 . S
Fe135 O145 1.976 . S
Fe135 O149 1.996 . S
Fe135 O152 1.997 . S
O136 Fe135 2.002 . S
O136 C153 1.295 . S
O137 Fe132 1.997 . S
O137 C153 1.235 . S
O138 Fe132 2.002 . S
O138 C139 1.295 . S
C139 O138 1.295 . S
C139 O141 1.235 . S
C140 O145 1.287 . S
C140 O146 1.255 . S
O141 Fe133 1.997 . S
O141 C139 1.235 . S
C142 O148 1.287 . S
C142 O149 1.255 . S
O143 Fe132 1.976 . S
O143 C150 1.287 . S
O144 Fe133 1.996 . S
O144 C150 1.255 . S
O145 Fe135 1.976 . S
O145 C140 1.287 . S
O146 Fe132 1.996 . S
O146 C140 1.255 . S
C147 O151 1.295 . S
C147 O152 1.235 . S
O148 Fe133 1.976 . S
O148 C142 1.287 . S
O149 Fe135 1.996 . S
O149 C142 1.255 . S
C150 O143 1.287 . S
C150 O144 1.255 . S
O151 Fe133 2.002 . S
O151 C147 1.295 . S
O152 Fe135 1.997 . S
O152 C147 1.235 . S
C153 O136 1.295 . S
C153 O137 1.235 . S
Fe154 O156 1.918 . S
Fe154 O159 1.997 . S
Fe154 O160 2.002 . S
Fe154 O165 1.976 . S
Fe154 O168 1.996 . S
Fe155 O156 1.918 . S
Fe155 O163 1.997 . S
Fe155 O166 1.996 . S
Fe155 O170 1.976 . S
Fe155 O173 2.002 . S
O156 Fe154 1.918 . S
O156 Fe155 1.918 . S
O156 Fe157 1.918 . S
Fe157 O156 1.918 . S
Fe157 O158 2.002 . S
Fe157 O167 1.976 . S
Fe157 O171 1.996 . S
Fe157 O174 1.997 . S
O158 Fe157 2.002 . S
O158 C175 1.295 . S
O159 Fe154 1.997 . S
O159 C175 1.235 . S
O160 Fe154 2.002 . S
O160 C161 1.295 . S
C161 O160 1.295 . S
C161 O163 1.235 . S
C162 O167 1.287 . S
C162 O168 1.255 . S
O163 Fe155 1.997 . S
O163 C161 1.235 . S
C164 O170 1.287 . S
C164 O171 1.255 . S
O165 Fe154 1.976 . S
O165 C172 1.287 . S
O166 Fe155 1.996 . S
O166 C172 1.255 . S
O167 Fe157 1.976 . S
O167 C162 1.287 . S
O168 Fe154 1.996 . S
O168 C162 1.255 . S
C169 O173 1.295 . S
C169 O174 1.235 . S
O170 Fe155 1.976 . S
O170 C164 1.287 . S
O171 Fe157 1.996 . S
O171 C164 1.255 . S
C172 O165 1.287 . S
C172 O166 1.255 . S
O173 Fe155 2.002 . S
O173 C169 1.295 . S
O174 Fe157 1.997 . S
O174 C169 1.235 . S
C175 O158 1.295 . S
C175 O159 1.235 . S
Fe176 O178 1.918 . S
Fe176 O181 1.997 . S
Fe176 O182 2.002 . S
Fe176 O187 1.976 . S
Fe176 O190 1.996 . S
Fe177 O178 1.918 . S
Fe177 O185 1.997 . S
Fe177 O188 1.996 . S
Fe177 O192 1.976 . S
Fe177 O195 2.002 . S
O178 Fe176 1.918 . S
O178 Fe177 1.918 . S
O178 Fe179 1.918 . S
Fe179 O178 1.918 . S
Fe179 O180 2.002 . S
Fe179 O189 1.976 . S
Fe179 O193 1.996 . S
Fe179 O196 1.997 . S
O180 Fe179 2.002 . S
O180 C197 1.295 . S
O181 Fe176 1.997 . S
O181 C197 1.235 . S
O182 Fe176 2.002 . S
O182 C183 1.295 . S
C183 O182 1.295 . S
C183 O185 1.235 . S
C184 O189 1.287 . S
C184 O190 1.255 . S
O185 Fe177 1.997 . S
O185 C183 1.235 . S
C186 O192 1.287 . S
C186 O193 1.255 . S
O187 Fe176 1.976 . S
O187 C194 1.287 . S
O188 Fe177 1.996 . S
O188 C194 1.255 . S
O189 Fe179 1.976 . S
O189 C184 1.287 . S
O190 Fe176 1.996 . S
O190 C184 1.255 . S
C191 O195 1.295 . S
C191 O196 1.235 . S
O192 Fe177 1.976 . S
O192 C186 1.287 . S
O193 Fe179 1.996 . S
O193 C186 1.255 . S
C194 O187 1.287 . S
C194 O188 1.255 . S
O195 Fe177 2.002 . S
O195 C191 1.295 . S
O196 Fe179 1.997 . S
O196 C191 1.235 . S
C197 O180 1.295 . S
C197 O181 1.235 . S
Fe198 O200 1.918 . S
Fe198 O203 1.997 . S
Fe198 O204 2.002 1_455 S
Fe198 O209 1.976 1_455 S
Fe198 O212 1.996 . S
Fe199 O200 1.918 . S
Fe199 O207 1.997 . S
Fe199 O210 1.996 . S
Fe199 O214 1.976 . S
Fe199 O217 2.002 . S
O200 Fe198 1.918 . S
O200 Fe199 1.918 . S
O200 Fe201 1.918 . S
Fe201 O200 1.918 . S
Fe201 O202 2.002 . S
Fe201 O211 1.976 . S
Fe201 O215 1.996 . S
Fe201 O218 1.997 . S
O202 Fe201 2.002 . S
O202 C219 1.295 . S
O203 Fe198 1.997 . S
O203 C219 1.235 . S
O204 Fe198 2.002 1_655 S
O204 C205 1.295 1_655 S
C205 O204 1.295 1_455 S
C205 O207 1.235 . S
C206 O211 1.287 . S
C206 O212 1.255 . S
O207 Fe199 1.997 . S
O207 C205 1.235 . S
C208 O214 1.287 . S
C208 O215 1.255 . S
O209 Fe198 1.976 1_655 S
O209 C216 1.287 1_655 S
O210 Fe199 1.996 . S
O210 C216 1.255 . S
O211 Fe201 1.976 . S
O211 C206 1.287 . S
O212 Fe198 1.996 . S
O212 C206 1.255 . S
C213 O217 1.295 . S
C213 O218 1.235 . S
O214 Fe199 1.976 . S
O214 C208 1.287 . S
O215 Fe201 1.996 . S
O215 C208 1.255 . S
C216 O209 1.287 1_455 S
C216 O210 1.255 . S
O217 Fe199 2.002 . S
O217 C213 1.295 . S
O218 Fe201 1.997 . S
O218 C213 1.235 . S
C219 O202 1.295 . S
C219 O203 1.235 . S
Fe220 O222 1.918 . S
Fe220 O225 1.997 . S
Fe220 O226 2.002 . S
Fe220 O231 1.976 . S
Fe220 O234 1.996 . S
Fe221 O222 1.918 . S
Fe221 O229 1.997 . S
Fe221 O232 1.996 . S
Fe221 O236 1.976 . S
Fe221 O239 2.002 . S
O222 Fe220 1.918 . S
O222 Fe221 1.918 . S
O222 Fe223 1.918 . S
Fe223 O222 1.918 . S
Fe223 O224 2.002 . S
Fe223 O233 1.976 . S
Fe223 O237 1.996 . S
Fe223 O240 1.997 . S
O224 Fe223 2.002 . S
O224 C241 1.295 . S
O225 Fe220 1.997 . S
O225 C241 1.235 . S
O226 Fe220 2.002 . S
O226 C227 1.295 . S
C227 O226 1.295 . S
C227 O229 1.235 . S
C228 O233 1.287 . S
C228 O234 1.255 . S
O229 Fe221 1.997 . S
O229 C227 1.235 . S
C230 O236 1.287 . S
C230 O237 1.255 . S
O231 Fe220 1.976 . S
O231 C238 1.287 . S
O232 Fe221 1.996 . S
O232 C238 1.255 . S
O233 Fe223 1.976 . S
O233 C228 1.287 . S
O234 Fe220 1.996 . S
O234 C228 1.255 . S
C235 O239 1.295 . S
C235 O240 1.235 . S
O236 Fe221 1.976 . S
O236 C230 1.287 . S
O237 Fe223 1.996 . S
O237 C230 1.255 . S
C238 O231 1.287 . S
C238 O232 1.255 . S
O239 Fe221 2.002 . S
O239 C235 1.295 . S
O240 Fe223 1.997 . S
O240 C235 1.235 . S
C241 O224 1.295 . S
C241 O225 1.235 . S
Fe242 O244 1.918 . S
Fe242 O247 1.997 . S
Fe242 O248 2.002 1_565 S
Fe242 O253 1.976 1_565 S
Fe242 O256 1.996 . S
Fe243 O244 1.918 . S
Fe243 O251 1.997 . S
Fe243 O254 1.996 . S
Fe243 O258 1.976 . S
Fe243 O261 2.002 . S
O244 Fe242 1.918 . S
O244 Fe243 1.918 . S
O244 Fe245 1.918 . S
Fe245 O244 1.918 . S
Fe245 O246 2.002 . S
Fe245 O255 1.976 . S
Fe245 O259 1.996 . S
Fe245 O262 1.997 . S
O246 Fe245 2.002 . S
O246 C263 1.295 . S
O247 Fe242 1.997 . S
O247 C263 1.235 . S
O248 Fe242 2.002 1_545 S
O248 C249 1.295 1_545 S
C249 O248 1.295 1_565 S
C249 O251 1.235 . S
C250 O255 1.287 . S
C250 O256 1.255 . S
O251 Fe243 1.997 . S
O251 C249 1.235 . S
C252 O258 1.287 . S
C252 O259 1.255 . S
O253 Fe242 1.976 1_545 S
O253 C260 1.287 1_545 S
O254 Fe243 1.996 . S
O254 C260 1.255 . S
O255 Fe245 1.976 . S
O255 C250 1.287 . S
O256 Fe242 1.996 . S
O256 C250 1.255 . S
C257 O261 1.295 . S
C257 O262 1.235 . S
O258 Fe243 1.976 . S
O258 C252 1.287 . S
O259 Fe245 1.996 . S
O259 C252 1.255 . S
C260 O253 1.287 1_565 S
C260 O254 1.255 . S
O261 Fe243 2.002 . S
O261 C257 1.295 . S
O262 Fe245 1.997 . S
O262 C257 1.235 . S
C263 O246 1.295 . S
C263 O247 1.235 . S
Fe264 O266 1.918 . S
Fe264 O269 1.997 . S
Fe264 O270 2.002 1_545 S
Fe264 O275 1.976 1_545 S
Fe264 O278 1.996 . S
Fe265 O266 1.918 . S
Fe265 O273 1.997 . S
Fe265 O276 1.996 . S
Fe265 O280 1.976 . S
Fe265 O283 2.002 . S
O266 Fe264 1.918 . S
O266 Fe265 1.918 . S
O266 Fe267 1.918 . S
Fe267 O266 1.918 . S
Fe267 O268 2.002 . S
Fe267 O277 1.976 . S
Fe267 O281 1.996 . S
Fe267 O284 1.997 . S
O268 Fe267 2.002 . S
O268 C285 1.295 . S
O269 Fe264 1.997 . S
O269 C285 1.235 . S
O270 Fe264 2.002 1_565 S
O270 C271 1.295 1_565 S
C271 O270 1.295 1_545 S
C271 O273 1.235 . S
C272 O277 1.287 . S
C272 O278 1.255 . S
O273 Fe265 1.997 . S
O273 C271 1.235 . S
C274 O280 1.287 . S
C274 O281 1.255 . S
O275 Fe264 1.976 1_565 S
O275 C282 1.287 1_565 S
O276 Fe265 1.996 . S
O276 C282 1.255 . S
O277 Fe267 1.976 . S
O277 C272 1.287 . S
O278 Fe264 1.996 . S
O278 C272 1.255 . S
C279 O283 1.295 . S
C279 O284 1.235 . S
O280 Fe265 1.976 . S
O280 C274 1.287 . S
O281 Fe267 1.996 . S
O281 C274 1.255 . S
C282 O275 1.287 1_545 S
C282 O276 1.255 . S
O283 Fe265 2.002 . S
O283 C279 1.295 . S
O284 Fe267 1.997 . S
O284 C279 1.235 . S
C285 O268 1.295 . S
C285 O269 1.235 . S
Fe286 O288 1.918 . S
Fe286 O291 1.997 . S
Fe286 O292 2.002 . S
Fe286 O297 1.976 . S
Fe286 O300 1.996 . S
Fe287 O288 1.918 . S
Fe287 O295 1.997 . S
Fe287 O298 1.996 . S
Fe287 O302 1.976 1_655 S
Fe287 O305 2.002 1_655 S
O288 Fe286 1.918 . S
O288 Fe287 1.918 . S
O288 Fe289 1.918 . S
Fe289 O288 1.918 . S
Fe289 O290 2.002 . S
Fe289 O299 1.976 . S
Fe289 O303 1.996 . S
Fe289 O306 1.997 . S
O290 Fe289 2.002 . S
O290 C307 1.295 . S
O291 Fe286 1.997 . S
O291 C307 1.235 . S
O292 Fe286 2.002 . S
O292 C293 1.295 . S
C293 O292 1.295 . S
C293 O295 1.235 . S
C294 O299 1.287 . S
C294 O300 1.255 . S
O295 Fe287 1.997 . S
O295 C293 1.235 . S
C296 O302 1.287 1_655 S
C296 O303 1.255 . S
O297 Fe286 1.976 . S
O297 C304 1.287 . S
O298 Fe287 1.996 . S
O298 C304 1.255 . S
O299 Fe289 1.976 . S
O299 C294 1.287 . S
O300 Fe286 1.996 . S
O300 C294 1.255 . S
C301 O305 1.295 1_655 S
C301 O306 1.235 . S
O302 Fe287 1.976 1_455 S
O302 C296 1.287 1_455 S
O303 Fe289 1.996 . S
O303 C296 1.255 . S
C304 O297 1.287 . S
C304 O298 1.255 . S
O305 Fe287 2.002 1_455 S
O305 C301 1.295 1_455 S
O306 Fe289 1.997 . S
O306 C301 1.235 . S
C307 O290 1.295 . S
C307 O291 1.235 . S
Fe308 O310 1.918 . S
Fe308 O313 1.997 . S
Fe308 O314 2.002 . S
Fe308 O319 1.976 . S
Fe308 O322 1.996 . S
Fe309 O310 1.918 . S
Fe309 O317 1.997 . S
Fe309 O320 1.996 . S
Fe309 O324 1.976 . S
Fe309 O327 2.002 . S
O310 Fe308 1.918 . S
O310 Fe309 1.918 . S
O310 Fe311 1.918 . S
Fe311 O310 1.918 . S
Fe311 O312 2.002 . S
Fe311 O321 1.976 . S
Fe311 O325 1.996 . S
Fe311 O328 1.997 . S
O312 Fe311 2.002 . S
O312 C329 1.295 . S
O313 Fe308 1.997 . S
O313 C329 1.235 . S
O314 Fe308 2.002 . S
O314 C315 1.295 . S
C315 O314 1.295 . S
C315 O317 1.235 . S
C316 O321 1.287 . S
C316 O322 1.255 . S
O317 Fe309 1.997 . S
O317 C315 1.235 . S
C318 O324 1.287 . S
C318 O325 1.255 . S
O319 Fe308 1.976 . S
O319 C326 1.287 . S
O320 Fe309 1.996 . S
O320 C326 1.255 . S
O321 Fe311 1.976 . S
O321 C316 1.287 . S
O322 Fe308 1.996 . S
O322 C316 1.255 . S
C323 O327 1.295 . S
C323 O328 1.235 . S
O324 Fe309 1.976 . S
O324 C318 1.287 . S
O325 Fe311 1.996 . S
O325 C318 1.255 . S
C326 O319 1.287 . S
C326 O320 1.255 . S
O327 Fe309 2.002 . S
O327 C323 1.295 . S
O328 Fe311 1.997 . S
O328 C323 1.235 . S
C329 O312 1.295 . S
C329 O313 1.235 . S
Fe330 O332 1.918 . S
Fe330 O335 1.997 . S
Fe330 O336 2.002 . S
Fe330 O341 1.976 . S
Fe330 O344 1.996 . S
Fe331 O332 1.918 . S
Fe331 O339 1.997 . S
Fe331 O342 1.996 . S
Fe331 O346 1.976 . S
Fe331 O349 2.002 . S
O332 Fe330 1.918 . S
O332 Fe331 1.918 . S
O332 Fe333 1.918 . S
Fe333 O332 1.918 . S
Fe333 O334 2.002 . S
Fe333 O343 1.976 . S
Fe333 O347 1.996 . S
Fe333 O350 1.997 . S
O334 Fe333 2.002 . S
O334 C351 1.295 . S
O335 Fe330 1.997 . S
O335 C351 1.235 . S
O336 Fe330 2.002 . S
O336 C337 1.295 . S
C337 O336 1.295 . S
C337 O339 1.235 . S
C338 O343 1.287 . S
C338 O344 1.255 . S
O339 Fe331 1.997 . S
O339 C337 1.235 . S
C340 O346 1.287 . S
C340 O347 1.255 . S
O341 Fe330 1.976 . S
O341 C348 1.287 . S
O342 Fe331 1.996 . S
O342 C348 1.255 . S
O343 Fe333 1.976 . S
O343 C338 1.287 . S
O344 Fe330 1.996 . S
O344 C338 1.255 . S
C345 O349 1.295 . S
C345 O350 1.235 . S
O346 Fe331 1.976 . S
O346 C340 1.287 . S
O347 Fe333 1.996 . S
O347 C340 1.255 . S
C348 O341 1.287 . S
C348 O342 1.255 . S
O349 Fe331 2.002 . S
O349 C345 1.295 . S
O350 Fe333 1.997 . S
O350 C345 1.235 . S
C351 O334 1.295 . S
C351 O335 1.235 . S
Fe352 O354 1.918 . S
Fe352 O357 1.997 . S
Fe352 O358 2.002 . S
Fe352 O363 1.976 . S
Fe352 O366 1.996 . S
Fe353 O354 1.918 . S
Fe353 O361 1.997 . S
Fe353 O364 1.996 . S
Fe353 O368 1.976 . S
Fe353 O371 2.002 . S
O354 Fe352 1.918 . S
O354 Fe353 1.918 . S
O354 Fe355 1.918 . S
Fe355 O354 1.918 . S
Fe355 O356 2.002 . S
Fe355 O365 1.976 . S
Fe355 O369 1.996 . S
Fe355 O372 1.997 . S
O356 Fe355 2.002 . S
O356 C373 1.295 . S
O357 Fe352 1.997 . S
O357 C373 1.235 . S
O358 Fe352 2.002 . S
O358 C359 1.295 . S
C359 O358 1.295 . S
C359 O361 1.235 . S
C360 O365 1.287 . S
C360 O366 1.255 . S
O361 Fe353 1.997 . S
O361 C359 1.235 . S
C362 O368 1.287 . S
C362 O369 1.255 . S
O363 Fe352 1.976 . S
O363 C370 1.287 . S
O364 Fe353 1.996 . S
O364 C370 1.255 . S
O365 Fe355 1.976 . S
O365 C360 1.287 . S
O366 Fe352 1.996 . S
O366 C360 1.255 . S
C367 O371 1.295 . S
C367 O372 1.235 . S
O368 Fe353 1.976 . S
O368 C362 1.287 . S
O369 Fe355 1.996 . S
O369 C362 1.255 . S
C370 O363 1.287 . S
C370 O364 1.255 . S
O371 Fe353 2.002 . S
O371 C367 1.295 . S
O372 Fe355 1.997 . S
O372 C367 1.235 . S
C373 O356 1.295 . S
C373 O357 1.235 . S
Fe374 O376 1.918 . S
Fe374 O379 1.997 . S
Fe374 O380 2.002 . S
Fe374 O385 1.976 . S
Fe374 O388 1.996 . S
Fe375 O376 1.918 . S
Fe375 O383 1.997 . S
Fe375 O386 1.996 . S
Fe375 O390 1.976 . S
Fe375 O393 2.002 . S
O376 Fe374 1.918 . S
O376 Fe375 1.918 . S
O376 Fe377 1.918 . S
Fe377 O376 1.918 . S
Fe377 O378 2.002 . S
Fe377 O387 1.976 . S
Fe377 O391 1.996 . S
Fe377 O394 1.997 . S
O378 Fe377 2.002 . S
O378 C395 1.295 . S
O379 Fe374 1.997 . S
O379 C395 1.235 . S
O380 Fe374 2.002 . S
O380 C381 1.295 . S
C381 O380 1.295 . S
C381 O383 1.235 . S
C382 O387 1.287 . S
C382 O388 1.255 . S
O383 Fe375 1.997 . S
O383 C381 1.235 . S
C384 O390 1.287 . S
C384 O391 1.255 . S
O385 Fe374 1.976 . S
O385 C392 1.287 . S
O386 Fe375 1.996 . S
O386 C392 1.255 . S
O387 Fe377 1.976 . S
O387 C382 1.287 . S
O388 Fe374 1.996 . S
O388 C382 1.255 . S
C389 O393 1.295 . S
C389 O394 1.235 . S
O390 Fe375 1.976 . S
O390 C384 1.287 . S
O391 Fe377 1.996 . S
O391 C384 1.255 . S
C392 O385 1.287 . S
C392 O386 1.255 . S
O393 Fe375 2.002 . S
O393 C389 1.295 . S
O394 Fe377 1.997 . S
O394 C389 1.235 . S
C395 O378 1.295 . S
C395 O379 1.235 . S
H396 C402 0.930 . S
H397 C405 0.930 . S
H398 C406 0.930 . S
H399 C407 0.930 . S
H400 C410 0.930 . S
H401 C411 0.930 . S
C402 H396 0.930 . S
C402 C403 1.355 . S
C402 C404 1.415 . S
C403 C402 1.355 . S
C403 C405 1.419 . S
C404 C402 1.415 . S
C404 C409 1.425 . S
C404 C411 1.409 . S
C405 H397 0.930 . S
C405 C403 1.419 . S
C405 C406 1.362 . S
C406 H398 0.930 . S
C406 C405 1.362 . S
C406 C409 1.409 . S
C407 H399 0.930 . S
C407 C408 1.355 . S
C407 C409 1.415 . S
C408 C407 1.355 . S
C408 C410 1.419 . S
C409 C404 1.425 . S
C409 C406 1.409 . S
C409 C407 1.415 . S
C410 H400 0.930 . S
C410 C408 1.419 . S
C410 C411 1.362 . S
C411 H401 0.930 . S
C411 C404 1.409 . S
C411 C410 1.362 . S
H412 C418 0.930 . S
H413 C421 0.930 . S
H414 C422 0.930 . S
H415 C423 0.930 . S
H416 C426 0.930 . S
H417 C427 0.930 . S
C418 H412 0.930 . S
C418 C419 1.355 . S
C418 C420 1.415 . S
C419 C418 1.355 . S
C419 C421 1.419 . S
C420 C418 1.415 . S
C420 C425 1.425 . S
C420 C427 1.409 . S
C421 H413 0.930 . S
C421 C419 1.419 . S
C421 C422 1.362 . S
C422 H414 0.930 . S
C422 C421 1.362 . S
C422 C425 1.409 . S
C423 H415 0.930 . S
C423 C424 1.355 . S
C423 C425 1.415 . S
C424 C423 1.355 . S
C424 C426 1.419 . S
C425 C420 1.425 . S
C425 C422 1.409 . S
C425 C423 1.415 . S
C426 H416 0.930 . S
C426 C424 1.419 . S
C426 C427 1.362 . S
C427 H417 0.930 . S
C427 C420 1.409 . S
C427 C426 1.362 . S
H428 C434 0.930 . S
H429 C437 0.930 . S
H430 C438 0.930 . S
H431 C439 0.930 . S
H432 C442 0.930 . S
H433 C443 0.930 . S
C434 H428 0.930 . S
C434 C435 1.355 . S
C434 C436 1.415 . S
C435 C434 1.355 . S
C435 C437 1.419 . S
C436 C434 1.415 . S
C436 C441 1.425 . S
C436 C443 1.409 . S
C437 H429 0.930 . S
C437 C435 1.419 . S
C437 C438 1.362 . S
C438 H430 0.930 . S
C438 C437 1.362 . S
C438 C441 1.409 . S
C439 H431 0.930 . S
C439 C440 1.355 . S
C439 C441 1.415 . S
C440 C439 1.355 . S
C440 C442 1.419 . S
C441 C436 1.425 . S
C441 C438 1.409 . S
C441 C439 1.415 . S
C442 H432 0.930 . S
C442 C440 1.419 . S
C442 C443 1.362 . S
C443 H433 0.930 . S
C443 C436 1.409 . S
C443 C442 1.362 . S
H444 C450 0.930 . S
H445 C453 0.930 . S
H446 C454 0.930 . S
H447 C455 0.930 . S
H448 C458 0.930 . S
H449 C459 0.930 . S
C450 H444 0.930 . S
C450 C451 1.355 . S
C450 C452 1.415 . S
C451 C450 1.355 . S
C451 C453 1.419 . S
C452 C450 1.415 . S
C452 C457 1.425 . S
C452 C459 1.409 . S
C453 H445 0.930 . S
C453 C451 1.419 . S
C453 C454 1.362 . S
C454 H446 0.930 . S
C454 C453 1.362 . S
C454 C457 1.409 . S
C455 H447 0.930 . S
C455 C456 1.355 . S
C455 C457 1.415 . S
C456 C455 1.355 . S
C456 C458 1.419 . S
C457 C452 1.425 . S
C457 C454 1.409 . S
C457 C455 1.415 . S
C458 H448 0.930 . S
C458 C456 1.419 . S
C458 C459 1.362 . S
C459 H449 0.930 . S
C459 C452 1.409 . S
C459 C458 1.362 . S
H460 C466 0.930 . S
H461 C469 0.930 . S
H462 C470 0.930 . S
H463 C471 0.930 . S
H464 C474 0.930 . S
H465 C475 0.930 . S
C466 H460 0.930 . S
C466 C467 1.355 . S
C466 C468 1.415 . S
C467 C466 1.355 . S
C467 C469 1.419 . S
C468 C466 1.415 . S
C468 C473 1.425 . S
C468 C475 1.409 . S
C469 H461 0.930 . S
C469 C467 1.419 . S
C469 C470 1.362 . S
C470 H462 0.930 . S
C470 C469 1.362 . S
C470 C473 1.409 . S
C471 H463 0.930 . S
C471 C472 1.355 . S
C471 C473 1.415 . S
C472 C471 1.355 . S
C472 C474 1.419 . S
C473 C468 1.425 . S
C473 C470 1.409 . S
C473 C471 1.415 . S
C474 H464 0.930 . S
C474 C472 1.419 . S
C474 C475 1.362 . S
C475 H465 0.930 . S
C475 C468 1.409 . S
C475 C474 1.362 . S
H476 C482 0.930 . S
H477 C485 0.930 . S
H478 C486 0.930 . S
H479 C487 0.930 . S
H480 C490 0.930 . S
H481 C491 0.930 . S
C482 H476 0.930 . S
C482 C483 1.355 . S
C482 C484 1.415 . S
C483 C482 1.355 . S
C483 C485 1.419 . S
C484 C482 1.415 . S
C484 C489 1.425 . S
C484 C491 1.409 . S
C485 H477 0.930 . S
C485 C483 1.419 . S
C485 C486 1.362 . S
C486 H478 0.930 . S
C486 C485 1.362 . S
C486 C489 1.409 . S
C487 H479 0.930 . S
C487 C488 1.355 . S
C487 C489 1.415 . S
C488 C487 1.355 . S
C488 C490 1.419 . S
C489 C484 1.425 . S
C489 C486 1.409 . S
C489 C487 1.415 . S
C490 H480 0.930 . S
C490 C488 1.419 . S
C490 C491 1.362 . S
C491 H481 0.930 . S
C491 C484 1.409 . S
C491 C490 1.362 . S
H492 C498 0.930 . S
H493 C501 0.930 . S
H494 C502 0.930 . S
H495 C503 0.930 . S
H496 C506 0.930 . S
H497 C507 0.930 . S
C498 H492 0.930 . S
C498 C499 1.355 1_565 S
C498 C500 1.415 . S
C499 C498 1.355 1_545 S
C499 C501 1.419 . S
C500 C498 1.415 . S
C500 C505 1.425 . S
C500 C507 1.409 . S
C501 H493 0.930 . S
C501 C499 1.419 . S
C501 C502 1.362 1_545 S
C502 H494 0.930 . S
C502 C501 1.362 1_565 S
C502 C505 1.409 . S
C503 H495 0.930 . S
C503 C504 1.355 . S
C503 C505 1.415 . S
C504 C503 1.355 . S
C504 C506 1.419 . S
C505 C500 1.425 . S
C505 C502 1.409 . S
C505 C503 1.415 . S
C506 H496 0.930 . S
C506 C504 1.419 . S
C506 C507 1.362 . S
C507 H497 0.930 . S
C507 C500 1.409 . S
C507 C506 1.362 . S
H508 C514 0.930 . S
H509 C517 0.930 1_655 S
H510 C518 0.930 . S
H511 C519 0.930 . S
H512 C522 0.930 . S
H513 C523 0.930 . S
C514 H508 0.930 . S
C514 C515 1.366 . S
C514 C516 1.415 . S
C515 C514 1.366 . S
C515 C517 1.423 . S
C516 C514 1.415 . S
C516 C521 1.425 . S
C516 C523 1.409 . S
C517 H509 0.930 1_455 S
C517 C515 1.423 . S
C517 C518 1.362 . S
C518 H510 0.930 . S
C518 C517 1.362 . S
C518 C521 1.409 . S
C519 H511 0.930 . S
C519 C520 1.355 . S
C519 C521 1.415 . S
C520 C519 1.355 . S
C520 C522 1.419 . S
C521 C516 1.425 . S
C521 C518 1.409 . S
C521 C519 1.415 . S
C522 H512 0.930 . S
C522 C520 1.419 . S
C522 C523 1.362 . S
C523 H513 0.930 . S
C523 C516 1.409 . S
C523 C522 1.362 . S
H524 C530 0.930 . S
H525 C533 0.930 . S
H526 C534 0.930 . S
H527 C535 0.930 . S
H528 C538 0.930 . S
H529 C539 0.930 . S
C530 H524 0.930 . S
C530 C531 1.355 . S
C530 C532 1.415 . S
C531 C530 1.355 . S
C531 C533 1.419 . S
C532 C530 1.415 . S
C532 C537 1.425 . S
C532 C539 1.409 . S
C533 H525 0.930 . S
C533 C531 1.419 . S
C533 C534 1.362 . S
C534 H526 0.930 . S
C534 C533 1.362 . S
C534 C537 1.409 . S
C535 H527 0.930 . S
C535 C536 1.355 . S
C535 C537 1.415 . S
C536 C535 1.355 . S
C536 C538 1.419 1_455 S
C537 C532 1.425 . S
C537 C534 1.409 . S
C537 C535 1.415 . S
C538 H528 0.930 . S
C538 C536 1.419 1_655 S
C538 C539 1.362 1_655 S
C539 H529 0.930 . S
C539 C532 1.409 . S
C539 C538 1.362 1_455 S
H540 C546 0.930 . S
H541 C549 0.930 . S
H542 C550 0.930 . S
H543 C551 0.930 . S
H544 C554 0.930 . S
H545 C555 0.930 . S
C546 H540 0.930 . S
C546 C547 1.355 . S
C546 C548 1.415 . S
C547 C546 1.355 . S
C547 C549 1.419 . S
C548 C546 1.415 . S
C548 C553 1.425 . S
C548 C555 1.409 . S
C549 H541 0.930 . S
C549 C547 1.419 . S
C549 C550 1.362 . S
C550 H542 0.930 . S
C550 C549 1.362 . S
C550 C553 1.409 . S
C551 H543 0.930 . S
C551 C552 1.355 . S
C551 C553 1.415 . S
C552 C551 1.355 . S
C552 C554 1.419 . S
C553 C548 1.425 . S
C553 C550 1.409 . S
C553 C551 1.415 . S
C554 H544 0.930 . S
C554 C552 1.419 . S
C554 C555 1.362 . S
C555 H545 0.930 . S
C555 C548 1.409 . S
C555 C554 1.362 . S
H556 C562 0.930 . S
H557 C565 0.930 . S
H558 C566 0.930 . S
H559 C567 0.930 . S
H560 C570 0.930 . S
H561 C571 0.930 . S
C562 H556 0.930 . S
C562 C563 1.355 . S
C562 C564 1.415 . S
C563 C562 1.355 . S
C563 C565 1.419 . S
C564 C562 1.415 . S
C564 C569 1.425 . S
C564 C571 1.409 . S
C565 H557 0.930 . S
C565 C563 1.419 . S
C565 C566 1.362 . S
C566 H558 0.930 . S
C566 C565 1.362 . S
C566 C569 1.409 . S
C567 H559 0.930 . S
C567 C568 1.355 . S
C567 C569 1.415 . S
C568 C567 1.355 . S
C568 C570 1.419 . S
C569 C564 1.425 . S
C569 C566 1.409 . S
C569 C567 1.415 . S
C570 H560 0.930 . S
C570 C568 1.419 . S
C570 C571 1.362 . S
C571 H561 0.930 . S
C571 C564 1.409 . S
C571 C570 1.362 . S
H572 C578 0.930 . S
H573 C581 0.930 . S
H574 C582 0.930 . S
H575 C583 0.930 . S
H576 C586 0.930 . S
H577 C587 0.930 . S
C578 H572 0.930 . S
C578 C579 1.355 . S
C578 C580 1.415 . S
C579 C578 1.355 . S
C579 C581 1.419 . S
C580 C578 1.415 . S
C580 C585 1.425 . S
C580 C587 1.409 . S
C581 H573 0.930 . S
C581 C579 1.419 . S
C581 C582 1.362 . S
C582 H574 0.930 . S
C582 C581 1.362 . S
C582 C585 1.409 . S
C583 H575 0.930 . S
C583 C584 1.355 . S
C583 C585 1.415 . S
C584 C583 1.355 . S
C584 C586 1.419 . S
C585 C580 1.425 . S
C585 C582 1.409 . S
C585 C583 1.415 . S
C586 H576 0.930 . S
C586 C584 1.419 . S
C586 C587 1.362 . S
C587 H577 0.930 . S
C587 C580 1.409 . S
C587 C586 1.362 . S
H588 C594 0.930 . S
H589 C597 0.930 . S
H590 C598 0.930 . S
H591 C599 0.930 . S
H592 C602 0.930 . S
H593 C603 0.930 . S
C594 H588 0.930 . S
C594 C595 1.355 . S
C594 C596 1.415 . S
C595 C594 1.355 . S
C595 C597 1.419 . S
C596 C594 1.415 . S
C596 C601 1.425 . S
C596 C603 1.409 . S
C597 H589 0.930 . S
C597 C595 1.419 . S
C597 C598 1.362 . S
C598 H590 0.930 . S
C598 C597 1.362 . S
C598 C601 1.409 . S
C599 H591 0.930 . S
C599 C600 1.355 . S
C599 C601 1.415 . S
C600 C599 1.355 . S
C600 C602 1.419 . S
C601 C596 1.425 . S
C601 C598 1.409 . S
C601 C599 1.415 . S
C602 H592 0.930 . S
C602 C600 1.419 . S
C602 C603 1.362 . S
C603 H593 0.930 . S
C603 C596 1.409 . S
C603 C602 1.362 . S
H604 C610 0.930 . S
H605 C613 0.930 . S
H606 C614 0.930 . S
H607 C615 0.930 . S
H608 C618 0.930 . S
H609 C619 0.930 . S
C610 H604 0.930 . S
C610 C611 1.355 . S
C610 C612 1.415 . S
C611 C610 1.355 . S
C611 C613 1.419 . S
C612 C610 1.415 . S
C612 C617 1.425 . S
C612 C619 1.409 . S
C613 H605 0.930 . S
C613 C611 1.419 . S
C613 C614 1.362 . S
C614 H606 0.930 . S
C614 C613 1.362 . S
C614 C617 1.409 . S
C615 H607 0.930 . S
C615 C616 1.355 . S
C615 C617 1.415 . S
C616 C615 1.355 . S
C616 C618 1.419 . S
C617 C612 1.425 . S
C617 C614 1.409 . S
C617 C615 1.415 . S
C618 H608 0.930 . S
C618 C616 1.419 . S
C618 C619 1.362 . S
C619 H609 0.930 . S
C619 C612 1.409 . S
C619 C618 1.362 . S
H620 C626 0.930 . S
H621 C629 0.930 . S
H622 C630 0.930 . S
H623 C631 0.930 . S
H624 C634 0.930 . S
H625 C635 0.930 . S
C626 H620 0.930 . S
C626 C627 1.355 . S
C626 C628 1.415 . S
C627 C626 1.355 . S
C627 C629 1.419 . S
C628 C626 1.415 . S
C628 C633 1.425 . S
C628 C635 1.409 . S
C629 H621 0.930 . S
C629 C627 1.419 . S
C629 C630 1.362 . S
C630 H622 0.930 . S
C630 C629 1.362 . S
C630 C633 1.409 . S
C631 H623 0.930 . S
C631 C632 1.355 . S
C631 C633 1.415 . S
C632 C631 1.355 . S
C632 C634 1.419 . S
C633 C628 1.425 . S
C633 C630 1.409 . S
C633 C631 1.415 . S
C634 H624 0.930 . S
C634 C632 1.419 . S
C634 C635 1.362 . S
C635 H625 0.930 . S
C635 C628 1.409 . S
C635 C634 1.362 . S
H636 C642 0.930 . S
H637 C645 0.930 1_455 S
H638 C646 0.930 . S
H639 C647 0.930 . S
H640 C650 0.930 . S
H641 C651 0.930 . S
C642 H636 0.930 . S
C642 C643 1.346 1_655 S
C642 C644 1.415 . S
C643 C642 1.346 1_455 S
C643 C645 1.415 1_455 S
C644 C642 1.415 . S
C644 C649 1.425 . S
C644 C651 1.409 . S
C645 H637 0.930 1_655 S
C645 C643 1.415 1_655 S
C645 C646 1.362 . S
C646 H638 0.930 . S
C646 C645 1.362 . S
C646 C649 1.409 . S
C647 H639 0.930 . S
C647 C648 1.355 . S
C647 C649 1.415 . S
C648 C647 1.355 . S
C648 C650 1.419 . S
C649 C644 1.425 . S
C649 C646 1.409 . S
C649 C647 1.415 . S
C650 H640 0.930 . S
C650 C648 1.419 . S
C650 C651 1.362 . S
C651 H641 0.930 . S
C651 C644 1.409 . S
C651 C650 1.362 . S
H652 C658 0.930 . S
H653 C661 0.930 . S
H654 C662 0.930 . S
H655 C663 0.930 . S
H656 C666 0.930 . S
H657 C667 0.930 . S
C658 H652 0.930 . S
C658 C659 1.355 . S
C658 C660 1.415 . S
C659 C658 1.355 . S
C659 C661 1.419 . S
C660 C658 1.415 . S
C660 C665 1.425 . S
C660 C667 1.409 . S
C661 H653 0.930 . S
C661 C659 1.419 . S
C661 C662 1.362 . S
C662 H654 0.930 . S
C662 C661 1.362 . S
C662 C665 1.409 . S
C663 H655 0.930 . S
C663 C664 1.355 . S
C663 C665 1.415 . S
C664 C663 1.355 . S
C664 C666 1.419 . S
C665 C660 1.425 . S
C665 C662 1.409 . S
C665 C663 1.415 . S
C666 H656 0.930 . S
C666 C664 1.419 . S
C666 C667 1.362 . S
C667 H657 0.930 . S
C667 C660 1.409 . S
C667 C666 1.362 . S
H668 C674 0.930 1_455 S
H669 C677 0.930 . S
H670 C678 0.930 . S
H671 C679 0.930 . S
H672 C682 0.930 . S
H673 C683 0.930 . S
C674 H668 0.930 1_655 S
C674 C675 1.355 . S
C674 C676 1.415 . S
C675 C674 1.355 . S
C675 C677 1.419 . S
C676 C674 1.415 . S
C676 C681 1.425 . S
C676 C683 1.409 . S
C677 H669 0.930 . S
C677 C675 1.419 . S
C677 C678 1.362 . S
C678 H670 0.930 . S
C678 C677 1.362 . S
C678 C681 1.409 . S
C679 H671 0.930 . S
C679 C680 1.355 1_545 S
C679 C681 1.415 . S
C680 C679 1.355 1_565 S
C680 C682 1.419 . S
C681 C676 1.425 . S
C681 C678 1.409 . S
C681 C679 1.415 . S
C682 H672 0.930 . S
C682 C680 1.419 . S
C682 C683 1.362 1_565 S
C683 H673 0.930 . S
C683 C676 1.409 . S
C683 C682 1.362 1_545 S
H684 C690 0.930 . S
H685 C693 0.930 . S
H686 C694 0.930 . S
H687 C695 0.930 . S
H688 C698 0.930 1_655 S
H689 C699 0.930 1_655 S
C690 H684 0.930 . S
C690 C691 1.355 . S
C690 C692 1.415 . S
C691 C690 1.355 . S
C691 C693 1.419 . S
C692 C690 1.415 . S
C692 C697 1.425 . S
C692 C699 1.409 . S
C693 H685 0.930 . S
C693 C691 1.419 . S
C693 C694 1.362 . S
C694 H686 0.930 . S
C694 C693 1.362 . S
C694 C697 1.409 . S
C695 H687 0.930 . S
C695 C696 1.355 . S
C695 C697 1.415 . S
C696 C695 1.355 . S
C696 C698 1.419 . S
C697 C692 1.425 . S
C697 C694 1.409 . S
C697 C695 1.415 . S
C698 H688 0.930 1_455 S
C698 C696 1.419 . S
C698 C699 1.362 . S
C699 H689 0.930 1_455 S
C699 C692 1.409 . S
C699 C698 1.362 . S
H700 C706 0.930 . S
H701 C709 0.930 . S
H702 C710 0.930 . S
H703 C711 0.930 . S
H704 C714 0.930 . S
H705 C715 0.930 . S
C706 H700 0.930 . S
C706 C707 1.355 . S
C706 C708 1.415 . S
C707 C706 1.355 . S
C707 C709 1.419 . S
C708 C706 1.415 . S
C708 C713 1.425 . S
C708 C715 1.409 . S
C709 H701 0.930 . S
C709 C707 1.419 . S
C709 C710 1.362 . S
C710 H702 0.930 . S
C710 C709 1.362 . S
C710 C713 1.409 . S
C711 H703 0.930 . S
C711 C712 1.355 . S
C711 C713 1.415 . S
C712 C711 1.355 . S
C712 C714 1.419 . S
C713 C708 1.425 . S
C713 C710 1.409 . S
C713 C711 1.415 . S
C714 H704 0.930 . S
C714 C712 1.419 . S
C714 C715 1.362 . S
C715 H705 0.930 . S
C715 C708 1.409 . S
C715 C714 1.362 . S
H716 C722 0.930 . S
H717 C725 0.930 . S
H718 C726 0.930 . S
H719 C727 0.930 . S
H720 C730 0.930 . S
H721 C731 0.930 . S
C722 H716 0.930 . S
C722 C723 1.355 . S
C722 C724 1.415 . S
C723 C722 1.355 . S
C723 C725 1.419 . S
C724 C722 1.415 . S
C724 C729 1.425 . S
C724 C731 1.409 . S
C725 H717 0.930 . S
C725 C723 1.419 . S
C725 C726 1.362 . S
C726 H718 0.930 . S
C726 C725 1.362 . S
C726 C729 1.409 . S
C727 H719 0.930 . S
C727 C728 1.355 . S
C727 C729 1.415 . S
C728 C727 1.355 . S
C728 C730 1.419 . S
C729 C724 1.425 . S
C729 C726 1.409 . S
C729 C727 1.415 . S
C730 H720 0.930 . S
C730 C728 1.419 . S
C730 C731 1.362 . S
C731 H721 0.930 . S
C731 C724 1.409 . S
C731 C730 1.362 . S
H732 C738 0.930 . S
H733 C741 0.930 . S
H734 C742 0.930 . S
H735 C743 0.930 . S
H736 C746 0.930 1_565 S
H737 C747 0.930 . S
C738 H732 0.930 . S
C738 C739 1.355 . S
C738 C740 1.415 . S
C739 C738 1.355 . S
C739 C741 1.419 . S
C740 C738 1.415 . S
C740 C745 1.425 . S
C740 C747 1.409 . S
C741 H733 0.930 . S
C741 C739 1.419 . S
C741 C742 1.362 . S
C742 H734 0.930 . S
C742 C741 1.362 . S
C742 C745 1.409 . S
C743 H735 0.930 . S
C743 C744 1.355 . S
C743 C745 1.415 . S
C744 C743 1.355 . S
C744 C746 1.419 . S
C745 C740 1.425 . S
C745 C742 1.409 . S
C745 C743 1.415 . S
C746 H736 0.930 1_545 S
C746 C744 1.419 . S
C746 C747 1.362 . S
C747 H737 0.930 . S
C747 C740 1.409 . S
C747 C746 1.362 . S
H748 C754 0.930 . S
H749 C757 0.930 . S
H750 C758 0.930 . S
H751 C759 0.930 . S
H752 C762 0.930 . S
H753 C763 0.930 . S
C754 H748 0.930 . S
C754 C755 1.355 . S
C754 C756 1.415 . S
C755 C754 1.355 . S
C755 C757 1.419 . S
C756 C754 1.415 . S
C756 C761 1.425 . S
C756 C763 1.409 . S
C757 H749 0.930 . S
C757 C755 1.419 . S
C757 C758 1.362 . S
C758 H750 0.930 . S
C758 C757 1.362 . S
C758 C761 1.409 . S
C759 H751 0.930 . S
C759 C760 1.355 . S
C759 C761 1.415 . S
C760 C759 1.355 . S
C760 C762 1.419 . S
C761 C756 1.425 . S
C761 C758 1.409 . S
C761 C759 1.415 . S
C762 H752 0.930 . S
C762 C760 1.419 . S
C762 C763 1.362 . S
C763 H753 0.930 . S
C763 C756 1.409 . S
C763 C762 1.362 . S
H764 C770 0.930 . S
H765 C773 0.930 . S
H766 C774 0.930 . S
H767 C775 0.930 . S
H768 C778 0.930 . S
H769 C779 0.930 . S
C770 H764 0.930 . S
C770 C771 1.355 . S
C770 C772 1.415 . S
C771 C770 1.355 . S
C771 C773 1.419 . S
C772 C770 1.415 . S
C772 C777 1.425 . S
C772 C779 1.409 . S
C773 H765 0.930 . S
C773 C771 1.419 . S
C773 C774 1.362 . S
C774 H766 0.930 . S
C774 C773 1.362 . S
C774 C777 1.409 . S
C775 H767 0.930 . S
C775 C776 1.355 . S
C775 C777 1.415 . S
C776 C775 1.355 . S
C776 C778 1.419 . S
C777 C772 1.425 . S
C777 C774 1.409 . S
C777 C775 1.415 . S
C778 H768 0.930 . S
C778 C776 1.419 . S
C778 C779 1.362 . S
C779 H769 0.930 . S
C779 C772 1.409 . S
C779 C778 1.362 . S
H780 C786 0.930 . S
H781 C789 0.930 . S
H782 C790 0.930 . S
H783 C791 0.930 . S
H784 C794 0.930 . S
H785 C795 0.930 . S
C786 H780 0.930 . S
C786 C787 1.355 . S
C786 C788 1.415 . S
C787 C786 1.355 . S
C787 C789 1.419 . S
C788 C786 1.415 . S
C788 C793 1.425 . S
C788 C795 1.409 . S
C789 H781 0.930 . S
C789 C787 1.419 . S
C789 C790 1.362 . S
C790 H782 0.930 . S
C790 C789 1.362 . S
C790 C793 1.409 . S
C791 H783 0.930 . S
C791 C792 1.355 . S
C791 C793 1.415 . S
C792 C791 1.355 . S
C792 C794 1.419 . S
C793 C788 1.425 . S
C793 C790 1.409 . S
C793 C791 1.415 . S
C794 H784 0.930 . S
C794 C792 1.419 . S
C794 C795 1.362 . S
C795 H785 0.930 . S
C795 C788 1.409 . S
C795 C794 1.362 . S
H796 C802 0.930 . S
H797 C805 0.930 . S
H798 C806 0.930 . S
H799 C807 0.930 . S
H800 C810 0.930 . S
H801 C811 0.930 . S
C802 H796 0.930 . S
C802 C803 1.355 . S
C802 C804 1.415 . S
C803 C802 1.355 . S
C803 C805 1.419 . S
C804 C802 1.415 . S
C804 C809 1.425 . S
C804 C811 1.409 . S
C805 H797 0.930 . S
C805 C803 1.419 . S
C805 C806 1.362 . S
C806 H798 0.930 . S
C806 C805 1.362 . S
C806 C809 1.409 . S
C807 H799 0.930 . S
C807 C808 1.355 . S
C807 C809 1.415 . S
C808 C807 1.355 . S
C808 C810 1.419 . S
C809 C804 1.425 . S
C809 C806 1.409 . S
C809 C807 1.415 . S
C810 H800 0.930 . S
C810 C808 1.419 . S
C810 C811 1.362 . S
C811 H801 0.930 . S
C811 C804 1.409 . S
C811 C810 1.362 . S
H812 C818 0.930 . S
H813 C821 0.930 . S
H814 C822 0.930 . S
H815 C823 0.930 . S
H816 C826 0.930 . S
H817 C827 0.930 . S
C818 H812 0.930 . S
C818 C819 1.355 . S
C818 C820 1.415 . S
C819 C818 1.355 . S
C819 C821 1.419 . S
C820 C818 1.415 . S
C820 C825 1.425 . S
C820 C827 1.409 . S
C821 H813 0.930 . S
C821 C819 1.419 . S
C821 C822 1.362 . S
C822 H814 0.930 . S
C822 C821 1.362 . S
C822 C825 1.409 . S
C823 H815 0.930 . S
C823 C824 1.355 . S
C823 C825 1.415 . S
C824 C823 1.355 . S
C824 C826 1.419 . S
C825 C820 1.425 . S
C825 C822 1.409 . S
C825 C823 1.415 . S
C826 H816 0.930 . S
C826 C824 1.419 . S
C826 C827 1.362 . S
C827 H817 0.930 . S
C827 C820 1.409 . S
C827 C826 1.362 . S
H828 C834 0.930 . S
H829 C837 0.930 . S
H830 C838 0.930 . S
H831 C839 0.930 . S
H832 C842 0.930 . S
H833 C843 0.930 . S
C834 H828 0.930 . S
C834 C835 1.355 . S
C834 C836 1.415 . S
C835 C834 1.355 . S
C835 C837 1.419 . S
C836 C834 1.415 . S
C836 C841 1.425 . S
C836 C843 1.409 . S
C837 H829 0.930 . S
C837 C835 1.419 . S
C837 C838 1.362 . S
C838 H830 0.930 . S
C838 C837 1.362 . S
C838 C841 1.409 . S
C839 H831 0.930 . S
C839 C840 1.355 . S
C839 C841 1.415 . S
C840 C839 1.355 . S
C840 C842 1.419 . S
C841 C836 1.425 . S
C841 C838 1.409 . S
C841 C839 1.415 . S
C842 H832 0.930 . S
C842 C840 1.419 . S
C842 C843 1.362 . S
C843 H833 0.930 . S
C843 C836 1.409 . S
C843 C842 1.362 . S
H844 C850 0.930 . S
H845 C853 0.930 . S
H846 C854 0.930 . S
H847 C855 0.930 . S
H848 C858 0.930 1_655 S
H849 C859 0.930 1_655 S
C850 H844 0.930 . S
C850 C851 1.355 . S
C850 C852 1.415 . S
C851 C850 1.355 . S
C851 C853 1.419 . S
C852 C850 1.415 . S
C852 C857 1.425 . S
C852 C859 1.409 . S
C853 H845 0.930 . S
C853 C851 1.419 . S
C853 C854 1.362 . S
C854 H846 0.930 . S
C854 C853 1.362 . S
C854 C857 1.409 . S
C855 H847 0.930 . S
C855 C856 1.355 . S
C855 C857 1.415 . S
C856 C855 1.355 . S
C856 C858 1.419 . S
C857 C852 1.425 . S
C857 C854 1.409 . S
C857 C855 1.415 . S
C858 H848 0.930 1_455 S
C858 C856 1.419 . S
C858 C859 1.362 . S
C859 H849 0.930 1_455 S
C859 C852 1.409 . S
C859 C858 1.362 . S
H860 C866 0.930 . S
H861 C869 0.930 . S
H862 C870 0.930 . S
H863 C871 0.930 . S
H864 C874 0.930 . S
H865 C875 0.930 . S
C866 H860 0.930 . S
C866 C867 1.355 . S
C866 C868 1.415 . S
C867 C866 1.355 . S
C867 C869 1.419 . S
C868 C866 1.415 . S
C868 C873 1.425 . S
C868 C875 1.409 . S
C869 H861 0.930 . S
C869 C867 1.419 . S
C869 C870 1.362 . S
C870 H862 0.930 . S
C870 C869 1.362 . S
C870 C873 1.409 . S
C871 H863 0.930 . S
C871 C872 1.355 . S
C871 C873 1.415 . S
C872 C871 1.355 . S
C872 C874 1.419 . S
C873 C868 1.425 . S
C873 C870 1.409 . S
C873 C871 1.415 . S
C874 H864 0.930 . S
C874 C872 1.419 . S
C874 C875 1.362 . S
C875 H865 0.930 . S
C875 C868 1.409 . S
C875 C874 1.362 . S
H876 C882 0.930 . S
H877 C885 0.930 . S
H878 C886 0.930 . S
H879 C887 0.930 . S
H880 C890 0.930 . S
H881 C891 0.930 . S
C882 H876 0.930 . S
C882 C883 1.355 . S
C882 C884 1.415 . S
C883 C882 1.355 . S
C883 C885 1.419 . S
C884 C882 1.415 . S
C884 C889 1.425 . S
C884 C891 1.409 . S
C885 H877 0.930 . S
C885 C883 1.419 . S
C885 C886 1.362 . S
C886 H878 0.930 . S
C886 C885 1.362 . S
C886 C889 1.409 . S
C887 H879 0.930 . S
C887 C888 1.355 . S
C887 C889 1.415 . S
C888 C887 1.355 . S
C888 C890 1.419 . S
C889 C884 1.425 . S
C889 C886 1.409 . S
C889 C887 1.415 . S
C890 H880 0.930 . S
C890 C888 1.419 . S
C890 C891 1.362 . S
C891 H881 0.930 . S
C891 C884 1.409 . S
C891 C890 1.362 . S
H892 C898 0.930 . S
H893 C901 0.930 . S
H894 C902 0.930 . S
H895 C903 0.930 . S
H896 C906 0.930 . S
H897 C907 0.930 . S
C898 H892 0.930 . S
C898 C899 1.355 . S
C898 C900 1.415 1_545 S
C899 C898 1.355 . S
C899 C901 1.419 . S
C900 C898 1.415 1_565 S
C900 C905 1.425 1_565 S
C900 C907 1.409 . S
C901 H893 0.930 . S
C901 C899 1.419 . S
C901 C902 1.362 . S
C902 H894 0.930 . S
C902 C901 1.362 . S
C902 C905 1.409 . S
C903 H895 0.930 . S
C903 C904 1.355 . S
C903 C905 1.415 1_565 S
C904 C903 1.355 . S
C904 C906 1.419 . S
C905 C900 1.425 1_545 S
C905 C902 1.409 . S
C905 C903 1.415 1_545 S
C906 H896 0.930 . S
C906 C904 1.419 . S
C906 C907 1.362 . S
C907 H897 0.930 . S
C907 C900 1.409 . S
C907 C906 1.362 . S
H908 C914 0.930 . S
H909 C917 0.930 . S
H910 C918 0.930 . S
H911 C919 0.930 . S
H912 C922 0.930 . S
H913 C923 0.930 . S
C914 H908 0.930 . S
C914 C915 1.355 . S
C914 C916 1.415 1_455 S
C915 C914 1.355 . S
C915 C917 1.419 . S
C916 C914 1.415 1_655 S
C916 C921 1.425 1_655 S
C916 C923 1.409 . S
C917 H909 0.930 . S
C917 C915 1.419 . S
C917 C918 1.362 . S
C918 H910 0.930 . S
C918 C917 1.362 . S
C918 C921 1.409 . S
C919 H911 0.930 . S
C919 C920 1.355 . S
C919 C921 1.415 1_655 S
C920 C919 1.355 . S
C920 C922 1.419 . S
C921 C916 1.425 1_455 S
C921 C918 1.409 . S
C921 C919 1.415 1_455 S
C922 H912 0.930 . S
C922 C920 1.419 . S
C922 C923 1.362 . S
C923 H913 0.930 . S
C923 C916 1.409 . S
C923 C922 1.362 . S
H924 C930 0.930 . S
H925 C933 0.930 . S
H926 C934 0.930 . S
H927 C935 0.930 . S
H928 C938 0.930 . S
H929 C939 0.930 . S
C930 H924 0.930 . S
C930 C931 1.355 . S
C930 C932 1.415 . S
C931 C930 1.355 . S
C931 C933 1.419 . S
C932 C930 1.415 . S
C932 C937 1.425 . S
C932 C939 1.409 . S
C933 H925 0.930 . S
C933 C931 1.419 . S
C933 C934 1.362 . S
C934 H926 0.930 . S
C934 C933 1.362 . S
C934 C937 1.409 . S
C935 H927 0.930 . S
C935 C936 1.355 . S
C935 C937 1.415 . S
C936 C935 1.355 . S
C936 C938 1.419 . S
C937 C932 1.425 . S
C937 C934 1.409 . S
C937 C935 1.415 . S
C938 H928 0.930 . S
C938 C936 1.419 . S
C938 C939 1.362 . S
C939 H929 0.930 . S
C939 C932 1.409 . S
C939 C938 1.362 . S
H940 C946 0.930 . S
H941 C949 0.930 . S
H942 C950 0.930 . S
H943 C951 0.930 . S
H944 C954 0.930 . S
H945 C955 0.930 . S
C946 H940 0.930 . S
C946 C947 1.355 . S
C946 C948 1.415 . S
C947 C946 1.355 . S
C947 C949 1.419 . S
C948 C946 1.415 . S
C948 C953 1.425 1_545 S
C948 C955 1.409 1_545 S
C949 H941 0.930 . S
C949 C947 1.419 . S
C949 C950 1.362 . S
C950 H942 0.930 . S
C950 C949 1.362 . S
C950 C953 1.409 1_545 S
C951 H943 0.930 . S
C951 C952 1.355 . S
C951 C953 1.415 . S
C952 C951 1.355 . S
C952 C954 1.419 . S
C953 C948 1.425 1_565 S
C953 C950 1.409 1_565 S
C953 C951 1.415 . S
C954 H944 0.930 . S
C954 C952 1.419 . S
C954 C955 1.362 . S
C955 H945 0.930 . S
C955 C948 1.409 1_565 S
C955 C954 1.362 . S
H956 C962 0.930 . S
H957 C965 0.930 . S
H958 C966 0.930 . S
H959 C967 0.930 . S
H960 C970 0.930 . S
H961 C971 0.930 . S
C962 H956 0.930 . S
C962 C963 1.355 . S
C962 C964 1.415 . S
C963 C962 1.355 . S
C963 C965 1.419 . S
C964 C962 1.415 . S
C964 C969 1.425 1_455 S
C964 C971 1.409 . S
C965 H957 0.930 . S
C965 C963 1.419 . S
C965 C966 1.362 1_455 S
C966 H958 0.930 . S
C966 C965 1.362 1_655 S
C966 C969 1.409 . S
C967 H959 0.930 . S
C967 C968 1.355 . S
C967 C969 1.415 . S
C968 C967 1.355 . S
C968 C970 1.419 . S
C969 C964 1.425 1_655 S
C969 C966 1.409 . S
C969 C967 1.415 . S
C970 H960 0.930 . S
C970 C968 1.419 . S
C970 C971 1.362 1_655 S
C971 H961 0.930 . S
C971 C964 1.409 . S
C971 C970 1.362 1_455 S
H972 C978 0.930 . S
H973 C981 0.930 . S
H974 C982 0.930 . S
H975 C983 0.930 . S
H976 C986 0.930 . S
H977 C987 0.930 . S
C978 H972 0.930 . S
C978 C979 1.355 . S
C978 C980 1.415 . S
C979 C978 1.355 . S
C979 C981 1.419 1_554 S
C980 C978 1.415 . S
C980 C985 1.425 1_554 S
C980 C987 1.409 . S
C981 H973 0.930 . S
C981 C979 1.419 1_556 S
C981 C982 1.362 . S
C982 H974 0.930 . S
C982 C981 1.362 . S
C982 C985 1.409 . S
C983 H975 0.930 . S
C983 C984 1.355 . S
C983 C985 1.415 . S
C984 C983 1.355 . S
C984 C986 1.419 1_556 S
C985 C980 1.425 1_556 S
C985 C982 1.409 . S
C985 C983 1.415 . S
C986 H976 0.930 . S
C986 C984 1.419 1_554 S
C986 C987 1.362 . S
C987 H977 0.930 . S
C987 C980 1.409 . S
C987 C986 1.362 . S
H988 C994 0.926 1_554 S
H989 C997 0.930 . S
H990 C998 0.954 . S
H991 C999 0.926 1_556 S
H992 C1002 0.930 . S
H993 C1003 0.952 . S
C994 H988 0.926 1_556 S
C994 C995 1.355 . S
C994 C996 1.415 1_556 S
C995 C994 1.355 . S
C995 C997 1.419 . S
C996 C994 1.415 1_554 S
C996 C1001 1.425 1_544 S
C996 C1003 1.409 . S
C997 H989 0.930 . S
C997 C995 1.419 . S
C997 C998 1.340 1_545 S
C998 H990 0.954 . S
C998 C997 1.340 1_565 S
C998 C1001 1.409 . S
C999 H991 0.926 1_554 S
C999 C1000 1.355 . S
C999 C1001 1.415 1_554 S
C1000 C999 1.355 . S
C1000 C1002 1.419 . S
C1001 C996 1.425 1_566 S
C1001 C998 1.409 . S
C1001 C999 1.415 1_556 S
C1002 H992 0.930 . S
C1002 C1000 1.419 . S
C1002 C1003 1.342 1_565 S
C1003 H993 0.952 . S
C1003 C996 1.409 . S
C1003 C1002 1.342 1_545 S
H1004 C1010 0.930 . S
H1005 C1013 0.930 . S
H1006 C1014 0.930 1_455 S
H1007 C1015 0.930 . S
H1008 C1018 0.930 . S
H1009 C1019 0.930 1_655 S
C1010 H1004 0.930 . S
C1010 C1011 1.355 . S
C1010 C1012 1.415 1_556 S
C1011 C1010 1.355 . S
C1011 C1013 1.419 . S
C1012 C1010 1.415 1_554 S
C1012 C1017 1.425 1_654 S
C1012 C1019 1.409 1_655 S
C1013 H1005 0.930 . S
C1013 C1011 1.419 . S
C1013 C1014 1.362 . S
C1014 H1006 0.930 1_655 S
C1014 C1013 1.362 . S
C1014 C1017 1.409 1_655 S
C1015 H1007 0.930 . S
C1015 C1016 1.355 . S
C1015 C1017 1.415 1_554 S
C1016 C1015 1.355 . S
C1016 C1018 1.419 . S
C1017 C1012 1.425 1_456 S
C1017 C1014 1.409 1_455 S
C1017 C1015 1.415 1_556 S
C1018 H1008 0.930 . S
C1018 C1016 1.419 . S
C1018 C1019 1.362 . S
C1019 H1009 0.930 1_455 S
C1019 C1012 1.409 1_455 S
C1019 C1018 1.362 . S
H1020 C1026 0.930 . S
H1021 C1029 0.930 . S
H1022 C1030 0.930 . S
H1023 C1031 0.930 . S
H1024 C1034 0.930 . S
H1025 C1035 0.930 . S
C1026 H1020 0.930 . S
C1026 C1027 1.355 . S
C1026 C1028 1.415 . S
C1027 C1026 1.355 . S
C1027 C1029 1.419 1_554 S
C1028 C1026 1.415 . S
C1028 C1033 1.425 1_554 S
C1028 C1035 1.409 . S
C1029 H1021 0.930 . S
C1029 C1027 1.419 1_556 S
C1029 C1030 1.362 . S
C1030 H1022 0.930 . S
C1030 C1029 1.362 . S
C1030 C1033 1.409 . S
C1031 H1023 0.930 . S
C1031 C1032 1.355 . S
C1031 C1033 1.415 . S
C1032 C1031 1.355 . S
C1032 C1034 1.419 1_556 S
C1033 C1028 1.425 1_556 S
C1033 C1030 1.409 . S
C1033 C1031 1.415 . S
C1034 H1024 0.930 . S
C1034 C1032 1.419 1_554 S
C1034 C1035 1.362 . S
C1035 H1025 0.930 . S
C1035 C1028 1.409 . S
C1035 C1034 1.362 . S
H1036 C1042 0.930 . S
H1037 C1045 0.930 . S
H1038 C1046 0.930 . S
H1039 C1047 0.930 . S
H1040 C1050 0.930 . S
H1041 C1051 0.930 . S
C1042 H1036 0.930 . S
C1042 C1043 1.355 . S
C1042 C1044 1.415 1_554 S
C1043 C1042 1.355 . S
C1043 C1045 1.419 . S
C1044 C1042 1.415 1_556 S
C1044 C1049 1.425 1_566 S
C1044 C1051 1.409 . S
C1045 H1037 0.930 . S
C1045 C1043 1.419 . S
C1045 C1046 1.362 1_565 S
C1046 H1038 0.930 . S
C1046 C1045 1.362 1_545 S
C1046 C1049 1.409 . S
C1047 H1039 0.930 . S
C1047 C1048 1.355 . S
C1047 C1049 1.415 1_556 S
C1048 C1047 1.355 . S
C1048 C1050 1.419 . S
C1049 C1044 1.425 1_544 S
C1049 C1046 1.409 . S
C1049 C1047 1.415 1_554 S
C1050 H1040 0.930 . S
C1050 C1048 1.419 . S
C1050 C1051 1.362 1_545 S
C1051 H1041 0.930 . S
C1051 C1044 1.409 . S
C1051 C1050 1.362 1_565 S
H1052 C1058 0.930 . S
H1053 C1061 0.930 . S
H1054 C1062 0.930 1_455 S
H1055 C1063 0.930 . S
H1056 C1066 0.930 . S
H1057 C1067 0.930 1_655 S
C1058 H1052 0.930 . S
C1058 C1059 1.355 . S
C1058 C1060 1.415 1_556 S
C1059 C1058 1.355 . S
C1059 C1061 1.419 . S
C1060 C1058 1.415 1_554 S
C1060 C1065 1.425 1_654 S
C1060 C1067 1.409 1_655 S
C1061 H1053 0.930 . S
C1061 C1059 1.419 . S
C1061 C1062 1.362 . S
C1062 H1054 0.930 1_655 S
C1062 C1061 1.362 . S
C1062 C1065 1.409 1_655 S
C1063 H1055 0.930 . S
C1063 C1064 1.355 . S
C1063 C1065 1.415 1_554 S
C1064 C1063 1.355 . S
C1064 C1066 1.419 . S
C1065 C1060 1.425 1_456 S
C1065 C1062 1.409 1_455 S
C1065 C1063 1.415 1_556 S
C1066 H1056 0.930 . S
C1066 C1064 1.419 . S
C1066 C1067 1.362 . S
C1067 H1057 0.930 1_455 S
C1067 C1060 1.409 1_455 S
C1067 C1066 1.362 . S
H1068 C1074 0.930 . S
H1069 C1077 0.930 . S
H1070 C1078 0.930 . S
H1071 C1079 0.930 . S
H1072 C1082 0.933 . S
H1073 C1083 0.930 . S
C1074 H1068 0.930 . S
C1074 C1075 1.355 . S
C1074 C1076 1.415 . S
C1075 C1074 1.355 . S
C1075 C1077 1.419 . S
C1076 C1074 1.415 . S
C1076 C1081 1.425 . S
C1076 C1083 1.409 . S
C1077 H1069 0.930 . S
C1077 C1075 1.419 . S
C1077 C1078 1.362 . S
C1078 H1070 0.930 . S
C1078 C1077 1.362 . S
C1078 C1081 1.409 . S
C1079 H1071 0.930 . S
C1079 C1080 1.355 . S
C1079 C1081 1.415 . S
C1080 C1079 1.355 . S
C1080 C1082 1.419 . S
C1081 C1076 1.425 . S
C1081 C1078 1.409 . S
C1081 C1079 1.415 . S
C1082 H1072 0.933 . S
C1082 C1080 1.419 . S
C1082 C1083 1.362 . S
C1083 H1073 0.930 . S
C1083 C1076 1.409 . S
C1083 C1082 1.362 . S
H1084 C1090 0.930 . S
H1085 C1093 0.930 . S
H1086 C1094 0.930 . S
H1087 C1095 0.930 . S
H1088 C1098 0.930 . S
H1089 C1099 0.930 . S
C1090 H1084 0.930 . S
C1090 C1091 1.355 . S
C1090 C1092 1.415 . S
C1091 C1090 1.355 . S
C1091 C1093 1.419 . S
C1092 C1090 1.415 . S
C1092 C1097 1.425 . S
C1092 C1099 1.409 . S
C1093 H1085 0.930 . S
C1093 C1091 1.419 . S
C1093 C1094 1.362 . S
C1094 H1086 0.930 . S
C1094 C1093 1.362 . S
C1094 C1097 1.409 . S
C1095 H1087 0.930 . S
C1095 C1096 1.355 . S
C1095 C1097 1.415 . S
C1096 C1095 1.355 . S
C1096 C1098 1.419 . S
C1097 C1092 1.425 . S
C1097 C1094 1.409 . S
C1097 C1095 1.415 . S
C1098 H1088 0.930 . S
C1098 C1096 1.419 . S
C1098 C1099 1.362 . S
C1099 H1089 0.930 . S
C1099 C1092 1.409 . S
C1099 C1098 1.362 . S
H1100 C1106 0.930 . S
H1101 C1109 0.930 . S
H1102 C1110 0.930 1_565 S
H1103 C1111 0.930 . S
H1104 C1114 0.930 . S
H1105 C1115 0.930 . S
C1106 H1100 0.930 . S
C1106 C1107 1.355 . S
C1106 C1108 1.415 . S
C1107 C1106 1.355 . S
C1107 C1109 1.419 1_545 S
C1108 C1106 1.415 . S
C1108 C1113 1.425 . S
C1108 C1115 1.409 . S
C1109 H1101 0.930 . S
C1109 C1107 1.419 1_565 S
C1109 C1110 1.362 1_565 S
C1110 H1102 0.930 1_545 S
C1110 C1109 1.362 1_545 S
C1110 C1113 1.409 . S
C1111 H1103 0.930 . S
C1111 C1112 1.355 . S
C1111 C1113 1.415 . S
C1112 C1111 1.355 . S
C1112 C1114 1.419 . S
C1113 C1108 1.425 . S
C1113 C1110 1.409 . S
C1113 C1111 1.415 . S
C1114 H1104 0.930 . S
C1114 C1112 1.419 . S
C1114 C1115 1.362 . S
C1115 H1105 0.930 . S
C1115 C1108 1.409 . S
C1115 C1114 1.362 . S
H1116 C1122 0.930 . S
H1117 C1125 0.930 . S
H1118 C1126 0.930 1_565 S
H1119 C1127 0.930 1_565 S
H1120 C1130 0.930 . S
H1121 C1131 0.930 . S
C1122 H1116 0.930 . S
C1122 C1123 1.355 . S
C1122 C1124 1.415 . S
C1123 C1122 1.355 . S
C1123 C1125 1.419 . S
C1124 C1122 1.415 . S
C1124 C1129 1.425 . S
C1124 C1131 1.409 . S
C1125 H1117 0.930 . S
C1125 C1123 1.419 . S
C1125 C1126 1.362 . S
C1126 H1118 0.930 1_545 S
C1126 C1125 1.362 . S
C1126 C1129 1.409 . S
C1127 H1119 0.930 1_545 S
C1127 C1128 1.355 . S
C1127 C1129 1.415 . S
C1128 C1127 1.355 . S
C1128 C1130 1.419 . S
C1129 C1124 1.425 . S
C1129 C1126 1.409 . S
C1129 C1127 1.415 . S
C1130 H1120 0.930 . S
C1130 C1128 1.419 . S
C1130 C1131 1.362 . S
C1131 H1121 0.930 . S
C1131 C1124 1.409 . S
C1131 C1130 1.362 . S
H1132 C1138 0.930 1_455 S
H1133 C1141 0.930 . S
H1134 C1142 0.930 . S
H1135 C1143 0.930 . S
H1136 C1146 0.930 . S
H1137 C1147 0.930 1_455 S
C1138 H1132 0.930 1_655 S
C1138 C1139 1.355 . S
C1138 C1140 1.415 . S
C1139 C1138 1.355 . S
C1139 C1141 1.419 . S
C1140 C1138 1.415 . S
C1140 C1145 1.425 . S
C1140 C1147 1.409 . S
C1141 H1133 0.930 . S
C1141 C1139 1.419 . S
C1141 C1142 1.362 . S
C1142 H1134 0.930 . S
C1142 C1141 1.362 . S
C1142 C1145 1.409 . S
C1143 H1135 0.930 . S
C1143 C1144 1.355 . S
C1143 C1145 1.415 . S
C1144 C1143 1.355 . S
C1144 C1146 1.419 . S
C1145 C1140 1.425 . S
C1145 C1142 1.409 . S
C1145 C1143 1.415 . S
C1146 H1136 0.930 . S
C1146 C1144 1.419 . S
C1146 C1147 1.362 . S
C1147 H1137 0.930 1_655 S
C1147 C1140 1.409 . S
C1147 C1146 1.362 . S
H1148 C1154 0.930 . S
H1149 C1157 0.930 . S
H1150 C1158 0.930 . S
H1151 C1159 0.930 . S
H1152 C1162 0.930 . S
H1153 C1163 0.930 . S
C1154 H1148 0.930 . S
C1154 C1155 1.355 . S
C1154 C1156 1.415 . S
C1155 C1154 1.355 . S
C1155 C1157 1.419 . S
C1156 C1154 1.415 . S
C1156 C1161 1.425 . S
C1156 C1163 1.409 . S
C1157 H1149 0.930 . S
C1157 C1155 1.419 . S
C1157 C1158 1.362 . S
C1158 H1150 0.930 . S
C1158 C1157 1.362 . S
C1158 C1161 1.409 . S
C1159 H1151 0.930 . S
C1159 C1160 1.355 . S
C1159 C1161 1.415 . S
C1160 C1159 1.355 . S
C1160 C1162 1.419 . S
C1161 C1156 1.425 . S
C1161 C1158 1.409 . S
C1161 C1159 1.415 . S
C1162 H1152 0.930 . S
C1162 C1160 1.419 . S
C1162 C1163 1.362 . S
C1163 H1153 0.930 . S
C1163 C1156 1.409 . S
C1163 C1162 1.362 . S
H1164 C1170 0.930 . S
H1165 C1173 0.930 . S
H1166 C1174 0.930 . S
H1167 C1175 0.930 . S
H1168 C1178 0.930 . S
H1169 C1179 0.930 1_545 S
C1170 H1164 0.930 . S
C1170 C1171 1.355 . S
C1170 C1172 1.415 . S
C1171 C1170 1.355 . S
C1171 C1173 1.419 . S
C1172 C1170 1.415 . S
C1172 C1177 1.425 . S
C1172 C1179 1.409 . S
C1173 H1165 0.930 . S
C1173 C1171 1.419 . S
C1173 C1174 1.362 . S
C1174 H1166 0.930 . S
C1174 C1173 1.362 . S
C1174 C1177 1.409 . S
C1175 H1167 0.930 . S
C1175 C1176 1.355 . S
C1175 C1177 1.415 . S
C1176 C1175 1.355 . S
C1176 C1178 1.419 1_565 S
C1177 C1172 1.425 . S
C1177 C1174 1.409 . S
C1177 C1175 1.415 . S
C1178 H1168 0.930 . S
C1178 C1176 1.419 1_545 S
C1178 C1179 1.362 1_545 S
C1179 H1169 0.930 1_565 S
C1179 C1172 1.409 . S
C1179 C1178 1.362 1_565 S
H1180 C1186 0.930 . S
H1181 C1189 0.930 . S
H1182 C1190 0.930 . S
H1183 C1191 0.930 . S
H1184 C1194 0.930 . S
H1185 C1195 0.930 1_655 S
C1186 H1180 0.930 . S
C1186 C1187 1.355 . S
C1186 C1188 1.415 . S
C1187 C1186 1.355 . S
C1187 C1189 1.419 . S
C1188 C1186 1.415 . S
C1188 C1193 1.425 . S
C1188 C1195 1.409 . S
C1189 H1181 0.930 . S
C1189 C1187 1.419 . S
C1189 C1190 1.362 . S
C1190 H1182 0.930 . S
C1190 C1189 1.362 . S
C1190 C1193 1.409 . S
C1191 H1183 0.930 . S
C1191 C1192 1.355 . S
C1191 C1193 1.415 . S
C1192 C1191 1.355 . S
C1192 C1194 1.419 1_455 S
C1193 C1188 1.425 . S
C1193 C1190 1.409 . S
C1193 C1191 1.415 . S
C1194 H1184 0.930 . S
C1194 C1192 1.419 1_655 S
C1194 C1195 1.362 1_655 S
C1195 H1185 0.930 1_455 S
C1195 C1188 1.409 . S
C1195 C1194 1.362 1_455 S
H1196 C1202 0.930 . S
H1197 C1205 0.930 . S
H1198 C1206 0.930 . S
H1199 C1207 0.930 . S
H1200 C1210 0.930 . S
H1201 C1211 0.930 . S
C1202 H1196 0.930 . S
C1202 C1203 1.355 . S
C1202 C1204 1.415 . S
C1203 C1202 1.355 . S
C1203 C1205 1.419 . S
C1204 C1202 1.415 . S
C1204 C1209 1.425 . S
C1204 C1211 1.409 . S
C1205 H1197 0.930 . S
C1205 C1203 1.419 . S
C1205 C1206 1.362 . S
C1206 H1198 0.930 . S
C1206 C1205 1.362 . S
C1206 C1209 1.409 . S
C1207 H1199 0.930 . S
C1207 C1208 1.355 . S
C1207 C1209 1.415 . S
C1208 C1207 1.355 . S
C1208 C1210 1.419 . S
C1209 C1204 1.425 . S
C1209 C1206 1.409 . S
C1209 C1207 1.415 . S
C1210 H1200 0.930 . S
C1210 C1208 1.419 . S
C1210 C1211 1.362 . S
C1211 H1201 0.930 . S
C1211 C1204 1.409 . S
C1211 C1210 1.362 . S
H1212 C1218 0.930 1_655 S
H1213 C1221 0.930 . S
H1214 C1222 0.930 . S
H1215 C1223 0.930 . S
H1216 C1226 0.930 . S
H1217 C1227 0.930 1_655 S
C1218 H1212 0.930 1_455 S
C1218 C1219 1.355 . S
C1218 C1220 1.415 . S
C1219 C1218 1.355 . S
C1219 C1221 1.419 . S
C1220 C1218 1.415 . S
C1220 C1225 1.425 . S
C1220 C1227 1.409 . S
C1221 H1213 0.930 . S
C1221 C1219 1.419 . S
C1221 C1222 1.362 . S
C1222 H1214 0.930 . S
C1222 C1221 1.362 . S
C1222 C1225 1.409 . S
C1223 H1215 0.930 . S
C1223 C1224 1.355 . S
C1223 C1225 1.415 . S
C1224 C1223 1.355 . S
C1224 C1226 1.419 . S
C1225 C1220 1.425 . S
C1225 C1222 1.409 . S
C1225 C1223 1.415 . S
C1226 H1216 0.930 . S
C1226 C1224 1.419 . S
C1226 C1227 1.362 . S
C1227 H1217 0.930 1_455 S
C1227 C1220 1.409 . S
C1227 C1226 1.362 . S
H1228 C1234 0.930 . S
H1229 C1237 0.930 . S
H1230 C1238 0.930 . S
H1231 C1239 0.930 . S
H1232 C1242 0.930 . S
H1233 C1243 0.930 . S
C1234 H1228 0.930 . S
C1234 C1235 1.355 . S
C1234 C1236 1.415 . S
C1235 C1234 1.355 . S
C1235 C1237 1.419 . S
C1236 C1234 1.415 . S
C1236 C1241 1.425 . S
C1236 C1243 1.409 . S
C1237 H1229 0.930 . S
C1237 C1235 1.419 . S
C1237 C1238 1.362 . S
C1238 H1230 0.930 . S
C1238 C1237 1.362 . S
C1238 C1241 1.409 . S
C1239 H1231 0.930 . S
C1239 C1240 1.355 . S
C1239 C1241 1.415 . S
C1240 C1239 1.355 . S
C1240 C1242 1.419 . S
C1241 C1236 1.425 . S
C1241 C1238 1.409 . S
C1241 C1239 1.415 . S
C1242 H1232 0.930 . S
C1242 C1240 1.419 . S
C1242 C1243 1.362 . S
C1243 H1233 0.930 . S
C1243 C1236 1.409 . S
C1243 C1242 1.362 . S
H1244 C1250 0.930 . S
H1245 C1253 0.930 . S
H1246 C1254 0.930 . S
H1247 C1255 0.930 . S
H1248 C1258 0.930 . S
H1249 C1259 0.930 . S
C1250 H1244 0.930 . S
C1250 C1251 1.355 . S
C1250 C1252 1.415 . S
C1251 C1250 1.355 . S
C1251 C1253 1.419 . S
C1252 C1250 1.415 . S
C1252 C1257 1.425 . S
C1252 C1259 1.409 . S
C1253 H1245 0.930 . S
C1253 C1251 1.419 . S
C1253 C1254 1.362 . S
C1254 H1246 0.930 . S
C1254 C1253 1.362 . S
C1254 C1257 1.409 . S
C1255 H1247 0.930 . S
C1255 C1256 1.355 . S
C1255 C1257 1.415 . S
C1256 C1255 1.355 . S
C1256 C1258 1.419 . S
C1257 C1252 1.425 . S
C1257 C1254 1.409 . S
C1257 C1255 1.415 . S
C1258 H1248 0.930 . S
C1258 C1256 1.419 . S
C1258 C1259 1.362 . S
C1259 H1249 0.930 . S
C1259 C1252 1.409 . S
C1259 C1258 1.362 . S
C403 C59 1.097 . S
C408 C8 1.151 . S
C419 C30 1.135 . S
C424 C21 1.122 . S
C435 C43 1.082 . S
C440 C54 1.157 . S
C451 C84 1.109 . S
C456 C103 1.148 . S
C467 C125 1.077 . S
C472 C98 1.156 . S
C483 C120 1.143 . S
C488 C73 1.083 . S
C499 C191 1.077 . S
C504 C140 1.155 . S
C515 C153 1.089 1_455 S
C520 C172 1.143 1_565 S
C531 C161 1.155 . S
C536 C186 1.098 1_455 S
C547 C235 1.151 . S
C552 C208 1.104 . S
C563 C230 1.109 . S
C568 C257 1.118 . S
C579 C213 1.080 . S
C584 C252 1.157 . S
C595 C274 1.134 . S
C600 C323 1.090 . S
C611 C279 1.138 . S
C616 C294 1.120 . S
C627 C307 1.138 . S
C632 C318 1.095 . S
C643 C359 1.131 . S
C648 C348 1.109 . S
C659 C389 1.116 . S
C664 C370 1.111 1_545 S
C675 C384 1.143 1_655 S
C680 C337 1.083 . S
C691 C18 1.115 . S
C696 C206 1.189 . S
C707 C40 1.157 . S
C712 C228 1.126 . S
C723 C250 1.162 . S
C728 C52 1.122 . S
C739 C76 1.112 . S
C744 C272 1.179 . S
C755 C304 1.153 . S
C760 C96 1.129 . S
C771 C316 1.187 . S
C776 C118 1.125 . S
C787 C293 1.179 . S
C792 C131 1.255 . S
C803 C81 1.236 . S
C808 C329 1.212 . S
C819 C285 1.185 . S
C824 C109 1.258 . S
C835 C29 1.212 . S
C840 C263 1.218 . S
C851 C65 1.181 . S
C856 C219 1.251 . S
C867 C241 1.195 . S
C872 C7 1.250 . S
C883 C340 1.159 . S
C888 C150 1.163 . S
C899 C164 1.173 . S
C904 C362 1.147 . S
C915 C382 1.171 . S
C920 C184 1.150 . S
C931 C395 1.253 . S
C936 C169 1.180 . S
C947 C197 1.178 . S
C952 C345 1.256 . S
C963 C367 1.184 . S
C968 C139 1.258 . S
C979 C15 1.363 . S
C984 C87 1.363 . S
C995 C95 1.377 . S
C1000 C37 1.377 . S
C1011 C117 1.375 . S
C1016 C51 1.375 . S
C1027 C32 1.261 . S
C1032 C128 1.262 . S
C1043 C62 1.279 . S
C1048 C74 1.268 . S
C1059 C106 1.255 . S
C1064 C10 1.281 . S
C1075 C147 1.379 . S
C1080 C205 1.380 1_655 S
C1091 C227 1.383 . S
C1096 C175 1.383 . S
C1107 C249 1.379 1_545 S
C1112 C183 1.379 . S
C1123 C162 1.254 . S
C1128 C260 1.279 1_545 S
C1139 C216 1.281 1_655 S
C1144 C194 1.256 . S
C1155 C142 1.259 . S
C1160 C238 1.282 . S
C1171 C351 1.363 . S
C1176 C271 1.363 1_565 S
C1187 C373 1.363 . S
C1192 C301 1.363 1_455 S
C1203 C381 1.377 . S
C1208 C315 1.377 . S
C1219 C296 1.282 1_455 S
C1224 C392 1.258 . S
C1235 C326 1.279 . S
C1240 C338 1.268 . S
C1251 C360 1.264 . S
C1256 C282 1.259 1_565 S
