# Generated by pormake.
# Topology ske, (6)-cn, num edge types: 1
# Building blocks:
#     Node 0, Type 0, BuildingBlock: INOVEN_clean_sbu_0, # of connection points: 6
#     Node 1, Type 0, BuildingBlock: INOVEN_clean_sbu_0, # of connection points: 6
#     Node 2, Type 0, BuildingBlock: INOVEN_clean_sbu_0, # of connection points: 6
#     Node 3, Type 0, BuildingBlock: INOVEN_clean_sbu_0, # of connection points: 6
#     Node 4, Type 0, BuildingBlock: INOVEN_clean_sbu_0, # of connection points: 6
#     Node 5, Type 0, BuildingBlock: INOVEN_clean_sbu_0, # of connection points: 6
#     Node 6, Type 0, BuildingBlock: INOVEN_clean_sbu_0, # of connection points: 6
#     Node 7, Type 0, BuildingBlock: INOVEN_clean_sbu_0, # of connection points: 6
#     Edge 8, Type (0, 0), BuildingBlock: CIFDUS_clean_linker_0, # of connection points: 2
#     Edge 9, Type (0, 0), BuildingBlock: CIFDUS_clean_linker_0, # of connection points: 2
#     Edge 10, Type (0, 0), BuildingBlock: CIFDUS_clean_linker_0, # of connection points: 2
#     Edge 11, Type (0, 0), BuildingBlock: CIFDUS_clean_linker_0, # of connection points: 2
#     Edge 12, Type (0, 0), BuildingBlock: CIFDUS_clean_linker_0, # of connection points: 2
#     Edge 13, Type (0, 0), BuildingBlock: CIFDUS_clean_linker_0, # of connection points: 2
#     Edge 14, Type (0, 0), BuildingBlock: CIFDUS_clean_linker_0, # of connection points: 2
#     Edge 15, Type (0, 0), BuildingBlock: CIFDUS_clean_linker_0, # of connection points: 2
#     Edge 16, Type (0, 0), BuildingBlock: CIFDUS_clean_linker_0, # of connection points: 2
#     Edge 17, Type (0, 0), BuildingBlock: CIFDUS_clean_linker_0, # of connection points: 2
#     Edge 18, Type (0, 0), BuildingBlock: CIFDUS_clean_linker_0, # of connection points: 2
#     Edge 19, Type (0, 0), BuildingBlock: CIFDUS_clean_linker_0, # of connection points: 2
#     Edge 20, Type (0, 0), BuildingBlock: CIFDUS_clean_linker_0, # of connection points: 2
#     Edge 21, Type (0, 0), BuildingBlock: CIFDUS_clean_linker_0, # of connection points: 2
#     Edge 22, Type (0, 0), BuildingBlock: CIFDUS_clean_linker_0, # of connection points: 2
#     Edge 23, Type (0, 0), BuildingBlock: CIFDUS_clean_linker_0, # of connection points: 2
#     Edge 24, Type (0, 0), BuildingBlock: CIFDUS_clean_linker_0, # of connection points: 2
#     Edge 25, Type (0, 0), BuildingBlock: CIFDUS_clean_linker_0, # of connection points: 2
#     Edge 26, Type (0, 0), BuildingBlock: CIFDUS_clean_linker_0, # of connection points: 2
#     Edge 27, Type (0, 0), BuildingBlock: CIFDUS_clean_linker_0, # of connection points: 2
#     Edge 28, Type (0, 0), BuildingBlock: CIFDUS_clean_linker_0, # of connection points: 2
#     Edge 29, Type (0, 0), BuildingBlock: CIFDUS_clean_linker_0, # of connection points: 2
#     Edge 30, Type (0, 0), BuildingBlock: CIFDUS_clean_linker_0, # of connection points: 2
#     Edge 31, Type (0, 0), BuildingBlock: CIFDUS_clean_linker_0, # of connection points: 2
# Relax obj value: 0.200
# Max RMSD: 0.211
# Mean RMSD: 0.204
data_MOF--net-ske--node1-INOVEN_clean_sbu_0--edge1-CIFDUS_clean_linker_0
_symmetry_space_group_name_H-M    P1
_symmetry_Int_Tables_number       1
_symmetry_cell_setting            triclinic
loop_
_symmetry_equiv_pos_as_xyz
'x, y, z'
_cell_length_a     95.834341
_cell_length_b     25.486353
_cell_length_c     13.678346
_cell_angle_alpha  89.504015
_cell_angle_beta   90.141033
_cell_angle_gamma 82.676567
loop_
_atom_site_label
_atom_site_type_symbol
_atom_site_fract_x
_atom_site_fract_y
_atom_site_fract_z
_atom_type_partial_charge
Gd0 Gd 0.15901 0.25407 0.541 0.0
Gd1 Gd 0.12692 0.25889 0.52868 0.0
C2 C 0.14126 0.25188 0.74148 0.0
C3 C 0.18481 0.27288 0.55982 0.0
C4 C 0.19874 0.26167 0.6081 0.0
C5 C 0.20846 0.2187 0.57869 0.0
C6 C 0.20324 0.29895 0.6721 0.0
C7 C 0.22716 0.25287 0.67024 0.0
C8 C 0.21728 0.29458 0.70299 0.0
C9 C 0.22248 0.21427 0.6097 0.0
C10 C 0.14973 0.15806 0.52972 0.0
C11 C 0.14474 0.26008 0.32803 0.0
C12 C 0.10113 0.24005 0.51389 0.0
C13 C 0.08644 0.24925 0.47994 0.0
C14 C 0.07937 0.30033 0.46435 0.0
C15 C 0.07881 0.20593 0.47794 0.0
C16 C 0.0569 0.26466 0.45438 0.0
C17 C 0.06422 0.21345 0.4658 0.0
C18 C 0.06474 0.30792 0.45088 0.0
C19 C 0.13639 0.35417 0.54284 0.0
O20 O 0.15287 0.26484 0.70052 0.0
O21 O 0.13087 0.23814 0.6875 0.0
O22 O 0.18088 0.23732 0.5009 0.0
O23 O 0.17433 0.29891 0.60757 0.0
O24 O 0.16192 0.16773 0.49912 0.0
O25 O 0.14386 0.19742 0.57541 0.0
O26 O 0.13309 0.24763 0.36921 0.0
O27 O 0.15523 0.27331 0.38164 0.0
O28 O 0.10536 0.27377 0.57532 0.0
O29 O 0.11107 0.21801 0.45642 0.0
O30 O 0.12412 0.34505 0.57249 0.0
O31 O 0.14205 0.31537 0.49498 0.0
H32 H 0.20541 0.18949 0.52858 0.0
H33 H 0.19607 0.33298 0.69466 0.0
H34 H 0.2205 0.32537 0.74879 0.0
H35 H 0.22973 0.1811 0.58447 0.0
H36 H 0.08507 0.33441 0.46618 0.0
H37 H 0.08406 0.16627 0.49127 0.0
H38 H 0.05865 0.17915 0.47062 0.0
H39 H 0.05955 0.34785 0.44026 0.0
Gd40 Gd 0.87254 0.26066 0.5118 0.0
Gd41 Gd 0.90407 0.25547 0.53527 0.0
C42 C 0.88606 0.25901 0.73057 0.0
C43 C 0.84633 0.24501 0.51421 0.0
C44 C 0.83323 0.25072 0.5724 0.0
C45 C 0.82154 0.28491 0.53842 0.0
C46 C 0.83167 0.21876 0.65497 0.0
C47 C 0.80677 0.2534 0.66527 0.0
C48 C 0.81858 0.22009 0.70083 0.0
C49 C 0.80849 0.28641 0.58441 0.0
C50 C 0.88214 0.35557 0.50904 0.0
C51 C 0.89044 0.25773 0.31592 0.0
C52 C 0.93012 0.27304 0.53778 0.0
C53 C 0.94442 0.26505 0.49528 0.0
C54 C 0.95257 0.21508 0.49558 0.0
C55 C 0.95078 0.3096 0.46816 0.0
C56 C 0.97348 0.2553 0.45067 0.0
C57 C 0.96512 0.30482 0.44585 0.0
C58 C 0.96694 0.21028 0.47348 0.0
C59 C 0.89458 0.15958 0.53154 0.0
O60 O 0.87538 0.24898 0.67536 0.0
O61 O 0.89782 0.27108 0.69133 0.0
O62 O 0.85064 0.28822 0.47997 0.0
O63 O 0.85668 0.20931 0.54172 0.0
O64 O 0.87163 0.34453 0.45706 0.0
O65 O 0.88652 0.31758 0.5654 0.0
O66 O 0.90125 0.26667 0.37127 0.0
O67 O 0.87856 0.24641 0.35494 0.0
O68 O 0.92552 0.23315 0.58269 0.0
O69 O 0.92019 0.30414 0.4924 0.0
O70 O 0.90537 0.16975 0.58181 0.0
O71 O 0.89011 0.19913 0.47939 0.0
H72 H 0.8224 0.30967 0.47448 0.0
H73 H 0.84044 0.19164 0.68261 0.0
H74 H 0.81764 0.1937 0.76225 0.0
H75 H 0.79972 0.31325 0.556 0.0
H76 H 0.94802 0.17996 0.51699 0.0
H77 H 0.94478 0.34863 0.46822 0.0
H78 H 0.96971 0.34022 0.42685 0.0
H79 H 0.97304 0.17156 0.47881 0.0
Gd80 Gd 0.12836 0.75803 0.52439 0.0
Gd81 Gd 0.16013 0.75068 0.51323 0.0
C82 C 0.14637 0.75503 0.7262 0.0
C83 C 0.10238 0.7413 0.53856 0.0
C84 C 0.08773 0.74757 0.57507 0.0
C85 C 0.07768 0.78752 0.53649 0.0
C86 C 0.0831 0.70789 0.63397 0.0
C87 C 0.0586 0.74485 0.60681 0.0
C88 C 0.06873 0.70675 0.65024 0.0
C89 C 0.06331 0.78615 0.55205 0.0
C90 C 0.13813 0.8534 0.51718 0.0
C91 C 0.14224 0.75312 0.31165 0.0
C92 C 0.18622 0.76552 0.49329 0.0
C93 C 0.1996 0.76132 0.43833 0.0
C94 C 0.20967 0.71625 0.44719 0.0
C95 C 0.20337 0.80632 0.39023 0.0
C96 C 0.2273 0.76307 0.36809 0.0
C97 C 0.21701 0.80711 0.35518 0.0
C98 C 0.22337 0.71705 0.4121 0.0
C99 C 0.15 0.65621 0.52445 0.0
O100 O 0.13445 0.7454 0.68461 0.0
O101 O 0.15708 0.76667 0.67309 0.0
O102 O 0.10657 0.77924 0.48558 0.0
O103 O 0.11258 0.71295 0.58687 0.0
O104 O 0.12608 0.84464 0.48235 0.0
O105 O 0.14373 0.81296 0.5626 0.0
O106 O 0.1541 0.76317 0.35314 0.0
O107 O 0.13163 0.74107 0.365 0.0
O108 O 0.18232 0.72317 0.53425 0.0
O109 O 0.17564 0.79934 0.46285 0.0
O110 O 0.16165 0.66569 0.56485 0.0
O111 O 0.14482 0.69586 0.4751 0.0
H112 H 0.08085 0.81829 0.48946 0.0
H113 H 0.09054 0.67618 0.66371 0.0
H114 H 0.06555 0.67494 0.69452 0.0
H115 H 0.0559 0.81591 0.51636 0.0
H116 H 0.20718 0.68119 0.48525 0.0
H117 H 0.19594 0.84196 0.38347 0.0
H118 H 0.21958 0.84287 0.32005 0.0
H119 H 0.23104 0.68253 0.42389 0.0
Gd120 Gd 0.9047 0.75338 0.51108 0.0
Gd121 Gd 0.87309 0.76059 0.53334 0.0
C122 C 0.89108 0.7572 0.72994 0.0
C123 C 0.93112 0.76625 0.50599 0.0
C124 C 0.94551 0.75996 0.5483 0.0
C125 C 0.95588 0.72218 0.50884 0.0
C126 C 0.94963 0.79708 0.61439 0.0
C127 C 0.97435 0.76201 0.5927 0.0
C128 C 0.96388 0.79788 0.63676 0.0
C129 C 0.97011 0.72318 0.53062 0.0
C130 C 0.89462 0.65873 0.51501 0.0
C131 C 0.88669 0.7587 0.31521 0.0
C132 C 0.84682 0.7452 0.52991 0.0
C133 C 0.83375 0.74964 0.47012 0.0
C134 C 0.82274 0.79021 0.48902 0.0
C135 C 0.83141 0.71032 0.40267 0.0
C136 C 0.80717 0.75105 0.37715 0.0
C137 C 0.8183 0.71103 0.35682 0.0
C138 C 0.80965 0.79105 0.44292 0.0
C139 C 0.8831 0.85497 0.53462 0.0
O140 O 0.90199 0.76483 0.6746 0.0
O141 O 0.87906 0.74717 0.69112 0.0
O142 O 0.9262 0.72468 0.47109 0.0
O143 O 0.92137 0.80077 0.54345 0.0
O144 O 0.90503 0.66925 0.46141 0.0
O145 O 0.89046 0.69781 0.56803 0.0
O146 O 0.87597 0.74893 0.37026 0.0
O147 O 0.8985 0.7702 0.35461 0.0
O148 O 0.85114 0.78895 0.56019 0.0
O149 O 0.8572 0.70882 0.5073 0.0
O150 O 0.87215 0.84501 0.58307 0.0
O151 O 0.88741 0.81668 0.47993 0.0
H152 H 0.95309 0.69359 0.45646 0.0
H153 H 0.94193 0.82707 0.64552 0.0
H154 H 0.96669 0.82769 0.68645 0.0
H155 H 0.97779 0.69527 0.49415 0.0
H156 H 0.82412 0.82074 0.54149 0.0
H157 H 0.83957 0.67802 0.38733 0.0
H158 H 0.81678 0.67912 0.30777 0.0
H159 H 0.80144 0.82297 0.4594 0.0
Gd160 Gd 0.66079 0.75312 0.04518 0.0
Gd161 Gd 0.62897 0.75931 0.06487 0.0
C162 C 0.64689 0.75484 0.26184 0.0
C163 C 0.68691 0.77036 0.05188 0.0
C164 C 0.69991 0.76488 0.11255 0.0
C165 C 0.71086 0.72402 0.09391 0.0
C166 C 0.70225 0.80377 0.1809 0.0
C167 C 0.72638 0.76225 0.20752 0.0
C168 C 0.7153 0.80246 0.22773 0.0
C169 C 0.7239 0.72259 0.14103 0.0
C170 C 0.65122 0.65791 0.04584 0.0
C171 C 0.64307 0.75404 0.84756 0.0
C172 C 0.60282 0.74265 0.06555 0.0
C173 C 0.588 0.7515 0.03157 0.0
C174 C 0.57814 0.78877 0.07771 0.0
C175 C 0.58312 0.71591 0.9657 0.0
C176 C 0.55878 0.75088 1.0005 0.0
C177 C 0.5687 0.71576 0.95001 0.0
C178 C 0.56369 0.78854 0.06219 0.0
C179 C 0.63869 0.85466 0.05517 0.0
O180 O 0.65756 0.76558 0.20735 0.0
O181 O 0.63523 0.7422 0.22174 0.0
O182 O 0.68284 0.7274 1.01577 0.0
O183 O 0.67636 0.8051 0.07821 0.0
O184 O 0.66238 0.66807 0.99994 0.0
O185 O 0.64642 0.69674 0.09801 0.0
O186 O 0.63222 0.74539 0.90262 0.0
O187 O 0.6549 0.76589 0.88672 0.0
O188 O 0.60772 0.77795 0.12043 0.0
O189 O 0.61237 0.71738 1.00916 0.0
O190 O 0.62759 0.84588 0.10325 0.0
O191 O 0.64323 0.81418 1.00737 0.0
H192 H 0.70949 0.69378 0.04084 0.0
H193 H 0.69415 0.83629 0.19609 0.0
H194 H 0.71683 0.83413 0.27731 0.0
H195 H 0.73207 0.69052 0.12462 0.0
H196 H 0.58152 0.81626 0.13 0.0
H197 H 0.59041 0.68624 0.92984 0.0
H198 H 0.56533 0.68688 0.90052 0.0
H199 H 0.55639 0.81595 0.10294 0.0
Gd200 Gd 0.37374 0.7589 0.04283 0.0
Gd201 Gd 0.40461 0.75344 0.06815 0.0
C202 C 0.38682 0.75785 0.26217 0.0
C203 C 0.34728 0.74621 0.04425 0.0
C204 C 0.33436 0.74624 0.10393 0.0
C205 C 0.32404 0.79072 0.10285 0.0
C206 C 0.33127 0.69965 0.15021 0.0
C207 C 0.3074 0.74062 0.18544 0.0
C208 C 0.31798 0.69696 0.19083 0.0
C209 C 0.31073 0.78799 0.14316 0.0
C210 C 0.3833 0.85442 0.03664 0.0
C211 C 0.39144 0.75538 0.84743 0.0
C212 C 0.4309 0.76792 0.07502 0.0
C213 C 0.4455 0.76287 0.03729 0.0
C214 C 0.45573 0.72416 0.0774 0.0
C215 C 0.4499 0.802 0.97573 0.0
C216 C 0.47453 0.76679 1.00313 0.0
C217 C 0.46423 0.80375 0.95843 0.0
C218 C 0.47005 0.72607 0.06061 0.0
C219 C 0.39501 0.65783 0.07029 0.0
O220 O 0.37643 0.74575 0.20642 0.0
O221 O 0.39837 0.77156 0.22292 0.0
O222 O 0.35183 0.79153 0.02646 0.0
O223 O 0.35749 0.70731 0.05606 0.0
O224 O 0.37358 0.84068 0.97992 0.0
O225 O 0.38737 0.81746 0.09639 0.0
O226 O 0.40224 0.76368 0.90345 0.0
O227 O 0.37946 0.74515 0.88591 0.0
O228 O 0.42611 0.72596 0.11055 0.0
O229 O 0.42112 0.8019 0.03469 0.0
O230 O 0.4049 0.6702 0.12678 0.0
O231 O 0.39102 0.69544 1.01235 0.0
H232 H 0.32599 0.82705 0.06671 0.0
H233 H 0.33892 0.6645 0.15186 0.0
H234 H 0.31591 0.66015 0.22451 0.0
H235 H 0.30286 0.82231 0.13666 0.0
H236 H 0.45273 0.69399 0.12653 0.0
H237 H 0.44232 0.83276 0.94441 0.0
H238 H 0.46725 0.83508 0.91218 0.0
H239 H 0.4776 0.69724 0.09734 0.0
Gd240 Gd 0.62883 0.26202 1.01862 0.0
Gd241 Gd 0.66092 0.25127 1.00469 0.0
C242 C 0.6472 0.25513 0.21792 0.0
C243 C 0.60241 0.25479 0.03913 0.0
C244 C 0.58724 0.25076 0.0509 0.0
C245 C 0.5774 0.29658 0.05368 0.0
C246 C 0.58237 0.2011 0.05209 0.0
C247 C 0.55803 0.24313 0.05337 0.0
C248 C 0.56794 0.19732 0.05364 0.0
C249 C 0.56296 0.29283 0.05483 0.0
C250 C 0.6399 0.3544 1.00396 0.0
C251 C 0.64224 0.25598 0.80366 0.0
C252 C 0.68675 0.2683 0.97887 0.0
C253 C 0.69976 0.25967 0.91984 0.0
C254 C 0.71134 0.22501 0.95432 0.0
C255 C 0.70148 0.29126 0.83707 0.0
C256 C 0.72627 0.25536 0.82717 0.0
C257 C 0.71457 0.2891 0.79127 0.0
C258 C 0.72442 0.2227 0.90833 0.0
C259 C 0.65067 0.15811 1.02355 0.0
O260 O 0.63537 0.24466 0.1764 0.0
O261 O 0.65781 0.26781 0.16475 0.0
O262 O 0.60753 0.29983 0.04445 0.0
O263 O 0.61177 0.21347 1.02582 0.0
O264 O 0.62817 0.34602 0.96331 0.0
O265 O 0.64488 0.3145 0.05348 0.0
O266 O 0.65465 0.25943 0.84449 0.0
O267 O 0.63092 0.2518 0.85662 0.0
O268 O 0.68322 0.22878 0.03112 0.0
O269 O 0.67589 0.29883 0.94283 0.0
O270 O 0.6631 0.16598 0.05259 0.0
O271 O 0.64506 0.19743 0.97434 0.0
H272 H 0.58084 0.33546 0.05204 0.0
H273 H 0.58969 0.16507 0.04999 0.0
H274 H 0.56455 0.15838 0.05425 0.0
H275 H 0.55567 0.32897 0.05345 0.0
H276 H 0.71042 0.20079 1.01889 0.0
H277 H 0.69285 0.31912 0.80958 0.0
H278 H 0.71563 0.31538 0.72986 0.0
H279 H 0.73312 0.19568 0.93717 0.0
Gd280 Gd 0.40395 0.25389 0.98071 0.0
Gd281 Gd 0.37315 0.25962 1.00552 0.0
C282 C 0.39099 0.25414 0.20048 0.0
C283 C 0.43037 0.26645 0.97386 0.0
C284 C 0.44468 0.26457 1.01611 0.0
C285 C 0.45372 0.21668 1.02424 0.0
C286 C 0.45019 0.3122 0.03237 0.0
C287 C 0.47368 0.26463 0.05773 0.0
C288 C 0.46449 0.31228 0.0528 0.0
C289 C 0.46804 0.21671 0.04518 0.0
C290 C 0.39421 0.15873 0.97778 0.0
C291 C 0.38615 0.2596 0.78542 0.0
C292 C 0.34676 0.24592 1.00346 0.0
C293 C 0.33312 0.25532 0.95043 0.0
C294 C 0.32326 0.29886 0.97485 0.0
C295 C 0.32896 0.21706 0.8868 0.0
C296 C 0.30502 0.26313 0.88116 0.0
C297 C 0.31507 0.221 0.85228 0.0
C298 C 0.30943 0.30282 0.94034 0.0
C299 C 0.38268 0.35538 1.00905 0.0
O300 O 0.40154 0.26501 0.14468 0.0
O301 O 0.37927 0.24165 0.1614 0.0
O302 O 0.42558 0.22213 0.95279 0.0
O303 O 0.4205 0.30403 0.99981 0.0
O304 O 0.40385 0.17199 0.92005 0.0
O305 O 0.39032 0.19552 0.03646 0.0
O306 O 0.3755 0.25004 0.84127 0.0
O307 O 0.39802 0.27046 0.82428 0.0
O308 O 0.35154 0.28648 0.04359 0.0
O309 O 0.35677 0.21137 0.96881 0.0
O310 O 0.37274 0.34197 0.0641 0.0
O311 O 0.38674 0.31841 0.95071 0.0
H312 H 0.44986 0.17923 1.01091 0.0
H313 H 0.44358 0.34978 1.02453 0.0
H314 H 0.46842 0.35003 0.0603 0.0
H315 H 0.47473 0.17918 0.04984 0.0
H316 H 0.32604 0.32889 1.02422 0.0
H317 H 0.33623 0.18271 0.86727 0.0
H318 H 0.31205 0.18958 0.80717 0.0
H319 H 0.30206 0.33639 0.96239 0.0
H320 H 0.23881 0.27741 0.84386 0.0
H321 H 0.24985 0.22489 0.55169 0.0
H322 H 0.27476 0.22257 0.59087 0.0
H323 H 0.29352 0.23718 0.70719 0.0
H324 H 0.28232 0.29045 0.99869 0.0
H325 H 0.25746 0.29226 0.95946 0.0
C326 C 0.24664 0.26585 0.78839 0.0
C327 C 0.24238 0.25101 0.69516 0.0
C328 C 0.26098 0.26526 0.81089 0.0
C329 C 0.25276 0.23552 0.62475 0.0
C330 C 0.26705 0.2346 0.64678 0.0
C331 C 0.28565 0.24888 0.76232 0.0
C332 C 0.28985 0.26414 0.85549 0.0
C333 C 0.27129 0.24943 0.73962 0.0
C334 C 0.27944 0.27957 0.92569 0.0
C335 C 0.26519 0.28021 0.90364 0.0
H336 H 0.75179 0.24848 0.9191 0.0
H337 H 0.73258 0.26271 0.63265 0.0
H338 H 0.75561 0.26443 0.5581 0.0
H339 H 0.78125 0.25983 0.57354 0.0
H340 H 0.80049 0.24565 0.8599 0.0
H341 H 0.77745 0.24393 0.93453 0.0
C342 C 0.75263 0.25123 0.84023 0.0
C343 C 0.7404 0.25531 0.78176 0.0
C344 C 0.76595 0.25172 0.79758 0.0
C345 C 0.74174 0.26008 0.67976 0.0
C346 C 0.75494 0.26075 0.6369 0.0
C347 C 0.78042 0.25704 0.65241 0.0
C348 C 0.79266 0.25298 0.71083 0.0
C349 C 0.76711 0.25656 0.69507 0.0
C350 C 0.79132 0.24821 0.81282 0.0
C351 C 0.77812 0.24756 0.85573 0.0
H352 H 0.28886 0.8147 0.27749 0.0
H353 H 0.29278 0.65565 0.16542 0.0
H354 H 0.26868 0.64797 0.21387 0.0
H355 H 0.2461 0.68727 0.28298 0.0
H356 H 0.24216 0.84666 0.39317 0.0
H357 H 0.26641 0.85371 0.34757 0.0
C358 C 0.28444 0.77844 0.26298 0.0
C359 C 0.29276 0.73579 0.21821 0.0
C360 C 0.27045 0.77447 0.28956 0.0
C361 C 0.28681 0.68887 0.20145 0.0
C362 C 0.27294 0.68454 0.22831 0.0
C363 C 0.25058 0.7234 0.29776 0.0
C364 C 0.24221 0.7665 0.34061 0.0
C365 C 0.26463 0.72715 0.27202 0.0
C366 C 0.2482 0.81318 0.35838 0.0
C367 C 0.26214 0.81716 0.33305 0.0
H368 H 0.75229 0.73547 0.12489 0.0
H369 H 0.73243 0.78995 0.39495 0.0
H370 H 0.75546 0.79251 0.4698 0.0
H371 H 0.78126 0.77753 0.46027 0.0
H372 H 0.8011 0.72301 0.19013 0.0
H373 H 0.77807 0.72035 0.11544 0.0
C374 C 0.75295 0.74723 0.20056 0.0
C375 C 0.74053 0.76245 0.25387 0.0
C376 C 0.76627 0.74817 0.24374 0.0
C377 C 0.74173 0.77865 0.35135 0.0
C378 C 0.75493 0.77982 0.39461 0.0
C379 C 0.78059 0.76569 0.38464 0.0
C380 C 0.79301 0.75051 0.33123 0.0
C381 C 0.76727 0.76469 0.34153 0.0
C382 C 0.7918 0.73426 0.2338 0.0
C383 C 0.77861 0.73304 0.19063 0.0
H384 H 0.12146 0.94772 0.50998 0.0
H385 H 0.16453 0.8788 0.55062 0.0
H386 H 0.17207 0.96686 0.55325 0.0
H387 H 0.16637 0.06393 0.54048 0.0
H388 H 0.12296 0.13276 0.529 0.0
H389 H 0.11549 0.04464 0.51943 0.0
C390 C 0.1325 0.95205 0.51933 0.0
C391 C 0.14252 0.90675 0.52619 0.0
C392 C 0.13663 1.0029 0.52621 0.0
C393 C 0.1567 0.91292 0.54169 0.0
C394 C 0.16099 0.96334 0.54401 0.0
C395 C 0.15527 0.05951 0.53601 0.0
C396 C 0.14521 0.10474 0.53242 0.0
C397 C 0.15106 0.00863 0.53534 0.0
C398 C 0.13087 0.09858 0.52962 0.0
C399 C 0.12662 0.04817 0.52448 0.0
H400 H 0.87385 0.43931 0.62536 0.0
H401 H 0.90095 0.38864 0.3843 0.0
H402 H 0.90718 0.47842 0.36452 0.0
H403 H 0.90422 0.57177 0.4118 0.0
H404 H 0.8767 0.62416 0.65019 0.0
H405 H 0.87123 0.53356 0.6751 0.0
C406 C 0.88131 0.44806 0.56985 0.0
C407 C 0.88718 0.40769 0.50737 0.0
C408 C 0.88459 0.50008 0.55781 0.0
C409 C 0.89655 0.41918 0.4341 0.0
C410 C 0.90001 0.47049 0.4224 0.0
C411 C 0.89703 0.56336 0.46929 0.0
C412 C 0.89086 0.60456 0.52902 0.0
C413 C 0.89397 0.51135 0.48305 0.0
C414 C 0.88154 0.59312 0.60302 0.0
C415 C 0.87845 0.54131 0.61748 0.0
H416 H 0.86892 0.94568 0.46184 0.0
H417 H 0.90744 0.8826 0.60642 0.0
H418 H 0.91457 0.97111 0.61608 0.0
H419 H 0.90924 0.0671 0.59143 0.0
H420 H 0.87109 0.13119 0.44229 0.0
H421 H 0.86422 0.04217 0.42787 0.0
C422 C 0.87895 0.95152 0.49401 0.0
C423 C 0.88787 0.90769 0.53089 0.0
C424 C 0.88288 1.00283 0.50018 0.0
C425 C 0.90072 0.91545 0.574 0.0
C426 C 0.90467 0.96621 0.58096 0.0
C427 C 0.89944 0.06158 0.55557 0.0
C428 C 0.89057 0.10575 0.51943 0.0
C429 C 0.89576 0.01024 0.54535 0.0
C430 C 0.878 0.09791 0.47194 0.0
C431 C 0.8741 0.04698 0.46331 0.0
H432 H 0.161 0.56746 0.62156 0.0
H433 H 0.12944 0.62501 0.40783 0.0
H434 H 0.12288 0.53577 0.3907 0.0
H435 H 0.12581 0.44123 0.43963 0.0
H436 H 0.15728 0.38438 0.65357 0.0
H437 H 0.16427 0.47319 0.6676 0.0
C438 C 0.15268 0.56043 0.5713 0.0
C439 C 0.14569 0.60271 0.51626 0.0
C440 C 0.14901 0.50906 0.56173 0.0
C441 C 0.13492 0.59312 0.45145 0.0
C442 C 0.13119 0.54209 0.44142 0.0
C443 C 0.13428 0.4485 0.48841 0.0
C444 C 0.14122 0.40662 0.54445 0.0
C445 C 0.13813 0.49977 0.49642 0.0
C446 C 0.15208 0.41602 0.60817 0.0
C447 C 0.15596 0.46683 0.61682 0.0
H448 H 0.66787 0.56414 0.04954 0.0
H449 H 0.62442 0.63199 0.05138 0.0
H450 H 0.617 0.54454 0.03078 0.0
H451 H 0.62308 0.44833 1.00725 0.0
H452 H 0.66631 0.37911 0.03679 0.0
H453 H 0.67372 0.46701 0.05071 0.0
C454 C 0.65678 0.55961 0.04631 0.0
C455 C 0.64667 0.60466 0.04907 0.0
C456 C 0.65263 0.50882 0.03946 0.0
C457 C 0.63236 0.59824 0.04726 0.0
C458 C 0.62814 0.54809 0.03567 0.0
C459 C 0.63412 0.45263 1.01631 0.0
C460 C 0.64423 0.4075 1.01668 0.0
C461 C 0.6382 0.50313 0.03025 0.0
C462 C 0.65842 0.41333 0.03252 0.0
C463 C 0.66264 0.46359 0.04143 0.0
H464 H 0.37653 0.9328 0.90473 0.0
H465 H 0.39743 0.90002 0.18199 0.0
H466 H 0.40166 0.99285 0.19298 0.0
H467 H 0.39961 0.08381 0.12128 0.0
H468 H 0.38004 0.11327 0.83893 0.0
H469 H 0.37485 0.02174 0.83275 0.0
C470 C 0.38201 0.94595 0.96764 0.0
C471 C 0.38661 0.90965 0.04262 0.0
C472 C 0.3845 0.99904 0.97278 0.0
C473 C 0.39381 0.92718 0.12323 0.0
C474 C 0.39617 0.98031 0.12967 0.0
C475 C 0.39404 0.07008 0.05932 0.0
C476 C 0.38998 0.10509 0.98117 0.0
C477 C 0.39153 0.01671 0.05489 0.0
C478 C 0.38309 0.08693 0.9001 0.0
C479 C 0.3802 0.03462 0.89641 0.0
H480 H 0.37653 0.43229 0.14183 0.0
H481 H 0.39684 0.40182 0.86365 0.0
H482 H 0.40149 0.49432 0.85349 0.0
H483 H 0.39995 0.58437 0.92609 0.0
H484 H 0.38101 0.61122 0.20948 0.0
H485 H 0.37544 0.52012 0.21496 0.0
C486 C 0.38198 0.44588 0.07887 0.0
C487 C 0.38626 0.41034 1.00335 0.0
C488 C 0.38473 0.49873 0.07431 0.0
C489 C 0.39344 0.42839 0.92278 0.0
C490 C 0.39605 0.48134 0.91685 0.0
C491 C 0.39445 0.57017 0.98819 0.0
C492 C 0.39067 0.60436 0.06683 0.0
C493 C 0.39171 0.51699 0.99216 0.0
C494 C 0.38385 0.58556 0.14799 0.0
C495 C 0.38074 0.53348 0.15125 0.0
H496 H 0.66508 0.06524 0.96755 0.0
H497 H 0.62576 0.13324 0.09193 0.0
H498 H 0.6184 0.04537 0.1106 0.0
H499 H 0.62376 0.9487 0.09998 0.0
H500 H 0.66267 0.88008 0.96928 0.0
H501 H 0.66979 0.96829 0.94648 0.0
C502 C 0.65484 0.06062 0.9976 0.0
C503 C 0.64578 0.1056 1.02616 0.0
C504 C 0.65078 0.00978 1.00876 0.0
C505 C 0.63261 0.09942 0.06577 0.0
C506 C 0.62853 0.04905 0.07803 0.0
C507 C 0.6338 0.95308 0.0664 0.0
C508 C 0.64282 0.90793 0.03819 0.0
C509 C 0.6376 1.00393 0.05087 0.0
C510 C 0.65567 0.91419 0.99323 0.0
C511 C 0.6597 0.96463 0.97969 0.0
H512 H 0.12604 0.23391 0.19024 0.0
H513 H 0.16652 0.28961 0.22099 0.0
H514 H 0.16908 0.29179 0.044 0.0
H515 H 0.15994 0.27796 0.87926 0.0
H516 H 0.11948 0.22216 0.84834 0.0
H517 H 0.11691 0.21999 1.02538 0.0
C518 C 0.13542 0.24661 0.15835 0.0
C519 C 0.14604 0.26162 0.21956 0.0
C520 C 0.13689 0.24771 0.05584 0.0
C521 C 0.15813 0.27781 0.17631 0.0
C522 C 0.15964 0.27909 0.07471 0.0
C523 C 0.15057 0.26521 0.91112 0.0
C524 C 0.13996 0.25018 0.8499 0.0
C525 C 0.1491 0.26408 1.0136 0.0
C526 C 0.12787 0.23394 0.89308 0.0
C527 C 0.12635 0.23269 0.9947 0.0
H528 H 0.87018 0.24886 0.17837 0.0
H529 H 0.91402 0.26896 0.20986 0.0
H530 H 0.91652 0.27141 0.03255 0.0
H531 H 0.90631 0.26804 0.86806 0.0
H532 H 0.86247 0.24787 0.83659 0.0
H533 H 0.85997 0.24547 1.0139 0.0
C534 C 0.8803 0.25368 0.14662 0.0
C535 C 0.89189 0.25869 0.20783 0.0
C536 C 0.88168 0.25522 0.04427 0.0
C537 C 0.9049 0.26509 0.16491 0.0
C538 C 0.90635 0.2665 0.06329 0.0
C539 C 0.89619 0.26325 0.89985 0.0
C540 C 0.8846 0.2582 0.83865 0.0
C541 C 0.89481 0.26171 1.0022 0.0
C542 C 0.87159 0.25178 0.88155 0.0
C543 C 0.87014 0.2504 0.98317 0.0
H544 H 0.16225 0.76627 0.17431 0.0
H545 H 0.11904 0.73745 0.20526 0.0
H546 H 0.11645 0.73531 0.02832 0.0
H547 H 0.12636 0.74162 0.86361 0.0
H548 H 0.16959 0.77034 0.83282 0.0
H549 H 0.17217 0.7724 1.00971 0.0
C550 C 0.15227 0.75956 0.14243 0.0
C551 C 0.14089 0.75205 0.2035 0.0
C552 C 0.15081 0.75828 0.04007 0.0
C553 C 0.12803 0.7433 0.16048 0.0
C554 C 0.1265 0.74207 0.05896 0.0
C555 C 0.13635 0.74827 0.8955 0.0
C556 C 0.14773 0.75583 0.83443 0.0
C557 C 0.13782 0.74948 0.9979 0.0
C558 C 0.1606 0.76448 0.87753 0.0
C559 C 0.16212 0.76566 0.97904 0.0
H560 H 0.87087 0.74774 0.86727 0.0
H561 H 0.91461 0.76951 0.8364 0.0
H562 H 0.9171 0.77221 1.0137 0.0
H563 H 0.90691 0.76851 0.17806 0.0
H564 H 0.86319 0.74657 0.20871 0.0
H565 H 0.8607 0.74398 0.03145 0.0
C566 C 0.88097 0.753 0.89913 0.0
C567 C 0.89253 0.75837 0.83807 0.0
C568 C 0.88235 0.75463 1.00147 0.0
C569 C 0.90551 0.76529 0.88119 0.0
C570 C 0.90695 0.76686 0.98282 0.0
C571 C 0.89682 0.76331 0.1461 0.0
C572 C 0.88525 0.75786 0.20709 0.0
C573 C 0.89545 0.76166 0.04374 0.0
C574 C 0.87229 0.75087 0.16395 0.0
C575 C 0.87084 0.74936 0.06234 0.0
H576 H 0.62706 0.74054 0.39991 0.0
H577 H 0.67012 0.77112 0.36765 0.0
H578 H 0.67275 0.77362 0.54463 0.0
H579 H 0.6629 0.76748 0.70934 0.0
H580 H 0.61984 0.73704 0.74202 0.0
H581 H 0.61721 0.73427 0.56494 0.0
C582 C 0.63704 0.74762 0.43148 0.0
C583 C 0.64836 0.75555 0.37002 0.0
C584 C 0.6385 0.74917 0.53385 0.0
C585 C 0.66119 0.76488 0.4127 0.0
C586 C 0.66272 0.76634 0.51422 0.0
C587 C 0.65293 0.76025 0.6779 0.0
C588 C 0.6416 0.7525 0.73945 0.0
C589 C 0.65146 0.75862 0.57559 0.0
C590 C 0.62877 0.74312 0.69687 0.0
C591 C 0.62724 0.74152 0.59532 0.0
H592 H 0.37139 0.74354 0.71005 0.0
H593 H 0.41473 0.77093 0.74115 0.0
H594 H 0.41708 0.77463 0.56371 0.0
H595 H 0.40687 0.77018 0.39934 0.0
H596 H 0.36358 0.74225 0.36847 0.0
H597 H 0.36122 0.73886 0.5459 0.0
C598 C 0.38138 0.75022 0.67823 0.0
C599 C 0.39287 0.75686 0.73933 0.0
C600 C 0.38267 0.75237 0.57589 0.0
C601 C 0.40569 0.76563 0.69628 0.0
C602 C 0.40705 0.76781 0.5946 0.0
C603 C 0.39689 0.7635 0.43128 0.0
C604 C 0.38541 0.75659 0.37025 0.0
C605 C 0.39561 0.76131 0.53365 0.0
C606 C 0.3726 0.74769 0.41333 0.0
C607 C 0.37123 0.74572 0.51499 0.0
H608 H 0.6268 0.24524 0.35423 0.0
H609 H 0.67059 0.26661 0.32591 0.0
H610 H 0.67296 0.26873 0.50313 0.0
H611 H 0.66268 0.26476 0.66711 0.0
H612 H 0.61882 0.24433 0.69549 0.0
H613 H 0.61649 0.24169 0.51833 0.0
C614 C 0.63687 0.2502 0.38672 0.0
C615 C 0.64848 0.25563 0.32627 0.0
C616 C 0.63819 0.25168 0.48924 0.0
C617 C 0.66143 0.26235 0.37016 0.0
C618 C 0.66283 0.26357 0.47182 0.0
C619 C 0.6526 0.25973 0.63471 0.0
C620 C 0.64097 0.25476 0.69523 0.0
C621 C 0.65128 0.25833 0.53221 0.0
C622 C 0.628 0.24832 0.65131 0.0
C623 C 0.62662 0.24675 0.54964 0.0
H624 H 0.37071 0.24487 0.33728 0.0
H625 H 0.4144 0.26733 0.30727 0.0
H626 H 0.41672 0.2715 0.48461 0.0
H627 H 0.40639 0.26894 0.64852 0.0
H628 H 0.36269 0.24658 0.67875 0.0
H629 H 0.36037 0.24241 0.50136 0.0
C630 C 0.38077 0.25048 0.36939 0.0
C631 C 0.39238 0.25561 0.3086 0.0
C632 C 0.38202 0.2531 0.47172 0.0
C633 C 0.40528 0.26323 0.35192 0.0
C634 C 0.40662 0.26566 0.45353 0.0
C635 C 0.39633 0.26334 0.61648 0.0
C636 C 0.38472 0.25823 0.67732 0.0
C637 C 0.39506 0.26076 0.51418 0.0
C638 C 0.37181 0.25069 0.63405 0.0
C639 C 0.37046 0.24824 0.53241 0.0
H640 H 0.03886 0.20134 0.37382 0.0
H641 H 0.03933 0.34613 0.53517 0.0
H642 H 1.01376 0.35714 0.54342 0.0
H643 H 0.99133 0.32322 0.51428 0.0
H644 H 0.99077 0.17722 0.35749 0.0
H645 H 1.01634 0.16815 0.34214 0.0
C646 C 0.03343 0.2352 0.41141 0.0
C647 C 0.04117 0.27285 0.45348 0.0
C648 C 0.01867 0.24072 0.41827 0.0
C649 C 0.03378 0.31692 0.50022 0.0
C650 C 0.0191 0.32301 0.50605 0.0
C651 C 0.99673 0.28984 0.47515 0.0
C652 C 0.98904 0.25103 0.43696 0.0
C653 C 1.01145 0.28491 0.46624 0.0
C654 C 0.99636 0.20745 0.38861 0.0
C655 C 1.01101 0.20237 0.37927 0.0
H656 H 0.99664 0.68323 0.60445 0.0
H657 H 0.98659 0.8533 0.60707 0.0
H658 H 1.0115 0.86285 0.61789 0.0
H659 H 0.03626 0.82337 0.6201 0.0
H660 H 0.04628 0.65357 0.60348 0.0
H661 H 0.02135 0.64384 0.6048 0.0
C662 C 0.99986 0.72247 0.60685 0.0
C663 C 0.98961 0.76737 0.6053 0.0
C664 C 1.01427 0.72788 0.61058 0.0
C665 C 0.99411 0.81781 0.61013 0.0
C666 C 1.00841 0.82343 0.61532 0.0
C667 C 0.03303 0.78419 0.61626 0.0
C668 C 0.04327 0.73934 0.61236 0.0
C669 C 0.0186 0.77877 0.61463 0.0
C670 C 0.03876 0.68891 0.60878 0.0
C671 C 0.02445 0.68323 0.60852 0.0
H672 H 0.53643 0.82961 0.99554 0.0
H673 H 0.54657 0.65962 0.99428 0.0
H674 H 0.52165 0.64964 0.98974 0.0
H675 H 0.4969 0.68873 0.98999 0.0
H676 H 0.48669 0.85854 1.00173 0.0
H677 H 0.51161 0.86874 0.99748 0.0
C678 C 0.53321 0.79036 0.99465 0.0
C679 C 0.54346 0.74553 0.99444 0.0
C680 C 0.51878 0.78473 0.99359 0.0
C681 C 0.539 0.69499 0.99233 0.0
C682 C 0.52471 0.68914 0.99059 0.0
C683 C 0.50009 0.72802 0.99216 0.0
C684 C 0.48981 0.77272 0.99567 0.0
C685 C 0.5145 0.73371 0.99168 0.0
C686 C 0.49426 0.8233 0.99699 0.0
C687 C 0.50856 0.82925 0.99554 0.0
H688 H 0.49537 0.20107 0.97228 0.0
H689 H 0.48688 0.33056 0.174 0.0
H690 H 0.51201 0.33569 0.18957 0.0
H691 H 0.53647 0.30346 0.14661 0.0
H692 H 0.54491 0.17367 0.94562 0.0
H693 H 0.51981 0.16745 0.93248 0.0
C694 C 0.49898 0.22985 1.02108 0.0
C695 C 0.48913 0.26541 0.07169 0.0
C696 C 0.5135 0.23233 0.03062 0.0
C697 C 0.49412 0.30312 0.13289 0.0
C698 C 0.50853 0.30593 0.14238 0.0
C699 C 0.53283 0.27401 0.09941 0.0
C700 C 0.54265 0.23903 0.04749 0.0
C701 C 0.51832 0.27091 0.09127 0.0
C702 C 0.53768 0.20063 0.98782 0.0
C703 C 0.52328 0.19726 0.97957 0.0
loop_
_geom_bond_atom_site_label_1
_geom_bond_atom_site_label_2
_geom_bond_distance
_geom_bond_site_symmetry_2
_ccdc_geom_bond_type
Gd0 C3 2.818 . S
Gd0 O20 2.377 . S
Gd0 O22 2.448 . S
Gd0 O23 2.506 . S
Gd0 O24 2.435 . S
Gd0 O25 2.717 . S
Gd0 O27 2.395 . S
Gd0 O31 2.327 . S
Gd1 C12 2.818 . S
Gd1 O21 2.395 . S
Gd1 O25 2.327 . S
Gd1 O26 2.377 . S
Gd1 O28 2.448 . S
Gd1 O29 2.506 . S
Gd1 O30 2.435 . S
Gd1 O31 2.717 . S
C2 O20 1.240 . S
C2 O21 1.240 . S
C3 Gd0 2.818 . S
C3 C4 1.510 . S
C3 O22 1.249 . S
C3 O23 1.252 . S
C4 C3 1.510 . S
C4 C5 1.404 . S
C4 C6 1.352 . S
C5 C4 1.404 . S
C5 C9 1.389 . S
C5 H32 0.930 . S
C6 C4 1.352 . S
C6 C8 1.374 . S
C6 H33 0.931 . S
C7 C8 1.359 . S
C7 C9 1.364 . S
C8 C6 1.374 . S
C8 C7 1.359 . S
C8 H34 0.931 . S
C9 C5 1.389 . S
C9 C7 1.364 . S
C9 H35 0.931 . S
C10 O24 1.256 . S
C10 O25 1.257 . S
C11 O26 1.240 . S
C11 O27 1.240 . S
C12 Gd1 2.818 . S
C12 C13 1.510 . S
C12 O28 1.249 . S
C12 O29 1.252 . S
C13 C12 1.510 . S
C13 C14 1.404 . S
C13 C15 1.352 . S
C14 C13 1.404 . S
C14 C18 1.389 . S
C14 H36 0.930 . S
C15 C13 1.352 . S
C15 C17 1.374 . S
C15 H37 0.931 . S
C16 C17 1.359 . S
C16 C18 1.364 . S
C17 C15 1.374 . S
C17 C16 1.359 . S
C17 H38 0.931 . S
C18 C14 1.389 . S
C18 C16 1.364 . S
C18 H39 0.931 . S
C19 O30 1.256 . S
C19 O31 1.257 . S
O20 Gd0 2.377 . S
O20 C2 1.240 . S
O21 Gd1 2.395 . S
O21 C2 1.240 . S
O22 Gd0 2.448 . S
O22 C3 1.249 . S
O23 Gd0 2.506 . S
O23 C3 1.252 . S
O24 Gd0 2.435 . S
O24 C10 1.256 . S
O25 Gd0 2.717 . S
O25 Gd1 2.327 . S
O25 C10 1.257 . S
O26 Gd1 2.377 . S
O26 C11 1.240 . S
O27 Gd0 2.395 . S
O27 C11 1.240 . S
O28 Gd1 2.448 . S
O28 C12 1.249 . S
O29 Gd1 2.506 . S
O29 C12 1.252 . S
O30 Gd1 2.435 . S
O30 C19 1.256 . S
O31 Gd0 2.327 . S
O31 Gd1 2.717 . S
O31 C19 1.257 . S
H32 C5 0.930 . S
H33 C6 0.931 . S
H34 C8 0.931 . S
H35 C9 0.931 . S
H36 C14 0.930 . S
H37 C15 0.931 . S
H38 C17 0.931 . S
H39 C18 0.931 . S
Gd40 C43 2.818 . S
Gd40 O60 2.377 . S
Gd40 O62 2.448 . S
Gd40 O63 2.506 . S
Gd40 O64 2.435 . S
Gd40 O65 2.717 . S
Gd40 O67 2.395 . S
Gd40 O71 2.327 . S
Gd41 C52 2.818 . S
Gd41 O61 2.395 . S
Gd41 O65 2.327 . S
Gd41 O66 2.377 . S
Gd41 O68 2.448 . S
Gd41 O69 2.506 . S
Gd41 O70 2.435 . S
Gd41 O71 2.717 . S
C42 O60 1.240 . S
C42 O61 1.240 . S
C43 Gd40 2.818 . S
C43 C44 1.510 . S
C43 O62 1.249 . S
C43 O63 1.252 . S
C44 C43 1.510 . S
C44 C45 1.404 . S
C44 C46 1.352 . S
C45 C44 1.404 . S
C45 C49 1.389 . S
C45 H72 0.930 . S
C46 C44 1.352 . S
C46 C48 1.374 . S
C46 H73 0.931 . S
C47 C48 1.359 . S
C47 C49 1.364 . S
C48 C46 1.374 . S
C48 C47 1.359 . S
C48 H74 0.931 . S
C49 C45 1.389 . S
C49 C47 1.364 . S
C49 H75 0.931 . S
C50 O64 1.256 . S
C50 O65 1.257 . S
C51 O66 1.240 . S
C51 O67 1.240 . S
C52 Gd41 2.818 . S
C52 C53 1.510 . S
C52 O68 1.249 . S
C52 O69 1.252 . S
C53 C52 1.510 . S
C53 C54 1.404 . S
C53 C55 1.352 . S
C54 C53 1.404 . S
C54 C58 1.389 . S
C54 H76 0.930 . S
C55 C53 1.352 . S
C55 C57 1.374 . S
C55 H77 0.931 . S
C56 C57 1.359 . S
C56 C58 1.364 . S
C57 C55 1.374 . S
C57 C56 1.359 . S
C57 H78 0.931 . S
C58 C54 1.389 . S
C58 C56 1.364 . S
C58 H79 0.931 . S
C59 O70 1.256 . S
C59 O71 1.257 . S
O60 Gd40 2.377 . S
O60 C42 1.240 . S
O61 Gd41 2.395 . S
O61 C42 1.240 . S
O62 Gd40 2.448 . S
O62 C43 1.249 . S
O63 Gd40 2.506 . S
O63 C43 1.252 . S
O64 Gd40 2.435 . S
O64 C50 1.256 . S
O65 Gd40 2.717 . S
O65 Gd41 2.327 . S
O65 C50 1.257 . S
O66 Gd41 2.377 . S
O66 C51 1.240 . S
O67 Gd40 2.395 . S
O67 C51 1.240 . S
O68 Gd41 2.448 . S
O68 C52 1.249 . S
O69 Gd41 2.506 . S
O69 C52 1.252 . S
O70 Gd41 2.435 . S
O70 C59 1.256 . S
O71 Gd40 2.327 . S
O71 Gd41 2.717 . S
O71 C59 1.257 . S
H72 C45 0.930 . S
H73 C46 0.931 . S
H74 C48 0.931 . S
H75 C49 0.931 . S
H76 C54 0.930 . S
H77 C55 0.931 . S
H78 C57 0.931 . S
H79 C58 0.931 . S
Gd80 C83 2.818 . S
Gd80 O100 2.377 . S
Gd80 O102 2.448 . S
Gd80 O103 2.506 . S
Gd80 O104 2.435 . S
Gd80 O105 2.717 . S
Gd80 O107 2.395 . S
Gd80 O111 2.327 . S
Gd81 C92 2.818 . S
Gd81 O101 2.395 . S
Gd81 O105 2.327 . S
Gd81 O106 2.377 . S
Gd81 O108 2.448 . S
Gd81 O109 2.506 . S
Gd81 O110 2.435 . S
Gd81 O111 2.717 . S
C82 O100 1.240 . S
C82 O101 1.240 . S
C83 Gd80 2.818 . S
C83 C84 1.510 . S
C83 O102 1.249 . S
C83 O103 1.252 . S
C84 C83 1.510 . S
C84 C85 1.404 . S
C84 C86 1.352 . S
C85 C84 1.404 . S
C85 C89 1.389 . S
C85 H112 0.930 . S
C86 C84 1.352 . S
C86 C88 1.374 . S
C86 H113 0.931 . S
C87 C88 1.359 . S
C87 C89 1.364 . S
C88 C86 1.374 . S
C88 C87 1.359 . S
C88 H114 0.931 . S
C89 C85 1.389 . S
C89 C87 1.364 . S
C89 H115 0.931 . S
C90 O104 1.256 . S
C90 O105 1.257 . S
C91 O106 1.240 . S
C91 O107 1.240 . S
C92 Gd81 2.818 . S
C92 C93 1.510 . S
C92 O108 1.249 . S
C92 O109 1.252 . S
C93 C92 1.510 . S
C93 C94 1.404 . S
C93 C95 1.352 . S
C94 C93 1.404 . S
C94 C98 1.389 . S
C94 H116 0.930 . S
C95 C93 1.352 . S
C95 C97 1.374 . S
C95 H117 0.931 . S
C96 C97 1.359 . S
C96 C98 1.364 . S
C97 C95 1.374 . S
C97 C96 1.359 . S
C97 H118 0.931 . S
C98 C94 1.389 . S
C98 C96 1.364 . S
C98 H119 0.931 . S
C99 O110 1.256 . S
C99 O111 1.257 . S
O100 Gd80 2.377 . S
O100 C82 1.240 . S
O101 Gd81 2.395 . S
O101 C82 1.240 . S
O102 Gd80 2.448 . S
O102 C83 1.249 . S
O103 Gd80 2.506 . S
O103 C83 1.252 . S
O104 Gd80 2.435 . S
O104 C90 1.256 . S
O105 Gd80 2.717 . S
O105 Gd81 2.327 . S
O105 C90 1.257 . S
O106 Gd81 2.377 . S
O106 C91 1.240 . S
O107 Gd80 2.395 . S
O107 C91 1.240 . S
O108 Gd81 2.448 . S
O108 C92 1.249 . S
O109 Gd81 2.506 . S
O109 C92 1.252 . S
O110 Gd81 2.435 . S
O110 C99 1.256 . S
O111 Gd80 2.327 . S
O111 Gd81 2.717 . S
O111 C99 1.257 . S
H112 C85 0.930 . S
H113 C86 0.931 . S
H114 C88 0.931 . S
H115 C89 0.931 . S
H116 C94 0.930 . S
H117 C95 0.931 . S
H118 C97 0.931 . S
H119 C98 0.931 . S
Gd120 C123 2.818 . S
Gd120 O140 2.377 . S
Gd120 O142 2.448 . S
Gd120 O143 2.506 . S
Gd120 O144 2.435 . S
Gd120 O145 2.717 . S
Gd120 O147 2.395 . S
Gd120 O151 2.327 . S
Gd121 C132 2.818 . S
Gd121 O141 2.395 . S
Gd121 O145 2.327 . S
Gd121 O146 2.377 . S
Gd121 O148 2.448 . S
Gd121 O149 2.506 . S
Gd121 O150 2.435 . S
Gd121 O151 2.717 . S
C122 O140 1.240 . S
C122 O141 1.240 . S
C123 Gd120 2.818 . S
C123 C124 1.510 . S
C123 O142 1.249 . S
C123 O143 1.252 . S
C124 C123 1.510 . S
C124 C125 1.404 . S
C124 C126 1.352 . S
C125 C124 1.404 . S
C125 C129 1.389 . S
C125 H152 0.930 . S
C126 C124 1.352 . S
C126 C128 1.374 . S
C126 H153 0.931 . S
C127 C128 1.359 . S
C127 C129 1.364 . S
C128 C126 1.374 . S
C128 C127 1.359 . S
C128 H154 0.931 . S
C129 C125 1.389 . S
C129 C127 1.364 . S
C129 H155 0.931 . S
C130 O144 1.256 . S
C130 O145 1.257 . S
C131 O146 1.240 . S
C131 O147 1.240 . S
C132 Gd121 2.818 . S
C132 C133 1.510 . S
C132 O148 1.249 . S
C132 O149 1.252 . S
C133 C132 1.510 . S
C133 C134 1.404 . S
C133 C135 1.352 . S
C134 C133 1.404 . S
C134 C138 1.389 . S
C134 H156 0.930 . S
C135 C133 1.352 . S
C135 C137 1.374 . S
C135 H157 0.931 . S
C136 C137 1.359 . S
C136 C138 1.364 . S
C137 C135 1.374 . S
C137 C136 1.359 . S
C137 H158 0.931 . S
C138 C134 1.389 . S
C138 C136 1.364 . S
C138 H159 0.931 . S
C139 O150 1.256 . S
C139 O151 1.257 . S
O140 Gd120 2.377 . S
O140 C122 1.240 . S
O141 Gd121 2.395 . S
O141 C122 1.240 . S
O142 Gd120 2.448 . S
O142 C123 1.249 . S
O143 Gd120 2.506 . S
O143 C123 1.252 . S
O144 Gd120 2.435 . S
O144 C130 1.256 . S
O145 Gd120 2.717 . S
O145 Gd121 2.327 . S
O145 C130 1.257 . S
O146 Gd121 2.377 . S
O146 C131 1.240 . S
O147 Gd120 2.395 . S
O147 C131 1.240 . S
O148 Gd121 2.448 . S
O148 C132 1.249 . S
O149 Gd121 2.506 . S
O149 C132 1.252 . S
O150 Gd121 2.435 . S
O150 C139 1.256 . S
O151 Gd120 2.327 . S
O151 Gd121 2.717 . S
O151 C139 1.257 . S
H152 C125 0.930 . S
H153 C126 0.931 . S
H154 C128 0.931 . S
H155 C129 0.931 . S
H156 C134 0.930 . S
H157 C135 0.931 . S
H158 C137 0.931 . S
H159 C138 0.931 . S
Gd160 C163 2.818 1_556 S
Gd160 O180 2.377 1_556 S
Gd160 O182 2.448 1_556 S
Gd160 O183 2.506 1_556 S
Gd160 O184 2.435 . S
Gd160 O185 2.717 . S
Gd160 O187 2.395 . S
Gd160 O191 2.327 1_556 S
Gd161 C172 2.818 1_554 S
Gd161 O181 2.395 . S
Gd161 O185 2.327 1_554 S
Gd161 O186 2.377 1_554 S
Gd161 O188 2.448 1_554 S
Gd161 O189 2.506 1_554 S
Gd161 O190 2.435 . S
Gd161 O191 2.717 . S
C162 O180 1.240 . S
C162 O181 1.240 . S
C163 Gd160 2.818 1_554 S
C163 C164 1.510 . S
C163 O182 1.249 . S
C163 O183 1.252 . S
C164 C163 1.510 . S
C164 C165 1.404 . S
C164 C166 1.352 . S
C165 C164 1.404 . S
C165 C169 1.389 . S
C165 H192 0.930 . S
C166 C164 1.352 . S
C166 C168 1.374 . S
C166 H193 0.931 . S
C167 C168 1.359 . S
C167 C169 1.364 . S
C168 C166 1.374 . S
C168 C167 1.359 . S
C168 H194 0.931 . S
C169 C165 1.389 . S
C169 C167 1.364 . S
C169 H195 0.931 . S
C170 O184 1.256 . S
C170 O185 1.257 . S
C171 O186 1.240 . S
C171 O187 1.240 . S
C172 Gd161 2.818 1_556 S
C172 C173 1.510 . S
C172 O188 1.249 . S
C172 O189 1.252 . S
C173 C172 1.510 . S
C173 C174 1.404 . S
C173 C175 1.352 . S
C174 C173 1.404 . S
C174 C178 1.389 . S
C174 H196 0.930 . S
C175 C173 1.352 . S
C175 C177 1.374 . S
C175 H197 0.931 . S
C176 C177 1.359 . S
C176 C178 1.364 . S
C177 C175 1.374 . S
C177 C176 1.359 . S
C177 H198 0.931 . S
C178 C174 1.389 . S
C178 C176 1.364 . S
C178 H199 0.931 . S
C179 O190 1.256 . S
C179 O191 1.257 . S
O180 Gd160 2.377 1_554 S
O180 C162 1.240 . S
O181 Gd161 2.395 . S
O181 C162 1.240 . S
O182 Gd160 2.448 1_554 S
O182 C163 1.249 . S
O183 Gd160 2.506 1_554 S
O183 C163 1.252 . S
O184 Gd160 2.435 . S
O184 C170 1.256 . S
O185 Gd160 2.717 . S
O185 Gd161 2.327 1_556 S
O185 C170 1.257 . S
O186 Gd161 2.377 1_556 S
O186 C171 1.240 . S
O187 Gd160 2.395 . S
O187 C171 1.240 . S
O188 Gd161 2.448 1_556 S
O188 C172 1.249 . S
O189 Gd161 2.506 1_556 S
O189 C172 1.252 . S
O190 Gd161 2.435 . S
O190 C179 1.256 . S
O191 Gd160 2.327 1_554 S
O191 Gd161 2.717 . S
O191 C179 1.257 . S
H192 C165 0.930 . S
H193 C166 0.931 . S
H194 C168 0.931 . S
H195 C169 0.931 . S
H196 C174 0.930 . S
H197 C175 0.931 . S
H198 C177 0.931 . S
H199 C178 0.931 . S
Gd200 C203 2.818 1_556 S
Gd200 O220 2.377 1_556 S
Gd200 O222 2.448 1_556 S
Gd200 O223 2.506 1_556 S
Gd200 O224 2.435 . S
Gd200 O225 2.717 . S
Gd200 O227 2.395 . S
Gd200 O231 2.327 1_556 S
Gd201 C212 2.818 1_554 S
Gd201 O221 2.395 . S
Gd201 O225 2.327 1_554 S
Gd201 O226 2.377 1_554 S
Gd201 O228 2.448 1_554 S
Gd201 O229 2.506 1_554 S
Gd201 O230 2.435 . S
Gd201 O231 2.717 . S
C202 O220 1.240 . S
C202 O221 1.240 . S
C203 Gd200 2.818 1_554 S
C203 C204 1.510 . S
C203 O222 1.249 . S
C203 O223 1.252 . S
C204 C203 1.510 . S
C204 C205 1.404 . S
C204 C206 1.352 . S
C205 C204 1.404 . S
C205 C209 1.389 . S
C205 H232 0.930 . S
C206 C204 1.352 . S
C206 C208 1.374 . S
C206 H233 0.931 . S
C207 C208 1.359 . S
C207 C209 1.364 . S
C208 C206 1.374 . S
C208 C207 1.359 . S
C208 H234 0.931 . S
C209 C205 1.389 . S
C209 C207 1.364 . S
C209 H235 0.931 . S
C210 O224 1.256 . S
C210 O225 1.257 . S
C211 O226 1.240 . S
C211 O227 1.240 . S
C212 Gd201 2.818 1_556 S
C212 C213 1.510 . S
C212 O228 1.249 . S
C212 O229 1.252 . S
C213 C212 1.510 . S
C213 C214 1.404 . S
C213 C215 1.352 . S
C214 C213 1.404 . S
C214 C218 1.389 . S
C214 H236 0.930 . S
C215 C213 1.352 . S
C215 C217 1.374 . S
C215 H237 0.931 . S
C216 C217 1.359 . S
C216 C218 1.364 . S
C217 C215 1.374 . S
C217 C216 1.359 . S
C217 H238 0.931 . S
C218 C214 1.389 . S
C218 C216 1.364 . S
C218 H239 0.931 . S
C219 O230 1.256 . S
C219 O231 1.257 . S
O220 Gd200 2.377 1_554 S
O220 C202 1.240 . S
O221 Gd201 2.395 . S
O221 C202 1.240 . S
O222 Gd200 2.448 1_554 S
O222 C203 1.249 . S
O223 Gd200 2.506 1_554 S
O223 C203 1.252 . S
O224 Gd200 2.435 . S
O224 C210 1.256 . S
O225 Gd200 2.717 . S
O225 Gd201 2.327 1_556 S
O225 C210 1.257 . S
O226 Gd201 2.377 1_556 S
O226 C211 1.240 . S
O227 Gd200 2.395 . S
O227 C211 1.240 . S
O228 Gd201 2.448 1_556 S
O228 C212 1.249 . S
O229 Gd201 2.506 1_556 S
O229 C212 1.252 . S
O230 Gd201 2.435 . S
O230 C219 1.256 . S
O231 Gd200 2.327 1_554 S
O231 Gd201 2.717 . S
O231 C219 1.257 . S
H232 C205 0.930 . S
H233 C206 0.931 . S
H234 C208 0.931 . S
H235 C209 0.931 . S
H236 C214 0.930 . S
H237 C215 0.931 . S
H238 C217 0.931 . S
H239 C218 0.931 . S
Gd240 C243 2.818 1_556 S
Gd240 O260 2.377 1_556 S
Gd240 O262 2.448 1_556 S
Gd240 O263 2.506 1_556 S
Gd240 O264 2.435 . S
Gd240 O265 2.717 . S
Gd240 O267 2.395 . S
Gd240 O271 2.327 1_556 S
Gd241 C252 2.818 1_554 S
Gd241 O261 2.395 . S
Gd241 O265 2.327 1_554 S
Gd241 O266 2.377 1_554 S
Gd241 O268 2.448 1_554 S
Gd241 O269 2.506 1_554 S
Gd241 O270 2.435 . S
Gd241 O271 2.717 . S
C242 O260 1.240 . S
C242 O261 1.240 . S
C243 Gd240 2.818 1_554 S
C243 C244 1.510 . S
C243 O262 1.249 . S
C243 O263 1.252 . S
C244 C243 1.510 . S
C244 C245 1.404 . S
C244 C246 1.352 . S
C245 C244 1.404 . S
C245 C249 1.389 . S
C245 H272 0.930 . S
C246 C244 1.352 . S
C246 C248 1.374 . S
C246 H273 0.931 . S
C247 C248 1.359 . S
C247 C249 1.364 . S
C248 C246 1.374 . S
C248 C247 1.359 . S
C248 H274 0.931 . S
C249 C245 1.389 . S
C249 C247 1.364 . S
C249 H275 0.931 . S
C250 O264 1.256 . S
C250 O265 1.257 . S
C251 O266 1.240 . S
C251 O267 1.240 . S
C252 Gd241 2.818 1_556 S
C252 C253 1.510 . S
C252 O268 1.249 . S
C252 O269 1.252 . S
C253 C252 1.510 . S
C253 C254 1.404 . S
C253 C255 1.352 . S
C254 C253 1.404 . S
C254 C258 1.389 . S
C254 H276 0.930 . S
C255 C253 1.352 . S
C255 C257 1.374 . S
C255 H277 0.931 . S
C256 C257 1.359 . S
C256 C258 1.364 . S
C257 C255 1.374 . S
C257 C256 1.359 . S
C257 H278 0.931 . S
C258 C254 1.389 . S
C258 C256 1.364 . S
C258 H279 0.931 . S
C259 O270 1.256 . S
C259 O271 1.257 . S
O260 Gd240 2.377 1_554 S
O260 C242 1.240 . S
O261 Gd241 2.395 . S
O261 C242 1.240 . S
O262 Gd240 2.448 1_554 S
O262 C243 1.249 . S
O263 Gd240 2.506 1_554 S
O263 C243 1.252 . S
O264 Gd240 2.435 . S
O264 C250 1.256 . S
O265 Gd240 2.717 . S
O265 Gd241 2.327 1_556 S
O265 C250 1.257 . S
O266 Gd241 2.377 1_556 S
O266 C251 1.240 . S
O267 Gd240 2.395 . S
O267 C251 1.240 . S
O268 Gd241 2.448 1_556 S
O268 C252 1.249 . S
O269 Gd241 2.506 1_556 S
O269 C252 1.252 . S
O270 Gd241 2.435 . S
O270 C259 1.256 . S
O271 Gd240 2.327 1_554 S
O271 Gd241 2.717 . S
O271 C259 1.257 . S
H272 C245 0.930 . S
H273 C246 0.931 . S
H274 C248 0.931 . S
H275 C249 0.931 . S
H276 C254 0.930 . S
H277 C255 0.931 . S
H278 C257 0.931 . S
H279 C258 0.931 . S
Gd280 C283 2.818 1_556 S
Gd280 O300 2.377 1_556 S
Gd280 O302 2.448 1_556 S
Gd280 O303 2.506 1_556 S
Gd280 O304 2.435 . S
Gd280 O305 2.717 . S
Gd280 O307 2.395 . S
Gd280 O311 2.327 1_556 S
Gd281 C292 2.818 1_554 S
Gd281 O301 2.395 . S
Gd281 O305 2.327 1_554 S
Gd281 O306 2.377 1_554 S
Gd281 O308 2.448 1_554 S
Gd281 O309 2.506 1_554 S
Gd281 O310 2.435 . S
Gd281 O311 2.717 . S
C282 O300 1.240 . S
C282 O301 1.240 . S
C283 Gd280 2.818 1_554 S
C283 C284 1.510 . S
C283 O302 1.249 . S
C283 O303 1.252 . S
C284 C283 1.510 . S
C284 C285 1.404 . S
C284 C286 1.352 . S
C285 C284 1.404 . S
C285 C289 1.389 . S
C285 H312 0.930 . S
C286 C284 1.352 . S
C286 C288 1.374 . S
C286 H313 0.931 . S
C287 C288 1.359 . S
C287 C289 1.364 . S
C288 C286 1.374 . S
C288 C287 1.359 . S
C288 H314 0.931 . S
C289 C285 1.389 . S
C289 C287 1.364 . S
C289 H315 0.931 . S
C290 O304 1.256 . S
C290 O305 1.257 . S
C291 O306 1.240 . S
C291 O307 1.240 . S
C292 Gd281 2.818 1_556 S
C292 C293 1.510 . S
C292 O308 1.249 . S
C292 O309 1.252 . S
C293 C292 1.510 . S
C293 C294 1.404 . S
C293 C295 1.352 . S
C294 C293 1.404 . S
C294 C298 1.389 . S
C294 H316 0.930 . S
C295 C293 1.352 . S
C295 C297 1.374 . S
C295 H317 0.931 . S
C296 C297 1.359 . S
C296 C298 1.364 . S
C297 C295 1.374 . S
C297 C296 1.359 . S
C297 H318 0.931 . S
C298 C294 1.389 . S
C298 C296 1.364 . S
C298 H319 0.931 . S
C299 O310 1.256 . S
C299 O311 1.257 . S
O300 Gd280 2.377 1_554 S
O300 C282 1.240 . S
O301 Gd281 2.395 . S
O301 C282 1.240 . S
O302 Gd280 2.448 1_554 S
O302 C283 1.249 . S
O303 Gd280 2.506 1_554 S
O303 C283 1.252 . S
O304 Gd280 2.435 . S
O304 C290 1.256 . S
O305 Gd280 2.717 . S
O305 Gd281 2.327 1_556 S
O305 C290 1.257 . S
O306 Gd281 2.377 1_556 S
O306 C291 1.240 . S
O307 Gd280 2.395 . S
O307 C291 1.240 . S
O308 Gd281 2.448 1_556 S
O308 C292 1.249 . S
O309 Gd281 2.506 1_556 S
O309 C292 1.252 . S
O310 Gd281 2.435 . S
O310 C299 1.256 . S
O311 Gd280 2.327 1_554 S
O311 Gd281 2.717 . S
O311 C299 1.257 . S
H312 C285 0.930 . S
H313 C286 0.931 . S
H314 C288 0.931 . S
H315 C289 0.931 . S
H316 C294 0.930 . S
H317 C295 0.931 . S
H318 C297 0.931 . S
H319 C298 0.931 . S
H320 C326 0.930 . S
H321 C329 0.930 . S
H322 C330 0.930 . S
H323 C331 0.930 . S
H324 C334 0.930 . S
H325 C335 0.930 . S
C326 H320 0.930 . S
C326 C327 1.355 . S
C326 C328 1.415 . S
C327 C326 1.355 . S
C327 C329 1.419 . S
C328 C326 1.415 . S
C328 C333 1.425 . S
C328 C335 1.409 . S
C329 H321 0.930 . S
C329 C327 1.419 . S
C329 C330 1.362 . S
C330 H322 0.930 . S
C330 C329 1.362 . S
C330 C333 1.409 . S
C331 H323 0.930 . S
C331 C332 1.355 . S
C331 C333 1.415 . S
C332 C331 1.355 . S
C332 C334 1.419 . S
C333 C328 1.425 . S
C333 C330 1.409 . S
C333 C331 1.415 . S
C334 H324 0.930 . S
C334 C332 1.419 . S
C334 C335 1.362 . S
C335 H325 0.930 . S
C335 C328 1.409 . S
C335 C334 1.362 . S
H336 C342 0.930 . S
H337 C345 0.930 . S
H338 C346 0.930 . S
H339 C347 0.930 . S
H340 C350 0.930 . S
H341 C351 0.930 . S
C342 H336 0.930 . S
C342 C343 1.355 . S
C342 C344 1.415 . S
C343 C342 1.355 . S
C343 C345 1.419 . S
C344 C342 1.415 . S
C344 C349 1.425 . S
C344 C351 1.409 . S
C345 H337 0.930 . S
C345 C343 1.419 . S
C345 C346 1.362 . S
C346 H338 0.930 . S
C346 C345 1.362 . S
C346 C349 1.409 . S
C347 H339 0.930 . S
C347 C348 1.355 . S
C347 C349 1.415 . S
C348 C347 1.355 . S
C348 C350 1.419 . S
C349 C344 1.425 . S
C349 C346 1.409 . S
C349 C347 1.415 . S
C350 H340 0.930 . S
C350 C348 1.419 . S
C350 C351 1.362 . S
C351 H341 0.930 . S
C351 C344 1.409 . S
C351 C350 1.362 . S
H352 C358 0.930 . S
H353 C361 0.930 . S
H354 C362 0.930 . S
H355 C363 0.930 . S
H356 C366 0.930 . S
H357 C367 0.930 . S
C358 H352 0.930 . S
C358 C359 1.355 . S
C358 C360 1.415 . S
C359 C358 1.355 . S
C359 C361 1.419 . S
C360 C358 1.415 . S
C360 C365 1.425 . S
C360 C367 1.409 . S
C361 H353 0.930 . S
C361 C359 1.419 . S
C361 C362 1.362 . S
C362 H354 0.930 . S
C362 C361 1.362 . S
C362 C365 1.409 . S
C363 H355 0.930 . S
C363 C364 1.355 . S
C363 C365 1.415 . S
C364 C363 1.355 . S
C364 C366 1.419 . S
C365 C360 1.425 . S
C365 C362 1.409 . S
C365 C363 1.415 . S
C366 H356 0.930 . S
C366 C364 1.419 . S
C366 C367 1.362 . S
C367 H357 0.930 . S
C367 C360 1.409 . S
C367 C366 1.362 . S
H368 C374 0.930 . S
H369 C377 0.930 . S
H370 C378 0.930 . S
H371 C379 0.930 . S
H372 C382 0.930 . S
H373 C383 0.930 . S
C374 H368 0.930 . S
C374 C375 1.355 . S
C374 C376 1.415 . S
C375 C374 1.355 . S
C375 C377 1.419 . S
C376 C374 1.415 . S
C376 C381 1.425 . S
C376 C383 1.409 . S
C377 H369 0.930 . S
C377 C375 1.419 . S
C377 C378 1.362 . S
C378 H370 0.930 . S
C378 C377 1.362 . S
C378 C381 1.409 . S
C379 H371 0.930 . S
C379 C380 1.355 . S
C379 C381 1.415 . S
C380 C379 1.355 . S
C380 C382 1.419 . S
C381 C376 1.425 . S
C381 C378 1.409 . S
C381 C379 1.415 . S
C382 H372 0.930 . S
C382 C380 1.419 . S
C382 C383 1.362 . S
C383 H373 0.930 . S
C383 C376 1.409 . S
C383 C382 1.362 . S
H384 C390 0.930 . S
H385 C393 0.930 . S
H386 C394 0.930 . S
H387 C395 0.930 . S
H388 C398 0.930 . S
H389 C399 0.930 . S
C390 H384 0.930 . S
C390 C391 1.355 . S
C390 C392 1.415 . S
C391 C390 1.355 . S
C391 C393 1.419 . S
C392 C390 1.415 . S
C392 C397 1.425 1_565 S
C392 C399 1.409 1_565 S
C393 H385 0.930 . S
C393 C391 1.419 . S
C393 C394 1.362 . S
C394 H386 0.930 . S
C394 C393 1.362 . S
C394 C397 1.409 1_565 S
C395 H387 0.930 . S
C395 C396 1.355 . S
C395 C397 1.415 . S
C396 C395 1.355 . S
C396 C398 1.419 . S
C397 C392 1.425 1_545 S
C397 C394 1.409 1_545 S
C397 C395 1.415 . S
C398 H388 0.930 . S
C398 C396 1.419 . S
C398 C399 1.362 . S
C399 H389 0.930 . S
C399 C392 1.409 1_545 S
C399 C398 1.362 . S
H400 C406 0.930 . S
H401 C409 0.930 . S
H402 C410 0.930 . S
H403 C411 0.930 . S
H404 C414 0.930 . S
H405 C415 0.930 . S
C406 H400 0.930 . S
C406 C407 1.355 . S
C406 C408 1.415 . S
C407 C406 1.355 . S
C407 C409 1.419 . S
C408 C406 1.415 . S
C408 C413 1.425 . S
C408 C415 1.409 . S
C409 H401 0.930 . S
C409 C407 1.419 . S
C409 C410 1.362 . S
C410 H402 0.930 . S
C410 C409 1.362 . S
C410 C413 1.409 . S
C411 H403 0.930 . S
C411 C412 1.355 . S
C411 C413 1.415 . S
C412 C411 1.355 . S
C412 C414 1.419 . S
C413 C408 1.425 . S
C413 C410 1.409 . S
C413 C411 1.415 . S
C414 H404 0.930 . S
C414 C412 1.419 . S
C414 C415 1.362 . S
C415 H405 0.930 . S
C415 C408 1.409 . S
C415 C414 1.362 . S
H416 C422 0.930 . S
H417 C425 0.930 . S
H418 C426 0.922 1_545 S
H419 C427 0.930 . S
H420 C430 0.930 . S
H421 C431 0.930 . S
C422 H416 0.930 . S
C422 C423 1.355 . S
C422 C424 1.415 . S
C423 C422 1.355 . S
C423 C425 1.419 . S
C424 C422 1.415 . S
C424 C429 1.425 1_565 S
C424 C431 1.409 1_565 S
C425 H417 0.930 . S
C425 C423 1.419 . S
C425 C426 1.362 . S
C426 H418 0.922 1_565 S
C426 C425 1.362 . S
C426 C429 1.409 1_565 S
C427 H419 0.930 . S
C427 C428 1.355 . S
C427 C429 1.415 . S
C428 C427 1.355 . S
C428 C430 1.419 . S
C429 C424 1.425 1_545 S
C429 C426 1.409 1_545 S
C429 C427 1.415 . S
C430 H420 0.930 . S
C430 C428 1.419 . S
C430 C431 1.362 . S
C431 H421 0.930 . S
C431 C424 1.409 1_545 S
C431 C430 1.362 . S
H432 C438 0.930 . S
H433 C441 0.930 . S
H434 C442 0.930 . S
H435 C443 0.930 . S
H436 C446 0.930 . S
H437 C447 0.930 . S
C438 H432 0.930 . S
C438 C439 1.355 . S
C438 C440 1.415 . S
C439 C438 1.355 . S
C439 C441 1.419 . S
C440 C438 1.415 . S
C440 C445 1.425 . S
C440 C447 1.409 . S
C441 H433 0.930 . S
C441 C439 1.419 . S
C441 C442 1.362 . S
C442 H434 0.930 . S
C442 C441 1.362 . S
C442 C445 1.409 . S
C443 H435 0.930 . S
C443 C444 1.355 . S
C443 C445 1.415 . S
C444 C443 1.355 . S
C444 C446 1.419 . S
C445 C440 1.425 . S
C445 C442 1.409 . S
C445 C443 1.415 . S
C446 H436 0.930 . S
C446 C444 1.419 . S
C446 C447 1.362 . S
C447 H437 0.930 . S
C447 C440 1.409 . S
C447 C446 1.362 . S
H448 C454 0.930 . S
H449 C457 0.930 . S
H450 C458 0.930 . S
H451 C459 0.930 . S
H452 C462 0.930 . S
H453 C463 0.930 . S
C454 H448 0.930 . S
C454 C455 1.355 1_554 S
C454 C456 1.415 . S
C455 C454 1.355 1_556 S
C455 C457 1.419 . S
C456 C454 1.415 . S
C456 C461 1.425 1_554 S
C456 C463 1.409 . S
C457 H449 0.930 . S
C457 C455 1.419 . S
C457 C458 1.362 . S
C458 H450 0.930 . S
C458 C457 1.362 . S
C458 C461 1.409 . S
C459 H451 0.930 . S
C459 C460 1.354 . S
C459 C461 1.415 . S
C460 C459 1.354 . S
C460 C462 1.419 1_556 S
C461 C456 1.425 1_556 S
C461 C458 1.409 . S
C461 C459 1.415 . S
C462 H452 0.930 . S
C462 C460 1.419 1_554 S
C462 C463 1.362 . S
C463 H453 0.930 . S
C463 C456 1.409 . S
C463 C462 1.362 . S
H464 C470 0.930 . S
H465 C473 0.930 . S
H466 C474 0.930 . S
H467 C475 0.930 . S
H468 C478 0.930 . S
H469 C479 0.930 . S
C470 H464 0.930 . S
C470 C471 1.355 1_556 S
C470 C472 1.415 . S
C471 C470 1.355 1_554 S
C471 C473 1.419 . S
C472 C470 1.415 . S
C472 C477 1.425 1_566 S
C472 C479 1.409 1_565 S
C473 H465 0.930 . S
C473 C471 1.419 . S
C473 C474 1.362 . S
C474 H466 0.930 . S
C474 C473 1.362 . S
C474 C477 1.409 1_565 S
C475 H467 0.930 . S
C475 C476 1.355 1_554 S
C475 C477 1.415 . S
C476 C475 1.355 1_556 S
C476 C478 1.419 . S
C477 C472 1.425 1_544 S
C477 C474 1.409 1_545 S
C477 C475 1.415 . S
C478 H468 0.930 . S
C478 C476 1.419 . S
C478 C479 1.362 . S
C479 H469 0.930 . S
C479 C472 1.409 1_545 S
C479 C478 1.362 . S
H480 C486 0.930 . S
H481 C489 0.930 . S
H482 C490 0.930 . S
H483 C491 0.930 . S
H484 C494 0.930 . S
H485 C495 0.930 . S
C486 H480 0.930 . S
C486 C487 1.351 1_554 S
C486 C488 1.415 . S
C487 C486 1.351 1_556 S
C487 C489 1.424 . S
C488 C486 1.415 . S
C488 C493 1.425 1_554 S
C488 C495 1.409 . S
C489 H481 0.930 . S
C489 C487 1.424 . S
C489 C490 1.362 . S
C490 H482 0.930 . S
C490 C489 1.362 . S
C490 C493 1.409 . S
C491 H483 0.930 . S
C491 C492 1.355 1_556 S
C491 C493 1.415 . S
C492 C491 1.355 1_554 S
C492 C494 1.419 . S
C493 C488 1.425 1_556 S
C493 C490 1.409 . S
C493 C491 1.415 . S
C494 H484 0.930 . S
C494 C492 1.419 . S
C494 C495 1.362 . S
C495 H485 0.930 . S
C495 C488 1.409 . S
C495 C494 1.362 . S
H496 C502 0.930 . S
H497 C505 0.930 . S
H498 C506 0.930 . S
H499 C507 0.930 . S
H500 C510 0.930 . S
H501 C511 0.930 . S
C502 H496 0.930 . S
C502 C503 1.355 1_556 S
C502 C504 1.415 . S
C503 C502 1.355 1_554 S
C503 C505 1.419 . S
C504 C502 1.415 . S
C504 C509 1.425 1_546 S
C504 C511 1.409 1_545 S
C505 H497 0.930 . S
C505 C503 1.419 . S
C505 C506 1.362 . S
C506 H498 0.930 . S
C506 C505 1.362 . S
C506 C509 1.409 1_545 S
C507 H499 0.930 . S
C507 C508 1.357 . S
C507 C509 1.415 . S
C508 C507 1.357 . S
C508 C510 1.416 1_554 S
C509 C504 1.425 1_564 S
C509 C506 1.409 1_565 S
C509 C507 1.415 . S
C510 H500 0.930 . S
C510 C508 1.416 1_556 S
C510 C511 1.362 . S
C511 H501 0.930 . S
C511 C504 1.409 1_565 S
C511 C510 1.362 . S
H512 C518 0.930 . S
H513 C521 0.930 . S
H514 C522 0.930 . S
H515 C523 0.930 . S
H516 C526 0.930 . S
H517 C527 0.930 . S
C518 H512 0.930 . S
C518 C519 1.355 . S
C518 C520 1.415 1_554 S
C519 C518 1.355 . S
C519 C521 1.419 . S
C520 C518 1.415 1_556 S
C520 C525 1.425 . S
C520 C527 1.409 . S
C521 H513 0.930 . S
C521 C519 1.419 . S
C521 C522 1.362 1_554 S
C522 H514 0.930 . S
C522 C521 1.362 1_556 S
C522 C525 1.409 . S
C523 H515 0.930 . S
C523 C524 1.355 . S
C523 C525 1.415 . S
C524 C523 1.355 . S
C524 C526 1.419 . S
C525 C520 1.425 . S
C525 C522 1.409 . S
C525 C523 1.415 . S
C526 H516 0.930 . S
C526 C524 1.419 . S
C526 C527 1.362 . S
C527 H517 0.930 . S
C527 C520 1.409 . S
C527 C526 1.362 . S
H528 C534 0.930 . S
H529 C537 0.930 . S
H530 C538 0.930 . S
H531 C539 0.930 . S
H532 C542 0.930 . S
H533 C543 0.930 . S
C534 H528 0.930 . S
C534 C535 1.355 . S
C534 C536 1.415 1_554 S
C535 C534 1.355 . S
C535 C537 1.419 . S
C536 C534 1.415 1_556 S
C536 C541 1.425 . S
C536 C543 1.409 . S
C537 H529 0.930 . S
C537 C535 1.419 . S
C537 C538 1.362 1_554 S
C538 H530 0.930 . S
C538 C537 1.362 1_556 S
C538 C541 1.409 . S
C539 H531 0.930 . S
C539 C540 1.355 . S
C539 C541 1.415 . S
C540 C539 1.355 . S
C540 C542 1.419 . S
C541 C536 1.425 . S
C541 C538 1.409 . S
C541 C539 1.415 . S
C542 H532 0.930 . S
C542 C540 1.419 . S
C542 C543 1.362 . S
C543 H533 0.930 . S
C543 C536 1.409 . S
C543 C542 1.362 . S
H544 C550 0.930 . S
H545 C553 0.930 . S
H546 C554 0.930 . S
H547 C555 0.930 . S
H548 C558 0.930 . S
H549 C559 0.930 . S
C550 H544 0.930 . S
C550 C551 1.355 . S
C550 C552 1.415 . S
C551 C550 1.355 . S
C551 C553 1.419 . S
C552 C550 1.415 . S
C552 C557 1.425 . S
C552 C559 1.409 . S
C553 H545 0.930 . S
C553 C551 1.419 . S
C553 C554 1.362 . S
C554 H546 0.930 . S
C554 C553 1.362 . S
C554 C557 1.409 . S
C555 H547 0.930 . S
C555 C556 1.355 . S
C555 C557 1.415 1_556 S
C556 C555 1.355 . S
C556 C558 1.419 . S
C557 C552 1.425 . S
C557 C554 1.409 . S
C557 C555 1.415 1_554 S
C558 H548 0.930 . S
C558 C556 1.419 . S
C558 C559 1.362 1_556 S
C559 H549 0.930 . S
C559 C552 1.409 . S
C559 C558 1.362 1_554 S
H560 C566 0.930 . S
H561 C569 0.930 . S
H562 C570 0.930 . S
H563 C571 0.930 . S
H564 C574 0.930 . S
H565 C575 0.930 . S
C566 H560 0.930 . S
C566 C567 1.355 . S
C566 C568 1.415 1_556 S
C567 C566 1.355 . S
C567 C569 1.419 . S
C568 C566 1.415 1_554 S
C568 C573 1.425 . S
C568 C575 1.409 . S
C569 H561 0.930 . S
C569 C567 1.419 . S
C569 C570 1.362 1_556 S
C570 H562 0.930 . S
C570 C569 1.362 1_554 S
C570 C573 1.409 . S
C571 H563 0.930 . S
C571 C572 1.355 . S
C571 C573 1.415 . S
C572 C571 1.355 . S
C572 C574 1.419 . S
C573 C568 1.425 . S
C573 C570 1.409 . S
C573 C571 1.415 . S
C574 H564 0.930 . S
C574 C572 1.419 . S
C574 C575 1.362 . S
C575 H565 0.930 . S
C575 C568 1.409 . S
C575 C574 1.362 . S
H576 C582 0.930 . S
H577 C585 0.930 . S
H578 C586 0.930 . S
H579 C587 0.930 . S
H580 C590 0.930 . S
H581 C591 0.930 . S
C582 H576 0.930 . S
C582 C583 1.355 . S
C582 C584 1.415 . S
C583 C582 1.355 . S
C583 C585 1.419 . S
C584 C582 1.415 . S
C584 C589 1.425 . S
C584 C591 1.409 . S
C585 H577 0.930 . S
C585 C583 1.419 . S
C585 C586 1.362 . S
C586 H578 0.930 . S
C586 C585 1.362 . S
C586 C589 1.409 . S
C587 H579 0.930 . S
C587 C588 1.355 . S
C587 C589 1.415 . S
C588 C587 1.355 . S
C588 C590 1.419 . S
C589 C584 1.425 . S
C589 C586 1.409 . S
C589 C587 1.415 . S
C590 H580 0.930 . S
C590 C588 1.419 . S
C590 C591 1.362 . S
C591 H581 0.930 . S
C591 C584 1.409 . S
C591 C590 1.362 . S
H592 C598 0.930 . S
H593 C601 0.930 . S
H594 C602 0.930 . S
H595 C603 0.930 . S
H596 C606 0.930 . S
H597 C607 0.930 . S
C598 H592 0.930 . S
C598 C599 1.355 . S
C598 C600 1.415 . S
C599 C598 1.355 . S
C599 C601 1.419 . S
C600 C598 1.415 . S
C600 C605 1.425 . S
C600 C607 1.409 . S
C601 H593 0.930 . S
C601 C599 1.419 . S
C601 C602 1.362 . S
C602 H594 0.930 . S
C602 C601 1.362 . S
C602 C605 1.409 . S
C603 H595 0.930 . S
C603 C604 1.355 . S
C603 C605 1.415 . S
C604 C603 1.355 . S
C604 C606 1.419 . S
C605 C600 1.425 . S
C605 C602 1.409 . S
C605 C603 1.415 . S
C606 H596 0.930 . S
C606 C604 1.419 . S
C606 C607 1.362 . S
C607 H597 0.930 . S
C607 C600 1.409 . S
C607 C606 1.362 . S
H608 C614 0.930 . S
H609 C617 0.930 . S
H610 C618 0.930 . S
H611 C619 0.930 . S
H612 C622 0.930 . S
H613 C623 0.930 . S
C614 H608 0.930 . S
C614 C615 1.355 . S
C614 C616 1.415 . S
C615 C614 1.355 . S
C615 C617 1.419 . S
C616 C614 1.415 . S
C616 C621 1.425 . S
C616 C623 1.409 . S
C617 H609 0.930 . S
C617 C615 1.419 . S
C617 C618 1.362 . S
C618 H610 0.930 . S
C618 C617 1.362 . S
C618 C621 1.409 . S
C619 H611 0.930 . S
C619 C620 1.355 . S
C619 C621 1.415 . S
C620 C619 1.355 . S
C620 C622 1.419 . S
C621 C616 1.425 . S
C621 C618 1.409 . S
C621 C619 1.415 . S
C622 H612 0.930 . S
C622 C620 1.419 . S
C622 C623 1.362 . S
C623 H613 0.930 . S
C623 C616 1.409 . S
C623 C622 1.362 . S
H624 C630 0.930 . S
H625 C633 0.930 . S
H626 C634 0.930 . S
H627 C635 0.930 . S
H628 C638 0.930 . S
H629 C639 0.930 . S
C630 H624 0.930 . S
C630 C631 1.355 . S
C630 C632 1.415 . S
C631 C630 1.355 . S
C631 C633 1.419 . S
C632 C630 1.415 . S
C632 C637 1.425 . S
C632 C639 1.409 . S
C633 H625 0.930 . S
C633 C631 1.419 . S
C633 C634 1.362 . S
C634 H626 0.930 . S
C634 C633 1.362 . S
C634 C637 1.409 . S
C635 H627 0.930 . S
C635 C636 1.355 . S
C635 C637 1.415 . S
C636 C635 1.355 . S
C636 C638 1.419 . S
C637 C632 1.425 . S
C637 C634 1.409 . S
C637 C635 1.415 . S
C638 H628 0.930 . S
C638 C636 1.419 . S
C638 C639 1.362 . S
C639 H629 0.930 . S
C639 C632 1.409 . S
C639 C638 1.362 . S
H640 C646 0.930 . S
H641 C649 0.930 . S
H642 C650 0.930 . S
H643 C651 0.930 . S
H644 C654 0.930 . S
H645 C655 0.930 . S
C646 H640 0.930 . S
C646 C647 1.355 . S
C646 C648 1.415 . S
C647 C646 1.355 . S
C647 C649 1.419 . S
C648 C646 1.415 . S
C648 C653 1.425 1_455 S
C648 C655 1.409 1_455 S
C649 H641 0.930 . S
C649 C647 1.419 . S
C649 C650 1.362 . S
C650 H642 0.930 . S
C650 C649 1.362 . S
C650 C653 1.409 1_455 S
C651 H643 0.930 . S
C651 C652 1.355 . S
C651 C653 1.415 . S
C652 C651 1.355 . S
C652 C654 1.419 . S
C653 C648 1.425 1_655 S
C653 C650 1.409 1_655 S
C653 C651 1.415 . S
C654 H644 0.930 . S
C654 C652 1.419 . S
C654 C655 1.362 . S
C655 H645 0.930 . S
C655 C648 1.409 1_655 S
C655 C654 1.362 . S
H656 C662 0.930 . S
H657 C665 0.930 . S
H658 C666 0.930 . S
H659 C667 0.930 . S
H660 C670 0.930 . S
H661 C671 0.930 . S
C662 H656 0.930 . S
C662 C663 1.355 . S
C662 C664 1.415 . S
C663 C662 1.355 . S
C663 C665 1.419 . S
C664 C662 1.415 . S
C664 C669 1.425 1_655 S
C664 C671 1.409 1_655 S
C665 H657 0.930 . S
C665 C663 1.419 . S
C665 C666 1.362 . S
C666 H658 0.930 . S
C666 C665 1.362 . S
C666 C669 1.409 1_655 S
C667 H659 0.930 . S
C667 C668 1.355 . S
C667 C669 1.415 . S
C668 C667 1.355 . S
C668 C670 1.419 . S
C669 C664 1.425 1_455 S
C669 C666 1.409 1_455 S
C669 C667 1.415 . S
C670 H660 0.930 . S
C670 C668 1.419 . S
C670 C671 1.362 . S
C671 H661 0.930 . S
C671 C664 1.409 1_455 S
C671 C670 1.362 . S
H672 C678 0.930 . S
H673 C681 0.930 . S
H674 C682 0.930 . S
H675 C683 0.930 . S
H676 C686 0.930 . S
H677 C687 0.930 . S
C678 H672 0.930 . S
C678 C679 1.355 . S
C678 C680 1.415 . S
C679 C678 1.355 . S
C679 C681 1.419 . S
C680 C678 1.415 . S
C680 C685 1.425 . S
C680 C687 1.409 . S
C681 H673 0.930 . S
C681 C679 1.419 . S
C681 C682 1.362 . S
C682 H674 0.930 . S
C682 C681 1.362 . S
C682 C685 1.409 . S
C683 H675 0.930 . S
C683 C684 1.355 . S
C683 C685 1.415 . S
C684 C683 1.355 . S
C684 C686 1.419 . S
C685 C680 1.425 . S
C685 C682 1.409 . S
C685 C683 1.415 . S
C686 H676 0.930 . S
C686 C684 1.419 . S
C686 C687 1.362 . S
C687 H677 0.930 . S
C687 C680 1.409 . S
C687 C686 1.362 . S
H688 C694 0.930 . S
H689 C697 0.930 . S
H690 C698 0.930 . S
H691 C699 0.930 . S
H692 C702 0.930 . S
H693 C703 0.930 . S
C694 H688 0.930 . S
C694 C695 1.355 . S
C694 C696 1.415 . S
C695 C694 1.355 . S
C695 C697 1.419 . S
C696 C694 1.415 . S
C696 C701 1.425 . S
C696 C703 1.409 . S
C697 H689 0.930 . S
C697 C695 1.419 . S
C697 C698 1.362 . S
C698 H690 0.930 . S
C698 C697 1.362 . S
C698 C701 1.409 . S
C699 H691 0.930 . S
C699 C700 1.355 . S
C699 C701 1.415 . S
C700 C699 1.355 . S
C700 C702 1.419 . S
C701 C696 1.425 . S
C701 C698 1.409 . S
C701 C699 1.415 . S
C702 H692 0.930 . S
C702 C700 1.419 . S
C702 C703 1.362 . S
C703 H693 0.930 . S
C703 C696 1.409 . S
C703 C702 1.362 . S
C327 C7 1.654 . S
C332 C296 1.653 . S
C343 C256 1.690 . S
C348 C47 1.690 . S
C359 C207 1.660 . S
C364 C96 1.660 . S
C375 C167 1.690 . S
C380 C136 1.690 . S
C391 C90 1.613 . S
C396 C10 1.619 . S
C407 C50 1.596 . S
C412 C130 1.592 . S
C423 C139 1.625 . S
C428 C59 1.620 . S
C439 C99 1.559 . S
C444 C19 1.551 . S
C455 C170 1.464 . S
C460 C250 1.466 . S
C471 C210 1.444 1_554 S
C476 C290 1.441 . S
C487 C299 1.421 1_556 S
C492 C219 1.418 . S
C503 C259 1.464 . S
C508 C179 1.467 . S
C519 C11 2.060 . S
C524 C2 2.060 . S
C535 C51 2.073 . S
C540 C42 2.073 . S
C551 C91 2.058 . S
C556 C82 2.058 . S
C567 C122 2.099 . S
C572 C131 2.099 . S
C583 C162 2.095 . S
C588 C171 2.095 . S
C599 C211 2.094 . S
C604 C202 2.094 . S
C615 C242 2.049 . S
C620 C251 2.049 . S
C631 C282 2.097 . S
C636 C291 2.097 . S
C647 C16 2.270 . S
C652 C56 2.279 . S
C663 C127 2.284 . S
C668 C87 2.260 . S
C679 C176 2.263 . S
C684 C216 2.284 . S
C695 C287 2.294 . S
C700 C247 2.255 . S
