# Generated by pormake.
# Topology lcy-a, (4)-cn, num edge types: 1
# Building blocks:
#     Node 0, Type 0, BuildingBlock: QUQFOY_clean_sbu_3, # of connection points: 4
#     Node 1, Type 0, BuildingBlock: QUQFOY_clean_sbu_3, # of connection points: 4
#     Node 2, Type 0, BuildingBlock: QUQFOY_clean_sbu_3, # of connection points: 4
#     Node 3, Type 0, BuildingBlock: QUQFOY_clean_sbu_3, # of connection points: 4
#     Node 4, Type 0, BuildingBlock: QUQFOY_clean_sbu_3, # of connection points: 4
#     Node 5, Type 0, BuildingBlock: QUQFOY_clean_sbu_3, # of connection points: 4
#     Node 6, Type 0, BuildingBlock: QUQFOY_clean_sbu_3, # of connection points: 4
#     Node 7, Type 0, BuildingBlock: QUQFOY_clean_sbu_3, # of connection points: 4
#     Node 8, Type 0, BuildingBlock: QUQFOY_clean_sbu_3, # of connection points: 4
#     Node 9, Type 0, BuildingBlock: QUQFOY_clean_sbu_3, # of connection points: 4
#     Node 10, Type 0, BuildingBlock: QUQFOY_clean_sbu_3, # of connection points: 4
#     Node 11, Type 0, BuildingBlock: QUQFOY_clean_sbu_3, # of connection points: 4
#     Node 12, Type 0, BuildingBlock: QUQFOY_clean_sbu_3, # of connection points: 4
#     Node 13, Type 0, BuildingBlock: QUQFOY_clean_sbu_3, # of connection points: 4
#     Node 14, Type 0, BuildingBlock: QUQFOY_clean_sbu_3, # of connection points: 4
#     Node 15, Type 0, BuildingBlock: QUQFOY_clean_sbu_3, # of connection points: 4
#     Node 16, Type 0, BuildingBlock: QUQFOY_clean_sbu_3, # of connection points: 4
#     Node 17, Type 0, BuildingBlock: QUQFOY_clean_sbu_3, # of connection points: 4
#     Node 18, Type 0, BuildingBlock: QUQFOY_clean_sbu_3, # of connection points: 4
#     Node 19, Type 0, BuildingBlock: QUQFOY_clean_sbu_3, # of connection points: 4
#     Node 20, Type 0, BuildingBlock: QUQFOY_clean_sbu_3, # of connection points: 4
#     Node 21, Type 0, BuildingBlock: QUQFOY_clean_sbu_3, # of connection points: 4
#     Node 22, Type 0, BuildingBlock: QUQFOY_clean_sbu_3, # of connection points: 4
#     Node 23, Type 0, BuildingBlock: QUQFOY_clean_sbu_3, # of connection points: 4
#     Edge 24, Type (0, 0), BuildingBlock: EZIPEK_clean_linker_0, # of connection points: 2
#     Edge 25, Type (0, 0), BuildingBlock: EZIPEK_clean_linker_0, # of connection points: 2
#     Edge 26, Type (0, 0), BuildingBlock: EZIPEK_clean_linker_0, # of connection points: 2
#     Edge 27, Type (0, 0), BuildingBlock: EZIPEK_clean_linker_0, # of connection points: 2
#     Edge 28, Type (0, 0), BuildingBlock: EZIPEK_clean_linker_0, # of connection points: 2
#     Edge 29, Type (0, 0), BuildingBlock: EZIPEK_clean_linker_0, # of connection points: 2
#     Edge 30, Type (0, 0), BuildingBlock: EZIPEK_clean_linker_0, # of connection points: 2
#     Edge 31, Type (0, 0), BuildingBlock: EZIPEK_clean_linker_0, # of connection points: 2
#     Edge 32, Type (0, 0), BuildingBlock: EZIPEK_clean_linker_0, # of connection points: 2
#     Edge 33, Type (0, 0), BuildingBlock: EZIPEK_clean_linker_0, # of connection points: 2
#     Edge 34, Type (0, 0), BuildingBlock: EZIPEK_clean_linker_0, # of connection points: 2
#     Edge 35, Type (0, 0), BuildingBlock: EZIPEK_clean_linker_0, # of connection points: 2
#     Edge 36, Type (0, 0), BuildingBlock: EZIPEK_clean_linker_0, # of connection points: 2
#     Edge 37, Type (0, 0), BuildingBlock: EZIPEK_clean_linker_0, # of connection points: 2
#     Edge 38, Type (0, 0), BuildingBlock: EZIPEK_clean_linker_0, # of connection points: 2
#     Edge 39, Type (0, 0), BuildingBlock: EZIPEK_clean_linker_0, # of connection points: 2
#     Edge 40, Type (0, 0), BuildingBlock: EZIPEK_clean_linker_0, # of connection points: 2
#     Edge 41, Type (0, 0), BuildingBlock: EZIPEK_clean_linker_0, # of connection points: 2
#     Edge 42, Type (0, 0), BuildingBlock: EZIPEK_clean_linker_0, # of connection points: 2
#     Edge 43, Type (0, 0), BuildingBlock: EZIPEK_clean_linker_0, # of connection points: 2
#     Edge 44, Type (0, 0), BuildingBlock: EZIPEK_clean_linker_0, # of connection points: 2
#     Edge 45, Type (0, 0), BuildingBlock: EZIPEK_clean_linker_0, # of connection points: 2
#     Edge 46, Type (0, 0), BuildingBlock: EZIPEK_clean_linker_0, # of connection points: 2
#     Edge 47, Type (0, 0), BuildingBlock: EZIPEK_clean_linker_0, # of connection points: 2
#     Edge 48, Type (0, 0), BuildingBlock: EZIPEK_clean_linker_0, # of connection points: 2
#     Edge 49, Type (0, 0), BuildingBlock: EZIPEK_clean_linker_0, # of connection points: 2
#     Edge 50, Type (0, 0), BuildingBlock: EZIPEK_clean_linker_0, # of connection points: 2
#     Edge 51, Type (0, 0), BuildingBlock: EZIPEK_clean_linker_0, # of connection points: 2
#     Edge 52, Type (0, 0), BuildingBlock: EZIPEK_clean_linker_0, # of connection points: 2
#     Edge 53, Type (0, 0), BuildingBlock: EZIPEK_clean_linker_0, # of connection points: 2
#     Edge 54, Type (0, 0), BuildingBlock: EZIPEK_clean_linker_0, # of connection points: 2
#     Edge 55, Type (0, 0), BuildingBlock: EZIPEK_clean_linker_0, # of connection points: 2
#     Edge 56, Type (0, 0), BuildingBlock: EZIPEK_clean_linker_0, # of connection points: 2
#     Edge 57, Type (0, 0), BuildingBlock: EZIPEK_clean_linker_0, # of connection points: 2
#     Edge 58, Type (0, 0), BuildingBlock: EZIPEK_clean_linker_0, # of connection points: 2
#     Edge 59, Type (0, 0), BuildingBlock: EZIPEK_clean_linker_0, # of connection points: 2
#     Edge 60, Type (0, 0), BuildingBlock: EZIPEK_clean_linker_0, # of connection points: 2
#     Edge 61, Type (0, 0), BuildingBlock: EZIPEK_clean_linker_0, # of connection points: 2
#     Edge 62, Type (0, 0), BuildingBlock: EZIPEK_clean_linker_0, # of connection points: 2
#     Edge 63, Type (0, 0), BuildingBlock: EZIPEK_clean_linker_0, # of connection points: 2
#     Edge 64, Type (0, 0), BuildingBlock: EZIPEK_clean_linker_0, # of connection points: 2
#     Edge 65, Type (0, 0), BuildingBlock: EZIPEK_clean_linker_0, # of connection points: 2
#     Edge 66, Type (0, 0), BuildingBlock: EZIPEK_clean_linker_0, # of connection points: 2
#     Edge 67, Type (0, 0), BuildingBlock: EZIPEK_clean_linker_0, # of connection points: 2
#     Edge 68, Type (0, 0), BuildingBlock: EZIPEK_clean_linker_0, # of connection points: 2
#     Edge 69, Type (0, 0), BuildingBlock: EZIPEK_clean_linker_0, # of connection points: 2
#     Edge 70, Type (0, 0), BuildingBlock: EZIPEK_clean_linker_0, # of connection points: 2
#     Edge 71, Type (0, 0), BuildingBlock: EZIPEK_clean_linker_0, # of connection points: 2
# Relax obj value: 0.405
# Max RMSD: 0.180
# Mean RMSD: 0.180
data_MOF--net-lcy-a--node1-QUQFOY_clean_sbu_3--edge1-EZIPEK_clean_linker_0
_symmetry_space_group_name_H-M    P1
_symmetry_Int_Tables_number       1
_symmetry_cell_setting            triclinic
loop_
_symmetry_equiv_pos_as_xyz
'x, y, z'
_cell_length_a     42.439942
_cell_length_b     42.189739
_cell_length_c     42.253697
_cell_angle_alpha  89.945268
_cell_angle_beta   89.95201
_cell_angle_gamma 90.076579
loop_
_atom_site_label
_atom_site_type_symbol
_atom_site_fract_x
_atom_site_fract_y
_atom_site_fract_z
_atom_type_partial_charge
C0 C 0.24145 0.26334 0.37408 0.0
O1 O 0.26215 0.28513 0.37397 0.0
Cd2 Cd 0.25133 0.34081 0.37836 0.0
O3 O 0.21254 0.26929 0.37877 0.0
Cd4 Cd 0.17625 0.31211 0.3927 0.0
C5 C 0.18832 0.34947 0.32458 0.0
O6 O 0.21456 0.34232 0.41908 0.0
O7 O 0.17232 0.33746 0.4464 0.0
O8 O 0.16753 0.26152 0.41195 0.0
C9 C 0.20095 0.34583 0.44533 0.0
O10 O 0.21684 0.35179 0.33383 0.0
C11 C 0.13814 0.26512 0.41571 0.0
O12 O 0.16703 0.33668 0.34154 0.0
O13 O 0.12518 0.29041 0.40532 0.0
C14 C 0.97587 0.99454 0.61733 0.0
O15 O 0.95407 0.01485 0.6143 0.0
Cd16 Cd 0.90099 0.00083 0.62433 0.0
O17 O 0.97 0.9665 0.62652 0.0
Cd18 Cd 0.92445 0.93599 0.64602 0.0
C19 C 0.89456 0.9362 0.57464 0.0
O20 O 0.90788 0.9797 0.67625 0.0
O21 O 0.87521 0.94071 0.67842 0.0
O22 O 0.96563 0.92826 0.68065 0.0
C23 C 0.88447 0.96707 0.68967 0.0
O24 O 0.88881 0.96497 0.58138 0.0
C25 C 0.9646 0.89837 0.68096 0.0
O26 O 0.90857 0.91828 0.59409 0.0
O27 O 0.94323 0.88457 0.66491 0.0
C28 C 0.23962 0.72855 0.87734 0.0
O29 O 0.2203 0.7073 0.88613 0.0
Cd30 Cd 0.23653 0.65668 0.90285 0.0
O31 O 0.26926 0.72448 0.87902 0.0
Cd32 Cd 0.30844 0.68638 0.89904 0.0
C33 C 0.29085 0.64014 0.84084 0.0
O34 O 0.27346 0.67266 0.94028 0.0
O35 O 0.31436 0.64266 0.93885 0.0
O36 O 0.3194 0.7375 0.91613 0.0
C37 C 0.28891 0.65045 0.95255 0.0
O38 O 0.26554 0.63863 0.85705 0.0
C39 C 0.34844 0.7332 0.92082 0.0
O40 O 0.31321 0.65806 0.84967 0.0
O41 O 0.36057 0.70697 0.91223 0.0
C42 C 0.50077 0.00976 0.1132 0.0
O43 O 0.52488 -0.00424 0.10239 0.0
Cd44 Cd 0.57284 0.01172 0.12762 0.0
O45 O 0.50389 0.03407 0.13031 0.0
Cd46 Cd 0.55041 0.06267 0.14605 0.0
C47 C 0.59062 0.05619 0.08152 0.0
O48 O 0.5605 0.01969 0.18118 0.0
O49 O 0.59797 0.05409 0.18089 0.0
O50 O 0.50782 0.07398 0.17697 0.0
C51 C 0.58531 0.02993 0.19385 0.0
O52 O 0.60915 0.04965 0.10385 0.0
C53 C 0.50974 0.1038 0.17563 0.0
O54 O 0.56258 0.06293 0.08912 0.0
O55 O 0.53249 0.11611 0.16002 0.0
C56 C 0.74441 0.22284 0.61182 0.0
O57 O 0.76269 0.19901 0.61135 0.0
Cd58 Cd 0.74377 0.14673 0.60315 0.0
O59 O 0.71504 0.22011 0.6066 0.0
Cd60 Cd 0.6752 0.18048 0.59148 0.0
C61 C 0.68454 0.14794 0.66127 0.0
O62 O 0.71383 0.15965 0.55821 0.0
O63 O 0.67017 0.13391 0.55453 0.0
O64 O 0.66825 0.2292 0.56725 0.0
C65 C 0.69801 0.13853 0.54455 0.0
O66 O 0.7113 0.14018 0.65007 0.0
C67 C 0.63912 0.22594 0.56225 0.0
O68 O 0.66484 0.16365 0.64507 0.0
O69 O 0.62526 0.20123 0.57263 0.0
C70 C 0.00655 0.49558 0.85645 0.0
O71 O 0.02828 0.51634 0.85658 0.0
Cd72 Cd 0.0816 0.5017 0.84964 0.0
O73 O 0.01249 0.46638 0.85217 0.0
Cd74 Cd 0.05483 0.42778 0.84136 0.0
C75 C 0.08644 0.44318 0.90961 0.0
O76 O 0.07056 0.46818 0.80687 0.0
O77 O 0.09927 0.4265 0.80184 0.0
O78 O 0.00288 0.41278 0.83101 0.0
C79 C 0.0925 0.45427 0.79253 0.0
O80 O 0.08979 0.47058 0.89737 0.0
C81 C 0.00997 0.38756 0.8167 0.0
O82 O 0.07459 0.42032 0.89419 0.0
O83 O 0.03867 0.37889 0.81637 0.0
C84 C 0.74486 0.76463 0.11722 0.0
O85 O 0.72355 0.78574 0.11643 0.0
Cd86 Cd 0.73444 0.84068 0.10797 0.0
O87 O 0.77335 0.77097 0.11065 0.0
Cd88 Cd 0.80994 0.81172 0.09169 0.0
C89 C 0.7997 0.84714 0.16036 0.0
O90 O 0.77003 0.84082 0.06633 0.0
O91 O 0.81167 0.83682 0.03788 0.0
O92 O 0.81389 0.75824 0.07824 0.0
C93 C 0.78283 0.84423 0.03965 0.0
O94 O 0.77116 0.84939 0.15115 0.0
C95 C 0.84146 0.7606 0.067 0.0
O96 O 0.82124 0.83554 0.14285 0.0
O97 O 0.85623 0.78684 0.07003 0.0
C98 C 0.47027 0.49438 0.35842 0.0
O99 O 0.44757 0.47471 0.35815 0.0
Cd100 Cd 0.39547 0.49252 0.34855 0.0
O101 O 0.46587 0.52369 0.35325 0.0
Cd102 Cd 0.42593 0.56384 0.34051 0.0
C103 C 0.39146 0.55108 0.40804 0.0
O104 O 0.40964 0.52409 0.30495 0.0
O105 O 0.38174 0.5666 0.30121 0.0
O106 O 0.47913 0.57671 0.33103 0.0
C107 C 0.38838 0.53921 0.29079 0.0
O108 O 0.38668 0.52405 0.39558 0.0
C109 C 0.47332 0.6013 0.31507 0.0
O110 O 0.40564 0.57294 0.39308 0.0
O111 O 0.44495 0.61083 0.31357 0.0
C112 C 0.37084 0.23959 0.26889 0.0
O113 O 0.37218 0.26115 0.28983 0.0
Cd114 Cd 0.38191 0.25121 0.34473 0.0
O115 O 0.37693 0.21085 0.27527 0.0
Cd116 Cd 0.39491 0.17297 0.31531 0.0
C117 C 0.32875 0.18646 0.35457 0.0
O118 O 0.42078 0.21333 0.34224 0.0
O119 O 0.45015 0.1725 0.3375 0.0
O120 O 0.40206 0.16778 0.26071 0.0
C121 C 0.44776 0.20142 0.34507 0.0
O122 O 0.33896 0.2149 0.35586 0.0
C123 C 0.41694 0.14186 0.2628 0.0
O124 O 0.34471 0.16407 0.34215 0.0
O125 O 0.41785 0.1277 0.28953 0.0
C126 C -0.00122 0.13287 0.51442 0.0
O127 O 0.97742 0.13655 0.53517 0.0
Cd128 Cd 0.98741 0.14477 0.59004 0.0
O129 O 0.02777 0.1367 0.52084 0.0
Cd130 Cd 0.06548 0.15466 0.56128 0.0
C131 C 0.04859 0.08754 0.59849 0.0
O132 O 0.02722 0.18174 0.58979 0.0
O133 O 0.07032 0.20794 0.58836 0.0
O134 O 0.06922 0.16987 0.50831 0.0
C135 C 0.04115 0.20757 0.5945 0.0
O136 O 0.02078 0.09893 0.60043 0.0
C137 C 0.09805 0.17753 0.50958 0.0
O138 O 0.07144 0.10302 0.58635 0.0
O139 O 0.11328 0.17211 0.53512 0.0
C140 C 0.10632 0.76378 0.74647 0.0
O141 O 0.08355 0.78219 0.74187 0.0
Cd142 Cd 0.09005 0.80603 0.79529 0.0
O143 O 0.12173 0.76744 0.77171 0.0
Cd144 Cd 0.09331 0.8131 0.80222 0.0
C145 C 0.15135 0.80859 0.83501 0.0
O146 O 0.04871 0.77617 0.81206 0.0
O147 O 0.06634 0.79834 0.85428 0.0
O148 O 0.08331 0.8416 0.75199 0.0
C149 C 0.04656 0.77965 0.84145 0.0
O150 O 0.13544 0.7847 0.82685 0.0
C151 C 0.06143 0.85817 0.76363 0.0
O152 O 0.14053 0.83567 0.82838 0.0
O153 O 0.05828 0.85831 0.79347 0.0
C154 C 0.49423 0.85995 0.01902 0.0
O155 O 0.51324 0.8596 0.04225 0.0
Cd156 Cd 0.49859 0.85475 0.09681 0.0
O157 O 0.46494 0.85508 0.0226 0.0
Cd158 Cd 0.4256 0.84044 0.06219 0.0
C159 C 0.43591 0.90942 0.0988 0.0
O160 O 0.46178 0.81411 0.09439 0.0
O161 O 0.4206 0.78597 0.08585 0.0
O162 O 0.41821 0.82155 0.01145 0.0
C163 C 0.44855 0.78748 0.09619 0.0
O164 O 0.46412 0.90017 0.10362 0.0
C165 C 0.38848 0.81963 0.0136 0.0
O166 O 0.41553 0.8919 0.08538 0.0
O167 O 0.37505 0.83025 0.03848 0.0
C168 C 0.86872 0.25907 0.73199 0.0
O169 O 0.89802 0.26218 0.7297 0.0
Cd170 Cd 0.89388 0.29405 0.68168 0.0
O171 O 0.85209 0.27374 0.71203 0.0
Cd172 Cd 0.89302 0.30723 0.67926 0.0
C173 C 0.83489 0.30285 0.64212 0.0
O174 O 0.93109 0.26694 0.65612 0.0
O175 O 0.9342 0.31384 0.63625 0.0
O176 O 0.9253 0.31448 0.72524 0.0
C177 C 0.94511 0.28584 0.63783 0.0
O178 O 0.84826 0.27774 0.65113 0.0
C179 C 0.92238 0.3441 0.7263 0.0
O180 O 0.84784 0.32903 0.64885 0.0
O181 O 0.90519 0.3576 0.70567 0.0
C182 C 0.98944 0.6159 0.98392 0.0
O183 O 0.01038 0.61656 0.96243 0.0
Cd184 Cd 0.00109 0.63257 0.90919 0.0
O185 O 0.96119 0.62399 0.97836 0.0
Cd186 Cd 0.93008 0.64619 0.9349 0.0
C187 C 0.93816 0.58336 0.88916 0.0
O188 O 0.97254 0.67893 0.92029 0.0
O189 O 0.93124 0.6865 0.89149 0.0
O190 O 0.91828 0.67447 0.98037 0.0
C191 C 0.95923 0.69438 0.8986 0.0
O192 O 0.9665 0.59297 0.88664 0.0
C193 C 0.88872 0.67386 0.97706 0.0
O194 O 0.91865 0.59713 0.90729 0.0
O195 O 0.87728 0.6592 0.95335 0.0
C196 C 0.61303 0.74695 0.22416 0.0
O197 O 0.61339 0.76626 0.20109 0.0
Cd198 Cd 0.60465 0.7495 0.14786 0.0
O199 O 0.6067 0.71787 0.22015 0.0
Cd200 Cd 0.59001 0.68258 0.17769 0.0
C201 C 0.65992 0.68938 0.14437 0.0
O202 O 0.55676 0.72211 0.15598 0.0
O203 O 0.55497 0.67748 0.1308 0.0
O204 O 0.55723 0.67551 0.22108 0.0
C205 C 0.54411 0.70523 0.13491 0.0
O206 O 0.64975 0.71664 0.13666 0.0
C207 C 0.55908 0.64565 0.22207 0.0
O208 O 0.64338 0.67065 0.161 0.0
O209 O 0.57613 0.63173 0.20152 0.0
C210 C 0.49642 0.37066 0.47952 0.0
O211 O 0.47499 0.36534 0.45926 0.0
Cd212 Cd 0.48572 0.34953 0.40615 0.0
O213 O 0.52523 0.36598 0.47314 0.0
Cd214 Cd 0.55577 0.34239 0.42998 0.0
C215 C 0.54368 0.40498 0.38675 0.0
O216 O 0.51712 0.3044 0.41455 0.0
O217 O 0.55821 0.30638 0.38408 0.0
O218 O 0.5657 0.31421 0.47551 0.0
C219 C 0.53252 0.29295 0.3917 0.0
O220 O 0.51635 0.39275 0.38437 0.0
C221 C 0.59531 0.31395 0.47279 0.0
O222 O 0.56471 0.39253 0.40406 0.0
O223 O 0.60791 0.32853 0.44954 0.0
C224 C 0.25868 0.38012 0.23825 0.0
O225 O 0.27856 0.38076 0.26073 0.0
Cd226 Cd 0.33444 0.38326 0.25458 0.0
O227 O 0.26688 0.38387 0.2096 0.0
Cd228 Cd 0.31159 0.39656 0.17505 0.0
C229 C 0.34131 0.3261 0.19338 0.0
O230 O 0.33919 0.42156 0.216 0.0
O231 O 0.33942 0.44941 0.17382 0.0
O232 O 0.26103 0.41453 0.16475 0.0
C233 C 0.34497 0.44784 0.20319 0.0
O234 O 0.34242 0.33703 0.2215 0.0
C235 C 0.26624 0.42158 0.13607 0.0
O236 O 0.33243 0.34286 0.16991 0.0
O237 O 0.29272 0.41397 0.12378 0.0
C238 C 0.75484 0.11761 0.75101 0.0
O239 O 0.77213 0.10651 0.72908 0.0
Cd240 Cd 0.82245 0.08618 0.73888 0.0
O241 O 0.76228 0.11535 0.78013 0.0
Cd242 Cd 0.80039 0.0915 0.81794 0.0
C243 C 0.84025 0.14603 0.79768 0.0
O244 O 0.80949 0.05118 0.77944 0.0
O245 O 0.84195 0.04885 0.81827 0.0
O246 O 0.74906 0.07638 0.82829 0.0
C247 C 0.83217 0.03711 0.7924 0.0
O248 O 0.83403 0.12515 0.77723 0.0
C249 C 0.75271 0.07123 0.8575 0.0
O250 O 0.82978 0.14139 0.82533 0.0
O251 O 0.77948 0.07769 0.86947 0.0
C252 C 0.1207 0.51432 -0.00024 0.0
O253 O 0.12225 0.53582 0.97873 0.0
Cd254 Cd 0.13207 0.59077 0.98817 0.0
O255 O 0.12752 0.5197 0.02848 0.0
Cd256 Cd 0.14914 0.56057 0.06334 0.0
C257 C 0.08091 0.59764 0.05406 0.0
O258 O 0.17367 0.59085 0.02338 0.0
O259 O 0.20239 0.58634 0.06471 0.0
O260 O 0.16931 0.50973 0.06855 0.0
C261 C 0.20021 0.59471 0.03606 0.0
O262 O 0.0895 0.60047 0.02525 0.0
C263 C 0.17554 0.51231 0.09777 0.0
O264 O 0.0985 0.58499 0.07496 0.0
O265 O 0.16651 0.53717 0.11251 0.0
C266 C 0.72772 0.87159 0.24973 0.0
O267 O 0.70722 0.87608 0.2283 0.0
Cd268 Cd 0.65408 0.89139 0.23831 0.0
O269 O 0.72174 0.87693 0.27868 0.0
Cd270 Cd 0.67941 0.90045 0.31057 0.0
C271 C 0.63661 0.83688 0.29841 0.0
O272 O 0.66342 0.93527 0.27084 0.0
O273 O 0.63393 0.93775 0.31248 0.0
O274 O 0.72284 0.93174 0.31676 0.0
C275 C 0.64111 0.94856 0.28534 0.0
O276 O 0.63412 0.84853 0.2707 0.0
C277 C 0.72313 0.93161 0.34664 0.0
O278 O 0.65356 0.85002 0.31942 0.0
O279 O 0.70251 0.91509 0.36127 0.0
C280 C 0.36592 0.47078 0.49364 0.0
O281 O 0.3638 0.44886 0.47319 0.0
Cd282 Cd 0.35096 0.3972 0.49131 0.0
O283 O 0.3597 0.46576 0.52258 0.0
Cd284 Cd 0.33906 0.42603 0.55953 0.0
C285 C 0.40677 0.39293 0.55299 0.0
O286 O 0.30403 0.40992 0.51869 0.0
O287 O 0.30153 0.38088 0.56085 0.0
O288 O 0.32483 0.47875 0.56822 0.0
C289 C 0.29022 0.38838 0.53408 0.0
O290 O 0.39621 0.38849 0.52517 0.0
C291 C 0.30856 0.47312 0.59259 0.0
O292 O 0.39016 0.4062 0.5741 0.0
O293 O 0.30982 0.4455 0.60467 0.0
C294 C 0.24383 0.61719 0.72078 0.0
O295 O 0.24858 0.59476 0.70189 0.0
Cd296 Cd 0.19249 0.59486 0.68493 0.0
O297 O 0.21725 0.63042 0.71915 0.0
Cd298 Cd 0.18398 0.59741 0.6782 0.0
C299 C 0.14574 0.65171 0.6871 0.0
O300 O 0.17977 0.55166 0.71574 0.0
O301 O 0.1355 0.56714 0.69661 0.0
O302 O 0.19114 0.56077 0.63403 0.0
C303 C 0.15043 0.54779 0.71411 0.0
O304 O 0.15977 0.63779 0.70944 0.0
C305 C 0.21975 0.56765 0.6291 0.0
O306 O 0.14892 0.64032 0.65959 0.0
O307 O 0.23078 0.59165 0.64317 0.0
C308 C 0.6136 0.98738 0.9731 0.0
O309 O 0.64189 0.98586 0.98192 0.0
Cd310 Cd 0.64253 0.92952 0.98787 0.0
O311 O 0.603 0.96433 0.95698 0.0
Cd312 Cd 0.64306 0.93047 0.92789 0.0
C313 C 0.58352 0.89378 0.94119 0.0
O314 O 0.68885 0.91935 0.96234 0.0
O315 O 0.67544 0.88114 0.93138 0.0
O316 O 0.66217 0.9804 0.91794 0.0
C317 C 0.69444 0.892 0.95187 0.0
O318 O 0.59575 0.90137 0.96765 0.0
C319 C 0.66782 0.97623 0.8889 0.0
O320 O 0.59687 0.90105 0.91535 0.0
O321 O 0.66037 0.94983 0.87626 0.0
C322 C 0.87483 -0.00159 0.4824 0.0
O323 O 0.87933 0.01825 0.50444 0.0
Cd324 Cd 0.85889 0.07003 0.49876 0.0
O325 O 0.86235 0.00687 0.45652 0.0
Cd326 Cd 0.84384 0.05658 0.43253 0.0
C327 C 0.90953 0.09601 0.44309 0.0
O328 O 0.80835 0.0596 0.47657 0.0
O329 O 0.80717 0.10075 0.44671 0.0
O330 O 0.83045 0.00897 0.40869 0.0
C331 C 0.79452 0.08489 0.46892 0.0
O332 O 0.89764 0.10034 0.47032 0.0
C333 C 0.8136 0.02085 0.38721 0.0
O334 O 0.89566 0.07878 0.42287 0.0
O335 O 0.81347 0.05085 0.38392 0.0
C336 C 0.12011 0.18846 0.45615 0.0
C337 C 0.10964 0.1998 0.48578 0.0
C338 C 0.11312 0.25459 0.46751 0.0
C339 C 0.12211 0.24329 0.43723 0.0
N340 N 0.12966 0.20025 0.40069 0.0
N341 N 0.08994 0.24274 0.51806 0.0
C342 C 0.12415 0.21034 0.43092 0.0
C343 C 0.10428 0.23257 0.49095 0.0
N344 N 0.12674 0.15698 0.4525 0.0
N345 N 0.11508 0.28613 0.47487 0.0
H346 H 0.08472 0.22773 0.5368 0.0
H347 H 0.08117 0.26561 0.52102 0.0
H348 H 0.12029 0.30388 0.45861 0.0
H349 H 0.1136 0.29472 0.49793 0.0
H350 H 0.13718 0.14745 0.43235 0.0
H351 H 0.12394 0.14059 0.47081 0.0
H352 H 0.12917 0.17659 0.3938 0.0
H353 H 0.13211 0.21602 0.38178 0.0
C354 C 0.98153 0.86248 0.72451 0.0
C355 C 0.98926 0.88164 0.6982 0.0
C356 C 0.0433 0.88789 0.7167 0.0
C357 C 0.03594 0.86837 0.74284 0.0
N358 N 0.00077 0.82982 0.76715 0.0
N359 N 0.02859 0.90463 0.66399 0.0
C360 C 0.00582 0.85352 0.74558 0.0
C361 C 0.02064 0.89168 0.6926 0.0
N362 N 0.95095 0.85386 0.73008 0.0
N363 N 0.07152 0.90352 0.71546 0.0
H364 H 0.0124 0.90679 0.64551 0.0
H365 H 0.05162 0.91014 0.65747 0.0
H366 H 0.0885 0.90163 0.73321 0.0
H367 H 0.07696 0.92051 0.6984 0.0
H368 H 0.94337 0.84345 0.75111 0.0
H369 H 0.93264 0.8586 0.71439 0.0
H370 H 0.98046 0.81596 0.76762 0.0
H371 H 0.01778 0.8217 0.78286 0.0
C372 C 0.36102 0.74623 0.97558 0.0
C373 C 0.36379 0.75441 0.9432 0.0
C374 C 0.37694 0.8089 0.9573 0.0
C375 C 0.37201 0.80102 0.9896 0.0
N376 N 0.35134 0.76461 0.02871 0.0
N377 N 0.37129 0.79334 0.90228 0.0
C378 C 0.36139 0.77049 -0.0015 0.0
C379 C 0.37088 0.78578 0.93374 0.0
N380 N 0.35813 0.71517 0.98446 0.0
N381 N 0.38792 0.83836 0.94947 0.0
H382 H 0.36886 0.77624 0.8846 0.0
H383 H 0.37288 0.81643 0.89374 0.0
H384 H 0.39016 0.85648 0.96613 0.0
H385 H 0.39566 0.84455 0.92691 0.0
H386 H 0.35956 0.7076 0.00789 0.0
H387 H 0.35747 0.69649 0.96837 0.0
H388 H 0.34035 0.74357 0.03546 0.0
H389 H 0.35049 0.7818 0.0463 0.0
C390 C 0.4538 0.11079 0.18794 0.0
C391 C 0.48516 0.12189 0.19184 0.0
C392 C 0.46932 0.15113 0.23874 0.0
C393 C 0.43998 0.13478 0.23818 0.0
N394 N 0.40415 0.0982 0.21343 0.0
N395 N 0.52364 0.15166 0.22172 0.0
C396 C 0.432 0.1145 0.21297 0.0
C397 C 0.49313 0.14238 0.21705 0.0
N398 N 0.44524 0.09648 0.16023 0.0
N399 N 0.47442 0.17511 0.25988 0.0
H400 H 0.54178 0.14677 0.20588 0.0
H401 H 0.53136 0.16284 0.24228 0.0
H402 H 0.45802 0.18169 0.27697 0.0
H403 H 0.49382 0.19022 0.25879 0.0
H404 H 0.42222 0.08974 0.15497 0.0
H405 H 0.46085 0.09424 0.14123 0.0
H406 H 0.39857 0.08041 0.1973 0.0
H407 H 0.38755 0.10086 0.23146 0.0
C408 C 0.61768 0.27899 0.55062 0.0
C409 C 0.62434 0.24783 0.54032 0.0
C410 C 0.62249 0.2643 0.48507 0.0
C411 C 0.61295 0.29473 0.49519 0.0
N412 N 0.60005 0.33178 0.53655 0.0
N413 N 0.62912 0.20899 0.49873 0.0
C414 C 0.61037 0.30237 0.52777 0.0
C415 C 0.62551 0.23992 0.50779 0.0
N416 N 0.61884 0.2861 0.58218 0.0
N417 N 0.62859 0.25878 0.45377 0.0
H418 H 0.63152 0.19042 0.51484 0.0
H419 H 0.62703 0.20121 0.47547 0.0
H420 H 0.6265 0.27619 0.43641 0.0
H421 H 0.63853 0.23791 0.44527 0.0
H422 H 0.61768 0.30904 0.59113 0.0
H423 H 0.62216 0.26883 0.59957 0.0
H424 H 0.59383 0.33782 0.5596 0.0
H425 H 0.59673 0.35009 0.52025 0.0
C426 C 0.9367 0.35247 0.7818 0.0
C427 C 0.94089 0.36111 0.74964 0.0
C428 C 0.98979 0.38819 0.7622 0.0
C429 C 0.98772 0.37588 0.79341 0.0
N430 N 0.96116 0.34489 0.83314 0.0
N431 N 0.97332 0.38295 0.70788 0.0
C432 C 0.96162 0.35767 0.80339 0.0
C433 C 0.96776 0.37812 0.73942 0.0
N434 N 0.90877 0.33938 0.79139 0.0
N435 N 0.01215 0.41032 0.75454 0.0
H436 H 0.95748 0.3766 0.69015 0.0
H437 H -0.00527 0.39133 0.69911 0.0
H438 H 0.02925 0.41826 0.77037 0.0
H439 H 0.01212 0.42279 0.73325 0.0
H440 H 0.9032 0.33455 0.8149 0.0
H441 H 0.88995 0.33591 0.77587 0.0
H442 H 0.94414 0.32892 0.84095 0.0
H443 H 0.97936 0.34845 0.84936 0.0
C444 C 0.84055 0.73921 0.01265 0.0
C445 C 0.85163 0.73678 0.04427 0.0
C446 C 0.87581 0.68599 0.03241 0.0
C447 C 0.86958 0.69128 -0.00014 0.0
N448 N 0.84846 0.72436 0.95815 0.0
N449 N 0.88044 0.70906 0.08475 0.0
C450 C 0.8521 0.71795 0.98968 0.0
C451 C 0.86931 0.71037 0.05443 0.0
N452 N 0.81881 0.7617 0.00459 0.0
N453 N 0.88782 0.6575 0.04199 0.0
H454 H 0.87558 0.72655 0.10151 0.0
H455 H 0.89624 0.69194 0.09266 0.0
H456 H 0.89206 0.639 0.02616 0.0
H457 H 0.89071 0.65115 0.06562 0.0
H458 H 0.80713 0.76199 0.98291 0.0
H459 H 0.81039 0.77856 0.02042 0.0
H460 H 0.83976 0.74582 0.94964 0.0
H461 H 0.85599 0.70931 0.94018 0.0
C462 C 0.54368 0.64108 0.2781 0.0
C463 C 0.54157 0.62895 0.24683 0.0
C464 C 0.49792 0.59503 0.26255 0.0
C465 C 0.49657 0.61144 0.29185 0.0
N466 N 0.51648 0.65108 0.32755 0.0
N467 N 0.51448 0.59676 0.20798 0.0
C468 C 0.51905 0.63472 0.29976 0.0
C469 C 0.51844 0.60617 0.23869 0.0
N470 N 0.56955 0.65822 0.28703 0.0
N471 N 0.47987 0.56859 0.25763 0.0
H472 H 0.52884 0.60423 0.18944 0.0
H473 H 0.49531 0.5833 0.20042 0.0
H474 H 0.46372 0.55993 0.27413 0.0
H475 H 0.48282 0.55368 0.23821 0.0
H476 H 0.57362 0.66562 0.31018 0.0
H477 H 0.58856 0.66224 0.27184 0.0
H478 H 0.53034 0.67069 0.33307 0.0
H479 H 0.49877 0.64647 0.34409 0.0
C480 C 0.25288 0.47662 0.1218 0.0
C481 C 0.24468 0.44402 0.12111 0.0
C482 C 0.18936 0.45732 0.1124 0.0
C483 C 0.19786 0.48977 0.11138 0.0
N484 N 0.23798 0.5306 0.1108 0.0
N485 N 0.20696 0.40253 0.11203 0.0
C486 C 0.22964 0.49955 0.11513 0.0
C487 C 0.21337 0.43413 0.11525 0.0
N488 N 0.28259 0.48582 0.13036 0.0
N489 N 0.15823 0.449 0.1113 0.0
H490 H 0.2245 0.38527 0.11362 0.0
H491 H 0.18515 0.39353 0.10531 0.0
H492 H 0.14024 0.46578 0.10979 0.0
H493 H 0.14998 0.42597 0.1144 0.0
H494 H 0.28848 0.50898 0.13653 0.0
H495 H 0.30127 0.47008 0.13272 0.0
H496 H 0.26119 0.53822 0.10819 0.0
H497 H 0.22175 0.54885 0.10818 0.0
C498 C 0.6763 0.02887 0.86537 0.0
C499 C 0.68871 -0.00096 0.87398 0.0
C500 C 0.73928 0.02275 0.88641 0.0
C501 C 0.72883 0.05168 0.87337 0.0
N502 N 0.68706 0.08375 0.85188 0.0
N503 N 0.73339 0.96593 0.88534 0.0
C504 C 0.69699 0.05524 0.86351 0.0
C505 C 0.72081 -0.00453 0.88174 0.0
N506 N 0.64476 0.03181 0.85967 0.0
N507 N 0.76616 0.02145 0.90407 0.0
H508 H 0.72017 0.94537 0.88174 0.0
H509 H 0.75744 0.96204 0.88852 0.0
H510 H 0.77832 0.04174 0.91103 0.0
H511 H 0.77356 0.00096 0.91567 0.0
H512 H 0.63342 0.05342 0.85636 0.0
H513 H 0.62974 0.01219 0.85912 0.0
H514 H 0.6655 0.08714 0.84065 0.0
H515 H 0.70115 0.10403 0.85302 0.0
C516 C 0.73698 0.97686 0.38176 0.0
C517 C 0.74666 0.95138 0.36226 0.0
C518 C 0.79776 0.9764 0.35335 0.0
C519 C 0.78893 0.00078 0.37431 0.0
N520 N 0.75318 0.02097 0.41421 0.0
N521 N 0.78816 0.92269 0.33586 0.0
C522 C 0.75939 0.00016 0.39018 0.0
C523 C 0.77779 0.94984 0.35011 0.0
N524 N 0.70623 0.97989 0.39094 0.0
N525 N 0.82506 0.97896 0.33635 0.0
H526 H 0.77415 0.90239 0.33418 0.0
H527 H 0.81136 0.91922 0.32862 0.0
H528 H 0.83993 -0.00139 0.33824 0.0
H529 H 0.83138 0.96328 0.31842 0.0
H530 H 0.69738 0.00023 0.4017 0.0
H531 H 0.68888 0.96313 0.38612 0.0
H532 H 0.73394 0.01863 0.42937 0.0
H533 H 0.76833 0.03935 0.42055 0.0
C534 C 0.24483 0.53484 0.58714 0.0
C535 C 0.24135 0.5427 0.6193 0.0
C536 C 0.283 0.50584 0.63427 0.0
C537 C 0.28496 0.49624 0.6024 0.0
N538 N 0.26133 0.49466 0.55013 0.0
N539 N 0.24955 0.52851 0.67424 0.0
C540 C 0.26408 0.50876 0.57915 0.0
C541 C 0.25821 0.52611 0.64319 0.0
N542 N 0.23004 0.55232 0.56435 0.0
N543 N 0.30519 0.4965 0.65577 0.0
H544 H 0.23003 0.54149 0.68156 0.0
H545 H 0.2594 0.51469 0.69213 0.0
H546 H 0.32411 0.48188 0.64992 0.0
H547 H 0.30638 0.50569 0.67863 0.0
H548 H 0.23453 0.54959 0.54026 0.0
H549 H 0.21511 0.57121 0.56973 0.0
H550 H 0.24445 0.50129 0.53352 0.0
H551 H 0.27335 0.47405 0.54391 0.0
C552 C 0.26829 0.3436 0.50296 0.0
C553 C 0.26321 0.37212 0.51969 0.0
C554 C 0.21335 0.38081 0.49192 0.0
C555 C 0.21931 0.35309 0.47401 0.0
N556 N 0.24608 0.30289 0.46934 0.0
N557 N 0.22812 0.41323 0.53712 0.0
C558 C 0.24477 0.33275 0.48184 0.0
C559 C 0.23458 0.38908 0.51659 0.0
N560 N 0.29632 0.32795 0.50587 0.0
N561 N 0.18861 0.4 0.48418 0.0
H562 H 0.24345 0.41936 0.55545 0.0
H563 H 0.20669 0.42517 0.53788 0.0
H564 H 0.1725 0.39434 0.46643 0.0
H565 H 0.18492 0.42226 0.49408 0.0
H566 H 0.30314 0.30943 0.49112 0.0
H567 H 0.31359 0.33462 0.52212 0.0
H568 H 0.26258 0.28598 0.47619 0.0
H569 H 0.22865 0.29394 0.45442 0.0
C570 C 0.85787 0.96638 0.74415 0.0
C571 C 0.87012 0.98325 0.71751 0.0
C572 C 0.86957 0.0319 0.74875 0.0
C573 C 0.85182 0.01666 0.77241 0.0
N574 N 0.82578 0.9698 0.79166 0.0
N575 N 0.87698 0.03468 0.69261 0.0
C576 C 0.84497 0.98394 0.76987 0.0
C577 C 0.87315 0.0168 0.71931 0.0
N578 N 0.85972 0.93412 0.74594 0.0
N579 N 0.88185 0.06135 0.75393 0.0
H580 H 0.87509 0.02514 0.66996 0.0
H581 H 0.87728 0.0594 0.69296 0.0
H582 H 0.87944 0.07294 0.77561 0.0
H583 H 0.8969 0.07247 0.73783 0.0
H584 H 0.85339 0.92147 0.76617 0.0
H585 H 0.87057 0.92011 0.72891 0.0
H586 H 0.81694 0.9469 0.78892 0.0
H587 H 0.81744 0.98179 0.81157 0.0
C588 C 0.26818 0.64568 0.00693 0.0
C589 C 0.27374 0.63121 0.97723 0.0
C590 C 0.23703 0.58865 0.99062 0.0
C591 C 0.22748 0.60612 0.01768 0.0
N592 N 0.2324 0.65211 0.05118 0.0
N593 N 0.26209 0.5902 0.93919 0.0
C594 C 0.24299 0.63463 0.02612 0.0
C595 C 0.25821 0.60272 0.96877 0.0
N596 N 0.2869 0.67026 0.01645 0.0
N597 N 0.22622 0.55843 0.98612 0.0
H598 H 0.27799 0.59932 0.9227 0.0
H599 H 0.24814 0.57195 0.93026 0.0
H600 H 0.211 0.54712 0.00192 0.0
H601 H 0.23472 0.5435 0.96845 0.0
H602 H 0.28596 0.68023 0.03896 0.0
H603 H 0.3055 0.67867 0.00262 0.0
H604 H 0.24043 0.67487 0.05629 0.0
H605 H 0.21382 0.64489 0.06566 0.0
C606 C 0.59888 0.97692 0.21544 0.0
C607 C 0.6006 0.01044 0.21856 0.0
C608 C 0.6263 0.00372 0.26999 0.0
C609 C 0.62112 0.97061 0.26774 0.0
N610 N 0.59441 0.92697 0.24295 0.0
N611 N 0.61098 0.05597 0.25175 0.0
C612 C 0.60432 0.95778 0.24212 0.0
C613 C 0.61292 0.02407 0.2467 0.0
N614 N 0.59447 0.96317 0.18652 0.0
N615 N 0.64473 0.01553 0.29369 0.0
H616 H 0.60092 0.07158 0.23555 0.0
H617 H 0.61701 0.06657 0.27317 0.0
H618 H 0.65364 0.00125 0.31178 0.0
H619 H 0.65245 0.03897 0.29437 0.0
H620 H 0.59543 0.93874 0.18296 0.0
H621 H 0.59437 0.97616 0.16556 0.0
H622 H 0.57986 0.91718 0.22565 0.0
H623 H 0.59809 0.91244 0.26263 0.0
C624 C 0.71721 0.12609 0.49031 0.0
C625 C 0.71438 0.11734 0.52252 0.0
C626 C 0.76408 0.08918 0.52003 0.0
C627 C 0.7665 0.096 0.48703 0.0
N628 N 0.73965 0.11315 0.43933 0.0
N629 N 0.7292 0.08265 0.56491 0.0
C630 C 0.74132 0.1121 0.4716 0.0
C631 C 0.73557 0.09563 0.53599 0.0
N632 N 0.69762 0.14856 0.47796 0.0
N633 N 0.78972 0.07964 0.53708 0.0
H634 H 0.70844 0.08766 0.5772 0.0
H635 H 0.74279 0.06462 0.57481 0.0
H636 H 0.81241 0.07917 0.52789 0.0
H637 H 0.78931 0.07678 0.56158 0.0
H638 H 0.70111 0.1588 0.45577 0.0
H639 H 0.67884 0.15803 0.4908 0.0
H640 H 0.72043 0.1226 0.42725 0.0
H641 H 0.75554 0.10146 0.42463 0.0
C642 C 0.11803 0.49796 0.71875 0.0
C643 C 0.13499 0.523 0.73333 0.0
C644 C 0.13268 0.49542 0.78416 0.0
C645 C 0.11231 0.4727 0.77071 0.0
N646 N 0.08349 0.45261 0.72598 0.0
N647 N 0.15174 0.5492 0.78114 0.0
C648 C 0.10448 0.47392 0.73812 0.0
C649 C 0.14072 0.52263 0.76638 0.0
N650 N 0.11571 0.4966 0.68652 0.0
N651 N 0.14394 0.49112 0.81414 0.0
H652 H 0.15495 0.57059 0.76918 0.0
H653 H 0.15388 0.55115 0.80562 0.0
H654 H 0.13829 0.47119 0.82768 0.0
H655 H 0.16118 0.50555 0.82417 0.0
H656 H 0.1063 0.47729 0.67443 0.0
H657 H 0.12524 0.51384 0.67161 0.0
H658 H 0.07353 0.45467 0.70356 0.0
H659 H 0.07512 0.4334 0.7391 0.0
C660 C 0.71636 0.84435 0.9805 0.0
C661 C 0.72121 0.87415 0.96558 0.0
C662 C 0.76961 0.88242 -0.0038 0.0
C663 C 0.7642 0.85323 0.01169 0.0
N664 N 0.73876 0.80206 0.0121 0.0
N665 N 0.7571 0.9161 0.9515 0.0
C666 C 0.73967 0.83273 0.0016 0.0
C667 C 0.7496 0.89124 0.97083 0.0
N668 N 0.6887 0.8282 0.97662 0.0
N669 N 0.79257 0.90249 0.00684 0.0
H670 H 0.74301 0.92235 0.93229 0.0
H671 H 0.7785 0.92817 0.95246 0.0
H672 H 0.8078 0.89667 0.02531 0.0
H673 H 0.79508 0.92574 -0.00109 0.0
H674 H 0.68228 0.8088 0.99048 0.0
H675 H 0.67119 0.8349 0.9608 0.0
H676 H 0.72356 0.78502 0.00288 0.0
H677 H 0.7552 0.79283 0.02795 0.0
C678 C 0.38008 0.49437 0.21553 0.0
C679 C 0.35294 0.47597 0.22235 0.0
C680 C 0.34422 0.50571 0.27133 0.0
C681 C 0.37151 0.52375 0.26466 0.0
N682 N 0.40999 0.54205 0.22719 0.0
N683 N 0.30376 0.47087 0.25091 0.0
C684 C 0.38753 0.52038 0.23549 0.0
C685 C 0.33324 0.48378 0.24845 0.0
N686 N 0.39973 0.4859 0.19134 0.0
N687 N 0.32973 0.50844 0.30009 0.0
H688 H 0.29435 0.45565 0.23391 0.0
H689 H 0.28742 0.4778 0.26795 0.0
H690 H 0.33644 0.5253 0.31684 0.0
H691 H 0.31226 0.49294 0.30793 0.0
H692 H 0.42162 0.49638 0.18747 0.0
H693 H 0.39531 0.46669 0.17648 0.0
H694 H 0.42107 0.54245 0.2052 0.0
H695 H 0.41503 0.56168 0.24134 0.0
C696 C 0.51772 0.23639 0.38898 0.0
C697 C 0.51905 0.26635 0.37394 0.0
C698 C 0.481 0.2488 0.33448 0.0
C699 C 0.47514 0.22134 0.35311 0.0
N700 N 0.48738 0.18855 0.39829 0.0
N701 N 0.50243 0.30202 0.33272 0.0
C702 C 0.49383 0.21456 0.38007 0.0
C703 C 0.50131 0.27264 0.34637 0.0
N704 N 0.53916 0.22921 0.41201 0.0
N705 N 0.46739 0.25187 0.3053 0.0
H706 H 0.51801 0.31966 0.34013 0.0
H707 H 0.48688 0.30948 0.31519 0.0
H708 H 0.45239 0.23483 0.29569 0.0
H709 H 0.47318 0.26981 0.28938 0.0
H710 H 0.5413 0.20685 0.42221 0.0
H711 H 0.55685 0.24505 0.41875 0.0
H712 H 0.49785 0.18428 0.42014 0.0
H713 H 0.46994 0.17211 0.39261 0.0
C714 C 0.0229 0.24552 0.63588 0.0
C715 C 0.02347 0.23596 0.60386 0.0
C716 C 0.97817 0.26971 0.59162 0.0
C717 C 0.97562 0.27649 0.62423 0.0
N718 N 0.0002 0.28055 0.67534 0.0
N719 N 0.00853 0.24496 0.5496 0.0
C720 C -0.00019 0.26772 0.64565 0.0
C721 C 0.00345 0.25034 0.58109 0.0
N722 N 0.04315 0.23199 0.65708 0.0
N723 N 0.95542 0.28016 0.57129 0.0
H724 H 0.02664 0.23041 0.54141 0.0
H725 H -0.00349 0.25656 0.53154 0.0
H726 H 0.93738 0.29531 0.57847 0.0
H727 H 0.95378 0.27332 0.5477 0.0
H728 H 0.0416 0.2351 0.68146 0.0
H729 H 0.06096 0.21641 0.65022 0.0
H730 H 0.01829 0.27701 0.69156 0.0
H731 H 0.98357 0.29725 0.68266 0.0
C732 C 0.97431 0.75027 0.88566 0.0
C733 C 0.97788 0.71728 0.88031 0.0
C734 C 0.02922 0.72599 0.85613 0.0
C735 C 0.02485 0.75912 0.85912 0.0
N736 N 0.99169 0.80352 0.87234 0.0
N737 N 0.00415 0.67459 0.85342 0.0
C738 C -0.00306 0.77158 0.87272 0.0
C739 C 0.00397 0.70543 0.86331 0.0
N740 N 0.94992 0.76102 0.90382 0.0
N741 N 0.05788 0.71419 0.84721 0.0
H742 H 0.98518 0.65932 0.85738 0.0
H743 H 0.02136 0.66529 0.8385 0.0
H744 H 0.07734 0.7287 0.84278 0.0
H745 H 0.06323 0.6901 0.84738 0.0
H746 H 0.948 0.78436 0.91155 0.0
H747 H 0.93232 0.74607 0.91252 0.0
H748 H 0.9703 0.81377 0.8787 0.0
H749 H 0.00826 0.81972 0.86384 0.0
C750 C 0.5139 0.72797 0.08973 0.0
C751 C 0.51427 0.71616 0.12103 0.0
C752 C 0.46639 0.74569 0.13409 0.0
C753 C 0.46713 0.75901 0.10342 0.0
N754 N 0.48528 0.75702 0.04937 0.0
N755 N 0.48703 0.70571 0.16986 0.0
C756 C 0.48876 0.748 0.08026 0.0
C757 C 0.48895 0.72223 0.14209 0.0
N758 N 0.53858 0.72172 0.06991 0.0
N759 N 0.44532 0.75672 0.15592 0.0
H760 H 0.50328 0.68813 0.17586 0.0
H761 H 0.46807 0.70725 0.18543 0.0
H762 H 0.42793 0.77325 0.15029 0.0
H763 H 0.44595 0.75073 0.17981 0.0
H764 H 0.54186 0.73285 0.04816 0.0
H765 H 0.55667 0.70614 0.07598 0.0
H766 H 0.49864 0.74783 0.03088 0.0
H767 H 0.46706 0.77179 0.04181 0.0
C768 C 0.18645 0.39108 0.28524 0.0
C769 C 0.18203 0.35871 0.29179 0.0
C770 C 0.21312 0.34407 0.24581 0.0
C771 C 0.22532 0.37528 0.24611 0.0
N772 N 0.21793 0.4305 0.25729 0.0
N773 N 0.17921 0.30565 0.27252 0.0
C774 C 0.20937 0.39973 0.26238 0.0
C775 C 0.19042 0.33576 0.26909 0.0
N776 N 0.17092 0.41277 0.30332 0.0
N777 N 0.22492 0.32246 0.22493 0.0
H778 H 0.16289 0.30014 0.29024 0.0
H779 H 0.18506 0.28679 0.25783 0.0
H780 H 0.24138 0.32884 0.20769 0.0
H781 H 0.21783 0.29889 0.22378 0.0
H782 H 0.17282 0.43719 0.30049 0.0
H783 H 0.1548 0.40545 0.32058 0.0
H784 H 0.20852 0.44972 0.26943 0.0
H785 H 0.23444 0.43659 0.23995 0.0
C786 C 0.91076 0.95463 0.49497 0.0
C787 C 0.87964 0.9647 0.48945 0.0
C788 C 0.86004 0.92826 0.52945 0.0
C789 C 0.89094 0.92701 0.54138 0.0
N790 N 0.94637 0.9271 0.53084 0.0
N791 N 0.82423 0.95366 0.49225 0.0
C792 C 0.91663 0.9351 0.52165 0.0
C793 C 0.85402 0.94805 0.50299 0.0
N794 N 0.93423 0.96568 0.47585 0.0
N795 N 0.83675 0.91292 0.54558 0.0
H796 H 0.82011 0.96796 0.47251 0.0
H797 H 0.804 0.94378 0.50208 0.0
H798 H 0.84201 0.89914 0.56546 0.0
H799 H 0.81319 0.91263 0.5388 0.0
H800 H 0.95791 0.95988 0.47835 0.0
H801 H 0.92909 0.97978 0.45618 0.0
H802 H 0.96675 0.93383 0.51891 0.0
H803 H 0.95019 0.91276 0.55063 0.0
C804 C 0.292 0.63259 0.75215 0.0
C805 C 0.26174 0.61837 0.75045 0.0
C806 C 0.26635 0.60169 0.80527 0.0
C807 C 0.29068 0.62394 0.80955 0.0
N808 N 0.33411 0.65236 0.78601 0.0
N809 N 0.21949 0.58939 0.77628 0.0
C810 C 0.30621 0.63667 0.78255 0.0
C811 C 0.24889 0.60254 0.77714 0.0
N812 N 0.3068 0.64194 0.72498 0.0
N813 N 0.25953 0.5805 0.82874 0.0
H814 H 0.20587 0.58814 0.75589 0.0
H815 H 0.20778 0.58181 0.79663 0.0
H816 H 0.273 0.57936 0.8494 0.0
H817 H 0.24308 0.5623 0.82616 0.0
H818 H 0.32987 0.65024 0.72412 0.0
H819 H 0.29638 0.63953 0.70274 0.0
H820 H 0.34484 0.66546 0.76811 0.0
H821 H 0.3472 0.65111 0.80682 0.0
C822 C 0.59392 0.00592 0.05054 0.0
C823 C 0.59474 0.0397 0.05094 0.0
C824 C 0.59534 0.03939 0.99298 0.0
C825 C 0.5929 0.00597 0.99371 0.0
N826 N 0.57447 0.96037 0.0222 0.0
N827 N 0.58958 0.08882 0.0219 0.0
C828 C 0.58578 0.99062 0.02225 0.0
C829 C 0.59288 0.05665 0.02188 0.0
N830 N 0.60337 0.98804 0.07576 0.0
N831 N 0.60142 0.05414 0.96491 0.0
H832 H 0.58936 0.1021 0.04272 0.0
H833 H 0.58539 0.10191 0.00142 0.0
H834 H 0.6021 0.04149 0.94367 0.0
H835 H 0.60668 0.07819 0.96302 0.0
H836 H 0.60445 0.96336 0.07486 0.0
H837 H 0.61507 -0.00287 0.09531 0.0
H838 H 0.56789 0.94863 0.04293 0.0
H839 H 0.56824 0.94893 0.00124 0.0
C840 C 0.69488 0.16924 0.71325 0.0
C841 C 0.68075 0.1447 0.69559 0.0
C842 C 0.70129 0.10569 0.73242 0.0
C843 C 0.72339 0.12877 0.74228 0.0
N844 N 0.73878 0.18338 0.74733 0.0
N845 N 0.66221 0.0914 0.69272 0.0
C846 C 0.71876 0.16115 0.73522 0.0
C847 C 0.68031 0.11356 0.70756 0.0
N848 N 0.68728 0.19991 0.70663 0.0
N849 N 0.70201 0.07615 0.7456 0.0
H850 H 0.64689 0.09783 0.67446 0.0
H851 H 0.66253 0.06732 0.69806 0.0
H852 H 0.71764 0.07049 0.76384 0.0
H853 H 0.68598 0.05827 0.74025 0.0
H854 H 0.69586 0.2192 0.71935 0.0
H855 H 0.67011 0.2054 0.68981 0.0
H856 H 0.7388 0.20707 0.74039 0.0
H857 H 0.75605 0.17757 0.76393 0.0
C858 C 0.07644 0.47949 0.98435 0.0
C859 C 0.109 0.48296 0.99048 0.0
C860 C 0.12138 0.43896 0.9555 0.0
C861 C 0.09038 0.44113 0.94395 0.0
N862 N 0.03601 0.45172 0.95426 0.0
N863 N 0.16051 0.45956 0.99233 0.0
C864 C 0.0669 0.45677 0.96164 0.0
C865 C 0.13082 0.45994 0.97998 0.0
N866 N 0.05544 0.49951 -0.00156 0.0
N867 N 0.14187 0.4188 0.94098 0.0
H868 H 0.16724 0.47507 0.01034 0.0
H869 H 0.17759 0.44295 0.98635 0.0
H870 H 0.13422 0.40347 0.92314 0.0
H871 H 0.16569 0.41705 0.94648 0.0
H872 H 0.03155 0.50031 0.99303 0.0
H873 H 0.06239 0.51573 0.01574 0.0
H874 H 0.01717 0.46188 0.96628 0.0
H875 H 0.02956 0.43532 0.93691 0.0
C876 C 0.77847 0.89069 0.22815 0.0
C877 C 0.76028 0.8651 0.23997 0.0
C878 C 0.79506 0.82776 0.21371 0.0
C879 C 0.80507 0.85289 0.1941 0.0
N880 N 0.81567 0.90794 0.1876 0.0
N881 N 0.75462 0.80934 0.25021 0.0
C882 C 0.80085 0.88441 0.20401 0.0
C883 C 0.77028 0.83349 0.23551 0.0
N884 N 0.77297 0.92067 0.23893 0.0
N885 N 0.80725 0.7983 0.20884 0.0
H886 H 0.7368 0.81358 0.26673 0.0
H887 H 0.75885 0.78546 0.24577 0.0
H888 H 0.82474 0.79457 0.19183 0.0
H889 H 0.80183 0.77867 0.22276 0.0
H890 H 0.78598 0.94042 0.23203 0.0
H891 H 0.75648 0.92524 0.25669 0.0
H892 H 0.81192 0.93202 0.19128 0.0
H893 H 0.83186 0.90256 0.16975 0.0
C894 C 0.35149 0.52566 0.47722 0.0
C895 C 0.37514 0.50273 0.48347 0.0
C896 C 0.41399 0.5363 0.4577 0.0
C897 C 0.38901 0.55212 0.44258 0.0
N898 N 0.33589 0.57007 0.44367 0.0
N899 N 0.42987 0.48744 0.48318 0.0
C900 C 0.35842 0.55023 0.45525 0.0
C901 C 0.40698 0.50886 0.47562 0.0
N902 N 0.32251 0.52296 0.49101 0.0
N903 N 0.44414 0.54581 0.45193 0.0
H904 H 0.42529 0.46735 0.49687 0.0
H905 H 0.45285 0.48889 0.47464 0.0
H906 H 0.44883 0.56545 0.4376 0.0
H907 H 0.46367 0.53615 0.4633 0.0
H908 H 0.30477 0.5398 0.48865 0.0
H909 H 0.31701 0.50471 0.50673 0.0
H910 H 0.31211 0.56873 0.44952 0.0
H911 H 0.34176 0.58796 0.42755 0.0
C912 C 0.25417 0.21613 0.34093 0.0
C913 C 0.25171 0.23019 0.37122 0.0
C914 C 0.2871 0.19062 0.39347 0.0
C915 C 0.29533 0.18238 0.36229 0.0
N916 N 0.27798 0.17424 0.30921 0.0
N917 N 0.25571 0.22458 0.42771 0.0
C918 C 0.27493 0.19006 0.33715 0.0
C919 C 0.26442 0.21487 0.39818 0.0
N920 N 0.23847 0.22907 0.31587 0.0
N921 N 0.30377 0.17756 0.41775 0.0
H922 H 0.2386 0.242 0.43107 0.0
H923 H 0.26368 0.21426 0.44858 0.0
H924 H 0.32059 0.16 0.41342 0.0
H925 H 0.30118 0.18381 0.44142 0.0
H926 H 0.24143 0.22176 0.29254 0.0
H927 H 0.22261 0.24776 0.31864 0.0
H928 H 0.26343 0.17782 0.28972 0.0
H929 H 0.29411 0.15571 0.30684 0.0
C930 C 0.02329 0.0086 0.58571 0.0
C931 C 0.00864 0.00557 0.61557 0.0
C932 C 0.04314 0.04583 0.63796 0.0
C933 C 0.05184 0.05392 0.6068 0.0
N934 N 0.06249 0.03656 0.55401 0.0
N935 N 0.01135 0.01195 0.67204 0.0
C936 C 0.04669 0.03237 0.5818 0.0
C937 C 0.02146 0.02064 0.64259 0.0
N938 N 0.01323 0.99023 0.56113 0.0
N939 N 0.05317 0.06465 0.66219 0.0
H940 H -0.00462 0.99341 0.67543 0.0
H941 H 0.01999 0.02152 0.69299 0.0
H942 H 0.06914 0.0831 0.65815 0.0
H943 H 0.04598 0.06227 0.68561 0.0
H944 H 0.02103 0.99274 0.53791 0.0
H945 H -0.00338 0.97222 0.56437 0.0
H946 H 0.06052 0.02151 0.53462 0.0
H947 H 0.07944 0.05435 0.55152 0.0
C948 C 0.20932 0.77643 0.89129 0.0
C949 C 0.22702 0.75964 0.86839 0.0
C950 C 0.2063 0.79362 0.82679 0.0
C951 C 0.18279 0.80364 0.84822 0.0
N952 N 0.16351 0.8094 0.90122 0.0
N953 N 0.24639 0.75438 0.81501 0.0
C954 C 0.1854 0.79732 0.88087 0.0
C955 C 0.22754 0.76956 0.83638 0.0
N956 N 0.21512 0.77163 0.92272 0.0
N957 N 0.20688 0.80612 0.79699 0.0
H958 H 0.26256 0.73701 0.82163 0.0
H959 H 0.24537 0.75815 0.79069 0.0
H960 H 0.19095 0.82363 0.79 0.0
H961 H 0.22439 0.80133 0.78042 0.0
H962 H 0.20439 0.78454 0.94073 0.0
H963 H 0.23294 0.75648 0.93055 0.0
H964 H 0.16169 0.80286 0.92492 0.0
H965 H 0.14649 0.82561 0.89372 0.0
C966 C 0.45538 0.98911 0.08218 0.0
C967 C 0.47005 0.99377 0.11189 0.0
C968 C 0.43649 0.95321 0.13558 0.0
C969 C 0.4294 0.94297 0.10486 0.0
N970 N 0.41892 0.95694 0.05114 0.0
N971 N 0.47168 0.98391 0.1685 0.0
C972 C 0.43384 0.96353 0.07893 0.0
C973 C 0.4588 0.97786 0.13945 0.0
N974 N 0.46351 0.008 0.05721 0.0
N975 N 0.42366 0.93721 0.16052 0.0
H976 H 0.48804 0.00181 0.17264 0.0
H977 H 0.46698 0.97051 0.18864 0.0
H978 H 0.40814 0.91832 0.15678 0.0
H979 H 0.42623 0.94396 0.18406 0.0
H980 H 0.45519 0.005 0.03427 0.0
H981 H 0.47874 0.02729 0.05983 0.0
H982 H 0.42072 0.9707 0.03078 0.0
H983 H 0.40297 0.93816 0.04943 0.0
C984 C 0.7561 0.27172 0.64321 0.0
C985 C 0.7584 0.25458 0.61452 0.0
C986 C 0.80233 0.28739 0.59696 0.0
C987 C 0.80365 0.3002 0.62771 0.0
N988 N 0.77699 0.31478 0.6754 0.0
N989 N 0.77457 0.25327 0.55997 0.0
C990 C 0.77826 0.29628 0.64897 0.0
C991 C 0.77833 0.26518 0.58979 0.0
N992 N 0.73436 0.26301 0.66546 0.0
N993 N 0.82573 0.29456 0.57596 0.0
H994 H 0.75674 0.2371 0.5545 0.0
H995 H 0.7872 0.26116 0.54037 0.0
H996 H 0.84289 0.31153 0.58121 0.0
H997 H 0.82852 0.28357 0.5541 0.0
H998 H 0.73326 0.27255 0.68812 0.0
H999 H 0.71753 0.24548 0.66126 0.0
H1000 H 0.75858 0.31432 0.69168 0.0
H1001 H 0.79369 0.33251 0.6795 0.0
C1002 C 0.96175 0.52579 0.83453 0.0
C1003 C 0.97373 0.50628 0.85896 0.0
C1004 C 0.93404 0.5265 0.89515 0.0
C1005 C 0.93082 0.55262 0.87468 0.0
N1006 N 0.92989 0.57217 0.8218 0.0
N1007 N 0.96676 0.48161 0.9099 0.0
C1008 C 0.93976 0.54969 0.84273 0.0
C1009 C 0.95767 0.50378 0.88823 0.0
N1010 N 0.97289 0.52233 0.80442 0.0
N1011 N 0.91633 0.52536 0.92203 0.0
H1012 H 0.98359 0.46439 0.90466 0.0
H1013 H 0.95803 0.48048 0.93289 0.0
H1014 H 0.89941 0.54269 0.92672 0.0
H1015 H 0.9166 0.50648 0.9379 0.0
H1016 H 0.96524 0.53566 0.7852 0.0
H1017 H 0.98892 0.50448 0.79858 0.0
H1018 H 0.93677 0.57326 0.79819 0.0
H1019 H 0.91413 0.58985 0.82885 0.0
C1020 C 0.70536 0.68615 0.10974 0.0
C1021 C 0.69394 0.68453 0.14094 0.0
C1022 C 0.73098 0.72466 0.15823 0.0
C1023 C 0.73613 0.73209 0.12594 0.0
N1024 N 0.7382 0.71454 0.07178 0.0
N1025 N 0.70646 0.6884 0.19584 0.0
C1026 C 0.7272 0.71049 0.10188 0.0
C1027 C 0.71144 0.69841 0.16558 0.0
N1028 N 0.69251 0.66645 0.0877 0.0
N1029 N 0.74278 0.74395 0.1813 0.0
H1030 H 0.69109 0.66964 0.20065 0.0
H1031 H 0.719 0.69681 0.21528 0.0
H1032 H 0.75778 0.7629 0.17612 0.0
H1033 H 0.73721 0.74167 0.20519 0.0
H1034 H 0.69809 0.66682 0.06373 0.0
H1035 H 0.67611 0.64917 0.09435 0.0
H1036 H 0.73292 0.69948 0.05305 0.0
H1037 H 0.75412 0.73251 0.06598 0.0
C1038 C 0.5145 0.46406 0.3353 0.0
C1039 C 0.50257 0.48224 0.36076 0.0
C1040 C 0.54372 0.46183 0.39519 0.0
C1041 C 0.54764 0.43686 0.37344 0.0
N1042 N 0.54678 0.41884 0.32001 0.0
N1043 N 0.5097 0.50472 0.41263 0.0
C1044 C 0.53729 0.44047 0.34199 0.0
C1045 C 0.51906 0.48386 0.38983 0.0
N1046 N 0.50291 0.46866 0.30551 0.0
N1047 N 0.5621 0.46268 0.42161 0.0
H1048 H 0.49218 0.52155 0.40852 0.0
H1049 H 0.51879 0.50507 0.43549 0.0
H1050 H 0.58009 0.44617 0.42506 0.0
H1051 H 0.56136 0.4808 0.43829 0.0
H1052 H 0.51096 0.45672 0.28556 0.0
H1053 H 0.48631 0.48625 0.30059 0.0
H1054 H 0.53843 0.41786 0.29689 0.0
H1055 H 0.56343 0.40152 0.32572 0.0
C1056 C 0.33007 0.25233 0.22869 0.0
C1057 C 0.36227 0.24839 0.23639 0.0
C1058 C 0.37792 0.28187 0.19213 0.0
C1059 C 0.34639 0.29192 0.19027 0.0
N1060 N 0.29193 0.27848 0.19437 0.0
N1061 N 0.41638 0.24896 0.21955 0.0
C1062 C 0.32224 0.2733 0.20367 0.0
C1063 C 0.38614 0.25921 0.21559 0.0
N1064 N 0.30749 0.23789 0.2467 0.0
N1065 N 0.39977 0.2965 0.17349 0.0
H1066 H 0.42228 0.23219 0.23674 0.0
H1067 H 0.43507 0.25552 0.20501 0.0
H1068 H 0.39292 0.31322 0.15657 0.0
H1069 H 0.42386 0.29212 0.17442 0.0
H1070 H 0.28342 0.24179 0.24415 0.0
H1071 H 0.31321 0.22187 0.26465 0.0
H1072 H 0.27266 0.26557 0.20255 0.0
H1073 H 0.2868 0.2949 0.17657 0.0
C1074 C 0.8646 0.17602 0.75446 0.0
C1075 C 0.85408 0.17641 0.78623 0.0
C1076 C 0.85305 0.23455 0.78357 0.0
C1077 C 0.85664 0.23233 0.75026 0.0
N1078 N 0.8581 0.19987 0.70331 0.0
N1079 N 0.84247 0.20738 0.83312 0.0
C1080 C 0.85949 0.20265 0.73549 0.0
C1081 C 0.84948 0.20611 0.80164 0.0
N1082 N 0.8803 0.15038 0.74269 0.0
N1083 N 0.85398 0.26361 0.79775 0.0
H1084 H 0.84547 0.18816 0.84826 0.0
H1085 H 0.83449 0.22782 0.84436 0.0
H1086 H 0.85504 0.28462 0.78471 0.0
H1087 H 0.85507 0.26685 0.82215 0.0
H1088 H 0.88978 0.14987 0.71991 0.0
H1089 H 0.88717 0.13159 0.75722 0.0
H1090 H 0.85774 0.17791 0.69199 0.0
H1091 H 0.85393 0.21915 0.68843 0.0
C1092 C 0.01281 0.63956 0.03191 0.0
C1093 C -0.00011 0.6125 0.01684 0.0
C1094 C 0.02742 0.5782 0.05377 0.0
C1095 C 0.04755 0.60395 0.06045 0.0
N1096 N 0.05472 0.65965 0.06592 0.0
N1097 N 0.98812 0.55686 0.01757 0.0
C1098 C 0.03764 0.63506 0.05389 0.0
C1099 C 0.00436 0.58198 0.02976 0.0
N1100 N 0.00254 0.66908 0.02361 0.0
N1101 N 0.03273 0.54989 0.06835 0.0
H1102 H 0.97075 0.55989 0.00034 0.0
H1103 H -0.00818 0.53343 0.02428 0.0
H1104 H 0.05038 0.54758 0.08542 0.0
H1105 H 0.01871 0.52988 0.06526 0.0
H1106 H 0.01049 0.68994 0.034 0.0
H1107 H 0.98431 0.67242 0.00739 0.0
H1108 H 0.05096 0.68337 0.06041 0.0
H1109 H 0.07317 0.65551 0.08178 0.0
C1110 C 0.6468 0.78046 0.29906 0.0
C1111 C 0.62426 0.80465 0.30271 0.0
C1112 C 0.58813 0.77659 0.26807 0.0
C1113 C 0.61445 0.75952 0.25648 0.0
N1114 N 0.66674 0.73899 0.26453 0.0
N1115 N 0.57044 0.82048 0.30113 0.0
C1116 C 0.643 0.75874 0.27373 0.0
C1117 C 0.59334 0.79994 0.29161 0.0
N1118 N 0.67248 0.78013 0.31839 0.0
N1119 N 0.55896 0.77129 0.25548 0.0
H1120 H 0.57519 0.83773 0.31823 0.0
H1121 H 0.5475 0.82059 0.29249 0.0
H1122 H 0.55504 0.75393 0.23831 0.0
H1123 H 0.53852 0.78251 0.26311 0.0
H1124 H 0.68961 0.7625 0.31794 0.0
H1125 H 0.67479 0.79649 0.33678 0.0
H1126 H 0.68923 0.73937 0.27433 0.0
H1127 H 0.66386 0.72248 0.24637 0.0
C1128 C 0.4528 0.35865 0.55409 0.0
C1129 C 0.44092 0.38963 0.55678 0.0
C1130 C 0.48081 0.40982 0.52062 0.0
C1131 C 0.48703 0.37809 0.51211 0.0
N1132 N 0.48993 0.32343 0.5279 0.0
N1133 N 0.45129 0.44532 0.55515 0.0
C1134 C 0.47711 0.35281 0.53181 0.0
C1135 C 0.45851 0.41552 0.54501 0.0
N1136 N 0.43827 0.3349 0.57046 0.0
N1137 N 0.49469 0.43388 0.50407 0.0
H1138 H 0.43425 0.44898 0.5726 0.0
H1139 H 0.46316 0.46569 0.54798 0.0
H1140 H 0.51142 0.42954 0.48647 0.0
H1141 H 0.48998 0.45777 0.50776 0.0
H1142 H 0.44357 0.31097 0.56797 0.0
H1143 H 0.42035 0.33991 0.58668 0.0
H1144 H 0.48458 0.30403 0.54214 0.0
H1145 H 0.50784 0.31924 0.51148 0.0
C1146 C 0.13464 0.70994 0.6809 0.0
C1147 C 0.1269 0.68006 0.69438 0.0
C1148 C 0.10139 0.70565 0.73927 0.0
C1149 C 0.11065 0.73547 0.72685 0.0
N1150 N 0.12787 0.7671 0.6826 0.0
N1151 N 0.094 0.64958 0.72934 0.0
C1152 C 0.12432 0.73799 0.69637 0.0
C1153 C 0.10713 0.67808 0.72125 0.0
N1154 N 0.15362 0.71166 0.65482 0.0
N1155 N 0.08796 0.70359 0.76865 0.0
H1156 H 0.09748 0.62919 0.71579 0.0
H1157 H 0.07739 0.64682 0.74728 0.0
H1158 H 0.08139 0.72338 0.78185 0.0
H1159 H 0.08472 0.68227 0.78068 0.0
H1160 H 0.1635 0.73267 0.64651 0.0
H1161 H 0.16065 0.69187 0.64197 0.0
H1162 H 0.13467 0.77029 0.65913 0.0
H1163 H 0.12158 0.78812 0.69393 0.0
C1164 C 0.52531 0.84011 0.97357 0.0
C1165 C 0.50691 0.86459 0.98702 0.0
C1166 C 0.52738 0.90211 0.94836 0.0
C1167 C 0.55176 0.88033 0.94206 0.0
N1168 N 0.57098 0.82716 0.94117 0.0
N1169 N 0.48502 0.91716 0.98402 0.0
C1170 C 0.54906 0.84842 0.95146 0.0
C1171 C 0.50549 0.89491 0.97272 0.0
N1172 N 0.52049 0.80948 0.98285 0.0
N1173 N 0.52699 0.93028 0.93248 0.0
H1174 H 0.46836 0.912 0.00147 0.0
H1175 H 0.4848 0.94071 0.9767 0.0
H1176 H 0.54364 0.93536 0.91496 0.0
H1177 H 0.50932 0.94719 0.93479 0.0
H1178 H 0.53213 0.79013 0.97308 0.0
H1179 H 0.50277 0.80338 -0.00109 0.0
H1180 H 0.5726 0.80391 0.94921 0.0
H1181 H 0.58798 0.83355 0.92442 0.0
C1182 C 0.95435 0.13247 0.43888 0.0
C1183 C 0.94368 0.10097 0.4412 0.0
C1184 C 0.98507 0.08836 0.47909 0.0
C1185 C 0.98948 0.12131 0.48303 0.0
N1186 N 0.98788 0.17377 0.46119 0.0
N1187 N 0.95376 0.04671 0.45465 0.0
C1188 C 0.97771 0.14308 0.4605 0.0
C1189 C 0.96179 0.07794 0.45742 0.0
N1190 N 0.94028 0.15211 0.41753 0.0
N1191 N 0.00188 0.06769 0.49738 0.0
H1192 H 0.93682 0.03916 0.4384 0.0
H1193 H 0.96376 0.02844 0.46772 0.0
H1194 H 0.01908 0.07546 0.51323 0.0
H1195 H 0.00013 0.04315 0.49604 0.0
H1196 H 0.94615 0.17583 0.41436 0.0
H1197 H 0.92308 0.14355 0.40203 0.0
H1198 H 0.98001 0.19138 0.4459 0.0
H1199 H 0.00545 0.18118 0.47683 0.0
loop_
_geom_bond_atom_site_label_1
_geom_bond_atom_site_label_2
_geom_bond_distance
_geom_bond_site_symmetry_2
_ccdc_geom_bond_type
C0 O1 1.306 . S
C0 O3 1.160 . S
O1 C0 1.306 . S
O1 Cd2 2.228 . S
Cd2 O1 2.228 . S
Cd2 O6 2.273 . S
Cd2 O10 2.277 . S
O3 C0 1.160 . S
O3 Cd4 2.203 . S
Cd4 O3 2.203 . S
Cd4 O6 2.411 . S
Cd4 O7 2.333 . S
Cd4 O8 2.352 . S
Cd4 O12 2.277 . S
Cd4 O13 2.356 . S
C5 O10 1.209 . S
C5 O12 1.226 . S
O6 Cd2 2.273 . S
O6 Cd4 2.411 . S
O6 C9 1.320 . S
O7 Cd4 2.333 . S
O7 C9 1.214 . S
O8 Cd4 2.352 . S
O8 C11 1.258 . S
C9 O6 1.320 . S
C9 O7 1.214 . S
O10 Cd2 2.277 . S
O10 C5 1.209 . S
C11 O8 1.258 . S
C11 O13 1.282 . S
O12 Cd4 2.277 . S
O12 C5 1.226 . S
O13 Cd4 2.356 . S
O13 C11 1.282 . S
C14 O15 1.306 1_565 S
C14 O17 1.160 . S
O15 C14 1.306 1_545 S
O15 Cd16 2.228 . S
Cd16 O15 2.228 . S
Cd16 O20 2.273 1_545 S
Cd16 O24 2.277 1_545 S
O17 C14 1.160 . S
O17 Cd18 2.203 . S
Cd18 O17 2.203 . S
Cd18 O20 2.411 . S
Cd18 O21 2.333 . S
Cd18 O22 2.352 . S
Cd18 O26 2.277 . S
Cd18 O27 2.356 . S
C19 O24 1.209 . S
C19 O26 1.226 . S
O20 Cd16 2.273 1_565 S
O20 Cd18 2.411 . S
O20 C23 1.320 . S
O21 Cd18 2.333 . S
O21 C23 1.214 . S
O22 Cd18 2.352 . S
O22 C25 1.258 . S
C23 O20 1.320 . S
C23 O21 1.214 . S
O24 Cd16 2.277 1_565 S
O24 C19 1.209 . S
C25 O22 1.258 . S
C25 O27 1.282 . S
O26 Cd18 2.277 . S
O26 C19 1.226 . S
O27 Cd18 2.356 . S
O27 C25 1.282 . S
C28 O29 1.306 . S
C28 O31 1.160 . S
O29 C28 1.306 . S
O29 Cd30 2.228 . S
Cd30 O29 2.228 . S
Cd30 O34 2.273 . S
Cd30 O38 2.277 . S
O31 C28 1.160 . S
O31 Cd32 2.203 . S
Cd32 O31 2.203 . S
Cd32 O34 2.411 . S
Cd32 O35 2.333 . S
Cd32 O36 2.352 . S
Cd32 O40 2.277 . S
Cd32 O41 2.356 . S
C33 O38 1.209 . S
C33 O40 1.226 . S
O34 Cd30 2.273 . S
O34 Cd32 2.411 . S
O34 C37 1.320 . S
O35 Cd32 2.333 . S
O35 C37 1.214 . S
O36 Cd32 2.352 . S
O36 C39 1.258 . S
C37 O34 1.320 . S
C37 O35 1.214 . S
O38 Cd30 2.277 . S
O38 C33 1.209 . S
C39 O36 1.258 . S
C39 O41 1.282 . S
O40 Cd32 2.277 . S
O40 C33 1.226 . S
O41 Cd32 2.356 . S
O41 C39 1.282 . S
C42 O43 1.306 1_545 S
C42 O45 1.160 . S
O43 C42 1.306 1_565 S
O43 Cd44 2.228 . S
Cd44 O43 2.228 . S
Cd44 O48 2.273 1_565 S
Cd44 O52 2.277 1_565 S
O45 C42 1.160 . S
O45 Cd46 2.203 . S
Cd46 O45 2.203 . S
Cd46 O48 2.411 . S
Cd46 O49 2.333 . S
Cd46 O50 2.352 . S
Cd46 O54 2.277 . S
Cd46 O55 2.356 . S
C47 O52 1.209 . S
C47 O54 1.226 . S
O48 Cd44 2.273 1_545 S
O48 Cd46 2.411 . S
O48 C51 1.320 . S
O49 Cd46 2.333 . S
O49 C51 1.214 . S
O50 Cd46 2.352 . S
O50 C53 1.258 . S
C51 O48 1.320 . S
C51 O49 1.214 . S
O52 Cd44 2.277 1_545 S
O52 C47 1.209 . S
C53 O50 1.258 . S
C53 O55 1.282 . S
O54 Cd46 2.277 . S
O54 C47 1.226 . S
O55 Cd46 2.356 . S
O55 C53 1.282 . S
C56 O57 1.306 . S
C56 O59 1.160 . S
O57 C56 1.306 . S
O57 Cd58 2.228 . S
Cd58 O57 2.228 . S
Cd58 O62 2.273 . S
Cd58 O66 2.277 . S
O59 C56 1.160 . S
O59 Cd60 2.203 . S
Cd60 O59 2.203 . S
Cd60 O62 2.411 . S
Cd60 O63 2.333 . S
Cd60 O64 2.352 . S
Cd60 O68 2.277 . S
Cd60 O69 2.356 . S
C61 O66 1.209 . S
C61 O68 1.226 . S
O62 Cd58 2.273 . S
O62 Cd60 2.411 . S
O62 C65 1.320 . S
O63 Cd60 2.333 . S
O63 C65 1.214 . S
O64 Cd60 2.352 . S
O64 C67 1.258 . S
C65 O62 1.320 . S
C65 O63 1.214 . S
O66 Cd58 2.277 . S
O66 C61 1.209 . S
C67 O64 1.258 . S
C67 O69 1.282 . S
O68 Cd60 2.277 . S
O68 C61 1.226 . S
O69 Cd60 2.356 . S
O69 C67 1.282 . S
C70 O71 1.306 . S
C70 O73 1.160 . S
O71 C70 1.306 . S
O71 Cd72 2.228 . S
Cd72 O71 2.228 . S
Cd72 O76 2.273 . S
Cd72 O80 2.277 . S
O73 C70 1.160 . S
O73 Cd74 2.203 . S
Cd74 O73 2.203 . S
Cd74 O76 2.411 . S
Cd74 O77 2.333 . S
Cd74 O78 2.352 . S
Cd74 O82 2.277 . S
Cd74 O83 2.356 . S
C75 O80 1.209 . S
C75 O82 1.226 . S
O76 Cd72 2.273 . S
O76 Cd74 2.411 . S
O76 C79 1.320 . S
O77 Cd74 2.333 . S
O77 C79 1.214 . S
O78 Cd74 2.352 . S
O78 C81 1.258 . S
C79 O76 1.320 . S
C79 O77 1.214 . S
O80 Cd72 2.277 . S
O80 C75 1.209 . S
C81 O78 1.258 . S
C81 O83 1.282 . S
O82 Cd74 2.277 . S
O82 C75 1.226 . S
O83 Cd74 2.356 . S
O83 C81 1.282 . S
C84 O85 1.306 . S
C84 O87 1.160 . S
O85 C84 1.306 . S
O85 Cd86 2.228 . S
Cd86 O85 2.228 . S
Cd86 O90 2.273 . S
Cd86 O94 2.277 . S
O87 C84 1.160 . S
O87 Cd88 2.203 . S
Cd88 O87 2.203 . S
Cd88 O90 2.411 . S
Cd88 O91 2.333 . S
Cd88 O92 2.352 . S
Cd88 O96 2.277 . S
Cd88 O97 2.356 . S
C89 O94 1.209 . S
C89 O96 1.226 . S
O90 Cd86 2.273 . S
O90 Cd88 2.411 . S
O90 C93 1.320 . S
O91 Cd88 2.333 . S
O91 C93 1.214 . S
O92 Cd88 2.352 . S
O92 C95 1.258 . S
C93 O90 1.320 . S
C93 O91 1.214 . S
O94 Cd86 2.277 . S
O94 C89 1.209 . S
C95 O92 1.258 . S
C95 O97 1.282 . S
O96 Cd88 2.277 . S
O96 C89 1.226 . S
O97 Cd88 2.356 . S
O97 C95 1.282 . S
C98 O99 1.306 . S
C98 O101 1.160 . S
O99 C98 1.306 . S
O99 Cd100 2.228 . S
Cd100 O99 2.228 . S
Cd100 O104 2.273 . S
Cd100 O108 2.277 . S
O101 C98 1.160 . S
O101 Cd102 2.203 . S
Cd102 O101 2.203 . S
Cd102 O104 2.411 . S
Cd102 O105 2.333 . S
Cd102 O106 2.352 . S
Cd102 O110 2.277 . S
Cd102 O111 2.356 . S
C103 O108 1.209 . S
C103 O110 1.226 . S
O104 Cd100 2.273 . S
O104 Cd102 2.411 . S
O104 C107 1.320 . S
O105 Cd102 2.333 . S
O105 C107 1.214 . S
O106 Cd102 2.352 . S
O106 C109 1.258 . S
C107 O104 1.320 . S
C107 O105 1.214 . S
O108 Cd100 2.277 . S
O108 C103 1.209 . S
C109 O106 1.258 . S
C109 O111 1.282 . S
O110 Cd102 2.277 . S
O110 C103 1.226 . S
O111 Cd102 2.356 . S
O111 C109 1.282 . S
C112 O113 1.306 . S
C112 O115 1.160 . S
O113 C112 1.306 . S
O113 Cd114 2.228 . S
Cd114 O113 2.228 . S
Cd114 O118 2.273 . S
Cd114 O122 2.277 . S
O115 C112 1.160 . S
O115 Cd116 2.203 . S
Cd116 O115 2.203 . S
Cd116 O118 2.411 . S
Cd116 O119 2.333 . S
Cd116 O120 2.352 . S
Cd116 O124 2.277 . S
Cd116 O125 2.356 . S
C117 O122 1.209 . S
C117 O124 1.226 . S
O118 Cd114 2.273 . S
O118 Cd116 2.411 . S
O118 C121 1.320 . S
O119 Cd116 2.333 . S
O119 C121 1.214 . S
O120 Cd116 2.352 . S
O120 C123 1.258 . S
C121 O118 1.320 . S
C121 O119 1.214 . S
O122 Cd114 2.277 . S
O122 C117 1.209 . S
C123 O120 1.258 . S
C123 O125 1.282 . S
O124 Cd116 2.277 . S
O124 C117 1.226 . S
O125 Cd116 2.356 . S
O125 C123 1.282 . S
C126 O127 1.306 1_455 S
C126 O129 1.160 . S
O127 C126 1.306 1_655 S
O127 Cd128 2.228 . S
Cd128 O127 2.228 . S
Cd128 O132 2.273 1_655 S
Cd128 O136 2.277 1_655 S
O129 C126 1.160 . S
O129 Cd130 2.203 . S
Cd130 O129 2.203 . S
Cd130 O132 2.411 . S
Cd130 O133 2.333 . S
Cd130 O134 2.352 . S
Cd130 O138 2.277 . S
Cd130 O139 2.356 . S
C131 O136 1.209 . S
C131 O138 1.226 . S
O132 Cd128 2.273 1_455 S
O132 Cd130 2.411 . S
O132 C135 1.320 . S
O133 Cd130 2.333 . S
O133 C135 1.214 . S
O134 Cd130 2.352 . S
O134 C137 1.258 . S
C135 O132 1.320 . S
C135 O133 1.214 . S
O136 Cd128 2.277 1_455 S
O136 C131 1.209 . S
C137 O134 1.258 . S
C137 O139 1.282 . S
O138 Cd130 2.277 . S
O138 C131 1.226 . S
O139 Cd130 2.356 . S
O139 C137 1.282 . S
C140 O141 1.306 . S
C140 O143 1.160 . S
O141 C140 1.306 . S
O141 Cd142 2.228 . S
Cd142 O141 2.228 . S
Cd142 O146 2.273 . S
Cd142 O150 2.277 . S
O143 C140 1.160 . S
O143 Cd144 2.203 . S
Cd144 O143 2.203 . S
Cd144 O146 2.411 . S
Cd144 O147 2.333 . S
Cd144 O148 2.352 . S
Cd144 O152 2.277 . S
Cd144 O153 2.356 . S
C145 O150 1.209 . S
C145 O152 1.226 . S
O146 Cd142 2.273 . S
O146 Cd144 2.411 . S
O146 C149 1.320 . S
O147 Cd144 2.333 . S
O147 C149 1.214 . S
O148 Cd144 2.352 . S
O148 C151 1.258 . S
C149 O146 1.320 . S
C149 O147 1.214 . S
O150 Cd142 2.277 . S
O150 C145 1.209 . S
C151 O148 1.258 . S
C151 O153 1.282 . S
O152 Cd144 2.277 . S
O152 C145 1.226 . S
O153 Cd144 2.356 . S
O153 C151 1.282 . S
C154 O155 1.306 . S
C154 O157 1.160 . S
O155 C154 1.306 . S
O155 Cd156 2.228 . S
Cd156 O155 2.228 . S
Cd156 O160 2.273 . S
Cd156 O164 2.277 . S
O157 C154 1.160 . S
O157 Cd158 2.203 . S
Cd158 O157 2.203 . S
Cd158 O160 2.411 . S
Cd158 O161 2.333 . S
Cd158 O162 2.352 . S
Cd158 O166 2.277 . S
Cd158 O167 2.356 . S
C159 O164 1.209 . S
C159 O166 1.226 . S
O160 Cd156 2.273 . S
O160 Cd158 2.411 . S
O160 C163 1.320 . S
O161 Cd158 2.333 . S
O161 C163 1.214 . S
O162 Cd158 2.352 . S
O162 C165 1.258 . S
C163 O160 1.320 . S
C163 O161 1.214 . S
O164 Cd156 2.277 . S
O164 C159 1.209 . S
C165 O162 1.258 . S
C165 O167 1.282 . S
O166 Cd158 2.277 . S
O166 C159 1.226 . S
O167 Cd158 2.356 . S
O167 C165 1.282 . S
C168 O169 1.306 . S
C168 O171 1.160 . S
O169 C168 1.306 . S
O169 Cd170 2.228 . S
Cd170 O169 2.228 . S
Cd170 O174 2.273 . S
Cd170 O178 2.277 . S
O171 C168 1.160 . S
O171 Cd172 2.203 . S
Cd172 O171 2.203 . S
Cd172 O174 2.411 . S
Cd172 O175 2.333 . S
Cd172 O176 2.352 . S
Cd172 O180 2.277 . S
Cd172 O181 2.356 . S
C173 O178 1.209 . S
C173 O180 1.226 . S
O174 Cd170 2.273 . S
O174 Cd172 2.411 . S
O174 C177 1.320 . S
O175 Cd172 2.333 . S
O175 C177 1.214 . S
O176 Cd172 2.352 . S
O176 C179 1.258 . S
C177 O174 1.320 . S
C177 O175 1.214 . S
O178 Cd170 2.277 . S
O178 C173 1.209 . S
C179 O176 1.258 . S
C179 O181 1.282 . S
O180 Cd172 2.277 . S
O180 C173 1.226 . S
O181 Cd172 2.356 . S
O181 C179 1.282 . S
C182 O183 1.306 1_655 S
C182 O185 1.160 . S
O183 C182 1.306 1_455 S
O183 Cd184 2.228 . S
Cd184 O183 2.228 . S
Cd184 O188 2.273 1_455 S
Cd184 O192 2.277 1_455 S
O185 C182 1.160 . S
O185 Cd186 2.203 . S
Cd186 O185 2.203 . S
Cd186 O188 2.411 . S
Cd186 O189 2.333 . S
Cd186 O190 2.352 . S
Cd186 O194 2.277 . S
Cd186 O195 2.356 . S
C187 O192 1.209 . S
C187 O194 1.226 . S
O188 Cd184 2.273 1_655 S
O188 Cd186 2.411 . S
O188 C191 1.320 . S
O189 Cd186 2.333 . S
O189 C191 1.214 . S
O190 Cd186 2.352 . S
O190 C193 1.258 . S
C191 O188 1.320 . S
C191 O189 1.214 . S
O192 Cd184 2.277 1_655 S
O192 C187 1.209 . S
C193 O190 1.258 . S
C193 O195 1.282 . S
O194 Cd186 2.277 . S
O194 C187 1.226 . S
O195 Cd186 2.356 . S
O195 C193 1.282 . S
C196 O197 1.306 . S
C196 O199 1.160 . S
O197 C196 1.306 . S
O197 Cd198 2.228 . S
Cd198 O197 2.228 . S
Cd198 O202 2.273 . S
Cd198 O206 2.277 . S
O199 C196 1.160 . S
O199 Cd200 2.203 . S
Cd200 O199 2.203 . S
Cd200 O202 2.411 . S
Cd200 O203 2.333 . S
Cd200 O204 2.352 . S
Cd200 O208 2.277 . S
Cd200 O209 2.356 . S
C201 O206 1.209 . S
C201 O208 1.226 . S
O202 Cd198 2.273 . S
O202 Cd200 2.411 . S
O202 C205 1.320 . S
O203 Cd200 2.333 . S
O203 C205 1.214 . S
O204 Cd200 2.352 . S
O204 C207 1.258 . S
C205 O202 1.320 . S
C205 O203 1.214 . S
O206 Cd198 2.277 . S
O206 C201 1.209 . S
C207 O204 1.258 . S
C207 O209 1.282 . S
O208 Cd200 2.277 . S
O208 C201 1.226 . S
O209 Cd200 2.356 . S
O209 C207 1.282 . S
C210 O211 1.306 . S
C210 O213 1.160 . S
O211 C210 1.306 . S
O211 Cd212 2.228 . S
Cd212 O211 2.228 . S
Cd212 O216 2.273 . S
Cd212 O220 2.277 . S
O213 C210 1.160 . S
O213 Cd214 2.203 . S
Cd214 O213 2.203 . S
Cd214 O216 2.411 . S
Cd214 O217 2.333 . S
Cd214 O218 2.352 . S
Cd214 O222 2.277 . S
Cd214 O223 2.356 . S
C215 O220 1.209 . S
C215 O222 1.226 . S
O216 Cd212 2.273 . S
O216 Cd214 2.411 . S
O216 C219 1.320 . S
O217 Cd214 2.333 . S
O217 C219 1.214 . S
O218 Cd214 2.352 . S
O218 C221 1.258 . S
C219 O216 1.320 . S
C219 O217 1.214 . S
O220 Cd212 2.277 . S
O220 C215 1.209 . S
C221 O218 1.258 . S
C221 O223 1.282 . S
O222 Cd214 2.277 . S
O222 C215 1.226 . S
O223 Cd214 2.356 . S
O223 C221 1.282 . S
C224 O225 1.306 . S
C224 O227 1.160 . S
O225 C224 1.306 . S
O225 Cd226 2.228 . S
Cd226 O225 2.228 . S
Cd226 O230 2.273 . S
Cd226 O234 2.277 . S
O227 C224 1.160 . S
O227 Cd228 2.203 . S
Cd228 O227 2.203 . S
Cd228 O230 2.411 . S
Cd228 O231 2.333 . S
Cd228 O232 2.352 . S
Cd228 O236 2.277 . S
Cd228 O237 2.356 . S
C229 O234 1.209 . S
C229 O236 1.226 . S
O230 Cd226 2.273 . S
O230 Cd228 2.411 . S
O230 C233 1.320 . S
O231 Cd228 2.333 . S
O231 C233 1.214 . S
O232 Cd228 2.352 . S
O232 C235 1.258 . S
C233 O230 1.320 . S
C233 O231 1.214 . S
O234 Cd226 2.277 . S
O234 C229 1.209 . S
C235 O232 1.258 . S
C235 O237 1.282 . S
O236 Cd228 2.277 . S
O236 C229 1.226 . S
O237 Cd228 2.356 . S
O237 C235 1.282 . S
C238 O239 1.306 . S
C238 O241 1.160 . S
O239 C238 1.306 . S
O239 Cd240 2.228 . S
Cd240 O239 2.228 . S
Cd240 O244 2.273 . S
Cd240 O248 2.277 . S
O241 C238 1.160 . S
O241 Cd242 2.203 . S
Cd242 O241 2.203 . S
Cd242 O244 2.411 . S
Cd242 O245 2.333 . S
Cd242 O246 2.352 . S
Cd242 O250 2.277 . S
Cd242 O251 2.356 . S
C243 O248 1.209 . S
C243 O250 1.226 . S
O244 Cd240 2.273 . S
O244 Cd242 2.411 . S
O244 C247 1.320 . S
O245 Cd242 2.333 . S
O245 C247 1.214 . S
O246 Cd242 2.352 . S
O246 C249 1.258 . S
C247 O244 1.320 . S
C247 O245 1.214 . S
O248 Cd240 2.277 . S
O248 C243 1.209 . S
C249 O246 1.258 . S
C249 O251 1.282 . S
O250 Cd242 2.277 . S
O250 C243 1.226 . S
O251 Cd242 2.356 . S
O251 C249 1.282 . S
C252 O253 1.306 1_554 S
C252 O255 1.160 . S
O253 C252 1.306 1_556 S
O253 Cd254 2.228 . S
Cd254 O253 2.228 . S
Cd254 O258 2.273 1_556 S
Cd254 O262 2.277 1_556 S
O255 C252 1.160 . S
O255 Cd256 2.203 . S
Cd256 O255 2.203 . S
Cd256 O258 2.411 . S
Cd256 O259 2.333 . S
Cd256 O260 2.352 . S
Cd256 O264 2.277 . S
Cd256 O265 2.356 . S
C257 O262 1.209 . S
C257 O264 1.226 . S
O258 Cd254 2.273 1_554 S
O258 Cd256 2.411 . S
O258 C261 1.320 . S
O259 Cd256 2.333 . S
O259 C261 1.214 . S
O260 Cd256 2.352 . S
O260 C263 1.258 . S
C261 O258 1.320 . S
C261 O259 1.214 . S
O262 Cd254 2.277 1_554 S
O262 C257 1.209 . S
C263 O260 1.258 . S
C263 O265 1.282 . S
O264 Cd256 2.277 . S
O264 C257 1.226 . S
O265 Cd256 2.356 . S
O265 C263 1.282 . S
C266 O267 1.306 . S
C266 O269 1.160 . S
O267 C266 1.306 . S
O267 Cd268 2.228 . S
Cd268 O267 2.228 . S
Cd268 O272 2.273 . S
Cd268 O276 2.277 . S
O269 C266 1.160 . S
O269 Cd270 2.203 . S
Cd270 O269 2.203 . S
Cd270 O272 2.411 . S
Cd270 O273 2.333 . S
Cd270 O274 2.352 . S
Cd270 O278 2.277 . S
Cd270 O279 2.356 . S
C271 O276 1.209 . S
C271 O278 1.226 . S
O272 Cd268 2.273 . S
O272 Cd270 2.411 . S
O272 C275 1.320 . S
O273 Cd270 2.333 . S
O273 C275 1.214 . S
O274 Cd270 2.352 . S
O274 C277 1.258 . S
C275 O272 1.320 . S
C275 O273 1.214 . S
O276 Cd268 2.277 . S
O276 C271 1.209 . S
C277 O274 1.258 . S
C277 O279 1.282 . S
O278 Cd270 2.277 . S
O278 C271 1.226 . S
O279 Cd270 2.356 . S
O279 C277 1.282 . S
C280 O281 1.306 . S
C280 O283 1.160 . S
O281 C280 1.306 . S
O281 Cd282 2.228 . S
Cd282 O281 2.228 . S
Cd282 O286 2.273 . S
Cd282 O290 2.277 . S
O283 C280 1.160 . S
O283 Cd284 2.203 . S
Cd284 O283 2.203 . S
Cd284 O286 2.411 . S
Cd284 O287 2.333 . S
Cd284 O288 2.352 . S
Cd284 O292 2.277 . S
Cd284 O293 2.356 . S
C285 O290 1.209 . S
C285 O292 1.226 . S
O286 Cd282 2.273 . S
O286 Cd284 2.411 . S
O286 C289 1.320 . S
O287 Cd284 2.333 . S
O287 C289 1.214 . S
O288 Cd284 2.352 . S
O288 C291 1.258 . S
C289 O286 1.320 . S
C289 O287 1.214 . S
O290 Cd282 2.277 . S
O290 C285 1.209 . S
C291 O288 1.258 . S
C291 O293 1.282 . S
O292 Cd284 2.277 . S
O292 C285 1.226 . S
O293 Cd284 2.356 . S
O293 C291 1.282 . S
C294 O295 1.306 . S
C294 O297 1.160 . S
O295 C294 1.306 . S
O295 Cd296 2.228 . S
Cd296 O295 2.228 . S
Cd296 O300 2.273 . S
Cd296 O304 2.277 . S
O297 C294 1.160 . S
O297 Cd298 2.203 . S
Cd298 O297 2.203 . S
Cd298 O300 2.411 . S
Cd298 O301 2.333 . S
Cd298 O302 2.352 . S
Cd298 O306 2.277 . S
Cd298 O307 2.356 . S
C299 O304 1.209 . S
C299 O306 1.226 . S
O300 Cd296 2.273 . S
O300 Cd298 2.411 . S
O300 C303 1.320 . S
O301 Cd298 2.333 . S
O301 C303 1.214 . S
O302 Cd298 2.352 . S
O302 C305 1.258 . S
C303 O300 1.320 . S
C303 O301 1.214 . S
O304 Cd296 2.277 . S
O304 C299 1.209 . S
C305 O302 1.258 . S
C305 O307 1.282 . S
O306 Cd298 2.277 . S
O306 C299 1.226 . S
O307 Cd298 2.356 . S
O307 C305 1.282 . S
C308 O309 1.306 1_556 S
C308 O311 1.160 . S
O309 C308 1.306 1_554 S
O309 Cd310 2.228 . S
Cd310 O309 2.228 . S
Cd310 O314 2.273 1_554 S
Cd310 O318 2.277 1_554 S
O311 C308 1.160 . S
O311 Cd312 2.203 . S
Cd312 O311 2.203 . S
Cd312 O314 2.411 . S
Cd312 O315 2.333 . S
Cd312 O316 2.352 . S
Cd312 O320 2.277 . S
Cd312 O321 2.356 . S
C313 O318 1.209 . S
C313 O320 1.226 . S
O314 Cd310 2.273 1_556 S
O314 Cd312 2.411 . S
O314 C317 1.320 . S
O315 Cd312 2.333 . S
O315 C317 1.214 . S
O316 Cd312 2.352 . S
O316 C319 1.258 . S
C317 O314 1.320 . S
C317 O315 1.214 . S
O318 Cd310 2.277 1_556 S
O318 C313 1.209 . S
C319 O316 1.258 . S
C319 O321 1.282 . S
O320 Cd312 2.277 . S
O320 C313 1.226 . S
O321 Cd312 2.356 . S
O321 C319 1.282 . S
C322 O323 1.306 . S
C322 O325 1.160 . S
O323 C322 1.306 . S
O323 Cd324 2.228 . S
Cd324 O323 2.228 . S
Cd324 O328 2.273 . S
Cd324 O332 2.277 . S
O325 C322 1.160 . S
O325 Cd326 2.203 . S
Cd326 O325 2.203 . S
Cd326 O328 2.411 . S
Cd326 O329 2.333 . S
Cd326 O330 2.352 . S
Cd326 O334 2.277 . S
Cd326 O335 2.356 . S
C327 O332 1.209 . S
C327 O334 1.226 . S
O328 Cd324 2.273 . S
O328 Cd326 2.411 . S
O328 C331 1.320 . S
O329 Cd326 2.333 . S
O329 C331 1.214 . S
O330 Cd326 2.352 . S
O330 C333 1.258 . S
C331 O328 1.320 . S
C331 O329 1.214 . S
O332 Cd324 2.277 . S
O332 C327 1.209 . S
C333 O330 1.258 . S
C333 O335 1.282 . S
O334 Cd326 2.277 . S
O334 C327 1.226 . S
O335 Cd326 2.356 . S
O335 C333 1.282 . S
C336 C337 1.363 . S
C336 C342 1.379 . S
C336 N344 1.356 . S
C337 C336 1.363 . S
C337 C343 1.363 . S
C338 C339 1.363 . S
C338 C343 1.379 . S
C338 N345 1.356 . S
C339 C338 1.363 . S
C339 C342 1.363 . S
N340 C342 1.356 . S
N340 H352 0.984 . S
N340 H353 0.985 . S
N341 C343 1.356 . S
N341 H346 0.984 . S
N341 H347 0.985 . S
C342 C336 1.379 . S
C342 C339 1.363 . S
C342 N340 1.356 . S
C343 C337 1.363 . S
C343 C338 1.379 . S
C343 N341 1.356 . S
N344 C336 1.356 . S
N344 H350 0.984 . S
N344 H351 0.984 . S
N345 C338 1.356 . S
N345 H348 0.984 . S
N345 H349 0.985 . S
H346 N341 0.984 . S
H347 N341 0.985 . S
H348 N345 0.984 . S
H349 N345 0.985 . S
H350 N344 0.984 . S
H351 N344 0.984 . S
H352 N340 0.984 . S
H353 N340 0.985 . S
C354 C355 1.363 1_655 S
C354 C360 1.378 1_655 S
C354 N362 1.357 . S
C355 C354 1.363 1_455 S
C355 C361 1.363 . S
C356 C357 1.363 . S
C356 C361 1.379 . S
C356 N363 1.356 . S
C357 C356 1.363 . S
C357 C360 1.363 . S
N358 C360 1.356 . S
N358 H370 0.984 . S
N358 H371 0.985 . S
N359 C361 1.356 . S
N359 H364 0.984 . S
N359 H365 0.985 . S
C360 C354 1.378 1_455 S
C360 C357 1.363 . S
C360 N358 1.356 . S
C361 C355 1.363 . S
C361 C356 1.379 . S
C361 N359 1.356 . S
N362 C354 1.357 . S
N362 H368 0.984 . S
N362 H369 0.984 . S
N363 C356 1.356 . S
N363 H366 0.984 . S
N363 H367 0.985 . S
H364 N359 0.984 . S
H365 N359 0.985 . S
H366 N363 0.984 . S
H367 N363 0.985 . S
H368 N362 0.984 . S
H369 N362 0.984 . S
H370 N358 0.984 . S
H371 N358 0.985 . S
C372 C373 1.363 . S
C372 C378 1.379 1_556 S
C372 N380 1.356 . S
C373 C372 1.363 . S
C373 C379 1.363 . S
C374 C375 1.363 . S
C374 C379 1.379 . S
C374 N381 1.356 . S
C375 C374 1.363 . S
C375 C378 1.363 1_556 S
N376 C378 1.356 . S
N376 H388 0.984 . S
N376 H389 0.985 . S
N377 C379 1.356 . S
N377 H382 0.984 . S
N377 H383 0.985 . S
C378 C372 1.379 1_554 S
C378 C375 1.363 1_554 S
C378 N376 1.356 . S
C379 C373 1.363 . S
C379 C374 1.379 . S
C379 N377 1.356 . S
N380 C372 1.356 . S
N380 H386 0.999 . S
N380 H387 0.984 . S
N381 C374 1.356 . S
N381 H384 0.984 . S
N381 H385 0.985 . S
H382 N377 0.984 . S
H383 N377 0.985 . S
H384 N381 0.984 . S
H385 N381 0.985 . S
H386 N380 0.999 . S
H387 N380 0.984 . S
H388 N376 0.984 . S
H389 N376 0.985 . S
C390 C391 1.363 . S
C390 C396 1.379 . S
C390 N398 1.356 . S
C391 C390 1.363 . S
C391 C397 1.363 . S
C392 C393 1.363 . S
C392 C397 1.379 . S
C392 N399 1.356 . S
C393 C392 1.363 . S
C393 C396 1.363 . S
N394 C396 1.356 . S
N394 H406 0.984 . S
N394 H407 0.985 . S
N395 C397 1.356 . S
N395 H400 0.984 . S
N395 H401 0.985 . S
C396 C390 1.379 . S
C396 C393 1.363 . S
C396 N394 1.356 . S
C397 C391 1.363 . S
C397 C392 1.379 . S
C397 N395 1.356 . S
N398 C390 1.356 . S
N398 H404 0.984 . S
N398 H405 0.984 . S
N399 C392 1.356 . S
N399 H402 0.984 . S
N399 H403 0.985 . S
H400 N395 0.984 . S
H401 N395 0.985 . S
H402 N399 0.984 . S
H403 N399 0.985 . S
H404 N398 0.984 . S
H405 N398 0.984 . S
H406 N394 0.984 . S
H407 N394 0.985 . S
C408 C409 1.363 . S
C408 C414 1.379 . S
C408 N416 1.356 . S
C409 C408 1.363 . S
C409 C415 1.363 . S
C410 C411 1.363 . S
C410 C415 1.379 . S
C410 N417 1.356 . S
C411 C410 1.363 . S
C411 C414 1.363 . S
N412 C414 1.356 . S
N412 H424 0.984 . S
N412 H425 0.985 . S
N413 C415 1.356 . S
N413 H418 0.984 . S
N413 H419 0.985 . S
C414 C408 1.379 . S
C414 C411 1.363 . S
C414 N412 1.356 . S
C415 C409 1.363 . S
C415 C410 1.379 . S
C415 N413 1.356 . S
N416 C408 1.356 . S
N416 H422 0.984 . S
N416 H423 0.984 . S
N417 C410 1.356 . S
N417 H420 0.984 . S
N417 H421 0.985 . S
H418 N413 0.984 . S
H419 N413 0.985 . S
H420 N417 0.984 . S
H421 N417 0.985 . S
H422 N416 0.984 . S
H423 N416 0.984 . S
H424 N412 0.984 . S
H425 N412 0.985 . S
C426 C427 1.363 . S
C426 C432 1.379 . S
C426 N434 1.356 . S
C427 C426 1.363 . S
C427 C433 1.363 . S
C428 C429 1.363 . S
C428 C433 1.379 . S
C428 N435 1.356 1_655 S
C429 C428 1.363 . S
C429 C432 1.363 . S
N430 C432 1.356 . S
N430 H442 0.984 . S
N430 H443 0.985 . S
N431 C433 1.356 . S
N431 H436 0.984 . S
N431 H437 0.985 . S
C432 C426 1.379 . S
C432 C429 1.363 . S
C432 N430 1.356 . S
C433 C427 1.363 . S
C433 C428 1.379 . S
C433 N431 1.356 . S
N434 C426 1.356 . S
N434 H440 0.984 . S
N434 H441 0.984 . S
N435 C428 1.356 1_455 S
N435 H438 0.984 . S
N435 H439 0.985 . S
H436 N431 0.984 . S
H437 N431 0.985 . S
H438 N435 0.984 . S
H439 N435 0.985 . S
H440 N434 0.984 . S
H441 N434 0.984 . S
H442 N430 0.984 . S
H443 N430 0.985 . S
C444 C445 1.363 . S
C444 C450 1.379 1_554 S
C444 N452 1.356 . S
C445 C444 1.363 . S
C445 C451 1.363 . S
C446 C447 1.363 . S
C446 C451 1.379 . S
C446 N453 1.356 . S
C447 C446 1.363 . S
C447 C450 1.363 1_554 S
N448 C450 1.356 . S
N448 H460 0.984 . S
N448 H461 0.985 . S
N449 C451 1.356 . S
N449 H454 0.984 . S
N449 H455 0.985 . S
C450 C444 1.379 1_556 S
C450 C447 1.363 1_556 S
C450 N448 1.356 . S
C451 C445 1.363 . S
C451 C446 1.379 . S
C451 N449 1.356 . S
N452 C444 1.356 . S
N452 H458 0.984 . S
N452 H459 0.984 . S
N453 C446 1.356 . S
N453 H456 0.984 . S
N453 H457 0.985 . S
H454 N449 0.984 . S
H455 N449 0.985 . S
H456 N453 0.984 . S
H457 N453 0.985 . S
H458 N452 0.984 . S
H459 N452 0.984 . S
H460 N448 0.984 . S
H461 N448 0.985 . S
C462 C463 1.363 . S
C462 C468 1.379 . S
C462 N470 1.356 . S
C463 C462 1.363 . S
C463 C469 1.363 . S
C464 C465 1.363 . S
C464 C469 1.379 . S
C464 N471 1.356 . S
C465 C464 1.363 . S
C465 C468 1.363 . S
N466 C468 1.356 . S
N466 H478 0.984 . S
N466 H479 0.985 . S
N467 C469 1.356 . S
N467 H472 0.984 . S
N467 H473 0.985 . S
C468 C462 1.379 . S
C468 C465 1.363 . S
C468 N466 1.356 . S
C469 C463 1.363 . S
C469 C464 1.379 . S
C469 N467 1.356 . S
N470 C462 1.356 . S
N470 H476 0.984 . S
N470 H477 0.984 . S
N471 C464 1.356 . S
N471 H474 0.984 . S
N471 H475 0.985 . S
H472 N467 0.984 . S
H473 N467 0.985 . S
H474 N471 0.984 . S
H475 N471 0.985 . S
H476 N470 0.984 . S
H477 N470 0.984 . S
H478 N466 0.984 . S
H479 N466 0.985 . S
C480 C481 1.363 . S
C480 C486 1.379 . S
C480 N488 1.356 . S
C481 C480 1.363 . S
C481 C487 1.363 . S
C482 C483 1.363 . S
C482 C487 1.379 . S
C482 N489 1.356 . S
C483 C482 1.363 . S
C483 C486 1.363 . S
N484 C486 1.356 . S
N484 H496 0.984 . S
N484 H497 0.985 . S
N485 C487 1.356 . S
N485 H490 0.984 . S
N485 H491 0.985 . S
C486 C480 1.379 . S
C486 C483 1.363 . S
C486 N484 1.356 . S
C487 C481 1.363 . S
C487 C482 1.379 . S
C487 N485 1.356 . S
N488 C480 1.356 . S
N488 H494 0.984 . S
N488 H495 0.984 . S
N489 C482 1.356 . S
N489 H492 0.984 . S
N489 H493 0.985 . S
H490 N485 0.984 . S
H491 N485 0.985 . S
H492 N489 0.984 . S
H493 N489 0.985 . S
H494 N488 0.984 . S
H495 N488 0.984 . S
H496 N484 0.984 . S
H497 N484 0.985 . S
C498 C499 1.363 . S
C498 C504 1.379 . S
C498 N506 1.356 . S
C499 C498 1.363 . S
C499 C505 1.363 . S
C500 C501 1.363 . S
C500 C505 1.379 . S
C500 N507 1.356 . S
C501 C500 1.363 . S
C501 C504 1.363 . S
N502 C504 1.356 . S
N502 H514 0.984 . S
N502 H515 0.985 . S
N503 C505 1.356 1_565 S
N503 H508 0.984 . S
N503 H509 0.985 . S
C504 C498 1.379 . S
C504 C501 1.363 . S
C504 N502 1.356 . S
C505 C499 1.363 . S
C505 C500 1.379 . S
C505 N503 1.356 1_545 S
N506 C498 1.356 . S
N506 H512 0.984 . S
N506 H513 0.984 1_545 S
N507 C500 1.356 . S
N507 H510 0.984 . S
N507 H511 0.985 . S
H508 N503 0.984 . S
H509 N503 0.985 . S
H510 N507 0.984 . S
H511 N507 0.985 . S
H512 N506 0.984 . S
H513 N506 0.984 1_565 S
H514 N502 0.984 . S
H515 N502 0.985 . S
C516 C517 1.363 . S
C516 C522 1.379 . S
C516 N524 1.356 . S
C517 C516 1.363 . S
C517 C523 1.363 . S
C518 C519 1.363 . S
C518 C523 1.379 . S
C518 N525 1.356 . S
C519 C518 1.363 . S
C519 C522 1.363 . S
N520 C522 1.356 1_545 S
N520 H532 0.984 . S
N520 H533 0.985 . S
N521 C523 1.356 . S
N521 H526 0.984 . S
N521 H527 0.985 . S
C522 C516 1.379 . S
C522 C519 1.363 . S
C522 N520 1.356 1_565 S
C523 C517 1.363 . S
C523 C518 1.379 . S
C523 N521 1.356 . S
N524 C516 1.356 . S
N524 H530 0.984 . S
N524 H531 0.984 . S
N525 C518 1.356 . S
N525 H528 0.984 1_565 S
N525 H529 0.985 . S
H526 N521 0.984 . S
H527 N521 0.985 . S
H528 N525 0.984 1_545 S
H529 N525 0.985 . S
H530 N524 0.984 . S
H531 N524 0.984 . S
H532 N520 0.984 . S
H533 N520 0.985 . S
C534 C535 1.363 . S
C534 C540 1.379 . S
C534 N542 1.356 . S
C535 C534 1.363 . S
C535 C541 1.363 . S
C536 C537 1.363 . S
C536 C541 1.379 . S
C536 N543 1.356 . S
C537 C536 1.363 . S
C537 C540 1.363 . S
N538 C540 1.356 . S
N538 H550 0.984 . S
N538 H551 0.985 . S
N539 C541 1.356 . S
N539 H544 0.984 . S
N539 H545 0.985 . S
C540 C534 1.379 . S
C540 C537 1.363 . S
C540 N538 1.356 . S
C541 C535 1.363 . S
C541 C536 1.379 . S
C541 N539 1.356 . S
N542 C534 1.356 . S
N542 H548 0.984 . S
N542 H549 0.984 . S
N543 C536 1.356 . S
N543 H546 0.984 . S
N543 H547 0.985 . S
H544 N539 0.984 . S
H545 N539 0.985 . S
H546 N543 0.984 . S
H547 N543 0.985 . S
H548 N542 0.984 . S
H549 N542 0.984 . S
H550 N538 0.984 . S
H551 N538 0.985 . S
C552 C553 1.363 . S
C552 C558 1.379 . S
C552 N560 1.356 . S
C553 C552 1.363 . S
C553 C559 1.363 . S
C554 C555 1.363 . S
C554 C559 1.379 . S
C554 N561 1.356 . S
C555 C554 1.363 . S
C555 C558 1.363 . S
N556 C558 1.356 . S
N556 H568 0.984 . S
N556 H569 0.985 . S
N557 C559 1.356 . S
N557 H562 0.984 . S
N557 H563 0.985 . S
C558 C552 1.379 . S
C558 C555 1.363 . S
C558 N556 1.356 . S
C559 C553 1.363 . S
C559 C554 1.379 . S
C559 N557 1.356 . S
N560 C552 1.356 . S
N560 H566 0.984 . S
N560 H567 0.984 . S
N561 C554 1.356 . S
N561 H564 0.984 . S
N561 H565 0.985 . S
H562 N557 0.984 . S
H563 N557 0.985 . S
H564 N561 0.984 . S
H565 N561 0.985 . S
H566 N560 0.984 . S
H567 N560 0.984 . S
H568 N556 0.984 . S
H569 N556 0.985 . S
C570 C571 1.363 . S
C570 C576 1.379 1_565 S
C570 N578 1.356 . S
C571 C570 1.363 . S
C571 C577 1.363 1_565 S
C572 C573 1.363 . S
C572 C577 1.379 . S
C572 N579 1.356 . S
C573 C572 1.363 . S
C573 C576 1.363 . S
N574 C576 1.356 . S
N574 H586 0.984 1_545 S
N574 H587 0.985 . S
N575 C577 1.356 . S
N575 H580 0.984 1_545 S
N575 H581 0.985 . S
C576 C570 1.379 1_545 S
C576 C573 1.363 . S
C576 N574 1.356 . S
C577 C571 1.363 1_545 S
C577 C572 1.379 . S
C577 N575 1.356 . S
N578 C570 1.356 . S
N578 H584 0.984 . S
N578 H585 0.984 . S
N579 C572 1.356 . S
N579 H582 0.984 . S
N579 H583 0.985 . S
H580 N575 0.984 1_565 S
H581 N575 0.985 . S
H582 N579 0.984 . S
H583 N579 0.985 . S
H584 N578 0.984 . S
H585 N578 0.984 . S
H586 N574 0.984 1_565 S
H587 N574 0.985 . S
C588 C589 1.363 . S
C588 C594 1.379 1_556 S
C588 N596 1.356 . S
C589 C588 1.363 . S
C589 C595 1.363 . S
C590 C591 1.363 1_556 S
C590 C595 1.379 . S
C590 N597 1.356 . S
C591 C590 1.363 1_554 S
C591 C594 1.363 . S
N592 C594 1.356 . S
N592 H604 0.984 . S
N592 H605 0.985 . S
N593 C595 1.356 . S
N593 H598 0.984 . S
N593 H599 0.985 . S
C594 C588 1.379 1_554 S
C594 C591 1.363 . S
C594 N592 1.356 . S
C595 C589 1.363 . S
C595 C590 1.379 . S
C595 N593 1.356 . S
N596 C588 1.356 . S
N596 H602 0.984 1_556 S
N596 H603 0.984 . S
N597 C590 1.356 . S
N597 H600 0.984 1_556 S
N597 H601 0.985 . S
H598 N593 0.984 . S
H599 N593 0.985 . S
H600 N597 0.984 1_554 S
H601 N597 0.985 . S
H602 N596 0.984 1_554 S
H603 N596 0.984 . S
H604 N592 0.984 . S
H605 N592 0.985 . S
C606 C607 1.363 1_565 S
C606 C612 1.379 . S
C606 N614 1.356 . S
C607 C606 1.363 1_545 S
C607 C613 1.363 . S
C608 C609 1.363 . S
C608 C613 1.379 1_565 S
C608 N615 1.356 . S
C609 C608 1.363 . S
C609 C612 1.363 . S
N610 C612 1.356 . S
N610 H622 0.984 . S
N610 H623 0.985 . S
N611 C613 1.356 . S
N611 H616 0.984 . S
N611 H617 0.985 . S
C612 C606 1.379 . S
C612 C609 1.363 . S
C612 N610 1.356 . S
C613 C607 1.363 . S
C613 C608 1.379 1_545 S
C613 N611 1.356 . S
N614 C606 1.356 . S
N614 H620 0.984 . S
N614 H621 0.984 1_565 S
N615 C608 1.356 . S
N615 H618 0.984 . S
N615 H619 0.985 1_565 S
H616 N611 0.984 . S
H617 N611 0.985 . S
H618 N615 0.984 . S
H619 N615 0.985 1_545 S
H620 N614 0.984 . S
H621 N614 0.984 1_545 S
H622 N610 0.984 . S
H623 N610 0.985 . S
C624 C625 1.363 . S
C624 C630 1.379 . S
C624 N632 1.356 . S
C625 C624 1.363 . S
C625 C631 1.363 . S
C626 C627 1.363 . S
C626 C631 1.379 . S
C626 N633 1.356 . S
C627 C626 1.363 . S
C627 C630 1.363 . S
N628 C630 1.356 . S
N628 H640 0.984 . S
N628 H641 0.985 . S
N629 C631 1.356 . S
N629 H634 0.984 . S
N629 H635 0.985 . S
C630 C624 1.379 . S
C630 C627 1.363 . S
C630 N628 1.356 . S
C631 C625 1.363 . S
C631 C626 1.379 . S
C631 N629 1.356 . S
N632 C624 1.356 . S
N632 H638 0.984 . S
N632 H639 0.984 . S
N633 C626 1.356 . S
N633 H636 0.984 . S
N633 H637 0.985 . S
H634 N629 0.984 . S
H635 N629 0.985 . S
H636 N633 0.984 . S
H637 N633 0.985 . S
H638 N632 0.984 . S
H639 N632 0.984 . S
H640 N628 0.984 . S
H641 N628 0.985 . S
C642 C643 1.363 . S
C642 C648 1.379 . S
C642 N650 1.356 . S
C643 C642 1.363 . S
C643 C649 1.363 . S
C644 C645 1.363 . S
C644 C649 1.379 . S
C644 N651 1.356 . S
C645 C644 1.363 . S
C645 C648 1.363 . S
N646 C648 1.356 . S
N646 H658 0.984 . S
N646 H659 0.985 . S
N647 C649 1.356 . S
N647 H652 0.984 . S
N647 H653 0.985 . S
C648 C642 1.379 . S
C648 C645 1.363 . S
C648 N646 1.356 . S
C649 C643 1.363 . S
C649 C644 1.379 . S
C649 N647 1.356 . S
N650 C642 1.356 . S
N650 H656 0.984 . S
N650 H657 0.984 . S
N651 C644 1.356 . S
N651 H654 0.984 . S
N651 H655 0.985 . S
H652 N647 0.984 . S
H653 N647 0.985 . S
H654 N651 0.984 . S
H655 N651 0.985 . S
H656 N650 0.984 . S
H657 N650 0.984 . S
H658 N646 0.984 . S
H659 N646 0.985 . S
C660 C661 1.363 . S
C660 C666 1.379 1_556 S
C660 N668 1.356 . S
C661 C660 1.363 . S
C661 C667 1.363 . S
C662 C663 1.363 . S
C662 C667 1.379 1_554 S
C662 N669 1.356 . S
C663 C662 1.363 . S
C663 C666 1.363 . S
N664 C666 1.356 . S
N664 H676 0.984 . S
N664 H677 0.985 . S
N665 C667 1.356 . S
N665 H670 0.984 . S
N665 H671 0.985 . S
C666 C660 1.379 1_554 S
C666 C663 1.363 . S
C666 N664 1.356 . S
C667 C661 1.363 . S
C667 C662 1.379 1_556 S
C667 N665 1.356 . S
N668 C660 1.356 . S
N668 H674 0.984 . S
N668 H675 0.984 . S
N669 C662 1.356 . S
N669 H672 0.984 . S
N669 H673 0.985 . S
H670 N665 0.984 . S
H671 N665 0.985 . S
H672 N669 0.984 . S
H673 N669 0.985 . S
H674 N668 0.984 . S
H675 N668 0.984 . S
H676 N664 0.984 . S
H677 N664 0.985 . S
C678 C679 1.363 . S
C678 C684 1.379 . S
C678 N686 1.356 . S
C679 C678 1.363 . S
C679 C685 1.363 . S
C680 C681 1.363 . S
C680 C685 1.379 . S
C680 N687 1.356 . S
C681 C680 1.363 . S
C681 C684 1.363 . S
N682 C684 1.356 . S
N682 H694 0.984 . S
N682 H695 0.985 . S
N683 C685 1.356 . S
N683 H688 0.984 . S
N683 H689 0.985 . S
C684 C678 1.379 . S
C684 C681 1.363 . S
C684 N682 1.356 . S
C685 C679 1.363 . S
C685 C680 1.379 . S
C685 N683 1.356 . S
N686 C678 1.356 . S
N686 H692 0.984 . S
N686 H693 0.984 . S
N687 C680 1.356 . S
N687 H690 0.984 . S
N687 H691 0.985 . S
H688 N683 0.984 . S
H689 N683 0.985 . S
H690 N687 0.984 . S
H691 N687 0.985 . S
H692 N686 0.984 . S
H693 N686 0.984 . S
H694 N682 0.984 . S
H695 N682 0.985 . S
C696 C697 1.363 . S
C696 C702 1.379 . S
C696 N704 1.356 . S
C697 C696 1.363 . S
C697 C703 1.363 . S
C698 C699 1.363 . S
C698 C703 1.379 . S
C698 N705 1.356 . S
C699 C698 1.363 . S
C699 C702 1.363 . S
N700 C702 1.356 . S
N700 H712 0.984 . S
N700 H713 0.985 . S
N701 C703 1.356 . S
N701 H706 0.984 . S
N701 H707 0.985 . S
C702 C696 1.379 . S
C702 C699 1.363 . S
C702 N700 1.356 . S
C703 C697 1.363 . S
C703 C698 1.379 . S
C703 N701 1.356 . S
N704 C696 1.356 . S
N704 H710 0.984 . S
N704 H711 0.984 . S
N705 C698 1.356 . S
N705 H708 0.984 . S
N705 H709 0.985 . S
H706 N701 0.984 . S
H707 N701 0.985 . S
H708 N705 0.984 . S
H709 N705 0.985 . S
H710 N704 0.984 . S
H711 N704 0.984 . S
H712 N700 0.984 . S
H713 N700 0.985 . S
C714 C715 1.363 . S
C714 C720 1.379 1_455 S
C714 N722 1.356 . S
C715 C714 1.363 . S
C715 C721 1.363 1_455 S
C716 C717 1.363 . S
C716 C721 1.379 . S
C716 N723 1.356 . S
C717 C716 1.363 . S
C717 C720 1.363 . S
N718 C720 1.356 . S
N718 H730 0.984 . S
N718 H731 0.985 . S
N719 C721 1.356 1_455 S
N719 H724 0.984 . S
N719 H725 0.985 . S
C720 C714 1.379 1_655 S
C720 C717 1.363 . S
C720 N718 1.356 . S
C721 C715 1.363 1_655 S
C721 C716 1.379 . S
C721 N719 1.356 1_655 S
N722 C714 1.356 . S
N722 H728 0.984 . S
N722 H729 0.984 . S
N723 C716 1.356 . S
N723 H726 0.984 . S
N723 H727 0.985 . S
H724 N719 0.984 . S
H725 N719 0.985 . S
H726 N723 0.984 . S
H727 N723 0.985 . S
H728 N722 0.984 . S
H729 N722 0.984 . S
H730 N718 0.984 . S
H731 N718 0.985 . S
C732 C733 1.363 . S
C732 C738 1.379 1_655 S
C732 N740 1.356 . S
C733 C732 1.363 . S
C733 C739 1.363 1_655 S
C734 C735 1.363 . S
C734 C739 1.379 . S
C734 N741 1.356 . S
C735 C734 1.363 . S
C735 C738 1.363 . S
N736 C738 1.356 . S
N736 H748 0.984 1_455 S
N736 H749 0.985 . S
N737 C739 1.356 . S
N737 H742 0.984 1_455 S
N737 H743 0.985 . S
C738 C732 1.379 1_455 S
C738 C735 1.363 . S
C738 N736 1.356 . S
C739 C733 1.363 1_455 S
C739 C734 1.379 . S
C739 N737 1.356 . S
N740 C732 1.356 . S
N740 H746 0.984 . S
N740 H747 0.984 . S
N741 C734 1.356 . S
N741 H744 0.984 . S
N741 H745 0.985 . S
H742 N737 0.984 1_655 S
H743 N737 0.985 . S
H744 N741 0.984 . S
H745 N741 0.985 . S
H746 N740 0.984 . S
H747 N740 0.984 . S
H748 N736 0.984 1_655 S
H749 N736 0.985 . S
C750 C751 1.363 . S
C750 C756 1.379 . S
C750 N758 1.356 . S
C751 C750 1.363 . S
C751 C757 1.363 . S
C752 C753 1.363 . S
C752 C757 1.379 . S
C752 N759 1.356 . S
C753 C752 1.363 . S
C753 C756 1.363 . S
N754 C756 1.356 . S
N754 H766 0.984 . S
N754 H767 0.985 . S
N755 C757 1.356 . S
N755 H760 0.984 . S
N755 H761 0.985 . S
C756 C750 1.379 . S
C756 C753 1.363 . S
C756 N754 1.356 . S
C757 C751 1.363 . S
C757 C752 1.379 . S
C757 N755 1.356 . S
N758 C750 1.356 . S
N758 H764 0.984 . S
N758 H765 0.984 . S
N759 C752 1.356 . S
N759 H762 0.984 . S
N759 H763 0.985 . S
H760 N755 0.984 . S
H761 N755 0.985 . S
H762 N759 0.984 . S
H763 N759 0.985 . S
H764 N758 0.984 . S
H765 N758 0.984 . S
H766 N754 0.984 . S
H767 N754 0.985 . S
C768 C769 1.363 . S
C768 C774 1.379 . S
C768 N776 1.356 . S
C769 C768 1.363 . S
C769 C775 1.363 . S
C770 C771 1.363 . S
C770 C775 1.379 . S
C770 N777 1.356 . S
C771 C770 1.363 . S
C771 C774 1.363 . S
N772 C774 1.356 . S
N772 H784 0.984 . S
N772 H785 0.985 . S
N773 C775 1.356 . S
N773 H778 0.984 . S
N773 H779 0.985 . S
C774 C768 1.379 . S
C774 C771 1.363 . S
C774 N772 1.356 . S
C775 C769 1.363 . S
C775 C770 1.379 . S
C775 N773 1.356 . S
N776 C768 1.356 . S
N776 H782 0.984 . S
N776 H783 0.984 . S
N777 C770 1.356 . S
N777 H780 0.984 . S
N777 H781 0.985 . S
H778 N773 0.984 . S
H779 N773 0.985 . S
H780 N777 0.984 . S
H781 N777 0.985 . S
H782 N776 0.984 . S
H783 N776 0.984 . S
H784 N772 0.984 . S
H785 N772 0.985 . S
C786 C787 1.363 . S
C786 C792 1.379 . S
C786 N794 1.356 1_565 S
C787 C786 1.363 . S
C787 C793 1.363 . S
C788 C789 1.363 . S
C788 C793 1.379 . S
C788 N795 1.356 . S
C789 C788 1.363 . S
C789 C792 1.363 . S
N790 C792 1.356 . S
N790 H802 0.984 1_565 S
N790 H803 0.985 . S
N791 C793 1.356 . S
N791 H796 0.984 . S
N791 H797 0.985 . S
C792 C786 1.379 . S
C792 C789 1.363 . S
C792 N790 1.356 . S
C793 C787 1.363 . S
C793 C788 1.379 . S
C793 N791 1.356 . S
N794 C786 1.356 1_545 S
N794 H800 0.984 . S
N794 H801 0.984 . S
N795 C788 1.356 . S
N795 H798 0.984 . S
N795 H799 0.985 . S
H796 N791 0.984 . S
H797 N791 0.985 . S
H798 N795 0.984 . S
H799 N795 0.985 . S
H800 N794 0.984 . S
H801 N794 0.984 . S
H802 N790 0.984 1_545 S
H803 N790 0.985 . S
C804 C805 1.363 . S
C804 C810 1.379 . S
C804 N812 1.356 . S
C805 C804 1.363 . S
C805 C811 1.363 . S
C806 C807 1.363 . S
C806 C811 1.379 . S
C806 N813 1.356 . S
C807 C806 1.363 . S
C807 C810 1.363 . S
N808 C810 1.356 . S
N808 H820 0.984 . S
N808 H821 0.985 . S
N809 C811 1.356 . S
N809 H814 0.984 . S
N809 H815 0.985 . S
C810 C804 1.379 . S
C810 C807 1.363 . S
C810 N808 1.356 . S
C811 C805 1.363 . S
C811 C806 1.379 . S
C811 N809 1.356 . S
N812 C804 1.356 . S
N812 H818 0.984 . S
N812 H819 0.984 . S
N813 C806 1.356 . S
N813 H816 0.984 . S
N813 H817 0.985 . S
H814 N809 0.984 . S
H815 N809 0.985 . S
H816 N813 0.984 . S
H817 N813 0.985 . S
H818 N812 0.984 . S
H819 N812 0.984 . S
H820 N808 0.984 . S
H821 N808 0.985 . S
C822 C823 1.363 . S
C822 C828 1.379 1_545 S
C822 N830 1.356 . S
C823 C822 1.363 . S
C823 C829 1.363 . S
C824 C825 1.363 . S
C824 C829 1.379 . S
C824 N831 1.356 1_554 S
C825 C824 1.363 . S
C825 C828 1.363 1_545 S
N826 C828 1.356 . S
N826 H838 0.984 . S
N826 H839 0.985 . S
N827 C829 1.356 . S
N827 H832 0.984 . S
N827 H833 0.985 . S
C828 C822 1.379 1_565 S
C828 C825 1.363 1_565 S
C828 N826 1.356 . S
C829 C823 1.363 . S
C829 C824 1.379 . S
C829 N827 1.356 . S
N830 C822 1.356 . S
N830 H836 0.984 1_545 S
N830 H837 0.984 . S
N831 C824 1.356 1_556 S
N831 H834 0.984 . S
N831 H835 0.985 . S
H832 N827 0.984 . S
H833 N827 0.985 . S
H834 N831 0.984 . S
H835 N831 0.985 . S
H836 N830 0.984 1_565 S
H837 N830 0.984 . S
H838 N826 0.984 . S
H839 N826 0.985 . S
C840 C841 1.363 . S
C840 C846 1.379 . S
C840 N848 1.356 . S
C841 C840 1.363 . S
C841 C847 1.363 . S
C842 C843 1.363 . S
C842 C847 1.379 . S
C842 N849 1.356 . S
C843 C842 1.363 . S
C843 C846 1.363 . S
N844 C846 1.356 . S
N844 H856 0.984 . S
N844 H857 0.985 . S
N845 C847 1.356 . S
N845 H850 0.984 . S
N845 H851 0.985 . S
C846 C840 1.379 . S
C846 C843 1.363 . S
C846 N844 1.356 . S
C847 C841 1.363 . S
C847 C842 1.379 . S
C847 N845 1.356 . S
N848 C840 1.356 . S
N848 H854 0.984 . S
N848 H855 0.984 . S
N849 C842 1.356 . S
N849 H852 0.984 . S
N849 H853 0.985 . S
H850 N845 0.984 . S
H851 N845 0.985 . S
H852 N849 0.984 . S
H853 N849 0.985 . S
H854 N848 0.984 . S
H855 N848 0.984 . S
H856 N844 0.984 . S
H857 N844 0.985 . S
C858 C859 1.363 . S
C858 C864 1.379 . S
C858 N866 1.356 . S
C859 C858 1.363 . S
C859 C865 1.363 . S
C860 C861 1.363 . S
C860 C865 1.379 . S
C860 N867 1.356 . S
C861 C860 1.363 . S
C861 C864 1.363 . S
N862 C864 1.356 . S
N862 H874 0.984 . S
N862 H875 0.985 . S
N863 C865 1.356 1_554 S
N863 H868 0.984 . S
N863 H869 0.985 . S
C864 C858 1.379 . S
C864 C861 1.363 . S
C864 N862 1.356 . S
C865 C859 1.363 . S
C865 C860 1.379 . S
C865 N863 1.356 1_556 S
N866 C858 1.356 . S
N866 H872 0.984 . S
N866 H873 0.962 1_556 S
N867 C860 1.356 . S
N867 H870 0.984 . S
N867 H871 0.985 . S
H868 N863 0.984 . S
H869 N863 0.985 . S
H870 N867 0.984 . S
H871 N867 0.985 . S
H872 N866 0.984 . S
H873 N866 0.962 1_554 S
H874 N862 0.984 . S
H875 N862 0.985 . S
C876 C877 1.363 . S
C876 C882 1.379 . S
C876 N884 1.356 . S
C877 C876 1.363 . S
C877 C883 1.363 . S
C878 C879 1.363 . S
C878 C883 1.379 . S
C878 N885 1.356 . S
C879 C878 1.363 . S
C879 C882 1.363 . S
N880 C882 1.356 . S
N880 H892 0.984 . S
N880 H893 0.985 . S
N881 C883 1.356 . S
N881 H886 0.984 . S
N881 H887 0.985 . S
C882 C876 1.379 . S
C882 C879 1.363 . S
C882 N880 1.356 . S
C883 C877 1.363 . S
C883 C878 1.379 . S
C883 N881 1.356 . S
N884 C876 1.356 . S
N884 H890 0.984 . S
N884 H891 0.984 . S
N885 C878 1.356 . S
N885 H888 0.984 . S
N885 H889 0.985 . S
H886 N881 0.984 . S
H887 N881 0.985 . S
H888 N885 0.984 . S
H889 N885 0.985 . S
H890 N884 0.984 . S
H891 N884 0.984 . S
H892 N880 0.984 . S
H893 N880 0.985 . S
C894 C895 1.363 . S
C894 C900 1.379 . S
C894 N902 1.356 . S
C895 C894 1.363 . S
C895 C901 1.363 . S
C896 C897 1.363 . S
C896 C901 1.379 . S
C896 N903 1.356 . S
C897 C896 1.363 . S
C897 C900 1.363 . S
N898 C900 1.356 . S
N898 H910 0.984 . S
N898 H911 0.985 . S
N899 C901 1.356 . S
N899 H904 0.984 . S
N899 H905 0.985 . S
C900 C894 1.379 . S
C900 C897 1.363 . S
C900 N898 1.356 . S
C901 C895 1.363 . S
C901 C896 1.379 . S
C901 N899 1.356 . S
N902 C894 1.356 . S
N902 H908 0.984 . S
N902 H909 0.984 . S
N903 C896 1.356 . S
N903 H906 0.984 . S
N903 H907 0.985 . S
H904 N899 0.984 . S
H905 N899 0.985 . S
H906 N903 0.984 . S
H907 N903 0.985 . S
H908 N902 0.984 . S
H909 N902 0.984 . S
H910 N898 0.984 . S
H911 N898 0.985 . S
C912 C913 1.363 . S
C912 C918 1.379 . S
C912 N920 1.356 . S
C913 C912 1.363 . S
C913 C919 1.363 . S
C914 C915 1.363 . S
C914 C919 1.379 . S
C914 N921 1.356 . S
C915 C914 1.363 . S
C915 C918 1.363 . S
N916 C918 1.356 . S
N916 H928 0.984 . S
N916 H929 0.985 . S
N917 C919 1.356 . S
N917 H922 0.984 . S
N917 H923 0.985 . S
C918 C912 1.379 . S
C918 C915 1.363 . S
C918 N916 1.356 . S
C919 C913 1.363 . S
C919 C914 1.379 . S
C919 N917 1.356 . S
N920 C912 1.356 . S
N920 H926 0.984 . S
N920 H927 0.984 . S
N921 C914 1.356 . S
N921 H924 0.984 . S
N921 H925 0.985 . S
H922 N917 0.984 . S
H923 N917 0.985 . S
H924 N921 0.984 . S
H925 N921 0.985 . S
H926 N920 0.984 . S
H927 N920 0.984 . S
H928 N916 0.984 . S
H929 N916 0.985 . S
C930 C931 1.363 . S
C930 C936 1.379 . S
C930 N938 1.356 1_545 S
C931 C930 1.363 . S
C931 C937 1.363 . S
C932 C933 1.363 . S
C932 C937 1.379 . S
C932 N939 1.356 . S
C933 C932 1.363 . S
C933 C936 1.363 . S
N934 C936 1.356 . S
N934 H946 0.984 . S
N934 H947 0.985 . S
N935 C937 1.356 1_655 S
N935 H940 0.984 1_545 S
N935 H941 0.985 . S
C936 C930 1.379 . S
C936 C933 1.363 . S
C936 N934 1.356 . S
C937 C931 1.363 . S
C937 C932 1.379 . S
C937 N935 1.356 1_455 S
N938 C930 1.356 1_565 S
N938 H944 0.984 . S
N938 H945 0.984 . S
N939 C932 1.356 . S
N939 H942 0.984 . S
N939 H943 0.985 . S
H940 N935 0.984 1_565 S
H941 N935 0.985 . S
H942 N939 0.984 . S
H943 N939 0.985 . S
H944 N938 0.984 . S
H945 N938 0.984 . S
H946 N934 0.984 . S
H947 N934 0.985 . S
C948 C949 1.363 . S
C948 C954 1.379 . S
C948 N956 1.356 . S
C949 C948 1.363 . S
C949 C955 1.363 . S
C950 C951 1.363 . S
C950 C955 1.379 . S
C950 N957 1.356 . S
C951 C950 1.363 . S
C951 C954 1.363 . S
N952 C954 1.356 . S
N952 H964 0.984 . S
N952 H965 0.985 . S
N953 C955 1.356 . S
N953 H958 0.984 . S
N953 H959 0.985 . S
C954 C948 1.379 . S
C954 C951 1.363 . S
C954 N952 1.356 . S
C955 C949 1.363 . S
C955 C950 1.379 . S
C955 N953 1.356 . S
N956 C948 1.356 . S
N956 H962 0.984 . S
N956 H963 0.984 . S
N957 C950 1.356 . S
N957 H960 0.984 . S
N957 H961 0.985 . S
H958 N953 0.984 . S
H959 N953 0.985 . S
H960 N957 0.984 . S
H961 N957 0.985 . S
H962 N956 0.984 . S
H963 N956 0.984 . S
H964 N952 0.984 . S
H965 N952 0.985 . S
C966 C967 1.363 . S
C966 C972 1.379 . S
C966 N974 1.356 1_565 S
C967 C966 1.363 . S
C967 C973 1.363 . S
C968 C969 1.363 . S
C968 C973 1.379 . S
C968 N975 1.356 . S
C969 C968 1.363 . S
C969 C972 1.363 . S
N970 C972 1.356 . S
N970 H982 0.984 . S
N970 H983 0.985 . S
N971 C973 1.356 . S
N971 H976 0.984 1_565 S
N971 H977 0.985 . S
C972 C966 1.379 . S
C972 C969 1.363 . S
C972 N970 1.356 . S
C973 C967 1.363 . S
C973 C968 1.379 . S
C973 N971 1.356 . S
N974 C966 1.356 1_545 S
N974 H980 0.984 . S
N974 H981 0.984 . S
N975 C968 1.356 . S
N975 H978 0.984 . S
N975 H979 0.985 . S
H976 N971 0.984 1_545 S
H977 N971 0.985 . S
H978 N975 0.984 . S
H979 N975 0.985 . S
H980 N974 0.984 . S
H981 N974 0.984 . S
H982 N970 0.984 . S
H983 N970 0.985 . S
C984 C985 1.363 . S
C984 C990 1.379 . S
C984 N992 1.356 . S
C985 C984 1.363 . S
C985 C991 1.363 . S
C986 C987 1.363 . S
C986 C991 1.379 . S
C986 N993 1.356 . S
C987 C986 1.363 . S
C987 C990 1.363 . S
N988 C990 1.356 . S
N988 H1000 0.984 . S
N988 H1001 0.985 . S
N989 C991 1.356 . S
N989 H994 0.984 . S
N989 H995 0.985 . S
C990 C984 1.379 . S
C990 C987 1.363 . S
C990 N988 1.356 . S
C991 C985 1.363 . S
C991 C986 1.379 . S
C991 N989 1.356 . S
N992 C984 1.356 . S
N992 H998 0.984 . S
N992 H999 0.984 . S
N993 C986 1.356 . S
N993 H996 0.984 . S
N993 H997 0.985 . S
H994 N989 0.984 . S
H995 N989 0.985 . S
H996 N993 0.984 . S
H997 N993 0.985 . S
H998 N992 0.984 . S
H999 N992 0.984 . S
H1000 N988 0.984 . S
H1001 N988 0.985 . S
C1002 C1003 1.363 . S
C1002 C1008 1.379 . S
C1002 N1010 1.356 1_655 S
C1003 C1002 1.363 . S
C1003 C1009 1.363 . S
C1004 C1005 1.363 . S
C1004 C1009 1.379 . S
C1004 N1011 1.356 . S
C1005 C1004 1.363 . S
C1005 C1008 1.363 . S
N1006 C1008 1.356 . S
N1006 H1018 0.984 . S
N1006 H1019 0.985 . S
N1007 C1009 1.356 . S
N1007 H1012 0.984 . S
N1007 H1013 0.985 . S
C1008 C1002 1.379 . S
C1008 C1005 1.363 . S
C1008 N1006 1.356 . S
C1009 C1003 1.363 . S
C1009 C1004 1.379 . S
C1009 N1007 1.356 . S
N1010 C1002 1.356 1_455 S
N1010 H1016 0.984 . S
N1010 H1017 0.984 . S
N1011 C1004 1.356 . S
N1011 H1014 0.984 . S
N1011 H1015 0.985 . S
H1012 N1007 0.984 . S
H1013 N1007 0.985 . S
H1014 N1011 0.984 . S
H1015 N1011 0.985 . S
H1016 N1010 0.984 . S
H1017 N1010 0.984 . S
H1018 N1006 0.984 . S
H1019 N1006 0.985 . S
C1020 C1021 1.363 . S
C1020 C1026 1.379 . S
C1020 N1028 1.356 . S
C1021 C1020 1.363 . S
C1021 C1027 1.363 . S
C1022 C1023 1.363 . S
C1022 C1027 1.379 . S
C1022 N1029 1.356 . S
C1023 C1022 1.363 . S
C1023 C1026 1.363 . S
N1024 C1026 1.356 . S
N1024 H1036 0.984 . S
N1024 H1037 0.985 . S
N1025 C1027 1.356 . S
N1025 H1030 0.984 . S
N1025 H1031 0.985 . S
C1026 C1020 1.379 . S
C1026 C1023 1.363 . S
C1026 N1024 1.356 . S
C1027 C1021 1.363 . S
C1027 C1022 1.379 . S
C1027 N1025 1.356 . S
N1028 C1020 1.356 . S
N1028 H1034 0.984 . S
N1028 H1035 0.984 . S
N1029 C1022 1.356 . S
N1029 H1032 0.984 . S
N1029 H1033 0.985 . S
H1030 N1025 0.984 . S
H1031 N1025 0.985 . S
H1032 N1029 0.984 . S
H1033 N1029 0.985 . S
H1034 N1028 0.984 . S
H1035 N1028 0.984 . S
H1036 N1024 0.984 . S
H1037 N1024 0.985 . S
C1038 C1039 1.363 . S
C1038 C1044 1.379 . S
C1038 N1046 1.356 . S
C1039 C1038 1.363 . S
C1039 C1045 1.363 . S
C1040 C1041 1.363 . S
C1040 C1045 1.379 . S
C1040 N1047 1.356 . S
C1041 C1040 1.363 . S
C1041 C1044 1.363 . S
N1042 C1044 1.356 . S
N1042 H1054 0.984 . S
N1042 H1055 0.985 . S
N1043 C1045 1.356 . S
N1043 H1048 0.984 . S
N1043 H1049 0.985 . S
C1044 C1038 1.379 . S
C1044 C1041 1.363 . S
C1044 N1042 1.356 . S
C1045 C1039 1.363 . S
C1045 C1040 1.379 . S
C1045 N1043 1.356 . S
N1046 C1038 1.356 . S
N1046 H1052 0.984 . S
N1046 H1053 0.984 . S
N1047 C1040 1.356 . S
N1047 H1050 0.984 . S
N1047 H1051 0.985 . S
H1048 N1043 0.984 . S
H1049 N1043 0.985 . S
H1050 N1047 0.984 . S
H1051 N1047 0.985 . S
H1052 N1046 0.984 . S
H1053 N1046 0.984 . S
H1054 N1042 0.984 . S
H1055 N1042 0.985 . S
C1056 C1057 1.363 . S
C1056 C1062 1.379 . S
C1056 N1064 1.356 . S
C1057 C1056 1.363 . S
C1057 C1063 1.363 . S
C1058 C1059 1.363 . S
C1058 C1063 1.379 . S
C1058 N1065 1.356 . S
C1059 C1058 1.363 . S
C1059 C1062 1.363 . S
N1060 C1062 1.356 . S
N1060 H1072 0.984 . S
N1060 H1073 0.985 . S
N1061 C1063 1.356 . S
N1061 H1066 0.984 . S
N1061 H1067 0.985 . S
C1062 C1056 1.379 . S
C1062 C1059 1.363 . S
C1062 N1060 1.356 . S
C1063 C1057 1.363 . S
C1063 C1058 1.379 . S
C1063 N1061 1.356 . S
N1064 C1056 1.356 . S
N1064 H1070 0.984 . S
N1064 H1071 0.984 . S
N1065 C1058 1.356 . S
N1065 H1068 0.984 . S
N1065 H1069 0.985 . S
H1066 N1061 0.984 . S
H1067 N1061 0.985 . S
H1068 N1065 0.984 . S
H1069 N1065 0.985 . S
H1070 N1064 0.984 . S
H1071 N1064 0.984 . S
H1072 N1060 0.984 . S
H1073 N1060 0.985 . S
C1074 C1075 1.363 . S
C1074 C1080 1.379 . S
C1074 N1082 1.356 . S
C1075 C1074 1.363 . S
C1075 C1081 1.363 . S
C1076 C1077 1.363 . S
C1076 C1081 1.379 . S
C1076 N1083 1.356 . S
C1077 C1076 1.363 . S
C1077 C1080 1.363 . S
N1078 C1080 1.356 . S
N1078 H1090 0.984 . S
N1078 H1091 0.985 . S
N1079 C1081 1.356 . S
N1079 H1084 0.984 . S
N1079 H1085 0.985 . S
C1080 C1074 1.379 . S
C1080 C1077 1.363 . S
C1080 N1078 1.356 . S
C1081 C1075 1.363 . S
C1081 C1076 1.379 . S
C1081 N1079 1.356 . S
N1082 C1074 1.356 . S
N1082 H1088 0.984 . S
N1082 H1089 0.984 . S
N1083 C1076 1.356 . S
N1083 H1086 0.984 . S
N1083 H1087 0.985 . S
H1084 N1079 0.984 . S
H1085 N1079 0.985 . S
H1086 N1083 0.984 . S
H1087 N1083 0.985 . S
H1088 N1082 0.984 . S
H1089 N1082 0.984 . S
H1090 N1078 0.984 . S
H1091 N1078 0.985 . S
C1092 C1093 1.363 . S
C1092 C1098 1.379 . S
C1092 N1100 1.356 1_554 S
C1093 C1092 1.363 . S
C1093 C1099 1.363 . S
C1094 C1095 1.363 . S
C1094 C1099 1.379 . S
C1094 N1101 1.356 . S
C1095 C1094 1.363 . S
C1095 C1098 1.363 . S
N1096 C1098 1.356 . S
N1096 H1108 0.984 . S
N1096 H1109 0.985 . S
N1097 C1099 1.356 1_655 S
N1097 H1102 0.984 . S
N1097 H1103 0.985 . S
C1098 C1092 1.379 . S
C1098 C1095 1.363 . S
C1098 N1096 1.356 . S
C1099 C1093 1.363 . S
C1099 C1094 1.379 . S
C1099 N1097 1.356 1_455 S
N1100 C1092 1.356 1_556 S
N1100 H1106 0.984 . S
N1100 H1107 0.984 1_455 S
N1101 C1094 1.356 . S
N1101 H1104 0.984 . S
N1101 H1105 0.985 . S
H1102 N1097 0.984 . S
H1103 N1097 0.985 . S
H1104 N1101 0.984 . S
H1105 N1101 0.985 . S
H1106 N1100 0.984 . S
H1107 N1100 0.984 1_655 S
H1108 N1096 0.984 . S
H1109 N1096 0.985 . S
C1110 C1111 1.363 . S
C1110 C1116 1.379 . S
C1110 N1118 1.356 . S
C1111 C1110 1.363 . S
C1111 C1117 1.363 . S
C1112 C1113 1.363 . S
C1112 C1117 1.379 . S
C1112 N1119 1.356 . S
C1113 C1112 1.363 . S
C1113 C1116 1.363 . S
N1114 C1116 1.356 . S
N1114 H1126 0.984 . S
N1114 H1127 0.985 . S
N1115 C1117 1.356 . S
N1115 H1120 0.984 . S
N1115 H1121 0.985 . S
C1116 C1110 1.379 . S
C1116 C1113 1.363 . S
C1116 N1114 1.356 . S
C1117 C1111 1.363 . S
C1117 C1112 1.379 . S
C1117 N1115 1.356 . S
N1118 C1110 1.356 . S
N1118 H1124 0.984 . S
N1118 H1125 0.984 . S
N1119 C1112 1.356 . S
N1119 H1122 0.984 . S
N1119 H1123 0.985 . S
H1120 N1115 0.984 . S
H1121 N1115 0.985 . S
H1122 N1119 0.984 . S
H1123 N1119 0.985 . S
H1124 N1118 0.984 . S
H1125 N1118 0.984 . S
H1126 N1114 0.984 . S
H1127 N1114 0.985 . S
C1128 C1129 1.363 . S
C1128 C1134 1.379 . S
C1128 N1136 1.356 . S
C1129 C1128 1.363 . S
C1129 C1135 1.363 . S
C1130 C1131 1.363 . S
C1130 C1135 1.379 . S
C1130 N1137 1.356 . S
C1131 C1130 1.363 . S
C1131 C1134 1.363 . S
N1132 C1134 1.356 . S
N1132 H1144 0.984 . S
N1132 H1145 0.985 . S
N1133 C1135 1.356 . S
N1133 H1138 0.984 . S
N1133 H1139 0.985 . S
C1134 C1128 1.379 . S
C1134 C1131 1.363 . S
C1134 N1132 1.356 . S
C1135 C1129 1.363 . S
C1135 C1130 1.379 . S
C1135 N1133 1.356 . S
N1136 C1128 1.356 . S
N1136 H1142 0.984 . S
N1136 H1143 0.984 . S
N1137 C1130 1.356 . S
N1137 H1140 0.984 . S
N1137 H1141 0.985 . S
H1138 N1133 0.984 . S
H1139 N1133 0.985 . S
H1140 N1137 0.984 . S
H1141 N1137 0.985 . S
H1142 N1136 0.984 . S
H1143 N1136 0.984 . S
H1144 N1132 0.984 . S
H1145 N1132 0.985 . S
C1146 C1147 1.363 . S
C1146 C1152 1.379 . S
C1146 N1154 1.356 . S
C1147 C1146 1.363 . S
C1147 C1153 1.363 . S
C1148 C1149 1.363 . S
C1148 C1153 1.379 . S
C1148 N1155 1.356 . S
C1149 C1148 1.363 . S
C1149 C1152 1.363 . S
N1150 C1152 1.356 . S
N1150 H1162 0.984 . S
N1150 H1163 0.985 . S
N1151 C1153 1.356 . S
N1151 H1156 0.984 . S
N1151 H1157 0.985 . S
C1152 C1146 1.379 . S
C1152 C1149 1.363 . S
C1152 N1150 1.356 . S
C1153 C1147 1.363 . S
C1153 C1148 1.379 . S
C1153 N1151 1.356 . S
N1154 C1146 1.356 . S
N1154 H1160 0.984 . S
N1154 H1161 0.984 . S
N1155 C1148 1.356 . S
N1155 H1158 0.984 . S
N1155 H1159 0.985 . S
H1156 N1151 0.984 . S
H1157 N1151 0.985 . S
H1158 N1155 0.984 . S
H1159 N1155 0.985 . S
H1160 N1154 0.984 . S
H1161 N1154 0.984 . S
H1162 N1150 0.984 . S
H1163 N1150 0.985 . S
C1164 C1165 1.363 . S
C1164 C1170 1.379 . S
C1164 N1172 1.356 1_556 S
C1165 C1164 1.363 . S
C1165 C1171 1.363 . S
C1166 C1167 1.363 . S
C1166 C1171 1.379 . S
C1166 N1173 1.356 . S
C1167 C1166 1.363 . S
C1167 C1170 1.363 . S
N1168 C1170 1.356 . S
N1168 H1180 0.984 . S
N1168 H1181 0.985 . S
N1169 C1171 1.356 . S
N1169 H1174 0.984 . S
N1169 H1175 0.985 . S
C1170 C1164 1.379 . S
C1170 C1167 1.363 . S
C1170 N1168 1.356 . S
C1171 C1165 1.363 . S
C1171 C1166 1.379 . S
C1171 N1169 1.356 . S
N1172 C1164 1.356 1_554 S
N1172 H1178 0.984 . S
N1172 H1179 0.984 . S
N1173 C1166 1.356 . S
N1173 H1176 0.984 . S
N1173 H1177 0.985 . S
H1174 N1169 0.984 . S
H1175 N1169 0.985 . S
H1176 N1173 0.984 . S
H1177 N1173 0.985 . S
H1178 N1172 0.984 . S
H1179 N1172 0.984 . S
H1180 N1168 0.984 . S
H1181 N1168 0.985 . S
C1182 C1183 1.363 . S
C1182 C1188 1.379 . S
C1182 N1190 1.356 . S
C1183 C1182 1.363 . S
C1183 C1189 1.363 . S
C1184 C1185 1.363 . S
C1184 C1189 1.379 . S
C1184 N1191 1.356 . S
C1185 C1184 1.363 . S
C1185 C1188 1.363 . S
N1186 C1188 1.356 1_455 S
N1186 H1198 0.984 . S
N1186 H1199 0.985 . S
N1187 C1189 1.356 . S
N1187 H1192 0.984 . S
N1187 H1193 0.985 . S
C1188 C1182 1.379 . S
C1188 C1185 1.363 . S
C1188 N1186 1.356 1_655 S
C1189 C1183 1.363 . S
C1189 C1184 1.379 . S
C1189 N1187 1.356 . S
N1190 C1182 1.356 . S
N1190 H1196 0.984 . S
N1190 H1197 0.984 . S
N1191 C1184 1.356 . S
N1191 H1194 0.984 1_655 S
N1191 H1195 0.985 . S
H1192 N1187 0.984 . S
H1193 N1187 0.985 . S
H1194 N1191 0.984 1_455 S
H1195 N1191 0.985 . S
H1196 N1190 0.984 . S
H1197 N1190 0.984 . S
H1198 N1186 0.984 . S
H1199 N1186 0.985 . S
C337 C137 1.371 . S
C339 C11 1.371 . S
C355 C25 1.371 1_455 S
C357 C151 1.371 . S
C373 C39 1.371 . S
C375 C165 1.371 1_556 S
C391 C53 1.371 . S
C393 C123 1.371 . S
C409 C67 1.371 . S
C411 C221 1.371 . S
C427 C179 1.371 . S
C429 C81 1.371 1_655 S
C445 C95 1.371 . S
C447 C193 1.371 1_554 S
C463 C207 1.371 . S
C465 C109 1.371 . S
C481 C235 1.371 . S
C483 C263 1.371 . S
C499 C319 1.371 1_545 S
C501 C249 1.371 . S
C517 C277 1.371 . S
C519 C333 1.371 1_565 S
C535 C305 1.371 . S
C537 C291 1.371 . S
C553 C289 1.812 . S
C555 C9 1.812 . S
C571 C23 1.812 . S
C573 C247 1.812 . S
C589 C37 1.812 . S
C591 C261 1.812 . S
C607 C51 1.812 . S
C609 C275 1.812 . S
C625 C65 1.812 . S
C627 C331 1.812 . S
C643 C303 1.812 . S
C645 C79 1.812 . S
C661 C317 1.812 . S
C663 C93 1.812 . S
C679 C233 1.812 . S
C681 C107 1.812 . S
C697 C219 1.812 . S
C699 C121 1.812 . S
C715 C135 1.812 . S
C717 C177 1.812 . S
C733 C191 1.812 . S
C735 C149 1.812 . S
C751 C205 1.812 . S
C753 C163 1.812 . S
C769 C5 1.273 . S
C771 C224 1.309 . S
C787 C322 1.309 1_565 S
C789 C19 1.273 . S
C805 C294 1.309 . S
C807 C33 1.273 . S
C823 C47 1.273 . S
C825 C308 1.309 1_544 S
C841 C61 1.273 . S
C843 C238 1.309 . S
C859 C252 1.309 1_556 S
C861 C75 1.273 . S
C877 C266 1.309 . S
C879 C89 1.273 . S
C895 C280 1.309 . S
C897 C103 1.273 . S
C913 C0 1.309 . S
C915 C117 1.273 . S
C931 C14 1.309 1_445 S
C933 C131 1.273 . S
C949 C28 1.309 . S
C951 C145 1.273 . S
C967 C42 1.309 1_565 S
C969 C159 1.273 . S
C985 C56 1.309 . S
C987 C173 1.273 . S
C1003 C70 1.309 1_655 S
C1005 C187 1.273 . S
C1021 C201 1.273 . S
C1023 C84 1.309 . S
C1039 C98 1.309 . S
C1041 C215 1.273 . S
C1057 C112 1.309 . S
C1059 C229 1.273 . S
C1075 C243 1.273 . S
C1077 C168 1.309 . S
C1093 C182 1.309 1_454 S
C1095 C257 1.273 . S
C1111 C271 1.273 . S
C1113 C196 1.309 . S
C1129 C285 1.273 . S
C1131 C210 1.309 . S
C1147 C299 1.273 . S
C1149 C140 1.309 . S
C1165 C154 1.309 1_556 S
C1167 C313 1.273 . S
C1183 C327 1.273 . S
C1185 C126 1.309 1_655 S
