# Generated by pormake.
# Topology uma, (4)-cn, num edge types: 1
# Building blocks:
#     Node 0, Type 0, BuildingBlock: KOZSID_clean_sbu_0, # of connection points: 4
#     Node 1, Type 0, BuildingBlock: KOZSID_clean_sbu_0, # of connection points: 4
#     Node 2, Type 0, BuildingBlock: KOZSID_clean_sbu_0, # of connection points: 4
#     Node 3, Type 0, BuildingBlock: KOZSID_clean_sbu_0, # of connection points: 4
#     Node 4, Type 0, BuildingBlock: KOZSID_clean_sbu_0, # of connection points: 4
#     Node 5, Type 0, BuildingBlock: KOZSID_clean_sbu_0, # of connection points: 4
#     Node 6, Type 0, BuildingBlock: KOZSID_clean_sbu_0, # of connection points: 4
#     Node 7, Type 0, BuildingBlock: KOZSID_clean_sbu_0, # of connection points: 4
#     Node 8, Type 0, BuildingBlock: KOZSID_clean_sbu_0, # of connection points: 4
#     Node 9, Type 0, BuildingBlock: KOZSID_clean_sbu_0, # of connection points: 4
#     Node 10, Type 0, BuildingBlock: KOZSID_clean_sbu_0, # of connection points: 4
#     Node 11, Type 0, BuildingBlock: KOZSID_clean_sbu_0, # of connection points: 4
#     Node 12, Type 0, BuildingBlock: KOZSID_clean_sbu_0, # of connection points: 4
#     Node 13, Type 0, BuildingBlock: KOZSID_clean_sbu_0, # of connection points: 4
#     Node 14, Type 0, BuildingBlock: KOZSID_clean_sbu_0, # of connection points: 4
#     Node 15, Type 0, BuildingBlock: KOZSID_clean_sbu_0, # of connection points: 4
#     Node 16, Type 0, BuildingBlock: KOZSID_clean_sbu_0, # of connection points: 4
#     Node 17, Type 0, BuildingBlock: KOZSID_clean_sbu_0, # of connection points: 4
#     Node 18, Type 0, BuildingBlock: KOZSID_clean_sbu_0, # of connection points: 4
#     Node 19, Type 0, BuildingBlock: KOZSID_clean_sbu_0, # of connection points: 4
#     Node 20, Type 0, BuildingBlock: KOZSID_clean_sbu_0, # of connection points: 4
#     Node 21, Type 0, BuildingBlock: KOZSID_clean_sbu_0, # of connection points: 4
#     Node 22, Type 0, BuildingBlock: KOZSID_clean_sbu_0, # of connection points: 4
#     Node 23, Type 0, BuildingBlock: KOZSID_clean_sbu_0, # of connection points: 4
#     Node 24, Type 0, BuildingBlock: KOZSID_clean_sbu_0, # of connection points: 4
#     Node 25, Type 0, BuildingBlock: KOZSID_clean_sbu_0, # of connection points: 4
#     Node 26, Type 0, BuildingBlock: KOZSID_clean_sbu_0, # of connection points: 4
#     Node 27, Type 0, BuildingBlock: KOZSID_clean_sbu_0, # of connection points: 4
#     Node 28, Type 0, BuildingBlock: KOZSID_clean_sbu_0, # of connection points: 4
#     Node 29, Type 0, BuildingBlock: KOZSID_clean_sbu_0, # of connection points: 4
#     Node 30, Type 0, BuildingBlock: KOZSID_clean_sbu_0, # of connection points: 4
#     Node 31, Type 0, BuildingBlock: KOZSID_clean_sbu_0, # of connection points: 4
#     Node 32, Type 0, BuildingBlock: KOZSID_clean_sbu_0, # of connection points: 4
#     Node 33, Type 0, BuildingBlock: KOZSID_clean_sbu_0, # of connection points: 4
#     Node 34, Type 0, BuildingBlock: KOZSID_clean_sbu_0, # of connection points: 4
#     Node 35, Type 0, BuildingBlock: KOZSID_clean_sbu_0, # of connection points: 4
#     Edge 36, Type (0, 0), BuildingBlock: UVAHIK_clean_linker_0, # of connection points: 2
#     Edge 37, Type (0, 0), BuildingBlock: UVAHIK_clean_linker_0, # of connection points: 2
#     Edge 38, Type (0, 0), BuildingBlock: UVAHIK_clean_linker_0, # of connection points: 2
#     Edge 39, Type (0, 0), BuildingBlock: UVAHIK_clean_linker_0, # of connection points: 2
#     Edge 40, Type (0, 0), BuildingBlock: UVAHIK_clean_linker_0, # of connection points: 2
#     Edge 41, Type (0, 0), BuildingBlock: UVAHIK_clean_linker_0, # of connection points: 2
#     Edge 42, Type (0, 0), BuildingBlock: UVAHIK_clean_linker_0, # of connection points: 2
#     Edge 43, Type (0, 0), BuildingBlock: UVAHIK_clean_linker_0, # of connection points: 2
#     Edge 44, Type (0, 0), BuildingBlock: UVAHIK_clean_linker_0, # of connection points: 2
#     Edge 45, Type (0, 0), BuildingBlock: UVAHIK_clean_linker_0, # of connection points: 2
#     Edge 46, Type (0, 0), BuildingBlock: UVAHIK_clean_linker_0, # of connection points: 2
#     Edge 47, Type (0, 0), BuildingBlock: UVAHIK_clean_linker_0, # of connection points: 2
#     Edge 48, Type (0, 0), BuildingBlock: UVAHIK_clean_linker_0, # of connection points: 2
#     Edge 49, Type (0, 0), BuildingBlock: UVAHIK_clean_linker_0, # of connection points: 2
#     Edge 50, Type (0, 0), BuildingBlock: UVAHIK_clean_linker_0, # of connection points: 2
#     Edge 51, Type (0, 0), BuildingBlock: UVAHIK_clean_linker_0, # of connection points: 2
#     Edge 52, Type (0, 0), BuildingBlock: UVAHIK_clean_linker_0, # of connection points: 2
#     Edge 53, Type (0, 0), BuildingBlock: UVAHIK_clean_linker_0, # of connection points: 2
#     Edge 54, Type (0, 0), BuildingBlock: UVAHIK_clean_linker_0, # of connection points: 2
#     Edge 55, Type (0, 0), BuildingBlock: UVAHIK_clean_linker_0, # of connection points: 2
#     Edge 56, Type (0, 0), BuildingBlock: UVAHIK_clean_linker_0, # of connection points: 2
#     Edge 57, Type (0, 0), BuildingBlock: UVAHIK_clean_linker_0, # of connection points: 2
#     Edge 58, Type (0, 0), BuildingBlock: UVAHIK_clean_linker_0, # of connection points: 2
#     Edge 59, Type (0, 0), BuildingBlock: UVAHIK_clean_linker_0, # of connection points: 2
#     Edge 60, Type (0, 0), BuildingBlock: UVAHIK_clean_linker_0, # of connection points: 2
#     Edge 61, Type (0, 0), BuildingBlock: UVAHIK_clean_linker_0, # of connection points: 2
#     Edge 62, Type (0, 0), BuildingBlock: UVAHIK_clean_linker_0, # of connection points: 2
#     Edge 63, Type (0, 0), BuildingBlock: UVAHIK_clean_linker_0, # of connection points: 2
#     Edge 64, Type (0, 0), BuildingBlock: UVAHIK_clean_linker_0, # of connection points: 2
#     Edge 65, Type (0, 0), BuildingBlock: UVAHIK_clean_linker_0, # of connection points: 2
#     Edge 66, Type (0, 0), BuildingBlock: UVAHIK_clean_linker_0, # of connection points: 2
#     Edge 67, Type (0, 0), BuildingBlock: UVAHIK_clean_linker_0, # of connection points: 2
#     Edge 68, Type (0, 0), BuildingBlock: UVAHIK_clean_linker_0, # of connection points: 2
#     Edge 69, Type (0, 0), BuildingBlock: UVAHIK_clean_linker_0, # of connection points: 2
#     Edge 70, Type (0, 0), BuildingBlock: UVAHIK_clean_linker_0, # of connection points: 2
#     Edge 71, Type (0, 0), BuildingBlock: UVAHIK_clean_linker_0, # of connection points: 2
#     Edge 72, Type (0, 0), BuildingBlock: UVAHIK_clean_linker_0, # of connection points: 2
#     Edge 73, Type (0, 0), BuildingBlock: UVAHIK_clean_linker_0, # of connection points: 2
#     Edge 74, Type (0, 0), BuildingBlock: UVAHIK_clean_linker_0, # of connection points: 2
#     Edge 75, Type (0, 0), BuildingBlock: UVAHIK_clean_linker_0, # of connection points: 2
#     Edge 76, Type (0, 0), BuildingBlock: UVAHIK_clean_linker_0, # of connection points: 2
#     Edge 77, Type (0, 0), BuildingBlock: UVAHIK_clean_linker_0, # of connection points: 2
#     Edge 78, Type (0, 0), BuildingBlock: UVAHIK_clean_linker_0, # of connection points: 2
#     Edge 79, Type (0, 0), BuildingBlock: UVAHIK_clean_linker_0, # of connection points: 2
#     Edge 80, Type (0, 0), BuildingBlock: UVAHIK_clean_linker_0, # of connection points: 2
#     Edge 81, Type (0, 0), BuildingBlock: UVAHIK_clean_linker_0, # of connection points: 2
#     Edge 82, Type (0, 0), BuildingBlock: UVAHIK_clean_linker_0, # of connection points: 2
#     Edge 83, Type (0, 0), BuildingBlock: UVAHIK_clean_linker_0, # of connection points: 2
#     Edge 84, Type (0, 0), BuildingBlock: UVAHIK_clean_linker_0, # of connection points: 2
#     Edge 85, Type (0, 0), BuildingBlock: UVAHIK_clean_linker_0, # of connection points: 2
#     Edge 86, Type (0, 0), BuildingBlock: UVAHIK_clean_linker_0, # of connection points: 2
#     Edge 87, Type (0, 0), BuildingBlock: UVAHIK_clean_linker_0, # of connection points: 2
#     Edge 88, Type (0, 0), BuildingBlock: UVAHIK_clean_linker_0, # of connection points: 2
#     Edge 89, Type (0, 0), BuildingBlock: UVAHIK_clean_linker_0, # of connection points: 2
#     Edge 90, Type (0, 0), BuildingBlock: UVAHIK_clean_linker_0, # of connection points: 2
#     Edge 91, Type (0, 0), BuildingBlock: UVAHIK_clean_linker_0, # of connection points: 2
#     Edge 92, Type (0, 0), BuildingBlock: UVAHIK_clean_linker_0, # of connection points: 2
#     Edge 93, Type (0, 0), BuildingBlock: UVAHIK_clean_linker_0, # of connection points: 2
#     Edge 94, Type (0, 0), BuildingBlock: UVAHIK_clean_linker_0, # of connection points: 2
#     Edge 95, Type (0, 0), BuildingBlock: UVAHIK_clean_linker_0, # of connection points: 2
#     Edge 96, Type (0, 0), BuildingBlock: UVAHIK_clean_linker_0, # of connection points: 2
#     Edge 97, Type (0, 0), BuildingBlock: UVAHIK_clean_linker_0, # of connection points: 2
#     Edge 98, Type (0, 0), BuildingBlock: UVAHIK_clean_linker_0, # of connection points: 2
#     Edge 99, Type (0, 0), BuildingBlock: UVAHIK_clean_linker_0, # of connection points: 2
#     Edge 100, Type (0, 0), BuildingBlock: UVAHIK_clean_linker_0, # of connection points: 2
#     Edge 101, Type (0, 0), BuildingBlock: UVAHIK_clean_linker_0, # of connection points: 2
#     Edge 102, Type (0, 0), BuildingBlock: UVAHIK_clean_linker_0, # of connection points: 2
#     Edge 103, Type (0, 0), BuildingBlock: UVAHIK_clean_linker_0, # of connection points: 2
#     Edge 104, Type (0, 0), BuildingBlock: UVAHIK_clean_linker_0, # of connection points: 2
#     Edge 105, Type (0, 0), BuildingBlock: UVAHIK_clean_linker_0, # of connection points: 2
#     Edge 106, Type (0, 0), BuildingBlock: UVAHIK_clean_linker_0, # of connection points: 2
#     Edge 107, Type (0, 0), BuildingBlock: UVAHIK_clean_linker_0, # of connection points: 2
# Relax obj value: 0.136
# Max RMSD: 0.171
# Mean RMSD: 0.155
data_MOF--net-uma--node1-KOZSID_clean_sbu_0--edge1-UVAHIK_clean_linker_0
_symmetry_space_group_name_H-M    P1
_symmetry_Int_Tables_number       1
_symmetry_cell_setting            triclinic
loop_
_symmetry_equiv_pos_as_xyz
'x, y, z'
_cell_length_a     127.20604
_cell_length_b     131.345
_cell_length_c     56.149875
_cell_angle_alpha  88.251461
_cell_angle_beta   90.009339
_cell_angle_gamma 119.01138
loop_
_atom_site_label
_atom_site_type_symbol
_atom_site_fract_x
_atom_site_fract_y
_atom_site_fract_z
_atom_type_partial_charge
C0 C 0.09233 0.37574 0.06126 0.0
C1 C 0.08857 0.36849 0.08153 0.0
C2 C 0.08749 0.35801 0.07511 0.0
C3 C 0.09068 0.35945 0.05135 0.0
N4 N 0.0937 0.37017 0.04254 0.0
Co5 Co 0.09858 0.37582 0.00909 0.0
N6 N 0.09103 0.35973 0.9973 0.0
C7 C 0.08811 0.35006 0.01088 0.0
C8 C 0.0834 0.34014 0.99794 0.0
C9 C 0.08348 0.34381 0.97477 0.0
C10 C 0.08824 0.35582 0.97481 0.0
N11 N 0.1036 0.38151 0.97563 0.0
C12 C 0.09986 0.37584 0.95486 0.0
C13 C 0.1059 0.3833 0.93556 0.0
C14 C 0.11384 0.39384 0.94466 0.0
C15 C 0.11221 0.39232 0.96894 0.0
N16 N 0.10597 0.39185 0.02114 0.0
C17 C 0.11432 0.40154 0.00962 0.0
C18 C 0.1173 0.41144 0.02197 0.0
C19 C 0.11038 0.40769 0.0425 0.0
C20 C 0.10356 0.39568 0.0416 0.0
N21 N 0.11372 0.37557 0.01377 0.0
C22 C 0.13615 0.37654 0.0189 0.0
C23 C 0.13165 0.3809 0.03637 0.0
C24 C 0.12042 0.38027 0.03355 0.0
C25 C 0.12897 0.37141 0.99914 0.0
C26 C 0.11788 0.37108 0.99686 0.0
N27 N 0.08366 0.37625 1.00452 0.0
C28 C 0.07376 0.38732 0.99398 0.0
C29 C 0.06332 0.37892 0.00559 0.0
C30 C 0.06295 0.36884 0.0154 0.0
C31 C 0.07319 0.36759 0.01435 0.0
C32 C 0.08389 0.38584 0.99374 0.0
H33 H 0.07282 0.35986 0.0224 0.0
H34 H 0.09205 0.39271 0.98575 0.0
H35 H 0.11725 0.38377 0.0472 0.0
H36 H 0.11275 0.36728 0.98119 0.0
C37 C 0.08851 0.3505 0.03583 0.0
C38 C 0.0952 0.38802 0.0606 0.0
C39 C 0.0913 0.36329 0.95296 0.0
C40 C 0.11711 0.40117 0.98557 0.0
H41 H 0.08674 0.37054 0.09905 0.0
H42 H 0.08416 0.35013 0.08614 0.0
H43 H 0.08009 0.33127 1.00459 0.0
H44 H 0.08065 0.3383 0.95953 0.0
H45 H 0.10475 0.38135 0.91686 0.0
H46 H 0.1198 0.40176 0.93469 0.0
H47 H 0.12327 0.42037 0.01616 0.0
H48 H 0.11028 0.4132 0.05632 0.0
H49 H 0.13685 0.38503 0.05188 0.0
H50 H 0.13186 0.36765 0.98541 0.0
H51 H 0.07423 0.39515 0.98602 0.0
H52 H 0.05486 0.3621 0.02414 0.0
C53 C 0.62666 0.71168 0.06204 0.0
C54 C 0.63464 0.71488 0.08081 0.0
C55 C 0.64569 0.72264 0.07162 0.0
C56 C 0.64394 0.7237 0.04781 0.0
N57 N 0.63237 0.71724 0.04127 0.0
Co58 Co 0.62618 0.71557 0.00787 0.0
N59 N 0.64287 0.72431 0.99365 0.0
C60 C 0.65326 0.7289 0.00582 0.0
C61 C 0.66336 0.73386 0.99153 0.0
C62 C 0.65921 0.73229 0.9688 0.0
C63 C 0.64674 0.72653 0.97051 0.0
N64 N 0.61998 0.71421 0.97455 0.0
C65 C 0.62593 0.7177 0.95315 0.0
C66 C 0.61801 0.71532 0.93449 0.0
C67 C 0.6067 0.71006 0.94435 0.0
C68 C 0.60831 0.70959 0.96842 0.0
N69 N 0.60956 0.70621 0.02206 0.0
C70 C 0.59912 0.70177 0.01007 0.0
C71 C 0.58919 0.69485 0.02402 0.0
C72 C 0.59356 0.69457 0.04613 0.0
C73 C 0.60597 0.70135 0.04439 0.0
N74 N 0.62553 0.7304 0.01055 0.0
C75 C 0.62475 0.75156 0.01192 0.0
C76 C 0.61444 0.74106 0.0076 0.0
C77 C 0.61501 0.73072 0.00711 0.0
C78 C 0.63543 0.75125 0.01607 0.0
C79 C 0.63562 0.7407 0.01531 0.0
N80 N 0.62666 0.70087 1.00532 0.0
C81 C 0.61666 0.68057 0.99557 0.0
C82 C 0.6249 0.67883 0.00894 0.0
C83 C 0.63447 0.68836 0.01917 0.0
C84 C 0.6353 0.69931 0.01677 0.0
C85 C 0.61767 0.69162 0.99408 0.0
H86 H 0.64281 0.70635 0.02485 0.0
H87 H 0.61087 0.69241 0.98437 0.0
H88 H 0.60677 0.72314 1.00381 0.0
H89 H 0.64408 0.74118 0.01844 0.0
C90 C 0.65319 0.72862 0.0307 0.0
C91 C 0.61396 0.7027 0.06435 0.0
C92 C 0.63901 0.72336 0.9496 0.0
C93 C 0.59907 0.70378 0.98543 0.0
H94 H 0.63289 0.71156 0.09904 0.0
H95 H 0.65415 0.72634 0.08087 0.0
H96 H 0.67264 0.73808 0.997 0.0
H97 H 0.66476 0.73506 0.95279 0.0
H98 H 0.62018 0.71711 0.91566 0.0
H99 H 0.59828 0.70672 0.93501 0.0
H100 H 0.5799 0.69024 0.0186 0.0
H101 H 0.58824 0.68973 0.06165 0.0
H102 H 0.60588 0.74078 1.00477 0.0
H103 H 0.6437 0.75916 0.01941 0.0
H104 H 0.60926 0.67337 0.98703 0.0
H105 H 0.64123 0.68733 0.02906 0.0
C106 C 0.28871 0.91287 0.07186 0.0
C107 C 0.28393 0.91525 0.09179 0.0
C108 C 0.27393 0.91583 0.0844 0.0
C109 C 0.27311 0.91371 0.06047 0.0
N110 N 0.28195 0.91183 0.05245 0.0
Co111 Co 0.28403 0.90837 0.0192 0.0
N112 N 0.27411 0.91514 0.00643 0.0
C113 C 0.26627 0.91695 0.01932 0.0
C114 C 0.26035 0.92139 0.0058 0.0
C115 C 0.26462 0.92232 0.98295 0.0
C116 C 0.27298 0.91839 0.98376 0.0
N117 N 0.286 0.90478 0.98589 0.0
C118 C 0.28383 0.90878 0.96486 0.0
C119 C 0.28646 0.90384 0.94582 0.0
C120 C 0.29012 0.89634 0.95534 0.0
C121 C 0.2896 0.89714 0.97959 0.0
N122 N 0.29404 0.90175 0.03223 0.0
C123 C 0.29693 0.89457 0.02083 0.0
C124 C 0.30484 0.89226 0.03338 0.0
C125 C 0.30703 0.89835 0.05392 0.0
C126 C 0.30016 0.90396 0.05301 0.0
N127 N 0.2696 0.89311 0.02297 0.0
C128 C 0.24901 0.87118 0.02789 0.0
C129 C 0.25763 0.87528 0.04583 0.0
C130 C 0.26783 0.88626 0.04305 0.0
C131 C 0.25098 0.8783 0.00744 0.0
C132 C 0.26128 0.88917 1.00534 0.0
N133 N 0.2984 0.92345 0.01557 0.0
C134 C 0.3194 0.93463 1.0053 0.0
C135 C 0.31997 0.94421 0.01649 0.0
C136 C 0.30948 0.94344 0.02621 0.0
C137 C 0.29872 0.93301 0.02523 0.0
C138 C 0.30853 0.92427 1.0052 0.0
H139 H 0.29075 0.93255 0.03298 0.0
H140 H 0.30843 0.91684 0.99743 0.0
H141 H 0.27429 0.88922 0.05717 0.0
H142 H 0.2625 0.89437 0.98931 0.0
C143 C 0.26588 0.91575 0.04428 0.0
C144 C 0.29922 0.91098 0.07222 0.0
C145 C 0.2785 0.91655 0.96239 0.0
C146 C 0.29429 0.89245 0.99664 0.0
H147 H 0.28731 0.91646 0.10975 0.0
H148 H 0.2683 0.9181 0.09498 0.0
H149 H 0.25385 0.92386 0.01186 0.0
H150 H 0.2617 0.92526 0.96739 0.0
H151 H 0.28577 0.90542 0.92702 0.0
H152 H 0.2932 0.89125 0.94567 0.0
H153 H 0.30917 0.88739 0.02761 0.0
H154 H 0.3132 0.89877 0.06755 0.0
H155 H 0.25644 0.87013 0.06205 0.0
H156 H 0.2447 0.87544 0.99291 0.0
H157 H 0.32738 0.93502 0.99745 0.0
H158 H 0.30962 0.95083 0.03458 0.0
C159 C 0.37678 0.08903 0.93688 0.0
C160 C 0.36951 0.08581 0.91701 0.0
C161 C 0.35861 0.08456 0.92413 0.0
C162 C 0.35983 0.08715 0.94782 0.0
N163 N 0.37081 0.08997 0.95598 0.0
Co164 Co 0.37635 0.09445 0.98894 0.0
N165 N 0.35962 0.08702 1.00187 0.0
C166 C 0.34971 0.08402 0.98885 0.0
C167 C 0.33931 0.07875 1.00232 0.0
C168 C 0.3429 0.07857 0.02528 0.0
C169 C 0.35538 0.08391 0.02466 0.0
N170 N 0.38189 0.09902 0.02193 0.0
C171 C 0.37586 0.09518 0.04315 0.0
C172 C 0.38324 0.10121 0.06176 0.0
C173 C 0.39418 0.10905 0.05179 0.0
C174 C 0.39291 0.10745 0.02769 0.0
N175 N 0.39301 0.10174 0.97576 0.0
C176 C 0.40289 0.10968 0.98663 0.0
C177 C 0.41327 0.11242 0.97417 0.0
C178 C 0.40966 0.10581 0.95424 0.0
C179 C 0.3972 0.09947 0.95539 0.0
N180 N 0.37609 0.10914 0.98356 0.0
C181 C 0.37677 0.13075 0.97751 0.0
C182 C 0.38147 0.12665 0.95989 0.0
C183 C 0.38099 0.11582 0.96322 0.0
C184 C 0.37161 0.12369 0.99804 0.0
C185 C 0.37134 0.11298 1.00069 0.0
N186 N 0.37676 0.07997 0.99439 0.0
C187 C 0.38729 0.07003 0.00855 0.0
C188 C 0.37812 0.05952 1.00042 0.0
C189 C 0.36818 0.05941 0.98942 0.0
C190 C 0.36764 0.06973 0.9867 0.0
C191 C 0.38646 0.08016 1.00528 0.0
H192 H 0.3599 0.06945 0.97827 0.0
H193 H 0.39375 0.08816 0.01137 0.0
H194 H 0.3847 0.11289 0.94942 0.0
H195 H 0.36745 0.10791 0.01688 0.0
C196 C 0.35041 0.08471 0.96388 0.0
C197 C 0.38945 0.09174 0.93671 0.0
C198 C 0.36292 0.0868 0.04609 0.0
C199 C 0.40222 0.11229 0.01047 0.0
H200 H 0.37183 0.08447 0.89927 0.0
H201 H 0.35059 0.08154 0.91357 0.0
H202 H 0.33017 0.07512 0.99612 0.0
H203 H 0.33695 0.07497 0.04065 0.0
H204 H 0.38091 0.10019 0.08054 0.0
H205 H 0.40218 0.11497 0.06109 0.0
H206 H 0.42242 0.11797 0.97964 0.0
H207 H 0.41562 0.10559 0.94082 0.0
H208 H 0.38543 0.13174 0.94361 0.0
H209 H 0.36803 0.12653 0.01232 0.0
H210 H 0.39513 0.07045 0.01709 0.0
H211 H 0.3608 0.05139 0.98328 0.0
C212 C 0.91726 0.29188 0.95151 0.0
C213 C 0.92223 0.289 0.93261 0.0
C214 C 0.92581 0.28142 0.94161 0.0
C215 C 0.92277 0.28003 0.96537 0.0
N216 N 0.91728 0.28611 0.97203 0.0
Co217 Co 0.91166 0.28675 1.00509 0.0
N218 N 0.91962 0.27804 0.01934 0.0
C219 C 0.92572 0.27373 0.00728 0.0
C220 C 0.93043 0.26837 0.02161 0.0
C221 C 0.92727 0.26942 0.04426 0.0
C222 C 0.92082 0.27542 0.04248 0.0
N223 N 0.9058 0.28713 0.03812 0.0
C224 C 0.90799 0.2834 0.05953 0.0
C225 C 0.90213 0.28549 0.07802 0.0
C226 C 0.89601 0.29064 0.06801 0.0
C227 C 0.89847 0.29145 0.04404 0.0
N228 N 0.90428 0.29602 0.99084 0.0
C229 C 0.89779 0.29997 1.00268 0.0
C230 C 0.89492 0.30705 0.98894 0.0
C231 C 0.90012 0.30791 0.96714 0.0
C232 C 0.90583 0.30121 0.96875 0.0
N233 N 0.89652 0.2718 1.00032 0.0
C234 C 0.87499 0.25036 0.99746 0.0
C235 C 0.87477 0.2606 1.00236 0.0
C236 C 0.88549 0.27109 1.00356 0.0
C237 C 0.88615 0.25109 0.99317 0.0
C238 C 0.89669 0.26179 0.99466 0.0
N239 N 0.92649 0.30153 0.00986 0.0
C240 C 0.9362 0.32135 0.0227 0.0
C241 C 0.94706 0.32338 0.01254 0.0
C242 C 0.94759 0.31418 1.00176 0.0
C243 C 0.93727 0.30335 1.00078 0.0
C244 C 0.92609 0.31043 0.02118 0.0
H245 H 0.93812 0.29659 0.99235 0.0
H246 H 0.91799 0.30945 0.02893 0.0
H247 H 0.88452 0.27845 0.00734 0.0
H248 H 0.90484 0.26163 0.99143 0.0
C249 C 0.92669 0.2747 0.98241 0.0
C250 C 0.91309 0.30047 0.94925 0.0
C251 C 0.91584 0.2782 0.06329 0.0
C252 C 0.89522 0.29744 0.02709 0.0
H253 H 0.92349 0.29233 0.91437 0.0
H254 H 0.93065 0.27785 0.93221 0.0
H255 H 0.93552 0.26418 0.01623 0.0
H256 H 0.92943 0.26606 0.06027 0.0
H257 H 0.90244 0.28373 0.09687 0.0
H258 H 0.89075 0.2938 0.07723 0.0
H259 H 0.89002 0.31143 0.99438 0.0
H260 H 0.90001 0.31316 0.95202 0.0
H261 H 0.86633 0.26056 1.00523 0.0
H262 H 0.88679 0.24338 0.98926 0.0
H263 H 0.93542 0.32823 0.03133 0.0
H264 H 0.95594 0.3153 0.99422 0.0
C265 C 0.71721 0.62638 0.95027 0.0
C266 C 0.72016 0.63349 0.92984 0.0
C267 C 0.72938 0.64417 0.93575 0.0
C268 C 0.73156 0.64298 0.95935 0.0
N269 N 0.72431 0.63223 0.96859 0.0
Co270 Co 0.72434 0.62685 1.002 0.0
N271 N 0.7328 0.64306 0.01333 0.0
C272 C 0.73885 0.65273 0.99933 0.0
C273 C 0.74364 0.66277 0.01186 0.0
C274 C 0.74057 0.6592 0.03522 0.0
C275 C 0.73416 0.6471 0.03576 0.0
N276 N 0.72443 0.62146 0.03541 0.0
C277 C 0.72668 0.62726 0.05608 0.0
C278 C 0.72626 0.62013 0.07526 0.0
C279 C 0.72374 0.6096 0.06622 0.0
C280 C 0.72279 0.61084 0.04207 0.0
N281 N 0.7158 0.61071 0.99045 0.0
C282 C 0.71499 0.60123 1.00196 0.0
C283 C 0.70814 0.59118 0.99 0.0
C284 C 0.70445 0.5946 0.96972 0.0
C285 C 0.70932 0.6066 0.97035 0.0
N286 N 0.73982 0.62748 0.9961 0.0
C287 C 0.76111 0.62628 0.99035 0.0
C288 C 0.7521 0.6219 0.97316 0.0
C289 C 0.74158 0.62265 0.97629 0.0
C290 C 0.75939 0.63172 0.00993 0.0
C291 C 0.74873 0.63218 0.01251 0.0
N292 N 0.70889 0.62603 0.00794 0.0
C293 C 0.68844 0.61504 0.02211 0.0
C294 C 0.68597 0.62359 0.0126 0.0
C295 C 0.69529 0.63357 1.00135 0.0
C296 C 0.70671 0.63465 0.99935 0.0
C297 C 0.69994 0.61641 0.01953 0.0
H298 H 0.71372 0.64235 0.99046 0.0
H299 H 0.70151 0.60954 0.02644 0.0
H300 H 0.73473 0.61903 0.96298 0.0
H301 H 0.74761 0.63614 0.02814 0.0
C302 C 0.73833 0.65213 0.97444 0.0
C303 C 0.70813 0.61397 0.95133 0.0
C304 C 0.73047 0.63975 0.05788 0.0
C305 C 0.71872 0.60188 0.02567 0.0
H306 H 0.71605 0.63122 0.91254 0.0
H307 H 0.73353 0.65202 0.9245 0.0
H308 H 0.74847 0.67165 1.00481 0.0
H309 H 0.74291 0.66489 0.05012 0.0
H310 H 0.72784 0.62238 0.09379 0.0
H311 H 0.72247 0.60189 0.07617 0.0
H312 H 0.70559 0.58235 0.99588 0.0
H313 H 0.69876 0.5889 0.9562 0.0
H314 H 0.75295 0.61758 0.95775 0.0
H315 H 0.76619 0.63553 0.02338 0.0
H316 H 0.68147 0.60722 0.03095 0.0
H317 H 0.69378 0.64049 0.99421 0.0
C318 C 0.88188 0.63293 0.9631 0.0
C319 C 0.88014 0.64167 0.95235 0.0
C320 C 0.89122 0.65047 0.94567 0.0
C321 C 0.89907 0.64671 0.9529 0.0
N322 N 0.8937 0.63595 0.96349 0.0
Co323 Co 0.9019 0.62779 0.97909 0.0
N324 N 0.91819 0.64129 0.97143 0.0
C325 C 0.92068 0.65092 0.95791 0.0
C326 C 0.93271 0.6584 0.95458 0.0
C327 C 0.93828 0.65329 0.96682 0.0
C328 C 0.92925 0.64299 0.9772 0.0
N329 N 0.9101 0.61987 0.99576 0.0
C330 C 0.9219 0.62392 1.00059 0.0
C331 C 0.92365 0.61587 0.01415 0.0
C332 C 0.91258 0.60637 0.01793 0.0
C333 C 0.90472 0.60919 0.00672 0.0
N334 N 0.88559 0.61411 0.98592 0.0
C335 C 0.88314 0.60366 0.99588 0.0
C336 C 0.87108 0.59598 0.99828 0.0
C337 C 0.86549 0.6019 0.98955 0.0
C338 C 0.8745 0.61293 0.98245 0.0
N339 N 0.90263 0.62092 0.9484 0.0
C340 C 0.90718 0.61241 0.90628 0.0
C341 C 0.90404 0.60577 0.92757 0.0
C342 C 0.90171 0.61009 0.9481 0.0
C343 C 0.90732 0.62312 0.90613 0.0
C344 C 0.90495 0.62713 0.92717 0.0
N345 N 0.90137 0.63461 0.00966 0.0
C346 C 0.89705 0.63219 0.05191 0.0
C347 C 0.90285 0.64424 0.0544 0.0
C348 C 0.90735 0.6514 0.03384 0.0
C349 C 0.90645 0.64643 0.01174 0.0
C350 C 0.89644 0.62761 0.02961 0.0
H351 H 0.91015 0.65229 0.99663 0.0
H352 H 0.89213 0.61835 0.02905 0.0
H353 H 0.8995 0.60458 0.96359 0.0
H354 H 0.90528 0.63537 0.9258 0.0
C355 C 0.91154 0.65315 0.95032 0.0
C356 C 0.87209 0.62211 0.97335 0.0
C357 C 0.93167 0.63535 0.993 0.0
C358 C 0.89227 0.60194 0.00578 0.0
H359 H 0.87179 0.64182 0.94993 0.0
H360 H 0.89331 0.65874 0.93703 0.0
H361 H 0.93693 0.66671 0.94488 0.0
H362 H 0.9479 0.65685 0.96821 0.0
H363 H 0.93204 0.61677 0.02076 0.0
H364 H 0.9105 0.59839 0.02782 0.0
H365 H 0.86685 0.58729 0.00638 0.0
H366 H 0.85587 0.5986 0.98904 0.0
H367 H 0.90379 0.59741 0.92875 0.0
H368 H 0.90935 0.62845 0.8899 0.0
H369 H 0.89309 0.62626 0.06717 0.0
H370 H 0.9119 0.6608 0.03482 0.0
C371 C 0.39437 0.29234 0.95137 0.0
C372 C 0.40664 0.30007 0.95075 0.0
C373 C 0.41102 0.29881 0.97234 0.0
C374 C 0.40122 0.29051 0.98502 0.0
N375 N 0.39099 0.28651 0.97267 0.0
Co376 Co 0.37467 0.27523 0.98447 0.0
N377 N 0.37967 0.27817 0.01802 0.0
C378 C 0.39105 0.28312 0.02583 0.0
C379 C 0.39172 0.28441 0.05003 0.0
C380 C 0.38005 0.27988 0.05788 0.0
C381 C 0.37285 0.27593 0.03796 0.0
N382 N 0.35833 0.26387 0.9961 0.0
C383 C 0.35327 0.2626 0.01793 0.0
C384 C 0.34167 0.25323 0.01875 0.0
C385 C 0.3395 0.24852 0.99659 0.0
C386 C 0.34986 0.25522 0.98351 0.0
N387 N 0.36974 0.27232 0.95093 0.0
C388 C 0.36018 0.26283 0.94275 0.0
C389 C 0.35907 0.26355 0.91847 0.0
C390 C 0.36854 0.27413 0.91112 0.0
C391 C 0.37487 0.27928 0.93142 0.0
N392 N 0.37884 0.2627 0.98433 0.0
C393 C 0.3815 0.24278 0.9818 0.0
C394 C 0.3858 0.25131 0.96329 0.0
C395 C 0.38441 0.26122 0.96493 0.0
C396 C 0.37654 0.24484 1.00216 0.0
C397 C 0.3753 0.2548 1.00307 0.0
N398 N 0.37028 0.28758 0.98461 0.0
C399 C 0.35602 0.29409 0.97507 0.0
C400 C 0.3633 0.30478 0.9855 0.0
C401 C 0.37422 0.30671 0.99536 0.0
C402 C 0.37758 0.29803 0.99458 0.0
C403 C 0.35964 0.28563 0.97491 0.0
H404 H 0.38605 0.29973 1.00217 0.0
H405 H 0.35373 0.27744 0.9671 0.0
H406 H 0.38743 0.26747 0.95013 0.0
H407 H 0.37107 0.25586 0.0187 0.0
C408 C 0.40077 0.28838 0.00968 0.0
C409 C 0.38606 0.29041 0.93169 0.0
C410 C 0.35962 0.26936 0.03863 0.0
C411 C 0.35131 0.25488 0.95877 0.0
H412 H 0.41192 0.30619 0.93658 0.0
H413 H 0.42011 0.30392 0.97858 0.0
H414 H 0.39975 0.28863 0.06059 0.0
H415 H 0.37723 0.27956 0.07619 0.0
H416 H 0.33549 0.25003 0.03385 0.0
H417 H 0.33123 0.24131 0.99058 0.0
H418 H 0.35191 0.25742 0.90757 0.0
H419 H 0.37055 0.27767 0.89302 0.0
H420 H 0.38974 0.25012 0.94723 0.0
H421 H 0.37338 0.23866 0.01718 0.0
H422 H 0.34743 0.29214 0.96757 0.0
H423 H 0.38014 0.31489 1.00348 0.0
C424 C 0.71658 0.10591 0.97005 0.0
C425 C 0.7086 0.11027 0.96847 0.0
C426 C 0.70751 0.11349 0.99082 0.0
C427 C 0.71486 0.11093 1.00463 0.0
N428 N 0.72084 0.10657 0.99234 0.0
Co429 Co 0.73174 0.10081 1.00536 0.0
N430 N 0.7284 0.10343 0.03886 0.0
C431 C 0.72168 0.10827 0.04587 0.0
C432 C 0.72104 0.10892 0.07009 0.0
C433 C 0.72773 0.1042 0.07912 0.0
C434 C 0.73208 0.10093 0.05978 0.0
N435 N 0.74239 0.09473 0.01843 0.0
C436 C 0.74456 0.09285 0.04133 0.0
C437 C 0.7523 0.08821 0.0427 0.0
C438 C 0.7551 0.08707 0.01981 0.0
C439 C 0.74892 0.09105 0.00584 0.0
N440 N 0.73514 0.09833 0.97177 0.0
C441 C 0.74303 0.0949 0.96441 0.0
C442 C 0.74275 0.09324 0.94038 0.0
C443 C 0.73399 0.09552 0.93198 0.0
C444 C 0.72946 0.09849 0.95145 0.0
N445 N 0.7457 0.11696 1.00333 0.0
C446 C 0.76568 0.1397 1.00039 0.0
C447 C 0.76674 0.13005 0.9941 0.0
C448 C 0.75678 0.11893 0.99566 0.0
C449 C 0.75443 0.13778 0.00832 0.0
C450 C 0.74466 0.12645 0.00963 0.0
N451 N 0.71793 0.0848 0.00724 0.0
C452 C 0.70921 0.06459 0.99723 0.0
C453 C 0.69821 0.06211 0.00754 0.0
C454 C 0.69727 0.07114 0.01815 0.0
C455 C 0.70718 0.0824 0.01763 0.0
C456 C 0.71888 0.07585 0.99745 0.0
H457 H 0.70596 0.08907 0.02553 0.0
H458 H 0.72703 0.07713 0.98947 0.0
H459 H 0.7584 0.11211 0.99064 0.0
H460 H 0.73639 0.12566 0.0158 0.0
C461 C 0.71553 0.11151 0.0294 0.0
C462 C 0.71912 0.10043 0.9504 0.0
C463 C 0.73953 0.09535 0.06225 0.0
C464 C 0.74903 0.09142 0.98089 0.0
H465 H 0.70375 0.11066 0.95293 0.0
H466 H 0.70164 0.11679 0.99652 0.0
H467 H 0.71612 0.11224 0.08 0.0
H468 H 0.72915 0.10317 0.09785 0.0
H469 H 0.75557 0.08588 0.05861 0.0
H470 H 0.7609 0.0837 0.01405 0.0
H471 H 0.74774 0.09002 0.93041 0.0
H472 H 0.73095 0.09458 0.91379 0.0
H473 H 0.7753 0.131 0.98831 0.0
H474 H 0.75309 0.14498 0.01327 0.0
H475 H 0.71041 0.05781 0.98925 0.0
H476 H 0.6889 0.06956 0.02641 0.0
C477 C 0.6099 0.89593 0.037 0.0
C478 C 0.59765 0.89223 0.03726 0.0
C479 C 0.5938 0.88925 0.01457 0.0
C480 C 0.60388 0.8914 1.00179 0.0
N481 N 0.61388 0.89525 0.01504 0.0
Co482 Co 0.63076 0.90092 1.00326 0.0
N483 N 0.62551 0.89877 0.96931 0.0
C484 C 0.6141 0.89387 0.96142 0.0
C485 C 0.61328 0.8934 0.93711 0.0
C486 C 0.62487 0.89829 0.92895 0.0
C487 C 0.63211 0.9015 0.94888 0.0
N488 N 0.64774 0.90715 0.9915 0.0
C489 C 0.65228 0.90947 0.96894 0.0
C490 C 0.66469 0.91424 0.96858 0.0
C491 C 0.66814 0.91499 0.99178 0.0
C492 C 0.65768 0.9107 1.00493 0.0
N493 N 0.63591 0.90271 0.03726 0.0
C494 C 0.64696 0.90557 0.04553 0.0
C495 C 0.64776 0.90656 0.06981 0.0
C496 C 0.63665 0.90443 0.07737 0.0
C497 C 0.62971 0.90231 0.05717 0.0
N498 N 0.62836 0.88468 1.00469 0.0
C499 C 0.62525 0.86181 0.00742 0.0
C500 C 0.63625 0.87144 0.01248 0.0
C501 C 0.63759 0.88262 0.01102 0.0
C502 C 0.61582 0.86382 1.00065 0.0
C503 C 0.61755 0.87522 0.99944 0.0
N504 N 0.63318 0.91699 1.00203 0.0
C505 C 0.6441 0.93678 0.01493 0.0
C506 C 0.63627 0.93967 1.00293 0.0
C507 C 0.62697 0.9311 0.98997 0.0
C508 C 0.62551 0.91981 0.98997 0.0
C509 C 0.64251 0.92555 0.01402 0.0
H510 H 0.61809 0.91344 0.98033 0.0
H511 H 0.6489 0.92396 0.0233 0.0
H512 H 0.64625 0.88939 0.01508 0.0
H513 H 0.60998 0.87609 0.99427 0.0
C514 C 0.60444 0.89078 0.97711 0.0
C515 C 0.61761 0.90083 0.05745 0.0
C516 C 0.64519 0.90725 0.94742 0.0
C517 C 0.65682 0.90952 0.02984 0.0
H518 H 0.59211 0.89207 0.05201 0.0
H519 H 0.58484 0.8864 0.00796 0.0
H520 H 0.60524 0.89016 0.92656 0.0
H521 H 0.62768 0.89948 0.91042 0.0
H522 H 0.67063 0.91688 0.95312 0.0
H523 H 0.67718 0.91825 0.99828 0.0
H524 H 0.6557 0.90931 0.08052 0.0
H525 H 0.63407 0.90491 0.0955 0.0
H526 H 0.64395 0.87041 0.01728 0.0
H527 H 0.60708 0.85664 0.99662 0.0
H528 H 0.65155 0.94325 0.02481 0.0
H529 H 0.62074 0.93305 0.98033 0.0
C530 C 0.10229 0.71112 0.05909 0.0
C531 C 0.10679 0.70338 0.05994 0.0
C532 C 0.11234 0.70452 0.03823 0.0
C533 C 0.11091 0.71286 0.02545 0.0
N534 N 0.10484 0.71698 0.03788 0.0
Co535 Co 0.10033 0.72868 0.0266 0.0
N536 N 0.10206 0.72567 0.99297 0.0
C537 C 0.1084 0.72069 0.98487 0.0
C538 C 0.1081 0.71995 0.96052 0.0
C539 C 0.10124 0.72485 0.95293 0.0
C540 C 0.09769 0.72829 0.97319 0.0
N541 N 0.09584 0.74044 0.0154 0.0
C542 C 0.092 0.74187 0.99373 0.0
C543 C 0.08981 0.75125 0.9934 0.0
C544 C 0.09259 0.75591 0.01559 0.0
C545 C 0.09627 0.74911 0.02827 0.0
N546 N 0.09872 0.73166 0.06031 0.0
C547 C 0.099 0.74126 0.06875 0.0
C548 C 0.09723 0.74047 0.09306 0.0
C549 C 0.09575 0.72972 0.10014 0.0
C550 C 0.09672 0.72457 0.07967 0.0
N551 N 0.11722 0.74081 0.02647 0.0
C552 C 0.14017 0.76028 0.02853 0.0
C553 C 0.13305 0.75842 0.00837 0.0
C554 C 0.12168 0.74869 0.0077 0.0
C555 C 0.13584 0.75176 0.04705 0.0
C556 C 0.12435 0.74206 0.04564 0.0
N557 N 0.08342 0.71674 0.02666 0.0
C558 C 0.06284 0.71102 0.03616 0.0
C559 C 0.05886 0.70062 0.02411 0.0
C560 C 0.06757 0.69827 0.01421 0.0
C561 C 0.07979 0.7064 0.01584 0.0
C562 C 0.07505 0.71897 0.03698 0.0
H563 H 0.08631 0.70446 0.00789 0.0
H564 H 0.07771 0.72703 0.04569 0.0
H565 H 0.11632 0.74782 0.99226 0.0
H566 H 0.12104 0.73581 0.06044 0.0
C567 C 0.1127 0.71515 1.00078 0.0
C568 C 0.0961 0.71316 0.07878 0.0
C569 C 0.09123 0.73502 0.97291 0.0
C570 C 0.09819 0.74935 0.05296 0.0
H571 H 0.10605 0.69752 0.0746 0.0
H572 H 0.11632 0.6994 0.0321 0.0
H573 H 0.11205 0.71599 0.94962 0.0
H574 H 0.09921 0.72589 0.93459 0.0
H575 H 0.0866 0.75444 0.97867 0.0
H576 H 0.09161 0.7631 0.02193 0.0
H577 H 0.09638 0.74665 0.10414 0.0
H578 H 0.09402 0.72605 0.11815 0.0
H579 H 0.13614 0.76459 0.99333 0.0
H580 H 0.14104 0.75281 0.06294 0.0
H581 H 0.05655 0.71314 0.04475 0.0
H582 H 0.065 0.69039 1.00464 0.0
C583 C 0.24936 0.36738 0.04841 0.0
C584 C 0.23921 0.3589 0.06052 0.0
C585 C 0.24153 0.35009 0.06681 0.0
C586 C 0.25288 0.35361 0.05814 0.0
N587 N 0.25803 0.36422 0.04689 0.0
Co588 Co 0.27424 0.37237 0.03065 0.0
N589 N 0.27673 0.35853 0.03636 0.0
C590 C 0.26899 0.34826 0.04737 0.0
C591 C 0.27295 0.34024 0.04798 0.0
C592 C 0.28388 0.34569 0.03665 0.0
C593 C 0.286 0.3568 0.02989 0.0
N594 N 0.29057 0.38063 0.01487 0.0
C595 C 0.29867 0.37692 0.01094 0.0
C596 C 0.3091 0.38558 1.0 0.0
C597 C 0.30754 0.3951 0.99685 0.0
C598 C 0.29631 0.39175 0.00608 0.0
N599 N 0.27153 0.38605 0.02418 0.0
C600 C 0.27928 0.39637 0.01338 0.0
C601 C 0.27471 0.40386 0.01045 0.0
C602 C 0.26326 0.39789 0.01949 0.0
C603 C 0.26151 0.38705 0.0274 0.0
N604 N 0.28187 0.37875 0.0616 0.0
C605 C 0.29597 0.38736 0.10248 0.0
C606 C 0.2965 0.39488 0.08383 0.0
C607 C 0.28943 0.39044 0.06381 0.0
C608 C 0.28757 0.37556 0.1011 0.0
C609 C 0.28057 0.3715 0.08081 0.0
N610 N 0.26683 0.36605 0.99979 0.0
C611 C 0.26611 0.36851 0.95715 0.0
C612 C 0.25754 0.3568 0.95534 0.0
C613 C 0.25342 0.34987 0.97623 0.0
C614 C 0.2581 0.35466 0.99815 0.0
C615 C 0.2706 0.37292 0.97937 0.0
H616 H 0.25464 0.34898 0.01351 0.0
H617 H 0.27726 0.38186 0.97956 0.0
H618 H 0.2905 0.39667 0.0502 0.0
H619 H 0.27443 0.36242 0.08087 0.0
C620 C 0.25821 0.34652 0.05749 0.0
C621 C 0.25008 0.37793 0.03738 0.0
C622 C 0.29697 0.36538 0.0175 0.0
C623 C 0.29067 0.39862 0.00562 0.0
H624 H 0.23079 0.35882 0.06378 0.0
H625 H 0.23542 0.34183 0.07558 0.0
H626 H 0.26845 0.3315 0.0558 0.0
H627 H 0.28964 0.3419 0.03374 0.0
H628 H 0.31702 0.38506 0.99483 0.0
H629 H 0.31379 0.40344 0.9886 0.0
H630 H 0.27909 0.41254 1.00229 0.0
H631 H 0.25685 0.40107 0.01992 0.0
H632 H 0.30252 0.40418 0.08442 0.0
H633 H 0.28669 0.36934 0.11514 0.0
H634 H 0.26964 0.37419 0.94142 0.0
H635 H 0.24664 0.34078 0.97569 0.0
C636 C 0.76005 0.71061 0.39578 0.0
C637 C 0.75593 0.70338 0.41609 0.0
C638 C 0.75284 0.69242 0.40918 0.0
C639 C 0.75537 0.69357 0.38521 0.0
N640 N 0.76013 0.70464 0.37648 0.0
Co641 Co 0.76527 0.71011 0.34262 0.0
N642 N 0.75788 0.69371 0.33129 0.0
C643 C 0.75211 0.68386 0.34507 0.0
C644 C 0.74704 0.67388 0.33244 0.0
C645 C 0.7496 0.67755 0.30912 0.0
C646 C 0.75627 0.68963 0.30882 0.0
N647 N 0.77069 0.71555 0.30881 0.0
C648 C 0.76842 0.70947 0.28848 0.0
C649 C 0.77427 0.71679 0.26893 0.0
C650 C 0.78024 0.72786 0.27707 0.0
C651 C 0.77781 0.7267 0.3011 0.0
N652 N 0.77199 0.72647 0.35389 0.0
C653 C 0.77802 0.73635 0.34029 0.0
C654 C 0.78005 0.7462 0.35168 0.0
C655 C 0.77478 0.74239 0.37371 0.0
C656 C 0.76994 0.73036 0.37473 0.0
N657 N 0.78087 0.71027 0.34862 0.0
C658 C 0.80309 0.71043 0.35491 0.0
C659 C 0.80268 0.72046 0.34735 0.0
C660 C 0.79165 0.72021 0.34459 0.0
C661 C 0.79213 0.70034 0.35962 0.0
C662 C 0.78127 0.70044 0.35631 0.0
N663 N 0.75001 0.71007 0.33667 0.0
C664 C 0.73941 0.7196 0.32009 0.0
C665 C 0.72877 0.7113 0.33124 0.0
C666 C 0.72883 0.70218 0.34464 0.0
C667 C 0.73949 0.7017 0.347 0.0
C668 C 0.74986 0.71882 0.32301 0.0
H669 H 0.7391 0.69456 0.35741 0.0
H670 H 0.75776 0.7255 0.31434 0.0
H671 H 0.79218 0.72822 0.33897 0.0
H672 H 0.77335 0.69241 0.36005 0.0
C673 C 0.75152 0.6843 0.36985 0.0
C674 C 0.76309 0.72291 0.39544 0.0
C675 C 0.76075 0.69682 0.28676 0.0
C676 C 0.78069 0.73595 0.31623 0.0
H677 H 0.75484 0.70571 0.43388 0.0
H678 H 0.7486 0.68446 0.42008 0.0
H679 H 0.74192 0.66499 0.33933 0.0
H680 H 0.74671 0.67191 0.2941 0.0
H681 H 0.7741 0.71441 0.2506 0.0
H682 H 0.78538 0.73584 0.26657 0.0
H683 H 0.78434 0.75506 0.34443 0.0
H684 H 0.77425 0.74788 0.38706 0.0
H685 H 0.81084 0.72851 0.34308 0.0
H686 H 0.79186 0.69235 0.36598 0.0
H687 H 0.73975 0.7268 0.30952 0.0
H688 H 0.72068 0.6954 0.35311 0.0
C689 C 0.29413 0.0472 0.39442 0.0
C690 C 0.30181 0.05083 0.41363 0.0
C691 C 0.31251 0.05989 0.4053 0.0
C692 C 0.31081 0.06128 0.38152 0.0
N693 N 0.29971 0.05366 0.37441 0.0
Co694 Co 0.29369 0.05233 0.34137 0.0
N695 N 0.31024 0.06085 0.32746 0.0
C696 C 0.32029 0.0674 0.33968 0.0
C697 C 0.33051 0.07205 0.32572 0.0
C698 C 0.32666 0.06834 0.30323 0.0
C699 C 0.3142 0.06173 0.3046 0.0
N700 N 0.2876 0.05109 0.30837 0.0
C701 C 0.2934 0.05301 0.28697 0.0
C702 C 0.28566 0.05167 0.26842 0.0
C703 C 0.27474 0.0489 0.27858 0.0
C704 C 0.27637 0.04873 0.30273 0.0
N705 N 0.27723 0.04374 0.35547 0.0
C706 C 0.2671 0.04212 0.3448 0.0
C707 C 0.25701 0.0355 0.35873 0.0
C708 C 0.26109 0.03283 0.37941 0.0
C709 C 0.27348 0.03795 0.37691 0.0
N710 N 0.29351 0.06708 0.34412 0.0
C711 C 0.29194 0.0876 0.34653 0.0
C712 C 0.28788 0.07936 0.36556 0.0
C713 C 0.28877 0.06919 0.36403 0.0
C714 C 0.29699 0.0854 0.32648 0.0
C715 C 0.29772 0.07516 0.32567 0.0
N716 N 0.29367 0.03761 0.33867 0.0
C717 C 0.28286 0.01726 0.33028 0.0
C718 C 0.29185 0.01567 0.34108 0.0
C719 C 0.30203 0.02528 0.34964 0.0
C720 C 0.30284 0.03624 0.34797 0.0
C721 C 0.28391 0.02832 0.32938 0.0
H722 H 0.31069 0.04353 0.35492 0.0
H723 H 0.27662 0.02925 0.32191 0.0
H724 H 0.2855 0.06296 0.37886 0.0
H725 H 0.30151 0.07372 0.30983 0.0
C726 C 0.31994 0.06761 0.3646 0.0
C727 C 0.28152 0.03787 0.39572 0.0
C728 C 0.30643 0.05739 0.28362 0.0
C729 C 0.2673 0.04493 0.32042 0.0
H730 H 0.29999 0.04721 0.43167 0.0
H731 H 0.32076 0.06443 0.4151 0.0
H732 H 0.33971 0.07721 0.33131 0.0
H733 H 0.33241 0.07041 0.28762 0.0
H734 H 0.28774 0.05282 0.24951 0.0
H735 H 0.26654 0.04701 0.26941 0.0
H736 H 0.24774 0.0325 0.35402 0.0
H737 H 0.25562 0.02771 0.39455 0.0
H738 H 0.28405 0.08075 0.38156 0.0
H739 H 0.3001 0.09139 0.31117 0.0
H740 H 0.27494 0.00995 0.32331 0.0
H741 H 0.30923 0.02429 0.35774 0.0
C742 C 0.956 0.2465 0.40852 0.0
C743 C 0.95275 0.25108 0.42732 0.0
C744 C 0.94442 0.25393 0.41882 0.0
C745 C 0.94307 0.251 0.39538 0.0
N746 N 0.94988 0.24626 0.38846 0.0
Co747 Co 0.95119 0.2415 0.35538 0.0
N748 N 0.94141 0.24847 0.3416 0.0
C749 C 0.93634 0.25374 0.35385 0.0
C750 C 0.93076 0.2583 0.3397 0.0
C751 C 0.93245 0.25592 0.31698 0.0
C752 C 0.93893 0.24993 0.31856 0.0
N753 N 0.95233 0.23659 0.32238 0.0
C754 C 0.94865 0.23894 0.30113 0.0
C755 C 0.95124 0.23373 0.28257 0.0
C756 C 0.95686 0.22803 0.29234 0.0
C757 C 0.95735 0.23 0.31626 0.0
N758 N 0.96148 0.2351 0.36903 0.0
C759 C 0.96604 0.22927 0.35714 0.0
C760 C 0.97363 0.22684 0.37051 0.0
C761 C 0.97418 0.23163 0.39205 0.0
C762 C 0.96688 0.23675 0.3906 0.0
N763 N 0.93625 0.22622 0.36141 0.0
C764 C 0.9147 0.20461 0.3659 0.0
C765 C 0.92561 0.20514 0.35993 0.0
C766 C 0.93614 0.21587 0.35797 0.0
C767 C 0.91486 0.2151 0.3704 0.0
C768 C 0.92561 0.22567 0.36815 0.0
N769 N 0.96591 0.25647 0.34932 0.0
C770 C 0.9862 0.26722 0.33366 0.0
C771 C 0.98735 0.27751 0.34243 0.0
C772 C 0.97755 0.27716 0.35446 0.0
C773 C 0.96694 0.26661 0.35756 0.0
C774 C 0.97549 0.25686 0.33733 0.0
H775 H 0.95968 0.2668 0.36671 0.0
H776 H 0.97517 0.24924 0.33046 0.0
H777 H 0.94399 0.21548 0.35332 0.0
H778 H 0.92498 0.23323 0.37179 0.0
C779 C 0.93722 0.25448 0.37861 0.0
C780 C 0.96551 0.24324 0.41008 0.0
C781 C 0.94271 0.24604 0.29762 0.0
C782 C 0.96372 0.22702 0.3329 0.0
H783 H 0.95638 0.25271 0.44507 0.0
H784 H 0.94044 0.25833 0.42821 0.0
H785 H 0.92618 0.26297 0.34522 0.0
H786 H 0.92939 0.25845 0.30105 0.0
H787 H 0.9494 0.23416 0.26385 0.0
H788 H 0.96052 0.22334 0.28298 0.0
H789 H 0.97852 0.22246 0.36497 0.0
H790 H 0.97954 0.23159 0.40699 0.0
H791 H 0.92605 0.19731 0.35612 0.0
H792 H 0.90672 0.21519 0.37568 0.0
H793 H 0.99359 0.26713 0.32425 0.0
H794 H 0.978 0.28501 0.36112 0.0
C795 C 0.04459 0.42465 0.26939 0.0
C796 C 0.03726 0.42188 0.24967 0.0
C797 C 0.02679 0.42156 0.25701 0.0
C798 C 0.02831 0.42419 0.28071 0.0
N799 N 0.03908 0.42613 0.28862 0.0
Co800 Co 0.04484 0.42982 0.3217 0.0
N801 N 0.02824 0.42332 0.33478 0.0
C802 C 0.01855 0.42153 0.32204 0.0
C803 C 0.00827 0.41731 0.33579 0.0
C804 C 0.01174 0.41651 0.35861 0.0
C805 C 0.024 0.42029 0.35755 0.0
N806 N 0.05065 0.4336 0.3548 0.0
C807 C 0.0446 0.42976 0.37599 0.0
C808 C 0.05233 0.43475 0.3948 0.0
C809 C 0.06346 0.44213 0.38497 0.0
C810 C 0.06199 0.44122 0.36076 0.0
N811 N 0.06137 0.43621 0.30836 0.0
C812 C 0.07155 0.44358 0.31922 0.0
C813 C 0.08166 0.44605 0.306 0.0
C814 C 0.07753 0.43983 0.28563 0.0
C815 C 0.06509 0.43391 0.28749 0.0
N816 N 0.04589 0.44516 0.3176 0.0
C817 C 0.04848 0.4676 0.31304 0.0
C818 C 0.04315 0.46055 0.33349 0.0
C819 C 0.04192 0.44941 0.33539 0.0
C820 C 0.05224 0.46305 0.29465 0.0
C821 C 0.05088 0.45184 0.29729 0.0
N822 N 0.04394 0.41468 0.32571 0.0
C823 C 0.05365 0.40339 0.33577 0.0
C824 C 0.0444 0.39376 0.32508 0.0
C825 C 0.03464 0.39457 0.31576 0.0
C826 C 0.03449 0.40509 0.31658 0.0
C827 C 0.05329 0.41382 0.33574 0.0
H828 H 0.02694 0.40558 0.3091 0.0
H829 H 0.06078 0.42129 0.34309 0.0
H830 H 0.03786 0.44428 0.35146 0.0
H831 H 0.05403 0.44863 0.28302 0.0
C832 C 0.01919 0.42243 0.29703 0.0
C833 C 0.05695 0.42648 0.26906 0.0
C834 C 0.03147 0.42213 0.37876 0.0
C835 C 0.07126 0.44584 0.34342 0.0
H836 H 0.03925 0.4202 0.23194 0.0
H837 H 0.01879 0.41909 0.24661 0.0
H838 H 0.99928 0.41487 0.3299 0.0
H839 H 0.00595 0.41373 0.3743 0.0
H840 H 0.05017 0.43329 0.41366 0.0
H841 H 0.07171 0.44724 0.3944 0.0
H842 H 0.09094 0.45119 0.31114 0.0
H843 H 0.08306 0.43957 0.27129 0.0
H844 H 0.0399 0.46359 0.34798 0.0
H845 H 0.05646 0.4682 0.27856 0.0
H846 H 0.06127 0.40296 0.34332 0.0
H847 H 0.02722 0.38716 0.30778 0.0
C848 C 0.58036 0.62081 0.28539 0.0
C849 C 0.58498 0.61743 0.26664 0.0
C850 C 0.588 0.60949 0.27586 0.0
C851 C 0.58521 0.6085 0.29966 0.0
N852 N 0.58036 0.61518 0.30618 0.0
Co853 Co 0.57605 0.61709 0.33959 0.0
N854 N 0.58367 0.60807 0.35382 0.0
C855 C 0.58898 0.603 0.34167 0.0
C856 C 0.59373 0.59768 0.35599 0.0
C857 C 0.59146 0.59956 0.37872 0.0
C858 C 0.58543 0.60597 0.37697 0.0
N859 N 0.57144 0.61872 0.37294 0.0
C860 C 0.57398 0.61531 0.39435 0.0
C861 C 0.56897 0.61825 0.41309 0.0
C862 C 0.56305 0.62365 0.40323 0.0
C863 C 0.56478 0.62374 0.37911 0.0
N864 N 0.56907 0.62668 0.32535 0.0
C865 C 0.56331 0.63136 0.33732 0.0
C866 C 0.56047 0.63839 0.32329 0.0
C867 C 0.56499 0.63847 0.30117 0.0
C868 C 0.57039 0.6315 0.30296 0.0
N869 N 0.56031 0.60247 0.33719 0.0
C870 C 0.53801 0.58169 0.33609 0.0
C871 C 0.53859 0.59226 0.34128 0.0
C872 C 0.54968 0.60242 0.34159 0.0
C873 C 0.54875 0.58171 0.33093 0.0
C874 C 0.5597 0.59209 0.33163 0.0
N875 N 0.59146 0.63158 0.34183 0.0
C876 C 0.60213 0.65201 0.35033 0.0
C877 C 0.61192 0.65341 0.33677 0.0
C878 C 0.61174 0.64364 0.32727 0.0
C879 C 0.60153 0.63279 0.33041 0.0
C880 C 0.59199 0.64104 0.35258 0.0
H881 H 0.60179 0.62555 0.32284 0.0
H882 H 0.58455 0.64051 0.36237 0.0
H883 H 0.54932 0.61007 0.34554 0.0
H884 H 0.5675 0.5914 0.32779 0.0
C885 C 0.58923 0.6033 0.31679 0.0
C886 C 0.57693 0.62997 0.28305 0.0
C887 C 0.58139 0.60964 0.39786 0.0
C888 C 0.56146 0.62961 0.36204 0.0
H889 H 0.58661 0.62073 0.24839 0.0
H890 H 0.59256 0.60559 0.26661 0.0
H891 H 0.59832 0.59299 0.35055 0.0
H892 H 0.59392 0.5965 0.39477 0.0
H893 H 0.56971 0.61687 0.43197 0.0
H894 H 0.55841 0.62742 0.4126 0.0
H895 H 0.55604 0.64321 0.3287 0.0
H896 H 0.56463 0.64335 0.2856 0.0
H897 H 0.53048 0.59274 0.34493 0.0
H898 H 0.54877 0.57371 0.32685 0.0
H899 H 0.60211 0.6594 0.35836 0.0
H900 H 0.6194 0.64441 0.3173 0.0
C901 C 0.38344 0.95853 0.28447 0.0
C902 C 0.38762 0.96574 0.26414 0.0
C903 C 0.39733 0.97594 0.27083 0.0
C904 C 0.3986 0.97439 0.29475 0.0
N905 N 0.39029 0.96387 0.30346 0.0
Co906 Co 0.38913 0.95808 0.33691 0.0
N907 N 0.39848 0.9741 0.34874 0.0
C908 C 0.40583 0.98359 0.33524 0.0
C909 C 0.41165 0.99346 0.34819 0.0
C910 C 0.40781 0.98994 0.3713 0.0
C911 C 0.39976 0.97807 0.37122 0.0
N912 N 0.38805 0.9523 0.37045 0.0
C913 C 0.38992 0.95797 0.39122 0.0
C914 C 0.3875 0.95027 0.41058 0.0
C915 C 0.3845 0.93963 0.40155 0.0
C916 C 0.38504 0.94129 0.37724 0.0
N917 N 0.37969 0.9421 0.32477 0.0
C918 C 0.3776 0.93221 0.33655 0.0
C919 C 0.36998 0.92243 0.32461 0.0
C920 C 0.36715 0.92644 0.30403 0.0
C921 C 0.37336 0.93852 0.30431 0.0
N922 N 0.40404 0.95739 0.33239 0.0
C923 C 0.42501 0.95554 0.32719 0.0
C924 C 0.41613 0.95149 0.3097 0.0
C925 C 0.40578 0.95255 0.31258 0.0
C926 C 0.42318 0.96072 0.34711 0.0
C927 C 0.41267 0.96149 0.34943 0.0
N928 N 0.37426 0.9586 0.34145 0.0
C929 C 0.35358 0.94903 0.35434 0.0
C930 C 0.35226 0.95829 0.34485 0.0
C931 C 0.36226 0.96786 0.3341 0.0
C932 C 0.37321 0.96788 0.33272 0.0
C933 C 0.36463 0.94934 0.35242 0.0
H934 H 0.38079 0.97529 0.32428 0.0
H935 H 0.36529 0.94196 0.35941 0.0
H936 H 0.39909 0.9493 0.29888 0.0
H937 H 0.41152 0.96534 0.36518 0.0
C938 C 0.40582 0.98314 0.31031 0.0
C939 C 0.37351 0.94644 0.28477 0.0
C940 C 0.39467 0.97069 0.39305 0.0
C941 C 0.38061 0.93244 0.36064 0.0
H942 H 0.38406 0.96383 0.24635 0.0
H943 H 0.4025 0.98371 0.25977 0.0
H944 H 0.41779 0.0022 0.34159 0.0
H945 H 0.41086 0.99546 0.38652 0.0
H946 H 0.38778 0.95205 0.4293 0.0
H947 H 0.38168 0.93152 0.41157 0.0
H948 H 0.36625 0.91345 0.33082 0.0
H949 H 0.361 0.92099 0.29078 0.0
H950 H 0.41703 0.94732 0.29408 0.0
H951 H 0.42985 0.96423 0.36089 0.0
H952 H 0.34605 0.94147 0.36273 0.0
H953 H 0.36164 0.9753 0.32694 0.0
C954 C 0.54708 0.96434 0.29747 0.0
C955 C 0.54535 0.97287 0.28572 0.0
C956 C 0.55646 0.9817 0.27929 0.0
C957 C 0.56432 0.97815 0.28759 0.0
N958 N 0.55893 0.96749 0.29864 0.0
Co959 Co 0.56709 0.95958 0.31546 0.0
N960 N 0.58343 0.97315 0.30806 0.0
C961 C 0.58595 0.98298 0.29524 0.0
C962 C 0.59798 0.99067 0.29278 0.0
C963 C 0.60353 0.98542 0.30457 0.0
C964 C 0.5945 0.97475 0.31353 0.0
N965 N 0.57521 0.9518 0.33291 0.0
C966 C 0.58707 0.95556 0.33655 0.0
C967 C 0.58884 0.94746 0.34987 0.0
C968 C 0.57772 0.93824 0.35481 0.0
C969 C 0.56982 0.94122 0.3443 0.0
N970 N 0.55074 0.94591 0.32237 0.0
C971 C 0.54824 0.93566 0.3334 0.0
C972 C 0.53618 0.928 0.33579 0.0
C973 C 0.53063 0.93374 0.32599 0.0
C974 C 0.53967 0.94466 0.31831 0.0
N975 N 0.56816 0.95251 0.28538 0.0
C976 C 0.57404 0.94379 0.24531 0.0
C977 C 0.56941 0.93693 0.26611 0.0
C978 C 0.56645 0.94137 0.28564 0.0
C979 C 0.57476 0.95475 0.24418 0.0
C980 C 0.57174 0.9589 0.2643 0.0
N981 N 0.56623 0.96664 0.34558 0.0
C982 C 0.56182 0.96462 0.38782 0.0
C983 C 0.56714 0.97668 0.38965 0.0
C984 C 0.57145 0.98361 0.36876 0.0
C985 C 0.57082 0.97843 0.34703 0.0
C986 C 0.5615 0.95983 0.36587 0.0
H987 H 0.57431 0.98415 0.33173 0.0
H988 H 0.55754 0.9506 0.36587 0.0
H989 H 0.56315 0.93573 0.30095 0.0
H990 H 0.57275 0.96742 0.26257 0.0
C991 C 0.5768 0.9849 0.28639 0.0
C992 C 0.53726 0.95368 0.30823 0.0
C993 C 0.59693 0.96651 0.32714 0.0
C994 C 0.55735 0.93403 0.3437 0.0
H995 H 0.53699 0.97292 0.28263 0.0
H996 H 0.55857 0.98989 0.27032 0.0
H997 H 0.60221 0.99912 0.28363 0.0
H998 H 0.61314 0.98905 0.30639 0.0
H999 H 0.59731 0.94809 0.35516 0.0
H1000 H 0.57565 0.93023 0.36456 0.0
H1001 H 0.53193 0.91943 0.34447 0.0
H1002 H 0.52102 0.93041 0.32517 0.0
H1003 H 0.56832 0.92822 0.2675 0.0
H1004 H 0.57814 0.96031 0.22826 0.0
H1005 H 0.558 0.95883 0.40332 0.0
H1006 H 0.57564 0.99301 0.36918 0.0
C1007 C 0.06207 0.62761 0.28558 0.0
C1008 C 0.07425 0.63533 0.28255 0.0
C1009 C 0.07968 0.63446 0.30312 0.0
C1010 C 0.07052 0.62628 0.31744 0.0
N1011 N 0.05975 0.622 0.30704 0.0
Co1012 Co 0.0441 0.61039 0.32105 0.0
N1013 N 0.05044 0.61371 0.35369 0.0
C1014 C 0.06213 0.61904 0.35959 0.0
C1015 C 0.06374 0.6205 0.38367 0.0
C1016 C 0.05237 0.61569 0.39343 0.0
C1017 C 0.0444 0.61141 0.3747 0.0
N1018 N 0.02843 0.59869 0.33495 0.0
C1019 C 0.02423 0.59744 0.35755 0.0
C1020 C 0.01284 0.5878 0.35996 0.0
C1021 C 0.00991 0.58292 0.33798 0.0
C1022 C 0.01965 0.58979 0.32342 0.0
N1023 N 0.03786 0.6071 0.28835 0.0
C1024 C 0.02815 0.5974 0.28137 0.0
C1025 C 0.02598 0.59794 0.25748 0.0
C1026 C 0.0349 0.60864 0.24912 0.0
C1027 C 0.04203 0.614 0.26845 0.0
N1028 N 0.04885 0.5983 0.31918 0.0
C1029 C 0.05323 0.57944 0.31512 0.0
C1030 C 0.05617 0.58772 0.29635 0.0
C1031 C 0.05396 0.5971 0.29877 0.0
C1032 C 0.04846 0.58108 0.33624 0.0
C1033 C 0.04637 0.59053 0.33791 0.0
N1034 N 0.0392 0.62233 0.32292 0.0
C1035 C 0.02418 0.6282 0.31652 0.0
C1036 C 0.03179 0.63919 0.32549 0.0
C1037 C 0.04323 0.64155 0.33316 0.0
C1038 C 0.04677 0.63302 0.33166 0.0
C1039 C 0.02804 0.61993 0.31542 0.0
H1040 H 0.05562 0.63506 0.33757 0.0
H1041 H 0.02193 0.61155 0.30856 0.0
H1042 H 0.05611 0.60323 0.28391 0.0
H1043 H 0.0424 0.59133 0.35421 0.0
C1044 C 0.07118 0.62438 0.34197 0.0
C1045 C 0.05293 0.62539 0.26765 0.0
C1046 C 0.03123 0.60455 0.37737 0.0
C1047 C 0.0201 0.58936 0.29846 0.0
H1048 H 0.0787 0.64103 0.26722 0.0
H1049 H 0.08905 0.63966 0.30758 0.0
H1050 H 0.07216 0.625 0.39294 0.0
H1051 H 0.05027 0.61543 0.41217 0.0
H1052 H 0.00729 0.58456 0.37595 0.0
H1053 H 1.00154 0.5755 0.33307 0.0
H1054 H 0.01844 0.59163 0.24759 0.0
H1055 H 0.03597 0.61211 0.23102 0.0
H1056 H 0.06006 0.58693 0.27983 0.0
H1057 H 0.04592 0.57488 0.35116 0.0
H1058 H 0.0152 0.62589 0.31077 0.0
H1059 H 0.04944 0.64995 0.34006 0.0
C1060 C 0.37692 0.43709 0.31009 0.0
C1061 C 0.36868 0.44098 0.30606 0.0
C1062 C 0.36803 0.44606 0.32666 0.0
C1063 C 0.37592 0.44501 0.34197 0.0
N1064 N 0.38144 0.43962 0.33214 0.0
Co1065 Co 0.39322 0.43598 0.34745 0.0
N1066 N 0.38762 0.43715 0.37956 0.0
C1067 C 0.38116 0.44244 0.38483 0.0
C1068 C 0.37824 0.44144 0.40864 0.0
C1069 C 0.38328 0.43524 0.4189 0.0
C1070 C 0.38916 0.43292 0.40075 0.0
N1071 N 0.40518 0.43251 0.36268 0.0
C1072 C 0.40551 0.42896 0.38537 0.0
C1073 C 0.41579 0.42797 0.38892 0.0
C1074 C 0.42205 0.43105 0.36761 0.0
C1075 C 0.4153 0.43379 0.35228 0.0
N1076 N 0.39874 0.43481 0.31525 0.0
C1077 C 0.40939 0.43567 0.30945 0.0
C1078 C 0.41021 0.43383 0.2857 0.0
C1079 C 0.39939 0.43171 0.27616 0.0
C1080 C 0.39261 0.43245 0.29468 0.0
N1081 N 0.405 0.45258 0.34703 0.0
C1082 C 0.42427 0.47535 0.34419 0.0
C1083 C 0.41672 0.4706 0.32473 0.0
C1084 C 0.40709 0.45926 0.32658 0.0
C1085 C 0.42153 0.46867 0.36551 0.0
C1086 C 0.41188 0.45734 0.36656 0.0
N1087 N 0.3816 0.41936 0.34762 0.0
C1088 C 0.37721 0.39997 0.33838 0.0
C1089 C 0.36496 0.39572 0.34327 0.0
C1090 C 0.36129 0.40353 0.35134 0.0
C1091 C 0.36976 0.41533 0.35343 0.0
C1092 C 0.38532 0.41175 0.34058 0.0
H1093 H 0.36671 0.42123 0.35922 0.0
H1094 H 0.39461 0.41473 0.33606 0.0
H1095 H 0.4016 0.45572 0.31114 0.0
H1096 H 0.41031 0.45227 0.38292 0.0
C1097 C 0.37629 0.44639 0.36667 0.0
C1098 C 0.38059 0.43132 0.29266 0.0
C1099 C 0.39684 0.42749 0.40424 0.0
C1100 C 0.41703 0.43559 0.32745 0.0
H1101 H 0.36358 0.44008 0.29008 0.0
H1102 H 0.36199 0.44945 0.33046 0.0
H1103 H 0.37267 0.4444 0.41736 0.0
H1104 H 0.38267 0.43277 0.4376 0.0
H1105 H 0.41856 0.42544 0.40525 0.0
H1106 H 0.43031 0.43093 0.36361 0.0
H1107 H 0.41748 0.43338 0.27667 0.0
H1108 H 0.39681 0.42973 0.25783 0.0
H1109 H 0.41838 0.47554 0.30805 0.0
H1110 H 0.42714 0.47196 0.38097 0.0
H1111 H 0.38056 0.39425 0.33272 0.0
H1112 H 0.35191 0.40064 0.35537 0.0
C1113 C 0.271 0.22985 0.36148 0.0
C1114 C 0.25882 0.22606 0.36467 0.0
C1115 C 0.25336 0.22099 0.34388 0.0
C1116 C 0.26249 0.22202 0.32918 0.0
N1117 N 0.27329 0.22743 0.33952 0.0
Co1118 Co 0.28893 0.23129 0.32474 0.0
N1119 N 0.28241 0.23 0.29235 0.0
C1120 C 0.2707 0.22461 0.28665 0.0
C1121 C 0.26896 0.2256 0.26276 0.0
C1122 C 0.28027 0.2319 0.25287 0.0
C1123 C 0.28834 0.23429 0.27132 0.0
N1124 N 0.30455 0.23496 0.3101 0.0
C1125 C 0.30861 0.23853 0.2875 0.0
C1126 C 0.31998 0.23968 0.28443 0.0
C1127 C 0.32304 0.23668 0.30597 0.0
C1128 C 0.3134 0.23384 0.32094 0.0
N1129 N 0.29541 0.23264 0.35713 0.0
C1130 C 0.3052 0.23187 0.36342 0.0
C1131 C 0.30749 0.23347 0.38735 0.0
C1132 C 0.29855 0.23534 0.39649 0.0
C1133 C 0.29133 0.23479 0.37752 0.0
N1134 N 0.28436 0.21475 0.32539 0.0
C1135 C 0.28178 0.19233 0.32864 0.0
C1136 C 0.27841 0.1968 0.34779 0.0
C1137 C 0.27973 0.20801 0.34577 0.0
C1138 C 0.28564 0.19902 0.30732 0.0
C1139 C 0.28684 0.21015 0.30605 0.0
N1140 N 0.29371 0.24786 0.32421 0.0
C1141 C 0.30903 0.26759 0.33016 0.0
C1142 C 0.30111 0.27168 0.32358 0.0
C1143 C 0.28934 0.26363 0.31757 0.0
C1144 C 0.28585 0.25173 0.31772 0.0
C1145 C 0.30513 0.25568 0.3306 0.0
H1146 H 0.27682 0.24567 0.31257 0.0
H1147 H 0.3114 0.25281 0.33611 0.0
H1148 H 0.27752 0.21143 0.36107 0.0
H1149 H 0.29028 0.21522 0.28968 0.0
C1150 C 0.26174 0.22064 0.30449 0.0
C1151 C 0.28027 0.23556 0.37937 0.0
C1152 C 0.30149 0.23985 0.26826 0.0
C1153 C 0.31313 0.23204 0.3458 0.0
H1154 H 0.25434 0.22702 0.3801 0.0
H1155 H 0.244 0.21765 0.33952 0.0
H1156 H 0.26049 0.22258 0.25374 0.0
H1157 H 0.28228 0.23441 0.2342 0.0
H1158 H 0.32542 0.24226 0.26828 0.0
H1159 H 0.33144 0.23693 0.31033 0.0
H1160 H 0.31506 0.23382 0.39683 0.0
H1161 H 0.29745 0.23693 0.41488 0.0
H1162 H 0.27535 0.19193 0.36459 0.0
H1163 H 0.28805 0.19581 0.29186 0.0
H1164 H 0.31817 0.27357 0.33513 0.0
H1165 H 0.283 0.26653 0.31233 0.0
C1166 C 0.76656 0.04648 0.39711 0.0
C1167 C 0.77107 0.03877 0.39898 0.0
C1168 C 0.77576 0.0388 0.37709 0.0
C1169 C 0.77384 0.0465 0.36322 0.0
N1170 N 0.76847 0.05159 0.37509 0.0
Co1171 Co 0.76316 0.06265 0.36176 0.0
N1172 N 0.76734 0.06057 0.3285 0.0
C1173 C 0.77253 0.05421 0.32178 0.0
C1174 C 0.77411 0.05431 0.29762 0.0
C1175 C 0.76955 0.06104 0.28832 0.0
C1176 C 0.76541 0.06465 0.30745 0.0
N1177 N 0.75782 0.0737 0.34844 0.0
C1178 C 0.75687 0.07659 0.32546 0.0
C1179 C 0.7525 0.08443 0.32389 0.0
C1180 C 0.75059 0.08655 0.3467 0.0
C1181 C 0.75386 0.07989 0.36086 0.0
N1182 N 0.75878 0.0645 0.39507 0.0
C1183 C 0.75468 0.0717 0.40225 0.0
C1184 C 0.7515 0.07024 0.42596 0.0
C1185 C 0.7534 0.06139 0.43427 0.0
C1186 C 0.75767 0.05799 0.41507 0.0
N1187 N 0.77977 0.07604 0.36531 0.0
C1188 C 0.80283 0.09598 0.36615 0.0
C1189 C 0.79277 0.0961 0.37564 0.0
C1190 C 0.78151 0.08615 0.37519 0.0
C1191 C 0.80128 0.08553 0.35721 0.0
C1192 C 0.78978 0.07576 0.35698 0.0
N1193 N 0.74672 0.04947 0.35816 0.0
C1194 C 0.72529 0.04131 0.36369 0.0
C1195 C 0.72321 0.03076 0.3544 0.0
C1196 C 0.73313 0.02978 0.34669 0.0
C1197 C 0.74477 0.03919 0.34882 0.0
C1198 C 0.73698 0.05046 0.36532 0.0
H1199 H 0.75208 0.03798 0.34294 0.0
H1200 H 0.73793 0.05827 0.37248 0.0
H1201 H 0.77439 0.08701 0.38276 0.0
H1202 H 0.78926 0.06818 0.34964 0.0
C1203 C 0.7754 0.04788 0.3385 0.0
C1204 C 0.75973 0.04801 0.41608 0.0
C1205 C 0.75965 0.07187 0.30469 0.0
C1206 C 0.7525 0.07863 0.38571 0.0
H1207 H 0.77058 0.03334 0.41432 0.0
H1208 H 0.77948 0.03336 0.37159 0.0
H1209 H 0.77795 0.04987 0.28791 0.0
H1210 H 0.76923 0.063 0.26956 0.0
H1211 H 0.75067 0.08808 0.30791 0.0
H1212 H 0.74694 0.09204 0.35228 0.0
H1213 H 0.74763 0.07464 0.43571 0.0
H1214 H 0.75143 0.05757 0.45216 0.0
H1215 H 0.79355 0.10388 0.38342 0.0
H1216 H 0.80883 0.08497 0.34977 0.0
H1217 H 0.71789 0.04259 0.36942 0.0
H1218 H 0.73195 0.02176 0.33939 0.0
C1219 C 0.91598 0.69954 0.38225 0.0
C1220 C 0.90583 0.69085 0.394 0.0
C1221 C 0.90841 0.68225 0.40059 0.0
C1222 C 0.91991 0.68608 0.39242 0.0
N1223 N 0.92489 0.69668 0.38116 0.0
Co1224 Co 0.94126 0.70524 0.36566 0.0
N1225 N 0.94416 0.69166 0.37171 0.0
C1226 C 0.93653 0.6813 0.3825 0.0
C1227 C 0.94083 0.67355 0.38357 0.0
C1228 C 0.95187 0.67927 0.37271 0.0
C1229 C 0.95368 0.69025 0.36571 0.0
N1230 N 0.95776 0.71392 0.35075 0.0
C1231 C 0.96616 0.71053 0.34738 0.0
C1232 C 0.97661 0.7194 0.33695 0.0
C1233 C 0.97477 0.72875 0.33362 0.0
C1234 C 0.96336 0.72508 0.34221 0.0
N1235 N 0.93812 0.71861 0.35872 0.0
C1236 C 0.94576 0.72902 0.34805 0.0
C1237 C 0.94092 0.73626 0.34472 0.0
C1238 C 0.92941 0.73004 0.35335 0.0
C1239 C 0.92788 0.71931 0.36143 0.0
N1240 N 0.9484 0.71168 0.39694 0.0
C1241 C 0.96205 0.72067 0.43826 0.0
C1242 C 0.9622 0.72807 0.41971 0.0
C1243 C 0.95538 0.72345 0.39947 0.0
C1244 C 0.95419 0.70874 0.43656 0.0
C1245 C 0.9474 0.70449 0.41606 0.0
N1246 N 0.93435 0.69887 0.3345 0.0
C1247 C 0.93412 0.70138 0.29176 0.0
C1248 C 0.92568 0.68964 0.28969 0.0
C1249 C 0.92142 0.68265 0.3105 0.0
C1250 C 0.9258 0.68743 0.33259 0.0
C1251 C 0.9383 0.70577 0.31414 0.0
H1252 H 0.92224 0.68171 0.34788 0.0
H1253 H 0.94487 0.71475 0.31453 0.0
H1254 H 0.95617 0.72962 0.38598 0.0
H1255 H 0.94166 0.69532 0.41591 0.0
C1256 C 0.92556 0.67927 0.39218 0.0
C1257 C 0.91651 0.71002 0.37125 0.0
C1258 C 0.96466 0.69905 0.35377 0.0
C1259 C 0.95739 0.73163 0.34113 0.0
H1260 H 0.89726 0.69051 0.39686 0.0
H1261 H 0.9024 0.67393 0.40922 0.0
H1262 H 0.93649 0.66481 0.39144 0.0
H1263 H 0.95794 0.67578 0.37035 0.0
H1264 H 0.98471 0.71911 0.33217 0.0
H1265 H 0.98095 0.73717 0.32558 0.0
H1266 H 0.94519 0.74496 0.33667 0.0
H1267 H 0.92283 0.73302 0.35346 0.0
H1268 H 0.96775 0.73743 0.42053 0.0
H1269 H 0.95359 0.7026 0.45053 0.0
H1270 H 0.93776 0.70711 0.27612 0.0
H1271 H 0.91475 0.67354 0.30976 0.0
C1272 C 0.4271 0.04392 0.72596 0.0
C1273 C 0.42493 0.03701 0.74653 0.0
C1274 C 0.42489 0.02701 0.73988 0.0
C1275 C 0.4271 0.02837 0.71572 0.0
N1276 N 0.42852 0.0386 0.70685 0.0
Co1277 Co 0.43187 0.044 0.67294 0.0
N1278 N 0.42559 0.0279 0.66178 0.0
C1279 C 0.42432 0.01876 0.67546 0.0
C1280 C 0.42045 0.00878 0.66296 0.0
C1281 C 0.41934 0.01186 0.63992 0.0
C1282 C 0.42254 0.0236 0.6396 0.0
N1283 N 0.4353 0.04944 0.63895 0.0
C1284 C 0.43118 0.04344 0.61862 0.0
C1285 C 0.43554 0.05097 0.59876 0.0
C1286 C 0.44295 0.06187 0.60694 0.0
C1287 C 0.44261 0.06051 0.6313 0.0
N1288 N 0.43806 0.06005 0.68443 0.0
C1289 C 0.44511 0.06994 0.67181 0.0
C1290 C 0.44705 0.07971 0.68354 0.0
C1291 C 0.44086 0.07569 0.70483 0.0
C1292 C 0.43557 0.06363 0.70515 0.0
N1293 N 0.44795 0.04558 0.67541 0.0
C1294 C 0.47087 0.04753 0.67914 0.0
C1295 C 0.46382 0.04279 0.65904 0.0
C1296 C 0.45243 0.04185 0.65758 0.0
C1297 C 0.46618 0.05139 0.69725 0.0
C1298 C 0.45477 0.05038 0.695 0.0
N1299 N 0.41598 0.04257 0.67065 0.0
C1300 C 0.40388 0.05164 0.66199 0.0
C1301 C 0.39435 0.04279 0.67512 0.0
C1302 C 0.39553 0.03346 0.68472 0.0
C1303 C 0.40639 0.03341 0.68192 0.0
C1304 C 0.41467 0.0514 0.66009 0.0
H1305 H 0.40721 0.02624 0.68977 0.0
H1306 H 0.4221 0.05864 0.651 0.0
H1307 H 0.44727 0.03809 0.64193 0.0
H1308 H 0.45141 0.05342 0.70922 0.0
C1309 C 0.42552 0.01957 0.70028 0.0
C1310 C 0.42852 0.05574 0.72539 0.0
C1311 C 0.42394 0.0306 0.61755 0.0
C1312 C 0.44718 0.06957 0.64741 0.0
H1313 H 0.42353 0.03899 0.76444 0.0
H1314 H 0.42291 0.01944 0.75116 0.0
H1315 H 0.41852 1.00025 0.66979 0.0
H1316 H 0.41678 0.00617 0.62499 0.0
H1317 H 0.4336 0.04889 0.58024 0.0
H1318 H 0.44759 0.06991 0.5964 0.0
H1319 H 0.45168 0.08864 0.67676 0.0
H1320 H 0.44014 0.08111 0.71812 0.0
H1321 H 0.46709 0.03989 0.64434 0.0
H1322 H 0.4712 0.05501 0.71326 0.0
H1323 H 0.40317 0.05892 0.65417 0.0
H1324 H 0.38817 0.02635 0.69456 0.0
C1325 C 0.96014 0.3795 0.72487 0.0
C1326 C 0.96816 0.38262 0.74355 0.0
C1327 C 0.97918 0.39042 0.7343 0.0
C1328 C 0.97734 0.39162 0.71058 0.0
N1329 N 0.96575 0.38519 0.70414 0.0
Co1330 Co 0.95936 0.38385 0.67096 0.0
N1331 N 0.97597 0.39315 0.65657 0.0
C1332 C 0.98641 0.39796 0.66856 0.0
C1333 C 0.99645 0.40328 0.65412 0.0
C1334 C 0.99219 0.40171 0.63147 0.0
C1335 C 0.97973 0.39558 0.63337 0.0
N1336 N 0.95297 0.38267 0.63783 0.0
C1337 C 0.95883 0.38628 0.61636 0.0
C1338 C 0.95082 0.38377 0.59783 0.0
C1339 C 0.93953 0.37827 0.60784 0.0
C1340 C 0.94125 0.37778 0.63187 0.0
N1341 N 0.94281 0.3741 0.68532 0.0
C1342 C 0.9323 0.36967 0.67357 0.0
C1343 C 0.92247 0.36254 0.68761 0.0
C1344 C 0.92699 0.36216 0.70951 0.0
C1345 C 0.93937 0.36911 0.70759 0.0
N1346 N 0.95832 0.39843 0.67485 0.0
C1347 C 0.95706 0.4193 0.67694 0.0
C1348 C 0.94703 0.40886 0.67117 0.0
C1349 C 0.94783 0.39865 0.67041 0.0
C1350 C 0.96765 0.41907 0.68245 0.0
C1351 C 0.96809 0.40864 0.68126 0.0
N1352 N 0.96026 0.36943 0.66709 0.0
C1353 C 0.95087 0.34942 0.65549 0.0
C1354 C 0.96014 0.34807 0.66559 0.0
C1355 C 0.9697 0.3577 0.67573 0.0
C1356 C 0.96962 0.36827 0.67614 0.0
C1357 C 0.95111 0.36011 0.6564 0.0
H1358 H 0.97712 0.37537 0.68412 0.0
H1359 H 0.94369 0.36055 0.64873 0.0
H1360 H 0.9398 0.39111 0.66601 0.0
H1361 H 0.97647 0.40915 0.68537 0.0
C1362 C 0.98649 0.39713 0.69342 0.0
C1363 C 0.94747 0.37054 0.72734 0.0
C1364 C 0.97191 0.39213 0.61259 0.0
C1365 C 0.93209 0.37175 0.64897 0.0
H1366 H 0.96637 0.37926 0.76178 0.0
H1367 H 0.98766 0.39422 0.7435 0.0
H1368 H 0.00576 0.40762 0.65942 0.0
H1369 H 0.99769 0.40465 0.6154 0.0
H1370 H 0.95291 0.38561 0.57898 0.0
H1371 H 0.93107 0.37476 0.59862 0.0
H1372 H 0.91317 0.35785 0.68234 0.0
H1373 H 0.9218 0.35716 0.72503 0.0
H1374 H 0.93853 0.40853 0.66731 0.0
H1375 H 0.97567 0.42696 0.68708 0.0
H1376 H 0.9433 0.34219 0.6474 0.0
H1377 H 0.97724 0.3571 0.68324 0.0
C1378 C 0.62102 0.57773 0.74259 0.0
C1379 C 0.61646 0.58065 0.76213 0.0
C1380 C 0.60645 0.58113 0.75453 0.0
C1381 C 0.60547 0.57857 0.73083 0.0
N1382 N 0.61424 0.5765 0.72311 0.0
Co1383 Co 0.61656 0.5731 0.68988 0.0
N1384 N 0.60653 0.57969 0.67674 0.0
C1385 C 0.59875 0.58165 0.68944 0.0
C1386 C 0.59303 0.58625 0.67578 0.0
C1387 C 0.59736 0.58711 0.65303 0.0
C1388 C 0.60546 0.58287 0.65399 0.0
N1389 N 0.61883 0.56958 0.65672 0.0
C1390 C 0.61668 0.57349 0.63556 0.0
C1391 C 0.61915 0.56834 0.61671 0.0
C1392 C 0.62286 0.56092 0.62647 0.0
C1393 C 0.62245 0.5619 0.65069 0.0
N1394 N 0.62663 0.56666 0.70319 0.0
C1395 C 0.62945 0.55932 0.69228 0.0
C1396 C 0.63692 0.55667 0.70565 0.0
C1397 C 0.63889 0.56275 0.7262 0.0
C1398 C 0.63253 0.56882 0.72418 0.0
N1399 N 0.60222 0.55775 0.69338 0.0
C1400 C 0.58177 0.53567 0.69762 0.0
C1401 C 0.59021 0.53981 0.7159 0.0
C1402 C 0.60035 0.55087 0.71346 0.0
C1403 C 0.58386 0.54284 0.6772 0.0
C1404 C 0.59407 0.55378 0.67546 0.0
N1405 N 0.63084 0.58828 0.68642 0.0
C1406 C 0.65176 0.59976 0.67577 0.0
C1407 C 0.65206 0.6094 0.6862 0.0
C1408 C 0.64151 0.60845 0.69597 0.0
C1409 C 0.63092 0.59783 0.6956 0.0
C1410 C 0.64106 0.58923 0.67625 0.0
H1411 H 0.62289 0.59726 0.70327 0.0
H1412 H 0.64114 0.58178 0.66894 0.0
H1413 H 0.60668 0.55387 0.72782 0.0
H1414 H 0.59535 0.55899 0.65943 0.0
C1415 C 0.59834 0.5806 0.7144 0.0
C1416 C 0.63157 0.5759 0.74304 0.0
C1417 C 0.6111 0.58102 0.63278 0.0
C1418 C 0.62696 0.55714 0.66802 0.0
H1419 H 0.62006 0.58244 0.77988 0.0
H1420 H 0.601 0.58376 0.76472 0.0
H1421 H 0.58671 0.58898 0.68173 0.0
H1422 H 0.59473 0.59036 0.6375 0.0
H1423 H 0.61814 0.56963 0.59789 0.0
H1424 H 0.62578 0.55565 0.61699 0.0
H1425 H 0.64095 0.55143 0.70061 0.0
H1426 H 0.64439 0.56276 0.74092 0.0
H1427 H 0.58893 0.53462 0.73208 0.0
H1428 H 0.57774 0.53996 0.66241 0.0
H1429 H 0.6598 0.60029 0.66793 0.0
H1430 H 0.64145 0.61586 0.70381 0.0
C1431 C 0.71221 0.75784 0.60649 0.0
C1432 C 0.70492 0.75516 0.58668 0.0
C1433 C 0.69425 0.75436 0.59415 0.0
C1434 C 0.69562 0.75666 0.61799 0.0
N1435 N 0.70648 0.75886 0.62589 0.0
Co1436 Co 0.71215 0.76271 0.65896 0.0
N1437 N 0.69548 0.7557 0.672 0.0
C1438 C 0.68571 0.7536 0.65925 0.0
C1439 C 0.67539 0.74906 0.67294 0.0
C1440 C 0.67891 0.74837 0.69577 0.0
C1441 C 0.69124 0.75253 0.69476 0.0
N1442 N 0.71784 0.76665 0.6921 0.0
C1443 C 0.7118 0.76263 0.71326 0.0
C1444 C 0.71945 0.76778 0.73212 0.0
C1445 C 0.7305 0.77543 0.72234 0.0
C1446 C 0.72907 0.77451 0.69813 0.0
N1447 N 0.72876 0.76959 0.64563 0.0
C1448 C 0.73882 0.77705 0.65674 0.0
C1449 C 0.74906 0.77953 0.64405 0.0
C1450 C 0.74518 0.77325 0.62373 0.0
C1451 C 0.7327 0.76737 0.6249 0.0
N1452 N 0.71258 0.77778 0.65481 0.0
C1453 C 0.7134 0.79948 0.64988 0.0
C1454 C 0.71805 0.79552 0.63191 0.0
C1455 C 0.7175 0.78463 0.63467 0.0
C1456 C 0.70838 0.79233 0.67032 0.0
C1457 C 0.70807 0.78159 0.67245 0.0
N1458 N 0.71182 0.74782 0.66319 0.0
C1459 C 0.72145 0.73684 0.67623 0.0
C1460 C 0.71185 0.72666 0.66792 0.0
C1461 C 0.70218 0.72725 0.65732 0.0
C1462 C 0.70231 0.73791 0.65524 0.0
C1463 C 0.72129 0.74733 0.67361 0.0
H1464 H 0.69475 0.73816 0.64716 0.0
H1465 H 0.72887 0.75506 0.67989 0.0
H1466 H 0.72108 0.78175 0.62054 0.0
H1467 H 0.70422 0.77641 0.68854 0.0
C1468 C 0.68638 0.75459 0.63426 0.0
C1469 C 0.72473 0.76007 0.60597 0.0
C1470 C 0.69875 0.75463 0.71599 0.0
C1471 C 0.73835 0.77928 0.68088 0.0
H1472 H 0.70708 0.7539 0.56874 0.0
H1473 H 0.68628 0.75185 0.58367 0.0
H1474 H 0.66634 0.74636 0.66702 0.0
H1475 H 0.6731 0.74542 0.71143 0.0
H1476 H 0.71729 0.76623 0.75097 0.0
H1477 H 0.7387 0.7807 0.73181 0.0
H1478 H 0.75828 0.78464 0.64962 0.0
H1479 H 0.75096 0.77291 0.61008 0.0
H1480 H 0.72195 0.80072 0.61571 0.0
H1481 H 0.70485 0.79508 0.68487 0.0
H1482 H 0.7291 0.73672 0.68447 0.0
H1483 H 0.69448 0.71951 0.65104 0.0
C1484 C 0.2489 0.95763 0.61757 0.0
C1485 C 0.25324 0.95427 0.59838 0.0
C1486 C 0.25495 0.94523 0.60656 0.0
C1487 C 0.25153 0.94354 0.6302 0.0
N1488 N 0.24779 0.95096 0.63733 0.0
Co1489 Co 0.2422 0.95156 0.66999 0.0
N1490 N 0.2502 0.94308 0.68417 0.0
C1491 C 0.25391 0.93668 0.67206 0.0
C1492 C 0.25909 0.93175 0.68639 0.0
C1493 C 0.25847 0.93514 0.70897 0.0
C1494 C 0.25284 0.94193 0.70721 0.0
N1495 N 0.23657 0.95213 0.70269 0.0
C1496 C 0.24029 0.9502 0.72426 0.0
C1497 C 0.23354 0.95121 0.74253 0.0
C1498 C 0.22531 0.95377 0.73198 0.0
C1499 C 0.22744 0.95416 0.7079 0.0
N1500 N 0.23428 0.96004 0.65558 0.0
C1501 C 0.22544 0.96128 0.66583 0.0
C1502 C 0.22201 0.96793 0.65194 0.0
C1503 C 0.22914 0.97101 0.63171 0.0
C1504 C 0.23651 0.96601 0.63431 0.0
N1505 N 0.22756 0.93672 0.66568 0.0
C1506 C 0.20542 0.91641 0.66171 0.0
C1507 C 0.21012 0.92465 0.64275 0.0
C1508 C 0.22119 0.93476 0.64512 0.0
C1509 C 0.21226 0.91835 0.68228 0.0
C1510 C 0.22329 0.92848 0.68386 0.0
N1511 N 0.25661 0.96635 0.67438 0.0
C1512 C 0.26576 0.98618 0.68651 0.0
C1513 C 0.27694 0.98803 0.67843 0.0
C1514 C 0.27782 0.97879 0.66862 0.0
C1515 C 0.26755 0.96798 0.66694 0.0
C1516 C 0.25569 0.9753 0.68417 0.0
H1517 H 0.26842 0.96096 0.65942 0.0
H1518 H 0.24713 0.97417 0.69005 0.0
H1519 H 0.22445 0.94112 0.63052 0.0
H1520 H 0.22822 0.92974 0.70008 0.0
C1521 C 0.25394 0.93689 0.64707 0.0
C1522 C 0.24518 0.96662 0.61606 0.0
C1523 C 0.24924 0.94624 0.72792 0.0
C1524 C 0.22239 0.95807 0.68999 0.0
H1525 H 0.25499 0.95797 0.58039 0.0
H1526 H 0.25877 0.94081 0.59672 0.0
H1527 H 0.26315 0.92658 0.68101 0.0
H1528 H 0.26167 0.93276 0.7249 0.0
H1529 H 0.23435 0.95002 0.76148 0.0
H1530 H 0.21878 0.95544 0.74088 0.0
H1531 H 0.21556 0.97072 0.65646 0.0
H1532 H 0.22897 0.9764 0.61692 0.0
H1533 H 0.20512 0.92349 0.62652 0.0
H1534 H 0.20909 0.91209 0.69718 0.0
H1535 H 0.26477 0.99314 0.6942 0.0
H1536 H 0.2864 0.97987 0.66257 0.0
C1537 C 0.05151 0.29216 0.61774 0.0
C1538 C 0.05502 0.29921 0.59717 0.0
C1539 C 0.06459 0.30967 0.60315 0.0
C1540 C 0.06643 0.30842 0.62694 0.0
N1541 N 0.05861 0.29784 0.6362 0.0
Co1542 Co 0.05793 0.29246 0.66984 0.0
N1543 N 0.06693 0.30866 0.68093 0.0
C1544 C 0.07368 0.31818 0.66696 0.0
C1545 C 0.07893 0.32824 0.67943 0.0
C1546 C 0.07538 0.32483 0.70272 0.0
C1547 C 0.06818 0.3128 0.70324 0.0
N1548 N 0.05732 0.28706 0.70347 0.0
C1549 C 0.05942 0.29296 0.72396 0.0
C1550 C 0.05832 0.28577 0.74354 0.0
C1551 C 0.05551 0.27509 0.73491 0.0
C1552 C 0.05508 0.2763 0.7106 0.0
N1553 N 0.04887 0.27632 0.65852 0.0
C1554 C 0.04742 0.26668 0.67044 0.0
C1555 C 0.04026 0.2567 0.65855 0.0
C1556 C 0.03705 0.26033 0.6379 0.0
C1557 C 0.04249 0.27238 0.63826 0.0
N1558 N 0.07309 0.29229 0.66499 0.0
C1559 C 0.09434 0.29099 0.6592 0.0
C1560 C 0.09256 0.29627 0.67902 0.0
C1561 C 0.08191 0.29677 0.68162 0.0
C1562 C 0.08528 0.28658 0.64212 0.0
C1563 C 0.0748 0.28737 0.64527 0.0
N1564 N 0.04281 0.29246 0.67455 0.0
C1565 C 0.02191 0.28197 0.68601 0.0
C1566 C 0.02008 0.29048 0.67437 0.0
C1567 C 0.02986 0.30031 0.66398 0.0
C1568 C 0.04122 0.30122 0.66456 0.0
C1569 C 0.03338 0.2831 0.6858 0.0
H1570 H 0.04863 0.30877 0.65611 0.0
H1571 H 0.0345 0.27616 0.6939 0.0
H1572 H 0.08079 0.30073 0.69726 0.0
H1573 H 0.06798 0.28384 0.63187 0.0
C1574 C 0.07344 0.31749 0.64205 0.0
C1575 C 0.04191 0.27995 0.61889 0.0
C1576 C 0.06358 0.30554 0.72531 0.0
C1577 C 0.05082 0.26725 0.69438 0.0
H1578 H 0.05104 0.29704 0.57975 0.0
H1579 H 0.06922 0.31744 0.59179 0.0
H1580 H 0.08441 0.33705 0.67238 0.0
H1581 H 0.07794 0.33055 0.71761 0.0
H1582 H 0.05958 0.28807 0.76207 0.0
H1583 H 0.05367 0.26728 0.74522 0.0
H1584 H 0.03718 0.24779 0.66471 0.0
H1585 H 0.03128 0.25472 0.62435 0.0
H1586 H 0.09936 0.30005 0.69248 0.0
H1587 H 0.08612 0.2823 0.62662 0.0
H1588 H 0.01448 0.27432 0.6944 0.0
H1589 H 0.02868 0.30714 0.65518 0.0
C1590 C 0.21634 0.3 0.62818 0.0
C1591 C 0.21463 0.30863 0.61689 0.0
C1592 C 0.22574 0.31755 0.61084 0.0
C1593 C 0.23359 0.31394 0.61891 0.0
N1594 N 0.22819 0.30316 0.62942 0.0
Co1595 Co 0.2363 0.2951 0.6458 0.0
N1596 N 0.25265 0.30878 0.6391 0.0
C1597 C 0.2552 0.3187 0.6266 0.0
C1598 C 0.26723 0.3265 0.62472 0.0
C1599 C 0.27274 0.32123 0.6366 0.0
C1600 C 0.26369 0.31045 0.64503 0.0
N1601 N 0.24438 0.28717 0.66291 0.0
C1602 C 0.25619 0.29102 0.66718 0.0
C1603 C 0.25792 0.2828 0.68012 0.0
C1604 C 0.24681 0.27342 0.68425 0.0
C1605 C 0.23895 0.27644 0.67364 0.0
N1606 N 0.21996 0.28131 0.65194 0.0
C1607 C 0.21744 0.27091 0.66229 0.0
C1608 C 0.20538 0.2632 0.66431 0.0
C1609 C 0.19984 0.26906 0.65499 0.0
C1610 C 0.20889 0.28008 0.64793 0.0
N1611 N 0.2376 0.28844 0.61531 0.0
C1612 C 0.24352 0.28027 0.57445 0.0
C1613 C 0.23915 0.27324 0.59508 0.0
C1614 C 0.23615 0.2774 0.61501 0.0
C1615 C 0.24403 0.29113 0.57393 0.0
C1616 C 0.24101 0.29501 0.59443 0.0
N1617 N 0.23521 0.30173 0.67627 0.0
C1618 C 0.23049 0.29913 0.71838 0.0
C1619 C 0.23576 0.31115 0.72088 0.0
C1620 C 0.24021 0.31836 0.70038 0.0
C1621 C 0.23976 0.31349 0.67836 0.0
C1622 C 0.23034 0.29466 0.69616 0.0
H1623 H 0.24336 0.3194 0.66336 0.0
H1624 H 0.22641 0.28544 0.69564 0.0
H1625 H 0.23299 0.27161 0.63012 0.0
H1626 H 0.24185 0.30347 0.59313 0.0
C1627 C 0.24608 0.3207 0.61791 0.0
C1628 C 0.20651 0.28921 0.63843 0.0
C1629 C 0.26608 0.30222 0.65883 0.0
C1630 C 0.22651 0.26919 0.67252 0.0
H1631 H 0.20626 0.30868 0.61385 0.0
H1632 H 0.22786 0.32583 0.60227 0.0
H1633 H 0.27148 0.33506 0.61602 0.0
H1634 H 0.28233 0.32497 0.63895 0.0
H1635 H 0.26636 0.28346 0.68577 0.0
H1636 H 0.24472 0.26531 0.69359 0.0
H1637 H 0.20111 0.25453 0.6725 0.0
H1638 H 0.19023 0.26572 0.65408 0.0
H1639 H 0.23825 0.2646 0.59601 0.0
H1640 H 0.24722 0.29681 0.55813 0.0
H1641 H 0.22658 0.29314 0.73357 0.0
H1642 H 0.24435 0.32774 0.70135 0.0
C1643 C 0.7234 0.95744 0.61489 0.0
C1644 C 0.73555 0.96558 0.61386 0.0
C1645 C 0.73991 0.96569 0.63611 0.0
C1646 C 0.73022 0.9577 0.64941 0.0
N1647 N 0.71998 0.95228 0.63687 0.0
Co1648 Co 0.70353 0.94089 0.64949 0.0
N1649 N 0.70937 0.94295 0.68307 0.0
C1650 C 0.72082 0.94937 0.69033 0.0
C1651 C 0.72204 0.94916 0.71456 0.0
C1652 C 0.71066 0.94226 0.72334 0.0
C1653 C 0.70314 0.93868 0.70384 0.0
N1654 N 0.68701 0.92965 0.6621 0.0
C1655 C 0.68289 0.92671 0.68492 0.0
C1656 C 0.67067 0.91883 0.68597 0.0
C1657 C 0.66692 0.91675 0.66298 0.0
C1658 C 0.677 0.92347 0.64924 0.0
N1659 N 0.69773 0.93889 0.61586 0.0
C1660 C 0.68661 0.9314 0.60813 0.0
C1661 C 0.6852 0.93266 0.58419 0.0
C1662 C 0.69595 0.94166 0.57628 0.0
C1663 C 0.7033 0.94538 0.59595 0.0
N1664 N 0.70715 0.92774 0.64647 0.0
C1665 C 0.71102 0.90826 0.64595 0.0
C1666 C 0.70047 0.90763 0.63725 0.0
C1667 C 0.69877 0.91735 0.63757 0.0
C1668 C 0.71988 0.91897 0.65395 0.0
C1669 C 0.71777 0.92852 0.65404 0.0
N1670 N 0.69986 0.95384 0.65254 0.0
C1671 C 0.68663 0.96184 0.64464 0.0
C1672 C 0.6945 0.97219 0.65538 0.0
C1673 C 0.70507 0.97318 0.66505 0.0
C1674 C 0.70762 0.96396 0.66327 0.0
C1675 C 0.68941 0.95284 0.64357 0.0
H1676 H 0.71591 0.96517 0.67054 0.0
H1677 H 0.68296 0.94514 0.63535 0.0
H1678 H 0.6905 0.91608 0.63071 0.0
H1679 H 0.72483 0.93634 0.66064 0.0
C1680 C 0.73012 0.95609 0.6741 0.0
C1681 C 0.71524 0.95554 0.59523 0.0
C1682 C 0.69015 0.93136 0.70602 0.0
C1683 C 0.67727 0.92454 0.62432 0.0
H1684 H 0.74066 0.9712 0.59891 0.0
H1685 H 0.74892 0.97137 0.64216 0.0
H1686 H 0.73018 0.95369 0.72466 0.0
H1687 H 0.70816 0.9402 0.742 0.0
H1688 H 0.66503 0.91509 0.70173 0.0
H1689 H 0.65787 0.91117 0.65699 0.0
H1690 H 0.6771 0.92804 0.57399 0.0
H1691 H 0.69803 0.94538 0.55831 0.0
H1692 H 0.69345 0.89962 0.63022 0.0
H1693 H 0.72826 0.91993 0.66077 0.0
H1694 H 0.67821 0.96059 0.63733 0.0
H1695 H 0.71142 0.98107 0.67358 0.0
C1696 C 0.04442 0.77112 0.6467 0.0
C1697 C 0.03608 0.77502 0.64505 0.0
C1698 C 0.03633 0.78004 0.66635 0.0
C1699 C 0.04482 0.77893 0.67968 0.0
N1700 N 0.04985 0.77355 0.66799 0.0
Co1701 Co 0.06222 0.76991 0.68017 0.0
N1702 N 0.05797 0.77097 0.71346 0.0
C1703 C 0.05208 0.77654 0.72079 0.0
C1704 C 0.05064 0.77595 0.74512 0.0
C1705 C 0.05602 0.76971 0.75351 0.0
C1706 C 0.06046 0.76681 0.73372 0.0
N1707 N 0.07467 0.76631 0.69234 0.0
C1708 C 0.07581 0.76256 0.71439 0.0
C1709 C 0.08592 0.76112 0.71541 0.0
C1710 C 0.09134 0.76429 0.69324 0.0
C1711 C 0.08425 0.76743 0.6799 0.0
N1712 N 0.06643 0.76894 0.64674 0.0
C1713 C 0.07682 0.76981 0.63881 0.0
C1714 C 0.07672 0.76816 0.61473 0.0
C1715 C 0.0656 0.76616 0.60724 0.0
C1716 C 0.05955 0.76678 0.62723 0.0
N1717 N 0.07403 0.7865 0.67932 0.0
C1718 C 0.09336 0.80919 0.67515 0.0
C1719 C 0.0848 0.80475 0.65718 0.0
C1720 C 0.0752 0.79339 0.65962 0.0
C1721 C 0.0916 0.8023 0.69586 0.0
C1722 C 0.08187 0.79104 0.69764 0.0
N1723 N 0.05058 0.7533 0.68084 0.0
C1724 C 0.0458 0.73389 0.6709 0.0
C1725 C 0.03415 0.7294 0.68042 0.0
C1726 C 0.03088 0.73723 0.69008 0.0
C1727 C 0.03923 0.74915 0.6901 0.0
C1728 C 0.05384 0.74575 0.67146 0.0
H1729 H 0.03653 0.75502 0.69755 0.0
H1730 H 0.06272 0.74884 0.66404 0.0
H1731 H 0.06899 0.79 0.64512 0.0
H1732 H 0.08099 0.78585 0.71352 0.0
C1733 C 0.04643 0.78047 0.70429 0.0
C1734 C 0.04748 0.76563 0.62759 0.0
C1735 C 0.06795 0.76113 0.73486 0.0
C1736 C 0.08503 0.76945 0.65507 0.0
H1737 H 0.03038 0.77426 0.63013 0.0
H1738 H 0.03057 0.7835 0.67185 0.0
H1739 H 0.0459 0.77932 0.75549 0.0
H1740 H 0.05674 0.76766 0.77205 0.0
H1741 H 0.0891 0.75816 0.73057 0.0
H1742 H 0.09924 0.76391 0.68734 0.0
H1743 H 0.08359 0.76772 0.60414 0.0
H1744 H 0.06233 0.76428 0.58926 0.0
H1745 H 0.0858 0.80979 0.64089 0.0
H1746 H 0.09786 0.80549 0.71041 0.0
H1747 H 0.04872 0.72831 0.66268 0.0
H1748 H 0.02201 0.73418 0.69779 0.0
C1749 C 0.93965 0.56386 0.69618 0.0
C1750 C 0.92743 0.56021 0.69766 0.0
C1751 C 0.92265 0.55533 0.67631 0.0
C1752 C 0.93219 0.55632 0.66301 0.0
N1753 N 0.94261 0.56152 0.67474 0.0
Co1754 Co 0.95863 0.56519 0.66228 0.0
N1755 N 0.95323 0.56412 0.62898 0.0
C1756 C 0.94175 0.55888 0.62175 0.0
C1757 C 0.94083 0.55998 0.59757 0.0
C1758 C 0.95244 0.56619 0.58911 0.0
C1759 C 0.95986 0.56842 0.60868 0.0
N1760 N 0.97463 0.56874 0.64994 0.0
C1761 C 0.97946 0.57241 0.62783 0.0
C1762 C 0.99086 0.57348 0.62653 0.0
C1763 C 0.99314 0.57033 0.64869 0.0
C1764 C 0.98304 0.56748 0.66224 0.0
N1765 N 0.96396 0.56625 0.69559 0.0
C1766 C 0.97342 0.56526 0.70344 0.0
C1767 C 0.97489 0.56667 0.72762 0.0
C1768 C 0.96576 0.56863 0.73524 0.0
C1769 C 0.95926 0.56832 0.71521 0.0
N1770 N 0.95381 0.54859 0.66315 0.0
C1771 C 0.9502 0.5258 0.6669 0.0
C1772 C 0.94668 0.53045 0.68549 0.0
C1773 C 0.94845 0.54181 0.68316 0.0
C1774 C 0.95497 0.5326 0.64595 0.0
C1775 C 0.95671 0.54394 0.64444 0.0
N1776 N 0.96364 0.58181 0.66154 0.0
C1777 C 0.97859 0.60131 0.67026 0.0
C1778 C 0.97144 0.60577 0.66059 0.0
C1779 C 0.96014 0.59789 0.65176 0.0
C1780 C 0.95641 0.58594 0.65239 0.0
C1781 C 0.97458 0.58939 0.67046 0.0
H1782 H 0.94773 0.58005 0.64537 0.0
H1783 H 0.98038 0.58632 0.67787 0.0
H1784 H 0.94588 0.54526 0.69791 0.0
H1785 H 0.96087 0.5491 0.62844 0.0
C1786 C 0.93224 0.555 0.63836 0.0
C1787 C 0.94827 0.56928 0.71528 0.0
C1788 C 0.97305 0.57386 0.60738 0.0
C1789 C 0.98189 0.56548 0.6871 0.0
H1790 H 0.9225 0.56112 0.71237 0.0
H1791 H 0.91347 0.55212 0.67068 0.0
H1792 H 0.9327 0.5571 0.5874 0.0
H1793 H 0.95508 0.56875 0.57066 0.0
H1794 H 0.99684 0.57611 0.61114 0.0
H1795 H 1.00134 0.57046 0.65438 0.0
H1796 H 0.98207 0.56684 0.73825 0.0
H1797 H 0.96408 0.57012 0.75336 0.0
H1798 H 0.94277 0.52542 0.70185 0.0
H1799 H 0.95787 0.52939 0.63118 0.0
H1800 H 0.98726 0.60699 0.67781 0.0
H1801 H 0.95433 0.60094 0.64401 0.0
C1802 C 0.43659 0.37489 0.72182 0.0
C1803 C 0.44085 0.36695 0.72277 0.0
C1804 C 0.44646 0.36797 0.70125 0.0
C1805 C 0.44521 0.37634 0.68828 0.0
N1806 N 0.43917 0.3806 0.70039 0.0
Co1807 Co 0.43449 0.39208 0.68814 0.0
N1808 N 0.43645 0.38886 0.65474 0.0
C1809 C 0.44267 0.38367 0.6472 0.0
C1810 C 0.44204 0.38225 0.62303 0.0
C1811 C 0.43509 0.38696 0.61493 0.0
C1812 C 0.43197 0.39113 0.63466 0.0
N1813 N 0.42989 0.40363 0.67607 0.0
C1814 C 0.42617 0.40487 0.65416 0.0
C1815 C 0.42423 0.41441 0.65299 0.0
C1816 C 0.42689 0.41926 0.67501 0.0
C1817 C 0.43033 0.41247 0.68836 0.0
N1818 N 0.43258 0.39527 0.72153 0.0
C1819 C 0.43278 0.40492 0.72939 0.0
C1820 C 0.43098 0.40439 0.75365 0.0
C1821 C 0.42959 0.39375 0.76133 0.0
C1822 C 0.43059 0.38838 0.74123 0.0
N1823 N 0.45133 0.40434 0.6882 0.0
C1824 C 0.47416 0.42397 0.69058 0.0
C1825 C 0.46973 0.41554 0.70926 0.0
C1826 C 0.45831 0.40577 0.70768 0.0
C1827 C 0.4672 0.42195 0.67013 0.0
C1828 C 0.45587 0.41214 0.66929 0.0
N1829 N 0.41764 0.37998 0.68812 0.0
C1830 C 0.39696 0.3739 0.69762 0.0
C1831 C 0.39333 0.36305 0.68778 0.0
C1832 C 0.40216 0.36083 0.67813 0.0
C1833 C 0.41427 0.36939 0.67861 0.0
C1834 C 0.4091 0.38222 0.69754 0.0
H1835 H 0.42092 0.36747 0.67121 0.0
H1836 H 0.41156 0.39053 0.70499 0.0
H1837 H 0.45493 0.3996 0.72261 0.0
H1838 H 0.45062 0.4111 0.6536 0.0
C1839 C 0.44694 0.37832 0.66358 0.0
C1840 C 0.43035 0.37711 0.74133 0.0
C1841 C 0.42554 0.39789 0.63371 0.0
C1842 C 0.43211 0.41291 0.71311 0.0
H1843 H 0.43985 0.36086 0.73712 0.0
H1844 H 0.45025 0.36266 0.69525 0.0
H1845 H 0.44568 0.37784 0.61268 0.0
H1846 H 0.43263 0.38724 0.59658 0.0
H1847 H 0.42135 0.41762 0.63775 0.0
H1848 H 0.42605 0.42662 0.68076 0.0
H1849 H 0.43015 0.4107 0.76434 0.0
H1850 H 0.428 0.39032 0.77952 0.0
H1851 H 0.4748 0.4167 0.7254 0.0
H1852 H 0.47037 0.42804 0.65497 0.0
H1853 H 0.39045 0.37607 0.70492 0.0
H1854 H 0.39974 0.35253 0.67046 0.0
C1855 C 0.58447 0.0399 0.71141 0.0
C1856 C 0.5745 0.03225 0.72511 0.0
C1857 C 0.57652 0.0234 0.73274 0.0
C1858 C 0.5876 0.02618 0.72348 0.0
N1859 N 0.59286 0.03637 0.71068 0.0
Co1860 Co 0.60897 0.04375 0.69422 0.0
N1861 N 0.61094 0.02972 0.7016 0.0
C1862 C 0.60298 0.01977 0.71334 0.0
C1863 C 0.60654 0.01147 0.71487 0.0
C1864 C 0.61744 0.01639 0.70342 0.0
C1865 C 0.61996 0.02752 0.69572 0.0
N1866 N 0.62526 0.05129 0.67835 0.0
C1867 C 0.63314 0.04722 0.67545 0.0
C1868 C 0.64373 0.05552 0.66432 0.0
C1869 C 0.64248 0.06515 0.65997 0.0
C1870 C 0.63129 0.06224 0.66876 0.0
N1871 N 0.6067 0.05756 0.68595 0.0
C1872 C 0.61459 0.0675 0.67412 0.0
C1873 C 0.61016 0.07498 0.66923 0.0
C1874 C 0.59865 0.06938 0.67804 0.0
C1875 C 0.59676 0.05882 0.68804 0.0
N1876 N 0.61683 0.05073 0.72466 0.0
C1877 C 0.63136 0.0601 0.76474 0.0
C1878 C 0.63167 0.06729 0.74561 0.0
C1879 C 0.62437 0.06248 0.726 0.0
C1880 C 0.62296 0.04826 0.76426 0.0
C1881 C 0.61574 0.04383 0.74437 0.0
N1882 N 0.60134 0.03683 0.66389 0.0
C1883 C 0.6006 0.03829 0.62103 0.0
C1884 C 0.59158 0.02669 0.62032 0.0
C1885 C 0.58728 0.02033 0.64184 0.0
C1886 C 0.5922 0.02557 0.66331 0.0
C1887 C 0.60532 0.04315 0.64283 0.0
H1888 H 0.58857 0.02033 0.67922 0.0
H1889 H 0.61233 0.05197 0.6422 0.0
H1890 H 0.62526 0.06846 0.71198 0.0
H1891 H 0.60964 0.03474 0.74515 0.0
C1892 C 0.59249 0.01869 0.72365 0.0
C1893 C 0.58524 0.05002 0.69835 0.0
C1894 C 0.63109 0.03568 0.68321 0.0
C1895 C 0.62591 0.06931 0.66698 0.0
H1896 H 0.56643 0.03282 0.72854 0.0
H1897 H 0.57039 0.01559 0.74287 0.0
H1898 H 0.60183 0.0029 0.72347 0.0
H1899 H 0.62293 0.01227 0.70115 0.0
H1900 H 0.65155 0.05469 0.65982 0.0
H1901 H 0.64893 0.07328 0.65124 0.0
H1902 H 0.61463 0.08334 0.65974 0.0
H1903 H 0.59231 0.07263 0.67671 0.0
H1904 H 0.63768 0.07661 0.74549 0.0
H1905 H 0.62225 0.0423 0.7787 0.0
H1906 H 0.60427 0.04352 0.60478 0.0
H1907 H 0.58017 0.01135 0.64213 0.0
C1908 C 0.96539 0.33976 0.9933 0.0
C1909 C 0.95787 0.33495 0.01348 0.0
C1910 C 0.97629 0.35002 0.99482 0.0
C1911 C 0.99908 0.36329 0.03841 0.0
H1912 H 0.01592 0.38504 0.98579 0.0
C1913 C 0.04933 0.38233 0.03056 0.0
C1914 C 0.05284 0.38067 0.00802 0.0
C1915 C 0.03841 0.38224 0.0336 0.0
C1916 C 0.01134 0.3791 1.00075 0.0
H1917 H 0.95538 0.33748 0.05062 0.0
H1918 H 0.97454 0.35544 0.05332 0.0
H1919 H 0.99396 0.37432 0.98668 0.0
H1920 H 0.0484 0.3784 0.97073 0.0
H1921 H 0.02901 0.37762 0.97599 0.0
H1922 H 0.01624 0.36714 0.05151 0.0
C1923 C 0.97199 0.35125 0.03636 0.0
C1924 C 0.99878 0.37302 1.0013 0.0
C1925 C 0.96104 0.34099 0.0348 0.0
C1926 C 0.04576 0.37967 0.98825 0.0
C1927 C 0.03473 0.37937 0.99131 0.0
C1928 C 0.01159 0.36928 0.03778 0.0
C1929 C 0.97989 0.35563 0.01659 0.0
C1930 C 0.99258 0.36459 0.01947 0.0
C1931 C 0.0307 0.38018 0.0142 0.0
C1932 C 0.01786 0.37675 0.01825 0.0
H1933 H 0.96302 0.33537 0.97653 0.0
H1934 H 0.98223 0.35309 0.97934 0.0
H1935 H 0.99457 0.3568 0.05259 0.0
H1936 H 0.05483 0.38325 0.04595 0.0
H1937 H 0.0357 0.38314 0.05135 0.0
C1938 C 0.66866 0.62485 0.99485 0.0
C1939 C 0.67379 0.62225 0.0146 0.0
C1940 C 0.65784 0.62501 0.99735 0.0
C1941 C 0.64368 0.63323 0.04194 0.0
H1942 H 0.62073 0.6279 0.99194 0.0
C1943 C 0.62249 0.66223 0.03515 0.0
C1944 C 0.62368 0.66717 0.01216 0.0
C1945 C 0.62309 0.65196 0.0386 0.0
C1946 C 0.62701 0.62939 0.00617 0.0
H1947 H 0.6713 0.61693 0.05203 0.0
H1948 H 0.65238 0.61733 0.05649 0.0
H1949 H 0.63243 0.61765 0.99198 0.0
H1950 H 0.62559 0.66509 0.97464 0.0
H1951 H 0.62732 0.64753 0.98055 0.0
H1952 H 0.63925 0.64572 0.05499 0.0
C1953 C 0.65673 0.61924 0.03909 0.0
C1954 C 0.63364 0.62347 0.00624 0.0
C1955 C 0.66753 0.61901 0.03654 0.0
C1956 C 0.62468 0.66137 0.99251 0.0
C1957 C 0.62553 0.65124 0.99597 0.0
C1958 C 0.63717 0.63922 0.04173 0.0
C1959 C 0.652 0.62263 0.0197 0.0
C1960 C 0.64249 0.62583 0.02343 0.0
C1961 C 0.62522 0.64667 0.01915 0.0
C1962 C 0.62925 0.63786 0.02309 0.0
H1963 H 0.67323 0.62718 0.97765 0.0
H1964 H 0.6545 0.62779 0.98214 0.0
H1965 H 0.65049 0.63531 0.05533 0.0
H1966 H 0.62152 0.66654 0.05048 0.0
H1967 H 0.62252 0.64853 0.05662 0.0
C1968 C 0.37573 0.04082 0.98554 0.0
C1969 C 0.3787 0.04863 1.00407 0.0
C1970 C 0.37486 0.02993 0.98977 0.0
C1971 C 0.36494 0.0086 0.03737 0.0
H1972 H 0.37132 0.99061 0.99178 0.0
C1973 C 0.33596 0.95952 0.04034 0.0
C1974 C 0.33143 0.95504 0.01804 0.0
C1975 C 0.34611 0.97045 0.04184 0.0
C1976 C 0.3695 0.99551 1.00476 0.0
H1977 H 0.38381 0.05156 0.04111 0.0
H1978 H 0.38211 0.03238 0.0486 0.0
H1979 H 0.38196 0.01186 0.9879 0.0
H1980 H 0.33409 0.9579 0.97989 0.0
H1981 H 0.3514 0.97727 0.98227 0.0
H1982 H 0.35175 0.99246 0.05302 0.0
C1983 C 0.38053 0.03473 0.03082 0.0
C1984 C 0.37565 0.00766 1.0026 0.0
C1985 C 0.3815 0.04567 0.02653 0.0
C1986 C 0.3375 0.96128 0.99725 0.0
C1987 C 0.34749 0.97231 0.9987 0.0
C1988 C 0.35869 0.99649 0.03935 0.0
C1989 C 0.37685 0.02663 0.01266 0.0
C1990 C 0.37301 0.01426 0.01829 0.0
C1991 C 0.35169 0.9772 0.02103 0.0
C1992 C 0.36048 0.98979 0.02239 0.0
H1993 H 0.37371 0.043 0.96799 0.0
H1994 H 0.37186 0.02381 0.97552 0.0
H1995 H 0.36263 0.01346 0.04959 0.0
H1996 H 0.33146 0.95469 0.05658 0.0
H1997 H 0.34926 0.97382 0.0593 0.0
C1998 C 0.04094 0.68045 0.02126 0.0
C1999 C 0.04574 0.69262 0.02122 0.0
C2000 C 0.02857 0.67309 0.01855 0.0
C2001 C 1.00089 0.67381 0.99862 0.0
H2002 H 0.98413 0.64414 0.03353 0.0
C2003 C 0.94987 0.64939 0.01461 0.0
C2004 C 0.94418 0.63942 1.00095 0.0
C2005 C 0.96222 0.65464 0.01842 0.0
C2006 C 0.98876 0.65239 0.02365 0.0
H2007 H 0.04116 0.70652 0.01768 0.0
H2008 H 0.0198 0.69384 0.01447 0.0
H2009 H 0.006 0.65602 0.03682 0.0
H2010 H 0.94668 0.62674 0.98156 0.0
H2011 H 0.96839 0.63577 0.98901 0.0
H2012 H 0.98355 0.67036 0.98638 0.0
C2013 C 0.02553 0.68989 0.01599 0.0
C2014 C 1.00127 0.65917 0.02536 0.0
C2015 C 0.03784 0.69721 0.01833 0.0
C2016 C 0.95089 0.63435 0.99238 0.0
C2017 C 0.96325 0.6395 0.99657 0.0
C2018 C 0.98842 0.66716 0.9973 0.0
C2019 C 0.02069 0.67773 0.01589 0.0
C2020 C 0.00749 0.67006 0.01308 0.0
C2021 C 0.96903 0.64987 0.00901 0.0
C2022 C 0.98226 0.65647 0.00995 0.0
H2023 H 0.0467 0.67657 0.02363 0.0
H2024 H 0.02522 0.66379 0.01833 0.0
H2025 H 0.00533 0.68194 0.98832 0.0
H2026 H 0.94485 0.65346 0.02125 0.0
H2027 H 0.96655 0.66266 0.02801 0.0
C2028 C 0.35985 0.31923 0.00784 0.0
C2029 C 0.35919 0.3136 0.98656 0.0
C2030 C 0.35475 0.32655 0.00949 0.0
C2031 C 0.33126 0.33149 0.98145 0.0
H2032 H 0.34461 0.35907 0.01934 0.0
C2033 C 0.30758 0.35912 0.98877 0.0
C2034 C 0.30642 0.36224 0.01187 0.0
C2035 C 0.31539 0.35472 0.98412 0.0
C2036 C 0.34074 0.35136 0.00877 0.0
H2037 H 0.35337 0.3118 0.94992 0.0
H2038 H 0.34466 0.32467 0.95266 0.0
H2039 H 0.35587 0.34858 0.01405 0.0
H2040 H 0.31265 0.36367 0.04806 0.0
H2041 H 0.32631 0.35592 0.0401 0.0
H2042 H 0.31607 0.33412 0.97644 0.0
C2043 C 0.3488 0.32321 0.96829 0.0
C2044 C 0.34719 0.34534 0.00577 0.0
C2045 C 0.35382 0.31586 0.96669 0.0
C2046 C 0.31351 0.36135 0.03008 0.0
C2047 C 0.32133 0.35696 0.02547 0.0
C2048 C 0.32484 0.33751 0.98441 0.0
C2049 C 0.34895 0.32844 0.98987 0.0
C2050 C 0.34248 0.33527 0.9922 0.0
C2051 C 0.32217 0.35335 1.00253 0.0
C2052 C 0.32945 0.34747 0.99824 0.0
H2053 H 0.36383 0.31759 0.02352 0.0
H2054 H 0.35494 0.33034 0.02645 0.0
H2055 H 0.32722 0.32365 0.97129 0.0
H2056 H 0.30215 0.35974 0.97453 0.0
H2057 H 0.31595 0.35218 0.9662 0.0
C2058 C 0.64029 0.95856 0.98301 0.0
C2059 C 0.63813 0.95167 1.00392 0.0
C2060 C 0.64403 0.97047 0.9843 0.0
C2061 C 0.65923 0.99438 0.02636 0.0
H2062 H 0.65338 0.0124 0.97739 0.0
C2063 C 0.68184 0.04439 0.02869 0.0
C2064 C 0.68802 0.05005 0.00746 0.0
C2065 C 0.67345 0.03249 0.02911 0.0
C2066 C 0.65506 0.00746 0.99123 0.0
H2067 H 0.63731 0.95149 0.04243 0.0
H2068 H 0.64333 0.9721 0.04478 0.0
H2069 H 0.64258 0.99114 0.97672 0.0
H2070 H 0.68972 0.04799 0.96976 0.0
H2071 H 0.67505 0.02727 0.97044 0.0
H2072 H 0.67179 0.01069 0.04069 0.0
C2073 C 0.64259 0.96851 0.02737 0.0
C2074 C 0.64892 0.99528 0.9908 0.0
C2075 C 0.63905 0.95668 0.02607 0.0
C2076 C 0.68514 0.04379 0.98641 0.0
C2077 C 0.67668 0.03196 0.98677 0.0
C2078 C 0.66526 0.00652 0.02691 0.0
C2079 C 0.64555 0.97567 0.00654 0.0
C2080 C 0.65109 0.98857 0.00813 0.0
C2081 C 0.67098 0.0261 0.00824 0.0
C2082 C 0.66342 0.01321 0.00912 0.0
H2083 H 0.63973 0.95488 0.96574 0.0
H2084 H 0.64633 0.97568 0.96787 0.0
H2085 H 0.66137 0.98959 0.03974 0.0
H2086 H 0.68392 0.04901 0.04518 0.0
H2087 H 0.66912 0.02821 0.04588 0.0
C2088 C 0.7099 0.7098 0.34818 0.0
C2089 C 0.71758 0.71199 0.32848 0.0
C2090 C 0.69873 0.70915 0.34516 0.0
C2091 C 0.67602 0.69894 0.30087 0.0
H2092 H 0.65821 0.70522 0.34887 0.0
C2093 C 0.62595 0.66936 0.30907 0.0
C2094 C 0.62235 0.665 0.33247 0.0
C2095 C 0.63671 0.67964 0.30476 0.0
C2096 C 0.66306 0.70346 0.33519 0.0
H2097 H 0.71999 0.71599 0.29045 0.0
H2098 H 0.70036 0.71477 0.28515 0.0
H2099 H 0.68017 0.71591 0.34849 0.0
H2100 H 0.62647 0.66813 0.36977 0.0
H2101 H 0.6456 0.68575 0.3624 0.0
H2102 H 0.65918 0.68581 0.28881 0.0
C2103 C 0.70301 0.71357 0.3029 0.0
C2104 C 0.67561 0.70962 0.33492 0.0
C2105 C 0.71422 0.71427 0.30594 0.0
C2106 C 0.62918 0.67138 0.35158 0.0
C2107 C 0.64006 0.68155 0.34729 0.0
C2108 C 0.66352 0.69272 0.30127 0.0
C2109 C 0.695 0.71062 0.32235 0.0
C2110 C 0.68218 0.70696 0.31852 0.0
C2111 C 0.64417 0.68556 0.32377 0.0
C2112 C 0.65691 0.69445 0.31926 0.0
H2113 H 0.71239 0.70823 0.36582 0.0
H2114 H 0.6927 0.70672 0.36045 0.0
H2115 H 0.68083 0.69662 0.28811 0.0
H2116 H 0.62063 0.6646 0.29413 0.0
H2117 H 0.63947 0.68263 0.28647 0.0
C2118 C 0.33392 0.9548 0.36786 0.0
C2119 C 0.34055 0.95803 0.34634 0.0
C2120 C 0.32342 0.95562 0.36984 0.0
C2121 C 0.3014 0.96088 0.33574 0.0
H2122 H 0.30608 0.98228 0.38579 0.0
C2123 C 0.29226 0.99875 0.32366 0.0
C2124 C 0.29071 0.00405 0.34359 0.0
C2125 C 0.29322 0.98866 0.32658 0.0
C2126 C 0.30426 0.97602 0.37213 0.0
H2127 H 0.34099 0.96373 0.30956 0.0
H2128 H 0.32278 0.96537 0.3131 0.0
H2129 H 0.31739 0.97192 0.38615 0.0
H2130 H 0.2878 0.00267 0.38176 0.0
H2131 H 0.28904 0.98473 0.38695 0.0
H2132 H 0.28867 0.96547 0.3211 0.0
C2133 C 0.32561 0.96213 0.32839 0.0
C2134 C 0.31082 0.97007 0.37234 0.0
C2135 C 0.33614 0.96139 0.32646 0.0
C2136 C 0.28914 0.9987 0.36624 0.0
C2137 C 0.28988 0.98849 0.36915 0.0
C2138 C 0.29473 0.96675 0.33566 0.0
C2139 C 0.31935 0.95959 0.35029 0.0
C2140 C 0.30994 0.96296 0.35347 0.0
C2141 C 0.29252 0.98366 0.3495 0.0
C2142 C 0.29662 0.97491 0.35311 0.0
H2143 H 0.33714 0.95217 0.38346 0.0
H2144 H 0.31874 0.9536 0.38691 0.0
H2145 H 0.30043 0.95528 0.32119 0.0
H2146 H 0.29348 0.00282 0.30606 0.0
H2147 H 0.29541 0.98532 0.31105 0.0
C2148 C 0.00396 0.29183 0.31562 0.0
C2149 C 0.99854 0.28865 0.33839 0.0
C2150 C 0.01368 0.30293 0.31113 0.0
C2151 C 0.03596 0.33003 0.33913 0.0
H2152 H 0.02664 0.34514 0.28962 0.0
C2153 C 0.04479 0.37667 0.34438 0.0
C2154 C 0.04485 0.38284 0.32357 0.0
C2155 C 0.04351 0.36554 0.34301 0.0
C2156 C 0.02971 0.34113 0.30303 0.0
H2157 H 0.99955 0.2941 0.37474 0.0
H2158 H 0.01645 0.31355 0.36686 0.0
H2159 H 0.01653 0.32413 0.29315 0.0
H2160 H 0.04478 0.38296 0.28504 0.0
H2161 H 0.04302 0.36366 0.28244 0.0
H2162 H 0.04886 0.34711 0.34957 0.0
C2163 C 0.01325 0.30748 0.35251 0.0
C2164 C 0.02386 0.32903 0.30506 0.0
C2165 C 0.00348 0.29643 0.35695 0.0
C2166 C 0.04455 0.37819 0.3013 0.0
C2167 C 0.04351 0.36716 0.29988 0.0
C2168 C 0.04195 0.34218 0.33691 0.0
C2169 C 0.01818 0.31096 0.32939 0.0
C2170 C 0.02653 0.32339 0.3238 0.0
C2171 C 0.04246 0.3605 0.32074 0.0
C2172 C 0.03847 0.34787 0.31956 0.0
H2173 H 1.00029 0.28598 0.301 0.0
H2174 H 0.01735 0.30541 0.29317 0.0
H2175 H 0.03827 0.32585 0.35355 0.0
H2176 H 0.04503 0.38018 0.36172 0.0
H2177 H 0.04257 0.36065 0.35948 0.0
C2178 C 0.61502 0.974 0.35294 0.0
C2179 C 0.6096 0.96944 0.33124 0.0
C2180 C 0.62737 0.97828 0.35569 0.0
C2181 C 0.65529 0.99083 0.31972 0.0
H2182 H 0.6695 0.98864 0.37942 0.0
C2183 C 0.70675 0.01476 0.33159 0.0
C2184 C 0.71069 0.02106 0.35253 0.0
C2185 C 0.69462 0.00655 0.32901 0.0
C2186 C 0.66567 0.98936 0.36263 0.0
H2187 H 0.61249 0.96532 0.2957 0.0
H2188 H 0.6341 0.97263 0.30049 0.0
H2189 H 0.64773 0.9776 0.37499 0.0
H2190 H 0.70515 0.02316 0.38772 0.0
H2191 H 0.68404 0.00902 0.38313 0.0
H2192 H 0.67316 0.00281 0.30756 0.0
C2193 C 0.62891 0.97306 0.31532 0.0
C2194 C 0.6532 0.98304 0.36011 0.0
C2195 C 0.61656 0.96879 0.3126 0.0
C2196 C 0.70236 0.01857 0.37123 0.0
C2197 C 0.69027 0.01036 0.36869 0.0
C2198 C 0.66776 0.99714 0.32225 0.0
C2199 C 0.63451 0.97809 0.33673 0.0
C2200 C 0.64783 0.98385 0.33875 0.0
C2201 C 0.68619 0.00441 0.34737 0.0
C2202 C 0.67309 0.99666 0.34388 0.0
H2203 H 0.60978 0.97466 0.36741 0.0
H2204 H 0.6314 0.98221 0.37231 0.0
H2205 H 0.65147 0.99181 0.30314 0.0
H2206 H 0.71295 0.01651 0.31684 0.0
H2207 H 0.69179 0.00201 0.31246 0.0
C2208 C 0.98262 0.69753 0.367 0.0
C2209 C 0.97446 0.69629 0.34907 0.0
C2210 C 0.9908 0.69342 0.36389 0.0
C2211 C 0.00436 0.68293 0.31862 0.0
H2212 H 0.00682 0.66491 0.3722 0.0
C2213 C 0.02084 0.64932 0.30881 0.0
C2214 C 0.0276 0.64794 0.3272 0.0
C2215 C 0.01604 0.65682 0.31115 0.0
C2216 C 0.00643 0.67008 0.35718 0.0
H2217 H 0.96846 0.69011 0.31377 0.0
H2218 H 0.98271 0.68283 0.30819 0.0
H2219 H 0.99552 0.67529 0.37673 0.0
H2220 H 0.03489 0.65363 0.36221 0.0
H2221 H 0.02664 0.66688 0.36616 0.0
H2222 H 0.01508 0.67748 0.29893 0.0
C2223 C 0.98298 0.68712 0.32452 0.0
C2224 C 0.99994 0.67605 0.35978 0.0
C2225 C 0.97481 0.69124 0.32767 0.0
C2226 C 0.02978 0.65454 0.34767 0.0
C2227 C 0.02494 0.66203 0.35003 0.0
C2228 C 0.01087 0.67696 0.31602 0.0
C2229 C 0.99091 0.68794 0.3428 0.0
C2230 C 0.99868 0.68242 0.34045 0.0
C2231 C 0.01786 0.66314 0.33194 0.0
C2232 C 0.01184 0.67032 0.33517 0.0
H2233 H 0.9824 0.70136 0.38369 0.0
H2234 H 0.99688 0.69432 0.37819 0.0
H2235 H 0.00373 0.6879 0.30347 0.0
H2236 H 0.01914 0.64449 0.29267 0.0
H2237 H 0.01055 0.65736 0.29695 0.0
C2238 C 0.3468 0.37668 0.35598 0.0
C2239 C 0.35625 0.38324 0.33959 0.0
C2240 C 0.33943 0.36467 0.3534 0.0
C2241 C 0.34101 0.34003 0.32929 0.0
H2242 H 0.30618 0.32326 0.33333 0.0
C2243 C 0.31545 0.29174 0.3085 0.0
C2244 C 0.30542 0.28436 0.32277 0.0
C2245 C 0.32054 0.30381 0.30959 0.0
C2246 C 0.31591 0.32779 0.33244 0.0
H2247 H 0.36471 0.38245 0.30664 0.0
H2248 H 0.35209 0.36158 0.30253 0.0
H2249 H 0.31701 0.34443 0.33765 0.0
H2250 H 0.29258 0.28367 0.3489 0.0
H2251 H 0.3017 0.30487 0.35149 0.0
H2252 H 0.34013 0.32358 0.32482 0.0
C2253 C 0.3505 0.36567 0.31755 0.0
C2254 C 0.32209 0.33991 0.33486 0.0
C2255 C 0.35776 0.37762 0.31999 0.0
C2256 C 0.30028 0.28923 0.33762 0.0
C2257 C 0.30551 0.30136 0.33902 0.0
C2258 C 0.33489 0.32797 0.32717 0.0
C2259 C 0.34143 0.35901 0.33449 0.0
C2260 C 0.3347 0.34614 0.33296 0.0
C2261 C 0.31588 0.30881 0.3254 0.0
C2262 C 0.32225 0.32168 0.32834 0.0
H2263 H 0.34541 0.38073 0.37129 0.0
H2264 H 0.3325 0.35972 0.36673 0.0
H2265 H 0.35074 0.34458 0.32825 0.0
H2266 H 0.31949 0.28815 0.29676 0.0
H2267 H 0.32829 0.30922 0.29828 0.0
C2268 C 0.29572 0.0046 0.66131 0.0
C2269 C 0.28776 0.99945 0.68074 0.0
C2270 C 0.30675 0.01455 0.66426 0.0
C2271 C 0.32879 0.0251 0.70908 0.0
H2272 H 0.34698 0.0492 0.66104 0.0
C2273 C 0.37922 0.04325 0.70243 0.0
C2274 C 0.38325 0.04337 0.67915 0.0
C2275 C 0.36817 0.0428 0.70636 0.0
C2276 C 0.34203 0.04256 0.67471 0.0
H2277 H 0.28458 1.00099 0.71803 0.0
H2278 H 0.30409 0.01834 0.72338 0.0
H2279 H 0.32502 0.03924 0.66068 0.0
H2280 H 0.37947 0.04375 0.6417 0.0
H2281 H 0.35986 0.04227 0.64834 0.0
H2282 H 0.34553 0.02743 0.72177 0.0
C2283 C 0.30173 0.01473 0.70585 0.0
C2284 C 0.32948 0.03694 0.67459 0.0
C2285 C 0.29062 0.00483 0.70281 0.0
C2286 C 0.37644 0.04362 0.6598 0.0
C2287 C 0.36528 0.04293 0.66369 0.0
C2288 C 0.34129 0.03057 0.709 0.0
C2289 C 0.31005 0.01943 0.68679 0.0
C2290 C 0.32279 0.02776 0.69105 0.0
C2291 C 0.36085 0.04217 0.68704 0.0
C2292 C 0.34804 0.03891 0.69102 0.0
H2293 H 0.29361 1.00065 0.64405 0.0
H2294 H 0.31305 0.0179 0.64933 0.0
H2295 H 0.32385 0.01798 0.72188 0.0
H2296 H 0.38452 0.04328 0.71758 0.0
H2297 H 0.36518 0.0425 0.72454 0.0
C2298 C 0.96309 0.33247 0.68577 0.0
C2299 C 0.95991 0.33673 0.66537 0.0
C2300 C 0.96391 0.32229 0.68501 0.0
C2301 C 0.97263 0.30784 0.64252 0.0
H2302 H 0.96785 0.28689 0.69661 0.0
C2303 C 0.00243 0.28723 0.65039 0.0
C2304 C 0.00799 0.28914 0.67257 0.0
C2305 C 0.9918 0.28777 0.64779 0.0
C2306 C 0.96917 0.29261 0.68126 0.0
H2307 H 0.9544 0.33336 0.6286 0.0
H2308 H 0.95591 0.31554 0.62724 0.0
H2309 H 0.95715 0.29811 0.6953 0.0
H2310 H 0.00671 0.29231 0.70971 0.0
H2311 H 0.98847 0.29384 0.70515 0.0
H2312 H 0.98537 0.30325 0.62933 0.0
C2313 C 0.95776 0.32009 0.64379 0.0
C2314 C 0.96302 0.29899 0.68049 0.0
C2315 C 0.95689 0.33027 0.64458 0.0
C2316 C 0.00248 0.29083 0.69247 0.0
C2317 C 0.99197 0.29157 0.68982 0.0
C2318 C 0.97884 0.30157 0.64337 0.0
C2319 C 0.96161 0.31619 0.6638 0.0
C2320 C 0.96518 0.3071 0.66168 0.0
C2321 C 0.98678 0.29051 0.66723 0.0
C2322 C 0.97767 0.29435 0.66336 0.0
H2323 H 0.96524 0.33718 0.70215 0.0
H2324 H 0.96705 0.31958 0.70064 0.0
H2325 H 0.97456 0.31409 0.62787 0.0
H2326 H 0.00656 0.28578 0.63492 0.0
H2327 H 0.9879 0.28667 0.63028 0.0
C2328 C 0.70814 0.70762 0.65234 0.0
C2329 C 0.71165 0.71537 0.67108 0.0
C2330 C 0.70658 0.69643 0.65613 0.0
C2331 C 0.6962 0.67471 0.70326 0.0
H2332 H 0.702 0.65648 0.65729 0.0
C2333 C 0.66808 0.62542 0.70864 0.0
C2334 C 0.6633 0.62051 0.68677 0.0
C2335 C 0.67795 0.63659 0.70922 0.0
C2336 C 0.70032 0.66145 0.67034 0.0
H2337 H 0.71695 0.71782 0.70807 0.0
H2338 H 0.71408 0.69815 0.71479 0.0
H2339 H 0.7127 0.67773 0.65311 0.0
H2340 H 0.66521 0.62289 0.64844 0.0
H2341 H 0.68202 0.64264 0.64926 0.0
H2342 H 0.68314 0.65864 0.71941 0.0
C2343 C 0.71259 0.70076 0.69718 0.0
C2344 C 0.7065 0.67359 0.668 0.0
C2345 C 0.71425 0.712 0.69332 0.0
C2346 C 0.66883 0.62659 0.66548 0.0
C2347 C 0.67853 0.63786 0.66603 0.0
C2348 C 0.68992 0.6626 0.70542 0.0
C2349 C 0.70842 0.69278 0.6788 0.0
C2350 C 0.70415 0.68029 0.68397 0.0
C2351 C 0.68298 0.64313 0.68793 0.0
C2352 C 0.69155 0.65581 0.68846 0.0
H2353 H 0.70624 0.71009 0.63495 0.0
H2354 H 0.70323 0.69041 0.64172 0.0
H2355 H 0.6941 0.67965 0.71567 0.0
H2356 H 0.66399 0.62073 0.72524 0.0
H2357 H 0.68131 0.64026 0.72638 0.0
C2358 C 0.37283 0.35249 0.70701 0.0
C2359 C 0.38034 0.35432 0.68715 0.0
C2360 C 0.36043 0.34518 0.70578 0.0
C2361 C 0.33639 0.32231 0.67017 0.0
H2362 H 0.31683 0.33442 0.69731 0.0
C2363 C 0.28649 0.3057 0.6465 0.0
C2364 C 0.27869 0.30543 0.66445 0.0
C2365 C 0.29875 0.31018 0.65091 0.0
C2366 C 0.32211 0.33079 0.68999 0.0
H2367 H 0.38076 0.34961 0.65064 0.0
H2368 H 0.35905 0.3369 0.64839 0.0
H2369 H 0.3385 0.34494 0.70189 0.0
H2370 H 0.27726 0.30911 0.70119 0.0
H2371 H 0.29868 0.31679 0.70921 0.0
H2372 H 0.31993 0.30825 0.65787 0.0
C2373 C 0.36277 0.34101 0.66504 0.0
C2374 C 0.33457 0.33683 0.69261 0.0
C2375 C 0.37522 0.3483 0.66631 0.0
C2376 C 0.28317 0.30925 0.68715 0.0
C2377 C 0.29542 0.31373 0.69161 0.0
C2378 C 0.32389 0.31624 0.66754 0.0
C2379 C 0.3552 0.33955 0.68462 0.0
C2380 C 0.34189 0.33272 0.68263 0.0
C2381 C 0.30341 0.31449 0.67339 0.0
C2382 C 0.31661 0.32046 0.6773 0.0
H2383 H 0.37654 0.35683 0.72348 0.0
H2384 H 0.35491 0.34405 0.72137 0.0
H2385 H 0.34174 0.31882 0.6625 0.0
H2386 H 0.28317 0.30284 0.62882 0.0
H2387 H 0.30464 0.31075 0.63642 0.0
C2388 C 0.69172 0.98691 0.67825 0.0
C2389 C 0.69136 0.98167 0.6566 0.0
C2390 C 0.68708 0.99461 0.67992 0.0
C2391 C 0.66487 1.00088 0.65025 0.0
H2392 H 0.67764 0.02769 0.69029 0.0
C2393 C 0.64201 0.02924 0.65568 0.0
C2394 C 0.64035 0.03216 0.67864 0.0
C2395 C 0.64972 0.02465 0.65184 0.0
C2396 C 0.67394 0.02019 0.67912 0.0
H2397 H 0.68674 0.98105 0.61933 0.0
H2398 H 0.67888 0.9946 0.62207 0.0
H2399 H 0.68865 0.01689 0.68574 0.0
H2400 H 0.64563 0.03305 0.71545 0.0
H2401 H 0.65905 0.02488 0.70892 0.0
H2402 H 0.65009 0.00399 0.64393 0.0
C2403 C 0.68239 0.99253 0.63797 0.0
C2404 C 0.68024 0.014 0.67653 0.0
C2405 C 0.68694 0.98481 0.63636 0.0
C2406 C 0.64685 0.03086 0.69758 0.0
C2407 C 0.65455 0.02624 0.69378 0.0
C2408 C 0.6586 0.00705 0.65282 0.0
C2409 C 0.68206 0.99726 0.65991 0.0
C2410 C 0.67575 0.00424 0.66211 0.0
C2411 C 0.65589 0.02285 0.67094 0.0
C2412 C 0.66301 0.01675 0.66736 0.0
H2413 H 0.69503 0.98459 0.69416 0.0
H2414 H 0.68691 0.99803 0.69712 0.0
H2415 H 0.66099 0.99325 0.63945 0.0
H2416 H 0.63707 0.0302 0.64086 0.0
H2417 H 0.6507 0.0223 0.63397 0.0
C2418 C 0.01333 0.71237 0.67506 0.0
C2419 C 0.02562 0.71665 0.67986 0.0
C2420 C 0.00569 0.70041 0.67231 0.0
C2421 C 0.00615 0.67544 0.65023 0.0
H2422 H 0.97959 0.65517 0.6925 0.0
C2423 C 0.98816 0.62625 0.65436 0.0
C2424 C 0.97597 0.61858 0.65962 0.0
C2425 C 0.99277 0.63827 0.65496 0.0
C2426 C 0.9868 0.66072 0.68018 0.0
H2427 H 0.0392 0.71152 0.68722 0.0
H2428 H 0.02601 0.69087 0.6814 0.0
H2429 H 0.99007 0.67626 0.69792 0.0
H2430 H 0.95896 0.61761 0.66896 0.0
H2431 H 0.96696 0.63871 0.66927 0.0
H2432 H 0.003 0.66015 0.63229 0.0
C2433 C 0.02236 0.69679 0.67966 0.0
C2434 C 0.99281 0.67278 0.68339 0.0
C2435 C 0.02991 0.70863 0.68281 0.0
C2436 C 0.96839 0.62327 0.66472 0.0
C2437 C 0.97301 0.63537 0.66517 0.0
C2438 C 1.00006 0.66347 0.64676 0.0
C2439 C 0.01025 0.6926 0.67401 0.0
C2440 C 0.00274 0.68016 0.66884 0.0
C2441 C 0.9853 0.64302 0.66049 0.0
C2442 C 0.99056 0.65589 0.66217 0.0
H2443 H 0.00972 0.71827 0.67253 0.0
H2444 H 0.99636 0.69732 0.66795 0.0
H2445 H 0.01373 0.68102 0.63864 0.0
H2446 H 0.99424 0.62297 0.64994 0.0
H2447 H 0.00231 0.64381 0.65164 0.0
C2448 C 0.23411 0.37892 0.01297 0.0
C2449 C 0.23908 0.37916 0.03536 0.0
C2450 C 0.22343 0.37946 0.01102 0.0
C2451 C 0.20256 0.38645 0.04498 0.0
H2452 H 0.17983 0.36754 0.9976 0.0
C2453 C 0.15276 0.37637 0.04333 0.0
C2454 C 0.14828 0.37744 0.021 0.0
C2455 C 0.1641 0.37713 0.04512 0.0
C2456 C 0.18613 0.37294 0.0108 0.0
H2457 H 0.2372 0.38062 0.07318 0.0
H2458 H 0.21829 0.38112 0.07007 0.0
H2459 H 0.19912 0.36795 1.00061 0.0
H2460 H 0.15254 0.38051 0.98309 0.0
H2461 H 0.17208 0.38147 0.98624 0.0
H2462 H 0.18929 0.39112 0.05552 0.0
C2463 C 0.22266 0.38071 0.05387 0.0
C2464 C 0.19724 0.37324 0.01247 0.0
C2465 C 0.23342 0.38031 0.05574 0.0
C2466 C 0.1555 0.37935 1.00055 0.0
C2467 C 0.16676 0.37997 1.00233 0.0
C2468 C 0.19137 0.38603 0.04349 0.0
C2469 C 0.21743 0.38016 0.03149 0.0
C2470 C 0.20564 0.38001 0.02955 0.0
C2471 C 0.17117 0.37885 0.02461 0.0
C2472 C 0.18305 0.37929 0.02634 0.0
H2473 H 0.23842 0.37815 0.997 0.0
H2474 H 0.21987 0.37931 0.99344 0.0
H2475 H 0.20883 0.39192 0.0581 0.0
H2476 H 0.14743 0.37473 0.05945 0.0
H2477 H 0.16722 0.37612 0.06252 0.0
C2478 C 0.63063 0.77107 0.02896 0.0
C2479 C 0.62436 0.7627 0.01189 0.0
C2480 C 0.63023 0.78154 0.02888 0.0
C2481 C 0.61272 0.79554 0.006 0.0
H2482 H 0.64177 0.82406 0.01966 0.0
C2483 C 0.61746 0.84164 0.9918 0.0
C2484 C 0.62382 0.84986 0.00908 0.0
C2485 C 0.61695 0.83073 0.99257 0.0
C2486 C 0.63354 0.81616 0.01607 0.0
H2487 H 0.61291 0.75889 0.98111 0.0
H2488 H 0.6123 0.77715 0.98083 0.0
H2489 H 0.64214 0.8057 0.02004 0.0
H2490 H 0.63407 0.85278 0.04146 0.0
H2491 H 0.63321 0.83385 0.04273 0.0
H2492 H 0.60417 0.80609 1.00179 0.0
C2493 C 0.61733 0.77554 0.9946 0.0
C2494 C 0.63375 0.80561 0.01632 0.0
C2495 C 0.61769 0.76506 0.99474 0.0
C2496 C 0.62932 0.84677 0.02755 0.0
C2497 C 0.62884 0.83591 0.02828 0.0
C2498 C 0.61252 0.80611 0.00567 0.0
C2499 C 0.6236 0.78392 0.01166 0.0
C2500 C 0.62334 0.79515 0.01136 0.0
C2501 C 0.6228 0.82782 0.01062 0.0
C2502 C 0.62293 0.81654 0.01079 0.0
H2503 H 0.6357 0.76946 0.04263 0.0
H2504 H 0.63501 0.78769 0.04254 0.0
H2505 H 0.60449 0.78764 1.00242 0.0
H2506 H 0.61321 0.84377 0.97723 0.0
H2507 H 0.61229 0.82473 0.9786 0.0
C2508 C 0.16203 0.77153 0.03978 0.0
C2509 C 0.15169 0.77136 0.03039 0.0
C2510 C 0.1729 0.78203 0.04056 0.0
C2511 C 0.18831 0.81159 0.01215 0.0
H2512 H 0.20914 0.81979 0.06681 0.0
C2513 C 0.2269 0.85811 0.02238 0.0
C2514 C 0.23802 0.85956 0.03026 0.0
C2515 C 0.21667 0.84714 0.02331 0.0
C2516 C 0.20349 0.81757 0.05131 0.0
H2517 H 0.14453 0.78217 0.01575 0.0
H2518 H 0.16333 0.80032 0.01709 0.0
H2519 H 0.19078 0.8009 0.06672 0.0
H2520 H 0.24701 0.85057 0.04572 0.0
H2521 H 0.22908 0.83136 0.04738 0.0
H2522 H 0.2009 0.82819 0.99672 0.0
C2523 C 0.16319 0.79236 0.02326 0.0
C2524 C 0.19297 0.80674 0.05125 0.0
C2525 C 0.15239 0.78193 0.02247 0.0
C2526 C 0.23857 0.84979 0.03969 0.0
C2527 C 0.2283 0.83877 0.04063 0.0
C2528 C 0.19878 0.82236 0.01221 0.0
C2529 C 0.17362 0.79254 0.03201 0.0
C2530 C 0.18518 0.8037 0.03179 0.0
C2531 C 0.21726 0.8373 0.03213 0.0
C2532 C 0.20642 0.82557 0.0319 0.0
H2533 H 0.1618 0.76354 0.04596 0.0
H2534 H 0.18079 0.78187 0.04733 0.0
H2535 H 0.18267 0.80942 0.99662 0.0
H2536 H 0.22608 0.86549 0.01551 0.0
H2537 H 0.20826 0.84637 0.01712 0.0
C2538 C 0.37156 0.22107 0.98766 0.0
C2539 C 0.38158 0.23154 0.97967 0.0
C2540 C 0.37154 0.21047 0.98629 0.0
C2541 C 0.38612 0.19569 0.95649 0.0
H2542 H 0.37204 0.1736 0.00987 0.0
C2543 C 0.38783 0.15216 0.96583 0.0
C2544 C 0.37741 0.14237 0.97498 0.0
C2545 C 0.38869 0.16322 0.96524 0.0
C2546 C 0.37589 0.17961 0.99469 0.0
H2547 H 0.39937 0.23899 0.96354 0.0
H2548 H 0.39935 0.22039 0.96122 0.0
H2549 H 0.37311 0.19256 0.01126 0.0
H2550 H 0.3595 0.13647 0.98947 0.0
H2551 H 0.36101 0.15567 0.98847 0.0
H2552 H 0.38891 0.18264 0.94 0.0
C2553 C 0.39147 0.22042 0.96842 0.0
C2554 C 0.37651 0.1905 0.99548 0.0
C2555 C 0.39149 0.23108 0.96977 0.0
C2556 C 0.36775 0.14385 0.9828 0.0
C2557 C 0.36862 0.15487 0.98224 0.0
C2558 C 0.38552 0.18475 0.95572 0.0
C2559 C 0.38153 0.21 0.9769 0.0
C2560 C 0.38149 0.19864 0.97629 0.0
C2561 C 0.37917 0.16473 0.97382 0.0
C2562 C 0.38025 0.17653 0.97471 0.0
H2563 H 0.36364 0.22105 0.99481 0.0
H2564 H 0.3636 0.2026 0.99244 0.0
H2565 H 0.38993 0.2017 0.94132 0.0
H2566 H 0.39548 0.15135 0.95987 0.0
H2567 H 0.39697 0.17064 0.95878 0.0
C2568 C 0.85465 0.23629 0.0147 0.0
C2569 C 0.86365 0.23905 0.99724 0.0
C2570 C 0.84393 0.22572 0.01454 0.0
C2571 C 0.83045 0.19603 0.99093 0.0
H2572 H 0.80038 0.19513 0.00729 0.0
C2573 C 0.78468 0.15483 0.97995 0.0
C2574 C 0.77631 0.15159 0.99889 0.0
C2575 C 0.79509 0.16568 0.97922 0.0
C2576 C 0.80871 0.19523 1.00288 0.0
H2577 H 0.86837 0.23287 0.9658 0.0
H2578 H 0.8496 0.21444 0.96534 0.0
H2579 H 0.81906 0.21364 0.00686 0.0
H2580 H 0.77226 0.15737 0.03171 0.0
H2581 H 0.79041 0.17638 0.03031 0.0
H2582 H 0.82008 0.17762 0.98684 0.0
C2583 C 0.85092 0.22038 0.97943 0.0
C2584 C 0.81943 0.20583 1.00266 0.0
C2585 C 0.86168 0.23095 0.97966 0.0
C2586 C 0.77845 0.15962 0.01674 0.0
C2587 C 0.78886 0.17051 0.01596 0.0
C2588 C 0.81973 0.18544 0.99104 0.0
C2589 C 0.8419 0.21763 0.99686 0.0
C2590 C 0.83045 0.20637 0.99675 0.0
C2591 C 0.79737 0.1736 0.99734 0.0
C2592 C 0.80873 0.18491 0.99705 0.0
H2593 H 0.85597 0.24225 0.02875 0.0
H2594 H 0.83731 0.22381 0.02852 0.0
H2595 H 0.83877 0.19606 0.9867 0.0
H2596 H 0.78321 0.14897 0.96562 0.0
H2597 H 0.80135 0.16787 0.96439 0.0
C2598 C 0.85316 0.61986 0.95472 0.0
C2599 C 0.85976 0.62065 0.97525 0.0
C2600 C 0.84205 0.61957 0.95646 0.0
C2601 C 0.82433 0.6272 0.99781 0.0
H2602 H 0.79857 0.61024 0.95387 0.0
C2603 C 0.77722 0.62288 0.00884 0.0
C2604 C 0.7721 0.62498 0.98832 0.0
C2605 C 0.78762 0.62184 0.00719 0.0
C2606 C 0.80572 0.61509 0.96615 0.0
H2607 H 0.85977 0.62108 0.0137 0.0
H2608 H 0.84014 0.62013 0.01699 0.0
H2609 H 0.81697 0.6088 0.95161 0.0
H2610 H 0.77398 0.62753 0.94985 0.0
H2611 H 0.79202 0.62547 0.94699 0.0
H2612 H 0.81298 0.63334 0.01252 0.0
C2613 C 0.84367 0.62015 0.99943 0.0
C2614 C 0.81629 0.61429 0.96485 0.0
C2615 C 0.85485 0.62057 0.99763 0.0
C2616 C 0.77756 0.62579 0.96602 0.0
C2617 C 0.78792 0.62463 0.96436 0.0
C2618 C 0.81373 0.6279 0.99925 0.0
C2619 C 0.83722 0.61988 0.97883 0.0
C2620 C 0.82577 0.62037 0.98061 0.0
C2621 C 0.79311 0.62274 0.98495 0.0
C2622 C 0.80432 0.62189 0.9834 0.0
H2623 H 0.8568 0.61984 0.93729 0.0
H2624 H 0.83745 0.61948 0.94018 0.0
H2625 H 0.83149 0.63223 0.00991 0.0
H2626 H 0.77313 0.6219 0.02627 0.0
H2627 H 0.79129 0.6202 0.02334 0.0
C2628 C 0.82515 0.72054 0.36483 0.0
C2629 C 0.81483 0.71051 0.35748 0.0
C2630 C 0.83625 0.72079 0.3663 0.0
C2631 C 0.8524 0.70521 0.34593 0.0
H2632 H 0.87501 0.72326 0.39421 0.0
C2633 C 0.9004 0.71103 0.34726 0.0
C2634 C 0.90541 0.71111 0.36954 0.0
C2635 C 0.88968 0.71152 0.34562 0.0
C2636 C 0.86878 0.71806 0.38075 0.0
H2637 H 0.80827 0.69281 0.34612 0.0
H2638 H 0.82739 0.69304 0.34992 0.0
H2639 H 0.85552 0.72238 0.39267 0.0
H2640 H 0.9035 0.71217 0.4075 0.0
H2641 H 0.88452 0.71251 0.40494 0.0
H2642 H 0.86541 0.70041 0.33478 0.0
C2643 C 0.827 0.70086 0.3539 0.0
C2644 C 0.85762 0.7177 0.37962 0.0
C2645 C 0.81593 0.70066 0.35212 0.0
C2646 C 0.89971 0.71199 0.39014 0.0
C2647 C 0.88889 0.71231 0.38858 0.0
C2648 C 0.8635 0.70544 0.34727 0.0
C2649 C 0.83736 0.71096 0.36083 0.0
C2650 C 0.84926 0.71128 0.36217 0.0
C2651 C 0.88365 0.71198 0.36629 0.0
C2652 C 0.87187 0.71188 0.36468 0.0
H2653 H 0.82469 0.72824 0.36953 0.0
H2654 H 0.84399 0.72879 0.37141 0.0
H2655 H 0.84634 0.70032 0.33198 0.0
H2656 H 0.90474 0.71046 0.33113 0.0
H2657 H 0.88612 0.71153 0.32811 0.0
C2658 C 0.29183 0.18032 0.32175 0.0
C2659 C 0.28205 0.18115 0.33118 0.0
C2660 C 0.29232 0.16995 0.32412 0.0
C2661 C 0.28011 0.14216 0.35931 0.0
H2662 H 0.29278 0.13304 0.30616 0.0
C2663 C 0.28027 0.09793 0.35657 0.0
C2664 C 0.29071 0.09831 0.34712 0.0
C2665 C 0.27883 0.10785 0.35556 0.0
C2666 C 0.28933 0.13551 0.32125 0.0
H2667 H 0.26513 0.17172 0.35066 0.0
H2668 H 0.26592 0.1535 0.35465 0.0
H2669 H 0.29066 0.15044 0.30222 0.0
H2670 H 0.30807 0.10962 0.33028 0.0
H2671 H 0.30551 0.12683 0.32838 0.0
H2672 H 0.27874 0.12712 0.37825 0.0
C2673 C 0.27328 0.16094 0.34561 0.0
C2674 C 0.28811 0.1455 0.31901 0.0
C2675 C 0.27281 0.17137 0.34329 0.0
C2676 C 0.2998 0.10893 0.33725 0.0
C2677 C 0.29834 0.11881 0.33617 0.0
C2678 C 0.28128 0.1321 0.36152 0.0
C2679 C 0.28303 0.1601 0.33595 0.0
C2680 C 0.28364 0.14906 0.3381 0.0
C2681 C 0.28777 0.11835 0.34501 0.0
C2682 C 0.28605 0.12876 0.3426 0.0
H2683 H 0.29926 0.18776 0.31284 0.0
H2684 H 0.30011 0.16973 0.31696 0.0
H2685 H 0.27673 0.14469 0.37444 0.0
H2686 H 0.27304 0.08987 0.36406 0.0
H2687 H 0.27056 0.1072 0.36239 0.0
C2688 C 0.81547 0.11752 0.35849 0.0
C2689 C 0.81472 0.10678 0.36521 0.0
C2690 C 0.82651 0.12778 0.35811 0.0
C2691 C 0.85677 0.14099 0.38355 0.0
H2692 H 0.86462 0.16388 0.3318 0.0
C2693 C 0.90305 0.18297 0.37522 0.0
C2694 C 0.90327 0.19328 0.36679 0.0
C2695 C 0.89244 0.17227 0.37501 0.0
C2696 C 0.86252 0.15766 0.34657 0.0
H2697 H 0.82503 0.09841 0.37667 0.0
H2698 H 0.8444 0.1164 0.37596 0.0
H2699 H 0.84594 0.14546 0.33103 0.0
H2700 H 0.89233 0.2003 0.3516 0.0
H2701 H 0.87379 0.18176 0.352 0.0
H2702 H 0.87325 0.15326 0.39931 0.0
C2703 C 0.83638 0.11685 0.37111 0.0
C2704 C 0.85181 0.14707 0.34607 0.0
C2705 C 0.82532 0.10654 0.37131 0.0
C2706 C 0.89251 0.1926 0.35849 0.0
C2707 C 0.88189 0.18191 0.35838 0.0
C2708 C 0.86746 0.15162 0.38413 0.0
C2709 C 0.8371 0.1276 0.36453 0.0
C2710 C 0.84876 0.13864 0.36462 0.0
C2711 C 0.88172 0.17158 0.36644 0.0
C2712 C 0.87044 0.16014 0.36571 0.0
H2713 H 0.8075 0.11799 0.35341 0.0
H2714 H 0.82671 0.13591 0.35318 0.0
H2715 H 0.85462 0.13474 0.39827 0.0
H2716 H 0.9111 0.18316 0.38204 0.0
H2717 H 0.8927 0.16451 0.38118 0.0
C2718 C 0.04792 0.48407 0.28984 0.0
C2719 C 0.05019 0.47965 0.3112 0.0
C2720 C 0.0492 0.49528 0.28849 0.0
C2721 C 0.06344 0.52356 0.3185 0.0
H2722 H 0.03861 0.52802 0.28775 0.0
C2723 C 0.05838 0.56442 0.33182 0.0
C2724 C 0.05462 0.56888 0.31254 0.0
C2725 C 0.05876 0.55401 0.33005 0.0
C2726 C 0.04573 0.52699 0.29608 0.0
H2727 H 0.05593 0.48373 0.34769 0.0
H2728 H 0.05801 0.50317 0.34545 0.0
H2729 H 0.03756 0.50899 0.28748 0.0
H2730 H 0.04851 0.56593 0.27606 0.0
H2731 H 0.04946 0.54792 0.27278 0.0
H2732 H 0.07156 0.54152 0.32727 0.0
C2733 C 0.05529 0.498 0.32967 0.0
C2734 C 0.04512 0.51606 0.29594 0.0
C2735 C 0.05396 0.48679 0.33104 0.0
C2736 C 0.05156 0.56282 0.2912 0.0
C2737 C 0.05195 0.5524 0.28942 0.0
C2738 C 0.06406 0.53449 0.31859 0.0
C2739 C 0.05286 0.50237 0.30843 0.0
C2740 C 0.05389 0.51417 0.30738 0.0
C2741 C 0.05542 0.54778 0.30893 0.0
C2742 C 0.05515 0.53633 0.30761 0.0
H2743 H 0.04493 0.47877 0.27427 0.0
H2744 H 0.04737 0.49842 0.2718 0.0
H2745 H 0.07045 0.52246 0.32714 0.0
H2746 H 0.06094 0.56892 0.34844 0.0
H2747 H 0.06137 0.55068 0.34553 0.0
C2748 C 0.52342 0.56268 0.31829 0.0
C2749 C 0.52626 0.57076 0.33632 0.0
C2750 C 0.51224 0.55255 0.31834 0.0
C2751 C 0.48128 0.53964 0.34414 0.0
H2752 H 0.47907 0.51059 0.32484 0.0
C2753 C 0.43879 0.49479 0.36041 0.0
C2754 C 0.43534 0.48686 0.34192 0.0
C2755 C 0.44964 0.50527 0.35886 0.0
C2756 C 0.47952 0.51866 0.33004 0.0
H2757 H 0.51973 0.57436 0.36892 0.0
H2758 H 0.50036 0.55664 0.36927 0.0
H2759 H 0.49855 0.52824 0.32406 0.0
H2760 H 0.44056 0.48378 0.30725 0.0
H2761 H 0.45943 0.50211 0.30449 0.0
H2762 H 0.46225 0.52996 0.35053 0.0
C2763 C 0.5066 0.55825 0.3547 0.0
C2764 C 0.49069 0.5288 0.32955 0.0
C2765 C 0.51774 0.56841 0.35455 0.0
C2766 C 0.44289 0.48975 0.32169 0.0
C2767 C 0.45377 0.50018 0.32022 0.0
C2768 C 0.47012 0.52949 0.34478 0.0
C2769 C 0.50367 0.55021 0.33653 0.0
C2770 C 0.49173 0.53943 0.33666 0.0
C2771 C 0.45732 0.50802 0.33888 0.0
C2772 C 0.46912 0.51888 0.33777 0.0
H2773 H 0.52975 0.56432 0.30386 0.0
H2774 H 0.51024 0.54665 0.30387 0.0
H2775 H 0.48168 0.5477 0.34932 0.0
H2776 H 0.43314 0.49284 0.37616 0.0
H2777 H 0.45215 0.51109 0.3736 0.0
C2778 C 0.4416 0.95546 0.30255 0.0
C2779 C 0.43605 0.95433 0.32492 0.0
C2780 C 0.4521 0.95457 0.30065 0.0
C2781 C 0.4782 0.9584 0.33501 0.0
H2782 H 0.482 0.93978 0.28702 0.0
C2783 C 0.52016 0.9524 0.33262 0.0
C2784 C 0.52498 0.95234 0.31021 0.0
C2785 C 0.50892 0.95182 0.33454 0.0
C2786 C 0.48118 0.94515 0.30034 0.0
H2787 H 0.43712 0.95095 0.36271 0.0
H2788 H 0.45557 0.94975 0.35938 0.0
H2789 H 0.46327 0.94061 0.28966 0.0
H2790 H 0.52177 0.95116 0.27233 0.0
H2791 H 0.50233 0.95059 0.27542 0.0
H2792 H 0.49614 0.96327 0.34533 0.0
C2793 C 0.45181 0.95141 0.34336 0.0
C2794 C 0.47041 0.94559 0.30187 0.0
C2795 C 0.44125 0.95216 0.34525 0.0
C2796 C 0.51823 0.95132 0.28978 0.0
C2797 C 0.50705 0.95089 0.29164 0.0
C2798 C 0.489 0.95809 0.3333 0.0
C2799 C 0.45738 0.95266 0.32107 0.0
C2800 C 0.4688 0.95219 0.31927 0.0
C2801 C 0.50229 0.95127 0.31404 0.0
C2802 C 0.49065 0.95144 0.31598 0.0
H2803 H 0.43799 0.95728 0.28652 0.0
H2804 H 0.45626 0.95567 0.28324 0.0
H2805 H 0.47728 0.9637 0.34839 0.0
H2806 H 0.52519 0.95307 0.34862 0.0
H2807 H 0.50545 0.95184 0.35214 0.0
C2808 C 0.56478 0.04272 0.68134 0.0
C2809 C 0.57414 0.05094 0.69487 0.0
C2810 C 0.55399 0.04302 0.67915 0.0
C2811 C 0.53579 0.05447 0.7082 0.0
H2812 H 0.5182 0.04589 0.64918 0.0
C2813 C 0.49254 0.05796 0.69176 0.0
C2814 C 0.48296 0.04837 0.68115 0.0
C2815 C 0.5039 0.05875 0.69334 0.0
C2816 C 0.52298 0.04823 0.66584 0.0
H2817 H 0.57968 0.06586 0.7169 0.0
H2818 H 0.56096 0.0667 0.7125 0.0
H2819 H 0.53772 0.04671 0.65162 0.0
H2820 H 0.47786 0.03195 0.66446 0.0
H2821 H 0.49767 0.03348 0.66682 0.0
H2822 H 0.52102 0.05609 0.72226 0.0
C2823 C 0.56183 0.0599 0.70381 0.0
C2824 C 0.53416 0.04867 0.66727 0.0
C2825 C 0.5726 0.05952 0.70613 0.0
C2826 C 0.48505 0.03959 0.67228 0.0
C2827 C 0.49641 0.04044 0.67368 0.0
C2828 C 0.52464 0.05412 0.70668 0.0
C2829 C 0.55234 0.05159 0.69041 0.0
C2830 C 0.54067 0.05168 0.68855 0.0
C2831 C 0.50598 0.05003 0.68418 0.0
C2832 C 0.51805 0.05088 0.68556 0.0
H2833 H 0.56576 0.03594 0.67275 0.0
H2834 H 0.54684 0.03635 0.66908 0.0
H2835 H 0.54043 0.05664 0.725 0.0
H2836 H 0.49135 0.06498 0.69848 0.0
H2837 H 0.51112 0.06631 0.70134 0.0
C2838 C 0.96138 0.43818 0.69524 0.0
C2839 C 0.95641 0.4303 0.67679 0.0
C2840 C 0.96036 0.44834 0.69529 0.0
C2841 C 0.94272 0.46148 0.66841 0.0
H2842 H 0.96908 0.49035 0.68992 0.0
C2843 C 0.94562 0.50642 0.65101 0.0
C2844 C 0.94958 0.51424 0.66973 0.0
C2845 C 0.9459 0.49592 0.65305 0.0
C2846 C 0.96158 0.48232 0.68411 0.0
H2847 H 0.94686 0.4271 0.6435 0.0
H2848 H 0.9453 0.44485 0.64327 0.0
H2849 H 0.97093 0.47271 0.69094 0.0
H2850 H 0.95687 0.51712 0.70532 0.0
H2851 H 0.95733 0.49875 0.70889 0.0
H2852 H 0.9335 0.47119 0.66108 0.0
C2853 C 0.94967 0.44307 0.65813 0.0
C2854 C 0.96263 0.47219 0.68473 0.0
C2855 C 0.9506 0.4329 0.65819 0.0
C2856 C 0.95364 0.51122 0.69068 0.0
C2857 C 0.95403 0.50077 0.69263 0.0
C2858 C 0.94172 0.47162 0.66761 0.0
C2859 C 0.95444 0.45089 0.67677 0.0
C2860 C 0.95324 0.46164 0.67676 0.0
C2861 C 0.95026 0.49304 0.67376 0.0
C2862 C 0.95115 0.48217 0.67536 0.0
H2863 H 0.96581 0.43637 0.70992 0.0
H2864 H 0.96402 0.45407 0.71009 0.0
H2865 H 0.93519 0.45348 0.66259 0.0
H2866 H 0.94239 0.50848 0.6347 0.0
H2867 H 0.94301 0.49019 0.63813 0.0
C2868 C 0.5598 0.52242 0.69097 0.0
C2869 C 0.57087 0.52397 0.69949 0.0
C2870 C 0.54971 0.51136 0.69108 0.0
C2871 C 0.53647 0.48152 0.7176 0.0
H2872 H 0.51694 0.47373 0.66104 0.0
C2873 C 0.49583 0.43539 0.70298 0.0
C2874 C 0.48562 0.4351 0.69265 0.0
C2875 C 0.50659 0.44595 0.70442 0.0
C2876 C 0.52222 0.47579 0.67708 0.0
H2877 H 0.57986 0.51508 0.71539 0.0
H2878 H 0.56214 0.49571 0.71569 0.0
H2879 H 0.53491 0.49264 0.66286 0.0
H2880 H 0.47857 0.44578 0.67679 0.0
H2881 H 0.49717 0.46405 0.67928 0.0
H2882 H 0.52365 0.46463 0.73184 0.0
C2883 C 0.56132 0.50311 0.709 0.0
C2884 C 0.53253 0.48664 0.67812 0.0
C2885 C 0.57146 0.51421 0.70886 0.0
C2886 C 0.48634 0.44562 0.68427 0.0
C2887 C 0.49703 0.45613 0.68572 0.0
C2888 C 0.5261 0.47063 0.71657 0.0
C2889 C 0.55037 0.50154 0.69974 0.0
C2890 C 0.53971 0.48972 0.6985 0.0
C2891 C 0.50733 0.45644 0.69559 0.0
C2892 C 0.51875 0.4677 0.69641 0.0
H2893 H 0.55894 0.52977 0.68413 0.0
H2894 H 0.54135 0.51051 0.68433 0.0
H2895 H 0.54177 0.48364 0.73361 0.0
H2896 H 0.49559 0.42744 0.70952 0.0
H2897 H 0.51437 0.44587 0.712 0.0
C2898 C 0.72333 0.89811 0.64032 0.0
C2899 C 0.71247 0.89767 0.64714 0.0
C2900 C 0.72437 0.88795 0.64072 0.0
C2901 C 0.7104 0.85802 0.66744 0.0
H2902 H 0.72483 0.85123 0.61367 0.0
C2903 C 0.70387 0.81211 0.65528 0.0
C2904 C 0.71377 0.81098 0.64768 0.0
C2905 C 0.70439 0.82298 0.65487 0.0
C2906 C 0.72091 0.85306 0.62896 0.0
H2907 H 0.69434 0.88626 0.66043 0.0
H2908 H 0.6961 0.86864 0.66093 0.0
H2909 H 0.72483 0.86984 0.61437 0.0
H2910 H 0.73193 0.82042 0.63316 0.0
H2911 H 0.73287 0.83948 0.63248 0.0
H2912 H 0.70642 0.84129 0.68205 0.0
C2913 C 0.70384 0.8768 0.65531 0.0
C2914 C 0.72092 0.86373 0.62937 0.0
C2915 C 0.70278 0.8869 0.65477 0.0
C2916 C 0.72411 0.82098 0.63898 0.0
C2917 C 0.72465 0.8319 0.63861 0.0
C2918 C 0.71041 0.8474 0.66706 0.0
C2919 C 0.71461 0.87717 0.64822 0.0
C2920 C 0.71549 0.86626 0.64846 0.0
C2921 C 0.71485 0.83306 0.64689 0.0
C2922 C 0.71549 0.84468 0.64766 0.0
H2923 H 0.73095 0.90627 0.63425 0.0
H2924 H 0.73283 0.88854 0.63531 0.0
H2925 H 0.70636 0.85978 0.68265 0.0
H2926 H 0.69567 0.80456 0.66162 0.0
H2927 H 0.69656 0.82348 0.66081 0.0
C2928 C 0.11567 0.82171 0.6779 0.0
C2929 C 0.10445 0.82063 0.67185 0.0
C2930 C 0.1262 0.83234 0.67456 0.0
C2931 C 0.14747 0.85394 0.65254 0.0
H2932 H 0.1486 0.88216 0.67444 0.0
C2933 C 0.1898 0.89924 0.64005 0.0
C2934 C 0.19334 0.90597 0.66047 0.0
C2935 C 0.17857 0.88917 0.63945 0.0
C2936 C 0.14841 0.87435 0.66822 0.0
H2937 H 0.0955 0.82987 0.65756 0.0
H2938 H 0.11398 0.84855 0.65183 0.0
H2939 H 0.12971 0.86377 0.67718 0.0
H2940 H 0.18773 0.90766 0.69591 0.0
H2941 H 0.1682 0.89011 0.69489 0.0
H2942 H 0.16622 0.86444 0.64404 0.0
C2943 C 0.11457 0.84113 0.65919 0.0
C2944 C 0.13758 0.86385 0.6696 0.0
C2945 C 0.10401 0.83044 0.66233 0.0
C2946 C 0.18531 0.90258 0.68003 0.0
C2947 C 0.17407 0.89259 0.67935 0.0
C2948 C 0.15827 0.86445 0.65097 0.0
C2949 C 0.12578 0.84218 0.6652 0.0
C2950 C 0.13704 0.85349 0.66212 0.0
C2951 C 0.17061 0.88571 0.65915 0.0
C2952 C 0.15891 0.87474 0.65911 0.0
H2953 H 0.11633 0.81428 0.68498 0.0
H2954 H 0.13467 0.83289 0.6796 0.0
H2955 H 0.1473 0.84612 0.64641 0.0
H2956 H 0.19581 0.90162 0.62474 0.0
H2957 H 0.17611 0.88408 0.62356 0.0
C2958 C 0.18923 0.28773 0.66253 0.0
C2959 C 0.19418 0.28776 0.6402 0.0
C2960 C 0.17795 0.28711 0.66421 0.0
C2961 C 0.15766 0.29413 0.62995 0.0
H2962 H 0.13368 0.27439 0.67738 0.0
C2963 C 0.11076 0.29099 0.63395 0.0
C2964 C 0.1055 0.29002 0.65654 0.0
C2965 C 0.12122 0.29009 0.63154 0.0
C2966 C 0.14033 0.28008 0.66422 0.0
H2967 H 0.19119 0.28668 0.60223 0.0
H2968 H 0.1715 0.28576 0.60504 0.0
H2969 H 0.15251 0.27382 0.67417 0.0
H2970 H 0.10716 0.28712 0.69431 0.0
H2971 H 0.12562 0.2861 0.69022 0.0
H2972 H 0.14572 0.30067 0.62039 0.0
C2973 C 0.17635 0.28632 0.62123 0.0
C2974 C 0.1511 0.2797 0.66234 0.0
C2975 C 0.18756 0.2868 0.6196 0.0
C2976 C 0.11101 0.2881 0.67664 0.0
C2977 C 0.12153 0.28732 0.67425 0.0
C2978 C 0.14695 0.29461 0.63199 0.0
C2979 C 0.17148 0.28659 0.64354 0.0
C2980 C 0.15989 0.28673 0.6452 0.0
C2981 C 0.1268 0.2883 0.65167 0.0
C2982 C 0.13813 0.28761 0.64919 0.0
H2983 H 0.1942 0.28844 0.67863 0.0
H2984 H 0.17447 0.2874 0.68163 0.0
H2985 H 0.16433 0.29977 0.61679 0.0
H2986 H 0.10689 0.29259 0.61806 0.0
H2987 H 0.12489 0.29073 0.61381 0.0
C2988 C 0.06888 0.43091 0.23043 0.0
C2989 C 0.06146 0.42277 0.24811 0.0
C2990 C 0.0726 0.4273 0.21027 0.0
C2991 C 0.06528 0.40078 0.17505 0.0
H2992 H 0.09661 0.42081 0.14616 0.0
C2993 C 0.07946 0.38975 0.08478 0.0
C2994 C 0.09156 0.39273 0.08121 0.0
C2995 C 0.07583 0.39354 0.10477 0.0
C2996 C 0.08786 0.41501 0.15402 0.0
H2997 H 0.05194 0.40447 0.25831 0.0
H2998 H 0.0586 0.39814 0.22358 0.0
H2999 H 0.0905 0.42686 0.1817 0.0
H3000 H 0.10928 0.40168 0.09629 0.0
H3001 H 0.10305 0.40823 0.13124 0.0
H3002 H 0.0628 0.38876 0.14783 0.0
C3003 C 0.06151 0.40732 0.22495 0.0
C3004 C 0.08426 0.41858 0.17438 0.0
C3005 C 0.05775 0.41094 0.24506 0.0
C3006 C 0.09994 0.39949 0.09826 0.0
C3007 C 0.09633 0.40325 0.11833 0.0
C3008 C 0.06891 0.39718 0.15474 0.0
C3009 C 0.06898 0.41543 0.2071 0.0
C3010 C 0.07289 0.41155 0.1853 0.0
C3011 C 0.08419 0.40034 0.12202 0.0
C3012 C 0.08027 0.40423 0.1438 0.0
H3013 H 0.07167 0.44006 0.23205 0.0
H3014 H 0.07812 0.43385 0.1969 0.0
H3015 H 0.0564 0.39512 0.18252 0.0
H3016 H 0.07279 0.38443 0.07206 0.0
H3017 H 0.06645 0.39119 0.10657 0.0
C3018 C 0.57524 0.63278 0.23855 0.0
C3019 C 0.57991 0.63757 0.26066 0.0
C3020 C 0.57855 0.63979 0.21752 0.0
C3021 C 0.60123 0.66987 0.19323 0.0
H3022 H 0.58029 0.66042 0.13872 0.0
C3023 C 0.60944 0.70005 0.10885 0.0
C3024 C 0.60919 0.69516 0.08676 0.0
C3025 C 0.60565 0.69308 0.12992 0.0
C3026 C 0.58628 0.66316 0.15375 0.0
H3027 H 0.5912 0.65363 0.27817 0.0
H3028 H 0.59644 0.66601 0.24202 0.0
H3029 H 0.57393 0.6486 0.17556 0.0
H3030 H 0.60414 0.67898 0.0694 0.0
H3031 H 0.59706 0.6667 0.10608 0.0
H3032 H 0.61333 0.68472 0.17138 0.0
C3033 C 0.59068 0.65673 0.24041 0.0
C3034 C 0.58267 0.65631 0.17501 0.0
C3035 C 0.58756 0.64965 0.26136 0.0
C3036 C 0.60451 0.68302 0.08615 0.0
C3037 C 0.60046 0.676 0.10716 0.0
C3038 C 0.6047 0.67684 0.17213 0.0
C3039 C 0.58638 0.65193 0.21795 0.0
C3040 C 0.59011 0.65947 0.1952 0.0
C3041 C 0.60114 0.68095 0.12941 0.0
C3042 C 0.59731 0.67356 0.15203 0.0
H3043 H 0.56915 0.62352 0.23745 0.0
H3044 H 0.57509 0.63555 0.2009 0.0
H3045 H 0.60746 0.67262 0.20783 0.0
H3046 H 0.61275 0.70933 0.10986 0.0
H3047 H 0.60614 0.69717 0.14664 0.0
C3048 C 0.31319 0.92621 0.1003 0.0
C3049 C 0.3073 0.91454 0.09355 0.0
C3050 C 0.32015 0.92958 0.12099 0.0
C3051 C 0.3273 0.91697 0.17691 0.0
H3052 H 0.35231 0.94898 0.18282 0.0
C3053 C 0.36483 0.93333 0.24937 0.0
C3054 C 0.36535 0.94221 0.2636 0.0
C3055 C 0.35754 0.92981 0.22914 0.0
C3056 C 0.34532 0.94001 0.18146 0.0
H3057 H 0.30368 0.89716 0.10429 0.0
H3058 H 0.31661 0.90303 0.13864 0.0
H3059 H 0.34062 0.9432 0.14659 0.0
H3060 H 0.35909 0.95477 0.26674 0.0
H3061 H 0.34677 0.94898 0.23079 0.0
H3062 H 0.33266 0.91381 0.21149 0.0
C3063 C 0.31573 0.90971 0.12856 0.0
C3064 C 0.33846 0.93664 0.16063 0.0
C3065 C 0.30849 0.90631 0.10826 0.0
C3066 C 0.35873 0.94777 0.25645 0.0
C3067 C 0.3517 0.94448 0.23583 0.0
C3068 C 0.33441 0.92029 0.19741 0.0
C3069 C 0.32167 0.92142 0.13556 0.0
C3070 C 0.32922 0.92504 0.1579 0.0
C3071 C 0.35094 0.9354 0.222 0.0
C3072 C 0.34345 0.93186 0.20004 0.0
H3073 H 0.31225 0.93274 0.08968 0.0
H3074 H 0.32413 0.93862 0.12564 0.0
H3075 H 0.32019 0.90804 0.17633 0.0
H3076 H 0.37025 0.92924 0.25356 0.0
H3077 H 0.35731 0.92292 0.21866 0.0
C3078 C 0.38895 0.07632 0.91014 0.0
C3079 C 0.39428 0.08814 0.91592 0.0
C3080 C 0.39262 0.07286 0.8897 0.0
C3081 C 0.41781 0.08025 0.84921 0.0
H3082 H 0.39438 0.06337 0.80129 0.0
C3083 C 0.43292 0.06916 0.76015 0.0
C3084 C 0.42462 0.05988 0.74673 0.0
C3085 C 0.42921 0.07272 0.78038 0.0
C3086 C 0.4011 0.06784 0.81453 0.0
H3087 H 0.40726 0.10562 0.90365 0.0
H3088 H 0.41429 0.09949 0.86905 0.0
H3089 H 0.38809 0.06889 0.83737 0.0
H3090 H 0.406 0.04658 0.74511 0.0
H3091 H 0.39961 0.05214 0.78101 0.0
H3092 H 0.43073 0.07875 0.82753 0.0
C3093 C 0.40728 0.09291 0.88048 0.0
C3094 C 0.39744 0.0711 0.83527 0.0
C3095 C 0.40337 0.0964 0.90054 0.0
C3096 C 0.41258 0.05394 0.75473 0.0
C3097 C 0.40891 0.05727 0.77536 0.0
C3098 C 0.42143 0.0767 0.82883 0.0
C3099 C 0.40188 0.0811 0.87467 0.0
C3100 C 0.40575 0.07743 0.8528 0.0
C3101 C 0.41712 0.06681 0.78862 0.0
C3102 C 0.41318 0.07048 0.81086 0.0
H3103 H 0.38179 0.06975 0.92133 0.0
H3104 H 0.38826 0.0637 0.88571 0.0
H3105 H 0.42443 0.08502 0.86248 0.0
H3106 H 0.44237 0.07363 0.7552 0.0
H3107 H 0.43595 0.08019 0.78941 0.0
C3108 C 0.9072 0.30661 0.91046 0.0
C3109 C 0.91609 0.30812 0.92701 0.0
C3110 C 0.9102 0.31335 0.88907 0.0
C3111 C 0.93448 0.34071 0.85953 0.0
H3112 H 0.9182 0.32647 0.80149 0.0
C3113 C 0.94215 0.3681 0.77137 0.0
C3114 C 0.94287 0.36318 0.74996 0.0
C3115 C 0.93853 0.36138 0.79278 0.0
C3116 C 0.92292 0.33061 0.81745 0.0
H3117 H 0.93512 0.31778 0.93396 0.0
H3118 H 0.94042 0.32952 0.89674 0.0
H3119 H 0.91286 0.31494 0.8388 0.0
H3120 H 0.94004 0.34729 0.73407 0.0
H3121 H 0.9337 0.33549 0.77132 0.0
H3122 H 0.94471 0.35631 0.83813 0.0
C3123 C 0.93107 0.32329 0.90032 0.0
C3124 C 0.91973 0.324 0.83903 0.0
C3125 C 0.92806 0.31653 0.92166 0.0
C3126 C 0.93956 0.3513 0.75031 0.0
C3127 C 0.93589 0.34454 0.77171 0.0
C3128 C 0.93764 0.34733 0.83798 0.0
C3129 C 0.9222 0.3218 0.88357 0.0
C3130 C 0.92548 0.32892 0.86047 0.0
C3131 C 0.93543 0.3495 0.79339 0.0
C3132 C 0.93193 0.3424 0.81653 0.0
H3133 H 0.89792 0.3001 0.91399 0.0
H3134 H 0.90307 0.31198 0.87689 0.0
H3135 H 0.93907 0.34491 0.87555 0.0
H3136 H 0.94454 0.37721 0.77158 0.0
H3137 H 0.9381 0.36551 0.80886 0.0
C3138 C 0.70148 0.60222 0.91399 0.0
C3139 C 0.6997 0.60893 0.93092 0.0
C3140 C 0.69414 0.59832 0.89389 0.0
C3141 C 0.66471 0.5936 0.86955 0.0
H3142 H 0.6789 0.59316 0.80877 0.0
C3143 C 0.63531 0.57334 0.78652 0.0
C3144 C 0.63962 0.5791 0.76426 0.0
C3145 C 0.64268 0.57672 0.80663 0.0
C3146 C 0.67476 0.59328 0.82553 0.0
H3147 H 0.68903 0.61706 0.93972 0.0
H3148 H 0.67618 0.6103 0.9048 0.0
H3149 H 0.69145 0.5996 0.84396 0.0
H3150 H 0.65517 0.59265 0.74543 0.0
H3151 H 0.66809 0.59861 0.78044 0.0
H3152 H 0.64808 0.58748 0.85107 0.0
C3153 C 0.68308 0.6078 0.90716 0.0
C3154 C 0.68197 0.59686 0.84589 0.0
C3155 C 0.69046 0.61172 0.9272 0.0
C3156 C 0.6516 0.58808 0.76239 0.0
C3157 C 0.65901 0.59146 0.78249 0.0
C3158 C 0.6575 0.58997 0.84923 0.0
C3159 C 0.68482 0.60108 0.89006 0.0
C3160 C 0.67707 0.5971 0.86827 0.0
C3161 C 0.65463 0.58592 0.80505 0.0
C3162 C 0.66239 0.58975 0.82683 0.0
H3163 H 0.7087 0.60014 0.91611 0.0
H3164 H 0.69575 0.59311 0.88136 0.0
H3165 H 0.66052 0.59353 0.88637 0.0
H3166 H 0.62617 0.56625 0.78841 0.0
H3167 H 0.63899 0.57205 0.82344 0.0
C3168 C 0.90511 0.5965 0.8797 0.0
C3169 C 0.91081 0.60839 0.88488 0.0
C3170 C 0.90922 0.59258 0.86089 0.0
C3171 C 0.93624 0.60116 0.82295 0.0
H3172 H 0.91397 0.57549 0.78529 0.0
C3173 C 0.95024 0.58599 0.73842 0.0
C3174 C 0.94503 0.57393 0.73598 0.0
C3175 C 0.94645 0.59045 0.75685 0.0
C3176 C 0.9203 0.5826 0.7958 0.0
H3177 H 0.9252 0.6255 0.87388 0.0
H3178 H 0.93207 0.61873 0.84049 0.0
H3179 H 0.90624 0.583 0.81587 0.0
H3180 H 0.93233 0.557 0.75108 0.0
H3181 H 0.92561 0.56474 0.78335 0.0
H3182 H 0.95029 0.60081 0.80255 0.0
C3183 C 0.92457 0.61239 0.85134 0.0
C3184 C 0.91588 0.5869 0.81336 0.0
C3185 C 0.9205 0.6163 0.87028 0.0
C3186 C 0.93633 0.56635 0.75262 0.0
C3187 C 0.93247 0.57078 0.77091 0.0
C3188 C 0.94066 0.59691 0.80524 0.0
C3189 C 0.91908 0.60046 0.84661 0.0
C3190 C 0.92379 0.59618 0.82728 0.0
C3191 C 0.93736 0.58287 0.77302 0.0
C3192 C 0.93274 0.58753 0.79162 0.0
H3193 H 0.89752 0.59017 0.89036 0.0
H3194 H 0.90484 0.58332 0.85795 0.0
H3195 H 0.94261 0.60818 0.83358 0.0
H3196 H 0.95699 0.59195 0.72569 0.0
H3197 H 0.95034 0.5998 0.75799 0.0
C3198 C 0.38277 0.30459 0.90648 0.0
C3199 C 0.38943 0.29882 0.91118 0.0
C3200 C 0.38634 0.31306 0.88801 0.0
C3201 C 0.41242 0.33527 0.8584 0.0
H3202 H 0.39347 0.3325 0.80247 0.0
C3203 C 0.43281 0.36664 0.77709 0.0
C3204 C 0.42532 0.36894 0.76222 0.0
C3205 C 0.42794 0.35839 0.79586 0.0
C3206 C 0.3988 0.33358 0.81817 0.0
H3207 H 0.40433 0.29656 0.89928 0.0
H3208 H 0.41095 0.31182 0.86771 0.0
H3209 H 0.38546 0.31723 0.83385 0.0
H3210 H 0.40705 0.36528 0.75623 0.0
H3211 H 0.39848 0.35129 0.78988 0.0
H3212 H 0.4256 0.35172 0.8436 0.0
C3213 C 0.40306 0.30984 0.8784 0.0
C3214 C 0.39421 0.32476 0.83601 0.0
C3215 C 0.39933 0.30121 0.89647 0.0
C3216 C 0.41295 0.36343 0.76728 0.0
C3217 C 0.40807 0.35534 0.7864 0.0
C3218 C 0.4169 0.34421 0.84089 0.0
C3219 C 0.39667 0.31591 0.87423 0.0
C3220 C 0.40109 0.32548 0.85603 0.0
C3221 C 0.41547 0.35254 0.80073 0.0
C3222 C 0.41027 0.3434 0.82027 0.0
H3223 H 0.375 0.30272 0.91746 0.0
H3224 H 0.38127 0.31762 0.88496 0.0
H3225 H 0.41781 0.33602 0.87389 0.0
H3226 H 0.44244 0.37106 0.7739 0.0
H3227 H 0.43398 0.35644 0.80615 0.0
C3228 C 0.71346 0.1012 0.90791 0.0
C3229 C 0.71046 0.09588 0.93074 0.0
C3230 C 0.70493 0.09729 0.88991 0.0
C3231 C 0.67232 0.08205 0.8808 0.0
H3232 H 0.68081 0.0775 0.81722 0.0
C3233 C 0.63687 0.06048 0.80793 0.0
C3234 C 0.64016 0.0648 0.78432 0.0
C3235 C 0.6454 0.06443 0.82594 0.0
C3236 C 0.67833 0.07889 0.83478 0.0
H3237 H 0.69637 0.08251 0.95306 0.0
H3238 H 0.68137 0.07564 0.92159 0.0
H3239 H 0.6959 0.08404 0.8482 0.0
H3240 H 0.65506 0.07672 0.76128 0.0
H3241 H 0.66973 0.08392 0.79276 0.0
H3242 H 0.6548 0.07706 0.86739 0.0
C3243 C 0.69028 0.0828 0.91753 0.0
C3244 C 0.68697 0.0826 0.85254 0.0
C3245 C 0.69884 0.08665 0.93543 0.0
C3246 C 0.65213 0.07331 0.77929 0.0
C3247 C 0.66062 0.07731 0.7973 0.0
C3248 C 0.66369 0.07842 0.863 0.0
C3249 C 0.69322 0.08811 0.8946 0.0
C3250 C 0.68405 0.08419 0.87574 0.0
C3251 C 0.6574 0.07283 0.82081 0.0
C3252 C 0.66658 0.07678 0.83977 0.0
H3253 H 0.72233 0.10848 0.90415 0.0
H3254 H 0.70739 0.10164 0.87249 0.0
H3255 H 0.66986 0.08336 0.89846 0.0
H3256 H 0.62771 0.05401 0.81252 0.0
H3257 H 0.64261 0.0607 0.8438 0.0
C3258 C 0.60445 0.89755 0.0932 0.0
C3259 C 0.61358 0.90526 0.07745 0.0
C3260 C 0.60025 0.90182 0.11125 0.0
C3261 C 0.59975 0.9286 0.12912 0.0
H3262 H 0.58975 0.91188 0.19014 0.0
C3263 C 0.57582 0.94075 0.2018 0.0
C3264 C 0.57863 0.93969 0.22561 0.0
C3265 C 0.58008 0.93664 0.1835 0.0
C3266 C 0.59262 0.91674 0.1733 0.0
H3267 H 0.62591 0.92336 0.06849 0.0
H3268 H 0.61892 0.93091 0.1006 0.0
H3269 H 0.59775 0.90481 0.15942 0.0
H3270 H 0.5885 0.93398 0.24888 0.0
H3271 H 0.59614 0.92708 0.2171 0.0
H3272 H 0.59505 0.9408 0.14341 0.0
C3273 C 0.61468 0.92158 0.09863 0.0
C3274 C 0.59705 0.91258 0.15551 0.0
C3275 C 0.61877 0.91729 0.08043 0.0
C3276 C 0.58598 0.93469 0.23072 0.0
C3277 C 0.59033 0.9307 0.21248 0.0
C3278 C 0.59542 0.93284 0.14702 0.0
C3279 C 0.60527 0.9139 0.11414 0.0
C3280 C 0.60066 0.91844 0.13316 0.0
C3281 C 0.58736 0.93152 0.18864 0.0
C3282 C 0.59181 0.92697 0.16936 0.0
H3283 H 0.60041 0.88823 0.09123 0.0
H3284 H 0.59291 0.89564 0.12262 0.0
H3285 H 0.60228 0.93326 0.11202 0.0
H3286 H 0.57013 0.94453 0.1974 0.0
H3287 H 0.5775 0.9373 0.16538 0.0
C3288 C 0.05987 0.63209 0.22561 0.0
C3289 C 0.05566 0.63378 0.24738 0.0
C3290 C 0.0635 0.64059 0.20724 0.0
C3291 C 0.07389 0.67206 0.19682 0.0
H3292 H 0.06818 0.66355 0.1307 0.0
C3293 C 0.0975 0.70554 0.11928 0.0
C3294 C 0.09086 0.7045 0.09872 0.0
C3295 C 0.09274 0.69696 0.13753 0.0
C3296 C 0.06974 0.6661 0.14907 0.0
H3297 H 0.05188 0.64545 0.26741 0.0
H3298 H 0.05791 0.66026 0.23511 0.0
H3299 H 0.06023 0.64838 0.16206 0.0
H3300 H 0.07422 0.69392 0.08069 0.0
H3301 H 0.0657 0.67898 0.1128 0.0
H3302 H 0.08317 0.68978 0.18387 0.0
C3303 C 0.05858 0.65248 0.23218 0.0
C3304 C 0.06531 0.65738 0.16707 0.0
C3305 C 0.05502 0.64399 0.25057 0.0
C3306 C 0.07942 0.69484 0.09657 0.0
C3307 C 0.07462 0.68628 0.11484 0.0
C3308 C 0.07827 0.68078 0.17883 0.0
C3309 C 0.063 0.65095 0.21035 0.0
C3310 C 0.06738 0.66024 0.19118 0.0
C3311 C 0.08125 0.68719 0.13552 0.0
C3312 C 0.07631 0.67791 0.15471 0.0
H3313 H 0.06062 0.62432 0.22307 0.0
H3314 H 0.06703 0.63919 0.19086 0.0
H3315 H 0.07581 0.67459 0.21516 0.0
H3316 H 0.10642 0.71289 0.12101 0.0
H3317 H 0.09819 0.69786 0.15297 0.0
C3318 C 0.36138 0.41581 0.27707 0.0
C3319 C 0.37264 0.4256 0.27252 0.0
C3320 C 0.35313 0.41108 0.25877 0.0
C3321 C 0.35041 0.41005 0.19354 0.0
H3322 H 0.31762 0.40318 0.20641 0.0
C3323 C 0.31651 0.40036 0.11827 0.0
C3324 C 0.30452 0.39172 0.12254 0.0
C3325 C 0.32472 0.40423 0.13678 0.0
C3326 C 0.32668 0.40488 0.20259 0.0
H3327 H 0.38411 0.43839 0.24573 0.0
H3328 H 0.36979 0.42998 0.21343 0.0
H3329 H 0.33226 0.41004 0.23823 0.0
H3330 H 0.29174 0.38048 0.14986 0.0
H3331 H 0.30618 0.38694 0.18203 0.0
H3332 H 0.34486 0.40481 0.158 0.0
C3333 C 0.3674 0.42582 0.23102 0.0
C3334 C 0.33507 0.40883 0.22083 0.0
C3335 C 0.37561 0.43059 0.2494 0.0
C3336 C 0.30093 0.38706 0.14586 0.0
C3337 C 0.30918 0.39087 0.16438 0.0
C3338 C 0.342 0.40601 0.17535 0.0
C3339 C 0.35602 0.41611 0.23559 0.0
C3340 C 0.34703 0.41152 0.21645 0.0
C3341 C 0.3212 0.39947 0.16004 0.0
C3342 C 0.33005 0.40346 0.1796 0.0
H3343 H 0.35889 0.41196 0.29493 0.0
H3344 H 0.34446 0.40356 0.26277 0.0
H3345 H 0.35953 0.41192 0.18974 0.0
H3346 H 0.31967 0.40403 0.10049 0.0
H3347 H 0.33385 0.41098 0.13283 0.0
C3348 C 0.72364 0.74473 0.57842 0.0
C3349 C 0.7293 0.75648 0.58476 0.0
C3350 C 0.72727 0.7413 0.55788 0.0
C3351 C 0.75261 0.74817 0.5184 0.0
H3352 H 0.72957 0.73279 0.46892 0.0
C3353 C 0.76777 0.7366 0.42987 0.0
C3354 C 0.75932 0.72754 0.4162 0.0
C3355 C 0.76416 0.74044 0.44983 0.0
C3356 C 0.73617 0.73682 0.4826 0.0
H3357 H 0.74276 0.77392 0.5733 0.0
H3358 H 0.74969 0.76782 0.53851 0.0
H3359 H 0.72327 0.73831 0.50497 0.0
H3360 H 0.74041 0.71516 0.41346 0.0
H3361 H 0.73417 0.72114 0.44885 0.0
H3362 H 0.76539 0.7462 0.49716 0.0
C3363 C 0.74247 0.76126 0.54959 0.0
C3364 C 0.7325 0.7401 0.50331 0.0
C3365 C 0.7386 0.76473 0.56976 0.0
C3366 C 0.74716 0.72227 0.42339 0.0
C3367 C 0.74357 0.72585 0.44374 0.0
C3368 C 0.75622 0.7446 0.49802 0.0
C3369 C 0.7368 0.74951 0.5433 0.0
C3370 C 0.74069 0.74587 0.52141 0.0
C3371 C 0.75198 0.73507 0.45744 0.0
C3372 C 0.7481 0.73889 0.47953 0.0
H3373 H 0.71631 0.73818 0.58932 0.0
H3374 H 0.72269 0.73219 0.55348 0.0
H3375 H 0.75912 0.75253 0.53212 0.0
H3376 H 0.77725 0.74067 0.42526 0.0
H3377 H 0.77104 0.74767 0.45918 0.0
C3378 C 0.27521 0.03491 0.43919 0.0
C3379 C 0.2766 0.03028 0.41792 0.0
C3380 C 0.2714 0.02804 0.46039 0.0
C3381 C 0.25645 0.99716 0.48442 0.0
H3382 H 0.2712 0.01154 0.54347 0.0
C3383 C 0.23966 0.97267 0.57675 0.0
C3384 C 0.2483 0.97443 0.59408 0.0
C3385 C 0.24286 0.97948 0.55542 0.0
C3386 C 0.26701 0.00732 0.52718 0.0
H3387 H 0.27476 0.01474 0.40201 0.0
H3388 H 0.26809 0.00267 0.43893 0.0
H3389 H 0.27715 0.02309 0.50624 0.0
H3390 H 0.26714 0.98449 0.60231 0.0
H3391 H 0.27279 0.99638 0.56524 0.0
H3392 H 0.24648 0.98133 0.50533 0.0
C3393 C 0.26989 0.01161 0.43936 0.0
C3394 C 0.27034 0.01402 0.50573 0.0
C3395 C 0.27375 0.01852 0.41815 0.0
C3396 C 0.26024 0.98309 0.58948 0.0
C3397 C 0.26346 0.98992 0.5682 0.0
C3398 C 0.25309 0.99047 0.5059 0.0
C3399 C 0.26879 0.01629 0.46094 0.0
C3400 C 0.26513 0.00907 0.48394 0.0
C3401 C 0.25483 0.98822 0.55072 0.0
C3402 C 0.25833 0.99541 0.52769 0.0
H3403 H 0.27725 0.04392 0.43947 0.0
H3404 H 0.27047 0.03195 0.47637 0.0
H3405 H 0.25213 0.993 0.46817 0.0
H3406 H 0.23043 0.96589 0.57955 0.0
H3407 H 0.2359 0.9779 0.54264 0.0
C3408 C 0.03477 0.26797 0.58191 0.0
C3409 C 0.03349 0.27516 0.59839 0.0
C3410 C 0.02739 0.2642 0.56183 0.0
C3411 C 0.99861 0.26093 0.53678 0.0
H3412 H 0.01226 0.25868 0.47675 0.0
C3413 C 0.96882 0.24095 0.45398 0.0
C3414 C 0.97347 0.24625 0.43149 0.0
C3415 C 0.97613 0.24421 0.47419 0.0
C3416 C 0.00827 0.25931 0.49329 0.0
H3417 H 0.0237 0.28428 0.60639 0.0
H3418 H 0.01081 0.27775 0.57146 0.0
H3419 H 0.02482 0.26499 0.51189 0.0
H3420 H 0.98951 0.25888 0.41245 0.0
H3421 H 0.00232 0.26461 0.44759 0.0
H3422 H 0.98213 0.25548 0.51808 0.0
C3423 C 0.01733 0.27478 0.57418 0.0
C3424 C 0.01548 0.26282 0.51364 0.0
C3425 C 0.02473 0.27857 0.59421 0.0
C3426 C 0.98569 0.25466 0.42956 0.0
C3427 C 0.99302 0.2579 0.44975 0.0
C3428 C 0.99139 0.25739 0.51645 0.0
C3429 C 0.01856 0.26757 0.55754 0.0
C3430 C 0.01079 0.26371 0.53576 0.0
C3431 C 0.98835 0.25281 0.47249 0.0
C3432 C 0.99609 0.25653 0.49432 0.0
H3433 H 0.04161 0.2654 0.58439 0.0
H3434 H 0.02861 0.25859 0.5497 0.0
H3435 H 0.99457 0.26137 0.55341 0.0
H3436 H 0.95947 0.23435 0.45595 0.0
H3437 H 0.97219 0.2399 0.49116 0.0
C3438 C 0.26943 0.23311 0.41798 0.0
C3439 C 0.27777 0.24046 0.40058 0.0
C3440 C 0.26637 0.23779 0.43702 0.0
C3441 C 0.26709 0.26501 0.45534 0.0
H3442 H 0.25918 0.24906 0.5173 0.0
C3443 C 0.24471 0.27733 0.53074 0.0
C3444 C 0.24804 0.27643 0.55422 0.0
C3445 C 0.24878 0.27331 0.51194 0.0
C3446 C 0.26149 0.25373 0.50021 0.0
H3447 H 0.28997 0.25833 0.38971 0.0
H3448 H 0.28498 0.26664 0.42355 0.0
H3449 H 0.26618 0.24164 0.48549 0.0
H3450 H 0.25863 0.27116 0.5764 0.0
H3451 H 0.26597 0.26446 0.54372 0.0
H3452 H 0.26279 0.27734 0.47039 0.0
C3453 C 0.28047 0.25727 0.42216 0.0
C3454 C 0.26535 0.24936 0.48182 0.0
C3455 C 0.28343 0.25255 0.40295 0.0
C3456 C 0.25574 0.27174 0.5585 0.0
C3457 C 0.2599 0.26787 0.53976 0.0
C3458 C 0.26335 0.26945 0.47384 0.0
C3459 C 0.27177 0.24994 0.43926 0.0
C3460 C 0.26813 0.25489 0.45909 0.0
C3461 C 0.25637 0.26846 0.51625 0.0
C3462 C 0.26046 0.26384 0.4965 0.0
H3463 H 0.26507 0.22374 0.41647 0.0
H3464 H 0.25954 0.23187 0.44963 0.0
H3465 H 0.26899 0.26941 0.43799 0.0
H3466 H 0.23875 0.28087 0.527 0.0
H3467 H 0.24576 0.27379 0.49411 0.0
C3468 C 0.72725 0.96562 0.55825 0.0
C3469 C 0.71873 0.96441 0.57553 0.0
C3470 C 0.73115 0.97454 0.54073 0.0
C3471 C 0.72323 0.9952 0.51035 0.0
H3472 H 0.75748 0.01283 0.49668 0.0
C3473 C 0.74361 0.02864 0.43122 0.0
C3474 C 0.75425 0.03896 0.43536 0.0
C3475 C 0.73885 0.01966 0.44865 0.0
C3476 C 0.7479 0.00805 0.50042 0.0
H3477 H 0.70723 0.97109 0.58787 0.0
H3478 H 0.714 0.98673 0.55713 0.0
H3479 H 0.74984 0.99672 0.52609 0.0
H3480 H 0.76832 0.04819 0.46052 0.0
H3481 H 0.75999 0.0325 0.49128 0.0
H3482 H 0.72133 0.00664 0.48481 0.0
C3483 C 0.71768 0.98083 0.55703 0.0
C3484 C 0.74351 0.99873 0.51706 0.0
C3485 C 0.71383 0.97194 0.57463 0.0
C3486 C 0.76005 0.04029 0.45717 0.0
C3487 C 0.75533 0.03129 0.47459 0.0
C3488 C 0.72763 0.0045 0.4936 0.0
C3489 C 0.72651 0.98234 0.54009 0.0
C3490 C 0.73112 0.99218 0.52221 0.0
C3491 C 0.74473 0.02083 0.47044 0.0
C3492 C 0.74002 0.01104 0.48847 0.0
H3493 H 0.73104 0.9598 0.55862 0.0
H3494 H 0.73782 0.97536 0.52771 0.0
H3495 H 0.71363 0.99028 0.51381 0.0
H3496 H 0.73911 0.02747 0.41432 0.0
H3497 H 0.73076 0.01167 0.44479 0.0
C3498 C 0.04152 0.76592 0.58516 0.0
C3499 C 0.03899 0.76045 0.60786 0.0
C3500 C 0.03306 0.76141 0.56714 0.0
C3501 C 0.00524 0.73487 0.55023 0.0
H3502 H 0.00184 0.75659 0.50679 0.0
C3503 C 0.96691 0.72049 0.48179 0.0
C3504 C 0.97041 0.72534 0.45856 0.0
C3505 C 0.97501 0.72471 0.50054 0.0
C3506 C 0.00274 0.75042 0.5187 0.0
H3507 H 0.02567 0.74632 0.63002 0.0
H3508 H 0.0107 0.73852 0.59871 0.0
H3509 H 0.01655 0.76398 0.53839 0.0
H3510 H 0.98532 0.73832 0.43689 0.0
H3511 H 0.99927 0.74579 0.4696 0.0
H3512 H 0.99129 0.72131 0.53057 0.0
C3513 C 0.01933 0.74605 0.59448 0.0
C3514 C 0.01121 0.75465 0.53676 0.0
C3515 C 0.02784 0.75052 0.61243 0.0
C3516 C 0.98218 0.73455 0.45461 0.0
C3517 C 0.99022 0.73881 0.47335 0.0
C3518 C 0.9967 0.73064 0.53226 0.0
C3519 C 0.02181 0.75147 0.57162 0.0
C3520 C 0.01264 0.74693 0.55264 0.0
C3521 C 0.98674 0.73392 0.49649 0.0
C3522 C 0.99544 0.73837 0.5162 0.0
H3523 H 0.04995 0.77379 0.58149 0.0
H3524 H 0.03534 0.76575 0.54971 0.0
H3525 H 0.00619 0.72867 0.56193 0.0
H3526 H 0.95789 0.71349 0.48556 0.0
H3527 H 0.97205 0.72085 0.51826 0.0
C3528 C 0.07641 0.35189 0.92127 0.0
C3529 C 0.08834 0.35771 0.92909 0.0
C3530 C 0.07356 0.34623 0.89943 0.0
C3531 C 0.08745 0.34477 0.84156 0.0
H3532 H 0.05791 0.3156 0.83579 0.0
C3533 C 0.07798 0.31697 0.75755 0.0
C3534 C 0.06617 0.31114 0.7491 0.0
C3535 C 0.0805 0.32248 0.7795 0.0
C3536 C 0.06614 0.32381 0.83689 0.0
H3537 H 0.10656 0.36176 0.92056 0.0
H3538 H 0.10169 0.35198 0.88255 0.0
H3539 H 0.06258 0.32551 0.87349 0.0
H3540 H 0.04769 0.30625 0.75731 0.0
H3541 H 0.05202 0.31594 0.79555 0.0
H3542 H 0.09102 0.3431 0.805 0.0
C3543 C 0.0945 0.35198 0.89289 0.0
C3544 C 0.06883 0.32953 0.85865 0.0
C3545 C 0.09733 0.3576 0.91473 0.0
C3546 C 0.05689 0.31072 0.76335 0.0
C3547 C 0.0594 0.31624 0.78535 0.0
C3548 C 0.08476 0.33906 0.81982 0.0
C3549 C 0.08256 0.34619 0.88481 0.0
C3550 C 0.07956 0.3401 0.86141 0.0
C3551 C 0.07128 0.3223 0.79375 0.0
C3552 C 0.07407 0.32845 0.81708 0.0
H3553 H 0.06927 0.35171 0.93212 0.0
H3554 H 0.06428 0.34199 0.89391 0.0
H3555 H 0.09569 0.35297 0.84266 0.0
H3556 H 0.08529 0.31729 0.74706 0.0
H3557 H 0.08972 0.3268 0.78537 0.0
C3558 C 0.64358 0.71769 0.90983 0.0
C3559 C 0.64451 0.72641 0.92494 0.0
C3560 C 0.64923 0.72059 0.8872 0.0
C3561 C 0.67355 0.74562 0.85167 0.0
H3562 H 0.65888 0.72588 0.79815 0.0
C3563 C 0.69303 0.75981 0.75518 0.0
C3564 C 0.69282 0.7513 0.74028 0.0
C3565 C 0.68714 0.75668 0.77753 0.0
C3566 C 0.66321 0.73144 0.81292 0.0
H3567 H 0.65185 0.74498 0.928 0.0
H3568 H 0.66155 0.7501 0.88854 0.0
H3569 H 0.64857 0.72067 0.83685 0.0
H3570 H 0.68594 0.73281 0.73683 0.0
H3571 H 0.67572 0.72728 0.77591 0.0
H3572 H 0.68816 0.7564 0.82774 0.0
C3573 C 0.65668 0.741 0.89417 0.0
C3574 C 0.65726 0.72844 0.83525 0.0
C3575 C 0.65104 0.73809 0.91677 0.0
C3576 C 0.68638 0.73956 0.74807 0.0
C3577 C 0.68044 0.73641 0.77042 0.0
C3578 C 0.67947 0.74863 0.82935 0.0
C3579 C 0.65597 0.73231 0.87903 0.0
C3580 C 0.66232 0.73549 0.85504 0.0
C3581 C 0.68075 0.74493 0.78558 0.0
C3582 C 0.67441 0.74161 0.80955 0.0
H3583 H 0.63864 0.70862 0.91571 0.0
H3584 H 0.64853 0.71362 0.87636 0.0
H3585 H 0.67792 0.75119 0.86641 0.0
H3586 H 0.69766 0.7689 0.74939 0.0
H3587 H 0.68743 0.7635 0.78831 0.0
C3588 C 0.26731 0.91126 0.92354 0.0
C3589 C 0.27574 0.91981 0.93818 0.0
C3590 C 0.26448 0.91429 0.90116 0.0
C3591 C 0.26632 0.93959 0.86474 0.0
H3592 H 0.26 0.91895 0.81237 0.0
C3593 C 0.26019 0.95237 0.76695 0.0
C3594 C 0.25189 0.94353 0.75268 0.0
C3595 C 0.26303 0.9497 0.78973 0.0
C3596 C 0.26158 0.92478 0.8268 0.0
H3597 H 0.28756 0.93829 0.94111 0.0
H3598 H 0.28282 0.94367 0.90194 0.0
H3599 H 0.26512 0.91397 0.85115 0.0
H3600 H 0.23972 0.92502 0.75138 0.0
H3601 H 0.24452 0.92031 0.791 0.0
H3602 H 0.2628 0.95042 0.84028 0.0
C3603 C 0.27831 0.93457 0.90768 0.0
C3604 C 0.26454 0.9219 0.84921 0.0
C3605 C 0.28113 0.93151 0.93009 0.0
C3606 C 0.24626 0.932 0.7619 0.0
C3607 C 0.2491 0.92931 0.78459 0.0
C3608 C 0.26337 0.94248 0.8423 0.0
C3609 C 0.26995 0.92601 0.89275 0.0
C3610 C 0.26693 0.92922 0.86864 0.0
C3611 C 0.25762 0.93809 0.79886 0.0
C3612 C 0.2609 0.9351 0.82293 0.0
H3613 H 0.26281 0.90219 0.92953 0.0
H3614 H 0.25783 0.90743 0.89062 0.0
H3615 H 0.2679 0.94541 0.87919 0.0
H3616 H 0.26464 0.96134 0.76031 0.0
H3617 H 0.26969 0.95672 0.79994 0.0
C3618 C 0.34943 0.08795 0.07786 0.0
C3619 C 0.3572 0.0838 0.07063 0.0
C3620 C 0.34389 0.085 0.10053 0.0
C3621 C 0.33752 0.0643 0.15363 0.0
H3622 H 0.32878 0.08545 0.18321 0.0
C3623 C 0.30987 0.05144 0.24303 0.0
C3624 C 0.3119 0.06027 0.25887 0.0
C3625 C 0.31517 0.05419 0.22006 0.0
C3626 C 0.33126 0.07944 0.17555 0.0
H3627 H 0.36579 0.07382 0.08215 0.0
H3628 H 0.3566 0.06903 0.12208 0.0
H3629 H 0.33901 0.09073 0.14485 0.0
H3630 H 0.32069 0.07894 0.26257 0.0
H3631 H 0.33039 0.08376 0.22337 0.0
H3632 H 0.33031 0.05329 0.18497 0.0
C3633 C 0.35428 0.07416 0.10994 0.0
C3634 C 0.337 0.08241 0.15305 0.0
C3635 C 0.35967 0.07698 0.08705 0.0
C3636 C 0.31912 0.07192 0.25095 0.0
C3637 C 0.32456 0.07467 0.2282 0.0
C3638 C 0.33193 0.0614 0.17632 0.0
C3639 C 0.34619 0.07803 0.11709 0.0
C3640 C 0.34021 0.07488 0.14153 0.0
C3641 C 0.32272 0.06587 0.21224 0.0
C3642 C 0.32866 0.06891 0.18775 0.0
H3643 H 0.34753 0.09343 0.0658 0.0
H3644 H 0.33766 0.08809 0.10483 0.0
H3645 H 0.33961 0.05811 0.14552 0.0
H3646 H 0.3042 0.04239 0.24849 0.0
H3647 H 0.31321 0.0471 0.20838 0.0
C3648 C 0.94924 0.25715 0.25801 0.0
C3649 C 0.94001 0.24888 0.27299 0.0
C3650 C 0.94665 0.26024 0.23542 0.0
C3651 C 0.92114 0.25905 0.19952 0.0
H3652 H 0.94362 0.26697 0.14661 0.0
C3653 C 0.90929 0.26646 0.10235 0.0
C3654 C 0.91842 0.27526 0.08799 0.0
C3655 C 0.91187 0.26333 0.12491 0.0
C3656 C 0.93727 0.26492 0.16121 0.0
H3657 H 0.92089 0.23716 0.27588 0.0
H3658 H 0.91631 0.24232 0.23643 0.0
H3659 H 0.94818 0.26121 0.18524 0.0
H3660 H 0.9374 0.28767 0.08604 0.0
H3661 H 0.94195 0.28231 0.12535 0.0
H3662 H 0.9102 0.26269 0.1754 0.0
C3663 C 0.92556 0.24666 0.24215 0.0
C3664 C 0.93991 0.2616 0.18352 0.0
C3665 C 0.92816 0.24361 0.26473 0.0
C3666 C 0.93018 0.28088 0.09674 0.0
C3667 C 0.93279 0.27772 0.11923 0.0
C3668 C 0.91849 0.26232 0.17719 0.0
C3669 C 0.93474 0.25511 0.22712 0.0
C3670 C 0.93189 0.25861 0.20312 0.0
C3671 C 0.92368 0.26886 0.13369 0.0
C3672 C 0.92651 0.26534 0.15764 0.0
H3673 H 0.95845 0.26138 0.26397 0.0
H3674 H 0.95399 0.26687 0.22471 0.0
H3675 H 0.9148 0.25705 0.2141 0.0
H3676 H 0.90017 0.26188 0.09594 0.0
H3677 H 0.90462 0.25637 0.13523 0.0
C3678 C 0.75122 0.69362 0.2461 0.0
C3679 C 0.75802 0.69124 0.26285 0.0
C3680 C 0.74835 0.68813 0.22408 0.0
C3681 C 0.75663 0.67069 0.18327 0.0
H3682 H 0.72647 0.66377 0.15372 0.0
C3683 C 0.74557 0.65266 0.08783 0.0
C3684 C 0.73354 0.6453 0.08179 0.0
C3685 C 0.74848 0.65812 0.10982 0.0
C3686 C 0.73488 0.66548 0.16174 0.0
H3687 H 0.76738 0.68142 0.26935 0.0
H3688 H 0.76208 0.67153 0.23157 0.0
H3689 H 0.73154 0.67327 0.19171 0.0
H3690 H 0.71517 0.63743 0.09465 0.0
H3691 H 0.72016 0.6466 0.13338 0.0
H3692 H 0.75975 0.66246 0.15386 0.0
C3693 C 0.75908 0.67779 0.235 0.0
C3694 C 0.73791 0.67116 0.18353 0.0
C3695 C 0.76205 0.68338 0.25687 0.0
C3696 C 0.72451 0.64319 0.09867 0.0
C3697 C 0.72741 0.64856 0.12083 0.0
C3698 C 0.75355 0.66491 0.16161 0.0
C3699 C 0.75214 0.68002 0.21816 0.0
C3700 C 0.74887 0.67392 0.19472 0.0
C3701 C 0.73946 0.65622 0.12677 0.0
C3702 C 0.74264 0.66223 0.15033 0.0
H3703 H 0.74805 0.69969 0.25014 0.0
H3704 H 0.74322 0.69035 0.21163 0.0
H3705 H 0.76522 0.67274 0.19086 0.0
H3706 H 0.75276 0.65431 0.07534 0.0
H3707 H 0.75785 0.66401 0.11327 0.0
C3708 C 0.92093 0.67394 0.26066 0.0
C3709 C 0.92174 0.68468 0.26589 0.0
C3710 C 0.91797 0.66959 0.23782 0.0
C3711 C 0.91804 0.6791 0.17525 0.0
H3712 H 0.89821 0.64597 0.16631 0.0
C3713 C 0.90346 0.65919 0.08225 0.0
C3714 C 0.9045 0.64919 0.07843 0.0
C3715 C 0.90495 0.66369 0.10503 0.0
C3716 C 0.90381 0.65524 0.16854 0.0
H3717 H 0.91969 0.69912 0.25151 0.0
H3718 H 0.91437 0.69147 0.21165 0.0
H3719 H 0.9016 0.65338 0.20644 0.0
H3720 H 0.90837 0.63632 0.09544 0.0
H3721 H 0.91081 0.64406 0.13503 0.0
H3722 H 0.92026 0.68091 0.13726 0.0
C3723 C 0.91627 0.68651 0.22508 0.0
C3724 C 0.90577 0.65948 0.19152 0.0
C3725 C 0.91928 0.69088 0.24791 0.0
C3726 C 0.9072 0.64387 0.09783 0.0
C3727 C 0.90862 0.64831 0.12054 0.0
C3728 C 0.91602 0.67485 0.15222 0.0
C3729 C 0.91568 0.67587 0.21971 0.0
C3730 C 0.91303 0.67145 0.19518 0.0
C3731 C 0.90747 0.65823 0.12442 0.0
C3732 C 0.90902 0.66286 0.14867 0.0
H3733 H 0.92296 0.66905 0.27403 0.0
H3734 H 0.9178 0.66146 0.2342 0.0
H3735 H 0.92381 0.68834 0.17744 0.0
H3736 H 0.90129 0.66344 0.06775 0.0
H3737 H 0.90395 0.67131 0.10756 0.0
C3738 C 0.30399 0.23573 0.22606 0.0
C3739 C 0.30706 0.24376 0.2442 0.0
C3740 C 0.30935 0.23933 0.20351 0.0
C3741 C 0.33666 0.26027 0.17313 0.0
H3742 H 0.31729 0.25238 0.11623 0.0
C3743 C 0.35517 0.26026 0.0797 0.0
C3744 C 0.35313 0.26677 0.06182 0.0
C3745 C 0.34943 0.25816 0.10187 0.0
C3746 C 0.32278 0.2547 0.13199 0.0
H3747 H 0.31854 0.26163 0.25371 0.0
H3748 H 0.32828 0.26795 0.21414 0.0
H3749 H 0.30745 0.24753 0.15566 0.0
H3750 H 0.34298 0.27551 0.05218 0.0
H3751 H 0.33254 0.2715 0.09106 0.0
H3752 H 0.35197 0.26708 0.14949 0.0
C3753 C 0.32147 0.25895 0.21727 0.0
C3754 C 0.31718 0.25188 0.15446 0.0
C3755 C 0.31591 0.25537 0.23976 0.0
C3756 C 0.34479 0.27063 0.06595 0.0
C3757 C 0.33884 0.26833 0.08805 0.0
C3758 C 0.34225 0.26289 0.15068 0.0
C3759 C 0.31815 0.25096 0.19892 0.0
C3760 C 0.32408 0.25458 0.1752 0.0
C3761 C 0.34128 0.26224 0.10629 0.0
C3762 C 0.33536 0.26005 0.12995 0.0
H3763 H 0.29745 0.22664 0.2294 0.0
H3764 H 0.30683 0.23297 0.18978 0.0
H3765 H 0.34215 0.26237 0.18888 0.0
H3766 H 0.36134 0.25694 0.07658 0.0
H3767 H 0.35127 0.25326 0.11552 0.0
C3768 C 0.74757 0.06605 0.26767 0.0
C3769 C 0.75701 0.07465 0.28043 0.0
C3770 C 0.74564 0.06833 0.24409 0.0
C3771 C 0.7526 0.09229 0.19983 0.0
H3772 H 0.74509 0.06824 0.15413 0.0
C3773 C 0.75192 0.10115 0.09885 0.0
C3774 C 0.74232 0.0926 0.08638 0.0
C3775 C 0.75397 0.09889 0.12236 0.0
C3776 C 0.74707 0.07501 0.16671 0.0
H3777 H 0.77183 0.09226 0.27908 0.0
H3778 H 0.76854 0.09631 0.23769 0.0
H3779 H 0.74787 0.06453 0.19583 0.0
H3780 H 0.72737 0.07507 0.08799 0.0
H3781 H 0.73087 0.07103 0.12927 0.0
H3782 H 0.75181 0.10277 0.1707 0.0
C3783 C 0.7625 0.08788 0.2459 0.0
C3784 C 0.74864 0.07287 0.19062 0.0
C3785 C 0.76442 0.08559 0.2695 0.0
C3786 C 0.73489 0.0817 0.09741 0.0
C3787 C 0.73693 0.07942 0.12093 0.0
C3788 C 0.75104 0.09443 0.17592 0.0
C3789 C 0.75315 0.07923 0.23285 0.0
C3790 C 0.75141 0.08149 0.20746 0.0
C3791 C 0.74642 0.08804 0.13376 0.0
C3792 C 0.74825 0.08581 0.15909 0.0
H3793 H 0.74182 0.05754 0.27589 0.0
H3794 H 0.73826 0.06154 0.23465 0.0
H3795 H 0.75456 0.09906 0.21241 0.0
H3796 H 0.7577 0.10963 0.0905 0.0
H3797 H 0.76145 0.10564 0.13164 0.0
C3798 C 0.68281 0.93668 0.74225 0.0
C3799 C 0.68446 0.9284 0.73004 0.0
C3800 C 0.67849 0.93435 0.76576 0.0
C3801 C 0.66285 0.91039 0.81095 0.0
H3802 H 0.67749 0.93534 0.85551 0.0
C3803 C 0.6535 0.90228 0.91212 0.0
C3804 C 0.65116 0.91029 0.92369 0.0
C3805 C 0.65798 0.90462 0.88872 0.0
C3806 C 0.67325 0.92831 0.84324 0.0
H3807 H 0.68298 0.9113 0.73225 0.0
H3808 H 0.67551 0.90719 0.77354 0.0
H3809 H 0.68405 0.93901 0.81385 0.0
H3810 H 0.65166 0.92696 0.92058 0.0
H3811 H 0.65956 0.93115 0.87954 0.0
H3812 H 0.6521 0.89968 0.84043 0.0
C3813 C 0.67732 0.91538 0.76495 0.0
C3814 C 0.67698 0.93042 0.81935 0.0
C3815 C 0.6816 0.91771 0.74141 0.0
C3816 C 0.65356 0.92076 0.91189 0.0
C3817 C 0.65808 0.92313 0.88851 0.0
C3818 C 0.65916 0.90827 0.83487 0.0
C3819 C 0.67583 0.92373 0.7775 0.0
C3820 C 0.6718 0.92149 0.80289 0.0
C3821 C 0.66018 0.91501 0.87656 0.0
C3822 C 0.66431 0.91722 0.85127 0.0
H3823 H 0.68506 0.945 0.73368 0.0
H3824 H 0.67728 0.9409 0.77476 0.0
H3825 H 0.65856 0.90336 0.79871 0.0
H3826 H 0.6516 0.89412 0.92104 0.0
H3827 H 0.65964 0.89826 0.88009 0.0
C3828 C 0.08062 0.76514 0.77092 0.0
C3829 C 0.07034 0.75752 0.75857 0.0
C3830 C 0.08235 0.76234 0.79424 0.0
C3831 C 0.07304 0.738 0.83826 0.0
H3832 H 0.08445 0.76264 0.88374 0.0
C3833 C 0.07718 0.72944 0.93866 0.0
C3834 C 0.08758 0.73776 0.94961 0.0
C3835 C 0.07434 0.73167 0.9157 0.0
C3836 C 0.08136 0.75568 0.87123 0.0
H3837 H 0.05374 0.74117 0.76052 0.0
H3838 H 0.05674 0.73617 0.80153 0.0
H3839 H 0.08115 0.76672 0.84265 0.0
H3840 H 0.10338 0.7547 0.94543 0.0
H3841 H 0.0985 0.75866 0.90533 0.0
H3842 H 0.0734 0.727 0.86681 0.0
C3843 C 0.06356 0.74421 0.79309 0.0
C3844 C 0.07948 0.75802 0.84768 0.0
C3845 C 0.06183 0.74704 0.76973 0.0
C3846 C 0.09515 0.74831 0.93741 0.0
C3847 C 0.09233 0.75054 0.91451 0.0
C3848 C 0.07497 0.73566 0.86185 0.0
C3849 C 0.07378 0.75191 0.80569 0.0
C3850 C 0.07541 0.74925 0.83087 0.0
C3851 C 0.08193 0.74223 0.90331 0.0
C3852 C 0.07925 0.74451 0.87856 0.0
H3853 H 0.08718 0.77336 0.76266 0.0
H3854 H 0.09037 0.76839 0.80336 0.0
H3855 H 0.06999 0.73109 0.82567 0.0
H3856 H 0.07135 0.72118 0.94776 0.0
H3857 H 0.06622 0.72512 0.90765 0.0
C3858 C 0.23544 0.32581 0.74835 0.0
C3859 C 0.23696 0.31604 0.74485 0.0
C3860 C 0.2366 0.33031 0.77105 0.0
C3861 C 0.23528 0.32214 0.83467 0.0
H3862 H 0.255 0.3553 0.84337 0.0
C3863 C 0.25253 0.34101 0.92646 0.0
C3864 C 0.25338 0.35177 0.93168 0.0
C3865 C 0.24942 0.33661 0.9037 0.0
C3866 C 0.24929 0.34604 0.84123 0.0
H3867 H 0.24127 0.30359 0.76238 0.0
H3868 H 0.24308 0.3113 0.80185 0.0
H3869 H 0.2516 0.3478 0.80326 0.0
H3870 H 0.25125 0.36618 0.91744 0.0
H3871 H 0.24566 0.35842 0.8777 0.0
H3872 H 0.23299 0.32033 0.87256 0.0
C3873 C 0.2408 0.31536 0.78714 0.0
C3874 C 0.24737 0.34175 0.81825 0.0
C3875 C 0.23974 0.31094 0.76451 0.0
C3876 C 0.2508 0.35792 0.91382 0.0
C3877 C 0.24763 0.3535 0.89107 0.0
C3878 C 0.23714 0.32642 0.85761 0.0
C3879 C 0.23922 0.32507 0.79068 0.0
C3880 C 0.2405 0.32974 0.8148 0.0
C3881 C 0.24702 0.34284 0.88568 0.0
C3882 C 0.24432 0.3384 0.86119 0.0
H3883 H 0.23319 0.32989 0.73363 0.0
H3884 H 0.23528 0.33777 0.77333 0.0
H3885 H 0.22979 0.31285 0.83248 0.0
H3886 H 0.25466 0.33616 0.93975 0.0
H3887 H 0.24924 0.32848 0.90006 0.0
C3888 C 0.026 0.42753 0.41795 0.0
C3889 C 0.02556 0.41892 0.40306 0.0
C3890 C 0.02005 0.42451 0.44024 0.0
C3891 C 0.00605 0.40014 0.48635 0.0
H3892 H 0.99138 0.41796 0.50912 0.0
C3893 C 0.97634 0.38618 0.57298 0.0
C3894 C 0.9773 0.39501 0.58781 0.0
C3895 C 0.98189 0.38892 0.55027 0.0
C3896 C 0.99553 0.41294 0.50327 0.0
H3897 H 0.01821 0.40037 0.39958 0.0
H3898 H 0.00771 0.39502 0.43834 0.0
H3899 H 1.00166 0.42301 0.47049 0.0
H3900 H 0.98465 0.41361 0.5903 0.0
H3901 H 0.99444 0.41847 0.55093 0.0
H3902 H 0.99991 0.39008 0.51917 0.0
C3903 C 0.0129 0.40416 0.43316 0.0
C3904 C 1.00147 0.41586 0.48096 0.0
C3905 C 0.01887 0.4072 0.41085 0.0
C3906 C 0.98376 0.40663 0.57924 0.0
C3907 C 0.98931 0.40939 0.55656 0.0
C3908 C 1.00009 0.39722 0.50867 0.0
C3909 C 0.01336 0.41276 0.44826 0.0
C3910 C 0.00688 0.40954 0.47211 0.0
C3911 C 0.98854 0.40059 0.5417 0.0
C3912 C 0.99475 0.40359 0.51757 0.0
H3913 H 0.0309 0.43663 0.41224 0.0
H3914 H 0.02079 0.43144 0.45127 0.0
H3915 H 0.01021 0.39514 0.4805 0.0
H3916 H 0.97139 0.37714 0.57911 0.0
H3917 H 0.98088 0.38185 0.53936 0.0
C3918 C 0.61727 0.59255 0.59355 0.0
C3919 C 0.60826 0.58389 0.60831 0.0
C3920 C 0.61451 0.59537 0.57085 0.0
C3921 C 0.5886 0.59272 0.53461 0.0
H3922 H 0.61091 0.60068 0.48139 0.0
C3923 C 0.57551 0.5986 0.43768 0.0
C3924 C 0.58441 0.60711 0.42247 0.0
C3925 C 0.57846 0.59589 0.46027 0.0
C3926 C 0.6046 0.59864 0.49606 0.0
H3927 H 0.58941 0.57106 0.6105 0.0
H3928 H 0.58454 0.57589 0.57106 0.0
H3929 H 0.616 0.59574 0.52034 0.0
H3930 H 0.60338 0.61943 0.41899 0.0
H3931 H 0.60856 0.6149 0.45846 0.0
H3932 H 0.57722 0.59565 0.51042 0.0
C3933 C 0.59371 0.58074 0.57705 0.0
C3934 C 0.60754 0.59578 0.51853 0.0
C3935 C 0.59649 0.57791 0.59965 0.0
C3936 C 0.59633 0.61286 0.43038 0.0
C3937 C 0.59929 0.61016 0.45297 0.0
C3938 C 0.58567 0.5956 0.51216 0.0
C3939 C 0.60265 0.58958 0.56228 0.0
C3940 C 0.59958 0.59274 0.5382 0.0
C3941 C 0.59041 0.6016 0.46832 0.0
C3942 C 0.59361 0.59859 0.49245 0.0
H3943 H 0.62643 0.59724 0.59971 0.0
H3944 H 0.62165 0.60227 0.56022 0.0
H3945 H 0.58229 0.59065 0.54928 0.0
H3946 H 0.56628 0.59394 0.43192 0.0
H3947 H 0.57136 0.58913 0.47123 0.0
C3948 C 0.42927 0.02679 0.57633 0.0
C3949 C 0.42051 0.02464 0.59401 0.0
C3950 C 0.42609 0.02104 0.55464 0.0
C3951 C 0.40496 0.99409 0.52737 0.0
H3952 H 0.41292 0.01167 0.46713 0.0
C3953 C 0.404 0.9747 0.43413 0.0
C3954 C 0.39688 0.97636 0.41687 0.0
C3955 C 0.40637 0.98033 0.45595 0.0
C3956 C 0.41063 0.00664 0.4838 0.0
H3957 H 0.40161 0.01423 0.60309 0.0
H3958 H 0.39611 0.00379 0.56557 0.0
H3959 H 0.41816 0.02197 0.50477 0.0
H3960 H 0.38724 0.98577 0.40869 0.0
H3961 H 0.39183 0.99602 0.44641 0.0
H3962 H 0.39784 0.97878 0.50638 0.0
C3963 C 0.4054 0.01023 0.56828 0.0
C3964 C 0.41367 0.01254 0.50535 0.0
C3965 C 0.40854 0.01623 0.58972 0.0
C3966 C 0.39257 0.98414 0.42174 0.0
C3967 C 0.39523 0.99004 0.4433 0.0
C3968 C 0.40222 0.98821 0.50581 0.0
C3969 C 0.41412 0.01264 0.55036 0.0
C3970 C 0.41082 0.00634 0.52742 0.0
C3971 C 0.40209 0.98813 0.46077 0.0
C3972 C 0.40496 0.9944 0.48374 0.0
H3973 H 0.43865 0.03286 0.57935 0.0
H3974 H 0.43305 0.02297 0.54138 0.0
H3975 H 0.4027 0.98907 0.54405 0.0
H3976 H 0.40789 0.96915 0.43065 0.0
H3977 H 0.41183 0.97881 0.46885 0.0
C3978 C 0.56723 0.99186 0.41618 0.0
C3979 C 0.56852 0.98192 0.41333 0.0
C3980 C 0.56865 0.99674 0.43855 0.0
C3981 C 0.56774 0.98965 0.50267 0.0
H3982 H 0.58818 0.02291 0.50878 0.0
C3983 C 0.58575 0.01012 0.59309 0.0
C3984 C 0.5871 0.02118 0.59717 0.0
C3985 C 0.5824 0.00526 0.57074 0.0
C3986 C 0.58227 0.01363 0.50737 0.0
H3987 H 0.57265 0.96953 0.43174 0.0
H3988 H 0.57488 0.97789 0.47064 0.0
H3989 H 0.58429 0.01464 0.46936 0.0
H3990 H 0.58555 0.03565 0.58137 0.0
H3991 H 0.57949 0.02709 0.5424 0.0
H3992 H 0.5657 0.98859 0.5406 0.0
C3993 C 0.5726 0.98181 0.45566 0.0
C3994 C 0.58007 0.00891 0.48478 0.0
C3995 C 0.57129 0.977 0.43334 0.0
C3996 C 0.58472 0.02716 0.57862 0.0
C3997 C 0.58129 0.02228 0.5563 0.0
C3998 C 0.56986 0.99438 0.52523 0.0
C3999 C 0.57129 0.99172 0.45851 0.0
C4000 C 0.57292 0.99685 0.48225 0.0
C4001 C 0.58023 0.01133 0.552 0.0
C4002 C 0.57729 0.0064 0.5279 0.0
H4003 H 0.56498 0.9958 0.40122 0.0
H4004 H 0.56752 0.00435 0.4403 0.0
H4005 H 0.56205 0.98034 0.5012 0.0
H4006 H 0.5877 0.00538 0.60695 0.0
H4007 H 0.58187 0.9969 0.56797 0.0
C4008 C 0.97682 0.56975 0.56598 0.0
C4009 C 0.97936 0.57778 0.58396 0.0
C4010 C 0.98252 0.57344 0.54372 0.0
C4011 C 0.00964 0.59511 0.51349 0.0
H4012 H 0.99022 0.58675 0.45665 0.0
C4013 C 0.02833 0.5964 0.4192 0.0
C4014 C 0.02547 0.6023 0.40131 0.0
C4015 C 0.02289 0.59423 0.44171 0.0
C4016 C 0.99573 0.58921 0.47239 0.0
H4017 H 0.99032 0.59571 0.59361 0.0
H4018 H 1.00065 0.60218 0.55458 0.0
H4019 H 0.98042 0.5814 0.49606 0.0
H4020 H 0.01427 0.60999 0.39219 0.0
H4021 H 0.0044 0.60588 0.43166 0.0
H4022 H 0.02496 0.6026 0.48979 0.0
C4023 C 0.994 0.59311 0.55759 0.0
C4024 C 0.99014 0.58609 0.49486 0.0
C4025 C 0.98812 0.58945 0.57978 0.0
C4026 C 0.01673 0.6056 0.40594 0.0
C4027 C 0.0111 0.60323 0.42838 0.0
C4028 C 0.01523 0.59804 0.49101 0.0
C4029 C 0.99111 0.58516 0.53928 0.0
C4030 C 0.99705 0.58897 0.51558 0.0
C4031 C 0.01424 0.59763 0.44651 0.0
C4032 C 0.00832 0.59506 0.47028 0.0
H4033 H 0.97034 0.56064 0.56913 0.0
H4034 H 0.98031 0.56711 0.53003 0.0
H4035 H 0.01515 0.59736 0.52923 0.0
H4036 H 0.03479 0.59346 0.41572 0.0
H4037 H 0.02528 0.5897 0.45526 0.0
C4038 C 0.40304 0.43149 0.44671 0.0
C4039 C 0.3983 0.42352 0.42839 0.0
C4040 C 0.40477 0.42785 0.46926 0.0
C4041 C 0.41136 0.40693 0.49927 0.0
H4042 H 0.4001 0.41481 0.55643 0.0
C4043 C 0.43009 0.40665 0.59236 0.0
C4044 C 0.42159 0.40037 0.61047 0.0
C4045 C 0.42641 0.40875 0.57023 0.0
C4046 C 0.40321 0.41249 0.5406 0.0
H4047 H 0.39221 0.40575 0.41863 0.0
H4048 H 0.39555 0.39938 0.4582 0.0
H4049 H 0.395 0.41969 0.51715 0.0
H4050 H 0.40275 0.39201 0.62053 0.0
H4051 H 0.39625 0.39599 0.5817 0.0
H4052 H 0.41989 0.40007 0.52268 0.0
C4053 C 0.39761 0.40835 0.4552 0.0
C4054 C 0.40036 0.41533 0.5182 0.0
C4055 C 0.39567 0.41195 0.43271 0.0
C4056 C 0.4094 0.3967 0.60657 0.0
C4057 C 0.40572 0.39899 0.58451 0.0
C4058 C 0.41438 0.40428 0.52164 0.0
C4059 C 0.40211 0.41627 0.4737 0.0
C4060 C 0.40448 0.41263 0.49736 0.0
C4061 C 0.41419 0.40489 0.56606 0.0
C4062 C 0.4104 0.40712 0.54248 0.0
H4063 H 0.40549 0.44055 0.44348 0.0
H4064 H 0.40848 0.43417 0.48309 0.0
H4065 H 0.41471 0.40484 0.48345 0.0
H4066 H 0.43958 0.40983 0.59529 0.0
H4067 H 0.43313 0.41351 0.55643 0.0
loop_
_geom_bond_atom_site_label_1
_geom_bond_atom_site_label_2
_geom_bond_distance
_geom_bond_site_symmetry_2
_ccdc_geom_bond_type
C0 C1 1.443 . S
C0 N4 1.376 . S
C0 C38 1.389 . S
C1 C0 1.443 . S
C1 C2 1.340 . S
C1 H41 0.951 . S
C2 C1 1.340 . S
C2 C3 1.439 . S
C2 H42 0.950 . S
C3 C2 1.439 . S
C3 N4 1.374 . S
C3 C37 1.395 . S
N4 C0 1.376 . S
N4 C3 1.374 . S
N4 Co5 2.008 . S
Co5 N4 2.008 . S
Co5 N6 1.995 1_554 S
Co5 N11 2.008 1_554 S
Co5 N16 1.995 . S
Co5 N21 2.282 . S
Co5 N27 2.282 1_554 S
N6 Co5 1.995 1_556 S
N6 C7 1.376 1_556 S
N6 C10 1.383 . S
C7 N6 1.376 1_554 S
C7 C8 1.446 1_554 S
C7 C37 1.391 . S
C8 C7 1.446 1_556 S
C8 C9 1.339 . S
C8 H43 0.949 . S
C9 C8 1.339 . S
C9 C10 1.439 . S
C9 H44 0.950 . S
C10 N6 1.383 . S
C10 C9 1.439 . S
C10 C39 1.392 . S
N11 Co5 2.008 1_556 S
N11 C12 1.376 . S
N11 C15 1.374 . S
C12 N11 1.376 . S
C12 C13 1.443 . S
C12 C39 1.389 . S
C13 C12 1.443 . S
C13 C14 1.340 . S
C13 H45 0.951 . S
C14 C13 1.340 . S
C14 C15 1.439 . S
C14 H46 0.950 . S
C15 N11 1.374 . S
C15 C14 1.439 . S
C15 C40 1.395 . S
N16 Co5 1.995 . S
N16 C17 1.376 1_554 S
N16 C20 1.383 . S
C17 N16 1.376 1_556 S
C17 C18 1.446 1_556 S
C17 C40 1.391 . S
C18 C17 1.446 1_554 S
C18 C19 1.339 . S
C18 H47 0.949 . S
C19 C18 1.339 . S
C19 C20 1.439 . S
C19 H48 0.950 . S
C20 N16 1.383 . S
C20 C19 1.439 . S
C20 C38 1.392 . S
N21 Co5 2.282 . S
N21 C24 1.322 1_554 S
N21 C26 1.336 . S
C22 C23 1.386 . S
C22 C25 1.397 . S
C23 C22 1.386 . S
C23 C24 1.382 . S
C23 H49 0.950 . S
C24 N21 1.322 1_556 S
C24 C23 1.382 . S
C24 H35 0.952 . S
C25 C22 1.397 . S
C25 C26 1.377 1_556 S
C25 H50 0.947 1_556 S
C26 N21 1.336 . S
C26 C25 1.377 1_554 S
C26 H36 0.948 . S
N27 Co5 2.282 1_556 S
N27 C31 1.325 1_556 S
N27 C32 1.335 . S
C28 C29 1.400 . S
C28 C32 1.376 1_554 S
C28 H51 0.947 1_554 S
C29 C28 1.400 . S
C29 C30 1.386 . S
C30 C29 1.386 . S
C30 C31 1.382 . S
C30 H52 0.950 . S
C31 N27 1.325 1_554 S
C31 C30 1.382 . S
C31 H33 0.952 . S
C32 N27 1.335 . S
C32 C28 1.376 1_556 S
C32 H34 0.948 . S
H33 C31 0.952 . S
H34 C32 0.948 . S
H35 C24 0.952 . S
H36 C26 0.948 . S
C37 C3 1.395 . S
C37 C7 1.391 . S
C38 C0 1.389 . S
C38 C20 1.392 . S
C39 C10 1.392 . S
C39 C12 1.389 . S
C40 C15 1.395 . S
C40 C17 1.391 . S
H41 C1 0.951 . S
H42 C2 0.950 . S
H43 C8 0.949 . S
H44 C9 0.950 . S
H45 C13 0.951 . S
H46 C14 0.950 . S
H47 C18 0.949 . S
H48 C19 0.950 . S
H49 C23 0.950 . S
H50 C25 0.947 1_554 S
H51 C28 0.947 1_556 S
H52 C30 0.950 . S
C53 C54 1.443 . S
C53 N57 1.376 . S
C53 C91 1.389 . S
C54 C53 1.443 . S
C54 C55 1.340 . S
C54 H94 0.951 . S
C55 C54 1.340 . S
C55 C56 1.439 . S
C55 H95 0.950 . S
C56 C55 1.439 . S
C56 N57 1.374 . S
C56 C90 1.395 . S
N57 C53 1.376 . S
N57 C56 1.374 . S
N57 Co58 2.008 . S
Co58 N57 2.008 . S
Co58 N59 1.995 1_554 S
Co58 N64 2.008 1_554 S
Co58 N69 1.995 . S
Co58 N74 2.281 . S
Co58 N80 2.281 1_554 S
N59 Co58 1.995 1_556 S
N59 C60 1.374 1_556 S
N59 C63 1.383 . S
C60 N59 1.374 1_554 S
C60 C61 1.444 1_554 S
C60 C90 1.395 . S
C61 C60 1.444 1_556 S
C61 C62 1.339 . S
C61 H96 0.949 . S
C62 C61 1.339 . S
C62 C63 1.439 . S
C62 H97 0.950 . S
C63 N59 1.383 . S
C63 C62 1.439 . S
C63 C92 1.392 . S
N64 Co58 2.008 1_556 S
N64 C65 1.376 . S
N64 C68 1.374 . S
C65 N64 1.376 . S
C65 C66 1.443 . S
C65 C92 1.389 . S
C66 C65 1.443 . S
C66 C67 1.340 . S
C66 H98 0.951 . S
C67 C66 1.340 . S
C67 C68 1.439 . S
C67 H99 0.950 . S
C68 N64 1.374 . S
C68 C67 1.439 . S
C68 C93 1.395 . S
N69 Co58 1.995 . S
N69 C70 1.374 . S
N69 C73 1.383 . S
C70 N69 1.374 . S
C70 C71 1.444 . S
C70 C93 1.395 1_554 S
C71 C70 1.444 . S
C71 C72 1.339 . S
C71 H100 0.949 . S
C72 C71 1.339 . S
C72 C73 1.439 . S
C72 H101 0.950 . S
C73 N69 1.383 . S
C73 C72 1.439 . S
C73 C91 1.392 . S
N74 Co58 2.281 . S
N74 C77 1.323 1_554 S
N74 C79 1.336 . S
C75 C76 1.386 . S
C75 C78 1.388 . S
C76 C75 1.386 . S
C76 C77 1.382 . S
C76 H102 0.950 . S
C77 N74 1.323 1_556 S
C77 C76 1.382 . S
C77 H88 0.952 . S
C78 C75 1.388 . S
C78 C79 1.382 1_556 S
C78 H103 0.950 . S
C79 N74 1.336 . S
C79 C78 1.382 1_554 S
C79 H89 0.948 . S
N80 Co58 2.281 1_556 S
N80 C84 1.326 1_556 S
N80 C85 1.335 . S
C81 C82 1.388 . S
C81 C85 1.382 1_554 S
C81 H104 0.950 . S
C82 C81 1.388 . S
C82 C83 1.386 . S
C83 C82 1.386 . S
C83 C84 1.382 . S
C83 H105 0.950 . S
C84 N80 1.326 1_554 S
C84 C83 1.382 . S
C84 H86 0.952 . S
C85 N80 1.335 . S
C85 C81 1.382 1_556 S
C85 H87 0.948 . S
H86 C84 0.952 . S
H87 C85 0.948 . S
H88 C77 0.952 . S
H89 C79 0.948 . S
C90 C56 1.395 . S
C90 C60 1.395 . S
C91 C53 1.389 . S
C91 C73 1.392 . S
C92 C63 1.392 . S
C92 C65 1.389 . S
C93 C68 1.395 . S
C93 C70 1.395 1_556 S
H94 C54 0.951 . S
H95 C55 0.950 . S
H96 C61 0.949 . S
H97 C62 0.950 . S
H98 C66 0.951 . S
H99 C67 0.950 . S
H100 C71 0.949 . S
H101 C72 0.950 . S
H102 C76 0.950 . S
H103 C78 0.950 . S
H104 C81 0.950 . S
H105 C83 0.950 . S
C106 C107 1.443 . S
C106 N110 1.376 . S
C106 C144 1.389 . S
C107 C106 1.443 . S
C107 C108 1.340 . S
C107 H147 0.951 . S
C108 C107 1.340 . S
C108 C109 1.439 . S
C108 H148 0.950 . S
C109 C108 1.439 . S
C109 N110 1.374 . S
C109 C143 1.395 . S
N110 C106 1.376 . S
N110 C109 1.374 . S
N110 Co111 2.008 . S
Co111 N110 2.008 . S
Co111 N112 1.995 1_554 S
Co111 N117 2.008 1_554 S
Co111 N122 1.995 . S
Co111 N127 2.282 . S
Co111 N133 2.283 1_554 S
N112 Co111 1.995 1_556 S
N112 C113 1.376 1_556 S
N112 C116 1.383 . S
C113 N112 1.376 1_554 S
C113 C114 1.446 1_554 S
C113 C143 1.391 . S
C114 C113 1.446 1_556 S
C114 C115 1.339 . S
C114 H149 0.949 . S
C115 C114 1.339 . S
C115 C116 1.439 . S
C115 H150 0.950 . S
C116 N112 1.383 . S
C116 C115 1.439 . S
C116 C145 1.392 . S
N117 Co111 2.008 1_556 S
N117 C118 1.376 . S
N117 C121 1.374 . S
C118 N117 1.376 . S
C118 C119 1.443 . S
C118 C145 1.389 . S
C119 C118 1.443 . S
C119 C120 1.340 . S
C119 H151 0.951 . S
C120 C119 1.340 . S
C120 C121 1.439 . S
C120 H152 0.950 . S
C121 N117 1.374 . S
C121 C120 1.439 . S
C121 C146 1.395 . S
N122 Co111 1.995 . S
N122 C123 1.376 1_554 S
N122 C126 1.383 . S
C123 N122 1.376 1_556 S
C123 C124 1.446 1_556 S
C123 C146 1.391 . S
C124 C123 1.446 1_554 S
C124 C125 1.339 . S
C124 H153 0.949 . S
C125 C124 1.339 . S
C125 C126 1.439 . S
C125 H154 0.950 . S
C126 N122 1.383 . S
C126 C125 1.439 . S
C126 C144 1.392 . S
N127 Co111 2.282 . S
N127 C130 1.332 1_554 S
N127 C132 1.332 . S
C128 C129 1.386 . S
C128 C131 1.401 . S
C129 C128 1.386 . S
C129 C130 1.382 . S
C129 H155 0.950 . S
C130 N127 1.332 1_556 S
C130 C129 1.382 . S
C130 H141 0.952 . S
C131 C128 1.401 . S
C131 C132 1.375 1_556 S
C131 H156 0.947 1_556 S
C132 N127 1.332 . S
C132 C131 1.375 1_554 S
C132 H142 0.948 . S
N133 Co111 2.283 1_556 S
N133 C137 1.319 1_556 S
N133 C138 1.336 . S
C134 C135 1.388 . S
C134 C138 1.382 1_554 S
C134 H157 0.949 1_554 S
C135 C134 1.388 . S
C135 C136 1.386 . S
C136 C135 1.386 . S
C136 C137 1.382 . S
C136 H158 0.950 . S
C137 N133 1.319 1_554 S
C137 C136 1.382 . S
C137 H139 0.952 . S
C138 N133 1.336 . S
C138 C134 1.382 1_556 S
C138 H140 0.948 . S
H139 C137 0.952 . S
H140 C138 0.948 . S
H141 C130 0.952 . S
H142 C132 0.948 . S
C143 C109 1.395 . S
C143 C113 1.391 . S
C144 C106 1.389 . S
C144 C126 1.392 . S
C145 C116 1.392 . S
C145 C118 1.389 . S
C146 C121 1.395 . S
C146 C123 1.391 . S
H147 C107 0.951 . S
H148 C108 0.950 . S
H149 C114 0.949 . S
H150 C115 0.950 . S
H151 C119 0.951 . S
H152 C120 0.950 . S
H153 C124 0.949 . S
H154 C125 0.950 . S
H155 C129 0.950 . S
H156 C131 0.947 1_554 S
H157 C134 0.949 1_556 S
H158 C136 0.950 . S
C159 C160 1.443 . S
C159 N163 1.376 . S
C159 C197 1.389 . S
C160 C159 1.443 . S
C160 C161 1.340 . S
C160 H200 0.951 . S
C161 C160 1.340 . S
C161 C162 1.439 . S
C161 H201 0.950 . S
C162 C161 1.439 . S
C162 N163 1.374 . S
C162 C196 1.395 . S
N163 C159 1.376 . S
N163 C162 1.374 . S
N163 Co164 2.008 . S
Co164 N163 2.008 . S
Co164 N165 1.995 1_556 S
Co164 N170 2.008 1_556 S
Co164 N175 1.995 . S
Co164 N180 2.282 . S
Co164 N186 2.283 1_556 S
N165 Co164 1.995 1_554 S
N165 C166 1.376 1_554 S
N165 C169 1.383 . S
C166 N165 1.376 1_556 S
C166 C167 1.446 1_556 S
C166 C196 1.391 . S
C167 C166 1.446 1_554 S
C167 C168 1.339 . S
C167 H202 0.949 . S
C168 C167 1.339 . S
C168 C169 1.439 . S
C168 H203 0.950 . S
C169 N165 1.383 . S
C169 C168 1.439 . S
C169 C198 1.392 . S
N170 Co164 2.008 1_554 S
N170 C171 1.376 . S
N170 C174 1.374 . S
C171 N170 1.376 . S
C171 C172 1.443 . S
C171 C198 1.389 . S
C172 C171 1.443 . S
C172 C173 1.340 . S
C172 H204 0.951 . S
C173 C172 1.340 . S
C173 C174 1.439 . S
C173 H205 0.950 . S
C174 N170 1.374 . S
C174 C173 1.439 . S
C174 C199 1.395 . S
N175 Co164 1.995 . S
N175 C176 1.376 1_556 S
N175 C179 1.383 . S
C176 N175 1.376 1_554 S
C176 C177 1.446 1_554 S
C176 C199 1.391 . S
C177 C176 1.446 1_556 S
C177 C178 1.339 . S
C177 H206 0.949 . S
C178 C177 1.339 . S
C178 C179 1.439 . S
C178 H207 0.950 . S
C179 N175 1.383 . S
C179 C178 1.439 . S
C179 C197 1.392 . S
N180 Co164 2.282 . S
N180 C183 1.332 1_556 S
N180 C185 1.332 . S
C181 C182 1.386 . S
C181 C184 1.401 . S
C182 C181 1.386 . S
C182 C183 1.382 . S
C182 H208 0.950 . S
C183 N180 1.332 1_554 S
C183 C182 1.382 . S
C183 H194 0.952 . S
C184 C181 1.401 . S
C184 C185 1.375 1_554 S
C184 H209 0.947 1_554 S
C185 N180 1.332 . S
C185 C184 1.375 1_556 S
C185 H195 0.948 . S
N186 Co164 2.283 1_554 S
N186 C190 1.319 1_554 S
N186 C191 1.336 . S
C187 C188 1.388 . S
C187 C191 1.382 1_556 S
C187 H210 0.949 1_556 S
C188 C187 1.388 . S
C188 C189 1.386 . S
C189 C188 1.386 . S
C189 C190 1.382 . S
C189 H211 0.950 . S
C190 N186 1.319 1_556 S
C190 C189 1.382 . S
C190 H192 0.952 . S
C191 N186 1.336 . S
C191 C187 1.382 1_554 S
C191 H193 0.948 . S
H192 C190 0.952 . S
H193 C191 0.948 . S
H194 C183 0.952 . S
H195 C185 0.948 . S
C196 C162 1.395 . S
C196 C166 1.391 . S
C197 C159 1.389 . S
C197 C179 1.392 . S
C198 C169 1.392 . S
C198 C171 1.389 . S
C199 C174 1.395 . S
C199 C176 1.391 . S
H200 C160 0.951 . S
H201 C161 0.950 . S
H202 C167 0.949 . S
H203 C168 0.950 . S
H204 C172 0.951 . S
H205 C173 0.950 . S
H206 C177 0.949 . S
H207 C178 0.950 . S
H208 C182 0.950 . S
H209 C184 0.947 1_556 S
H210 C187 0.949 1_554 S
H211 C189 0.950 . S
C212 C213 1.443 . S
C212 N216 1.376 . S
C212 C250 1.389 . S
C213 C212 1.443 . S
C213 C214 1.340 . S
C213 H253 0.951 . S
C214 C213 1.340 . S
C214 C215 1.439 . S
C214 H254 0.950 . S
C215 C214 1.439 . S
C215 N216 1.374 . S
C215 C249 1.395 . S
N216 C212 1.376 . S
N216 C215 1.374 . S
N216 Co217 2.008 . S
Co217 N216 2.008 . S
Co217 N218 1.995 1_556 S
Co217 N223 2.008 1_556 S
Co217 N228 1.995 . S
Co217 N233 2.281 . S
Co217 N239 2.281 1_556 S
N218 Co217 1.995 1_554 S
N218 C219 1.374 1_554 S
N218 C222 1.383 . S
C219 N218 1.374 1_556 S
C219 C220 1.444 1_556 S
C219 C249 1.395 . S
C220 C219 1.444 1_554 S
C220 C221 1.339 . S
C220 H255 0.949 . S
C221 C220 1.339 . S
C221 C222 1.439 . S
C221 H256 0.950 . S
C222 N218 1.383 . S
C222 C221 1.439 . S
C222 C251 1.392 . S
N223 Co217 2.008 1_554 S
N223 C224 1.376 . S
N223 C227 1.374 . S
C224 N223 1.376 . S
C224 C225 1.443 . S
C224 C251 1.389 . S
C225 C224 1.443 . S
C225 C226 1.340 . S
C225 H257 0.951 . S
C226 C225 1.340 . S
C226 C227 1.439 . S
C226 H258 0.950 . S
C227 N223 1.374 . S
C227 C226 1.439 . S
C227 C252 1.395 . S
N228 Co217 1.995 . S
N228 C229 1.374 . S
N228 C232 1.383 . S
C229 N228 1.374 . S
C229 C230 1.444 . S
C229 C252 1.395 1_556 S
C230 C229 1.444 . S
C230 C231 1.339 . S
C230 H259 0.949 . S
C231 C230 1.339 . S
C231 C232 1.439 . S
C231 H260 0.950 . S
C232 N228 1.383 . S
C232 C231 1.439 . S
C232 C250 1.392 . S
N233 Co217 2.281 . S
N233 C236 1.323 1_556 S
N233 C238 1.336 . S
C234 C235 1.386 . S
C234 C237 1.388 . S
C235 C234 1.386 . S
C235 C236 1.382 . S
C235 H261 0.950 . S
C236 N233 1.323 1_554 S
C236 C235 1.382 . S
C236 H247 0.952 . S
C237 C234 1.388 . S
C237 C238 1.382 1_554 S
C237 H262 0.950 . S
C238 N233 1.336 . S
C238 C237 1.382 1_556 S
C238 H248 0.948 . S
N239 Co217 2.281 1_554 S
N239 C243 1.326 1_554 S
N239 C244 1.335 . S
C240 C241 1.388 . S
C240 C244 1.382 1_556 S
C240 H263 0.950 . S
C241 C240 1.388 . S
C241 C242 1.386 . S
C242 C241 1.386 . S
C242 C243 1.382 . S
C242 H264 0.950 . S
C243 N239 1.326 1_556 S
C243 C242 1.382 . S
C243 H245 0.952 . S
C244 N239 1.335 . S
C244 C240 1.382 1_554 S
C244 H246 0.948 . S
H245 C243 0.952 . S
H246 C244 0.948 . S
H247 C236 0.952 . S
H248 C238 0.948 . S
C249 C215 1.395 . S
C249 C219 1.395 . S
C250 C212 1.389 . S
C250 C232 1.392 . S
C251 C222 1.392 . S
C251 C224 1.389 . S
C252 C227 1.395 . S
C252 C229 1.395 1_554 S
H253 C213 0.951 . S
H254 C214 0.950 . S
H255 C220 0.949 . S
H256 C221 0.950 . S
H257 C225 0.951 . S
H258 C226 0.950 . S
H259 C230 0.949 . S
H260 C231 0.950 . S
H261 C235 0.950 . S
H262 C237 0.950 . S
H263 C240 0.950 . S
H264 C242 0.950 . S
C265 C266 1.443 . S
C265 N269 1.376 . S
C265 C303 1.389 . S
C266 C265 1.443 . S
C266 C267 1.340 . S
C266 H306 0.951 . S
C267 C266 1.340 . S
C267 C268 1.439 . S
C267 H307 0.950 . S
C268 C267 1.439 . S
C268 N269 1.374 . S
C268 C302 1.395 . S
N269 C265 1.376 . S
N269 C268 1.374 . S
N269 Co270 2.008 . S
Co270 N269 2.008 . S
Co270 N271 1.995 1_556 S
Co270 N276 2.008 1_556 S
Co270 N281 1.995 . S
Co270 N286 2.282 . S
Co270 N292 2.282 1_556 S
N271 Co270 1.995 1_554 S
N271 C272 1.376 1_554 S
N271 C275 1.383 . S
C272 N271 1.376 1_556 S
C272 C273 1.446 1_556 S
C272 C302 1.391 . S
C273 C272 1.446 1_554 S
C273 C274 1.339 . S
C273 H308 0.949 . S
C274 C273 1.339 . S
C274 C275 1.439 . S
C274 H309 0.950 . S
C275 N271 1.383 . S
C275 C274 1.439 . S
C275 C304 1.392 . S
N276 Co270 2.008 1_554 S
N276 C277 1.376 . S
N276 C280 1.374 . S
C277 N276 1.376 . S
C277 C278 1.443 . S
C277 C304 1.389 . S
C278 C277 1.443 . S
C278 C279 1.340 . S
C278 H310 0.951 . S
C279 C278 1.340 . S
C279 C280 1.439 . S
C279 H311 0.950 . S
C280 N276 1.374 . S
C280 C279 1.439 . S
C280 C305 1.395 . S
N281 Co270 1.995 . S
N281 C282 1.376 1_556 S
N281 C285 1.383 . S
C282 N281 1.376 1_554 S
C282 C283 1.446 1_554 S
C282 C305 1.391 . S
C283 C282 1.446 1_556 S
C283 C284 1.339 . S
C283 H312 0.949 . S
C284 C283 1.339 . S
C284 C285 1.439 . S
C284 H313 0.950 . S
C285 N281 1.383 . S
C285 C284 1.439 . S
C285 C303 1.392 . S
N286 Co270 2.282 . S
N286 C289 1.322 1_556 S
N286 C291 1.336 . S
C287 C288 1.386 . S
C287 C290 1.397 . S
C288 C287 1.386 . S
C288 C289 1.382 . S
C288 H314 0.950 . S
C289 N286 1.322 1_554 S
C289 C288 1.382 . S
C289 H300 0.952 . S
C290 C287 1.397 . S
C290 C291 1.377 1_554 S
C290 H315 0.947 1_554 S
C291 N286 1.336 . S
C291 C290 1.377 1_556 S
C291 H301 0.948 . S
N292 Co270 2.282 1_554 S
N292 C296 1.325 1_554 S
N292 C297 1.335 . S
C293 C294 1.400 . S
C293 C297 1.376 1_556 S
C293 H316 0.947 1_556 S
C294 C293 1.400 . S
C294 C295 1.386 . S
C295 C294 1.386 . S
C295 C296 1.382 . S
C295 H317 0.950 . S
C296 N292 1.325 1_556 S
C296 C295 1.382 . S
C296 H298 0.952 . S
C297 N292 1.335 . S
C297 C293 1.376 1_554 S
C297 H299 0.948 . S
H298 C296 0.952 . S
H299 C297 0.948 . S
H300 C289 0.952 . S
H301 C291 0.948 . S
C302 C268 1.395 . S
C302 C272 1.391 . S
C303 C265 1.389 . S
C303 C285 1.392 . S
C304 C275 1.392 . S
C304 C277 1.389 . S
C305 C280 1.395 . S
C305 C282 1.391 . S
H306 C266 0.951 . S
H307 C267 0.950 . S
H308 C273 0.949 . S
H309 C274 0.950 . S
H310 C278 0.951 . S
H311 C279 0.950 . S
H312 C283 0.949 . S
H313 C284 0.950 . S
H314 C288 0.950 . S
H315 C290 0.947 1_556 S
H316 C293 0.947 1_554 S
H317 C295 0.950 . S
C318 C319 1.443 . S
C318 N322 1.376 . S
C318 C356 1.389 1_556 S
C319 C318 1.443 . S
C319 C320 1.340 . S
C319 H359 0.951 . S
C320 C319 1.340 . S
C320 C321 1.439 . S
C320 H360 0.950 . S
C321 C320 1.439 . S
C321 N322 1.374 . S
C321 C355 1.395 . S
N322 C318 1.376 . S
N322 C321 1.374 . S
N322 Co323 2.008 . S
Co323 N322 2.008 . S
Co323 N324 1.995 . S
Co323 N329 2.008 1_556 S
Co323 N334 1.995 1_556 S
Co323 N339 2.282 . S
Co323 N345 2.282 1_556 S
N324 Co323 1.995 . S
N324 C325 1.376 . S
N324 C328 1.383 . S
C325 N324 1.376 . S
C325 C326 1.446 . S
C325 C355 1.391 . S
C326 C325 1.446 . S
C326 C327 1.339 . S
C326 H361 0.949 . S
C327 C326 1.339 . S
C327 C328 1.439 . S
C327 H362 0.950 . S
C328 N324 1.383 . S
C328 C327 1.439 . S
C328 C357 1.392 . S
N329 Co323 2.008 1_554 S
N329 C330 1.376 . S
N329 C333 1.374 . S
C330 N329 1.376 . S
C330 C331 1.443 . S
C330 C357 1.389 1_554 S
C331 C330 1.443 . S
C331 C332 1.340 . S
C331 H363 0.951 . S
C332 C331 1.340 . S
C332 C333 1.439 . S
C332 H364 0.950 . S
C333 N329 1.374 . S
C333 C332 1.439 . S
C333 C358 1.395 . S
N334 Co323 1.995 1_554 S
N334 C335 1.376 . S
N334 C338 1.383 . S
C335 N334 1.376 . S
C335 C336 1.446 . S
C335 C358 1.391 . S
C336 C335 1.446 . S
C336 C337 1.339 . S
C336 H365 0.949 . S
C337 C336 1.339 . S
C337 C338 1.439 . S
C337 H366 0.950 . S
C338 N334 1.383 . S
C338 C337 1.439 . S
C338 C356 1.392 . S
N339 Co323 2.282 . S
N339 C342 1.332 . S
N339 C344 1.332 . S
C340 C341 1.386 . S
C340 C343 1.388 . S
C341 C340 1.386 . S
C341 C342 1.382 . S
C341 H367 0.950 . S
C342 N339 1.332 . S
C342 C341 1.382 . S
C342 H353 0.952 . S
C343 C340 1.388 . S
C343 C344 1.382 . S
C343 H368 0.950 . S
C344 N339 1.332 . S
C344 C343 1.382 . S
C344 H354 0.948 . S
N345 Co323 2.282 1_554 S
N345 C349 1.332 . S
N345 C350 1.332 . S
C346 C347 1.388 . S
C346 C350 1.382 . S
C346 H369 0.950 . S
C347 C346 1.388 . S
C347 C348 1.386 . S
C348 C347 1.386 . S
C348 C349 1.382 . S
C348 H370 0.950 . S
C349 N345 1.332 . S
C349 C348 1.382 . S
C349 H351 0.952 . S
C350 N345 1.332 . S
C350 C346 1.382 . S
C350 H352 0.948 . S
H351 C349 0.952 . S
H352 C350 0.948 . S
H353 C342 0.952 . S
H354 C344 0.948 . S
C355 C321 1.395 . S
C355 C325 1.391 . S
C356 C318 1.389 1_554 S
C356 C338 1.392 . S
C357 C328 1.392 . S
C357 C330 1.389 1_556 S
C358 C333 1.395 . S
C358 C335 1.391 . S
H359 C319 0.951 . S
H360 C320 0.950 . S
H361 C326 0.949 . S
H362 C327 0.950 . S
H363 C331 0.951 . S
H364 C332 0.950 . S
H365 C336 0.949 . S
H366 C337 0.950 . S
H367 C341 0.950 . S
H368 C343 0.950 . S
H369 C346 0.950 . S
H370 C348 0.950 . S
C371 C372 1.443 . S
C371 N375 1.376 . S
C371 C409 1.389 . S
C372 C371 1.443 . S
C372 C373 1.340 . S
C372 H412 0.951 . S
C373 C372 1.340 . S
C373 C374 1.439 1_556 S
C373 H413 0.950 . S
C374 C373 1.439 1_554 S
C374 N375 1.374 1_554 S
C374 C408 1.395 . S
N375 C371 1.376 . S
N375 C374 1.374 1_556 S
N375 Co376 2.008 . S
Co376 N375 2.008 . S
Co376 N377 1.995 1_556 S
Co376 N382 2.008 1_556 S
Co376 N387 1.995 . S
Co376 N392 2.283 1_556 S
Co376 N398 2.283 . S
N377 Co376 1.995 1_554 S
N377 C378 1.376 . S
N377 C381 1.383 . S
C378 N377 1.376 . S
C378 C379 1.446 . S
C378 C408 1.391 . S
C379 C378 1.446 . S
C379 C380 1.339 . S
C379 H414 0.949 . S
C380 C379 1.339 . S
C380 C381 1.439 . S
C380 H415 0.950 . S
C381 N377 1.383 . S
C381 C380 1.439 . S
C381 C410 1.392 . S
N382 Co376 2.008 1_554 S
N382 C383 1.376 . S
N382 C386 1.374 1_554 S
C383 N382 1.376 . S
C383 C384 1.443 . S
C383 C410 1.389 . S
C384 C383 1.443 . S
C384 C385 1.340 . S
C384 H416 0.951 . S
C385 C384 1.340 . S
C385 C386 1.439 1_554 S
C385 H417 0.950 . S
C386 N382 1.374 1_556 S
C386 C385 1.439 1_556 S
C386 C411 1.395 . S
N387 Co376 1.995 . S
N387 C388 1.376 . S
N387 C391 1.383 . S
C388 N387 1.376 . S
C388 C389 1.446 . S
C388 C411 1.391 . S
C389 C388 1.446 . S
C389 C390 1.339 . S
C389 H418 0.949 . S
C390 C389 1.339 . S
C390 C391 1.439 . S
C390 H419 0.950 . S
C391 N387 1.383 . S
C391 C390 1.439 . S
C391 C409 1.392 . S
N392 Co376 2.283 1_554 S
N392 C395 1.313 1_554 S
N392 C397 1.356 . S
C393 C394 1.386 1_554 S
C393 C396 1.388 . S
C394 C393 1.386 1_556 S
C394 C395 1.382 . S
C394 H420 0.950 . S
C395 N392 1.313 1_556 S
C395 C394 1.382 . S
C395 H406 0.952 . S
C396 C393 1.388 . S
C396 C397 1.382 . S
C396 H421 0.950 . S
C397 N392 1.356 . S
C397 C396 1.382 . S
C397 H407 0.948 . S
N398 Co376 2.283 . S
N398 C402 1.308 1_556 S
N398 C403 1.364 . S
C399 C400 1.388 . S
C399 C403 1.382 . S
C399 H422 0.950 . S
C400 C399 1.388 . S
C400 C401 1.386 1_556 S
C401 C400 1.386 1_554 S
C401 C402 1.382 . S
C401 H423 0.950 . S
C402 N398 1.308 1_554 S
C402 C401 1.382 . S
C402 H404 0.952 . S
C403 N398 1.364 . S
C403 C399 1.382 . S
C403 H405 0.948 . S
H404 C402 0.952 . S
H405 C403 0.948 . S
H406 C395 0.952 . S
H407 C397 0.948 . S
C408 C374 1.395 . S
C408 C378 1.391 . S
C409 C371 1.389 . S
C409 C391 1.392 . S
C410 C381 1.392 . S
C410 C383 1.389 . S
C411 C386 1.395 . S
C411 C388 1.391 . S
H412 C372 0.951 . S
H413 C373 0.950 . S
H414 C379 0.949 . S
H415 C380 0.950 . S
H416 C384 0.951 . S
H417 C385 0.950 . S
H418 C389 0.949 . S
H419 C390 0.950 . S
H420 C394 0.950 . S
H421 C396 0.950 . S
H422 C399 0.950 . S
H423 C401 0.950 . S
C424 C425 1.443 . S
C424 N428 1.376 . S
C424 C462 1.389 . S
C425 C424 1.443 . S
C425 C426 1.340 . S
C425 H465 0.951 . S
C426 C425 1.340 . S
C426 C427 1.439 1_556 S
C426 H466 0.950 . S
C427 C426 1.439 1_554 S
C427 N428 1.374 1_554 S
C427 C461 1.395 . S
N428 C424 1.376 . S
N428 C427 1.374 1_556 S
N428 Co429 2.008 . S
Co429 N428 2.008 . S
Co429 N430 1.995 1_556 S
Co429 N435 2.008 1_556 S
Co429 N440 1.995 . S
Co429 N445 2.282 1_556 S
Co429 N451 2.281 . S
N430 Co429 1.995 1_554 S
N430 C431 1.376 . S
N430 C434 1.383 . S
C431 N430 1.376 . S
C431 C432 1.446 . S
C431 C461 1.391 . S
C432 C431 1.446 . S
C432 C433 1.339 . S
C432 H467 0.949 . S
C433 C432 1.339 . S
C433 C434 1.439 . S
C433 H468 0.950 . S
C434 N430 1.383 . S
C434 C433 1.439 . S
C434 C463 1.392 . S
N435 Co429 2.008 1_554 S
N435 C436 1.376 . S
N435 C439 1.374 1_554 S
C436 N435 1.376 . S
C436 C437 1.443 . S
C436 C463 1.389 . S
C437 C436 1.443 . S
C437 C438 1.340 . S
C437 H469 0.951 . S
C438 C437 1.340 . S
C438 C439 1.439 1_554 S
C438 H470 0.950 . S
C439 N435 1.374 1_556 S
C439 C438 1.439 1_556 S
C439 C464 1.395 . S
N440 Co429 1.995 . S
N440 C441 1.376 . S
N440 C444 1.383 . S
C441 N440 1.376 . S
C441 C442 1.446 . S
C441 C464 1.391 . S
C442 C441 1.446 . S
C442 C443 1.339 . S
C442 H471 0.949 . S
C443 C442 1.339 . S
C443 C444 1.439 . S
C443 H472 0.950 . S
C444 N440 1.383 . S
C444 C443 1.439 . S
C444 C462 1.392 . S
N445 Co429 2.282 1_554 S
N445 C448 1.324 1_554 S
N445 C450 1.344 . S
C446 C447 1.386 1_554 S
C446 C449 1.388 . S
C447 C446 1.386 1_556 S
C447 C448 1.382 . S
C447 H473 0.950 . S
C448 N445 1.324 1_556 S
C448 C447 1.382 . S
C448 H459 0.952 . S
C449 C446 1.388 . S
C449 C450 1.382 . S
C449 H474 0.950 . S
C450 N445 1.344 . S
C450 C449 1.382 . S
C450 H460 0.948 . S
N451 Co429 2.281 . S
N451 C455 1.319 1_556 S
N451 C456 1.351 . S
C452 C453 1.388 . S
C452 C456 1.382 . S
C452 H475 0.950 . S
C453 C452 1.388 . S
C453 C454 1.386 1_556 S
C454 C453 1.386 1_554 S
C454 C455 1.382 . S
C454 H476 0.950 . S
C455 N451 1.319 1_554 S
C455 C454 1.382 . S
C455 H457 0.952 . S
C456 N451 1.351 . S
C456 C452 1.382 . S
C456 H458 0.948 . S
H457 C455 0.952 . S
H458 C456 0.948 . S
H459 C448 0.952 . S
H460 C450 0.948 . S
C461 C427 1.395 . S
C461 C431 1.391 . S
C462 C424 1.389 . S
C462 C444 1.392 . S
C463 C434 1.392 . S
C463 C436 1.389 . S
C464 C439 1.395 . S
C464 C441 1.391 . S
H465 C425 0.951 . S
H466 C426 0.950 . S
H467 C432 0.949 . S
H468 C433 0.950 . S
H469 C437 0.951 . S
H470 C438 0.950 . S
H471 C442 0.949 . S
H472 C443 0.950 . S
H473 C447 0.950 . S
H474 C449 0.950 . S
H475 C452 0.950 . S
H476 C454 0.950 . S
C477 C478 1.443 . S
C477 N481 1.376 . S
C477 C515 1.389 . S
C478 C477 1.443 . S
C478 C479 1.340 . S
C478 H518 0.951 . S
C479 C478 1.340 . S
C479 C480 1.439 1_554 S
C479 H519 0.950 . S
C480 C479 1.439 1_556 S
C480 N481 1.374 1_556 S
C480 C514 1.395 . S
N481 C477 1.376 . S
N481 C480 1.374 1_554 S
N481 Co482 2.008 . S
Co482 N481 2.008 . S
Co482 N483 1.995 1_554 S
Co482 N488 2.008 1_554 S
Co482 N493 1.995 . S
Co482 N498 2.282 1_554 S
Co482 N504 2.281 . S
N483 Co482 1.995 1_556 S
N483 C484 1.376 . S
N483 C487 1.383 . S
C484 N483 1.376 . S
C484 C485 1.446 . S
C484 C514 1.391 . S
C485 C484 1.446 . S
C485 C486 1.339 . S
C485 H520 0.949 . S
C486 C485 1.339 . S
C486 C487 1.439 . S
C486 H521 0.950 . S
C487 N483 1.383 . S
C487 C486 1.439 . S
C487 C516 1.392 . S
N488 Co482 2.008 1_556 S
N488 C489 1.376 . S
N488 C492 1.374 1_556 S
C489 N488 1.376 . S
C489 C490 1.443 . S
C489 C516 1.389 . S
C490 C489 1.443 . S
C490 C491 1.340 . S
C490 H522 0.951 . S
C491 C490 1.340 . S
C491 C492 1.439 1_556 S
C491 H523 0.950 . S
C492 N488 1.374 1_554 S
C492 C491 1.439 1_554 S
C492 C517 1.395 . S
N493 Co482 1.995 . S
N493 C494 1.376 . S
N493 C497 1.383 . S
C494 N493 1.376 . S
C494 C495 1.446 . S
C494 C517 1.391 . S
C495 C494 1.446 . S
C495 C496 1.339 . S
C495 H524 0.949 . S
C496 C495 1.339 . S
C496 C497 1.439 . S
C496 H525 0.950 . S
C497 N493 1.383 . S
C497 C496 1.439 . S
C497 C515 1.392 . S
N498 Co482 2.282 1_556 S
N498 C501 1.324 1_556 S
N498 C503 1.344 . S
C499 C500 1.386 1_556 S
C499 C502 1.388 . S
C500 C499 1.386 1_554 S
C500 C501 1.382 . S
C500 H526 0.950 . S
C501 N498 1.324 1_554 S
C501 C500 1.382 . S
C501 H512 0.952 . S
C502 C499 1.388 . S
C502 C503 1.382 . S
C502 H527 0.950 . S
C503 N498 1.344 . S
C503 C502 1.382 . S
C503 H513 0.948 . S
N504 Co482 2.281 . S
N504 C508 1.319 1_554 S
N504 C509 1.351 . S
C505 C506 1.388 . S
C505 C509 1.382 . S
C505 H528 0.950 . S
C506 C505 1.388 . S
C506 C507 1.386 1_554 S
C507 C506 1.386 1_556 S
C507 C508 1.382 . S
C507 H529 0.950 . S
C508 N504 1.319 1_556 S
C508 C507 1.382 . S
C508 H510 0.952 . S
C509 N504 1.351 . S
C509 C505 1.382 . S
C509 H511 0.948 . S
H510 C508 0.952 . S
H511 C509 0.948 . S
H512 C501 0.952 . S
H513 C503 0.948 . S
C514 C480 1.395 . S
C514 C484 1.391 . S
C515 C477 1.389 . S
C515 C497 1.392 . S
C516 C487 1.392 . S
C516 C489 1.389 . S
C517 C492 1.395 . S
C517 C494 1.391 . S
H518 C478 0.951 . S
H519 C479 0.950 . S
H520 C485 0.949 . S
H521 C486 0.950 . S
H522 C490 0.951 . S
H523 C491 0.950 . S
H524 C495 0.949 . S
H525 C496 0.950 . S
H526 C500 0.950 . S
H527 C502 0.950 . S
H528 C505 0.950 . S
H529 C507 0.950 . S
C530 C531 1.443 . S
C530 N534 1.376 . S
C530 C568 1.389 . S
C531 C530 1.443 . S
C531 C532 1.340 . S
C531 H571 0.951 . S
C532 C531 1.340 . S
C532 C533 1.439 1_554 S
C532 H572 0.950 . S
C533 C532 1.439 1_556 S
C533 N534 1.374 1_556 S
C533 C567 1.395 . S
N534 C530 1.376 . S
N534 C533 1.374 1_554 S
N534 Co535 2.008 . S
Co535 N534 2.008 . S
Co535 N536 1.995 1_554 S
Co535 N541 2.008 1_554 S
Co535 N546 1.995 . S
Co535 N551 2.283 1_554 S
Co535 N557 2.283 . S
N536 Co535 1.995 1_556 S
N536 C537 1.376 . S
N536 C540 1.383 . S
C537 N536 1.376 . S
C537 C538 1.446 . S
C537 C567 1.391 . S
C538 C537 1.446 . S
C538 C539 1.339 . S
C538 H573 0.949 . S
C539 C538 1.339 . S
C539 C540 1.439 . S
C539 H574 0.950 . S
C540 N536 1.383 . S
C540 C539 1.439 . S
C540 C569 1.392 . S
N541 Co535 2.008 1_556 S
N541 C542 1.376 . S
N541 C545 1.374 1_556 S
C542 N541 1.376 . S
C542 C543 1.443 . S
C542 C569 1.389 . S
C543 C542 1.443 . S
C543 C544 1.340 . S
C543 H575 0.951 . S
C544 C543 1.340 . S
C544 C545 1.439 1_556 S
C544 H576 0.950 . S
C545 N541 1.374 1_554 S
C545 C544 1.439 1_554 S
C545 C570 1.395 . S
N546 Co535 1.995 . S
N546 C547 1.376 . S
N546 C550 1.383 . S
C547 N546 1.376 . S
C547 C548 1.446 . S
C547 C570 1.391 . S
C548 C547 1.446 . S
C548 C549 1.339 . S
C548 H577 0.949 . S
C549 C548 1.339 . S
C549 C550 1.439 . S
C549 H578 0.950 . S
C550 N546 1.383 . S
C550 C549 1.439 . S
C550 C568 1.392 . S
N551 Co535 2.283 1_556 S
N551 C554 1.313 1_556 S
N551 C556 1.356 . S
C552 C553 1.386 1_556 S
C552 C555 1.388 . S
C553 C552 1.386 1_554 S
C553 C554 1.382 . S
C553 H579 0.950 . S
C554 N551 1.313 1_554 S
C554 C553 1.382 . S
C554 H565 0.952 . S
C555 C552 1.388 . S
C555 C556 1.382 . S
C555 H580 0.950 . S
C556 N551 1.356 . S
C556 C555 1.382 . S
C556 H566 0.948 . S
N557 Co535 2.283 . S
N557 C561 1.308 1_554 S
N557 C562 1.364 . S
C558 C559 1.388 . S
C558 C562 1.382 . S
C558 H581 0.950 . S
C559 C558 1.388 . S
C559 C560 1.386 1_554 S
C560 C559 1.386 1_556 S
C560 C561 1.382 . S
C560 H582 0.950 . S
C561 N557 1.308 1_556 S
C561 C560 1.382 . S
C561 H563 0.952 . S
C562 N557 1.364 . S
C562 C558 1.382 . S
C562 H564 0.948 . S
H563 C561 0.952 . S
H564 C562 0.948 . S
H565 C554 0.952 . S
H566 C556 0.948 . S
C567 C533 1.395 . S
C567 C537 1.391 . S
C568 C530 1.389 . S
C568 C550 1.392 . S
C569 C540 1.392 . S
C569 C542 1.389 . S
C570 C545 1.395 . S
C570 C547 1.391 . S
H571 C531 0.951 . S
H572 C532 0.950 . S
H573 C538 0.949 . S
H574 C539 0.950 . S
H575 C543 0.951 . S
H576 C544 0.950 . S
H577 C548 0.949 . S
H578 C549 0.950 . S
H579 C553 0.950 . S
H580 C555 0.950 . S
H581 C558 0.950 . S
H582 C560 0.950 . S
C583 C584 1.443 . S
C583 N587 1.376 . S
C583 C621 1.389 1_554 S
C584 C583 1.443 . S
C584 C585 1.340 . S
C584 H624 0.951 . S
C585 C584 1.340 . S
C585 C586 1.439 . S
C585 H625 0.950 . S
C586 C585 1.439 . S
C586 N587 1.374 . S
C586 C620 1.395 . S
N587 C583 1.376 . S
N587 C586 1.374 . S
N587 Co588 2.008 . S
Co588 N587 2.008 . S
Co588 N589 1.995 . S
Co588 N594 2.008 1_554 S
Co588 N599 1.995 1_554 S
Co588 N604 2.282 . S
Co588 N610 2.282 1_554 S
N589 Co588 1.995 . S
N589 C590 1.376 . S
N589 C593 1.383 . S
C590 N589 1.376 . S
C590 C591 1.446 . S
C590 C620 1.391 . S
C591 C590 1.446 . S
C591 C592 1.339 . S
C591 H626 0.949 . S
C592 C591 1.339 . S
C592 C593 1.439 . S
C592 H627 0.950 . S
C593 N589 1.383 . S
C593 C592 1.439 . S
C593 C622 1.392 . S
N594 Co588 2.008 1_556 S
N594 C595 1.376 . S
N594 C598 1.374 . S
C595 N594 1.376 . S
C595 C596 1.443 . S
C595 C622 1.389 1_556 S
C596 C595 1.443 . S
C596 C597 1.340 . S
C596 H628 0.951 . S
C597 C596 1.340 . S
C597 C598 1.439 . S
C597 H629 0.950 . S
C598 N594 1.374 . S
C598 C597 1.439 . S
C598 C623 1.395 . S
N599 Co588 1.995 1_556 S
N599 C600 1.376 . S
N599 C603 1.383 . S
C600 N599 1.376 . S
C600 C601 1.446 . S
C600 C623 1.391 . S
C601 C600 1.446 . S
C601 C602 1.339 . S
C601 H630 0.949 . S
C602 C601 1.339 . S
C602 C603 1.439 . S
C602 H631 0.950 . S
C603 N599 1.383 . S
C603 C602 1.439 . S
C603 C621 1.392 . S
N604 Co588 2.282 . S
N604 C607 1.332 . S
N604 C609 1.332 . S
C605 C606 1.386 . S
C605 C608 1.388 . S
C606 C605 1.386 . S
C606 C607 1.382 . S
C606 H632 0.950 . S
C607 N604 1.332 . S
C607 C606 1.382 . S
C607 H618 0.952 . S
C608 C605 1.388 . S
C608 C609 1.382 . S
C608 H633 0.950 . S
C609 N604 1.332 . S
C609 C608 1.382 . S
C609 H619 0.948 . S
N610 Co588 2.282 1_556 S
N610 C614 1.332 . S
N610 C615 1.332 . S
C611 C612 1.388 . S
C611 C615 1.382 . S
C611 H634 0.950 . S
C612 C611 1.388 . S
C612 C613 1.386 . S
C613 C612 1.386 . S
C613 C614 1.382 . S
C613 H635 0.950 . S
C614 N610 1.332 . S
C614 C613 1.382 . S
C614 H616 0.952 . S
C615 N610 1.332 . S
C615 C611 1.382 . S
C615 H617 0.948 . S
H616 C614 0.952 . S
H617 C615 0.948 . S
H618 C607 0.952 . S
H619 C609 0.948 . S
C620 C586 1.395 . S
C620 C590 1.391 . S
C621 C583 1.389 1_556 S
C621 C603 1.392 . S
C622 C593 1.392 . S
C622 C595 1.389 1_554 S
C623 C598 1.395 . S
C623 C600 1.391 . S
H624 C584 0.951 . S
H625 C585 0.950 . S
H626 C591 0.949 . S
H627 C592 0.950 . S
H628 C596 0.951 . S
H629 C597 0.950 . S
H630 C601 0.949 . S
H631 C602 0.950 . S
H632 C606 0.950 . S
H633 C608 0.950 . S
H634 C611 0.950 . S
H635 C613 0.950 . S
C636 C637 1.443 . S
C636 N640 1.376 . S
C636 C674 1.389 . S
C637 C636 1.443 . S
C637 C638 1.340 . S
C637 H677 0.951 . S
C638 C637 1.340 . S
C638 C639 1.439 . S
C638 H678 0.950 . S
C639 C638 1.439 . S
C639 N640 1.374 . S
C639 C673 1.395 . S
N640 C636 1.376 . S
N640 C639 1.374 . S
N640 Co641 2.008 . S
Co641 N640 2.008 . S
Co641 N642 1.995 . S
Co641 N647 2.008 . S
Co641 N652 1.995 . S
Co641 N657 2.282 . S
Co641 N663 2.282 . S
N642 Co641 1.995 . S
N642 C643 1.376 . S
N642 C646 1.383 . S
C643 N642 1.376 . S
C643 C644 1.446 . S
C643 C673 1.391 . S
C644 C643 1.446 . S
C644 C645 1.339 . S
C644 H679 0.949 . S
C645 C644 1.339 . S
C645 C646 1.439 . S
C645 H680 0.950 . S
C646 N642 1.383 . S
C646 C645 1.439 . S
C646 C675 1.392 . S
N647 Co641 2.008 . S
N647 C648 1.376 . S
N647 C651 1.374 . S
C648 N647 1.376 . S
C648 C649 1.443 . S
C648 C675 1.389 . S
C649 C648 1.443 . S
C649 C650 1.340 . S
C649 H681 0.951 . S
C650 C649 1.340 . S
C650 C651 1.439 . S
C650 H682 0.950 . S
C651 N647 1.374 . S
C651 C650 1.439 . S
C651 C676 1.395 . S
N652 Co641 1.995 . S
N652 C653 1.376 . S
N652 C656 1.383 . S
C653 N652 1.376 . S
C653 C654 1.446 . S
C653 C676 1.391 . S
C654 C653 1.446 . S
C654 C655 1.339 . S
C654 H683 0.949 . S
C655 C654 1.339 . S
C655 C656 1.439 . S
C655 H684 0.950 . S
C656 N652 1.383 . S
C656 C655 1.439 . S
C656 C674 1.392 . S
N657 Co641 2.282 . S
N657 C660 1.332 . S
N657 C662 1.332 . S
C658 C659 1.386 . S
C658 C661 1.388 . S
C659 C658 1.386 . S
C659 C660 1.382 . S
C659 H685 0.950 . S
C660 N657 1.332 . S
C660 C659 1.382 . S
C660 H671 0.952 . S
C661 C658 1.388 . S
C661 C662 1.382 . S
C661 H686 0.950 . S
C662 N657 1.332 . S
C662 C661 1.382 . S
C662 H672 0.948 . S
N663 Co641 2.282 . S
N663 C667 1.332 . S
N663 C668 1.332 . S
C664 C665 1.388 . S
C664 C668 1.382 . S
C664 H687 0.950 . S
C665 C664 1.388 . S
C665 C666 1.386 . S
C666 C665 1.386 . S
C666 C667 1.382 . S
C666 H688 0.950 . S
C667 N663 1.332 . S
C667 C666 1.382 . S
C667 H669 0.952 . S
C668 N663 1.332 . S
C668 C664 1.382 . S
C668 H670 0.948 . S
H669 C667 0.952 . S
H670 C668 0.948 . S
H671 C660 0.952 . S
H672 C662 0.948 . S
C673 C639 1.395 . S
C673 C643 1.391 . S
C674 C636 1.389 . S
C674 C656 1.392 . S
C675 C646 1.392 . S
C675 C648 1.389 . S
C676 C651 1.395 . S
C676 C653 1.391 . S
H677 C637 0.951 . S
H678 C638 0.950 . S
H679 C644 0.949 . S
H680 C645 0.950 . S
H681 C649 0.951 . S
H682 C650 0.950 . S
H683 C654 0.949 . S
H684 C655 0.950 . S
H685 C659 0.950 . S
H686 C661 0.950 . S
H687 C664 0.950 . S
H688 C666 0.950 . S
C689 C690 1.443 . S
C689 N693 1.376 . S
C689 C727 1.389 . S
C690 C689 1.443 . S
C690 C691 1.340 . S
C690 H730 0.951 . S
C691 C690 1.340 . S
C691 C692 1.439 . S
C691 H731 0.950 . S
C692 C691 1.439 . S
C692 N693 1.374 . S
C692 C726 1.395 . S
N693 C689 1.376 . S
N693 C692 1.374 . S
N693 Co694 2.008 . S
Co694 N693 2.008 . S
Co694 N695 1.995 . S
Co694 N700 2.008 . S
Co694 N705 1.995 . S
Co694 N710 2.282 . S
Co694 N716 2.282 . S
N695 Co694 1.995 . S
N695 C696 1.376 . S
N695 C699 1.383 . S
C696 N695 1.376 . S
C696 C697 1.446 . S
C696 C726 1.391 . S
C697 C696 1.446 . S
C697 C698 1.339 . S
C697 H732 0.949 . S
C698 C697 1.339 . S
C698 C699 1.439 . S
C698 H733 0.950 . S
C699 N695 1.383 . S
C699 C698 1.439 . S
C699 C728 1.392 . S
N700 Co694 2.008 . S
N700 C701 1.376 . S
N700 C704 1.374 . S
C701 N700 1.376 . S
C701 C702 1.443 . S
C701 C728 1.389 . S
C702 C701 1.443 . S
C702 C703 1.340 . S
C702 H734 0.951 . S
C703 C702 1.340 . S
C703 C704 1.439 . S
C703 H735 0.950 . S
C704 N700 1.374 . S
C704 C703 1.439 . S
C704 C729 1.395 . S
N705 Co694 1.995 . S
N705 C706 1.376 . S
N705 C709 1.383 . S
C706 N705 1.376 . S
C706 C707 1.446 . S
C706 C729 1.391 . S
C707 C706 1.446 . S
C707 C708 1.339 . S
C707 H736 0.949 . S
C708 C707 1.339 . S
C708 C709 1.439 . S
C708 H737 0.950 . S
C709 N705 1.383 . S
C709 C708 1.439 . S
C709 C727 1.392 . S
N710 Co694 2.282 . S
N710 C713 1.332 . S
N710 C715 1.332 . S
C711 C712 1.386 . S
C711 C714 1.388 . S
C712 C711 1.386 . S
C712 C713 1.382 . S
C712 H738 0.950 . S
C713 N710 1.332 . S
C713 C712 1.382 . S
C713 H724 0.952 . S
C714 C711 1.388 . S
C714 C715 1.382 . S
C714 H739 0.950 . S
C715 N710 1.332 . S
C715 C714 1.382 . S
C715 H725 0.948 . S
N716 Co694 2.282 . S
N716 C720 1.332 . S
N716 C721 1.332 . S
C717 C718 1.388 . S
C717 C721 1.382 . S
C717 H740 0.950 . S
C718 C717 1.388 . S
C718 C719 1.386 . S
C719 C718 1.386 . S
C719 C720 1.382 . S
C719 H741 0.950 . S
C720 N716 1.332 . S
C720 C719 1.382 . S
C720 H722 0.952 . S
C721 N716 1.332 . S
C721 C717 1.382 . S
C721 H723 0.948 . S
H722 C720 0.952 . S
H723 C721 0.948 . S
H724 C713 0.952 . S
H725 C715 0.948 . S
C726 C692 1.395 . S
C726 C696 1.391 . S
C727 C689 1.389 . S
C727 C709 1.392 . S
C728 C699 1.392 . S
C728 C701 1.389 . S
C729 C704 1.395 . S
C729 C706 1.391 . S
H730 C690 0.951 . S
H731 C691 0.950 . S
H732 C697 0.949 . S
H733 C698 0.950 . S
H734 C702 0.951 . S
H735 C703 0.950 . S
H736 C707 0.949 . S
H737 C708 0.950 . S
H738 C712 0.950 . S
H739 C714 0.950 . S
H740 C717 0.950 . S
H741 C719 0.950 . S
C742 C743 1.443 . S
C742 N746 1.376 . S
C742 C780 1.389 . S
C743 C742 1.443 . S
C743 C744 1.340 . S
C743 H783 0.951 . S
C744 C743 1.340 . S
C744 C745 1.439 . S
C744 H784 0.950 . S
C745 C744 1.439 . S
C745 N746 1.374 . S
C745 C779 1.395 . S
N746 C742 1.376 . S
N746 C745 1.374 . S
N746 Co747 2.008 . S
Co747 N746 2.008 . S
Co747 N748 1.995 . S
Co747 N753 2.008 . S
Co747 N758 1.995 . S
Co747 N763 2.282 . S
Co747 N769 2.282 . S
N748 Co747 1.995 . S
N748 C749 1.376 . S
N748 C752 1.383 . S
C749 N748 1.376 . S
C749 C750 1.446 . S
C749 C779 1.391 . S
C750 C749 1.446 . S
C750 C751 1.339 . S
C750 H785 0.949 . S
C751 C750 1.339 . S
C751 C752 1.439 . S
C751 H786 0.950 . S
C752 N748 1.383 . S
C752 C751 1.439 . S
C752 C781 1.392 . S
N753 Co747 2.008 . S
N753 C754 1.376 . S
N753 C757 1.374 . S
C754 N753 1.376 . S
C754 C755 1.443 . S
C754 C781 1.389 . S
C755 C754 1.443 . S
C755 C756 1.340 . S
C755 H787 0.951 . S
C756 C755 1.340 . S
C756 C757 1.439 . S
C756 H788 0.950 . S
C757 N753 1.374 . S
C757 C756 1.439 . S
C757 C782 1.395 . S
N758 Co747 1.995 . S
N758 C759 1.376 . S
N758 C762 1.383 . S
C759 N758 1.376 . S
C759 C760 1.446 . S
C759 C782 1.391 . S
C760 C759 1.446 . S
C760 C761 1.339 . S
C760 H789 0.949 . S
C761 C760 1.339 . S
C761 C762 1.439 . S
C761 H790 0.950 . S
C762 N758 1.383 . S
C762 C761 1.439 . S
C762 C780 1.392 . S
N763 Co747 2.282 . S
N763 C766 1.332 . S
N763 C768 1.332 . S
C764 C765 1.386 . S
C764 C767 1.388 . S
C765 C764 1.386 . S
C765 C766 1.382 . S
C765 H791 0.950 . S
C766 N763 1.332 . S
C766 C765 1.382 . S
C766 H777 0.952 . S
C767 C764 1.388 . S
C767 C768 1.382 . S
C767 H792 0.950 . S
C768 N763 1.332 . S
C768 C767 1.382 . S
C768 H778 0.948 . S
N769 Co747 2.282 . S
N769 C773 1.332 . S
N769 C774 1.332 . S
C770 C771 1.388 . S
C770 C774 1.382 . S
C770 H793 0.950 . S
C771 C770 1.388 . S
C771 C772 1.386 . S
C772 C771 1.386 . S
C772 C773 1.382 . S
C772 H794 0.950 . S
C773 N769 1.332 . S
C773 C772 1.382 . S
C773 H775 0.952 . S
C774 N769 1.332 . S
C774 C770 1.382 . S
C774 H776 0.948 . S
H775 C773 0.952 . S
H776 C774 0.948 . S
H777 C766 0.952 . S
H778 C768 0.948 . S
C779 C745 1.395 . S
C779 C749 1.391 . S
C780 C742 1.389 . S
C780 C762 1.392 . S
C781 C752 1.392 . S
C781 C754 1.389 . S
C782 C757 1.395 . S
C782 C759 1.391 . S
H783 C743 0.951 . S
H784 C744 0.950 . S
H785 C750 0.949 . S
H786 C751 0.950 . S
H787 C755 0.951 . S
H788 C756 0.950 . S
H789 C760 0.949 . S
H790 C761 0.950 . S
H791 C765 0.950 . S
H792 C767 0.950 . S
H793 C770 0.950 . S
H794 C772 0.950 . S
C795 C796 1.443 . S
C795 N799 1.376 . S
C795 C833 1.389 . S
C796 C795 1.443 . S
C796 C797 1.340 . S
C796 H836 0.951 . S
C797 C796 1.340 . S
C797 C798 1.439 . S
C797 H837 0.950 . S
C798 C797 1.439 . S
C798 N799 1.374 . S
C798 C832 1.395 . S
N799 C795 1.376 . S
N799 C798 1.374 . S
N799 Co800 2.008 . S
Co800 N799 2.008 . S
Co800 N801 1.995 . S
Co800 N806 2.008 . S
Co800 N811 1.995 . S
Co800 N816 2.282 . S
Co800 N822 2.282 . S
N801 Co800 1.995 . S
N801 C802 1.376 . S
N801 C805 1.383 . S
C802 N801 1.376 . S
C802 C803 1.446 . S
C802 C832 1.391 . S
C803 C802 1.446 . S
C803 C804 1.339 . S
C803 H838 0.949 . S
C804 C803 1.339 . S
C804 C805 1.439 . S
C804 H839 0.950 . S
C805 N801 1.383 . S
C805 C804 1.439 . S
C805 C834 1.392 . S
N806 Co800 2.008 . S
N806 C807 1.376 . S
N806 C810 1.374 . S
C807 N806 1.376 . S
C807 C808 1.443 . S
C807 C834 1.389 . S
C808 C807 1.443 . S
C808 C809 1.340 . S
C808 H840 0.951 . S
C809 C808 1.340 . S
C809 C810 1.439 . S
C809 H841 0.950 . S
C810 N806 1.374 . S
C810 C809 1.439 . S
C810 C835 1.395 . S
N811 Co800 1.995 . S
N811 C812 1.376 . S
N811 C815 1.383 . S
C812 N811 1.376 . S
C812 C813 1.446 . S
C812 C835 1.391 . S
C813 C812 1.446 . S
C813 C814 1.339 . S
C813 H842 0.949 . S
C814 C813 1.339 . S
C814 C815 1.439 . S
C814 H843 0.950 . S
C815 N811 1.383 . S
C815 C814 1.439 . S
C815 C833 1.392 . S
N816 Co800 2.282 . S
N816 C819 1.332 . S
N816 C821 1.332 . S
C817 C818 1.386 . S
C817 C820 1.388 . S
C818 C817 1.386 . S
C818 C819 1.382 . S
C818 H844 0.950 . S
C819 N816 1.332 . S
C819 C818 1.382 . S
C819 H830 0.952 . S
C820 C817 1.388 . S
C820 C821 1.382 . S
C820 H845 0.950 . S
C821 N816 1.332 . S
C821 C820 1.382 . S
C821 H831 0.948 . S
N822 Co800 2.282 . S
N822 C826 1.332 . S
N822 C827 1.332 . S
C823 C824 1.388 . S
C823 C827 1.382 . S
C823 H846 0.950 . S
C824 C823 1.388 . S
C824 C825 1.386 . S
C825 C824 1.386 . S
C825 C826 1.382 . S
C825 H847 0.950 . S
C826 N822 1.332 . S
C826 C825 1.382 . S
C826 H828 0.952 . S
C827 N822 1.332 . S
C827 C823 1.382 . S
C827 H829 0.948 . S
H828 C826 0.952 . S
H829 C827 0.948 . S
H830 C819 0.952 . S
H831 C821 0.948 . S
C832 C798 1.395 . S
C832 C802 1.391 . S
C833 C795 1.389 . S
C833 C815 1.392 . S
C834 C805 1.392 . S
C834 C807 1.389 . S
C835 C810 1.395 . S
C835 C812 1.391 . S
H836 C796 0.951 . S
H837 C797 0.950 . S
H838 C803 0.949 . S
H839 C804 0.950 . S
H840 C808 0.951 . S
H841 C809 0.950 . S
H842 C813 0.949 . S
H843 C814 0.950 . S
H844 C818 0.950 . S
H845 C820 0.950 . S
H846 C823 0.950 . S
H847 C825 0.950 . S
C848 C849 1.443 . S
C848 N852 1.376 . S
C848 C886 1.389 . S
C849 C848 1.443 . S
C849 C850 1.340 . S
C849 H889 0.951 . S
C850 C849 1.340 . S
C850 C851 1.439 . S
C850 H890 0.950 . S
C851 C850 1.439 . S
C851 N852 1.374 . S
C851 C885 1.395 . S
N852 C848 1.376 . S
N852 C851 1.374 . S
N852 Co853 2.008 . S
Co853 N852 2.008 . S
Co853 N854 1.995 . S
Co853 N859 2.008 . S
Co853 N864 1.995 . S
Co853 N869 2.282 . S
Co853 N875 2.282 . S
N854 Co853 1.995 . S
N854 C855 1.376 . S
N854 C858 1.383 . S
C855 N854 1.376 . S
C855 C856 1.446 . S
C855 C885 1.391 . S
C856 C855 1.446 . S
C856 C857 1.339 . S
C856 H891 0.949 . S
C857 C856 1.339 . S
C857 C858 1.439 . S
C857 H892 0.950 . S
C858 N854 1.383 . S
C858 C857 1.439 . S
C858 C887 1.392 . S
N859 Co853 2.008 . S
N859 C860 1.376 . S
N859 C863 1.374 . S
C860 N859 1.376 . S
C860 C861 1.443 . S
C860 C887 1.389 . S
C861 C860 1.443 . S
C861 C862 1.340 . S
C861 H893 0.951 . S
C862 C861 1.340 . S
C862 C863 1.439 . S
C862 H894 0.950 . S
C863 N859 1.374 . S
C863 C862 1.439 . S
C863 C888 1.395 . S
N864 Co853 1.995 . S
N864 C865 1.376 . S
N864 C868 1.383 . S
C865 N864 1.376 . S
C865 C866 1.446 . S
C865 C888 1.391 . S
C866 C865 1.446 . S
C866 C867 1.339 . S
C866 H895 0.949 . S
C867 C866 1.339 . S
C867 C868 1.439 . S
C867 H896 0.950 . S
C868 N864 1.383 . S
C868 C867 1.439 . S
C868 C886 1.392 . S
N869 Co853 2.282 . S
N869 C872 1.332 . S
N869 C874 1.332 . S
C870 C871 1.386 . S
C870 C873 1.388 . S
C871 C870 1.386 . S
C871 C872 1.382 . S
C871 H897 0.950 . S
C872 N869 1.332 . S
C872 C871 1.382 . S
C872 H883 0.952 . S
C873 C870 1.388 . S
C873 C874 1.382 . S
C873 H898 0.950 . S
C874 N869 1.332 . S
C874 C873 1.382 . S
C874 H884 0.948 . S
N875 Co853 2.282 . S
N875 C879 1.332 . S
N875 C880 1.332 . S
C876 C877 1.388 . S
C876 C880 1.382 . S
C876 H899 0.950 . S
C877 C876 1.388 . S
C877 C878 1.386 . S
C878 C877 1.386 . S
C878 C879 1.382 . S
C878 H900 0.950 . S
C879 N875 1.332 . S
C879 C878 1.382 . S
C879 H881 0.952 . S
C880 N875 1.332 . S
C880 C876 1.382 . S
C880 H882 0.948 . S
H881 C879 0.952 . S
H882 C880 0.948 . S
H883 C872 0.952 . S
H884 C874 0.948 . S
C885 C851 1.395 . S
C885 C855 1.391 . S
C886 C848 1.389 . S
C886 C868 1.392 . S
C887 C858 1.392 . S
C887 C860 1.389 . S
C888 C863 1.395 . S
C888 C865 1.391 . S
H889 C849 0.951 . S
H890 C850 0.950 . S
H891 C856 0.949 . S
H892 C857 0.950 . S
H893 C861 0.951 . S
H894 C862 0.950 . S
H895 C866 0.949 . S
H896 C867 0.950 . S
H897 C871 0.950 . S
H898 C873 0.950 . S
H899 C876 0.950 . S
H900 C878 0.950 . S
C901 C902 1.443 . S
C901 N905 1.376 . S
C901 C939 1.389 . S
C902 C901 1.443 . S
C902 C903 1.340 . S
C902 H942 0.951 . S
C903 C902 1.340 . S
C903 C904 1.439 . S
C903 H943 0.950 . S
C904 C903 1.439 . S
C904 N905 1.374 . S
C904 C938 1.395 . S
N905 C901 1.376 . S
N905 C904 1.374 . S
N905 Co906 2.008 . S
Co906 N905 2.008 . S
Co906 N907 1.995 . S
Co906 N912 2.008 . S
Co906 N917 1.995 . S
Co906 N922 2.282 . S
Co906 N928 2.282 . S
N907 Co906 1.995 . S
N907 C908 1.376 . S
N907 C911 1.383 . S
C908 N907 1.376 . S
C908 C909 1.446 . S
C908 C938 1.391 . S
C909 C908 1.446 . S
C909 C910 1.339 . S
C909 H944 0.949 . S
C910 C909 1.339 . S
C910 C911 1.439 . S
C910 H945 0.950 . S
C911 N907 1.383 . S
C911 C910 1.439 . S
C911 C940 1.392 . S
N912 Co906 2.008 . S
N912 C913 1.376 . S
N912 C916 1.374 . S
C913 N912 1.376 . S
C913 C914 1.443 . S
C913 C940 1.389 . S
C914 C913 1.443 . S
C914 C915 1.340 . S
C914 H946 0.951 . S
C915 C914 1.340 . S
C915 C916 1.439 . S
C915 H947 0.950 . S
C916 N912 1.374 . S
C916 C915 1.439 . S
C916 C941 1.395 . S
N917 Co906 1.995 . S
N917 C918 1.376 . S
N917 C921 1.383 . S
C918 N917 1.376 . S
C918 C919 1.446 . S
C918 C941 1.391 . S
C919 C918 1.446 . S
C919 C920 1.339 . S
C919 H948 0.949 . S
C920 C919 1.339 . S
C920 C921 1.439 . S
C920 H949 0.950 . S
C921 N917 1.383 . S
C921 C920 1.439 . S
C921 C939 1.392 . S
N922 Co906 2.282 . S
N922 C925 1.332 . S
N922 C927 1.332 . S
C923 C924 1.386 . S
C923 C926 1.388 . S
C924 C923 1.386 . S
C924 C925 1.382 . S
C924 H950 0.950 . S
C925 N922 1.332 . S
C925 C924 1.382 . S
C925 H936 0.952 . S
C926 C923 1.388 . S
C926 C927 1.382 . S
C926 H951 0.950 . S
C927 N922 1.332 . S
C927 C926 1.382 . S
C927 H937 0.948 . S
N928 Co906 2.282 . S
N928 C932 1.332 . S
N928 C933 1.332 . S
C929 C930 1.388 . S
C929 C933 1.382 . S
C929 H952 0.950 . S
C930 C929 1.388 . S
C930 C931 1.386 . S
C931 C930 1.386 . S
C931 C932 1.382 . S
C931 H953 0.950 . S
C932 N928 1.332 . S
C932 C931 1.382 . S
C932 H934 0.952 . S
C933 N928 1.332 . S
C933 C929 1.382 . S
C933 H935 0.948 . S
H934 C932 0.952 . S
H935 C933 0.948 . S
H936 C925 0.952 . S
H937 C927 0.948 . S
C938 C904 1.395 . S
C938 C908 1.391 . S
C939 C901 1.389 . S
C939 C921 1.392 . S
C940 C911 1.392 . S
C940 C913 1.389 . S
C941 C916 1.395 . S
C941 C918 1.391 . S
H942 C902 0.951 . S
H943 C903 0.950 . S
H944 C909 0.949 . S
H945 C910 0.950 . S
H946 C914 0.951 . S
H947 C915 0.950 . S
H948 C919 0.949 . S
H949 C920 0.950 . S
H950 C924 0.950 . S
H951 C926 0.950 . S
H952 C929 0.950 . S
H953 C931 0.950 . S
C954 C955 1.443 . S
C954 N958 1.376 . S
C954 C992 1.389 . S
C955 C954 1.443 . S
C955 C956 1.340 . S
C955 H995 0.951 . S
C956 C955 1.340 . S
C956 C957 1.439 . S
C956 H996 0.950 . S
C957 C956 1.439 . S
C957 N958 1.374 . S
C957 C991 1.395 . S
N958 C954 1.376 . S
N958 C957 1.374 . S
N958 Co959 2.008 . S
Co959 N958 2.008 . S
Co959 N960 1.995 . S
Co959 N965 2.008 . S
Co959 N970 1.995 . S
Co959 N975 2.282 . S
Co959 N981 2.282 . S
N960 Co959 1.995 . S
N960 C961 1.376 . S
N960 C964 1.383 . S
C961 N960 1.376 . S
C961 C962 1.446 . S
C961 C991 1.391 . S
C962 C961 1.446 . S
C962 C963 1.339 . S
C962 H997 0.949 . S
C963 C962 1.339 . S
C963 C964 1.439 . S
C963 H998 0.950 . S
C964 N960 1.383 . S
C964 C963 1.439 . S
C964 C993 1.392 . S
N965 Co959 2.008 . S
N965 C966 1.376 . S
N965 C969 1.374 . S
C966 N965 1.376 . S
C966 C967 1.443 . S
C966 C993 1.389 . S
C967 C966 1.443 . S
C967 C968 1.340 . S
C967 H999 0.951 . S
C968 C967 1.340 . S
C968 C969 1.439 . S
C968 H1000 0.950 . S
C969 N965 1.374 . S
C969 C968 1.439 . S
C969 C994 1.395 . S
N970 Co959 1.995 . S
N970 C971 1.376 . S
N970 C974 1.383 . S
C971 N970 1.376 . S
C971 C972 1.446 . S
C971 C994 1.391 . S
C972 C971 1.446 . S
C972 C973 1.339 . S
C972 H1001 0.949 . S
C973 C972 1.339 . S
C973 C974 1.439 . S
C973 H1002 0.950 . S
C974 N970 1.383 . S
C974 C973 1.439 . S
C974 C992 1.392 . S
N975 Co959 2.282 . S
N975 C978 1.332 . S
N975 C980 1.332 . S
C976 C977 1.386 . S
C976 C979 1.388 . S
C977 C976 1.386 . S
C977 C978 1.382 . S
C977 H1003 0.950 . S
C978 N975 1.332 . S
C978 C977 1.382 . S
C978 H989 0.952 . S
C979 C976 1.388 . S
C979 C980 1.382 . S
C979 H1004 0.950 . S
C980 N975 1.332 . S
C980 C979 1.382 . S
C980 H990 0.948 . S
N981 Co959 2.282 . S
N981 C985 1.332 . S
N981 C986 1.332 . S
C982 C983 1.388 . S
C982 C986 1.382 . S
C982 H1005 0.950 . S
C983 C982 1.388 . S
C983 C984 1.386 . S
C984 C983 1.386 . S
C984 C985 1.382 . S
C984 H1006 0.950 . S
C985 N981 1.332 . S
C985 C984 1.382 . S
C985 H987 0.952 . S
C986 N981 1.332 . S
C986 C982 1.382 . S
C986 H988 0.948 . S
H987 C985 0.952 . S
H988 C986 0.948 . S
H989 C978 0.952 . S
H990 C980 0.948 . S
C991 C957 1.395 . S
C991 C961 1.391 . S
C992 C954 1.389 . S
C992 C974 1.392 . S
C993 C964 1.392 . S
C993 C966 1.389 . S
C994 C969 1.395 . S
C994 C971 1.391 . S
H995 C955 0.951 . S
H996 C956 0.950 . S
H997 C962 0.949 . S
H998 C963 0.950 . S
H999 C967 0.951 . S
H1000 C968 0.950 . S
H1001 C972 0.949 . S
H1002 C973 0.950 . S
H1003 C977 0.950 . S
H1004 C979 0.950 . S
H1005 C982 0.950 . S
H1006 C984 0.950 . S
C1007 C1008 1.443 . S
C1007 N1011 1.376 . S
C1007 C1045 1.389 . S
C1008 C1007 1.443 . S
C1008 C1009 1.340 . S
C1008 H1048 0.951 . S
C1009 C1008 1.340 . S
C1009 C1010 1.439 . S
C1009 H1049 0.950 . S
C1010 C1009 1.439 . S
C1010 N1011 1.374 . S
C1010 C1044 1.395 . S
N1011 C1007 1.376 . S
N1011 C1010 1.374 . S
N1011 Co1012 2.008 . S
Co1012 N1011 2.008 . S
Co1012 N1013 1.995 . S
Co1012 N1018 2.008 . S
Co1012 N1023 1.995 . S
Co1012 N1028 2.282 . S
Co1012 N1034 2.282 . S
N1013 Co1012 1.995 . S
N1013 C1014 1.376 . S
N1013 C1017 1.383 . S
C1014 N1013 1.376 . S
C1014 C1015 1.446 . S
C1014 C1044 1.391 . S
C1015 C1014 1.446 . S
C1015 C1016 1.339 . S
C1015 H1050 0.949 . S
C1016 C1015 1.339 . S
C1016 C1017 1.439 . S
C1016 H1051 0.950 . S
C1017 N1013 1.383 . S
C1017 C1016 1.439 . S
C1017 C1046 1.392 . S
N1018 Co1012 2.008 . S
N1018 C1019 1.376 . S
N1018 C1022 1.374 . S
C1019 N1018 1.376 . S
C1019 C1020 1.443 . S
C1019 C1046 1.389 . S
C1020 C1019 1.443 . S
C1020 C1021 1.340 . S
C1020 H1052 0.951 . S
C1021 C1020 1.340 . S
C1021 C1022 1.439 . S
C1021 H1053 0.950 . S
C1022 N1018 1.374 . S
C1022 C1021 1.439 . S
C1022 C1047 1.395 . S
N1023 Co1012 1.995 . S
N1023 C1024 1.376 . S
N1023 C1027 1.383 . S
C1024 N1023 1.376 . S
C1024 C1025 1.446 . S
C1024 C1047 1.391 . S
C1025 C1024 1.446 . S
C1025 C1026 1.339 . S
C1025 H1054 0.949 . S
C1026 C1025 1.339 . S
C1026 C1027 1.439 . S
C1026 H1055 0.950 . S
C1027 N1023 1.383 . S
C1027 C1026 1.439 . S
C1027 C1045 1.392 . S
N1028 Co1012 2.282 . S
N1028 C1031 1.332 . S
N1028 C1033 1.332 . S
C1029 C1030 1.386 . S
C1029 C1032 1.388 . S
C1030 C1029 1.386 . S
C1030 C1031 1.382 . S
C1030 H1056 0.950 . S
C1031 N1028 1.332 . S
C1031 C1030 1.382 . S
C1031 H1042 0.952 . S
C1032 C1029 1.388 . S
C1032 C1033 1.382 . S
C1032 H1057 0.950 . S
C1033 N1028 1.332 . S
C1033 C1032 1.382 . S
C1033 H1043 0.948 . S
N1034 Co1012 2.282 . S
N1034 C1038 1.332 . S
N1034 C1039 1.332 . S
C1035 C1036 1.388 . S
C1035 C1039 1.382 . S
C1035 H1058 0.950 . S
C1036 C1035 1.388 . S
C1036 C1037 1.386 . S
C1037 C1036 1.386 . S
C1037 C1038 1.382 . S
C1037 H1059 0.950 . S
C1038 N1034 1.332 . S
C1038 C1037 1.382 . S
C1038 H1040 0.952 . S
C1039 N1034 1.332 . S
C1039 C1035 1.382 . S
C1039 H1041 0.948 . S
H1040 C1038 0.952 . S
H1041 C1039 0.948 . S
H1042 C1031 0.952 . S
H1043 C1033 0.948 . S
C1044 C1010 1.395 . S
C1044 C1014 1.391 . S
C1045 C1007 1.389 . S
C1045 C1027 1.392 . S
C1046 C1017 1.392 . S
C1046 C1019 1.389 . S
C1047 C1022 1.395 . S
C1047 C1024 1.391 . S
H1048 C1008 0.951 . S
H1049 C1009 0.950 . S
H1050 C1015 0.949 . S
H1051 C1016 0.950 . S
H1052 C1020 0.951 . S
H1053 C1021 0.950 . S
H1054 C1025 0.949 . S
H1055 C1026 0.950 . S
H1056 C1030 0.950 . S
H1057 C1032 0.950 . S
H1058 C1035 0.950 . S
H1059 C1037 0.950 . S
C1060 C1061 1.443 . S
C1060 N1064 1.376 . S
C1060 C1098 1.389 . S
C1061 C1060 1.443 . S
C1061 C1062 1.340 . S
C1061 H1101 0.951 . S
C1062 C1061 1.340 . S
C1062 C1063 1.439 . S
C1062 H1102 0.950 . S
C1063 C1062 1.439 . S
C1063 N1064 1.374 . S
C1063 C1097 1.395 . S
N1064 C1060 1.376 . S
N1064 C1063 1.374 . S
N1064 Co1065 2.008 . S
Co1065 N1064 2.008 . S
Co1065 N1066 1.995 . S
Co1065 N1071 2.008 . S
Co1065 N1076 1.995 . S
Co1065 N1081 2.282 . S
Co1065 N1087 2.282 . S
N1066 Co1065 1.995 . S
N1066 C1067 1.376 . S
N1066 C1070 1.383 . S
C1067 N1066 1.376 . S
C1067 C1068 1.446 . S
C1067 C1097 1.391 . S
C1068 C1067 1.446 . S
C1068 C1069 1.339 . S
C1068 H1103 0.949 . S
C1069 C1068 1.339 . S
C1069 C1070 1.439 . S
C1069 H1104 0.950 . S
C1070 N1066 1.383 . S
C1070 C1069 1.439 . S
C1070 C1099 1.392 . S
N1071 Co1065 2.008 . S
N1071 C1072 1.376 . S
N1071 C1075 1.374 . S
C1072 N1071 1.376 . S
C1072 C1073 1.443 . S
C1072 C1099 1.389 . S
C1073 C1072 1.443 . S
C1073 C1074 1.340 . S
C1073 H1105 0.951 . S
C1074 C1073 1.340 . S
C1074 C1075 1.439 . S
C1074 H1106 0.950 . S
C1075 N1071 1.374 . S
C1075 C1074 1.439 . S
C1075 C1100 1.395 . S
N1076 Co1065 1.995 . S
N1076 C1077 1.376 . S
N1076 C1080 1.383 . S
C1077 N1076 1.376 . S
C1077 C1078 1.446 . S
C1077 C1100 1.391 . S
C1078 C1077 1.446 . S
C1078 C1079 1.339 . S
C1078 H1107 0.949 . S
C1079 C1078 1.339 . S
C1079 C1080 1.439 . S
C1079 H1108 0.950 . S
C1080 N1076 1.383 . S
C1080 C1079 1.439 . S
C1080 C1098 1.392 . S
N1081 Co1065 2.282 . S
N1081 C1084 1.332 . S
N1081 C1086 1.332 . S
C1082 C1083 1.386 . S
C1082 C1085 1.388 . S
C1083 C1082 1.386 . S
C1083 C1084 1.382 . S
C1083 H1109 0.950 . S
C1084 N1081 1.332 . S
C1084 C1083 1.382 . S
C1084 H1095 0.952 . S
C1085 C1082 1.388 . S
C1085 C1086 1.382 . S
C1085 H1110 0.950 . S
C1086 N1081 1.332 . S
C1086 C1085 1.382 . S
C1086 H1096 0.948 . S
N1087 Co1065 2.282 . S
N1087 C1091 1.332 . S
N1087 C1092 1.332 . S
C1088 C1089 1.388 . S
C1088 C1092 1.382 . S
C1088 H1111 0.950 . S
C1089 C1088 1.388 . S
C1089 C1090 1.386 . S
C1090 C1089 1.386 . S
C1090 C1091 1.382 . S
C1090 H1112 0.950 . S
C1091 N1087 1.332 . S
C1091 C1090 1.382 . S
C1091 H1093 0.952 . S
C1092 N1087 1.332 . S
C1092 C1088 1.382 . S
C1092 H1094 0.948 . S
H1093 C1091 0.952 . S
H1094 C1092 0.948 . S
H1095 C1084 0.952 . S
H1096 C1086 0.948 . S
C1097 C1063 1.395 . S
C1097 C1067 1.391 . S
C1098 C1060 1.389 . S
C1098 C1080 1.392 . S
C1099 C1070 1.392 . S
C1099 C1072 1.389 . S
C1100 C1075 1.395 . S
C1100 C1077 1.391 . S
H1101 C1061 0.951 . S
H1102 C1062 0.950 . S
H1103 C1068 0.949 . S
H1104 C1069 0.950 . S
H1105 C1073 0.951 . S
H1106 C1074 0.950 . S
H1107 C1078 0.949 . S
H1108 C1079 0.950 . S
H1109 C1083 0.950 . S
H1110 C1085 0.950 . S
H1111 C1088 0.950 . S
H1112 C1090 0.950 . S
C1113 C1114 1.443 . S
C1113 N1117 1.376 . S
C1113 C1151 1.389 . S
C1114 C1113 1.443 . S
C1114 C1115 1.340 . S
C1114 H1154 0.951 . S
C1115 C1114 1.340 . S
C1115 C1116 1.439 . S
C1115 H1155 0.950 . S
C1116 C1115 1.439 . S
C1116 N1117 1.374 . S
C1116 C1150 1.395 . S
N1117 C1113 1.376 . S
N1117 C1116 1.374 . S
N1117 Co1118 2.008 . S
Co1118 N1117 2.008 . S
Co1118 N1119 1.995 . S
Co1118 N1124 2.008 . S
Co1118 N1129 1.995 . S
Co1118 N1134 2.282 . S
Co1118 N1140 2.282 . S
N1119 Co1118 1.995 . S
N1119 C1120 1.376 . S
N1119 C1123 1.383 . S
C1120 N1119 1.376 . S
C1120 C1121 1.446 . S
C1120 C1150 1.391 . S
C1121 C1120 1.446 . S
C1121 C1122 1.339 . S
C1121 H1156 0.949 . S
C1122 C1121 1.339 . S
C1122 C1123 1.439 . S
C1122 H1157 0.950 . S
C1123 N1119 1.383 . S
C1123 C1122 1.439 . S
C1123 C1152 1.392 . S
N1124 Co1118 2.008 . S
N1124 C1125 1.376 . S
N1124 C1128 1.374 . S
C1125 N1124 1.376 . S
C1125 C1126 1.443 . S
C1125 C1152 1.389 . S
C1126 C1125 1.443 . S
C1126 C1127 1.340 . S
C1126 H1158 0.951 . S
C1127 C1126 1.340 . S
C1127 C1128 1.439 . S
C1127 H1159 0.950 . S
C1128 N1124 1.374 . S
C1128 C1127 1.439 . S
C1128 C1153 1.395 . S
N1129 Co1118 1.995 . S
N1129 C1130 1.376 . S
N1129 C1133 1.383 . S
C1130 N1129 1.376 . S
C1130 C1131 1.446 . S
C1130 C1153 1.391 . S
C1131 C1130 1.446 . S
C1131 C1132 1.339 . S
C1131 H1160 0.949 . S
C1132 C1131 1.339 . S
C1132 C1133 1.439 . S
C1132 H1161 0.950 . S
C1133 N1129 1.383 . S
C1133 C1132 1.439 . S
C1133 C1151 1.392 . S
N1134 Co1118 2.282 . S
N1134 C1137 1.332 . S
N1134 C1139 1.332 . S
C1135 C1136 1.386 . S
C1135 C1138 1.388 . S
C1136 C1135 1.386 . S
C1136 C1137 1.382 . S
C1136 H1162 0.950 . S
C1137 N1134 1.332 . S
C1137 C1136 1.382 . S
C1137 H1148 0.952 . S
C1138 C1135 1.388 . S
C1138 C1139 1.382 . S
C1138 H1163 0.950 . S
C1139 N1134 1.332 . S
C1139 C1138 1.382 . S
C1139 H1149 0.948 . S
N1140 Co1118 2.282 . S
N1140 C1144 1.332 . S
N1140 C1145 1.332 . S
C1141 C1142 1.388 . S
C1141 C1145 1.382 . S
C1141 H1164 0.950 . S
C1142 C1141 1.388 . S
C1142 C1143 1.386 . S
C1143 C1142 1.386 . S
C1143 C1144 1.382 . S
C1143 H1165 0.950 . S
C1144 N1140 1.332 . S
C1144 C1143 1.382 . S
C1144 H1146 0.952 . S
C1145 N1140 1.332 . S
C1145 C1141 1.382 . S
C1145 H1147 0.948 . S
H1146 C1144 0.952 . S
H1147 C1145 0.948 . S
H1148 C1137 0.952 . S
H1149 C1139 0.948 . S
C1150 C1116 1.395 . S
C1150 C1120 1.391 . S
C1151 C1113 1.389 . S
C1151 C1133 1.392 . S
C1152 C1123 1.392 . S
C1152 C1125 1.389 . S
C1153 C1128 1.395 . S
C1153 C1130 1.391 . S
H1154 C1114 0.951 . S
H1155 C1115 0.950 . S
H1156 C1121 0.949 . S
H1157 C1122 0.950 . S
H1158 C1126 0.951 . S
H1159 C1127 0.950 . S
H1160 C1131 0.949 . S
H1161 C1132 0.950 . S
H1162 C1136 0.950 . S
H1163 C1138 0.950 . S
H1164 C1141 0.950 . S
H1165 C1143 0.950 . S
C1166 C1167 1.443 . S
C1166 N1170 1.376 . S
C1166 C1204 1.389 . S
C1167 C1166 1.443 . S
C1167 C1168 1.340 . S
C1167 H1207 0.951 . S
C1168 C1167 1.340 . S
C1168 C1169 1.439 . S
C1168 H1208 0.950 . S
C1169 C1168 1.439 . S
C1169 N1170 1.374 . S
C1169 C1203 1.395 . S
N1170 C1166 1.376 . S
N1170 C1169 1.374 . S
N1170 Co1171 2.008 . S
Co1171 N1170 2.008 . S
Co1171 N1172 1.995 . S
Co1171 N1177 2.008 . S
Co1171 N1182 1.995 . S
Co1171 N1187 2.282 . S
Co1171 N1193 2.282 . S
N1172 Co1171 1.995 . S
N1172 C1173 1.376 . S
N1172 C1176 1.383 . S
C1173 N1172 1.376 . S
C1173 C1174 1.446 . S
C1173 C1203 1.391 . S
C1174 C1173 1.446 . S
C1174 C1175 1.339 . S
C1174 H1209 0.949 . S
C1175 C1174 1.339 . S
C1175 C1176 1.439 . S
C1175 H1210 0.950 . S
C1176 N1172 1.383 . S
C1176 C1175 1.439 . S
C1176 C1205 1.392 . S
N1177 Co1171 2.008 . S
N1177 C1178 1.376 . S
N1177 C1181 1.374 . S
C1178 N1177 1.376 . S
C1178 C1179 1.443 . S
C1178 C1205 1.389 . S
C1179 C1178 1.443 . S
C1179 C1180 1.340 . S
C1179 H1211 0.951 . S
C1180 C1179 1.340 . S
C1180 C1181 1.439 . S
C1180 H1212 0.950 . S
C1181 N1177 1.374 . S
C1181 C1180 1.439 . S
C1181 C1206 1.395 . S
N1182 Co1171 1.995 . S
N1182 C1183 1.376 . S
N1182 C1186 1.383 . S
C1183 N1182 1.376 . S
C1183 C1184 1.446 . S
C1183 C1206 1.391 . S
C1184 C1183 1.446 . S
C1184 C1185 1.339 . S
C1184 H1213 0.949 . S
C1185 C1184 1.339 . S
C1185 C1186 1.439 . S
C1185 H1214 0.950 . S
C1186 N1182 1.383 . S
C1186 C1185 1.439 . S
C1186 C1204 1.392 . S
N1187 Co1171 2.282 . S
N1187 C1190 1.332 . S
N1187 C1192 1.332 . S
C1188 C1189 1.386 . S
C1188 C1191 1.388 . S
C1189 C1188 1.386 . S
C1189 C1190 1.382 . S
C1189 H1215 0.950 . S
C1190 N1187 1.332 . S
C1190 C1189 1.382 . S
C1190 H1201 0.952 . S
C1191 C1188 1.388 . S
C1191 C1192 1.382 . S
C1191 H1216 0.950 . S
C1192 N1187 1.332 . S
C1192 C1191 1.382 . S
C1192 H1202 0.948 . S
N1193 Co1171 2.282 . S
N1193 C1197 1.332 . S
N1193 C1198 1.332 . S
C1194 C1195 1.388 . S
C1194 C1198 1.382 . S
C1194 H1217 0.950 . S
C1195 C1194 1.388 . S
C1195 C1196 1.386 . S
C1196 C1195 1.386 . S
C1196 C1197 1.382 . S
C1196 H1218 0.950 . S
C1197 N1193 1.332 . S
C1197 C1196 1.382 . S
C1197 H1199 0.952 . S
C1198 N1193 1.332 . S
C1198 C1194 1.382 . S
C1198 H1200 0.948 . S
H1199 C1197 0.952 . S
H1200 C1198 0.948 . S
H1201 C1190 0.952 . S
H1202 C1192 0.948 . S
C1203 C1169 1.395 . S
C1203 C1173 1.391 . S
C1204 C1166 1.389 . S
C1204 C1186 1.392 . S
C1205 C1176 1.392 . S
C1205 C1178 1.389 . S
C1206 C1181 1.395 . S
C1206 C1183 1.391 . S
H1207 C1167 0.951 . S
H1208 C1168 0.950 . S
H1209 C1174 0.949 . S
H1210 C1175 0.950 . S
H1211 C1179 0.951 . S
H1212 C1180 0.950 . S
H1213 C1184 0.949 . S
H1214 C1185 0.950 . S
H1215 C1189 0.950 . S
H1216 C1191 0.950 . S
H1217 C1194 0.950 . S
H1218 C1196 0.950 . S
C1219 C1220 1.443 . S
C1219 N1223 1.376 . S
C1219 C1257 1.389 . S
C1220 C1219 1.443 . S
C1220 C1221 1.340 . S
C1220 H1260 0.951 . S
C1221 C1220 1.340 . S
C1221 C1222 1.439 . S
C1221 H1261 0.950 . S
C1222 C1221 1.439 . S
C1222 N1223 1.374 . S
C1222 C1256 1.395 . S
N1223 C1219 1.376 . S
N1223 C1222 1.374 . S
N1223 Co1224 2.008 . S
Co1224 N1223 2.008 . S
Co1224 N1225 1.995 . S
Co1224 N1230 2.008 . S
Co1224 N1235 1.995 . S
Co1224 N1240 2.282 . S
Co1224 N1246 2.282 . S
N1225 Co1224 1.995 . S
N1225 C1226 1.376 . S
N1225 C1229 1.383 . S
C1226 N1225 1.376 . S
C1226 C1227 1.446 . S
C1226 C1256 1.391 . S
C1227 C1226 1.446 . S
C1227 C1228 1.339 . S
C1227 H1262 0.949 . S
C1228 C1227 1.339 . S
C1228 C1229 1.439 . S
C1228 H1263 0.950 . S
C1229 N1225 1.383 . S
C1229 C1228 1.439 . S
C1229 C1258 1.392 . S
N1230 Co1224 2.008 . S
N1230 C1231 1.376 . S
N1230 C1234 1.374 . S
C1231 N1230 1.376 . S
C1231 C1232 1.443 . S
C1231 C1258 1.389 . S
C1232 C1231 1.443 . S
C1232 C1233 1.340 . S
C1232 H1264 1.000 . S
C1233 C1232 1.340 . S
C1233 C1234 1.439 . S
C1233 H1265 0.950 . S
C1234 N1230 1.374 . S
C1234 C1233 1.439 . S
C1234 C1259 1.395 . S
N1235 Co1224 1.995 . S
N1235 C1236 1.376 . S
N1235 C1239 1.383 . S
C1236 N1235 1.376 . S
C1236 C1237 1.446 . S
C1236 C1259 1.391 . S
C1237 C1236 1.446 . S
C1237 C1238 1.339 . S
C1237 H1266 0.949 . S
C1238 C1237 1.339 . S
C1238 C1239 1.439 . S
C1238 H1267 0.950 . S
C1239 N1235 1.383 . S
C1239 C1238 1.439 . S
C1239 C1257 1.392 . S
N1240 Co1224 2.282 . S
N1240 C1243 1.332 . S
N1240 C1245 1.332 . S
C1241 C1242 1.386 . S
C1241 C1244 1.388 . S
C1242 C1241 1.386 . S
C1242 C1243 1.382 . S
C1242 H1268 0.950 . S
C1243 N1240 1.332 . S
C1243 C1242 1.382 . S
C1243 H1254 0.952 . S
C1244 C1241 1.388 . S
C1244 C1245 1.382 . S
C1244 H1269 0.950 . S
C1245 N1240 1.332 . S
C1245 C1244 1.382 . S
C1245 H1255 0.948 . S
N1246 Co1224 2.282 . S
N1246 C1250 1.332 . S
N1246 C1251 1.332 . S
C1247 C1248 1.388 . S
C1247 C1251 1.382 . S
C1247 H1270 0.950 . S
C1248 C1247 1.388 . S
C1248 C1249 1.386 . S
C1249 C1248 1.386 . S
C1249 C1250 1.382 . S
C1249 H1271 0.950 . S
C1250 N1246 1.332 . S
C1250 C1249 1.382 . S
C1250 H1252 0.952 . S
C1251 N1246 1.332 . S
C1251 C1247 1.382 . S
C1251 H1253 0.948 . S
H1252 C1250 0.952 . S
H1253 C1251 0.948 . S
H1254 C1243 0.952 . S
H1255 C1245 0.948 . S
C1256 C1222 1.395 . S
C1256 C1226 1.391 . S
C1257 C1219 1.389 . S
C1257 C1239 1.392 . S
C1258 C1229 1.392 . S
C1258 C1231 1.389 . S
C1259 C1234 1.395 . S
C1259 C1236 1.391 . S
H1260 C1220 0.951 . S
H1261 C1221 0.950 . S
H1262 C1227 0.949 . S
H1263 C1228 0.950 . S
H1264 C1232 1.000 . S
H1265 C1233 0.950 . S
H1266 C1237 0.949 . S
H1267 C1238 0.950 . S
H1268 C1242 0.950 . S
H1269 C1244 0.950 . S
H1270 C1247 0.950 . S
H1271 C1249 0.950 . S
C1272 C1273 1.443 . S
C1272 N1276 1.376 . S
C1272 C1310 1.389 . S
C1273 C1272 1.443 . S
C1273 C1274 1.340 . S
C1273 H1313 0.951 . S
C1274 C1273 1.340 . S
C1274 C1275 1.439 . S
C1274 H1314 0.950 . S
C1275 C1274 1.439 . S
C1275 N1276 1.374 . S
C1275 C1309 1.395 . S
N1276 C1272 1.376 . S
N1276 C1275 1.374 . S
N1276 Co1277 2.008 . S
Co1277 N1276 2.008 . S
Co1277 N1278 1.995 . S
Co1277 N1283 2.008 . S
Co1277 N1288 1.995 . S
Co1277 N1293 2.282 . S
Co1277 N1299 2.282 . S
N1278 Co1277 1.995 . S
N1278 C1279 1.376 . S
N1278 C1282 1.383 . S
C1279 N1278 1.376 . S
C1279 C1280 1.446 . S
C1279 C1309 1.391 . S
C1280 C1279 1.446 . S
C1280 C1281 1.339 . S
C1280 H1315 0.949 . S
C1281 C1280 1.339 . S
C1281 C1282 1.439 . S
C1281 H1316 0.950 . S
C1282 N1278 1.383 . S
C1282 C1281 1.439 . S
C1282 C1311 1.392 . S
N1283 Co1277 2.008 . S
N1283 C1284 1.376 . S
N1283 C1287 1.374 . S
C1284 N1283 1.376 . S
C1284 C1285 1.443 . S
C1284 C1311 1.389 . S
C1285 C1284 1.443 . S
C1285 C1286 1.340 . S
C1285 H1317 0.951 . S
C1286 C1285 1.340 . S
C1286 C1287 1.439 . S
C1286 H1318 0.950 . S
C1287 N1283 1.374 . S
C1287 C1286 1.439 . S
C1287 C1312 1.395 . S
N1288 Co1277 1.995 . S
N1288 C1289 1.376 . S
N1288 C1292 1.383 . S
C1289 N1288 1.376 . S
C1289 C1290 1.446 . S
C1289 C1312 1.391 . S
C1290 C1289 1.446 . S
C1290 C1291 1.339 . S
C1290 H1319 0.949 . S
C1291 C1290 1.339 . S
C1291 C1292 1.439 . S
C1291 H1320 0.950 . S
C1292 N1288 1.383 . S
C1292 C1291 1.439 . S
C1292 C1310 1.392 . S
N1293 Co1277 2.282 . S
N1293 C1296 1.332 . S
N1293 C1298 1.332 . S
C1294 C1295 1.386 . S
C1294 C1297 1.388 . S
C1295 C1294 1.386 . S
C1295 C1296 1.382 . S
C1295 H1321 0.950 . S
C1296 N1293 1.332 . S
C1296 C1295 1.382 . S
C1296 H1307 0.952 . S
C1297 C1294 1.388 . S
C1297 C1298 1.382 . S
C1297 H1322 0.950 . S
C1298 N1293 1.332 . S
C1298 C1297 1.382 . S
C1298 H1308 0.948 . S
N1299 Co1277 2.282 . S
N1299 C1303 1.332 . S
N1299 C1304 1.332 . S
C1300 C1301 1.388 . S
C1300 C1304 1.382 . S
C1300 H1323 0.950 . S
C1301 C1300 1.388 . S
C1301 C1302 1.386 . S
C1302 C1301 1.386 . S
C1302 C1303 1.382 . S
C1302 H1324 0.950 . S
C1303 N1299 1.332 . S
C1303 C1302 1.382 . S
C1303 H1305 0.952 . S
C1304 N1299 1.332 . S
C1304 C1300 1.382 . S
C1304 H1306 0.948 . S
H1305 C1303 0.952 . S
H1306 C1304 0.948 . S
H1307 C1296 0.952 . S
H1308 C1298 0.948 . S
C1309 C1275 1.395 . S
C1309 C1279 1.391 . S
C1310 C1272 1.389 . S
C1310 C1292 1.392 . S
C1311 C1282 1.392 . S
C1311 C1284 1.389 . S
C1312 C1287 1.395 . S
C1312 C1289 1.391 . S
H1313 C1273 0.951 . S
H1314 C1274 0.950 . S
H1315 C1280 0.949 . S
H1316 C1281 0.950 . S
H1317 C1285 0.951 . S
H1318 C1286 0.950 . S
H1319 C1290 0.949 . S
H1320 C1291 0.950 . S
H1321 C1295 0.950 . S
H1322 C1297 0.950 . S
H1323 C1300 0.950 . S
H1324 C1302 0.950 . S
C1325 C1326 1.443 . S
C1325 N1329 1.376 . S
C1325 C1363 1.389 . S
C1326 C1325 1.443 . S
C1326 C1327 1.340 . S
C1326 H1366 0.951 . S
C1327 C1326 1.340 . S
C1327 C1328 1.439 . S
C1327 H1367 0.950 . S
C1328 C1327 1.439 . S
C1328 N1329 1.374 . S
C1328 C1362 1.395 . S
N1329 C1325 1.376 . S
N1329 C1328 1.374 . S
N1329 Co1330 2.008 . S
Co1330 N1329 2.008 . S
Co1330 N1331 1.995 . S
Co1330 N1336 2.008 . S
Co1330 N1341 1.995 . S
Co1330 N1346 2.282 . S
Co1330 N1352 2.282 . S
N1331 Co1330 1.995 . S
N1331 C1332 1.376 . S
N1331 C1335 1.383 . S
C1332 N1331 1.376 . S
C1332 C1333 1.446 . S
C1332 C1362 1.391 . S
C1333 C1332 1.446 . S
C1333 C1334 1.339 . S
C1333 H1368 0.949 . S
C1334 C1333 1.339 . S
C1334 C1335 1.439 . S
C1334 H1369 0.950 . S
C1335 N1331 1.383 . S
C1335 C1334 1.439 . S
C1335 C1364 1.392 . S
N1336 Co1330 2.008 . S
N1336 C1337 1.376 . S
N1336 C1340 1.374 . S
C1337 N1336 1.376 . S
C1337 C1338 1.443 . S
C1337 C1364 1.389 . S
C1338 C1337 1.443 . S
C1338 C1339 1.340 . S
C1338 H1370 0.951 . S
C1339 C1338 1.340 . S
C1339 C1340 1.439 . S
C1339 H1371 0.950 . S
C1340 N1336 1.374 . S
C1340 C1339 1.439 . S
C1340 C1365 1.395 . S
N1341 Co1330 1.995 . S
N1341 C1342 1.376 . S
N1341 C1345 1.383 . S
C1342 N1341 1.376 . S
C1342 C1343 1.446 . S
C1342 C1365 1.391 . S
C1343 C1342 1.446 . S
C1343 C1344 1.339 . S
C1343 H1372 0.949 . S
C1344 C1343 1.339 . S
C1344 C1345 1.439 . S
C1344 H1373 0.950 . S
C1345 N1341 1.383 . S
C1345 C1344 1.439 . S
C1345 C1363 1.392 . S
N1346 Co1330 2.282 . S
N1346 C1349 1.332 . S
N1346 C1351 1.332 . S
C1347 C1348 1.386 . S
C1347 C1350 1.388 . S
C1348 C1347 1.386 . S
C1348 C1349 1.382 . S
C1348 H1374 0.950 . S
C1349 N1346 1.332 . S
C1349 C1348 1.382 . S
C1349 H1360 0.952 . S
C1350 C1347 1.388 . S
C1350 C1351 1.382 . S
C1350 H1375 0.950 . S
C1351 N1346 1.332 . S
C1351 C1350 1.382 . S
C1351 H1361 0.948 . S
N1352 Co1330 2.282 . S
N1352 C1356 1.332 . S
N1352 C1357 1.332 . S
C1353 C1354 1.388 . S
C1353 C1357 1.382 . S
C1353 H1376 0.950 . S
C1354 C1353 1.388 . S
C1354 C1355 1.386 . S
C1355 C1354 1.386 . S
C1355 C1356 1.382 . S
C1355 H1377 0.950 . S
C1356 N1352 1.332 . S
C1356 C1355 1.382 . S
C1356 H1358 0.952 . S
C1357 N1352 1.332 . S
C1357 C1353 1.382 . S
C1357 H1359 0.948 . S
H1358 C1356 0.952 . S
H1359 C1357 0.948 . S
H1360 C1349 0.952 . S
H1361 C1351 0.948 . S
C1362 C1328 1.395 . S
C1362 C1332 1.391 . S
C1363 C1325 1.389 . S
C1363 C1345 1.392 . S
C1364 C1335 1.392 . S
C1364 C1337 1.389 . S
C1365 C1340 1.395 . S
C1365 C1342 1.391 . S
H1366 C1326 0.951 . S
H1367 C1327 0.950 . S
H1368 C1333 0.949 . S
H1369 C1334 0.950 . S
H1370 C1338 0.951 . S
H1371 C1339 0.950 . S
H1372 C1343 0.949 . S
H1373 C1344 0.950 . S
H1374 C1348 0.950 . S
H1375 C1350 0.950 . S
H1376 C1353 0.950 . S
H1377 C1355 0.950 . S
C1378 C1379 1.443 . S
C1378 N1382 1.376 . S
C1378 C1416 1.389 . S
C1379 C1378 1.443 . S
C1379 C1380 1.340 . S
C1379 H1419 0.951 . S
C1380 C1379 1.340 . S
C1380 C1381 1.439 . S
C1380 H1420 0.950 . S
C1381 C1380 1.439 . S
C1381 N1382 1.374 . S
C1381 C1415 1.395 . S
N1382 C1378 1.376 . S
N1382 C1381 1.374 . S
N1382 Co1383 2.008 . S
Co1383 N1382 2.008 . S
Co1383 N1384 1.995 . S
Co1383 N1389 2.008 . S
Co1383 N1394 1.995 . S
Co1383 N1399 2.282 . S
Co1383 N1405 2.282 . S
N1384 Co1383 1.995 . S
N1384 C1385 1.376 . S
N1384 C1388 1.383 . S
C1385 N1384 1.376 . S
C1385 C1386 1.446 . S
C1385 C1415 1.391 . S
C1386 C1385 1.446 . S
C1386 C1387 1.339 . S
C1386 H1421 0.949 . S
C1387 C1386 1.339 . S
C1387 C1388 1.439 . S
C1387 H1422 0.950 . S
C1388 N1384 1.383 . S
C1388 C1387 1.439 . S
C1388 C1417 1.392 . S
N1389 Co1383 2.008 . S
N1389 C1390 1.376 . S
N1389 C1393 1.374 . S
C1390 N1389 1.376 . S
C1390 C1391 1.443 . S
C1390 C1417 1.389 . S
C1391 C1390 1.443 . S
C1391 C1392 1.340 . S
C1391 H1423 0.951 . S
C1392 C1391 1.340 . S
C1392 C1393 1.439 . S
C1392 H1424 0.950 . S
C1393 N1389 1.374 . S
C1393 C1392 1.439 . S
C1393 C1418 1.395 . S
N1394 Co1383 1.995 . S
N1394 C1395 1.376 . S
N1394 C1398 1.383 . S
C1395 N1394 1.376 . S
C1395 C1396 1.446 . S
C1395 C1418 1.391 . S
C1396 C1395 1.446 . S
C1396 C1397 1.339 . S
C1396 H1425 0.949 . S
C1397 C1396 1.339 . S
C1397 C1398 1.439 . S
C1397 H1426 0.950 . S
C1398 N1394 1.383 . S
C1398 C1397 1.439 . S
C1398 C1416 1.392 . S
N1399 Co1383 2.282 . S
N1399 C1402 1.332 . S
N1399 C1404 1.332 . S
C1400 C1401 1.386 . S
C1400 C1403 1.388 . S
C1401 C1400 1.386 . S
C1401 C1402 1.382 . S
C1401 H1427 0.950 . S
C1402 N1399 1.332 . S
C1402 C1401 1.382 . S
C1402 H1413 0.952 . S
C1403 C1400 1.388 . S
C1403 C1404 1.382 . S
C1403 H1428 0.950 . S
C1404 N1399 1.332 . S
C1404 C1403 1.382 . S
C1404 H1414 0.948 . S
N1405 Co1383 2.282 . S
N1405 C1409 1.332 . S
N1405 C1410 1.332 . S
C1406 C1407 1.388 . S
C1406 C1410 1.382 . S
C1406 H1429 0.950 . S
C1407 C1406 1.388 . S
C1407 C1408 1.386 . S
C1408 C1407 1.386 . S
C1408 C1409 1.382 . S
C1408 H1430 0.950 . S
C1409 N1405 1.332 . S
C1409 C1408 1.382 . S
C1409 H1411 0.952 . S
C1410 N1405 1.332 . S
C1410 C1406 1.382 . S
C1410 H1412 0.948 . S
H1411 C1409 0.952 . S
H1412 C1410 0.948 . S
H1413 C1402 0.952 . S
H1414 C1404 0.948 . S
C1415 C1381 1.395 . S
C1415 C1385 1.391 . S
C1416 C1378 1.389 . S
C1416 C1398 1.392 . S
C1417 C1388 1.392 . S
C1417 C1390 1.389 . S
C1418 C1393 1.395 . S
C1418 C1395 1.391 . S
H1419 C1379 0.951 . S
H1420 C1380 0.950 . S
H1421 C1386 0.949 . S
H1422 C1387 0.950 . S
H1423 C1391 0.951 . S
H1424 C1392 0.950 . S
H1425 C1396 0.949 . S
H1426 C1397 0.950 . S
H1427 C1401 0.950 . S
H1428 C1403 0.950 . S
H1429 C1406 0.950 . S
H1430 C1408 0.950 . S
C1431 C1432 1.443 . S
C1431 N1435 1.376 . S
C1431 C1469 1.389 . S
C1432 C1431 1.443 . S
C1432 C1433 1.340 . S
C1432 H1472 0.951 . S
C1433 C1432 1.340 . S
C1433 C1434 1.439 . S
C1433 H1473 0.950 . S
C1434 C1433 1.439 . S
C1434 N1435 1.374 . S
C1434 C1468 1.395 . S
N1435 C1431 1.376 . S
N1435 C1434 1.374 . S
N1435 Co1436 2.008 . S
Co1436 N1435 2.008 . S
Co1436 N1437 1.995 . S
Co1436 N1442 2.008 . S
Co1436 N1447 1.995 . S
Co1436 N1452 2.282 . S
Co1436 N1458 2.282 . S
N1437 Co1436 1.995 . S
N1437 C1438 1.376 . S
N1437 C1441 1.383 . S
C1438 N1437 1.376 . S
C1438 C1439 1.446 . S
C1438 C1468 1.391 . S
C1439 C1438 1.446 . S
C1439 C1440 1.339 . S
C1439 H1474 0.949 . S
C1440 C1439 1.339 . S
C1440 C1441 1.439 . S
C1440 H1475 0.950 . S
C1441 N1437 1.383 . S
C1441 C1440 1.439 . S
C1441 C1470 1.392 . S
N1442 Co1436 2.008 . S
N1442 C1443 1.376 . S
N1442 C1446 1.374 . S
C1443 N1442 1.376 . S
C1443 C1444 1.443 . S
C1443 C1470 1.389 . S
C1444 C1443 1.443 . S
C1444 C1445 1.340 . S
C1444 H1476 0.951 . S
C1445 C1444 1.340 . S
C1445 C1446 1.439 . S
C1445 H1477 0.950 . S
C1446 N1442 1.374 . S
C1446 C1445 1.439 . S
C1446 C1471 1.395 . S
N1447 Co1436 1.995 . S
N1447 C1448 1.376 . S
N1447 C1451 1.383 . S
C1448 N1447 1.376 . S
C1448 C1449 1.446 . S
C1448 C1471 1.391 . S
C1449 C1448 1.446 . S
C1449 C1450 1.339 . S
C1449 H1478 0.949 . S
C1450 C1449 1.339 . S
C1450 C1451 1.439 . S
C1450 H1479 0.950 . S
C1451 N1447 1.383 . S
C1451 C1450 1.439 . S
C1451 C1469 1.392 . S
N1452 Co1436 2.282 . S
N1452 C1455 1.332 . S
N1452 C1457 1.332 . S
C1453 C1454 1.386 . S
C1453 C1456 1.388 . S
C1454 C1453 1.386 . S
C1454 C1455 1.382 . S
C1454 H1480 0.950 . S
C1455 N1452 1.332 . S
C1455 C1454 1.382 . S
C1455 H1466 0.952 . S
C1456 C1453 1.388 . S
C1456 C1457 1.382 . S
C1456 H1481 0.950 . S
C1457 N1452 1.332 . S
C1457 C1456 1.382 . S
C1457 H1467 0.948 . S
N1458 Co1436 2.282 . S
N1458 C1462 1.332 . S
N1458 C1463 1.332 . S
C1459 C1460 1.388 . S
C1459 C1463 1.382 . S
C1459 H1482 0.950 . S
C1460 C1459 1.388 . S
C1460 C1461 1.386 . S
C1461 C1460 1.386 . S
C1461 C1462 1.382 . S
C1461 H1483 0.950 . S
C1462 N1458 1.332 . S
C1462 C1461 1.382 . S
C1462 H1464 0.952 . S
C1463 N1458 1.332 . S
C1463 C1459 1.382 . S
C1463 H1465 0.948 . S
H1464 C1462 0.952 . S
H1465 C1463 0.948 . S
H1466 C1455 0.952 . S
H1467 C1457 0.948 . S
C1468 C1434 1.395 . S
C1468 C1438 1.391 . S
C1469 C1431 1.389 . S
C1469 C1451 1.392 . S
C1470 C1441 1.392 . S
C1470 C1443 1.389 . S
C1471 C1446 1.395 . S
C1471 C1448 1.391 . S
H1472 C1432 0.951 . S
H1473 C1433 0.950 . S
H1474 C1439 0.949 . S
H1475 C1440 0.950 . S
H1476 C1444 0.951 . S
H1477 C1445 0.950 . S
H1478 C1449 0.949 . S
H1479 C1450 0.950 . S
H1480 C1454 0.950 . S
H1481 C1456 0.950 . S
H1482 C1459 0.950 . S
H1483 C1461 0.950 . S
C1484 C1485 1.443 . S
C1484 N1488 1.376 . S
C1484 C1522 1.389 . S
C1485 C1484 1.443 . S
C1485 C1486 1.340 . S
C1485 H1525 0.951 . S
C1486 C1485 1.340 . S
C1486 C1487 1.439 . S
C1486 H1526 0.950 . S
C1487 C1486 1.439 . S
C1487 N1488 1.374 . S
C1487 C1521 1.395 . S
N1488 C1484 1.376 . S
N1488 C1487 1.374 . S
N1488 Co1489 2.008 . S
Co1489 N1488 2.008 . S
Co1489 N1490 1.995 . S
Co1489 N1495 2.008 . S
Co1489 N1500 1.995 . S
Co1489 N1505 2.282 . S
Co1489 N1511 2.282 . S
N1490 Co1489 1.995 . S
N1490 C1491 1.376 . S
N1490 C1494 1.383 . S
C1491 N1490 1.376 . S
C1491 C1492 1.446 . S
C1491 C1521 1.391 . S
C1492 C1491 1.446 . S
C1492 C1493 1.339 . S
C1492 H1527 0.949 . S
C1493 C1492 1.339 . S
C1493 C1494 1.439 . S
C1493 H1528 0.950 . S
C1494 N1490 1.383 . S
C1494 C1493 1.439 . S
C1494 C1523 1.392 . S
N1495 Co1489 2.008 . S
N1495 C1496 1.376 . S
N1495 C1499 1.374 . S
C1496 N1495 1.376 . S
C1496 C1497 1.443 . S
C1496 C1523 1.389 . S
C1497 C1496 1.443 . S
C1497 C1498 1.340 . S
C1497 H1529 0.951 . S
C1498 C1497 1.340 . S
C1498 C1499 1.439 . S
C1498 H1530 0.950 . S
C1499 N1495 1.374 . S
C1499 C1498 1.439 . S
C1499 C1524 1.395 . S
N1500 Co1489 1.995 . S
N1500 C1501 1.376 . S
N1500 C1504 1.383 . S
C1501 N1500 1.376 . S
C1501 C1502 1.446 . S
C1501 C1524 1.391 . S
C1502 C1501 1.446 . S
C1502 C1503 1.339 . S
C1502 H1531 0.949 . S
C1503 C1502 1.339 . S
C1503 C1504 1.439 . S
C1503 H1532 0.950 . S
C1504 N1500 1.383 . S
C1504 C1503 1.439 . S
C1504 C1522 1.392 . S
N1505 Co1489 2.282 . S
N1505 C1508 1.332 . S
N1505 C1510 1.332 . S
C1506 C1507 1.386 . S
C1506 C1509 1.388 . S
C1507 C1506 1.386 . S
C1507 C1508 1.382 . S
C1507 H1533 0.950 . S
C1508 N1505 1.332 . S
C1508 C1507 1.382 . S
C1508 H1519 0.952 . S
C1509 C1506 1.388 . S
C1509 C1510 1.382 . S
C1509 H1534 0.950 . S
C1510 N1505 1.332 . S
C1510 C1509 1.382 . S
C1510 H1520 0.948 . S
N1511 Co1489 2.282 . S
N1511 C1515 1.332 . S
N1511 C1516 1.332 . S
C1512 C1513 1.388 . S
C1512 C1516 1.382 . S
C1512 H1535 0.950 . S
C1513 C1512 1.388 . S
C1513 C1514 1.386 . S
C1514 C1513 1.386 . S
C1514 C1515 1.382 . S
C1514 H1536 0.950 . S
C1515 N1511 1.332 . S
C1515 C1514 1.382 . S
C1515 H1517 0.952 . S
C1516 N1511 1.332 . S
C1516 C1512 1.382 . S
C1516 H1518 0.948 . S
H1517 C1515 0.952 . S
H1518 C1516 0.948 . S
H1519 C1508 0.952 . S
H1520 C1510 0.948 . S
C1521 C1487 1.395 . S
C1521 C1491 1.391 . S
C1522 C1484 1.389 . S
C1522 C1504 1.392 . S
C1523 C1494 1.392 . S
C1523 C1496 1.389 . S
C1524 C1499 1.395 . S
C1524 C1501 1.391 . S
H1525 C1485 0.951 . S
H1526 C1486 0.950 . S
H1527 C1492 0.949 . S
H1528 C1493 0.950 . S
H1529 C1497 0.951 . S
H1530 C1498 0.950 . S
H1531 C1502 0.949 . S
H1532 C1503 0.950 . S
H1533 C1507 0.950 . S
H1534 C1509 0.950 . S
H1535 C1512 0.950 . S
H1536 C1514 0.950 . S
C1537 C1538 1.443 . S
C1537 N1541 1.376 . S
C1537 C1575 1.389 . S
C1538 C1537 1.443 . S
C1538 C1539 1.340 . S
C1538 H1578 0.951 . S
C1539 C1538 1.340 . S
C1539 C1540 1.439 . S
C1539 H1579 0.950 . S
C1540 C1539 1.439 . S
C1540 N1541 1.374 . S
C1540 C1574 1.395 . S
N1541 C1537 1.376 . S
N1541 C1540 1.374 . S
N1541 Co1542 2.008 . S
Co1542 N1541 2.008 . S
Co1542 N1543 1.995 . S
Co1542 N1548 2.008 . S
Co1542 N1553 1.995 . S
Co1542 N1558 2.282 . S
Co1542 N1564 2.282 . S
N1543 Co1542 1.995 . S
N1543 C1544 1.376 . S
N1543 C1547 1.383 . S
C1544 N1543 1.376 . S
C1544 C1545 1.446 . S
C1544 C1574 1.391 . S
C1545 C1544 1.446 . S
C1545 C1546 1.339 . S
C1545 H1580 0.949 . S
C1546 C1545 1.339 . S
C1546 C1547 1.439 . S
C1546 H1581 0.950 . S
C1547 N1543 1.383 . S
C1547 C1546 1.439 . S
C1547 C1576 1.392 . S
N1548 Co1542 2.008 . S
N1548 C1549 1.376 . S
N1548 C1552 1.374 . S
C1549 N1548 1.376 . S
C1549 C1550 1.443 . S
C1549 C1576 1.389 . S
C1550 C1549 1.443 . S
C1550 C1551 1.340 . S
C1550 H1582 0.951 . S
C1551 C1550 1.340 . S
C1551 C1552 1.439 . S
C1551 H1583 0.950 . S
C1552 N1548 1.374 . S
C1552 C1551 1.439 . S
C1552 C1577 1.395 . S
N1553 Co1542 1.995 . S
N1553 C1554 1.376 . S
N1553 C1557 1.383 . S
C1554 N1553 1.376 . S
C1554 C1555 1.446 . S
C1554 C1577 1.391 . S
C1555 C1554 1.446 . S
C1555 C1556 1.339 . S
C1555 H1584 0.949 . S
C1556 C1555 1.339 . S
C1556 C1557 1.439 . S
C1556 H1585 0.950 . S
C1557 N1553 1.383 . S
C1557 C1556 1.439 . S
C1557 C1575 1.392 . S
N1558 Co1542 2.282 . S
N1558 C1561 1.332 . S
N1558 C1563 1.332 . S
C1559 C1560 1.386 . S
C1559 C1562 1.388 . S
C1560 C1559 1.386 . S
C1560 C1561 1.382 . S
C1560 H1586 0.950 . S
C1561 N1558 1.332 . S
C1561 C1560 1.382 . S
C1561 H1572 0.952 . S
C1562 C1559 1.388 . S
C1562 C1563 1.382 . S
C1562 H1587 0.950 . S
C1563 N1558 1.332 . S
C1563 C1562 1.382 . S
C1563 H1573 0.948 . S
N1564 Co1542 2.282 . S
N1564 C1568 1.332 . S
N1564 C1569 1.332 . S
C1565 C1566 1.388 . S
C1565 C1569 1.382 . S
C1565 H1588 0.950 . S
C1566 C1565 1.388 . S
C1566 C1567 1.386 . S
C1567 C1566 1.386 . S
C1567 C1568 1.382 . S
C1567 H1589 0.950 . S
C1568 N1564 1.332 . S
C1568 C1567 1.382 . S
C1568 H1570 0.952 . S
C1569 N1564 1.332 . S
C1569 C1565 1.382 . S
C1569 H1571 0.948 . S
H1570 C1568 0.952 . S
H1571 C1569 0.948 . S
H1572 C1561 0.952 . S
H1573 C1563 0.948 . S
C1574 C1540 1.395 . S
C1574 C1544 1.391 . S
C1575 C1537 1.389 . S
C1575 C1557 1.392 . S
C1576 C1547 1.392 . S
C1576 C1549 1.389 . S
C1577 C1552 1.395 . S
C1577 C1554 1.391 . S
H1578 C1538 0.951 . S
H1579 C1539 0.950 . S
H1580 C1545 0.949 . S
H1581 C1546 0.950 . S
H1582 C1550 0.951 . S
H1583 C1551 0.950 . S
H1584 C1555 0.949 . S
H1585 C1556 0.950 . S
H1586 C1560 0.950 . S
H1587 C1562 0.950 . S
H1588 C1565 0.950 . S
H1589 C1567 0.950 . S
C1590 C1591 1.443 . S
C1590 N1594 1.376 . S
C1590 C1628 1.389 . S
C1591 C1590 1.443 . S
C1591 C1592 1.340 . S
C1591 H1631 0.951 . S
C1592 C1591 1.340 . S
C1592 C1593 1.439 . S
C1592 H1632 0.950 . S
C1593 C1592 1.439 . S
C1593 N1594 1.374 . S
C1593 C1627 1.395 . S
N1594 C1590 1.376 . S
N1594 C1593 1.374 . S
N1594 Co1595 2.008 . S
Co1595 N1594 2.008 . S
Co1595 N1596 1.995 . S
Co1595 N1601 2.008 . S
Co1595 N1606 1.995 . S
Co1595 N1611 2.282 . S
Co1595 N1617 2.282 . S
N1596 Co1595 1.995 . S
N1596 C1597 1.376 . S
N1596 C1600 1.383 . S
C1597 N1596 1.376 . S
C1597 C1598 1.446 . S
C1597 C1627 1.391 . S
C1598 C1597 1.446 . S
C1598 C1599 1.339 . S
C1598 H1633 0.949 . S
C1599 C1598 1.339 . S
C1599 C1600 1.439 . S
C1599 H1634 0.950 . S
C1600 N1596 1.383 . S
C1600 C1599 1.439 . S
C1600 C1629 1.392 . S
N1601 Co1595 2.008 . S
N1601 C1602 1.376 . S
N1601 C1605 1.374 . S
C1602 N1601 1.376 . S
C1602 C1603 1.443 . S
C1602 C1629 1.389 . S
C1603 C1602 1.443 . S
C1603 C1604 1.340 . S
C1603 H1635 0.951 . S
C1604 C1603 1.340 . S
C1604 C1605 1.439 . S
C1604 H1636 0.950 . S
C1605 N1601 1.374 . S
C1605 C1604 1.439 . S
C1605 C1630 1.395 . S
N1606 Co1595 1.995 . S
N1606 C1607 1.376 . S
N1606 C1610 1.383 . S
C1607 N1606 1.376 . S
C1607 C1608 1.446 . S
C1607 C1630 1.391 . S
C1608 C1607 1.446 . S
C1608 C1609 1.339 . S
C1608 H1637 0.949 . S
C1609 C1608 1.339 . S
C1609 C1610 1.439 . S
C1609 H1638 0.950 . S
C1610 N1606 1.383 . S
C1610 C1609 1.439 . S
C1610 C1628 1.392 . S
N1611 Co1595 2.282 . S
N1611 C1614 1.332 . S
N1611 C1616 1.332 . S
C1612 C1613 1.386 . S
C1612 C1615 1.388 . S
C1613 C1612 1.386 . S
C1613 C1614 1.382 . S
C1613 H1639 0.950 . S
C1614 N1611 1.332 . S
C1614 C1613 1.382 . S
C1614 H1625 0.952 . S
C1615 C1612 1.388 . S
C1615 C1616 1.382 . S
C1615 H1640 0.950 . S
C1616 N1611 1.332 . S
C1616 C1615 1.382 . S
C1616 H1626 0.948 . S
N1617 Co1595 2.282 . S
N1617 C1621 1.332 . S
N1617 C1622 1.332 . S
C1618 C1619 1.388 . S
C1618 C1622 1.382 . S
C1618 H1641 0.950 . S
C1619 C1618 1.388 . S
C1619 C1620 1.386 . S
C1620 C1619 1.386 . S
C1620 C1621 1.382 . S
C1620 H1642 0.950 . S
C1621 N1617 1.332 . S
C1621 C1620 1.382 . S
C1621 H1623 0.952 . S
C1622 N1617 1.332 . S
C1622 C1618 1.382 . S
C1622 H1624 0.948 . S
H1623 C1621 0.952 . S
H1624 C1622 0.948 . S
H1625 C1614 0.952 . S
H1626 C1616 0.948 . S
C1627 C1593 1.395 . S
C1627 C1597 1.391 . S
C1628 C1590 1.389 . S
C1628 C1610 1.392 . S
C1629 C1600 1.392 . S
C1629 C1602 1.389 . S
C1630 C1605 1.395 . S
C1630 C1607 1.391 . S
H1631 C1591 0.951 . S
H1632 C1592 0.950 . S
H1633 C1598 0.949 . S
H1634 C1599 0.950 . S
H1635 C1603 0.951 . S
H1636 C1604 0.950 . S
H1637 C1608 0.949 . S
H1638 C1609 0.950 . S
H1639 C1613 0.950 . S
H1640 C1615 0.950 . S
H1641 C1618 0.950 . S
H1642 C1620 0.950 . S
C1643 C1644 1.443 . S
C1643 N1647 1.376 . S
C1643 C1681 1.389 . S
C1644 C1643 1.443 . S
C1644 C1645 1.340 . S
C1644 H1684 0.951 . S
C1645 C1644 1.340 . S
C1645 C1646 1.439 . S
C1645 H1685 0.950 . S
C1646 C1645 1.439 . S
C1646 N1647 1.374 . S
C1646 C1680 1.395 . S
N1647 C1643 1.376 . S
N1647 C1646 1.374 . S
N1647 Co1648 2.008 . S
Co1648 N1647 2.008 . S
Co1648 N1649 1.995 . S
Co1648 N1654 2.008 . S
Co1648 N1659 1.995 . S
Co1648 N1664 2.282 . S
Co1648 N1670 2.282 . S
N1649 Co1648 1.995 . S
N1649 C1650 1.376 . S
N1649 C1653 1.383 . S
C1650 N1649 1.376 . S
C1650 C1651 1.446 . S
C1650 C1680 1.391 . S
C1651 C1650 1.446 . S
C1651 C1652 1.339 . S
C1651 H1686 0.949 . S
C1652 C1651 1.339 . S
C1652 C1653 1.439 . S
C1652 H1687 0.950 . S
C1653 N1649 1.383 . S
C1653 C1652 1.439 . S
C1653 C1682 1.392 . S
N1654 Co1648 2.008 . S
N1654 C1655 1.376 . S
N1654 C1658 1.374 . S
C1655 N1654 1.376 . S
C1655 C1656 1.443 . S
C1655 C1682 1.389 . S
C1656 C1655 1.443 . S
C1656 C1657 1.340 . S
C1656 H1688 0.951 . S
C1657 C1656 1.340 . S
C1657 C1658 1.439 . S
C1657 H1689 0.950 . S
C1658 N1654 1.374 . S
C1658 C1657 1.439 . S
C1658 C1683 1.395 . S
N1659 Co1648 1.995 . S
N1659 C1660 1.376 . S
N1659 C1663 1.383 . S
C1660 N1659 1.376 . S
C1660 C1661 1.446 . S
C1660 C1683 1.391 . S
C1661 C1660 1.446 . S
C1661 C1662 1.339 . S
C1661 H1690 0.949 . S
C1662 C1661 1.339 . S
C1662 C1663 1.439 . S
C1662 H1691 0.950 . S
C1663 N1659 1.383 . S
C1663 C1662 1.439 . S
C1663 C1681 1.392 . S
N1664 Co1648 2.282 . S
N1664 C1667 1.332 . S
N1664 C1669 1.332 . S
C1665 C1666 1.386 . S
C1665 C1668 1.388 . S
C1666 C1665 1.386 . S
C1666 C1667 1.382 . S
C1666 H1692 0.950 . S
C1667 N1664 1.332 . S
C1667 C1666 1.382 . S
C1667 H1678 0.952 . S
C1668 C1665 1.388 . S
C1668 C1669 1.382 . S
C1668 H1693 0.950 . S
C1669 N1664 1.332 . S
C1669 C1668 1.382 . S
C1669 H1679 0.948 . S
N1670 Co1648 2.282 . S
N1670 C1674 1.332 . S
N1670 C1675 1.332 . S
C1671 C1672 1.388 . S
C1671 C1675 1.382 . S
C1671 H1694 0.950 . S
C1672 C1671 1.388 . S
C1672 C1673 1.386 . S
C1673 C1672 1.386 . S
C1673 C1674 1.382 . S
C1673 H1695 0.950 . S
C1674 N1670 1.332 . S
C1674 C1673 1.382 . S
C1674 H1676 0.952 . S
C1675 N1670 1.332 . S
C1675 C1671 1.382 . S
C1675 H1677 0.948 . S
H1676 C1674 0.952 . S
H1677 C1675 0.948 . S
H1678 C1667 0.952 . S
H1679 C1669 0.948 . S
C1680 C1646 1.395 . S
C1680 C1650 1.391 . S
C1681 C1643 1.389 . S
C1681 C1663 1.392 . S
C1682 C1653 1.392 . S
C1682 C1655 1.389 . S
C1683 C1658 1.395 . S
C1683 C1660 1.391 . S
H1684 C1644 0.951 . S
H1685 C1645 0.950 . S
H1686 C1651 0.949 . S
H1687 C1652 0.950 . S
H1688 C1656 0.951 . S
H1689 C1657 0.950 . S
H1690 C1661 0.949 . S
H1691 C1662 0.950 . S
H1692 C1666 0.950 . S
H1693 C1668 0.950 . S
H1694 C1671 0.950 . S
H1695 C1673 0.950 . S
C1696 C1697 1.443 . S
C1696 N1700 1.376 . S
C1696 C1734 1.389 . S
C1697 C1696 1.443 . S
C1697 C1698 1.340 . S
C1697 H1737 0.951 . S
C1698 C1697 1.340 . S
C1698 C1699 1.439 . S
C1698 H1738 0.950 . S
C1699 C1698 1.439 . S
C1699 N1700 1.374 . S
C1699 C1733 1.395 . S
N1700 C1696 1.376 . S
N1700 C1699 1.374 . S
N1700 Co1701 2.008 . S
Co1701 N1700 2.008 . S
Co1701 N1702 1.995 . S
Co1701 N1707 2.008 . S
Co1701 N1712 1.995 . S
Co1701 N1717 2.282 . S
Co1701 N1723 2.282 . S
N1702 Co1701 1.995 . S
N1702 C1703 1.376 . S
N1702 C1706 1.383 . S
C1703 N1702 1.376 . S
C1703 C1704 1.446 . S
C1703 C1733 1.391 . S
C1704 C1703 1.446 . S
C1704 C1705 1.339 . S
C1704 H1739 0.949 . S
C1705 C1704 1.339 . S
C1705 C1706 1.439 . S
C1705 H1740 0.950 . S
C1706 N1702 1.383 . S
C1706 C1705 1.439 . S
C1706 C1735 1.392 . S
N1707 Co1701 2.008 . S
N1707 C1708 1.376 . S
N1707 C1711 1.374 . S
C1708 N1707 1.376 . S
C1708 C1709 1.443 . S
C1708 C1735 1.389 . S
C1709 C1708 1.443 . S
C1709 C1710 1.340 . S
C1709 H1741 0.951 . S
C1710 C1709 1.340 . S
C1710 C1711 1.439 . S
C1710 H1742 0.950 . S
C1711 N1707 1.374 . S
C1711 C1710 1.439 . S
C1711 C1736 1.395 . S
N1712 Co1701 1.995 . S
N1712 C1713 1.376 . S
N1712 C1716 1.383 . S
C1713 N1712 1.376 . S
C1713 C1714 1.446 . S
C1713 C1736 1.391 . S
C1714 C1713 1.446 . S
C1714 C1715 1.339 . S
C1714 H1743 0.949 . S
C1715 C1714 1.339 . S
C1715 C1716 1.439 . S
C1715 H1744 0.950 . S
C1716 N1712 1.383 . S
C1716 C1715 1.439 . S
C1716 C1734 1.392 . S
N1717 Co1701 2.282 . S
N1717 C1720 1.332 . S
N1717 C1722 1.332 . S
C1718 C1719 1.386 . S
C1718 C1721 1.388 . S
C1719 C1718 1.386 . S
C1719 C1720 1.382 . S
C1719 H1745 0.950 . S
C1720 N1717 1.332 . S
C1720 C1719 1.382 . S
C1720 H1731 0.952 . S
C1721 C1718 1.388 . S
C1721 C1722 1.382 . S
C1721 H1746 0.950 . S
C1722 N1717 1.332 . S
C1722 C1721 1.382 . S
C1722 H1732 0.948 . S
N1723 Co1701 2.282 . S
N1723 C1727 1.332 . S
N1723 C1728 1.332 . S
C1724 C1725 1.388 . S
C1724 C1728 1.382 . S
C1724 H1747 0.950 . S
C1725 C1724 1.388 . S
C1725 C1726 1.386 . S
C1726 C1725 1.386 . S
C1726 C1727 1.382 . S
C1726 H1748 0.950 . S
C1727 N1723 1.332 . S
C1727 C1726 1.382 . S
C1727 H1729 0.952 . S
C1728 N1723 1.332 . S
C1728 C1724 1.382 . S
C1728 H1730 0.948 . S
H1729 C1727 0.952 . S
H1730 C1728 0.948 . S
H1731 C1720 0.952 . S
H1732 C1722 0.948 . S
C1733 C1699 1.395 . S
C1733 C1703 1.391 . S
C1734 C1696 1.389 . S
C1734 C1716 1.392 . S
C1735 C1706 1.392 . S
C1735 C1708 1.389 . S
C1736 C1711 1.395 . S
C1736 C1713 1.391 . S
H1737 C1697 0.951 . S
H1738 C1698 0.950 . S
H1739 C1704 0.949 . S
H1740 C1705 0.950 . S
H1741 C1709 0.951 . S
H1742 C1710 0.950 . S
H1743 C1714 0.949 . S
H1744 C1715 0.950 . S
H1745 C1719 0.950 . S
H1746 C1721 0.950 . S
H1747 C1724 0.950 . S
H1748 C1726 0.950 . S
C1749 C1750 1.443 . S
C1749 N1753 1.376 . S
C1749 C1787 1.389 . S
C1750 C1749 1.443 . S
C1750 C1751 1.340 . S
C1750 H1790 0.951 . S
C1751 C1750 1.340 . S
C1751 C1752 1.439 . S
C1751 H1791 0.950 . S
C1752 C1751 1.439 . S
C1752 N1753 1.374 . S
C1752 C1786 1.395 . S
N1753 C1749 1.376 . S
N1753 C1752 1.374 . S
N1753 Co1754 2.008 . S
Co1754 N1753 2.008 . S
Co1754 N1755 1.995 . S
Co1754 N1760 2.008 . S
Co1754 N1765 1.995 . S
Co1754 N1770 2.282 . S
Co1754 N1776 2.282 . S
N1755 Co1754 1.995 . S
N1755 C1756 1.376 . S
N1755 C1759 1.383 . S
C1756 N1755 1.376 . S
C1756 C1757 1.446 . S
C1756 C1786 1.391 . S
C1757 C1756 1.446 . S
C1757 C1758 1.339 . S
C1757 H1792 0.949 . S
C1758 C1757 1.339 . S
C1758 C1759 1.439 . S
C1758 H1793 0.950 . S
C1759 N1755 1.383 . S
C1759 C1758 1.439 . S
C1759 C1788 1.392 . S
N1760 Co1754 2.008 . S
N1760 C1761 1.376 . S
N1760 C1764 1.374 . S
C1761 N1760 1.376 . S
C1761 C1762 1.443 . S
C1761 C1788 1.389 . S
C1762 C1761 1.443 . S
C1762 C1763 1.340 . S
C1762 H1794 0.951 . S
C1763 C1762 1.340 . S
C1763 C1764 1.439 . S
C1763 H1795 0.950 . S
C1764 N1760 1.374 . S
C1764 C1763 1.439 . S
C1764 C1789 1.395 . S
N1765 Co1754 1.995 . S
N1765 C1766 1.376 . S
N1765 C1769 1.383 . S
C1766 N1765 1.376 . S
C1766 C1767 1.446 . S
C1766 C1789 1.391 . S
C1767 C1766 1.446 . S
C1767 C1768 1.339 . S
C1767 H1796 0.949 . S
C1768 C1767 1.339 . S
C1768 C1769 1.439 . S
C1768 H1797 0.950 . S
C1769 N1765 1.383 . S
C1769 C1768 1.439 . S
C1769 C1787 1.392 . S
N1770 Co1754 2.282 . S
N1770 C1773 1.332 . S
N1770 C1775 1.332 . S
C1771 C1772 1.386 . S
C1771 C1774 1.388 . S
C1772 C1771 1.386 . S
C1772 C1773 1.382 . S
C1772 H1798 0.950 . S
C1773 N1770 1.332 . S
C1773 C1772 1.382 . S
C1773 H1784 0.952 . S
C1774 C1771 1.388 . S
C1774 C1775 1.382 . S
C1774 H1799 0.950 . S
C1775 N1770 1.332 . S
C1775 C1774 1.382 . S
C1775 H1785 0.948 . S
N1776 Co1754 2.282 . S
N1776 C1780 1.332 . S
N1776 C1781 1.332 . S
C1777 C1778 1.388 . S
C1777 C1781 1.382 . S
C1777 H1800 0.950 . S
C1778 C1777 1.388 . S
C1778 C1779 1.386 . S
C1779 C1778 1.386 . S
C1779 C1780 1.382 . S
C1779 H1801 0.950 . S
C1780 N1776 1.332 . S
C1780 C1779 1.382 . S
C1780 H1782 0.952 . S
C1781 N1776 1.332 . S
C1781 C1777 1.382 . S
C1781 H1783 0.948 . S
H1782 C1780 0.952 . S
H1783 C1781 0.948 . S
H1784 C1773 0.952 . S
H1785 C1775 0.948 . S
C1786 C1752 1.395 . S
C1786 C1756 1.391 . S
C1787 C1749 1.389 . S
C1787 C1769 1.392 . S
C1788 C1759 1.392 . S
C1788 C1761 1.389 . S
C1789 C1764 1.395 . S
C1789 C1766 1.391 . S
H1790 C1750 0.951 . S
H1791 C1751 0.950 . S
H1792 C1757 0.949 . S
H1793 C1758 0.950 . S
H1794 C1762 0.951 . S
H1795 C1763 0.950 . S
H1796 C1767 0.949 . S
H1797 C1768 0.950 . S
H1798 C1772 0.950 . S
H1799 C1774 0.950 . S
H1800 C1777 0.950 . S
H1801 C1779 0.950 . S
C1802 C1803 1.443 . S
C1802 N1806 1.376 . S
C1802 C1840 1.389 . S
C1803 C1802 1.443 . S
C1803 C1804 1.340 . S
C1803 H1843 0.951 . S
C1804 C1803 1.340 . S
C1804 C1805 1.439 . S
C1804 H1844 0.950 . S
C1805 C1804 1.439 . S
C1805 N1806 1.374 . S
C1805 C1839 1.395 . S
N1806 C1802 1.376 . S
N1806 C1805 1.374 . S
N1806 Co1807 2.008 . S
Co1807 N1806 2.008 . S
Co1807 N1808 1.995 . S
Co1807 N1813 2.008 . S
Co1807 N1818 1.995 . S
Co1807 N1823 2.282 . S
Co1807 N1829 2.282 . S
N1808 Co1807 1.995 . S
N1808 C1809 1.376 . S
N1808 C1812 1.383 . S
C1809 N1808 1.376 . S
C1809 C1810 1.446 . S
C1809 C1839 1.391 . S
C1810 C1809 1.446 . S
C1810 C1811 1.339 . S
C1810 H1845 0.949 . S
C1811 C1810 1.339 . S
C1811 C1812 1.439 . S
C1811 H1846 0.950 . S
C1812 N1808 1.383 . S
C1812 C1811 1.439 . S
C1812 C1841 1.392 . S
N1813 Co1807 2.008 . S
N1813 C1814 1.376 . S
N1813 C1817 1.374 . S
C1814 N1813 1.376 . S
C1814 C1815 1.443 . S
C1814 C1841 1.389 . S
C1815 C1814 1.443 . S
C1815 C1816 1.340 . S
C1815 H1847 0.951 . S
C1816 C1815 1.340 . S
C1816 C1817 1.439 . S
C1816 H1848 0.950 . S
C1817 N1813 1.374 . S
C1817 C1816 1.439 . S
C1817 C1842 1.395 . S
N1818 Co1807 1.995 . S
N1818 C1819 1.376 . S
N1818 C1822 1.383 . S
C1819 N1818 1.376 . S
C1819 C1820 1.446 . S
C1819 C1842 1.391 . S
C1820 C1819 1.446 . S
C1820 C1821 1.339 . S
C1820 H1849 0.949 . S
C1821 C1820 1.339 . S
C1821 C1822 1.439 . S
C1821 H1850 0.950 . S
C1822 N1818 1.383 . S
C1822 C1821 1.439 . S
C1822 C1840 1.392 . S
N1823 Co1807 2.282 . S
N1823 C1826 1.332 . S
N1823 C1828 1.332 . S
C1824 C1825 1.386 . S
C1824 C1827 1.388 . S
C1825 C1824 1.386 . S
C1825 C1826 1.382 . S
C1825 H1851 0.950 . S
C1826 N1823 1.332 . S
C1826 C1825 1.382 . S
C1826 H1837 0.952 . S
C1827 C1824 1.388 . S
C1827 C1828 1.382 . S
C1827 H1852 0.950 . S
C1828 N1823 1.332 . S
C1828 C1827 1.382 . S
C1828 H1838 0.948 . S
N1829 Co1807 2.282 . S
N1829 C1833 1.332 . S
N1829 C1834 1.332 . S
C1830 C1831 1.388 . S
C1830 C1834 1.382 . S
C1830 H1853 0.950 . S
C1831 C1830 1.388 . S
C1831 C1832 1.386 . S
C1832 C1831 1.386 . S
C1832 C1833 1.382 . S
C1832 H1854 0.950 . S
C1833 N1829 1.332 . S
C1833 C1832 1.382 . S
C1833 H1835 0.952 . S
C1834 N1829 1.332 . S
C1834 C1830 1.382 . S
C1834 H1836 0.948 . S
H1835 C1833 0.952 . S
H1836 C1834 0.948 . S
H1837 C1826 0.952 . S
H1838 C1828 0.948 . S
C1839 C1805 1.395 . S
C1839 C1809 1.391 . S
C1840 C1802 1.389 . S
C1840 C1822 1.392 . S
C1841 C1812 1.392 . S
C1841 C1814 1.389 . S
C1842 C1817 1.395 . S
C1842 C1819 1.391 . S
H1843 C1803 0.951 . S
H1844 C1804 0.950 . S
H1845 C1810 0.949 . S
H1846 C1811 0.950 . S
H1847 C1815 0.951 . S
H1848 C1816 0.950 . S
H1849 C1820 0.949 . S
H1850 C1821 0.950 . S
H1851 C1825 0.950 . S
H1852 C1827 0.950 . S
H1853 C1830 0.950 . S
H1854 C1832 0.950 . S
C1855 C1856 1.443 . S
C1855 N1859 1.376 . S
C1855 C1893 1.389 . S
C1856 C1855 1.443 . S
C1856 C1857 1.340 . S
C1856 H1896 0.951 . S
C1857 C1856 1.340 . S
C1857 C1858 1.439 . S
C1857 H1897 0.950 . S
C1858 C1857 1.439 . S
C1858 N1859 1.374 . S
C1858 C1892 1.395 . S
N1859 C1855 1.376 . S
N1859 C1858 1.374 . S
N1859 Co1860 2.008 . S
Co1860 N1859 2.008 . S
Co1860 N1861 1.995 . S
Co1860 N1866 2.008 . S
Co1860 N1871 1.995 . S
Co1860 N1876 2.282 . S
Co1860 N1882 2.282 . S
N1861 Co1860 1.995 . S
N1861 C1862 1.376 . S
N1861 C1865 1.383 . S
C1862 N1861 1.376 . S
C1862 C1863 1.446 . S
C1862 C1892 1.391 . S
C1863 C1862 1.446 . S
C1863 C1864 1.339 . S
C1863 H1898 0.949 . S
C1864 C1863 1.339 . S
C1864 C1865 1.439 . S
C1864 H1899 0.950 . S
C1865 N1861 1.383 . S
C1865 C1864 1.439 . S
C1865 C1894 1.392 . S
N1866 Co1860 2.008 . S
N1866 C1867 1.376 . S
N1866 C1870 1.374 . S
C1867 N1866 1.376 . S
C1867 C1868 1.443 . S
C1867 C1894 1.389 . S
C1868 C1867 1.443 . S
C1868 C1869 1.340 . S
C1868 H1900 0.951 . S
C1869 C1868 1.340 . S
C1869 C1870 1.439 . S
C1869 H1901 0.950 . S
C1870 N1866 1.374 . S
C1870 C1869 1.439 . S
C1870 C1895 1.395 . S
N1871 Co1860 1.995 . S
N1871 C1872 1.376 . S
N1871 C1875 1.383 . S
C1872 N1871 1.376 . S
C1872 C1873 1.446 . S
C1872 C1895 1.391 . S
C1873 C1872 1.446 . S
C1873 C1874 1.339 . S
C1873 H1902 0.949 . S
C1874 C1873 1.339 . S
C1874 C1875 1.439 . S
C1874 H1903 0.950 . S
C1875 N1871 1.383 . S
C1875 C1874 1.439 . S
C1875 C1893 1.392 . S
N1876 Co1860 2.282 . S
N1876 C1879 1.332 . S
N1876 C1881 1.332 . S
C1877 C1878 1.386 . S
C1877 C1880 1.388 . S
C1878 C1877 1.386 . S
C1878 C1879 1.382 . S
C1878 H1904 0.950 . S
C1879 N1876 1.332 . S
C1879 C1878 1.382 . S
C1879 H1890 0.952 . S
C1880 C1877 1.388 . S
C1880 C1881 1.382 . S
C1880 H1905 0.950 . S
C1881 N1876 1.332 . S
C1881 C1880 1.382 . S
C1881 H1891 0.948 . S
N1882 Co1860 2.282 . S
N1882 C1886 1.332 . S
N1882 C1887 1.332 . S
C1883 C1884 1.388 . S
C1883 C1887 1.382 . S
C1883 H1906 0.950 . S
C1884 C1883 1.388 . S
C1884 C1885 1.386 . S
C1885 C1884 1.386 . S
C1885 C1886 1.382 . S
C1885 H1907 0.950 . S
C1886 N1882 1.332 . S
C1886 C1885 1.382 . S
C1886 H1888 0.952 . S
C1887 N1882 1.332 . S
C1887 C1883 1.382 . S
C1887 H1889 0.948 . S
H1888 C1886 0.952 . S
H1889 C1887 0.948 . S
H1890 C1879 0.952 . S
H1891 C1881 0.948 . S
C1892 C1858 1.395 . S
C1892 C1862 1.391 . S
C1893 C1855 1.389 . S
C1893 C1875 1.392 . S
C1894 C1865 1.392 . S
C1894 C1867 1.389 . S
C1895 C1870 1.395 . S
C1895 C1872 1.391 . S
H1896 C1856 0.951 . S
H1897 C1857 0.950 . S
H1898 C1863 0.949 . S
H1899 C1864 0.950 . S
H1900 C1868 0.951 . S
H1901 C1869 0.950 . S
H1902 C1873 0.949 . S
H1903 C1874 0.950 . S
H1904 C1878 0.950 . S
H1905 C1880 0.950 . S
H1906 C1883 0.950 . S
H1907 C1885 0.950 . S
C1908 C1909 1.349 . S
C1908 C1910 1.327 . S
C1908 H1933 0.950 . S
C1909 C1908 1.349 . S
C1909 C1925 1.349 1_556 S
C1910 C1908 1.327 . S
C1910 C1929 1.429 . S
C1910 H1934 0.950 . S
C1911 C1928 1.574 1_655 S
C1911 C1930 1.368 1_554 S
C1911 H1935 0.949 . S
H1912 C1916 0.949 . S
C1913 C1914 1.349 . S
C1913 C1915 1.327 . S
C1913 H1936 0.950 . S
C1914 C1913 1.349 . S
C1914 C1926 1.349 1_554 S
C1915 C1913 1.327 . S
C1915 C1931 1.429 . S
C1915 H1937 0.950 . S
C1916 H1912 0.949 . S
C1916 C1924 1.574 1_455 S
C1916 C1932 1.368 1_556 S
H1917 C1925 0.950 . S
H1918 C1923 0.950 . S
H1919 C1924 0.949 . S
H1920 C1926 0.950 . S
H1921 C1927 0.950 . S
H1922 C1928 0.949 . S
C1923 H1918 0.950 . S
C1923 C1925 1.327 . S
C1923 C1929 1.429 1_554 S
C1924 C1916 1.574 1_655 S
C1924 H1919 0.949 . S
C1924 C1930 1.368 . S
C1925 C1909 1.349 1_554 S
C1925 H1917 0.950 . S
C1925 C1923 1.327 . S
C1926 C1914 1.349 1_556 S
C1926 H1920 0.950 . S
C1926 C1927 1.327 . S
C1927 H1921 0.950 . S
C1927 C1926 1.327 . S
C1927 C1931 1.429 1_556 S
C1928 C1911 1.574 1_455 S
C1928 H1922 0.949 . S
C1928 C1932 1.368 . S
C1929 C1910 1.429 . S
C1929 C1923 1.429 1_556 S
C1929 C1930 1.523 . S
C1930 C1911 1.368 1_556 S
C1930 C1924 1.368 . S
C1930 C1929 1.523 . S
C1931 C1915 1.429 . S
C1931 C1927 1.429 1_554 S
C1931 C1932 1.523 . S
C1932 C1916 1.368 1_554 S
C1932 C1928 1.368 . S
C1932 C1931 1.523 . S
H1933 C1908 0.950 . S
H1934 C1910 0.950 . S
H1935 C1911 0.949 . S
H1936 C1913 0.950 . S
H1937 C1915 0.950 . S
C1938 C1939 1.349 . S
C1938 C1940 1.327 . S
C1938 H1963 0.950 . S
C1939 C1938 1.349 . S
C1939 C1955 1.349 1_556 S
C1940 C1938 1.327 . S
C1940 C1959 1.429 . S
C1940 H1964 0.950 . S
C1941 C1958 1.574 . S
C1941 C1960 1.368 1_554 S
C1941 H1965 0.949 . S
H1942 C1946 0.949 . S
C1943 C1944 1.349 . S
C1943 C1945 1.327 . S
C1943 H1966 0.950 . S
C1944 C1943 1.349 . S
C1944 C1956 1.349 1_554 S
C1945 C1943 1.327 . S
C1945 C1961 1.429 . S
C1945 H1967 0.950 . S
C1946 H1942 0.949 . S
C1946 C1954 1.574 . S
C1946 C1962 1.368 1_556 S
H1947 C1955 0.950 . S
H1948 C1953 0.950 . S
H1949 C1954 0.949 . S
H1950 C1956 0.950 . S
H1951 C1957 0.950 . S
H1952 C1958 0.949 . S
C1953 H1948 0.950 . S
C1953 C1955 1.327 . S
C1953 C1959 1.429 1_554 S
C1954 C1946 1.574 . S
C1954 H1949 0.949 . S
C1954 C1960 1.368 . S
C1955 C1939 1.349 1_554 S
C1955 H1947 0.950 . S
C1955 C1953 1.327 . S
C1956 C1944 1.349 1_556 S
C1956 H1950 0.950 . S
C1956 C1957 1.327 . S
C1957 H1951 0.950 . S
C1957 C1956 1.327 . S
C1957 C1961 1.429 1_556 S
C1958 C1941 1.574 . S
C1958 H1952 0.949 . S
C1958 C1962 1.368 . S
C1959 C1940 1.429 . S
C1959 C1953 1.429 1_556 S
C1959 C1960 1.523 . S
C1960 C1941 1.368 1_556 S
C1960 C1954 1.368 . S
C1960 C1959 1.523 . S
C1961 C1945 1.429 . S
C1961 C1957 1.429 1_554 S
C1961 C1962 1.523 . S
C1962 C1946 1.368 1_554 S
C1962 C1958 1.368 . S
C1962 C1961 1.523 . S
H1963 C1938 0.950 . S
H1964 C1940 0.950 . S
H1965 C1941 0.949 . S
H1966 C1943 0.950 . S
H1967 C1945 0.950 . S
C1968 C1969 1.349 . S
C1968 C1970 1.327 . S
C1968 H1993 0.950 . S
C1969 C1968 1.349 . S
C1969 C1985 1.349 1_556 S
C1970 C1968 1.327 . S
C1970 C1989 1.429 . S
C1970 H1994 0.950 . S
C1971 C1988 1.574 1_545 S
C1971 C1990 1.368 1_554 S
C1971 H1995 0.949 . S
H1972 C1976 0.949 . S
C1973 C1974 1.349 . S
C1973 C1975 1.327 . S
C1973 H1996 0.950 . S
C1974 C1973 1.349 . S
C1974 C1986 1.349 1_554 S
C1975 C1973 1.327 . S
C1975 C1991 1.429 . S
C1975 H1997 0.950 . S
C1976 H1972 0.949 . S
C1976 C1984 1.574 1_565 S
C1976 C1992 1.368 1_556 S
H1977 C1985 0.950 . S
H1978 C1983 0.950 . S
H1979 C1984 0.949 . S
H1980 C1986 0.950 . S
H1981 C1987 0.950 . S
H1982 C1988 0.949 . S
C1983 H1978 0.950 . S
C1983 C1985 1.327 . S
C1983 C1989 1.429 1_554 S
C1984 C1976 1.574 1_545 S
C1984 H1979 0.949 . S
C1984 C1990 1.368 . S
C1985 C1969 1.349 1_554 S
C1985 H1977 0.950 . S
C1985 C1983 1.327 . S
C1986 C1974 1.349 1_556 S
C1986 H1980 0.950 . S
C1986 C1987 1.327 . S
C1987 H1981 0.950 . S
C1987 C1986 1.327 . S
C1987 C1991 1.429 1_556 S
C1988 C1971 1.574 1_565 S
C1988 H1982 0.949 . S
C1988 C1992 1.368 . S
C1989 C1970 1.429 . S
C1989 C1983 1.429 1_556 S
C1989 C1990 1.523 . S
C1990 C1971 1.368 1_556 S
C1990 C1984 1.368 . S
C1990 C1989 1.523 . S
C1991 C1975 1.429 . S
C1991 C1987 1.429 1_554 S
C1991 C1992 1.523 . S
C1992 C1976 1.368 1_554 S
C1992 C1988 1.368 . S
C1992 C1991 1.523 . S
H1993 C1968 0.950 . S
H1994 C1970 0.950 . S
H1995 C1971 0.949 . S
H1996 C1973 0.950 . S
H1997 C1975 0.950 . S
C1998 C1999 1.349 . S
C1998 C2000 1.327 . S
C1998 H2023 0.950 . S
C1999 C1998 1.349 . S
C1999 C2015 1.349 . S
C2000 C1998 1.327 . S
C2000 C2019 1.429 . S
C2000 H2024 0.950 . S
C2001 C2018 1.574 . S
C2001 C2020 1.368 1_655 S
C2001 H2025 0.949 1_655 S
H2002 C2006 0.949 . S
C2003 C2004 1.349 . S
C2003 C2005 1.327 . S
C2003 H2026 0.950 . S
C2004 C2003 1.349 . S
C2004 C2016 1.349 . S
C2005 C2003 1.327 . S
C2005 C2021 1.429 . S
C2005 H2027 0.949 1_556 S
C2006 H2002 0.949 . S
C2006 C2014 1.572 1_556 S
C2006 C2022 1.370 . S
H2007 C2015 0.950 . S
H2008 C2013 0.950 . S
H2009 C2014 0.948 1_455 S
H2010 C2016 0.950 . S
H2011 C2017 0.950 . S
H2012 C2018 0.949 . S
C2013 H2008 0.950 . S
C2013 C2015 1.327 . S
C2013 C2019 1.429 . S
C2014 C2006 1.572 1_554 S
C2014 H2009 0.948 1_655 S
C2014 C2020 1.372 1_655 S
C2015 C1999 1.349 . S
C2015 H2007 0.950 . S
C2015 C2013 1.327 . S
C2016 C2004 1.349 . S
C2016 H2010 0.950 . S
C2016 C2017 1.327 . S
C2017 H2011 0.950 . S
C2017 C2016 1.327 . S
C2017 C2021 1.429 . S
C2018 C2001 1.574 . S
C2018 H2012 0.949 . S
C2018 C2022 1.366 1_554 S
C2019 C2000 1.429 . S
C2019 C2013 1.429 . S
C2019 C2020 1.523 . S
C2020 C2001 1.368 1_455 S
C2020 C2014 1.372 1_455 S
C2020 C2019 1.523 . S
C2021 C2005 1.429 . S
C2021 C2017 1.429 . S
C2021 C2022 1.524 . S
C2022 C2006 1.370 . S
C2022 C2018 1.366 1_556 S
C2022 C2021 1.524 . S
H2023 C1998 0.950 . S
H2024 C2000 0.950 . S
H2025 C2001 0.949 1_455 S
H2026 C2003 0.950 . S
H2027 C2005 0.949 1_554 S
C2028 C2029 1.349 1_554 S
C2028 C2030 1.327 . S
C2028 H2053 0.950 . S
C2029 C2028 1.349 1_556 S
C2029 C2045 1.349 . S
C2030 C2028 1.327 . S
C2030 C2049 1.429 1_554 S
C2030 H2054 0.950 . S
C2031 C2048 1.574 . S
C2031 C2050 1.368 . S
C2031 H2055 0.949 . S
H2032 C2036 0.949 . S
C2033 C2034 1.349 1_556 S
C2033 C2035 1.327 . S
C2033 H2056 0.950 . S
C2034 C2033 1.349 1_554 S
C2034 C2046 1.349 . S
C2035 C2033 1.327 . S
C2035 C2051 1.429 1_556 S
C2035 H2057 0.950 . S
C2036 H2032 0.949 . S
C2036 C2044 1.574 . S
C2036 C2052 1.380 . S
H2037 C2045 0.950 . S
H2038 C2043 0.950 . S
H2039 C2044 0.949 . S
H2040 C2046 0.950 . S
H2041 C2047 0.950 . S
H2042 C2048 0.949 . S
C2043 H2038 0.950 . S
C2043 C2045 1.327 . S
C2043 C2049 1.429 . S
C2044 C2036 1.574 . S
C2044 H2039 0.949 . S
C2044 C2050 1.368 1_554 S
C2045 C2029 1.349 . S
C2045 H2037 0.950 . S
C2045 C2043 1.327 . S
C2046 C2034 1.349 . S
C2046 H2040 0.950 . S
C2046 C2047 1.327 . S
C2047 H2041 0.950 . S
C2047 C2046 1.327 . S
C2047 C2051 1.429 . S
C2048 C2031 1.574 . S
C2048 H2042 0.949 . S
C2048 C2052 1.356 1_556 S
C2049 C2030 1.429 1_556 S
C2049 C2043 1.429 . S
C2049 C2050 1.523 . S
C2050 C2031 1.368 . S
C2050 C2044 1.368 1_556 S
C2050 C2049 1.523 . S
C2051 C2035 1.429 1_554 S
C2051 C2047 1.429 . S
C2051 C2052 1.524 . S
C2052 C2036 1.380 . S
C2052 C2048 1.356 1_554 S
C2052 C2051 1.524 . S
H2053 C2028 0.950 . S
H2054 C2030 0.950 . S
H2055 C2031 0.949 . S
H2056 C2033 0.950 . S
H2057 C2035 0.950 . S
C2058 C2059 1.349 1_556 S
C2058 C2060 1.327 . S
C2058 H2083 0.950 . S
C2059 C2058 1.349 1_554 S
C2059 C2075 1.349 . S
C2060 C2058 1.327 . S
C2060 C2079 1.429 1_556 S
C2060 H2084 0.950 . S
C2061 C2078 1.574 1_565 S
C2061 C2080 1.368 . S
C2061 H2085 0.949 . S
H2062 C2066 0.949 . S
C2063 C2064 1.349 1_554 S
C2063 C2065 1.327 . S
C2063 H2086 0.950 . S
C2064 C2063 1.349 1_556 S
C2064 C2076 1.349 . S
C2065 C2063 1.327 . S
C2065 C2081 1.429 1_554 S
C2065 H2087 0.950 . S
C2066 H2062 0.949 . S
C2066 C2074 1.574 1_545 S
C2066 C2082 1.368 . S
H2067 C2075 0.950 . S
H2068 C2073 0.950 . S
H2069 C2074 0.949 . S
H2070 C2076 0.950 . S
H2071 C2077 0.950 . S
H2072 C2078 0.949 . S
C2073 H2068 0.950 . S
C2073 C2075 1.327 . S
C2073 C2079 1.429 . S
C2074 C2066 1.574 1_565 S
C2074 H2069 0.949 . S
C2074 C2080 1.368 1_556 S
C2075 C2059 1.349 . S
C2075 H2067 0.950 . S
C2075 C2073 1.327 . S
C2076 C2064 1.349 . S
C2076 H2070 0.950 . S
C2076 C2077 1.327 . S
C2077 H2071 0.950 . S
C2077 C2076 1.327 . S
C2077 C2081 1.429 . S
C2078 C2061 1.574 1_545 S
C2078 H2072 0.949 . S
C2078 C2082 1.368 1_554 S
C2079 C2060 1.429 1_554 S
C2079 C2073 1.429 . S
C2079 C2080 1.523 . S
C2080 C2061 1.368 . S
C2080 C2074 1.368 1_554 S
C2080 C2079 1.523 . S
C2081 C2065 1.429 1_556 S
C2081 C2077 1.429 . S
C2081 C2082 1.523 . S
C2082 C2066 1.368 . S
C2082 C2078 1.368 1_556 S
C2082 C2081 1.523 . S
H2083 C2058 0.950 . S
H2084 C2060 0.950 . S
H2085 C2061 0.949 . S
H2086 C2063 0.950 . S
H2087 C2065 0.950 . S
C2088 C2089 1.349 . S
C2088 C2090 1.327 . S
C2088 H2113 0.950 . S
C2089 C2088 1.349 . S
C2089 C2105 1.349 . S
C2090 C2088 1.327 . S
C2090 C2109 1.429 . S
C2090 H2114 0.950 . S
C2091 C2108 1.574 . S
C2091 C2110 1.368 . S
C2091 H2115 0.949 . S
H2092 C2096 0.949 . S
C2093 C2094 1.349 . S
C2093 C2095 1.327 . S
C2093 H2116 0.950 . S
C2094 C2093 1.349 . S
C2094 C2106 1.349 . S
C2095 C2093 1.327 . S
C2095 C2111 1.429 . S
C2095 H2117 0.950 . S
C2096 H2092 0.949 . S
C2096 C2104 1.574 . S
C2096 C2112 1.368 . S
H2097 C2105 0.950 . S
H2098 C2103 0.950 . S
H2099 C2104 0.949 . S
H2100 C2106 0.950 . S
H2101 C2107 0.950 . S
H2102 C2108 0.949 . S
C2103 H2098 0.950 . S
C2103 C2105 1.327 . S
C2103 C2109 1.429 . S
C2104 C2096 1.574 . S
C2104 H2099 0.949 . S
C2104 C2110 1.368 . S
C2105 C2089 1.349 . S
C2105 H2097 0.950 . S
C2105 C2103 1.327 . S
C2106 C2094 1.349 . S
C2106 H2100 0.950 . S
C2106 C2107 1.327 . S
C2107 H2101 0.950 . S
C2107 C2106 1.327 . S
C2107 C2111 1.429 . S
C2108 C2091 1.574 . S
C2108 H2102 0.949 . S
C2108 C2112 1.368 . S
C2109 C2090 1.429 . S
C2109 C2103 1.429 . S
C2109 C2110 1.523 . S
C2110 C2091 1.368 . S
C2110 C2104 1.368 . S
C2110 C2109 1.523 . S
C2111 C2095 1.429 . S
C2111 C2107 1.429 . S
C2111 C2112 1.523 . S
C2112 C2096 1.368 . S
C2112 C2108 1.368 . S
C2112 C2111 1.523 . S
H2113 C2088 0.950 . S
H2114 C2090 0.950 . S
H2115 C2091 0.949 . S
H2116 C2093 0.950 . S
H2117 C2095 0.950 . S
C2118 C2119 1.349 . S
C2118 C2120 1.327 . S
C2118 H2143 0.950 . S
C2119 C2118 1.349 . S
C2119 C2135 1.349 . S
C2120 C2118 1.327 . S
C2120 C2139 1.429 . S
C2120 H2144 0.950 . S
C2121 C2138 1.574 . S
C2121 C2140 1.368 . S
C2121 H2145 0.949 . S
H2122 C2126 0.949 . S
C2123 C2124 1.349 1_565 S
C2123 C2125 1.327 . S
C2123 H2146 0.950 . S
C2124 C2123 1.349 1_545 S
C2124 C2136 1.349 . S
C2125 C2123 1.327 . S
C2125 C2141 1.429 . S
C2125 H2147 0.950 . S
C2126 H2122 0.949 . S
C2126 C2134 1.574 . S
C2126 C2142 1.368 . S
H2127 C2135 0.950 . S
H2128 C2133 0.950 . S
H2129 C2134 0.949 . S
H2130 C2136 0.950 . S
H2131 C2137 0.950 . S
H2132 C2138 0.949 . S
C2133 H2128 0.950 . S
C2133 C2135 1.327 . S
C2133 C2139 1.429 . S
C2134 C2126 1.574 . S
C2134 H2129 0.949 . S
C2134 C2140 1.368 . S
C2135 C2119 1.349 . S
C2135 H2127 0.950 . S
C2135 C2133 1.327 . S
C2136 C2124 1.349 . S
C2136 H2130 0.950 . S
C2136 C2137 1.327 . S
C2137 H2131 0.950 . S
C2137 C2136 1.327 . S
C2137 C2141 1.429 1_545 S
C2138 C2121 1.574 . S
C2138 H2132 0.949 . S
C2138 C2142 1.368 . S
C2139 C2120 1.429 . S
C2139 C2133 1.429 . S
C2139 C2140 1.523 . S
C2140 C2121 1.368 . S
C2140 C2134 1.368 . S
C2140 C2139 1.523 . S
C2141 C2125 1.429 . S
C2141 C2137 1.429 1_565 S
C2141 C2142 1.523 . S
C2142 C2126 1.368 . S
C2142 C2138 1.368 . S
C2142 C2141 1.523 . S
H2143 C2118 0.950 . S
H2144 C2120 0.950 . S
H2145 C2121 0.949 . S
H2146 C2123 0.950 . S
H2147 C2125 0.950 . S
C2148 C2149 1.349 . S
C2148 C2150 1.327 . S
C2148 H2173 0.950 . S
C2149 C2148 1.349 . S
C2149 C2165 1.353 . S
C2150 C2148 1.327 . S
C2150 C2169 1.429 1_655 S
C2150 H2174 0.950 . S
C2151 C2168 1.574 . S
C2151 C2170 1.368 . S
C2151 H2175 0.949 . S
H2152 C2156 0.949 . S
C2153 C2154 1.349 . S
C2153 C2155 1.327 . S
C2153 H2176 0.950 . S
C2154 C2153 1.349 . S
C2154 C2166 1.349 . S
C2155 C2153 1.327 . S
C2155 C2171 1.429 . S
C2155 H2177 0.950 . S
C2156 H2152 0.949 . S
C2156 C2164 1.574 . S
C2156 C2172 1.368 . S
H2157 C2165 0.945 1_455 S
H2158 C2163 0.950 . S
H2159 C2164 0.949 . S
H2160 C2166 0.950 . S
H2161 C2167 0.950 . S
H2162 C2168 0.949 . S
C2163 H2158 0.950 . S
C2163 C2165 1.327 1_455 S
C2163 C2169 1.429 . S
C2164 C2156 1.574 . S
C2164 H2159 0.949 . S
C2164 C2170 1.368 . S
C2165 C2149 1.353 . S
C2165 H2157 0.945 1_655 S
C2165 C2163 1.327 1_655 S
C2166 C2154 1.349 . S
C2166 H2160 0.950 . S
C2166 C2167 1.327 . S
C2167 H2161 0.950 . S
C2167 C2166 1.327 . S
C2167 C2171 1.429 . S
C2168 C2151 1.574 . S
C2168 H2162 0.949 . S
C2168 C2172 1.368 . S
C2169 C2150 1.429 1_455 S
C2169 C2163 1.429 . S
C2169 C2170 1.523 . S
C2170 C2151 1.368 . S
C2170 C2164 1.368 . S
C2170 C2169 1.523 . S
C2171 C2155 1.429 . S
C2171 C2167 1.429 . S
C2171 C2172 1.523 . S
C2172 C2156 1.368 . S
C2172 C2168 1.368 . S
C2172 C2171 1.523 . S
H2173 C2148 0.950 . S
H2174 C2150 0.950 . S
H2175 C2151 0.949 . S
H2176 C2153 0.950 . S
H2177 C2155 0.950 . S
C2178 C2179 1.349 . S
C2178 C2180 1.327 . S
C2178 H2203 0.950 . S
C2179 C2178 1.349 . S
C2179 C2195 1.349 . S
C2180 C2178 1.327 . S
C2180 C2199 1.429 . S
C2180 H2204 0.950 . S
C2181 C2198 1.574 . S
C2181 C2200 1.368 . S
C2181 H2205 0.949 . S
H2182 C2186 0.949 . S
C2183 C2184 1.349 . S
C2183 C2185 1.327 . S
C2183 H2206 0.950 . S
C2184 C2183 1.349 . S
C2184 C2196 1.349 1_545 S
C2185 C2183 1.327 . S
C2185 C2201 1.429 1_545 S
C2185 H2207 0.950 . S
C2186 H2182 0.949 . S
C2186 C2194 1.574 . S
C2186 C2202 1.368 . S
H2187 C2195 0.950 . S
H2188 C2193 0.950 . S
H2189 C2194 0.949 . S
H2190 C2196 0.950 . S
H2191 C2197 0.950 . S
H2192 C2198 0.949 . S
C2193 H2188 0.950 . S
C2193 C2195 1.327 . S
C2193 C2199 1.429 . S
C2194 C2186 1.574 . S
C2194 H2189 0.949 . S
C2194 C2200 1.368 . S
C2195 C2179 1.349 . S
C2195 H2187 0.950 . S
C2195 C2193 1.327 . S
C2196 C2184 1.349 1_565 S
C2196 H2190 0.950 . S
C2196 C2197 1.327 . S
C2197 H2191 0.950 . S
C2197 C2196 1.327 . S
C2197 C2201 1.429 . S
C2198 C2181 1.574 . S
C2198 H2192 0.949 . S
C2198 C2202 1.368 . S
C2199 C2180 1.429 . S
C2199 C2193 1.429 . S
C2199 C2200 1.523 . S
C2200 C2181 1.368 . S
C2200 C2194 1.368 . S
C2200 C2199 1.523 . S
C2201 C2185 1.429 1_565 S
C2201 C2197 1.429 . S
C2201 C2202 1.523 . S
C2202 C2186 1.368 . S
C2202 C2198 1.368 . S
C2202 C2201 1.523 . S
H2203 C2178 0.950 . S
H2204 C2180 0.950 . S
H2205 C2181 0.949 . S
H2206 C2183 0.950 . S
H2207 C2185 0.950 . S
C2208 C2209 1.349 . S
C2208 C2210 1.327 . S
C2208 H2233 0.950 . S
C2209 C2208 1.349 . S
C2209 C2225 1.349 . S
C2210 C2208 1.327 . S
C2210 C2229 1.449 . S
C2210 H2234 0.950 . S
C2211 C2228 1.574 . S
C2211 C2230 1.368 . S
C2211 H2235 0.949 . S
H2212 C2216 0.949 . S
C2213 C2214 1.349 . S
C2213 C2215 1.327 . S
C2213 H2236 0.950 . S
C2214 C2213 1.349 . S
C2214 C2226 1.349 . S
C2215 C2213 1.327 . S
C2215 C2231 1.429 . S
C2215 H2237 0.950 . S
C2216 H2212 0.949 . S
C2216 C2224 1.574 . S
C2216 C2232 1.368 . S
H2217 C2225 0.950 . S
H2218 C2223 0.950 . S
H2219 C2224 0.949 1_655 S
H2220 C2226 0.950 . S
H2221 C2227 0.950 . S
H2222 C2228 0.949 . S
C2223 H2218 0.950 . S
C2223 C2225 1.327 1_455 S
C2223 C2229 1.436 1_455 S
C2224 C2216 1.574 . S
C2224 H2219 0.949 1_455 S
C2224 C2230 1.368 . S
C2225 C2209 1.349 . S
C2225 H2217 0.950 . S
C2225 C2223 1.327 1_655 S
C2226 C2214 1.349 . S
C2226 H2220 0.950 . S
C2226 C2227 1.327 . S
C2227 H2221 0.950 . S
C2227 C2226 1.327 . S
C2227 C2231 1.429 . S
C2228 C2211 1.574 . S
C2228 H2222 0.949 . S
C2228 C2232 1.368 . S
C2229 C2210 1.449 . S
C2229 C2223 1.436 1_655 S
C2229 C2230 1.498 1_655 S
C2230 C2211 1.368 . S
C2230 C2224 1.368 . S
C2230 C2229 1.498 1_455 S
C2231 C2215 1.429 . S
C2231 C2227 1.429 . S
C2231 C2232 1.523 . S
C2232 C2216 1.368 . S
C2232 C2228 1.368 . S
C2232 C2231 1.523 . S
H2233 C2208 0.950 . S
H2234 C2210 0.950 . S
H2235 C2211 0.949 . S
H2236 C2213 0.950 . S
H2237 C2215 0.950 . S
C2238 C2239 1.349 . S
C2238 C2240 1.327 . S
C2238 H2263 0.950 . S
C2239 C2238 1.349 . S
C2239 C2255 1.349 . S
C2240 C2238 1.327 . S
C2240 C2259 1.429 . S
C2240 H2264 0.950 . S
C2241 C2258 1.574 . S
C2241 C2260 1.368 . S
C2241 H2265 0.949 . S
H2242 C2246 0.949 . S
C2243 C2244 1.349 . S
C2243 C2245 1.327 . S
C2243 H2266 0.950 . S
C2244 C2243 1.349 . S
C2244 C2256 1.349 . S
C2245 C2243 1.327 . S
C2245 C2261 1.429 . S
C2245 H2267 0.950 . S
C2246 H2242 0.949 . S
C2246 C2254 1.574 . S
C2246 C2262 1.368 . S
H2247 C2255 0.950 . S
H2248 C2253 0.950 . S
H2249 C2254 0.949 . S
H2250 C2256 0.950 . S
H2251 C2257 0.950 . S
H2252 C2258 0.949 . S
C2253 H2248 0.950 . S
C2253 C2255 1.327 . S
C2253 C2259 1.429 . S
C2254 C2246 1.574 . S
C2254 H2249 0.949 . S
C2254 C2260 1.368 . S
C2255 C2239 1.349 . S
C2255 H2247 0.950 . S
C2255 C2253 1.327 . S
C2256 C2244 1.349 . S
C2256 H2250 0.950 . S
C2256 C2257 1.327 . S
C2257 H2251 0.950 . S
C2257 C2256 1.327 . S
C2257 C2261 1.429 . S
C2258 C2241 1.574 . S
C2258 H2252 0.949 . S
C2258 C2262 1.368 . S
C2259 C2240 1.429 . S
C2259 C2253 1.429 . S
C2259 C2260 1.523 . S
C2260 C2241 1.368 . S
C2260 C2254 1.368 . S
C2260 C2259 1.523 . S
C2261 C2245 1.429 . S
C2261 C2257 1.429 . S
C2261 C2262 1.523 . S
C2262 C2246 1.368 . S
C2262 C2258 1.368 . S
C2262 C2261 1.523 . S
H2263 C2238 0.950 . S
H2264 C2240 0.950 . S
H2265 C2241 0.949 . S
H2266 C2243 0.950 . S
H2267 C2245 0.950 . S
C2268 C2269 1.349 1_545 S
C2268 C2270 1.327 . S
C2268 H2293 0.950 . S
C2269 C2268 1.349 1_565 S
C2269 C2285 1.349 . S
C2270 C2268 1.327 . S
C2270 C2289 1.429 . S
C2270 H2294 0.950 . S
C2271 C2288 1.574 . S
C2271 C2290 1.368 . S
C2271 H2295 0.949 . S
H2272 C2276 0.949 . S
C2273 C2274 1.349 . S
C2273 C2275 1.327 . S
C2273 H2296 0.950 . S
C2274 C2273 1.349 . S
C2274 C2286 1.349 . S
C2275 C2273 1.327 . S
C2275 C2291 1.429 . S
C2275 H2297 0.950 . S
C2276 H2272 0.949 . S
C2276 C2284 1.574 . S
C2276 C2292 1.368 . S
H2277 C2285 0.950 . S
H2278 C2283 0.950 . S
H2279 C2284 0.949 . S
H2280 C2286 0.950 . S
H2281 C2287 0.950 . S
H2282 C2288 0.949 . S
C2283 H2278 0.950 . S
C2283 C2285 1.327 . S
C2283 C2289 1.429 1_565 S
C2284 C2276 1.574 . S
C2284 H2279 0.949 . S
C2284 C2290 1.368 . S
C2285 C2269 1.349 . S
C2285 H2277 0.950 . S
C2285 C2283 1.327 . S
C2286 C2274 1.349 . S
C2286 H2280 0.950 . S
C2286 C2287 1.327 . S
C2287 H2281 0.950 . S
C2287 C2286 1.327 . S
C2287 C2291 1.429 . S
C2288 C2271 1.574 . S
C2288 H2282 0.949 . S
C2288 C2292 1.368 . S
C2289 C2270 1.429 . S
C2289 C2283 1.429 1_545 S
C2289 C2290 1.523 . S
C2290 C2271 1.368 . S
C2290 C2284 1.368 . S
C2290 C2289 1.523 . S
C2291 C2275 1.429 . S
C2291 C2287 1.429 . S
C2291 C2292 1.523 . S
C2292 C2276 1.368 . S
C2292 C2288 1.368 . S
C2292 C2291 1.523 . S
H2293 C2268 0.950 . S
H2294 C2270 0.950 . S
H2295 C2271 0.949 . S
H2296 C2273 0.950 . S
H2297 C2275 0.950 . S
C2298 C2299 1.349 . S
C2298 C2300 1.327 . S
C2298 H2323 0.950 . S
C2299 C2298 1.349 . S
C2299 C2315 1.349 . S
C2300 C2298 1.327 . S
C2300 C2319 1.429 . S
C2300 H2324 0.950 . S
C2301 C2318 1.574 . S
C2301 C2320 1.368 . S
C2301 H2325 0.949 . S
H2302 C2306 0.949 . S
C2303 C2304 1.349 . S
C2303 C2305 1.327 . S
C2303 H2326 0.950 . S
C2304 C2303 1.349 . S
C2304 C2316 1.349 . S
C2305 C2303 1.327 . S
C2305 C2321 1.429 1_455 S
C2305 H2327 0.950 . S
C2306 H2302 0.949 . S
C2306 C2314 1.574 . S
C2306 C2322 1.368 . S
H2307 C2315 0.950 . S
H2308 C2313 0.950 . S
H2309 C2314 0.949 . S
H2310 C2316 0.950 . S
H2311 C2317 0.950 . S
H2312 C2318 0.949 . S
C2313 H2308 0.950 . S
C2313 C2315 1.327 . S
C2313 C2319 1.429 . S
C2314 C2306 1.574 . S
C2314 H2309 0.949 . S
C2314 C2320 1.368 . S
C2315 C2299 1.349 . S
C2315 H2307 0.950 . S
C2315 C2313 1.327 . S
C2316 C2304 1.349 . S
C2316 H2310 0.950 . S
C2316 C2317 1.327 1_455 S
C2317 H2311 0.950 . S
C2317 C2316 1.327 1_655 S
C2317 C2321 1.429 . S
C2318 C2301 1.574 . S
C2318 H2312 0.949 . S
C2318 C2322 1.368 . S
C2319 C2300 1.429 . S
C2319 C2313 1.429 . S
C2319 C2320 1.523 . S
C2320 C2301 1.368 . S
C2320 C2314 1.368 . S
C2320 C2319 1.523 . S
C2321 C2305 1.429 1_655 S
C2321 C2317 1.429 . S
C2321 C2322 1.523 . S
C2322 C2306 1.368 . S
C2322 C2318 1.368 . S
C2322 C2321 1.523 . S
H2323 C2298 0.950 . S
H2324 C2300 0.950 . S
H2325 C2301 0.949 . S
H2326 C2303 0.950 . S
H2327 C2305 0.950 . S
C2328 C2329 1.349 . S
C2328 C2330 1.327 . S
C2328 H2353 0.950 . S
C2329 C2328 1.349 . S
C2329 C2345 1.349 . S
C2330 C2328 1.327 . S
C2330 C2349 1.429 . S
C2330 H2354 0.950 . S
C2331 C2348 1.574 . S
C2331 C2350 1.368 . S
C2331 H2355 0.949 . S
H2332 C2336 0.949 . S
C2333 C2334 1.349 . S
C2333 C2335 1.327 . S
C2333 H2356 0.950 . S
C2334 C2333 1.349 . S
C2334 C2346 1.349 . S
C2335 C2333 1.327 . S
C2335 C2351 1.429 . S
C2335 H2357 0.950 . S
C2336 H2332 0.949 . S
C2336 C2344 1.574 . S
C2336 C2352 1.368 . S
H2337 C2345 0.950 . S
H2338 C2343 0.950 . S
H2339 C2344 0.949 . S
H2340 C2346 0.950 . S
H2341 C2347 0.950 . S
H2342 C2348 0.949 . S
C2343 H2338 0.950 . S
C2343 C2345 1.327 . S
C2343 C2349 1.429 . S
C2344 C2336 1.574 . S
C2344 H2339 0.949 . S
C2344 C2350 1.368 . S
C2345 C2329 1.349 . S
C2345 H2337 0.950 . S
C2345 C2343 1.327 . S
C2346 C2334 1.349 . S
C2346 H2340 0.950 . S
C2346 C2347 1.327 . S
C2347 H2341 0.950 . S
C2347 C2346 1.327 . S
C2347 C2351 1.429 . S
C2348 C2331 1.574 . S
C2348 H2342 0.949 . S
C2348 C2352 1.368 . S
C2349 C2330 1.429 . S
C2349 C2343 1.429 . S
C2349 C2350 1.523 . S
C2350 C2331 1.368 . S
C2350 C2344 1.368 . S
C2350 C2349 1.523 . S
C2351 C2335 1.429 . S
C2351 C2347 1.429 . S
C2351 C2352 1.523 . S
C2352 C2336 1.368 . S
C2352 C2348 1.368 . S
C2352 C2351 1.523 . S
H2353 C2328 0.950 . S
H2354 C2330 0.950 . S
H2355 C2331 0.949 . S
H2356 C2333 0.950 . S
H2357 C2335 0.950 . S
C2358 C2359 1.349 . S
C2358 C2360 1.327 . S
C2358 H2383 0.950 . S
C2359 C2358 1.349 . S
C2359 C2375 1.349 . S
C2360 C2358 1.327 . S
C2360 C2379 1.429 . S
C2360 H2384 0.950 . S
C2361 C2378 1.574 . S
C2361 C2380 1.368 . S
C2361 H2385 0.949 . S
H2362 C2366 0.949 . S
C2363 C2364 1.349 . S
C2363 C2365 1.327 . S
C2363 H2386 0.950 . S
C2364 C2363 1.349 . S
C2364 C2376 1.349 . S
C2365 C2363 1.327 . S
C2365 C2381 1.429 . S
C2365 H2387 0.950 . S
C2366 H2362 0.949 . S
C2366 C2374 1.574 . S
C2366 C2382 1.368 . S
H2367 C2375 0.950 . S
H2368 C2373 0.950 . S
H2369 C2374 0.949 . S
H2370 C2376 0.950 . S
H2371 C2377 0.950 . S
H2372 C2378 0.949 . S
C2373 H2368 0.950 . S
C2373 C2375 1.327 . S
C2373 C2379 1.429 . S
C2374 C2366 1.574 . S
C2374 H2369 0.949 . S
C2374 C2380 1.368 . S
C2375 C2359 1.349 . S
C2375 H2367 0.950 . S
C2375 C2373 1.327 . S
C2376 C2364 1.349 . S
C2376 H2370 0.950 . S
C2376 C2377 1.327 . S
C2377 H2371 0.950 . S
C2377 C2376 1.327 . S
C2377 C2381 1.429 . S
C2378 C2361 1.574 . S
C2378 H2372 0.949 . S
C2378 C2382 1.368 . S
C2379 C2360 1.429 . S
C2379 C2373 1.429 . S
C2379 C2380 1.523 . S
C2380 C2361 1.368 . S
C2380 C2374 1.368 . S
C2380 C2379 1.523 . S
C2381 C2365 1.429 . S
C2381 C2377 1.429 . S
C2381 C2382 1.523 . S
C2382 C2366 1.368 . S
C2382 C2378 1.368 . S
C2382 C2381 1.523 . S
H2383 C2358 0.950 . S
H2384 C2360 0.950 . S
H2385 C2361 0.949 . S
H2386 C2363 0.950 . S
H2387 C2365 0.950 . S
C2388 C2389 1.349 1_545 S
C2388 C2390 1.327 . S
C2388 H2413 0.950 . S
C2389 C2388 1.349 1_565 S
C2389 C2405 1.349 . S
C2390 C2388 1.327 . S
C2390 C2409 1.429 . S
C2390 H2414 0.950 . S
C2391 C2408 1.574 . S
C2391 C2410 1.368 . S
C2391 H2415 0.949 . S
H2392 C2396 0.949 . S
C2393 C2394 1.349 . S
C2393 C2395 1.327 . S
C2393 H2416 0.950 . S
C2394 C2393 1.349 . S
C2394 C2406 1.349 . S
C2395 C2393 1.327 . S
C2395 C2411 1.429 . S
C2395 H2417 0.950 . S
C2396 H2392 0.949 . S
C2396 C2404 1.574 . S
C2396 C2412 1.368 . S
H2397 C2405 0.950 . S
H2398 C2403 0.966 . S
H2399 C2404 0.949 . S
H2400 C2406 0.950 . S
H2401 C2407 0.950 . S
H2402 C2408 0.949 . S
C2403 H2398 0.966 . S
C2403 C2405 1.334 . S
C2403 C2409 1.423 1_565 S
C2404 C2396 1.574 . S
C2404 H2399 0.949 . S
C2404 C2410 1.368 . S
C2405 C2389 1.349 . S
C2405 H2397 0.950 . S
C2405 C2403 1.334 . S
C2406 C2394 1.349 . S
C2406 H2400 0.950 . S
C2406 C2407 1.327 . S
C2407 H2401 0.950 . S
C2407 C2406 1.327 . S
C2407 C2411 1.429 . S
C2408 C2391 1.574 . S
C2408 H2402 0.949 . S
C2408 C2412 1.368 . S
C2409 C2390 1.429 . S
C2409 C2403 1.423 1_545 S
C2409 C2410 1.523 . S
C2410 C2391 1.368 . S
C2410 C2404 1.368 . S
C2410 C2409 1.523 . S
C2411 C2395 1.429 . S
C2411 C2407 1.429 . S
C2411 C2412 1.523 . S
C2412 C2396 1.368 . S
C2412 C2408 1.368 . S
C2412 C2411 1.523 . S
H2413 C2388 0.950 . S
H2414 C2390 0.950 . S
H2415 C2391 0.949 . S
H2416 C2393 0.950 . S
H2417 C2395 0.950 . S
C2418 C2419 1.349 1_655 S
C2418 C2420 1.327 . S
C2418 H2443 0.950 . S
C2419 C2418 1.349 1_455 S
C2419 C2435 1.349 . S
C2420 C2418 1.327 . S
C2420 C2439 1.429 . S
C2420 H2444 0.950 . S
C2421 C2438 1.574 . S
C2421 C2440 1.368 . S
C2421 H2445 0.949 1_655 S
H2422 C2426 0.949 . S
C2423 C2424 1.349 . S
C2423 C2425 1.327 . S
C2423 H2446 0.950 . S
C2424 C2423 1.349 . S
C2424 C2436 1.349 . S
C2425 C2423 1.327 . S
C2425 C2441 1.429 . S
C2425 H2447 0.950 . S
C2426 H2422 0.949 . S
C2426 C2434 1.574 . S
C2426 C2442 1.368 . S
H2427 C2435 0.950 . S
H2428 C2433 0.950 . S
H2429 C2434 0.949 . S
H2430 C2436 0.950 . S
H2431 C2437 0.950 . S
H2432 C2438 0.949 . S
C2433 H2428 0.950 . S
C2433 C2435 1.327 . S
C2433 C2439 1.429 1_455 S
C2434 C2426 1.574 . S
C2434 H2429 0.949 . S
C2434 C2440 1.368 . S
C2435 C2419 1.349 . S
C2435 H2427 0.950 . S
C2435 C2433 1.327 . S
C2436 C2424 1.349 . S
C2436 H2430 0.950 . S
C2436 C2437 1.327 . S
C2437 H2431 0.950 . S
C2437 C2436 1.327 . S
C2437 C2441 1.429 . S
C2438 C2421 1.574 . S
C2438 H2432 0.949 . S
C2438 C2442 1.368 . S
C2439 C2420 1.429 . S
C2439 C2433 1.429 1_655 S
C2439 C2440 1.523 . S
C2440 C2421 1.368 . S
C2440 C2434 1.368 . S
C2440 C2439 1.523 . S
C2441 C2425 1.429 . S
C2441 C2437 1.429 . S
C2441 C2442 1.523 . S
C2442 C2426 1.368 . S
C2442 C2438 1.368 . S
C2442 C2441 1.523 . S
H2443 C2418 0.950 . S
H2444 C2420 0.950 . S
H2445 C2421 0.949 1_455 S
H2446 C2423 0.950 . S
H2447 C2425 0.950 . S
C2448 C2449 1.361 . S
C2448 C2450 1.328 . S
C2448 H2473 0.939 1_556 S
C2449 C2448 1.361 . S
C2449 C2465 1.349 . S
C2450 C2448 1.328 . S
C2450 C2469 1.429 . S
C2450 H2474 0.950 1_556 S
C2451 C2468 1.574 . S
C2451 C2470 1.368 . S
C2451 H2475 0.949 . S
H2452 C2456 0.949 1_554 S
C2453 C2454 1.349 . S
C2453 C2455 1.327 . S
C2453 H2476 0.950 . S
C2454 C2453 1.349 . S
C2454 C2466 1.349 . S
C2455 C2453 1.327 . S
C2455 C2471 1.429 . S
C2455 H2477 0.950 . S
C2456 H2452 0.949 1_556 S
C2456 C2464 1.574 . S
C2456 C2472 1.368 . S
H2457 C2465 0.950 . S
H2458 C2463 0.950 . S
H2459 C2464 0.949 1_554 S
H2460 C2466 0.950 1_554 S
H2461 C2467 0.950 1_554 S
H2462 C2468 0.949 . S
C2463 H2458 0.950 . S
C2463 C2465 1.327 . S
C2463 C2469 1.429 . S
C2464 C2456 1.574 . S
C2464 H2459 0.949 1_556 S
C2464 C2470 1.368 . S
C2465 C2449 1.349 . S
C2465 H2457 0.950 . S
C2465 C2463 1.327 . S
C2466 C2454 1.349 . S
C2466 H2460 0.950 1_556 S
C2466 C2467 1.327 . S
C2467 H2461 0.950 1_556 S
C2467 C2466 1.327 . S
C2467 C2471 1.429 . S
C2468 C2451 1.574 . S
C2468 H2462 0.949 . S
C2468 C2472 1.368 . S
C2469 C2450 1.429 . S
C2469 C2463 1.429 . S
C2469 C2470 1.523 . S
C2470 C2451 1.368 . S
C2470 C2464 1.368 . S
C2470 C2469 1.523 . S
C2471 C2455 1.429 . S
C2471 C2467 1.429 . S
C2471 C2472 1.523 . S
C2472 C2456 1.368 . S
C2472 C2468 1.368 . S
C2472 C2471 1.523 . S
H2473 C2448 0.939 1_554 S
H2474 C2450 0.950 1_554 S
H2475 C2451 0.949 . S
H2476 C2453 0.950 . S
H2477 C2455 0.950 . S
C2478 C2479 1.349 1_554 S
C2478 C2480 1.327 . S
C2478 H2503 0.950 . S
C2479 C2478 1.349 1_556 S
C2479 C2495 1.349 . S
C2480 C2478 1.327 . S
C2480 C2499 1.429 1_554 S
C2480 H2504 0.950 . S
C2481 C2498 1.574 . S
C2481 C2500 1.368 . S
C2481 H2505 0.949 . S
H2482 C2486 0.949 . S
C2483 C2484 1.349 . S
C2483 C2485 1.327 . S
C2483 H2506 0.950 . S
C2484 C2483 1.349 . S
C2484 C2496 1.349 1_556 S
C2485 C2483 1.327 . S
C2485 C2501 1.429 . S
C2485 H2507 0.950 . S
C2486 H2482 0.949 . S
C2486 C2494 1.574 . S
C2486 C2502 1.368 1_554 S
H2487 C2495 0.950 . S
H2488 C2493 0.950 . S
H2489 C2494 0.949 . S
H2490 C2496 0.950 . S
H2491 C2497 0.950 . S
H2492 C2498 0.949 . S
C2493 H2488 0.950 . S
C2493 C2495 1.327 . S
C2493 C2499 1.429 . S
C2494 C2486 1.574 . S
C2494 H2489 0.949 . S
C2494 C2500 1.368 1_554 S
C2495 C2479 1.349 . S
C2495 H2487 0.950 . S
C2495 C2493 1.327 . S
C2496 C2484 1.349 1_554 S
C2496 H2490 0.950 . S
C2496 C2497 1.327 . S
C2497 H2491 0.950 . S
C2497 C2496 1.327 . S
C2497 C2501 1.429 1_554 S
C2498 C2481 1.574 . S
C2498 H2492 0.949 . S
C2498 C2502 1.368 . S
C2499 C2480 1.429 1_556 S
C2499 C2493 1.429 . S
C2499 C2500 1.523 . S
C2500 C2481 1.368 . S
C2500 C2494 1.368 1_556 S
C2500 C2499 1.523 . S
C2501 C2485 1.429 . S
C2501 C2497 1.429 1_556 S
C2501 C2502 1.523 . S
C2502 C2486 1.368 1_556 S
C2502 C2498 1.368 . S
C2502 C2501 1.523 . S
H2503 C2478 0.950 . S
H2504 C2480 0.950 . S
H2505 C2481 0.949 . S
H2506 C2483 0.950 . S
H2507 C2485 0.950 . S
C2508 C2509 1.349 1_554 S
C2508 C2510 1.327 . S
C2508 H2533 0.950 . S
C2509 C2508 1.349 1_556 S
C2509 C2525 1.349 . S
C2510 C2508 1.327 . S
C2510 C2529 1.429 1_554 S
C2510 H2534 0.950 . S
C2511 C2528 1.574 . S
C2511 C2530 1.368 . S
C2511 H2535 0.949 . S
H2512 C2516 0.949 . S
C2513 C2514 1.349 . S
C2513 C2515 1.327 . S
C2513 H2536 0.950 . S
C2514 C2513 1.349 . S
C2514 C2526 1.349 1_556 S
C2515 C2513 1.327 . S
C2515 C2531 1.429 . S
C2515 H2537 0.950 . S
C2516 H2512 0.949 . S
C2516 C2524 1.574 . S
C2516 C2532 1.368 1_554 S
H2517 C2525 0.950 . S
H2518 C2523 0.950 . S
H2519 C2524 0.949 . S
H2520 C2526 0.950 . S
H2521 C2527 0.950 . S
H2522 C2528 0.949 . S
C2523 H2518 0.950 . S
C2523 C2525 1.327 . S
C2523 C2529 1.429 . S
C2524 C2516 1.574 . S
C2524 H2519 0.949 . S
C2524 C2530 1.368 1_554 S
C2525 C2509 1.349 . S
C2525 H2517 0.950 . S
C2525 C2523 1.327 . S
C2526 C2514 1.349 1_554 S
C2526 H2520 0.950 . S
C2526 C2527 1.327 . S
C2527 H2521 0.950 . S
C2527 C2526 1.327 . S
C2527 C2531 1.429 1_554 S
C2528 C2511 1.574 . S
C2528 H2522 0.949 . S
C2528 C2532 1.368 . S
C2529 C2510 1.429 1_556 S
C2529 C2523 1.429 . S
C2529 C2530 1.523 . S
C2530 C2511 1.368 . S
C2530 C2524 1.368 1_556 S
C2530 C2529 1.523 . S
C2531 C2515 1.429 . S
C2531 C2527 1.429 1_556 S
C2531 C2532 1.523 . S
C2532 C2516 1.368 1_556 S
C2532 C2528 1.368 . S
C2532 C2531 1.523 . S
H2533 C2508 0.950 . S
H2534 C2510 0.950 . S
H2535 C2511 0.949 . S
H2536 C2513 0.950 . S
H2537 C2515 0.950 . S
C2538 C2539 1.349 . S
C2538 C2540 1.327 . S
C2538 H2563 0.950 . S
C2539 C2538 1.349 . S
C2539 C2555 1.349 1_554 S
C2540 C2538 1.327 . S
C2540 C2559 1.429 . S
C2540 H2564 0.950 . S
C2541 C2558 1.574 . S
C2541 C2560 1.368 1_556 S
C2541 H2565 0.949 . S
H2542 C2546 0.949 . S
C2543 C2544 1.349 1_556 S
C2543 C2545 1.327 . S
C2543 H2566 0.950 . S
C2544 C2543 1.349 1_554 S
C2544 C2556 1.349 . S
C2545 C2543 1.327 . S
C2545 C2561 1.429 1_556 S
C2545 H2567 0.950 . S
C2546 H2542 0.949 . S
C2546 C2554 1.574 . S
C2546 C2562 1.368 . S
H2547 C2555 0.950 . S
H2548 C2553 0.950 . S
H2549 C2554 0.949 . S
H2550 C2556 0.950 . S
H2551 C2557 0.950 . S
H2552 C2558 0.949 . S
C2553 H2548 0.950 . S
C2553 C2555 1.327 . S
C2553 C2559 1.429 1_556 S
C2554 C2546 1.574 . S
C2554 H2549 0.949 . S
C2554 C2560 1.368 . S
C2555 C2539 1.349 1_556 S
C2555 H2547 0.950 . S
C2555 C2553 1.327 . S
C2556 C2544 1.349 . S
C2556 H2550 0.950 . S
C2556 C2557 1.327 . S
C2557 H2551 0.950 . S
C2557 C2556 1.327 . S
C2557 C2561 1.429 . S
C2558 C2541 1.574 . S
C2558 H2552 0.949 . S
C2558 C2562 1.368 1_556 S
C2559 C2540 1.429 . S
C2559 C2553 1.429 1_554 S
C2559 C2560 1.523 . S
C2560 C2541 1.368 1_554 S
C2560 C2554 1.368 . S
C2560 C2559 1.523 . S
C2561 C2545 1.429 1_554 S
C2561 C2557 1.429 . S
C2561 C2562 1.523 . S
C2562 C2546 1.368 . S
C2562 C2558 1.368 1_554 S
C2562 C2561 1.523 . S
H2563 C2538 0.950 . S
H2564 C2540 0.950 . S
H2565 C2541 0.949 . S
H2566 C2543 0.950 . S
H2567 C2545 0.950 . S
C2568 C2569 1.349 . S
C2568 C2570 1.327 . S
C2568 H2593 0.950 . S
C2569 C2568 1.349 . S
C2569 C2585 1.349 1_554 S
C2570 C2568 1.327 . S
C2570 C2589 1.429 . S
C2570 H2594 0.950 . S
C2571 C2588 1.574 . S
C2571 C2590 1.368 1_556 S
C2571 H2595 0.949 . S
H2572 C2576 0.949 . S
C2573 C2574 1.349 1_556 S
C2573 C2575 1.327 . S
C2573 H2596 0.950 . S
C2574 C2573 1.349 1_554 S
C2574 C2586 1.349 . S
C2575 C2573 1.327 . S
C2575 C2591 1.429 1_556 S
C2575 H2597 0.950 . S
C2576 H2572 0.949 . S
C2576 C2584 1.574 . S
C2576 C2592 1.368 . S
H2577 C2585 0.950 . S
H2578 C2583 0.950 . S
H2579 C2584 0.949 . S
H2580 C2586 0.950 . S
H2581 C2587 0.950 . S
H2582 C2588 0.949 . S
C2583 H2578 0.950 . S
C2583 C2585 1.327 . S
C2583 C2589 1.429 1_556 S
C2584 C2576 1.574 . S
C2584 H2579 0.949 . S
C2584 C2590 1.368 . S
C2585 C2569 1.349 1_556 S
C2585 H2577 0.950 . S
C2585 C2583 1.327 . S
C2586 C2574 1.349 . S
C2586 H2580 0.950 . S
C2586 C2587 1.327 . S
C2587 H2581 0.950 . S
C2587 C2586 1.327 . S
C2587 C2591 1.429 . S
C2588 C2571 1.574 . S
C2588 H2582 0.949 . S
C2588 C2592 1.368 1_556 S
C2589 C2570 1.429 . S
C2589 C2583 1.429 1_554 S
C2589 C2590 1.523 . S
C2590 C2571 1.368 1_554 S
C2590 C2584 1.368 . S
C2590 C2589 1.523 . S
C2591 C2575 1.429 1_554 S
C2591 C2587 1.429 . S
C2591 C2592 1.523 . S
C2592 C2576 1.368 . S
C2592 C2588 1.368 1_554 S
C2592 C2591 1.523 . S
H2593 C2568 0.950 . S
H2594 C2570 0.950 . S
H2595 C2571 0.949 . S
H2596 C2573 0.950 . S
H2597 C2575 0.950 . S
C2598 C2599 1.349 . S
C2598 C2600 1.327 . S
C2598 H2623 0.950 . S
C2599 C2598 1.349 . S
C2599 C2615 1.349 . S
C2600 C2598 1.327 . S
C2600 C2619 1.429 . S
C2600 H2624 0.950 . S
C2601 C2618 1.574 . S
C2601 C2620 1.368 . S
C2601 H2625 0.949 . S
H2602 C2606 0.949 . S
C2603 C2604 1.349 . S
C2603 C2605 1.327 . S
C2603 H2626 0.950 . S
C2604 C2603 1.349 . S
C2604 C2616 1.349 . S
C2605 C2603 1.327 . S
C2605 C2621 1.429 . S
C2605 H2627 0.950 . S
C2606 H2602 0.949 . S
C2606 C2614 1.574 . S
C2606 C2622 1.368 . S
H2607 C2615 0.950 . S
H2608 C2613 0.950 . S
H2609 C2614 0.949 . S
H2610 C2616 0.950 . S
H2611 C2617 0.950 . S
H2612 C2618 0.949 . S
C2613 H2608 0.950 . S
C2613 C2615 1.327 . S
C2613 C2619 1.429 . S
C2614 C2606 1.574 . S
C2614 H2609 0.949 . S
C2614 C2620 1.368 . S
C2615 C2599 1.349 . S
C2615 H2607 0.950 . S
C2615 C2613 1.327 . S
C2616 C2604 1.349 . S
C2616 H2610 0.950 . S
C2616 C2617 1.327 . S
C2617 H2611 0.950 . S
C2617 C2616 1.327 . S
C2617 C2621 1.429 . S
C2618 C2601 1.574 . S
C2618 H2612 0.949 . S
C2618 C2622 1.368 . S
C2619 C2600 1.429 . S
C2619 C2613 1.429 . S
C2619 C2620 1.523 . S
C2620 C2601 1.368 . S
C2620 C2614 1.368 . S
C2620 C2619 1.523 . S
C2621 C2605 1.429 . S
C2621 C2617 1.429 . S
C2621 C2622 1.523 . S
C2622 C2606 1.368 . S
C2622 C2618 1.368 . S
C2622 C2621 1.523 . S
H2623 C2598 0.950 . S
H2624 C2600 0.950 . S
H2625 C2601 0.949 . S
H2626 C2603 0.950 . S
H2627 C2605 0.950 . S
C2628 C2629 1.349 . S
C2628 C2630 1.327 . S
C2628 H2653 0.950 . S
C2629 C2628 1.349 . S
C2629 C2645 1.349 . S
C2630 C2628 1.327 . S
C2630 C2649 1.429 . S
C2630 H2654 0.950 . S
C2631 C2648 1.574 . S
C2631 C2650 1.368 . S
C2631 H2655 0.949 . S
H2632 C2636 0.949 . S
C2633 C2634 1.349 . S
C2633 C2635 1.327 . S
C2633 H2656 0.950 . S
C2634 C2633 1.349 . S
C2634 C2646 1.349 . S
C2635 C2633 1.327 . S
C2635 C2651 1.429 . S
C2635 H2657 0.950 . S
C2636 H2632 0.949 . S
C2636 C2644 1.574 . S
C2636 C2652 1.368 . S
H2637 C2645 0.950 . S
H2638 C2643 0.950 . S
H2639 C2644 0.949 . S
H2640 C2646 0.950 . S
H2641 C2647 0.950 . S
H2642 C2648 0.949 . S
C2643 H2638 0.950 . S
C2643 C2645 1.327 . S
C2643 C2649 1.429 . S
C2644 C2636 1.574 . S
C2644 H2639 0.949 . S
C2644 C2650 1.368 . S
C2645 C2629 1.349 . S
C2645 H2637 0.950 . S
C2645 C2643 1.327 . S
C2646 C2634 1.349 . S
C2646 H2640 0.950 . S
C2646 C2647 1.327 . S
C2647 H2641 0.950 . S
C2647 C2646 1.327 . S
C2647 C2651 1.429 . S
C2648 C2631 1.574 . S
C2648 H2642 0.949 . S
C2648 C2652 1.368 . S
C2649 C2630 1.429 . S
C2649 C2643 1.429 . S
C2649 C2650 1.523 . S
C2650 C2631 1.368 . S
C2650 C2644 1.368 . S
C2650 C2649 1.523 . S
C2651 C2635 1.429 . S
C2651 C2647 1.429 . S
C2651 C2652 1.523 . S
C2652 C2636 1.368 . S
C2652 C2648 1.368 . S
C2652 C2651 1.523 . S
H2653 C2628 0.950 . S
H2654 C2630 0.950 . S
H2655 C2631 0.949 . S
H2656 C2633 0.950 . S
H2657 C2635 0.950 . S
C2658 C2659 1.349 . S
C2658 C2660 1.327 . S
C2658 H2683 0.950 . S
C2659 C2658 1.349 . S
C2659 C2675 1.349 . S
C2660 C2658 1.327 . S
C2660 C2679 1.429 . S
C2660 H2684 0.950 . S
C2661 C2678 1.574 . S
C2661 C2680 1.368 . S
C2661 H2685 0.949 . S
H2662 C2666 0.949 . S
C2663 C2664 1.349 . S
C2663 C2665 1.327 . S
C2663 H2686 0.950 . S
C2664 C2663 1.349 . S
C2664 C2676 1.349 . S
C2665 C2663 1.327 . S
C2665 C2681 1.429 . S
C2665 H2687 0.950 . S
C2666 H2662 0.949 . S
C2666 C2674 1.574 . S
C2666 C2682 1.368 . S
H2667 C2675 0.950 . S
H2668 C2673 0.950 . S
H2669 C2674 0.949 . S
H2670 C2676 0.950 . S
H2671 C2677 0.950 . S
H2672 C2678 0.949 . S
C2673 H2668 0.950 . S
C2673 C2675 1.327 . S
C2673 C2679 1.429 . S
C2674 C2666 1.574 . S
C2674 H2669 0.949 . S
C2674 C2680 1.368 . S
C2675 C2659 1.349 . S
C2675 H2667 0.950 . S
C2675 C2673 1.327 . S
C2676 C2664 1.349 . S
C2676 H2670 0.950 . S
C2676 C2677 1.327 . S
C2677 H2671 0.950 . S
C2677 C2676 1.327 . S
C2677 C2681 1.429 . S
C2678 C2661 1.574 . S
C2678 H2672 0.949 . S
C2678 C2682 1.368 . S
C2679 C2660 1.429 . S
C2679 C2673 1.429 . S
C2679 C2680 1.523 . S
C2680 C2661 1.368 . S
C2680 C2674 1.368 . S
C2680 C2679 1.523 . S
C2681 C2665 1.429 . S
C2681 C2677 1.429 . S
C2681 C2682 1.523 . S
C2682 C2666 1.368 . S
C2682 C2678 1.368 . S
C2682 C2681 1.523 . S
H2683 C2658 0.950 . S
H2684 C2660 0.950 . S
H2685 C2661 0.949 . S
H2686 C2663 0.950 . S
H2687 C2665 0.950 . S
C2688 C2689 1.349 . S
C2688 C2690 1.327 . S
C2688 H2713 0.950 . S
C2689 C2688 1.349 . S
C2689 C2705 1.349 . S
C2690 C2688 1.327 . S
C2690 C2709 1.429 . S
C2690 H2714 0.950 . S
C2691 C2708 1.574 . S
C2691 C2710 1.368 . S
C2691 H2715 0.949 . S
H2692 C2696 0.949 . S
C2693 C2694 1.349 . S
C2693 C2695 1.327 . S
C2693 H2716 0.950 . S
C2694 C2693 1.349 . S
C2694 C2706 1.349 . S
C2695 C2693 1.327 . S
C2695 C2711 1.429 . S
C2695 H2717 0.950 . S
C2696 H2692 0.949 . S
C2696 C2704 1.574 . S
C2696 C2712 1.368 . S
H2697 C2705 0.950 . S
H2698 C2703 0.950 . S
H2699 C2704 0.949 . S
H2700 C2706 0.950 . S
H2701 C2707 0.950 . S
H2702 C2708 0.949 . S
C2703 H2698 0.950 . S
C2703 C2705 1.327 . S
C2703 C2709 1.429 . S
C2704 C2696 1.574 . S
C2704 H2699 0.949 . S
C2704 C2710 1.368 . S
C2705 C2689 1.349 . S
C2705 H2697 0.950 . S
C2705 C2703 1.327 . S
C2706 C2694 1.349 . S
C2706 H2700 0.950 . S
C2706 C2707 1.327 . S
C2707 H2701 0.950 . S
C2707 C2706 1.327 . S
C2707 C2711 1.429 . S
C2708 C2691 1.574 . S
C2708 H2702 0.949 . S
C2708 C2712 1.368 . S
C2709 C2690 1.429 . S
C2709 C2703 1.429 . S
C2709 C2710 1.523 . S
C2710 C2691 1.368 . S
C2710 C2704 1.368 . S
C2710 C2709 1.523 . S
C2711 C2695 1.429 . S
C2711 C2707 1.429 . S
C2711 C2712 1.523 . S
C2712 C2696 1.368 . S
C2712 C2708 1.368 . S
C2712 C2711 1.523 . S
H2713 C2688 0.950 . S
H2714 C2690 0.950 . S
H2715 C2691 0.949 . S
H2716 C2693 0.950 . S
H2717 C2695 0.950 . S
C2718 C2719 1.349 . S
C2718 C2720 1.327 . S
C2718 H2743 0.950 . S
C2719 C2718 1.349 . S
C2719 C2735 1.349 . S
C2720 C2718 1.327 . S
C2720 C2739 1.429 . S
C2720 H2744 0.950 . S
C2721 C2738 1.574 . S
C2721 C2740 1.368 . S
C2721 H2745 0.949 . S
H2722 C2726 0.949 . S
C2723 C2724 1.349 . S
C2723 C2725 1.327 . S
C2723 H2746 0.950 . S
C2724 C2723 1.349 . S
C2724 C2736 1.349 . S
C2725 C2723 1.327 . S
C2725 C2741 1.429 . S
C2725 H2747 0.950 . S
C2726 H2722 0.949 . S
C2726 C2734 1.574 . S
C2726 C2742 1.368 . S
H2727 C2735 0.950 . S
H2728 C2733 0.950 . S
H2729 C2734 0.949 . S
H2730 C2736 0.950 . S
H2731 C2737 0.950 . S
H2732 C2738 0.949 . S
C2733 H2728 0.950 . S
C2733 C2735 1.327 . S
C2733 C2739 1.429 . S
C2734 C2726 1.574 . S
C2734 H2729 0.949 . S
C2734 C2740 1.368 . S
C2735 C2719 1.349 . S
C2735 H2727 0.950 . S
C2735 C2733 1.327 . S
C2736 C2724 1.349 . S
C2736 H2730 0.950 . S
C2736 C2737 1.327 . S
C2737 H2731 0.950 . S
C2737 C2736 1.327 . S
C2737 C2741 1.429 . S
C2738 C2721 1.574 . S
C2738 H2732 0.949 . S
C2738 C2742 1.368 . S
C2739 C2720 1.429 . S
C2739 C2733 1.429 . S
C2739 C2740 1.523 . S
C2740 C2721 1.368 . S
C2740 C2734 1.368 . S
C2740 C2739 1.523 . S
C2741 C2725 1.429 . S
C2741 C2737 1.429 . S
C2741 C2742 1.523 . S
C2742 C2726 1.368 . S
C2742 C2738 1.368 . S
C2742 C2741 1.523 . S
H2743 C2718 0.950 . S
H2744 C2720 0.950 . S
H2745 C2721 0.949 . S
H2746 C2723 0.950 . S
H2747 C2725 0.950 . S
C2748 C2749 1.349 . S
C2748 C2750 1.327 . S
C2748 H2773 0.950 . S
C2749 C2748 1.349 . S
C2749 C2765 1.349 . S
C2750 C2748 1.327 . S
C2750 C2769 1.429 . S
C2750 H2774 0.950 . S
C2751 C2768 1.574 . S
C2751 C2770 1.368 . S
C2751 H2775 0.949 . S
H2752 C2756 0.949 . S
C2753 C2754 1.349 . S
C2753 C2755 1.327 . S
C2753 H2776 0.950 . S
C2754 C2753 1.349 . S
C2754 C2766 1.349 . S
C2755 C2753 1.327 . S
C2755 C2771 1.429 . S
C2755 H2777 0.950 . S
C2756 H2752 0.949 . S
C2756 C2764 1.574 . S
C2756 C2772 1.368 . S
H2757 C2765 0.950 . S
H2758 C2763 0.950 . S
H2759 C2764 0.949 . S
H2760 C2766 0.950 . S
H2761 C2767 0.950 . S
H2762 C2768 0.949 . S
C2763 H2758 0.950 . S
C2763 C2765 1.327 . S
C2763 C2769 1.429 . S
C2764 C2756 1.574 . S
C2764 H2759 0.949 . S
C2764 C2770 1.368 . S
C2765 C2749 1.349 . S
C2765 H2757 0.950 . S
C2765 C2763 1.327 . S
C2766 C2754 1.349 . S
C2766 H2760 0.950 . S
C2766 C2767 1.327 . S
C2767 H2761 0.950 . S
C2767 C2766 1.327 . S
C2767 C2771 1.429 . S
C2768 C2751 1.574 . S
C2768 H2762 0.949 . S
C2768 C2772 1.368 . S
C2769 C2750 1.429 . S
C2769 C2763 1.429 . S
C2769 C2770 1.523 . S
C2770 C2751 1.368 . S
C2770 C2764 1.368 . S
C2770 C2769 1.523 . S
C2771 C2755 1.429 . S
C2771 C2767 1.429 . S
C2771 C2772 1.523 . S
C2772 C2756 1.368 . S
C2772 C2768 1.368 . S
C2772 C2771 1.523 . S
H2773 C2748 0.950 . S
H2774 C2750 0.950 . S
H2775 C2751 0.949 . S
H2776 C2753 0.950 . S
H2777 C2755 0.950 . S
C2778 C2779 1.349 . S
C2778 C2780 1.327 . S
C2778 H2803 0.950 . S
C2779 C2778 1.349 . S
C2779 C2795 1.349 . S
C2780 C2778 1.327 . S
C2780 C2799 1.429 . S
C2780 H2804 0.950 . S
C2781 C2798 1.574 . S
C2781 C2800 1.368 . S
C2781 H2805 0.949 . S
H2782 C2786 0.949 . S
C2783 C2784 1.349 . S
C2783 C2785 1.327 . S
C2783 H2806 0.950 . S
C2784 C2783 1.349 . S
C2784 C2796 1.349 . S
C2785 C2783 1.327 . S
C2785 C2801 1.429 . S
C2785 H2807 0.950 . S
C2786 H2782 0.949 . S
C2786 C2794 1.574 . S
C2786 C2802 1.368 . S
H2787 C2795 0.950 . S
H2788 C2793 0.950 . S
H2789 C2794 0.949 . S
H2790 C2796 0.950 . S
H2791 C2797 0.950 . S
H2792 C2798 0.949 . S
C2793 H2788 0.950 . S
C2793 C2795 1.327 . S
C2793 C2799 1.429 . S
C2794 C2786 1.574 . S
C2794 H2789 0.949 . S
C2794 C2800 1.368 . S
C2795 C2779 1.349 . S
C2795 H2787 0.950 . S
C2795 C2793 1.327 . S
C2796 C2784 1.349 . S
C2796 H2790 0.950 . S
C2796 C2797 1.327 . S
C2797 H2791 0.950 . S
C2797 C2796 1.327 . S
C2797 C2801 1.429 . S
C2798 C2781 1.574 . S
C2798 H2792 0.949 . S
C2798 C2802 1.368 . S
C2799 C2780 1.429 . S
C2799 C2793 1.429 . S
C2799 C2800 1.523 . S
C2800 C2781 1.368 . S
C2800 C2794 1.368 . S
C2800 C2799 1.523 . S
C2801 C2785 1.429 . S
C2801 C2797 1.429 . S
C2801 C2802 1.523 . S
C2802 C2786 1.368 . S
C2802 C2798 1.368 . S
C2802 C2801 1.523 . S
H2803 C2778 0.950 . S
H2804 C2780 0.950 . S
H2805 C2781 0.949 . S
H2806 C2783 0.950 . S
H2807 C2785 0.950 . S
C2808 C2809 1.349 . S
C2808 C2810 1.327 . S
C2808 H2833 0.950 . S
C2809 C2808 1.349 . S
C2809 C2825 1.349 . S
C2810 C2808 1.327 . S
C2810 C2829 1.429 . S
C2810 H2834 0.950 . S
C2811 C2828 1.574 . S
C2811 C2830 1.368 . S
C2811 H2835 0.949 . S
H2812 C2816 0.949 . S
C2813 C2814 1.349 . S
C2813 C2815 1.327 . S
C2813 H2836 0.950 . S
C2814 C2813 1.349 . S
C2814 C2826 1.349 . S
C2815 C2813 1.327 . S
C2815 C2831 1.429 . S
C2815 H2837 0.950 . S
C2816 H2812 0.949 . S
C2816 C2824 1.574 . S
C2816 C2832 1.368 . S
H2817 C2825 0.950 . S
H2818 C2823 0.950 . S
H2819 C2824 0.949 . S
H2820 C2826 0.950 . S
H2821 C2827 0.950 . S
H2822 C2828 0.949 . S
C2823 H2818 0.950 . S
C2823 C2825 1.327 . S
C2823 C2829 1.429 . S
C2824 C2816 1.574 . S
C2824 H2819 0.949 . S
C2824 C2830 1.368 . S
C2825 C2809 1.349 . S
C2825 H2817 0.950 . S
C2825 C2823 1.327 . S
C2826 C2814 1.349 . S
C2826 H2820 0.950 . S
C2826 C2827 1.327 . S
C2827 H2821 0.950 . S
C2827 C2826 1.327 . S
C2827 C2831 1.429 . S
C2828 C2811 1.574 . S
C2828 H2822 0.949 . S
C2828 C2832 1.368 . S
C2829 C2810 1.429 . S
C2829 C2823 1.429 . S
C2829 C2830 1.523 . S
C2830 C2811 1.368 . S
C2830 C2824 1.368 . S
C2830 C2829 1.523 . S
C2831 C2815 1.429 . S
C2831 C2827 1.429 . S
C2831 C2832 1.523 . S
C2832 C2816 1.368 . S
C2832 C2828 1.368 . S
C2832 C2831 1.523 . S
H2833 C2808 0.950 . S
H2834 C2810 0.950 . S
H2835 C2811 0.949 . S
H2836 C2813 0.950 . S
H2837 C2815 0.950 . S
C2838 C2839 1.349 . S
C2838 C2840 1.327 . S
C2838 H2863 0.950 . S
C2839 C2838 1.349 . S
C2839 C2855 1.349 . S
C2840 C2838 1.327 . S
C2840 C2859 1.429 . S
C2840 H2864 0.950 . S
C2841 C2858 1.574 . S
C2841 C2860 1.368 . S
C2841 H2865 0.949 . S
H2842 C2846 0.949 . S
C2843 C2844 1.349 . S
C2843 C2845 1.327 . S
C2843 H2866 0.950 . S
C2844 C2843 1.349 . S
C2844 C2856 1.349 . S
C2845 C2843 1.327 . S
C2845 C2861 1.429 . S
C2845 H2867 0.950 . S
C2846 H2842 0.949 . S
C2846 C2854 1.574 . S
C2846 C2862 1.368 . S
H2847 C2855 0.950 . S
H2848 C2853 0.950 . S
H2849 C2854 0.949 . S
H2850 C2856 0.950 . S
H2851 C2857 0.950 . S
H2852 C2858 0.949 . S
C2853 H2848 0.950 . S
C2853 C2855 1.327 . S
C2853 C2859 1.429 . S
C2854 C2846 1.574 . S
C2854 H2849 0.949 . S
C2854 C2860 1.368 . S
C2855 C2839 1.349 . S
C2855 H2847 0.950 . S
C2855 C2853 1.327 . S
C2856 C2844 1.349 . S
C2856 H2850 0.950 . S
C2856 C2857 1.327 . S
C2857 H2851 0.950 . S
C2857 C2856 1.327 . S
C2857 C2861 1.429 . S
C2858 C2841 1.574 . S
C2858 H2852 0.949 . S
C2858 C2862 1.368 . S
C2859 C2840 1.429 . S
C2859 C2853 1.429 . S
C2859 C2860 1.523 . S
C2860 C2841 1.368 . S
C2860 C2854 1.368 . S
C2860 C2859 1.523 . S
C2861 C2845 1.429 . S
C2861 C2857 1.429 . S
C2861 C2862 1.523 . S
C2862 C2846 1.368 . S
C2862 C2858 1.368 . S
C2862 C2861 1.523 . S
H2863 C2838 0.950 . S
H2864 C2840 0.950 . S
H2865 C2841 0.949 . S
H2866 C2843 0.950 . S
H2867 C2845 0.950 . S
C2868 C2869 1.349 . S
C2868 C2870 1.327 . S
C2868 H2893 0.950 . S
C2869 C2868 1.349 . S
C2869 C2885 1.349 . S
C2870 C2868 1.327 . S
C2870 C2889 1.429 . S
C2870 H2894 0.950 . S
C2871 C2888 1.574 . S
C2871 C2890 1.368 . S
C2871 H2895 0.949 . S
H2872 C2876 0.949 . S
C2873 C2874 1.349 . S
C2873 C2875 1.327 . S
C2873 H2896 0.950 . S
C2874 C2873 1.349 . S
C2874 C2886 1.349 . S
C2875 C2873 1.327 . S
C2875 C2891 1.429 . S
C2875 H2897 0.950 . S
C2876 H2872 0.949 . S
C2876 C2884 1.574 . S
C2876 C2892 1.368 . S
H2877 C2885 0.950 . S
H2878 C2883 0.950 . S
H2879 C2884 0.949 . S
H2880 C2886 0.950 . S
H2881 C2887 0.950 . S
H2882 C2888 0.949 . S
C2883 H2878 0.950 . S
C2883 C2885 1.327 . S
C2883 C2889 1.429 . S
C2884 C2876 1.574 . S
C2884 H2879 0.949 . S
C2884 C2890 1.368 . S
C2885 C2869 1.349 . S
C2885 H2877 0.950 . S
C2885 C2883 1.327 . S
C2886 C2874 1.349 . S
C2886 H2880 0.950 . S
C2886 C2887 1.327 . S
C2887 H2881 0.950 . S
C2887 C2886 1.327 . S
C2887 C2891 1.429 . S
C2888 C2871 1.574 . S
C2888 H2882 0.949 . S
C2888 C2892 1.368 . S
C2889 C2870 1.429 . S
C2889 C2883 1.429 . S
C2889 C2890 1.523 . S
C2890 C2871 1.368 . S
C2890 C2884 1.368 . S
C2890 C2889 1.523 . S
C2891 C2875 1.429 . S
C2891 C2887 1.429 . S
C2891 C2892 1.523 . S
C2892 C2876 1.368 . S
C2892 C2888 1.368 . S
C2892 C2891 1.523 . S
H2893 C2868 0.950 . S
H2894 C2870 0.950 . S
H2895 C2871 0.949 . S
H2896 C2873 0.950 . S
H2897 C2875 0.950 . S
C2898 C2899 1.349 . S
C2898 C2900 1.327 . S
C2898 H2923 0.950 . S
C2899 C2898 1.349 . S
C2899 C2915 1.349 . S
C2900 C2898 1.327 . S
C2900 C2919 1.429 . S
C2900 H2924 0.950 . S
C2901 C2918 1.574 . S
C2901 C2920 1.368 . S
C2901 H2925 0.949 . S
H2902 C2906 0.949 . S
C2903 C2904 1.349 . S
C2903 C2905 1.327 . S
C2903 H2926 0.950 . S
C2904 C2903 1.349 . S
C2904 C2916 1.349 . S
C2905 C2903 1.327 . S
C2905 C2921 1.429 . S
C2905 H2927 0.950 . S
C2906 H2902 0.949 . S
C2906 C2914 1.574 . S
C2906 C2922 1.368 . S
H2907 C2915 0.950 . S
H2908 C2913 0.950 . S
H2909 C2914 0.949 . S
H2910 C2916 0.950 . S
H2911 C2917 0.950 . S
H2912 C2918 0.949 . S
C2913 H2908 0.950 . S
C2913 C2915 1.327 . S
C2913 C2919 1.429 . S
C2914 C2906 1.574 . S
C2914 H2909 0.949 . S
C2914 C2920 1.368 . S
C2915 C2899 1.349 . S
C2915 H2907 0.950 . S
C2915 C2913 1.327 . S
C2916 C2904 1.349 . S
C2916 H2910 0.950 . S
C2916 C2917 1.327 . S
C2917 H2911 0.950 . S
C2917 C2916 1.327 . S
C2917 C2921 1.429 . S
C2918 C2901 1.574 . S
C2918 H2912 0.949 . S
C2918 C2922 1.368 . S
C2919 C2900 1.429 . S
C2919 C2913 1.429 . S
C2919 C2920 1.523 . S
C2920 C2901 1.368 . S
C2920 C2914 1.368 . S
C2920 C2919 1.523 . S
C2921 C2905 1.429 . S
C2921 C2917 1.429 . S
C2921 C2922 1.523 . S
C2922 C2906 1.368 . S
C2922 C2918 1.368 . S
C2922 C2921 1.523 . S
H2923 C2898 0.950 . S
H2924 C2900 0.950 . S
H2925 C2901 0.949 . S
H2926 C2903 0.950 . S
H2927 C2905 0.950 . S
C2928 C2929 1.349 . S
C2928 C2930 1.327 . S
C2928 H2953 0.950 . S
C2929 C2928 1.349 . S
C2929 C2945 1.349 . S
C2930 C2928 1.327 . S
C2930 C2949 1.429 . S
C2930 H2954 0.950 . S
C2931 C2948 1.574 . S
C2931 C2950 1.368 . S
C2931 H2955 0.949 . S
H2932 C2936 0.949 . S
C2933 C2934 1.349 . S
C2933 C2935 1.327 . S
C2933 H2956 0.950 . S
C2934 C2933 1.349 . S
C2934 C2946 1.349 . S
C2935 C2933 1.327 . S
C2935 C2951 1.429 . S
C2935 H2957 0.950 . S
C2936 H2932 0.949 . S
C2936 C2944 1.574 . S
C2936 C2952 1.368 . S
H2937 C2945 0.950 . S
H2938 C2943 0.950 . S
H2939 C2944 0.949 . S
H2940 C2946 0.950 . S
H2941 C2947 0.950 . S
H2942 C2948 0.949 . S
C2943 H2938 0.950 . S
C2943 C2945 1.327 . S
C2943 C2949 1.429 . S
C2944 C2936 1.574 . S
C2944 H2939 0.949 . S
C2944 C2950 1.368 . S
C2945 C2929 1.349 . S
C2945 H2937 0.950 . S
C2945 C2943 1.327 . S
C2946 C2934 1.349 . S
C2946 H2940 0.950 . S
C2946 C2947 1.327 . S
C2947 H2941 0.950 . S
C2947 C2946 1.327 . S
C2947 C2951 1.429 . S
C2948 C2931 1.574 . S
C2948 H2942 0.949 . S
C2948 C2952 1.368 . S
C2949 C2930 1.429 . S
C2949 C2943 1.429 . S
C2949 C2950 1.523 . S
C2950 C2931 1.368 . S
C2950 C2944 1.368 . S
C2950 C2949 1.523 . S
C2951 C2935 1.429 . S
C2951 C2947 1.429 . S
C2951 C2952 1.523 . S
C2952 C2936 1.368 . S
C2952 C2948 1.368 . S
C2952 C2951 1.523 . S
H2953 C2928 0.950 . S
H2954 C2930 0.950 . S
H2955 C2931 0.949 . S
H2956 C2933 0.950 . S
H2957 C2935 0.950 . S
C2958 C2959 1.349 . S
C2958 C2960 1.327 . S
C2958 H2983 0.950 . S
C2959 C2958 1.349 . S
C2959 C2975 1.349 . S
C2960 C2958 1.327 . S
C2960 C2979 1.429 . S
C2960 H2984 0.950 . S
C2961 C2978 1.574 . S
C2961 C2980 1.368 . S
C2961 H2985 0.949 . S
H2962 C2966 0.949 . S
C2963 C2964 1.349 . S
C2963 C2965 1.327 . S
C2963 H2986 0.950 . S
C2964 C2963 1.349 . S
C2964 C2976 1.349 . S
C2965 C2963 1.327 . S
C2965 C2981 1.429 . S
C2965 H2987 0.950 . S
C2966 H2962 0.949 . S
C2966 C2974 1.574 . S
C2966 C2982 1.368 . S
H2967 C2975 0.950 . S
H2968 C2973 0.950 . S
H2969 C2974 0.949 . S
H2970 C2976 0.950 . S
H2971 C2977 0.950 . S
H2972 C2978 0.949 . S
C2973 H2968 0.950 . S
C2973 C2975 1.327 . S
C2973 C2979 1.429 . S
C2974 C2966 1.574 . S
C2974 H2969 0.949 . S
C2974 C2980 1.368 . S
C2975 C2959 1.349 . S
C2975 H2967 0.950 . S
C2975 C2973 1.327 . S
C2976 C2964 1.349 . S
C2976 H2970 0.950 . S
C2976 C2977 1.327 . S
C2977 H2971 0.950 . S
C2977 C2976 1.327 . S
C2977 C2981 1.429 . S
C2978 C2961 1.574 . S
C2978 H2972 0.949 . S
C2978 C2982 1.368 . S
C2979 C2960 1.429 . S
C2979 C2973 1.429 . S
C2979 C2980 1.523 . S
C2980 C2961 1.368 . S
C2980 C2974 1.368 . S
C2980 C2979 1.523 . S
C2981 C2965 1.429 . S
C2981 C2977 1.429 . S
C2981 C2982 1.523 . S
C2982 C2966 1.368 . S
C2982 C2978 1.368 . S
C2982 C2981 1.523 . S
H2983 C2958 0.950 . S
H2984 C2960 0.950 . S
H2985 C2961 0.949 . S
H2986 C2963 0.950 . S
H2987 C2965 0.950 . S
C2988 C2989 1.349 . S
C2988 C2990 1.327 . S
C2988 H3013 0.950 . S
C2989 C2988 1.349 . S
C2989 C3005 1.349 . S
C2990 C2988 1.327 . S
C2990 C3009 1.429 . S
C2990 H3014 0.950 . S
C2991 C3008 1.574 . S
C2991 C3010 1.368 . S
C2991 H3015 0.949 . S
H2992 C2996 0.949 . S
C2993 C2994 1.349 . S
C2993 C2995 1.327 . S
C2993 H3016 0.950 . S
C2994 C2993 1.349 . S
C2994 C3006 1.349 . S
C2995 C2993 1.327 . S
C2995 C3011 1.429 . S
C2995 H3017 0.950 . S
C2996 H2992 0.949 . S
C2996 C3004 1.574 . S
C2996 C3012 1.368 . S
H2997 C3005 0.950 . S
H2998 C3003 0.950 . S
H2999 C3004 0.949 . S
H3000 C3006 0.950 . S
H3001 C3007 0.950 . S
H3002 C3008 0.949 . S
C3003 H2998 0.950 . S
C3003 C3005 1.327 . S
C3003 C3009 1.429 . S
C3004 C2996 1.574 . S
C3004 H2999 0.949 . S
C3004 C3010 1.368 . S
C3005 C2989 1.349 . S
C3005 H2997 0.950 . S
C3005 C3003 1.327 . S
C3006 C2994 1.349 . S
C3006 H3000 0.950 . S
C3006 C3007 1.327 . S
C3007 H3001 0.950 . S
C3007 C3006 1.327 . S
C3007 C3011 1.429 . S
C3008 C2991 1.574 . S
C3008 H3002 0.949 . S
C3008 C3012 1.368 . S
C3009 C2990 1.429 . S
C3009 C3003 1.429 . S
C3009 C3010 1.523 . S
C3010 C2991 1.368 . S
C3010 C3004 1.368 . S
C3010 C3009 1.523 . S
C3011 C2995 1.429 . S
C3011 C3007 1.429 . S
C3011 C3012 1.523 . S
C3012 C2996 1.368 . S
C3012 C3008 1.368 . S
C3012 C3011 1.523 . S
H3013 C2988 0.950 . S
H3014 C2990 0.950 . S
H3015 C2991 0.949 . S
H3016 C2993 0.950 . S
H3017 C2995 0.950 . S
C3018 C3019 1.349 . S
C3018 C3020 1.327 . S
C3018 H3043 0.950 . S
C3019 C3018 1.349 . S
C3019 C3035 1.349 . S
C3020 C3018 1.327 . S
C3020 C3039 1.429 . S
C3020 H3044 0.950 . S
C3021 C3038 1.574 . S
C3021 C3040 1.368 . S
C3021 H3045 0.949 . S
H3022 C3026 0.949 . S
C3023 C3024 1.349 . S
C3023 C3025 1.327 . S
C3023 H3046 0.950 . S
C3024 C3023 1.349 . S
C3024 C3036 1.349 . S
C3025 C3023 1.327 . S
C3025 C3041 1.429 . S
C3025 H3047 0.950 . S
C3026 H3022 0.949 . S
C3026 C3034 1.574 . S
C3026 C3042 1.368 . S
H3027 C3035 0.950 . S
H3028 C3033 0.950 . S
H3029 C3034 0.949 . S
H3030 C3036 0.950 . S
H3031 C3037 0.950 . S
H3032 C3038 0.949 . S
C3033 H3028 0.950 . S
C3033 C3035 1.327 . S
C3033 C3039 1.429 . S
C3034 C3026 1.574 . S
C3034 H3029 0.949 . S
C3034 C3040 1.368 . S
C3035 C3019 1.349 . S
C3035 H3027 0.950 . S
C3035 C3033 1.327 . S
C3036 C3024 1.349 . S
C3036 H3030 0.950 . S
C3036 C3037 1.327 . S
C3037 H3031 0.950 . S
C3037 C3036 1.327 . S
C3037 C3041 1.429 . S
C3038 C3021 1.574 . S
C3038 H3032 0.949 . S
C3038 C3042 1.368 . S
C3039 C3020 1.429 . S
C3039 C3033 1.429 . S
C3039 C3040 1.523 . S
C3040 C3021 1.368 . S
C3040 C3034 1.368 . S
C3040 C3039 1.523 . S
C3041 C3025 1.429 . S
C3041 C3037 1.429 . S
C3041 C3042 1.523 . S
C3042 C3026 1.368 . S
C3042 C3038 1.368 . S
C3042 C3041 1.523 . S
H3043 C3018 0.950 . S
H3044 C3020 0.950 . S
H3045 C3021 0.949 . S
H3046 C3023 0.950 . S
H3047 C3025 0.950 . S
C3048 C3049 1.349 . S
C3048 C3050 1.327 . S
C3048 H3073 0.950 . S
C3049 C3048 1.349 . S
C3049 C3065 1.349 . S
C3050 C3048 1.327 . S
C3050 C3069 1.429 . S
C3050 H3074 0.950 . S
C3051 C3068 1.574 . S
C3051 C3070 1.368 . S
C3051 H3075 0.949 . S
H3052 C3056 0.949 . S
C3053 C3054 1.349 . S
C3053 C3055 1.327 . S
C3053 H3076 0.950 . S
C3054 C3053 1.349 . S
C3054 C3066 1.349 . S
C3055 C3053 1.327 . S
C3055 C3071 1.429 . S
C3055 H3077 0.950 . S
C3056 H3052 0.949 . S
C3056 C3064 1.574 . S
C3056 C3072 1.368 . S
H3057 C3065 0.950 . S
H3058 C3063 0.950 . S
H3059 C3064 0.949 . S
H3060 C3066 0.950 . S
H3061 C3067 0.950 . S
H3062 C3068 0.949 . S
C3063 H3058 0.950 . S
C3063 C3065 1.327 . S
C3063 C3069 1.429 . S
C3064 C3056 1.574 . S
C3064 H3059 0.949 . S
C3064 C3070 1.368 . S
C3065 C3049 1.349 . S
C3065 H3057 0.950 . S
C3065 C3063 1.327 . S
C3066 C3054 1.349 . S
C3066 H3060 0.950 . S
C3066 C3067 1.327 . S
C3067 H3061 0.950 . S
C3067 C3066 1.327 . S
C3067 C3071 1.429 . S
C3068 C3051 1.574 . S
C3068 H3062 0.949 . S
C3068 C3072 1.368 . S
C3069 C3050 1.429 . S
C3069 C3063 1.429 . S
C3069 C3070 1.523 . S
C3070 C3051 1.368 . S
C3070 C3064 1.368 . S
C3070 C3069 1.523 . S
C3071 C3055 1.429 . S
C3071 C3067 1.429 . S
C3071 C3072 1.523 . S
C3072 C3056 1.368 . S
C3072 C3068 1.368 . S
C3072 C3071 1.523 . S
H3073 C3048 0.950 . S
H3074 C3050 0.950 . S
H3075 C3051 0.949 . S
H3076 C3053 0.950 . S
H3077 C3055 0.950 . S
C3078 C3079 1.349 . S
C3078 C3080 1.327 . S
C3078 H3103 0.950 . S
C3079 C3078 1.349 . S
C3079 C3095 1.349 . S
C3080 C3078 1.327 . S
C3080 C3099 1.429 . S
C3080 H3104 0.950 . S
C3081 C3098 1.574 . S
C3081 C3100 1.368 . S
C3081 H3105 0.949 . S
H3082 C3086 0.949 . S
C3083 C3084 1.349 . S
C3083 C3085 1.327 . S
C3083 H3106 0.950 . S
C3084 C3083 1.349 . S
C3084 C3096 1.349 . S
C3085 C3083 1.327 . S
C3085 C3101 1.429 . S
C3085 H3107 0.950 . S
C3086 H3082 0.949 . S
C3086 C3094 1.574 . S
C3086 C3102 1.368 . S
H3087 C3095 0.950 . S
H3088 C3093 0.950 . S
H3089 C3094 0.949 . S
H3090 C3096 0.950 . S
H3091 C3097 0.950 . S
H3092 C3098 0.949 . S
C3093 H3088 0.950 . S
C3093 C3095 1.327 . S
C3093 C3099 1.429 . S
C3094 C3086 1.574 . S
C3094 H3089 0.949 . S
C3094 C3100 1.368 . S
C3095 C3079 1.349 . S
C3095 H3087 0.950 . S
C3095 C3093 1.327 . S
C3096 C3084 1.349 . S
C3096 H3090 0.950 . S
C3096 C3097 1.327 . S
C3097 H3091 0.950 . S
C3097 C3096 1.327 . S
C3097 C3101 1.429 . S
C3098 C3081 1.574 . S
C3098 H3092 0.949 . S
C3098 C3102 1.368 . S
C3099 C3080 1.429 . S
C3099 C3093 1.429 . S
C3099 C3100 1.523 . S
C3100 C3081 1.368 . S
C3100 C3094 1.368 . S
C3100 C3099 1.523 . S
C3101 C3085 1.429 . S
C3101 C3097 1.429 . S
C3101 C3102 1.523 . S
C3102 C3086 1.368 . S
C3102 C3098 1.368 . S
C3102 C3101 1.523 . S
H3103 C3078 0.950 . S
H3104 C3080 0.950 . S
H3105 C3081 0.949 . S
H3106 C3083 0.950 . S
H3107 C3085 0.950 . S
C3108 C3109 1.349 . S
C3108 C3110 1.327 . S
C3108 H3133 0.950 . S
C3109 C3108 1.349 . S
C3109 C3125 1.349 . S
C3110 C3108 1.327 . S
C3110 C3129 1.429 . S
C3110 H3134 0.950 . S
C3111 C3128 1.574 . S
C3111 C3130 1.368 . S
C3111 H3135 0.949 . S
H3112 C3116 0.949 . S
C3113 C3114 1.349 . S
C3113 C3115 1.327 . S
C3113 H3136 0.950 . S
C3114 C3113 1.349 . S
C3114 C3126 1.349 . S
C3115 C3113 1.327 . S
C3115 C3131 1.429 . S
C3115 H3137 0.950 . S
C3116 H3112 0.949 . S
C3116 C3124 1.574 . S
C3116 C3132 1.368 . S
H3117 C3125 0.950 . S
H3118 C3123 0.950 . S
H3119 C3124 0.949 . S
H3120 C3126 0.950 . S
H3121 C3127 0.950 . S
H3122 C3128 0.949 . S
C3123 H3118 0.950 . S
C3123 C3125 1.327 . S
C3123 C3129 1.429 . S
C3124 C3116 1.574 . S
C3124 H3119 0.949 . S
C3124 C3130 1.368 . S
C3125 C3109 1.349 . S
C3125 H3117 0.950 . S
C3125 C3123 1.327 . S
C3126 C3114 1.349 . S
C3126 H3120 0.950 . S
C3126 C3127 1.327 . S
C3127 H3121 0.950 . S
C3127 C3126 1.327 . S
C3127 C3131 1.429 . S
C3128 C3111 1.574 . S
C3128 H3122 0.949 . S
C3128 C3132 1.368 . S
C3129 C3110 1.429 . S
C3129 C3123 1.429 . S
C3129 C3130 1.523 . S
C3130 C3111 1.368 . S
C3130 C3124 1.368 . S
C3130 C3129 1.523 . S
C3131 C3115 1.429 . S
C3131 C3127 1.429 . S
C3131 C3132 1.523 . S
C3132 C3116 1.368 . S
C3132 C3128 1.368 . S
C3132 C3131 1.523 . S
H3133 C3108 0.950 . S
H3134 C3110 0.950 . S
H3135 C3111 0.949 . S
H3136 C3113 0.950 . S
H3137 C3115 0.950 . S
C3138 C3139 1.349 . S
C3138 C3140 1.327 . S
C3138 H3163 0.950 . S
C3139 C3138 1.349 . S
C3139 C3155 1.349 . S
C3140 C3138 1.327 . S
C3140 C3159 1.429 . S
C3140 H3164 0.950 . S
C3141 C3158 1.574 . S
C3141 C3160 1.368 . S
C3141 H3165 0.949 . S
H3142 C3146 0.949 . S
C3143 C3144 1.349 . S
C3143 C3145 1.327 . S
C3143 H3166 0.950 . S
C3144 C3143 1.349 . S
C3144 C3156 1.349 . S
C3145 C3143 1.327 . S
C3145 C3161 1.429 . S
C3145 H3167 0.950 . S
C3146 H3142 0.949 . S
C3146 C3154 1.574 . S
C3146 C3162 1.368 . S
H3147 C3155 0.950 . S
H3148 C3153 0.950 . S
H3149 C3154 0.949 . S
H3150 C3156 0.950 . S
H3151 C3157 0.950 . S
H3152 C3158 0.949 . S
C3153 H3148 0.950 . S
C3153 C3155 1.327 . S
C3153 C3159 1.429 . S
C3154 C3146 1.574 . S
C3154 H3149 0.949 . S
C3154 C3160 1.368 . S
C3155 C3139 1.349 . S
C3155 H3147 0.950 . S
C3155 C3153 1.327 . S
C3156 C3144 1.349 . S
C3156 H3150 0.950 . S
C3156 C3157 1.327 . S
C3157 H3151 0.950 . S
C3157 C3156 1.327 . S
C3157 C3161 1.429 . S
C3158 C3141 1.574 . S
C3158 H3152 0.949 . S
C3158 C3162 1.368 . S
C3159 C3140 1.429 . S
C3159 C3153 1.429 . S
C3159 C3160 1.523 . S
C3160 C3141 1.368 . S
C3160 C3154 1.368 . S
C3160 C3159 1.523 . S
C3161 C3145 1.429 . S
C3161 C3157 1.429 . S
C3161 C3162 1.523 . S
C3162 C3146 1.368 . S
C3162 C3158 1.368 . S
C3162 C3161 1.523 . S
H3163 C3138 0.950 . S
H3164 C3140 0.950 . S
H3165 C3141 0.949 . S
H3166 C3143 0.950 . S
H3167 C3145 0.950 . S
C3168 C3169 1.349 . S
C3168 C3170 1.327 . S
C3168 H3193 0.950 . S
C3169 C3168 1.349 . S
C3169 C3185 1.349 . S
C3170 C3168 1.327 . S
C3170 C3189 1.429 . S
C3170 H3194 0.950 . S
C3171 C3188 1.574 . S
C3171 C3190 1.368 . S
C3171 H3195 0.949 . S
H3172 C3176 0.949 . S
C3173 C3174 1.349 . S
C3173 C3175 1.327 . S
C3173 H3196 0.950 . S
C3174 C3173 1.349 . S
C3174 C3186 1.349 . S
C3175 C3173 1.327 . S
C3175 C3191 1.429 . S
C3175 H3197 0.950 . S
C3176 H3172 0.949 . S
C3176 C3184 1.574 . S
C3176 C3192 1.368 . S
H3177 C3185 0.950 . S
H3178 C3183 0.950 . S
H3179 C3184 0.949 . S
H3180 C3186 0.950 . S
H3181 C3187 0.950 . S
H3182 C3188 0.949 . S
C3183 H3178 0.950 . S
C3183 C3185 1.327 . S
C3183 C3189 1.429 . S
C3184 C3176 1.574 . S
C3184 H3179 0.949 . S
C3184 C3190 1.368 . S
C3185 C3169 1.349 . S
C3185 H3177 0.950 . S
C3185 C3183 1.327 . S
C3186 C3174 1.349 . S
C3186 H3180 0.950 . S
C3186 C3187 1.327 . S
C3187 H3181 0.950 . S
C3187 C3186 1.327 . S
C3187 C3191 1.429 . S
C3188 C3171 1.574 . S
C3188 H3182 0.949 . S
C3188 C3192 1.368 . S
C3189 C3170 1.429 . S
C3189 C3183 1.429 . S
C3189 C3190 1.523 . S
C3190 C3171 1.368 . S
C3190 C3184 1.368 . S
C3190 C3189 1.523 . S
C3191 C3175 1.429 . S
C3191 C3187 1.429 . S
C3191 C3192 1.523 . S
C3192 C3176 1.368 . S
C3192 C3188 1.368 . S
C3192 C3191 1.523 . S
H3193 C3168 0.950 . S
H3194 C3170 0.950 . S
H3195 C3171 0.949 . S
H3196 C3173 0.950 . S
H3197 C3175 0.950 . S
C3198 C3199 1.349 . S
C3198 C3200 1.327 . S
C3198 H3223 0.950 . S
C3199 C3198 1.349 . S
C3199 C3215 1.349 . S
C3200 C3198 1.327 . S
C3200 C3219 1.429 . S
C3200 H3224 0.950 . S
C3201 C3218 1.574 . S
C3201 C3220 1.368 . S
C3201 H3225 0.949 . S
H3202 C3206 0.949 . S
C3203 C3204 1.349 . S
C3203 C3205 1.327 . S
C3203 H3226 0.950 . S
C3204 C3203 1.349 . S
C3204 C3216 1.349 . S
C3205 C3203 1.327 . S
C3205 C3221 1.429 . S
C3205 H3227 0.950 . S
C3206 H3202 0.949 . S
C3206 C3214 1.574 . S
C3206 C3222 1.368 . S
H3207 C3215 0.950 . S
H3208 C3213 0.950 . S
H3209 C3214 0.949 . S
H3210 C3216 0.950 . S
H3211 C3217 0.950 . S
H3212 C3218 0.949 . S
C3213 H3208 0.950 . S
C3213 C3215 1.327 . S
C3213 C3219 1.429 . S
C3214 C3206 1.574 . S
C3214 H3209 0.949 . S
C3214 C3220 1.368 . S
C3215 C3199 1.349 . S
C3215 H3207 0.950 . S
C3215 C3213 1.327 . S
C3216 C3204 1.349 . S
C3216 H3210 0.950 . S
C3216 C3217 1.327 . S
C3217 H3211 0.950 . S
C3217 C3216 1.327 . S
C3217 C3221 1.429 . S
C3218 C3201 1.574 . S
C3218 H3212 0.949 . S
C3218 C3222 1.368 . S
C3219 C3200 1.429 . S
C3219 C3213 1.429 . S
C3219 C3220 1.523 . S
C3220 C3201 1.368 . S
C3220 C3214 1.368 . S
C3220 C3219 1.523 . S
C3221 C3205 1.429 . S
C3221 C3217 1.429 . S
C3221 C3222 1.523 . S
C3222 C3206 1.368 . S
C3222 C3218 1.368 . S
C3222 C3221 1.523 . S
H3223 C3198 0.950 . S
H3224 C3200 0.950 . S
H3225 C3201 0.949 . S
H3226 C3203 0.950 . S
H3227 C3205 0.950 . S
C3228 C3229 1.349 . S
C3228 C3230 1.327 . S
C3228 H3253 0.950 . S
C3229 C3228 1.349 . S
C3229 C3245 1.349 . S
C3230 C3228 1.327 . S
C3230 C3249 1.429 . S
C3230 H3254 0.950 . S
C3231 C3248 1.574 . S
C3231 C3250 1.368 . S
C3231 H3255 0.949 . S
H3232 C3236 0.949 . S
C3233 C3234 1.349 . S
C3233 C3235 1.327 . S
C3233 H3256 0.950 . S
C3234 C3233 1.349 . S
C3234 C3246 1.349 . S
C3235 C3233 1.327 . S
C3235 C3251 1.429 . S
C3235 H3257 0.950 . S
C3236 H3232 0.949 . S
C3236 C3244 1.574 . S
C3236 C3252 1.368 . S
H3237 C3245 0.950 . S
H3238 C3243 0.950 . S
H3239 C3244 0.949 . S
H3240 C3246 0.950 . S
H3241 C3247 0.950 . S
H3242 C3248 0.949 . S
C3243 H3238 0.950 . S
C3243 C3245 1.327 . S
C3243 C3249 1.429 . S
C3244 C3236 1.574 . S
C3244 H3239 0.949 . S
C3244 C3250 1.368 . S
C3245 C3229 1.349 . S
C3245 H3237 0.950 . S
C3245 C3243 1.327 . S
C3246 C3234 1.349 . S
C3246 H3240 0.950 . S
C3246 C3247 1.327 . S
C3247 H3241 0.950 . S
C3247 C3246 1.327 . S
C3247 C3251 1.429 . S
C3248 C3231 1.574 . S
C3248 H3242 0.949 . S
C3248 C3252 1.368 . S
C3249 C3230 1.429 . S
C3249 C3243 1.429 . S
C3249 C3250 1.523 . S
C3250 C3231 1.368 . S
C3250 C3244 1.368 . S
C3250 C3249 1.523 . S
C3251 C3235 1.429 . S
C3251 C3247 1.429 . S
C3251 C3252 1.523 . S
C3252 C3236 1.368 . S
C3252 C3248 1.368 . S
C3252 C3251 1.523 . S
H3253 C3228 0.950 . S
H3254 C3230 0.950 . S
H3255 C3231 0.949 . S
H3256 C3233 0.950 . S
H3257 C3235 0.950 . S
C3258 C3259 1.349 . S
C3258 C3260 1.327 . S
C3258 H3283 0.950 . S
C3259 C3258 1.349 . S
C3259 C3275 1.349 . S
C3260 C3258 1.327 . S
C3260 C3279 1.429 . S
C3260 H3284 0.950 . S
C3261 C3278 1.574 . S
C3261 C3280 1.368 . S
C3261 H3285 0.949 . S
H3262 C3266 0.949 . S
C3263 C3264 1.349 . S
C3263 C3265 1.327 . S
C3263 H3286 0.950 . S
C3264 C3263 1.349 . S
C3264 C3276 1.349 . S
C3265 C3263 1.327 . S
C3265 C3281 1.429 . S
C3265 H3287 0.950 . S
C3266 H3262 0.949 . S
C3266 C3274 1.574 . S
C3266 C3282 1.368 . S
H3267 C3275 0.950 . S
H3268 C3273 0.950 . S
H3269 C3274 0.949 . S
H3270 C3276 0.950 . S
H3271 C3277 0.950 . S
H3272 C3278 0.949 . S
C3273 H3268 0.950 . S
C3273 C3275 1.327 . S
C3273 C3279 1.429 . S
C3274 C3266 1.574 . S
C3274 H3269 0.949 . S
C3274 C3280 1.368 . S
C3275 C3259 1.349 . S
C3275 H3267 0.950 . S
C3275 C3273 1.327 . S
C3276 C3264 1.349 . S
C3276 H3270 0.950 . S
C3276 C3277 1.327 . S
C3277 H3271 0.950 . S
C3277 C3276 1.327 . S
C3277 C3281 1.429 . S
C3278 C3261 1.574 . S
C3278 H3272 0.949 . S
C3278 C3282 1.368 . S
C3279 C3260 1.429 . S
C3279 C3273 1.429 . S
C3279 C3280 1.523 . S
C3280 C3261 1.368 . S
C3280 C3274 1.368 . S
C3280 C3279 1.523 . S
C3281 C3265 1.429 . S
C3281 C3277 1.429 . S
C3281 C3282 1.523 . S
C3282 C3266 1.368 . S
C3282 C3278 1.368 . S
C3282 C3281 1.523 . S
H3283 C3258 0.950 . S
H3284 C3260 0.950 . S
H3285 C3261 0.949 . S
H3286 C3263 0.950 . S
H3287 C3265 0.950 . S
C3288 C3289 1.349 . S
C3288 C3290 1.327 . S
C3288 H3313 0.950 . S
C3289 C3288 1.349 . S
C3289 C3305 1.349 . S
C3290 C3288 1.327 . S
C3290 C3309 1.429 . S
C3290 H3314 0.950 . S
C3291 C3308 1.574 . S
C3291 C3310 1.368 . S
C3291 H3315 0.949 . S
H3292 C3296 0.949 . S
C3293 C3294 1.349 . S
C3293 C3295 1.327 . S
C3293 H3316 0.950 . S
C3294 C3293 1.349 . S
C3294 C3306 1.349 . S
C3295 C3293 1.327 . S
C3295 C3311 1.429 . S
C3295 H3317 0.950 . S
C3296 H3292 0.949 . S
C3296 C3304 1.574 . S
C3296 C3312 1.368 . S
H3297 C3305 0.950 . S
H3298 C3303 0.950 . S
H3299 C3304 0.949 . S
H3300 C3306 0.950 . S
H3301 C3307 0.950 . S
H3302 C3308 0.949 . S
C3303 H3298 0.950 . S
C3303 C3305 1.327 . S
C3303 C3309 1.429 . S
C3304 C3296 1.574 . S
C3304 H3299 0.949 . S
C3304 C3310 1.368 . S
C3305 C3289 1.349 . S
C3305 H3297 0.950 . S
C3305 C3303 1.327 . S
C3306 C3294 1.349 . S
C3306 H3300 0.950 . S
C3306 C3307 1.327 . S
C3307 H3301 0.950 . S
C3307 C3306 1.327 . S
C3307 C3311 1.429 . S
C3308 C3291 1.574 . S
C3308 H3302 0.949 . S
C3308 C3312 1.368 . S
C3309 C3290 1.429 . S
C3309 C3303 1.429 . S
C3309 C3310 1.523 . S
C3310 C3291 1.368 . S
C3310 C3304 1.368 . S
C3310 C3309 1.523 . S
C3311 C3295 1.429 . S
C3311 C3307 1.429 . S
C3311 C3312 1.523 . S
C3312 C3296 1.368 . S
C3312 C3308 1.368 . S
C3312 C3311 1.523 . S
H3313 C3288 0.950 . S
H3314 C3290 0.950 . S
H3315 C3291 0.949 . S
H3316 C3293 0.950 . S
H3317 C3295 0.950 . S
C3318 C3319 1.349 . S
C3318 C3320 1.327 . S
C3318 H3343 0.950 . S
C3319 C3318 1.349 . S
C3319 C3335 1.349 . S
C3320 C3318 1.327 . S
C3320 C3339 1.429 . S
C3320 H3344 0.950 . S
C3321 C3338 1.574 . S
C3321 C3340 1.368 . S
C3321 H3345 0.949 . S
H3322 C3326 0.949 . S
C3323 C3324 1.349 . S
C3323 C3325 1.327 . S
C3323 H3346 0.950 . S
C3324 C3323 1.349 . S
C3324 C3336 1.349 . S
C3325 C3323 1.327 . S
C3325 C3341 1.429 . S
C3325 H3347 0.950 . S
C3326 H3322 0.949 . S
C3326 C3334 1.574 . S
C3326 C3342 1.368 . S
H3327 C3335 0.950 . S
H3328 C3333 0.950 . S
H3329 C3334 0.949 . S
H3330 C3336 0.950 . S
H3331 C3337 0.950 . S
H3332 C3338 0.949 . S
C3333 H3328 0.950 . S
C3333 C3335 1.327 . S
C3333 C3339 1.429 . S
C3334 C3326 1.574 . S
C3334 H3329 0.949 . S
C3334 C3340 1.368 . S
C3335 C3319 1.349 . S
C3335 H3327 0.950 . S
C3335 C3333 1.327 . S
C3336 C3324 1.349 . S
C3336 H3330 0.950 . S
C3336 C3337 1.327 . S
C3337 H3331 0.950 . S
C3337 C3336 1.327 . S
C3337 C3341 1.429 . S
C3338 C3321 1.574 . S
C3338 H3332 0.949 . S
C3338 C3342 1.368 . S
C3339 C3320 1.429 . S
C3339 C3333 1.429 . S
C3339 C3340 1.523 . S
C3340 C3321 1.368 . S
C3340 C3334 1.368 . S
C3340 C3339 1.523 . S
C3341 C3325 1.429 . S
C3341 C3337 1.429 . S
C3341 C3342 1.523 . S
C3342 C3326 1.368 . S
C3342 C3338 1.368 . S
C3342 C3341 1.523 . S
H3343 C3318 0.950 . S
H3344 C3320 0.950 . S
H3345 C3321 0.949 . S
H3346 C3323 0.950 . S
H3347 C3325 0.950 . S
C3348 C3349 1.349 . S
C3348 C3350 1.327 . S
C3348 H3373 0.950 . S
C3349 C3348 1.349 . S
C3349 C3365 1.349 . S
C3350 C3348 1.327 . S
C3350 C3369 1.429 . S
C3350 H3374 0.950 . S
C3351 C3368 1.574 . S
C3351 C3370 1.368 . S
C3351 H3375 0.949 . S
H3352 C3356 0.949 . S
C3353 C3354 1.349 . S
C3353 C3355 1.327 . S
C3353 H3376 0.950 . S
C3354 C3353 1.349 . S
C3354 C3366 1.349 . S
C3355 C3353 1.327 . S
C3355 C3371 1.429 . S
C3355 H3377 0.950 . S
C3356 H3352 0.949 . S
C3356 C3364 1.574 . S
C3356 C3372 1.368 . S
H3357 C3365 0.950 . S
H3358 C3363 0.950 . S
H3359 C3364 0.949 . S
H3360 C3366 0.950 . S
H3361 C3367 0.950 . S
H3362 C3368 0.949 . S
C3363 H3358 0.950 . S
C3363 C3365 1.327 . S
C3363 C3369 1.429 . S
C3364 C3356 1.574 . S
C3364 H3359 0.949 . S
C3364 C3370 1.368 . S
C3365 C3349 1.349 . S
C3365 H3357 0.950 . S
C3365 C3363 1.327 . S
C3366 C3354 1.349 . S
C3366 H3360 0.950 . S
C3366 C3367 1.327 . S
C3367 H3361 0.950 . S
C3367 C3366 1.327 . S
C3367 C3371 1.429 . S
C3368 C3351 1.574 . S
C3368 H3362 0.949 . S
C3368 C3372 1.368 . S
C3369 C3350 1.429 . S
C3369 C3363 1.429 . S
C3369 C3370 1.523 . S
C3370 C3351 1.368 . S
C3370 C3364 1.368 . S
C3370 C3369 1.523 . S
C3371 C3355 1.429 . S
C3371 C3367 1.429 . S
C3371 C3372 1.523 . S
C3372 C3356 1.368 . S
C3372 C3368 1.368 . S
C3372 C3371 1.523 . S
H3373 C3348 0.950 . S
H3374 C3350 0.950 . S
H3375 C3351 0.949 . S
H3376 C3353 0.950 . S
H3377 C3355 0.950 . S
C3378 C3379 1.349 . S
C3378 C3380 1.327 . S
C3378 H3403 0.950 . S
C3379 C3378 1.349 . S
C3379 C3395 1.349 . S
C3380 C3378 1.327 . S
C3380 C3399 1.429 . S
C3380 H3404 0.950 . S
C3381 C3398 1.574 . S
C3381 C3400 1.368 1_565 S
C3381 H3405 0.949 . S
H3382 C3386 0.949 . S
C3383 C3384 1.349 . S
C3383 C3385 1.327 . S
C3383 H3406 0.950 . S
C3384 C3383 1.349 . S
C3384 C3396 1.349 . S
C3385 C3383 1.327 . S
C3385 C3401 1.429 . S
C3385 H3407 0.950 . S
C3386 H3382 0.949 . S
C3386 C3394 1.574 . S
C3386 C3402 1.368 1_545 S
H3387 C3395 0.950 . S
H3388 C3393 0.950 1_565 S
H3389 C3394 0.949 . S
H3390 C3396 0.950 . S
H3391 C3397 0.950 1_545 S
H3392 C3398 0.949 . S
C3393 H3388 0.950 1_545 S
C3393 C3395 1.327 . S
C3393 C3399 1.429 . S
C3394 C3386 1.574 . S
C3394 H3389 0.949 . S
C3394 C3400 1.368 . S
C3395 C3379 1.349 . S
C3395 H3387 0.950 . S
C3395 C3393 1.327 . S
C3396 C3384 1.349 . S
C3396 H3390 0.950 . S
C3396 C3397 1.327 . S
C3397 H3391 0.950 1_565 S
C3397 C3396 1.327 . S
C3397 C3401 1.429 . S
C3398 C3381 1.574 . S
C3398 H3392 0.949 . S
C3398 C3402 1.368 . S
C3399 C3380 1.429 . S
C3399 C3393 1.429 . S
C3399 C3400 1.523 . S
C3400 C3381 1.368 1_545 S
C3400 C3394 1.368 . S
C3400 C3399 1.523 . S
C3401 C3385 1.429 . S
C3401 C3397 1.429 . S
C3401 C3402 1.523 . S
C3402 C3386 1.368 1_565 S
C3402 C3398 1.368 . S
C3402 C3401 1.523 . S
H3403 C3378 0.950 . S
H3404 C3380 0.950 . S
H3405 C3381 0.949 . S
H3406 C3383 0.950 . S
H3407 C3385 0.950 . S
C3408 C3409 1.349 . S
C3408 C3410 1.327 . S
C3408 H3433 0.950 . S
C3409 C3408 1.349 . S
C3409 C3425 1.349 . S
C3410 C3408 1.327 . S
C3410 C3429 1.429 . S
C3410 H3434 0.950 . S
C3411 C3428 1.574 . S
C3411 C3430 1.368 1_655 S
C3411 H3435 0.949 . S
H3412 C3416 0.949 . S
C3413 C3414 1.349 . S
C3413 C3415 1.327 . S
C3413 H3436 0.950 . S
C3414 C3413 1.349 . S
C3414 C3426 1.349 . S
C3415 C3413 1.327 . S
C3415 C3431 1.429 . S
C3415 H3437 0.950 . S
C3416 H3412 0.949 . S
C3416 C3424 1.574 . S
C3416 C3432 1.368 1_455 S
H3417 C3425 0.950 . S
H3418 C3423 0.903 1_655 S
H3419 C3424 0.949 . S
H3420 C3426 0.950 . S
H3421 C3427 0.950 1_455 S
H3422 C3428 0.949 . S
C3423 H3418 0.903 1_455 S
C3423 C3425 1.327 . S
C3423 C3429 1.429 . S
C3424 C3416 1.574 . S
C3424 H3419 0.949 . S
C3424 C3430 1.368 . S
C3425 C3409 1.349 . S
C3425 H3417 0.950 . S
C3425 C3423 1.327 . S
C3426 C3414 1.349 . S
C3426 H3420 0.950 . S
C3426 C3427 1.327 . S
C3427 H3421 0.950 1_655 S
C3427 C3426 1.327 . S
C3427 C3431 1.429 . S
C3428 C3411 1.574 . S
C3428 H3422 0.949 . S
C3428 C3432 1.368 . S
C3429 C3410 1.429 . S
C3429 C3423 1.429 . S
C3429 C3430 1.523 . S
C3430 C3411 1.368 1_455 S
C3430 C3424 1.368 . S
C3430 C3429 1.523 . S
C3431 C3415 1.429 . S
C3431 C3427 1.429 . S
C3431 C3432 1.523 . S
C3432 C3416 1.368 1_655 S
C3432 C3428 1.368 . S
C3432 C3431 1.523 . S
H3433 C3408 0.950 . S
H3434 C3410 0.950 . S
H3435 C3411 0.949 . S
H3436 C3413 0.950 . S
H3437 C3415 0.950 . S
C3438 C3439 1.349 . S
C3438 C3440 1.327 . S
C3438 H3463 0.950 . S
C3439 C3438 1.349 . S
C3439 C3455 1.349 . S
C3440 C3438 1.327 . S
C3440 C3459 1.429 . S
C3440 H3464 0.950 . S
C3441 C3458 1.574 . S
C3441 C3460 1.368 . S
C3441 H3465 0.949 . S
H3442 C3446 0.949 . S
C3443 C3444 1.349 . S
C3443 C3445 1.327 . S
C3443 H3466 0.950 . S
C3444 C3443 1.349 . S
C3444 C3456 1.349 . S
C3445 C3443 1.327 . S
C3445 C3461 1.429 . S
C3445 H3467 0.950 . S
C3446 H3442 0.949 . S
C3446 C3454 1.574 . S
C3446 C3462 1.368 . S
H3447 C3455 0.950 . S
H3448 C3453 0.950 . S
H3449 C3454 0.949 . S
H3450 C3456 0.950 . S
H3451 C3457 0.950 . S
H3452 C3458 0.949 . S
C3453 H3448 0.950 . S
C3453 C3455 1.327 . S
C3453 C3459 1.429 . S
C3454 C3446 1.574 . S
C3454 H3449 0.949 . S
C3454 C3460 1.368 . S
C3455 C3439 1.349 . S
C3455 H3447 0.950 . S
C3455 C3453 1.327 . S
C3456 C3444 1.349 . S
C3456 H3450 0.950 . S
C3456 C3457 1.327 . S
C3457 H3451 0.950 . S
C3457 C3456 1.327 . S
C3457 C3461 1.429 . S
C3458 C3441 1.574 . S
C3458 H3452 0.949 . S
C3458 C3462 1.368 . S
C3459 C3440 1.429 . S
C3459 C3453 1.429 . S
C3459 C3460 1.523 . S
C3460 C3441 1.368 . S
C3460 C3454 1.368 . S
C3460 C3459 1.523 . S
C3461 C3445 1.429 . S
C3461 C3457 1.429 . S
C3461 C3462 1.523 . S
C3462 C3446 1.368 . S
C3462 C3458 1.368 . S
C3462 C3461 1.523 . S
H3463 C3438 0.950 . S
H3464 C3440 0.950 . S
H3465 C3441 0.949 . S
H3466 C3443 0.950 . S
H3467 C3445 0.950 . S
C3468 C3469 1.349 . S
C3468 C3470 1.327 . S
C3468 H3493 0.950 . S
C3469 C3468 1.349 . S
C3469 C3485 1.349 . S
C3470 C3468 1.327 . S
C3470 C3489 1.429 . S
C3470 H3494 0.950 . S
C3471 C3488 1.574 . S
C3471 C3490 1.368 . S
C3471 H3495 0.949 . S
H3472 C3476 0.949 . S
C3473 C3474 1.349 . S
C3473 C3475 1.327 . S
C3473 H3496 0.950 . S
C3474 C3473 1.349 . S
C3474 C3486 1.349 . S
C3475 C3473 1.327 . S
C3475 C3491 1.429 . S
C3475 H3497 0.950 . S
C3476 H3472 0.949 . S
C3476 C3484 1.574 . S
C3476 C3492 1.368 . S
H3477 C3485 0.950 . S
H3478 C3483 0.950 . S
H3479 C3484 0.949 . S
H3480 C3486 0.950 . S
H3481 C3487 0.950 . S
H3482 C3488 0.949 . S
C3483 H3478 0.950 . S
C3483 C3485 1.327 . S
C3483 C3489 1.429 . S
C3484 C3476 1.574 . S
C3484 H3479 0.949 . S
C3484 C3490 1.368 1_545 S
C3485 C3469 1.349 . S
C3485 H3477 0.950 . S
C3485 C3483 1.327 . S
C3486 C3474 1.349 . S
C3486 H3480 0.950 . S
C3486 C3487 1.327 . S
C3487 H3481 0.950 . S
C3487 C3486 1.327 . S
C3487 C3491 1.429 . S
C3488 C3471 1.574 . S
C3488 H3482 0.949 . S
C3488 C3492 1.368 1_565 S
C3489 C3470 1.429 . S
C3489 C3483 1.429 . S
C3489 C3490 1.523 . S
C3490 C3471 1.368 . S
C3490 C3484 1.368 1_565 S
C3490 C3489 1.523 . S
C3491 C3475 1.429 . S
C3491 C3487 1.429 . S
C3491 C3492 1.523 . S
C3492 C3476 1.368 . S
C3492 C3488 1.368 1_545 S
C3492 C3491 1.523 . S
H3493 C3468 0.950 . S
H3494 C3470 0.950 . S
H3495 C3471 0.949 . S
H3496 C3473 0.950 . S
H3497 C3475 0.950 . S
C3498 C3499 1.349 . S
C3498 C3500 1.327 . S
C3498 H3523 0.950 . S
C3499 C3498 1.349 . S
C3499 C3515 1.349 . S
C3500 C3498 1.327 . S
C3500 C3519 1.429 . S
C3500 H3524 0.950 . S
C3501 C3518 1.574 . S
C3501 C3520 1.368 1_655 S
C3501 H3525 0.949 . S
H3502 C3506 0.949 . S
C3503 C3504 1.349 . S
C3503 C3505 1.327 . S
C3503 H3526 0.950 . S
C3504 C3503 1.349 . S
C3504 C3516 1.349 . S
C3505 C3503 1.327 . S
C3505 C3521 1.429 . S
C3505 H3527 0.950 . S
C3506 H3502 0.949 . S
C3506 C3514 1.574 . S
C3506 C3522 1.368 1_455 S
H3507 C3515 0.950 . S
H3508 C3513 0.950 . S
H3509 C3514 0.949 . S
H3510 C3516 0.950 . S
H3511 C3517 0.950 1_455 S
H3512 C3518 0.949 . S
C3513 H3508 0.950 . S
C3513 C3515 1.327 . S
C3513 C3519 1.429 . S
C3514 C3506 1.574 . S
C3514 H3509 0.949 . S
C3514 C3520 1.368 . S
C3515 C3499 1.349 . S
C3515 H3507 0.950 . S
C3515 C3513 1.327 . S
C3516 C3504 1.349 . S
C3516 H3510 0.950 . S
C3516 C3517 1.327 . S
C3517 H3511 0.950 1_655 S
C3517 C3516 1.327 . S
C3517 C3521 1.429 . S
C3518 C3501 1.574 . S
C3518 H3512 0.949 . S
C3518 C3522 1.368 . S
C3519 C3500 1.429 . S
C3519 C3513 1.429 . S
C3519 C3520 1.523 . S
C3520 C3501 1.368 1_455 S
C3520 C3514 1.368 . S
C3520 C3519 1.523 . S
C3521 C3505 1.429 . S
C3521 C3517 1.429 . S
C3521 C3522 1.523 . S
C3522 C3506 1.368 1_655 S
C3522 C3518 1.368 . S
C3522 C3521 1.523 . S
H3523 C3498 0.950 . S
H3524 C3500 0.950 . S
H3525 C3501 0.949 . S
H3526 C3503 0.950 . S
H3527 C3505 0.950 . S
C3528 C3529 1.349 . S
C3528 C3530 1.327 . S
C3528 H3553 0.950 . S
C3529 C3528 1.349 . S
C3529 C3545 1.349 . S
C3530 C3528 1.327 . S
C3530 C3549 1.429 . S
C3530 H3554 0.950 . S
C3531 C3548 1.574 . S
C3531 C3550 1.368 . S
C3531 H3555 0.949 . S
H3532 C3536 0.949 . S
C3533 C3534 1.349 . S
C3533 C3535 1.327 . S
C3533 H3556 0.950 . S
C3534 C3533 1.349 . S
C3534 C3546 1.349 . S
C3535 C3533 1.327 . S
C3535 C3551 1.429 . S
C3535 H3557 0.950 . S
C3536 H3532 0.949 . S
C3536 C3544 1.574 . S
C3536 C3552 1.368 . S
H3537 C3545 0.950 . S
H3538 C3543 0.950 . S
H3539 C3544 0.949 . S
H3540 C3546 0.950 . S
H3541 C3547 0.950 . S
H3542 C3548 0.949 . S
C3543 H3538 0.950 . S
C3543 C3545 1.327 . S
C3543 C3549 1.429 . S
C3544 C3536 1.574 . S
C3544 H3539 0.949 . S
C3544 C3550 1.368 . S
C3545 C3529 1.349 . S
C3545 H3537 0.950 . S
C3545 C3543 1.327 . S
C3546 C3534 1.349 . S
C3546 H3540 0.950 . S
C3546 C3547 1.327 . S
C3547 H3541 0.950 . S
C3547 C3546 1.327 . S
C3547 C3551 1.429 . S
C3548 C3531 1.574 . S
C3548 H3542 0.949 . S
C3548 C3552 1.368 . S
C3549 C3530 1.429 . S
C3549 C3543 1.429 . S
C3549 C3550 1.523 . S
C3550 C3531 1.368 . S
C3550 C3544 1.368 . S
C3550 C3549 1.523 . S
C3551 C3535 1.429 . S
C3551 C3547 1.429 . S
C3551 C3552 1.523 . S
C3552 C3536 1.368 . S
C3552 C3548 1.368 . S
C3552 C3551 1.523 . S
H3553 C3528 0.950 . S
H3554 C3530 0.950 . S
H3555 C3531 0.949 . S
H3556 C3533 0.950 . S
H3557 C3535 0.950 . S
C3558 C3559 1.349 . S
C3558 C3560 1.327 . S
C3558 H3583 0.950 . S
C3559 C3558 1.349 . S
C3559 C3575 1.349 . S
C3560 C3558 1.327 . S
C3560 C3579 1.429 . S
C3560 H3584 0.950 . S
C3561 C3578 1.574 . S
C3561 C3580 1.368 . S
C3561 H3585 0.949 . S
H3562 C3566 0.949 . S
C3563 C3564 1.349 . S
C3563 C3565 1.327 . S
C3563 H3586 0.950 . S
C3564 C3563 1.349 . S
C3564 C3576 1.349 . S
C3565 C3563 1.327 . S
C3565 C3581 1.429 . S
C3565 H3587 0.950 . S
C3566 H3562 0.949 . S
C3566 C3574 1.574 . S
C3566 C3582 1.368 . S
H3567 C3575 0.950 . S
H3568 C3573 0.950 . S
H3569 C3574 0.949 . S
H3570 C3576 0.950 . S
H3571 C3577 0.950 . S
H3572 C3578 0.949 . S
C3573 H3568 0.950 . S
C3573 C3575 1.327 . S
C3573 C3579 1.429 . S
C3574 C3566 1.574 . S
C3574 H3569 0.949 . S
C3574 C3580 1.368 . S
C3575 C3559 1.349 . S
C3575 H3567 0.950 . S
C3575 C3573 1.327 . S
C3576 C3564 1.349 . S
C3576 H3570 0.950 . S
C3576 C3577 1.327 . S
C3577 H3571 0.950 . S
C3577 C3576 1.327 . S
C3577 C3581 1.429 . S
C3578 C3561 1.574 . S
C3578 H3572 0.949 . S
C3578 C3582 1.368 . S
C3579 C3560 1.429 . S
C3579 C3573 1.429 . S
C3579 C3580 1.523 . S
C3580 C3561 1.368 . S
C3580 C3574 1.368 . S
C3580 C3579 1.523 . S
C3581 C3565 1.429 . S
C3581 C3577 1.429 . S
C3581 C3582 1.523 . S
C3582 C3566 1.368 . S
C3582 C3578 1.368 . S
C3582 C3581 1.523 . S
H3583 C3558 0.950 . S
H3584 C3560 0.950 . S
H3585 C3561 0.949 . S
H3586 C3563 0.950 . S
H3587 C3565 0.950 . S
C3588 C3589 1.349 . S
C3588 C3590 1.327 . S
C3588 H3613 0.950 . S
C3589 C3588 1.349 . S
C3589 C3605 1.349 . S
C3590 C3588 1.327 . S
C3590 C3609 1.429 . S
C3590 H3614 0.950 . S
C3591 C3608 1.574 . S
C3591 C3610 1.368 . S
C3591 H3615 0.949 . S
H3592 C3596 0.949 . S
C3593 C3594 1.349 . S
C3593 C3595 1.327 . S
C3593 H3616 0.950 . S
C3594 C3593 1.349 . S
C3594 C3606 1.349 . S
C3595 C3593 1.327 . S
C3595 C3611 1.429 . S
C3595 H3617 0.950 . S
C3596 H3592 0.949 . S
C3596 C3604 1.574 . S
C3596 C3612 1.368 . S
H3597 C3605 0.950 . S
H3598 C3603 0.950 . S
H3599 C3604 0.949 . S
H3600 C3606 0.950 . S
H3601 C3607 0.950 . S
H3602 C3608 0.949 . S
C3603 H3598 0.950 . S
C3603 C3605 1.327 . S
C3603 C3609 1.429 . S
C3604 C3596 1.574 . S
C3604 H3599 0.949 . S
C3604 C3610 1.368 . S
C3605 C3589 1.349 . S
C3605 H3597 0.950 . S
C3605 C3603 1.327 . S
C3606 C3594 1.349 . S
C3606 H3600 0.950 . S
C3606 C3607 1.327 . S
C3607 H3601 0.950 . S
C3607 C3606 1.327 . S
C3607 C3611 1.429 . S
C3608 C3591 1.574 . S
C3608 H3602 0.949 . S
C3608 C3612 1.368 . S
C3609 C3590 1.429 . S
C3609 C3603 1.429 . S
C3609 C3610 1.523 . S
C3610 C3591 1.368 . S
C3610 C3604 1.368 . S
C3610 C3609 1.523 . S
C3611 C3595 1.429 . S
C3611 C3607 1.429 . S
C3611 C3612 1.523 . S
C3612 C3596 1.368 . S
C3612 C3608 1.368 . S
C3612 C3611 1.523 . S
H3613 C3588 0.950 . S
H3614 C3590 0.950 . S
H3615 C3591 0.949 . S
H3616 C3593 0.950 . S
H3617 C3595 0.950 . S
C3618 C3619 1.349 . S
C3618 C3620 1.327 . S
C3618 H3643 0.950 . S
C3619 C3618 1.349 . S
C3619 C3635 1.349 . S
C3620 C3618 1.327 . S
C3620 C3639 1.429 . S
C3620 H3644 0.950 . S
C3621 C3638 1.574 . S
C3621 C3640 1.368 . S
C3621 H3645 0.949 . S
H3622 C3626 0.949 . S
C3623 C3624 1.349 . S
C3623 C3625 1.327 . S
C3623 H3646 0.950 . S
C3624 C3623 1.349 . S
C3624 C3636 1.349 . S
C3625 C3623 1.327 . S
C3625 C3641 1.429 . S
C3625 H3647 0.950 . S
C3626 H3622 0.949 . S
C3626 C3634 1.574 . S
C3626 C3642 1.368 . S
H3627 C3635 0.950 . S
H3628 C3633 0.950 . S
H3629 C3634 0.949 . S
H3630 C3636 0.950 . S
H3631 C3637 0.950 . S
H3632 C3638 0.949 . S
C3633 H3628 0.950 . S
C3633 C3635 1.327 . S
C3633 C3639 1.429 . S
C3634 C3626 1.574 . S
C3634 H3629 0.949 . S
C3634 C3640 1.368 . S
C3635 C3619 1.349 . S
C3635 H3627 0.950 . S
C3635 C3633 1.327 . S
C3636 C3624 1.349 . S
C3636 H3630 0.950 . S
C3636 C3637 1.327 . S
C3637 H3631 0.950 . S
C3637 C3636 1.327 . S
C3637 C3641 1.429 . S
C3638 C3621 1.574 . S
C3638 H3632 0.949 . S
C3638 C3642 1.368 . S
C3639 C3620 1.429 . S
C3639 C3633 1.429 . S
C3639 C3640 1.523 . S
C3640 C3621 1.368 . S
C3640 C3634 1.368 . S
C3640 C3639 1.523 . S
C3641 C3625 1.429 . S
C3641 C3637 1.429 . S
C3641 C3642 1.523 . S
C3642 C3626 1.368 . S
C3642 C3638 1.368 . S
C3642 C3641 1.523 . S
H3643 C3618 0.950 . S
H3644 C3620 0.950 . S
H3645 C3621 0.949 . S
H3646 C3623 0.950 . S
H3647 C3625 0.950 . S
C3648 C3649 1.349 . S
C3648 C3650 1.327 . S
C3648 H3673 0.950 . S
C3649 C3648 1.349 . S
C3649 C3665 1.349 . S
C3650 C3648 1.327 . S
C3650 C3669 1.429 . S
C3650 H3674 0.950 . S
C3651 C3668 1.574 . S
C3651 C3670 1.368 . S
C3651 H3675 0.949 . S
H3652 C3656 0.949 . S
C3653 C3654 1.349 . S
C3653 C3655 1.327 . S
C3653 H3676 0.950 . S
C3654 C3653 1.349 . S
C3654 C3666 1.349 . S
C3655 C3653 1.327 . S
C3655 C3671 1.429 . S
C3655 H3677 0.950 . S
C3656 H3652 0.949 . S
C3656 C3664 1.574 . S
C3656 C3672 1.368 . S
H3657 C3665 0.950 . S
H3658 C3663 0.950 . S
H3659 C3664 0.949 . S
H3660 C3666 0.950 . S
H3661 C3667 0.950 . S
H3662 C3668 0.949 . S
C3663 H3658 0.950 . S
C3663 C3665 1.327 . S
C3663 C3669 1.429 . S
C3664 C3656 1.574 . S
C3664 H3659 0.949 . S
C3664 C3670 1.368 . S
C3665 C3649 1.349 . S
C3665 H3657 0.950 . S
C3665 C3663 1.327 . S
C3666 C3654 1.349 . S
C3666 H3660 0.950 . S
C3666 C3667 1.327 . S
C3667 H3661 0.950 . S
C3667 C3666 1.327 . S
C3667 C3671 1.429 . S
C3668 C3651 1.574 . S
C3668 H3662 0.949 . S
C3668 C3672 1.368 . S
C3669 C3650 1.429 . S
C3669 C3663 1.429 . S
C3669 C3670 1.523 . S
C3670 C3651 1.368 . S
C3670 C3664 1.368 . S
C3670 C3669 1.523 . S
C3671 C3655 1.429 . S
C3671 C3667 1.429 . S
C3671 C3672 1.523 . S
C3672 C3656 1.368 . S
C3672 C3668 1.368 . S
C3672 C3671 1.523 . S
H3673 C3648 0.950 . S
H3674 C3650 0.950 . S
H3675 C3651 0.949 . S
H3676 C3653 0.950 . S
H3677 C3655 0.950 . S
C3678 C3679 1.349 . S
C3678 C3680 1.327 . S
C3678 H3703 0.950 . S
C3679 C3678 1.349 . S
C3679 C3695 1.349 . S
C3680 C3678 1.327 . S
C3680 C3699 1.429 . S
C3680 H3704 0.950 . S
C3681 C3698 1.574 . S
C3681 C3700 1.368 . S
C3681 H3705 0.949 . S
H3682 C3686 0.949 . S
C3683 C3684 1.349 . S
C3683 C3685 1.327 . S
C3683 H3706 0.950 . S
C3684 C3683 1.349 . S
C3684 C3696 1.349 . S
C3685 C3683 1.327 . S
C3685 C3701 1.429 . S
C3685 H3707 0.950 . S
C3686 H3682 0.949 . S
C3686 C3694 1.574 . S
C3686 C3702 1.368 . S
H3687 C3695 0.950 . S
H3688 C3693 0.950 . S
H3689 C3694 0.949 . S
H3690 C3696 0.950 . S
H3691 C3697 0.950 . S
H3692 C3698 0.949 . S
C3693 H3688 0.950 . S
C3693 C3695 1.327 . S
C3693 C3699 1.429 . S
C3694 C3686 1.574 . S
C3694 H3689 0.949 . S
C3694 C3700 1.368 . S
C3695 C3679 1.349 . S
C3695 H3687 0.950 . S
C3695 C3693 1.327 . S
C3696 C3684 1.349 . S
C3696 H3690 0.950 . S
C3696 C3697 1.327 . S
C3697 H3691 0.950 . S
C3697 C3696 1.327 . S
C3697 C3701 1.429 . S
C3698 C3681 1.574 . S
C3698 H3692 0.949 . S
C3698 C3702 1.368 . S
C3699 C3680 1.429 . S
C3699 C3693 1.429 . S
C3699 C3700 1.523 . S
C3700 C3681 1.368 . S
C3700 C3694 1.368 . S
C3700 C3699 1.523 . S
C3701 C3685 1.429 . S
C3701 C3697 1.429 . S
C3701 C3702 1.523 . S
C3702 C3686 1.368 . S
C3702 C3698 1.368 . S
C3702 C3701 1.523 . S
H3703 C3678 0.950 . S
H3704 C3680 0.950 . S
H3705 C3681 0.949 . S
H3706 C3683 0.950 . S
H3707 C3685 0.950 . S
C3708 C3709 1.349 . S
C3708 C3710 1.327 . S
C3708 H3733 0.950 . S
C3709 C3708 1.349 . S
C3709 C3725 1.349 . S
C3710 C3708 1.327 . S
C3710 C3729 1.429 . S
C3710 H3734 0.950 . S
C3711 C3728 1.574 . S
C3711 C3730 1.368 . S
C3711 H3735 0.949 . S
H3712 C3716 0.949 . S
C3713 C3714 1.349 . S
C3713 C3715 1.327 . S
C3713 H3736 0.950 . S
C3714 C3713 1.349 . S
C3714 C3726 1.349 . S
C3715 C3713 1.327 . S
C3715 C3731 1.429 . S
C3715 H3737 0.950 . S
C3716 H3712 0.949 . S
C3716 C3724 1.574 . S
C3716 C3732 1.368 . S
H3717 C3725 0.950 . S
H3718 C3723 0.950 . S
H3719 C3724 0.949 . S
H3720 C3726 0.950 . S
H3721 C3727 0.950 . S
H3722 C3728 0.949 . S
C3723 H3718 0.950 . S
C3723 C3725 1.327 . S
C3723 C3729 1.429 . S
C3724 C3716 1.574 . S
C3724 H3719 0.949 . S
C3724 C3730 1.368 . S
C3725 C3709 1.349 . S
C3725 H3717 0.950 . S
C3725 C3723 1.327 . S
C3726 C3714 1.349 . S
C3726 H3720 0.950 . S
C3726 C3727 1.327 . S
C3727 H3721 0.950 . S
C3727 C3726 1.327 . S
C3727 C3731 1.429 . S
C3728 C3711 1.574 . S
C3728 H3722 0.949 . S
C3728 C3732 1.368 . S
C3729 C3710 1.429 . S
C3729 C3723 1.429 . S
C3729 C3730 1.523 . S
C3730 C3711 1.368 . S
C3730 C3724 1.368 . S
C3730 C3729 1.523 . S
C3731 C3715 1.429 . S
C3731 C3727 1.429 . S
C3731 C3732 1.523 . S
C3732 C3716 1.368 . S
C3732 C3728 1.368 . S
C3732 C3731 1.523 . S
H3733 C3708 0.950 . S
H3734 C3710 0.950 . S
H3735 C3711 0.949 . S
H3736 C3713 0.950 . S
H3737 C3715 0.950 . S
C3738 C3739 1.349 . S
C3738 C3740 1.327 . S
C3738 H3763 0.950 . S
C3739 C3738 1.349 . S
C3739 C3755 1.349 . S
C3740 C3738 1.327 . S
C3740 C3759 1.429 . S
C3740 H3764 0.950 . S
C3741 C3758 1.574 . S
C3741 C3760 1.368 . S
C3741 H3765 0.949 . S
H3742 C3746 0.949 . S
C3743 C3744 1.349 . S
C3743 C3745 1.327 . S
C3743 H3766 0.950 . S
C3744 C3743 1.349 . S
C3744 C3756 1.349 . S
C3745 C3743 1.327 . S
C3745 C3761 1.429 . S
C3745 H3767 0.950 . S
C3746 H3742 0.949 . S
C3746 C3754 1.574 . S
C3746 C3762 1.368 . S
H3747 C3755 0.950 . S
H3748 C3753 0.950 . S
H3749 C3754 0.949 . S
H3750 C3756 0.950 . S
H3751 C3757 0.950 . S
H3752 C3758 0.949 . S
C3753 H3748 0.950 . S
C3753 C3755 1.327 . S
C3753 C3759 1.429 . S
C3754 C3746 1.574 . S
C3754 H3749 0.949 . S
C3754 C3760 1.368 . S
C3755 C3739 1.349 . S
C3755 H3747 0.950 . S
C3755 C3753 1.327 . S
C3756 C3744 1.349 . S
C3756 H3750 0.950 . S
C3756 C3757 1.327 . S
C3757 H3751 0.950 . S
C3757 C3756 1.327 . S
C3757 C3761 1.429 . S
C3758 C3741 1.574 . S
C3758 H3752 0.949 . S
C3758 C3762 1.368 . S
C3759 C3740 1.429 . S
C3759 C3753 1.429 . S
C3759 C3760 1.523 . S
C3760 C3741 1.368 . S
C3760 C3754 1.368 . S
C3760 C3759 1.523 . S
C3761 C3745 1.429 . S
C3761 C3757 1.429 . S
C3761 C3762 1.523 . S
C3762 C3746 1.368 . S
C3762 C3758 1.368 . S
C3762 C3761 1.523 . S
H3763 C3738 0.950 . S
H3764 C3740 0.950 . S
H3765 C3741 0.949 . S
H3766 C3743 0.950 . S
H3767 C3745 0.950 . S
C3768 C3769 1.349 . S
C3768 C3770 1.327 . S
C3768 H3793 0.950 . S
C3769 C3768 1.349 . S
C3769 C3785 1.349 . S
C3770 C3768 1.327 . S
C3770 C3789 1.429 . S
C3770 H3794 0.950 . S
C3771 C3788 1.574 . S
C3771 C3790 1.368 . S
C3771 H3795 0.949 . S
H3772 C3776 0.949 . S
C3773 C3774 1.349 . S
C3773 C3775 1.327 . S
C3773 H3796 0.950 . S
C3774 C3773 1.349 . S
C3774 C3786 1.349 . S
C3775 C3773 1.327 . S
C3775 C3791 1.429 . S
C3775 H3797 0.950 . S
C3776 H3772 0.949 . S
C3776 C3784 1.574 . S
C3776 C3792 1.368 . S
H3777 C3785 0.950 . S
H3778 C3783 0.950 . S
H3779 C3784 0.949 . S
H3780 C3786 0.950 . S
H3781 C3787 0.950 . S
H3782 C3788 0.949 . S
C3783 H3778 0.950 . S
C3783 C3785 1.327 . S
C3783 C3789 1.429 . S
C3784 C3776 1.574 . S
C3784 H3779 0.949 . S
C3784 C3790 1.368 . S
C3785 C3769 1.349 . S
C3785 H3777 0.950 . S
C3785 C3783 1.327 . S
C3786 C3774 1.349 . S
C3786 H3780 0.950 . S
C3786 C3787 1.327 . S
C3787 H3781 0.950 . S
C3787 C3786 1.327 . S
C3787 C3791 1.429 . S
C3788 C3771 1.574 . S
C3788 H3782 0.949 . S
C3788 C3792 1.368 . S
C3789 C3770 1.429 . S
C3789 C3783 1.429 . S
C3789 C3790 1.523 . S
C3790 C3771 1.368 . S
C3790 C3784 1.368 . S
C3790 C3789 1.523 . S
C3791 C3775 1.429 . S
C3791 C3787 1.429 . S
C3791 C3792 1.523 . S
C3792 C3776 1.368 . S
C3792 C3788 1.368 . S
C3792 C3791 1.523 . S
H3793 C3768 0.950 . S
H3794 C3770 0.950 . S
H3795 C3771 0.949 . S
H3796 C3773 0.950 . S
H3797 C3775 0.950 . S
C3798 C3799 1.349 . S
C3798 C3800 1.327 . S
C3798 H3823 0.950 . S
C3799 C3798 1.349 . S
C3799 C3815 1.349 . S
C3800 C3798 1.327 . S
C3800 C3819 1.429 . S
C3800 H3824 0.950 . S
C3801 C3818 1.574 . S
C3801 C3820 1.368 . S
C3801 H3825 0.949 . S
H3802 C3806 0.949 . S
C3803 C3804 1.349 . S
C3803 C3805 1.327 . S
C3803 H3826 0.950 . S
C3804 C3803 1.349 . S
C3804 C3816 1.349 . S
C3805 C3803 1.327 . S
C3805 C3821 1.429 . S
C3805 H3827 0.950 . S
C3806 H3802 0.949 . S
C3806 C3814 1.574 . S
C3806 C3822 1.368 . S
H3807 C3815 0.950 . S
H3808 C3813 0.950 . S
H3809 C3814 0.949 . S
H3810 C3816 0.950 . S
H3811 C3817 0.950 . S
H3812 C3818 0.949 . S
C3813 H3808 0.950 . S
C3813 C3815 1.327 . S
C3813 C3819 1.429 . S
C3814 C3806 1.574 . S
C3814 H3809 0.949 . S
C3814 C3820 1.368 . S
C3815 C3799 1.349 . S
C3815 H3807 0.950 . S
C3815 C3813 1.327 . S
C3816 C3804 1.349 . S
C3816 H3810 0.950 . S
C3816 C3817 1.327 . S
C3817 H3811 0.950 . S
C3817 C3816 1.327 . S
C3817 C3821 1.429 . S
C3818 C3801 1.574 . S
C3818 H3812 0.949 . S
C3818 C3822 1.368 . S
C3819 C3800 1.429 . S
C3819 C3813 1.429 . S
C3819 C3820 1.523 . S
C3820 C3801 1.368 . S
C3820 C3814 1.368 . S
C3820 C3819 1.523 . S
C3821 C3805 1.429 . S
C3821 C3817 1.429 . S
C3821 C3822 1.523 . S
C3822 C3806 1.368 . S
C3822 C3818 1.368 . S
C3822 C3821 1.523 . S
H3823 C3798 0.950 . S
H3824 C3800 0.950 . S
H3825 C3801 0.949 . S
H3826 C3803 0.950 . S
H3827 C3805 0.950 . S
C3828 C3829 1.349 . S
C3828 C3830 1.327 . S
C3828 H3853 0.950 . S
C3829 C3828 1.349 . S
C3829 C3845 1.349 . S
C3830 C3828 1.327 . S
C3830 C3849 1.429 . S
C3830 H3854 0.950 . S
C3831 C3848 1.574 . S
C3831 C3850 1.368 . S
C3831 H3855 0.949 . S
H3832 C3836 0.949 . S
C3833 C3834 1.349 . S
C3833 C3835 1.327 . S
C3833 H3856 0.950 . S
C3834 C3833 1.349 . S
C3834 C3846 1.349 . S
C3835 C3833 1.327 . S
C3835 C3851 1.429 . S
C3835 H3857 0.950 . S
C3836 H3832 0.949 . S
C3836 C3844 1.574 . S
C3836 C3852 1.368 . S
H3837 C3845 0.950 . S
H3838 C3843 0.950 . S
H3839 C3844 0.949 . S
H3840 C3846 0.950 . S
H3841 C3847 0.950 . S
H3842 C3848 0.949 . S
C3843 H3838 0.950 . S
C3843 C3845 1.327 . S
C3843 C3849 1.429 . S
C3844 C3836 1.574 . S
C3844 H3839 0.949 . S
C3844 C3850 1.368 . S
C3845 C3829 1.349 . S
C3845 H3837 0.950 . S
C3845 C3843 1.327 . S
C3846 C3834 1.349 . S
C3846 H3840 0.950 . S
C3846 C3847 1.327 . S
C3847 H3841 0.950 . S
C3847 C3846 1.327 . S
C3847 C3851 1.429 . S
C3848 C3831 1.574 . S
C3848 H3842 0.949 . S
C3848 C3852 1.368 . S
C3849 C3830 1.429 . S
C3849 C3843 1.429 . S
C3849 C3850 1.523 . S
C3850 C3831 1.368 . S
C3850 C3844 1.368 . S
C3850 C3849 1.523 . S
C3851 C3835 1.429 . S
C3851 C3847 1.429 . S
C3851 C3852 1.523 . S
C3852 C3836 1.368 . S
C3852 C3848 1.368 . S
C3852 C3851 1.523 . S
H3853 C3828 0.950 . S
H3854 C3830 0.950 . S
H3855 C3831 0.949 . S
H3856 C3833 0.950 . S
H3857 C3835 0.950 . S
C3858 C3859 1.349 . S
C3858 C3860 1.327 . S
C3858 H3883 0.950 . S
C3859 C3858 1.349 . S
C3859 C3875 1.349 . S
C3860 C3858 1.327 . S
C3860 C3879 1.429 . S
C3860 H3884 0.950 . S
C3861 C3878 1.574 . S
C3861 C3880 1.368 . S
C3861 H3885 0.949 . S
H3862 C3866 0.949 . S
C3863 C3864 1.349 . S
C3863 C3865 1.327 . S
C3863 H3886 0.950 . S
C3864 C3863 1.349 . S
C3864 C3876 1.349 . S
C3865 C3863 1.327 . S
C3865 C3881 1.429 . S
C3865 H3887 0.950 . S
C3866 H3862 0.949 . S
C3866 C3874 1.574 . S
C3866 C3882 1.368 . S
H3867 C3875 0.950 . S
H3868 C3873 0.950 . S
H3869 C3874 0.949 . S
H3870 C3876 0.950 . S
H3871 C3877 0.950 . S
H3872 C3878 0.949 . S
C3873 H3868 0.950 . S
C3873 C3875 1.327 . S
C3873 C3879 1.429 . S
C3874 C3866 1.574 . S
C3874 H3869 0.949 . S
C3874 C3880 1.368 . S
C3875 C3859 1.349 . S
C3875 H3867 0.950 . S
C3875 C3873 1.327 . S
C3876 C3864 1.349 . S
C3876 H3870 0.950 . S
C3876 C3877 1.327 . S
C3877 H3871 0.950 . S
C3877 C3876 1.327 . S
C3877 C3881 1.429 . S
C3878 C3861 1.574 . S
C3878 H3872 0.949 . S
C3878 C3882 1.368 . S
C3879 C3860 1.429 . S
C3879 C3873 1.429 . S
C3879 C3880 1.523 . S
C3880 C3861 1.368 . S
C3880 C3874 1.368 . S
C3880 C3879 1.523 . S
C3881 C3865 1.429 . S
C3881 C3877 1.429 . S
C3881 C3882 1.523 . S
C3882 C3866 1.368 . S
C3882 C3878 1.368 . S
C3882 C3881 1.523 . S
H3883 C3858 0.950 . S
H3884 C3860 0.950 . S
H3885 C3861 0.949 . S
H3886 C3863 0.950 . S
H3887 C3865 0.950 . S
C3888 C3889 1.349 . S
C3888 C3890 1.327 . S
C3888 H3913 0.950 . S
C3889 C3888 1.349 . S
C3889 C3905 1.349 . S
C3890 C3888 1.327 . S
C3890 C3909 1.429 . S
C3890 H3914 0.950 . S
C3891 C3908 1.574 1_455 S
C3891 C3910 1.368 . S
C3891 H3915 0.949 . S
H3892 C3896 0.949 . S
C3893 C3894 1.349 . S
C3893 C3895 1.327 . S
C3893 H3916 0.950 . S
C3894 C3893 1.349 . S
C3894 C3906 1.349 . S
C3895 C3893 1.327 . S
C3895 C3911 1.429 . S
C3895 H3917 0.950 . S
C3896 H3892 0.949 . S
C3896 C3904 1.574 1_655 S
C3896 C3912 1.368 . S
H3897 C3905 0.950 . S
H3898 C3903 0.950 . S
H3899 C3904 0.949 . S
H3900 C3906 0.950 . S
H3901 C3907 0.950 . S
H3902 C3908 0.949 . S
C3903 H3898 0.950 . S
C3903 C3905 1.327 . S
C3903 C3909 1.429 . S
C3904 C3896 1.574 1_455 S
C3904 H3899 0.949 . S
C3904 C3910 1.368 . S
C3905 C3889 1.349 . S
C3905 H3897 0.950 . S
C3905 C3903 1.327 . S
C3906 C3894 1.349 . S
C3906 H3900 0.950 . S
C3906 C3907 1.327 . S
C3907 H3901 0.950 . S
C3907 C3906 1.327 . S
C3907 C3911 1.429 . S
C3908 C3891 1.574 1_655 S
C3908 H3902 0.949 . S
C3908 C3912 1.368 . S
C3909 C3890 1.429 . S
C3909 C3903 1.429 . S
C3909 C3910 1.523 . S
C3910 C3891 1.368 . S
C3910 C3904 1.368 . S
C3910 C3909 1.523 . S
C3911 C3895 1.429 . S
C3911 C3907 1.429 . S
C3911 C3912 1.523 . S
C3912 C3896 1.368 . S
C3912 C3908 1.368 . S
C3912 C3911 1.523 . S
H3913 C3888 0.950 . S
H3914 C3890 0.950 . S
H3915 C3891 0.949 . S
H3916 C3893 0.950 . S
H3917 C3895 0.950 . S
C3918 C3919 1.349 . S
C3918 C3920 1.327 . S
C3918 H3943 0.950 . S
C3919 C3918 1.349 . S
C3919 C3935 1.349 . S
C3920 C3918 1.327 . S
C3920 C3939 1.429 . S
C3920 H3944 0.950 . S
C3921 C3938 1.574 . S
C3921 C3940 1.368 . S
C3921 H3945 0.949 . S
H3922 C3926 0.949 . S
C3923 C3924 1.349 . S
C3923 C3925 1.327 . S
C3923 H3946 0.950 . S
C3924 C3923 1.349 . S
C3924 C3936 1.349 . S
C3925 C3923 1.327 . S
C3925 C3941 1.429 . S
C3925 H3947 0.950 . S
C3926 H3922 0.949 . S
C3926 C3934 1.574 . S
C3926 C3942 1.368 . S
H3927 C3935 0.950 . S
H3928 C3933 0.950 . S
H3929 C3934 0.949 . S
H3930 C3936 0.950 . S
H3931 C3937 0.950 . S
H3932 C3938 0.949 . S
C3933 H3928 0.950 . S
C3933 C3935 1.327 . S
C3933 C3939 1.429 . S
C3934 C3926 1.574 . S
C3934 H3929 0.949 . S
C3934 C3940 1.368 . S
C3935 C3919 1.349 . S
C3935 H3927 0.950 . S
C3935 C3933 1.327 . S
C3936 C3924 1.349 . S
C3936 H3930 0.950 . S
C3936 C3937 1.327 . S
C3937 H3931 0.950 . S
C3937 C3936 1.327 . S
C3937 C3941 1.429 . S
C3938 C3921 1.574 . S
C3938 H3932 0.949 . S
C3938 C3942 1.368 . S
C3939 C3920 1.429 . S
C3939 C3933 1.429 . S
C3939 C3940 1.523 . S
C3940 C3921 1.368 . S
C3940 C3934 1.368 . S
C3940 C3939 1.523 . S
C3941 C3925 1.429 . S
C3941 C3937 1.429 . S
C3941 C3942 1.523 . S
C3942 C3926 1.368 . S
C3942 C3938 1.368 . S
C3942 C3941 1.523 . S
H3943 C3918 0.950 . S
H3944 C3920 0.950 . S
H3945 C3921 0.949 . S
H3946 C3923 0.950 . S
H3947 C3925 0.950 . S
C3948 C3949 1.349 . S
C3948 C3950 1.327 . S
C3948 H3973 0.950 . S
C3949 C3948 1.349 . S
C3949 C3965 1.349 . S
C3950 C3948 1.327 . S
C3950 C3969 1.429 . S
C3950 H3974 0.950 . S
C3951 C3968 1.574 . S
C3951 C3970 1.368 1_565 S
C3951 H3975 0.949 . S
H3952 C3956 0.949 . S
C3953 C3954 1.349 . S
C3953 C3955 1.327 . S
C3953 H3976 0.950 . S
C3954 C3953 1.349 . S
C3954 C3966 1.349 . S
C3955 C3953 1.327 . S
C3955 C3971 1.429 . S
C3955 H3977 0.950 . S
C3956 H3952 0.949 . S
C3956 C3964 1.574 . S
C3956 C3972 1.368 1_545 S
H3957 C3965 0.950 . S
H3958 C3963 0.950 . S
H3959 C3964 0.949 . S
H3960 C3966 0.950 . S
H3961 C3967 0.950 . S
H3962 C3968 0.949 . S
C3963 H3958 0.950 . S
C3963 C3965 1.327 . S
C3963 C3969 1.429 . S
C3964 C3956 1.574 . S
C3964 H3959 0.949 . S
C3964 C3970 1.368 . S
C3965 C3949 1.349 . S
C3965 H3957 0.950 . S
C3965 C3963 1.327 . S
C3966 C3954 1.349 . S
C3966 H3960 0.950 . S
C3966 C3967 1.327 . S
C3967 H3961 0.950 . S
C3967 C3966 1.327 . S
C3967 C3971 1.429 . S
C3968 C3951 1.574 . S
C3968 H3962 0.949 . S
C3968 C3972 1.368 . S
C3969 C3950 1.429 . S
C3969 C3963 1.429 . S
C3969 C3970 1.523 . S
C3970 C3951 1.368 1_545 S
C3970 C3964 1.368 . S
C3970 C3969 1.523 . S
C3971 C3955 1.429 . S
C3971 C3967 1.429 . S
C3971 C3972 1.523 . S
C3972 C3956 1.368 1_565 S
C3972 C3968 1.368 . S
C3972 C3971 1.523 . S
H3973 C3948 0.950 . S
H3974 C3950 0.950 . S
H3975 C3951 0.949 . S
H3976 C3953 0.950 . S
H3977 C3955 0.950 . S
C3978 C3979 1.349 . S
C3978 C3980 1.327 . S
C3978 H4003 0.950 . S
C3979 C3978 1.349 . S
C3979 C3995 1.349 . S
C3980 C3978 1.327 . S
C3980 C3999 1.429 . S
C3980 H4004 0.950 . S
C3981 C3998 1.574 . S
C3981 C4000 1.368 . S
C3981 H4005 0.949 . S
H3982 C3986 0.949 . S
C3983 C3984 1.349 . S
C3983 C3985 1.327 . S
C3983 H4006 0.950 . S
C3984 C3983 1.349 . S
C3984 C3996 1.349 . S
C3985 C3983 1.327 . S
C3985 C4001 1.429 . S
C3985 H4007 0.950 . S
C3986 H3982 0.949 . S
C3986 C3994 1.574 . S
C3986 C4002 1.368 . S
H3987 C3995 0.950 . S
H3988 C3993 0.950 . S
H3989 C3994 0.949 . S
H3990 C3996 0.950 . S
H3991 C3997 0.950 . S
H3992 C3998 0.949 . S
C3993 H3988 0.950 . S
C3993 C3995 1.327 . S
C3993 C3999 1.429 . S
C3994 C3986 1.574 . S
C3994 H3989 0.949 . S
C3994 C4000 1.368 1_545 S
C3995 C3979 1.349 . S
C3995 H3987 0.950 . S
C3995 C3993 1.327 . S
C3996 C3984 1.349 . S
C3996 H3990 0.950 . S
C3996 C3997 1.327 . S
C3997 H3991 0.950 . S
C3997 C3996 1.327 . S
C3997 C4001 1.429 . S
C3998 C3981 1.574 . S
C3998 H3992 0.949 . S
C3998 C4002 1.368 1_565 S
C3999 C3980 1.429 . S
C3999 C3993 1.429 . S
C3999 C4000 1.523 . S
C4000 C3981 1.368 . S
C4000 C3994 1.368 1_565 S
C4000 C3999 1.523 . S
C4001 C3985 1.429 . S
C4001 C3997 1.429 . S
C4001 C4002 1.523 . S
C4002 C3986 1.368 . S
C4002 C3998 1.368 1_545 S
C4002 C4001 1.523 . S
H4003 C3978 0.950 . S
H4004 C3980 0.950 . S
H4005 C3981 0.949 . S
H4006 C3983 0.950 . S
H4007 C3985 0.950 . S
C4008 C4009 1.349 . S
C4008 C4010 1.327 . S
C4008 H4033 0.950 . S
C4009 C4008 1.349 . S
C4009 C4025 1.349 . S
C4010 C4008 1.327 . S
C4010 C4029 1.429 . S
C4010 H4034 0.950 . S
C4011 C4028 1.574 . S
C4011 C4030 1.368 1_455 S
C4011 H4035 0.949 . S
H4012 C4016 0.984 . S
C4013 C4014 1.349 . S
C4013 C4015 1.327 . S
C4013 H4036 0.950 . S
C4014 C4013 1.349 . S
C4014 C4026 1.349 . S
C4015 C4013 1.327 . S
C4015 C4031 1.429 . S
C4015 H4037 0.950 . S
C4016 H4012 0.984 . S
C4016 C4024 1.640 . S
C4016 C4032 1.272 1_655 S
H4017 C4025 0.950 . S
H4018 C4023 0.950 . S
H4019 C4024 0.949 . S
H4020 C4026 0.950 . S
H4021 C4027 0.950 . S
H4022 C4028 0.949 . S
C4023 H4018 0.950 . S
C4023 C4025 1.327 . S
C4023 C4029 1.429 . S
C4024 C4016 1.640 . S
C4024 H4019 0.949 . S
C4024 C4030 1.368 . S
C4025 C4009 1.349 . S
C4025 H4017 0.950 . S
C4025 C4023 1.327 . S
C4026 C4014 1.349 . S
C4026 H4020 0.950 . S
C4026 C4027 1.327 . S
C4027 H4021 0.950 . S
C4027 C4026 1.327 . S
C4027 C4031 1.429 . S
C4028 C4011 1.574 . S
C4028 H4022 0.949 . S
C4028 C4032 1.368 . S
C4029 C4010 1.429 . S
C4029 C4023 1.429 . S
C4029 C4030 1.523 . S
C4030 C4011 1.368 1_655 S
C4030 C4024 1.368 . S
C4030 C4029 1.523 . S
C4031 C4015 1.429 . S
C4031 C4027 1.429 . S
C4031 C4032 1.523 . S
C4032 C4016 1.272 1_455 S
C4032 C4028 1.368 . S
C4032 C4031 1.523 . S
H4033 C4008 0.950 . S
H4034 C4010 0.950 . S
H4035 C4011 0.949 . S
H4036 C4013 0.950 . S
H4037 C4015 0.950 . S
C4038 C4039 1.349 . S
C4038 C4040 1.327 . S
C4038 H4063 0.950 . S
C4039 C4038 1.349 . S
C4039 C4055 1.349 . S
C4040 C4038 1.327 . S
C4040 C4059 1.429 . S
C4040 H4064 0.950 . S
C4041 C4058 1.574 . S
C4041 C4060 1.368 . S
C4041 H4065 0.949 . S
H4042 C4046 0.949 . S
C4043 C4044 1.349 . S
C4043 C4045 1.327 . S
C4043 H4066 0.950 . S
C4044 C4043 1.349 . S
C4044 C4056 1.349 . S
C4045 C4043 1.327 . S
C4045 C4061 1.429 . S
C4045 H4067 0.950 . S
C4046 H4042 0.949 . S
C4046 C4054 1.574 . S
C4046 C4062 1.368 . S
H4047 C4055 0.950 . S
H4048 C4053 0.950 . S
H4049 C4054 0.949 . S
H4050 C4056 0.950 . S
H4051 C4057 0.950 . S
H4052 C4058 0.949 . S
C4053 H4048 0.950 . S
C4053 C4055 1.327 . S
C4053 C4059 1.429 . S
C4054 C4046 1.574 . S
C4054 H4049 0.949 . S
C4054 C4060 1.368 . S
C4055 C4039 1.349 . S
C4055 H4047 0.950 . S
C4055 C4053 1.327 . S
C4056 C4044 1.349 . S
C4056 H4050 0.950 . S
C4056 C4057 1.327 . S
C4057 H4051 0.950 . S
C4057 C4056 1.327 . S
C4057 C4061 1.429 . S
C4058 C4041 1.574 . S
C4058 H4052 0.949 . S
C4058 C4062 1.368 . S
C4059 C4040 1.429 . S
C4059 C4053 1.429 . S
C4059 C4060 1.523 . S
C4060 C4041 1.368 . S
C4060 C4054 1.368 . S
C4060 C4059 1.523 . S
C4061 C4045 1.429 . S
C4061 C4057 1.429 . S
C4061 C4062 1.523 . S
C4062 C4046 1.368 . S
C4062 C4058 1.368 . S
C4062 C4061 1.523 . S
H4063 C4038 0.950 . S
H4064 C4040 0.950 . S
H4065 C4041 0.949 . S
H4066 C4043 0.950 . S
H4067 C4045 0.950 . S
C1909 C241 1.062 . S
C1914 C29 1.066 . S
C1939 C294 1.066 . S
C1944 C82 1.061 . S
C1969 C188 1.109 . S
C1974 C135 1.108 . S
C1999 C559 1.522 . S
C2004 C357 1.528 . S
C2029 C400 1.522 . S
C2034 C622 1.528 . S
C2059 C506 1.169 . S
C2064 C453 1.168 . S
C2089 C665 1.032 . S
C2094 C877 1.031 . S
C2119 C930 1.077 . S
C2124 C718 1.076 . S
C2149 C771 1.098 . S
C2154 C824 1.098 . S
C2179 C993 1.486 . S
C2184 C1195 1.479 . S
C2209 C1258 1.550 . S
C2214 C1036 1.539 . S
C2239 C1089 1.221 . S
C2244 C1142 1.220 . S
C2269 C1513 1.076 . S
C2274 C1301 1.077 . S
C2299 C1354 1.031 . S
C2304 C1566 1.032 . S
C2329 C1460 1.099 . S
C2334 C1407 1.098 . S
C2359 C1831 1.539 . S
C2364 C1629 1.550 . S
C2389 C1672 1.480 . S
C2394 C1894 1.486 . S
C2419 C1725 1.220 . S
C2424 C1778 1.221 . S
C2449 C621 1.830 . S
C2454 C22 1.830 . S
C2479 C75 1.731 . S
C2484 C499 1.742 . S
C2509 C552 1.933 . S
C2514 C128 1.929 . S
C2539 C393 1.933 . S
C2544 C181 1.929 . S
C2569 C234 1.731 . S
C2574 C446 1.741 . S
C2599 C356 1.830 . S
C2604 C287 1.830 . S
C2629 C658 1.945 . S
C2634 C1257 1.958 . S
C2659 C1135 1.919 . S
C2664 C711 1.918 . S
C2689 C1188 2.009 . S
C2694 C764 2.006 . S
C2719 C817 2.006 . S
C2724 C1029 2.007 . S
C2749 C870 1.825 . S
C2754 C1082 1.827 . S
C2779 C923 1.874 . S
C2784 C992 1.888 . S
C2809 C1893 1.888 . S
C2814 C1294 1.874 . S
C2839 C1347 1.825 . S
C2844 C1771 1.827 . S
C2869 C1400 2.006 . S
C2874 C1824 2.007 . S
C2899 C1665 2.009 . S
C2904 C1453 2.006 . S
C2929 C1718 1.919 . S
C2934 C1506 1.918 . S
C2959 C1628 1.958 . S
C2964 C1559 1.945 . S
C2989 C833 2.440 . S
C2994 C38 2.438 . S
C3019 C886 2.321 . S
C3024 C91 2.320 . S
C3049 C144 2.554 . S
C3054 C939 2.545 . S
C3079 C197 2.554 . S
C3084 C1310 2.545 . S
C3109 C250 2.325 . S
C3114 C1363 2.317 . S
C3139 C303 2.444 . S
C3144 C1416 2.435 . S
C3169 C340 1.815 . S
C3174 C1787 1.813 . S
C3199 C409 2.077 . S
C3204 C1840 2.070 . S
C3229 C462 1.564 . S
C3234 C1877 1.552 . S
C3259 C515 1.565 . S
C3264 C976 1.553 . S
C3289 C1045 2.075 . S
C3294 C568 2.072 . S
C3319 C1098 1.818 . S
C3324 C605 1.810 . S
C3349 C1469 2.893 . S
C3354 C674 2.892 . S
C3379 C727 2.774 . S
C3384 C1522 2.774 . S
C3409 C1575 2.891 . S
C3414 C780 2.892 . S
C3439 C1151 2.085 . S
C3444 C1612 2.080 . S
C3469 C1681 2.510 . S
C3474 C1204 2.510 . S
C3499 C1734 2.085 . S
C3504 C1241 2.080 . S
C3529 C39 2.219 . S
C3534 C1576 2.231 . S
C3559 C92 1.987 . S
C3564 C1470 1.998 . S
C3589 C145 1.899 . S
C3594 C1523 1.912 . S
C3619 C198 1.899 . S
C3624 C728 1.912 . S
C3649 C781 1.993 . S
C3654 C251 1.991 . S
C3679 C675 2.226 . S
C3684 C304 2.223 . S
C3709 C1248 1.295 . S
C3714 C347 1.295 . S
C3739 C1152 1.609 . S
C3744 C410 1.613 . S
C3769 C1205 1.727 . S
C3774 C463 1.719 . S
C3799 C1682 1.727 . S
C3804 C516 1.719 . S
C3829 C1735 1.609 . S
C3834 C569 1.613 . S
C3859 C1619 1.296 . S
C3864 C612 1.295 . S
C3889 C834 1.480 . S
C3894 C1364 1.482 . S
C3919 C1417 1.480 . S
C3924 C887 1.482 . S
C3949 C1311 1.867 . S
C3954 C940 1.867 . S
C3979 C983 0.833 . S
C3984 C1884 0.833 . S
C4009 C1788 1.272 . S
C4014 C1046 1.272 . S
C4039 C1099 1.272 . S
C4044 C1841 1.272 . S
