# Generated by pormake.
# Topology fns, (5)-cn, num edge types: 1
# Building blocks:
#     Node 0, Type 0, BuildingBlock: BEQFEK_clean_sbu_0, # of connection points: 5
#     Node 1, Type 0, BuildingBlock: BEQFEK_clean_sbu_0, # of connection points: 5
#     Node 2, Type 0, BuildingBlock: BEQFEK_clean_sbu_0, # of connection points: 5
#     Node 3, Type 0, BuildingBlock: BEQFEK_clean_sbu_0, # of connection points: 5
#     Node 4, Type 0, BuildingBlock: BEQFEK_clean_sbu_0, # of connection points: 5
#     Node 5, Type 0, BuildingBlock: BEQFEK_clean_sbu_0, # of connection points: 5
#     Edge 6, Type (0, 0), BuildingBlock: FUNLAD_clean_linker_0, # of connection points: 2
#     Edge 7, Type (0, 0), BuildingBlock: FUNLAD_clean_linker_0, # of connection points: 2
#     Edge 8, Type (0, 0), BuildingBlock: FUNLAD_clean_linker_0, # of connection points: 2
#     Edge 9, Type (0, 0), BuildingBlock: FUNLAD_clean_linker_0, # of connection points: 2
#     Edge 10, Type (0, 0), BuildingBlock: FUNLAD_clean_linker_0, # of connection points: 2
#     Edge 11, Type (0, 0), BuildingBlock: FUNLAD_clean_linker_0, # of connection points: 2
#     Edge 12, Type (0, 0), BuildingBlock: FUNLAD_clean_linker_0, # of connection points: 2
#     Edge 13, Type (0, 0), BuildingBlock: FUNLAD_clean_linker_0, # of connection points: 2
#     Edge 14, Type (0, 0), BuildingBlock: FUNLAD_clean_linker_0, # of connection points: 2
#     Edge 15, Type (0, 0), BuildingBlock: FUNLAD_clean_linker_0, # of connection points: 2
#     Edge 16, Type (0, 0), BuildingBlock: FUNLAD_clean_linker_0, # of connection points: 2
#     Edge 17, Type (0, 0), BuildingBlock: FUNLAD_clean_linker_0, # of connection points: 2
#     Edge 18, Type (0, 0), BuildingBlock: FUNLAD_clean_linker_0, # of connection points: 2
#     Edge 19, Type (0, 0), BuildingBlock: FUNLAD_clean_linker_0, # of connection points: 2
#     Edge 20, Type (0, 0), BuildingBlock: FUNLAD_clean_linker_0, # of connection points: 2
# Relax obj value: 0.261
# Max RMSD: 0.252
# Mean RMSD: 0.252
data_MOF--net-fns--node1-BEQFEK_clean_sbu_0--edge1-FUNLAD_clean_linker_0
_symmetry_space_group_name_H-M    P1
_symmetry_Int_Tables_number       1
_symmetry_cell_setting            triclinic
loop_
_symmetry_equiv_pos_as_xyz
'x, y, z'
_cell_length_a     63.031628
_cell_length_b     63.010736
_cell_length_c     20.915713
_cell_angle_alpha  89.985479
_cell_angle_beta   89.88835
_cell_angle_gamma 119.96702
loop_
_atom_site_label
_atom_site_type_symbol
_atom_site_fract_x
_atom_site_fract_y
_atom_site_fract_z
_atom_type_partial_charge
Co0 Co 0.17899 0.6256 0.07505 0.0
Co1 Co 0.17599 0.60175 0.20799 0.0
C2 C 0.21023 0.65583 0.18 0.0
O3 O 0.20267 0.65511 0.12322 0.0
O4 O 0.20167 0.63657 0.21414 0.0
C5 C 0.17225 0.64921 0.95686 0.0
O6 O 0.16631 0.6634 0.98899 0.0
C7 C 0.16601 0.6 0.34424 0.0
C8 C 0.16933 0.56845 0.37681 0.0
C9 C 0.1654 0.58703 0.39858 0.0
N10 N 0.17007 0.58956 0.2932 0.0
N11 N 0.17178 0.57055 0.31281 0.0
C12 C 0.16449 0.62295 0.34072 0.0
H13 H 0.16968 0.63139 0.29267 0.0
H14 H 0.14536 0.61846 0.34981 0.0
H15 H 0.17642 0.63621 0.37756 0.0
C16 C 0.12491 0.60051 0.09536 0.0
N17 N 0.14791 0.60821 0.11567 0.0
N18 N 0.14689 0.59817 0.17164 0.0
C19 C 0.1233 0.58391 0.18889 0.0
C20 C 0.10861 0.58506 0.1414 0.0
C21 C 0.11868 0.60653 0.03142 0.0
H22 H 0.12782 0.60175 0.9933 0.0
H23 H 0.12559 0.62648 0.02898 0.0
H24 H 0.09864 0.59675 0.02299 0.0
O25 O 0.19209 0.60309 0.06453 0.0
O26 O 0.18833 0.58381 0.15612 0.0
H27 H 0.1262 0.55772 0.24824 0.0
H28 H 0.09543 0.55245 0.24097 0.0
C29 C 0.115 0.56675 0.24483 0.0
H30 H 0.11751 0.57731 0.28931 0.0
H31 H 0.17542 0.5595 0.28279 0.0
O32 O 0.17689 0.63429 0.9858 0.0
C33 C 0.1944 0.58736 0.09732 0.0
Co34 Co 0.5505 0.17719 0.42961 0.0
Co35 Co 0.56928 0.17432 0.56479 0.0
C36 C 0.54507 0.2044 0.53683 0.0
O37 O 0.5407 0.19802 0.47848 0.0
O38 O 0.55608 0.19669 0.57242 0.0
C39 C 0.5191 0.16724 0.31473 0.0
O40 O 0.49912 0.15745 0.34979 0.0
C41 C 0.55923 0.16307 0.69858 0.0
C42 C 0.59545 0.17286 0.73791 0.0
C43 C 0.57154 0.16571 0.75534 0.0
N44 N 0.57505 0.16843 0.65 0.0
N45 N 0.59659 0.17382 0.67359 0.0
C46 C 0.53361 0.15834 0.69069 0.0
H47 H 0.52931 0.15903 0.63965 0.0
H48 H 0.52048 0.13987 0.70937 0.0
H49 H 0.53114 0.17194 0.71859 0.0
C50 C 0.52863 0.123 0.44017 0.0
N51 N 0.53934 0.14565 0.46596 0.0
N52 N 0.54725 0.14477 0.52354 0.0
C53 C 0.54163 0.12164 0.5366 0.0
C54 C 0.52974 0.10709 0.4842 0.0
C55 C 0.52153 0.11759 0.37132 0.0
H56 H 0.53605 0.13178 0.34064 0.0
H57 H 0.50435 0.11798 0.36333 0.0
H58 H 0.51847 0.09931 0.35712 0.0
O59 O 0.5866 0.19389 0.42266 0.0
O60 O 0.60071 0.19083 0.51728 0.0
H61 H 0.57 0.12505 0.59922 0.0
H62 H 0.54372 0.09437 0.59576 0.0
C63 C 0.54975 0.11419 0.59552 0.0
H64 H 0.54185 0.11815 0.63811 0.0
H65 H 0.6124 0.17966 0.64611 0.0
O66 O 0.5399 0.1752 0.34071 0.0
C67 C 0.60433 0.19771 0.45905 0.0
Co68 Co 0.36543 0.54208 0.75746 0.0
Co69 Co 0.39116 0.56224 0.88928 0.0
C70 C 0.33564 0.53524 0.87107 0.0
O71 O 0.33584 0.52999 0.81232 0.0
O72 O 0.35547 0.54776 0.90185 0.0
C73 C 0.34404 0.51287 0.63731 0.0
O74 O 0.33309 0.49205 0.66883 0.0
C75 C 0.39626 0.55404 0.02436 0.0
C76 C 0.42609 0.59025 0.05495 0.0
C77 C 0.40906 0.56725 0.07798 0.0
N78 N 0.40519 0.56864 0.97271 0.0
N79 N 0.42331 0.59013 0.99115 0.0
C80 C 0.37475 0.52857 0.02226 0.0
H81 H 0.36662 0.52394 0.97389 0.0
H82 H 0.38086 0.51532 0.03405 0.0
H83 H 0.36077 0.52649 0.05791 0.0
C84 C 0.39851 0.52066 0.7598 0.0
N85 N 0.388 0.53248 0.78762 0.0
N86 N 0.39852 0.541 0.84336 0.0
C87 C 0.41591 0.53491 0.85284 0.0
C88 C 0.41645 0.52181 0.80034 0.0
C89 C 0.39383 0.51134 0.69257 0.0
H90 H 0.39407 0.52541 0.66027 0.0
H91 H 0.37551 0.49468 0.69008 0.0
H92 H 0.4077 0.50664 0.67595 0.0
O93 O 0.38186 0.57829 0.75395 0.0
O94 O 0.40383 0.59357 0.84224 0.0
H95 H 0.44233 0.56302 0.91345 0.0
H96 H 0.44605 0.53637 0.90671 0.0
C97 C 0.43256 0.54275 0.90959 0.0
H98 H 0.42146 0.53505 0.95353 0.0
H99 H 0.43295 0.60508 0.96067 0.0
O100 O 0.35672 0.53291 0.66702 0.0
C101 C 0.39685 0.59647 0.78749 0.0
Co102 Co 0.82645 0.37334 0.09006 0.0
Co103 Co 0.82634 0.39894 0.21707 0.0
C104 C 0.79363 0.34413 0.1934 0.0
O105 O 0.80241 0.34396 0.13867 0.0
O106 O 0.8013 0.36399 0.22431 0.0
C107 C 0.81473 0.35234 0.96805 0.0
O108 O 0.7924 0.34396 0.99006 0.0
C109 C 0.83009 0.39873 0.35308 0.0
C110 C 0.82953 0.43179 0.3852 0.0
C111 C 0.82967 0.41109 0.40695 0.0
N112 N 0.82999 0.41124 0.30142 0.0
N113 N 0.82993 0.4312 0.32066 0.0
C114 C 0.83084 0.37538 0.35082 0.0
H115 H 0.83833 0.37358 0.30436 0.0
H116 H 0.84219 0.3748 0.39058 0.0
H117 H 0.81206 0.35964 0.35681 0.0
C118 C 0.87976 0.40074 0.11444 0.0
N119 N 0.85644 0.392 0.13371 0.0
N120 N 0.85635 0.40309 0.18682 0.0
C121 C 0.87955 0.41923 0.20325 0.0
C122 C 0.89521 0.41845 0.15773 0.0
C123 C 0.88662 0.3954 0.05036 0.0
H124 H 0.88011 0.40314 0.01259 0.0
H125 H 0.87739 0.37528 0.04322 0.0
H126 H 0.90669 0.40335 0.04534 0.0
O127 O 0.81223 0.39456 0.071 0.0
O128 O 0.81418 0.41521 0.15892 0.0
H129 H 0.87773 0.44828 0.25113 0.0
H130 H 0.90646 0.44867 0.26238 0.0
C131 C 0.88634 0.43679 0.25787 0.0
H132 H 0.87913 0.42634 0.30297 0.0
H133 H 0.82929 0.44392 0.28991 0.0
O134 O 0.83268 0.36408 0.00551 0.0
C135 C 0.80885 0.41043 0.09998 0.0
Co136 Co 0.451 0.82094 0.43507 0.0
Co137 Co 0.42852 0.82408 0.56531 0.0
C138 C 0.45105 0.79158 0.54315 0.0
O139 O 0.45824 0.79857 0.48607 0.0
O140 O 0.43941 0.79987 0.57425 0.0
C141 C 0.462 0.80915 0.31003 0.0
O142 O 0.45157 0.78641 0.33055 0.0
C143 C 0.43606 0.83477 0.70056 0.0
C144 C 0.40105 0.83127 0.73237 0.0
C145 C 0.42357 0.83547 0.75489 0.0
N146 N 0.42153 0.83026 0.64947 0.0
N147 N 0.40072 0.82843 0.66854 0.0
C148 C 0.46099 0.83744 0.69605 0.0
H149 H 0.46279 0.82518 0.731 0.0
H150 H 0.46474 0.83338 0.64726 0.0
H151 H 0.47505 0.85669 0.70631 0.0
C152 C 0.47632 0.87486 0.44948 0.0
N153 N 0.46283 0.85209 0.47369 0.0
N154 N 0.45279 0.85332 0.52767 0.0
C155 C 0.45933 0.8768 0.53933 0.0
C156 C 0.47437 0.89124 0.49002 0.0
C157 C 0.48707 0.88018 0.38364 0.0
H158 H 0.49755 0.87055 0.37596 0.0
H159 H 0.4993 0.90009 0.37571 0.0
H160 H 0.47199 0.87324 0.34825 0.0
O161 O 0.41502 0.8056 0.42205 0.0
O162 O 0.39872 0.80964 0.51226 0.0
H163 H 0.4288 0.87437 0.59083 0.0
H164 H 0.45571 0.90471 0.59109 0.0
C165 C 0.44911 0.88478 0.59285 0.0
H166 H 0.45477 0.88059 0.63908 0.0
H167 H 0.38604 0.82451 0.63833 0.0
O168 O 0.46466 0.82596 0.34815 0.0
C169 C 0.39656 0.80269 0.45426 0.0
Co170 Co 0.62779 0.44719 0.76435 0.0
Co171 Co 0.60481 0.43024 0.9003 0.0
C172 C 0.65915 0.45271 0.87505 0.0
O173 O 0.65772 0.45666 0.81594 0.0
O174 O 0.64011 0.44239 0.91001 0.0
C175 C 0.65051 0.47743 0.64786 0.0
O176 O 0.66086 0.49758 0.6821 0.0
C177 C 0.60144 0.43923 0.03585 0.0
C178 C 0.56971 0.40429 0.06721 0.0
C179 C 0.58806 0.42673 0.08963 0.0
N180 N 0.5915 0.42481 0.98446 0.0
N181 N 0.5723 0.40409 0.00336 0.0
C182 C 0.62432 0.46376 0.03349 0.0
H183 H 0.63241 0.46788 0.98496 0.0
H184 H 0.61989 0.47821 0.04585 0.0
H185 H 0.63781 0.46448 0.06873 0.0
C186 C 0.59814 0.47224 0.77047 0.0
N187 N 0.60813 0.45982 0.79751 0.0
N188 N 0.59886 0.45281 0.85528 0.0
C189 C 0.58303 0.46079 0.86715 0.0
C190 C 0.58203 0.47333 0.81386 0.0
C191 C 0.6009 0.4795 0.70148 0.0
H192 H 0.60069 0.46491 0.67144 0.0
H193 H 0.61863 0.49661 0.6946 0.0
H194 H 0.58603 0.48283 0.68552 0.0
O195 O 0.60747 0.41109 0.75987 0.0
O196 O 0.58956 0.39845 0.85454 0.0
H197 H 0.55648 0.4351 0.93261 0.0
H198 H 0.55643 0.46377 0.92701 0.0
C199 C 0.56812 0.45523 0.92704 0.0
H200 H 0.58055 0.46235 0.96868 0.0
H201 H 0.56166 0.38942 0.97312 0.0
O202 O 0.63721 0.45683 0.67464 0.0
C203 C 0.59297 0.39398 0.79722 0.0
C204 C 0.20857 0.55637 0.09942 0.0
C205 C 0.20443 0.57323 0.06548 0.0
C206 C 0.21912 0.54406 0.06894 0.0
C207 C 0.22586 0.54851 0.00387 0.0
C208 C 0.22073 0.56457 0.96969 0.0
C209 C 0.21025 0.57681 -2e-05 0.0
C210 C 0.23947 0.53816 0.97006 0.0
C211 C 0.25234 0.52929 -7e-05 0.0
C212 C 0.2713 0.52591 0.96655 0.0
C213 C 0.29175 0.52951 0.00171 0.0
C214 C 0.3121 0.53107 0.97082 0.0
C215 C 0.31237 0.52878 0.90397 0.0
H216 H 0.25481 0.51764 0.87194 0.0
C217 C 0.29107 0.52291 0.8693 0.0
C218 C 0.27066 0.52146 0.90032 0.0
H219 H 0.29059 0.52072 0.81787 0.0
H220 H 0.20396 0.55292 0.1497 0.0
H221 H 0.22202 0.53129 0.09681 0.0
H222 H 0.22552 0.56827 0.91952 0.0
H223 H 0.20708 0.58942 0.97196 0.0
H224 H 0.24147 0.54097 0.91869 0.0
H225 H 0.25189 0.52802 0.05167 0.0
H226 H 0.29262 0.53261 0.05284 0.0
H227 H 0.32806 0.53519 -0.00082 0.0
C228 C 0.63328 0.21657 0.36715 0.0
C229 C 0.62951 0.21064 0.43257 0.0
C230 C 0.65691 0.22999 0.34215 0.0
C231 C 0.67743 0.23774 0.38199 0.0
C232 C 0.67368 0.23132 0.44706 0.0
C233 C 0.64997 0.2178 0.4721 0.0
C234 C 0.70268 0.25488 0.35905 0.0
C235 C 0.70924 0.25832 0.29683 0.0
C236 C 0.73256 0.27947 0.27377 0.0
C237 C 0.74191 0.27842 0.21352 0.0
C238 C 0.7623 0.29913 0.18777 0.0
C239 C 0.77346 0.32137 0.22159 0.0
H240 H 0.73703 0.30358 0.35337 0.0
C241 C 0.76424 0.32221 0.28225 0.0
C242 C 0.74411 0.30161 0.30797 0.0
H243 H 0.77204 0.33906 0.3094 0.0
H244 H 0.61794 0.21133 0.33521 0.0
H245 H 0.65885 0.23509 0.29221 0.0
H246 H 0.68914 0.23727 0.47898 0.0
H247 H 0.64773 0.2135 0.52268 0.0
H248 H 0.7161 0.2658 0.39511 0.0
H249 H 0.69684 0.24588 0.26097 0.0
H250 H 0.73314 0.26169 0.18576 0.0
H251 H 0.76885 0.29789 0.14078 0.0
C252 C 0.44823 0.76678 0.6389 0.0
C253 C 0.45459 0.77242 0.57407 0.0
C254 C 0.44768 0.74647 0.66688 0.0
C255 C 0.45358 0.73135 0.63089 0.0
C256 C 0.46186 0.73796 0.56771 0.0
C257 C 0.46223 0.75831 0.53924 0.0
C258 C 0.44909 0.70768 0.6576 0.0
C259 C 0.42787 0.69286 0.68783 0.0
C260 C 0.42103 0.6682 0.71155 0.0
C261 C 0.39699 0.64915 0.70194 0.0
C262 C 0.38938 0.62582 0.72608 0.0
C263 C 0.40544 0.62129 0.76229 0.0
H264 H 0.45588 0.67833 0.75579 0.0
C265 C 0.42946 0.64045 0.77294 0.0
C266 C 0.43734 0.66373 0.74691 0.0
H267 H 0.44217 0.63733 0.80058 0.0
H268 H 0.44274 0.77751 0.66771 0.0
H269 H 0.44184 0.74212 0.71624 0.0
H270 H 0.4667 0.72661 0.53933 0.0
H271 H 0.46742 0.7623 0.4894 0.0
H272 H 0.46203 0.70146 0.64759 0.0
H273 H 0.41394 0.69822 0.69096 0.0
H274 H 0.38408 0.6523 0.67532 0.0
H275 H 0.37073 0.61139 0.71747 0.0
C276 C 0.70304 0.46292 0.86586 0.0
C277 C 0.68289 0.45865 0.90396 0.0
C278 C 0.7241 0.4649 0.89396 0.0
C279 C 0.72533 0.46263 0.96072 0.0
C280 C 0.70593 0.46027 -0.00123 0.0
C281 C 0.68491 0.45816 0.97081 0.0
C282 C 0.74544 0.46083 0.99254 0.0
C283 C 0.75831 0.45182 0.96314 0.0
C284 C 0.77361 0.44369 -0.00212 0.0
C285 C 0.77839 0.42659 0.9679 0.0
C286 C 0.7903 0.41626 0.00061 0.0
C287 C 0.79785 0.42285 0.06428 0.0
H288 H 0.77986 0.46507 0.08479 0.0
C289 C 0.79418 0.44086 0.09345 0.0
C290 C 0.7823 0.45129 0.06053 0.0
H291 H 0.80015 0.44667 0.14206 0.0
H292 H 0.70216 0.4637 0.81426 0.0
H293 H 0.73908 0.46765 0.86314 0.0
H294 H 0.70648 0.45882 0.05031 0.0
H295 H 0.66989 0.4553 0.00171 0.0
H296 H 0.74709 0.46373 0.04383 0.0
H297 H 0.75516 0.44724 0.91272 0.0
H298 H 0.77215 0.42052 0.91957 0.0
H299 H 0.79304 0.40264 0.97628 0.0
C300 C 0.3695 0.78235 0.36002 0.0
C301 C 0.3721 0.79033 0.42378 0.0
C302 C 0.34635 0.76914 0.33227 0.0
C303 C 0.32519 0.76374 0.36753 0.0
C304 C 0.32785 0.77228 0.43068 0.0
C305 C 0.35103 0.78551 0.45849 0.0
C306 C 0.30014 0.74704 0.34277 0.0
C307 C 0.29493 0.74154 0.28038 0.0
C308 C 0.27126 0.72091 0.2574 0.0
C309 C 0.26492 0.72004 0.19267 0.0
C310 C 0.24445 0.69935 0.16765 0.0
C311 C 0.2301 0.67899 0.20686 0.0
H312 H 0.26075 0.70028 0.34665 0.0
C313 C 0.23595 0.68022 0.27207 0.0
C314 C 0.25629 0.70083 0.29702 0.0
H315 H 0.22525 0.66489 0.30376 0.0
H316 H 0.38532 0.78571 0.33182 0.0
H317 H 0.34525 0.76238 0.28418 0.0
H318 H 0.31188 0.76821 0.45919 0.0
H319 H 0.35236 0.79142 0.50768 0.0
H320 H 0.28562 0.73837 0.37806 0.0
H321 H 0.30872 0.75189 0.24441 0.0
H322 H 0.27623 0.73514 0.16094 0.0
H323 H 0.24045 0.69896 0.11718 0.0
C324 C 0.53791 0.22464 0.63011 0.0
C325 C 0.53944 0.22275 0.56354 0.0
C326 C 0.53712 0.24449 0.657 0.0
C327 C 0.5383 0.26323 0.6178 0.0
C328 C 0.53789 0.26029 0.55103 0.0
C329 C 0.53838 0.24021 0.52407 0.0
C330 C 0.54212 0.28693 0.64381 0.0
C331 C 0.54887 0.29442 0.70464 0.0
C332 C 0.55792 0.31997 0.72631 0.0
C333 C 0.55676 0.32451 0.79162 0.0
C334 C 0.56756 0.34852 0.81471 0.0
C335 C 0.58012 0.3685 0.77297 0.0
H336 H 0.57206 0.33736 0.63409 0.0
C337 C 0.58095 0.36394 0.70746 0.0
C338 C 0.57002 0.33999 0.68437 0.0
H339 H 0.59047 0.37889 0.67389 0.0
H340 H 0.5382 0.21117 0.66173 0.0
H341 H 0.53635 0.24519 0.70847 0.0
H342 H 0.53846 0.27421 0.51948 0.0
H343 H 0.53945 0.23919 0.47256 0.0
H344 H 0.54124 0.29952 0.60989 0.0
H345 H 0.54915 0.28203 0.74007 0.0
H346 H 0.54781 0.30942 0.82508 0.0
H347 H 0.5666 0.35139 0.86545 0.0
C348 C 0.18849 0.64297 0.85528 0.0
C349 C 0.17252 0.64903 0.8865 0.0
C350 C 0.18671 0.63879 0.78974 0.0
C351 C 0.16848 0.63999 0.75399 0.0
C352 C 0.15361 0.64778 0.78432 0.0
C353 C 0.15561 0.65228 0.85035 0.0
C354 C 0.1645 0.63266 0.68565 0.0
C355 C 0.16865 0.61498 0.66323 0.0
C356 C 0.1666 0.60756 0.59525 0.0
C357 C 0.17954 0.59599 0.57505 0.0
C358 C 0.17872 0.58901 0.51146 0.0
C359 C 0.16482 0.59336 0.46649 0.0
H360 H 0.14094 0.61913 0.56514 0.0
C361 C 0.151 0.60399 0.48715 0.0
C362 C 0.15196 0.61117 0.55087 0.0
H363 H 0.13913 0.60648 0.45462 0.0
H364 H 0.20207 0.64088 0.88191 0.0
H365 H 0.19939 0.63416 0.76753 0.0
H366 H 0.13975 0.64931 0.7575 0.0
H367 H 0.14313 0.657 0.87347 0.0
H368 H 0.15778 0.64169 0.65422 0.0
H369 H 0.17472 0.60576 0.69614 0.0
H370 H 0.19074 0.59271 0.6084 0.0
H371 H 0.18945 0.5807 0.49725 0.0
C372 C 0.53999 0.14979 0.84255 0.0
C373 C 0.56318 0.16744 0.81992 0.0
C374 C 0.53153 0.15282 0.9018 0.0
C375 C 0.54625 0.1736 0.93933 0.0
C376 C 0.56949 0.19107 0.91654 0.0
C377 C 0.57796 0.18794 0.85774 0.0
C378 C 0.53866 0.1778 0.00296 0.0
C379 C 0.52246 0.15983 0.04146 0.0
C380 C 0.52022 0.164 0.11041 0.0
C381 C 0.49871 0.14804 0.14401 0.0
C382 C 0.49756 0.14983 0.21061 0.0
C383 C 0.5181 0.16735 0.24441 0.0
H384 H 0.5576 0.19424 0.12133 0.0
C385 C 0.53922 0.1838 0.2105 0.0
C386 C 0.54035 0.18211 0.14453 0.0
H387 H 0.55537 0.19751 0.23531 0.0
H388 H 0.52841 0.13363 0.81459 0.0
H389 H 0.51341 0.13909 0.91727 0.0
H390 H 0.58124 0.20721 0.94454 0.0
H391 H 0.59584 0.20193 0.84107 0.0
H392 H 0.54854 0.19645 0.02082 0.0
H393 H 0.51186 0.14118 0.02403 0.0
H394 H 0.48306 0.13375 0.11895 0.0
H395 H 0.48112 0.13678 0.23578 0.0
C396 C 0.35079 0.53537 0.53499 0.0
C397 C 0.34506 0.51351 0.56677 0.0
C398 C 0.35583 0.53794 0.46971 0.0
C399 C 0.35568 0.51882 0.43471 0.0
C400 C 0.34828 0.49633 0.46546 0.0
C401 C 0.34303 0.49369 0.53114 0.0
C402 C 0.36353 0.52218 0.3666 0.0
C403 C 0.38059 0.54419 0.34347 0.0
C404 C 0.38842 0.54921 0.27554 0.0
C405 C 0.39892 0.57343 0.25351 0.0
C406 C 0.40606 0.57919 0.18979 0.0
C407 C 0.40299 0.56085 0.14643 0.0
H408 H 0.37915 0.51225 0.2487 0.0
C409 C 0.39356 0.53677 0.16908 0.0
C410 C 0.3862 0.53094 0.23293 0.0
H411 H 0.3921 0.52241 0.13805 0.0
H412 H 0.35201 0.55081 0.561 0.0
H413 H 0.36017 0.55511 0.44713 0.0
H414 H 0.34756 0.48116 0.43926 0.0
H415 H 0.33862 0.47661 0.55447 0.0
H416 H 0.35539 0.50619 0.33583 0.0
H417 H 0.38892 0.55981 0.37555 0.0
H418 H 0.40116 0.58795 0.28544 0.0
H419 H 0.41341 0.59797 0.17418 0.0
C420 C 0.79935 0.34179 0.856 0.0
C421 C 0.81913 0.35323 0.89848 0.0
C422 C 0.80291 0.34663 0.79051 0.0
C423 C 0.82633 0.36332 0.76637 0.0
C424 C 0.84635 0.37306 0.80829 0.0
C425 C 0.84282 0.36809 0.87369 0.0
C426 C 0.83058 0.37213 0.6991 0.0
C427 C 0.81271 0.37038 0.66052 0.0
C428 C 0.81765 0.38133 0.59588 0.0
C429 C 0.80048 0.36908 0.54747 0.0
C430 C 0.80442 0.37898 0.48611 0.0
C431 C 0.82532 0.40159 0.4726 0.0
H432 H 0.85166 0.41438 0.61957 0.0
C433 C 0.84216 0.41434 0.52125 0.0
C434 C 0.83847 0.40419 0.58255 0.0
H435 H 0.85834 0.43186 0.51152 0.0
H436 H 0.78094 0.32987 0.87355 0.0
H437 H 0.7871 0.33767 0.75972 0.0
H438 H 0.86466 0.38558 0.79094 0.0
H439 H 0.85853 0.37699 0.90506 0.0
H440 H 0.84938 0.38174 0.68193 0.0
H441 H 0.79373 0.36065 0.67576 0.0
H442 H 0.78416 0.35165 0.55693 0.0
H443 H 0.79108 0.36902 0.44914 0.0
C444 C 0.46961 0.83721 0.21791 0.0
C445 C 0.46606 0.81468 0.24091 0.0
C446 C 0.46919 0.84117 0.15254 0.0
C447 C 0.46566 0.82286 0.10874 0.0
C448 C 0.46404 0.8011 0.13105 0.0
C449 C 0.46394 0.79688 0.19682 0.0
C450 C 0.46216 0.82578 0.04021 0.0
C451 C 0.44654 0.83326 0.02149 0.0
C452 C 0.44124 0.83483 0.95356 0.0
C453 C 0.41703 0.82633 0.9345 0.0
C454 C 0.41152 0.82697 0.87014 0.0
C455 C 0.43021 0.83663 0.82362 0.0
H456 H 0.47901 0.85286 0.92218 0.0
C457 C 0.45464 0.8466 0.84396 0.0
C458 C 0.46006 0.8453 0.90804 0.0
H459 H 0.46981 0.85574 0.81142 0.0
H460 H 0.47149 0.85142 0.25036 0.0
H461 H 0.471 0.85832 0.13624 0.0
H462 H 0.46154 0.78685 0.09778 0.0
H463 H 0.46137 0.77943 0.21309 0.0
H464 H 0.47076 0.81978 0.00502 0.0
H465 H 0.43591 0.83654 0.05712 0.0
H466 H 0.40227 0.81855 0.96921 0.0
H467 H 0.3925 0.81941 0.85684 0.0
C468 C 0.60455 0.45732 0.17974 0.0
C469 C 0.59441 0.43311 0.1577 0.0
C470 C 0.6121 0.46314 0.24333 0.0
C471 C 0.60942 0.44473 0.28615 0.0
C472 C 0.59828 0.42042 0.26463 0.0
C473 C 0.59089 0.41467 0.2012 0.0
C474 C 0.61747 0.44968 0.35378 0.0
C475 C 0.63434 0.47169 0.37702 0.0
C476 C 0.64206 0.47468 0.44497 0.0
C477 C 0.64782 0.49634 0.47785 0.0
C478 C 0.65223 0.49811 0.54385 0.0
C479 C 0.65098 0.47821 0.57747 0.0
H480 H 0.63985 0.43925 0.4536 0.0
C481 C 0.64714 0.45738 0.54355 0.0
C482 C 0.64296 0.45571 0.47799 0.0
H483 H 0.64658 0.44197 0.56816 0.0
H484 H 0.6064 0.47177 0.14837 0.0
H485 H 0.61968 0.48194 0.25862 0.0
H486 H 0.59569 0.40581 0.29675 0.0
H487 H 0.58299 0.3958 0.18587 0.0
H488 H 0.60939 0.43398 0.38577 0.0
H489 H 0.64223 0.48787 0.34687 0.0
H490 H 0.64769 0.51139 0.45314 0.0
H491 H 0.65518 0.51439 0.56899 0.0
C492 C 0.92701 0.46188 0.13931 0.0
C493 C 0.92092 0.43736 0.14667 0.0
C494 C 0.95129 0.48008 0.12968 0.0
C495 C 0.96997 0.47405 0.12752 0.0
C496 C 0.96369 0.44935 0.13286 0.0
C497 C 0.93932 0.43112 0.1426 0.0
C498 C 0.99607 0.49306 0.11939 0.0
C499 C 0.00514 0.5163 0.13967 0.0
C500 C 0.03151 0.53487 0.13609 0.0
C501 C 0.0415 0.55325 0.18291 0.0
C502 C 0.06656 0.57016 0.18338 0.0
C503 C 0.08189 0.56923 0.13623 0.0
H504 H 0.0396 0.52104 0.0497 0.0
C505 C 0.07186 0.55157 0.08778 0.0
C506 C 0.04683 0.53452 0.08757 0.0
H507 H 0.08351 0.5505 0.05128 0.0
H508 H 0.91293 0.46695 0.14079 0.0
H509 H 0.95525 0.49875 0.12329 0.0
H510 H 0.9777 0.44421 0.13062 0.0
H511 H 0.93487 0.41222 0.14761 0.0
H512 H 0.00842 0.48725 0.10045 0.0
H513 H 0.99329 0.52147 0.16468 0.0
H514 H 0.03004 0.55403 0.22044 0.0
H515 H 0.07408 0.58362 0.22132 0.0
C516 C 0.50209 0.06279 0.46014 0.0
C517 C 0.52568 0.08233 0.47186 0.0
C518 C 0.49813 0.03898 0.45395 0.0
C519 C 0.51788 0.03448 0.45872 0.0
C520 C 0.54156 0.05434 0.46826 0.0
C521 C 0.54545 0.07805 0.47447 0.0
C522 C 0.51449 0.0094 0.4596 0.0
C523 C 0.49442 0.9894 0.43754 0.0
C524 C 0.49007 0.96419 0.4471 0.0
C525 C 0.4658 0.94485 0.45079 0.0
C526 C 0.46078 0.92111 0.46425 0.0
C527 C 0.47995 0.91625 0.47381 0.0
H528 H 0.52825 0.97329 0.44931 0.0
C529 C 0.50423 0.93523 0.46754 0.0
C530 C 0.50931 0.95906 0.45416 0.0
H531 H 0.51923 0.93166 0.47375 0.0
H532 H 0.48665 0.06585 0.45802 0.0
H533 H 0.4795 0.02424 0.44815 0.0
H534 H 0.55708 0.05146 0.47221 0.0
H535 H 0.56387 0.09302 0.48276 0.0
H536 H 0.52893 0.00741 0.48191 0.0
H537 H 0.47981 0.99117 0.41553 0.0
H538 H 0.45065 0.94822 0.44486 0.0
H539 H 0.44188 0.90653 0.46779 0.0
C540 C 0.45974 0.53273 0.78243 0.0
C541 C 0.43495 0.51475 0.78597 0.0
C542 C 0.47758 0.52611 0.77279 0.0
C543 C 0.47089 0.50124 0.76727 0.0
C544 C 0.44587 0.48341 0.768 0.0
C545 C 0.42803 0.4901 0.77719 0.0
C546 C 0.4892 0.49296 0.76301 0.0
C547 C 0.513 0.50704 0.77881 0.0
C548 C 0.53026 0.49754 0.78287 0.0
C549 C 0.55549 0.51397 0.77637 0.0
C550 C 0.5724 0.50601 0.78504 0.0
C551 C 0.56429 0.48158 0.80146 0.0
H552 H 0.50304 0.4598 0.80548 0.0
C553 C 0.53913 0.46502 0.80703 0.0
C554 C 0.52223 0.4729 0.79811 0.0
H555 H 0.53255 0.44602 0.81925 0.0
H556 H 0.46531 0.55192 0.78777 0.0
H557 H 0.49643 0.54063 0.77004 0.0
H558 H 0.44012 0.46416 0.7632 0.0
H559 H 0.4089 0.47602 0.77919 0.0
H560 H 0.48239 0.47401 0.74942 0.0
H561 H 0.52033 0.52613 0.79129 0.0
H562 H 0.56216 0.53308 0.7652 0.0
H563 H 0.59179 0.51901 0.7804 0.0
loop_
_geom_bond_atom_site_label_1
_geom_bond_atom_site_label_2
_geom_bond_distance
_geom_bond_site_symmetry_2
_ccdc_geom_bond_type
Co0 O3 1.970 . S
Co0 N17 1.989 . S
Co0 O25 1.967 . S
Co0 O32 1.920 1_554 S
Co1 O4 1.966 . S
Co1 N10 2.022 . S
Co1 N18 1.993 . S
Co1 O26 1.941 . S
C2 O3 1.258 . S
C2 O4 1.263 . S
O3 Co0 1.970 . S
O3 C2 1.258 . S
O4 Co1 1.966 . S
O4 C2 1.263 . S
C5 O6 1.235 . S
C5 O32 1.289 . S
O6 C5 1.235 . S
C7 C9 1.400 . S
C7 N10 1.351 . S
C7 C12 1.501 . S
C8 C9 1.387 . S
C8 N11 1.341 . S
C9 C7 1.400 . S
C9 C8 1.387 . S
N10 Co1 2.022 . S
N10 C7 1.351 . S
N10 N11 1.365 . S
N11 C8 1.341 . S
N11 N10 1.365 . S
N11 H31 0.862 . S
C12 C7 1.501 . S
C12 H13 0.961 . S
C12 H14 0.961 . S
C12 H15 0.960 . S
H13 C12 0.961 . S
H14 C12 0.961 . S
H15 C12 0.960 . S
C16 N17 1.342 . S
C16 C20 1.401 . S
C16 C21 1.499 . S
N17 Co0 1.989 . S
N17 C16 1.342 . S
N17 N18 1.388 . S
N18 Co1 1.993 . S
N18 N17 1.388 . S
N18 C19 1.346 . S
C19 N18 1.346 . S
C19 C20 1.396 . S
C19 C29 1.510 . S
C20 C16 1.401 . S
C20 C19 1.396 . S
C21 C16 1.499 . S
C21 H22 0.959 . S
C21 H23 0.960 . S
C21 H24 0.961 . S
H22 C21 0.959 . S
H23 C21 0.960 . S
H24 C21 0.961 . S
O25 Co0 1.967 . S
O25 C33 1.258 . S
O26 Co1 1.941 . S
O26 C33 1.266 . S
H27 C29 0.959 . S
H28 C29 0.961 . S
C29 C19 1.510 . S
C29 H27 0.959 . S
C29 H28 0.961 . S
C29 H30 0.960 . S
H30 C29 0.960 . S
H31 N11 0.862 . S
O32 Co0 1.920 1_556 S
O32 C5 1.289 . S
C33 O25 1.258 . S
C33 O26 1.266 . S
Co34 O37 1.970 . S
Co34 N51 1.989 . S
Co34 O59 1.967 . S
Co34 O66 1.920 . S
Co35 O38 1.966 . S
Co35 N44 2.022 . S
Co35 N52 1.993 . S
Co35 O60 1.941 . S
C36 O37 1.258 . S
C36 O38 1.263 . S
O37 Co34 1.970 . S
O37 C36 1.258 . S
O38 Co35 1.966 . S
O38 C36 1.263 . S
C39 O40 1.235 . S
C39 O66 1.289 . S
O40 C39 1.235 . S
C41 C43 1.400 . S
C41 N44 1.351 . S
C41 C46 1.501 . S
C42 C43 1.387 . S
C42 N45 1.341 . S
C43 C41 1.400 . S
C43 C42 1.387 . S
N44 Co35 2.022 . S
N44 C41 1.351 . S
N44 N45 1.365 . S
N45 C42 1.341 . S
N45 N44 1.365 . S
N45 H65 0.862 . S
C46 C41 1.501 . S
C46 H47 0.961 . S
C46 H48 0.961 . S
C46 H49 0.960 . S
H47 C46 0.961 . S
H48 C46 0.961 . S
H49 C46 0.960 . S
C50 N51 1.342 . S
C50 C54 1.401 . S
C50 C55 1.499 . S
N51 Co34 1.989 . S
N51 C50 1.342 . S
N51 N52 1.388 . S
N52 Co35 1.993 . S
N52 N51 1.388 . S
N52 C53 1.346 . S
C53 N52 1.346 . S
C53 C54 1.396 . S
C53 C63 1.510 . S
C54 C50 1.401 . S
C54 C53 1.396 . S
C55 C50 1.499 . S
C55 H56 0.959 . S
C55 H57 0.960 . S
C55 H58 0.961 . S
H56 C55 0.959 . S
H57 C55 0.960 . S
H58 C55 0.961 . S
O59 Co34 1.967 . S
O59 C67 1.258 . S
O60 Co35 1.941 . S
O60 C67 1.266 . S
H61 C63 0.959 . S
H62 C63 0.961 . S
C63 C53 1.510 . S
C63 H61 0.959 . S
C63 H62 0.961 . S
C63 H64 0.960 . S
H64 C63 0.960 . S
H65 N45 0.862 . S
O66 Co34 1.920 . S
O66 C39 1.289 . S
C67 O59 1.258 . S
C67 O60 1.266 . S
Co68 O71 1.970 . S
Co68 N85 1.989 . S
Co68 O93 1.967 . S
Co68 O100 1.920 . S
Co69 O72 1.966 . S
Co69 N78 2.022 . S
Co69 N86 1.993 . S
Co69 O94 1.941 . S
C70 O71 1.258 . S
C70 O72 1.263 . S
O71 Co68 1.970 . S
O71 C70 1.258 . S
O72 Co69 1.966 . S
O72 C70 1.263 . S
C73 O74 1.235 . S
C73 O100 1.289 . S
O74 C73 1.235 . S
C75 C77 1.400 . S
C75 N78 1.351 1_554 S
C75 C80 1.501 . S
C76 C77 1.387 . S
C76 N79 1.341 . S
C77 C75 1.400 . S
C77 C76 1.387 . S
N78 Co69 2.022 . S
N78 C75 1.351 1_556 S
N78 N79 1.365 1_556 S
N79 C76 1.341 . S
N79 N78 1.365 1_554 S
N79 H99 0.862 1_554 S
C80 C75 1.501 . S
C80 H81 0.961 1_554 S
C80 H82 0.961 . S
C80 H83 0.960 . S
H81 C80 0.961 1_556 S
H82 C80 0.961 . S
H83 C80 0.960 . S
C84 N85 1.342 . S
C84 C88 1.401 . S
C84 C89 1.499 . S
N85 Co68 1.989 . S
N85 C84 1.342 . S
N85 N86 1.388 . S
N86 Co69 1.993 . S
N86 N85 1.388 . S
N86 C87 1.346 . S
C87 N86 1.346 . S
C87 C88 1.396 . S
C87 C97 1.510 . S
C88 C84 1.401 . S
C88 C87 1.396 . S
C89 C84 1.499 . S
C89 H90 0.959 . S
C89 H91 0.960 . S
C89 H92 0.961 . S
H90 C89 0.959 . S
H91 C89 0.960 . S
H92 C89 0.961 . S
O93 Co68 1.967 . S
O93 C101 1.258 . S
O94 Co69 1.941 . S
O94 C101 1.266 . S
H95 C97 0.959 . S
H96 C97 0.961 . S
C97 C87 1.510 . S
C97 H95 0.959 . S
C97 H96 0.961 . S
C97 H98 0.960 . S
H98 C97 0.960 . S
H99 N79 0.862 1_556 S
O100 Co68 1.920 . S
O100 C73 1.289 . S
C101 O93 1.258 . S
C101 O94 1.266 . S
Co102 O105 1.970 . S
Co102 N119 1.989 . S
Co102 O127 1.967 . S
Co102 O134 1.920 1_554 S
Co103 O106 1.966 . S
Co103 N112 2.022 . S
Co103 N120 1.993 . S
Co103 O128 1.941 . S
C104 O105 1.258 . S
C104 O106 1.263 . S
O105 Co102 1.970 . S
O105 C104 1.258 . S
O106 Co103 1.966 . S
O106 C104 1.263 . S
C107 O108 1.235 . S
C107 O134 1.289 . S
O108 C107 1.235 . S
C109 C111 1.400 . S
C109 N112 1.351 . S
C109 C114 1.501 . S
C110 C111 1.387 . S
C110 N113 1.341 . S
C111 C109 1.400 . S
C111 C110 1.387 . S
N112 Co103 2.022 . S
N112 C109 1.351 . S
N112 N113 1.365 . S
N113 C110 1.341 . S
N113 N112 1.365 . S
N113 H133 0.862 . S
C114 C109 1.501 . S
C114 H115 0.961 . S
C114 H116 0.961 . S
C114 H117 0.960 . S
H115 C114 0.961 . S
H116 C114 0.961 . S
H117 C114 0.960 . S
C118 N119 1.342 . S
C118 C122 1.401 . S
C118 C123 1.499 . S
N119 Co102 1.989 . S
N119 C118 1.342 . S
N119 N120 1.388 . S
N120 Co103 1.993 . S
N120 N119 1.388 . S
N120 C121 1.346 . S
C121 N120 1.346 . S
C121 C122 1.396 . S
C121 C131 1.510 . S
C122 C118 1.401 . S
C122 C121 1.396 . S
C123 C118 1.499 . S
C123 H124 0.959 . S
C123 H125 0.960 . S
C123 H126 0.961 . S
H124 C123 0.959 . S
H125 C123 0.960 . S
H126 C123 0.961 . S
O127 Co102 1.967 . S
O127 C135 1.258 . S
O128 Co103 1.941 . S
O128 C135 1.266 . S
H129 C131 0.959 . S
H130 C131 0.961 . S
C131 C121 1.510 . S
C131 H129 0.959 . S
C131 H130 0.961 . S
C131 H132 0.960 . S
H132 C131 0.960 . S
H133 N113 0.862 . S
O134 Co102 1.920 1_556 S
O134 C107 1.289 . S
C135 O127 1.258 . S
C135 O128 1.266 . S
Co136 O139 1.970 . S
Co136 N153 1.989 . S
Co136 O161 1.967 . S
Co136 O168 1.920 . S
Co137 O140 1.966 . S
Co137 N146 2.022 . S
Co137 N154 1.993 . S
Co137 O162 1.941 . S
C138 O139 1.258 . S
C138 O140 1.263 . S
O139 Co136 1.970 . S
O139 C138 1.258 . S
O140 Co137 1.966 . S
O140 C138 1.263 . S
C141 O142 1.235 . S
C141 O168 1.289 . S
O142 C141 1.235 . S
C143 C145 1.400 . S
C143 N146 1.351 . S
C143 C148 1.501 . S
C144 C145 1.387 . S
C144 N147 1.341 . S
C145 C143 1.400 . S
C145 C144 1.387 . S
N146 Co137 2.022 . S
N146 C143 1.351 . S
N146 N147 1.365 . S
N147 C144 1.341 . S
N147 N146 1.365 . S
N147 H167 0.862 . S
C148 C143 1.501 . S
C148 H149 0.961 . S
C148 H150 0.961 . S
C148 H151 0.960 . S
H149 C148 0.961 . S
H150 C148 0.961 . S
H151 C148 0.960 . S
C152 N153 1.342 . S
C152 C156 1.401 . S
C152 C157 1.499 . S
N153 Co136 1.989 . S
N153 C152 1.342 . S
N153 N154 1.388 . S
N154 Co137 1.993 . S
N154 N153 1.388 . S
N154 C155 1.346 . S
C155 N154 1.346 . S
C155 C156 1.396 . S
C155 C165 1.510 . S
C156 C152 1.401 . S
C156 C155 1.396 . S
C157 C152 1.499 . S
C157 H158 0.959 . S
C157 H159 0.960 . S
C157 H160 0.961 . S
H158 C157 0.959 . S
H159 C157 0.960 . S
H160 C157 0.961 . S
O161 Co136 1.967 . S
O161 C169 1.258 . S
O162 Co137 1.941 . S
O162 C169 1.266 . S
H163 C165 0.959 . S
H164 C165 0.961 . S
C165 C155 1.510 . S
C165 H163 0.959 . S
C165 H164 0.961 . S
C165 H166 0.960 . S
H166 C165 0.960 . S
H167 N147 0.862 . S
O168 Co136 1.920 . S
O168 C141 1.289 . S
C169 O161 1.258 . S
C169 O162 1.266 . S
Co170 O173 1.970 . S
Co170 N187 1.989 . S
Co170 O195 1.967 . S
Co170 O202 1.920 . S
Co171 O174 1.966 . S
Co171 N180 2.022 . S
Co171 N188 1.993 . S
Co171 O196 1.941 . S
C172 O173 1.258 . S
C172 O174 1.263 . S
O173 Co170 1.970 . S
O173 C172 1.258 . S
O174 Co171 1.966 . S
O174 C172 1.263 . S
C175 O176 1.235 . S
C175 O202 1.289 . S
O176 C175 1.235 . S
C177 C179 1.400 . S
C177 N180 1.351 1_554 S
C177 C182 1.501 . S
C178 C179 1.387 . S
C178 N181 1.341 . S
C179 C177 1.400 . S
C179 C178 1.387 . S
N180 Co171 2.022 . S
N180 C177 1.351 1_556 S
N180 N181 1.365 1_556 S
N181 C178 1.341 . S
N181 N180 1.365 1_554 S
N181 H201 0.862 1_554 S
C182 C177 1.501 . S
C182 H183 0.961 1_554 S
C182 H184 0.961 . S
C182 H185 0.960 . S
H183 C182 0.961 1_556 S
H184 C182 0.961 . S
H185 C182 0.960 . S
C186 N187 1.342 . S
C186 C190 1.401 . S
C186 C191 1.499 . S
N187 Co170 1.989 . S
N187 C186 1.342 . S
N187 N188 1.388 . S
N188 Co171 1.993 . S
N188 N187 1.388 . S
N188 C189 1.346 . S
C189 N188 1.346 . S
C189 C190 1.396 . S
C189 C199 1.510 . S
C190 C186 1.401 . S
C190 C189 1.396 . S
C191 C186 1.499 . S
C191 H192 0.959 . S
C191 H193 0.960 . S
C191 H194 0.961 . S
H192 C191 0.959 . S
H193 C191 0.960 . S
H194 C191 0.961 . S
O195 Co170 1.967 . S
O195 C203 1.258 . S
O196 Co171 1.941 . S
O196 C203 1.266 . S
H197 C199 0.959 . S
H198 C199 0.961 . S
C199 C189 1.510 . S
C199 H197 0.959 . S
C199 H198 0.961 . S
C199 H200 0.960 . S
H200 C199 0.960 . S
H201 N181 0.862 1_556 S
O202 Co170 1.920 . S
O202 C175 1.289 . S
C203 O195 1.258 . S
C203 O196 1.266 . S
C204 C205 1.386 . S
C204 C206 1.383 . S
C204 H220 0.951 . S
C205 C204 1.386 . S
C205 C209 1.383 . S
C206 C204 1.383 . S
C206 C207 1.402 . S
C206 H221 0.951 . S
C207 C206 1.402 . S
C207 C208 1.375 . S
C207 C210 1.489 . S
C208 C207 1.375 . S
C208 C209 1.367 . S
C208 H222 0.951 . S
C209 C205 1.383 . S
C209 C208 1.367 . S
C209 H223 0.950 . S
C210 C207 1.489 . S
C210 C211 1.297 . S
C210 H224 0.942 1_554 S
C211 C210 1.297 . S
C211 C212 1.479 1_554 S
C211 H225 0.951 . S
C212 C211 1.479 1_556 S
C212 C213 1.375 . S
C212 C218 1.404 . S
C213 C212 1.375 . S
C213 C214 1.369 . S
C213 H226 0.950 . S
C214 C213 1.369 . S
C214 C215 1.392 . S
C214 H227 0.951 . S
C215 C214 1.392 . S
C215 C217 1.384 . S
H216 C218 0.949 . S
C217 C215 1.384 . S
C217 C218 1.385 . S
C217 H219 0.950 . S
C218 C212 1.404 . S
C218 H216 0.949 . S
C218 C217 1.385 . S
H219 C217 0.950 . S
H220 C204 0.951 . S
H221 C206 0.951 . S
H222 C208 0.951 . S
H223 C209 0.950 . S
H224 C210 0.942 1_556 S
H225 C211 0.951 . S
H226 C213 0.950 . S
H227 C214 0.951 . S
C228 C229 1.386 . S
C228 C230 1.383 . S
C228 H244 0.951 . S
C229 C228 1.386 . S
C229 C233 1.383 . S
C230 C228 1.383 . S
C230 C231 1.402 . S
C230 H245 0.951 . S
C231 C230 1.402 . S
C231 C232 1.375 . S
C231 C234 1.481 . S
C232 C231 1.375 . S
C232 C233 1.367 . S
C232 H246 0.951 . S
C233 C229 1.383 . S
C233 C232 1.367 . S
C233 H247 0.950 . S
C234 C231 1.481 . S
C234 C235 1.297 . S
C234 H248 0.950 . S
C235 C234 1.297 . S
C235 C236 1.479 . S
C235 H249 0.950 . S
C236 C235 1.479 . S
C236 C237 1.375 . S
C236 C242 1.404 . S
C237 C236 1.375 . S
C237 C238 1.369 . S
C237 H250 0.950 . S
C238 C237 1.369 . S
C238 C239 1.392 . S
C238 H251 0.951 . S
C239 C238 1.392 . S
C239 C241 1.384 . S
H240 C242 0.949 . S
C241 C239 1.384 . S
C241 C242 1.385 . S
C241 H243 0.950 . S
C242 C236 1.404 . S
C242 H240 0.949 . S
C242 C241 1.385 . S
H243 C241 0.950 . S
H244 C228 0.951 . S
H245 C230 0.951 . S
H246 C232 0.951 . S
H247 C233 0.950 . S
H248 C234 0.950 . S
H249 C235 0.950 . S
H250 C237 0.950 . S
H251 C238 0.951 . S
C252 C253 1.386 . S
C252 C254 1.383 . S
C252 H268 0.951 . S
C253 C252 1.386 . S
C253 C257 1.383 . S
C254 C252 1.383 . S
C254 C255 1.402 . S
C254 H269 0.951 . S
C255 C254 1.402 . S
C255 C256 1.375 . S
C255 C258 1.481 . S
C256 C255 1.375 . S
C256 C257 1.367 . S
C256 H270 0.951 . S
C257 C253 1.383 . S
C257 C256 1.367 . S
C257 H271 0.950 . S
C258 C255 1.481 . S
C258 C259 1.297 . S
C258 H272 0.950 . S
C259 C258 1.297 . S
C259 C260 1.479 . S
C259 H273 0.950 . S
C260 C259 1.479 . S
C260 C261 1.375 . S
C260 C266 1.404 . S
C261 C260 1.375 . S
C261 C262 1.369 . S
C261 H274 0.950 . S
C262 C261 1.369 . S
C262 C263 1.392 . S
C262 H275 0.951 . S
C263 C262 1.392 . S
C263 C265 1.384 . S
H264 C266 0.949 . S
C265 C263 1.384 . S
C265 C266 1.385 . S
C265 H267 0.950 . S
C266 C260 1.404 . S
C266 H264 0.949 . S
C266 C265 1.385 . S
H267 C265 0.950 . S
H268 C252 0.951 . S
H269 C254 0.951 . S
H270 C256 0.951 . S
H271 C257 0.950 . S
H272 C258 0.950 . S
H273 C259 0.950 . S
H274 C261 0.950 . S
H275 C262 0.951 . S
C276 C277 1.386 . S
C276 C278 1.383 . S
C276 H292 0.951 . S
C277 C276 1.386 . S
C277 C281 1.383 . S
C278 C276 1.383 . S
C278 C279 1.402 . S
C278 H293 0.951 . S
C279 C278 1.402 . S
C279 C280 1.375 . S
C279 C282 1.471 1_556 S
C280 C279 1.375 . S
C280 C281 1.367 . S
C280 H294 0.951 1_556 S
C281 C277 1.383 . S
C281 C280 1.367 . S
C281 H295 0.950 . S
C282 C279 1.471 1_554 S
C282 C283 1.294 1_554 S
C282 H296 0.964 . S
C283 C282 1.294 1_556 S
C283 C284 1.479 1_556 S
C283 H297 0.950 . S
C284 C283 1.479 1_554 S
C284 C285 1.378 . S
C284 C290 1.404 . S
C285 C284 1.378 . S
C285 C286 1.371 . S
C285 H298 0.945 1_554 S
C286 C285 1.371 . S
C286 C287 1.392 . S
C286 H299 0.951 . S
C287 C286 1.392 . S
C287 C289 1.384 . S
H288 C290 0.949 . S
C289 C287 1.384 . S
C289 C290 1.385 . S
C289 H291 0.950 . S
C290 C284 1.404 . S
C290 H288 0.949 . S
C290 C289 1.385 . S
H291 C289 0.950 . S
H292 C276 0.951 . S
H293 C278 0.951 . S
H294 C280 0.951 1_554 S
H295 C281 0.950 . S
H296 C282 0.964 . S
H297 C283 0.950 . S
H298 C285 0.945 1_556 S
H299 C286 0.951 . S
C300 C301 1.386 . S
C300 C302 1.383 . S
C300 H316 0.951 . S
C301 C300 1.386 . S
C301 C305 1.383 . S
C302 C300 1.383 . S
C302 C303 1.402 . S
C302 H317 0.951 . S
C303 C302 1.402 . S
C303 C304 1.375 . S
C303 C306 1.481 . S
C304 C303 1.375 . S
C304 C305 1.367 . S
C304 H318 0.951 . S
C305 C301 1.383 . S
C305 C304 1.367 . S
C305 H319 0.950 . S
C306 C303 1.481 . S
C306 C307 1.297 . S
C306 H320 0.950 . S
C307 C306 1.297 . S
C307 C308 1.479 . S
C307 H321 0.950 . S
C308 C307 1.479 . S
C308 C309 1.375 . S
C308 C314 1.404 . S
C309 C308 1.375 . S
C309 C310 1.369 . S
C309 H322 0.950 . S
C310 C309 1.369 . S
C310 C311 1.392 . S
C310 H323 0.951 . S
C311 C310 1.392 . S
C311 C313 1.384 . S
H312 C314 0.949 . S
C313 C311 1.384 . S
C313 C314 1.385 . S
C313 H315 0.950 . S
C314 C308 1.404 . S
C314 H312 0.949 . S
C314 C313 1.385 . S
H315 C313 0.950 . S
H316 C300 0.951 . S
H317 C302 0.951 . S
H318 C304 0.951 . S
H319 C305 0.950 . S
H320 C306 0.950 . S
H321 C307 0.950 . S
H322 C309 0.950 . S
H323 C310 0.951 . S
C324 C325 1.386 . S
C324 C326 1.383 . S
C324 H340 0.951 . S
C325 C324 1.386 . S
C325 C329 1.383 . S
C326 C324 1.383 . S
C326 C327 1.402 . S
C326 H341 0.951 . S
C327 C326 1.402 . S
C327 C328 1.375 . S
C327 C330 1.481 . S
C328 C327 1.375 . S
C328 C329 1.367 . S
C328 H342 0.951 . S
C329 C325 1.383 . S
C329 C328 1.367 . S
C329 H343 0.950 . S
C330 C327 1.481 . S
C330 C331 1.297 . S
C330 H344 0.950 . S
C331 C330 1.297 . S
C331 C332 1.479 . S
C331 H345 0.950 . S
C332 C331 1.479 . S
C332 C333 1.375 . S
C332 C338 1.404 . S
C333 C332 1.375 . S
C333 C334 1.369 . S
C333 H346 0.950 . S
C334 C333 1.369 . S
C334 C335 1.392 . S
C334 H347 0.951 . S
C335 C334 1.392 . S
C335 C337 1.384 . S
H336 C338 0.949 . S
C337 C335 1.384 . S
C337 C338 1.385 . S
C337 H339 0.950 . S
C338 C332 1.404 . S
C338 H336 0.949 . S
C338 C337 1.385 . S
H339 C337 0.950 . S
H340 C324 0.951 . S
H341 C326 0.951 . S
H342 C328 0.951 . S
H343 C329 0.950 . S
H344 C330 0.950 . S
H345 C331 0.950 . S
H346 C333 0.950 . S
H347 C334 0.951 . S
C348 C349 1.386 . S
C348 C350 1.383 . S
C348 H364 0.951 . S
C349 C348 1.386 . S
C349 C353 1.383 . S
C350 C348 1.383 . S
C350 C351 1.402 . S
C350 H365 0.951 . S
C351 C350 1.402 . S
C351 C352 1.375 . S
C351 C354 1.481 . S
C352 C351 1.375 . S
C352 C353 1.367 . S
C352 H366 0.951 . S
C353 C349 1.383 . S
C353 C352 1.367 . S
C353 H367 0.950 . S
C354 C351 1.481 . S
C354 C355 1.297 . S
C354 H368 0.950 . S
C355 C354 1.297 . S
C355 C356 1.479 . S
C355 H369 0.950 . S
C356 C355 1.479 . S
C356 C357 1.375 . S
C356 C362 1.404 . S
C357 C356 1.375 . S
C357 C358 1.369 . S
C357 H370 0.950 . S
C358 C357 1.369 . S
C358 C359 1.392 . S
C358 H371 0.951 . S
C359 C358 1.392 . S
C359 C361 1.384 . S
H360 C362 0.949 . S
C361 C359 1.384 . S
C361 C362 1.385 . S
C361 H363 0.950 . S
C362 C356 1.404 . S
C362 H360 0.949 . S
C362 C361 1.385 . S
H363 C361 0.950 . S
H364 C348 0.951 . S
H365 C350 0.951 . S
H366 C352 0.951 . S
H367 C353 0.950 . S
H368 C354 0.950 . S
H369 C355 0.950 . S
H370 C357 0.950 . S
H371 C358 0.951 . S
C372 C373 1.386 . S
C372 C374 1.383 . S
C372 H388 0.951 . S
C373 C372 1.386 . S
C373 C377 1.383 . S
C374 C372 1.383 . S
C374 C375 1.402 . S
C374 H389 0.951 . S
C375 C374 1.402 . S
C375 C376 1.375 . S
C375 C378 1.481 1_556 S
C376 C375 1.375 . S
C376 C377 1.367 . S
C376 H390 0.951 . S
C377 C373 1.383 . S
C377 C376 1.367 . S
C377 H391 0.950 . S
C378 C375 1.481 1_554 S
C378 C379 1.297 . S
C378 H392 0.950 . S
C379 C378 1.297 . S
C379 C380 1.479 . S
C379 H393 0.950 . S
C380 C379 1.479 . S
C380 C381 1.375 . S
C380 C386 1.404 . S
C381 C380 1.375 . S
C381 C382 1.369 . S
C381 H394 0.950 . S
C382 C381 1.369 . S
C382 C383 1.392 . S
C382 H395 0.951 . S
C383 C382 1.392 . S
C383 C385 1.384 . S
H384 C386 0.949 . S
C385 C383 1.384 . S
C385 C386 1.385 . S
C385 H387 0.950 . S
C386 C380 1.404 . S
C386 H384 0.949 . S
C386 C385 1.385 . S
H387 C385 0.950 . S
H388 C372 0.951 . S
H389 C374 0.951 . S
H390 C376 0.951 . S
H391 C377 0.950 . S
H392 C378 0.950 . S
H393 C379 0.950 . S
H394 C381 0.950 . S
H395 C382 0.951 . S
C396 C397 1.386 . S
C396 C398 1.383 . S
C396 H412 0.951 . S
C397 C396 1.386 . S
C397 C401 1.383 . S
C398 C396 1.383 . S
C398 C399 1.402 . S
C398 H413 0.951 . S
C399 C398 1.402 . S
C399 C400 1.375 . S
C399 C402 1.481 . S
C400 C399 1.375 . S
C400 C401 1.367 . S
C400 H414 0.951 . S
C401 C397 1.383 . S
C401 C400 1.367 . S
C401 H415 0.950 . S
C402 C399 1.481 . S
C402 C403 1.297 . S
C402 H416 0.950 . S
C403 C402 1.297 . S
C403 C404 1.479 . S
C403 H417 0.950 . S
C404 C403 1.479 . S
C404 C405 1.375 . S
C404 C410 1.404 . S
C405 C404 1.375 . S
C405 C406 1.369 . S
C405 H418 0.950 . S
C406 C405 1.369 . S
C406 C407 1.392 . S
C406 H419 0.951 . S
C407 C406 1.392 . S
C407 C409 1.384 . S
H408 C410 0.949 . S
C409 C407 1.384 . S
C409 C410 1.385 . S
C409 H411 0.950 . S
C410 C404 1.404 . S
C410 H408 0.949 . S
C410 C409 1.385 . S
H411 C409 0.950 . S
H412 C396 0.951 . S
H413 C398 0.951 . S
H414 C400 0.951 . S
H415 C401 0.950 . S
H416 C402 0.950 . S
H417 C403 0.950 . S
H418 C405 0.950 . S
H419 C406 0.951 . S
C420 C421 1.386 . S
C420 C422 1.383 . S
C420 H436 0.951 . S
C421 C420 1.386 . S
C421 C425 1.383 . S
C422 C420 1.383 . S
C422 C423 1.402 . S
C422 H437 0.951 . S
C423 C422 1.402 . S
C423 C424 1.375 . S
C423 C426 1.481 . S
C424 C423 1.375 . S
C424 C425 1.367 . S
C424 H438 0.951 . S
C425 C421 1.383 . S
C425 C424 1.367 . S
C425 H439 0.950 . S
C426 C423 1.481 . S
C426 C427 1.297 . S
C426 H440 0.950 . S
C427 C426 1.297 . S
C427 C428 1.479 . S
C427 H441 0.950 . S
C428 C427 1.479 . S
C428 C429 1.375 . S
C428 C434 1.404 . S
C429 C428 1.375 . S
C429 C430 1.369 . S
C429 H442 0.950 . S
C430 C429 1.369 . S
C430 C431 1.392 . S
C430 H443 0.951 . S
C431 C430 1.392 . S
C431 C433 1.384 . S
H432 C434 0.949 . S
C433 C431 1.384 . S
C433 C434 1.385 . S
C433 H435 0.950 . S
C434 C428 1.404 . S
C434 H432 0.949 . S
C434 C433 1.385 . S
H435 C433 0.950 . S
H436 C420 0.951 . S
H437 C422 0.951 . S
H438 C424 0.951 . S
H439 C425 0.950 . S
H440 C426 0.950 . S
H441 C427 0.950 . S
H442 C429 0.950 . S
H443 C430 0.951 . S
C444 C445 1.386 . S
C444 C446 1.383 . S
C444 H460 0.951 . S
C445 C444 1.386 . S
C445 C449 1.383 . S
C446 C444 1.383 . S
C446 C447 1.402 . S
C446 H461 0.951 . S
C447 C446 1.402 . S
C447 C448 1.375 . S
C447 C450 1.481 . S
C448 C447 1.375 . S
C448 C449 1.367 . S
C448 H462 0.951 . S
C449 C445 1.383 . S
C449 C448 1.367 . S
C449 H463 0.950 . S
C450 C447 1.481 . S
C450 C451 1.297 . S
C450 H464 0.950 . S
C451 C450 1.297 . S
C451 C452 1.479 1_554 S
C451 H465 0.950 . S
C452 C451 1.479 1_556 S
C452 C453 1.375 . S
C452 C458 1.404 . S
C453 C452 1.375 . S
C453 C454 1.369 . S
C453 H466 0.950 . S
C454 C453 1.369 . S
C454 C455 1.392 . S
C454 H467 0.951 . S
C455 C454 1.392 . S
C455 C457 1.384 . S
H456 C458 0.949 . S
C457 C455 1.384 . S
C457 C458 1.385 . S
C457 H459 0.950 . S
C458 C452 1.404 . S
C458 H456 0.949 . S
C458 C457 1.385 . S
H459 C457 0.950 . S
H460 C444 0.951 . S
H461 C446 0.951 . S
H462 C448 0.951 . S
H463 C449 0.950 . S
H464 C450 0.950 . S
H465 C451 0.950 . S
H466 C453 0.950 . S
H467 C454 0.951 . S
C468 C469 1.386 . S
C468 C470 1.383 . S
C468 H484 0.951 . S
C469 C468 1.386 . S
C469 C473 1.383 . S
C470 C468 1.383 . S
C470 C471 1.402 . S
C470 H485 0.951 . S
C471 C470 1.402 . S
C471 C472 1.375 . S
C471 C474 1.481 . S
C472 C471 1.375 . S
C472 C473 1.367 . S
C472 H486 0.951 . S
C473 C469 1.383 . S
C473 C472 1.367 . S
C473 H487 0.950 . S
C474 C471 1.481 . S
C474 C475 1.297 . S
C474 H488 0.950 . S
C475 C474 1.297 . S
C475 C476 1.479 . S
C475 H489 0.950 . S
C476 C475 1.479 . S
C476 C477 1.375 . S
C476 C482 1.404 . S
C477 C476 1.375 . S
C477 C478 1.369 . S
C477 H490 0.950 . S
C478 C477 1.369 . S
C478 C479 1.392 . S
C478 H491 0.951 . S
C479 C478 1.392 . S
C479 C481 1.384 . S
H480 C482 0.949 . S
C481 C479 1.384 . S
C481 C482 1.385 . S
C481 H483 0.950 . S
C482 C476 1.404 . S
C482 H480 0.949 . S
C482 C481 1.385 . S
H483 C481 0.950 . S
H484 C468 0.951 . S
H485 C470 0.951 . S
H486 C472 0.951 . S
H487 C473 0.950 . S
H488 C474 0.950 . S
H489 C475 0.950 . S
H490 C477 0.950 . S
H491 C478 0.951 . S
C492 C493 1.386 . S
C492 C494 1.383 . S
C492 H508 0.951 . S
C493 C492 1.386 . S
C493 C497 1.383 . S
C494 C492 1.383 . S
C494 C495 1.402 . S
C494 H509 0.951 . S
C495 C494 1.402 . S
C495 C496 1.375 . S
C495 C498 1.481 . S
C496 C495 1.375 . S
C496 C497 1.367 . S
C496 H510 0.951 . S
C497 C493 1.383 . S
C497 C496 1.367 . S
C497 H511 0.950 . S
C498 C495 1.481 . S
C498 C499 1.297 1_655 S
C498 H512 0.950 1_655 S
C499 C498 1.297 1_455 S
C499 C500 1.479 . S
C499 H513 0.950 . S
C500 C499 1.479 . S
C500 C501 1.375 . S
C500 C506 1.404 . S
C501 C500 1.375 . S
C501 C502 1.369 . S
C501 H514 0.950 . S
C502 C501 1.369 . S
C502 C503 1.392 . S
C502 H515 0.951 . S
C503 C502 1.392 . S
C503 C505 1.384 . S
H504 C506 0.949 . S
C505 C503 1.384 . S
C505 C506 1.385 . S
C505 H507 0.950 . S
C506 C500 1.404 . S
C506 H504 0.949 . S
C506 C505 1.385 . S
H507 C505 0.950 . S
H508 C492 0.951 . S
H509 C494 0.951 . S
H510 C496 0.951 . S
H511 C497 0.950 . S
H512 C498 0.950 1_455 S
H513 C499 0.950 . S
H514 C501 0.950 . S
H515 C502 0.951 . S
C516 C517 1.386 . S
C516 C518 1.383 . S
C516 H532 0.951 . S
C517 C516 1.386 . S
C517 C521 1.383 . S
C518 C516 1.383 . S
C518 C519 1.402 . S
C518 H533 0.951 . S
C519 C518 1.402 . S
C519 C520 1.375 . S
C519 C522 1.481 . S
C520 C519 1.375 . S
C520 C521 1.367 . S
C520 H534 0.951 . S
C521 C517 1.383 . S
C521 C520 1.367 . S
C521 H535 0.950 . S
C522 C519 1.481 . S
C522 C523 1.297 1_545 S
C522 H536 0.950 . S
C523 C522 1.297 1_565 S
C523 C524 1.479 . S
C523 H537 0.950 . S
C524 C523 1.479 . S
C524 C525 1.375 . S
C524 C530 1.404 . S
C525 C524 1.375 . S
C525 C526 1.369 . S
C525 H538 0.950 . S
C526 C525 1.369 . S
C526 C527 1.392 . S
C526 H539 0.951 . S
C527 C526 1.392 . S
C527 C529 1.384 . S
H528 C530 0.949 . S
C529 C527 1.384 . S
C529 C530 1.385 . S
C529 H531 0.950 . S
C530 C524 1.404 . S
C530 H528 0.949 . S
C530 C529 1.385 . S
H531 C529 0.950 . S
H532 C516 0.951 . S
H533 C518 0.951 . S
H534 C520 0.951 . S
H535 C521 0.950 . S
H536 C522 0.950 . S
H537 C523 0.950 . S
H538 C525 0.950 . S
H539 C526 0.951 . S
C540 C541 1.386 . S
C540 C542 1.383 . S
C540 H556 0.951 . S
C541 C540 1.386 . S
C541 C545 1.383 . S
C542 C540 1.383 . S
C542 C543 1.402 . S
C542 H557 0.951 . S
C543 C542 1.402 . S
C543 C544 1.375 . S
C543 C546 1.481 . S
C544 C543 1.375 . S
C544 C545 1.367 . S
C544 H558 0.951 . S
C545 C541 1.383 . S
C545 C544 1.367 . S
C545 H559 0.950 . S
C546 C543 1.481 . S
C546 C547 1.297 . S
C546 H560 0.950 . S
C547 C546 1.297 . S
C547 C548 1.479 . S
C547 H561 0.950 . S
C548 C547 1.479 . S
C548 C549 1.375 . S
C548 C554 1.404 . S
C549 C548 1.375 . S
C549 C550 1.369 . S
C549 H562 0.950 . S
C550 C549 1.369 . S
C550 C551 1.392 . S
C550 H563 0.951 . S
C551 C550 1.392 . S
C551 C553 1.384 . S
H552 C554 0.949 . S
C553 C551 1.384 . S
C553 C554 1.385 . S
C553 H555 0.950 . S
C554 C548 1.404 . S
C554 H552 0.949 . S
C554 C553 1.385 . S
H555 C553 0.950 . S
H556 C540 0.951 . S
H557 C542 0.951 . S
H558 C544 0.951 . S
H559 C545 0.950 . S
H560 C546 0.950 . S
H561 C547 0.950 . S
H562 C549 0.950 . S
H563 C550 0.951 . S
C205 C33 1.420 . S
C215 C70 1.350 . S
C229 C67 1.413 . S
C239 C104 1.315 . S
C253 C138 1.399 . S
C263 C101 1.378 . S
C277 C172 1.368 . S
C287 C135 1.417 . S
C301 C169 1.422 . S
C311 C2 1.312 . S
C325 C36 1.391 . S
C335 C203 1.374 . S
C349 C5 1.090 . S
C359 C9 1.068 . S
C373 C43 1.087 . S
C383 C39 1.068 . S
C397 C73 1.100 . S
C407 C77 1.086 . S
C421 C107 1.090 . S
C431 C111 1.068 . S
C445 C141 1.129 . S
C455 C145 1.137 . S
C469 C179 1.090 . S
C479 C175 1.073 . S
C493 C122 1.520 . S
C503 C20 1.493 . S
C517 C54 1.506 . S
C527 C156 1.503 . S
C541 C88 1.515 . S
C551 C190 1.511 . S
