# Generated by pormake.
# Topology rob, (6)-cn, num edge types: 1
# Building blocks:
#     Node 0, Type 0, BuildingBlock: INOVEN_clean_sbu_0, # of connection points: 6
#     Node 1, Type 0, BuildingBlock: INOVEN_clean_sbu_0, # of connection points: 6
#     Node 2, Type 0, BuildingBlock: INOVEN_clean_sbu_0, # of connection points: 6
#     Node 3, Type 0, BuildingBlock: INOVEN_clean_sbu_0, # of connection points: 6
#     Edge 4, Type (0, 0), BuildingBlock: FUNLAD_clean_linker_1, # of connection points: 2
#     Edge 5, Type (0, 0), BuildingBlock: FUNLAD_clean_linker_1, # of connection points: 2
#     Edge 6, Type (0, 0), BuildingBlock: FUNLAD_clean_linker_1, # of connection points: 2
#     Edge 7, Type (0, 0), BuildingBlock: FUNLAD_clean_linker_1, # of connection points: 2
#     Edge 8, Type (0, 0), BuildingBlock: FUNLAD_clean_linker_1, # of connection points: 2
#     Edge 9, Type (0, 0), BuildingBlock: FUNLAD_clean_linker_1, # of connection points: 2
#     Edge 10, Type (0, 0), BuildingBlock: FUNLAD_clean_linker_1, # of connection points: 2
#     Edge 11, Type (0, 0), BuildingBlock: FUNLAD_clean_linker_1, # of connection points: 2
#     Edge 12, Type (0, 0), BuildingBlock: FUNLAD_clean_linker_1, # of connection points: 2
#     Edge 13, Type (0, 0), BuildingBlock: FUNLAD_clean_linker_1, # of connection points: 2
#     Edge 14, Type (0, 0), BuildingBlock: FUNLAD_clean_linker_1, # of connection points: 2
#     Edge 15, Type (0, 0), BuildingBlock: FUNLAD_clean_linker_1, # of connection points: 2
# Relax obj value: 0.119
# Max RMSD: 0.183
# Mean RMSD: 0.183
data_MOF--net-rob--node1-INOVEN_clean_sbu_0--edge1-FUNLAD_clean_linker_1
_symmetry_space_group_name_H-M    P1
_symmetry_Int_Tables_number       1
_symmetry_cell_setting            triclinic
loop_
_symmetry_equiv_pos_as_xyz
'x, y, z'
_cell_length_a     16.680583
_cell_length_b     24.552238
_cell_length_c     38.259728
_cell_angle_alpha  90.800028
_cell_angle_beta   125.18478
_cell_angle_gamma 89.009406
loop_
_atom_site_label
_atom_site_type_symbol
_atom_site_fract_x
_atom_site_fract_y
_atom_site_fract_z
_atom_type_partial_charge
Gd0 Gd 0.18829 0.30333 1.00043 0.0
Gd1 Gd 0.36264 0.24753 0.0068 0.0
C2 C 0.38063 0.26174 0.09235 0.0
C3 C 0.04386 0.32601 0.00602 0.0
C4 C 1.02426 0.31982 0.03858 0.0
C5 C 0.94391 0.34681 0.03387 0.0
C6 C 0.08624 0.28765 0.07481 0.0
C7 C 0.99065 0.31177 0.1025 0.0
C8 C 0.06989 0.2837 0.1066 0.0
C9 C 0.92672 0.34242 0.06545 0.0
C10 C 0.32102 0.37105 0.00677 0.0
C11 C 0.17104 0.28995 0.91399 0.0
C12 C 0.50304 0.22234 0.99922 0.0
C13 C 0.50578 0.21023 0.96223 0.0
C14 C 0.41959 0.19632 0.92276 0.0
C15 C 0.59327 0.21563 0.96546 0.0
C16 C 0.50678 0.19652 0.88917 0.0
C17 C 0.59418 0.20844 0.92933 0.0
C18 C 0.4201 0.1896 0.88661 0.0
C19 C 0.22668 0.18071 0.99899 0.0
O20 O 0.28437 0.26983 0.06802 0.0
O21 O 0.43253 0.26039 0.07635 0.0
O22 O 0.11179 0.361 0.01517 0.0
O23 O 0.05038 0.28075 0.98925 0.0
O24 O 0.22765 0.3822 0.98446 0.0
O25 O 0.33996 0.32702 0.02671 0.0
O26 O 0.26397 0.27354 0.93747 0.0
O27 O 0.12117 0.30003 0.93042 0.0
O28 O 0.45889 0.18655 0.00751 0.0
O29 O 0.4792 0.27265 1.00161 0.0
O30 O 0.31988 0.1691 0.02241 0.0
O31 O 0.21054 0.22468 0.97954 0.0
H32 H 0.89482 0.37151 0.0059 0.0
H33 H 0.14691 0.26537 0.07841 0.0
H34 H 0.11851 0.25804 0.13394 0.0
H35 H 0.86445 0.36383 0.06131 0.0
H36 H 0.35142 0.19157 0.91974 0.0
H37 H 0.66062 0.2261 0.9958 0.0
H38 H 0.66337 0.21255 0.93328 0.0
H39 H 0.35189 0.18005 0.85632 0.0
Gd40 Gd 0.66972 0.81047 0.99654 0.0
Gd41 Gd 0.85406 0.7567 0.00884 0.0
C42 C 0.85926 0.77466 0.0921 0.0
C43 C 0.52833 0.83084 0.00418 0.0
C44 C 0.52462 0.82395 0.04141 0.0
C45 C 0.47341 0.86149 0.04987 0.0
C46 C 0.58023 0.78243 0.07101 0.0
C47 C 0.53711 0.8171 0.11798 0.0
C48 C 0.58751 0.77964 0.10906 0.0
C49 C 0.47907 0.85802 0.0878 0.0
C50 C 0.79986 0.87885 1.00138 0.0
C51 C 0.65875 0.79036 0.91319 0.0
C52 C 0.9989 0.73637 1.00294 0.0
C53 C 1.01389 0.73661 0.9684 0.0
C54 C 0.08546 0.70245 0.97115 0.0
C55 C 0.95615 0.76967 0.93221 0.0
C56 C 0.04171 0.73431 0.90189 0.0
C57 C 0.96962 0.76857 0.89926 0.0
C58 C 0.09914 0.7013 0.93829 0.0
C59 C 0.72573 0.68753 0.00477 0.0
O60 O 0.76479 0.78614 0.06582 0.0
O61 O 0.91609 0.76632 0.07868 0.0
O62 O 0.58815 0.86843 0.00843 0.0
O63 O 0.53458 0.78575 0.9871 0.0
O64 O 0.70557 0.88779 0.97687 0.0
O65 O 0.81995 0.83666 0.02337 0.0
O66 O 0.75477 0.78088 0.93856 0.0
O67 O 0.60458 0.79694 0.92782 0.0
O68 O 0.94111 0.69862 1.00024 0.0
O69 O 0.98427 0.7838 0.01465 0.0
O70 O 0.81985 0.67821 0.02777 0.0
O71 O 0.7047 0.73 0.98289 0.0
H72 H 0.43096 0.89419 0.02765 0.0
H73 H 0.62 0.75265 0.06524 0.0
H74 H 0.63345 0.74819 0.13183 0.0
H75 H 0.44064 0.88843 0.09379 0.0
H76 H 0.13065 0.67641 0.99869 0.0
H77 H 0.90067 0.79647 0.92946 0.0
H78 H 0.92235 0.7942 0.87183 0.0
H79 H 0.15494 0.6743 0.94136 0.0
Gd80 Gd 0.36382 0.78025 0.50425 0.0
Gd81 Gd 0.19284 0.74287 0.50524 0.0
C82 C 0.15258 0.75515 0.41414 0.0
C83 C 0.49752 0.78918 0.49031 0.0
C84 C 0.50143 0.7854 0.45294 0.0
C85 C 0.57111 0.81555 0.45232 0.0
C86 C 0.43384 0.75385 0.41714 0.0
C87 C 0.50438 0.78362 0.37996 0.0
C88 C 0.43558 0.75289 0.38107 0.0
C89 C 0.57254 0.81492 0.41614 0.0
C90 C 0.26667 0.86175 0.5136 0.0
C91 C 0.4063 0.76743 0.59487 0.0
C92 C 0.06072 0.73136 0.52024 0.0
C93 C 0.05186 0.73759 0.55632 0.0
C94 C 0.96804 0.71825 0.55202 0.0
C95 C 0.1262 0.76169 0.59515 0.0
C96 C 0.03409 0.74502 0.62547 0.0
C97 C 0.11775 0.76519 0.62955 0.0
C98 C 0.9589 0.72233 0.58611 0.0
C99 C 0.29106 0.66215 0.49589 0.0
O100 O 0.24784 0.76252 0.43469 0.0
O101 O 0.10945 0.75053 0.43401 0.0
O102 O 0.44848 0.83084 0.49096 0.0
O103 O 0.48049 0.74385 0.50247 0.0
O104 O 0.3606 0.86097 0.53181 0.0
O105 O 0.22689 0.82094 0.48909 0.0
O106 O 0.3102 0.76344 0.57449 0.0
O107 O 0.44841 0.7688 0.57456 0.0
O108 O 0.11757 0.69166 0.52323 0.0
O109 O 0.07112 0.77602 0.50503 0.0
O110 O 0.19679 0.66277 0.47676 0.0
O111 O 0.32952 0.70267 0.52071 0.0
H112 H 0.6232 0.84055 0.47955 0.0
H113 H 0.37874 0.73064 0.41675 0.0
H114 H 0.38156 0.7289 0.35356 0.0
H115 H 0.62502 0.84045 0.4164 0.0
H116 H 0.90958 0.69977 0.52226 0.0
H117 H 0.1905 0.77791 0.59881 0.0
H118 H 0.17587 0.78447 0.65888 0.0
H119 H 0.8933 0.70696 0.58187 0.0
Gd120 Gd 0.86173 0.28175 0.5022 0.0
Gd121 Gd 0.69305 0.24607 0.50393 0.0
C122 C 0.64547 0.26403 0.41275 0.0
C123 C 0.9933 0.29415 0.48725 0.0
C124 C 0.9961 0.29769 0.44965 0.0
C125 C 0.07096 0.32708 0.45261 0.0
C126 C 0.92457 0.27266 0.41074 0.0
C127 C 1.0041 0.30594 0.37822 0.0
C128 C 0.92811 0.27689 0.37523 0.0
C129 C 0.07485 0.33121 0.41724 0.0
C130 C 0.77036 0.36336 0.51493 0.0
C131 C 0.90742 0.26503 0.59279 0.0
C132 C 0.56477 0.23313 0.52068 0.0
C133 C 0.56498 0.23515 0.55918 0.0
C134 C 0.50469 0.19976 0.56247 0.0
C135 C 0.62826 0.26979 0.5936 0.0
C136 C 0.57091 0.23344 0.63436 0.0
C137 C 0.6311 0.26891 0.63083 0.0
C138 C 0.50769 0.19868 0.59973 0.0
C139 C 0.78477 0.16419 0.49137 0.0
O140 O 0.74151 0.2667 0.43239 0.0
O141 O 0.60539 0.26159 0.43391 0.0
O142 O 0.95098 0.33492 0.49319 0.0
O143 O 0.97024 0.24687 0.49423 0.0
O144 O 0.86452 0.36019 0.53417 0.0
O145 O 0.72823 0.32436 0.48882 0.0
O146 O 0.81126 0.26672 0.57287 0.0
O147 O 0.94765 0.2619 0.57167 0.0
O148 O 0.61475 0.19289 0.51903 0.0
O149 O 0.57707 0.2793 0.50773 0.0
O150 O 0.69091 0.16694 0.47292 0.0
O151 O 0.82672 0.20339 0.51732 0.0
H152 H 0.12658 0.34685 0.48235 0.0
H153 H 0.86594 0.24987 0.4078 0.0
H154 H 0.87058 0.25782 0.3457 0.0
H155 H 0.13382 0.35409 0.4205 0.0
H156 H 0.45642 0.17218 0.53644 0.0
H157 H 0.67632 0.297 0.59194 0.0
H158 H 0.6811 0.29576 0.65708 0.0
H159 H 0.46224 0.16954 0.60145 0.0
H160 H 0.57557 0.66404 0.98153 0.0
C161 C 0.65201 0.65097 1.00101 0.0
H162 H 0.752 0.58753 0.03796 0.0
H163 H 0.37708 0.52358 0.04486 0.0
H164 H 0.42879 0.60025 0.09379 0.0
H165 H 0.56051 0.66036 0.10728 0.0
H166 H 0.64045 0.6453 0.07125 0.0
C167 C 0.67637 0.60194 0.01983 0.0
C168 C 0.59999 0.56423 0.01349 0.0
C169 C 0.55406 0.57391 0.03475 0.0
C170 C 0.47923 0.53852 0.0276 0.0
C171 C 0.43442 0.54912 0.04917 0.0
C172 C 0.46345 0.59292 0.07738 0.0
C173 C 0.53752 0.62695 0.08487 0.0
C174 C 0.58253 0.61785 0.06389 0.0
H175 H 0.47244 0.39292 0.03092 0.0
C176 C 0.39648 0.40684 0.01138 0.0
H177 H 0.2988 0.47115 0.97458 0.0
H178 H 0.67552 0.53307 0.9689 0.0
H179 H 0.62607 0.45519 0.92112 0.0
H180 H 0.49543 0.39426 0.90833 0.0
H181 H 0.41384 0.41061 0.9434 0.0
C182 C 0.37401 0.45601 0.9929 0.0
C183 C 0.45184 0.49297 0.99989 0.0
C184 C 0.49852 0.48289 0.97901 0.0
C185 C 0.57313 0.51838 0.98604 0.0
C186 C 0.61844 0.50743 0.96472 0.0
C187 C 0.59068 0.46291 0.93717 0.0
C188 C 0.5172 0.42857 0.93 0.0
C189 C 0.47123 0.43831 0.95049 0.0
H190 H 0.29995 0.58609 0.46712 0.0
C191 C 0.344 0.61662 0.4915 0.0
H192 H 0.48712 0.6392 0.54238 0.0
H193 H 0.64554 0.39438 0.56677 0.0
H194 H 0.64326 0.40568 0.62923 0.0
H195 H 0.57237 0.48864 0.63895 0.0
H196 H 0.50243 0.5606 0.58602 0.0
C197 C 0.44215 0.6105 0.51654 0.0
C198 C 0.49075 0.56187 0.51176 0.0
C199 C 0.53367 0.52068 0.54348 0.0
C200 C 0.57612 0.4731 0.53821 0.0
C201 C 0.61466 0.43183 0.56962 0.0
C202 C 0.61331 0.43767 0.60554 0.0
C203 C 0.57326 0.48435 0.61098 0.0
C204 C 0.53351 0.52539 0.58037 0.0
H205 H 0.76742 0.43961 0.54524 0.0
C206 C 0.7211 0.40991 0.52052 0.0
H207 H 0.57627 0.38964 0.47001 0.0
H208 H 0.4237 0.63484 0.44686 0.0
H209 H 0.42665 0.62374 0.38454 0.0
H210 H 0.49777 0.54088 0.37486 0.0
H211 H 0.56708 0.46874 0.42763 0.0
C212 C 0.62328 0.41766 0.49607 0.0
C213 C 0.5775 0.46708 0.50159 0.0
C214 C 0.53524 0.50846 0.47004 0.0
C215 C 0.49277 0.55602 0.4753 0.0
C216 C 0.45457 0.59739 0.44398 0.0
C217 C 0.45635 0.59169 0.40817 0.0
C218 C 0.4965 0.54506 0.40275 0.0
C219 C 0.53585 0.5039 0.43325 0.0
H220 H 0.07315 0.15626 0.96702 0.0
C221 C 0.14847 0.14592 0.99272 0.0
H222 H 0.24252 0.09183 0.04287 0.0
H223 H 0.79331 0.04633 0.99475 0.0
H224 H 0.79564 0.13983 0.01635 0.0
H225 H 0.93298 0.19993 0.0365 0.0
H226 H 0.06869 0.16706 0.03493 0.0
C227 C 0.16719 0.10274 0.01756 0.0
C228 C 0.08713 0.06585 0.00859 0.0
C229 C 1.0096 0.0854 0.0109 0.0
C230 C 0.93138 0.05028 1.00024 0.0
C231 C 0.8546 0.07105 1.00247 0.0
C232 C 0.8551 0.12467 0.01497 0.0
C233 C 0.93241 0.15854 0.02626 0.0
C234 C 1.00934 0.13926 0.02471 0.0
H235 H 0.95145 0.90586 0.03191 0.0
C236 C 0.87538 0.9149 0.00635 0.0
H237 H 0.7778 0.96767 0.95574 0.0
H238 H 0.22511 1.01505 1.00165 0.0
H239 H 0.22229 0.92178 0.97965 0.0
H240 H 0.08526 0.86168 0.95966 0.0
H241 H 0.95008 0.89429 0.96182 0.0
C242 C 0.85381 0.95775 0.98081 0.0
C243 C 0.93221 0.99522 0.98861 0.0
C244 C 1.00937 0.97583 0.986 0.0
C245 C 0.08752 1.01095 0.99661 0.0
C246 C 0.16394 0.99031 0.99406 0.0
C247 C 0.16314 0.93683 0.9813 0.0
C248 C 0.08596 0.90294 0.9701 0.0
C249 C 1.00941 0.92207 0.97199 0.0
H250 H 0.78887 0.07951 0.47277 0.0
C251 C 0.83403 0.11503 0.48889 0.0
H252 H 0.97556 0.14776 0.52156 0.0
H253 H 0.21118 0.92542 0.58164 0.0
H254 H 0.27301 0.97248 0.64833 0.0
H255 H 0.19874 0.05926 0.64984 0.0
H256 H 0.06336 0.10013 0.58445 0.0
C257 C 0.92996 0.11268 0.50471 0.0
C258 C 0.97819 0.06141 0.50289 0.0
C259 C 0.05818 0.03791 0.54147 0.0
C260 C 0.10257 0.98814 0.54057 0.0
C261 C 0.17831 0.96447 0.57996 0.0
C262 C 0.21336 0.99052 0.61872 0.0
C263 C 0.17166 0.03945 0.61956 0.0
C264 C 0.0942 0.06265 0.58161 0.0
H265 H 0.25839 0.94655 0.53059 0.0
C266 C 0.21478 0.91039 0.51497 0.0
H267 H 0.07439 0.87613 0.48267 0.0
H268 H 0.83728 0.09881 0.42213 0.0
H269 H 0.77628 0.05215 0.35534 0.0
H270 H 0.84888 0.96466 0.3539 0.0
H271 H 0.98332 0.92332 0.41939 0.0
C272 C 0.11881 0.91169 0.49914 0.0
C273 C 0.06938 0.96249 0.50088 0.0
C274 C 0.98914 0.98586 0.46229 0.0
C275 C 0.94497 0.03575 0.46318 0.0
C276 C 0.86976 0.05963 0.42379 0.0
C277 C 0.83503 0.03372 0.385 0.0
C278 C 0.87598 0.98447 0.3842 0.0
C279 C 0.95291 0.96102 0.42218 0.0
H280 H 0.50474 0.25078 0.35025 0.0
C281 C 0.58102 0.26182 0.36574 0.0
H282 H 0.69095 0.28264 0.35723 0.0
H283 H 0.50218 0.16239 0.18086 0.0
H284 H 0.64661 0.10634 0.22747 0.0
H285 H 0.7509 0.12257 0.30532 0.0
H286 H 0.70932 0.19333 0.33726 0.0
C287 C 0.61453 0.27224 0.34196 0.0
C288 C 0.55256 0.26432 0.29482 0.0
C289 C 0.57918 0.22328 0.27672 0.0
C290 C 0.52137 0.21531 0.23169 0.0
C291 C 0.54622 0.17193 0.21466 0.0
C292 C 0.62835 0.13904 0.2411 0.0
C293 C 0.68677 0.14798 0.28497 0.0
C294 C 0.66232 0.1891 0.30282 0.0
H295 H 0.5117 0.2639 0.15874 0.0
C296 C 0.43292 0.25749 0.13895 0.0
H297 H 0.30804 0.24067 0.13796 0.0
H298 H 0.48362 0.34877 0.31887 0.0
H299 H 0.33825 0.40382 0.27221 0.0
H300 H 0.23755 0.38957 0.19407 0.0
H301 H 0.2823 0.32057 0.16227 0.0
C302 C 0.38663 0.24716 0.15745 0.0
C303 C 0.43959 0.25 0.20473 0.0
C304 C 0.41124 0.29 0.22287 0.0
C305 C 0.46832 0.29757 0.26798 0.0
C306 C 0.44114 0.33973 0.28504 0.0
C307 C 0.35825 0.3721 0.25854 0.0
C308 C 0.30171 0.36418 0.21457 0.0
C309 C 0.32805 0.3241 0.19674 0.0
H310 H 0.6122 0.78809 0.18433 0.0
C311 C 0.5504 0.81253 0.15969 0.0
H312 H 0.42569 0.85848 0.14495 0.0
H313 H 0.55121 0.70189 0.31119 0.0
H314 H 0.50089 0.62624 0.2616 0.0
H315 H 0.44809 0.64126 0.18751 0.0
H316 H 0.44743 0.7318 0.16296 0.0
C317 C 0.48879 0.834 0.16825 0.0
C318 C 0.50738 0.82578 0.21085 0.0
C319 C 0.50188 0.77293 0.22389 0.0
C320 C 0.52677 0.76473 0.26579 0.0
C321 C 0.52798 0.71093 0.27903 0.0
C322 C 0.50013 0.66701 0.25099 0.0
C323 C 0.47083 0.67542 0.20935 0.0
C324 C 0.47149 0.72764 0.19577 0.0
H325 H 0.42889 0.77188 0.31041 0.0
C326 C 0.4972 0.78524 0.3394 0.0
H327 H 0.6387 0.81573 0.36427 0.0
H328 H 0.52672 0.9319 0.19612 0.0
H329 H 0.5728 1.0081 0.24506 0.0
H330 H 0.6073 0.99481 0.31632 0.0
H331 H 0.59699 0.90535 0.33931 0.0
C332 C 0.56873 0.80278 0.33622 0.0
C333 C 0.55103 0.80991 0.29365 0.0
C334 C 0.55587 0.8628 0.28047 0.0
C335 C 0.53438 0.87066 0.2391 0.0
C336 C 0.54138 0.92373 0.22703 0.0
C337 C 0.56777 0.96784 0.2548 0.0
C338 C 0.5873 0.96035 0.29495 0.0
C339 C 0.58126 0.90864 0.30776 0.0
H340 H 0.53014 0.78285 0.84674 0.0
C341 C 0.60853 0.79054 0.86666 0.0
H342 H 0.73381 0.80736 0.86802 0.0
H343 H 0.57215 0.68895 0.69199 0.0
H344 H 0.72081 0.6378 0.74142 0.0
H345 H 0.81739 0.65662 0.81895 0.0
H346 H 0.76592 0.7267 0.84728 0.0
C347 C 0.65564 0.7995 0.84837 0.0
C348 C 0.60405 0.79357 0.80133 0.0
C349 C 0.63643 0.75305 0.78518 0.0
C350 C 0.58116 0.74252 0.74046 0.0
C351 C 0.61282 0.70008 0.72543 0.0
C352 C 0.6977 0.66994 0.75354 0.0
C353 C 0.75202 0.6805 0.79715 0.0
C354 C 0.72175 0.72116 0.81299 0.0
H355 H 0.54369 0.78605 0.65732 0.0
C356 C 0.46851 0.77273 0.64174 0.0
H357 H 0.35939 0.74903 0.64997 0.0
H358 H 0.53211 0.88132 0.82082 0.0
H359 H 0.3797 0.93013 0.77191 0.0
H360 H 0.27658 0.90686 0.69515 0.0
H361 H 0.32828 0.83715 0.6664 0.0
C362 C 0.43449 0.76211 0.66527 0.0
C363 C 0.49402 0.77291 0.71203 0.0
C364 C 0.46222 0.81379 0.72817 0.0
C365 C 0.51885 0.82524 0.77272 0.0
C366 C 0.48892 0.86876 0.78763 0.0
C367 C 0.4022 0.89762 0.75981 0.0
C368 C 0.34455 0.88481 0.71654 0.0
C369 C 0.37471 0.84421 0.70057 0.0
H370 H 0.64484 0.24939 0.70349 0.0
C371 C 0.57908 0.23245 0.67516 0.0
H372 H 0.44135 0.19689 0.65128 0.0
H373 H 0.57655 0.10541 0.83169 0.0
H374 H 0.56091 0.02183 0.7938 0.0
H375 H 0.52766 0.02438 0.72211 0.0
H376 H 0.51073 0.11055 0.68805 0.0
C377 C 0.50882 0.21346 0.67868 0.0
C378 C 0.52256 0.21242 0.72072 0.0
C379 C 0.531 0.1617 0.73994 0.0
C380 C 0.5484 0.16023 0.78095 0.0
C381 C 0.56038 0.10898 0.80009 0.0
C382 C 0.55232 0.06064 0.77882 0.0
C383 C 0.53375 0.06207 0.73848 0.0
C384 C 0.52391 0.11185 0.71925 0.0
H385 H 0.43402 0.17624 0.82074 0.0
C386 C 0.50149 0.19182 0.84906 0.0
H387 H 0.63755 0.22808 0.87118 0.0
H388 H 0.49619 0.31642 0.69027 0.0
H389 H 0.50474 0.39987 0.72677 0.0
H390 H 0.53619 0.39742 0.79813 0.0
H391 H 0.55922 0.3115 0.83336 0.0
C392 C 0.57168 0.20887 0.84483 0.0
C393 C 0.55497 0.20957 0.80219 0.0
C394 C 0.54399 0.26027 0.78247 0.0
C395 C 0.52699 0.26172 0.74154 0.0
C396 C 0.51224 0.31289 0.72186 0.0
C397 C 0.51612 0.36117 0.74231 0.0
C398 C 0.53374 0.35979 0.78246 0.0
C399 C 0.54721 0.3101 0.80239 0.0
H400 H 0.85272 0.79538 0.14605 0.0
C401 C 0.89859 0.77547 0.13781 0.0
H402 H 0.03096 0.73223 0.16197 0.0
H403 H 0.23927 0.83061 0.3491 0.0
H404 H 0.33807 0.86569 0.32729 0.0
H405 H 0.29269 0.85024 0.25424 0.0
H406 H 0.1467 0.79999 0.2023 0.0
C407 C 0.98302 0.75196 0.16906 0.0
C408 C 1.01448 0.75652 0.21439 0.0
C409 C 0.1007 0.78542 0.24471 0.0
C410 C 0.1256 0.79533 0.28667 0.0
C411 C 0.21369 0.82343 0.31632 0.0
C412 C 0.27208 0.84353 0.30435 0.0
C413 C 0.24654 0.83484 0.26323 0.0
C414 C 0.16245 0.80583 0.23375 0.0
H415 H 0.06898 0.70737 0.35463 0.0
C416 C 0.09578 0.74786 0.36752 0.0
H417 H 0.1198 0.8274 0.35708 0.0
H418 H 0.8538 0.69105 0.16732 0.0
H419 H 0.73983 0.66767 0.18468 0.0
H420 H 0.76653 0.69947 0.25207 0.0
H421 H 0.91024 0.75185 0.3035 0.0
C422 C 0.0913 0.78768 0.34263 0.0
C423 C 0.06241 0.77777 0.29799 0.0
C424 C 0.97377 0.75091 0.26685 0.0
C425 C 0.95301 0.73745 0.22609 0.0
C426 C 0.86953 0.70553 0.19749 0.0
C427 C 0.8039 0.69148 0.20718 0.0
C428 C 0.81935 0.70901 0.24525 0.0
C429 C 0.90303 0.73842 0.27481 0.0
H430 H 0.06469 0.34103 0.34518 0.0
C431 C 1.01238 0.31167 0.34173 0.0
H432 H 0.91419 0.24943 0.30149 0.0
H433 H 0.97632 0.40097 0.17493 0.0
H434 H 0.89154 0.47279 0.18601 0.0
H435 H 0.84273 0.45989 0.23514 0.0
H436 H 0.88045 0.37547 0.27419 0.0
C437 C 0.96255 0.28169 0.30562 0.0
C438 C 0.98114 0.28749 0.27217 0.0
C439 C 0.9542 0.3361 0.24803 0.0
C440 C 0.9776 0.34242 0.21797 0.0
C441 C 0.95599 0.39286 0.19655 0.0
C442 C 0.90805 0.43467 0.20289 0.0
C443 C 0.88094 0.42749 0.23068 0.0
C444 C 0.90358 0.37891 0.25309 0.0
H445 H 0.8964 0.31299 0.12594 0.0
C446 C 0.97178 0.30879 0.13584 0.0
H447 H 0.12019 0.30065 0.1885 0.0
H448 H 0.04392 0.18938 0.31344 0.0
H449 H 0.12425 0.11645 0.3008 0.0
H450 H 0.15803 0.12568 0.24632 0.0
H451 H 0.11225 0.208 0.20434 0.0
C452 C 0.04417 0.30381 0.17771 0.0
C453 C 1.02308 0.29892 0.21041 0.0
C454 C 0.04924 0.25017 0.2343 0.0
C455 C 0.02845 0.24451 0.26527 0.0
C456 C 0.05684 0.19568 0.28915 0.0
C457 C 0.10317 0.15347 0.28227 0.0
C458 C 0.12228 0.15869 0.25163 0.0
C459 C 0.09571 0.20629 0.2278 0.0
H460 H 0.04644 0.25231 0.65632 0.0
C461 C 0.97105 0.26675 0.63981 0.0
H462 H 0.86193 0.30023 0.64562 0.0
H463 H 1.02152 0.20481 0.82568 0.0
H464 H 0.8699 0.15569 0.77998 0.0
H465 H 0.77468 0.16302 0.70148 0.0
H466 H 0.8311 0.21916 0.66839 0.0
C467 C 0.93732 0.28578 0.6622 0.0
C468 C 0.99608 0.2822 0.70957 0.0
C469 C 0.96163 0.24937 0.72846 0.0
C470 C 1.01567 0.24584 0.77369 0.0
C471 C 0.98159 0.21089 0.79159 0.0
C472 C 0.89506 0.18187 0.76568 0.0
C473 C 0.84155 0.18593 0.72152 0.0
C474 C 0.87454 0.21873 0.70295 0.0
H475 H 0.04493 0.31085 0.84876 0.0
C476 C 0.11905 0.29402 0.86735 0.0
H477 H 0.23257 0.25827 0.86541 0.0
H478 H 0.07875 0.35268 0.68392 0.0
H479 H 0.23227 0.40027 0.72968 0.0
H480 H 0.32919 0.39134 0.80814 0.0
H481 H 0.27227 0.33539 0.84124 0.0
C482 C 0.15821 0.27449 0.84726 0.0
C483 C 0.10321 0.276 0.79994 0.0
C484 C 0.13899 0.30772 0.7811 0.0
C485 C 0.08448 0.31166 0.73583 0.0
C486 C 0.119 0.3463 0.71798 0.0
C487 C 0.2067 0.37433 0.74394 0.0
C488 C 0.26116 0.3694 0.7881 0.0
C489 C 0.2277 0.33695 0.80667 0.0
H490 H 0.94633 0.74782 0.65215 0.0
C491 C 1.02095 0.74812 0.66085 0.0
H492 H 0.17109 0.74746 0.71259 0.0
H493 H 0.11792 0.84988 0.85024 0.0
H494 H 0.2074 0.92057 0.84317 0.0
H495 H 0.23808 0.9146 0.78739 0.0
H496 H 0.17976 0.83792 0.73838 0.0
C497 C 0.09565 0.74795 0.70271 0.0
C498 C 0.07806 0.75052 0.73695 0.0
C499 C 0.11207 0.79584 0.76527 0.0
C500 C 0.09327 0.79963 0.79717 0.0
C501 C 0.12898 0.84521 0.82513 0.0
C502 C 0.1807 0.88605 0.8215 0.0
C503 C 0.19807 0.88267 0.79013 0.0
C504 C 0.16423 0.8383 0.76222 0.0
H505 H 0.10844 0.69867 0.8705 0.0
C506 C 0.05866 0.7305 0.8675 0.0
H507 H 0.97182 0.79804 0.82989 0.0
H508 H 1.01715 0.65345 0.69325 0.0
H509 H 0.92504 0.58367 0.69938 0.0
H510 H 0.88138 0.59368 0.75074 0.0
H511 H 0.93143 0.67298 0.79687 0.0
C512 C 1.01771 0.76381 0.83339 0.0
C513 C 0.04032 0.75817 0.80085 0.0
C514 C 1.00721 0.71248 0.77283 0.0
C515 C 0.02812 0.70802 0.74162 0.0
C516 C 0.99923 0.66034 0.71599 0.0
C517 C 0.947 0.61966 0.71943 0.0
C518 C 0.92273 0.6252 0.74846 0.0
C519 C 0.95232 0.6709 0.77491 0.0
loop_
_geom_bond_atom_site_label_1
_geom_bond_atom_site_label_2
_geom_bond_distance
_geom_bond_site_symmetry_2
_ccdc_geom_bond_type
Gd0 C3 2.818 1_556 S
Gd0 O20 2.377 1_556 S
Gd0 O22 2.448 1_556 S
Gd0 O23 2.506 1_556 S
Gd0 O24 2.435 1_556 S
Gd0 O25 2.717 . S
Gd0 O27 2.395 . S
Gd0 O31 2.327 1_556 S
Gd1 C12 2.818 1_554 S
Gd1 O21 2.395 . S
Gd1 O25 2.327 1_554 S
Gd1 O26 2.377 1_554 S
Gd1 O28 2.448 1_554 S
Gd1 O29 2.506 1_554 S
Gd1 O30 2.435 1_554 S
Gd1 O31 2.717 . S
C2 O20 1.240 . S
C2 O21 1.240 . S
C3 Gd0 2.818 1_554 S
C3 C4 1.510 . S
C3 O22 1.249 . S
C3 O23 1.252 . S
C4 C3 1.510 . S
C4 C5 1.404 . S
C4 C6 1.352 . S
C5 C4 1.404 . S
C5 C9 1.389 . S
C5 H32 0.930 . S
C6 C4 1.352 . S
C6 C8 1.374 . S
C6 H33 0.931 . S
C7 C8 1.359 . S
C7 C9 1.364 . S
C8 C6 1.374 . S
C8 C7 1.359 . S
C8 H34 0.931 . S
C9 C5 1.389 . S
C9 C7 1.364 . S
C9 H35 0.931 . S
C10 O24 1.256 . S
C10 O25 1.257 1_554 S
C11 O26 1.240 . S
C11 O27 1.240 . S
C12 Gd1 2.818 1_556 S
C12 C13 1.510 . S
C12 O28 1.249 . S
C12 O29 1.252 . S
C13 C12 1.510 . S
C13 C14 1.404 . S
C13 C15 1.352 . S
C14 C13 1.404 . S
C14 C18 1.389 . S
C14 H36 0.930 . S
C15 C13 1.352 . S
C15 C17 1.374 . S
C15 H37 0.931 . S
C16 C17 1.359 . S
C16 C18 1.364 . S
C17 C15 1.374 . S
C17 C16 1.359 . S
C17 H38 0.931 . S
C18 C14 1.389 . S
C18 C16 1.364 . S
C18 H39 0.931 . S
C19 O30 1.256 . S
C19 O31 1.257 1_556 S
O20 Gd0 2.377 1_554 S
O20 C2 1.240 . S
O21 Gd1 2.395 . S
O21 C2 1.240 . S
O22 Gd0 2.448 1_554 S
O22 C3 1.249 . S
O23 Gd0 2.506 1_554 S
O23 C3 1.252 . S
O24 Gd0 2.435 1_554 S
O24 C10 1.256 . S
O25 Gd0 2.717 . S
O25 Gd1 2.327 1_556 S
O25 C10 1.257 1_556 S
O26 Gd1 2.377 1_556 S
O26 C11 1.240 . S
O27 Gd0 2.395 . S
O27 C11 1.240 . S
O28 Gd1 2.448 1_556 S
O28 C12 1.249 . S
O29 Gd1 2.506 1_556 S
O29 C12 1.252 . S
O30 Gd1 2.435 1_556 S
O30 C19 1.256 . S
O31 Gd0 2.327 1_554 S
O31 Gd1 2.717 . S
O31 C19 1.257 1_554 S
H32 C5 0.930 . S
H33 C6 0.931 . S
H34 C8 0.931 . S
H35 C9 0.931 . S
H36 C14 0.930 . S
H37 C15 0.931 . S
H38 C17 0.931 . S
H39 C18 0.931 . S
Gd40 C43 2.818 1_556 S
Gd40 O60 2.377 1_556 S
Gd40 O62 2.448 1_556 S
Gd40 O63 2.506 1_556 S
Gd40 O64 2.435 1_556 S
Gd40 O65 2.717 . S
Gd40 O67 2.395 . S
Gd40 O71 2.327 1_556 S
Gd41 C52 2.818 1_554 S
Gd41 O61 2.395 . S
Gd41 O65 2.327 1_554 S
Gd41 O66 2.377 1_554 S
Gd41 O68 2.448 1_554 S
Gd41 O69 2.506 1_554 S
Gd41 O70 2.435 1_554 S
Gd41 O71 2.717 . S
C42 O60 1.240 . S
C42 O61 1.240 . S
C43 Gd40 2.818 1_554 S
C43 C44 1.510 . S
C43 O62 1.249 . S
C43 O63 1.252 . S
C44 C43 1.510 . S
C44 C45 1.404 . S
C44 C46 1.352 . S
C45 C44 1.404 . S
C45 C49 1.389 . S
C45 H72 0.930 . S
C46 C44 1.352 . S
C46 C48 1.374 . S
C46 H73 0.931 . S
C47 C48 1.359 . S
C47 C49 1.364 . S
C48 C46 1.374 . S
C48 C47 1.359 . S
C48 H74 0.931 . S
C49 C45 1.389 . S
C49 C47 1.364 . S
C49 H75 0.931 . S
C50 O64 1.256 . S
C50 O65 1.257 1_554 S
C51 O66 1.240 . S
C51 O67 1.240 . S
C52 Gd41 2.818 1_556 S
C52 C53 1.510 . S
C52 O68 1.249 . S
C52 O69 1.252 . S
C53 C52 1.510 . S
C53 C54 1.404 . S
C53 C55 1.352 . S
C54 C53 1.404 . S
C54 C58 1.389 . S
C54 H76 0.930 . S
C55 C53 1.352 . S
C55 C57 1.374 . S
C55 H77 0.931 . S
C56 C57 1.359 . S
C56 C58 1.364 . S
C57 C55 1.374 . S
C57 C56 1.359 . S
C57 H78 0.931 . S
C58 C54 1.389 . S
C58 C56 1.364 . S
C58 H79 0.931 . S
C59 O70 1.256 . S
C59 O71 1.257 1_556 S
O60 Gd40 2.377 1_554 S
O60 C42 1.240 . S
O61 Gd41 2.395 . S
O61 C42 1.240 . S
O62 Gd40 2.448 1_554 S
O62 C43 1.249 . S
O63 Gd40 2.506 1_554 S
O63 C43 1.252 . S
O64 Gd40 2.435 1_554 S
O64 C50 1.256 . S
O65 Gd40 2.717 . S
O65 Gd41 2.327 1_556 S
O65 C50 1.257 1_556 S
O66 Gd41 2.377 1_556 S
O66 C51 1.240 . S
O67 Gd40 2.395 . S
O67 C51 1.240 . S
O68 Gd41 2.448 1_556 S
O68 C52 1.249 . S
O69 Gd41 2.506 1_556 S
O69 C52 1.252 . S
O70 Gd41 2.435 1_556 S
O70 C59 1.256 . S
O71 Gd40 2.327 1_554 S
O71 Gd41 2.717 . S
O71 C59 1.257 1_554 S
H72 C45 0.930 . S
H73 C46 0.931 . S
H74 C48 0.931 . S
H75 C49 0.931 . S
H76 C54 0.930 . S
H77 C55 0.931 . S
H78 C57 0.931 . S
H79 C58 0.931 . S
Gd80 C83 2.818 . S
Gd80 O100 2.377 . S
Gd80 O102 2.448 . S
Gd80 O103 2.506 . S
Gd80 O104 2.435 . S
Gd80 O105 2.717 . S
Gd80 O107 2.395 . S
Gd80 O111 2.327 . S
Gd81 C92 2.818 . S
Gd81 O101 2.395 . S
Gd81 O105 2.327 . S
Gd81 O106 2.377 . S
Gd81 O108 2.448 . S
Gd81 O109 2.506 . S
Gd81 O110 2.435 . S
Gd81 O111 2.717 . S
C82 O100 1.240 . S
C82 O101 1.240 . S
C83 Gd80 2.818 . S
C83 C84 1.510 . S
C83 O102 1.249 . S
C83 O103 1.252 . S
C84 C83 1.510 . S
C84 C85 1.404 . S
C84 C86 1.352 . S
C85 C84 1.404 . S
C85 C89 1.389 . S
C85 H112 0.930 . S
C86 C84 1.352 . S
C86 C88 1.374 . S
C86 H113 0.931 . S
C87 C88 1.359 . S
C87 C89 1.364 . S
C88 C86 1.374 . S
C88 C87 1.359 . S
C88 H114 0.931 . S
C89 C85 1.389 . S
C89 C87 1.364 . S
C89 H115 0.931 . S
C90 O104 1.256 . S
C90 O105 1.257 . S
C91 O106 1.240 . S
C91 O107 1.240 . S
C92 Gd81 2.818 . S
C92 C93 1.510 . S
C92 O108 1.249 . S
C92 O109 1.252 . S
C93 C92 1.510 . S
C93 C94 1.404 . S
C93 C95 1.352 . S
C94 C93 1.404 . S
C94 C98 1.389 . S
C94 H116 0.930 . S
C95 C93 1.352 . S
C95 C97 1.374 . S
C95 H117 0.931 . S
C96 C97 1.359 . S
C96 C98 1.364 . S
C97 C95 1.374 . S
C97 C96 1.359 . S
C97 H118 0.931 . S
C98 C94 1.389 . S
C98 C96 1.364 . S
C98 H119 0.931 . S
C99 O110 1.256 . S
C99 O111 1.257 . S
O100 Gd80 2.377 . S
O100 C82 1.240 . S
O101 Gd81 2.395 . S
O101 C82 1.240 . S
O102 Gd80 2.448 . S
O102 C83 1.249 . S
O103 Gd80 2.506 . S
O103 C83 1.252 . S
O104 Gd80 2.435 . S
O104 C90 1.256 . S
O105 Gd80 2.717 . S
O105 Gd81 2.327 . S
O105 C90 1.257 . S
O106 Gd81 2.377 . S
O106 C91 1.240 . S
O107 Gd80 2.395 . S
O107 C91 1.240 . S
O108 Gd81 2.448 . S
O108 C92 1.249 . S
O109 Gd81 2.506 . S
O109 C92 1.252 . S
O110 Gd81 2.435 . S
O110 C99 1.256 . S
O111 Gd80 2.327 . S
O111 Gd81 2.717 . S
O111 C99 1.257 . S
H112 C85 0.930 . S
H113 C86 0.931 . S
H114 C88 0.931 . S
H115 C89 0.931 . S
H116 C94 0.930 . S
H117 C95 0.931 . S
H118 C97 0.931 . S
H119 C98 0.931 . S
Gd120 C123 2.818 . S
Gd120 O140 2.377 . S
Gd120 O142 2.448 . S
Gd120 O143 2.506 . S
Gd120 O144 2.435 . S
Gd120 O145 2.717 . S
Gd120 O147 2.395 . S
Gd120 O151 2.327 . S
Gd121 C132 2.818 . S
Gd121 O141 2.395 . S
Gd121 O145 2.327 . S
Gd121 O146 2.377 . S
Gd121 O148 2.448 . S
Gd121 O149 2.506 . S
Gd121 O150 2.435 . S
Gd121 O151 2.717 . S
C122 O140 1.240 . S
C122 O141 1.240 . S
C123 Gd120 2.818 . S
C123 C124 1.510 . S
C123 O142 1.249 . S
C123 O143 1.252 . S
C124 C123 1.510 . S
C124 C125 1.404 . S
C124 C126 1.352 . S
C125 C124 1.404 . S
C125 C129 1.389 . S
C125 H152 0.930 . S
C126 C124 1.352 . S
C126 C128 1.374 . S
C126 H153 0.931 . S
C127 C128 1.359 . S
C127 C129 1.364 . S
C128 C126 1.374 . S
C128 C127 1.359 . S
C128 H154 0.931 . S
C129 C125 1.389 . S
C129 C127 1.364 . S
C129 H155 0.931 . S
C130 O144 1.256 . S
C130 O145 1.257 . S
C131 O146 1.240 . S
C131 O147 1.240 . S
C132 Gd121 2.818 . S
C132 C133 1.510 . S
C132 O148 1.249 . S
C132 O149 1.252 . S
C133 C132 1.510 . S
C133 C134 1.404 . S
C133 C135 1.352 . S
C134 C133 1.404 . S
C134 C138 1.389 . S
C134 H156 0.930 . S
C135 C133 1.352 . S
C135 C137 1.374 . S
C135 H157 0.931 . S
C136 C137 1.359 . S
C136 C138 1.364 . S
C137 C135 1.374 . S
C137 C136 1.359 . S
C137 H158 0.931 . S
C138 C134 1.389 . S
C138 C136 1.364 . S
C138 H159 0.931 . S
C139 O150 1.256 . S
C139 O151 1.257 . S
O140 Gd120 2.377 . S
O140 C122 1.240 . S
O141 Gd121 2.395 . S
O141 C122 1.240 . S
O142 Gd120 2.448 . S
O142 C123 1.249 . S
O143 Gd120 2.506 . S
O143 C123 1.252 . S
O144 Gd120 2.435 . S
O144 C130 1.256 . S
O145 Gd120 2.717 . S
O145 Gd121 2.327 . S
O145 C130 1.257 . S
O146 Gd121 2.377 . S
O146 C131 1.240 . S
O147 Gd120 2.395 . S
O147 C131 1.240 . S
O148 Gd121 2.448 . S
O148 C132 1.249 . S
O149 Gd121 2.506 . S
O149 C132 1.252 . S
O150 Gd121 2.435 . S
O150 C139 1.256 . S
O151 Gd120 2.327 . S
O151 Gd121 2.717 . S
O151 C139 1.257 . S
H152 C125 0.930 . S
H153 C126 0.931 . S
H154 C128 0.931 . S
H155 C129 0.931 . S
H156 C134 0.930 . S
H157 C135 0.931 . S
H158 C137 0.931 . S
H159 C138 0.931 . S
H160 C161 0.951 . S
C161 H160 0.951 . S
C161 C167 1.265 1_556 S
H162 C167 0.950 . S
H163 C171 0.949 . S
H164 C172 0.950 . S
H165 C173 0.951 . S
H166 C174 0.951 . S
C167 C161 1.265 1_554 S
C167 H162 0.950 . S
C167 C168 1.478 . S
C168 C167 1.478 . S
C168 C169 1.397 . S
C168 C185 1.394 1_554 S
C169 C168 1.397 . S
C169 C170 1.438 . S
C169 C174 1.429 . S
C170 C169 1.438 . S
C170 C171 1.428 . S
C170 C183 1.394 1_554 S
C171 H163 0.949 . S
C171 C170 1.428 . S
C171 C172 1.345 . S
C172 H164 0.950 . S
C172 C171 1.345 . S
C172 C173 1.424 . S
C173 H165 0.951 . S
C173 C172 1.424 . S
C173 C174 1.347 . S
C174 H166 0.951 . S
C174 C169 1.429 . S
C174 C173 1.347 . S
H175 C176 0.951 . S
C176 H175 0.951 . S
C176 C182 1.265 1_554 S
H177 C182 0.950 . S
H178 C186 0.949 . S
H179 C187 0.950 . S
H180 C188 0.951 . S
H181 C189 0.951 . S
C182 C176 1.265 1_556 S
C182 H177 0.950 . S
C182 C183 1.478 . S
C183 C170 1.394 1_556 S
C183 C182 1.478 . S
C183 C184 1.397 . S
C184 C183 1.397 . S
C184 C185 1.438 . S
C184 C189 1.429 . S
C185 C168 1.394 1_556 S
C185 C184 1.438 . S
C185 C186 1.428 . S
C186 H178 0.949 . S
C186 C185 1.428 . S
C186 C187 1.345 . S
C187 H179 0.950 . S
C187 C186 1.345 . S
C187 C188 1.424 . S
C188 H180 0.951 . S
C188 C187 1.424 . S
C188 C189 1.347 . S
C189 H181 0.951 . S
C189 C184 1.429 . S
C189 C188 1.347 . S
H190 C191 0.951 . S
C191 H190 0.951 . S
C191 C197 1.265 . S
H192 C197 0.950 . S
H193 C201 0.949 . S
H194 C202 0.950 . S
H195 C203 0.951 . S
H196 C204 0.951 . S
C197 C191 1.265 . S
C197 H192 0.950 . S
C197 C198 1.478 . S
C198 C197 1.478 . S
C198 C199 1.397 . S
C198 C215 1.394 . S
C199 C198 1.397 . S
C199 C200 1.438 . S
C199 C204 1.429 . S
C200 C199 1.438 . S
C200 C201 1.428 . S
C200 C213 1.394 . S
C201 H193 0.949 . S
C201 C200 1.428 . S
C201 C202 1.345 . S
C202 H194 0.950 . S
C202 C201 1.345 . S
C202 C203 1.424 . S
C203 H195 0.951 . S
C203 C202 1.424 . S
C203 C204 1.347 . S
C204 H196 0.951 . S
C204 C199 1.429 . S
C204 C203 1.347 . S
H205 C206 0.951 . S
C206 H205 0.951 . S
C206 C212 1.265 . S
H207 C212 0.950 . S
H208 C216 0.949 . S
H209 C217 0.950 . S
H210 C218 0.951 . S
H211 C219 0.951 . S
C212 C206 1.265 . S
C212 H207 0.950 . S
C212 C213 1.478 . S
C213 C200 1.394 . S
C213 C212 1.478 . S
C213 C214 1.397 . S
C214 C213 1.397 . S
C214 C215 1.438 . S
C214 C219 1.429 . S
C215 C198 1.394 . S
C215 C214 1.438 . S
C215 C216 1.428 . S
C216 H208 0.949 . S
C216 C215 1.428 . S
C216 C217 1.345 . S
C217 H209 0.950 . S
C217 C216 1.345 . S
C217 C218 1.424 . S
C218 H210 0.951 . S
C218 C217 1.424 . S
C218 C219 1.347 . S
C219 H211 0.951 . S
C219 C214 1.429 . S
C219 C218 1.347 . S
H220 C221 0.951 . S
C221 H220 0.951 . S
C221 C227 1.265 1_556 S
H222 C227 0.950 . S
H223 C231 0.949 1_565 S
H224 C232 0.950 . S
H225 C233 0.951 . S
H226 C234 0.951 . S
C227 C221 1.265 1_554 S
C227 H222 0.950 . S
C227 C228 1.478 . S
C228 C227 1.478 . S
C228 C229 1.397 1_454 S
C228 C245 1.394 1_545 S
C229 C228 1.397 1_656 S
C229 C230 1.438 . S
C229 C234 1.429 . S
C230 C229 1.438 . S
C230 C231 1.428 . S
C230 C243 1.394 1_545 S
C231 H223 0.949 1_545 S
C231 C230 1.428 . S
C231 C232 1.345 . S
C232 H224 0.950 . S
C232 C231 1.345 . S
C232 C233 1.424 . S
C233 H225 0.951 . S
C233 C232 1.424 . S
C233 C234 1.347 . S
C234 H226 0.951 . S
C234 C229 1.429 . S
C234 C233 1.347 . S
H235 C236 0.951 . S
C236 H235 0.951 . S
C236 C242 1.265 1_554 S
H237 C242 0.950 . S
H238 C246 0.949 1_545 S
H239 C247 0.950 . S
H240 C248 0.951 . S
H241 C249 0.951 . S
C242 C236 1.265 1_556 S
C242 H237 0.950 . S
C242 C243 1.478 . S
C243 C230 1.394 1_565 S
C243 C242 1.478 . S
C243 C244 1.397 1_656 S
C244 C243 1.397 1_454 S
C244 C245 1.438 . S
C244 C249 1.429 . S
C245 C228 1.394 1_565 S
C245 C244 1.438 . S
C245 C246 1.428 . S
C246 H238 0.949 1_565 S
C246 C245 1.428 . S
C246 C247 1.345 . S
C247 H239 0.950 . S
C247 C246 1.345 . S
C247 C248 1.424 . S
C248 H240 0.951 . S
C248 C247 1.424 . S
C248 C249 1.347 . S
C249 H241 0.951 . S
C249 C244 1.429 . S
C249 C248 1.347 . S
H250 C251 0.951 . S
C251 H250 0.951 . S
C251 C257 1.265 . S
H252 C257 0.950 . S
H253 C261 0.949 . S
H254 C262 0.950 . S
H255 C263 0.951 . S
H256 C264 0.951 . S
C257 C251 1.265 . S
C257 H252 0.950 . S
C257 C258 1.478 . S
C258 C257 1.478 . S
C258 C259 1.397 1_655 S
C258 C275 1.394 . S
C259 C258 1.397 1_455 S
C259 C260 1.438 1_545 S
C259 C264 1.429 . S
C260 C259 1.438 1_565 S
C260 C261 1.428 . S
C260 C273 1.394 . S
C261 H253 0.949 . S
C261 C260 1.428 . S
C261 C262 1.345 . S
C262 H254 0.950 . S
C262 C261 1.345 . S
C262 C263 1.424 1_565 S
C263 H255 0.951 . S
C263 C262 1.424 1_545 S
C263 C264 1.347 . S
C264 H256 0.951 . S
C264 C259 1.429 . S
C264 C263 1.347 . S
H265 C266 0.951 . S
C266 H265 0.951 . S
C266 C272 1.265 . S
H267 C272 0.950 . S
H268 C276 0.949 . S
H269 C277 0.950 . S
H270 C278 0.951 . S
H271 C279 0.951 . S
C272 C266 1.265 . S
C272 H267 0.950 . S
C272 C273 1.478 . S
C273 C260 1.394 . S
C273 C272 1.478 . S
C273 C274 1.397 1_455 S
C274 C273 1.397 1_655 S
C274 C275 1.438 1_565 S
C274 C279 1.429 . S
C275 C258 1.394 . S
C275 C274 1.438 1_545 S
C275 C276 1.428 . S
C276 H268 0.949 . S
C276 C275 1.428 . S
C276 C277 1.345 . S
C277 H269 0.950 . S
C277 C276 1.345 . S
C277 C278 1.424 1_545 S
C278 H270 0.951 . S
C278 C277 1.424 1_565 S
C278 C279 1.347 . S
C279 H271 0.951 . S
C279 C274 1.429 . S
C279 C278 1.347 . S
H280 C281 0.951 . S
C281 H280 0.951 . S
C281 C287 1.265 . S
H282 C287 0.950 . S
H283 C291 0.949 . S
H284 C292 0.950 . S
H285 C293 0.951 . S
H286 C294 0.951 . S
C287 C281 1.265 . S
C287 H282 0.950 . S
C287 C288 1.478 . S
C288 C287 1.478 . S
C288 C289 1.397 . S
C288 C305 1.394 . S
C289 C288 1.397 . S
C289 C290 1.438 . S
C289 C294 1.429 . S
C290 C289 1.438 . S
C290 C291 1.428 . S
C290 C303 1.394 . S
C291 H283 0.949 . S
C291 C290 1.428 . S
C291 C292 1.345 . S
C292 H284 0.950 . S
C292 C291 1.345 . S
C292 C293 1.424 . S
C293 H285 0.951 . S
C293 C292 1.424 . S
C293 C294 1.347 . S
C294 H286 0.951 . S
C294 C289 1.429 . S
C294 C293 1.347 . S
H295 C296 0.951 . S
C296 H295 0.951 . S
C296 C302 1.265 . S
H297 C302 0.950 . S
H298 C306 0.949 . S
H299 C307 0.950 . S
H300 C308 0.951 . S
H301 C309 0.951 . S
C302 C296 1.265 . S
C302 H297 0.950 . S
C302 C303 1.478 . S
C303 C290 1.394 . S
C303 C302 1.478 . S
C303 C304 1.397 . S
C304 C303 1.397 . S
C304 C305 1.438 . S
C304 C309 1.429 . S
C305 C288 1.394 . S
C305 C304 1.438 . S
C305 C306 1.428 . S
C306 H298 0.949 . S
C306 C305 1.428 . S
C306 C307 1.345 . S
C307 H299 0.950 . S
C307 C306 1.345 . S
C307 C308 1.424 . S
C308 H300 0.951 . S
C308 C307 1.424 . S
C308 C309 1.347 . S
C309 H301 0.951 . S
C309 C304 1.429 . S
C309 C308 1.347 . S
H310 C311 0.951 . S
C311 H310 0.951 . S
C311 C317 1.265 . S
H312 C317 0.950 . S
H313 C321 0.949 . S
H314 C322 0.950 . S
H315 C323 0.951 . S
H316 C324 0.951 . S
C317 C311 1.265 . S
C317 H312 0.950 . S
C317 C318 1.478 . S
C318 C317 1.478 . S
C318 C319 1.397 . S
C318 C335 1.394 . S
C319 C318 1.397 . S
C319 C320 1.438 . S
C319 C324 1.429 . S
C320 C319 1.438 . S
C320 C321 1.428 . S
C320 C333 1.394 . S
C321 H313 0.949 . S
C321 C320 1.428 . S
C321 C322 1.345 . S
C322 H314 0.950 . S
C322 C321 1.345 . S
C322 C323 1.424 . S
C323 H315 0.951 . S
C323 C322 1.424 . S
C323 C324 1.347 . S
C324 H316 0.951 . S
C324 C319 1.429 . S
C324 C323 1.347 . S
H325 C326 0.951 . S
C326 H325 0.951 . S
C326 C332 1.265 . S
H327 C332 0.950 . S
H328 C336 0.949 . S
H329 C337 0.950 . S
H330 C338 0.951 . S
H331 C339 0.951 . S
C332 C326 1.265 . S
C332 H327 0.950 . S
C332 C333 1.478 . S
C333 C320 1.394 . S
C333 C332 1.478 . S
C333 C334 1.397 . S
C334 C333 1.397 . S
C334 C335 1.438 . S
C334 C339 1.429 . S
C335 C318 1.394 . S
C335 C334 1.438 . S
C335 C336 1.428 . S
C336 H328 0.949 . S
C336 C335 1.428 . S
C336 C337 1.345 . S
C337 H329 0.950 . S
C337 C336 1.345 . S
C337 C338 1.424 . S
C338 H330 0.951 . S
C338 C337 1.424 . S
C338 C339 1.347 . S
C339 H331 0.951 . S
C339 C334 1.429 . S
C339 C338 1.347 . S
H340 C341 0.951 . S
C341 H340 0.951 . S
C341 C347 1.265 . S
H342 C347 0.950 . S
H343 C351 0.949 . S
H344 C352 0.950 . S
H345 C353 0.951 . S
H346 C354 0.951 . S
C347 C341 1.265 . S
C347 H342 0.950 . S
C347 C348 1.478 . S
C348 C347 1.478 . S
C348 C349 1.397 . S
C348 C365 1.394 . S
C349 C348 1.397 . S
C349 C350 1.438 . S
C349 C354 1.429 . S
C350 C349 1.438 . S
C350 C351 1.428 . S
C350 C363 1.394 . S
C351 H343 0.949 . S
C351 C350 1.428 . S
C351 C352 1.345 . S
C352 H344 0.950 . S
C352 C351 1.345 . S
C352 C353 1.424 . S
C353 H345 0.951 . S
C353 C352 1.424 . S
C353 C354 1.347 . S
C354 H346 0.951 . S
C354 C349 1.429 . S
C354 C353 1.347 . S
H355 C356 0.951 . S
C356 H355 0.951 . S
C356 C362 1.265 . S
H357 C362 0.950 . S
H358 C366 0.949 . S
H359 C367 0.950 . S
H360 C368 0.951 . S
H361 C369 0.951 . S
C362 C356 1.265 . S
C362 H357 0.950 . S
C362 C363 1.478 . S
C363 C350 1.394 . S
C363 C362 1.478 . S
C363 C364 1.397 . S
C364 C363 1.397 . S
C364 C365 1.438 . S
C364 C369 1.429 . S
C365 C348 1.394 . S
C365 C364 1.438 . S
C365 C366 1.428 . S
C366 H358 0.949 . S
C366 C365 1.428 . S
C366 C367 1.345 . S
C367 H359 0.950 . S
C367 C366 1.345 . S
C367 C368 1.424 . S
C368 H360 0.951 . S
C368 C367 1.424 . S
C368 C369 1.347 . S
C369 H361 0.951 . S
C369 C364 1.429 . S
C369 C368 1.347 . S
H370 C371 0.951 . S
C371 H370 0.951 . S
C371 C377 1.265 . S
H372 C377 0.950 . S
H373 C381 0.949 . S
H374 C382 0.954 . S
H375 C383 0.951 1_565 S
H376 C384 0.951 . S
C377 C371 1.265 . S
C377 H372 0.950 . S
C377 C378 1.478 . S
C378 C377 1.478 . S
C378 C379 1.397 . S
C378 C395 1.394 . S
C379 C378 1.397 . S
C379 C380 1.438 . S
C379 C384 1.429 . S
C380 C379 1.438 . S
C380 C381 1.428 . S
C380 C393 1.394 . S
C381 H373 0.949 . S
C381 C380 1.428 . S
C381 C382 1.345 . S
C382 H374 0.954 . S
C382 C381 1.345 . S
C382 C383 1.424 . S
C383 H375 0.951 1_545 S
C383 C382 1.424 . S
C383 C384 1.347 . S
C384 H376 0.951 . S
C384 C379 1.429 . S
C384 C383 1.347 . S
H385 C386 0.951 . S
C386 H385 0.951 . S
C386 C392 1.265 . S
H387 C392 0.950 . S
H388 C396 0.949 . S
H389 C397 0.950 . S
H390 C398 0.951 . S
H391 C399 0.951 . S
C392 C386 1.265 . S
C392 H387 0.950 . S
C392 C393 1.478 . S
C393 C380 1.394 . S
C393 C392 1.478 . S
C393 C394 1.397 . S
C394 C393 1.397 . S
C394 C395 1.438 . S
C394 C399 1.429 . S
C395 C378 1.394 . S
C395 C394 1.438 . S
C395 C396 1.428 . S
C396 H388 0.949 . S
C396 C395 1.428 . S
C396 C397 1.345 . S
C397 H389 0.950 . S
C397 C396 1.345 . S
C397 C398 1.424 . S
C398 H390 0.951 . S
C398 C397 1.424 . S
C398 C399 1.347 . S
C399 H391 0.951 . S
C399 C394 1.429 . S
C399 C398 1.347 . S
H400 C401 0.951 . S
C401 H400 0.951 . S
C401 C407 1.265 . S
H402 C407 0.950 1_455 S
H403 C411 0.949 . S
H404 C412 0.950 . S
H405 C413 0.951 . S
H406 C414 0.951 . S
C407 C401 1.265 . S
C407 H402 0.950 1_655 S
C407 C408 1.478 . S
C408 C407 1.478 . S
C408 C409 1.397 1_655 S
C408 C425 1.394 . S
C409 C408 1.397 1_455 S
C409 C410 1.438 . S
C409 C414 1.429 . S
C410 C409 1.438 . S
C410 C411 1.428 . S
C410 C423 1.394 . S
C411 H403 0.949 . S
C411 C410 1.428 . S
C411 C412 1.345 . S
C412 H404 0.950 . S
C412 C411 1.345 . S
C412 C413 1.424 . S
C413 H405 0.951 . S
C413 C412 1.424 . S
C413 C414 1.347 . S
C414 H406 0.951 . S
C414 C409 1.429 . S
C414 C413 1.347 . S
H415 C416 0.951 . S
C416 H415 0.951 . S
C416 C422 1.265 . S
H417 C422 0.950 1_655 S
H418 C426 0.949 . S
H419 C427 0.950 . S
H420 C428 0.951 . S
H421 C429 0.951 . S
C422 C416 1.265 . S
C422 H417 0.950 1_455 S
C422 C423 1.478 . S
C423 C410 1.394 . S
C423 C422 1.478 . S
C423 C424 1.397 1_455 S
C424 C423 1.397 1_655 S
C424 C425 1.438 . S
C424 C429 1.429 . S
C425 C408 1.394 . S
C425 C424 1.438 . S
C425 C426 1.428 . S
C426 H418 0.949 . S
C426 C425 1.428 . S
C426 C427 1.345 . S
C427 H419 0.950 . S
C427 C426 1.345 . S
C427 C428 1.424 . S
C428 H420 0.951 . S
C428 C427 1.424 . S
C428 C429 1.347 . S
C429 H421 0.951 . S
C429 C424 1.429 . S
C429 C428 1.347 . S
H430 C431 0.951 1_455 S
C431 H430 0.951 1_655 S
C431 C437 1.265 . S
H432 C437 0.950 . S
H433 C441 0.949 . S
H434 C442 0.950 . S
H435 C443 0.951 . S
H436 C444 0.951 . S
C437 C431 1.265 . S
C437 H432 0.950 . S
C437 C438 1.478 . S
C438 C437 1.478 . S
C438 C439 1.397 . S
C438 C455 1.394 1_655 S
C439 C438 1.397 . S
C439 C440 1.438 . S
C439 C444 1.429 . S
C440 C439 1.438 . S
C440 C441 1.428 . S
C440 C453 1.394 1_655 S
C441 H433 0.949 . S
C441 C440 1.428 . S
C441 C442 1.345 . S
C442 H434 0.950 . S
C442 C441 1.345 . S
C442 C443 1.424 . S
C443 H435 0.951 . S
C443 C442 1.424 . S
C443 C444 1.347 . S
C444 H436 0.951 . S
C444 C439 1.429 . S
C444 C443 1.347 . S
H445 C446 0.951 1_655 S
C446 H445 0.951 1_455 S
C446 C452 1.265 . S
H447 C452 0.950 . S
H448 C456 0.949 . S
H449 C457 0.950 . S
H450 C458 0.951 . S
H451 C459 0.951 . S
C452 C446 1.265 . S
C452 H447 0.950 . S
C452 C453 1.478 . S
C453 C440 1.394 1_455 S
C453 C452 1.478 . S
C453 C454 1.397 . S
C454 C453 1.397 . S
C454 C455 1.438 . S
C454 C459 1.429 . S
C455 C438 1.394 1_455 S
C455 C454 1.438 . S
C455 C456 1.428 . S
C456 H448 0.949 . S
C456 C455 1.428 . S
C456 C457 1.345 . S
C457 H449 0.950 . S
C457 C456 1.345 . S
C457 C458 1.424 . S
C458 H450 0.951 . S
C458 C457 1.424 . S
C458 C459 1.347 . S
C459 H451 0.951 . S
C459 C454 1.429 . S
C459 C458 1.347 . S
H460 C461 0.951 . S
C461 H460 0.951 . S
C461 C467 1.265 . S
H462 C467 0.950 . S
H463 C471 0.949 1_455 S
H464 C472 0.950 . S
H465 C473 0.951 . S
H466 C474 0.951 . S
C467 C461 1.265 . S
C467 H462 0.950 . S
C467 C468 1.478 . S
C468 C467 1.478 . S
C468 C469 1.397 . S
C468 C485 1.394 1_655 S
C469 C468 1.397 . S
C469 C470 1.438 . S
C469 C474 1.429 . S
C470 C469 1.438 . S
C470 C471 1.428 . S
C470 C483 1.394 1_655 S
C471 H463 0.949 1_655 S
C471 C470 1.428 . S
C471 C472 1.345 . S
C472 H464 0.950 . S
C472 C471 1.345 . S
C472 C473 1.424 . S
C473 H465 0.951 . S
C473 C472 1.424 . S
C473 C474 1.347 . S
C474 H466 0.951 . S
C474 C469 1.429 . S
C474 C473 1.347 . S
H475 C476 0.951 . S
C476 H475 0.951 . S
C476 C482 1.265 . S
H477 C482 0.950 . S
H478 C486 0.949 1_655 S
H479 C487 0.950 . S
H480 C488 0.951 . S
H481 C489 0.951 . S
C482 C476 1.265 . S
C482 H477 0.950 . S
C482 C483 1.478 . S
C483 C470 1.394 1_455 S
C483 C482 1.478 . S
C483 C484 1.397 . S
C484 C483 1.397 . S
C484 C485 1.438 . S
C484 C489 1.429 . S
C485 C468 1.394 1_455 S
C485 C484 1.438 . S
C485 C486 1.428 . S
C486 H478 0.949 1_455 S
C486 C485 1.428 . S
C486 C487 1.345 . S
C487 H479 0.950 . S
C487 C486 1.345 . S
C487 C488 1.424 . S
C488 H480 0.951 . S
C488 C487 1.424 . S
C488 C489 1.347 . S
C489 H481 0.951 . S
C489 C484 1.429 . S
C489 C488 1.347 . S
H490 C491 0.951 1_655 S
C491 H490 0.951 1_455 S
C491 C497 1.265 . S
H492 C497 0.950 . S
H493 C501 0.949 . S
H494 C502 0.950 . S
H495 C503 0.951 . S
H496 C504 0.951 . S
C497 C491 1.265 . S
C497 H492 0.950 . S
C497 C498 1.478 . S
C498 C497 1.478 . S
C498 C499 1.397 . S
C498 C515 1.394 1_455 S
C499 C498 1.397 . S
C499 C500 1.438 . S
C499 C504 1.429 . S
C500 C499 1.438 . S
C500 C501 1.428 . S
C500 C513 1.394 1_455 S
C501 H493 0.949 . S
C501 C500 1.428 . S
C501 C502 1.345 . S
C502 H494 0.950 . S
C502 C501 1.345 . S
C502 C503 1.424 . S
C503 H495 0.951 . S
C503 C502 1.424 . S
C503 C504 1.347 . S
C504 H496 0.951 . S
C504 C499 1.429 . S
C504 C503 1.347 . S
H505 C506 0.951 1_455 S
C506 H505 0.951 1_655 S
C506 C512 1.265 . S
H507 C512 0.950 . S
H508 C516 0.949 . S
H509 C517 0.950 . S
H510 C518 0.951 . S
H511 C519 0.951 . S
C512 C506 1.265 . S
C512 H507 0.950 . S
C512 C513 1.478 . S
C513 C500 1.394 1_655 S
C513 C512 1.478 . S
C513 C514 1.397 . S
C514 C513 1.397 . S
C514 C515 1.438 . S
C514 C519 1.429 . S
C515 C498 1.394 1_655 S
C515 C514 1.438 . S
C515 C516 1.428 . S
C516 H508 0.949 . S
C516 C515 1.428 . S
C516 C517 1.345 . S
C517 H509 0.950 . S
C517 C516 1.345 . S
C517 C518 1.424 . S
C518 H510 0.951 . S
C518 C517 1.424 . S
C518 C519 1.347 . S
C519 H511 0.951 . S
C519 C514 1.429 . S
C519 C518 1.347 . S
C161 C59 1.566 . S
C176 C10 1.566 . S
C191 C99 1.536 . S
C206 C130 1.536 . S
C221 C19 1.544 . S
C236 C50 1.544 . S
C251 C139 1.534 . S
C266 C90 1.534 . S
C281 C122 1.621 . S
C296 C2 1.619 . S
C311 C47 1.000 . S
C326 C87 0.995 . S
C341 C51 1.622 . S
C356 C91 1.623 . S
C371 C136 0.988 . S
C386 C16 1.015 . S
C401 C42 1.614 . S
C416 C82 1.609 . S
C431 C127 1.043 . S
C446 C7 1.041 . S
C461 C131 1.621 . S
C476 C11 1.624 . S
C491 C96 1.046 . S
C506 C56 1.043 . S
