# Generated by pormake.
# Topology una, (4)-cn, num edge types: 1
# Building blocks:
#     Node 0, Type 0, BuildingBlock: TATPOV_clean_sbu_0, # of connection points: 4
#     Node 1, Type 0, BuildingBlock: TATPOV_clean_sbu_0, # of connection points: 4
#     Node 2, Type 0, BuildingBlock: TATPOV_clean_sbu_0, # of connection points: 4
#     Node 3, Type 0, BuildingBlock: TATPOV_clean_sbu_0, # of connection points: 4
#     Node 4, Type 0, BuildingBlock: TATPOV_clean_sbu_0, # of connection points: 4
#     Node 5, Type 0, BuildingBlock: TATPOV_clean_sbu_0, # of connection points: 4
#     Node 6, Type 0, BuildingBlock: TATPOV_clean_sbu_0, # of connection points: 4
#     Node 7, Type 0, BuildingBlock: TATPOV_clean_sbu_0, # of connection points: 4
#     Node 8, Type 0, BuildingBlock: TATPOV_clean_sbu_0, # of connection points: 4
#     Node 9, Type 0, BuildingBlock: TATPOV_clean_sbu_0, # of connection points: 4
#     Node 10, Type 0, BuildingBlock: TATPOV_clean_sbu_0, # of connection points: 4
#     Node 11, Type 0, BuildingBlock: TATPOV_clean_sbu_0, # of connection points: 4
#     Edge 12, Type (0, 0), BuildingBlock: TEMPAE_clean_linker_10, # of connection points: 2
#     Edge 13, Type (0, 0), BuildingBlock: TEMPAE_clean_linker_10, # of connection points: 2
#     Edge 14, Type (0, 0), BuildingBlock: TEMPAE_clean_linker_10, # of connection points: 2
#     Edge 15, Type (0, 0), BuildingBlock: TEMPAE_clean_linker_10, # of connection points: 2
#     Edge 16, Type (0, 0), BuildingBlock: TEMPAE_clean_linker_10, # of connection points: 2
#     Edge 17, Type (0, 0), BuildingBlock: TEMPAE_clean_linker_10, # of connection points: 2
#     Edge 18, Type (0, 0), BuildingBlock: TEMPAE_clean_linker_10, # of connection points: 2
#     Edge 19, Type (0, 0), BuildingBlock: TEMPAE_clean_linker_10, # of connection points: 2
#     Edge 20, Type (0, 0), BuildingBlock: TEMPAE_clean_linker_10, # of connection points: 2
#     Edge 21, Type (0, 0), BuildingBlock: TEMPAE_clean_linker_10, # of connection points: 2
#     Edge 22, Type (0, 0), BuildingBlock: TEMPAE_clean_linker_10, # of connection points: 2
#     Edge 23, Type (0, 0), BuildingBlock: TEMPAE_clean_linker_10, # of connection points: 2
#     Edge 24, Type (0, 0), BuildingBlock: TEMPAE_clean_linker_10, # of connection points: 2
#     Edge 25, Type (0, 0), BuildingBlock: TEMPAE_clean_linker_10, # of connection points: 2
#     Edge 26, Type (0, 0), BuildingBlock: TEMPAE_clean_linker_10, # of connection points: 2
#     Edge 27, Type (0, 0), BuildingBlock: TEMPAE_clean_linker_10, # of connection points: 2
#     Edge 28, Type (0, 0), BuildingBlock: TEMPAE_clean_linker_10, # of connection points: 2
#     Edge 29, Type (0, 0), BuildingBlock: TEMPAE_clean_linker_10, # of connection points: 2
#     Edge 30, Type (0, 0), BuildingBlock: TEMPAE_clean_linker_10, # of connection points: 2
#     Edge 31, Type (0, 0), BuildingBlock: TEMPAE_clean_linker_10, # of connection points: 2
#     Edge 32, Type (0, 0), BuildingBlock: TEMPAE_clean_linker_10, # of connection points: 2
#     Edge 33, Type (0, 0), BuildingBlock: TEMPAE_clean_linker_10, # of connection points: 2
#     Edge 34, Type (0, 0), BuildingBlock: TEMPAE_clean_linker_10, # of connection points: 2
#     Edge 35, Type (0, 0), BuildingBlock: TEMPAE_clean_linker_10, # of connection points: 2
# Relax obj value: 0.133
# Max RMSD: 0.161
# Mean RMSD: 0.161
data_MOF--net-una--node1-TATPOV_clean_sbu_0--edge1-TEMPAE_clean_linker_10
_symmetry_space_group_name_H-M    P1
_symmetry_Int_Tables_number       1
_symmetry_cell_setting            triclinic
loop_
_symmetry_equiv_pos_as_xyz
'x, y, z'
_cell_length_a     59.235938
_cell_length_b     59.258315
_cell_length_c     20.278935
_cell_angle_alpha  89.996865
_cell_angle_beta   90.03604
_cell_angle_gamma 119.98603
loop_
_atom_site_label
_atom_site_type_symbol
_atom_site_fract_x
_atom_site_fract_y
_atom_site_fract_z
_atom_type_partial_charge
Zn0 Zn 0.16734 0.47102 0.14241 0.0
Zn1 Zn 0.1238 0.43495 0.08761 0.0
O2 O 0.15028 0.44416 0.01268 0.0
O3 O 0.18689 0.474 0.05803 0.0
O4 O 0.08969 0.40927 0.04628 0.0
O5 O 0.15307 0.4946 0.15962 0.0
O6 O 0.11664 0.46479 0.11372 0.0
C7 C 0.17474 0.45992 0.00892 0.0
C8 C 0.14614 0.4214 0.20689 0.0
O9 O 0.12921 0.41381 0.16097 0.0
O10 O 0.16365 0.44513 0.2109 0.0
C11 C 0.08699 0.39172 0.0058 0.0
O12 O 0.1073 0.38939 0.99066 0.0
C13 C 0.12993 0.48696 0.14147 0.0
Zn14 Zn 0.71152 0.1699 0.27988 0.0
Zn15 Zn 0.70459 0.1275 0.21983 0.0
O16 O 0.72164 0.15545 0.14816 0.0
O17 O 0.72792 0.19118 0.19752 0.0
O18 O 0.69771 0.09498 0.17248 0.0
O19 O 0.67362 0.15451 0.2979 0.0
O20 O 0.66721 0.1189 0.24754 0.0
C21 C 0.73004 0.17988 0.14685 0.0
C22 C 0.74008 0.14795 0.34013 0.0
O23 O 0.73101 0.1318 0.29253 0.0
O24 O 0.73379 0.16535 0.34642 0.0
C25 C 0.68737 0.07323 0.20226 0.0
O26 O 0.68178 0.07238 0.26524 0.0
C27 C 0.65827 0.13157 0.27819 0.0
Zn28 Zn 0.53282 0.70184 0.4619 0.0
Zn29 Zn 0.56758 0.69226 0.40805 0.0
O30 O 0.55829 0.70883 0.33138 0.0
O31 O 0.52924 0.71699 0.37582 0.0
O32 O 0.59236 0.68235 0.36775 0.0
O33 O 0.50882 0.66465 0.48423 0.0
O34 O 0.53732 0.65608 0.43826 0.0
C35 C 0.54279 0.71783 0.3266 0.0
C36 C 0.58303 0.73006 0.52362 0.0
O37 O 0.58988 0.7196 0.47892 0.0
O38 O 0.55957 0.72476 0.52766 0.0
C39 C 0.60933 0.69598 0.32469 0.0
O40 O 0.61155 0.7182 0.30565 0.0
C41 C 0.51563 0.64836 0.46766 0.0
Zn42 Zn 0.82836 0.53349 0.62236 0.0
Zn43 Zn 0.87134 0.56872 0.56498 0.0
O44 O 0.8445 0.55972 0.49079 0.0
O45 O 0.80821 0.53081 0.53923 0.0
O46 O 0.90557 0.59383 0.52367 0.0
O47 O 0.84185 0.5092 0.63852 0.0
O48 O 0.87814 0.53867 0.59152 0.0
C49 C 0.81991 0.54438 0.48907 0.0
C50 C 0.85067 0.5833 0.68559 0.0
O51 O 0.86682 0.59051 0.638 0.0
O52 O 0.83322 0.55962 0.69135 0.0
C53 C 0.90962 0.61306 0.48775 0.0
O54 O 0.8904 0.61755 0.47601 0.0
C55 C 0.86485 0.5166 0.61971 0.0
Zn56 Zn 0.29412 0.82735 0.78152 0.0
Zn57 Zn 0.30487 0.87193 0.72678 0.0
O58 O 0.28675 0.84603 0.65105 0.0
O59 O 0.2772 0.80858 0.69653 0.0
O60 O 0.3159 0.90685 0.68661 0.0
O61 O 0.33135 0.83909 0.80071 0.0
O62 O 0.34069 0.87647 0.75537 0.0
C63 C 0.27651 0.82136 0.64723 0.0
C64 C 0.26809 0.8514 0.84447 0.0
O65 O 0.27846 0.86819 0.79862 0.0
O66 O 0.27278 0.83284 0.84908 0.0
C67 C 0.3026 0.9111 0.64439 0.0
O68 O 0.27986 0.89183 0.62559 0.0
C69 C 0.34804 0.86199 0.78369 0.0
Zn70 Zn 0.46243 0.2906 0.95929 0.0
Zn71 Zn 0.42811 0.29763 0.89408 0.0
O72 O 0.43939 0.27982 0.82531 0.0
O73 O 0.46731 0.27269 0.87997 0.0
O74 O 0.40308 0.3046 0.84369 0.0
O75 O 0.48565 0.32857 0.97453 0.0
O76 O 0.45701 0.33506 0.92145 0.0
C77 C 0.45481 0.27067 0.82752 0.0
C78 C 0.41156 0.26327 0.01682 0.0
O79 O 0.4051 0.27166 0.96657 0.0
O80 O 0.43515 0.26972 0.02615 0.0
C81 C 0.38909 0.3121 0.87334 0.0
O82 O 0.39092 0.31481 0.93777 0.0
C83 C 0.47849 0.344 0.95284 0.0
Zn84 Zn 0.53353 0.82727 0.79055 0.0
Zn85 Zn 0.56599 0.8705 0.85365 0.0
O86 O 0.55713 0.84236 0.92362 0.0
O87 O 0.53052 0.80599 0.87177 0.0
O88 O 0.58796 0.90353 0.90364 0.0
O89 O 0.50798 0.83918 0.77332 0.0
O90 O 0.53513 0.87551 0.8244 0.0
C91 C 0.54305 0.81761 0.92329 0.0
C92 C 0.58506 0.85443 0.73341 0.0
O93 O 0.59054 0.86979 0.78231 0.0
O94 O 0.56203 0.83576 0.72527 0.0
C95 C 0.60922 0.90917 0.93224 0.0
O96 O 0.61826 0.89299 0.928 0.0
C97 C 0.51376 0.86161 0.79364 0.0
Zn98 Zn 0.69668 0.52839 0.95751 0.0
Zn99 Zn 0.68665 0.5624 0.01332 0.0
O100 O 0.70498 0.55427 0.08806 0.0
O101 O 0.71418 0.52635 0.04122 0.0
O102 O 0.67663 0.58681 0.05507 0.0
O103 O 0.65925 0.50318 0.93985 0.0
O104 O 0.6504 0.53156 0.98516 0.0
C105 C 0.7152 0.53979 0.0909 0.0
C106 C 0.72283 0.57832 0.89436 0.0
O107 O 0.7129 0.5849 0.94097 0.0
O108 O 0.71776 0.55496 0.88919 0.0
C109 C 0.69191 0.60586 0.0914 0.0
O110 O 0.71565 0.61028 0.10225 0.0
C111 C 0.64275 0.50965 0.957 0.0
Zn112 Zn 0.16275 0.70339 0.11443 0.0
Zn113 Zn 0.12003 0.69546 0.17395 0.0
O114 O 0.14737 0.71364 0.24671 0.0
O115 O 0.18347 0.72131 0.19659 0.0
O116 O 0.08604 0.68664 0.21653 0.0
O117 O 0.14939 0.66561 0.09938 0.0
O118 O 0.11342 0.65853 0.14886 0.0
C119 C 0.172 0.72312 0.24734 0.0
C120 C 0.13972 0.73026 0.05201 0.0
O121 O 0.12397 0.72142 0.10042 0.0
O122 O 0.15726 0.72418 0.04537 0.0
C123 C 0.08313 0.70069 0.25917 0.0
O124 O 0.10339 0.72286 0.27743 0.0
C125 C 0.1267 0.64988 0.11998 0.0
Zn126 Zn 0.47713 0.16887 0.29598 0.0
Zn127 Zn 0.44188 0.12408 0.34686 0.0
O128 O 0.45029 0.14939 0.42448 0.0
O129 O 0.47965 0.18696 0.38248 0.0
O130 O 0.41646 0.0893 0.3852 0.0
O131 O 0.50131 0.15564 0.27517 0.0
O132 O 0.47216 0.11806 0.31745 0.0
C133 C 0.46555 0.17386 0.43058 0.0
C134 C 0.42746 0.14734 0.23135 0.0
O135 O 0.42034 0.12968 0.27516 0.0
O136 O 0.45095 0.16556 0.2287 0.0
C137 C 0.39753 0.08572 0.42171 0.0
O138 O 0.39401 0.10546 0.43484 0.0
C139 C 0.49422 0.1323 0.28995 0.0
Zn140 Zn 0.29467 0.46754 0.47726 0.0
Zn141 Zn 0.30422 0.43406 0.5391 0.0
O142 O 0.28579 0.44361 0.61011 0.0
O143 O 0.27708 0.47113 0.55902 0.0
O144 O 0.31507 0.41168 0.58815 0.0
O145 O 0.33222 0.49234 0.45927 0.0
O146 O 0.34034 0.46421 0.50899 0.0
C147 C 0.27584 0.45834 0.6103 0.0
C148 C 0.26857 0.41609 0.41965 0.0
O149 O 0.27817 0.41003 0.46813 0.0
O150 O 0.27379 0.43941 0.41185 0.0
C151 C 0.30009 0.38863 0.60857 0.0
O152 O 0.27497 0.37732 0.59643 0.0
C153 C 0.34839 0.48576 0.47867 0.0
Zn154 Zn 0.83703 0.30152 0.6138 0.0
Zn155 Zn 0.88091 0.31153 0.67193 0.0
O156 O 0.85397 0.29348 0.74547 0.0
O157 O 0.81709 0.28452 0.69745 0.0
O158 O 0.91497 0.32139 0.71583 0.0
O159 O 0.84974 0.33899 0.59541 0.0
O160 O 0.88644 0.34778 0.64405 0.0
C161 C 0.82931 0.28358 0.74773 0.0
C162 C 0.86125 0.2753 0.55278 0.0
O163 O 0.87762 0.28537 0.5997 0.0
O164 O 0.84286 0.2802 0.54695 0.0
C165 C 0.91797 0.30653 0.75566 0.0
O166 O 0.89813 0.2833 0.7684 0.0
C167 C 0.87246 0.35544 0.61441 0.0
C168 C 0.14585 0.37945 0.22382 0.0
C169 C 0.14889 0.40277 0.24961 0.0
C170 C 0.15878 0.36749 0.25312 0.0
C171 C 0.17539 0.37967 0.30781 0.0
C172 C 0.17462 0.40054 0.34008 0.0
C173 C 0.16115 0.41166 0.31065 0.0
C174 C 0.15669 0.34358 0.22112 0.0
C175 C 0.19108 0.41379 0.40021 0.0
C176 C 0.22562 0.37563 0.40837 0.0
C177 C 0.24762 0.3962 0.37842 0.0
C178 C 0.20096 0.36545 0.37854 0.0
C179 C 0.19869 0.37684 0.31936 0.0
C180 C 0.22154 0.39347 0.28309 0.0
C181 C 0.24586 0.40287 0.31324 0.0
C182 C 0.17724 0.34522 0.41477 0.0
C183 C 0.22036 0.40495 0.21754 0.0
H184 H 0.13576 0.37205 0.17732 0.0
H185 H 0.16273 0.42924 0.33162 0.0
H186 H 0.16743 0.349 0.17366 0.0
H187 H 0.16451 0.33383 0.25295 0.0
H188 H 0.13597 0.3295 0.20951 0.0
H189 H 0.18713 0.42886 0.42078 0.0
H190 H 0.18729 0.39932 0.43942 0.0
H191 H 0.21206 0.42335 0.3872 0.0
H192 H 0.227 0.36983 0.45825 0.0
H193 H 0.26311 0.41822 0.28939 0.0
H194 H 0.16012 0.33513 0.38154 0.0
H195 H 0.17234 0.35459 0.45531 0.0
H196 H 0.18132 0.33056 0.43749 0.0
H197 H 0.23981 0.41585 0.19373 0.0
H198 H 0.21276 0.41852 0.22469 0.0
H199 H 0.20701 0.38933 0.18348 0.0
C200 C 0.84949 0.25137 0.44779 0.0
C201 C 0.86018 0.25449 0.51087 0.0
C202 C 0.83638 0.22679 0.4182 0.0
C203 C 0.8343 0.20498 0.4527 0.0
C204 C 0.84984 0.20921 0.50953 0.0
C205 C 0.86245 0.23407 0.53887 0.0
C206 C 0.82137 0.22379 0.35539 0.0
C207 C 0.85077 0.18713 0.54377 0.0
C208 C 0.76322 0.15989 0.4462 0.0
C209 C 0.76131 0.15016 0.3824 0.0
C210 C 0.78753 0.17465 0.47638 0.0
C211 C 0.81029 0.17938 0.44167 0.0
C212 C 0.8077 0.16469 0.38423 0.0
C213 C 0.78304 0.15039 0.35427 0.0
C214 C 0.78892 0.18857 0.54001 0.0
C215 C 0.83112 0.16656 0.3499 0.0
H216 H 0.84857 0.26749 0.42526 0.0
H217 H 0.87139 0.2366 0.58701 0.0
H218 H 0.82542 0.21249 0.31853 0.0
H219 H 0.80012 0.21307 0.36574 0.0
H220 H 0.82643 0.24289 0.33313 0.0
H221 H 0.8711 0.19344 0.55887 0.0
H222 H 0.8389 0.18185 0.58943 0.0
H223 H 0.84347 0.16962 0.51189 0.0
H224 H 0.74614 0.15887 0.46879 0.0
H225 H 0.78151 0.14218 0.30558 0.0
H226 H 0.79763 0.20977 0.53065 0.0
H227 H 0.8014 0.18592 0.57624 0.0
H228 H 0.76939 0.18133 0.5625 0.0
H229 H 0.83579 0.17908 0.30556 0.0
H230 H 0.82668 0.14696 0.33271 0.0
H231 H 0.84848 0.17471 0.38259 0.0
C232 C 0.59399 0.75466 0.62746 0.0
C233 C 0.60221 0.75135 0.56547 0.0
C234 C 0.60503 0.77931 0.65642 0.0
C235 C 0.62513 0.80107 0.62256 0.0
C236 C 0.63696 0.79673 0.56697 0.0
C237 C 0.62505 0.77177 0.53814 0.0
C238 C 0.59228 0.78236 0.71774 0.0
C239 C 0.66032 0.8187 0.53356 0.0
C240 C 0.5989 0.84575 0.62695 0.0
C241 C 0.60546 0.85447 0.69196 0.0
C242 C 0.60934 0.83176 0.59686 0.0
C243 C 0.62691 0.82679 0.63302 0.0
C244 C 0.63813 0.841 0.69167 0.0
C245 C 0.62688 0.85448 0.72153 0.0
C246 C 0.59802 0.81862 0.53163 0.0
C247 C 0.65942 0.83911 0.7274 0.0
H248 H 0.57681 0.73853 0.6495 0.0
H249 H 0.63196 0.76911 0.49088 0.0
H250 H 0.60716 0.79348 0.75581 0.0
H251 H 0.58206 0.79324 0.70578 0.0
H252 H 0.57784 0.76329 0.73934 0.0
H253 H 0.67483 0.81259 0.52244 0.0
H254 H 0.65437 0.82321 0.4857 0.0
H255 H 0.66976 0.83661 0.56425 0.0
H256 H 0.58293 0.84663 0.60327 0.0
H257 H 0.63264 0.86198 0.77118 0.0
H258 H 0.58545 0.79731 0.53911 0.0
H259 H 0.61383 0.82179 0.49715 0.0
H260 H 0.5861 0.82609 0.50809 0.0
H261 H 0.6511 0.8258 0.7702 0.0
H262 H 0.67397 0.85853 0.74705 0.0
H263 H 0.66945 0.83184 0.69475 0.0
C264 C 0.83819 0.59431 0.79116 0.0
C265 C 0.84836 0.60226 0.72779 0.0
C266 C 0.82342 0.60399 0.82067 0.0
C267 C 0.81908 0.62222 0.78566 0.0
C268 C 0.83415 0.63437 0.72878 0.0
C269 C 0.84849 0.62394 0.69956 0.0
C270 C 0.80909 0.59141 0.8838 0.0
C271 C 0.8326 0.65604 0.69411 0.0
C272 C 0.74709 0.5901 0.78986 0.0
C273 C 0.74385 0.59785 0.85256 0.0
C274 C 0.77177 0.60129 0.76093 0.0
C275 C 0.79356 0.62092 0.79576 0.0
C276 C 0.7893 0.63242 0.85208 0.0
C277 C 0.76432 0.62046 0.88071 0.0
C278 C 0.77486 0.5891 0.6986 0.0
C279 C 0.81143 0.65528 0.88666 0.0
H280 H 0.8389 0.5781 0.81387 0.0
H281 H 0.85702 0.6307 0.6512 0.0
H282 H 0.81153 0.60649 0.91989 0.0
H283 H 0.78794 0.57897 0.87354 0.0
H284 H 0.81615 0.57906 0.90686 0.0
H285 H 0.85227 0.67098 0.6768 0.0
H286 H 0.82001 0.64823 0.64984 0.0
H287 H 0.82465 0.66548 0.7266 0.0
H288 H 0.73094 0.57309 0.76721 0.0
H289 H 0.76172 0.62701 0.92855 0.0
H290 H 0.7852 0.57827 0.70981 0.0
H291 H 0.78657 0.60436 0.66192 0.0
H292 H 0.75579 0.57532 0.67575 0.0
H293 H 0.81661 0.64854 0.93226 0.0
H294 H 0.80524 0.66938 0.90188 0.0
H295 H 0.82899 0.66544 0.85497 0.0
C296 C 0.22707 0.85302 0.85831 0.0
C297 C 0.24712 0.85008 0.8862 0.0
C298 C 0.20203 0.84043 0.88666 0.0
C299 C 0.19726 0.82425 0.94241 0.0
C300 C 0.21872 0.82553 0.97701 0.0
C301 C 0.24347 0.83864 0.94842 0.0
C302 C 0.18036 0.84213 0.85239 0.0
C303 C 0.21514 0.80975 0.0387 0.0
C304 C 0.14208 0.77315 0.03884 0.0
C305 C 0.14165 0.75142 0.01002 0.0
C306 C 0.15662 0.79788 0.0096 0.0
C307 C 0.17132 0.80053 0.95217 0.0
C308 C 0.16624 0.77786 0.91652 0.0
C309 C 0.15127 0.75346 0.94605 0.0
C310 C 0.15888 0.8213 0.04485 0.0
C311 C 0.18007 0.77938 0.85268 0.0
H312 H 0.23001 0.86253 0.81086 0.0
H313 H 0.25932 0.83717 0.9709 0.0
H314 H 0.17528 0.83086 0.80573 0.0
H315 H 0.16264 0.83464 0.88351 0.0
H316 H 0.18704 0.8627 0.83901 0.0
H317 H 0.23403 0.81426 0.06129 0.0
H318 H 0.20382 0.81364 0.0759 0.0
H319 H 0.20418 0.78864 0.02679 0.0
H320 H 0.13394 0.77153 0.08766 0.0
H321 H 0.15009 0.7364 0.92289 0.0
H322 H 0.16688 0.83868 0.01234 0.0
H323 H 0.17177 0.82588 0.08846 0.0
H324 H 0.13945 0.81696 0.06323 0.0
H325 H 0.17785 0.79239 0.81733 0.0
H326 H 0.17241 0.75997 0.82915 0.0
H327 H 0.20121 0.78755 0.86212 0.0
C328 C 0.41717 0.16309 0.12962 0.0
C329 C 0.40841 0.14963 0.18921 0.0
C330 C 0.40442 0.17502 0.10057 0.0
C331 C 0.38202 0.17303 0.13172 0.0
C332 C 0.37057 0.15559 0.18528 0.0
C333 C 0.38412 0.14419 0.21413 0.0
C334 C 0.41723 0.19264 0.04193 0.0
C335 C 0.34545 0.15078 0.2164 0.0
C336 C 0.39843 0.24149 0.1243 0.0
C337 C 0.39203 0.24214 0.0582 0.0
C338 C 0.39063 0.21768 0.15563 0.0
C339 C 0.37607 0.19428 0.11941 0.0
C340 C 0.36436 0.19498 0.05918 0.0
C341 C 0.37285 0.21916 0.02826 0.0
C342 C 0.40202 0.21796 0.22246 0.0
C343 C 0.34608 0.1703 0.02293 0.0
H344 H 0.43559 0.16657 0.10933 0.0
H345 H 0.37691 0.13323 0.25954 0.0
H346 H 0.40292 0.18798 0.00168 0.0
H347 H 0.42483 0.21326 0.05643 0.0
H348 H 0.43373 0.19083 0.02208 0.0
H349 H 0.33268 0.12963 0.22596 0.0
H350 H 0.34963 0.16078 0.26485 0.0
H351 H 0.33474 0.15767 0.18502 0.0
H352 H 0.41262 0.25945 0.14814 0.0
H353 H 0.36719 0.21963 0.97763 0.0
H354 H 0.41755 0.21278 0.21714 0.0
H355 H 0.38679 0.2034 0.25537 0.0
H356 H 0.41063 0.23738 0.24644 0.0
H357 H 0.35718 0.16566 0.98667 0.0
H358 H 0.33131 0.17282 0.99518 0.0
H359 H 0.336 0.1536 0.05735 0.0
C360 C 0.13281 0.52715 0.18798 0.0
C361 C 0.11975 0.50516 0.14737 0.0
C362 C 0.12731 0.5475 0.18493 0.0
C363 C 0.10819 0.54586 0.14018 0.0
C364 C 0.09319 0.52266 0.10361 0.0
C365 C 0.09918 0.50252 0.10753 0.0
C366 C 0.14364 0.57173 0.22547 0.0
C367 C 0.07221 0.5199 0.05659 0.0
C368 C 0.09794 0.60381 0.15845 0.0
C369 C 0.11716 0.62159 0.11544 0.0
C370 C 0.09292 0.578 0.16323 0.0
C371 C 0.10753 0.57002 0.12424 0.0
C372 C 0.12514 0.58725 0.07651 0.0
C373 C 0.12971 0.61277 0.07271 0.0
C374 C 0.07351 0.56002 0.21354 0.0
C375 C 0.14096 0.57953 0.03331 0.0
H376 H 0.14839 0.5291 0.2199 0.0
H377 H 0.08882 0.48547 0.07642 0.0
H378 H 0.15688 0.58792 0.19244 0.0
H379 H 0.13106 0.57785 0.25119 0.0
H380 H 0.15568 0.56881 0.26282 0.0
H381 H 0.05851 0.49916 0.0443 0.0
H382 H 0.06101 0.52862 0.07757 0.0
H383 H 0.08136 0.53039 0.01015 0.0
H384 H 0.088 0.61043 0.19126 0.0
H385 H 0.14421 0.62626 0.03839 0.0
H386 H 0.08406 0.55964 0.25836 0.0
H387 H 0.06232 0.53981 0.19437 0.0
H388 H 0.05966 0.56661 0.22811 0.0
H389 H 0.15538 0.57755 0.06406 0.0
H390 H 0.15165 0.59413 0.9941 0.0
H391 H 0.1282 0.5604 0.00966 0.0
C392 C 0.62131 0.13174 0.33531 0.0
C393 C 0.62993 0.12094 0.28683 0.0
C394 C 0.59557 0.12664 0.33611 0.0
C395 C 0.57794 0.11033 0.28706 0.0
C396 C 0.58578 0.09724 0.2421 0.0
C397 C 0.61182 0.10272 0.24246 0.0
C398 C 0.58803 0.14076 0.38566 0.0
C399 C 0.56739 0.07919 0.19018 0.0
C400 C 0.51045 0.10115 0.31374 0.0
C401 C 0.51275 0.12274 0.27925 0.0
C402 C 0.53068 0.09522 0.31238 0.0
C403 C 0.55363 0.11134 0.27601 0.0
C404 C 0.55495 0.1317 0.23665 0.0
C405 C 0.53451 0.13709 0.23872 0.0
C406 C 0.52824 0.07293 0.35364 0.0
C407 C 0.57891 0.14929 0.19655 0.0
H408 H 0.63512 0.14541 0.37065 0.0
H409 H 0.61833 0.09413 0.20522 0.0
H410 H 0.58571 0.15604 0.36009 0.0
H411 H 0.56911 0.12712 0.40903 0.0
H412 H 0.60292 0.15022 0.42504 0.0
H413 H 0.57402 0.066 0.17035 0.0
H414 H 0.54739 0.06727 0.2102 0.0
H415 H 0.56643 0.09089 0.14869 0.0
H416 H 0.49356 0.08979 0.34467 0.0
H417 H 0.53621 0.15347 0.21079 0.0
H418 H 0.53874 0.08063 0.40094 0.0
H419 H 0.53712 0.06265 0.32834 0.0
H420 H 0.50755 0.05869 0.36502 0.0
H421 H 0.59537 0.16141 0.23023 0.0
H422 H 0.57578 0.16248 0.16369 0.0
H423 H 0.58477 0.13758 0.16587 0.0
C424 C 0.38463 0.52559 0.42759 0.0
C425 C 0.37659 0.50426 0.47006 0.0
C426 C 0.41055 0.54586 0.42647 0.0
C427 C 0.429 0.54483 0.46891 0.0
C428 C 0.42154 0.52234 0.50785 0.0
C429 C 0.39533 0.50225 0.50805 0.0
C430 C 0.41766 0.56934 0.38357 0.0
C431 C 0.44074 0.52027 0.55274 0.0
C432 C 0.49692 0.60134 0.43649 0.0
C433 C 0.49696 0.62034 0.4778 0.0
C434 C 0.47579 0.57563 0.43688 0.0
C435 C 0.45444 0.569 0.47954 0.0
C436 C 0.45572 0.58753 0.52568 0.0
C437 C 0.47693 0.61295 0.52415 0.0
C438 C 0.47541 0.55626 0.38798 0.0
C439 C 0.43357 0.58127 0.57271 0.0
H440 H 0.37037 0.52706 0.3971 0.0
H441 H 0.38931 0.4857 0.54059 0.0
H442 H 0.42177 0.58627 0.4152 0.0
H443 H 0.43554 0.57463 0.35483 0.0
H444 H 0.4018 0.56595 0.34867 0.0
H445 H 0.43376 0.49979 0.56765 0.0
H446 H 0.46004 0.52819 0.5286 0.0
H447 H 0.44348 0.5319 0.59798 0.0
H448 H 0.51245 0.6069 0.40086 0.0
H449 H 0.47713 0.62745 0.55712 0.0
H450 H 0.46316 0.55492 0.3451 0.0
H451 H 0.46682 0.53656 0.41018 0.0
H452 H 0.49529 0.5622 0.3697 0.0
H453 H 0.41652 0.57911 0.54459 0.0
H454 H 0.43891 0.59675 0.61037 0.0
H455 H 0.42746 0.56257 0.59836 0.0
C456 C 0.862 0.47657 0.66734 0.0
C457 C 0.87504 0.49842 0.62632 0.0
C458 C 0.868 0.45654 0.66621 0.0
C459 C 0.88759 0.45836 0.62296 0.0
C460 C 0.90238 0.48134 0.58554 0.0
C461 C 0.8959 0.50118 0.58759 0.0
C462 C 0.85187 0.43251 0.70753 0.0
C463 C 0.92376 0.48424 0.53987 0.0
C464 C 0.90003 0.40215 0.64932 0.0
C465 C 0.88127 0.38348 0.60691 0.0
C466 C 0.9042 0.4277 0.65128 0.0
C467 C 0.88924 0.43452 0.60995 0.0
C468 C 0.87216 0.4164 0.5628 0.0
C469 C 0.86839 0.39114 0.56192 0.0
C470 C 0.92302 0.44665 0.70119 0.0
C471 C 0.85603 0.42288 0.51715 0.0
H472 H 0.84618 0.47452 0.69839 0.0
H473 H 0.90623 0.51812 0.55614 0.0
H474 H 0.83921 0.41589 0.67485 0.0
H475 H 0.86464 0.42712 0.73516 0.0
H476 H 0.83926 0.43527 0.74332 0.0
H477 H 0.93704 0.50493 0.5263 0.0
H478 H 0.93536 0.4763 0.56271 0.0
H479 H 0.91497 0.47308 0.49396 0.0
H480 H 0.9102 0.39641 0.68389 0.0
H481 H 0.85425 0.37693 0.52809 0.0
H482 H 0.912 0.44734 0.74462 0.0
H483 H 0.93393 0.46661 0.68038 0.0
H484 H 0.93714 0.44076 0.71836 0.0
H485 H 0.841 0.42447 0.54618 0.0
H486 H 0.84603 0.40779 0.47851 0.0
H487 H 0.8684 0.44192 0.49273 0.0
C488 C 0.39519 0.8906 0.75372 0.0
C489 C 0.37601 0.87071 0.79274 0.0
C490 C 0.42101 0.89546 0.75406 0.0
C491 C 0.4276 0.88008 0.79437 0.0
C492 C 0.40878 0.86154 0.83783 0.0
C493 C 0.38325 0.85707 0.83638 0.0
C494 C 0.44063 0.91568 0.70783 0.0
C495 C 0.41499 0.84489 0.88225 0.0
C496 C 0.47386 0.85733 0.74089 0.0
C497 C 0.49451 0.8704 0.78549 0.0
C498 C 0.45289 0.86194 0.73975 0.0
C499 C 0.45247 0.88005 0.78451 0.0
C500 C 0.47422 0.89488 0.82597 0.0
C501 C 0.49508 0.88988 0.82598 0.0
C502 C 0.43025 0.84588 0.69412 0.0
C503 C 0.47467 0.91464 0.87364 0.0
H504 H 0.38976 0.90133 0.72017 0.0
H505 H 0.36863 0.842 0.86758 0.0
H506 H 0.45997 0.92689 0.73194 0.0
H507 H 0.44303 0.90584 0.66406 0.0
H508 H 0.43431 0.92946 0.69059 0.0
H509 H 0.39909 0.83344 0.91798 0.0
H510 H 0.41808 0.83109 0.85183 0.0
H511 H 0.43323 0.85716 0.91014 0.0
H512 H 0.47352 0.84258 0.70856 0.0
H513 H 0.51107 0.9002 0.86027 0.0
H514 H 0.42454 0.85854 0.66713 0.0
H515 H 0.41316 0.83181 0.72352 0.0
H516 H 0.43484 0.83478 0.65759 0.0
H517 H 0.46681 0.92622 0.8503 0.0
H518 H 0.49468 0.92813 0.89195 0.0
H519 H 0.46213 0.90437 0.91662 0.0
C520 C 0.49584 0.39037 0.91645 0.0
C521 C 0.49649 0.37236 0.96023 0.0
C522 C 0.51629 0.41644 0.91531 0.0
C523 C 0.53772 0.42444 0.95877 0.0
C524 C 0.53709 0.40689 0.00706 0.0
C525 C 0.51651 0.38113 0.00718 0.0
C526 C 0.51591 0.43474 0.86425 0.0
C527 C 0.55934 0.41458 0.05491 0.0
C528 C 0.60728 0.46898 0.90699 0.0
C529 C 0.61467 0.49061 0.94804 0.0
C530 C 0.58162 0.4482 0.90605 0.0
C531 C 0.56272 0.44902 0.94709 0.0
C532 C 0.56946 0.47178 0.98423 0.0
C533 C 0.59547 0.49238 0.98442 0.0
C534 C 0.57532 0.42443 0.86514 0.0
C535 C 0.54974 0.47367 0.02738 0.0
H536 H 0.48029 0.38378 0.88041 0.0
H537 H 0.51683 0.36744 0.04212 0.0
H538 H 0.52389 0.45467 0.88465 0.0
H539 H 0.52833 0.43596 0.82191 0.0
H540 H 0.49588 0.42788 0.84555 0.0
H541 H 0.55454 0.39965 0.09381 0.0
H542 H 0.57676 0.41721 0.02774 0.0
H543 H 0.56463 0.43338 0.07901 0.0
H544 H 0.62189 0.46768 0.87765 0.0
H545 H 0.60097 0.50915 0.01578 0.0
H546 H 0.5574 0.41831 0.83567 0.0
H547 H 0.57162 0.40802 0.89824 0.0
H548 H 0.59143 0.42793 0.83105 0.0
H549 H 0.53042 0.4648 0.00286 0.0
H550 H 0.55604 0.49422 0.04012 0.0
H551 H 0.54735 0.46285 0.0739 0.0
C552 C 0.25856 0.44421 0.72471 0.0
C553 C 0.26182 0.45973 0.66929 0.0
C554 C 0.24431 0.44451 0.77964 0.0
C555 C 0.23311 0.46076 0.7792 0.0
C556 C 0.23655 0.47666 0.72377 0.0
C557 C 0.25084 0.47595 0.66948 0.0
C558 C 0.24106 0.4273 0.83797 0.0
C559 C 0.22497 0.4943 0.72164 0.0
C560 C 0.17671 0.44382 0.89594 0.0
C561 C 0.18931 0.46099 0.94851 0.0
C562 C 0.19069 0.44369 0.84019 0.0
C563 C 0.21788 0.46118 0.83693 0.0
C564 C 0.23063 0.47886 0.88923 0.0
C565 C 0.2162 0.47854 0.94437 0.0
C566 C 0.17643 0.42458 0.78525 0.0
C567 C 0.25959 0.49787 0.88737 0.0
H568 H 0.2669 0.43158 0.72498 0.0
H569 H 0.25324 0.48801 0.62692 0.0
H570 H 0.24898 0.43933 0.88309 0.0
H571 H 0.22006 0.41356 0.84681 0.0
H572 H 0.25108 0.41587 0.83066 0.0
H573 H 0.22962 0.50561 0.67503 0.0
H574 H 0.20348 0.48259 0.72681 0.0
H575 H 0.23239 0.50816 0.76362 0.0
H576 H 0.15595 0.43017 0.89871 0.0
H577 H 0.22613 0.49192 0.98465 0.0
H578 H 0.18442 0.41131 0.77905 0.0
H579 H 0.17943 0.43513 0.73797 0.0
H580 H 0.15516 0.41266 0.79473 0.0
H581 H 0.27041 0.48708 0.88473 0.0
H582 H 0.26644 0.51077 0.93135 0.0
H583 H 0.26462 0.51018 0.84254 0.0
C584 C 0.75266 0.22225 0.08586 0.0
C585 C 0.74334 0.19533 0.08731 0.0
C586 C 0.76645 0.23739 0.03123 0.0
C587 C 0.77108 0.22533 0.97677 0.0
C588 C 0.76144 0.19813 0.97746 0.0
C589 C 0.74766 0.18345 0.03269 0.0
C590 C 0.77633 0.26633 0.0321 0.0
C591 C 0.76598 0.1846 0.92017 0.0
C592 C 0.78752 0.25919 0.81047 0.0
C593 C 0.81466 0.26988 0.80786 0.0
C594 C 0.77313 0.24491 0.86548 0.0
C595 C 0.78618 0.2412 0.91918 0.0
C596 C 0.8136 0.25227 0.91742 0.0
C597 C 0.82753 0.26651 0.8618 0.0
C598 C 0.74392 0.23348 0.86571 0.0
C599 C 0.82818 0.24872 0.97387 0.0
H600 H 0.74941 0.23162 0.12776 0.0
H601 H 0.74057 0.16268 0.03335 0.0
H602 H 0.7979 0.27722 0.02824 0.0
H603 H 0.76863 0.27185 0.98891 0.0
H604 H 0.77064 0.27263 0.0777 0.0
H605 H 0.75688 0.16325 0.92802 0.0
H606 H 0.75793 0.188 0.87425 0.0
H607 H 0.78721 0.19282 0.91244 0.0
H608 H 0.77739 0.26171 0.76911 0.0
H609 H 0.84848 0.27466 0.86023 0.0
H610 H 0.73793 0.24035 0.90967 0.0
H611 H 0.73413 0.21193 0.86888 0.0
H612 H 0.73683 0.23877 0.82083 0.0
H613 H 0.82425 0.25603 0.02033 0.0
H614 H 0.84957 0.25906 0.96545 0.0
H615 H 0.82126 0.22769 0.98096 0.0
C616 C 0.55872 0.73477 0.21274 0.0
C617 C 0.54144 0.73045 0.26483 0.0
C618 C 0.5587 0.74829 0.15589 0.0
C619 C 0.54091 0.7576 0.15099 0.0
C620 C 0.52303 0.75277 0.20266 0.0
C621 C 0.52353 0.7393 0.25896 0.0
C622 C 0.57806 0.75308 0.10169 0.0
C623 C 0.50367 0.76227 0.19903 0.0
C624 C 0.55739 0.8148 0.0377 0.0
C625 C 0.54205 0.80232 0.98216 0.0
C626 C 0.55729 0.80045 0.09286 0.0
C627 C 0.5414 0.77298 0.09256 0.0
C628 C 0.52576 0.76026 0.03689 0.0
C629 C 0.52629 0.77508 0.98234 0.0
C630 C 0.57424 0.81468 0.1514 0.0
C631 C 0.50849 0.731 0.03494 0.0
H632 H 0.57264 0.72804 0.21685 0.0
H633 H 0.51003 0.73598 0.2988 0.0
H634 H 0.56772 0.74539 0.05419 0.0
H635 H 0.59129 0.77434 0.0953 0.0
H636 H 0.59003 0.74385 0.11217 0.0
H637 H 0.49046 0.7561 0.2424 0.0
H638 H 0.51418 0.78385 0.19617 0.0
H639 H 0.49167 0.75476 0.15371 0.0
H640 H 0.56969 0.83581 0.03797 0.0
H641 H 0.51437 0.76525 0.93966 0.0
H642 H 0.58802 0.80755 0.1614 0.0
H643 H 0.56199 0.81068 0.19604 0.0
H644 H 0.58561 0.83609 0.14363 0.0
H645 H 0.52043 0.72152 0.04148 0.0
H646 H 0.49753 0.72411 0.98786 0.0
H647 H 0.49433 0.72448 0.07622 0.0
C648 C 0.77761 0.5259 0.42812 0.0
C649 C 0.80465 0.54305 0.42972 0.0
C650 C 0.76261 0.52504 0.37366 0.0
C651 C 0.77489 0.54173 0.31938 0.0
C652 C 0.80218 0.55896 0.32034 0.0
C653 C 0.81675 0.5594 0.3755 0.0
C654 C 0.73356 0.50634 0.37435 0.0
C655 C 0.81595 0.57702 0.26325 0.0
C656 C 0.74039 0.52332 0.15383 0.0
C657 C 0.72948 0.53958 0.15075 0.0
C658 C 0.75516 0.5238 0.20845 0.0
C659 C 0.75916 0.54097 0.26136 0.0
C660 C 0.74801 0.55725 0.259 0.0
C661 C 0.73327 0.55634 0.20374 0.0
C662 C 0.76664 0.50607 0.20931 0.0
C663 C 0.75185 0.57578 0.31461 0.0
H664 H 0.76805 0.51318 0.46972 0.0
H665 H 0.8376 0.57275 0.37635 0.0
H666 H 0.72295 0.51727 0.36939 0.0
H667 H 0.72796 0.49288 0.33168 0.0
H668 H 0.72702 0.49461 0.42032 0.0
H669 H 0.83728 0.58923 0.27164 0.0
H670 H 0.8127 0.56556 0.21744 0.0
H671 H 0.80778 0.59004 0.25495 0.0
H672 H 0.73759 0.51029 0.11318 0.0
H673 H 0.725 0.56903 0.20175 0.0
H674 H 0.75956 0.49317 0.25317 0.0
H675 H 0.78818 0.51782 0.21316 0.0
H676 H 0.76155 0.49372 0.16441 0.0
H677 H 0.74437 0.56482 0.36138 0.0
H678 H 0.74179 0.58706 0.30533 0.0
H679 H 0.77294 0.58967 0.3217 0.0
C680 C 0.21457 0.74712 0.30708 0.0
C681 C 0.1875 0.73707 0.30632 0.0
C682 C 0.22973 0.76109 0.36152 0.0
C683 C 0.21755 0.76517 0.41658 0.0
C684 C 0.19024 0.75503 0.41636 0.0
C685 C 0.17553 0.74106 0.36125 0.0
C686 C 0.25878 0.77153 0.36007 0.0
C687 C 0.17659 0.75899 0.47428 0.0
C688 C 0.25193 0.78022 0.58214 0.0
C689 C 0.26259 0.80731 0.58662 0.0
C690 C 0.23739 0.76631 0.52688 0.0
C691 C 0.23337 0.77979 0.47479 0.0
C692 C 0.24435 0.80717 0.47845 0.0
C693 C 0.25888 0.82062 0.53431 0.0
C694 C 0.2261 0.73714 0.52457 0.0
C695 C 0.24048 0.8222 0.42375 0.0
H696 H 0.22403 0.74416 0.2649 0.0
H697 H 0.15466 0.73345 0.36106 0.0
H698 H 0.26934 0.79302 0.36599 0.0
H699 H 0.26454 0.76341 0.4019 0.0
H700 H 0.26525 0.76669 0.31342 0.0
H701 H 0.15525 0.74998 0.46622 0.0
H702 H 0.1799 0.75046 0.51943 0.0
H703 H 0.18481 0.78013 0.48357 0.0
H704 H 0.25471 0.76974 0.62222 0.0
H705 H 0.26699 0.84153 0.53737 0.0
H706 H 0.2331 0.73168 0.47991 0.0
H707 H 0.20454 0.72727 0.52124 0.0
H708 H 0.23141 0.72965 0.56866 0.0
H709 H 0.24783 0.81892 0.37651 0.0
H710 H 0.25061 0.84347 0.43376 0.0
H711 H 0.21938 0.8151 0.41713 0.0
C712 C 0.47405 0.24629 0.77263 0.0
C713 C 0.45746 0.25682 0.76978 0.0
C714 C 0.47614 0.23238 0.71925 0.0
C715 C 0.46128 0.2289 0.66161 0.0
C716 C 0.44459 0.23956 0.65821 0.0
C717 C 0.44289 0.2534 0.71232 0.0
C718 C 0.49419 0.22136 0.72459 0.0
C719 C 0.42846 0.23627 0.59745 0.0
C720 C 0.48291 0.2143 0.49893 0.0
C721 C 0.46572 0.18742 0.49215 0.0
C722 C 0.48198 0.22793 0.55442 0.0
C723 C 0.4634 0.21439 0.60439 0.0
C724 C 0.44641 0.18717 0.59876 0.0
C725 C 0.44779 0.17399 0.54272 0.0
C726 C 0.50051 0.25694 0.55883 0.0
C727 C 0.42637 0.17207 0.6512 0.0
H728 H 0.48537 0.24878 0.81682 0.0
H729 H 0.42998 0.26141 0.70966 0.0
H730 H 0.48302 0.19991 0.71787 0.0
H731 H 0.50903 0.22944 0.68486 0.0
H732 H 0.50438 0.22575 0.77291 0.0
H733 H 0.41635 0.24565 0.60279 0.0
H734 H 0.44139 0.24485 0.55406 0.0
H735 H 0.41543 0.21525 0.587 0.0
H736 H 0.49688 0.22486 0.46026 0.0
H737 H 0.43442 0.15324 0.53791 0.0
H738 H 0.5117 0.26177 0.60561 0.0
H739 H 0.48932 0.26738 0.55917 0.0
H740 H 0.51449 0.26439 0.51703 0.0
H741 H 0.43597 0.17514 0.69997 0.0
H742 H 0.41531 0.15084 0.64067 0.0
H743 H 0.41238 0.1793 0.65492 0.0
C744 C 0.05923 0.35887 0.92047 0.0
C745 C 0.06162 0.37553 0.97251 0.0
C746 C 0.0358 0.34518 0.88506 0.0
C747 C 0.01431 0.34821 0.90229 0.0
C748 C 0.01631 0.36421 0.95635 0.0
C749 C 0.03993 0.37768 0.99074 0.0
C750 C 0.03435 0.32825 0.82773 0.0
C751 C 0.99379 0.36786 0.97644 0.0
C752 C 0.96458 0.34037 0.77341 0.0
C753 C 0.94319 0.31609 0.79005 0.0
C754 C 0.98811 0.35062 0.80823 0.0
C755 C 0.99033 0.33628 0.86116 0.0
C756 C 0.96911 0.3114 0.87701 0.0
C757 C 0.94577 0.30157 0.84115 0.0
C758 C 0.01034 0.37718 0.78964 0.0
C759 C 0.97079 0.29558 0.93316 0.0
H760 H 0.07587 0.35704 0.90617 0.0
H761 H 0.04152 0.39035 0.03119 0.0
H762 H 0.01694 0.30856 0.83235 0.0
H763 H 0.03228 0.33683 0.78106 0.0
H764 H 0.05196 0.32622 0.82414 0.0
H765 H 0.99794 0.37958 0.02224 0.0
H766 H 0.98943 0.37786 0.93633 0.0
H767 H 0.97601 0.34868 0.98433 0.0
H768 H 0.96283 0.35166 0.73371 0.0
H769 H 0.92936 0.28277 0.85425 0.0
H770 H 0.0283 0.37619 0.78068 0.0
H771 H 0.01451 0.39101 0.83094 0.0
H772 H 0.006 0.38513 0.74484 0.0
H773 H 0.98834 0.29356 0.92767 0.0
H774 H 0.95332 0.27582 0.93603 0.0
H775 H 0.97278 0.30579 0.98051 0.0
C776 C 0.61133 0.94865 0.98221 0.0
C777 C 0.62293 0.9333 0.97196 0.0
C778 C 0.62354 0.97124 0.02084 0.0
C779 C 0.64808 0.97883 0.04967 0.0
C780 C 0.66004 0.96358 0.03922 0.0
C781 C 0.64727 0.9409 0.00059 0.0
C782 C 0.61008 0.98693 0.03106 0.0
C783 C 0.68629 0.97122 0.06889 0.0
C784 C 0.68606 0.05008 0.09797 0.0
C785 C 0.67976 0.04897 0.16503 0.0
C786 C 0.6769 0.02727 0.06045 0.0
C787 C 0.66099 0.00279 0.09067 0.0
C788 C 0.6555 0.00148 0.15895 0.0
C789 C 0.66501 0.0246 0.19538 0.0
C790 C 0.68331 0.02945 0.98784 0.0
C791 C 0.63858 0.97571 0.19288 0.0
H792 H 0.59249 0.94291 0.96048 0.0
H793 H 0.65637 0.92916 0.99282 0.0
H794 H 0.60688 0.98829 0.08447 0.0
H795 H 0.62261 0.00709 0.01263 0.0
H796 H 0.59097 0.97829 0.00542 0.0
H797 H 0.69307 0.9574 0.05553 0.0
H798 H 0.701 0.991 0.05196 0.0
H799 H 0.68528 0.97198 0.1234 0.0
H800 H 0.69763 0.06882 0.07423 0.0
H801 H 0.66015 0.02357 0.24723 0.0
H802 H 0.66534 0.02329 0.95853 0.0
H803 H 0.69088 0.01628 0.97463 0.0
H804 H 0.69796 0.04964 0.97333 0.0
H805 H 0.61837 0.96681 0.17367 0.0
H806 H 0.63807 0.97786 0.24719 0.0
H807 H 0.64569 0.96198 0.18214 0.0
C808 C 0.69782 0.64106 0.17006 0.0
C809 C 0.68246 0.62206 0.12333 0.0
C810 C 0.6883 0.6554 0.20326 0.0
C811 C 0.66288 0.65064 0.18919 0.0
C812 C 0.6476 0.63204 0.14071 0.0
C813 C 0.65755 0.61796 0.10847 0.0
C814 C 0.70513 0.67509 0.2547 0.0
C815 C 0.62042 0.62648 0.1241 0.0
C816 C 0.62373 0.663 0.31709 0.0
C817 C 0.62505 0.68585 0.29328 0.0
C818 C 0.63681 0.65191 0.28502 0.0
C819 C 0.65148 0.6639 0.22755 0.0
C820 C 0.65365 0.68745 0.2045 0.0
C821 C 0.64044 0.6982 0.23777 0.0
C822 C 0.63414 0.62684 0.31137 0.0
C823 C 0.66912 0.70076 0.14333 0.0
H824 H 0.71711 0.64438 0.18174 0.0
H825 H 0.64559 0.60345 0.07214 0.0
H826 H 0.70671 0.69422 0.24445 0.0
H827 H 0.69597 0.66867 0.30396 0.0
H828 H 0.72505 0.67774 0.25674 0.0
H829 H 0.61162 0.61242 0.08275 0.0
H830 H 0.60765 0.61836 0.16795 0.0
H831 H 0.62076 0.64479 0.11057 0.0
H832 H 0.61206 0.65343 0.36026 0.0
H833 H 0.64159 0.71589 0.21912 0.0
H834 H 0.65365 0.62889 0.31834 0.0
H835 H 0.62344 0.61093 0.27517 0.0
H836 H 0.62353 0.62099 0.35907 0.0
H837 H 0.68906 0.70358 0.14693 0.0
H838 H 0.67064 0.72 0.13496 0.0
H839 H 0.65966 0.68827 0.09966 0.0
C840 C 0.03549 0.66869 0.26628 0.0
C841 C 0.05735 0.69121 0.29037 0.0
C842 C 0.01129 0.6582 0.29788 0.0
C843 C 0.00888 0.67045 0.35518 0.0
C844 C 0.0306 0.6937 0.3785 0.0
C845 C 0.05461 0.70386 0.34568 0.0
C846 C 0.98855 0.63344 0.27127 0.0
C847 C 0.02874 0.70727 0.43951 0.0
C848 C 0.93971 0.64862 0.41088 0.0
C849 C 0.93554 0.62932 0.45718 0.0
C850 C 0.96382 0.66286 0.37866 0.0
C851 C 0.98415 0.65765 0.39326 0.0
C852 C 0.98032 0.63882 0.44151 0.0
C853 C 0.95608 0.62488 0.4728 0.0
C854 C 0.96725 0.68284 0.32751 0.0
C855 C 0.00155 0.63275 0.45863 0.0
H856 H 0.03737 0.65891 0.22322 0.0
H857 H 0.0714 0.7213 0.36451 0.0
H858 H 0.98288 0.61744 0.30742 0.0
H859 H 0.97141 0.63602 0.26403 0.0
H860 H 0.99316 0.62739 0.22365 0.0
H861 H 0.04669 0.72633 0.44785 0.0
H862 H 0.01187 0.7105 0.43576 0.0
H863 H 0.02544 0.69475 0.48327 0.0
H864 H 0.92397 0.65222 0.39867 0.0
H865 H 0.95313 0.61015 0.50885 0.0
H866 H 0.96974 0.6763 0.27815 0.0
H867 H 0.98511 0.7017 0.3379 0.0
H868 H 0.95032 0.68605 0.32561 0.0
H869 H 0.00604 0.62439 0.41498 0.0
H870 H 0.99597 0.61869 0.50006 0.0
H871 H 0.0197 0.65087 0.47226 0.0
C872 C 0.38346 0.03856 0.43368 0.0
C873 C 0.38053 0.05983 0.45153 0.0
C874 C 0.36871 0.01425 0.46415 0.0
C875 C 0.35062 0.01112 0.5139 0.0
C876 C 0.34699 0.03226 0.5309 0.0
C877 C 0.36197 0.05639 0.49938 0.0
C878 C 0.37306 0.99213 0.44444 0.0
C879 C 0.32789 0.02961 0.58379 0.0
C880 C 0.30132 0.94133 0.55991 0.0
C881 C 0.31358 0.93722 0.61405 0.0
C882 C 0.31272 0.96558 0.5279 0.0
C883 C 0.33686 0.98616 0.55082 0.0
C884 C 0.34884 0.98239 0.60686 0.0
C885 C 0.33709 0.95797 0.63769 0.0
C886 C 0.2994 0.96892 0.46825 0.0
C887 C 0.37454 0.00391 0.63301 0.0
H888 H 0.39762 0.04098 0.39643 0.0
H889 H 0.35956 0.07271 0.51337 0.0
H890 H 0.38115 0.98661 0.48682 0.0
H891 H 0.35427 0.97472 0.43088 0.0
H892 H 0.38671 0.99732 0.4022 0.0
H893 H 0.326 0.04729 0.58788 0.0
H894 H 0.30839 0.01259 0.5735 0.0
H895 H 0.33438 0.02611 0.63213 0.0
H896 H 0.28313 0.92541 0.54141 0.0
H897 H 0.34661 0.95505 0.67981 0.0
H898 H 0.31151 0.97199 0.42378 0.0
H899 H 0.29734 0.98642 0.47399 0.0
H900 H 0.2798 0.95171 0.45973 0.0
H901 H 0.39003 0.00892 0.5957 0.0
H902 H 0.38044 0.99832 0.67947 0.0
H903 H 0.37334 0.02173 0.64224 0.0
C904 C 0.29552 0.34911 0.66648 0.0
C905 C 0.3111 0.37519 0.6472 0.0
C906 C 0.30601 0.33648 0.70355 0.0
C907 C 0.33263 0.35035 0.72197 0.0
C908 C 0.34841 0.37667 0.70271 0.0
C909 C 0.33749 0.38872 0.66546 0.0
C910 C 0.28868 0.30834 0.72297 0.0
C911 C 0.37687 0.39217 0.7216 0.0
C912 C 0.35902 0.33026 0.86712 0.0
C913 C 0.37241 0.31945 0.83522 0.0
C914 C 0.34498 0.33938 0.83097 0.0
C915 C 0.34429 0.33758 0.76131 0.0
C916 C 0.35681 0.32565 0.72903 0.0
C917 C 0.37075 0.31675 0.76636 0.0
C918 C 0.33188 0.352 0.86714 0.0
C919 C 0.35641 0.32328 0.65483 0.0
H920 H 0.27513 0.33852 0.65248 0.0
H921 H 0.34969 0.4089 0.651 0.0
H922 H 0.29673 0.29635 0.70329 0.0
H923 H 0.28812 0.30646 0.77746 0.0
H924 H 0.26843 0.30027 0.70449 0.0
H925 H 0.38641 0.41251 0.70297 0.0
H926 H 0.3789 0.39272 0.77606 0.0
H927 H 0.38746 0.38264 0.70166 0.0
H928 H 0.36008 0.33229 0.92032 0.0
H929 H 0.38087 0.30824 0.74131 0.0
H930 H 0.3113 0.3434 0.85102 0.0
H931 H 0.34186 0.37308 0.85516 0.0
H932 H 0.33229 0.34983 0.92147 0.0
H933 H 0.33614 0.31438 0.63607 0.0
H934 H 0.36498 0.31136 0.6378 0.0
H935 H 0.36763 0.34295 0.63254 0.0
loop_
_geom_bond_atom_site_label_1
_geom_bond_atom_site_label_2
_geom_bond_distance
_geom_bond_site_symmetry_2
_ccdc_geom_bond_type
Zn0 O3 2.031 . S
Zn0 O5 2.049 . S
Zn0 O10 2.067 . S
Zn1 O2 1.962 1_554 S
Zn1 O4 1.986 . S
Zn1 O6 1.996 . S
Zn1 O9 1.943 . S
O2 Zn1 1.962 1_556 S
O2 C7 1.254 . S
O3 Zn0 2.031 . S
O3 C7 1.269 1_554 S
O4 Zn1 1.986 . S
O4 C11 1.262 . S
O5 Zn0 2.049 . S
O5 C13 1.260 . S
O6 Zn1 1.996 . S
O6 C13 1.257 . S
C7 O2 1.254 . S
C7 O3 1.269 1_556 S
C8 O9 1.249 . S
C8 O10 1.270 . S
O9 Zn1 1.943 . S
O9 C8 1.249 . S
O10 Zn0 2.067 . S
O10 C8 1.270 . S
C11 O4 1.262 . S
C11 O12 1.232 1_554 S
O12 C11 1.232 1_556 S
C13 O5 1.260 . S
C13 O6 1.257 . S
Zn14 O17 2.031 . S
Zn14 O19 2.049 . S
Zn14 O24 2.067 . S
Zn15 O16 1.962 . S
Zn15 O18 1.986 . S
Zn15 O20 1.996 . S
Zn15 O23 1.943 . S
O16 Zn15 1.962 . S
O16 C21 1.254 . S
O17 Zn14 2.031 . S
O17 C21 1.269 . S
O18 Zn15 1.986 . S
O18 C25 1.262 . S
O19 Zn14 2.049 . S
O19 C27 1.260 . S
O20 Zn15 1.996 . S
O20 C27 1.257 . S
C21 O16 1.254 . S
C21 O17 1.269 . S
C22 O23 1.249 . S
C22 O24 1.270 . S
O23 Zn15 1.943 . S
O23 C22 1.249 . S
O24 Zn14 2.067 . S
O24 C22 1.270 . S
C25 O18 1.262 . S
C25 O26 1.232 . S
O26 C25 1.232 . S
C27 O19 1.260 . S
C27 O20 1.257 . S
Zn28 O31 2.031 . S
Zn28 O33 2.049 . S
Zn28 O38 2.067 . S
Zn29 O30 1.962 . S
Zn29 O32 1.986 . S
Zn29 O34 1.996 . S
Zn29 O37 1.943 . S
O30 Zn29 1.962 . S
O30 C35 1.254 . S
O31 Zn28 2.031 . S
O31 C35 1.269 . S
O32 Zn29 1.986 . S
O32 C39 1.262 . S
O33 Zn28 2.049 . S
O33 C41 1.260 . S
O34 Zn29 1.996 . S
O34 C41 1.257 . S
C35 O30 1.254 . S
C35 O31 1.269 . S
C36 O37 1.249 . S
C36 O38 1.270 . S
O37 Zn29 1.943 . S
O37 C36 1.249 . S
O38 Zn28 2.067 . S
O38 C36 1.270 . S
C39 O32 1.262 . S
C39 O40 1.232 . S
O40 C39 1.232 . S
C41 O33 1.260 . S
C41 O34 1.257 . S
Zn42 O45 2.031 . S
Zn42 O47 2.049 . S
Zn42 O52 2.067 . S
Zn43 O44 1.962 . S
Zn43 O46 1.986 . S
Zn43 O48 1.996 . S
Zn43 O51 1.943 . S
O44 Zn43 1.962 . S
O44 C49 1.254 . S
O45 Zn42 2.031 . S
O45 C49 1.269 . S
O46 Zn43 1.986 . S
O46 C53 1.262 . S
O47 Zn42 2.049 . S
O47 C55 1.260 . S
O48 Zn43 1.996 . S
O48 C55 1.257 . S
C49 O44 1.254 . S
C49 O45 1.269 . S
C50 O51 1.249 . S
C50 O52 1.270 . S
O51 Zn43 1.943 . S
O51 C50 1.249 . S
O52 Zn42 2.067 . S
O52 C50 1.270 . S
C53 O46 1.262 . S
C53 O54 1.232 . S
O54 C53 1.232 . S
C55 O47 1.260 . S
C55 O48 1.257 . S
Zn56 O59 2.031 . S
Zn56 O61 2.049 . S
Zn56 O66 2.067 . S
Zn57 O58 1.962 . S
Zn57 O60 1.986 . S
Zn57 O62 1.996 . S
Zn57 O65 1.943 . S
O58 Zn57 1.962 . S
O58 C63 1.254 . S
O59 Zn56 2.031 . S
O59 C63 1.269 . S
O60 Zn57 1.986 . S
O60 C67 1.262 . S
O61 Zn56 2.049 . S
O61 C69 1.260 . S
O62 Zn57 1.996 . S
O62 C69 1.257 . S
C63 O58 1.254 . S
C63 O59 1.269 . S
C64 O65 1.249 . S
C64 O66 1.270 . S
O65 Zn57 1.943 . S
O65 C64 1.249 . S
O66 Zn56 2.067 . S
O66 C64 1.270 . S
C67 O60 1.262 . S
C67 O68 1.232 . S
O68 C67 1.232 . S
C69 O61 1.260 . S
C69 O62 1.257 . S
Zn70 O73 2.031 . S
Zn70 O75 2.049 . S
Zn70 O80 2.067 . S
Zn71 O72 1.962 . S
Zn71 O74 1.986 . S
Zn71 O76 1.996 . S
Zn71 O79 1.943 . S
O72 Zn71 1.962 . S
O72 C77 1.254 . S
O73 Zn70 2.031 . S
O73 C77 1.269 . S
O74 Zn71 1.986 . S
O74 C81 1.262 . S
O75 Zn70 2.049 . S
O75 C83 1.260 . S
O76 Zn71 1.996 . S
O76 C83 1.257 . S
C77 O72 1.254 . S
C77 O73 1.269 . S
C78 O79 1.249 . S
C78 O80 1.270 . S
O79 Zn71 1.943 . S
O79 C78 1.249 . S
O80 Zn70 2.067 . S
O80 C78 1.270 . S
C81 O74 1.262 . S
C81 O82 1.232 . S
O82 C81 1.232 . S
C83 O75 1.260 . S
C83 O76 1.257 . S
Zn84 O87 2.031 . S
Zn84 O89 2.049 . S
Zn84 O94 2.067 . S
Zn85 O86 1.962 . S
Zn85 O88 1.986 . S
Zn85 O90 1.996 . S
Zn85 O93 1.943 . S
O86 Zn85 1.962 . S
O86 C91 1.254 . S
O87 Zn84 2.031 . S
O87 C91 1.269 . S
O88 Zn85 1.986 . S
O88 C95 1.262 . S
O89 Zn84 2.049 . S
O89 C97 1.260 . S
O90 Zn85 1.996 . S
O90 C97 1.257 . S
C91 O86 1.254 . S
C91 O87 1.269 . S
C92 O93 1.249 . S
C92 O94 1.270 . S
O93 Zn85 1.943 . S
O93 C92 1.249 . S
O94 Zn84 2.067 . S
O94 C92 1.270 . S
C95 O88 1.262 . S
C95 O96 1.232 . S
O96 C95 1.232 . S
C97 O89 1.260 . S
C97 O90 1.257 . S
Zn98 O101 2.031 . S
Zn98 O103 2.049 1_554 S
Zn98 O108 2.067 1_554 S
Zn99 O100 1.962 . S
Zn99 O102 1.986 . S
Zn99 O104 1.996 . S
Zn99 O107 1.943 1_554 S
O100 Zn99 1.962 . S
O100 C105 1.254 . S
O101 Zn98 2.031 . S
O101 C105 1.269 . S
O102 Zn99 1.986 . S
O102 C109 1.262 . S
O103 Zn98 2.049 1_556 S
O103 C111 1.260 1_556 S
O104 Zn99 1.996 . S
O104 C111 1.257 . S
C105 O100 1.254 . S
C105 O101 1.269 . S
C106 O107 1.249 . S
C106 O108 1.270 . S
O107 Zn99 1.943 1_556 S
O107 C106 1.249 . S
O108 Zn98 2.067 1_556 S
O108 C106 1.270 . S
C109 O102 1.262 . S
C109 O110 1.232 . S
O110 C109 1.232 . S
C111 O103 1.260 1_554 S
C111 O104 1.257 . S
Zn112 O115 2.031 . S
Zn112 O117 2.049 . S
Zn112 O122 2.067 . S
Zn113 O114 1.962 . S
Zn113 O116 1.986 . S
Zn113 O118 1.996 . S
Zn113 O121 1.943 . S
O114 Zn113 1.962 . S
O114 C119 1.254 . S
O115 Zn112 2.031 . S
O115 C119 1.269 . S
O116 Zn113 1.986 . S
O116 C123 1.262 . S
O117 Zn112 2.049 . S
O117 C125 1.260 . S
O118 Zn113 1.996 . S
O118 C125 1.257 . S
C119 O114 1.254 . S
C119 O115 1.269 . S
C120 O121 1.249 . S
C120 O122 1.270 . S
O121 Zn113 1.943 . S
O121 C120 1.249 . S
O122 Zn112 2.067 . S
O122 C120 1.270 . S
C123 O116 1.262 . S
C123 O124 1.232 . S
O124 C123 1.232 . S
C125 O117 1.260 . S
C125 O118 1.257 . S
Zn126 O129 2.031 . S
Zn126 O131 2.049 . S
Zn126 O136 2.067 . S
Zn127 O128 1.962 . S
Zn127 O130 1.986 . S
Zn127 O132 1.996 . S
Zn127 O135 1.943 . S
O128 Zn127 1.962 . S
O128 C133 1.254 . S
O129 Zn126 2.031 . S
O129 C133 1.269 . S
O130 Zn127 1.986 . S
O130 C137 1.262 . S
O131 Zn126 2.049 . S
O131 C139 1.260 . S
O132 Zn127 1.996 . S
O132 C139 1.257 . S
C133 O128 1.254 . S
C133 O129 1.269 . S
C134 O135 1.249 . S
C134 O136 1.270 . S
O135 Zn127 1.943 . S
O135 C134 1.249 . S
O136 Zn126 2.067 . S
O136 C134 1.270 . S
C137 O130 1.262 . S
C137 O138 1.232 . S
O138 C137 1.232 . S
C139 O131 1.260 . S
C139 O132 1.257 . S
Zn140 O143 2.031 . S
Zn140 O145 2.049 . S
Zn140 O150 2.067 . S
Zn141 O142 1.962 . S
Zn141 O144 1.986 . S
Zn141 O146 1.996 . S
Zn141 O149 1.943 . S
O142 Zn141 1.962 . S
O142 C147 1.254 . S
O143 Zn140 2.031 . S
O143 C147 1.269 . S
O144 Zn141 1.986 . S
O144 C151 1.262 . S
O145 Zn140 2.049 . S
O145 C153 1.260 . S
O146 Zn141 1.996 . S
O146 C153 1.257 . S
C147 O142 1.254 . S
C147 O143 1.269 . S
C148 O149 1.249 . S
C148 O150 1.270 . S
O149 Zn141 1.943 . S
O149 C148 1.249 . S
O150 Zn140 2.067 . S
O150 C148 1.270 . S
C151 O144 1.262 . S
C151 O152 1.232 . S
O152 C151 1.232 . S
C153 O145 1.260 . S
C153 O146 1.257 . S
Zn154 O157 2.031 . S
Zn154 O159 2.049 . S
Zn154 O164 2.067 . S
Zn155 O156 1.962 . S
Zn155 O158 1.986 . S
Zn155 O160 1.996 . S
Zn155 O163 1.943 . S
O156 Zn155 1.962 . S
O156 C161 1.254 . S
O157 Zn154 2.031 . S
O157 C161 1.269 . S
O158 Zn155 1.986 . S
O158 C165 1.262 . S
O159 Zn154 2.049 . S
O159 C167 1.260 . S
O160 Zn155 1.996 . S
O160 C167 1.257 . S
C161 O156 1.254 . S
C161 O157 1.269 . S
C162 O163 1.249 . S
C162 O164 1.270 . S
O163 Zn155 1.943 . S
O163 C162 1.249 . S
O164 Zn154 2.067 . S
O164 C162 1.270 . S
C165 O158 1.262 . S
C165 O166 1.232 . S
O166 C165 1.232 . S
C167 O159 1.260 . S
C167 O160 1.257 . S
C168 C169 1.391 . S
C168 C170 1.394 . S
C168 H184 0.931 . S
C169 C168 1.391 . S
C169 C173 1.376 . S
C170 C168 1.394 . S
C170 C171 1.369 . S
C170 C174 1.531 . S
C171 C170 1.369 . S
C171 C172 1.410 . S
C171 C179 1.503 . S
C172 C171 1.410 . S
C172 C173 1.392 . S
C172 C175 1.511 . S
C173 C169 1.376 . S
C173 C172 1.392 . S
C173 H185 0.929 . S
C174 C170 1.531 . S
C174 H186 0.960 . S
C174 H187 0.962 . S
C174 H188 0.960 . S
C175 C172 1.511 . S
C175 H189 0.961 . S
C175 H190 0.961 . S
C175 H191 0.961 . S
C176 C177 1.370 . S
C176 C178 1.363 . S
C176 H192 0.931 . S
C177 C176 1.370 . S
C177 C181 1.408 . S
C178 C176 1.363 . S
C178 C179 1.370 . S
C178 C182 1.524 . S
C179 C171 1.503 . S
C179 C178 1.370 . S
C179 C180 1.403 . S
C180 C179 1.403 . S
C180 C181 1.404 . S
C180 C183 1.539 . S
C181 C177 1.408 . S
C181 C180 1.404 . S
C181 H193 0.930 . S
C182 C178 1.524 . S
C182 H194 0.956 . S
C182 H195 0.961 . S
C182 H196 0.961 . S
C183 C180 1.539 . S
C183 H197 0.958 . S
C183 H198 0.961 . S
C183 H199 0.960 . S
H184 C168 0.931 . S
H185 C173 0.929 . S
H186 C174 0.960 . S
H187 C174 0.962 . S
H188 C174 0.960 . S
H189 C175 0.961 . S
H190 C175 0.961 . S
H191 C175 0.961 . S
H192 C176 0.931 . S
H193 C181 0.930 . S
H194 C182 0.956 . S
H195 C182 0.961 . S
H196 C182 0.961 . S
H197 C183 0.958 . S
H198 C183 0.961 . S
H199 C183 0.960 . S
C200 C201 1.391 . S
C200 C202 1.394 . S
C200 H216 0.931 . S
C201 C200 1.391 . S
C201 C205 1.376 . S
C202 C200 1.394 . S
C202 C203 1.369 . S
C202 C206 1.531 . S
C203 C202 1.369 . S
C203 C204 1.410 . S
C203 C211 1.503 . S
C204 C203 1.410 . S
C204 C205 1.392 . S
C204 C207 1.511 . S
C205 C201 1.376 . S
C205 C204 1.392 . S
C205 H217 0.929 . S
C206 C202 1.531 . S
C206 H218 0.960 . S
C206 H219 0.962 . S
C206 H220 0.960 . S
C207 C204 1.511 . S
C207 H221 0.961 . S
C207 H222 0.961 . S
C207 H223 0.961 . S
C208 C209 1.370 . S
C208 C210 1.363 . S
C208 H224 0.931 . S
C209 C208 1.370 . S
C209 C213 1.408 . S
C210 C208 1.363 . S
C210 C211 1.370 . S
C210 C214 1.524 . S
C211 C203 1.503 . S
C211 C210 1.370 . S
C211 C212 1.403 . S
C212 C211 1.403 . S
C212 C213 1.404 . S
C212 C215 1.539 . S
C213 C209 1.408 . S
C213 C212 1.404 . S
C213 H225 0.930 . S
C214 C210 1.524 . S
C214 H226 0.956 . S
C214 H227 0.961 . S
C214 H228 0.961 . S
C215 C212 1.539 . S
C215 H229 0.958 . S
C215 H230 0.961 . S
C215 H231 0.960 . S
H216 C200 0.931 . S
H217 C205 0.929 . S
H218 C206 0.960 . S
H219 C206 0.962 . S
H220 C206 0.960 . S
H221 C207 0.961 . S
H222 C207 0.961 . S
H223 C207 0.961 . S
H224 C208 0.931 . S
H225 C213 0.930 . S
H226 C214 0.956 . S
H227 C214 0.961 . S
H228 C214 0.961 . S
H229 C215 0.958 . S
H230 C215 0.961 . S
H231 C215 0.960 . S
C232 C233 1.391 . S
C232 C234 1.394 . S
C232 H248 0.931 . S
C233 C232 1.391 . S
C233 C237 1.376 . S
C234 C232 1.394 . S
C234 C235 1.369 . S
C234 C238 1.531 . S
C235 C234 1.369 . S
C235 C236 1.410 . S
C235 C243 1.503 . S
C236 C235 1.410 . S
C236 C237 1.392 . S
C236 C239 1.511 . S
C237 C233 1.376 . S
C237 C236 1.392 . S
C237 H249 0.929 . S
C238 C234 1.531 . S
C238 H250 0.960 . S
C238 H251 0.962 . S
C238 H252 0.960 . S
C239 C236 1.511 . S
C239 H253 0.961 . S
C239 H254 0.961 . S
C239 H255 0.961 . S
C240 C241 1.370 . S
C240 C242 1.363 . S
C240 H256 0.931 . S
C241 C240 1.370 . S
C241 C245 1.408 . S
C242 C240 1.363 . S
C242 C243 1.370 . S
C242 C246 1.524 . S
C243 C235 1.503 . S
C243 C242 1.370 . S
C243 C244 1.403 . S
C244 C243 1.403 . S
C244 C245 1.404 . S
C244 C247 1.539 . S
C245 C241 1.408 . S
C245 C244 1.404 . S
C245 H257 0.930 . S
C246 C242 1.524 . S
C246 H258 0.956 . S
C246 H259 0.961 . S
C246 H260 0.961 . S
C247 C244 1.539 . S
C247 H261 0.958 . S
C247 H262 0.961 . S
C247 H263 0.960 . S
H248 C232 0.931 . S
H249 C237 0.929 . S
H250 C238 0.960 . S
H251 C238 0.962 . S
H252 C238 0.960 . S
H253 C239 0.961 . S
H254 C239 0.961 . S
H255 C239 0.961 . S
H256 C240 0.931 . S
H257 C245 0.930 . S
H258 C246 0.956 . S
H259 C246 0.961 . S
H260 C246 0.961 . S
H261 C247 0.958 . S
H262 C247 0.961 . S
H263 C247 0.960 . S
C264 C265 1.391 . S
C264 C266 1.394 . S
C264 H280 0.931 . S
C265 C264 1.391 . S
C265 C269 1.376 . S
C266 C264 1.394 . S
C266 C267 1.369 . S
C266 C270 1.531 . S
C267 C266 1.369 . S
C267 C268 1.410 . S
C267 C275 1.503 . S
C268 C267 1.410 . S
C268 C269 1.392 . S
C268 C271 1.511 . S
C269 C265 1.376 . S
C269 C268 1.392 . S
C269 H281 0.929 . S
C270 C266 1.531 . S
C270 H282 0.960 . S
C270 H283 0.962 . S
C270 H284 0.960 . S
C271 C268 1.511 . S
C271 H285 0.961 . S
C271 H286 0.961 . S
C271 H287 0.961 . S
C272 C273 1.370 . S
C272 C274 1.363 . S
C272 H288 0.931 . S
C273 C272 1.370 . S
C273 C277 1.408 . S
C274 C272 1.363 . S
C274 C275 1.370 . S
C274 C278 1.524 . S
C275 C267 1.503 . S
C275 C274 1.370 . S
C275 C276 1.403 . S
C276 C275 1.403 . S
C276 C277 1.404 . S
C276 C279 1.539 . S
C277 C273 1.408 . S
C277 C276 1.404 . S
C277 H289 0.930 . S
C278 C274 1.524 . S
C278 H290 0.956 . S
C278 H291 0.961 . S
C278 H292 0.961 . S
C279 C276 1.539 . S
C279 H293 0.958 . S
C279 H294 0.961 . S
C279 H295 0.960 . S
H280 C264 0.931 . S
H281 C269 0.929 . S
H282 C270 0.960 . S
H283 C270 0.962 . S
H284 C270 0.960 . S
H285 C271 0.961 . S
H286 C271 0.961 . S
H287 C271 0.961 . S
H288 C272 0.931 . S
H289 C277 0.930 . S
H290 C278 0.956 . S
H291 C278 0.961 . S
H292 C278 0.961 . S
H293 C279 0.958 . S
H294 C279 0.961 . S
H295 C279 0.960 . S
C296 C297 1.391 . S
C296 C298 1.394 . S
C296 H312 0.931 . S
C297 C296 1.391 . S
C297 C301 1.376 . S
C298 C296 1.394 . S
C298 C299 1.369 . S
C298 C302 1.531 . S
C299 C298 1.369 . S
C299 C300 1.410 . S
C299 C307 1.503 . S
C300 C299 1.410 . S
C300 C301 1.392 . S
C300 C303 1.511 . S
C301 C297 1.376 . S
C301 C300 1.392 . S
C301 H313 0.929 . S
C302 C298 1.531 . S
C302 H314 0.960 . S
C302 H315 0.962 . S
C302 H316 0.960 . S
C303 C300 1.511 . S
C303 H317 0.961 . S
C303 H318 0.961 1_556 S
C303 H319 0.961 . S
C304 C305 1.370 . S
C304 C306 1.363 . S
C304 H320 0.931 . S
C305 C304 1.370 . S
C305 C309 1.408 . S
C306 C304 1.363 . S
C306 C307 1.370 1_554 S
C306 C310 1.524 . S
C307 C299 1.503 . S
C307 C306 1.370 1_556 S
C307 C308 1.403 . S
C308 C307 1.403 . S
C308 C309 1.404 1_556 S
C308 C311 1.539 . S
C309 C305 1.408 . S
C309 C308 1.404 1_554 S
C309 H321 0.930 . S
C310 C306 1.524 . S
C310 H322 0.956 . S
C310 H323 0.961 . S
C310 H324 0.961 . S
C311 C308 1.539 . S
C311 H325 0.958 . S
C311 H326 0.961 . S
C311 H327 0.960 . S
H312 C296 0.931 . S
H313 C301 0.929 . S
H314 C302 0.960 . S
H315 C302 0.962 . S
H316 C302 0.960 . S
H317 C303 0.961 . S
H318 C303 0.961 1_554 S
H319 C303 0.961 . S
H320 C304 0.931 . S
H321 C309 0.930 . S
H322 C310 0.956 . S
H323 C310 0.961 . S
H324 C310 0.961 . S
H325 C311 0.958 . S
H326 C311 0.961 . S
H327 C311 0.960 . S
C328 C329 1.391 . S
C328 C330 1.394 . S
C328 H344 0.931 . S
C329 C328 1.391 . S
C329 C333 1.376 . S
C330 C328 1.394 . S
C330 C331 1.369 . S
C330 C334 1.531 . S
C331 C330 1.369 . S
C331 C332 1.410 . S
C331 C339 1.503 . S
C332 C331 1.410 . S
C332 C333 1.392 . S
C332 C335 1.511 . S
C333 C329 1.376 . S
C333 C332 1.392 . S
C333 H345 0.929 . S
C334 C330 1.531 . S
C334 H346 0.960 . S
C334 H347 0.962 . S
C334 H348 0.960 . S
C335 C332 1.511 . S
C335 H349 0.961 . S
C335 H350 0.961 . S
C335 H351 0.961 . S
C336 C337 1.370 . S
C336 C338 1.363 . S
C336 H352 0.931 . S
C337 C336 1.370 . S
C337 C341 1.408 . S
C338 C336 1.363 . S
C338 C339 1.370 . S
C338 C342 1.524 . S
C339 C331 1.503 . S
C339 C338 1.370 . S
C339 C340 1.403 . S
C340 C339 1.403 . S
C340 C341 1.404 . S
C340 C343 1.539 . S
C341 C337 1.408 . S
C341 C340 1.404 . S
C341 H353 0.930 1_554 S
C342 C338 1.524 . S
C342 H354 0.956 . S
C342 H355 0.961 . S
C342 H356 0.961 . S
C343 C340 1.539 . S
C343 H357 0.958 . S
C343 H358 0.961 . S
C343 H359 0.960 . S
H344 C328 0.931 . S
H345 C333 0.929 . S
H346 C334 0.960 . S
H347 C334 0.962 . S
H348 C334 0.960 . S
H349 C335 0.961 . S
H350 C335 0.961 . S
H351 C335 0.961 . S
H352 C336 0.931 . S
H353 C341 0.930 1_556 S
H354 C342 0.956 . S
H355 C342 0.961 . S
H356 C342 0.961 . S
H357 C343 0.958 . S
H358 C343 0.961 . S
H359 C343 0.960 . S
C360 C361 1.391 . S
C360 C362 1.394 . S
C360 H376 0.931 . S
C361 C360 1.391 . S
C361 C365 1.376 . S
C362 C360 1.394 . S
C362 C363 1.369 . S
C362 C366 1.531 . S
C363 C362 1.369 . S
C363 C364 1.410 . S
C363 C371 1.503 . S
C364 C363 1.410 . S
C364 C365 1.392 . S
C364 C367 1.511 . S
C365 C361 1.376 . S
C365 C364 1.392 . S
C365 H377 0.929 . S
C366 C362 1.531 . S
C366 H378 0.960 . S
C366 H379 0.962 . S
C366 H380 0.960 . S
C367 C364 1.511 . S
C367 H381 0.961 . S
C367 H382 0.961 . S
C367 H383 0.961 . S
C368 C369 1.370 . S
C368 C370 1.363 . S
C368 H384 0.931 . S
C369 C368 1.370 . S
C369 C373 1.408 . S
C370 C368 1.363 . S
C370 C371 1.370 . S
C370 C374 1.524 . S
C371 C363 1.503 . S
C371 C370 1.370 . S
C371 C372 1.403 . S
C372 C371 1.403 . S
C372 C373 1.404 . S
C372 C375 1.539 . S
C373 C369 1.408 . S
C373 C372 1.404 . S
C373 H385 0.930 . S
C374 C370 1.524 . S
C374 H386 0.956 . S
C374 H387 0.961 . S
C374 H388 0.961 . S
C375 C372 1.539 . S
C375 H389 0.958 1_554 S
C375 H390 0.961 . S
C375 H391 0.960 . S
H376 C360 0.931 . S
H377 C365 0.929 . S
H378 C366 0.960 . S
H379 C366 0.962 . S
H380 C366 0.960 . S
H381 C367 0.961 . S
H382 C367 0.961 . S
H383 C367 0.961 . S
H384 C368 0.931 . S
H385 C373 0.930 . S
H386 C374 0.956 . S
H387 C374 0.961 . S
H388 C374 0.961 . S
H389 C375 0.958 1_556 S
H390 C375 0.961 . S
H391 C375 0.960 . S
C392 C393 1.391 . S
C392 C394 1.394 . S
C392 H408 0.931 . S
C393 C392 1.391 . S
C393 C397 1.376 . S
C394 C392 1.394 . S
C394 C395 1.369 . S
C394 C398 1.531 . S
C395 C394 1.369 . S
C395 C396 1.410 . S
C395 C403 1.503 . S
C396 C395 1.410 . S
C396 C397 1.392 . S
C396 C399 1.511 . S
C397 C393 1.376 . S
C397 C396 1.392 . S
C397 H409 0.929 . S
C398 C394 1.531 . S
C398 H410 0.960 . S
C398 H411 0.962 . S
C398 H412 0.960 . S
C399 C396 1.511 . S
C399 H413 0.961 . S
C399 H414 0.961 . S
C399 H415 0.961 . S
C400 C401 1.370 . S
C400 C402 1.363 . S
C400 H416 0.931 . S
C401 C400 1.370 . S
C401 C405 1.408 . S
C402 C400 1.363 . S
C402 C403 1.370 . S
C402 C406 1.524 . S
C403 C395 1.503 . S
C403 C402 1.370 . S
C403 C404 1.403 . S
C404 C403 1.403 . S
C404 C405 1.404 . S
C404 C407 1.539 . S
C405 C401 1.408 . S
C405 C404 1.404 . S
C405 H417 0.930 . S
C406 C402 1.524 . S
C406 H418 0.956 . S
C406 H419 0.961 . S
C406 H420 0.961 . S
C407 C404 1.539 . S
C407 H421 0.958 . S
C407 H422 0.961 . S
C407 H423 0.960 . S
H408 C392 0.931 . S
H409 C397 0.929 . S
H410 C398 0.960 . S
H411 C398 0.962 . S
H412 C398 0.960 . S
H413 C399 0.961 . S
H414 C399 0.961 . S
H415 C399 0.961 . S
H416 C400 0.931 . S
H417 C405 0.930 . S
H418 C406 0.956 . S
H419 C406 0.961 . S
H420 C406 0.961 . S
H421 C407 0.958 . S
H422 C407 0.961 . S
H423 C407 0.960 . S
C424 C425 1.391 . S
C424 C426 1.394 . S
C424 H440 0.931 . S
C425 C424 1.391 . S
C425 C429 1.376 . S
C426 C424 1.394 . S
C426 C427 1.369 . S
C426 C430 1.531 . S
C427 C426 1.369 . S
C427 C428 1.410 . S
C427 C435 1.503 . S
C428 C427 1.410 . S
C428 C429 1.392 . S
C428 C431 1.511 . S
C429 C425 1.376 . S
C429 C428 1.392 . S
C429 H441 0.929 . S
C430 C426 1.531 . S
C430 H442 0.960 . S
C430 H443 0.962 . S
C430 H444 0.960 . S
C431 C428 1.511 . S
C431 H445 0.961 . S
C431 H446 0.961 . S
C431 H447 0.961 . S
C432 C433 1.370 . S
C432 C434 1.363 . S
C432 H448 0.931 . S
C433 C432 1.370 . S
C433 C437 1.408 . S
C434 C432 1.363 . S
C434 C435 1.370 . S
C434 C438 1.524 . S
C435 C427 1.503 . S
C435 C434 1.370 . S
C435 C436 1.403 . S
C436 C435 1.403 . S
C436 C437 1.404 . S
C436 C439 1.539 . S
C437 C433 1.408 . S
C437 C436 1.404 . S
C437 H449 0.930 . S
C438 C434 1.524 . S
C438 H450 0.956 . S
C438 H451 0.961 . S
C438 H452 0.961 . S
C439 C436 1.539 . S
C439 H453 0.958 . S
C439 H454 0.961 . S
C439 H455 0.960 . S
H440 C424 0.931 . S
H441 C429 0.929 . S
H442 C430 0.960 . S
H443 C430 0.962 . S
H444 C430 0.960 . S
H445 C431 0.961 . S
H446 C431 0.961 . S
H447 C431 0.961 . S
H448 C432 0.931 . S
H449 C437 0.930 . S
H450 C438 0.956 . S
H451 C438 0.961 . S
H452 C438 0.961 . S
H453 C439 0.958 . S
H454 C439 0.961 . S
H455 C439 0.960 . S
C456 C457 1.391 . S
C456 C458 1.394 . S
C456 H472 0.931 . S
C457 C456 1.391 . S
C457 C461 1.376 . S
C458 C456 1.394 . S
C458 C459 1.369 . S
C458 C462 1.531 . S
C459 C458 1.369 . S
C459 C460 1.410 . S
C459 C467 1.503 . S
C460 C459 1.410 . S
C460 C461 1.392 . S
C460 C463 1.511 . S
C461 C457 1.376 . S
C461 C460 1.392 . S
C461 H473 0.929 . S
C462 C458 1.531 . S
C462 H474 0.960 . S
C462 H475 0.962 . S
C462 H476 0.960 . S
C463 C460 1.511 . S
C463 H477 0.961 . S
C463 H478 0.961 . S
C463 H479 0.961 . S
C464 C465 1.370 . S
C464 C466 1.363 . S
C464 H480 0.931 . S
C465 C464 1.370 . S
C465 C469 1.408 . S
C466 C464 1.363 . S
C466 C467 1.370 . S
C466 C470 1.524 . S
C467 C459 1.503 . S
C467 C466 1.370 . S
C467 C468 1.403 . S
C468 C467 1.403 . S
C468 C469 1.404 . S
C468 C471 1.539 . S
C469 C465 1.408 . S
C469 C468 1.404 . S
C469 H481 0.930 . S
C470 C466 1.524 . S
C470 H482 0.956 . S
C470 H483 0.961 . S
C470 H484 0.961 . S
C471 C468 1.539 . S
C471 H485 0.958 . S
C471 H486 0.961 . S
C471 H487 0.960 . S
H472 C456 0.931 . S
H473 C461 0.929 . S
H474 C462 0.960 . S
H475 C462 0.962 . S
H476 C462 0.960 . S
H477 C463 0.961 . S
H478 C463 0.961 . S
H479 C463 0.961 . S
H480 C464 0.931 . S
H481 C469 0.930 . S
H482 C470 0.956 . S
H483 C470 0.961 . S
H484 C470 0.961 . S
H485 C471 0.958 . S
H486 C471 0.961 . S
H487 C471 0.960 . S
C488 C489 1.391 . S
C488 C490 1.394 . S
C488 H504 0.931 . S
C489 C488 1.391 . S
C489 C493 1.376 . S
C490 C488 1.394 . S
C490 C491 1.369 . S
C490 C494 1.531 . S
C491 C490 1.369 . S
C491 C492 1.410 . S
C491 C499 1.503 . S
C492 C491 1.410 . S
C492 C493 1.392 . S
C492 C495 1.511 . S
C493 C489 1.376 . S
C493 C492 1.392 . S
C493 H505 0.929 . S
C494 C490 1.531 . S
C494 H506 0.960 . S
C494 H507 0.962 . S
C494 H508 0.960 . S
C495 C492 1.511 . S
C495 H509 0.961 . S
C495 H510 0.961 . S
C495 H511 0.961 . S
C496 C497 1.370 . S
C496 C498 1.363 . S
C496 H512 0.931 . S
C497 C496 1.370 . S
C497 C501 1.408 . S
C498 C496 1.363 . S
C498 C499 1.370 . S
C498 C502 1.524 . S
C499 C491 1.503 . S
C499 C498 1.370 . S
C499 C500 1.403 . S
C500 C499 1.403 . S
C500 C501 1.404 . S
C500 C503 1.539 . S
C501 C497 1.408 . S
C501 C500 1.404 . S
C501 H513 0.930 . S
C502 C498 1.524 . S
C502 H514 0.956 . S
C502 H515 0.961 . S
C502 H516 0.961 . S
C503 C500 1.539 . S
C503 H517 0.958 . S
C503 H518 0.961 . S
C503 H519 0.960 . S
H504 C488 0.931 . S
H505 C493 0.929 . S
H506 C494 0.960 . S
H507 C494 0.962 . S
H508 C494 0.960 . S
H509 C495 0.961 . S
H510 C495 0.961 . S
H511 C495 0.961 . S
H512 C496 0.931 . S
H513 C501 0.930 . S
H514 C502 0.956 . S
H515 C502 0.961 . S
H516 C502 0.961 . S
H517 C503 0.958 . S
H518 C503 0.961 . S
H519 C503 0.960 . S
C520 C521 1.391 . S
C520 C522 1.394 . S
C520 H536 0.931 . S
C521 C520 1.391 . S
C521 C525 1.376 . S
C522 C520 1.394 . S
C522 C523 1.369 . S
C522 C526 1.531 . S
C523 C522 1.369 . S
C523 C524 1.410 . S
C523 C531 1.503 . S
C524 C523 1.410 . S
C524 C525 1.392 . S
C524 C527 1.511 1_556 S
C525 C521 1.376 . S
C525 C524 1.392 . S
C525 H537 0.929 . S
C526 C522 1.531 . S
C526 H538 0.960 . S
C526 H539 0.962 . S
C526 H540 0.960 . S
C527 C524 1.511 1_554 S
C527 H541 0.961 . S
C527 H542 0.961 . S
C527 H543 0.961 . S
C528 C529 1.370 1_556 S
C528 C530 1.363 . S
C528 H544 0.931 . S
C529 C528 1.370 1_554 S
C529 C533 1.408 . S
C530 C528 1.363 . S
C530 C531 1.370 . S
C530 C534 1.524 . S
C531 C523 1.503 . S
C531 C530 1.370 . S
C531 C532 1.403 1_556 S
C532 C531 1.403 1_554 S
C532 C533 1.404 . S
C532 C535 1.539 . S
C533 C529 1.408 . S
C533 C532 1.404 . S
C533 H545 0.930 . S
C534 C530 1.524 . S
C534 H546 0.956 . S
C534 H547 0.961 . S
C534 H548 0.961 . S
C535 C532 1.539 . S
C535 H549 0.958 . S
C535 H550 0.961 . S
C535 H551 0.960 . S
H536 C520 0.931 . S
H537 C525 0.929 . S
H538 C526 0.960 . S
H539 C526 0.962 . S
H540 C526 0.960 . S
H541 C527 0.961 . S
H542 C527 0.961 . S
H543 C527 0.961 . S
H544 C528 0.931 . S
H545 C533 0.930 . S
H546 C534 0.956 . S
H547 C534 0.961 . S
H548 C534 0.961 . S
H549 C535 0.958 . S
H550 C535 0.961 . S
H551 C535 0.960 . S
C552 C553 1.391 . S
C552 C554 1.394 . S
C552 H568 0.931 . S
C553 C552 1.391 . S
C553 C557 1.376 . S
C554 C552 1.394 . S
C554 C555 1.369 . S
C554 C558 1.531 . S
C555 C554 1.369 . S
C555 C556 1.410 . S
C555 C563 1.503 . S
C556 C555 1.410 . S
C556 C557 1.392 . S
C556 C559 1.511 . S
C557 C553 1.376 . S
C557 C556 1.392 . S
C557 H569 0.929 . S
C558 C554 1.531 . S
C558 H570 0.960 . S
C558 H571 0.962 . S
C558 H572 0.960 . S
C559 C556 1.511 . S
C559 H573 0.961 . S
C559 H574 0.961 . S
C559 H575 0.961 . S
C560 C561 1.370 . S
C560 C562 1.363 . S
C560 H576 0.931 . S
C561 C560 1.370 . S
C561 C565 1.408 . S
C562 C560 1.363 . S
C562 C563 1.370 . S
C562 C566 1.524 . S
C563 C555 1.503 . S
C563 C562 1.370 . S
C563 C564 1.403 . S
C564 C563 1.403 . S
C564 C565 1.404 . S
C564 C567 1.539 . S
C565 C561 1.408 . S
C565 C564 1.404 . S
C565 H577 0.930 . S
C566 C562 1.524 . S
C566 H578 0.956 . S
C566 H579 0.961 . S
C566 H580 0.961 . S
C567 C564 1.539 . S
C567 H581 0.958 . S
C567 H582 0.961 . S
C567 H583 0.960 . S
H568 C552 0.931 . S
H569 C557 0.929 . S
H570 C558 0.960 . S
H571 C558 0.962 . S
H572 C558 0.960 . S
H573 C559 0.961 . S
H574 C559 0.961 . S
H575 C559 0.961 . S
H576 C560 0.931 . S
H577 C565 0.930 . S
H578 C566 0.956 . S
H579 C566 0.961 . S
H580 C566 0.961 . S
H581 C567 0.958 . S
H582 C567 0.961 . S
H583 C567 0.960 . S
C584 C585 1.391 . S
C584 C586 1.394 . S
C584 H600 0.931 . S
C585 C584 1.391 . S
C585 C589 1.376 . S
C586 C584 1.394 . S
C586 C587 1.369 1_554 S
C586 C590 1.531 . S
C587 C586 1.369 1_556 S
C587 C588 1.410 1_556 S
C587 C595 1.503 . S
C588 C587 1.410 1_554 S
C588 C589 1.392 . S
C588 C591 1.511 1_554 S
C589 C585 1.376 . S
C589 C588 1.392 . S
C589 H601 0.929 . S
C590 C586 1.531 . S
C590 H602 0.960 . S
C590 H603 0.962 1_554 S
C590 H604 0.960 . S
C591 C588 1.511 1_556 S
C591 H605 0.961 . S
C591 H606 0.961 . S
C591 H607 0.952 1_556 S
C592 C593 1.370 . S
C592 C594 1.363 . S
C592 H608 0.931 . S
C593 C592 1.370 . S
C593 C597 1.408 . S
C594 C592 1.363 . S
C594 C595 1.370 . S
C594 C598 1.524 . S
C595 C587 1.503 . S
C595 C594 1.370 . S
C595 C596 1.403 . S
C596 C595 1.403 . S
C596 C597 1.404 . S
C596 C599 1.539 1_556 S
C597 C593 1.408 . S
C597 C596 1.404 . S
C597 H609 0.930 . S
C598 C594 1.524 . S
C598 H610 0.956 . S
C598 H611 0.961 . S
C598 H612 0.961 . S
C599 C596 1.539 1_554 S
C599 H613 0.958 . S
C599 H614 0.961 . S
C599 H615 0.960 . S
H600 C584 0.931 . S
H601 C589 0.929 . S
H602 C590 0.960 . S
H603 C590 0.962 1_556 S
H604 C590 0.960 . S
H605 C591 0.961 . S
H606 C591 0.961 . S
H607 C591 0.952 1_554 S
H608 C592 0.931 . S
H609 C597 0.930 . S
H610 C598 0.956 . S
H611 C598 0.961 . S
H612 C598 0.961 . S
H613 C599 0.958 . S
H614 C599 0.961 . S
H615 C599 0.960 . S
C616 C617 1.391 . S
C616 C618 1.394 . S
C616 H632 0.931 . S
C617 C616 1.391 . S
C617 C621 1.376 . S
C618 C616 1.394 . S
C618 C619 1.369 . S
C618 C622 1.531 . S
C619 C618 1.369 . S
C619 C620 1.410 . S
C619 C627 1.503 . S
C620 C619 1.410 . S
C620 C621 1.392 . S
C620 C623 1.511 . S
C621 C617 1.376 . S
C621 C620 1.392 . S
C621 H633 0.929 . S
C622 C618 1.531 . S
C622 H634 0.960 . S
C622 H635 0.962 . S
C622 H636 0.960 . S
C623 C620 1.511 . S
C623 H637 0.961 . S
C623 H638 0.961 . S
C623 H639 0.961 . S
C624 C625 1.370 . S
C624 C626 1.363 . S
C624 H640 0.931 . S
C625 C624 1.370 . S
C625 C629 1.408 . S
C626 C624 1.363 . S
C626 C627 1.370 . S
C626 C630 1.524 . S
C627 C619 1.503 . S
C627 C626 1.370 . S
C627 C628 1.403 . S
C628 C627 1.403 . S
C628 C629 1.404 . S
C628 C631 1.539 . S
C629 C625 1.408 . S
C629 C628 1.404 . S
C629 H641 0.930 1_554 S
C630 C626 1.524 . S
C630 H642 0.956 . S
C630 H643 0.961 . S
C630 H644 0.961 . S
C631 C628 1.539 . S
C631 H645 0.958 . S
C631 H646 0.961 . S
C631 H647 0.960 . S
H632 C616 0.931 . S
H633 C621 0.929 . S
H634 C622 0.960 . S
H635 C622 0.962 . S
H636 C622 0.960 . S
H637 C623 0.961 . S
H638 C623 0.961 . S
H639 C623 0.961 . S
H640 C624 0.931 . S
H641 C629 0.930 1_556 S
H642 C630 0.956 . S
H643 C630 0.961 . S
H644 C630 0.961 . S
H645 C631 0.958 . S
H646 C631 0.961 . S
H647 C631 0.960 . S
C648 C649 1.391 . S
C648 C650 1.394 . S
C648 H664 0.931 . S
C649 C648 1.391 . S
C649 C653 1.376 . S
C650 C648 1.394 . S
C650 C651 1.369 . S
C650 C654 1.531 . S
C651 C650 1.369 . S
C651 C652 1.410 . S
C651 C659 1.503 . S
C652 C651 1.410 . S
C652 C653 1.392 . S
C652 C655 1.511 . S
C653 C649 1.376 . S
C653 C652 1.392 . S
C653 H665 0.929 . S
C654 C650 1.531 . S
C654 H666 0.960 . S
C654 H667 0.962 . S
C654 H668 0.960 . S
C655 C652 1.511 . S
C655 H669 0.961 . S
C655 H670 0.961 . S
C655 H671 0.961 . S
C656 C657 1.370 . S
C656 C658 1.363 . S
C656 H672 0.931 . S
C657 C656 1.370 . S
C657 C661 1.408 . S
C658 C656 1.363 . S
C658 C659 1.370 . S
C658 C662 1.524 . S
C659 C651 1.503 . S
C659 C658 1.370 . S
C659 C660 1.403 . S
C660 C659 1.403 . S
C660 C661 1.404 . S
C660 C663 1.539 . S
C661 C657 1.408 . S
C661 C660 1.404 . S
C661 H673 0.930 . S
C662 C658 1.524 . S
C662 H674 0.956 . S
C662 H675 0.961 . S
C662 H676 0.961 . S
C663 C660 1.539 . S
C663 H677 0.958 . S
C663 H678 0.961 . S
C663 H679 0.960 . S
H664 C648 0.931 . S
H665 C653 0.929 . S
H666 C654 0.960 . S
H667 C654 0.962 . S
H668 C654 0.960 . S
H669 C655 0.961 . S
H670 C655 0.961 . S
H671 C655 0.961 . S
H672 C656 0.931 . S
H673 C661 0.930 . S
H674 C662 0.956 . S
H675 C662 0.961 . S
H676 C662 0.961 . S
H677 C663 0.958 . S
H678 C663 0.961 . S
H679 C663 0.960 . S
C680 C681 1.391 . S
C680 C682 1.394 . S
C680 H696 0.931 . S
C681 C680 1.391 . S
C681 C685 1.376 . S
C682 C680 1.394 . S
C682 C683 1.369 . S
C682 C686 1.531 . S
C683 C682 1.369 . S
C683 C684 1.410 . S
C683 C691 1.503 . S
C684 C683 1.410 . S
C684 C685 1.392 . S
C684 C687 1.511 . S
C685 C681 1.376 . S
C685 C684 1.392 . S
C685 H697 0.929 . S
C686 C682 1.531 . S
C686 H698 0.960 . S
C686 H699 0.962 . S
C686 H700 0.960 . S
C687 C684 1.511 . S
C687 H701 0.961 . S
C687 H702 0.961 . S
C687 H703 0.961 . S
C688 C689 1.370 . S
C688 C690 1.363 . S
C688 H704 0.931 . S
C689 C688 1.370 . S
C689 C693 1.408 . S
C690 C688 1.363 . S
C690 C691 1.370 . S
C690 C694 1.524 . S
C691 C683 1.503 . S
C691 C690 1.370 . S
C691 C692 1.403 . S
C692 C691 1.403 . S
C692 C693 1.404 . S
C692 C695 1.539 . S
C693 C689 1.408 . S
C693 C692 1.404 . S
C693 H705 0.930 . S
C694 C690 1.524 . S
C694 H706 0.956 . S
C694 H707 0.961 . S
C694 H708 0.961 . S
C695 C692 1.539 . S
C695 H709 0.958 . S
C695 H710 0.961 . S
C695 H711 0.960 . S
H696 C680 0.931 . S
H697 C685 0.929 . S
H698 C686 0.960 . S
H699 C686 0.962 . S
H700 C686 0.960 . S
H701 C687 0.961 . S
H702 C687 0.961 . S
H703 C687 0.961 . S
H704 C688 0.931 . S
H705 C693 0.930 . S
H706 C694 0.956 . S
H707 C694 0.961 . S
H708 C694 0.961 . S
H709 C695 0.958 . S
H710 C695 0.961 . S
H711 C695 0.960 . S
C712 C713 1.391 . S
C712 C714 1.394 . S
C712 H728 0.931 . S
C713 C712 1.391 . S
C713 C717 1.376 . S
C714 C712 1.394 . S
C714 C715 1.369 . S
C714 C718 1.531 . S
C715 C714 1.369 . S
C715 C716 1.410 . S
C715 C723 1.503 . S
C716 C715 1.410 . S
C716 C717 1.392 . S
C716 C719 1.511 . S
C717 C713 1.376 . S
C717 C716 1.392 . S
C717 H729 0.929 . S
C718 C714 1.531 . S
C718 H730 0.960 . S
C718 H731 0.962 . S
C718 H732 0.960 . S
C719 C716 1.511 . S
C719 H733 0.961 . S
C719 H734 0.961 . S
C719 H735 0.961 . S
C720 C721 1.370 . S
C720 C722 1.363 . S
C720 H736 0.931 . S
C721 C720 1.370 . S
C721 C725 1.408 . S
C722 C720 1.363 . S
C722 C723 1.370 . S
C722 C726 1.524 . S
C723 C715 1.503 . S
C723 C722 1.370 . S
C723 C724 1.403 . S
C724 C723 1.403 . S
C724 C725 1.404 . S
C724 C727 1.539 . S
C725 C721 1.408 . S
C725 C724 1.404 . S
C725 H737 0.930 . S
C726 C722 1.524 . S
C726 H738 0.956 . S
C726 H739 0.961 . S
C726 H740 0.961 . S
C727 C724 1.539 . S
C727 H741 0.958 . S
C727 H742 0.961 . S
C727 H743 0.960 . S
H728 C712 0.931 . S
H729 C717 0.929 . S
H730 C718 0.960 . S
H731 C718 0.962 . S
H732 C718 0.960 . S
H733 C719 0.961 . S
H734 C719 0.961 . S
H735 C719 0.961 . S
H736 C720 0.931 . S
H737 C725 0.930 . S
H738 C726 0.956 . S
H739 C726 0.961 . S
H740 C726 0.961 . S
H741 C727 0.958 . S
H742 C727 0.961 . S
H743 C727 0.960 . S
C744 C745 1.391 . S
C744 C746 1.394 . S
C744 H760 0.931 . S
C745 C744 1.391 . S
C745 C749 1.376 . S
C746 C744 1.394 . S
C746 C747 1.369 . S
C746 C750 1.531 . S
C747 C746 1.369 . S
C747 C748 1.410 . S
C747 C755 1.503 1_455 S
C748 C747 1.410 . S
C748 C749 1.392 . S
C748 C751 1.511 1_455 S
C749 C745 1.376 . S
C749 C748 1.392 . S
C749 H761 0.929 1_556 S
C750 C746 1.531 . S
C750 H762 0.960 1_455 S
C750 H763 0.962 . S
C750 H764 0.960 . S
C751 C748 1.511 1_655 S
C751 H765 0.961 1_655 S
C751 H766 0.961 . S
C751 H767 0.961 . S
C752 C753 1.370 . S
C752 C754 1.363 . S
C752 H768 0.931 . S
C753 C752 1.370 . S
C753 C757 1.408 . S
C754 C752 1.363 . S
C754 C755 1.370 . S
C754 C758 1.524 1_655 S
C755 C747 1.503 1_655 S
C755 C754 1.370 . S
C755 C756 1.403 . S
C756 C755 1.403 . S
C756 C757 1.404 . S
C756 C759 1.539 . S
C757 C753 1.408 . S
C757 C756 1.404 . S
C757 H769 0.930 . S
C758 C754 1.524 1_455 S
C758 H770 0.956 . S
C758 H771 0.961 . S
C758 H772 0.961 . S
C759 C756 1.539 . S
C759 H773 0.958 . S
C759 H774 0.961 . S
C759 H775 0.960 . S
H760 C744 0.931 . S
H761 C749 0.929 1_554 S
H762 C750 0.960 1_655 S
H763 C750 0.962 . S
H764 C750 0.960 . S
H765 C751 0.961 1_455 S
H766 C751 0.961 . S
H767 C751 0.961 . S
H768 C752 0.931 . S
H769 C757 0.930 . S
H770 C758 0.956 . S
H771 C758 0.961 . S
H772 C758 0.961 . S
H773 C759 0.958 . S
H774 C759 0.961 . S
H775 C759 0.960 . S
C776 C777 1.391 . S
C776 C778 1.394 1_556 S
C776 H792 0.931 . S
C777 C776 1.391 . S
C777 C781 1.376 . S
C778 C776 1.394 1_554 S
C778 C779 1.369 . S
C778 C782 1.531 . S
C779 C778 1.369 . S
C779 C780 1.410 1_554 S
C779 C787 1.503 1_565 S
C780 C779 1.410 1_556 S
C780 C781 1.392 . S
C780 C783 1.510 1_556 S
C781 C777 1.376 . S
C781 C780 1.392 . S
C781 H793 0.929 . S
C782 C778 1.531 . S
C782 H794 0.960 . S
C782 H795 0.962 . S
C782 H796 0.960 . S
C783 C780 1.510 1_554 S
C783 H797 0.946 1_554 S
C783 H798 0.965 1_565 S
C783 H799 0.973 . S
C784 C785 1.370 . S
C784 C786 1.363 . S
C784 H800 0.931 . S
C785 C784 1.370 . S
C785 C789 1.408 . S
C786 C784 1.363 . S
C786 C787 1.370 . S
C786 C790 1.524 1_554 S
C787 C779 1.503 1_545 S
C787 C786 1.370 . S
C787 C788 1.403 . S
C788 C787 1.403 . S
C788 C789 1.404 . S
C788 C791 1.539 1_545 S
C789 C785 1.408 . S
C789 C788 1.404 . S
C789 H801 0.930 . S
C790 C786 1.524 1_556 S
C790 H802 0.956 . S
C790 H803 0.961 . S
C790 H804 0.961 . S
C791 C788 1.539 1_565 S
C791 H805 0.958 . S
C791 H806 0.961 . S
C791 H807 0.960 . S
H792 C776 0.931 . S
H793 C781 0.929 . S
H794 C782 0.960 . S
H795 C782 0.962 . S
H796 C782 0.960 . S
H797 C783 0.946 1_556 S
H798 C783 0.965 1_545 S
H799 C783 0.973 . S
H800 C784 0.931 . S
H801 C789 0.930 . S
H802 C790 0.956 . S
H803 C790 0.961 . S
H804 C790 0.961 . S
H805 C791 0.958 . S
H806 C791 0.961 . S
H807 C791 0.960 . S
C808 C809 1.391 . S
C808 C810 1.394 . S
C808 H824 0.931 . S
C809 C808 1.391 . S
C809 C813 1.376 . S
C810 C808 1.394 . S
C810 C811 1.369 . S
C810 C814 1.531 . S
C811 C810 1.369 . S
C811 C812 1.410 . S
C811 C819 1.503 . S
C812 C811 1.410 . S
C812 C813 1.392 . S
C812 C815 1.511 . S
C813 C809 1.376 . S
C813 C812 1.392 . S
C813 H825 0.929 . S
C814 C810 1.531 . S
C814 H826 0.960 . S
C814 H827 0.962 . S
C814 H828 0.960 . S
C815 C812 1.511 . S
C815 H829 0.961 . S
C815 H830 0.961 . S
C815 H831 0.961 . S
C816 C817 1.370 . S
C816 C818 1.363 . S
C816 H832 0.931 . S
C817 C816 1.370 . S
C817 C821 1.408 . S
C818 C816 1.363 . S
C818 C819 1.370 . S
C818 C822 1.524 . S
C819 C811 1.503 . S
C819 C818 1.370 . S
C819 C820 1.403 . S
C820 C819 1.403 . S
C820 C821 1.404 . S
C820 C823 1.539 . S
C821 C817 1.408 . S
C821 C820 1.404 . S
C821 H833 0.930 . S
C822 C818 1.524 . S
C822 H834 0.956 . S
C822 H835 0.961 . S
C822 H836 0.961 . S
C823 C820 1.539 . S
C823 H837 0.958 . S
C823 H838 0.961 . S
C823 H839 0.960 . S
H824 C808 0.931 . S
H825 C813 0.929 . S
H826 C814 0.960 . S
H827 C814 0.962 . S
H828 C814 0.960 . S
H829 C815 0.961 . S
H830 C815 0.961 . S
H831 C815 0.961 . S
H832 C816 0.931 . S
H833 C821 0.930 . S
H834 C822 0.956 . S
H835 C822 0.961 . S
H836 C822 0.961 . S
H837 C823 0.958 . S
H838 C823 0.961 . S
H839 C823 0.960 . S
C840 C841 1.391 . S
C840 C842 1.394 . S
C840 H856 0.931 . S
C841 C840 1.391 . S
C841 C845 1.376 . S
C842 C840 1.394 . S
C842 C843 1.369 . S
C842 C846 1.531 1_455 S
C843 C842 1.369 . S
C843 C844 1.410 . S
C843 C851 1.503 1_455 S
C844 C843 1.410 . S
C844 C845 1.392 . S
C844 C847 1.511 . S
C845 C841 1.376 . S
C845 C844 1.392 . S
C845 H857 0.929 . S
C846 C842 1.531 1_655 S
C846 H858 0.960 . S
C846 H859 0.962 . S
C846 H860 0.960 . S
C847 C844 1.511 . S
C847 H861 0.961 . S
C847 H862 0.961 . S
C847 H863 0.961 . S
C848 C849 1.370 . S
C848 C850 1.363 . S
C848 H864 0.931 . S
C849 C848 1.370 . S
C849 C853 1.408 . S
C850 C848 1.363 . S
C850 C851 1.370 . S
C850 C854 1.524 . S
C851 C843 1.503 1_655 S
C851 C850 1.370 . S
C851 C852 1.403 . S
C852 C851 1.403 . S
C852 C853 1.404 . S
C852 C855 1.539 . S
C853 C849 1.408 . S
C853 C852 1.404 . S
C853 H865 0.930 . S
C854 C850 1.524 . S
C854 H866 0.956 . S
C854 H867 0.961 1_655 S
C854 H868 0.961 . S
C855 C852 1.539 . S
C855 H869 0.958 . S
C855 H870 0.961 . S
C855 H871 0.960 . S
H856 C840 0.931 . S
H857 C845 0.929 . S
H858 C846 0.960 . S
H859 C846 0.962 . S
H860 C846 0.960 . S
H861 C847 0.961 . S
H862 C847 0.961 . S
H863 C847 0.961 . S
H864 C848 0.931 . S
H865 C853 0.930 . S
H866 C854 0.956 . S
H867 C854 0.961 1_455 S
H868 C854 0.961 . S
H869 C855 0.958 . S
H870 C855 0.961 . S
H871 C855 0.960 . S
C872 C873 1.391 . S
C872 C874 1.394 . S
C872 H888 0.931 . S
C873 C872 1.391 . S
C873 C877 1.376 . S
C874 C872 1.394 . S
C874 C875 1.369 . S
C874 C878 1.531 . S
C875 C874 1.369 . S
C875 C876 1.410 . S
C875 C883 1.503 1_545 S
C876 C875 1.410 . S
C876 C877 1.392 . S
C876 C879 1.511 . S
C877 C873 1.376 . S
C877 C876 1.392 . S
C877 H889 0.929 . S
C878 C874 1.531 . S
C878 H890 0.960 1_545 S
C878 H891 0.962 1_545 S
C878 H892 0.960 . S
C879 C876 1.511 . S
C879 H893 0.961 . S
C879 H894 0.961 . S
C879 H895 0.961 . S
C880 C881 1.370 . S
C880 C882 1.363 . S
C880 H896 0.931 . S
C881 C880 1.370 . S
C881 C885 1.408 . S
C882 C880 1.363 . S
C882 C883 1.370 . S
C882 C886 1.524 . S
C883 C875 1.503 1_565 S
C883 C882 1.370 . S
C883 C884 1.403 . S
C884 C883 1.403 . S
C884 C885 1.404 . S
C884 C887 1.539 1_565 S
C885 C881 1.408 . S
C885 C884 1.404 . S
C885 H897 0.930 . S
C886 C882 1.524 . S
C886 H898 0.956 . S
C886 H899 0.961 . S
C886 H900 0.961 . S
C887 C884 1.539 1_545 S
C887 H901 0.958 . S
C887 H902 0.961 . S
C887 H903 0.960 . S
H888 C872 0.931 . S
H889 C877 0.929 . S
H890 C878 0.960 1_565 S
H891 C878 0.962 1_565 S
H892 C878 0.960 . S
H893 C879 0.961 . S
H894 C879 0.961 . S
H895 C879 0.961 . S
H896 C880 0.931 . S
H897 C885 0.930 . S
H898 C886 0.956 . S
H899 C886 0.961 . S
H900 C886 0.961 . S
H901 C887 0.958 . S
H902 C887 0.961 . S
H903 C887 0.960 . S
C904 C905 1.391 . S
C904 C906 1.394 . S
C904 H920 0.931 . S
C905 C904 1.391 . S
C905 C909 1.376 . S
C906 C904 1.394 . S
C906 C907 1.369 . S
C906 C910 1.531 . S
C907 C906 1.369 . S
C907 C908 1.410 . S
C907 C915 1.503 . S
C908 C907 1.410 . S
C908 C909 1.392 . S
C908 C911 1.511 . S
C909 C905 1.376 . S
C909 C908 1.392 . S
C909 H921 0.929 . S
C910 C906 1.531 . S
C910 H922 0.960 . S
C910 H923 0.962 . S
C910 H924 0.960 . S
C911 C908 1.511 . S
C911 H925 0.961 . S
C911 H926 0.961 . S
C911 H927 0.961 . S
C912 C913 1.370 . S
C912 C914 1.363 . S
C912 H928 0.931 . S
C913 C912 1.370 . S
C913 C917 1.408 . S
C914 C912 1.363 . S
C914 C915 1.370 . S
C914 C918 1.524 . S
C915 C907 1.503 . S
C915 C914 1.370 . S
C915 C916 1.403 . S
C916 C915 1.403 . S
C916 C917 1.404 . S
C916 C919 1.539 . S
C917 C913 1.408 . S
C917 C916 1.404 . S
C917 H929 0.930 . S
C918 C914 1.524 . S
C918 H930 0.956 . S
C918 H931 0.961 . S
C918 H932 0.961 . S
C919 C916 1.539 . S
C919 H933 0.958 . S
C919 H934 0.961 . S
C919 H935 0.960 . S
H920 C904 0.931 . S
H921 C909 0.929 . S
H922 C910 0.960 . S
H923 C910 0.962 . S
H924 C910 0.960 . S
H925 C911 0.961 . S
H926 C911 0.961 . S
H927 C911 0.961 . S
H928 C912 0.931 . S
H929 C917 0.930 . S
H930 C918 0.956 . S
H931 C918 0.961 . S
H932 C918 0.961 . S
H933 C919 0.958 . S
H934 C919 0.961 . S
H935 C919 0.960 . S
C169 C8 1.315 . S
C177 C148 1.343 . S
C201 C162 1.381 . S
C209 C22 1.367 . S
C233 C36 1.346 . S
C241 C92 1.351 . S
C265 C50 1.338 . S
C273 C106 1.349 . S
C297 C64 1.328 . S
C305 C120 1.350 . S
C329 C134 1.393 . S
C337 C78 1.373 1_554 S
C361 C13 1.481 . S
C369 C125 1.479 . S
C393 C27 1.441 . S
C401 C139 1.458 . S
C425 C153 1.476 . S
C433 C41 1.477 . S
C457 C55 1.430 . S
C465 C167 1.456 . S
C489 C69 1.466 . S
C497 C97 1.467 . S
C521 C83 1.485 . S
C529 C111 1.475 . S
C553 C147 0.873 . S
C561 C7 0.862 . S
C585 C21 0.860 . S
C593 C161 0.866 . S
C617 C35 0.847 . S
C625 C91 0.854 1_554 S
C649 C49 0.878 . S
C657 C105 0.866 . S
C681 C119 0.874 . S
C689 C63 0.869 . S
C713 C77 0.861 . S
C721 C133 0.866 . S
C745 C11 1.463 1_556 S
C753 C165 1.423 . S
C777 C95 1.405 . S
C785 C25 1.448 . S
C809 C109 1.462 . S
C817 C39 1.422 . S
C841 C123 1.433 . S
C849 C53 1.431 . S
C873 C137 1.400 . S
C881 C67 1.447 . S
C905 C151 1.454 . S
C913 C81 1.423 . S
