# Generated by pormake.
# Topology wmt, (6)-cn, num edge types: 1
# Building blocks:
#     Node 0, Type 0, BuildingBlock: GEDQOX_clean_sbu_0, # of connection points: 6
#     Node 1, Type 0, BuildingBlock: GEDQOX_clean_sbu_0, # of connection points: 6
#     Node 2, Type 0, BuildingBlock: GEDQOX_clean_sbu_0, # of connection points: 6
#     Node 3, Type 0, BuildingBlock: GEDQOX_clean_sbu_0, # of connection points: 6
#     Node 4, Type 0, BuildingBlock: GEDQOX_clean_sbu_0, # of connection points: 6
#     Node 5, Type 0, BuildingBlock: GEDQOX_clean_sbu_0, # of connection points: 6
#     Node 6, Type 0, BuildingBlock: GEDQOX_clean_sbu_0, # of connection points: 6
#     Node 7, Type 0, BuildingBlock: GEDQOX_clean_sbu_0, # of connection points: 6
#     Node 8, Type 0, BuildingBlock: GEDQOX_clean_sbu_0, # of connection points: 6
#     Node 9, Type 0, BuildingBlock: GEDQOX_clean_sbu_0, # of connection points: 6
#     Node 10, Type 0, BuildingBlock: GEDQOX_clean_sbu_0, # of connection points: 6
#     Node 11, Type 0, BuildingBlock: GEDQOX_clean_sbu_0, # of connection points: 6
#     Node 12, Type 0, BuildingBlock: GEDQOX_clean_sbu_0, # of connection points: 6
#     Node 13, Type 0, BuildingBlock: GEDQOX_clean_sbu_0, # of connection points: 6
#     Node 14, Type 0, BuildingBlock: GEDQOX_clean_sbu_0, # of connection points: 6
#     Node 15, Type 0, BuildingBlock: GEDQOX_clean_sbu_0, # of connection points: 6
#     Node 16, Type 0, BuildingBlock: GEDQOX_clean_sbu_0, # of connection points: 6
#     Node 17, Type 0, BuildingBlock: GEDQOX_clean_sbu_0, # of connection points: 6
#     Node 18, Type 0, BuildingBlock: GEDQOX_clean_sbu_0, # of connection points: 6
#     Node 19, Type 0, BuildingBlock: GEDQOX_clean_sbu_0, # of connection points: 6
#     Node 20, Type 0, BuildingBlock: GEDQOX_clean_sbu_0, # of connection points: 6
#     Node 21, Type 0, BuildingBlock: GEDQOX_clean_sbu_0, # of connection points: 6
#     Node 22, Type 0, BuildingBlock: GEDQOX_clean_sbu_0, # of connection points: 6
#     Node 23, Type 0, BuildingBlock: GEDQOX_clean_sbu_0, # of connection points: 6
#     Node 24, Type 0, BuildingBlock: GEDQOX_clean_sbu_0, # of connection points: 6
#     Node 25, Type 0, BuildingBlock: GEDQOX_clean_sbu_0, # of connection points: 6
#     Node 26, Type 0, BuildingBlock: GEDQOX_clean_sbu_0, # of connection points: 6
#     Node 27, Type 0, BuildingBlock: GEDQOX_clean_sbu_0, # of connection points: 6
#     Node 28, Type 0, BuildingBlock: GEDQOX_clean_sbu_0, # of connection points: 6
#     Node 29, Type 0, BuildingBlock: GEDQOX_clean_sbu_0, # of connection points: 6
#     Node 30, Type 0, BuildingBlock: GEDQOX_clean_sbu_0, # of connection points: 6
#     Node 31, Type 0, BuildingBlock: GEDQOX_clean_sbu_0, # of connection points: 6
#     Node 32, Type 0, BuildingBlock: GEDQOX_clean_sbu_0, # of connection points: 6
#     Node 33, Type 0, BuildingBlock: GEDQOX_clean_sbu_0, # of connection points: 6
#     Node 34, Type 0, BuildingBlock: GEDQOX_clean_sbu_0, # of connection points: 6
#     Node 35, Type 0, BuildingBlock: GEDQOX_clean_sbu_0, # of connection points: 6
#     Edge 36, Type (0, 0), BuildingBlock: TEMPAE_clean_linker_10, # of connection points: 2
#     Edge 37, Type (0, 0), BuildingBlock: TEMPAE_clean_linker_10, # of connection points: 2
#     Edge 38, Type (0, 0), BuildingBlock: TEMPAE_clean_linker_10, # of connection points: 2
#     Edge 39, Type (0, 0), BuildingBlock: TEMPAE_clean_linker_10, # of connection points: 2
#     Edge 40, Type (0, 0), BuildingBlock: TEMPAE_clean_linker_10, # of connection points: 2
#     Edge 41, Type (0, 0), BuildingBlock: TEMPAE_clean_linker_10, # of connection points: 2
#     Edge 42, Type (0, 0), BuildingBlock: TEMPAE_clean_linker_10, # of connection points: 2
#     Edge 43, Type (0, 0), BuildingBlock: TEMPAE_clean_linker_10, # of connection points: 2
#     Edge 44, Type (0, 0), BuildingBlock: TEMPAE_clean_linker_10, # of connection points: 2
#     Edge 45, Type (0, 0), BuildingBlock: TEMPAE_clean_linker_10, # of connection points: 2
#     Edge 46, Type (0, 0), BuildingBlock: TEMPAE_clean_linker_10, # of connection points: 2
#     Edge 47, Type (0, 0), BuildingBlock: TEMPAE_clean_linker_10, # of connection points: 2
#     Edge 48, Type (0, 0), BuildingBlock: TEMPAE_clean_linker_10, # of connection points: 2
#     Edge 49, Type (0, 0), BuildingBlock: TEMPAE_clean_linker_10, # of connection points: 2
#     Edge 50, Type (0, 0), BuildingBlock: TEMPAE_clean_linker_10, # of connection points: 2
#     Edge 51, Type (0, 0), BuildingBlock: TEMPAE_clean_linker_10, # of connection points: 2
#     Edge 52, Type (0, 0), BuildingBlock: TEMPAE_clean_linker_10, # of connection points: 2
#     Edge 53, Type (0, 0), BuildingBlock: TEMPAE_clean_linker_10, # of connection points: 2
#     Edge 54, Type (0, 0), BuildingBlock: TEMPAE_clean_linker_10, # of connection points: 2
#     Edge 55, Type (0, 0), BuildingBlock: TEMPAE_clean_linker_10, # of connection points: 2
#     Edge 56, Type (0, 0), BuildingBlock: TEMPAE_clean_linker_10, # of connection points: 2
#     Edge 57, Type (0, 0), BuildingBlock: TEMPAE_clean_linker_10, # of connection points: 2
#     Edge 58, Type (0, 0), BuildingBlock: TEMPAE_clean_linker_10, # of connection points: 2
#     Edge 59, Type (0, 0), BuildingBlock: TEMPAE_clean_linker_10, # of connection points: 2
#     Edge 60, Type (0, 0), BuildingBlock: TEMPAE_clean_linker_10, # of connection points: 2
#     Edge 61, Type (0, 0), BuildingBlock: TEMPAE_clean_linker_10, # of connection points: 2
#     Edge 62, Type (0, 0), BuildingBlock: TEMPAE_clean_linker_10, # of connection points: 2
#     Edge 63, Type (0, 0), BuildingBlock: TEMPAE_clean_linker_10, # of connection points: 2
#     Edge 64, Type (0, 0), BuildingBlock: TEMPAE_clean_linker_10, # of connection points: 2
#     Edge 65, Type (0, 0), BuildingBlock: TEMPAE_clean_linker_10, # of connection points: 2
#     Edge 66, Type (0, 0), BuildingBlock: TEMPAE_clean_linker_10, # of connection points: 2
#     Edge 67, Type (0, 0), BuildingBlock: TEMPAE_clean_linker_10, # of connection points: 2
#     Edge 68, Type (0, 0), BuildingBlock: TEMPAE_clean_linker_10, # of connection points: 2
#     Edge 69, Type (0, 0), BuildingBlock: TEMPAE_clean_linker_10, # of connection points: 2
#     Edge 70, Type (0, 0), BuildingBlock: TEMPAE_clean_linker_10, # of connection points: 2
#     Edge 71, Type (0, 0), BuildingBlock: TEMPAE_clean_linker_10, # of connection points: 2
#     Edge 72, Type (0, 0), BuildingBlock: TEMPAE_clean_linker_10, # of connection points: 2
#     Edge 73, Type (0, 0), BuildingBlock: TEMPAE_clean_linker_10, # of connection points: 2
#     Edge 74, Type (0, 0), BuildingBlock: TEMPAE_clean_linker_10, # of connection points: 2
#     Edge 75, Type (0, 0), BuildingBlock: TEMPAE_clean_linker_10, # of connection points: 2
#     Edge 76, Type (0, 0), BuildingBlock: TEMPAE_clean_linker_10, # of connection points: 2
#     Edge 77, Type (0, 0), BuildingBlock: TEMPAE_clean_linker_10, # of connection points: 2
#     Edge 78, Type (0, 0), BuildingBlock: TEMPAE_clean_linker_10, # of connection points: 2
#     Edge 79, Type (0, 0), BuildingBlock: TEMPAE_clean_linker_10, # of connection points: 2
#     Edge 80, Type (0, 0), BuildingBlock: TEMPAE_clean_linker_10, # of connection points: 2
#     Edge 81, Type (0, 0), BuildingBlock: TEMPAE_clean_linker_10, # of connection points: 2
#     Edge 82, Type (0, 0), BuildingBlock: TEMPAE_clean_linker_10, # of connection points: 2
#     Edge 83, Type (0, 0), BuildingBlock: TEMPAE_clean_linker_10, # of connection points: 2
#     Edge 84, Type (0, 0), BuildingBlock: TEMPAE_clean_linker_10, # of connection points: 2
#     Edge 85, Type (0, 0), BuildingBlock: TEMPAE_clean_linker_10, # of connection points: 2
#     Edge 86, Type (0, 0), BuildingBlock: TEMPAE_clean_linker_10, # of connection points: 2
#     Edge 87, Type (0, 0), BuildingBlock: TEMPAE_clean_linker_10, # of connection points: 2
#     Edge 88, Type (0, 0), BuildingBlock: TEMPAE_clean_linker_10, # of connection points: 2
#     Edge 89, Type (0, 0), BuildingBlock: TEMPAE_clean_linker_10, # of connection points: 2
#     Edge 90, Type (0, 0), BuildingBlock: TEMPAE_clean_linker_10, # of connection points: 2
#     Edge 91, Type (0, 0), BuildingBlock: TEMPAE_clean_linker_10, # of connection points: 2
#     Edge 92, Type (0, 0), BuildingBlock: TEMPAE_clean_linker_10, # of connection points: 2
#     Edge 93, Type (0, 0), BuildingBlock: TEMPAE_clean_linker_10, # of connection points: 2
#     Edge 94, Type (0, 0), BuildingBlock: TEMPAE_clean_linker_10, # of connection points: 2
#     Edge 95, Type (0, 0), BuildingBlock: TEMPAE_clean_linker_10, # of connection points: 2
#     Edge 96, Type (0, 0), BuildingBlock: TEMPAE_clean_linker_10, # of connection points: 2
#     Edge 97, Type (0, 0), BuildingBlock: TEMPAE_clean_linker_10, # of connection points: 2
#     Edge 98, Type (0, 0), BuildingBlock: TEMPAE_clean_linker_10, # of connection points: 2
#     Edge 99, Type (0, 0), BuildingBlock: TEMPAE_clean_linker_10, # of connection points: 2
#     Edge 100, Type (0, 0), BuildingBlock: TEMPAE_clean_linker_10, # of connection points: 2
#     Edge 101, Type (0, 0), BuildingBlock: TEMPAE_clean_linker_10, # of connection points: 2
#     Edge 102, Type (0, 0), BuildingBlock: TEMPAE_clean_linker_10, # of connection points: 2
#     Edge 103, Type (0, 0), BuildingBlock: TEMPAE_clean_linker_10, # of connection points: 2
#     Edge 104, Type (0, 0), BuildingBlock: TEMPAE_clean_linker_10, # of connection points: 2
#     Edge 105, Type (0, 0), BuildingBlock: TEMPAE_clean_linker_10, # of connection points: 2
#     Edge 106, Type (0, 0), BuildingBlock: TEMPAE_clean_linker_10, # of connection points: 2
#     Edge 107, Type (0, 0), BuildingBlock: TEMPAE_clean_linker_10, # of connection points: 2
#     Edge 108, Type (0, 0), BuildingBlock: TEMPAE_clean_linker_10, # of connection points: 2
#     Edge 109, Type (0, 0), BuildingBlock: TEMPAE_clean_linker_10, # of connection points: 2
#     Edge 110, Type (0, 0), BuildingBlock: TEMPAE_clean_linker_10, # of connection points: 2
#     Edge 111, Type (0, 0), BuildingBlock: TEMPAE_clean_linker_10, # of connection points: 2
#     Edge 112, Type (0, 0), BuildingBlock: TEMPAE_clean_linker_10, # of connection points: 2
#     Edge 113, Type (0, 0), BuildingBlock: TEMPAE_clean_linker_10, # of connection points: 2
#     Edge 114, Type (0, 0), BuildingBlock: TEMPAE_clean_linker_10, # of connection points: 2
#     Edge 115, Type (0, 0), BuildingBlock: TEMPAE_clean_linker_10, # of connection points: 2
#     Edge 116, Type (0, 0), BuildingBlock: TEMPAE_clean_linker_10, # of connection points: 2
#     Edge 117, Type (0, 0), BuildingBlock: TEMPAE_clean_linker_10, # of connection points: 2
#     Edge 118, Type (0, 0), BuildingBlock: TEMPAE_clean_linker_10, # of connection points: 2
#     Edge 119, Type (0, 0), BuildingBlock: TEMPAE_clean_linker_10, # of connection points: 2
#     Edge 120, Type (0, 0), BuildingBlock: TEMPAE_clean_linker_10, # of connection points: 2
#     Edge 121, Type (0, 0), BuildingBlock: TEMPAE_clean_linker_10, # of connection points: 2
#     Edge 122, Type (0, 0), BuildingBlock: TEMPAE_clean_linker_10, # of connection points: 2
#     Edge 123, Type (0, 0), BuildingBlock: TEMPAE_clean_linker_10, # of connection points: 2
#     Edge 124, Type (0, 0), BuildingBlock: TEMPAE_clean_linker_10, # of connection points: 2
#     Edge 125, Type (0, 0), BuildingBlock: TEMPAE_clean_linker_10, # of connection points: 2
#     Edge 126, Type (0, 0), BuildingBlock: TEMPAE_clean_linker_10, # of connection points: 2
#     Edge 127, Type (0, 0), BuildingBlock: TEMPAE_clean_linker_10, # of connection points: 2
#     Edge 128, Type (0, 0), BuildingBlock: TEMPAE_clean_linker_10, # of connection points: 2
#     Edge 129, Type (0, 0), BuildingBlock: TEMPAE_clean_linker_10, # of connection points: 2
#     Edge 130, Type (0, 0), BuildingBlock: TEMPAE_clean_linker_10, # of connection points: 2
#     Edge 131, Type (0, 0), BuildingBlock: TEMPAE_clean_linker_10, # of connection points: 2
#     Edge 132, Type (0, 0), BuildingBlock: TEMPAE_clean_linker_10, # of connection points: 2
#     Edge 133, Type (0, 0), BuildingBlock: TEMPAE_clean_linker_10, # of connection points: 2
#     Edge 134, Type (0, 0), BuildingBlock: TEMPAE_clean_linker_10, # of connection points: 2
#     Edge 135, Type (0, 0), BuildingBlock: TEMPAE_clean_linker_10, # of connection points: 2
#     Edge 136, Type (0, 0), BuildingBlock: TEMPAE_clean_linker_10, # of connection points: 2
#     Edge 137, Type (0, 0), BuildingBlock: TEMPAE_clean_linker_10, # of connection points: 2
#     Edge 138, Type (0, 0), BuildingBlock: TEMPAE_clean_linker_10, # of connection points: 2
#     Edge 139, Type (0, 0), BuildingBlock: TEMPAE_clean_linker_10, # of connection points: 2
#     Edge 140, Type (0, 0), BuildingBlock: TEMPAE_clean_linker_10, # of connection points: 2
#     Edge 141, Type (0, 0), BuildingBlock: TEMPAE_clean_linker_10, # of connection points: 2
#     Edge 142, Type (0, 0), BuildingBlock: TEMPAE_clean_linker_10, # of connection points: 2
#     Edge 143, Type (0, 0), BuildingBlock: TEMPAE_clean_linker_10, # of connection points: 2
# Relax obj value: 0.159
# Max RMSD: 0.200
# Mean RMSD: 0.200
data_MOF--net-wmt--node1-GEDQOX_clean_sbu_0--edge1-TEMPAE_clean_linker_10
_symmetry_space_group_name_H-M    P1
_symmetry_Int_Tables_number       1
_symmetry_cell_setting            triclinic
loop_
_symmetry_equiv_pos_as_xyz
'x, y, z'
_cell_length_a     85.644156
_cell_length_b     85.603971
_cell_length_c     36.743558
_cell_angle_alpha  89.995505
_cell_angle_beta   90.040607
_cell_angle_gamma 119.94129
loop_
_atom_site_label
_atom_site_type_symbol
_atom_site_fract_x
_atom_site_fract_y
_atom_site_fract_z
_atom_type_partial_charge
Nd0 Nd 0.03576 0.46711 0.04681 0.0
Nd1 Nd 0.06732 0.49792 1.00157 0.0
C2 C 0.01085 0.4499 0.09774 0.0
C3 C 0.00867 0.45024 0.13783 0.0
C4 C 0.02353 0.4595 0.16112 0.0
C5 C 0.02105 0.46036 0.19877 0.0
C6 C 0.00361 0.45212 0.2139 0.0
C7 C 0.98879 0.44262 0.19046 0.0
C8 C -0.00866 0.44148 0.15303 0.0
C9 C 0.06076 0.45924 1.02059 0.0
C10 C 0.07253 0.49939 0.08839 0.0
C11 C 0.09266 0.51618 0.95271 0.0
C12 C 0.09386 0.52102 0.91366 0.0
C13 C 0.08844 0.50792 0.88611 0.0
C14 C 0.08921 0.51278 0.84949 0.0
C15 C 0.09532 0.53081 0.83954 0.0
C16 C 0.10104 0.54391 0.86718 0.0
C17 C 0.1004 0.53907 0.90374 0.0
C18 C 0.04245 0.5059 0.02828 0.0
C19 C 0.02947 0.46644 0.9597 0.0
O20 O 0.01256 0.4638 0.0795 0.0
O21 O 0.02155 0.44426 0.08561 0.0
O22 O 0.04371 0.4473 1.02331 0.0
O23 O 0.06416 0.47425 0.03358 0.0
O24 O 0.05549 0.4864 0.08988 0.0
O25 O 0.08132 0.50525 0.05729 0.0
O26 O 0.0871 0.49928 0.96093 0.0
O27 O 0.08619 0.52367 0.97451 0.0
O28 O 0.0595 0.51777 1.02637 0.0
O29 O 0.03936 0.49108 1.01511 0.0
O30 O 0.04624 0.48023 0.95744 0.0
O31 O 0.02168 0.45929 0.99126 0.0
H32 H 0.03702 0.46625 0.15012 0.0
H33 H 0.03276 0.46779 0.21595 0.0
H34 H 0.9752 0.43577 0.20117 0.0
H35 H 0.97971 0.43368 0.13588 0.0
H36 H 0.08346 0.49389 0.89276 0.0
H37 H 0.08496 0.50235 0.82897 0.0
H38 H 0.10557 0.55787 0.86072 0.0
H39 H 0.10475 0.54946 0.92438 0.0
Nd40 Nd 0.53032 0.56725 0.03566 0.0
Nd41 Nd 0.49571 0.55814 0.98999 0.0
C42 C 0.55306 0.56763 0.08588 0.0
C43 C 0.55393 0.56608 0.12601 0.0
C44 C 0.53872 0.5611 0.14776 0.0
C45 C 0.53904 0.55801 0.18519 0.0
C46 C 0.55463 0.55971 0.20189 0.0
C47 C 0.57 0.56502 0.18001 0.0
C48 C 0.56963 0.56813 0.14253 0.0
C49 C 0.52743 0.59587 1.01285 0.0
C50 C 0.49119 0.55644 0.07656 0.0
C51 C 0.47334 0.55946 0.94208 0.0
C52 C 0.46934 0.557 0.90254 0.0
C53 C 0.47326 0.57202 0.88076 0.0
C54 C 0.46899 0.56994 0.84367 0.0
C55 C 0.46056 0.55275 0.82749 0.0
C56 C 0.45664 0.53772 0.84934 0.0
C57 C 0.46099 0.53981 0.8864 0.0
C58 C 0.50042 0.52962 1.00708 0.0
C59 C 0.53308 0.56462 0.94743 0.0
O60 O 0.5409 0.5532 0.06926 0.0
O61 O 0.554 0.5823 0.07273 0.0
O62 O 0.54257 0.59577 1.01352 0.0
O63 O 0.51456 0.58148 1.02548 0.0
O64 O 0.50707 0.55728 0.07775 0.0
O65 O 0.48438 0.55851 0.04593 0.0
O66 O 0.48852 0.57366 0.95192 0.0
O67 O 0.46941 0.54511 0.9615 0.0
O68 O 0.48447 0.52798 1.00554 0.0
O69 O 0.51212 0.54519 0.99858 0.0
O70 O 0.51777 0.56503 0.94607 0.0
O71 O 0.5403 0.56396 0.9791 0.0
H72 H 0.52639 0.55891 0.13541 0.0
H73 H 0.52696 0.55407 0.20096 0.0
H74 H 0.5822 0.56628 0.19163 0.0
H75 H 0.5815 0.57174 0.12627 0.0
H76 H 0.47957 0.58542 0.89248 0.0
H77 H 0.47241 0.58183 0.82762 0.0
H78 H 0.44986 0.52426 0.83796 0.0
H79 H 0.45763 0.52791 0.90239 0.0
Nd80 Nd 0.42073 0.94709 0.04814 0.0
Nd81 Nd 0.4227 0.9176 1.00073 0.0
C82 C 0.42626 0.97118 0.09962 0.0
C83 C 0.42883 0.97375 0.13961 0.0
C84 C 0.43606 0.99115 0.1541 0.0
C85 C 0.43905 -0.0058 0.1916 0.0
C86 C 0.43469 0.97984 0.21585 0.0
C87 C 0.42736 0.96232 0.20119 0.0
C88 C 0.42438 0.95931 0.1635 0.0
C89 C 0.38892 0.92077 1.02039 0.0
C90 C 0.41995 0.91173 0.08759 0.0
C91 C 0.41765 0.89343 0.95043 0.0
C92 C 0.42172 0.89319 0.91138 0.0
C93 C 0.41646 0.9015 0.8849 0.0
C94 C 0.42107 0.90158 0.84832 0.0
C95 C 0.4312 0.89352 0.83743 0.0
C96 C 0.43628 0.88509 0.86408 0.0
C97 C 0.43152 0.88487 0.90055 0.0
C98 C 0.45484 0.94426 1.0264 0.0
C99 C 0.42529 0.95462 0.96185 0.0
O100 O 0.43921 0.97098 0.08112 0.0
O101 O 0.41023 0.95927 0.08777 0.0
O102 O 0.39288 0.93751 1.02353 0.0
O103 O 0.40105 0.91823 0.03365 0.0
O104 O 0.42243 0.92819 0.09005 0.0
O105 O 0.41764 0.90336 0.05609 0.0
O106 O 0.40539 0.89771 0.95907 0.0
O107 O 0.43154 0.9005 0.97239 0.0
O108 O 0.45113 0.92762 1.02391 0.0
O109 O 0.44207 0.94605 1.01457 0.0
O110 O 0.42346 0.93831 0.95815 0.0
O111 O 0.42595 0.96183 0.99404 0.0
H112 H 0.43937 0.00247 0.13632 0.0
H113 H 0.4449 0.00789 0.20155 0.0
H114 H 0.42366 0.95087 0.21887 0.0
H115 H 0.41872 0.94573 0.15303 0.0
H116 H 0.40892 0.90808 0.89243 0.0
H117 H 0.41669 0.90799 0.82859 0.0
H118 H 0.44435 0.87903 0.857 0.0
H119 H 0.43578 0.87843 0.92049 0.0
Nd120 Nd 0.46089 0.03941 0.65467 0.0
Nd121 Nd 0.49041 0.07178 0.7012 0.0
C122 C 0.44434 0.01385 0.60451 0.0
C123 C 0.44558 0.01063 0.56516 0.0
C124 C 0.4546 0.02489 0.54035 0.0
C125 C 0.455 0.02139 0.50303 0.0
C126 C 0.44635 0.00354 0.48965 0.0
C127 C 0.43776 0.98936 0.51494 0.0
C128 C 0.4374 0.99287 0.55213 0.0
C129 C 0.45434 0.0669 0.66857 0.0
C130 C 0.49766 0.07158 0.61561 0.0
C131 C 0.50696 0.09752 0.75008 0.0
C132 C 0.51174 0.0972 0.7886 0.0
C133 C 0.51436 0.11112 0.8124 0.0
C134 C 0.51917 0.11088 0.84883 0.0
C135 C 0.52158 0.09677 0.86194 0.0
C136 C 0.51869 0.08273 0.83806 0.0
C137 C 0.51372 0.08289 0.80185 0.0
C138 C 0.49574 0.04327 0.69242 0.0
C139 C 0.45543 0.03537 0.74181 0.0
O140 O 0.45721 0.01505 0.62551 0.0
O141 O 0.43932 0.02552 0.61322 0.0
O142 O 0.44178 0.05007 0.66691 0.0
O143 O 0.46958 0.06896 0.66065 0.0
O144 O 0.48531 0.05436 0.61728 0.0
O145 O 0.50051 0.08264 0.64328 0.0
O146 O 0.48972 0.09029 0.74283 0.0
O147 O 0.51551 0.09307 0.72638 0.0
O148 O 0.50922 0.05969 0.69357 0.0
O149 O 0.48118 0.04298 0.69694 0.0
O150 O 0.46895 0.0524 0.74375 0.0
O151 O 0.45027 0.02658 0.71043 0.0
H152 H 0.46116 0.03872 0.54975 0.0
H153 H 0.46172 0.0327 0.48458 0.0
H154 H 0.43131 0.97546 0.50602 0.0
H155 H 0.43059 0.98165 0.57078 0.0
H156 H 0.51279 0.12222 0.80277 0.0
H157 H 0.52132 0.12188 0.86657 0.0
H158 H 0.52012 0.07151 0.84748 0.0
H159 H 0.5115 0.07185 0.78411 0.0
Nd160 Nd 0.94164 0.42759 0.64848 0.0
Nd161 Nd 0.91191 0.42193 0.70409 0.0
C162 C 0.96877 0.43666 0.60227 0.0
C163 C 0.97193 0.43979 0.56251 0.0
C164 C 0.98957 0.45006 0.54914 0.0
C165 C -0.00718 0.45293 0.51158 0.0
C166 C 0.97849 0.44546 0.48638 0.0
C167 C 0.96078 0.43537 0.50001 0.0
C168 C 0.95754 0.43263 0.53761 0.0
C169 C 0.91265 0.39332 0.65223 0.0
C170 C 0.90755 0.42891 0.61733 0.0
C171 C 0.88484 0.41332 0.74944 0.0
C172 C 0.88465 0.41709 0.78866 0.0
C173 C 0.86856 0.40885 0.80861 0.0
C174 C 0.86852 0.41281 0.8457 0.0
C175 C 0.88461 0.42514 0.86356 0.0
C176 C 0.90072 0.43323 0.84327 0.0
C177 C 0.90074 0.4292 0.80639 0.0
C178 C 0.93983 0.4565 0.69792 0.0
C179 C 0.94866 0.4252 0.7368 0.0
O180 O 0.96635 0.44838 0.62056 0.0
O181 O 0.9578 0.4201 0.61272 0.0
O182 O 0.9205 0.40121 0.62212 0.0
O183 O 0.92037 0.40327 0.67933 0.0
O184 O 0.92516 0.43627 0.61471 0.0
O185 O 0.89868 0.41992 0.64697 0.0
O186 O 0.89066 0.40222 0.74105 0.0
O187 O 0.8914 0.42743 0.72803 0.0
O188 O 0.93271 0.44949 0.72902 0.0
O189 O 0.93218 0.4455 0.67251 0.0
O190 O 0.93148 0.41964 0.74292 0.0
O191 O 0.95573 0.42934 0.70364 0.0
H192 H 0.00088 0.45585 0.56781 0.0
H193 H 0.00662 0.46068 0.50223 0.0
H194 H 0.94939 0.42962 0.48158 0.0
H195 H 0.94378 0.42484 0.54722 0.0
H196 H 0.85601 0.39939 0.7955 0.0
H197 H 0.85589 0.40611 0.86041 0.0
H198 H 0.91335 0.44302 0.85565 0.0
H199 H 0.91334 0.4357 0.79157 0.0
Nd200 Nd 0.56195 0.50755 0.63893 0.0
Nd201 Nd 0.55382 0.47345 0.68319 0.0
C202 C 0.56288 0.53064 0.58933 0.0
C203 C 0.56176 0.53243 0.54941 0.0
C204 C 0.55658 0.51775 0.52584 0.0
C205 C 0.55495 0.51961 0.48822 0.0
C206 C 0.55852 0.53627 0.47331 0.0
C207 C 0.56393 0.55098 0.49721 0.0
C208 C 0.56551 0.54906 0.53472 0.0
C209 C 0.59099 0.5084 0.67154 0.0
C210 C 0.55792 0.47134 0.59653 0.0
C211 C 0.55328 0.45109 0.73379 0.0
C212 C 0.54814 0.44696 0.77263 0.0
C213 C 0.55898 0.44356 0.79632 0.0
C214 C 0.55407 0.43911 0.83288 0.0
C215 C 0.53811 0.43781 0.84648 0.0
C216 C 0.52737 0.44142 0.82276 0.0
C217 C 0.53237 0.44603 0.78631 0.0
C218 C 0.5247 0.47323 0.65245 0.0
C219 C 0.55538 0.50948 0.72437 0.0
O220 O 0.54816 0.51879 0.60597 0.0
O221 O 0.5773 0.53089 0.60189 0.0
O222 O 0.58846 0.52214 0.6698 0.0
O223 O 0.57872 0.49486 0.65512 0.0
O224 O 0.55737 0.48648 0.59527 0.0
O225 O 0.55892 0.46415 0.62778 0.0
O226 O 0.56763 0.46661 0.72653 0.0
O227 O 0.54022 0.44685 0.71043 0.0
O228 O 0.5263 0.45894 0.65408 0.0
O229 O 0.53773 0.48629 0.66795 0.0
O230 O 0.55497 0.49379 0.72715 0.0
O231 O 0.55644 0.51715 0.69258 0.0
H232 H 0.55367 0.50483 0.53663 0.0
H233 H 0.55062 0.50792 0.47093 0.0
H234 H 0.56713 0.5641 0.48693 0.0
H235 H 0.56956 0.5606 0.55236 0.0
H236 H 0.57121 0.44421 0.78643 0.0
H237 H 0.56261 0.43637 0.85038 0.0
H238 H 0.51517 0.44086 0.8325 0.0
H239 H 0.52384 0.44878 0.76881 0.0
Nd240 Nd 0.9129 0.48556 0.20172 0.0
Nd241 Nd 0.94203 0.51496 0.15029 0.0
C242 C 0.88642 0.46472 0.24629 0.0
C243 C 0.88539 0.45881 0.28483 0.0
C244 C 0.88019 0.46663 0.31251 0.0
C245 C 0.87998 0.46179 0.34905 0.0
C246 C 0.88484 0.44889 0.35894 0.0
C247 C 0.88966 0.44078 0.33109 0.0
C248 C 0.88993 0.44567 0.29459 0.0
C249 C 0.94245 0.48244 0.18865 0.0
C250 C 0.94997 0.51829 0.23735 0.0
C251 C 0.96504 0.53362 0.09744 0.0
C252 C 0.9686 0.53288 0.05802 0.0
C253 C 0.98643 0.54122 0.04542 0.0
C254 C 0.99018 0.54197 1.00805 0.0
C255 C 0.97617 0.5346 0.98204 0.0
C256 C 0.95826 0.52599 0.99499 0.0
C257 C 0.95454 0.5251 0.03242 0.0
C258 C 0.91912 0.52414 0.18351 0.0
C259 C 0.90676 0.48001 0.11307 0.0
O260 O 0.89161 0.48181 0.24097 0.0
O261 O 0.89324 0.45839 0.22239 0.0
O262 O 0.93478 0.47889 0.2203 0.0
O263 O 0.93435 0.48677 0.16593 0.0
O264 O 0.93246 0.50719 0.24194 0.0
O265 O 0.95745 0.52223 0.20461 0.0
O266 O 0.96757 0.52315 0.11988 0.0
O267 O 0.95094 0.53502 0.10587 0.0
O268 O 0.93618 0.53524 0.17853 0.0
O269 O 0.91453 0.50888 0.17015 0.0
O270 O 0.92195 0.4954 0.10896 0.0
O271 O 0.90011 0.47317 0.14563 0.0
H272 H 0.87654 0.47673 0.30598 0.0
H273 H 0.8764 0.4685 0.36963 0.0
H274 H 0.89319 0.43058 0.33746 0.0
H275 H 0.89386 0.43922 0.27408 0.0
H276 H -0.00247 0.54728 0.06456 0.0
H277 H 0.00414 0.54831 0.9997 0.0
H278 H 0.94701 0.52036 0.97624 0.0
H279 H 0.94065 0.51872 0.04128 0.0
Nd280 Nd 0.48626 0.41665 0.19264 0.0
Nd281 Nd 0.46035 0.42395 0.14483 0.0
C282 C 0.5041 0.4052 0.23311 0.0
C283 C 0.50967 0.40801 0.27206 0.0
C284 C 0.49687 0.40206 0.30029 0.0
C285 C 0.50232 0.40631 0.33665 0.0
C286 C 0.52071 0.41673 0.34585 0.0
C287 C 0.5335 0.42219 0.31761 0.0
C288 C 0.52804 0.41784 0.28125 0.0
C289 C 0.49822 0.45239 0.17962 0.0
C290 C 0.45837 0.42647 0.23376 0.0
C291 C 0.44193 0.43331 0.1005 0.0
C292 C 0.44362 0.43772 0.06107 0.0
C293 C 0.45462 0.43402 0.03843 0.0
C294 C 0.45639 0.43837 1.00125 0.0
C295 C 0.44711 0.44646 0.98564 0.0
C296 C 0.43622 0.45027 1.00859 0.0
C297 C 0.43451 0.44595 0.04582 0.0
C298 C 0.45159 0.38878 0.15344 0.0
C299 C 0.49146 0.42054 0.10335 0.0
O300 O 0.48685 0.39528 0.22595 0.0
O301 O 0.51208 0.41945 0.21222 0.0
O302 O 0.50113 0.44654 0.21 0.0
O303 O 0.48978 0.43947 0.15803 0.0
O304 O 0.46895 0.41941 0.2371 0.0
O305 O 0.45409 0.43057 0.20193 0.0
O306 O 0.45489 0.44475 0.12175 0.0
O307 O 0.43692 0.41658 0.10859 0.0
O308 O 0.44991 0.39534 0.12296 0.0
O309 O 0.45707 0.40041 0.17828 0.0
O310 O 0.48275 0.42956 0.10539 0.0
O311 O 0.49261 0.41174 0.13235 0.0
H312 H 0.48259 0.39444 0.29433 0.0
H313 H 0.49206 0.40156 0.35757 0.0
H314 H 0.54775 0.4304 0.32339 0.0
H315 H 0.53821 0.42264 0.26014 0.0
H316 H 0.46176 0.42763 0.04946 0.0
H317 H 0.46473 0.43502 0.98461 0.0
H318 H 0.42909 0.45673 0.99785 0.0
H319 H 0.42609 0.44909 0.06273 0.0
Nd320 Nd 0.55993 0.07776 0.20073 0.0
Nd321 Nd 0.56303 0.04871 0.15552 0.0
C322 C 0.5647 0.10245 0.24958 0.0
C323 C 0.5607 0.10229 0.28879 0.0
C324 C 0.56277 0.09081 0.31322 0.0
C325 C 0.55793 0.09006 0.34984 0.0
C326 C 0.55086 0.10074 0.36284 0.0
C327 C 0.549 0.11236 0.33836 0.0
C328 C 0.55389 0.11312 0.30175 0.0
C329 C 0.5283 0.04684 0.18756 0.0
C330 C 0.5627 0.04374 0.24237 0.0
C331 C 0.55997 0.02541 0.10417 0.0
C332 C 0.5546 0.0212 0.0653 0.0
C333 C 0.55755 0.03474 0.04001 0.0
C334 C 0.55358 0.03057 1.00291 0.0
C335 C 0.54651 0.01273 0.99013 0.0
C336 C 0.54302 -0.00083 1.01597 0.0
C337 C 0.54702 0.00337 0.05296 0.0
C338 C 0.59478 0.07795 0.17592 0.0
C339 C 0.55323 0.07719 0.11558 0.0
O340 O 0.57729 0.09869 0.24069 0.0
O341 O 0.5507 0.09486 0.22794 0.0
O342 O 0.5292 0.06246 0.18754 0.0
O343 O 0.54321 0.04843 0.19498 0.0
O344 O 0.56372 0.0598 0.2443 0.0
O345 O 0.56107 0.03558 0.21079 0.0
O346 O 0.54727 0.02216 0.12774 0.0
O347 O 0.57493 0.04041 0.11115 0.0
O348 O 0.59184 0.06153 0.17605 0.0
O349 O 0.58144 0.07884 0.16373 0.0
O350 O 0.55034 0.06058 0.11758 0.0
O351 O 0.56038 0.08855 0.14312 0.0
H352 H 0.56787 0.0822 0.30392 0.0
H353 H 0.55928 0.08076 0.36777 0.0
H354 H 0.54375 0.12087 0.34751 0.0
H355 H 0.55213 0.12204 0.2834 0.0
H356 H 0.56326 0.04861 0.04878 0.0
H357 H 0.55659 0.04146 0.98413 0.0
H358 H 0.53714 0.98522 1.00768 0.0
H359 H 0.5444 0.99265 0.07195 0.0
Nd360 Nd 0.48839 0.9233 0.5008 0.0
Nd361 Nd 0.51787 0.95467 0.54855 0.0
C362 C 0.47158 0.89832 0.4505 0.0
C363 C 0.46679 0.89754 0.41161 0.0
C364 C 0.44878 0.88659 0.40093 0.0
C365 C 0.44367 0.88613 0.36463 0.0
C366 C 0.4565 0.89651 0.33797 0.0
C367 C 0.47462 0.90732 0.34873 0.0
C368 C 0.4797 0.9079 0.38517 0.0
C369 C 0.47937 0.94784 0.52461 0.0
C370 C 0.52039 0.9619 0.46209 0.0
C371 C 0.5345 0.97948 0.59993 0.0
C372 C 0.53517 0.98183 0.64007 0.0
C373 C 0.54537 -0.00083 0.65477 0.0
C374 C 0.54558 0.00208 0.69236 0.0
C375 C 0.5358 0.98763 0.71655 0.0
C376 C 0.52577 0.97013 0.70166 0.0
C377 C 0.52552 0.96728 0.66387 0.0
C378 C 0.52627 0.9298 0.52346 0.0
C379 C 0.48542 0.91754 0.58793 0.0
O380 O 0.48864 0.90486 0.45872 0.0
O381 O 0.46324 0.90358 0.47292 0.0
O382 O 0.46766 0.9308 0.52139 0.0
O383 O 0.49466 0.95113 0.51394 0.0
O384 O 0.50721 0.94488 0.45838 0.0
O385 O 0.52622 0.96949 0.49432 0.0
O386 O 0.51972 0.97658 0.58353 0.0
O387 O 0.54105 0.96983 0.58625 0.0
O388 O 0.53805 0.94691 0.52597 0.0
O389 O 0.51118 0.9264 0.53564 0.0
O390 O 0.49831 0.93457 0.59046 0.0
O391 O 0.48009 0.90902 0.55635 0.0
H392 H 0.43857 0.87857 0.42087 0.0
H393 H 0.42955 0.87793 0.35768 0.0
H394 H 0.48494 0.91533 0.329 0.0
H395 H 0.4937 0.91655 0.39261 0.0
H396 H 0.55313 0.01058 0.63704 0.0
H397 H 0.55327 0.01577 0.70236 0.0
H398 H 0.51825 0.95858 0.7192 0.0
H399 H 0.51769 0.95374 0.65321 0.0
Nd400 Nd 0.06594 0.55732 0.50364 0.0
Nd401 Nd 0.03704 0.56042 0.54884 0.0
C402 C 0.08938 0.55938 0.45416 0.0
C403 C 0.08966 0.55697 0.41447 0.0
C404 C 0.10599 0.56589 0.3954 0.0
C405 C 0.10663 0.56258 0.35824 0.0
C406 C 0.09091 0.55023 0.33947 0.0
C407 C 0.07448 0.54163 0.35867 0.0
C408 C 0.07386 0.54501 0.3957 0.0
C409 C 0.04059 0.5264 0.53716 0.0
C410 C 0.0302 0.55436 0.46123 0.0
C411 C 0.0102 0.55524 0.59216 0.0
C412 C 0.00826 0.55612 0.63219 0.0
C413 C 0.02107 0.55607 0.656 0.0
C414 C 0.01803 0.55425 0.69368 0.0
C415 C 0.00196 0.55222 0.70868 0.0
C416 C 0.98945 0.55293 0.68464 0.0
C417 C -0.00736 0.55501 0.64696 0.0
C418 C 0.06885 0.59203 0.53975 0.0
C419 C 0.0714 0.56147 0.59023 0.0
O420 O 0.08867 0.5735 0.46562 0.0
O421 O 0.07895 0.54482 0.47273 0.0
O422 O 0.0576 0.53133 0.53674 0.0
O423 O 0.03791 0.53772 0.52076 0.0
O424 O 0.04455 0.55231 0.45984 0.0
O425 O 0.02504 0.55872 0.49179 0.0
O426 O 0.01315 0.54239 0.58118 0.0
O427 O 0.02005 0.57044 0.57465 0.0
O428 O 0.05944 0.58757 0.56942 0.0
O429 O 0.06092 0.58033 0.51529 0.0
O430 O 0.05409 0.55633 0.59152 0.0
O431 O 0.0804 0.56554 0.55913 0.0
H432 H 0.11832 0.57519 0.40941 0.0
H433 H 0.11945 0.56964 0.34428 0.0
H434 H 0.06214 0.53183 0.34541 0.0
H435 H 0.0611 0.53792 0.40988 0.0
H436 H 0.03324 0.55695 0.64531 0.0
H437 H 0.02828 0.55425 0.71096 0.0
H438 H 0.9768 0.5512 0.69465 0.0
H439 H 0.98247 0.55484 0.62917 0.0
Nd440 Nd 0.42569 0.50479 0.48644 0.0
Nd441 Nd 0.43111 0.4824 0.5462 0.0
C442 C 0.41819 0.52252 0.43713 0.0
C443 C 0.42206 0.52444 0.39776 0.0
C444 C 0.4159 0.53338 0.37502 0.0
C445 C 0.42037 0.53564 0.33789 0.0
C446 C 0.43121 0.52912 0.32295 0.0
C447 C 0.43708 0.51995 0.34605 0.0
C448 C 0.43244 0.51752 0.38285 0.0
C449 C 0.46003 0.51018 0.49169 0.0
C450 C 0.42427 0.46805 0.46064 0.0
C451 C 0.44019 0.4652 0.59469 0.0
C452 C 0.44337 0.46565 0.63451 0.0
C453 C 0.45265 0.45736 0.64877 0.0
C454 C 0.45497 0.45681 0.68649 0.0
C455 C 0.44806 0.46452 0.71098 0.0
C456 C 0.43913 0.47321 0.69644 0.0
C457 C 0.43684 0.47379 0.65867 0.0
C458 C 0.39714 0.47802 0.542 0.0
C459 C 0.43297 0.51896 0.57083 0.0
O460 O 0.40641 0.50628 0.44813 0.0
O461 O 0.43239 0.53026 0.45824 0.0
O462 O 0.4521 0.50871 0.46088 0.0
O463 O 0.44974 0.50842 0.51766 0.0
O464 O 0.419 0.47977 0.45314 0.0
O465 O 0.43042 0.46721 0.49333 0.0
O466 O 0.45191 0.47896 0.5756 0.0
O467 O 0.42362 0.45957 0.58423 0.0
O468 O 0.40518 0.47875 0.57242 0.0
O469 O 0.4068 0.47903 0.51527 0.0
O470 O 0.44002 0.50858 0.57627 0.0
O471 O 0.424 0.51801 0.54067 0.0
H472 H 0.40776 0.5387 0.38598 0.0
H473 H 0.41533 0.54251 0.32095 0.0
H474 H 0.4457 0.515 0.33605 0.0
H475 H 0.43723 0.51046 0.39984 0.0
H476 H 0.45798 0.45116 0.63068 0.0
H477 H 0.46219 0.45028 0.69648 0.0
H478 H 0.43345 0.47912 0.71434 0.0
H479 H 0.4297 0.48034 0.64836 0.0
Nd480 Nd 0.70116 0.80236 0.39572 0.0
Nd481 Nd 0.7306 0.83046 0.34135 0.0
C482 C 0.67878 0.78534 0.4503 0.0
C483 C 0.67458 0.78816 0.4882 0.0
C484 C 0.65656 0.78098 0.49898 0.0
C485 C 0.65214 0.78136 0.53564 0.0
C486 C 0.66566 0.7888 0.56263 0.0
C487 C 0.68378 0.79673 0.55138 0.0
C488 C 0.68818 0.79647 0.51468 0.0
C489 C 0.72622 0.79412 0.37031 0.0
C490 C 0.73367 0.84094 0.42794 0.0
C491 C 0.75744 0.84993 0.29651 0.0
C492 C 0.75773 0.85433 0.25759 0.0
C493 C 0.77405 0.86385 0.23869 0.0
C494 C 0.77415 0.86819 0.20182 0.0
C495 C 0.7579 0.86308 0.18319 0.0
C496 C 0.74157 0.85341 0.20241 0.0
C497 C 0.7415 0.84906 0.23911 0.0
C498 C 0.69953 0.83162 0.34594 0.0
C499 C 0.69417 0.79527 0.30911 0.0
O500 O 0.67472 0.79284 0.42351 0.0
O501 O 0.69404 0.78558 0.44521 0.0
O502 O 0.70941 0.78222 0.37548 0.0
O503 O 0.72951 0.8096 0.37979 0.0
O504 O 0.71793 0.8263 0.43284 0.0
O505 O 0.74228 0.84515 0.39628 0.0
O506 O 0.752 0.83295 0.30384 0.0
O507 O 0.75046 0.85695 0.31836 0.0
O508 O 0.70871 0.83555 0.31605 0.0
O509 O 0.70751 0.82893 0.3717 0.0
O510 O 0.71167 0.80656 0.30436 0.0
O511 O 0.6864 0.7922 0.34148 0.0
H512 H 0.64581 0.77463 0.47912 0.0
H513 H 0.63807 0.77553 0.54288 0.0
H514 H 0.6946 0.80249 0.57112 0.0
H515 H 0.70223 0.80223 0.50728 0.0
H516 H 0.78671 0.86797 0.25245 0.0
H517 H 0.78696 0.87546 0.18787 0.0
H518 H 0.7288 0.84949 0.18933 0.0
H519 H 0.72874 0.8417 0.25321 0.0
Nd520 Nd 0.17605 0.89174 0.38194 0.0
Nd521 Nd 0.14976 0.89454 0.32574 0.0
C522 C 0.19586 0.88509 0.42852 0.0
C523 C 0.19714 0.883 0.46873 0.0
C524 C 0.18951 0.86573 0.48448 0.0
C525 C 0.1906 0.86355 0.52214 0.0
C526 C 0.19995 0.87862 0.545 0.0
C527 C 0.20798 0.8959 0.52923 0.0
C528 C 0.2065 0.89807 0.49169 0.0
C529 C 0.17587 0.92377 0.381 0.0
C530 C 0.13744 0.88326 0.41138 0.0
C531 C 0.12879 0.90099 0.28297 0.0
C532 C 0.12388 0.89767 0.24397 0.0
C533 C 0.10635 0.89276 0.2328 0.0
C534 C 0.10105 0.88807 0.19647 0.0
C535 C 0.11319 0.88818 0.17045 0.0
C536 C 0.13089 0.89348 0.18174 0.0
C537 C 0.13613 0.89806 0.21809 0.0
C538 C 0.14923 0.86264 0.32645 0.0
C539 C 0.1864 0.89695 0.29398 0.0
O540 O 0.1817 0.87246 0.41165 0.0
O541 O 0.20071 0.9012 0.41589 0.0
O542 O 0.17704 0.91606 0.41045 0.0
O543 O 0.17533 0.91482 0.35336 0.0
O544 O 0.15003 0.87877 0.41373 0.0
O545 O 0.13634 0.89217 0.3827 0.0
O546 O 0.14547 0.9132 0.29076 0.0
O547 O 0.12276 0.88654 0.30323 0.0
O548 O 0.14634 0.86899 0.29682 0.0
O549 O 0.15058 0.87206 0.35371 0.0
O550 O 0.17332 0.9006 0.2878 0.0
O551 O 0.18975 0.89287 0.32687 0.0
H552 H 0.18284 0.85385 0.46753 0.0
H553 H 0.18449 0.85005 0.53329 0.0
H554 H 0.21529 0.90778 0.54607 0.0
H555 H 0.21281 0.9116 0.48066 0.0
H556 H 0.09662 0.89216 0.25238 0.0
H557 H 0.08726 0.88383 0.18906 0.0
H558 H 0.14073 0.89402 0.16253 0.0
H559 H 0.1497 0.90164 0.22605 0.0
Nd560 Nd 0.09014 0.29185 0.37158 0.0
Nd561 Nd 0.08511 0.25779 0.32862 0.0
C562 C 0.1003 0.31815 0.42037 0.0
C563 C 0.10327 0.32059 0.46022 0.0
C564 C 0.11316 0.33803 0.47467 0.0
C565 C 0.11619 0.3407 0.51226 0.0
C566 C 0.10947 0.32596 0.53643 0.0
C567 C 0.09974 0.30843 0.52167 0.0
C568 C 0.09665 0.30578 0.48401 0.0
C569 C 0.05547 0.26612 0.35725 0.0
C570 C 0.09089 0.25828 0.41491 0.0
C571 C 0.0743 0.231 0.28163 0.0
C572 C 0.07864 0.23037 0.24302 0.0
C573 C 0.0675 0.21538 0.22137 0.0
C574 C 0.07183 0.21479 0.18478 0.0
C575 C 0.08746 0.22916 0.16936 0.0
C576 C 0.09843 0.24425 0.19113 0.0
C577 C 0.09403 0.24488 0.22752 0.0
C578 C 0.11978 0.28444 0.33893 0.0
C579 C 0.09016 0.29484 0.284 0.0
O580 O 0.11154 0.31503 0.40212 0.0
O581 O 0.08367 0.30822 0.40912 0.0
O582 O 0.06102 0.28328 0.35741 0.0
O583 O 0.06773 0.2629 0.36678 0.0
O584 O 0.09687 0.27573 0.41215 0.0
O585 O 0.0827 0.24717 0.38731 0.0
O586 O 0.06502 0.23905 0.28861 0.0
O587 O 0.08759 0.23544 0.30457 0.0
O588 O 0.11534 0.26753 0.33951 0.0
O589 O 0.10643 0.28611 0.33197 0.0
O590 O 0.08522 0.27738 0.28365 0.0
O591 O 0.09426 0.30422 0.31471 0.0
H592 H 0.1186 0.34965 0.45682 0.0
H593 H 0.12406 0.35437 0.52232 0.0
H594 H 0.09423 0.29672 0.53926 0.0
H595 H 0.08903 0.29218 0.47348 0.0
H596 H 0.05552 0.2041 0.23282 0.0
H597 H 0.06314 0.20298 0.16871 0.0
H598 H 0.11038 0.25567 0.17991 0.0
H599 H 0.1027 0.25669 0.24366 0.0
Nd600 Nd 0.14745 0.38132 0.97354 0.0
Nd601 Nd 0.17523 0.41111 1.02483 0.0
C602 C 0.13002 0.35426 0.92734 0.0
C603 C 0.12696 0.35198 0.88747 0.0
C604 C 0.13697 0.36632 0.8634 0.0
C605 C 0.13547 0.36351 0.82558 0.0
C606 C 0.12382 0.34629 0.81092 0.0
C607 C 0.11353 0.33208 0.83528 0.0
C608 C 0.11507 0.33492 0.87303 0.0
C609 C 0.14265 0.41042 0.98206 0.0
C610 C 0.17926 0.41867 0.93871 0.0
C611 C 0.1929 0.4337 0.07892 0.0
C612 C 0.19688 0.43301 0.11804 0.0
C613 C 0.18323 0.4248 0.14435 0.0
C614 C 0.18759 0.42406 0.18093 0.0
C615 C 0.2057 0.43141 0.19201 0.0
C616 C 0.21927 0.43964 0.16545 0.0
C617 C 0.21491 0.4405 0.1291 0.0
C618 C 0.18613 0.38912 0.99388 0.0
C619 C 0.14296 0.37268 0.06031 0.0
O620 O 0.14671 0.36042 0.93769 0.0
O621 O 0.12196 0.36136 0.94575 0.0
O622 O 0.13969 0.40151 0.95192 0.0
O623 O 0.14699 0.40326 1.0072 0.0
O624 O 0.16911 0.40107 0.9352 0.0
O625 O 0.18184 0.42689 0.97058 0.0
O626 O 0.1765 0.42941 0.06935 0.0
O627 O 0.20029 0.42755 0.05626 0.0
O628 O 0.19655 0.40644 0.99615 0.0
O629 O 0.17081 0.38436 1.00684 0.0
O630 O 0.15861 0.38773 0.06502 0.0
O631 O 0.13516 0.36763 0.02802 0.0
H632 H 0.14626 0.37962 0.87388 0.0
H633 H 0.14343 0.37486 0.80785 0.0
H634 H 0.10457 0.3186 0.82524 0.0
H635 H 0.10719 0.32364 0.89098 0.0
H636 H 0.16918 0.41886 0.13672 0.0
H637 H 0.17675 0.4178 0.20053 0.0
H638 H 0.23332 0.44512 0.17249 0.0
H639 H 0.2257 0.44686 0.10938 0.0
Nd640 Nd 0.6074 0.75657 1.00238 0.0
Nd641 Nd 0.57582 0.75595 0.04551 0.0
C642 C 0.63156 0.76174 0.95144 0.0
C643 C 0.63368 0.76443 0.91112 0.0
C644 C 0.63632 0.78042 0.89488 0.0
C645 C 0.63902 0.78325 0.85728 0.0
C646 C 0.63916 0.7701 0.83458 0.0
C647 C 0.63639 0.75397 0.85075 0.0
C648 C 0.63371 0.75119 0.88849 0.0
C649 C 0.58118 0.72365 1.02636 0.0
C650 C 0.57326 0.7556 0.95833 0.0
C651 C 0.55015 0.74888 0.09345 0.0
C652 C 0.54987 0.75329 0.13221 0.0
C653 C 0.5617 0.75232 0.15738 0.0
C654 C 0.56245 0.75812 0.19322 0.0
C655 C 0.55154 0.76522 0.20462 0.0
C656 C 0.53938 0.76573 0.17954 0.0
C657 C 0.53855 0.75981 0.1437 0.0
C658 C 0.60156 0.78923 1.02339 0.0
C659 C 0.61291 0.76063 0.08874 0.0
O660 O 0.63208 0.77473 0.97126 0.0
O661 O 0.61951 0.74576 0.96314 0.0
O662 O 0.59825 0.72876 1.02684 0.0
O663 O 0.5784 0.73546 1.01241 0.0
O664 O 0.59046 0.7604 0.95918 0.0
O665 O 0.56323 0.75072 0.98813 0.0
O666 O 0.55579 0.73755 0.08575 0.0
O667 O 0.55641 0.76258 0.07107 0.0
O668 O 0.58457 0.78432 1.02427 0.0
O669 O 0.60425 0.77699 0.03531 0.0
O670 O 0.5961 0.75766 0.09044 0.0
O671 O 0.62119 0.76218 0.05749 0.0
H672 H 0.63664 0.79092 0.9114 0.0
H673 H 0.64146 0.79598 0.84612 0.0
H674 H 0.63623 0.74342 0.83421 0.0
H675 H 0.63179 0.73871 0.90003 0.0
H676 H 0.57066 0.74744 0.14924 0.0
H677 H 0.57176 0.75722 0.2119 0.0
H678 H 0.53094 0.77129 0.1872 0.0
H679 H 0.52942 0.76079 0.12464 0.0
Nd680 Nd 0.23009 0.85583 0.98656 0.0
Nd681 Nd 0.22432 0.82182 0.0288 0.0
C682 C 0.22917 0.87693 0.93452 0.0
C683 C 0.22439 0.87497 0.89511 0.0
C684 C 0.21409 0.88223 0.8813 0.0
C685 C 0.20992 0.88104 0.84406 0.0
C686 C 0.21603 0.87262 0.8193 0.0
C687 C 0.2261 0.86504 0.83357 0.0
C688 C 0.23012 0.86612 0.87089 0.0
C689 C 0.26045 0.8554 1.00622 0.0
C690 C 0.21901 0.81816 0.94307 0.0
C691 C 0.22722 0.79934 0.07403 0.0
C692 C 0.22268 0.79393 0.11243 0.0
C693 C 0.22308 0.80612 0.13844 0.0
C694 C 0.21752 0.80049 0.17417 0.0
C695 C 0.21129 0.78249 0.18462 0.0
C696 C 0.21132 0.77042 0.15865 0.0
C697 C 0.21694 0.7761 0.12287 0.0
C698 C 0.1939 0.82347 1.01471 0.0
C699 C 0.22923 0.85875 0.07382 0.0
O700 O 0.21601 0.86809 0.95751 0.0
O701 O 0.24377 0.87658 0.94367 0.0
O702 O 0.25882 0.86967 1.00781 0.0
O703 O 0.24662 0.84199 0.99319 0.0
O704 O 0.21669 0.83216 0.94662 0.0
O705 O 0.22533 0.81281 0.97027 0.0
O706 O 0.24035 0.81582 0.0679 0.0
O707 O 0.2135 0.79444 0.05209 0.0
O708 O 0.19393 0.8083 1.01395 0.0
O709 O 0.20899 0.83606 1.02384 0.0
O710 O 0.22905 0.84305 0.07433 0.0
O711 O 0.22847 0.86637 0.0429 0.0
H712 H 0.20923 0.88887 0.8994 0.0
H713 H 0.20167 0.88657 0.8349 0.0
H714 H 0.23132 0.85862 0.8159 0.0
H715 H 0.23794 0.8602 0.8807 0.0
H716 H 0.22745 0.81995 0.13105 0.0
H717 H 0.21794 0.81022 0.19356 0.0
H718 H 0.20644 0.75645 0.16563 0.0
H719 H 0.21643 0.76646 0.10312 0.0
Nd720 Nd 0.58165 0.82002 0.54383 0.0
Nd721 Nd 0.61197 0.85079 0.49876 0.0
C722 C 0.55647 0.80145 0.59292 0.0
C723 C 0.55599 0.79714 0.63181 0.0
C724 C 0.53941 0.78699 0.64952 0.0
C725 C 0.53884 0.78239 0.68626 0.0
C726 C 0.55487 0.78793 0.70594 0.0
C727 C 0.57148 0.79826 0.68802 0.0
C728 C 0.57202 0.80279 0.65128 0.0
C729 C 0.60713 0.81263 0.51789 0.0
C730 C 0.619 0.85251 0.58478 0.0
C731 C 0.63626 0.87047 0.44876 0.0
C732 C 0.63854 0.87104 0.40871 0.0
C733 C 0.62769 0.85604 0.38675 0.0
C734 C 0.63082 0.8565 0.34913 0.0
C735 C 0.64484 0.87206 0.33259 0.0
C736 C 0.65537 0.88719 0.35475 0.0
C737 C 0.65224 0.88668 0.3923 0.0
C738 C 0.5866 0.85777 0.52651 0.0
C739 C 0.57645 0.81798 0.45678 0.0
O740 O 0.5619 0.81832 0.58498 0.0
O741 O 0.56326 0.79424 0.57128 0.0
O742 O 0.59019 0.80053 0.52065 0.0
O743 O 0.60993 0.82747 0.53052 0.0
O744 O 0.60226 0.83877 0.58767 0.0
O745 O 0.6267 0.85894 0.55296 0.0
O746 O 0.63593 0.85692 0.46598 0.0
O747 O 0.62443 0.87448 0.4615 0.0
O748 O 0.60372 0.8695 0.52604 0.0
O749 O 0.58335 0.84315 0.51184 0.0
O750 O 0.59341 0.83099 0.45524 0.0
O751 O 0.56765 0.81221 0.48792 0.0
H752 H 0.52691 0.78252 0.63487 0.0
H753 H 0.52586 0.77457 0.69932 0.0
H754 H 0.58408 0.80252 0.70216 0.0
H755 H 0.58494 0.81051 0.63794 0.0
H756 H 0.61693 0.84393 0.39882 0.0
H757 H 0.62244 0.84456 0.33313 0.0
H758 H 0.66604 0.89953 0.34307 0.0
H759 H 0.66074 0.89845 0.40865 0.0
Nd760 Nd 0.1586 0.7557 0.52522 0.0
Nd761 Nd 0.12704 0.75432 0.47976 0.0
C762 C 0.17675 0.7501 0.57674 0.0
C763 C 0.18152 0.75625 0.6148 0.0
C764 C 0.18142 0.74443 0.64137 0.0
C765 C 0.18571 0.75007 0.67761 0.0
C766 C 0.19032 0.7677 0.68783 0.0
C767 C 0.1903 0.77948 0.66117 0.0
C768 C 0.18583 0.77377 0.62508 0.0
C769 C 0.16497 0.7881 0.49882 0.0
C770 C 0.12658 0.76165 0.56589 0.0
C771 C 0.10776 0.75839 0.42788 0.0
C772 C 0.10755 0.75916 0.38749 0.0
C773 C 0.12338 0.76516 0.36696 0.0
C774 C 0.12329 0.76759 0.32917 0.0
C775 C 0.10729 0.76369 0.31088 0.0
C776 C 0.09133 0.75702 0.3314 0.0
C777 C 0.09149 0.75489 0.36926 0.0
C778 C 0.12106 0.72219 0.50735 0.0
C779 C 0.16066 0.75247 0.43825 0.0
O780 O 0.15965 0.7389 0.57023 0.0
O781 O 0.18445 0.76245 0.5515 0.0
O782 O 0.17759 0.78399 0.50268 0.0
O783 O 0.1503 0.77576 0.5112 0.0
O784 O 0.14033 0.75863 0.56849 0.0
O785 O 0.11941 0.76191 0.53409 0.0
O786 O 0.12133 0.77184 0.44458 0.0
O787 O 0.10326 0.7428 0.44265 0.0
O788 O 0.10872 0.7268 0.50566 0.0
O789 O 0.13564 0.73407 0.49345 0.0
O790 O 0.14738 0.75608 0.43675 0.0
O791 O 0.16657 0.74953 0.46941 0.0
H792 H 0.17801 0.73082 0.63409 0.0
H793 H 0.18565 0.74073 0.69757 0.0
H794 H 0.1935 0.79303 0.66835 0.0
H795 H 0.1857 0.78307 0.60522 0.0
H796 H 0.13589 0.76843 0.38032 0.0
H797 H 0.13576 0.77257 0.31422 0.0
H798 H 0.07879 0.754 0.31834 0.0
H799 H 0.07912 0.75027 0.38444 0.0
Nd800 Nd 0.23437 0.40486 0.53099 0.0
Nd801 Nd 0.2326 0.37231 0.48707 0.0
C802 C 0.24292 0.431 0.57892 0.0
C803 C 0.23869 0.43227 0.61725 0.0
C804 C 0.24793 0.44876 0.63573 0.0
C805 C 0.24363 0.45018 0.67191 0.0
C806 C 0.23 0.43508 0.69025 0.0
C807 C 0.22083 0.41854 0.6715 0.0
C808 C 0.22516 0.41714 0.6354 0.0
C809 C 0.20108 0.38028 0.50609 0.0
C810 C 0.22628 0.36659 0.57413 0.0
C811 C 0.22443 0.34683 0.43728 0.0
C812 C 0.22204 0.34443 0.39718 0.0
C813 C 0.2314 0.35881 0.37276 0.0
C814 C 0.2284 0.35613 0.33503 0.0
C815 C 0.21581 0.33908 0.32101 0.0
C816 C 0.20661 0.32475 0.34557 0.0
C817 C 0.20993 0.32736 0.38307 0.0
C818 C 0.26558 0.39692 0.51364 0.0
C819 C 0.2376 0.40881 0.44343 0.0
O820 O 0.25299 0.42372 0.57278 0.0
O821 O 0.22945 0.42549 0.55608 0.0
O822 O 0.2065 0.3974 0.50808 0.0
O823 O 0.21281 0.37698 0.51852 0.0
O824 O 0.22984 0.38361 0.57584 0.0
O825 O 0.22558 0.35855 0.54285 0.0
O826 O 0.21232 0.34888 0.45505 0.0
O827 O 0.24077 0.35726 0.44966 0.0
O828 O 0.26006 0.37973 0.51158 0.0
O829 O 0.25434 0.40058 0.49971 0.0
O830 O 0.23371 0.3918 0.44276 0.0
O831 O 0.24051 0.41794 0.47417 0.0
H832 H 0.25844 0.46057 0.62212 0.0
H833 H 0.25108 0.46305 0.68561 0.0
H834 H 0.21008 0.40669 0.6845 0.0
H835 H 0.21782 0.4043 0.6215 0.0
H836 H 0.24092 0.3721 0.38286 0.0
H837 H 0.23573 0.36745 0.31683 0.0
H838 H 0.19711 0.31138 0.33569 0.0
H839 H 0.20316 0.31595 0.40116 0.0
Nd840 Nd 0.14566 0.25113 0.82985 0.0
Nd841 Nd 0.17668 0.2763 0.88245 0.0
C842 C 0.12261 0.22666 0.78421 0.0
C843 C 0.11854 0.22707 0.74521 0.0
C844 C 0.13209 0.23861 0.72095 0.0
C845 C 0.1281 0.23936 0.68427 0.0
C846 C 0.11043 0.22867 0.67103 0.0
C847 C 0.09687 0.21714 0.69543 0.0
C848 C 0.10091 0.21633 0.73215 0.0
C849 C 0.14841 0.2837 0.84346 0.0
C850 C 0.18202 0.28558 0.79646 0.0
C851 C 0.19781 0.29536 0.93738 0.0
C852 C 0.19731 0.30022 0.97603 0.0
C853 C 0.21164 0.31624 0.99008 0.0
C854 C 0.21205 0.32072 1.02696 0.0
C855 C 0.19827 0.30913 0.05082 0.0
C856 C 0.18389 0.29306 0.03674 0.0
C857 C 0.18335 0.28871 0.99967 0.0
C858 C 0.17997 0.24921 0.84964 0.0
C859 C 0.13711 0.24702 0.91696 0.0
O860 O 0.13845 0.22853 0.79171 0.0
O861 O 0.11816 0.23589 0.80615 0.0
O862 O 0.14446 0.27646 0.81136 0.0
O863 O 0.15041 0.27387 0.86598 0.0
O864 O 0.16931 0.26857 0.79118 0.0
O865 O 0.18638 0.29268 0.82952 0.0
O866 O 0.19223 0.30237 0.91228 0.0
O867 O 0.19308 0.27853 0.93075 0.0
O868 O 0.19312 0.26559 0.8534 0.0
O869 O 0.16572 0.24754 0.86313 0.0
O870 O 0.15293 0.26167 0.92139 0.0
O871 O 0.13139 0.23914 0.88484 0.0
H872 H 0.14577 0.24719 0.73042 0.0
H873 H 0.1388 0.24862 0.66643 0.0
H874 H 0.08316 0.20867 0.68609 0.0
H875 H 0.09023 0.2074 0.75041 0.0
H876 H 0.22261 0.32529 0.97251 0.0
H877 H 0.22336 0.33311 0.03701 0.0
H878 H 0.17307 0.28388 0.05442 0.0
H879 H 0.17215 0.27623 0.98963 0.0
Nd880 Nd 0.73359 0.89889 0.84673 0.0
Nd881 Nd 0.70455 0.9025 0.89394 0.0
C882 C 0.75732 0.90327 0.79595 0.0
C883 C 0.7562 0.89848 0.75705 0.0
C884 C 0.77146 0.9073 0.73476 0.0
C885 C 0.77055 0.90264 0.69792 0.0
C886 C 0.75433 0.88901 0.6827 0.0
C887 C 0.73901 0.88033 0.70518 0.0
C888 C 0.73993 0.88505 0.74193 0.0
C889 C 0.70283 0.86758 0.8631 0.0
C890 C 0.69891 0.90057 0.80637 0.0
C891 C 0.68026 0.89731 0.94463 0.0
C892 C 0.67772 0.89494 0.98462 0.0
C893 C 0.68678 0.88817 1.00554 0.0
C894 C 0.68345 0.88513 0.04304 0.0
C895 C 0.67096 0.88876 0.06053 0.0
C896 C 0.66202 0.89565 0.03936 0.0
C897 C 0.66537 0.89869 1.00192 0.0
C898 C 0.73311 0.93403 0.87134 0.0
C899 C 0.73666 0.89719 0.9337 0.0
O900 O 0.75327 0.91572 0.80419 0.0
O901 O 0.75052 0.88975 0.81888 0.0
O902 O 0.7183 0.86823 0.86124 0.0
O903 O 0.70445 0.88247 0.85542 0.0
O904 O 0.71517 0.90215 0.80399 0.0
O905 O 0.69098 0.89908 0.83824 0.0
O906 O 0.68068 0.88433 0.92678 0.0
O907 O 0.69205 0.91331 0.93242 0.0
O908 O 0.71692 0.93155 0.87523 0.0
O909 O 0.73422 0.92061 0.88235 0.0
O910 O 0.72043 0.89543 0.93471 0.0
O911 O 0.74606 0.90082 0.90318 0.0
H912 H 0.78414 0.91771 0.7459 0.0
H913 H 0.78262 0.90949 0.68151 0.0
H914 H 0.72625 0.86997 0.6943 0.0
H915 H 0.72794 0.87816 0.75861 0.0
H916 H 0.69619 0.88493 0.99279 0.0
H917 H 0.69071 0.87995 0.05833 0.0
H918 H 0.65212 0.89837 0.05156 0.0
H919 H 0.65809 0.90375 0.98634 0.0
Nd920 Nd 0.08314 0.83639 0.82881 0.0
Nd921 Nd 0.08836 0.80965 0.87841 0.0
C922 C 0.0746 0.85234 0.7769 0.0
C923 C 0.07694 0.85494 0.73703 0.0
C924 C 0.07288 0.84057 0.71313 0.0
C925 C 0.07647 0.84377 0.67579 0.0
C926 C 0.0844 0.8614 0.66179 0.0
C927 C 0.08817 0.87567 0.68571 0.0
C928 C 0.0844 0.87245 0.72287 0.0
C929 C 0.11736 0.84854 0.85358 0.0
C930 C 0.09127 0.80592 0.79031 0.0
C931 C 0.09947 0.79283 0.92276 0.0
C932 C 0.09891 0.7894 0.96256 0.0
C933 C 0.09851 0.8015 0.9879 0.0
C934 C 0.09982 0.79917 1.02539 0.0
C935 C 0.10122 0.78444 0.03871 0.0
C936 C 0.10102 0.77204 1.0131 0.0
C937 C 0.09996 0.77455 0.97558 0.0
C938 C 0.05374 0.8033 0.87334 0.0
C939 C 0.08296 0.84115 0.91567 0.0
O940 O 0.06334 0.83618 0.78925 0.0
O941 O 0.08939 0.86054 0.79607 0.0
O942 O 0.11001 0.85863 0.85294 0.0
O943 O 0.10655 0.83292 0.84248 0.0
O944 O 0.08972 0.82051 0.78652 0.0
O945 O 0.09038 0.79852 0.82254 0.0
O946 O 0.1094 0.8097 0.91276 0.0
O947 O 0.08432 0.78428 0.90439 0.0
O948 O 0.0605 0.80077 0.90276 0.0
O949 O 0.06479 0.80793 0.84749 0.0
O950 O 0.09127 0.83172 0.91735 0.0
O951 O 0.07561 0.84278 0.88516 0.0
H952 H 0.0673 0.82694 0.72335 0.0
H953 H 0.07361 0.83254 0.65805 0.0
H954 H 0.09419 0.88937 0.67569 0.0
H955 H 0.08769 0.88375 0.74075 0.0
H956 H 0.0975 0.81296 0.97864 0.0
H957 H 0.10011 0.80918 0.0438 0.0
H958 H 0.10164 0.7603 1.02194 0.0
H959 H 0.10025 0.76499 0.95665 0.0
Nd960 Nd 0.37373 0.14684 0.72357 0.0
Nd961 Nd 0.40083 0.17453 0.66782 0.0
C962 C 0.34834 0.12556 0.77065 0.0
C963 C 0.34509 0.12484 0.81051 0.0
C964 C 0.3566 0.13903 0.83371 0.0
C965 C 0.35331 0.13797 0.87142 0.0
C966 C 0.3385 0.12263 0.88694 0.0
C967 C 0.3271 0.10847 0.86331 0.0
C968 C 0.33033 0.10962 0.82569 0.0
C969 C 0.40575 0.14712 0.71531 0.0
C970 C 0.40448 0.18461 0.75475 0.0
C971 C 0.42703 0.19635 0.62369 0.0
C972 C 0.42724 0.20045 0.58469 0.0
C973 C 0.44342 0.20841 0.56498 0.0
C974 C 0.44347 0.21214 0.52779 0.0
C975 C 0.42734 0.20806 0.50988 0.0
C976 C 0.41115 0.19993 0.52977 0.0
C977 C 0.41109 0.19609 0.56673 0.0
C978 C 0.36947 0.17511 0.67662 0.0
C979 C 0.367 0.13831 0.63464 0.0
O980 O 0.348 0.13852 0.7525 0.0
O981 O 0.36131 0.12281 0.75985 0.0
O982 O 0.39785 0.14524 0.74641 0.0
O983 O 0.39651 0.14828 0.68991 0.0
O984 O 0.38742 0.17215 0.75797 0.0
O985 O 0.41371 0.18632 0.72456 0.0
O986 O 0.42368 0.18002 0.63139 0.0
O987 O 0.41827 0.20172 0.64476 0.0
O988 O 0.3771 0.17739 0.64512 0.0
O989 O 0.37858 0.17325 0.70122 0.0
O990 O 0.38331 0.15199 0.6283 0.0
O991 O 0.36033 0.13381 0.66813 0.0
H992 H 0.36808 0.15097 0.82266 0.0
H993 H 0.3623 0.14929 0.88831 0.0
H994 H 0.31578 0.09627 0.8739 0.0
H995 H 0.32132 0.09846 0.80842 0.0
H996 H 0.45599 0.21175 0.57834 0.0
H997 H 0.45613 0.21843 0.51317 0.0
H998 H 0.39846 0.19632 0.51662 0.0
H999 H 0.39841 0.18969 0.58132 0.0
Nd1000 Nd 0.85021 0.22847 0.70235 0.0
Nd1001 Nd 0.81855 0.22816 0.6604 0.0
C1002 C 0.87028 0.22423 0.75236 0.0
C1003 C 0.86979 0.22078 0.79208 0.0
C1004 C 0.85432 0.21614 0.8129 0.0
C1005 C 0.85388 0.21233 0.8502 0.0
C1006 C 0.86879 0.21277 0.8674 0.0
C1007 C 0.88427 0.21746 0.84641 0.0
C1008 C 0.8848 0.22156 0.80926 0.0
C1009 C 0.8577 0.26059 0.67198 0.0
C1010 C 0.81845 0.23244 0.74669 0.0
C1011 C 0.80008 0.23357 0.60935 0.0
C1012 C 0.79567 0.22725 0.5713 0.0
C1013 C 0.79562 0.23878 0.5442 0.0
C1014 C 0.79208 0.23306 0.50787 0.0
C1015 C 0.78838 0.21564 0.49808 0.0
C1016 C 0.78851 0.20417 0.52529 0.0
C1017 C 0.79224 0.20995 0.56147 0.0
C1018 C 0.81082 0.19601 0.69032 0.0
C1019 C 0.84813 0.21945 0.61682 0.0
O1020 O 0.85828 0.21113 0.73213 0.0
O1021 O 0.8727 0.23996 0.74252 0.0
O1022 O 0.86911 0.25477 0.67289 0.0
O1023 O 0.84322 0.24988 0.68799 0.0
O1024 O 0.83059 0.22721 0.74643 0.0
O1025 O 0.8128 0.23632 0.71626 0.0
O1026 O 0.81709 0.24503 0.61604 0.0
O1027 O 0.79251 0.22123 0.63465 0.0
O1028 O 0.79909 0.20141 0.68864 0.0
O1029 O 0.8253 0.20703 0.67493 0.0
O1030 O 0.83463 0.22289 0.61561 0.0
O1031 O 0.85618 0.21971 0.64775 0.0
H1032 H 0.84251 0.21521 0.80018 0.0
H1033 H 0.84173 0.20866 0.86547 0.0
H1034 H 0.89606 0.21811 0.8588 0.0
H1035 H 0.89687 0.22505 0.79379 0.0
H1036 H 0.79841 0.25223 0.55112 0.0
H1037 H 0.79203 0.24217 0.48747 0.0
H1038 H 0.78602 0.1908 0.51848 0.0
H1039 H 0.79256 0.20091 0.58171 0.0
Nd1040 Nd 0.7482 0.61395 0.69553 0.0
Nd1041 Nd 0.75486 0.58572 0.65496 0.0
C1042 C 0.74808 0.63653 0.74523 0.0
C1043 C 0.75213 0.64028 0.78475 0.0
C1044 C 0.7483 0.62642 0.80985 0.0
C1045 C 0.7517 0.63019 0.8472 0.0
C1046 C 0.75913 0.64797 0.86061 0.0
C1047 C 0.76312 0.66181 0.83505 0.0
C1048 C 0.75969 0.658 0.79776 0.0
C1049 C 0.71823 0.58274 0.67541 0.0
C1050 C 0.7594 0.58769 0.7413 0.0
C1051 C 0.75172 0.55997 0.61058 0.0
C1052 C 0.75566 0.55868 0.57205 0.0
C1053 C 0.7483 0.54178 0.55517 0.0
C1054 C 0.75218 0.54042 0.51865 0.0
C1055 C 0.7635 0.55599 0.49836 0.0
C1056 C 0.77077 0.57293 0.51554 0.0
C1057 C 0.76685 0.57426 0.55196 0.0
C1058 C 0.78494 0.61757 0.67121 0.0
C1059 C 0.751 0.61781 0.60786 0.0
O1060 O 0.76167 0.64058 0.72357 0.0
O1061 O 0.7338 0.62127 0.73638 0.0
O1062 O 0.71962 0.59854 0.67309 0.0
O1063 O 0.73216 0.58361 0.68909 0.0
O1064 O 0.76067 0.60362 0.73789 0.0
O1065 O 0.75416 0.5762 0.71376 0.0
O1066 O 0.73854 0.5632 0.61695 0.0
O1067 O 0.76573 0.56927 0.63163 0.0
O1068 O 0.78491 0.60235 0.67184 0.0
O1069 O 0.77007 0.61523 0.66057 0.0
O1070 O 0.75136 0.60239 0.60809 0.0
O1071 O 0.75086 0.62599 0.63848 0.0
H1072 H 0.7425 0.6126 0.80065 0.0
H1073 H 0.74815 0.61903 0.86556 0.0
H1074 H 0.7693 0.67573 0.84361 0.0
H1075 H 0.76297 0.66897 0.779 0.0
H1076 H 0.73957 0.52962 0.57025 0.0
H1077 H 0.74617 0.5272 0.50624 0.0
H1078 H 0.77977 0.5852 0.50103 0.0
H1079 H 0.77267 0.58744 0.56455 0.0
Nd1080 Nd 0.80109 0.70885 0.29851 0.0
Nd1081 Nd 0.8297 0.73413 0.35496 0.0
C1082 C 0.77854 0.68462 0.25088 0.0
C1083 C 0.77737 0.68131 0.21098 0.0
C1084 C 0.76354 0.66502 0.19693 0.0
C1085 C 0.76234 0.66139 0.15944 0.0
C1086 C 0.77482 0.6741 0.13463 0.0
C1087 C 0.78861 0.69057 0.14905 0.0
C1088 C 0.78992 0.69408 0.1867 0.0
C1089 C 0.80178 0.74065 0.31277 0.0
C1090 C 0.83896 0.7397 0.26729 0.0
C1091 C 0.85271 0.75914 0.40004 0.0
C1092 C 0.8572 0.7599 0.4391 0.0
C1093 C 0.84382 0.75015 0.46519 0.0
C1094 C 0.84844 0.75045 0.50187 0.0
C1095 C 0.86656 0.76035 0.51328 0.0
C1096 C 0.87987 0.7701 0.48693 0.0
C1097 C 0.87522 0.7699 0.45031 0.0
C1098 C 0.83005 0.70333 0.33781 0.0
C1099 C 0.79404 0.69949 0.38717 0.0
O1100 O 0.7908 0.6829 0.26885 0.0
O1101 O 0.77726 0.69845 0.26197 0.0
O1102 O 0.79954 0.73362 0.2806 0.0
O1103 O 0.80315 0.73072 0.3364 0.0
O1104 O 0.82585 0.72296 0.26274 0.0
O1105 O 0.84146 0.7482 0.2989 0.0
O1106 O 0.83694 0.75725 0.39187 0.0
O1107 O 0.85695 0.7493 0.37958 0.0
O1108 O 0.8322 0.7092 0.37103 0.0
O1109 O 0.82798 0.7135 0.3164 0.0
O1110 O 0.80769 0.71571 0.3945 0.0
O1111 O 0.78929 0.69363 0.35321 0.0
H1112 H 0.75378 0.65488 0.21511 0.0
H1113 H 0.75178 0.64836 0.1502 0.0
H1114 H 0.79834 0.70096 0.13132 0.0
H1115 H 0.80071 0.7068 0.19684 0.0
H1116 H 0.82981 0.74219 0.45721 0.0
H1117 H 0.83776 0.74296 0.52129 0.0
H1118 H 0.89398 0.7776 0.49439 0.0
H1119 H 0.88577 0.77736 0.4306 0.0
Nd1120 Nd 0.27983 0.08649 0.32539 0.0
Nd1121 Nd 0.24842 0.08708 0.36829 0.0
C1122 C 0.30422 0.09105 0.27537 0.0
C1123 C 0.30683 0.09378 0.23538 0.0
C1124 C 0.29668 0.09929 0.21457 0.0
C1125 C 0.30002 0.10285 0.17717 0.0
C1126 C 0.31355 0.10086 0.1596 0.0
C1127 C 0.3234 0.09491 0.18046 0.0
C1128 C 0.32008 0.09143 0.21787 0.0
C1129 C 0.25485 0.05458 0.3555 0.0
C1130 C 0.2439 0.08227 0.28141 0.0
C1131 C 0.22276 0.08086 0.41596 0.0
C1132 C 0.22176 0.08488 0.45455 0.0
C1133 C 0.20496 0.07805 0.47158 0.0
C1134 C 0.2039 0.08199 0.50819 0.0
C1135 C 0.21965 0.09278 0.52842 0.0
C1136 C 0.23648 0.09958 0.51109 0.0
C1137 C 0.23751 0.09568 0.47451 0.0
C1138 C 0.27299 0.11906 0.3379 0.0
C1139 C 0.28629 0.09434 0.41174 0.0
O1140 O 0.30467 0.10421 0.29443 0.0
O1141 O 0.2916 0.07521 0.28646 0.0
O1142 O 0.27192 0.05974 0.35374 0.0
O1143 O 0.25141 0.06563 0.33989 0.0
O1144 O 0.26117 0.08712 0.28118 0.0
O1145 O 0.23467 0.07897 0.31211 0.0
O1146 O 0.22832 0.06939 0.40925 0.0
O1147 O 0.22981 0.09473 0.39395 0.0
O1148 O 0.25595 0.11391 0.3403 0.0
O1149 O 0.27635 0.1079 0.35316 0.0
O1150 O 0.26949 0.09137 0.41328 0.0
O1151 O 0.29408 0.0943 0.38064 0.0
H1152 H 0.28629 0.10099 0.22743 0.0
H1153 H 0.2919 0.10698 0.16186 0.0
H1154 H 0.33398 0.09331 0.16803 0.0
H1155 H 0.32812 0.08721 0.2333 0.0
H1156 H 0.19266 0.06969 0.45655 0.0
H1157 H 0.19075 0.07644 0.52077 0.0
H1158 H 0.24887 0.10817 0.52564 0.0
H1159 H 0.25059 0.10118 0.46171 0.0
Nd1160 Nd 0.88877 0.1731 0.30307 0.0
Nd1161 Nd 0.89884 0.1506 0.3564 0.0
C1162 C 0.87367 0.18513 0.25606 0.0
C1163 C 0.87378 0.18784 0.21609 0.0
C1164 C 0.8593 0.18848 0.19966 0.0
C1165 C 0.85846 0.18989 0.16178 0.0
C1166 C 0.87228 0.19104 0.13929 0.0
C1167 C 0.88689 0.19053 0.15578 0.0
C1168 C 0.88754 0.18876 0.19376 0.0
C1169 C 0.92482 0.18546 0.31169 0.0
C1170 C 0.90175 0.14605 0.27041 0.0
C1171 C 0.91061 0.13882 0.41076 0.0
C1172 C 0.90731 0.1363 0.45022 0.0
C1173 C 0.89339 0.1381 0.46607 0.0
C1174 C 0.88921 0.13418 0.5029 0.0
C1175 C 0.89881 0.12828 0.52462 0.0
C1176 C 0.91306 0.12693 0.50881 0.0
C1177 C 0.91724 0.13088 0.47187 0.0
C1178 C 0.86477 0.13281 0.32884 0.0
C1179 C 0.88356 0.1766 0.39036 0.0
O1180 O 0.86627 0.16834 0.26675 0.0
O1181 O 0.88832 0.19587 0.27453 0.0
O1182 O 0.9178 0.18667 0.28131 0.0
O1183 O 0.91319 0.17917 0.33649 0.0
O1184 O 0.89089 0.1527 0.26664 0.0
O1185 O 0.9095 0.14632 0.30182 0.0
O1186 O 0.91938 0.15543 0.39879 0.0
O1187 O 0.89685 0.12835 0.39026 0.0
O1188 O 0.87456 0.12522 0.33198 0.0
O1189 O 0.87315 0.14895 0.33928 0.0
O1190 O 0.88762 0.1637 0.39579 0.0
O1191 O 0.88386 0.18328 0.35761 0.0
H1192 H 0.84857 0.18787 0.2161 0.0
H1193 H 0.8471 0.19039 0.1501 0.0
H1194 H 0.89768 0.19123 0.13923 0.0
H1195 H 0.89873 0.18802 0.20565 0.0
H1196 H 0.88549 0.14216 0.44979 0.0
H1197 H 0.87837 0.13567 0.51432 0.0
H1198 H 0.92063 0.12231 0.52469 0.0
H1199 H 0.92795 0.1293 0.46002 0.0
Nd1200 Nd 0.24085 0.14321 0.8681 0.0
Nd1201 Nd 0.26939 0.17643 0.82627 0.0
C1202 C 0.21667 0.12175 0.91648 0.0
C1203 C 0.21701 0.11701 0.95493 0.0
C1204 C 0.20088 0.10573 0.97333 0.0
C1205 C 0.20117 0.10107 1.00981 0.0
C1206 C 0.21761 0.1077 0.02857 0.0
C1207 C 0.23375 0.119 1.00985 0.0
C1208 C 0.23344 0.12358 0.97341 0.0
C1209 C 0.26782 0.13923 0.83852 0.0
C1210 C 0.27698 0.17649 0.91164 0.0
C1211 C 0.2919 0.19847 0.77591 0.0
C1212 C 0.29497 0.19795 0.73626 0.0
C1213 C 0.28801 0.18154 0.71748 0.0
C1214 C 0.29172 0.18119 0.68036 0.0
C1215 C 0.30235 0.19728 0.66081 0.0
C1216 C 0.30885 0.21373 0.67975 0.0
C1217 C 0.30526 0.21404 0.71696 0.0
C1218 C 0.24197 0.17984 0.85614 0.0
C1219 C 0.2366 0.14224 0.78163 0.0
O1220 O 0.22025 0.13828 0.9101 0.0
O1221 O 0.22463 0.11632 0.89348 0.0
O1222 O 0.25121 0.12618 0.83992 0.0
O1223 O 0.26961 0.15318 0.85387 0.0
O1224 O 0.26098 0.16152 0.91326 0.0
O1225 O 0.28413 0.18465 0.88053 0.0
O1226 O 0.29542 0.18825 0.79693 0.0
O1227 O 0.27711 0.19831 0.78542 0.0
O1228 O 0.25878 0.19249 0.85675 0.0
O1229 O 0.24008 0.16608 0.83967 0.0
O1230 O 0.25342 0.15558 0.7822 0.0
O1231 O 0.2271 0.13601 0.81191 0.0
H1232 H 0.18806 0.10052 0.95947 0.0
H1233 H 0.18851 0.09246 1.02346 0.0
H1234 H 0.24668 0.12413 1.02321 0.0
H1235 H 0.24603 0.13215 0.95957 0.0
H1236 H 0.27996 0.16898 0.73176 0.0
H1237 H 0.28644 0.16825 0.66718 0.0
H1238 H 0.31663 0.22649 0.66587 0.0
H1239 H 0.31065 0.2269 0.73073 0.0
Nd1240 Nd 0.83697 0.09136 0.86186 0.0
Nd1241 Nd 0.80904 0.09009 0.80412 0.0
C1242 C 0.85949 0.08752 0.90513 0.0
C1243 C 0.86462 0.09115 0.94387 0.0
C1244 C 0.85219 0.08992 0.97023 0.0
C1245 C 0.85754 0.09448 1.0065 0.0
C1246 C 0.87549 0.10058 1.01716 0.0
C1247 C 0.88782 0.1016 0.99061 0.0
C1248 C 0.88242 0.09692 0.95438 0.0
C1249 C 0.83592 0.12225 0.85369 0.0
C1250 C 0.79982 0.08797 0.89294 0.0
C1251 C 0.78783 0.09377 0.7559 0.0
C1252 C 0.78707 0.09637 0.71595 0.0
C1253 C 0.80192 0.10104 0.69307 0.0
C1254 C 0.80083 0.10354 0.65541 0.0
C1255 C 0.78479 0.10132 0.63956 0.0
C1256 C 0.76995 0.09648 0.66283 0.0
C1257 C 0.77111 0.09411 0.70037 0.0
C1258 C 0.81127 0.05929 0.81241 0.0
C1259 C 0.84806 0.09966 0.77532 0.0
O1260 O 0.84316 0.07437 0.89786 0.0
O1261 O 0.86434 0.10178 0.8848 0.0
O1262 O 0.83914 0.11749 0.88505 0.0
O1263 O 0.83466 0.11171 0.82869 0.0
O1264 O 0.8137 0.08566 0.90012 0.0
O1265 O 0.79557 0.09019 0.85919 0.0
O1266 O 0.80048 0.10718 0.7744 0.0
O1267 O 0.78535 0.07813 0.76677 0.0
O1268 O 0.80893 0.06496 0.78123 0.0
O1269 O 0.8115 0.06931 0.83765 0.0
O1270 O 0.83487 0.10322 0.77147 0.0
O1271 O 0.8499 0.09206 0.80532 0.0
H1272 H 0.83839 0.08564 0.96272 0.0
H1273 H 0.84758 0.09325 1.02618 0.0
H1274 H 0.90179 0.10647 0.99758 0.0
H1275 H 0.89226 0.09813 0.93437 0.0
H1276 H 0.81444 0.10292 0.70436 0.0
H1277 H 0.81267 0.10746 0.63887 0.0
H1278 H 0.75723 0.09422 0.65202 0.0
H1279 H 0.75942 0.09041 0.7173 0.0
Nd1280 Nd 0.89375 0.73985 0.8574 0.0
Nd1281 Nd 0.88718 0.70585 0.81181 0.0
C1282 C 0.90531 0.76587 0.90646 0.0
C1283 C 0.90167 0.76743 0.94541 0.0
C1284 C 0.909 0.76177 0.97329 0.0
C1285 C 0.90473 0.76257 1.00978 0.0
C1286 C 0.89302 0.76899 1.01918 0.0
C1287 C 0.88609 0.77508 0.99138 0.0
C1288 C 0.89044 0.7744 0.95497 0.0
C1289 C 0.85901 0.71763 0.83698 0.0
C1290 C 0.88315 0.70042 0.89891 0.0
C1291 C 0.87566 0.68034 0.76105 0.0
C1292 C 0.87362 0.67889 0.72086 0.0
C1293 C 0.86181 0.66215 0.70502 0.0
C1294 C 0.85917 0.66044 0.66727 0.0
C1295 C 0.86854 0.67542 0.64419 0.0
C1296 C 0.88052 0.69222 0.6601 0.0
C1297 C 0.88299 0.69395 0.69804 0.0
C1298 C 0.92167 0.72824 0.83415 0.0
C1299 C 0.89507 0.74358 0.76986 0.0
O1300 O 0.91393 0.75722 0.89865 0.0
O1301 O 0.89216 0.76228 0.88366 0.0
O1302 O 0.86605 0.73502 0.83869 0.0
O1303 O 0.87008 0.7129 0.84703 0.0
O1304 O 0.88885 0.718 0.90122 0.0
O1305 O 0.8802 0.69198 0.86728 0.0
O1306 O 0.86515 0.68477 0.77857 0.0
O1307 O 0.89206 0.68834 0.7742 0.0
O1308 O 0.91468 0.71083 0.8318 0.0
O1309 O 0.911 0.7332 0.82253 0.0
O1310 O 0.88894 0.72607 0.76882 0.0
O1311 O 0.89995 0.75297 0.80053 0.0
H1312 H 0.91779 0.75644 0.96698 0.0
H1313 H 0.91017 0.75764 0.03056 0.0
H1314 H 0.8772 0.78029 0.9978 0.0
H1315 H 0.88478 0.77909 0.93419 0.0
H1316 H 0.85472 0.65028 0.72179 0.0
H1317 H 0.85009 0.64724 0.65607 0.0
H1318 H 0.88788 0.70407 0.64324 0.0
H1319 H 0.89215 0.70704 0.70954 0.0
Nd1320 Nd 0.81475 0.58064 0.16032 0.0
Nd1321 Nd 0.83978 0.61321 0.21048 0.0
C1322 C 0.80095 0.55744 0.10566 0.0
C1323 C 0.79843 0.55895 0.06625 0.0
C1324 C 0.81052 0.57428 0.04631 0.0
C1325 C 0.80688 0.57632 1.00995 0.0
C1326 C 0.79104 0.56309 0.99283 0.0
C1327 C 0.7792 0.54757 1.01272 0.0
C1328 C 0.78287 0.54555 0.04902 0.0
C1329 C 0.79937 0.59908 0.18891 0.0
C1330 C 0.84245 0.62084 0.12347 0.0
C1331 C 0.85365 0.64102 0.25567 0.0
C1332 C 0.85641 0.64417 0.29544 0.0
C1333 C 0.84787 0.62985 0.32028 0.0
C1334 C 0.84865 0.63321 0.35784 0.0
C1335 C 0.858 0.65098 0.37148 0.0
C1336 C 0.86691 0.66521 0.34642 0.0
C1337 C 0.86615 0.66182 0.30892 0.0
C1338 C 0.84895 0.58696 0.20515 0.0
C1339 C 0.81122 0.57451 0.24687 0.0
O1340 O 0.81744 0.56373 0.11757 0.0
O1341 O 0.79136 0.56158 0.12697 0.0
O1342 O 0.79088 0.58161 0.18697 0.0
O1343 O 0.81516 0.60585 0.17666 0.0
O1344 O 0.82824 0.60447 0.11976 0.0
O1345 O 0.85038 0.62711 0.1553 0.0
O1346 O 0.8368 0.63239 0.2452 0.0
O1347 O 0.86365 0.63587 0.23804 0.0
O1348 O 0.85115 0.59627 0.23443 0.0
O1349 O 0.84349 0.59259 0.17914 0.0
O1350 O 0.81934 0.59224 0.24913 0.0
O1351 O 0.80972 0.56603 0.2157 0.0
H1352 H 0.82257 0.58489 0.05901 0.0
H1353 H 0.81619 0.58853 0.99563 0.0
H1354 H 0.76701 0.53703 1.00028 0.0
H1355 H 0.77331 0.53367 0.06392 0.0
H1356 H 0.84013 0.61611 0.31054 0.0
H1357 H 0.84147 0.62189 0.3761 0.0
H1358 H 0.87453 0.67903 0.35579 0.0
H1359 H 0.87292 0.67309 0.2904 0.0
Nd1360 Nd 0.39507 0.22859 0.16715 0.0
Nd1361 Nd 0.36399 0.22282 0.22108 0.0
C1362 C 0.42296 0.23906 0.12346 0.0
C1363 C 0.42424 0.23529 0.08482 0.0
C1364 C 0.44086 0.24374 0.06669 0.0
C1365 C 0.44189 0.23991 0.02993 0.0
C1366 C 0.42632 0.22747 1.01089 0.0
C1367 C 0.40969 0.21919 0.02925 0.0
C1368 C 0.40866 0.22309 0.06578 0.0
C1369 C 0.36703 0.19413 0.17127 0.0
C1370 C 0.35692 0.22304 0.13452 0.0
C1371 C 0.34119 0.21606 0.27565 0.0
C1372 C 0.33696 0.20959 0.31381 0.0
C1373 C 0.35051 0.21205 0.33868 0.0
C1374 C 0.34653 0.20832 0.37588 0.0
C1375 C 0.32898 0.20231 0.38905 0.0
C1376 C 0.31536 0.19916 0.36375 0.0
C1377 C 0.3193 0.2027 0.32662 0.0
C1378 C 0.38564 0.2571 0.19579 0.0
C1379 C 0.39964 0.22258 0.25351 0.0
O1380 O 0.41544 0.24892 0.12996 0.0
O1381 O 0.41726 0.22517 0.14538 0.0
O1382 O 0.3756 0.20092 0.14118 0.0
O1383 O 0.37375 0.20499 0.19737 0.0
O1384 O 0.37465 0.23115 0.1301 0.0
O1385 O 0.34915 0.21711 0.16664 0.0
O1386 O 0.33809 0.2044 0.2495 0.0
O1387 O 0.35593 0.23153 0.27062 0.0
O1388 O 0.36842 0.24995 0.2003 0.0
O1389 O 0.391 0.24651 0.20564 0.0
O1390 O 0.38269 0.21825 0.25797 0.0
O1391 O 0.40827 0.2286 0.22221 0.0
H1392 H 0.45301 0.25323 0.08095 0.0
H1393 H 0.45489 0.24646 1.01657 0.0
H1394 H 0.39739 0.20982 1.01523 0.0
H1395 H 0.39568 0.21656 0.07922 0.0
H1396 H 0.36428 0.21737 0.32954 0.0
H1397 H 0.35736 0.21092 0.39456 0.0
H1398 H 0.30166 0.19429 0.37282 0.0
H1399 H 0.30862 0.20071 0.30804 0.0
Nd1400 Nd 0.75911 0.16132 0.15743 0.0
Nd1401 Nd 0.75089 0.12636 0.19995 0.0
C1402 C 0.75799 0.18481 0.11215 0.0
C1403 C 0.76149 0.19035 0.07339 0.0
C1404 C 0.75103 0.1787 0.0452 0.0
C1405 C 0.75451 0.1843 1.00885 0.0
C1406 C 0.7686 0.20165 0.99972 0.0
C1407 C 0.7789 0.21333 0.02805 0.0
C1408 C 0.77534 0.20776 0.06441 0.0
C1409 C 0.78813 0.15784 0.1756 0.0
C1410 C 0.75379 0.12435 0.11226 0.0
C1411 C 0.74996 0.10409 0.25179 0.0
C1412 C 0.75464 0.10501 0.29115 0.0
C1413 C 0.75861 0.12017 0.31261 0.0
C1414 C 0.76288 0.12072 0.34978 0.0
C1415 C 0.76298 0.10597 0.36666 0.0
C1416 C 0.75886 0.09077 0.34503 0.0
C1417 C 0.75487 0.09036 0.3078 0.0
C1418 C 0.72168 0.12852 0.17732 0.0
C1419 C 0.76289 0.16454 0.24321 0.0
O1420 O 0.74394 0.16906 0.11968 0.0
O1421 O 0.77203 0.18854 0.13241 0.0
O1422 O 0.78886 0.1734 0.17662 0.0
O1423 O 0.77311 0.14589 0.16457 0.0
O1424 O 0.75456 0.14033 0.11165 0.0
O1425 O 0.75334 0.11619 0.14338 0.0
O1426 O 0.76328 0.11226 0.22874 0.0
O1427 O 0.73631 0.10627 0.24357 0.0
O1428 O 0.72248 0.11375 0.17664 0.0
O1429 O 0.73569 0.1414 0.19118 0.0
O1430 O 0.76438 0.14997 0.24047 0.0
O1431 O 0.75752 0.17042 0.21533 0.0
H1432 H 0.74015 0.16523 0.05112 0.0
H1433 H 0.74612 0.17501 0.98787 0.0
H1434 H 0.79003 0.22667 1.02216 0.0
H1435 H 0.78354 0.21707 0.08559 0.0
H1436 H 0.75828 0.13154 0.30071 0.0
H1437 H 0.76578 0.13258 0.36547 0.0
H1438 H 0.759 0.07924 0.3568 0.0
H1439 H 0.75187 0.07851 0.29199 0.0
C1440 C 0.13134 0.42994 0.95808 0.0
C1441 C 0.13567 0.42275 0.98812 0.0
C1442 C 0.12141 0.43873 0.96243 0.0
C1443 C 0.1156 0.44018 0.99764 0.0
C1444 C 0.12121 0.43425 0.02838 0.0
C1445 C 0.13133 0.42565 1.02324 0.0
C1446 C 0.11596 0.44519 0.92909 0.0
C1447 C 0.1153 0.43564 0.06636 0.0
C1448 C 0.09304 0.46806 1.01344 0.0
C1449 C 0.0748 0.45472 1.01215 0.0
C1450 C 0.10658 0.46364 1.00815 0.0
C1451 C 0.10166 0.44546 1.00176 0.0
C1452 C 0.08324 0.43203 0.99965 0.0
C1453 C 0.07001 0.43686 1.00472 0.0
C1454 C 0.1261 0.4783 1.01009 0.0
C1455 C 0.07748 0.41248 0.99278 0.0
H1456 H 0.13497 0.4279 0.93093 0.0
H1457 H 0.1348 0.42019 0.04649 0.0
H1458 H 0.10147 0.4359 0.92331 0.0
H1459 H 0.11774 0.45879 0.93369 0.0
H1460 H 0.12385 0.44566 0.9047 0.0
H1461 H 0.1227 0.43262 0.08751 0.0
H1462 H 0.11735 0.44932 0.07134 0.0
H1463 H 0.10069 0.42592 0.06938 0.0
H1464 H 0.09674 0.48191 1.01914 0.0
H1465 H 0.0559 0.42656 1.00367 0.0
H1466 H 0.13337 0.47809 0.98528 0.0
H1467 H 0.1327 0.47588 0.03367 0.0
H1468 H 0.12762 0.49192 1.01292 0.0
H1469 H 0.08318 0.41113 0.96665 0.0
H1470 H 0.06259 0.40375 0.99172 0.0
H1471 H 0.08278 0.40744 1.01462 0.0
C1472 C 0.5506 0.69803 1.01266 0.0
C1473 C 0.5671 0.7048 0.03096 0.0
C1474 C 0.53878 0.67939 1.01026 0.0
C1475 C 0.54365 0.66754 1.02692 0.0
C1476 C 0.55932 0.67451 0.04889 0.0
C1477 C 0.57098 0.69312 0.05033 0.0
C1478 C 0.5221 0.67249 0.98702 0.0
C1479 C 0.56474 0.6623 0.068 0.0
C1480 C 0.51749 0.61699 0.0344 0.0
C1481 C 0.52711 0.6127 1.00941 0.0
C1482 C 0.52133 0.63487 0.03819 0.0
C1483 C 0.53482 0.64837 1.01604 0.0
C1484 C 0.54274 0.64352 0.9876 0.0
C1485 C 0.53895 0.62569 0.985 0.0
C1486 C 0.51243 0.63949 0.06843 0.0
C1487 C 0.55677 0.65744 0.96257 0.0
H1488 H 0.54753 0.70715 0.99798 0.0
H1489 H 0.58361 0.69848 0.06506 0.0
H1490 H 0.52509 0.66956 0.95928 0.0
H1491 H 0.51084 0.65982 0.99817 0.0
H1492 H 0.51769 0.68264 0.98459 0.0
H1493 H 0.5758 0.66976 0.08789 0.0
H1494 H 0.55307 0.65132 0.08253 0.0
H1495 H 0.5694 0.65598 0.04758 0.0
H1496 H 0.50824 0.60679 0.05318 0.0
H1497 H 0.54614 0.62215 0.96538 0.0
H1498 H 0.51019 0.65073 0.06054 0.0
H1499 H 0.52134 0.64386 0.09269 0.0
H1500 H 0.49933 0.62765 0.07627 0.0
H1501 H 0.55245 0.66694 0.95267 0.0
H1502 H 0.55942 0.65115 0.93868 0.0
H1503 H 0.56959 0.66539 0.97773 0.0
C1504 C 0.35905 0.91012 0.99242 0.0
C1505 C 0.37087 0.90612 1.01091 0.0
C1506 C 0.34087 0.89713 0.98869 0.0
C1507 C 0.3344 0.87988 1.00451 0.0
C1508 C 0.34663 0.87528 1.0203 0.0
C1509 C 0.36487 0.88851 1.02316 0.0
C1510 C 0.32832 0.90245 0.97074 0.0
C1511 C 0.34031 0.857 0.03709 0.0
C1512 C 0.28866 0.86665 0.04019 0.0
C1513 C 0.27787 0.8565 1.01114 0.0
C1514 C 0.30706 0.87248 0.04056 0.0
C1515 C 0.31478 0.86846 1.01048 0.0
C1516 C 0.30355 0.85654 0.98301 0.0
C1517 C 0.28501 0.85053 0.9838 0.0
C1518 C 0.31849 0.8847 0.07105 0.0
C1519 C 0.31126 0.85177 0.9508 0.0
H1520 H 0.36385 0.92367 0.98231 0.0
H1521 H 0.37413 0.88538 0.03713 0.0
H1522 H 0.31909 0.8918 0.9516 0.0
H1523 H 0.31995 0.90404 0.99182 0.0
H1524 H 0.33578 0.91535 0.95558 0.0
H1525 H 0.35145 0.85395 0.03912 0.0
H1526 H 0.33526 0.85683 0.06497 0.0
H1527 H 0.3291 0.84619 1.02122 0.0
H1528 H 0.28291 0.87103 0.06144 0.0
H1529 H 0.27651 0.84263 0.96134 0.0
H1530 H 0.32594 0.89882 0.06113 0.0
H1531 H 0.32855 0.88099 0.08019 0.0
H1532 H 0.3102 0.88413 0.09481 0.0
H1533 H 0.3161 0.86278 0.93042 0.0
H1534 H 0.30095 0.83912 0.93756 0.0
H1535 H 0.32291 0.85023 0.9589 0.0
C1536 C 0.46494 0.09959 0.67846 0.0
C1537 C 0.45084 0.08168 0.67662 0.0
C1538 C 0.46139 0.11364 0.6857 0.0
C1539 C 0.44336 0.10954 0.69083 0.0
C1540 C 0.42916 0.09142 0.68928 0.0
C1541 C 0.4331 0.07772 0.68231 0.0
C1542 C 0.47684 0.13279 0.68745 0.0
C1543 C 0.40971 0.08647 0.69459 0.0
C1544 C 0.42644 0.13694 0.73882 0.0
C1545 C 0.41954 0.14194 0.70931 0.0
C1546 C 0.43616 0.12797 0.73314 0.0
C1547 C 0.43887 0.12394 0.69714 0.0
C1548 C 0.43368 0.13079 0.6673 0.0
C1549 C 0.42406 0.13977 0.67378 0.0
C1550 C 0.44179 0.12117 0.76566 0.0
C1551 C 0.43649 0.12692 0.62851 0.0
H1552 H 0.47869 0.10261 0.67416 0.0
H1553 H 0.4222 0.06386 0.68098 0.0
H1554 H 0.47577 0.1407 0.66465 0.0
H1555 H 0.47624 0.13931 0.7131 0.0
H1556 H 0.49015 0.13353 0.6858 0.0
H1557 H 0.40032 0.0717 0.69271 0.0
H1558 H 0.40798 0.09117 0.72162 0.0
H1559 H 0.4058 0.09324 0.67368 0.0
H1560 H 0.42323 0.13893 0.76636 0.0
H1561 H 0.41897 0.14392 0.65091 0.0
H1562 H 0.45526 0.12262 0.76134 0.0
H1563 H 0.43203 0.10662 0.76958 0.0
H1564 H 0.44211 0.12843 0.79096 0.0
H1565 H 0.45008 0.12856 0.62491 0.0
H1566 H 0.43482 0.13587 0.6089 0.0
H1567 H 0.42645 0.11274 0.62176 0.0
C1568 C 0.89241 0.36388 0.62276 0.0
C1569 C 0.90011 0.37381 0.65457 0.0
C1570 C 0.8828 0.345 0.62347 0.0
C1571 C 0.8811 0.33595 0.65672 0.0
C1572 C 0.8878 0.34596 0.68932 0.0
C1573 C 0.89716 0.36484 0.68788 0.0
C1574 C 0.87551 0.33478 0.58829 0.0
C1575 C 0.88625 0.33677 0.72531 0.0
C1576 C 0.8506 0.28547 0.66751 0.0
C1577 C 0.86302 0.27943 0.66382 0.0
C1578 C 0.85611 0.30382 0.66389 0.0
C1579 C 0.87444 0.3163 0.65681 0.0
C1580 C 0.88685 0.31013 0.65162 0.0
C1581 C 0.88094 0.29172 0.65497 0.0
C1582 C 0.84247 0.30991 0.66893 0.0
C1583 C 0.90654 0.32305 0.644 0.0
H1584 H 0.89449 0.37086 0.59703 0.0
H1585 H 0.90302 0.37254 0.71253 0.0
H1586 H 0.88399 0.32903 0.57954 0.0
H1587 H 0.8616 0.32338 0.5921 0.0
H1588 H 0.87544 0.34359 0.56615 0.0
H1589 H 0.8905 0.34634 0.74855 0.0
H1590 H 0.87218 0.32586 0.72996 0.0
H1591 H 0.89486 0.33048 0.72487 0.0
H1592 H 0.83669 0.27591 0.67413 0.0
H1593 H 0.89054 0.28705 0.65194 0.0
H1594 H 0.8434 0.31893 0.64633 0.0
H1595 H 0.84537 0.31774 0.69454 0.0
H1596 H 0.82846 0.29837 0.67023 0.0
H1597 H 0.90798 0.3313 0.61961 0.0
H1598 H 0.91428 0.31598 0.63945 0.0
H1599 H 0.91264 0.33244 0.66728 0.0
C1600 C 0.61937 0.52377 0.70594 0.0
C1601 C 0.60884 0.51094 0.67984 0.0
C1602 C 0.63799 0.53073 0.70721 0.0
C1603 C 0.64617 0.52491 0.68114 0.0
C1604 C 0.63528 0.51026 0.65787 0.0
C1605 C 0.61656 0.50333 0.65756 0.0
C1606 C 0.64905 0.54594 0.73333 0.0
C1607 C 0.64347 0.50337 0.6304 0.0
C1608 C 0.68776 0.56631 0.64894 0.0
C1609 C 0.70098 0.56601 0.67071 0.0
C1610 C 0.67005 0.55195 0.64937 0.0
C1611 C 0.66547 0.53708 0.67265 0.0
C1612 C 0.67915 0.53595 0.6921 0.0
C1613 C 0.6969 0.55052 0.6908 0.0
C1614 C 0.65598 0.55355 0.62742 0.0
C1615 C 0.67489 0.52022 0.71669 0.0
H1616 H 0.61323 0.52937 0.72354 0.0
H1617 H 0.6083 0.49326 0.63753 0.0
H1618 H 0.65991 0.54424 0.74576 0.0
H1619 H 0.6555 0.55892 0.71829 0.0
H1620 H 0.64066 0.54679 0.75542 0.0
H1621 H 0.63367 0.48939 0.62177 0.0
H1622 H 0.64753 0.51213 0.60593 0.0
H1623 H 0.65568 0.50369 0.64148 0.0
H1624 H 0.69108 0.57821 0.63289 0.0
H1625 H 0.70723 0.55026 0.70743 0.0
H1626 H 0.64713 0.55587 0.64603 0.0
H1627 H 0.64737 0.5409 0.61225 0.0
H1628 H 0.66209 0.56487 0.60766 0.0
H1629 H 0.67069 0.5226 0.74371 0.0
H1630 H 0.68689 0.51864 0.72073 0.0
H1631 H 0.6637 0.50745 0.70567 0.0
C1632 C 0.85693 0.56579 0.23414 0.0
C1633 C 0.85448 0.57331 0.20231 0.0
C1634 C 0.86463 0.55472 0.23286 0.0
C1635 C 0.87028 0.55145 0.19897 0.0
C1636 C 0.86665 0.55798 0.16647 0.0
C1637 C 0.85861 0.56878 0.16852 0.0
C1638 C 0.86789 0.54765 0.268 0.0
C1639 C 0.87254 0.5548 0.12983 0.0
C1640 C 0.91296 0.54876 0.19836 0.0
C1641 C 0.90635 0.53043 0.19161 0.0
C1642 C 0.90127 0.55565 0.20137 0.0
C1643 C 0.88247 0.54384 0.19809 0.0
C1644 C 0.87562 0.52514 0.19308 0.0
C1645 C 0.8877 0.51863 0.1897 0.0
C1646 C 0.90911 0.5757 0.20683 0.0
C1647 C 0.85564 0.51213 0.19021 0.0
H1648 H 0.85338 0.56905 0.26025 0.0
H1649 H 0.85656 0.57451 0.14391 0.0
H1650 H 0.86435 0.53336 0.26501 0.0
H1651 H 0.8824 0.55554 0.27513 0.0
H1652 H 0.86 0.54871 0.2909 0.0
H1653 H 0.86674 0.55879 0.10703 0.0
H1654 H 0.88745 0.56278 0.12794 0.0
H1655 H 0.86853 0.5404 0.12654 0.0
H1656 H 0.92738 0.55789 0.20007 0.0
H1657 H 0.88259 0.50441 0.18463 0.0
H1658 H 0.90348 0.57826 0.23182 0.0
H1659 H 0.90537 0.58145 0.18358 0.0
H1660 H 0.92403 0.58297 0.20921 0.0
H1661 H 0.84839 0.51421 0.21304 0.0
H1662 H 0.85245 0.49786 0.19036 0.0
H1663 H 0.8504 0.51466 0.1646 0.0
C1664 C 0.41625 0.28334 0.18462 0.0
C1665 C 0.39755 0.27609 0.18642 0.0
C1666 C 0.42766 0.30177 0.17793 0.0
C1667 C 0.42008 0.31302 0.17342 0.0
C1668 C 0.40116 0.30561 0.17448 0.0
C1669 C 0.39012 0.28718 0.18078 0.0
C1670 C 0.44777 0.30926 0.17641 0.0
C1671 C 0.39258 0.31722 0.16979 0.0
C1672 C 0.44424 0.36275 0.19382 0.0
C1673 C 0.44635 0.36983 0.1587 0.0
C1674 C 0.43685 0.34419 0.19909 0.0
C1675 C 0.43168 0.33266 0.16841 0.0
C1676 C 0.43517 0.33997 0.13288 0.0
C1677 C 0.44238 0.35854 0.12844 0.0
C1678 C 0.43328 0.33684 0.2374 0.0
C1679 C 0.43011 0.32808 0.09956 0.0
H1680 H 0.42196 0.27468 0.18893 0.0
H1681 H 0.37563 0.28153 0.18206 0.0
H1682 H 0.45339 0.31715 0.15107 0.0
H1683 H 0.45433 0.31859 0.19959 0.0
H1684 H 0.45139 0.29848 0.17757 0.0
H1685 H 0.37763 0.30927 0.17112 0.0
H1686 H 0.39745 0.32769 0.19134 0.0
H1687 H 0.39651 0.32428 0.14319 0.0
H1688 H 0.44747 0.37158 0.2172 0.0
H1689 H 0.44433 0.36413 0.10124 0.0
H1690 H 0.43767 0.32673 0.2408 0.0
H1691 H 0.41858 0.32993 0.24285 0.0
H1692 H 0.44026 0.34764 0.25802 0.0
H1693 H 0.43422 0.31775 0.10272 0.0
H1694 H 0.43638 0.33598 0.07446 0.0
H1695 H 0.41526 0.32087 0.09606 0.0
C1696 C 0.6204 0.10781 0.15722 0.0
C1697 C 0.6129 0.09332 0.18162 0.0
C1698 C 0.63917 0.11938 0.15598 0.0
C1699 C 0.65034 0.11624 0.17978 0.0
C1700 C 0.64245 0.1031 0.20757 0.0
C1701 C 0.62379 0.09167 0.20786 0.0
C1702 C 0.64705 0.13359 0.12671 0.0
C1703 C 0.65377 0.09956 0.23421 0.0
C1704 C 0.69144 0.1149 0.14973 0.0
C1705 C 0.70477 0.1286 0.17099 0.0
C1706 C 0.67389 0.11204 0.14917 0.0
C1707 C 0.66958 0.12305 0.17088 0.0
C1708 C 0.68346 0.1381 0.18938 0.0
C1709 C 0.70103 0.14075 0.18918 0.0
C1710 C 0.65962 0.09606 0.12829 0.0
C1711 C 0.67952 0.15042 0.21205 0.0
H1712 H 0.61187 0.10909 0.13703 0.0
H1713 H 0.61782 0.08056 0.22705 0.0
H1714 H 0.6596 0.14562 0.13613 0.0
H1715 H 0.65044 0.12801 0.10266 0.0
H1716 H 0.63728 0.1378 0.11792 0.0
H1717 H 0.64561 0.09082 0.2571 0.0
H1718 H 0.66015 0.09275 0.21992 0.0
H1719 H 0.6647 0.11239 0.24555 0.0
H1720 H 0.69449 0.10576 0.13505 0.0
H1721 H 0.71146 0.15151 0.20532 0.0
H1722 H 0.6511 0.09995 0.11233 0.0
H1723 H 0.65072 0.08535 0.14769 0.0
H1724 H 0.66556 0.0903 0.10937 0.0
H1725 H 0.66854 0.15204 0.19994 0.0
H1726 H 0.69172 0.16392 0.21515 0.0
H1727 H 0.67516 0.14453 0.2396 0.0
C1728 C 0.55918 0.8575 0.50425 0.0
C1729 C 0.5732 0.86347 0.52966 0.0
C1730 C 0.54874 0.86587 0.5018 0.0
C1731 C 0.55221 0.88008 0.52606 0.0
C1732 C 0.56531 0.88498 0.55383 0.0
C1733 C 0.57591 0.87679 0.55488 0.0
C1734 C 0.53511 0.86054 0.47146 0.0
C1735 C 0.56895 0.89968 0.58095 0.0
C1736 C 0.547 0.91981 0.5003 0.0
C1737 C 0.53131 0.91591 0.51912 0.0
C1738 C 0.55324 0.90751 0.5001 0.0
C1739 C 0.54378 0.89128 0.52017 0.0
C1740 C 0.52742 0.88691 0.53772 0.0
C1741 C 0.52123 0.89924 0.53656 0.0
C1742 C 0.57047 0.91233 0.48009 0.0
C1743 C 0.51719 0.8699 0.55993 0.0
H1744 H 0.55726 0.84725 0.48457 0.0
H1745 H 0.58675 0.88123 0.57457 0.0
H1746 H 0.52235 0.85931 0.48156 0.0
H1747 H 0.54049 0.8712 0.45027 0.0
H1748 H 0.53213 0.84759 0.45859 0.0
H1749 H 0.57778 0.90012 0.60358 0.0
H1750 H 0.57565 0.91295 0.56702 0.0
H1751 H 0.55613 0.8977 0.59258 0.0
H1752 H 0.55462 0.93266 0.48652 0.0
H1753 H 0.50905 0.89627 0.55117 0.0
H1754 H 0.56874 0.90078 0.46338 0.0
H1755 H 0.58138 0.91545 0.50003 0.0
H1756 H 0.57482 0.92422 0.46208 0.0
H1757 H 0.51576 0.85805 0.54476 0.0
H1758 H 0.50357 0.86734 0.56766 0.0
H1759 H 0.52484 0.87113 0.58519 0.0
C1760 C 0.08576 0.61809 0.49809 0.0
C1761 C 0.08299 0.6107 0.53304 0.0
C1762 C 0.09559 0.63683 0.49322 0.0
C1763 C 0.10286 0.64818 0.52404 0.0
C1764 C 0.10187 0.64057 0.55871 0.0
C1765 C 0.09181 0.62185 0.56283 0.0
C1766 C 0.0965 0.64446 0.45575 0.0
C1767 C 0.10977 0.6522 0.5921 0.0
C1768 C 0.13032 0.69882 0.51023 0.0
C1769 C 0.11699 0.70364 0.5144 0.0
C1770 C 0.12606 0.6808 0.51374 0.0
C1771 C 0.10808 0.66744 0.52135 0.0
C1772 C 0.09471 0.67236 0.52646 0.0
C1773 C 0.09937 0.69044 0.52307 0.0
C1774 C 0.14066 0.67602 0.50858 0.0
C1775 C 0.07537 0.65849 0.53483 0.0
H1776 H 0.07904 0.60939 0.47502 0.0
H1777 H 0.08988 0.61602 0.58981 0.0
H1778 H 0.08674 0.64939 0.45408 0.0
H1779 H 0.11009 0.65609 0.45035 0.0
H1780 H 0.09313 0.63419 0.43414 0.0
H1781 H 0.11097 0.64446 0.61516 0.0
H1782 H 0.12326 0.66389 0.58619 0.0
H1783 H 0.10091 0.65754 0.60072 0.0
H1784 H 0.14398 0.70909 0.50358 0.0
H1785 H 0.08907 0.69417 0.52639 0.0
H1786 H 0.13787 0.6677 0.48369 0.0
H1787 H 0.14083 0.66783 0.53182 0.0
H1788 H 0.15422 0.68817 0.50594 0.0
H1789 H 0.06979 0.64834 0.51267 0.0
H1790 H 0.06666 0.66461 0.53795 0.0
H1791 H 0.0747 0.65125 0.56033 0.0
C1792 C 0.36725 0.46732 0.57095 0.0
C1793 C 0.37757 0.47061 0.53935 0.0
C1794 C 0.34838 0.4574 0.56943 0.0
C1795 C 0.33981 0.45056 0.53554 0.0
C1796 C 0.35017 0.455 0.50325 0.0
C1797 C 0.36898 0.46508 0.50555 0.0
C1798 C 0.33773 0.45323 0.60431 0.0
C1799 C 0.3415 0.44799 0.46658 0.0
C1800 C 0.29679 0.40551 0.53175 0.0
C1801 C 0.2841 0.41068 0.52318 0.0
C1802 C 0.31491 0.41846 0.5371 0.0
C1803 C 0.32036 0.43699 0.53414 0.0
C1804 C 0.30742 0.4423 0.52731 0.0
C1805 C 0.28939 0.42903 0.52168 0.0
C1806 C 0.32835 0.41228 0.54435 0.0
C1807 C 0.31271 0.46193 0.52456 0.0
H1808 H 0.37391 0.47182 0.59709 0.0
H1809 H 0.37698 0.46778 0.48104 0.0
H1810 H 0.32593 0.45515 0.60075 0.0
H1811 H 0.33254 0.43891 0.61175 0.0
H1812 H 0.34607 0.46182 0.62722 0.0
H1813 H 0.35126 0.45412 0.44386 0.0
H1814 H 0.33573 0.43316 0.4656 0.0
H1815 H 0.33026 0.45073 0.46224 0.0
H1816 H 0.29267 0.39132 0.5331 0.0
H1817 H 0.27953 0.43303 0.51522 0.0
H1818 H 0.33615 0.41874 0.56941 0.0
H1819 H 0.33809 0.41644 0.52151 0.0
H1820 H 0.32177 0.39742 0.54751 0.0
H1821 H 0.32139 0.46964 0.54786 0.0
H1822 H 0.30078 0.46381 0.52385 0.0
H1823 H 0.32065 0.46777 0.49937 0.0
C1824 C 0.79392 0.75745 0.35749 0.0
C1825 C 0.79679 0.75436 0.32135 0.0
C1826 C 0.78533 0.76733 0.36547 0.0
C1827 C 0.7796 0.77422 0.33655 0.0
C1828 C 0.78418 0.7727 0.30026 0.0
C1829 C 0.79274 0.76274 0.29307 0.0
C1830 C 0.78086 0.76886 0.40457 0.0
C1831 C 0.77852 0.78008 0.26874 0.0
C1832 C 0.73476 0.77168 0.35122 0.0
C1833 C 0.73999 0.78955 0.35972 0.0
C1834 C 0.74759 0.76665 0.34319 0.0
C1835 C 0.76611 0.77987 0.34362 0.0
C1836 C 0.77149 0.79807 0.35131 0.0
C1837 C 0.7583 0.80272 0.35935 0.0
C1838 C 0.7413 0.7471 0.33486 0.0
C1839 C 0.79111 0.81249 0.35176 0.0
H1840 H 0.79729 0.75118 0.37942 0.0
H1841 H 0.79525 0.7606 0.2651 0.0
H1842 H 0.78346 0.78266 0.41051 0.0
H1843 H 0.76632 0.7594 0.40939 0.0
H1844 H 0.78875 0.76553 0.42392 0.0
H1845 H 0.78587 0.78072 0.24337 0.0
H1846 H 0.76388 0.77121 0.26371 0.0
H1847 H 0.78083 0.79375 0.27498 0.0
H1848 H 0.72059 0.76152 0.35134 0.0
H1849 H 0.76233 0.81657 0.36591 0.0
H1850 H 0.74691 0.74164 0.3552 0.0
H1851 H 0.74627 0.7459 0.30772 0.0
H1852 H 0.72638 0.73859 0.33511 0.0
H1853 H 0.7981 0.80989 0.3744 0.0
H1854 H 0.79294 0.82619 0.35526 0.0
H1855 H 0.79778 0.81216 0.32613 0.0
C1856 C 0.18463 0.9529 0.4117 0.0
C1857 C 0.18169 0.94306 0.37949 0.0
C1858 C 0.19384 0.9718 0.41111 0.0
C1859 C 0.20041 0.98086 0.37759 0.0
C1860 C 0.19602 0.97093 0.3447 0.0
C1861 C 0.18654 0.95209 0.34605 0.0
C1862 C 0.19778 0.98197 0.44658 0.0
C1863 C 0.20277 0.98013 0.30837 0.0
C1864 C 0.22264 0.03138 0.36486 0.0
C1865 C 0.24089 0.0363 0.36591 0.0
C1866 C 0.20915 0.01346 0.3708 0.0
C1867 C 0.21415 0.00025 0.37713 0.0
C1868 C 0.23259 0.00536 0.37983 0.0
C1869 C 0.24576 0.02339 0.37448 0.0
C1870 C 0.18963 0.00858 0.36864 0.0
C1871 C 0.23847 0.99162 0.38641 0.0
H1872 H 0.18059 0.94589 0.43756 0.0
H1873 H 0.18407 0.94446 0.32105 0.0
H1874 H 0.21198 0.98685 0.45455 0.0
H1875 H 0.19609 -0.00605 0.44366 0.0
H1876 H 0.1889 0.97334 0.46886 0.0
H1877 H 0.19652 0.97066 0.28521 0.0
H1878 H 0.19998 0.99138 0.30523 0.0
H1879 H 0.21759 0.98593 0.30691 0.0
H1880 H 0.21887 0.04142 0.3584 0.0
H1881 H 0.25988 0.02723 0.37548 0.0
H1882 H 0.18171 -0.00083 0.39086 0.0
H1883 H 0.18381 0.00163 0.34247 0.0
H1884 H 0.18805 0.02068 0.37022 0.0
H1885 H 0.23204 0.98377 0.41142 0.0
H1886 H 0.25332 -0.00206 0.38931 0.0
H1887 H 0.23405 0.98196 0.36336 0.0
C1888 C 0.9561 0.19911 0.28823 0.0
C1889 C 0.94424 0.19329 0.31781 0.0
C1890 C 0.97478 0.20865 0.2938 0.0
C1891 C 0.98157 0.21256 0.32978 0.0
C1892 C 0.96963 0.20564 0.35971 0.0
C1893 C 0.95104 0.196 0.35332 0.0
C1894 C 0.98714 0.21556 0.26124 0.0
C1895 C 0.97638 0.20959 0.39847 0.0
C1896 C 0.03175 0.23397 0.34798 0.0
C1897 C 0.03676 0.25224 0.34971 0.0
C1898 C 0.01381 0.22078 0.34093 0.0
C1899 C 0.00073 0.22609 0.3361 0.0
C1900 C 0.0058 0.24455 0.33782 0.0
C1901 C 0.0238 0.2574 0.34439 0.0
C1902 C 0.00885 0.20123 0.3388 0.0
C1903 C -0.00782 0.25073 0.33308 0.0
H1904 H 0.9508 0.19675 0.26074 0.0
H1905 H 0.94182 0.1914 0.3762 0.0
H1906 H -0.00733 0.23031 0.25863 0.0
H1907 H -0.0013 0.21326 0.26473 0.0
H1908 H 0.98001 0.20902 0.23556 0.0
H1909 H 0.96565 0.20126 0.41837 0.0
H1910 H 0.98783 0.20716 0.40233 0.0
H1911 H 0.98135 0.22402 0.40458 0.0
H1912 H 0.04183 0.23001 0.35206 0.0
H1913 H 0.02768 0.27154 0.34574 0.0
H1914 H 0.00219 0.19538 0.3124 0.0
H1915 H -0.00094 0.19344 0.36057 0.0
H1916 H 0.02078 0.19944 0.34168 0.0
H1917 H 0.98564 0.24651 0.30602 0.0
H1918 H -0.00162 0.26559 0.33543 0.0
H1919 H 0.98145 0.24431 0.35394 0.0
C1920 C 0.22985 0.19799 0.88337 0.0
C1921 C 0.22748 0.18416 0.85981 0.0
C1922 C 0.21829 0.20511 0.88189 0.0
C1923 C 0.20435 0.19848 0.85553 0.0
C1924 C 0.20106 0.18356 0.83358 0.0
C1925 C 0.21263 0.17642 0.83624 0.0
C1926 C 0.22193 0.22069 0.90653 0.0
C1927 C 0.18641 0.17619 0.80507 0.0
C1928 C 0.17365 0.21823 0.8647 0.0
C1929 C 0.18336 0.23415 0.84462 0.0
C1930 C 0.17958 0.20564 0.86671 0.0
C1931 C 0.19531 0.20904 0.84759 0.0
C1932 C 0.20405 0.22427 0.82449 0.0
C1933 C 0.19808 0.23678 0.82367 0.0
C1934 C 0.16996 0.18963 0.89173 0.0
C1935 C 0.22059 0.22813 0.80285 0.0
H1936 H 0.24127 0.20381 0.9018 0.0
H1937 H 0.21084 0.1657 0.81795 0.0
H1938 H 0.22776 0.23331 0.89035 0.0
H1939 H 0.20922 0.21864 0.91885 0.0
H1940 H 0.23152 0.22251 0.92871 0.0
H1941 H 0.18333 0.16264 0.79549 0.0
H1942 H 0.17388 0.17533 0.81564 0.0
H1943 H 0.19088 0.18544 0.78134 0.0
H1944 H 0.16225 0.21624 0.88099 0.0
H1945 H 0.20544 0.24906 0.80791 0.0
H1946 H 0.17782 0.1923 0.91727 0.0
H1947 H 0.16887 0.17732 0.87924 0.0
H1948 H 0.15625 0.18698 0.89884 0.0
H1949 H 0.23217 0.23229 0.8216 0.0
H1950 H 0.22423 0.23905 0.7826 0.0
H1951 H 0.21842 0.21583 0.78835 0.0
C1952 C 0.80356 0.02887 0.78953 0.0
C1953 C 0.8078 0.04087 0.81869 0.0
C1954 C 0.79567 0.0103 0.79585 0.0
C1955 C 0.79181 0.00379 0.83203 0.0
C1956 C 0.79841 0.01609 0.86145 0.0
C1957 C 0.80638 0.03457 0.85439 0.0
C1958 C 0.78952 -0.00242 0.76382 0.0
C1959 C 0.79493 0.00972 0.90045 0.0
C1960 C 0.74506 0.96518 0.8497 0.0
C1961 C 0.74833 0.95123 0.85898 0.0
C1962 C 0.75913 0.98214 0.83989 0.0
C1963 C 0.77697 0.9852 0.8389 0.0
C1964 C 0.78032 0.97093 0.8467 0.0
C1965 C 0.76589 0.95404 0.85702 0.0
C1966 C 0.75487 -0.00306 0.83173 0.0
C1967 C 0.79909 0.97355 0.84536 0.0
H1968 H 0.80511 0.0338 0.76183 0.0
H1969 H 0.81006 0.0439 0.87699 0.0
H1970 H 0.79117 0.98575 0.76941 0.0
H1971 H 0.775 0.99255 0.75876 0.0
H1972 H 0.79709 0.0044 0.73872 0.0
H1973 H 0.80359 0.02066 0.91973 0.0
H1974 H 0.78063 0.00499 0.90725 0.0
H1975 H 0.79731 -0.00177 0.90442 0.0
H1976 H 0.73146 0.96298 0.85085 0.0
H1977 H 0.76839 0.94317 0.864 0.0
H1978 H 0.75964 0.00243 0.80406 0.0
H1979 H 0.76196 0.00818 0.85138 0.0
H1980 H 0.74021 0.99217 0.8333 0.0
H1981 H 0.80718 0.98294 0.82324 0.0
H1982 H 0.79877 0.96053 0.84137 0.0
H1983 H 0.80603 0.97942 0.87151 0.0
C1984 C 0.02688 0.79312 0.83365 0.0
C1985 C 0.03437 0.79635 0.86859 0.0
C1986 C 0.00816 0.78371 0.82888 0.0
C1987 C -0.00317 0.77768 0.85986 0.0
C1988 C 0.00437 0.78214 0.89518 0.0
C1989 C 0.02313 0.79137 0.89914 0.0
C1990 C 0.00056 0.77916 0.79078 0.0
C1991 C -0.00732 0.77624 0.92879 0.0
C1992 C 0.94698 0.75941 0.84428 0.0
C1993 C 0.94062 0.74082 0.84294 0.0
C1994 C 0.96524 0.77164 0.85075 0.0
C1995 C 0.97732 0.76505 0.85532 0.0
C1996 C 0.97087 0.74626 0.85455 0.0
C1997 C 0.95252 0.73434 0.84861 0.0
C1998 C 0.97163 0.79157 0.85202 0.0
C1999 C 0.98342 0.73877 0.85914 0.0
H2000 H 0.03562 0.79709 0.81003 0.0
H2001 H 0.029 0.79411 0.92618 0.0
H2002 H -0.00556 0.76444 0.78618 0.0
H2003 H 0.98976 0.78259 0.78717 0.0
H2004 H 0.01106 0.78636 0.76973 0.0
H2005 H 0.00049 0.78289 0.9538 0.0
H2006 H 0.98157 0.77929 0.92606 0.0
H2007 H 0.98646 0.76144 0.93216 0.0
H2008 H 0.93773 0.76441 0.83989 0.0
H2009 H 0.94757 0.71996 0.84756 0.0
H2010 H 0.98086 0.79846 0.82889 0.0
H2011 H 0.97935 0.79757 0.87741 0.0
H2012 H 0.96029 0.79436 0.85063 0.0
H2013 H -0.00625 0.74404 0.83732 0.0
H2014 H 0.97619 0.72381 0.85817 0.0
H2015 H -0.00937 0.74322 0.88553 0.0
C2016 C 0.02057 0.47168 0.8978 0.0
C2017 C 0.01869 0.45966 0.92568 0.0
C2018 C 0.00963 0.46571 0.86644 0.0
C2019 C -0.00306 0.44712 0.86209 0.0
C2020 C -0.00449 0.43484 0.8896 0.0
C2021 C 0.00613 0.44129 0.92133 0.0
C2022 C 0.0112 0.47943 0.83865 0.0
C2023 C 0.98262 0.41487 0.88569 0.0
C2024 C 0.95552 0.43327 0.80262 0.0
C2025 C 0.96071 0.42938 0.76907 0.0
C2026 C 0.96718 0.43913 0.83279 0.0
C2027 C 0.9844 0.44069 0.82999 0.0
C2028 C 0.98959 0.43634 0.79648 0.0
C2029 C 0.97782 0.43106 0.76626 0.0
C2030 C 0.96123 0.44418 0.86738 0.0
C2031 C 0.00761 0.43737 0.79251 0.0
H2032 H 0.03015 0.48592 0.90115 0.0
H2033 H 0.00472 0.43192 0.94266 0.0
H2034 H 0.01407 0.47593 0.81136 0.0
H2035 H -0.0018 0.4793 0.83669 0.0
H2036 H 0.02196 0.49331 0.84561 0.0
H2037 H 0.98431 0.40694 0.90771 0.0
H2038 H 0.96854 0.41217 0.88629 0.0
H2039 H 0.98466 0.41003 0.85906 0.0
H2040 H 0.94249 0.4324 0.80504 0.0
H2041 H 0.98201 0.42822 0.74046 0.0
H2042 H 0.97086 0.45844 0.87442 0.0
H2043 H 0.96122 0.43576 0.89032 0.0
H2044 H 0.94753 0.44249 0.86498 0.0
H2045 H 0.01861 0.45152 0.79574 0.0
H2046 H 0.00912 0.43234 0.76562 0.0
H2047 H 0.00933 0.42934 0.81423 0.0
C2048 C 0.52796 0.55461 0.88234 0.0
C2049 C 0.53922 0.56002 0.91316 0.0
C2050 C 0.53146 0.54689 0.85196 0.0
C2051 C 0.54691 0.5449 0.85168 0.0
C2052 C 0.55885 0.55116 0.88183 0.0
C2053 C 0.55477 0.55846 0.91236 0.0
C2054 C 0.51814 0.54011 0.82082 0.0
C2055 C 0.57568 0.54967 0.88228 0.0
C2056 C 0.54548 0.50859 0.78911 0.0
C2057 C 0.55407 0.51855 0.75779 0.0
C2058 C 0.54326 0.51701 0.82005 0.0
C2059 C 0.55023 0.53592 0.82005 0.0
C2060 C 0.55946 0.5461 0.78892 0.0
C2061 C 0.56107 0.53728 0.75807 0.0
C2062 C 0.53299 0.50557 0.85232 0.0
C2063 C 0.56738 0.56629 0.78794 0.0
H2064 H 0.5158 0.55555 0.88251 0.0
H2065 H 0.56353 0.5625 0.93597 0.0
H2066 H 0.52505 0.54635 0.79488 0.0
H2067 H 0.51224 0.52531 0.81793 0.0
H2068 H 0.50698 0.54302 0.82484 0.0
H2069 H 0.58432 0.55648 0.90629 0.0
H2070 H 0.57194 0.53526 0.88275 0.0
H2071 H 0.58365 0.55567 0.85718 0.0
H2072 H 0.53997 0.49411 0.78905 0.0
H2073 H 0.56789 0.5451 0.73411 0.0
H2074 H 0.52108 0.5071 0.85781 0.0
H2075 H 0.5416 0.51019 0.87699 0.0
H2076 H 0.52831 0.49105 0.84798 0.0
H2077 H 0.55642 0.56961 0.78932 0.0
H2078 H 0.57535 0.57241 0.76286 0.0
H2079 H 0.5762 0.57258 0.81194 0.0
C2080 C 0.43585 0.96358 0.89752 0.0
C2081 C 0.42785 0.96574 0.92896 0.0
C2082 C 0.43967 0.97507 0.86734 0.0
C2083 C 0.43491 0.98874 0.86823 0.0
C2084 C 0.42626 0.99055 0.89948 0.0
C2085 C 0.42307 0.97921 0.92959 0.0
C2086 C 0.4493 0.97292 0.83497 0.0
C2087 C 0.42053 0.0046 0.90124 0.0
C2088 C 0.46032 0.02958 0.80638 0.0
C2089 C 0.44892 0.02473 0.77593 0.0
C2090 C 0.45589 0.01806 0.83662 0.0
C2091 C 0.43941 0.00145 0.83693 0.0
C2092 C 0.42746 -0.00311 0.80699 0.0
C2093 C 0.43247 0.00844 0.77666 0.0
C2094 C 0.46923 0.02332 0.86752 0.0
C2095 C 0.40958 0.97956 0.80659 0.0
H2096 H 0.43972 0.95329 0.89696 0.0
H2097 H 0.41675 0.98086 0.95371 0.0
H2098 H 0.4413 0.97081 0.80984 0.0
H2099 H 0.46244 0.98544 0.8311 0.0
H2100 H 0.45176 0.96142 0.8382 0.0
H2101 H 0.41296 0.00353 0.92653 0.0
H2102 H 0.43256 0.01827 0.90001 0.0
H2103 H 0.41194 0.00322 0.87746 0.0
H2104 H 0.47321 0.04198 0.80585 0.0
H2105 H 0.42363 0.00458 0.75319 0.0
H2106 H 0.47381 0.01331 0.86994 0.0
H2107 H 0.46273 0.02326 0.89366 0.0
H2108 H 0.48123 0.03689 0.86357 0.0
H2109 H 0.41183 0.96788 0.80608 0.0
H2110 H 0.40123 0.97864 0.78265 0.0
H2111 H 0.40191 0.97843 0.83174 0.0
C2112 C 0.97854 0.54086 0.26908 0.0
C2113 C 0.96166 0.52506 0.27024 0.0
C2114 C 0.98996 0.54674 0.29979 0.0
C2115 C 0.98465 0.53629 0.33214 0.0
C2116 C 0.96767 0.52025 0.33328 0.0
C2117 C 0.95632 0.51499 0.30259 0.0
C2118 C 0.00779 0.56406 0.29753 0.0
C2119 C 0.96166 0.50833 0.3666 0.0
C2120 C 0.02076 0.5406 0.39898 0.0
C2121 C 0.01905 0.55054 0.42762 0.0
C2122 C 0.00985 0.53608 0.3677 0.0
C2123 C -0.00303 0.54179 0.36451 0.0
C2124 C -0.00456 0.55217 0.39293 0.0
C2125 C 0.00635 0.55626 0.42423 0.0
C2126 C 0.01179 0.52473 0.33853 0.0
C2127 C 0.98214 0.55883 0.39039 0.0
H2128 H 0.9828 0.54868 0.24418 0.0
H2129 H 0.94346 0.50259 0.30358 0.0
H2130 H 0.00894 0.57321 0.32005 0.0
H2131 H 0.01899 0.56119 0.30072 0.0
H2132 H 0.00952 0.57115 0.27124 0.0
H2133 H 0.94797 0.49643 0.36336 0.0
H2134 H 0.97128 0.5035 0.37224 0.0
H2135 H 0.96167 0.51612 0.39073 0.0
H2136 H 0.03036 0.53592 0.40133 0.0
H2137 H 0.00495 0.564 0.44603 0.0
H2138 H 0.02332 0.52253 0.34377 0.0
H2139 H 0.0137 0.5312 0.3115 0.0
H2140 H -0.00074 0.51142 0.33709 0.0
H2141 H 0.98426 0.56647 0.36473 0.0
H2142 H 0.98331 0.56763 0.41367 0.0
H2143 H 0.96821 0.54719 0.38971 0.0
C2144 C 0.43759 0.4173 0.2871 0.0
C2145 C 0.45189 0.43084 0.26726 0.0
C2146 C 0.43156 0.4214 0.31944 0.0
C2147 C 0.44037 0.43938 0.33258 0.0
C2148 C 0.45503 0.45302 0.31267 0.0
C2149 C 0.46048 0.4486 0.28003 0.0
C2150 C 0.41565 0.40655 0.33932 0.0
C2151 C 0.46502 0.4723 0.32589 0.0
C2152 C 0.4179 0.4574 0.39593 0.0
C2153 C 0.42567 0.45754 0.42972 0.0
C2154 C 0.42182 0.45062 0.36453 0.0
C2155 C 0.4341 0.44413 0.36663 0.0
C2156 C 0.44128 0.44338 0.40095 0.0
C2157 C 0.43671 0.44979 0.43215 0.0
C2158 C 0.41346 0.45126 0.32875 0.0
C2159 C 0.45468 0.43688 0.4044 0.0
H2160 H 0.43102 0.40355 0.27709 0.0
H2161 H 0.47166 0.45899 0.26469 0.0
H2162 H 0.41959 0.40528 0.36744 0.0
H2163 H 0.40475 0.40994 0.34148 0.0
H2164 H 0.41021 0.39332 0.32544 0.0
H2165 H 0.4767 0.48109 0.30828 0.0
H2166 H 0.45577 0.47786 0.32657 0.0
H2167 H 0.46995 0.47286 0.35407 0.0
H2168 H 0.40918 0.46316 0.39367 0.0
H2169 H 0.44262 0.4496 0.45808 0.0
H2170 H 0.40792 0.43816 0.31435 0.0
H2171 H 0.42393 0.46171 0.31098 0.0
H2172 H 0.4025 0.45448 0.33243 0.0
H2173 H 0.44931 0.42344 0.39156 0.0
H2174 H 0.4581 0.436 0.43322 0.0
H2175 H 0.46726 0.44629 0.3898 0.0
C2176 C 0.55158 0.03648 0.30655 0.0
C2177 C 0.55947 0.03311 0.2763 0.0
C2178 C 0.54576 0.02487 0.33678 0.0
C2179 C 0.54822 0.00968 0.33722 0.0
C2180 C 0.55686 0.00663 0.30742 0.0
C2181 C 0.56217 0.01824 0.27715 0.0
C2182 C 0.5363 0.02847 0.36758 0.0
C2183 C 0.56013 0.99086 0.30715 0.0
C2184 C 0.54531 0.98841 0.42991 0.0
C2185 C 0.52791 0.97332 0.4292 0.0
C2186 C 0.55227 4e-05 0.39981 0.0
C2187 C 0.5414 -0.00319 0.36853 0.0
C2188 C 0.52383 0.98151 0.36756 0.0
C2189 C 0.5174 0.96982 0.3977 0.0
C2190 C 0.57119 0.01592 0.40169 0.0
C2191 C 0.51161 0.97778 0.33515 0.0
H2192 H 0.54911 0.04772 0.3059 0.0
H2193 H 0.56821 0.01552 0.25386 0.0
H2194 H 0.5222 0.0172 0.3696 0.0
H2195 H 0.543 0.02917 0.39385 0.0
H2196 H 0.53608 0.04124 0.36376 0.0
H2197 H 0.56812 0.99107 0.28316 0.0
H2198 H 0.56735 0.99089 0.33225 0.0
H2199 H 0.54705 0.97805 0.30683 0.0
H2200 H 0.55354 0.99113 0.45408 0.0
H2201 H 0.50387 0.95829 0.3971 0.0
H2202 H 0.57082 0.02867 0.40039 0.0
H2203 H 0.57913 0.01576 0.37798 0.0
H2204 H 0.57828 0.01594 0.42704 0.0
H2205 H 0.50894 0.9891 0.3314 0.0
H2206 H 0.49851 0.9651 0.33826 0.0
H2207 H 0.51825 0.97684 0.31 0.0
C2208 C 0.68711 0.79844 0.24452 0.0
C2209 C 0.68247 0.7881 0.27646 0.0
C2210 C 0.67514 0.79335 0.21491 0.0
C2211 C 0.6583 0.77717 0.2167 0.0
C2212 C 0.65378 0.76636 0.24846 0.0
C2213 C 0.66577 0.77212 0.27822 0.0
C2214 C 0.68032 0.80561 0.18216 0.0
C2215 C 0.63622 0.74878 0.25113 0.0
C2216 C 0.62091 0.77224 0.15271 0.0
C2217 C 0.62331 0.76347 0.12282 0.0
C2218 C 0.63206 0.77664 0.18366 0.0
C2219 C 0.64554 0.77162 0.18519 0.0
C2220 C 0.6474 0.76202 0.15569 0.0
C2221 C 0.63649 0.75834 0.12467 0.0
C2222 C 0.62993 0.78735 0.21394 0.0
C2223 C 0.66115 0.75589 0.1566 0.0
H2224 H 0.6998 0.81101 0.24324 0.0
H2225 H 0.66205 0.76415 0.30293 0.0
H2226 H 0.68041 0.79828 0.15735 0.0
H2227 H 0.6702 0.80992 0.1778 0.0
H2228 H 0.69381 0.81783 0.18521 0.0
H2229 H 0.63516 0.74144 0.27678 0.0
H2230 H 0.62475 0.75134 0.24979 0.0
H2231 H 0.63485 0.73997 0.22775 0.0
H2232 H 0.61084 0.77637 0.15126 0.0
H2233 H 0.63828 0.75142 0.10173 0.0
H2234 H 0.6422 0.80086 0.21552 0.0
H2235 H 0.62849 0.78065 0.24053 0.0
H2236 H 0.61807 0.78915 0.20977 0.0
H2237 H 0.67493 0.76778 0.15637 0.0
H2238 H 0.65979 0.74717 0.13303 0.0
H2239 H 0.65975 0.74833 0.18207 0.0
C2240 C 0.23223 0.88448 0.11207 0.0
C2241 C 0.22688 0.86616 0.10872 0.0
C2242 C 0.22798 0.89112 0.14338 0.0
C2243 C 0.21759 0.87907 0.17154 0.0
C2244 C 0.21259 0.86063 0.16868 0.0
C2245 C 0.2175 0.85447 0.1376 0.0
C2246 C 0.23408 0.91095 0.14575 0.0
C2247 C 0.20112 0.84714 0.19743 0.0
C2248 C 0.21214 0.89484 0.26573 0.0
C2249 C 0.19573 0.89464 0.26197 0.0
C2250 C 0.21984 0.89055 0.23617 0.0
C2251 C 0.21062 0.88534 0.20236 0.0
C2252 C 0.19417 0.88535 0.19836 0.0
C2253 C 0.1871 0.89023 0.22794 0.0
C2254 C 0.23763 0.8912 0.24136 0.0
C2255 C 0.18357 0.87944 0.16326 0.0
H2256 H 0.23951 0.8936 0.08992 0.0
H2257 H 0.21307 0.84024 0.13507 0.0
H2258 H 0.22227 0.91293 0.14317 0.0
H2259 H 0.24036 0.9164 0.17263 0.0
H2260 H 0.24389 0.91886 0.12404 0.0
H2261 H 0.19946 0.83359 0.1925 0.0
H2262 H 0.20712 0.85182 0.22479 0.0
H2263 H 0.18757 0.84588 0.1978 0.0
H2264 H 0.21889 0.89816 0.29191 0.0
H2265 H 0.17426 0.88972 0.22479 0.0
H2266 H 0.24708 0.89914 0.2192 0.0
H2267 H 0.23561 0.87737 0.23996 0.0
H2268 H 0.24396 0.89724 0.26794 0.0
H2269 H 0.19198 0.8878 0.14029 0.0
H2270 H 0.17113 0.88043 0.16437 0.0
H2271 H 0.17972 0.86526 0.15726 0.0
C2272 C 0.09933 0.29812 0.2184 0.0
C2273 C 0.09474 0.30485 0.24894 0.0
C2274 C 0.1065 0.30864 0.18686 0.0
C2275 C 0.10879 0.32621 0.18539 0.0
C2276 C 0.10337 0.33274 0.21549 0.0
C2277 C 0.09662 0.32208 0.247 0.0
C2278 C 0.11241 0.30125 0.15579 0.0
C2279 C 0.10519 0.35121 0.21483 0.0
C2280 C 0.14445 0.36146 0.12263 0.0
C2281 C 0.13419 0.3608 0.09225 0.0
C2282 C 0.13641 0.35009 0.15278 0.0
C2283 C 0.11754 0.33806 0.15309 0.0
C2284 C 0.10709 0.33748 0.12265 0.0
C2285 C 0.11556 0.34868 0.09246 0.0
C2286 C 0.14816 0.35086 0.18421 0.0
C2287 C 0.08692 0.32513 0.12213 0.0
H2288 H 0.09817 0.28493 0.21973 0.0
H2289 H 0.09311 0.32739 0.27044 0.0
H2290 H 0.10628 0.30218 0.12988 0.0
H2291 H 0.12726 0.30945 0.15258 0.0
H2292 H 0.10873 0.28697 0.16022 0.0
H2293 H 0.099 0.3537 0.23908 0.0
H2294 H 0.11965 0.36168 0.21389 0.0
H2295 H 0.09874 0.35281 0.19 0.0
H2296 H 0.15887 0.37067 0.1226 0.0
H2297 H 0.10751 0.34816 0.06921 0.0
H2298 H 0.1465 0.33732 0.18903 0.0
H2299 H 0.14397 0.35487 0.20945 0.0
H2300 H 0.16266 0.36056 0.17932 0.0
H2301 H 0.08363 0.31091 0.12487 0.0
H2302 H 0.08066 0.32648 0.0967 0.0
H2303 H 0.08074 0.32816 0.14565 0.0
C2304 C 0.62715 0.84994 0.64917 0.0
C2305 C 0.62981 0.86051 0.61815 0.0
C2306 C 0.63824 0.85715 0.67999 0.0
C2307 C 0.65203 0.87551 0.6801 0.0
C2308 C 0.65434 0.88638 0.64926 0.0
C2309 C 0.64337 0.87869 0.6185 0.0
C2310 C 0.63561 0.84494 0.71189 0.0
C2311 C 0.66859 0.90609 0.64852 0.0
C2312 C 0.67181 0.89683 0.7722 0.0
C2313 C 0.68794 0.89633 0.77265 0.0
C2314 C 0.6602 0.89053 0.7419 0.0
C2315 C 0.66459 0.88315 0.71171 0.0
C2316 C 0.681 0.88289 0.7118 0.0
C2317 C 0.69254 0.88968 0.742 0.0
C2318 C 0.64305 0.89144 0.74249 0.0
C2319 C 0.68606 0.87481 0.68058 0.0
H2320 H 0.6168 0.83584 0.64888 0.0
H2321 H 0.64539 0.88696 0.59467 0.0
H2322 H 0.64781 0.84369 0.71546 0.0
H2323 H 0.63379 0.85082 0.73734 0.0
H2324 H 0.62378 0.83123 0.70822 0.0
H2325 H 0.66778 0.91298 0.62357 0.0
H2326 H 0.6672 0.91309 0.67266 0.0
H2327 H 0.68216 0.90747 0.6498 0.0
H2328 H 0.66812 0.9019 0.79576 0.0
H2329 H 0.70483 0.88899 0.74216 0.0
H2330 H 0.63122 0.87761 0.74214 0.0
H2331 H 0.6422 0.89844 0.71779 0.0
H2332 H 0.64213 0.89858 0.76691 0.0
H2333 H 0.67592 0.86029 0.67792 0.0
H2334 H 0.69954 0.87613 0.68435 0.0
H2335 H 0.68609 0.88143 0.65462 0.0
C2336 C 0.13205 0.77384 0.62954 0.0
C2337 C 0.12043 0.7667 0.5995 0.0
C2338 C 0.12706 0.77982 0.66073 0.0
C2339 C 0.1098 0.77827 0.66246 0.0
C2340 C 0.09783 0.77066 0.63258 0.0
C2341 C 0.10337 0.76519 0.60132 0.0
C2342 C 0.14047 0.7883 0.69139 0.0
C2343 C 0.07921 0.76843 0.63354 0.0
C2344 C 0.09235 0.7808 0.75675 0.0
C2345 C 0.09542 0.79851 0.75736 0.0
C2346 C 0.09661 0.77392 0.72583 0.0
C2347 C 0.10454 0.78512 0.69504 0.0
C2348 C 0.10775 0.80304 0.69562 0.0
C2349 C 0.10295 0.80941 0.72648 0.0
C2350 C 0.09264 0.75464 0.72612 0.0
C2351 C 0.11655 0.81561 0.66382 0.0
H2352 H 0.14536 0.77527 0.6283 0.0
H2353 H 0.09429 0.75965 0.57832 0.0
H2354 H 0.14384 0.80251 0.69507 0.0
H2355 H 0.13454 0.78115 0.71731 0.0
H2356 H 0.15315 0.78808 0.68628 0.0
H2357 H 0.07113 0.76131 0.6091 0.0
H2358 H 0.0719 0.76075 0.65815 0.0
H2359 H 0.08021 0.78184 0.63522 0.0
H2360 H 0.08647 0.77225 0.78036 0.0
H2361 H 0.10552 0.82316 0.7267 0.0
H2362 H 0.10538 0.75431 0.72347 0.0
H2363 H 0.08405 0.74725 0.70247 0.0
H2364 H 0.08572 0.74744 0.75145 0.0
H2365 H 0.12969 0.8166 0.65756 0.0
H2366 H 0.11884 0.82937 0.66914 0.0
H2367 H 0.10797 0.81017 0.63924 0.0
C2368 C 0.17986 0.29348 0.73174 0.0
C2369 C 0.18988 0.29746 0.7641 0.0
C2370 C 0.18617 0.30521 0.70169 0.0
C2371 C 0.20321 0.32117 0.70345 0.0
C2372 C 0.21354 0.32512 0.73585 0.0
C2373 C 0.20663 0.31338 0.76595 0.0
C2374 C 0.17438 0.3007 0.66831 0.0
C2375 C 0.2319 0.34176 0.73871 0.0
C2376 C 0.22471 0.34129 0.61157 0.0
C2377 C 0.22145 0.35574 0.60819 0.0
C2378 C 0.21944 0.33039 0.64295 0.0
C2379 C 0.21015 0.33359 0.67128 0.0
C2380 C 0.20687 0.34823 0.66803 0.0
C2381 C 0.21278 0.35925 0.63682 0.0
C2382 C 0.22364 0.31527 0.64558 0.0
C2383 C 0.19653 0.35185 0.69688 0.0
H2384 H 0.16672 0.28144 0.73028 0.0
H2385 H 0.21439 0.31662 0.79092 0.0
H2386 H 0.17144 0.31172 0.66274 0.0
H2387 H 0.18151 0.29954 0.64419 0.0
H2388 H 0.1614 0.28788 0.6714 0.0
H2389 H 0.23855 0.34257 0.76517 0.0
H2390 H 0.24069 0.34189 0.71641 0.0
H2391 H 0.2307 0.35401 0.73557 0.0
H2392 H 0.23148 0.33855 0.58967 0.0
H2393 H 0.21001 0.37026 0.63424 0.0
H2394 H 0.21094 0.3021 0.64574 0.0
H2395 H 0.23077 0.3163 0.67149 0.0
H2396 H 0.23211 0.31536 0.62259 0.0
H2397 H 0.1825 0.34038 0.69811 0.0
H2398 H 0.19607 0.36439 0.69143 0.0
H2399 H 0.20266 0.353 0.72406 0.0
C2400 C 0.35922 0.13905 0.5692 0.0
C2401 C 0.35507 0.12968 0.60246 0.0
C2402 C 0.34744 0.13248 0.53929 0.0
C2403 C 0.33121 0.11575 0.54194 0.0
C2404 C 0.32709 0.10596 0.57509 0.0
C2405 C 0.33891 0.11317 0.60513 0.0
C2406 C 0.35226 0.1437 0.50502 0.0
C2407 C 0.31014 0.08791 0.5789 0.0
C2408 C 0.29385 0.10774 0.47458 0.0
C2409 C 0.29701 0.09878 0.44601 0.0
C2410 C 0.30464 0.11308 0.50617 0.0
C2411 C 0.31859 0.10883 0.50997 0.0
C2412 C 0.32137 0.09916 0.48176 0.0
C2413 C 0.31076 0.09453 0.44995 0.0
C2414 C 0.30144 0.12376 0.53496 0.0
C2415 C 0.33573 0.09393 0.48493 0.0
H2416 H 0.37148 0.15198 0.5668 0.0
H2417 H 0.33547 0.10589 0.6307 0.0
H2418 H 0.35504 0.13671 0.48272 0.0
H2419 H 0.34079 0.14539 0.49621 0.0
H2420 H 0.3643 0.15727 0.50868 0.0
H2421 H 0.30961 0.08128 0.60524 0.0
H2422 H 0.29818 0.08964 0.577 0.0
H2423 H 0.3092 0.07884 0.55637 0.0
H2424 H 0.28335 0.1112 0.47169 0.0
H2425 H 0.31319 0.08747 0.42816 0.0
H2426 H 0.31417 0.13639 0.54109 0.0
H2427 H 0.29692 0.11586 0.56054 0.0
H2428 H 0.2911 0.12728 0.52659 0.0
H2429 H 0.34925 0.1062 0.4843 0.0
H2430 H 0.33495 0.08484 0.46255 0.0
H2431 H 0.33448 0.0871 0.51133 0.0
C2432 C 0.86923 0.17162 0.45188 0.0
C2433 C 0.8778 0.18316 0.42231 0.0
C2434 C 0.86388 0.17754 0.48267 0.0
C2435 C 0.86763 0.19563 0.48456 0.0
C2436 C 0.87625 0.20733 0.45473 0.0
C2437 C 0.881 0.20089 0.42378 0.0
C2438 C 0.85425 0.16441 0.51324 0.0
C2439 C 0.8808 0.22678 0.45582 0.0
C2440 C 0.84164 0.2077 0.55267 0.0
C2441 C 0.85345 0.21399 0.58258 0.0
C2442 C 0.84605 0.2017 0.52068 0.0
C2443 C 0.86287 0.20234 0.51806 0.0
C2444 C 0.87499 0.20902 0.54788 0.0
C2445 C 0.87007 0.21457 0.57985 0.0
C2446 C 0.83253 0.19434 0.48997 0.0
C2447 C 0.89318 0.21023 0.54607 0.0
H2448 H 0.86647 0.15782 0.45076 0.0
H2449 H 0.88767 0.20988 0.4011 0.0
H2450 H 0.86261 0.16894 0.53827 0.0
H2451 H 0.84136 0.16398 0.51947 0.0
H2452 H 0.85132 0.15054 0.5066 0.0
H2453 H 0.88752 0.23415 0.43049 0.0
H2454 H 0.86839 0.22757 0.45991 0.0
H2455 H 0.88984 0.23371 0.47923 0.0
H2456 H 0.82869 0.20704 0.55452 0.0
H2457 H 0.87932 0.21948 0.60268 0.0
H2458 H 0.82911 0.1803 0.48375 0.0
H2459 H 0.83843 0.20241 0.46495 0.0
H2460 H 0.8199 0.19442 0.4965 0.0
H2461 H 0.89141 0.19655 0.54298 0.0
H2462 H 0.90143 0.21657 0.57078 0.0
H2463 H 0.90072 0.21819 0.5219 0.0
C2464 C 0.76291 0.62457 0.54392 0.0
C2465 C 0.75391 0.62757 0.57266 0.0
C2466 C 0.76809 0.63538 0.5124 0.0
C2467 C 0.76378 0.6493 0.50893 0.0
C2468 C 0.75388 0.65178 0.53707 0.0
C2469 C 0.7493 0.64108 0.56874 0.0
C2470 C 0.77902 0.6325 0.48371 0.0
C2471 C 0.7487 0.66619 0.53433 0.0
C2472 C 0.79466 0.69052 0.45181 0.0
C2473 C 0.78542 0.68693 0.41846 0.0
C2474 C 0.78782 0.67838 0.4811 0.0
C2475 C 0.77102 0.66228 0.47761 0.0
C2476 C 0.76143 0.65865 0.44427 0.0
C2477 C 0.76885 0.67088 0.41494 0.0
C2478 C 0.79886 0.68263 0.51557 0.0
C2479 C 0.74337 0.64181 0.43954 0.0
H2480 H 0.76675 0.61433 0.54677 0.0
H2481 H 0.74232 0.64348 0.59072 0.0
H2482 H 0.77281 0.63096 0.4565 0.0
H2483 H 0.79274 0.64448 0.48248 0.0
H2484 H 0.7803 0.62043 0.48931 0.0
H2485 H 0.73936 0.66512 0.55641 0.0
H2486 H 0.76097 0.67969 0.53591 0.0
H2487 H 0.74219 0.66532 0.50769 0.0
H2488 H 0.80763 0.70268 0.45482 0.0
H2489 H 0.76166 0.66789 0.38929 0.0
H2490 H 0.80206 0.67179 0.52116 0.0
H2491 H 0.79102 0.68316 0.53907 0.0
H2492 H 0.8117 0.69568 0.51391 0.0
H2493 H 0.74488 0.62973 0.4423 0.0
H2494 H 0.73722 0.64131 0.41262 0.0
H2495 H 0.734 0.64104 0.46123 0.0
C2496 C 0.2863 0.17236 0.9741 0.0
C2497 C 0.28764 0.18386 0.94557 0.0
C2498 C 0.29731 0.17907 1.00521 0.0
C2499 C 0.30956 0.19783 1.00848 0.0
C2500 C 0.31049 0.20956 0.98026 0.0
C2501 C 0.29975 0.2024 0.94895 0.0
C2502 C 0.29612 0.166 0.03417 0.0
C2503 C 0.32296 0.22967 0.983 0.0
C2504 C 0.3279 0.21587 0.10353 0.0
C2505 C 0.3453 0.21822 0.10166 0.0
C2506 C 0.31629 0.20971 0.07317 0.0
C2507 C 0.32194 0.20512 0.0406 0.0
C2508 C 0.33948 0.20737 0.03875 0.0
C2509 C 0.35102 0.21416 0.06903 0.0
C2510 C 0.29792 0.20799 0.07606 0.0
C2511 C 0.34587 0.202 1.00521 0.0
H2512 H 0.27709 0.158 0.97154 0.0
H2513 H 0.30075 0.21138 0.92712 0.0
H2514 H 0.30974 0.16813 0.04026 0.0
H2515 H 0.29079 0.16845 0.05971 0.0
H2516 H 0.28725 0.15173 1.02596 0.0
H2517 H 0.32111 0.23706 0.96009 0.0
H2518 H 0.32061 0.23479 1.00897 0.0
H2519 H 0.33717 0.23275 0.98309 0.0
H2520 H 0.32337 0.21885 0.12876 0.0
H2521 H 0.36429 0.21553 0.06764 0.0
H2522 H 0.28732 0.19361 0.07401 0.0
H2523 H 0.29582 0.21522 0.0532 0.0
H2524 H 0.29611 0.21346 0.10213 0.0
H2525 H 0.33681 0.18743 0.99961 0.0
H2526 H 0.35986 0.20454 1.00814 0.0
H2527 H 0.3453 0.20954 0.98118 0.0
C2528 C 0.77359 0.0896 0.92068 0.0
C2529 C 0.79037 0.09058 0.92454 0.0
C2530 C 0.76558 0.09368 0.95006 0.0
C2531 C 0.77478 0.0994 0.98386 0.0
C2532 C 0.79168 0.10033 0.98786 0.0
C2533 C 0.79909 0.0957 0.95848 0.0
C2534 C 0.74739 0.09214 0.94478 0.0
C2535 C 0.80231 0.10688 1.02283 0.0
C2536 C 0.76597 0.12908 0.04861 0.0
C2537 C 0.75685 0.11723 0.0775 0.0
C2538 C 0.77143 0.12335 1.01762 0.0
C2539 C 0.76727 0.10516 1.01473 0.0
C2540 C 0.75723 0.09291 0.04295 0.0
C2541 C 0.75239 0.09913 0.07417 0.0
C2542 C 0.78254 0.13707 0.98893 0.0
C2543 C 0.75212 0.07332 0.04072 0.0
H2544 H 0.76675 0.08576 0.89462 0.0
H2545 H 0.8122 0.09684 0.96181 0.0
H2546 H 0.73805 0.08377 0.96672 0.0
H2547 H 0.74873 0.10569 0.94656 0.0
H2548 H 0.74131 0.0861 0.91804 0.0
H2549 H 0.81511 0.10655 1.02182 0.0
H2550 H 0.80555 0.12092 0.02841 0.0
H2551 H 0.79417 0.09847 0.04602 0.0
H2552 H 0.76971 0.14314 0.05095 0.0
H2553 H 0.74534 0.08986 0.09625 0.0
H2554 H 0.77667 0.13222 0.96154 0.0
H2555 H 0.79636 0.139 0.98866 0.0
H2556 H 0.78356 0.15036 0.99383 0.0
H2557 H 0.74587 0.06761 1.01394 0.0
H2558 H 0.74258 0.06513 0.06259 0.0
H2559 H 0.76439 0.07212 0.04309 0.0
C2560 C 0.87251 0.69472 0.96377 0.0
C2561 C 0.87845 0.68954 0.93287 0.0
C2562 C 0.86672 0.68382 0.99515 0.0
C2563 C 0.86737 0.66759 0.99613 0.0
C2564 C 0.87384 0.66258 0.96533 0.0
C2565 C 0.87904 0.67346 0.93395 0.0
C2566 C 0.85942 0.68943 1.02686 0.0
C2567 C 0.87517 0.64565 0.96542 0.0
C2568 C 0.86671 0.64723 0.08908 0.0
C2569 C 0.84895 0.6328 0.09095 0.0
C2570 C 0.87293 0.65854 0.05831 0.0
C2571 C 0.86099 0.65568 0.02903 0.0
C2572 C 0.84296 0.64127 0.03103 0.0
C2573 C 0.83726 0.62989 0.06167 0.0
C2574 C 0.89235 0.67344 0.05694 0.0
C2575 C 0.82962 0.63795 1.00096 0.0
H2576 H 0.87181 0.70701 0.96301 0.0
H2577 H 0.88368 0.66941 0.91023 0.0
H2578 H 0.84513 0.67908 0.03165 0.0
H2579 H 0.86699 0.69036 0.05204 0.0
H2580 H 0.86019 0.70262 1.0222 0.0
H2581 H 0.88143 0.64417 0.94014 0.0
H2582 H 0.88326 0.64572 0.98909 0.0
H2583 H 0.86155 0.63366 0.96825 0.0
H2584 H 0.87586 0.64951 0.11147 0.0
H2585 H 0.82346 0.61888 0.06297 0.0
H2586 H 0.89307 0.68669 0.05449 0.0
H2587 H 0.89902 0.67177 0.03253 0.0
H2588 H 0.90003 0.67365 0.0815 0.0
H2589 H 0.82849 0.65019 0.99671 0.0
H2590 H 0.816 0.62642 1.007 0.0
H2591 H 0.83439 0.63517 0.97503 0.0
C2592 C 0.09112 0.55341 0.62668 0.0
C2593 C 0.07989 0.56092 0.62486 0.0
C2594 C 0.09584 0.54921 0.66056 0.0
C2595 C 0.08935 0.55285 0.69315 0.0
C2596 C 0.07886 0.56141 0.69125 0.0
C2597 C 0.07426 0.56529 0.65719 0.0
C2598 C 0.10664 0.53969 0.66141 0.0
C2599 C 0.07156 0.5655 0.72511 0.0
C2600 C 0.08029 0.52443 0.77838 0.0
C2601 C 0.09484 0.53581 0.80079 0.0
C2602 C 0.07884 0.52943 0.74272 0.0
C2603 C 0.0921 0.54641 0.72906 0.0
C2604 C 0.10711 0.55777 0.75109 0.0
C2605 C 0.10836 0.55231 0.78658 0.0
C2606 C 0.06233 0.5169 0.72096 0.0
C2607 C 0.12147 0.57603 0.73773 0.0
H2608 H 0.09522 0.54974 0.60171 0.0
H2609 H 0.06563 0.57118 0.65579 0.0
H2610 H 0.11798 0.54636 0.68097 0.0
H2611 H 0.09791 0.52561 0.67088 0.0
H2612 H 0.11212 0.53935 0.63421 0.0
H2613 H 0.06567 0.57423 0.71927 0.0
H2614 H 0.06088 0.55271 0.73711 0.0
H2615 H 0.08234 0.57224 0.74581 0.0
H2616 H 0.06956 0.51183 0.78913 0.0
H2617 H 0.11982 0.56111 0.8034 0.0
H2618 H 0.06505 0.51794 0.69129 0.0
H2619 H 0.05179 0.52053 0.72625 0.0
H2620 H 0.05687 0.50264 0.72941 0.0
H2621 H 0.13293 0.58271 0.75706 0.0
H2622 H 0.11553 0.58486 0.73388 0.0
H2623 H 0.12668 0.57476 0.71092 0.0
C2624 C 0.44873 0.56042 0.77151 0.0
C2625 C 0.45581 0.55047 0.78805 0.0
C2626 C 0.44401 0.55818 0.73443 0.0
C2627 C 0.4463 0.54562 0.71342 0.0
C2628 C 0.45359 0.53567 0.72985 0.0
C2629 C 0.45826 0.53823 0.76686 0.0
C2630 C 0.43647 0.56916 0.71779 0.0
C2631 C 0.45636 0.52222 0.70832 0.0
C2632 C 0.42024 0.52241 0.62813 0.0
C2633 C 0.43384 0.5301 0.60189 0.0
C2634 C 0.42361 0.52842 0.66437 0.0
C2635 C 0.44097 0.54252 0.6743 0.0
C2636 C 0.45412 0.55154 0.64695 0.0
C2637 C 0.45046 0.54504 0.61106 0.0
C2638 C 0.40924 0.5183 0.69259 0.0
C2639 C 0.47269 0.56681 0.65617 0.0
H2640 H 0.4466 0.56977 0.78771 0.0
H2641 H 0.46401 0.53073 0.77915 0.0
H2642 H 0.44468 0.57675 0.6939 0.0
H2643 H 0.42257 0.56008 0.70786 0.0
H2644 H 0.43617 0.57886 0.73744 0.0
H2645 H 0.46235 0.51571 0.72498 0.0
H2646 H 0.44328 0.5116 0.69722 0.0
H2647 H 0.46538 0.52896 0.68484 0.0
H2648 H 0.40756 0.51052 0.62114 0.0
H2649 H 0.46111 0.55066 0.59087 0.0
H2650 H 0.40847 0.52774 0.71222 0.0
H2651 H 0.41269 0.50933 0.70817 0.0
H2652 H 0.39575 0.50988 0.68001 0.0
H2653 H 0.47193 0.5762 0.67593 0.0
H2654 H 0.48002 0.57451 0.63154 0.0
H2655 H 0.48065 0.56128 0.66898 0.0
C2656 C 0.44239 0.91015 0.7782 0.0
C2657 C 0.43706 0.89448 0.7988 0.0
C2658 C 0.44888 0.91169 0.74254 0.0
C2659 C 0.45041 0.89735 0.72708 0.0
C2660 C 0.44476 0.88137 0.74738 0.0
C2661 C 0.43803 0.88006 0.78283 0.0
C2662 C 0.4547 0.92898 0.7219 0.0
C2663 C 0.44637 0.86586 0.73208 0.0
C2664 C 0.45741 0.89933 0.62433 0.0
C2665 C 0.47624 0.90875 0.62217 0.0
C2666 C 0.44869 0.89485 0.65837 0.0
C2667 C 0.4591 0.89972 0.69076 0.0
C2668 C 0.47811 0.90822 0.68842 0.0
C2669 C 0.48642 0.91273 0.65419 0.0
C2670 C 0.42843 0.8861 0.65968 0.0
C2671 C 0.48977 0.91347 0.72211 0.0
H2672 H 0.44204 0.92152 0.79029 0.0
H2673 H 0.43367 0.86776 0.79816 0.0
H2674 H 0.46958 0.93637 0.719 0.0
H2675 H 0.4488 0.92601 0.69414 0.0
H2676 H 0.45068 0.93794 0.73587 0.0
H2677 H 0.44055 0.85401 0.75054 0.0
H2678 H 0.43947 0.86167 0.70535 0.0
H2679 H 0.46078 0.87024 0.72746 0.0
H2680 H 0.44954 0.89658 0.5996 0.0
H2681 H 0.50101 0.92002 0.65248 0.0
H2682 H 0.42468 0.89593 0.67021 0.0
H2683 H 0.42268 0.87443 0.67856 0.0
H2684 H 0.42219 0.88143 0.63242 0.0
H2685 H 0.48903 0.92447 0.73656 0.0
H2686 H 0.50412 0.91823 0.71558 0.0
H2687 H 0.48484 0.90188 0.74108 0.0
C2688 C 0.51836 0.09975 0.92924 0.0
C2689 C 0.5271 0.09657 0.90033 0.0
C2690 C 0.52266 0.09837 0.96564 0.0
C2691 C 0.53622 0.09396 0.97334 0.0
C2692 C 0.54552 0.09136 0.9442 0.0
C2693 C 0.54078 0.09259 0.90813 0.0
C2694 C 0.51211 0.10079 0.99583 0.0
C2695 C 0.56014 0.08674 0.95108 0.0
C2696 C 0.55654 0.10015 0.06861 0.0
C2697 C 0.5478 0.08234 0.08129 0.0
C2698 C 0.55265 0.10429 0.03377 0.0
C2699 C 0.53954 0.09033 1.01153 0.0
C2700 C 0.53013 0.07249 1.02507 0.0
C2701 C 0.53445 0.06872 0.05954 0.0
C2702 C 0.56309 0.12344 1.02014 0.0
C2703 C 0.51594 0.05716 1.00267 0.0
H2704 H 0.50767 0.10267 0.92339 0.0
H2705 H 0.54774 0.09034 0.88589 0.0
H2706 H 0.50387 0.08775 1.01008 0.0
H2707 H 0.52139 0.11058 1.01623 0.0
H2708 H 0.50299 0.10553 0.98554 0.0
H2709 H 0.56731 0.08697 0.92573 0.0
H2710 H 0.57011 0.09635 0.97085 0.0
H2711 H 0.55416 0.07307 0.96318 0.0
H2712 H 0.56692 0.11069 0.08519 0.0
H2713 H 0.52748 0.0549 0.06924 0.0
H2714 H 0.55374 0.12795 1.01029 0.0
H2715 H 0.57159 0.12414 0.99671 0.0
H2716 H 0.57193 0.13293 0.0415 0.0
H2717 H 0.50652 0.06099 0.99027 0.0
H2718 H 0.50801 0.04477 1.01913 0.0
H2719 H 0.52251 0.05394 0.98018 0.0
C2720 C 0.87063 0.43202 0.91735 0.0
C2721 C 0.88469 0.42999 0.9028 0.0
C2722 C 0.87134 0.43806 0.9533 0.0
C2723 C 0.88657 0.4424 0.9753 0.0
C2724 C 0.90047 0.43971 0.9613 0.0
C2725 C 0.89931 0.43345 0.92547 0.0
C2726 C 0.85617 0.4406 0.96716 0.0
C2727 C 0.91702 0.44424 0.98363 0.0
C2728 C 0.90231 0.47954 0.04606 0.0
C2729 C 0.89825 0.46995 0.07897 0.0
C2730 C 0.898 0.4707 1.01234 0.0
C2731 C 0.88905 0.45164 1.01119 0.0
C2732 C 0.88377 0.44178 0.0443 0.0
C2733 C 0.88849 0.45106 0.07789 0.0
C2734 C 0.90402 0.48188 0.97796 0.0
C2735 C 0.874 0.42145 0.04425 0.0
H2736 H 0.85932 0.42956 0.90021 0.0
H2737 H 0.91006 0.43154 0.915 0.0
H2738 H 0.85188 0.43458 0.99463 0.0
H2739 H 0.86091 0.45521 0.96968 0.0
H2740 H 0.84431 0.43448 0.94872 0.0
H2741 H 0.926 0.44019 0.96986 0.0
H2742 H 0.92478 0.45899 0.9887 0.0
H2743 H 0.91307 0.43747 1.0105 0.0
H2744 H 0.90958 0.49415 0.04658 0.0
H2745 H 0.88537 0.44353 0.10313 0.0
H2746 H 0.89257 0.4774 0.95878 0.0
H2747 H 0.91449 0.47999 0.96419 0.0
H2748 H 0.9097 0.49649 0.98346 0.0
H2749 H 0.86258 0.41601 1.02474 0.0
H2750 H 0.86877 0.41576 0.07166 0.0
H2751 H 0.88333 0.41675 0.03527 0.0
C2752 C 0.50171 0.43479 0.04256 0.0
C2753 C 0.50054 0.42189 0.06789 0.0
C2754 C 0.5088 0.43618 1.00771 0.0
C2755 C 0.51493 0.4243 0.99715 0.0
C2756 C 0.51414 0.41137 1.02252 0.0
C2757 C 0.50699 0.41035 0.05777 0.0
C2758 C 0.50945 0.4503 0.98199 0.0
C2759 C 0.52038 0.39834 1.01207 0.0
C2760 C 0.51474 0.42029 0.89411 0.0
C2761 C 0.53266 0.43284 0.88526 0.0
C2762 C 0.50908 0.41637 0.93055 0.0
C2763 C 0.52157 0.42537 0.95904 0.0
C2764 C 0.53984 0.43753 0.95029 0.0
C2765 C 0.54518 0.44103 0.91356 0.0
C2766 C 0.48949 0.4033 0.9385 0.0
C2767 C 0.55354 0.44769 0.97968 0.0
H2768 H 0.49702 0.44402 0.04985 0.0
H2769 H 0.50604 0.40028 0.07691 0.0
H2770 H 0.5235 0.45936 0.97286 0.0
H2771 H 0.50122 0.44375 0.95742 0.0
H2772 H 0.50432 0.45866 0.99468 0.0
H2773 H 0.51976 0.38973 0.03527 0.0
H2774 H 0.51183 0.38952 0.98967 0.0
H2775 H 0.53442 0.4058 1.00176 0.0
H2776 H 0.50503 0.41368 0.87242 0.0
H2777 H 0.55903 0.45081 0.907 0.0
H2778 H 0.48293 0.4108 0.94881 0.0
H2779 H 0.48822 0.39363 0.95998 0.0
H2780 H 0.48207 0.39562 0.91392 0.0
H2781 H 0.55053 0.45765 0.99242 0.0
H2782 H 0.5675 0.455 0.96885 0.0
H2783 H 0.55278 0.43835 1.00141 0.0
C2784 C 0.89922 0.44149 0.41106 0.0
C2785 C 0.88536 0.44427 0.39811 0.0
C2786 C 0.90032 0.43781 0.448 0.0
C2787 C 0.88732 0.43699 0.47296 0.0
C2788 C 0.87312 0.43948 0.46006 0.0
C2789 C 0.87228 0.44303 0.42289 0.0
C2790 C 0.91573 0.43527 0.46046 0.0
C2791 C 0.85905 0.43883 0.48572 0.0
C2792 C 0.88631 0.41561 0.5649 0.0
C2793 C 0.89834 0.43079 0.58508 0.0
C2794 C 0.88182 0.41742 0.52878 0.0
C2795 C 0.88943 0.4348 0.51279 0.0
C2796 C 0.90057 0.45019 0.53418 0.0
C2797 C 0.90502 0.44796 0.56983 0.0
C2798 C 0.87006 0.40066 0.50691 0.0
C2799 C 0.90882 0.46898 0.51863 0.0
H2800 H 0.90957 0.44266 0.39246 0.0
H2801 H 0.86135 0.44487 0.41323 0.0
H2802 H 0.92461 0.44637 0.47916 0.0
H2803 H 0.91051 0.42246 0.47582 0.0
H2804 H 0.92401 0.43508 0.43738 0.0
H2805 H 0.84833 0.44006 0.47122 0.0
H2806 H 0.85272 0.426 0.50124 0.0
H2807 H 0.86552 0.44996 0.50579 0.0
H2808 H 0.88154 0.40231 0.57632 0.0
H2809 H 0.91457 0.45968 0.58526 0.0
H2810 H 0.87842 0.39872 0.48632 0.0
H2811 H 0.85955 0.40206 0.49203 0.0
H2812 H 0.86341 0.38842 0.5243 0.0
H2813 H 0.91909 0.47094 0.49798 0.0
H2814 H 0.91541 0.47952 0.5399 0.0
H2815 H 0.89841 0.47094 0.50478 0.0
C2816 C 0.54578 0.44302 0.55888 0.0
C2817 C 0.55561 0.46188 0.56128 0.0
C2818 C 0.5405 0.43432 0.52474 0.0
C2819 C 0.54529 0.44472 0.4923 0.0
C2820 C 0.55597 0.46373 0.4947 0.0
C2821 C 0.56099 0.47201 0.52901 0.0
C2822 C 0.52885 0.41408 0.52347 0.0
C2823 C 0.56135 0.47544 0.46112 0.0
C2824 C 0.5423 0.42394 0.39865 0.0
C2825 C 0.52645 0.42263 0.38436 0.0
C2826 C 0.54832 0.43059 0.43405 0.0
C2827 C 0.53825 0.43599 0.456 0.0
C2828 C 0.52197 0.43418 0.44213 0.0
C2829 C 0.51638 0.42769 0.4066 0.0
C2830 C 0.56578 0.43236 0.44756 0.0
C2831 C 0.51083 0.44003 0.46382 0.0
H2832 H 0.54133 0.43512 0.58365 0.0
H2833 H 0.56868 0.48659 0.53061 0.0
H2834 H 0.51521 0.41047 0.51347 0.0
H2835 H 0.53452 0.40827 0.50411 0.0
H2836 H 0.52748 0.40781 0.55061 0.0
H2837 H 0.5711 0.4898 0.46732 0.0
H2838 H 0.56742 0.47055 0.44063 0.0
H2839 H 0.5492 0.4747 0.44861 0.0
H2840 H 0.5501 0.41986 0.38205 0.0
H2841 H 0.50434 0.42717 0.39584 0.0
H2842 H 0.56364 0.4254 0.4741 0.0
H2843 H 0.57578 0.4468 0.45204 0.0
H2844 H 0.57154 0.42667 0.42808 0.0
H2845 H 0.51085 0.43716 0.49326 0.0
H2846 H 0.49665 0.43335 0.45412 0.0
H2847 H 0.51668 0.45478 0.46041 0.0
C2848 C 0.52844 0.09835 0.40982 0.0
C2849 C 0.54486 0.09925 0.40145 0.0
C2850 C 0.522 0.09573 0.44577 0.0
C2851 C 0.53222 0.09401 0.47421 0.0
C2852 C 0.5491 0.09552 0.46613 0.0
C2853 C 0.55518 0.09807 0.42989 0.0
C2854 C 0.50383 0.09396 0.45304 0.0
C2855 C 0.56043 0.0938 0.49559 0.0
C2856 C 0.51864 0.09627 0.57249 0.0
C2857 C 0.5078 0.07792 0.58078 0.0
C2858 C 0.52697 0.1018 0.53809 0.0
C2859 C 0.52436 0.08867 0.51149 0.0
C2860 C 0.51372 0.07016 0.52009 0.0
C2861 C 0.50573 0.06506 0.55449 0.0
C2862 C 0.53825 0.12166 0.5299 0.0
C2863 C 0.51044 0.05565 0.49268 0.0
H2864 H 0.52026 0.09904 0.38803 0.0
H2865 H 0.56799 0.09899 0.42376 0.0
H2866 H 0.49415 0.07994 0.46153 0.0
H2867 H 0.5048 0.10298 0.47567 0.0
H2868 H 0.49831 0.09723 0.42869 0.0
H2869 H 0.57394 0.09701 0.48552 0.0
H2870 H 0.56219 0.10289 0.51867 0.0
H2871 H 0.55348 0.07981 0.5063 0.0
H2872 H 0.5203 0.10628 0.5925 0.0
H2873 H 0.49758 0.05081 0.5605 0.0
H2874 H 0.53196 0.12528 0.50748 0.0
H2875 H 0.55184 0.12487 0.52053 0.0
H2876 H 0.53973 0.13015 0.55395 0.0
H2877 H 0.50389 0.05723 0.46799 0.0
H2878 H 0.50173 0.04186 0.50364 0.0
H2879 H 0.52345 0.05695 0.48411 0.0
C2880 C 0.43714 0.88056 0.28345 0.0
C2881 C 0.45085 0.89643 0.29944 0.0
C2882 C 0.43096 0.88058 0.248 0.0
C2883 C 0.43887 0.89678 0.22767 0.0
C2884 C 0.45307 0.91271 0.24318 0.0
C2885 C 0.45876 0.91239 0.27888 0.0
C2886 C 0.41561 0.86338 0.23268 0.0
C2887 C 0.46194 0.93028 0.22245 0.0
C2888 C 0.43356 0.89719 0.12473 0.0
C2889 C 0.42149 0.90367 0.12188 0.0
C2890 C 0.43888 0.89417 0.15908 0.0
C2891 C 0.43168 0.89744 0.19107 0.0
C2892 C 0.41855 0.90282 0.18802 0.0
C2893 C 0.41377 0.90603 0.15349 0.0
C2894 C 0.45318 0.88882 0.16115 0.0
C2895 C 0.4103 0.9062 0.22128 0.0
H2896 H 0.43112 0.86807 0.29873 0.0
H2897 H 0.46912 0.92481 0.291 0.0
H2898 H 0.40388 0.86523 0.22737 0.0
H2899 H 0.41956 0.86009 0.20628 0.0
H2900 H 0.41134 0.85176 0.25141 0.0
H2901 H 0.47405 0.94093 0.23665 0.0
H2902 H 0.46595 0.92828 0.1949 0.0
H2903 H 0.45223 0.93517 0.21893 0.0
H2904 H 0.43986 0.89579 0.10031 0.0
H2905 H 0.40452 0.91117 0.15122 0.0
H2906 H 0.4491 0.87741 0.18027 0.0
H2907 H 0.46585 0.90033 0.17176 0.0
H2908 H 0.45599 0.88494 0.13413 0.0
H2909 H 0.40532 0.89463 0.24032 0.0
H2910 H 0.39896 0.90845 0.21421 0.0
H2911 H 0.42069 0.91828 0.2359 0.0
C2912 C 0.09118 0.52708 0.12574 0.0
C2913 C 0.08096 0.50826 0.1232 0.0
C2914 C 0.09547 0.53568 0.15994 0.0
C2915 C 0.08941 0.52516 0.19212 0.0
C2916 C 0.08015 0.50612 0.18952 0.0
C2917 C 0.0761 0.49794 0.15512 0.0
C2918 C 0.10538 0.55599 0.16157 0.0
C2919 C 0.07353 0.49434 0.22299 0.0
C2920 C 0.10592 0.54372 0.28728 0.0
C2921 C 0.09162 0.54573 0.30046 0.0
C2922 C 0.10587 0.5379 0.25144 0.0
C2923 C 0.09109 0.53381 0.2283 0.0
C2924 C 0.07698 0.53648 0.241 0.0
C2925 C 0.07746 0.54247 0.27674 0.0
C2926 C 0.12124 0.53536 0.23891 0.0
C2927 C 0.06075 0.53193 0.2177 0.0
H2928 H 0.09479 0.5351 0.10109 0.0
H2929 H 0.06849 0.48338 0.15315 0.0
H2930 H 0.09595 0.56061 0.17038 0.0
H2931 H 0.11642 0.56097 0.1819 0.0
H2932 H 0.11113 0.56218 0.13476 0.0
H2933 H 0.06784 0.47983 0.21643 0.0
H2934 H 0.08466 0.49838 0.24282 0.0
H2935 H 0.06292 0.49609 0.23651 0.0
H2936 H 0.11686 0.54602 0.30538 0.0
H2937 H 0.0665 0.54428 0.28634 0.0
H2938 H 0.1262 0.54176 0.21194 0.0
H2939 H 0.11644 0.52077 0.23577 0.0
H2940 H 0.13267 0.54113 0.25846 0.0
H2941 H 0.06481 0.53702 0.18954 0.0
H2942 H 0.05251 0.5375 0.22899 0.0
H2943 H 0.05219 0.51705 0.21628 0.0
C2944 C 0.46206 0.54468 0.11094 0.0
C2945 C 0.48093 0.55312 0.11098 0.0
C2946 C 0.45234 0.54064 0.14382 0.0
C2947 C 0.46173 0.54509 0.17743 0.0
C2948 C 0.48079 0.55406 0.17747 0.0
C2949 C 0.4901 0.5581 0.14431 0.0
C2950 C 0.43204 0.53136 0.14262 0.0
C2951 C 0.49141 0.55904 0.21258 0.0
C2952 C 0.44133 0.54873 0.26682 0.0
C2953 C 0.43707 0.5324 0.28397 0.0
C2954 C 0.44847 0.55264 0.23138 0.0
C2955 C 0.45179 0.54011 0.21275 0.0
C2956 C 0.44697 0.52337 0.22932 0.0
C2957 C 0.43948 0.51964 0.26442 0.0
C2958 C 0.45322 0.57056 0.21451 0.0
C2959 C 0.45043 0.50968 0.2106 0.0
H2960 H 0.45487 0.5409 0.08526 0.0
H2961 H 0.50465 0.56536 0.14454 0.0
H2962 H 0.4262 0.51784 0.15536 0.0
H2963 H 0.42725 0.53917 0.15853 0.0
H2964 H 0.42682 0.52972 0.11437 0.0
H2965 H 0.50616 0.56722 0.20788 0.0
H2966 H 0.48729 0.56677 0.23051 0.0
H2967 H 0.48855 0.54659 0.22737 0.0
H2968 H 0.43975 0.55882 0.28155 0.0
H2969 H 0.43582 0.50677 0.27682 0.0
H2970 H 0.44778 0.56861 0.18644 0.0
H2971 H 0.46808 0.57912 0.21264 0.0
H2972 H 0.44794 0.57791 0.23061 0.0
H2973 H 0.44427 0.50657 0.18309 0.0
H2974 H 0.44502 0.49691 0.22625 0.0
H2975 H 0.46516 0.51535 0.20701 0.0
C2976 C 0.73739 0.89787 1.00136 0.0
C2977 C 0.74381 0.89466 0.96868 0.0
C2978 C 0.74161 0.8933 0.03512 0.0
C2979 C 0.7527 0.8854 0.03653 0.0
C2980 C 0.76001 0.88294 1.00379 0.0
C2981 C 0.75549 0.88764 0.97015 0.0
C2982 C 0.73352 0.89625 0.06916 0.0
C2983 C 0.77198 0.87469 1.0042 0.0
C2984 C 0.7707 0.88525 0.13128 0.0
C2985 C 0.75783 0.86815 0.14425 0.0
C2986 C 0.7698 0.89072 0.09558 0.0
C2987 C 0.75563 0.87888 0.07223 0.0
C2988 C 0.74303 0.86136 0.08464 0.0
C2989 C 0.74433 0.8562 0.12033 0.0
C2990 C 0.78351 0.90951 0.08348 0.0
C2991 C 0.72767 0.84831 0.06076 0.0
H2992 H 0.72869 0.90368 1.00053 0.0
H2993 H 0.76046 0.8851 0.94501 0.0
H2994 H 0.72378 0.88304 0.08125 0.0
H2995 H 0.74416 0.90376 0.08976 0.0
H2996 H 0.72637 0.90384 0.06367 0.0
H2997 H 0.77796 0.87527 0.97706 0.0
H2998 H 0.78301 0.88169 1.02429 0.0
H2999 H 0.76402 0.86037 1.01271 0.0
H3000 H 0.7811 0.89468 0.14949 0.0
H3001 H 0.73454 0.84283 0.1297 0.0
H3002 H 0.77692 0.9178 0.08085 0.0
H3003 H 0.78899 0.90913 0.05634 0.0
H3004 H 0.79487 0.91625 0.10302 0.0
H3005 H 0.71834 0.85355 0.05568 0.0
H3006 H 0.7199 0.83473 0.07328 0.0
H3007 H 0.73283 0.84696 0.03395 0.0
C3008 C 0.09671 0.86804 0.95584 0.0
C3009 C 0.08288 0.85035 0.94949 0.0
C3010 C 0.10063 0.87519 0.99135 0.0
C3011 C 0.09032 0.86442 1.0211 0.0
C3012 C 0.07557 0.84694 1.0143 0.0
C3013 C 0.0722 0.84003 0.97864 0.0
C3014 C 0.11668 0.89372 0.99724 0.0
C3015 C 0.06415 0.83499 0.04501 0.0
C3016 C 0.11342 0.87202 0.11337 0.0
C3017 C 0.10729 0.88224 0.13206 0.0
C3018 C 0.10803 0.86622 0.07742 0.0
C3019 C 0.09609 0.87062 0.05941 0.0
C3020 C 0.08968 0.88077 0.07813 0.0
C3021 C 0.0954 0.88652 0.1141 0.0
C3022 C 0.11545 0.85567 0.05848 0.0
C3023 C 0.07676 0.88554 0.06015 0.0
H3024 H 0.10532 0.87581 0.93341 0.0
H3025 H 0.06183 0.82617 0.97381 0.0
H3026 H 0.11317 0.90176 1.01568 0.0
H3027 H 0.12765 0.89245 1.01043 0.0
H3028 H 0.12188 0.9012 0.97127 0.0
H3029 H 0.05179 0.82292 0.03489 0.0
H3030 H 0.07209 0.83039 0.06105 0.0
H3031 H 0.06016 0.84258 0.06369 0.0
H3032 H 0.12232 0.86831 0.12701 0.0
H3033 H 0.09069 0.89455 0.128 0.0
H3034 H 0.12423 0.8639 0.03583 0.0
H3035 H 0.1044 0.84307 0.04661 0.0
H3036 H 0.12348 0.85215 0.07701 0.0
H3037 H 0.08301 0.89369 0.03537 0.0
H3038 H 0.07277 0.89326 0.07853 0.0
H3039 H 0.06445 0.87307 0.0514 0.0
C3040 C 0.11748 0.22361 0.96273 0.0
C3041 C 0.12517 0.24116 0.94902 0.0
C3042 C 0.10935 0.21941 0.99744 0.0
C3043 C 0.10875 0.23306 1.01834 0.0
C3044 C 0.11553 0.25049 1.00332 0.0
C3045 C 0.12378 0.25434 0.96907 0.0
C3046 C 0.10245 0.20074 1.01264 0.0
C3047 C 0.11503 0.26543 1.02425 0.0
C3048 C 0.07957 0.22337 0.10288 0.0
C3049 C 0.09243 0.22854 0.13076 0.0
C3050 C 0.0845 0.22405 0.06612 0.0
C3051 C 0.10267 0.22987 0.05707 0.0
C3052 C 0.11553 0.23441 0.08525 0.0
C3053 C 0.11028 0.23377 0.12166 0.0
C3054 C 0.07044 0.21938 0.03692 0.0
C3055 C 0.13503 0.24057 0.07689 0.0
H3056 H 0.11879 0.21351 0.9474 0.0
H3057 H 0.12976 0.26795 0.95838 0.0
H3058 H 0.11142 0.20132 0.03506 0.0
H3059 H 0.08878 0.19545 1.02428 0.0
H3060 H 0.10197 0.19116 0.99166 0.0
H3061 H 0.11903 0.27757 1.00717 0.0
H3062 H 0.10132 0.26074 0.03516 0.0
H3063 H 0.12438 0.26941 0.04777 0.0
H3064 H 0.06578 0.21943 0.10972 0.0
H3065 H 0.12021 0.23751 0.14312 0.0
H3066 H 0.07075 0.20972 1.01721 0.0
H3067 H 0.07346 0.23174 1.02157 0.0
H3068 H 0.05664 0.21344 0.04838 0.0
H3069 H 0.14302 0.24221 0.10188 0.0
H3070 H 0.14121 0.25368 0.0624 0.0
H3071 H 0.13599 0.23075 0.05866 0.0
C3072 C 0.22744 0.42642 0.40546 0.0
C3073 C 0.23647 0.4166 0.40815 0.0
C3074 C 0.22262 0.43021 0.37123 0.0
C3075 C 0.22723 0.4243 0.33899 0.0
C3076 C 0.23719 0.4152 0.3417 0.0
C3077 C 0.24153 0.41135 0.37616 0.0
C3078 C 0.21165 0.43955 0.36965 0.0
C3079 C 0.24262 0.40881 0.30826 0.0
C3080 C 0.19976 0.41472 0.25167 0.0
C3081 C 0.21053 0.43016 0.23074 0.0
C3082 C 0.20468 0.41296 0.28734 0.0
C3083 C 0.22098 0.4268 0.3025 0.0
C3084 C 0.23175 0.44256 0.28186 0.0
C3085 C 0.22634 0.44412 0.2465 0.0
C3086 C 0.19272 0.3959 0.30819 0.0
C3087 C 0.24933 0.45754 0.29668 0.0
H3088 H 0.22312 0.43013 0.43011 0.0
H3089 H 0.24846 0.40371 0.37814 0.0
H3090 H 0.21791 0.45117 0.3507 0.0
H3091 H 0.198 0.43005 0.359 0.0
H3092 H 0.21024 0.44442 0.39681 0.0
H3093 H 0.23048 0.39749 0.29559 0.0
H3094 H 0.24887 0.41978 0.28781 0.0
H3095 H 0.25225 0.40408 0.31475 0.0
H3096 H 0.18769 0.40369 0.23985 0.0
H3097 H 0.23463 0.45629 0.23108 0.0
H3098 H 0.19097 0.39903 0.3367 0.0
H3099 H 0.19914 0.38741 0.30894 0.0
H3100 H 0.17921 0.38793 0.29546 0.0
H3101 H 0.24707 0.4623 0.32318 0.0
H3102 H 0.25586 0.46921 0.2778 0.0
H3103 H 0.25874 0.4524 0.30163 0.0
C3104 C 0.53854 0.77045 0.26196 0.0
C3105 C 0.55355 0.77284 0.24195 0.0
C3106 C 0.54054 0.77769 0.29718 0.0
C3107 C 0.55792 0.78739 0.313 0.0
C3108 C 0.57312 0.79018 0.29248 0.0
C3109 C 0.57073 0.78287 0.25744 0.0
C3110 C 0.52406 0.77505 0.31742 0.0
C3111 C 0.59199 0.80033 0.30751 0.0
C3112 C 0.56896 0.81987 0.39228 0.0
C3113 C 0.56806 0.8092 0.42199 0.0
C3114 C 0.56471 0.81268 0.35694 0.0
C3115 C 0.56023 0.79456 0.35093 0.0
C3116 C 0.55901 0.78364 0.38107 0.0
C3117 C 0.56259 0.79101 0.41639 0.0
C3118 C 0.56606 0.82478 0.32578 0.0
C3119 C 0.55515 0.76456 0.37574 0.0
H3120 H 0.52519 0.76271 0.25028 0.0
H3121 H 0.58248 0.78518 0.24199 0.0
H3122 H 0.5222 0.76713 0.34255 0.0
H3123 H 0.5259 0.78832 0.32583 0.0
H3124 H 0.51162 0.76795 0.30071 0.0
H3125 H 0.60224 0.80585 0.28549 0.0
H3126 H 0.59401 0.81161 0.32533 0.0
H3127 H 0.59439 0.79078 0.32358 0.0
H3128 H 0.57354 0.83405 0.39659 0.0
H3129 H 0.56244 0.78292 0.43926 0.0
H3130 H 0.55405 0.81785 0.30788 0.0
H3131 H 0.57808 0.82799 0.30906 0.0
H3132 H 0.56728 0.83764 0.33543 0.0
H3133 H 0.54261 0.75668 0.35978 0.0
H3134 H 0.55379 0.75755 0.402 0.0
H3135 H 0.5663 0.76474 0.36 0.0
C3136 C 0.1873 0.76628 0.39688 0.0
C3137 C 0.16941 0.75295 0.40327 0.0
C3138 C 0.19427 0.77023 0.36122 0.0
C3139 C 0.18334 0.76002 0.33149 0.0
C3140 C 0.16564 0.74571 0.33832 0.0
C3141 C 0.15876 0.74266 0.37396 0.0
C3142 C 0.2128 0.78623 0.3551 0.0
C3143 C 0.15354 0.73437 0.30769 0.0
C3144 C 0.19289 0.7821 0.23776 0.0
C3145 C 0.20392 0.77622 0.2219 0.0
C3146 C 0.18579 0.77664 0.27279 0.0
C3147 C 0.18996 0.7651 0.29317 0.0
C3148 C 0.20062 0.7586 0.27683 0.0
C3149 C 0.20752 0.76428 0.24147 0.0
C3150 C 0.17427 0.78388 0.28757 0.0
C3151 C 0.20461 0.74553 0.29662 0.0
H3152 H 0.19538 0.77456 0.4194 0.0
H3153 H 0.1448 0.73259 0.3788 0.0
H3154 H 0.22117 0.78223 0.33896 0.0
H3155 H 0.2116 0.79662 0.3392 0.0
H3156 H 0.21987 0.79237 0.38105 0.0
H3157 H 0.14922 0.74251 0.29151 0.0
H3158 H 0.16091 0.73006 0.28915 0.0
H3159 H 0.1413 0.72222 0.3179 0.0
H3160 H 0.18961 0.79095 0.22257 0.0
H3161 H 0.21595 0.75956 0.22937 0.0
H3162 H 0.18329 0.79745 0.29907 0.0
H3163 H 0.16485 0.77511 0.30883 0.0
H3164 H 0.16626 0.78548 0.26558 0.0
H3165 H 0.21217 0.7409 0.27943 0.0
H3166 H 0.19182 0.7336 0.30548 0.0
H3167 H 0.21262 0.75197 0.32146 0.0
C3168 C 0.57471 0.75549 0.89099 0.0
C3169 C 0.56612 0.75685 0.92239 0.0
C3170 C 0.57092 0.75977 0.85657 0.0
C3171 C 0.55811 0.76551 0.85318 0.0
C3172 C 0.54874 0.76614 0.88452 0.0
C3173 C 0.55283 0.76173 0.91889 0.0
C3174 C 0.58132 0.75895 0.82409 0.0
C3175 C 0.53519 0.77244 0.88199 0.0
C3176 C 0.56643 0.79503 0.77007 0.0
C3177 C 0.55437 0.78262 0.74472 0.0
C3178 C 0.56708 0.78988 0.80607 0.0
C3179 C 0.55547 0.77181 0.81704 0.0
C3180 C 0.54279 0.75938 0.79197 0.0
C3181 C 0.54236 0.76494 0.75615 0.0
C3182 C 0.58098 0.8036 0.83156 0.0
C3183 C 0.53031 0.73997 0.80242 0.0
H3184 H 0.58497 0.75165 0.89346 0.0
H3185 H 0.54634 0.76302 0.9431 0.0
H3186 H 0.57193 0.75089 0.80192 0.0
H3187 H 0.59018 0.77274 0.81339 0.0
H3188 H 0.58987 0.75297 0.83096 0.0
H3189 H 0.52799 0.77077 0.90812 0.0
H3190 H 0.54218 0.78691 0.87432 0.0
H3191 H 0.52514 0.76491 0.8604 0.0
H3192 H 0.57559 0.80877 0.76162 0.0
H3193 H 0.5331 0.75521 0.73667 0.0
H3194 H 0.59275 0.8015 0.83258 0.0
H3195 H 0.5756 0.80209 0.85959 0.0
H3196 H 0.58578 0.81761 0.8222 0.0
H3197 H 0.53828 0.73314 0.80671 0.0
H3198 H 0.52 0.7325 0.78117 0.0
H3199 H 0.52337 0.73919 0.82841 0.0
C3200 C 0.21037 0.79049 0.73403 0.0
C3201 C 0.19506 0.77384 0.72618 0.0
C3202 C 0.21473 0.79674 0.77001 0.0
C3203 C 0.20336 0.78623 0.79886 0.0
C3204 C 0.18797 0.76933 0.79111 0.0
C3205 C 0.18409 0.76327 0.75489 0.0
C3206 C 0.23125 0.81485 0.77705 0.0
C3207 C 0.17524 0.75795 0.82091 0.0
C3208 C 0.22085 0.79746 0.89654 0.0
C3209 C 0.21423 0.80876 0.90739 0.0
C3210 C 0.21734 0.78989 0.86133 0.0
C3211 C 0.20682 0.79358 0.83668 0.0
C3212 C 0.19984 0.8047 0.84784 0.0
C3213 C 0.20359 0.81209 0.88293 0.0
C3214 C 0.22528 0.77836 0.85014 0.0
C3215 C 0.18841 0.80887 0.82272 0.0
H3216 H 0.21896 0.79863 0.71194 0.0
H3217 H 0.17214 0.75049 0.7489 0.0
H3218 H 0.23971 0.81363 0.79848 0.0
H3219 H 0.23954 0.82059 0.75217 0.0
H3220 H 0.22713 0.82448 0.7871 0.0
H3221 H 0.16439 0.74474 0.81068 0.0
H3222 H 0.18273 0.75552 0.84273 0.0
H3223 H 0.16892 0.76525 0.8334 0.0
H3224 H 0.22916 0.79493 0.91515 0.0
H3225 H 0.19821 0.82065 0.89109 0.0
H3226 H 0.23457 0.78473 0.82683 0.0
H3227 H 0.21446 0.76495 0.84088 0.0
H3228 H 0.23282 0.77643 0.87266 0.0
H3229 H 0.19514 0.8138 0.79604 0.0
H3230 H 0.18559 0.81919 0.83425 0.0
H3231 H 0.1754 0.79637 0.81759 0.0
C3232 C 0.22117 0.42248 0.75329 0.0
C3233 C 0.22518 0.43649 0.72866 0.0
C3234 C 0.21534 0.42286 0.78876 0.0
C3235 C 0.21345 0.43763 0.80021 0.0
C3236 C 0.21816 0.4522 0.77602 0.0
C3237 C 0.22395 0.45145 0.74052 0.0
C3238 C 0.2101 0.40681 0.81308 0.0
C3239 C 0.21634 0.46819 0.7871 0.0
C3240 C 0.17778 0.42379 0.87316 0.0
C3241 C 0.18811 0.42848 0.90508 0.0
C3242 C 0.18592 0.42788 0.83878 0.0
C3243 C 0.20494 0.43684 0.83617 0.0
C3244 C 0.21548 0.44284 0.86839 0.0
C3245 C 0.20691 0.43859 0.90263 0.0
C3246 C 0.17407 0.42118 0.80538 0.0
C3247 C 0.23577 0.45227 0.86679 0.0
H3248 H 0.22236 0.41101 0.74466 0.0
H3249 H 0.22689 0.46231 0.72165 0.0
H3250 H 0.21478 0.41102 0.84143 0.0
H3251 H 0.1952 0.39853 0.81348 0.0
H3252 H 0.21554 0.39821 0.80316 0.0
H3253 H 0.22231 0.47922 0.7667 0.0
H3254 H 0.20187 0.46391 0.79036 0.0
H3255 H 0.22297 0.47351 0.81377 0.0
H3256 H 0.16321 0.41579 0.87512 0.0
H3257 H 0.2149 0.44184 0.92729 0.0
H3258 H 0.1747 0.40957 0.79363 0.0
H3259 H 0.17885 0.43185 0.78427 0.0
H3260 H 0.15976 0.41672 0.81175 0.0
H3261 H 0.24 0.44239 0.85913 0.0
H3262 H 0.24203 0.45837 0.89338 0.0
H3263 H 0.24101 0.46297 0.8457 0.0
C3264 C 0.0853 0.23338 0.45935 0.0
C3265 C 0.09353 0.25176 0.45073 0.0
C3266 C 0.08727 0.2277 0.4943 0.0
C3267 C 0.09763 0.24072 0.52118 0.0
C3268 C 0.10613 0.25926 0.51235 0.0
C3269 C 0.10411 0.2645 0.47738 0.0
C3270 C 0.07808 0.20782 0.50268 0.0
C3271 C 0.11724 0.27366 0.54002 0.0
C3272 C 0.09092 0.23121 0.62289 0.0
C3273 C 0.10618 0.22998 0.63214 0.0
C3274 C 0.08752 0.23388 0.58662 0.0
C3275 C 0.09959 0.23525 0.55879 0.0
C3276 C 0.11463 0.23332 0.56778 0.0
C3277 C 0.11777 0.23078 0.6043 0.0
C3278 C 0.07147 0.23611 0.57836 0.0
C3279 C 0.1278 0.23464 0.539 0.0
H3280 H 0.07713 0.22345 0.43904 0.0
H3281 H 0.11079 0.27876 0.47113 0.0
H3282 H 0.08811 0.20418 0.5125 0.0
H3283 H 0.06812 0.20453 0.52482 0.0
H3284 H 0.07104 0.19938 0.47857 0.0
H3285 H 0.12274 0.2875 0.52894 0.0
H3286 H 0.10891 0.27229 0.56422 0.0
H3287 H 0.12866 0.27203 0.54943 0.0
H3288 H 0.08199 0.23079 0.64423 0.0
H3289 H 0.12944 0.22958 0.61113 0.0
H3290 H 0.06355 0.22722 0.55549 0.0
H3291 H 0.07619 0.25021 0.56981 0.0
H3292 H 0.06247 0.23301 0.60229 0.0
H3293 H 0.12053 0.22562 0.51579 0.0
H3294 H 0.13774 0.23105 0.54974 0.0
H3295 H 0.13524 0.24861 0.52829 0.0
C3296 C 0.74397 0.86553 0.63339 0.0
C3297 C 0.75338 0.88376 0.64363 0.0
C3298 C 0.74264 0.86035 0.59671 0.0
C3299 C 0.75088 0.87371 0.56936 0.0
C3300 C 0.76055 0.89212 0.5795 0.0
C3301 C 0.76173 0.89692 0.61646 0.0
C3302 C 0.73218 0.84054 0.58718 0.0
C3303 C 0.76921 0.90678 0.55119 0.0
C3304 C 0.75662 0.85678 0.47691 0.0
C3305 C 0.74061 0.85316 0.45955 0.0
C3306 C 0.76062 0.86426 0.51221 0.0
C3307 C 0.74838 0.86832 0.53014 0.0
C3308 C 0.73279 0.86573 0.51149 0.0
C3309 C 0.72903 0.85803 0.47664 0.0
C3310 C 0.77728 0.86665 0.53125 0.0
C3311 C 0.71942 0.86998 0.52918 0.0
H3312 H 0.73769 0.85525 0.65417 0.0
H3313 H 0.76885 0.91105 0.62402 0.0
H3314 H 0.72043 0.83775 0.56991 0.0
H3315 H 0.74078 0.83675 0.57119 0.0
H3316 H 0.72719 0.83181 0.61169 0.0
H3317 H 0.777 0.9204 0.56356 0.0
H3318 H 0.77836 0.90438 0.5337 0.0
H3319 H 0.75866 0.90654 0.53326 0.0
H3320 H 0.76535 0.85263 0.464 0.0
H3321 H 0.71652 0.85501 0.46331 0.0
H3322 H 0.77328 0.85669 0.55368 0.0
H3323 H 0.78488 0.88026 0.5436 0.0
H3324 H 0.78635 0.86472 0.51248 0.0
H3325 H 0.71226 0.86019 0.55137 0.0
H3326 H 0.70923 0.86929 0.50951 0.0
H3327 H 0.72647 0.88363 0.54152 0.0
C3328 C 0.1071 0.87861 0.61334 0.0
C3329 C 0.08965 0.86509 0.62277 0.0
C3330 C 0.11278 0.88166 0.57689 0.0
C3331 C 0.10064 0.87112 0.54898 0.0
C3332 C 0.08277 0.85792 0.55822 0.0
C3333 C 0.07755 0.85492 0.59505 0.0
C3334 C 0.13207 0.8956 0.56846 0.0
C3335 C 0.06934 0.8466 0.52931 0.0
C3336 C 0.11678 0.8884 0.45253 0.0
C3337 C 0.12516 0.87847 0.44312 0.0
C3338 C 0.10784 0.88554 0.48625 0.0
C3339 C 0.1074 0.87256 0.51095 0.0
C3340 C 0.11494 0.86184 0.50046 0.0
C3341 C 0.12357 0.86485 0.46675 0.0
C3342 C 0.09969 0.89703 0.49621 0.0
C3343 C 0.11491 0.84789 0.52575 0.0
H3344 H 0.11656 0.88639 0.63468 0.0
H3345 H 0.06399 0.84458 0.60221 0.0
H3346 H 0.13923 0.88883 0.5574 0.0
H3347 H 0.13253 0.90508 0.54734 0.0
H3348 H 0.13945 0.90347 0.5929 0.0
H3349 H 0.05548 0.83851 0.54039 0.0
H3350 H 0.06921 0.85529 0.50704 0.0
H3351 H 0.07334 0.83724 0.51718 0.0
H3352 H 0.11795 0.89894 0.43447 0.0
H3353 H 0.12974 0.85688 0.4595 0.0
H3354 H 0.10801 0.90683 0.51758 0.0
H3355 H 0.08596 0.88856 0.50756 0.0
H3356 H 0.0989 0.90463 0.47245 0.0
H3357 H 0.12328 0.85467 0.55005 0.0
H3358 H 0.1203 0.83989 0.51253 0.0
H3359 H 0.10105 0.83851 0.53545 0.0
C3360 C 0.43616 0.20727 0.44493 0.0
C3361 C 0.42717 0.21211 0.47056 0.0
C3362 C 0.43467 0.20959 0.40742 0.0
C3363 C 0.42409 0.21707 0.39533 0.0
C3364 C 0.41567 0.22271 0.42123 0.0
C3365 C 0.41726 0.22011 0.45845 0.0
C3366 C 0.44365 0.20319 0.3807 0.0
C3367 C 0.40436 0.23087 0.40959 0.0
C3368 C 0.42483 0.23377 0.29883 0.0
C3369 C 0.40843 0.21989 0.28548 0.0
C3370 C 0.43076 0.23269 0.33406 0.0
C3371 C 0.4201 0.21728 0.35588 0.0
C3372 C 0.40425 0.20268 0.34114 0.0
C3373 C 0.39855 0.20425 0.30629 0.0
C3374 C 0.44766 0.24857 0.34887 0.0
C3375 C 0.39253 0.18591 0.3631 0.0
H3376 H 0.44375 0.20099 0.45414 0.0
H3377 H 0.41053 0.22413 0.47818 0.0
H3378 H 0.43321 0.19114 0.36606 0.0
H3379 H 0.45126 0.21373 0.36 0.0
H3380 H 0.453 0.19958 0.39433 0.0
H3381 H 0.39988 0.23581 0.43308 0.0
H3382 H 0.41209 0.24226 0.39063 0.0
H3383 H 0.39224 0.22065 0.39479 0.0
H3384 H 0.43233 0.24596 0.28289 0.0
H3385 H 0.38584 0.19351 0.29589 0.0
H3386 H 0.45615 0.24402 0.36295 0.0
H3387 H 0.44395 0.25573 0.36923 0.0
H3388 H 0.45575 0.25827 0.32712 0.0
H3389 H 0.40084 0.18082 0.37608 0.0
H3390 H 0.38198 0.17497 0.34617 0.0
H3391 H 0.38578 0.18916 0.38516 0.0
C3392 C 0.79567 0.22021 0.43138 0.0
C3393 C 0.78448 0.20941 0.45963 0.0
C3394 C 0.79254 0.21409 0.39514 0.0
C3395 C 0.7777 0.19689 0.38688 0.0
C3396 C 0.76614 0.18611 0.41524 0.0
C3397 C 0.76974 0.19244 0.45127 0.0
C3398 C 0.80539 0.22583 0.36583 0.0
C3399 C 0.75013 0.16772 0.40763 0.0
C3400 C 0.76058 0.1851 0.28914 0.0
C3401 C 0.7677 0.17419 0.27858 0.0
C3402 C 0.76393 0.19283 0.32416 0.0
C3403 C 0.77477 0.18969 0.34896 0.0
C3404 C 0.78239 0.17909 0.33796 0.0
C3405 C 0.77881 0.17155 0.30297 0.0
C3406 C 0.75538 0.20386 0.33506 0.0
C3407 C 0.79414 0.17549 0.36332 0.0
H3408 H 0.80718 0.23325 0.43778 0.0
H3409 H 0.76096 0.18413 0.47299 0.0
H3410 H 0.8122 0.21893 0.35366 0.0
H3411 H 0.7979 0.22804 0.34368 0.0
H3412 H 0.81585 0.23915 0.37645 0.0
H3413 H 0.74184 0.16149 0.43232 0.0
H3414 H 0.74147 0.16872 0.38635 0.0
H3415 H 0.75481 0.15861 0.39706 0.0
H3416 H 0.75194 0.18713 0.27049 0.0
H3417 H 0.78464 0.16338 0.29481 0.0
H3418 H 0.76585 0.21736 0.34471 0.0
H3419 H 0.74594 0.19718 0.35802 0.0
H3420 H 0.74786 0.20561 0.31228 0.0
H3421 H 0.79824 0.16618 0.35126 0.0
H3422 H 0.78694 0.16951 0.38917 0.0
H3423 H 0.80645 0.18838 0.3702 0.0
C3424 C 0.78515 0.55266 0.28474 0.0
C3425 C 0.80362 0.56482 0.28126 0.0
C3426 C 0.77705 0.54802 0.31943 0.0
C3427 C 0.78773 0.55578 0.35102 0.0
C3428 C 0.80661 0.56698 0.34742 0.0
C3429 C 0.81428 0.57133 0.31263 0.0
C3430 C 0.75688 0.53613 0.32212 0.0
C3431 C 0.81858 0.57565 0.3801 0.0
C3432 C 0.76921 0.56745 0.43411 0.0
C3433 C 0.76794 0.55467 0.4596 0.0
C3434 C 0.7748 0.56739 0.39826 0.0
C3435 C 0.7792 0.55418 0.38731 0.0
C3436 C 0.77714 0.54071 0.41236 0.0
C3437 C 0.77159 0.54114 0.44823 0.0
C3438 C 0.77715 0.58229 0.37299 0.0
C3439 C 0.7816 0.52635 0.40179 0.0
H3440 H 0.77685 0.54796 0.26048 0.0
H3441 H 0.82856 0.58087 0.30984 0.0
H3442 H 0.75332 0.52591 0.34388 0.0
H3443 H 0.75078 0.54449 0.32943 0.0
H3444 H 0.75087 0.52912 0.29604 0.0
H3445 H 0.83311 0.58232 0.37301 0.0
H3446 H 0.81576 0.58596 0.39171 0.0
H3447 H 0.81575 0.56548 0.40159 0.0
H3448 H 0.76611 0.57776 0.44234 0.0
H3449 H 0.77077 0.53126 0.46772 0.0
H3450 H 0.77263 0.57721 0.34497 0.0
H3451 H 0.79167 0.59254 0.37186 0.0
H3452 H 0.7697 0.58904 0.38261 0.0
H3453 H 0.77505 0.52004 0.37557 0.0
H3454 H 0.77728 0.51566 0.42281 0.0
H3455 H 0.79636 0.53258 0.39786 0.0
C3456 C 0.88417 0.75941 0.72917 0.0
C3457 C 0.89535 0.75204 0.73476 0.0
C3458 C 0.88018 0.76263 0.69369 0.0
C3459 C 0.8878 0.75861 0.6633 0.0
C3460 C 0.90002 0.75226 0.66916 0.0
C3461 C 0.90346 0.74885 0.70477 0.0
C3462 C 0.86679 0.76902 0.68869 0.0
C3463 C 0.9087 0.7481 0.63771 0.0
C3464 C 0.86257 0.74437 0.57309 0.0
C3465 C 0.87161 0.76019 0.55225 0.0
C3466 C 0.86742 0.74385 0.60944 0.0
C3467 C 0.88184 0.75946 0.62546 0.0
C3468 C 0.89098 0.77549 0.60474 0.0
C3469 C 0.88568 0.7757 0.56856 0.0
C3470 C 0.8572 0.72651 0.63063 0.0
C3471 C 0.90656 0.79234 0.62061 0.0
H3472 H 0.87748 0.76136 0.75232 0.0
H3473 H 0.91188 0.74287 0.70916 0.0
H3474 H 0.87193 0.78032 0.66896 0.0
H3475 H 0.85407 0.75787 0.67741 0.0
H3476 H 0.86369 0.77349 0.71474 0.0
H3477 H 0.91877 0.74437 0.64693 0.0
H3478 H 0.89823 0.73677 0.6215 0.0
H3479 H 0.91545 0.75993 0.61935 0.0
H3480 H 0.8519 0.7322 0.5608 0.0
H3481 H 0.8926 0.78809 0.55305 0.0
H3482 H 0.85165 0.72901 0.65582 0.0
H3483 H 0.86643 0.72156 0.63897 0.0
H3484 H 0.84593 0.71574 0.61473 0.0
H3485 H 0.90225 0.79633 0.64572 0.0
H3486 H 0.91206 0.80382 0.60122 0.0
H3487 H 0.91752 0.78966 0.62841 0.0
C3488 C 0.20615 0.10214 0.57891 0.0
C3489 C 0.21867 0.09714 0.56732 0.0
C3490 C 0.20622 0.10775 0.61495 0.0
C3491 C 0.2191 0.10837 0.64004 0.0
C3492 C 0.23112 0.10244 0.62886 0.0
C3493 C 0.23079 0.09698 0.59274 0.0
C3494 C 0.19312 0.11388 0.62567 0.0
C3495 C 0.24531 0.10289 0.65384 0.0
C3496 C 0.2373 0.14394 0.71414 0.0
C3497 C 0.22942 0.13377 0.74569 0.0
C3498 C 0.23361 0.13591 0.67965 0.0
C3499 C 0.22146 0.1172 0.67628 0.0
C3500 C 0.21268 0.10697 0.70778 0.0
C3501 C 0.21677 0.11539 0.74223 0.0
C3502 C 0.2436 0.14732 0.6471 0.0
C3503 C 0.19986 0.08695 0.70528 0.0
H3504 H 0.19677 0.10238 0.55943 0.0
H3505 H 0.24031 0.09284 0.58425 0.0
H3506 H 0.18636 0.10746 0.65164 0.0
H3507 H 0.20055 0.12867 0.63012 0.0
H3508 H 0.18268 0.11067 0.60449 0.0
H3509 H 0.2475 0.09138 0.64818 0.0
H3510 H 0.25819 0.11544 0.64829 0.0
H3511 H 0.24192 0.10259 0.68305 0.0
H3512 H 0.24696 0.1582 0.71651 0.0
H3513 H 0.21078 0.10742 0.7665 0.0
H3514 H 0.23406 0.14534 0.62476 0.0
H3515 H 0.25311 0.1431 0.63678 0.0
H3516 H 0.25139 0.16192 0.65381 0.0
H3517 H 0.18959 0.08398 0.6839 0.0
H3518 H 0.1929 0.08119 0.73151 0.0
H3519 H 0.20744 0.08009 0.69734 0.0
C3520 C 0.86577 0.12118 0.72681 0.0
C3521 C 0.86082 0.1049 0.74472 0.0
C3522 C 0.87426 0.12505 0.69283 0.0
C3523 C 0.8777 0.1122 0.67602 0.0
C3524 C 0.8738 0.09623 0.69507 0.0
C3525 C 0.86545 0.09278 0.72947 0.0
C3526 C 0.8783 0.14232 0.67384 0.0
C3527 C 0.87722 0.08219 0.67801 0.0
C3528 C 0.87534 0.11314 0.573 0.0
C3529 C 0.8936 0.12315 0.56333 0.0
C3530 C 0.87005 0.10886 0.60945 0.0
C3531 C 0.88334 0.1147 0.63709 0.0
C3532 C 0.90181 0.12431 0.62749 0.0
C3533 C 0.90673 0.12841 0.59071 0.0
C3534 C 0.85019 0.09858 0.61844 0.0
C3535 C 0.91636 0.1309 0.65617 0.0
H3536 H 0.86218 0.13057 0.73871 0.0
H3537 H 0.8614 0.0801 0.74314 0.0
H3538 H 0.89222 0.14923 0.66284 0.0
H3539 H 0.86896 0.13918 0.65051 0.0
H3540 H 0.87677 0.15176 0.69227 0.0
H3541 H 0.87592 0.07188 0.69806 0.0
H3542 H 0.86735 0.07528 0.65579 0.0
H3543 H 0.89087 0.08856 0.66576 0.0
H3544 H 0.86512 0.1087 0.55197 0.0
H3545 H 0.92086 0.13623 0.58351 0.0
H3546 H 0.84654 0.10729 0.63443 0.0
H3547 H 0.84705 0.08666 0.63547 0.0
H3548 H 0.8416 0.09395 0.59367 0.0
H3549 H 0.91598 0.14152 0.6728 0.0
H3550 H 0.93002 0.13656 0.64411 0.0
H3551 H 0.914 0.11975 0.67485 0.0
C3552 C 0.20726 0.08517 0.07998 0.0
C3553 C 0.2181 0.10291 0.06744 0.0
C3554 C 0.20877 0.08037 0.11595 0.0
C3555 C 0.2214 0.09359 0.14002 0.0
C3556 C 0.2317 0.11167 0.12789 0.0
C3557 C 0.22997 0.11606 0.09188 0.0
C3558 C 0.1974 0.06098 0.12773 0.0
C3559 C 0.2455 0.12645 0.15169 0.0
C3560 C 0.22171 0.08609 0.24262 0.0
C3561 C 0.23567 0.08211 0.24566 0.0
C3562 C 0.21635 0.08917 0.20826 0.0
C3563 C 0.22519 0.08825 0.17633 0.0
C3564 C 0.2387 0.08341 0.17931 0.0
C3565 C 0.24361 0.08024 0.21377 0.0
C3566 C 0.20204 0.09449 0.20624 0.0
C3567 C 0.24884 0.08269 0.14632 0.0
H3568 H 0.19807 0.07488 0.06129 0.0
H3569 H 0.23818 0.12987 0.08271 0.0
H3570 H 0.20616 0.055 0.13199 0.0
H3571 H 0.1907 0.0602 0.15403 0.0
H3572 H 0.18695 0.05273 0.10725 0.0
H3573 H 0.24623 0.13952 0.14564 0.0
H3574 H 0.24274 0.12357 0.18113 0.0
H3575 H 0.25888 0.12806 0.14534 0.0
H3576 H 0.21561 0.08772 0.2671 0.0
H3577 H 0.2543 0.07698 0.21579 0.0
H3578 H 0.19173 0.08621 0.18559 0.0
H3579 H 0.20827 0.10878 0.19755 0.0
H3580 H 0.19526 0.09296 0.23285 0.0
H3581 H 0.2393 0.07422 0.12472 0.0
H3582 H 0.25789 0.07727 0.15283 0.0
H3583 H 0.25714 0.09649 0.1351 0.0
C3584 C 0.91481 0.14799 0.20958 0.0
C3585 C 0.90388 0.13725 0.23803 0.0
C3586 C 0.91234 0.14124 0.17389 0.0
C3587 C 0.89827 0.12346 0.1665 0.0
C3588 C 0.88804 0.11219 0.19573 0.0
C3589 C 0.89102 0.11924 0.23122 0.0
C3590 C 0.9237 0.15367 0.14372 0.0
C3591 C 0.87276 0.09327 0.18917 0.0
C3592 C 0.87471 0.11583 0.07503 0.0
C3593 C 0.88141 0.10634 0.0555 0.0
C3594 C 0.88008 0.12139 0.11105 0.0
C3595 C 0.89265 0.11758 0.12811 0.0
C3596 C 0.89964 0.10819 0.10855 0.0
C3597 C 0.89388 0.1026 0.07258 0.0
C3598 C 0.87214 0.13123 0.13099 0.0
C3599 C 0.91318 0.10402 0.12565 0.0
H3600 H 0.92441 0.16208 0.21477 0.0
H3601 H 0.88223 0.11112 0.25313 0.0
H3602 H 0.92803 0.14655 0.12456 0.0
H3603 H 0.9156 0.1582 0.12805 0.0
H3604 H 0.93585 0.16578 0.15441 0.0
H3605 H 0.86795 0.08544 0.21485 0.0
H3606 H 0.86131 0.09388 0.17648 0.0
H3607 H 0.87691 0.08596 0.17012 0.0
H3608 H 0.86537 0.11914 0.06201 0.0
H3609 H 0.89902 0.09512 0.05797 0.0
H3610 H 0.883 0.14471 0.13983 0.0
H3611 H 0.86514 0.12359 0.15581 0.0
H3612 H 0.86238 0.13301 0.11406 0.0
H3613 H 0.92516 0.11669 0.13485 0.0
H3614 H 0.91765 0.09697 0.10656 0.0
H3615 H 0.90724 0.09544 0.15007 0.0
C3616 C 0.86904 0.76151 0.06588 0.0
C3617 C 0.88731 0.76846 0.05761 0.0
C3618 C 0.86312 0.7595 0.10207 0.0
C3619 C 0.87579 0.76467 0.13082 0.0
C3620 C 0.89435 0.7724 0.12264 0.0
C3621 C 0.89988 0.7741 0.08612 0.0
C3622 C 0.84317 0.75095 0.10953 0.0
C3623 C 0.90827 0.77815 0.15247 0.0
C3624 C 0.85725 0.76548 0.22477 0.0
C3625 C 0.8515 0.74788 0.23648 0.0
C3626 C 0.86607 0.77161 0.19101 0.0
C3627 C 0.86925 0.75984 0.169 0.0
C3628 C 0.86452 0.7425 0.18214 0.0
C3629 C 0.85566 0.73674 0.21558 0.0
C3630 C 0.87094 0.79019 0.1779 0.0
C3631 C 0.86775 0.72953 0.1599 0.0
H3632 H 0.85923 0.75693 0.04401 0.0
H3633 H 0.91405 0.77967 0.07986 0.0
H3634 H 0.83818 0.73751 0.12219 0.0
H3635 H 0.84056 0.75928 0.129 0.0
H3636 H 0.83527 0.74918 0.08433 0.0
H3637 H 0.92223 0.78588 0.14174 0.0
H3638 H 0.90626 0.78655 0.17285 0.0
H3639 H 0.90672 0.76606 0.16686 0.0
H3640 H 0.8539 0.77403 0.24082 0.0
H3641 H 0.85133 0.72314 0.22482 0.0
H3642 H 0.86172 0.78902 0.15548 0.0
H3643 H 0.88485 0.7973 0.16688 0.0
H3644 H 0.86987 0.7985 0.19993 0.0
H3645 H 0.85905 0.72539 0.13532 0.0
H3646 H 0.86475 0.71721 0.17545 0.0
H3647 H 0.88194 0.73613 0.15054 0.0
C3648 C 0.7998 0.57268 0.92767 0.0
C3649 C 0.78653 0.56572 0.95487 0.0
C3650 C 0.79573 0.57558 0.89206 0.0
C3651 C 0.77797 0.57154 0.88339 0.0
C3652 C 0.76449 0.5644 0.91065 0.0
C3653 C 0.76892 0.56155 0.94595 0.0
C3654 C 0.81048 0.58319 0.86381 0.0
C3655 C 0.74547 0.56018 0.90279 0.0
C3656 C 0.77113 0.59641 0.80481 0.0
C3657 C 0.76445 0.58331 0.7771 0.0
C3658 C 0.77564 0.59278 0.83925 0.0
C3659 C 0.77365 0.57563 0.84639 0.0
C3660 C 0.7672 0.56241 0.81848 0.0
C3661 C 0.76264 0.56638 0.78417 0.0
C3662 C 0.78239 0.6073 0.8681 0.0
C3663 C 0.76497 0.544 0.825 0.0
H3664 H 0.8134 0.57578 0.9342 0.0
H3665 H 0.75863 0.55645 0.96687 0.0
H3666 H 0.80636 0.57419 0.83969 0.0
H3667 H 0.81279 0.59649 0.85441 0.0
H3668 H 0.82339 0.58489 0.87442 0.0
H3669 H 0.73639 0.55401 0.9265 0.0
H3670 H 0.74547 0.57274 0.89523 0.0
H3671 H 0.73991 0.55083 0.87932 0.0
H3672 H 0.77281 0.60964 0.79975 0.0
H3673 H 0.75757 0.5562 0.76301 0.0
H3674 H 0.77343 0.6024 0.89224 0.0
H3675 H 0.78301 0.61986 0.85824 0.0
H3676 H 0.79604 0.61058 0.87722 0.0
H3677 H 0.77795 0.54533 0.83402 0.0
H3678 H 0.76032 0.53539 0.80027 0.0
H3679 H 0.75506 0.53707 0.84712 0.0
C3680 C 0.40262 0.20244 0.80559 0.0
C3681 C 0.41275 0.19634 0.78662 0.0
C3682 C 0.40757 0.20973 0.8406 0.0
C3683 C 0.4229 0.21069 0.85742 0.0
C3684 C 0.43386 0.20563 0.83745 0.0
C3685 C 0.42869 0.19857 0.80202 0.0
C3686 C 0.39558 0.21514 0.86055 0.0
C3687 C 0.45025 0.20636 0.85445 0.0
C3688 C 0.43692 0.23687 0.94655 0.0
C3689 C 0.42718 0.22314 0.97195 0.0
C3690 C 0.4364 0.23297 0.90921 0.0
C3691 C 0.42597 0.21492 0.89705 0.0
C3692 C 0.4168 0.20094 0.92281 0.0
C3693 C 0.4175 0.20522 0.95986 0.0
C3694 C 0.44624 0.24826 0.88263 0.0
C3695 C 0.40558 0.18148 0.91111 0.0
H3696 H 0.39025 0.20065 0.79363 0.0
H3697 H 0.43636 0.19359 0.78755 0.0
H3698 H 0.38826 0.20529 0.88257 0.0
H3699 H 0.40375 0.22856 0.87344 0.0
H3700 H 0.38549 0.21562 0.84224 0.0
H3701 H 0.45877 0.20461 0.83392 0.0
H3702 H 0.45852 0.21935 0.86882 0.0
H3703 H 0.44588 0.19544 0.87495 0.0
H3704 H 0.44435 0.25075 0.95567 0.0
H3705 H 0.41021 0.19451 0.97942 0.0
H3706 H 0.43631 0.25009 0.86649 0.0
H3707 H 0.45419 0.24511 0.86321 0.0
H3708 H 0.45542 0.26117 0.89656 0.0
H3709 H 0.39393 0.17974 0.89469 0.0
H3710 H 0.40036 0.1721 0.93464 0.0
H3711 H 0.41366 0.17761 0.89364 0.0
C3712 C 0.82038 0.23429 0.81421 0.0
C3713 C 0.81032 0.23216 0.78255 0.0
C3714 C 0.81235 0.2304 0.84873 0.0
C3715 C 0.79376 0.22451 0.85202 0.0
C3716 C 0.78372 0.22338 0.82038 0.0
C3717 C 0.79212 0.22722 0.78593 0.0
C3718 C 0.82357 0.2315 0.88143 0.0
C3719 C 0.76384 0.21694 0.82273 0.0
C3720 C 0.77249 0.19482 0.93504 0.0
C3721 C 0.77314 0.2072 0.96083 0.0
C3722 C 0.77806 0.2 0.899 0.0
C3723 C 0.78478 0.21815 0.88821 0.0
C3724 C 0.7847 0.23056 0.91363 0.0
C3725 C 0.7789 0.22496 0.94958 0.0
C3726 C 0.77783 0.18601 0.87383 0.0
C3727 C 0.79142 0.24994 0.90323 0.0
H3728 H 0.83452 0.23835 0.81188 0.0
H3729 H 0.78422 0.22536 0.76159 0.0
H3730 H 0.82205 0.23953 0.9034 0.0
H3731 H 0.81876 0.21774 0.89227 0.0
H3732 H 0.8381 0.23764 0.87472 0.0
H3733 H 0.75835 0.2186 0.79654 0.0
H3734 H 0.7565 0.20244 0.83026 0.0
H3735 H 0.7612 0.22439 0.84432 0.0
H3736 H 0.76834 0.18114 0.9433 0.0
H3737 H 0.77913 0.23458 0.96904 0.0
H3738 H 0.78947 0.18427 0.88085 0.0
H3739 H 0.77861 0.18963 0.84467 0.0
H3740 H 0.76544 0.17277 0.87814 0.0
H3741 H 0.80618 0.25686 0.89854 0.0
H3742 H 0.78864 0.25738 0.92467 0.0
H3743 H 0.78504 0.25063 0.87744 0.0
C3744 C 0.01094 0.44966 0.2795 0.0
C3745 C 0.00078 0.45305 0.25397 0.0
C3746 C 0.00768 0.4494 0.31719 0.0
C3747 C -0.00593 0.45286 0.33001 0.0
C3748 C 0.98424 0.45698 0.30441 0.0
C3749 C 0.98758 0.45685 0.26683 0.0
C3750 C 0.01854 0.44499 0.3433 0.0
C3751 C 0.9701 0.46143 0.31674 0.0
C3752 C 0.97266 0.43303 0.42238 0.0
C3753 C 0.98203 0.4477 0.44612 0.0
C3754 C 0.97633 0.43462 0.38473 0.0
C3755 C 0.9896 0.45134 0.36997 0.0
C3756 C -0.00118 0.46634 0.39364 0.0
C3757 C -0.00495 0.4643 0.43131 0.0
C3758 C 0.9662 0.41823 0.36079 0.0
C3759 C 0.01296 0.48451 0.37945 0.0
H3760 H 0.02113 0.44665 0.26992 0.0
H3761 H 0.97988 0.45982 0.2474 0.0
H3762 H 0.02542 0.45604 0.36341 0.0
H3763 H 0.00944 0.43257 0.35869 0.0
H3764 H 0.02885 0.44294 0.32919 0.0
H3765 H 0.96418 0.46511 0.29367 0.0
H3766 H 0.95911 0.44969 0.33112 0.0
H3767 H 0.97606 0.47282 0.33633 0.0
H3768 H 0.96273 0.42009 0.4334 0.0
H3769 H 0.00227 0.4758 0.4492 0.0
H3770 H 0.97582 0.41488 0.34761 0.0
H3771 H 0.95911 0.42111 0.33879 0.0
H3772 H 0.95614 0.40626 0.37625 0.0
H3773 H 0.02572 0.48441 0.37508 0.0
H3774 H 0.01565 0.49552 0.39889 0.0
H3775 H 0.00887 0.48755 0.35293 0.0
C3776 C 0.54998 0.54942 0.4204 0.0
C3777 C 0.55678 0.53848 0.43316 0.0
C3778 C 0.54906 0.55237 0.38291 0.0
C3779 C 0.55499 0.54414 0.35712 0.0
C3780 C 0.56145 0.53273 0.3697 0.0
C3781 C 0.56229 0.53006 0.4074 0.0
C3782 C 0.54195 0.56452 0.37092 0.0
C3783 C 0.56783 0.5236 0.3433 0.0
C3784 C 0.53967 0.54103 0.25804 0.0
C3785 C 0.55472 0.55565 0.24167 0.0
C3786 C 0.53959 0.53705 0.29533 0.0
C3787 C 0.55492 0.54793 0.31714 0.0
C3788 C 0.57016 0.56265 0.30079 0.0
C3789 C 0.56989 0.5663 0.26344 0.0
C3790 C 0.52307 0.52116 0.31137 0.0
C3791 C 0.58676 0.5747 0.32289 0.0
H3792 H 0.54531 0.5557 0.43981 0.0
H3793 H 0.5677 0.52171 0.4167 0.0
H3794 H 0.55257 0.57624 0.35584 0.0
H3795 H 0.53042 0.55717 0.35205 0.0
H3796 H 0.53748 0.56958 0.39422 0.0
H3797 H 0.57164 0.51446 0.3572 0.0
H3798 H 0.55712 0.51567 0.32309 0.0
H3799 H 0.57968 0.53391 0.32803 0.0
H3800 H 0.52796 0.5325 0.24156 0.0
H3801 H 0.58152 0.57774 0.25139 0.0
H3802 H 0.51756 0.52578 0.33357 0.0
H3803 H 0.52671 0.51155 0.32353 0.0
H3804 H 0.51231 0.5139 0.29078 0.0
H3805 H 0.58325 0.58113 0.34518 0.0
H3806 H 0.5976 0.58544 0.30615 0.0
H3807 H 0.59209 0.56657 0.33571 0.0
C3808 C 0.44387 0.97414 0.27799 0.0
C3809 C 0.43741 0.98321 0.25617 0.0
C3810 C 0.4464 0.9773 0.31587 0.0
C3811 C 0.44233 0.98979 0.33264 0.0
C3812 C 0.43594 -0.00095 0.3107 0.0
C3813 C 0.43356 -0.00435 0.273 0.0
C3814 C 0.45336 0.96719 0.33798 0.0
C3815 C 0.43136 0.01242 0.32716 0.0
C3816 C 0.43 0.98574 0.4336 0.0
C3817 C 0.44576 -0.00034 0.44955 0.0
C3818 C 0.42892 0.98212 0.39598 0.0
C3819 C 0.44392 0.99267 0.37322 0.0
C3820 C 0.46 0.00656 0.38914 0.0
C3821 C 0.46071 0.00989 0.42695 0.0
C3822 C 0.4115 0.9672 0.38044 0.0
C3823 C 0.47639 0.01808 0.36614 0.0
H3824 H 0.44714 0.96468 0.26539 0.0
H3825 H 0.42831 0.00256 0.25675 0.0
H3826 H 0.46599 0.97685 0.35212 0.0
H3827 H 0.44341 0.95905 0.35925 0.0
H3828 H 0.45607 0.95807 0.32095 0.0
H3829 H 0.42714 0.01898 0.30633 0.0
H3830 H 0.42027 0.00551 0.34715 0.0
H3831 H 0.44316 0.02303 0.34208 0.0
H3832 H 0.41824 0.97787 0.45044 0.0
H3833 H 0.47306 0.0205 0.43884 0.0
H3834 H 0.41406 0.95761 0.36486 0.0
H3835 H 0.40569 0.97294 0.36122 0.0
H3836 H 0.40136 0.95962 0.40189 0.0
H3837 H 0.4804 0.00944 0.35094 0.0
H3838 H 0.48805 0.02791 0.38267 0.0
H3839 H 0.47316 0.0256 0.34572 0.0
C3840 C -0.00446 0.5516 0.92776 0.0
C3841 C 0.98022 0.53634 0.94177 0.0
C3842 C -0.00063 0.55366 0.89017 0.0
C3843 C 0.98742 0.54038 0.86536 0.0
C3844 C 0.97197 0.52491 0.87913 0.0
C3845 C 0.96867 0.52301 0.91697 0.0
C3846 C 0.01616 0.57023 0.87696 0.0
C3847 C 0.95874 0.51047 0.85381 0.0
C3848 C 0.98829 0.55578 0.76717 0.0
C3849 C -0.00186 0.54906 0.7489 0.0
C3850 C 0.98443 0.55274 0.80466 0.0
C3851 C -0.00917 0.54301 0.82503 0.0
C3852 C 0.00082 0.5362 0.80693 0.0
C3853 C 0.00418 0.53914 0.76924 0.0
C3854 C 0.97352 0.56004 0.82254 0.0
C3855 C 0.0081 0.52591 0.82744 0.0
H3856 H 0.00449 0.56225 0.94607 0.0
H3857 H 0.95698 0.51096 0.92705 0.0
H3858 H 0.02431 0.56625 0.85997 0.0
H3859 H 0.0124 0.57844 0.85961 0.0
H3860 H 0.02466 0.57877 0.89975 0.0
H3861 H 0.94734 0.49929 0.86866 0.0
H3862 H 0.95324 0.51641 0.83433 0.0
H3863 H 0.96566 0.50479 0.8376 0.0
H3864 H 0.98373 0.56369 0.75231 0.0
H3865 H 0.01145 0.53347 0.75568 0.0
H3866 H 0.98176 0.5701 0.84358 0.0
H3867 H 0.96164 0.54899 0.83646 0.0
H3868 H 0.96875 0.56655 0.8027 0.0
H3869 H 0.01695 0.53432 0.84994 0.0
H3870 H 0.0159 0.52178 0.80966 0.0
H3871 H -0.00314 0.51364 0.8399 0.0
C3872 C 0.45346 0.47747 0.7748 0.0
C3873 C 0.44961 0.46297 0.75143 0.0
C3874 C 0.45434 0.47591 0.8129 0.0
C3875 C 0.451 0.45934 0.82838 0.0
C3876 C 0.44741 0.44476 0.80492 0.0
C3877 C 0.44681 0.44676 0.76694 0.0
C3878 C 0.4585 0.49195 0.83656 0.0
C3879 C 0.44377 0.42685 0.82001 0.0
C3880 C 0.46478 0.45692 0.92667 0.0
C3881 C 0.4484 0.45044 0.94553 0.0
C3882 C 0.46594 0.4602 0.88883 0.0
C3883 C 0.45034 0.45687 0.86902 0.0
C3884 C 0.43385 0.45056 0.88796 0.0
C3885 C 0.43308 0.44744 0.92575 0.0
C3886 C 0.48385 0.4671 0.86998 0.0
C3887 C 0.41688 0.4468 0.86814 0.0
H3888 H 0.45586 0.49012 0.76331 0.0
H3889 H 0.44362 0.43538 0.74938 0.0
H3890 H 0.44611 0.48943 0.85109 0.0
H3891 H 0.46873 0.49405 0.85745 0.0
H3892 H 0.46354 0.50452 0.8204 0.0
H3893 H 0.44192 0.41707 0.79822 0.0
H3894 H 0.45507 0.42875 0.83775 0.0
H3895 H 0.43144 0.42094 0.83706 0.0
H3896 H 0.47678 0.45956 0.94155 0.0
H3897 H 0.42029 0.44221 0.93969 0.0
H3898 H 0.48731 0.47954 0.85446 0.0
H3899 H 0.48298 0.45693 0.85014 0.0
H3900 H 0.49494 0.47009 0.88943 0.0
H3901 H 0.41904 0.45909 0.85362 0.0
H3902 H 0.40521 0.44234 0.8868 0.0
H3903 H 0.41345 0.43616 0.84735 0.0
C3904 C 0.54666 -0.00479 0.93471 0.0
C3905 C 0.54335 0.00833 0.95011 0.0
C3906 C 0.54433 0.99125 0.89719 0.0
C3907 C 0.53874 0.00073 0.87389 0.0
C3908 C 0.53515 0.01383 0.88918 0.0
C3909 C 0.53742 0.01742 0.92694 0.0
C3910 C 0.54825 0.97711 0.88235 0.0
C3911 C 0.52917 0.02431 0.86554 0.0
C3912 C 0.55232 0.00403 0.77376 0.0
C3913 C 0.53635 0.99091 0.75695 0.0
C3914 C 0.55314 0.00752 0.8114 0.0
C3915 C 0.53766 -0.00242 0.83338 0.0
C3916 C 0.52146 0.98431 0.81673 0.0
C3917 C 0.52099 0.98117 0.77887 0.0
C3918 C 0.5707 0.02182 0.82772 0.0
C3919 C 0.50462 0.97335 0.83894 0.0
H3920 H 0.55153 0.98825 0.95185 0.0
H3921 H 0.5345 0.02736 0.93829 0.0
H3922 H 0.53652 0.96688 0.86663 0.0
H3923 H 0.55987 0.98346 0.8634 0.0
H3924 H 0.55142 0.97015 0.9042 0.0
H3925 H 0.52657 0.03379 0.88156 0.0
H3926 H 0.53968 0.03213 0.84492 0.0
H3927 H 0.51671 0.01492 0.85059 0.0
H3928 H 0.5644 0.01147 0.75755 0.0
H3929 H 0.50848 0.97118 0.76638 0.0
H3930 H 0.5756 0.01562 0.84792 0.0
H3931 H 0.56861 0.03197 0.84236 0.0
H3932 H 0.58133 0.02886 0.80684 0.0
H3933 H 0.50725 0.9659 0.86058 0.0
H3934 H 0.49312 0.9635 0.82208 0.0
H3935 H 0.50067 0.98241 0.85264 0.0
C3936 C 0.63508 0.78203 0.77438 0.0
C3937 C 0.64263 0.77344 0.79448 0.0
C3938 C 0.63846 0.78545 0.7368 0.0
C3939 C 0.64973 0.78021 0.71863 0.0
C3940 C 0.65747 0.77163 0.7388 0.0
C3941 C 0.65381 0.76834 0.77628 0.0
C3942 C 0.62983 0.79452 0.71649 0.0
C3943 C 0.66966 0.76592 0.72076 0.0
C3944 C 0.64588 0.77167 0.61603 0.0
C3945 C 0.66088 0.78731 0.60237 0.0
C3946 C 0.64183 0.76947 0.65348 0.0
C3947 C 0.65308 0.78315 0.67837 0.0
C3948 C 0.668 0.79916 0.6648 0.0
C3949 C 0.67168 0.80106 0.62712 0.0
C3950 C 0.62571 0.75223 0.66652 0.0
C3951 C 0.68033 0.81416 0.69019 0.0
H3952 H 0.62627 0.78588 0.78794 0.0
H3953 H 0.65998 0.76199 0.7915 0.0
H3954 H 0.64034 0.80703 0.70329 0.0
H3955 H 0.62101 0.78552 0.69457 0.0
H3956 H 0.62163 0.79802 0.73459 0.0
H3957 H 0.67491 0.75973 0.74028 0.0
H3958 H 0.66223 0.75603 0.69886 0.0
H3959 H 0.68125 0.77774 0.70787 0.0
H3960 H 0.63755 0.76079 0.59756 0.0
H3961 H 0.68313 0.81335 0.61708 0.0
H3962 H 0.61689 0.75531 0.68353 0.0
H3963 H 0.63028 0.74464 0.6838 0.0
H3964 H 0.61762 0.74341 0.64363 0.0
H3965 H 0.67246 0.81877 0.70638 0.0
H3966 H 0.69113 0.82591 0.67539 0.0
H3967 H 0.6867 0.80912 0.70968 0.0
C3968 C 0.2107 0.88608 0.76221 0.0
C3969 C 0.21231 0.87214 0.77893 0.0
C3970 C 0.20765 0.88612 0.7245 0.0
C3971 C 0.20669 0.87217 0.70213 0.0
C3972 C 0.2082 0.858 0.71861 0.0
C3973 C 0.21073 0.85802 0.75663 0.0
C3974 C 0.20568 0.90129 0.7085 0.0
C3975 C 0.20749 0.84293 0.69602 0.0
C3976 C 0.18628 0.86596 0.60649 0.0
C3977 C 0.2016 0.87638 0.58502 0.0
C3978 C 0.18767 0.86438 0.64448 0.0
C3979 C 0.20487 0.87296 0.66145 0.0
C3980 C 0.22041 0.88303 0.63959 0.0
C3981 C 0.21857 0.88483 0.60191 0.0
C3982 C 0.17068 0.85382 0.66652 0.0
C3983 C 0.23905 0.89201 0.65607 0.0
H3984 H 0.21219 0.89731 0.77841 0.0
H3985 H 0.21147 0.84689 0.76876 0.0
H3986 H 0.21713 0.90947 0.68998 0.0
H3987 H 0.19315 0.89576 0.69208 0.0
H3988 H 0.20528 0.91031 0.72975 0.0
H3989 H 0.20942 0.83318 0.71269 0.0
H3990 H 0.19432 0.83551 0.68189 0.0
H3991 H 0.21809 0.84858 0.67473 0.0
H3992 H 0.17312 0.85943 0.59366 0.0
H3993 H 0.23048 0.89272 0.58546 0.0
H3994 H 0.17037 0.86219 0.68929 0.0
H3995 H 0.1704 0.84182 0.67867 0.0
H3996 H 0.15834 0.84922 0.6498 0.0
H3997 H 0.2406 0.9026 0.67554 0.0
H3998 H 0.24979 0.8983 0.63516 0.0
H3999 H 0.24102 0.882 0.67157 0.0
C4000 C 0.13772 0.35139 0.74812 0.0
C4001 C 0.12238 0.34309 0.77053 0.0
C4002 C 0.13648 0.3485 0.71015 0.0
C4003 C 0.11948 0.33702 0.69391 0.0
C4004 C 0.104 0.32845 0.71641 0.0
C4005 C 0.10562 0.3316 0.75423 0.0
C4006 C 0.15337 0.35785 0.68738 0.0
C4007 C 0.0856 0.3161 0.70045 0.0
C4008 C 0.11152 0.34312 0.59382 0.0
C4009 C 0.11248 0.32893 0.57674 0.0
C4010 C 0.11409 0.34606 0.63161 0.0
C4011 C 0.11766 0.3345 0.65332 0.0
C4012 C 0.11883 0.32024 0.63629 0.0
C4013 C 0.11624 0.31764 0.59834 0.0
C4014 C 0.11274 0.36144 0.64841 0.0
C4015 C 0.12269 0.30763 0.6582 0.0
H4016 H 0.15079 0.36004 0.76031 0.0
H4017 H 0.09363 0.32527 0.771 0.0
H4018 H 0.15543 0.34772 0.67262 0.0
H4019 H 0.15196 0.36648 0.66661 0.0
H4020 H 0.16555 0.36638 0.70404 0.0
H4021 H 0.075 0.30992 0.72167 0.0
H4022 H 0.08189 0.32374 0.68131 0.0
H4023 H 0.08582 0.30516 0.68467 0.0
H4024 H 0.10839 0.35181 0.5777 0.0
H4025 H 0.11731 0.30682 0.58554 0.0
H4026 H 0.12524 0.3704 0.66374 0.0
H4027 H 0.10142 0.35609 0.6681 0.0
H4028 H 0.11055 0.36962 0.62772 0.0
H4029 H 0.13578 0.31539 0.67252 0.0
H4030 H 0.12317 0.2972 0.64098 0.0
H4031 H 0.11217 0.30079 0.67931 0.0
C4032 C 0.66459 0.89747 0.12208 0.0
C4033 C 0.66716 0.88537 0.10053 0.0
C4034 C 0.66076 0.89443 0.15952 0.0
C4035 C 0.65947 0.87891 0.17626 0.0
C4036 C 0.66209 0.86664 0.15478 0.0
C4037 C 0.66589 0.87001 0.1173 0.0
C4038 C 0.65819 0.90795 0.18124 0.0
C4039 C 0.66081 0.8499 0.17137 0.0
C4040 C 0.66631 0.88155 0.27936 0.0
C4041 C 0.64852 0.87268 0.2925 0.0
C4042 C 0.67004 0.88321 0.24178 0.0
C4043 C 0.65568 0.87581 0.21634 0.0
C4044 C 0.6377 0.86633 0.22938 0.0
C4045 C 0.63434 0.86488 0.26717 0.0
C4046 C 0.68941 0.89327 0.22928 0.0
C4047 C 0.62195 0.85814 0.20338 0.0
H4048 H 0.6658 0.90952 0.10973 0.0
H4049 H 0.6676 0.86042 0.10098 0.0
H4050 H 0.64472 0.90118 0.19436 0.0
H4051 H 0.66839 0.91367 0.20328 0.0
H4052 H 0.65936 0.9192 0.16417 0.0
H4053 H 0.6632 0.84169 0.1511 0.0
H4054 H 0.6708 0.85367 0.19366 0.0
H4055 H 0.64727 0.84142 0.18354 0.0
H4056 H 0.6774 0.88727 0.29854 0.0
H4057 H 0.62055 0.85809 0.27681 0.0
H4058 H 0.69198 0.90548 0.2139 0.0
H4059 H 0.69212 0.88472 0.21056 0.0
H4060 H 0.69906 0.89746 0.25237 0.0
H4061 H 0.62152 0.86899 0.18768 0.0
H4062 H 0.60888 0.85012 0.21767 0.0
H4063 H 0.62357 0.84929 0.18351 0.0
C4064 C 0.0935 0.75414 0.24839 0.0
C4065 C 0.10725 0.76692 0.27077 0.0
C4066 C 0.093 0.75715 0.21079 0.0
C4067 C 0.10645 0.77347 0.19493 0.0
C4068 C 0.12042 0.78641 0.21737 0.0
C4069 C 0.12071 0.78294 0.25485 0.0
C4070 C 0.07804 0.74281 0.188 0.0
C4071 C 0.13491 0.80409 0.20191 0.0
C4072 C 0.11326 0.77455 0.09173 0.0
C4073 C 0.10293 0.78205 0.07893 0.0
C4074 C 0.11463 0.77182 0.1292 0.0
C4075 C 0.10572 0.77696 0.15499 0.0
C4076 C 0.09562 0.7849 0.14244 0.0
C4077 C 0.09423 0.7872 0.10478 0.0
C4078 C 0.12548 0.76323 0.14117 0.0
C4079 C 0.08607 0.79081 0.16883 0.0
H4080 H 0.08315 0.74164 0.26028 0.0
H4081 H 0.13128 0.793 0.27192 0.0
H4082 H 0.06998 0.74829 0.17549 0.0
H4083 H 0.08381 0.73866 0.16547 0.0
H4084 H 0.06887 0.73068 0.20417 0.0
H4085 H 0.14489 0.8127 0.22283 0.0
H4086 H 0.14214 0.80159 0.17966 0.0
H4087 H 0.12871 0.81162 0.18998 0.0
H4088 H 0.12044 0.77086 0.07247 0.0
H4089 H 0.08599 0.79277 0.09565 0.0
H4090 H 0.1167 0.75057 0.1562 0.0
H4091 H 0.13633 0.77234 0.16009 0.0
H4092 H 0.13169 0.76006 0.11786 0.0
H4093 H 0.07552 0.77892 0.18364 0.0
H4094 H 0.07965 0.79771 0.15502 0.0
H4095 H 0.09573 0.80009 0.18943 0.0
C4096 C 0.202 0.33041 0.10193 0.0
C4097 C 0.19929 0.31358 0.09044 0.0
C4098 C 0.20374 0.33503 0.13918 0.0
C4099 C 0.20328 0.32275 0.1657 0.0
C4100 C 0.20039 0.30568 0.15416 0.0
C4101 C 0.19821 0.30124 0.11683 0.0
C4102 C 0.20619 0.35311 0.15013 0.0
C4103 C 0.20009 0.29226 0.1812 0.0
C4104 C 0.22712 0.3411 0.25695 0.0
C4105 C 0.21263 0.33596 0.28094 0.0
C4106 C 0.22427 0.33703 0.2195 0.0
C4107 C 0.20648 0.32793 0.20529 0.0
C4108 C 0.19181 0.32329 0.22925 0.0
C4109 C 0.19504 0.32713 0.26675 0.0
C4110 C 0.24032 0.34202 0.19528 0.0
C4111 C 0.17267 0.3141 0.21533 0.0
H4112 H 0.20268 0.33994 0.08169 0.0
H4113 H 0.19624 0.28827 0.10813 0.0
H4114 H 0.19581 0.35128 0.17041 0.0
H4115 H 0.21953 0.36135 0.16325 0.0
H4116 H 0.20525 0.36071 0.12652 0.0
H4117 H 0.19757 0.27953 0.16799 0.0
H4118 H 0.21317 0.29823 0.1958 0.0
H4119 H 0.18947 0.289 0.20189 0.0
H4120 H 0.24072 0.34779 0.26774 0.0
H4121 H 0.18378 0.32328 0.28507 0.0
H4122 H 0.24061 0.35075 0.17268 0.0
H4123 H 0.23918 0.32967 0.1829 0.0
H4124 H 0.25328 0.3492 0.21034 0.0
H4125 H 0.17144 0.32209 0.19287 0.0
H4126 H 0.16286 0.31231 0.23699 0.0
H4127 H 0.16897 0.30067 0.20409 0.0
C4128 C 0.32032 0.09348 0.09704 0.0
C4129 C 0.31739 0.10497 0.11977 0.0
C4130 C 0.3239 0.0971 0.05959 0.0
C4131 C 0.32482 0.11272 0.04414 0.0
C4132 C 0.32206 0.1245 0.06701 0.0
C4133 C 0.31827 0.12043 0.10435 0.0
C4134 C 0.32655 0.08404 0.03643 0.0
C4135 C 0.32311 0.14142 0.05207 0.0
C4136 C 0.34935 0.12831 0.95258 0.0
C4137 C 0.33504 0.12113 0.92743 0.0
C4138 C 0.34624 0.12619 0.99048 0.0
C4139 C 0.32836 0.11646 1.004 0.0
C4140 C 0.31385 0.10956 0.97889 0.0
C4141 C 0.31734 0.11206 0.94118 0.0
C4142 C 0.36215 0.13403 1.01608 0.0
C4143 C 0.29457 0.09917 0.99183 0.0
H4144 H 0.31949 0.08142 0.10847 0.0
H4145 H 0.31627 0.12954 0.12166 0.0
H4146 H 0.3163 0.07863 1.01443 0.0
H4147 H 0.33998 0.09111 1.02321 0.0
H4148 H 0.32551 0.07255 0.05247 0.0
H4149 H 0.32187 0.14977 0.07376 0.0
H4150 H 0.33609 0.14967 0.03766 0.0
H4151 H 0.31219 0.13781 0.03192 0.0
H4152 H 0.3631 0.13521 0.94271 0.0
H4153 H 0.30608 0.10681 0.92243 0.0
H4154 H 0.36283 0.12298 0.03043 0.0
H4155 H 0.36055 0.14243 0.0371 0.0
H4156 H 0.37511 0.14243 1.00164 0.0
H4157 H 0.29227 0.08693 1.00674 0.0
H4158 H 0.28476 0.09499 0.96902 0.0
H4159 H 0.29182 0.10749 1.01108 0.0
C4160 C 0.8744 0.19687 0.9193 0.0
C4161 C 0.86828 0.20843 0.90706 0.0
C4162 C 0.87444 0.19303 0.95663 0.0
C4163 C 0.86852 0.20117 0.98268 0.0
C4164 C 0.86213 0.21269 0.9704 0.0
C4165 C 0.86194 0.21604 0.93285 0.0
C4166 C 0.88095 0.18032 0.9682 0.0
C4167 C 0.85586 0.22183 0.99703 0.0
C4168 C 0.8557 0.18199 0.07925 0.0
C4169 C 0.87151 0.19311 0.09893 0.0
C4170 C 0.85462 0.18419 0.04144 0.0
C4171 C 0.86958 0.19814 1.02274 0.0
C4172 C 0.88559 0.20938 0.04252 0.0
C4173 C 0.88641 0.20661 0.08015 0.0
C4174 C 0.83742 0.17159 1.02151 0.0
C4175 C 0.90178 0.22458 1.02402 0.0
H4176 H 0.87905 0.19069 0.89956 0.0
H4177 H 0.85727 0.22505 0.92372 0.0
H4178 H 0.8932 0.18762 0.98527 0.0
H4179 H 0.87053 0.16927 0.98504 0.0
H4180 H 0.88416 0.17431 0.94459 0.0
H4181 H 0.85097 0.23013 0.98319 0.0
H4182 H 0.84483 0.21162 1.01419 0.0
H4183 H 0.8671 0.23066 1.0155 0.0
H4184 H 0.84417 0.17141 0.09347 0.0
H4185 H 0.89861 0.21538 0.09516 0.0
H4186 H 0.84036 0.16495 0.99871 0.0
H4187 H 0.83147 0.17933 1.00952 0.0
H4188 H 0.82726 0.161 0.0396 0.0
H4189 H 0.90645 0.21919 1.00168 0.0
H4190 H 0.91317 0.23219 0.04316 0.0
H4191 H 0.89803 0.23407 1.01164 0.0
C4192 C 0.76129 0.66634 0.9167 0.0
C4193 C 0.76263 0.65209 0.90081 0.0
C4194 C 0.76434 0.67029 0.95418 0.0
C4195 C 0.76841 0.65949 0.97715 0.0
C4196 C 0.76987 0.64512 0.96148 0.0
C4197 C 0.7672 0.64175 0.92369 0.0
C4198 C 0.763 0.68598 0.9693 0.0
C4199 C 0.77396 0.63306 0.98474 0.0
C4200 C 0.7887 0.67755 0.07161 0.0
C4201 C 0.77335 0.67016 0.09418 0.0
C4202 C 0.78736 0.67421 0.03373 0.0
C4203 C 0.7703 0.66278 1.01766 0.0
C4204 C 0.75483 0.65495 0.04026 0.0
C4205 C 0.75648 0.65893 0.07779 0.0
C4206 C 0.80424 0.68312 1.01084 0.0
C4207 C 0.73639 0.64238 1.02471 0.0
H4208 H 0.75749 0.67434 0.9 0.0
H4209 H 0.76875 0.63097 0.91214 0.0
H4210 H 0.75148 0.68099 0.98842 0.0
H4211 H 0.77537 0.69507 0.98487 0.0
H4212 H 0.76111 0.69392 0.94761 0.0
H4213 H 0.77431 0.62225 0.96866 0.0
H4214 H 0.78717 0.64114 0.99845 0.0
H4215 H 0.76362 0.62672 1.00637 0.0
H4216 H 0.8019 0.68593 0.08347 0.0
H4217 H 0.74437 0.65334 0.09413 0.0
H4218 H 0.80269 0.69109 0.98875 0.0
H4219 H 0.80646 0.67273 0.99773 0.0
H4220 H 0.81639 0.69218 1.02708 0.0
H4221 H 0.73252 0.64979 1.00532 0.0
H4222 H 0.72588 0.63634 0.04614 0.0
H4223 H 0.73661 0.63133 1.00934 0.0
C4224 C 0.31508 0.20774 0.44441 0.0
C4225 C 0.32506 0.20044 0.42907 0.0
C4226 C 0.31157 0.20666 0.48203 0.0
C4227 C 0.31796 0.19783 0.50522 0.0
C4228 C 0.32792 0.19026 0.4899 0.0
C4229 C 0.33147 0.19179 0.45213 0.0
C4230 C 0.30124 0.21525 0.49705 0.0
C4231 C 0.33472 0.18044 0.51336 0.0
C4232 C 0.32301 0.21042 0.60618 0.0
C4233 C 0.30665 0.19693 0.62107 0.0
C4234 C 0.32695 0.21072 0.56885 0.0
C4235 C 0.31449 0.19693 0.54551 0.0
C4236 C 0.29827 0.18289 0.56044 0.0
C4237 C 0.29445 0.18319 0.5977 0.0
C4238 C 0.34435 0.22604 0.55423 0.0
C4239 C 0.28475 0.16767 0.5369 0.0
H4240 H 0.3103 0.2147 0.42698 0.0
H4241 H 0.33908 0.18599 0.44054 0.0
H4242 H 0.28889 0.20497 0.51108 0.0
H4243 H 0.30957 0.22563 0.51753 0.0
H4244 H 0.29726 0.2217 0.47551 0.0
H4245 H 0.34269 0.17579 0.49757 0.0
H4246 H 0.34324 0.1893 0.53572 0.0
H4247 H 0.32314 0.16857 0.52612 0.0
H4248 H 0.33288 0.22086 0.62368 0.0
H4249 H 0.28165 0.17276 0.60822 0.0
H4250 H 0.34138 0.2336 0.53345 0.0
H4251 H 0.35228 0.22069 0.54063 0.0
H4252 H 0.35279 0.23558 0.57592 0.0
H4253 H 0.27906 0.173 0.51644 0.0
H4254 H 0.27348 0.15705 0.55303 0.0
H4255 H 0.29145 0.16143 0.52178 0.0
C4256 C 0.79219 0.09871 0.57345 0.0
C4257 C 0.78332 0.10376 0.59913 0.0
C4258 C 0.79012 0.10009 0.53559 0.0
C4259 C 0.77875 0.10652 0.52257 0.0
C4260 C 0.77013 0.11207 0.54824 0.0
C4261 C 0.77258 0.11073 0.58589 0.0
C4262 C 0.79982 0.09425 0.50946 0.0
C4263 C 0.75795 0.11909 0.53592 0.0
C4264 C 0.78143 0.12164 0.42296 0.0
C4265 C 0.76718 0.10627 0.40657 0.0
C4266 C 0.78555 0.12187 0.46034 0.0
C4267 C 0.77502 0.10648 0.48233 0.0
C4268 C 0.76059 0.09098 0.46591 0.0
C4269 C 0.75694 0.09103 0.42846 0.0
C4270 C 0.80122 0.13863 0.47625 0.0
C4271 C 0.74882 0.07431 0.48805 0.0
H4272 H 0.80042 0.09317 0.58285 0.0
H4273 H 0.76599 0.11517 0.60503 0.0
H4274 H 0.78986 0.08225 0.494 0.0
H4275 H 0.80758 0.1051 0.48941 0.0
H4276 H 0.8092 0.09085 0.52362 0.0
H4277 H 0.75263 0.12336 0.5591 0.0
H4278 H 0.76535 0.13074 0.51737 0.0
H4279 H 0.74641 0.10847 0.52041 0.0
H4280 H 0.78958 0.13344 0.40639 0.0
H4281 H 0.74577 0.07915 0.41637 0.0
H4282 H 0.81052 0.13519 0.49054 0.0
H4283 H 0.79625 0.14466 0.49667 0.0
H4284 H 0.80892 0.14893 0.45512 0.0
H4285 H 0.75717 0.06923 0.5008 0.0
H4286 H 0.73817 0.06334 0.47136 0.0
H4287 H 0.74227 0.07767 0.51037 0.0
C4288 C 0.84911 0.6625 0.58817 0.0
C4289 C 0.86625 0.67321 0.60371 0.0
C4290 C 0.84692 0.65929 0.55035 0.0
C4291 C 0.86224 0.6668 0.52732 0.0
C4292 C 0.87952 0.678 0.54274 0.0
C4293 C 0.8813 0.68112 0.58058 0.0
C4294 C 0.8282 0.64755 0.53517 0.0
C4295 C 0.89623 0.68631 0.51936 0.0
C4296 C 0.86041 0.64361 0.43714 0.0
C4297 C 0.85849 0.65472 0.41153 0.0
C4298 C 0.86136 0.64724 0.47475 0.0
C4299 C 0.86037 0.66237 0.4874 0.0
C4300 C 0.8581 0.67347 0.46178 0.0
C4301 C 0.8572 0.66952 0.4243 0.0
C4302 C 0.86372 0.63498 0.50096 0.0
C4303 C 0.85675 0.68961 0.47392 0.0
H4304 H 0.83736 0.65654 0.60567 0.0
H4305 H 0.8946 0.68929 0.59224 0.0
H4306 H 0.82554 0.65472 0.51302 0.0
H4307 H 0.82712 0.63515 0.52318 0.0
H4308 H 0.8176 0.64357 0.55627 0.0
H4309 H 0.90858 0.6953 0.53516 0.0
H4310 H 0.89798 0.67551 0.50668 0.0
H4311 H 0.89483 0.69422 0.49696 0.0
H4312 H 0.86158 0.63224 0.42775 0.0
H4313 H 0.85534 0.67802 0.40495 0.0
H4314 H 0.8527 0.62955 0.52136 0.0
H4315 H 0.87659 0.64276 0.51602 0.0
H4316 H 0.86376 0.6235 0.48698 0.0
H4317 H 0.84536 0.68532 0.49319 0.0
H4318 H 0.85474 0.69674 0.45073 0.0
H4319 H 0.86921 0.69924 0.48862 0.0
C4320 C 0.03434 0.5075 0.09167 0.0
C4321 C 0.03034 0.50685 0.05474 0.0
C4322 C 0.02078 0.50233 0.11771 0.0
C4323 C 0.00343 0.49874 0.10664 0.0
C4324 C 0.00015 0.50049 0.06932 0.0
C4325 C 0.01344 0.50362 0.04362 0.0
C4326 C 0.02513 0.50019 0.15657 0.0
C4327 C 0.9826 0.49842 0.05557 0.0
C4328 C 0.95863 0.47094 0.15403 0.0
C4329 C 0.95929 0.48319 0.1797 0.0
C4330 C 0.97338 0.47529 0.13165 0.0
C4331 C 0.98877 0.49286 0.13376 0.0
C4332 C 0.98966 0.50491 0.16136 0.0
C4333 C 0.97529 0.49929 0.18558 0.0
C4334 C 0.97124 0.46139 0.10389 0.0
C4335 C 0.00457 0.52435 0.16391 0.0
H4336 H 0.0477 0.51069 0.1001 0.0
H4337 H 0.01052 0.50332 1.0148 0.0
H4338 H 0.02944 0.51294 0.17136 0.0
H4339 H 0.01332 0.48921 0.17081 0.0
H4340 H 0.0365 0.49744 0.15798 0.0
H4341 H 0.97448 0.48494 0.04298 0.0
H4342 H 0.97461 0.5002 0.07722 0.0
H4343 H 0.98522 0.50826 0.03353 0.0
H4344 H 0.94605 0.45848 0.14952 0.0
H4345 H 0.97593 0.50847 0.20649 0.0
H4346 H 0.98416 0.46408 0.09192 0.0
H4347 H 0.96215 0.46089 0.08187 0.0
H4348 H 0.96441 0.44777 0.11632 0.0
H4349 H 0.0124 0.52627 0.18923 0.0
H4350 H -0.00134 0.53328 0.16631 0.0
H4351 H 0.01381 0.52899 0.14026 0.0
C4352 C 0.4923 0.50238 0.04358 0.0
C4353 C 0.50515 0.51718 1.02438 0.0
C4354 C 0.49772 0.4935 0.06796 0.0
C4355 C 0.51636 0.50046 0.07495 0.0
C4356 C 0.52926 0.51405 0.05219 0.0
C4357 C 0.52331 0.52168 1.02583 0.0
C4358 C 0.4834 0.47723 0.08748 0.0
C4359 C 0.54926 0.52131 0.05638 0.0
C4360 C 0.51068 0.48498 0.16977 0.0
C4361 C 0.51175 0.46948 0.16401 0.0
C4362 C 0.51632 0.49801 0.14229 0.0
C4363 C 0.52157 0.49436 0.10812 0.0
C4364 C 0.52612 0.48066 0.10551 0.0
C4365 C 0.52159 0.46858 0.13439 0.0
C4366 C 0.51371 0.514 0.14769 0.0
C4367 C 0.53384 0.47743 0.07128 0.0
H4368 H 0.47816 0.4983 0.04099 0.0
H4369 H 0.53317 0.53248 1.00894 0.0
H4370 H 0.48723 0.46663 0.08946 0.0
H4371 H 0.48152 0.48094 0.11536 0.0
H4372 H 0.47031 0.47172 0.07321 0.0
H4373 H 0.55304 0.51991 0.08458 0.0
H4374 H 0.55338 0.51386 0.03766 0.0
H4375 H 0.55713 0.53572 0.0484 0.0
H4376 H 0.50364 0.48596 0.19341 0.0
H4377 H 0.52322 0.45686 0.13131 0.0
H4378 H 0.49935 0.50993 0.1434 0.0
H4379 H 0.52203 0.52496 0.12827 0.0
H4380 H 0.51728 0.51912 0.17599 0.0
H4381 H 0.52688 0.47838 0.04662 0.0
H4382 H 0.5331 0.46411 0.07146 0.0
H4383 H 0.54828 0.48781 0.06932 0.0
C4384 C 0.50102 0.02977 0.14927 0.0
C4385 C 0.51394 0.03002 0.17262 0.0
C4386 C 0.4905 0.01455 0.12781 0.0
C4387 C 0.49372 -0.00024 0.12898 0.0
C4388 C 0.50622 -0.0002 0.15425 0.0
C4389 C 0.51546 0.0146 0.17699 0.0
C4390 C 0.47697 0.01522 0.10255 0.0
C4391 C 0.51122 0.98515 0.15625 0.0
C4392 C 0.46459 0.95338 0.08919 0.0
C4393 C 0.4677 0.95703 0.05212 0.0
C4394 C 0.47221 0.96736 0.1145 0.0
C4395 C 0.48504 0.9849 0.10252 0.0
C4396 C 0.48999 0.988 0.06523 0.0
C4397 C 0.48048 0.97416 0.04016 0.0
C4398 C 0.46597 0.96321 0.15355 0.0
C4399 C 0.50477 0.00588 0.0511 0.0
H4400 H 0.49981 0.04172 0.14624 0.0
H4401 H 0.52522 0.01472 0.19597 0.0
H4402 H 0.48416 0.02425 0.07933 0.0
H4403 H 0.46696 0.00181 0.09196 0.0
H4404 H 0.4698 0.02125 0.11674 0.0
H4405 H 0.52602 0.99115 0.15934 0.0
H4406 H 0.50517 0.97695 0.18107 0.0
H4407 H 0.50699 0.97619 0.13212 0.0
H4408 H 0.45515 0.93988 0.09822 0.0
H4409 H 0.48286 0.9768 1.01122 0.0
H4410 H 0.46611 0.97484 0.16718 0.0
H4411 H 0.47493 0.95967 0.16873 0.0
H4412 H 0.4522 0.95132 0.15534 0.0
H4413 H 0.51496 0.0138 0.07221 0.0
H4414 H 0.49875 0.01387 0.04089 0.0
H4415 H 0.51171 0.00382 0.02765 0.0
C4416 C 0.48121 0.97645 0.54147 0.0
C4417 C 0.47764 0.95928 0.55138 0.0
C4418 C 0.48407 0.98922 0.56819 0.0
C4419 C 0.48541 0.98515 0.60518 0.0
C4420 C 0.48164 0.96759 0.61493 0.0
C4421 C 0.47643 0.95451 0.58792 0.0
C4422 C 0.48621 0.00704 0.55602 0.0
C4423 C 0.48348 0.96241 0.65331 0.0
C4424 C 0.50983 0.02926 0.65635 0.0
C4425 C 0.49606 0.02749 0.67904 0.0
C4426 C 0.50712 0.01494 0.63393 0.0
C4427 C 0.48994 -0.00107 0.63358 0.0
C4428 C 0.47657 -0.00321 0.65901 0.0
C4429 C 0.48031 0.01085 0.68279 0.0
C4430 C 0.52235 0.01803 0.60896 0.0
C4431 C 0.45762 0.98074 0.65963 0.0
H4432 H 0.48196 0.97995 0.51289 0.0
H4433 H 0.47288 0.94092 0.59531 0.0
H4434 H 0.48321 0.01405 0.57795 0.0
H4435 H 0.50018 0.01588 0.5463 0.0
H4436 H 0.47724 0.00504 0.53254 0.0
H4437 H 0.48763 0.95202 0.65331 0.0
H4438 H 0.49329 0.97413 0.66967 0.0
H4439 H 0.47017 0.95619 0.66671 0.0
H4440 H 0.52214 0.04217 0.65408 0.0
H4441 H 0.46989 0.00947 0.70148 0.0
H4442 H 0.52406 0.02804 0.58785 0.0
H4443 H 0.52026 0.0056 0.59553 0.0
H4444 H 0.53517 0.02414 0.62446 0.0
H4445 H 0.4538 0.97262 0.63434 0.0
H4446 H 0.44761 0.9852 0.66406 0.0
H4447 H 0.45625 0.97205 0.6832 0.0
C4448 C 0.95792 0.48592 0.67029 0.0
C4449 C 0.95727 0.47254 0.6927 0.0
C4450 C 0.97308 0.49641 0.64892 0.0
C4451 C 0.98724 0.49227 0.64791 0.0
C4452 C 0.9871 0.47969 0.67346 0.0
C4453 C 0.9726 0.47107 0.69751 0.0
C4454 C 0.97247 0.5104 0.62517 0.0
C4455 C 0.00073 0.47335 0.67356 0.0
C4456 C 0.00981 0.50379 0.55497 0.0
C4457 C 0.02787 0.51452 0.56461 0.0
C4458 C -0.00355 0.4958 0.58161 0.0
C4459 C 0.00125 0.4999 0.61899 0.0
C4460 C 0.01968 0.51102 0.62847 0.0
C4461 C 0.03282 0.517 0.60124 0.0
C4462 C 0.97733 0.48403 0.5684 0.0
C4463 C 0.02582 0.51728 0.66692 0.0
H4464 H 0.94599 0.48717 0.66714 0.0
H4465 H 0.97234 0.46137 0.71665 0.0
H4466 H 0.98541 0.51922 0.61167 0.0
H4467 H 0.96179 0.50367 0.60427 0.0
H4468 H 0.96851 0.51868 0.64177 0.0
H4469 H -0.00618 0.45848 0.67714 0.0
H4470 H 0.00883 0.47668 0.64831 0.0
H4471 H 0.00981 0.47926 0.69735 0.0
H4472 H 0.00606 0.50199 0.52641 0.0
H4473 H 0.04689 0.52499 0.60867 0.0
H4474 H 0.97241 0.49273 0.55671 0.0
H4475 H 0.96789 0.47549 0.58987 0.0
H4476 H 0.97694 0.47525 0.54581 0.0
H4477 H 0.03757 0.53119 0.66715 0.0
H4478 H 0.03042 0.50848 0.6792 0.0
H4479 H 0.01505 0.51701 0.68412 0.0
C4480 C 0.50627 0.4862 0.63253 0.0
C4481 C 0.51461 0.47626 0.62415 0.0
C4482 C 0.49944 0.49238 0.60503 0.0
C4483 C 0.50214 0.48944 0.56794 0.0
C4484 C 0.51106 0.47967 0.55964 0.0
C4485 C 0.51631 0.47238 0.58798 0.0
C4486 C 0.49015 0.50261 0.61692 0.0
C4487 C 0.5153 0.47682 0.52117 0.0
C4488 C 0.47194 0.4896 0.4931 0.0
C4489 C 0.47518 0.50714 0.49653 0.0
C4490 C 0.48041 0.48328 0.51645 0.0
C4491 C 0.49498 0.49587 0.53831 0.0
C4492 C 0.50117 0.51459 0.53418 0.0
C4493 C 0.4904 0.51989 0.51521 0.0
C4494 C 0.47198 0.46304 0.51986 0.0
C4495 C 0.51793 0.52906 0.55239 0.0
H4496 H 0.50529 0.48937 0.66074 0.0
H4497 H 0.52279 0.46461 0.58169 0.0
H4498 H 0.48202 0.50414 0.59536 0.0
H4499 H 0.48128 0.49587 0.64064 0.0
H4500 H 0.50049 0.51623 0.62628 0.0
H4501 H 0.50459 0.46349 0.51157 0.0
H4502 H 0.51628 0.48736 0.50221 0.0
H4503 H 0.52809 0.4765 0.52006 0.0
H4504 H 0.46113 0.48025 0.47592 0.0
H4505 H 0.49331 0.53374 0.51675 0.0
H4506 H 0.47589 0.45866 0.54491 0.0
H4507 H 0.4756 0.45778 0.49565 0.0
H4508 H 0.45705 0.45657 0.51991 0.0
H4509 H 0.51422 0.53592 0.57346 0.0
H4510 H 0.52635 0.53946 0.53203 0.0
H4511 H 0.52606 0.52376 0.56499 0.0
C4512 C 0.61163 0.80746 0.45418 0.0
C4513 C 0.61853 0.81192 0.48934 0.0
C4514 C 0.62309 0.81163 0.42441 0.0
C4515 C 0.64174 0.8184 0.43039 0.0
C4516 C 0.64838 0.82076 0.46669 0.0
C4517 C 0.63679 0.81836 0.49569 0.0
C4518 C 0.61483 0.80888 0.38711 0.0
C4519 C 0.66773 0.82639 0.47552 0.0
C4520 C 0.66688 0.81384 0.35028 0.0
C4521 C 0.68235 0.83078 0.35093 0.0
C4522 C 0.65333 0.80937 0.37606 0.0
C4523 C 0.65427 0.8231 0.39921 0.0
C4524 C 0.66833 0.84121 0.394 0.0
C4525 C 0.68249 0.8447 0.37056 0.0
C4526 C 0.63929 0.78965 0.37989 0.0
C4527 C 0.66984 0.85698 0.41499 0.0
H4528 H 0.59735 0.80195 0.44964 0.0
H4529 H 0.642 0.82159 0.52324 0.0
H4530 H 0.62475 0.81673 0.3656 0.0
H4531 H 0.60809 0.79432 0.38047 0.0
H4532 H 0.60411 0.81258 0.38706 0.0
H4533 H 0.66857 0.82022 0.5015 0.0
H4534 H 0.67422 0.82261 0.4538 0.0
H4535 H 0.67553 0.84119 0.4795 0.0
H4536 H 0.66628 0.80344 0.33279 0.0
H4537 H 0.69446 0.85796 0.37037 0.0
H4538 H 0.62885 0.78605 0.35861 0.0
H4539 H 0.63279 0.7862 0.40703 0.0
H4540 H 0.64538 0.78101 0.37506 0.0
H4541 H 0.67175 0.86776 0.39569 0.0
H4542 H 0.68201 0.86275 0.43254 0.0
H4543 H 0.65795 0.85334 0.43194 0.0
C4544 C 0.13609 0.83123 0.34267 0.0
C4545 C 0.15093 0.84671 0.3294 0.0
C4546 C 0.13848 0.81978 0.36609 0.0
C4547 C 0.15622 0.82445 0.37699 0.0
C4548 C 0.17124 0.83894 0.35944 0.0
C4549 C 0.1682 0.84934 0.3343 0.0
C4550 C 0.12174 0.80399 0.38132 0.0
C4551 C 0.19059 0.84492 0.36922 0.0
C4552 C 0.15673 0.80984 0.47417 0.0
C4553 C 0.16528 0.79974 0.46971 0.0
C4554 C 0.15425 0.81856 0.44438 0.0
C4555 C 0.15915 0.81573 0.409 0.0
C4556 C 0.16754 0.80518 0.40483 0.0
C4557 C 0.17141 0.7982 0.43556 0.0
C4558 C 0.14592 0.83025 0.45129 0.0
C4559 C 0.17205 0.80046 0.36838 0.0
H4560 H 0.12265 0.82917 0.33819 0.0
H4561 H 0.17957 0.86093 0.32223 0.0
H4562 H 0.12467 0.79591 0.40049 0.0
H4563 H 0.11346 0.80881 0.3954 0.0
H4564 H 0.11342 0.79531 0.35857 0.0
H4565 H 0.19942 0.85968 0.36534 0.0
H4566 H 0.19216 0.8417 0.39775 0.0
H4567 H 0.19568 0.83825 0.35066 0.0
H4568 H 0.15191 0.81084 0.50089 0.0
H4569 H 0.17805 0.79036 0.43239 0.0
H4570 H 0.13104 0.82179 0.45035 0.0
H4571 H 0.15024 0.84124 0.431 0.0
H4572 H 0.14943 0.83637 0.47888 0.0
H4573 H 0.16811 0.786 0.36806 0.0
H4574 H 0.18685 0.80814 0.36437 0.0
H4575 H 0.16525 0.80306 0.3454 0.0
C4576 C 0.17354 0.35195 0.49064 0.0
C4577 C 0.18796 0.36841 0.47958 0.0
C4578 C 0.16321 0.33876 0.46487 0.0
C4579 C 0.169 0.34147 0.42796 0.0
C4580 C 0.18387 0.35819 0.4172 0.0
C4581 C 0.19207 0.37193 0.4428 0.0
C4582 C 0.14652 0.32207 0.47804 0.0
C4583 C 0.19162 0.36184 0.37921 0.0
C4584 C 0.14642 0.29644 0.37941 0.0
C4585 C 0.13608 0.2994 0.3541 0.0
C4586 C 0.15828 0.31044 0.40226 0.0
C4587 C 0.15901 0.32741 0.4004 0.0
C4588 C 0.1493 0.33057 0.37285 0.0
C4589 C 0.13876 0.31672 0.34881 0.0
C4590 C 0.16866 0.30621 0.42991 0.0
C4591 C 0.14825 0.34769 0.37 0.0
H4592 H 0.17034 0.3494 0.51937 0.0
H4593 H 0.20261 0.38503 0.43425 0.0
H4594 H 0.13682 0.3146 0.4559 0.0
H4595 H 0.15049 0.31305 0.49176 0.0
H4596 H 0.13957 0.32573 0.49895 0.0
H4597 H 0.18626 0.36924 0.36382 0.0
H4598 H 0.20646 0.3708 0.38003 0.0
H4599 H 0.18848 0.34934 0.3643 0.0
H4600 H 0.1444 0.28297 0.38308 0.0
H4601 H 0.13094 0.31898 0.32837 0.0
H4602 H 0.1595 0.29818 0.45232 0.0
H4603 H 0.18031 0.31846 0.44135 0.0
H4604 H 0.17343 0.29751 0.41754 0.0
H4605 H 0.15256 0.356 0.39504 0.0
H4606 H 0.13426 0.34446 0.36377 0.0
H4607 H 0.15658 0.3558 0.34671 0.0
C4608 C 0.14371 0.30386 0.88217 0.0
C4609 C 0.15287 0.30193 0.85288 0.0
C4610 C 0.15157 0.31948 0.90322 0.0
C4611 C 0.16955 0.33327 0.89542 0.0
C4612 C 0.17852 0.33149 0.86453 0.0
C4613 C 0.16951 0.31624 0.84235 0.0
C4614 C 0.14064 0.3198 0.93517 0.0
C4615 C 0.19811 0.34442 0.85596 0.0
C4616 C 0.18944 0.38089 0.93147 0.0
C4617 C 0.18894 0.3776 0.96875 0.0
C4618 C 0.18299 0.36653 0.90684 0.0
C4619 C 0.1788 0.34922 0.91961 0.0
C4620 C 0.18213 0.34705 0.95662 0.0
C4621 C 0.18614 0.36103 0.98115 0.0
C4622 C 0.1793 0.36984 0.86826 0.0
C4623 C 0.17981 0.32964 0.97158 0.0
H4624 H 0.13082 0.29253 0.89031 0.0
H4625 H 0.17639 0.31479 0.81905 0.0
H4626 H 0.13798 0.30857 0.95395 0.0
H4627 H 0.14703 0.33247 0.95082 0.0
H4628 H 0.12727 0.31717 0.92555 0.0
H4629 H 0.20528 0.33677 0.85158 0.0
H4630 H 0.19904 0.35145 0.82996 0.0
H4631 H 0.20531 0.35453 0.87759 0.0
H4632 H 0.19279 0.39414 0.92188 0.0
H4633 H 0.18622 0.3587 1.01017 0.0
H4634 H 0.16731 0.35797 0.85655 0.0
H4635 H 0.19113 0.37292 0.85117 0.0
H4636 H 0.17717 0.38161 0.86668 0.0
H4637 H 0.16674 0.32222 0.98602 0.0
H4638 H 0.1904 0.33259 0.99214 0.0
H4639 H 0.18041 0.32089 0.95007 0.0
C4640 C 0.68554 0.83952 0.89925 0.0
C4641 C 0.68598 0.85314 0.87791 0.0
C4642 C 0.67037 0.82867 0.92057 0.0
C4643 C 0.65577 0.83225 0.92142 0.0
C4644 C 0.65607 0.8456 0.89819 0.0
C4645 C 0.6707 0.85499 0.8751 0.0
C4646 C 0.67101 0.81429 0.94324 0.0
C4647 C 0.64187 0.85121 0.89881 0.0
C4648 C 0.60965 0.80225 0.96236 0.0
C4649 C 0.61419 0.80302 0.99897 0.0
C4650 C 0.62298 0.8115 0.93637 0.0
C4651 C 0.64099 0.82314 0.9481 0.0
C4652 C 0.64485 0.82601 0.98593 0.0
C4653 C 0.63156 0.8151 1.01089 0.0
C4654 C 0.61731 0.8079 0.89689 0.0
C4655 C 0.66299 0.84 1.00058 0.0
H4656 H 0.69731 0.83791 0.90076 0.0
H4657 H 0.67085 0.86519 0.85738 0.0
H4658 H 0.68274 0.82066 0.96199 0.0
H4659 H 0.65871 0.80608 0.9594 0.0
H4660 H 0.67323 0.80517 0.92517 0.0
H4661 H 0.64806 0.86598 0.89461 0.0
H4662 H 0.63243 0.84471 0.87577 0.0
H4663 H 0.63415 0.84776 0.92462 0.0
H4664 H 0.59592 0.7933 0.95362 0.0
H4665 H 0.63478 0.8159 0.03964 0.0
H4666 H 0.62874 0.81264 0.87768 0.0
H4667 H 0.60939 0.81456 0.8903 0.0
H4668 H 0.60821 0.79323 0.89237 0.0
H4669 H 0.67089 0.83343 1.00808 0.0
H4670 H 0.66129 0.84615 1.0258 0.0
H4671 H 0.6708 0.85089 0.98067 0.0
C4672 C 0.1314 0.8542 0.91371 0.0
C4673 C 0.13255 0.8519 0.87651 0.0
C4674 C 0.1403 0.84892 0.93832 0.0
C4675 C 0.15276 0.84395 0.92496 0.0
C4676 C 0.15632 0.84489 0.88706 0.0
C4677 C 0.14537 0.84785 0.86313 0.0
C4678 C 0.1353 0.8478 0.97801 0.0
C4679 C 0.17058 0.84143 0.87125 0.0
C4680 C 0.18323 0.84443 0.99957 0.0
C4681 C 0.18085 0.82709 0.99681 0.0
C4682 C 0.1746 0.85028 0.97564 0.0
C4683 C 0.16201 0.83786 0.9504 0.0
C4684 C 0.15849 0.81972 0.94974 0.0
C4685 C 0.16816 0.81465 0.97287 0.0
C4686 C 0.17992 0.87001 0.97696 0.0
C4687 C 0.14521 0.8054 0.92433 0.0
H4688 H 0.12199 0.85813 0.92376 0.0
H4689 H 0.14633 0.84631 0.83404 0.0
H4690 H 0.13779 0.83815 0.99354 0.0
H4691 H 0.14311 0.86137 0.99034 0.0
H4692 H 0.12086 0.84377 0.981 0.0
H4693 H 0.17589 0.84892 0.84536 0.0
H4694 H 0.18195 0.84524 0.8904 0.0
H4695 H 0.16451 0.82692 0.86466 0.0
H4696 H 0.19295 0.85399 1.01873 0.0
H4697 H 0.16633 0.80119 0.97098 0.0
H4698 H 0.17327 0.87231 1.00059 0.0
H4699 H 0.17648 0.87479 0.9518 0.0
H4700 H 0.19461 0.87862 0.9817 0.0
H4701 H 0.13829 0.8101 0.90579 0.0
H4702 H 0.13499 0.79391 0.94053 0.0
H4703 H 0.15231 0.80006 0.9076 0.0
C4704 C 0.27506 0.13518 0.7755 0.0
C4705 C 0.28066 0.14016 0.81139 0.0
C4706 C 0.28768 0.1404 0.74737 0.0
C4707 C 0.30635 0.14958 0.75594 0.0
C4708 C 0.31179 0.15248 0.79312 0.0
C4709 C 0.29888 0.14842 0.8202 0.0
C4710 C 0.28055 0.13623 0.70897 0.0
C4711 C 0.33116 0.16056 0.8052 0.0
C4712 C 0.33736 0.15266 0.67915 0.0
C4713 C 0.3509 0.1706 0.68268 0.0
C4714 C 0.32265 0.14532 0.7029 0.0
C4715 C 0.3202 0.15698 0.72672 0.0
C4716 C 0.33227 0.17592 0.72447 0.0
C4717 C 0.3479 0.18236 0.7036 0.0
C4718 C 0.31116 0.125 0.70405 0.0
C4719 C 0.33008 0.18959 0.74624 0.0
H4720 H 0.26081 0.12837 0.76899 0.0
H4721 H 0.30307 0.15196 0.84831 0.0
H4722 H 0.2907 0.14448 0.68819 0.0
H4723 H 0.27574 0.1218 0.70357 0.0
H4724 H 0.26872 0.13815 0.7058 0.0
H4725 H 0.33198 0.15293 0.82887 0.0
H4726 H 0.34022 0.1607 0.7836 0.0
H4727 H 0.33616 0.17457 0.81474 0.0
H4728 H 0.33918 0.14387 0.66089 0.0
H4729 H 0.35836 0.1964 0.70574 0.0
H4730 H 0.30146 0.12043 0.68107 0.0
H4731 H 0.30369 0.1199 0.72997 0.0
H4732 H 0.31961 0.11863 0.70015 0.0
H4733 H 0.33134 0.20048 0.72794 0.0
H4734 H 0.34114 0.19604 0.76649 0.0
H4735 H 0.31705 0.18367 0.76047 0.0
C4736 C 0.81577 0.1711 0.70789 0.0
C4737 C 0.81016 0.18328 0.71735 0.0
C4738 C 0.81834 0.16099 0.73465 0.0
C4739 C 0.81659 0.16433 0.77189 0.0
C4740 C 0.81046 0.17642 0.78124 0.0
C4741 C 0.80654 0.18515 0.7536 0.0
C4742 C 0.82354 0.1474 0.72222 0.0
C4743 C 0.80825 0.18054 0.82014 0.0
C4744 C 0.81486 0.13341 0.84738 0.0
C4745 C 0.83263 0.137 0.84697 0.0
C4746 C 0.80924 0.14227 0.82329 0.0
C4747 C 0.82223 0.1561 0.80072 0.0
C4748 C 0.84073 0.16133 0.80444 0.0
C4749 C 0.84563 0.15148 0.8272 0.0
C4750 C 0.78924 0.1354 0.8204 0.0
C4751 C 0.85541 0.17596 0.78199 0.0
H4752 H 0.81839 0.16963 0.67957 0.0
H4753 H 0.80187 0.19442 0.76064 0.0
H4754 H 0.82283 0.13816 0.74407 0.0
H4755 H 0.81459 0.13925 0.69957 0.0
H4756 H 0.83745 0.1546 0.71114 0.0
H4757 H 0.81029 0.19436 0.82285 0.0
H4758 H 0.79428 0.17093 0.82868 0.0
H4759 H 0.81763 0.17918 0.83895 0.0
H4760 H 0.80492 0.12236 0.86353 0.0
H4761 H 0.85939 0.15404 0.82683 0.0
H4762 H 0.78535 0.13965 0.79509 0.0
H4763 H 0.78491 0.14027 0.84422 0.0
H4764 H 0.7816 0.12043 0.82156 0.0
H4765 H 0.85907 0.16979 0.75942 0.0
H4766 H 0.86772 0.18377 0.79871 0.0
H4767 H 0.85121 0.18515 0.7705 0.0
C4768 C 0.8299 0.69032 0.82666 0.0
C4769 C 0.84417 0.70626 0.8131 0.0
C4770 C 0.81871 0.67644 0.80294 0.0
C4771 C 0.82334 0.67801 0.76549 0.0
C4772 C 0.83742 0.69463 0.7518 0.0
C4773 C 0.8468 0.70897 0.77577 0.0
C4774 C 0.80285 0.65992 0.81898 0.0
C4775 C 0.84369 0.69732 0.71266 0.0
C4776 C 0.80748 0.63273 0.71999 0.0
C4777 C 0.7972 0.63367 0.69162 0.0
C4778 C 0.816 0.64696 0.74472 0.0
C4779 C 0.81395 0.66241 0.74077 0.0
C4780 C 0.80344 0.66323 0.71182 0.0
C4781 C 0.79584 0.64914 0.68682 0.0
C4782 C 0.82597 0.64436 0.77595 0.0
C4783 C 0.79923 0.67834 0.70741 0.0
H4784 H 0.82787 0.68846 0.85583 0.0
H4785 H 0.85754 0.72166 0.76558 0.0
H4786 H 0.79261 0.65157 0.7983 0.0
H4787 H 0.80766 0.65164 0.83302 0.0
H4788 H 0.79643 0.66399 0.84027 0.0
H4789 H 0.85838 0.70705 0.71075 0.0
H4790 H 0.84094 0.68458 0.69928 0.0
H4791 H 0.83685 0.7033 0.69726 0.0
H4792 H 0.80811 0.6205 0.72403 0.0
H4793 H 0.78768 0.64972 0.6648 0.0
H4794 H 0.83532 0.65699 0.79016 0.0
H4795 H 0.83356 0.63775 0.76652 0.0
H4796 H 0.81597 0.63491 0.79584 0.0
H4797 H 0.80258 0.68711 0.73173 0.0
H4798 H 0.78471 0.67277 0.70137 0.0
H4799 H 0.80659 0.68663 0.68345 0.0
C4800 C 0.79387 0.60683 0.24998 0.0
C4801 C 0.79419 0.60938 0.21248 0.0
C4802 C 0.79881 0.6214 0.27353 0.0
C4803 C 0.80142 0.63797 0.25922 0.0
C4804 C 0.79772 0.63895 0.22183 0.0
C4805 C 0.79507 0.62493 0.1986 0.0
C4806 C 0.8028 0.61925 0.31266 0.0
C4807 C 0.79848 0.65531 0.20482 0.0
C4808 C 0.80886 0.67079 0.33589 0.0
C4809 C 0.82556 0.68535 0.32638 0.0
C4810 C 0.80038 0.65562 0.31331 0.0
C4811 C 0.80967 0.65442 0.28229 0.0
C4812 C 0.82726 0.66894 0.27424 0.0
C4813 C 0.83481 0.68419 0.2964 0.0
C4814 C 0.78098 0.64198 0.32167 0.0
C4815 C 0.83799 0.66995 0.24078 0.0
H4816 H 0.79208 0.59425 0.26061 0.0
H4817 H 0.79486 0.62663 0.16936 0.0
H4818 H 0.81383 0.63194 0.32429 0.0
H4819 H 0.7905 0.61495 0.32912 0.0
H4820 H 0.80664 0.60867 0.3154 0.0
H4821 H 0.78658 0.65097 0.18699 0.0
H4822 H 0.79894 0.66502 0.22517 0.0
H4823 H 0.81046 0.66217 0.18687 0.0
H4824 H 0.80161 0.67195 0.35889 0.0
H4825 H 0.84752 0.69587 0.28862 0.0
H4826 H 0.7803 0.63521 0.34787 0.0
H4827 H 0.77426 0.63168 0.30012 0.0
H4828 H 0.77317 0.64903 0.32552 0.0
H4829 H 0.83265 0.65723 0.2255 0.0
H4830 H 0.85218 0.6746 0.24829 0.0
H4831 H 0.83838 0.68035 0.22214 0.0
C4832 C 0.33427 0.17725 0.17065 0.0
C4833 C 0.35034 0.1771 0.17494 0.0
C4834 C 0.32041 0.16842 0.19592 0.0
C4835 C 0.32136 0.15626 0.22095 0.0
C4836 C 0.336 0.15285 0.21838 0.0
C4837 C 0.35073 0.16399 0.19655 0.0
C4838 C 0.30612 0.17387 0.19719 0.0
C4839 C 0.33744 0.1389 0.24072 0.0
C4840 C 0.30253 0.14321 0.31643 0.0
C4841 C 0.28448 0.131 0.30923 0.0
C4842 C 0.31438 0.15268 0.28804 0.0
C4843 C 0.30828 0.14843 0.25138 0.0
C4844 C 0.28976 0.1363 0.24443 0.0
C4845 C 0.27796 0.12847 0.27367 0.0
C4846 C 0.33342 0.16668 0.29814 0.0
C4847 C 0.28197 0.13122 0.20664 0.0
H4848 H 0.33345 0.18618 0.15101 0.0
H4849 H 0.36311 0.16351 0.19888 0.0
H4850 H 0.2964 0.1671 0.17468 0.0
H4851 H 0.29883 0.1707 0.22347 0.0
H4852 H 0.31225 0.1886 0.19241 0.0
H4853 H 0.34021 0.13026 0.22243 0.0
H4854 H 0.34913 0.14559 0.25948 0.0
H4855 H 0.32518 0.13034 0.25654 0.0
H4856 H 0.30739 0.1453 0.34427 0.0
H4857 H 0.26379 0.11938 0.26841 0.0
H4858 H 0.34051 0.17659 0.27614 0.0
H4859 H 0.34117 0.15988 0.3051 0.0
H4860 H 0.33339 0.17403 0.32299 0.0
H4861 H 0.27137 0.11682 0.20541 0.0
H4862 H 0.29218 0.13376 0.1855 0.0
H4863 H 0.27529 0.13911 0.20024 0.0
C4864 C 0.85051 0.12614 0.26904 0.0
C4865 C 0.84863 0.12599 0.30668 0.0
C4866 C 0.83984 0.13024 0.24676 0.0
C4867 C 0.82525 0.13129 0.26252 0.0
C4868 C 0.82096 0.12684 0.29971 0.0
C4869 C 0.83336 0.12527 0.32188 0.0
C4870 C 0.84567 0.13524 0.20761 0.0
C4871 C 0.80433 0.12528 0.31719 0.0
C4872 C 0.80965 0.16261 0.22538 0.0
C4873 C 0.79976 0.15282 0.19523 0.0
C4874 C 0.81774 0.15564 0.24836 0.0
C4875 C 0.81557 0.13832 0.2408 0.0
C4876 C 0.80508 0.12827 0.21068 0.0
C4877 C 0.79794 0.13599 0.18754 0.0
C4878 C 0.82758 0.16672 0.28141 0.0
C4879 C 0.8006 0.10912 0.20294 0.0
H4880 H 0.8618 0.12558 0.25739 0.0
H4881 H 0.83171 0.12463 0.35121 0.0
H4882 H 0.84185 0.14486 0.19625 0.0
H4883 H 0.86053 0.14147 0.20497 0.0
H4884 H 0.83948 0.12283 0.19078 0.0
H4885 H 0.8081 0.13722 0.33464 0.0
H4886 H 0.79418 0.12402 0.29691 0.0
H4887 H 0.79814 0.11332 0.33533 0.0
H4888 H 0.81045 0.17535 0.23192 0.0
H4889 H 0.78991 0.12825 0.16441 0.0
H4890 H 0.83685 0.1628 0.29394 0.0
H4891 H 0.81749 0.16517 0.3021 0.0
H4892 H 0.8353 0.18128 0.27458 0.0
H4893 H 0.80808 0.10897 0.17843 0.0
H4894 H 0.78604 0.10068 0.1964 0.0
H4895 H 0.8037 0.10273 0.22594 0.0
loop_
_geom_bond_atom_site_label_1
_geom_bond_atom_site_label_2
_geom_bond_distance
_geom_bond_site_symmetry_2
_ccdc_geom_bond_type
Nd0 C2 2.836 . S
Nd0 O20 2.500 . S
Nd0 O21 2.492 . S
Nd0 O22 2.487 . S
Nd0 O23 2.682 1_554 S
Nd0 O24 2.410 . S
Nd0 O29 2.414 . S
Nd0 O31 2.424 1_554 S
Nd1 C11 2.836 . S
Nd1 O23 2.414 . S
Nd1 O25 2.424 1_556 S
Nd1 O26 2.500 . S
Nd1 O27 2.492 . S
Nd1 O28 2.487 . S
Nd1 O29 2.682 1_556 S
Nd1 O30 2.410 . S
C2 Nd0 2.836 . S
C2 C3 1.498 . S
C2 O20 1.258 . S
C2 O21 1.239 . S
C3 C2 1.498 . S
C3 C4 1.366 . S
C3 C8 1.407 . S
C4 C3 1.366 . S
C4 C5 1.392 . S
C4 H32 0.930 . S
C5 C4 1.392 . S
C5 C6 1.398 . S
C5 H33 0.929 . S
C6 C5 1.398 . S
C6 C7 1.352 . S
C7 C6 1.352 . S
C7 C8 1.384 . S
C7 H34 0.930 . S
C8 C3 1.407 . S
C8 C7 1.384 . S
C8 H35 0.929 . S
C9 O22 1.221 1_556 S
C9 O23 1.280 . S
C10 O24 1.251 . S
C10 O25 1.268 . S
C11 Nd1 2.836 . S
C11 C12 1.498 . S
C11 O26 1.258 . S
C11 O27 1.239 . S
C12 C11 1.498 . S
C12 C13 1.366 . S
C12 C17 1.407 . S
C13 C12 1.366 . S
C13 C14 1.392 . S
C13 H36 0.930 . S
C14 C13 1.392 . S
C14 C15 1.398 . S
C14 H37 0.929 . S
C15 C14 1.398 . S
C15 C16 1.352 . S
C16 C15 1.352 . S
C16 C17 1.384 . S
C16 H38 0.930 . S
C17 C12 1.407 . S
C17 C16 1.384 . S
C17 H39 0.929 . S
C18 O28 1.241 1_554 S
C18 O29 1.273 . S
C19 O30 1.251 . S
C19 O31 1.268 . S
O20 Nd0 2.500 . S
O20 C2 1.258 . S
O21 Nd0 2.492 . S
O21 C2 1.239 . S
O22 Nd0 2.487 . S
O22 C9 1.221 1_554 S
O23 Nd0 2.682 1_556 S
O23 Nd1 2.414 . S
O23 C9 1.280 . S
O24 Nd0 2.410 . S
O24 C10 1.251 . S
O25 Nd1 2.424 1_554 S
O25 C10 1.268 . S
O26 Nd1 2.500 . S
O26 C11 1.258 . S
O27 Nd1 2.492 . S
O27 C11 1.239 . S
O28 Nd1 2.487 . S
O28 C18 1.241 1_556 S
O29 Nd0 2.414 . S
O29 Nd1 2.682 1_554 S
O29 C18 1.273 . S
O30 Nd1 2.410 . S
O30 C19 1.251 . S
O31 Nd0 2.424 1_556 S
O31 C19 1.268 . S
H32 C4 0.930 . S
H33 C5 0.929 . S
H34 C7 0.930 . S
H35 C8 0.929 . S
H36 C13 0.930 . S
H37 C14 0.929 . S
H38 C16 0.930 . S
H39 C17 0.929 . S
Nd40 C42 2.836 . S
Nd40 O60 2.500 . S
Nd40 O61 2.492 . S
Nd40 O62 2.487 . S
Nd40 O63 2.682 1_554 S
Nd40 O64 2.410 . S
Nd40 O69 2.414 . S
Nd40 O71 2.424 1_554 S
Nd41 C51 2.836 . S
Nd41 O63 2.414 . S
Nd41 O65 2.424 1_556 S
Nd41 O66 2.500 . S
Nd41 O67 2.492 . S
Nd41 O68 2.487 . S
Nd41 O69 2.682 1_556 S
Nd41 O70 2.410 . S
C42 Nd40 2.836 . S
C42 C43 1.498 . S
C42 O60 1.258 . S
C42 O61 1.239 . S
C43 C42 1.498 . S
C43 C44 1.366 . S
C43 C48 1.407 . S
C44 C43 1.366 . S
C44 C45 1.392 . S
C44 H72 0.930 . S
C45 C44 1.392 . S
C45 C46 1.398 . S
C45 H73 0.929 . S
C46 C45 1.398 . S
C46 C47 1.352 . S
C47 C46 1.352 . S
C47 C48 1.384 . S
C47 H74 0.930 . S
C48 C43 1.407 . S
C48 C47 1.384 . S
C48 H75 0.929 . S
C49 O62 1.221 1_556 S
C49 O63 1.280 . S
C50 O64 1.251 . S
C50 O65 1.268 . S
C51 Nd41 2.836 . S
C51 C52 1.498 . S
C51 O66 1.258 . S
C51 O67 1.239 . S
C52 C51 1.498 . S
C52 C53 1.366 . S
C52 C57 1.407 . S
C53 C52 1.366 . S
C53 C54 1.392 . S
C53 H76 0.930 . S
C54 C53 1.392 . S
C54 C55 1.398 . S
C54 H77 0.929 . S
C55 C54 1.398 . S
C55 C56 1.352 . S
C56 C55 1.352 . S
C56 C57 1.384 . S
C56 H78 0.930 . S
C57 C52 1.407 . S
C57 C56 1.384 . S
C57 H79 0.929 . S
C58 O68 1.241 1_554 S
C58 O69 1.273 . S
C59 O70 1.251 . S
C59 O71 1.268 . S
O60 Nd40 2.500 . S
O60 C42 1.258 . S
O61 Nd40 2.492 . S
O61 C42 1.239 . S
O62 Nd40 2.487 . S
O62 C49 1.221 1_554 S
O63 Nd40 2.682 1_556 S
O63 Nd41 2.414 . S
O63 C49 1.280 . S
O64 Nd40 2.410 . S
O64 C50 1.251 . S
O65 Nd41 2.424 1_554 S
O65 C50 1.268 . S
O66 Nd41 2.500 . S
O66 C51 1.258 . S
O67 Nd41 2.492 . S
O67 C51 1.239 . S
O68 Nd41 2.487 . S
O68 C58 1.241 1_556 S
O69 Nd40 2.414 . S
O69 Nd41 2.682 1_554 S
O69 C58 1.273 . S
O70 Nd41 2.410 . S
O70 C59 1.251 . S
O71 Nd40 2.424 1_556 S
O71 C59 1.268 . S
H72 C44 0.930 . S
H73 C45 0.929 . S
H74 C47 0.930 . S
H75 C48 0.929 . S
H76 C53 0.930 . S
H77 C54 0.929 . S
H78 C56 0.930 . S
H79 C57 0.929 . S
Nd80 C82 2.836 . S
Nd80 O100 2.500 . S
Nd80 O101 2.492 . S
Nd80 O102 2.487 . S
Nd80 O103 2.682 1_554 S
Nd80 O104 2.410 . S
Nd80 O109 2.414 . S
Nd80 O111 2.424 1_554 S
Nd81 C91 2.836 . S
Nd81 O103 2.414 . S
Nd81 O105 2.424 1_556 S
Nd81 O106 2.500 . S
Nd81 O107 2.492 . S
Nd81 O108 2.487 . S
Nd81 O109 2.682 1_556 S
Nd81 O110 2.410 . S
C82 Nd80 2.836 . S
C82 C83 1.498 . S
C82 O100 1.258 . S
C82 O101 1.239 . S
C83 C82 1.498 . S
C83 C84 1.366 . S
C83 C88 1.407 . S
C84 C83 1.366 . S
C84 C85 1.392 . S
C84 H112 0.930 . S
C85 C84 1.392 . S
C85 C86 1.398 . S
C85 H113 0.929 . S
C86 C85 1.398 . S
C86 C87 1.352 . S
C87 C86 1.352 . S
C87 C88 1.384 . S
C87 H114 0.930 . S
C88 C83 1.407 . S
C88 C87 1.384 . S
C88 H115 0.929 . S
C89 O102 1.221 1_556 S
C89 O103 1.280 . S
C90 O104 1.251 . S
C90 O105 1.268 . S
C91 Nd81 2.836 . S
C91 C92 1.498 . S
C91 O106 1.258 . S
C91 O107 1.239 . S
C92 C91 1.498 . S
C92 C93 1.366 . S
C92 C97 1.407 . S
C93 C92 1.366 . S
C93 C94 1.392 . S
C93 H116 0.930 . S
C94 C93 1.392 . S
C94 C95 1.398 . S
C94 H117 0.929 . S
C95 C94 1.398 . S
C95 C96 1.352 . S
C96 C95 1.352 . S
C96 C97 1.384 . S
C96 H118 0.930 . S
C97 C92 1.407 . S
C97 C96 1.384 . S
C97 H119 0.929 . S
C98 O108 1.241 1_554 S
C98 O109 1.273 . S
C99 O110 1.251 . S
C99 O111 1.268 . S
O100 Nd80 2.500 . S
O100 C82 1.258 . S
O101 Nd80 2.492 . S
O101 C82 1.239 . S
O102 Nd80 2.487 . S
O102 C89 1.221 1_554 S
O103 Nd80 2.682 1_556 S
O103 Nd81 2.414 . S
O103 C89 1.280 . S
O104 Nd80 2.410 . S
O104 C90 1.251 . S
O105 Nd81 2.424 1_554 S
O105 C90 1.268 . S
O106 Nd81 2.500 . S
O106 C91 1.258 . S
O107 Nd81 2.492 . S
O107 C91 1.239 . S
O108 Nd81 2.487 . S
O108 C98 1.241 1_556 S
O109 Nd80 2.414 . S
O109 Nd81 2.682 1_554 S
O109 C98 1.273 . S
O110 Nd81 2.410 . S
O110 C99 1.251 . S
O111 Nd80 2.424 1_556 S
O111 C99 1.268 . S
H112 C84 0.930 . S
H113 C85 0.929 . S
H114 C87 0.930 . S
H115 C88 0.929 . S
H116 C93 0.930 . S
H117 C94 0.929 . S
H118 C96 0.930 . S
H119 C97 0.929 . S
Nd120 C122 2.836 . S
Nd120 O140 2.500 . S
Nd120 O141 2.492 . S
Nd120 O142 2.487 . S
Nd120 O143 2.682 . S
Nd120 O144 2.410 . S
Nd120 O149 2.414 . S
Nd120 O151 2.424 . S
Nd121 C131 2.836 . S
Nd121 O143 2.414 . S
Nd121 O145 2.424 . S
Nd121 O146 2.500 . S
Nd121 O147 2.492 . S
Nd121 O148 2.487 . S
Nd121 O149 2.682 . S
Nd121 O150 2.410 . S
C122 Nd120 2.836 . S
C122 C123 1.498 . S
C122 O140 1.258 . S
C122 O141 1.239 . S
C123 C122 1.498 . S
C123 C124 1.366 . S
C123 C128 1.407 . S
C124 C123 1.366 . S
C124 C125 1.392 . S
C124 H152 0.930 . S
C125 C124 1.392 . S
C125 C126 1.398 . S
C125 H153 0.929 . S
C126 C125 1.398 . S
C126 C127 1.352 . S
C127 C126 1.352 . S
C127 C128 1.384 . S
C127 H154 0.930 . S
C128 C123 1.407 . S
C128 C127 1.384 . S
C128 H155 0.929 . S
C129 O142 1.241 . S
C129 O143 1.273 . S
C130 O144 1.251 . S
C130 O145 1.268 . S
C131 Nd121 2.836 . S
C131 C132 1.498 . S
C131 O146 1.258 . S
C131 O147 1.239 . S
C132 C131 1.498 . S
C132 C133 1.366 . S
C132 C137 1.407 . S
C133 C132 1.366 . S
C133 C134 1.392 . S
C133 H156 0.930 . S
C134 C133 1.392 . S
C134 C135 1.398 . S
C134 H157 0.929 . S
C135 C134 1.398 . S
C135 C136 1.352 . S
C136 C135 1.352 . S
C136 C137 1.384 . S
C136 H158 0.930 . S
C137 C132 1.407 . S
C137 C136 1.384 . S
C137 H159 0.929 . S
C138 O148 1.241 . S
C138 O149 1.273 . S
C139 O150 1.251 . S
C139 O151 1.268 . S
O140 Nd120 2.500 . S
O140 C122 1.258 . S
O141 Nd120 2.492 . S
O141 C122 1.239 . S
O142 Nd120 2.487 . S
O142 C129 1.241 . S
O143 Nd120 2.682 . S
O143 Nd121 2.414 . S
O143 C129 1.273 . S
O144 Nd120 2.410 . S
O144 C130 1.251 . S
O145 Nd121 2.424 . S
O145 C130 1.268 . S
O146 Nd121 2.500 . S
O146 C131 1.258 . S
O147 Nd121 2.492 . S
O147 C131 1.239 . S
O148 Nd121 2.487 . S
O148 C138 1.241 . S
O149 Nd120 2.414 . S
O149 Nd121 2.682 . S
O149 C138 1.273 . S
O150 Nd121 2.410 . S
O150 C139 1.251 . S
O151 Nd120 2.424 . S
O151 C139 1.268 . S
H152 C124 0.930 . S
H153 C125 0.929 . S
H154 C127 0.930 . S
H155 C128 0.929 . S
H156 C133 0.930 . S
H157 C134 0.929 . S
H158 C136 0.930 . S
H159 C137 0.929 . S
Nd160 C162 2.836 . S
Nd160 O180 2.500 . S
Nd160 O181 2.492 . S
Nd160 O182 2.487 . S
Nd160 O183 2.682 . S
Nd160 O184 2.410 . S
Nd160 O189 2.414 . S
Nd160 O191 2.424 . S
Nd161 C171 2.836 . S
Nd161 O183 2.414 . S
Nd161 O185 2.424 . S
Nd161 O186 2.500 . S
Nd161 O187 2.492 . S
Nd161 O188 2.487 . S
Nd161 O189 2.682 . S
Nd161 O190 2.410 . S
C162 Nd160 2.836 . S
C162 C163 1.498 . S
C162 O180 1.258 . S
C162 O181 1.239 . S
C163 C162 1.498 . S
C163 C164 1.366 . S
C163 C168 1.407 . S
C164 C163 1.366 . S
C164 C165 1.392 . S
C164 H192 0.930 . S
C165 C164 1.392 . S
C165 C166 1.398 . S
C165 H193 0.929 . S
C166 C165 1.398 . S
C166 C167 1.352 . S
C167 C166 1.352 . S
C167 C168 1.384 . S
C167 H194 0.930 . S
C168 C163 1.407 . S
C168 C167 1.384 . S
C168 H195 0.929 . S
C169 O182 1.241 . S
C169 O183 1.273 . S
C170 O184 1.251 . S
C170 O185 1.268 . S
C171 Nd161 2.836 . S
C171 C172 1.498 . S
C171 O186 1.258 . S
C171 O187 1.239 . S
C172 C171 1.498 . S
C172 C173 1.366 . S
C172 C177 1.407 . S
C173 C172 1.366 . S
C173 C174 1.392 . S
C173 H196 0.930 . S
C174 C173 1.392 . S
C174 C175 1.398 . S
C174 H197 0.929 . S
C175 C174 1.398 . S
C175 C176 1.352 . S
C176 C175 1.352 . S
C176 C177 1.384 . S
C176 H198 0.930 . S
C177 C172 1.407 . S
C177 C176 1.384 . S
C177 H199 0.929 . S
C178 O188 1.241 . S
C178 O189 1.273 . S
C179 O190 1.251 . S
C179 O191 1.268 . S
O180 Nd160 2.500 . S
O180 C162 1.258 . S
O181 Nd160 2.492 . S
O181 C162 1.239 . S
O182 Nd160 2.487 . S
O182 C169 1.241 . S
O183 Nd160 2.682 . S
O183 Nd161 2.414 . S
O183 C169 1.273 . S
O184 Nd160 2.410 . S
O184 C170 1.251 . S
O185 Nd161 2.424 . S
O185 C170 1.268 . S
O186 Nd161 2.500 . S
O186 C171 1.258 . S
O187 Nd161 2.492 . S
O187 C171 1.239 . S
O188 Nd161 2.487 . S
O188 C178 1.241 . S
O189 Nd160 2.414 . S
O189 Nd161 2.682 . S
O189 C178 1.273 . S
O190 Nd161 2.410 . S
O190 C179 1.251 . S
O191 Nd160 2.424 . S
O191 C179 1.268 . S
H192 C164 0.930 . S
H193 C165 0.929 . S
H194 C167 0.930 . S
H195 C168 0.929 . S
H196 C173 0.930 . S
H197 C174 0.929 . S
H198 C176 0.930 . S
H199 C177 0.929 . S
Nd200 C202 2.836 . S
Nd200 O220 2.500 . S
Nd200 O221 2.492 . S
Nd200 O222 2.487 . S
Nd200 O223 2.682 . S
Nd200 O224 2.410 . S
Nd200 O229 2.414 . S
Nd200 O231 2.424 . S
Nd201 C211 2.836 . S
Nd201 O223 2.414 . S
Nd201 O225 2.424 . S
Nd201 O226 2.500 . S
Nd201 O227 2.492 . S
Nd201 O228 2.487 . S
Nd201 O229 2.682 . S
Nd201 O230 2.410 . S
C202 Nd200 2.836 . S
C202 C203 1.498 . S
C202 O220 1.258 . S
C202 O221 1.239 . S
C203 C202 1.498 . S
C203 C204 1.366 . S
C203 C208 1.407 . S
C204 C203 1.366 . S
C204 C205 1.392 . S
C204 H232 0.930 . S
C205 C204 1.392 . S
C205 C206 1.398 . S
C205 H233 0.929 . S
C206 C205 1.398 . S
C206 C207 1.352 . S
C207 C206 1.352 . S
C207 C208 1.384 . S
C207 H234 0.930 . S
C208 C203 1.407 . S
C208 C207 1.384 . S
C208 H235 0.929 . S
C209 O222 1.241 . S
C209 O223 1.273 . S
C210 O224 1.251 . S
C210 O225 1.268 . S
C211 Nd201 2.836 . S
C211 C212 1.498 . S
C211 O226 1.258 . S
C211 O227 1.239 . S
C212 C211 1.498 . S
C212 C213 1.366 . S
C212 C217 1.407 . S
C213 C212 1.366 . S
C213 C214 1.392 . S
C213 H236 0.930 . S
C214 C213 1.392 . S
C214 C215 1.398 . S
C214 H237 0.929 . S
C215 C214 1.398 . S
C215 C216 1.352 . S
C216 C215 1.352 . S
C216 C217 1.384 . S
C216 H238 0.930 . S
C217 C212 1.407 . S
C217 C216 1.384 . S
C217 H239 0.929 . S
C218 O228 1.241 . S
C218 O229 1.273 . S
C219 O230 1.251 . S
C219 O231 1.268 . S
O220 Nd200 2.500 . S
O220 C202 1.258 . S
O221 Nd200 2.492 . S
O221 C202 1.239 . S
O222 Nd200 2.487 . S
O222 C209 1.241 . S
O223 Nd200 2.682 . S
O223 Nd201 2.414 . S
O223 C209 1.273 . S
O224 Nd200 2.410 . S
O224 C210 1.251 . S
O225 Nd201 2.424 . S
O225 C210 1.268 . S
O226 Nd201 2.500 . S
O226 C211 1.258 . S
O227 Nd201 2.492 . S
O227 C211 1.239 . S
O228 Nd201 2.487 . S
O228 C218 1.241 . S
O229 Nd200 2.414 . S
O229 Nd201 2.682 . S
O229 C218 1.273 . S
O230 Nd201 2.410 . S
O230 C219 1.251 . S
O231 Nd200 2.424 . S
O231 C219 1.268 . S
H232 C204 0.930 . S
H233 C205 0.929 . S
H234 C207 0.930 . S
H235 C208 0.929 . S
H236 C213 0.930 . S
H237 C214 0.929 . S
H238 C216 0.930 . S
H239 C217 0.929 . S
Nd240 C242 2.836 . S
Nd240 O260 2.500 . S
Nd240 O261 2.492 . S
Nd240 O262 2.487 . S
Nd240 O263 2.682 . S
Nd240 O264 2.410 . S
Nd240 O269 2.414 . S
Nd240 O271 2.424 . S
Nd241 C251 2.836 . S
Nd241 O263 2.414 . S
Nd241 O265 2.424 . S
Nd241 O266 2.500 . S
Nd241 O267 2.492 . S
Nd241 O268 2.487 . S
Nd241 O269 2.682 . S
Nd241 O270 2.410 . S
C242 Nd240 2.836 . S
C242 C243 1.498 . S
C242 O260 1.258 . S
C242 O261 1.239 . S
C243 C242 1.498 . S
C243 C244 1.366 . S
C243 C248 1.407 . S
C244 C243 1.366 . S
C244 C245 1.392 . S
C244 H272 0.930 . S
C245 C244 1.392 . S
C245 C246 1.398 . S
C245 H273 0.929 . S
C246 C245 1.398 . S
C246 C247 1.352 . S
C247 C246 1.352 . S
C247 C248 1.384 . S
C247 H274 0.930 . S
C248 C243 1.407 . S
C248 C247 1.384 . S
C248 H275 0.929 . S
C249 O262 1.241 . S
C249 O263 1.273 . S
C250 O264 1.251 . S
C250 O265 1.268 . S
C251 Nd241 2.836 . S
C251 C252 1.498 . S
C251 O266 1.258 . S
C251 O267 1.239 . S
C252 C251 1.498 . S
C252 C253 1.366 1_554 S
C252 C257 1.407 1_554 S
C253 C252 1.366 1_556 S
C253 C254 1.392 . S
C253 H276 0.930 . S
C254 C253 1.392 . S
C254 C255 1.398 . S
C254 H277 0.929 . S
C255 C254 1.398 . S
C255 C256 1.352 . S
C256 C255 1.352 . S
C256 C257 1.384 . S
C256 H278 0.930 . S
C257 C252 1.407 1_556 S
C257 C256 1.384 . S
C257 H279 0.929 1_556 S
C258 O268 1.241 . S
C258 O269 1.273 . S
C259 O270 1.251 . S
C259 O271 1.268 . S
O260 Nd240 2.500 . S
O260 C242 1.258 . S
O261 Nd240 2.492 . S
O261 C242 1.239 . S
O262 Nd240 2.487 . S
O262 C249 1.241 . S
O263 Nd240 2.682 . S
O263 Nd241 2.414 . S
O263 C249 1.273 . S
O264 Nd240 2.410 . S
O264 C250 1.251 . S
O265 Nd241 2.424 . S
O265 C250 1.268 . S
O266 Nd241 2.500 . S
O266 C251 1.258 . S
O267 Nd241 2.492 . S
O267 C251 1.239 . S
O268 Nd241 2.487 . S
O268 C258 1.241 . S
O269 Nd240 2.414 . S
O269 Nd241 2.682 . S
O269 C258 1.273 . S
O270 Nd241 2.410 . S
O270 C259 1.251 . S
O271 Nd240 2.424 . S
O271 C259 1.268 . S
H272 C244 0.930 . S
H273 C245 0.929 . S
H274 C247 0.930 . S
H275 C248 0.929 . S
H276 C253 0.930 . S
H277 C254 0.929 . S
H278 C256 0.930 . S
H279 C257 0.929 1_554 S
Nd280 C282 2.836 . S
Nd280 O300 2.500 . S
Nd280 O301 2.492 . S
Nd280 O302 2.487 . S
Nd280 O303 2.682 . S
Nd280 O304 2.410 . S
Nd280 O309 2.414 . S
Nd280 O311 2.424 . S
Nd281 C291 2.836 . S
Nd281 O303 2.414 . S
Nd281 O305 2.424 . S
Nd281 O306 2.500 . S
Nd281 O307 2.492 . S
Nd281 O308 2.487 . S
Nd281 O309 2.682 . S
Nd281 O310 2.410 . S
C282 Nd280 2.836 . S
C282 C283 1.498 . S
C282 O300 1.258 . S
C282 O301 1.239 . S
C283 C282 1.498 . S
C283 C284 1.366 . S
C283 C288 1.407 . S
C284 C283 1.366 . S
C284 C285 1.392 . S
C284 H312 0.930 . S
C285 C284 1.392 . S
C285 C286 1.398 . S
C285 H313 0.929 . S
C286 C285 1.398 . S
C286 C287 1.352 . S
C287 C286 1.352 . S
C287 C288 1.384 . S
C287 H314 0.930 . S
C288 C283 1.407 . S
C288 C287 1.384 . S
C288 H315 0.929 . S
C289 O302 1.241 . S
C289 O303 1.273 . S
C290 O304 1.251 . S
C290 O305 1.268 . S
C291 Nd281 2.836 . S
C291 C292 1.498 . S
C291 O306 1.258 . S
C291 O307 1.239 . S
C292 C291 1.498 . S
C292 C293 1.366 1_554 S
C292 C297 1.407 1_554 S
C293 C292 1.366 1_556 S
C293 C294 1.392 . S
C293 H316 0.930 . S
C294 C293 1.392 . S
C294 C295 1.398 . S
C294 H317 0.929 . S
C295 C294 1.398 . S
C295 C296 1.352 . S
C296 C295 1.352 . S
C296 C297 1.384 . S
C296 H318 0.930 . S
C297 C292 1.407 1_556 S
C297 C296 1.384 . S
C297 H319 0.929 1_556 S
C298 O308 1.241 . S
C298 O309 1.273 . S
C299 O310 1.251 . S
C299 O311 1.268 . S
O300 Nd280 2.500 . S
O300 C282 1.258 . S
O301 Nd280 2.492 . S
O301 C282 1.239 . S
O302 Nd280 2.487 . S
O302 C289 1.241 . S
O303 Nd280 2.682 . S
O303 Nd281 2.414 . S
O303 C289 1.273 . S
O304 Nd280 2.410 . S
O304 C290 1.251 . S
O305 Nd281 2.424 . S
O305 C290 1.268 . S
O306 Nd281 2.500 . S
O306 C291 1.258 . S
O307 Nd281 2.492 . S
O307 C291 1.239 . S
O308 Nd281 2.487 . S
O308 C298 1.241 . S
O309 Nd280 2.414 . S
O309 Nd281 2.682 . S
O309 C298 1.273 . S
O310 Nd281 2.410 . S
O310 C299 1.251 . S
O311 Nd280 2.424 . S
O311 C299 1.268 . S
H312 C284 0.930 . S
H313 C285 0.929 . S
H314 C287 0.930 . S
H315 C288 0.929 . S
H316 C293 0.930 . S
H317 C294 0.929 . S
H318 C296 0.930 . S
H319 C297 0.929 1_554 S
Nd320 C322 2.836 . S
Nd320 O340 2.500 . S
Nd320 O341 2.492 . S
Nd320 O342 2.487 . S
Nd320 O343 2.682 . S
Nd320 O344 2.410 . S
Nd320 O349 2.414 . S
Nd320 O351 2.424 . S
Nd321 C331 2.836 . S
Nd321 O343 2.414 . S
Nd321 O345 2.424 . S
Nd321 O346 2.500 . S
Nd321 O347 2.492 . S
Nd321 O348 2.487 . S
Nd321 O349 2.682 . S
Nd321 O350 2.410 . S
C322 Nd320 2.836 . S
C322 C323 1.498 . S
C322 O340 1.258 . S
C322 O341 1.239 . S
C323 C322 1.498 . S
C323 C324 1.366 . S
C323 C328 1.407 . S
C324 C323 1.366 . S
C324 C325 1.392 . S
C324 H352 0.930 . S
C325 C324 1.392 . S
C325 C326 1.398 . S
C325 H353 0.929 . S
C326 C325 1.398 . S
C326 C327 1.352 . S
C327 C326 1.352 . S
C327 C328 1.384 . S
C327 H354 0.930 . S
C328 C323 1.407 . S
C328 C327 1.384 . S
C328 H355 0.929 . S
C329 O342 1.241 . S
C329 O343 1.273 . S
C330 O344 1.251 . S
C330 O345 1.268 . S
C331 Nd321 2.836 . S
C331 C332 1.498 . S
C331 O346 1.258 . S
C331 O347 1.239 . S
C332 C331 1.498 . S
C332 C333 1.366 1_554 S
C332 C337 1.407 1_554 S
C333 C332 1.366 1_556 S
C333 C334 1.392 . S
C333 H356 0.930 . S
C334 C333 1.392 . S
C334 C335 1.398 . S
C334 H357 0.929 . S
C335 C334 1.398 . S
C335 C336 1.352 . S
C336 C335 1.352 . S
C336 C337 1.384 . S
C336 H358 0.930 . S
C337 C332 1.407 1_556 S
C337 C336 1.384 . S
C337 H359 0.929 1_556 S
C338 O348 1.241 . S
C338 O349 1.273 . S
C339 O350 1.251 . S
C339 O351 1.268 . S
O340 Nd320 2.500 . S
O340 C322 1.258 . S
O341 Nd320 2.492 . S
O341 C322 1.239 . S
O342 Nd320 2.487 . S
O342 C329 1.241 . S
O343 Nd320 2.682 . S
O343 Nd321 2.414 . S
O343 C329 1.273 . S
O344 Nd320 2.410 . S
O344 C330 1.251 . S
O345 Nd321 2.424 . S
O345 C330 1.268 . S
O346 Nd321 2.500 . S
O346 C331 1.258 . S
O347 Nd321 2.492 . S
O347 C331 1.239 . S
O348 Nd321 2.487 . S
O348 C338 1.241 . S
O349 Nd320 2.414 . S
O349 Nd321 2.682 . S
O349 C338 1.273 . S
O350 Nd321 2.410 . S
O350 C339 1.251 . S
O351 Nd320 2.424 . S
O351 C339 1.268 . S
H352 C324 0.930 . S
H353 C325 0.929 . S
H354 C327 0.930 . S
H355 C328 0.929 . S
H356 C333 0.930 . S
H357 C334 0.929 . S
H358 C336 0.930 . S
H359 C337 0.929 1_554 S
Nd360 C362 2.836 . S
Nd360 O380 2.500 . S
Nd360 O381 2.492 . S
Nd360 O382 2.487 . S
Nd360 O383 2.682 . S
Nd360 O384 2.410 . S
Nd360 O389 2.414 . S
Nd360 O391 2.424 . S
Nd361 C371 2.836 . S
Nd361 O383 2.414 . S
Nd361 O385 2.424 . S
Nd361 O386 2.500 . S
Nd361 O387 2.492 . S
Nd361 O388 2.487 . S
Nd361 O389 2.682 . S
Nd361 O390 2.410 . S
C362 Nd360 2.836 . S
C362 C363 1.498 . S
C362 O380 1.258 . S
C362 O381 1.239 . S
C363 C362 1.498 . S
C363 C364 1.366 . S
C363 C368 1.407 . S
C364 C363 1.366 . S
C364 C365 1.392 . S
C364 H392 0.930 . S
C365 C364 1.392 . S
C365 C366 1.398 . S
C365 H393 0.929 . S
C366 C365 1.398 . S
C366 C367 1.352 . S
C367 C366 1.352 . S
C367 C368 1.384 . S
C367 H394 0.930 . S
C368 C363 1.407 . S
C368 C367 1.384 . S
C368 H395 0.929 . S
C369 O382 1.241 . S
C369 O383 1.273 . S
C370 O384 1.251 . S
C370 O385 1.268 . S
C371 Nd361 2.836 . S
C371 C372 1.498 . S
C371 O386 1.258 . S
C371 O387 1.239 . S
C372 C371 1.498 . S
C372 C373 1.366 . S
C372 C377 1.407 . S
C373 C372 1.366 . S
C373 C374 1.392 . S
C373 H396 0.930 . S
C374 C373 1.392 . S
C374 C375 1.398 . S
C374 H397 0.929 . S
C375 C374 1.398 . S
C375 C376 1.352 . S
C376 C375 1.352 . S
C376 C377 1.384 . S
C376 H398 0.930 . S
C377 C372 1.407 . S
C377 C376 1.384 . S
C377 H399 0.929 . S
C378 O388 1.241 . S
C378 O389 1.273 . S
C379 O390 1.251 . S
C379 O391 1.268 . S
O380 Nd360 2.500 . S
O380 C362 1.258 . S
O381 Nd360 2.492 . S
O381 C362 1.239 . S
O382 Nd360 2.487 . S
O382 C369 1.241 . S
O383 Nd360 2.682 . S
O383 Nd361 2.414 . S
O383 C369 1.273 . S
O384 Nd360 2.410 . S
O384 C370 1.251 . S
O385 Nd361 2.424 . S
O385 C370 1.268 . S
O386 Nd361 2.500 . S
O386 C371 1.258 . S
O387 Nd361 2.492 . S
O387 C371 1.239 . S
O388 Nd361 2.487 . S
O388 C378 1.241 . S
O389 Nd360 2.414 . S
O389 Nd361 2.682 . S
O389 C378 1.273 . S
O390 Nd361 2.410 . S
O390 C379 1.251 . S
O391 Nd360 2.424 . S
O391 C379 1.268 . S
H392 C364 0.930 . S
H393 C365 0.929 . S
H394 C367 0.930 . S
H395 C368 0.929 . S
H396 C373 0.930 . S
H397 C374 0.929 . S
H398 C376 0.930 . S
H399 C377 0.929 . S
Nd400 C402 2.836 . S
Nd400 O420 2.500 . S
Nd400 O421 2.492 . S
Nd400 O422 2.487 . S
Nd400 O423 2.682 . S
Nd400 O424 2.410 . S
Nd400 O429 2.414 . S
Nd400 O431 2.424 . S
Nd401 C411 2.836 . S
Nd401 O423 2.414 . S
Nd401 O425 2.424 . S
Nd401 O426 2.500 . S
Nd401 O427 2.492 . S
Nd401 O428 2.487 . S
Nd401 O429 2.682 . S
Nd401 O430 2.410 . S
C402 Nd400 2.836 . S
C402 C403 1.498 . S
C402 O420 1.258 . S
C402 O421 1.239 . S
C403 C402 1.498 . S
C403 C404 1.366 . S
C403 C408 1.407 . S
C404 C403 1.366 . S
C404 C405 1.392 . S
C404 H432 0.930 . S
C405 C404 1.392 . S
C405 C406 1.398 . S
C405 H433 0.929 . S
C406 C405 1.398 . S
C406 C407 1.352 . S
C407 C406 1.352 . S
C407 C408 1.384 . S
C407 H434 0.930 . S
C408 C403 1.407 . S
C408 C407 1.384 . S
C408 H435 0.929 . S
C409 O422 1.241 . S
C409 O423 1.273 . S
C410 O424 1.251 . S
C410 O425 1.268 . S
C411 Nd401 2.836 . S
C411 C412 1.498 . S
C411 O426 1.258 . S
C411 O427 1.239 . S
C412 C411 1.498 . S
C412 C413 1.366 . S
C412 C417 1.407 . S
C413 C412 1.366 . S
C413 C414 1.392 . S
C413 H436 0.930 . S
C414 C413 1.392 . S
C414 C415 1.398 . S
C414 H437 0.929 . S
C415 C414 1.398 . S
C415 C416 1.352 . S
C416 C415 1.352 . S
C416 C417 1.384 . S
C416 H438 0.930 . S
C417 C412 1.407 . S
C417 C416 1.384 . S
C417 H439 0.929 . S
C418 O428 1.241 . S
C418 O429 1.273 . S
C419 O430 1.251 . S
C419 O431 1.268 . S
O420 Nd400 2.500 . S
O420 C402 1.258 . S
O421 Nd400 2.492 . S
O421 C402 1.239 . S
O422 Nd400 2.487 . S
O422 C409 1.241 . S
O423 Nd400 2.682 . S
O423 Nd401 2.414 . S
O423 C409 1.273 . S
O424 Nd400 2.410 . S
O424 C410 1.251 . S
O425 Nd401 2.424 . S
O425 C410 1.268 . S
O426 Nd401 2.500 . S
O426 C411 1.258 . S
O427 Nd401 2.492 . S
O427 C411 1.239 . S
O428 Nd401 2.487 . S
O428 C418 1.241 . S
O429 Nd400 2.414 . S
O429 Nd401 2.682 . S
O429 C418 1.273 . S
O430 Nd401 2.410 . S
O430 C419 1.251 . S
O431 Nd400 2.424 . S
O431 C419 1.268 . S
H432 C404 0.930 . S
H433 C405 0.929 . S
H434 C407 0.930 . S
H435 C408 0.929 . S
H436 C413 0.930 . S
H437 C414 0.929 . S
H438 C416 0.930 . S
H439 C417 0.929 . S
Nd440 C442 2.836 . S
Nd440 O460 2.500 . S
Nd440 O461 2.492 . S
Nd440 O462 2.487 . S
Nd440 O463 2.682 . S
Nd440 O464 2.410 . S
Nd440 O469 2.414 . S
Nd440 O471 2.424 . S
Nd441 C451 2.836 . S
Nd441 O463 2.414 . S
Nd441 O465 2.424 . S
Nd441 O466 2.500 . S
Nd441 O467 2.492 . S
Nd441 O468 2.487 . S
Nd441 O469 2.682 . S
Nd441 O470 2.410 . S
C442 Nd440 2.836 . S
C442 C443 1.498 . S
C442 O460 1.258 . S
C442 O461 1.239 . S
C443 C442 1.498 . S
C443 C444 1.366 . S
C443 C448 1.407 . S
C444 C443 1.366 . S
C444 C445 1.392 . S
C444 H472 0.930 . S
C445 C444 1.392 . S
C445 C446 1.398 . S
C445 H473 0.929 . S
C446 C445 1.398 . S
C446 C447 1.352 . S
C447 C446 1.352 . S
C447 C448 1.384 . S
C447 H474 0.930 . S
C448 C443 1.407 . S
C448 C447 1.384 . S
C448 H475 0.929 . S
C449 O462 1.241 . S
C449 O463 1.273 . S
C450 O464 1.251 . S
C450 O465 1.268 . S
C451 Nd441 2.836 . S
C451 C452 1.498 . S
C451 O466 1.258 . S
C451 O467 1.239 . S
C452 C451 1.498 . S
C452 C453 1.366 . S
C452 C457 1.407 . S
C453 C452 1.366 . S
C453 C454 1.392 . S
C453 H476 0.930 . S
C454 C453 1.392 . S
C454 C455 1.398 . S
C454 H477 0.929 . S
C455 C454 1.398 . S
C455 C456 1.352 . S
C456 C455 1.352 . S
C456 C457 1.384 . S
C456 H478 0.930 . S
C457 C452 1.407 . S
C457 C456 1.384 . S
C457 H479 0.929 . S
C458 O468 1.241 . S
C458 O469 1.273 . S
C459 O470 1.251 . S
C459 O471 1.268 . S
O460 Nd440 2.500 . S
O460 C442 1.258 . S
O461 Nd440 2.492 . S
O461 C442 1.239 . S
O462 Nd440 2.487 . S
O462 C449 1.241 . S
O463 Nd440 2.682 . S
O463 Nd441 2.414 . S
O463 C449 1.273 . S
O464 Nd440 2.410 . S
O464 C450 1.251 . S
O465 Nd441 2.424 . S
O465 C450 1.268 . S
O466 Nd441 2.500 . S
O466 C451 1.258 . S
O467 Nd441 2.492 . S
O467 C451 1.239 . S
O468 Nd441 2.487 . S
O468 C458 1.241 . S
O469 Nd440 2.414 . S
O469 Nd441 2.682 . S
O469 C458 1.273 . S
O470 Nd441 2.410 . S
O470 C459 1.251 . S
O471 Nd440 2.424 . S
O471 C459 1.268 . S
H472 C444 0.930 . S
H473 C445 0.929 . S
H474 C447 0.930 . S
H475 C448 0.929 . S
H476 C453 0.930 . S
H477 C454 0.929 . S
H478 C456 0.930 . S
H479 C457 0.929 . S
Nd480 C482 2.836 . S
Nd480 O500 2.500 . S
Nd480 O501 2.492 . S
Nd480 O502 2.487 . S
Nd480 O503 2.682 . S
Nd480 O504 2.410 . S
Nd480 O509 2.414 . S
Nd480 O511 2.424 . S
Nd481 C491 2.836 . S
Nd481 O503 2.414 . S
Nd481 O505 2.424 . S
Nd481 O506 2.500 . S
Nd481 O507 2.492 . S
Nd481 O508 2.487 . S
Nd481 O509 2.682 . S
Nd481 O510 2.410 . S
C482 Nd480 2.836 . S
C482 C483 1.498 . S
C482 O500 1.258 . S
C482 O501 1.239 . S
C483 C482 1.498 . S
C483 C484 1.366 . S
C483 C488 1.407 . S
C484 C483 1.366 . S
C484 C485 1.392 . S
C484 H512 0.930 . S
C485 C484 1.392 . S
C485 C486 1.398 . S
C485 H513 0.929 . S
C486 C485 1.398 . S
C486 C487 1.352 . S
C487 C486 1.352 . S
C487 C488 1.384 . S
C487 H514 0.930 . S
C488 C483 1.407 . S
C488 C487 1.384 . S
C488 H515 0.929 . S
C489 O502 1.241 . S
C489 O503 1.273 . S
C490 O504 1.251 . S
C490 O505 1.268 . S
C491 Nd481 2.836 . S
C491 C492 1.498 . S
C491 O506 1.258 . S
C491 O507 1.239 . S
C492 C491 1.498 . S
C492 C493 1.366 . S
C492 C497 1.407 . S
C493 C492 1.366 . S
C493 C494 1.392 . S
C493 H516 0.930 . S
C494 C493 1.392 . S
C494 C495 1.398 . S
C494 H517 0.929 . S
C495 C494 1.398 . S
C495 C496 1.352 . S
C496 C495 1.352 . S
C496 C497 1.384 . S
C496 H518 0.930 . S
C497 C492 1.407 . S
C497 C496 1.384 . S
C497 H519 0.929 . S
C498 O508 1.241 . S
C498 O509 1.273 . S
C499 O510 1.251 . S
C499 O511 1.268 . S
O500 Nd480 2.500 . S
O500 C482 1.258 . S
O501 Nd480 2.492 . S
O501 C482 1.239 . S
O502 Nd480 2.487 . S
O502 C489 1.241 . S
O503 Nd480 2.682 . S
O503 Nd481 2.414 . S
O503 C489 1.273 . S
O504 Nd480 2.410 . S
O504 C490 1.251 . S
O505 Nd481 2.424 . S
O505 C490 1.268 . S
O506 Nd481 2.500 . S
O506 C491 1.258 . S
O507 Nd481 2.492 . S
O507 C491 1.239 . S
O508 Nd481 2.487 . S
O508 C498 1.241 . S
O509 Nd480 2.414 . S
O509 Nd481 2.682 . S
O509 C498 1.273 . S
O510 Nd481 2.410 . S
O510 C499 1.251 . S
O511 Nd480 2.424 . S
O511 C499 1.268 . S
H512 C484 0.930 . S
H513 C485 0.929 . S
H514 C487 0.930 . S
H515 C488 0.929 . S
H516 C493 0.930 . S
H517 C494 0.929 . S
H518 C496 0.930 . S
H519 C497 0.929 . S
Nd520 C522 2.836 . S
Nd520 O540 2.500 . S
Nd520 O541 2.492 . S
Nd520 O542 2.487 . S
Nd520 O543 2.682 . S
Nd520 O544 2.410 . S
Nd520 O549 2.414 . S
Nd520 O551 2.424 . S
Nd521 C531 2.836 . S
Nd521 O543 2.414 . S
Nd521 O545 2.424 . S
Nd521 O546 2.500 . S
Nd521 O547 2.492 . S
Nd521 O548 2.487 . S
Nd521 O549 2.682 . S
Nd521 O550 2.410 . S
C522 Nd520 2.836 . S
C522 C523 1.498 . S
C522 O540 1.258 . S
C522 O541 1.239 . S
C523 C522 1.498 . S
C523 C524 1.366 . S
C523 C528 1.407 . S
C524 C523 1.366 . S
C524 C525 1.392 . S
C524 H552 0.930 . S
C525 C524 1.392 . S
C525 C526 1.398 . S
C525 H553 0.929 . S
C526 C525 1.398 . S
C526 C527 1.352 . S
C527 C526 1.352 . S
C527 C528 1.384 . S
C527 H554 0.930 . S
C528 C523 1.407 . S
C528 C527 1.384 . S
C528 H555 0.929 . S
C529 O542 1.241 . S
C529 O543 1.273 . S
C530 O544 1.251 . S
C530 O545 1.268 . S
C531 Nd521 2.836 . S
C531 C532 1.498 . S
C531 O546 1.258 . S
C531 O547 1.239 . S
C532 C531 1.498 . S
C532 C533 1.366 . S
C532 C537 1.407 . S
C533 C532 1.366 . S
C533 C534 1.392 . S
C533 H556 0.930 . S
C534 C533 1.392 . S
C534 C535 1.398 . S
C534 H557 0.929 . S
C535 C534 1.398 . S
C535 C536 1.352 . S
C536 C535 1.352 . S
C536 C537 1.384 . S
C536 H558 0.930 . S
C537 C532 1.407 . S
C537 C536 1.384 . S
C537 H559 0.929 . S
C538 O548 1.241 . S
C538 O549 1.273 . S
C539 O550 1.251 . S
C539 O551 1.268 . S
O540 Nd520 2.500 . S
O540 C522 1.258 . S
O541 Nd520 2.492 . S
O541 C522 1.239 . S
O542 Nd520 2.487 . S
O542 C529 1.241 . S
O543 Nd520 2.682 . S
O543 Nd521 2.414 . S
O543 C529 1.273 . S
O544 Nd520 2.410 . S
O544 C530 1.251 . S
O545 Nd521 2.424 . S
O545 C530 1.268 . S
O546 Nd521 2.500 . S
O546 C531 1.258 . S
O547 Nd521 2.492 . S
O547 C531 1.239 . S
O548 Nd521 2.487 . S
O548 C538 1.241 . S
O549 Nd520 2.414 . S
O549 Nd521 2.682 . S
O549 C538 1.273 . S
O550 Nd521 2.410 . S
O550 C539 1.251 . S
O551 Nd520 2.424 . S
O551 C539 1.268 . S
H552 C524 0.930 . S
H553 C525 0.929 . S
H554 C527 0.930 . S
H555 C528 0.929 . S
H556 C533 0.930 . S
H557 C534 0.929 . S
H558 C536 0.930 . S
H559 C537 0.929 . S
Nd560 C562 2.836 . S
Nd560 O580 2.500 . S
Nd560 O581 2.492 . S
Nd560 O582 2.487 . S
Nd560 O583 2.682 . S
Nd560 O584 2.410 . S
Nd560 O589 2.414 . S
Nd560 O591 2.424 . S
Nd561 C571 2.836 . S
Nd561 O583 2.414 . S
Nd561 O585 2.424 . S
Nd561 O586 2.500 . S
Nd561 O587 2.492 . S
Nd561 O588 2.487 . S
Nd561 O589 2.682 . S
Nd561 O590 2.410 . S
C562 Nd560 2.836 . S
C562 C563 1.498 . S
C562 O580 1.258 . S
C562 O581 1.239 . S
C563 C562 1.498 . S
C563 C564 1.366 . S
C563 C568 1.407 . S
C564 C563 1.366 . S
C564 C565 1.392 . S
C564 H592 0.930 . S
C565 C564 1.392 . S
C565 C566 1.398 . S
C565 H593 0.929 . S
C566 C565 1.398 . S
C566 C567 1.352 . S
C567 C566 1.352 . S
C567 C568 1.384 . S
C567 H594 0.930 . S
C568 C563 1.407 . S
C568 C567 1.384 . S
C568 H595 0.929 . S
C569 O582 1.241 . S
C569 O583 1.273 . S
C570 O584 1.251 . S
C570 O585 1.268 . S
C571 Nd561 2.836 . S
C571 C572 1.498 . S
C571 O586 1.258 . S
C571 O587 1.239 . S
C572 C571 1.498 . S
C572 C573 1.366 . S
C572 C577 1.407 . S
C573 C572 1.366 . S
C573 C574 1.392 . S
C573 H596 0.930 . S
C574 C573 1.392 . S
C574 C575 1.398 . S
C574 H597 0.929 . S
C575 C574 1.398 . S
C575 C576 1.352 . S
C576 C575 1.352 . S
C576 C577 1.384 . S
C576 H598 0.930 . S
C577 C572 1.407 . S
C577 C576 1.384 . S
C577 H599 0.929 . S
C578 O588 1.241 . S
C578 O589 1.273 . S
C579 O590 1.251 . S
C579 O591 1.268 . S
O580 Nd560 2.500 . S
O580 C562 1.258 . S
O581 Nd560 2.492 . S
O581 C562 1.239 . S
O582 Nd560 2.487 . S
O582 C569 1.241 . S
O583 Nd560 2.682 . S
O583 Nd561 2.414 . S
O583 C569 1.273 . S
O584 Nd560 2.410 . S
O584 C570 1.251 . S
O585 Nd561 2.424 . S
O585 C570 1.268 . S
O586 Nd561 2.500 . S
O586 C571 1.258 . S
O587 Nd561 2.492 . S
O587 C571 1.239 . S
O588 Nd561 2.487 . S
O588 C578 1.241 . S
O589 Nd560 2.414 . S
O589 Nd561 2.682 . S
O589 C578 1.273 . S
O590 Nd561 2.410 . S
O590 C579 1.251 . S
O591 Nd560 2.424 . S
O591 C579 1.268 . S
H592 C564 0.930 . S
H593 C565 0.929 . S
H594 C567 0.930 . S
H595 C568 0.929 . S
H596 C573 0.930 . S
H597 C574 0.929 . S
H598 C576 0.930 . S
H599 C577 0.929 . S
Nd600 C602 2.836 . S
Nd600 O620 2.500 . S
Nd600 O621 2.492 . S
Nd600 O622 2.487 . S
Nd600 O623 2.682 . S
Nd600 O624 2.410 . S
Nd600 O629 2.414 . S
Nd600 O631 2.424 1_556 S
Nd601 C611 2.836 1_556 S
Nd601 O623 2.414 . S
Nd601 O625 2.424 . S
Nd601 O626 2.500 1_556 S
Nd601 O627 2.492 1_556 S
Nd601 O628 2.487 . S
Nd601 O629 2.682 . S
Nd601 O630 2.410 1_556 S
C602 Nd600 2.836 . S
C602 C603 1.498 . S
C602 O620 1.258 . S
C602 O621 1.239 . S
C603 C602 1.498 . S
C603 C604 1.366 . S
C603 C608 1.407 . S
C604 C603 1.366 . S
C604 C605 1.392 . S
C604 H632 0.930 . S
C605 C604 1.392 . S
C605 C606 1.398 . S
C605 H633 0.929 . S
C606 C605 1.398 . S
C606 C607 1.352 . S
C607 C606 1.352 . S
C607 C608 1.384 . S
C607 H634 0.930 . S
C608 C603 1.407 . S
C608 C607 1.384 . S
C608 H635 0.929 . S
C609 O622 1.241 . S
C609 O623 1.273 . S
C610 O624 1.251 . S
C610 O625 1.268 . S
C611 Nd601 2.836 1_554 S
C611 C612 1.498 . S
C611 O626 1.258 . S
C611 O627 1.239 . S
C612 C611 1.498 . S
C612 C613 1.366 . S
C612 C617 1.407 . S
C613 C612 1.366 . S
C613 C614 1.392 . S
C613 H636 0.930 . S
C614 C613 1.392 . S
C614 C615 1.398 . S
C614 H637 0.929 . S
C615 C614 1.398 . S
C615 C616 1.352 . S
C616 C615 1.352 . S
C616 C617 1.384 . S
C616 H638 0.930 . S
C617 C612 1.407 . S
C617 C616 1.384 . S
C617 H639 0.929 . S
C618 O628 1.241 . S
C618 O629 1.273 . S
C619 O630 1.251 . S
C619 O631 1.268 . S
O620 Nd600 2.500 . S
O620 C602 1.258 . S
O621 Nd600 2.492 . S
O621 C602 1.239 . S
O622 Nd600 2.487 . S
O622 C609 1.241 . S
O623 Nd600 2.682 . S
O623 Nd601 2.414 . S
O623 C609 1.273 . S
O624 Nd600 2.410 . S
O624 C610 1.251 . S
O625 Nd601 2.424 . S
O625 C610 1.268 . S
O626 Nd601 2.500 1_554 S
O626 C611 1.258 . S
O627 Nd601 2.492 1_554 S
O627 C611 1.239 . S
O628 Nd601 2.487 . S
O628 C618 1.241 . S
O629 Nd600 2.414 . S
O629 Nd601 2.682 . S
O629 C618 1.273 . S
O630 Nd601 2.410 1_554 S
O630 C619 1.251 . S
O631 Nd600 2.424 1_554 S
O631 C619 1.268 . S
H632 C604 0.930 . S
H633 C605 0.929 . S
H634 C607 0.930 . S
H635 C608 0.929 . S
H636 C613 0.930 . S
H637 C614 0.929 . S
H638 C616 0.930 . S
H639 C617 0.929 . S
Nd640 C642 2.836 . S
Nd640 O660 2.500 . S
Nd640 O661 2.492 . S
Nd640 O662 2.487 . S
Nd640 O663 2.682 . S
Nd640 O664 2.410 . S
Nd640 O669 2.414 . S
Nd640 O671 2.424 1_556 S
Nd641 C651 2.836 1_556 S
Nd641 O663 2.414 . S
Nd641 O665 2.424 . S
Nd641 O666 2.500 1_556 S
Nd641 O667 2.492 1_556 S
Nd641 O668 2.487 . S
Nd641 O669 2.682 . S
Nd641 O670 2.410 1_556 S
C642 Nd640 2.836 . S
C642 C643 1.498 . S
C642 O660 1.258 . S
C642 O661 1.239 . S
C643 C642 1.498 . S
C643 C644 1.366 . S
C643 C648 1.407 . S
C644 C643 1.366 . S
C644 C645 1.392 . S
C644 H672 0.930 . S
C645 C644 1.392 . S
C645 C646 1.398 . S
C645 H673 0.929 . S
C646 C645 1.398 . S
C646 C647 1.352 . S
C647 C646 1.352 . S
C647 C648 1.384 . S
C647 H674 0.930 . S
C648 C643 1.407 . S
C648 C647 1.384 . S
C648 H675 0.929 . S
C649 O662 1.241 . S
C649 O663 1.273 . S
C650 O664 1.251 . S
C650 O665 1.268 . S
C651 Nd641 2.836 1_554 S
C651 C652 1.498 . S
C651 O666 1.258 . S
C651 O667 1.239 . S
C652 C651 1.498 . S
C652 C653 1.366 . S
C652 C657 1.407 . S
C653 C652 1.366 . S
C653 C654 1.392 . S
C653 H676 0.930 . S
C654 C653 1.392 . S
C654 C655 1.398 . S
C654 H677 0.929 . S
C655 C654 1.398 . S
C655 C656 1.352 . S
C656 C655 1.352 . S
C656 C657 1.384 . S
C656 H678 0.930 . S
C657 C652 1.407 . S
C657 C656 1.384 . S
C657 H679 0.929 . S
C658 O668 1.241 . S
C658 O669 1.273 . S
C659 O670 1.251 . S
C659 O671 1.268 . S
O660 Nd640 2.500 . S
O660 C642 1.258 . S
O661 Nd640 2.492 . S
O661 C642 1.239 . S
O662 Nd640 2.487 . S
O662 C649 1.241 . S
O663 Nd640 2.682 . S
O663 Nd641 2.414 . S
O663 C649 1.273 . S
O664 Nd640 2.410 . S
O664 C650 1.251 . S
O665 Nd641 2.424 . S
O665 C650 1.268 . S
O666 Nd641 2.500 1_554 S
O666 C651 1.258 . S
O667 Nd641 2.492 1_554 S
O667 C651 1.239 . S
O668 Nd641 2.487 . S
O668 C658 1.241 . S
O669 Nd640 2.414 . S
O669 Nd641 2.682 . S
O669 C658 1.273 . S
O670 Nd641 2.410 1_554 S
O670 C659 1.251 . S
O671 Nd640 2.424 1_554 S
O671 C659 1.268 . S
H672 C644 0.930 . S
H673 C645 0.929 . S
H674 C647 0.930 . S
H675 C648 0.929 . S
H676 C653 0.930 . S
H677 C654 0.929 . S
H678 C656 0.930 . S
H679 C657 0.929 . S
Nd680 C682 2.836 . S
Nd680 O700 2.500 . S
Nd680 O701 2.492 . S
Nd680 O702 2.487 . S
Nd680 O703 2.682 . S
Nd680 O704 2.410 . S
Nd680 O709 2.414 . S
Nd680 O711 2.424 1_556 S
Nd681 C691 2.836 1_556 S
Nd681 O703 2.414 . S
Nd681 O705 2.424 . S
Nd681 O706 2.500 1_556 S
Nd681 O707 2.492 1_556 S
Nd681 O708 2.487 . S
Nd681 O709 2.682 . S
Nd681 O710 2.410 1_556 S
C682 Nd680 2.836 . S
C682 C683 1.498 . S
C682 O700 1.258 . S
C682 O701 1.239 . S
C683 C682 1.498 . S
C683 C684 1.366 . S
C683 C688 1.407 . S
C684 C683 1.366 . S
C684 C685 1.392 . S
C684 H712 0.930 . S
C685 C684 1.392 . S
C685 C686 1.398 . S
C685 H713 0.929 . S
C686 C685 1.398 . S
C686 C687 1.352 . S
C687 C686 1.352 . S
C687 C688 1.384 . S
C687 H714 0.930 . S
C688 C683 1.407 . S
C688 C687 1.384 . S
C688 H715 0.929 . S
C689 O702 1.241 . S
C689 O703 1.273 . S
C690 O704 1.251 . S
C690 O705 1.268 . S
C691 Nd681 2.836 1_554 S
C691 C692 1.498 . S
C691 O706 1.258 . S
C691 O707 1.239 . S
C692 C691 1.498 . S
C692 C693 1.366 . S
C692 C697 1.407 . S
C693 C692 1.366 . S
C693 C694 1.392 . S
C693 H716 0.930 . S
C694 C693 1.392 . S
C694 C695 1.398 . S
C694 H717 0.929 . S
C695 C694 1.398 . S
C695 C696 1.352 . S
C696 C695 1.352 . S
C696 C697 1.384 . S
C696 H718 0.930 . S
C697 C692 1.407 . S
C697 C696 1.384 . S
C697 H719 0.929 . S
C698 O708 1.241 . S
C698 O709 1.273 . S
C699 O710 1.251 . S
C699 O711 1.268 . S
O700 Nd680 2.500 . S
O700 C682 1.258 . S
O701 Nd680 2.492 . S
O701 C682 1.239 . S
O702 Nd680 2.487 . S
O702 C689 1.241 . S
O703 Nd680 2.682 . S
O703 Nd681 2.414 . S
O703 C689 1.273 . S
O704 Nd680 2.410 . S
O704 C690 1.251 . S
O705 Nd681 2.424 . S
O705 C690 1.268 . S
O706 Nd681 2.500 1_554 S
O706 C691 1.258 . S
O707 Nd681 2.492 1_554 S
O707 C691 1.239 . S
O708 Nd681 2.487 . S
O708 C698 1.241 . S
O709 Nd680 2.414 . S
O709 Nd681 2.682 . S
O709 C698 1.273 . S
O710 Nd681 2.410 1_554 S
O710 C699 1.251 . S
O711 Nd680 2.424 1_554 S
O711 C699 1.268 . S
H712 C684 0.930 . S
H713 C685 0.929 . S
H714 C687 0.930 . S
H715 C688 0.929 . S
H716 C693 0.930 . S
H717 C694 0.929 . S
H718 C696 0.930 . S
H719 C697 0.929 . S
Nd720 C722 2.836 . S
Nd720 O740 2.500 . S
Nd720 O741 2.492 . S
Nd720 O742 2.487 . S
Nd720 O743 2.682 . S
Nd720 O744 2.410 . S
Nd720 O749 2.414 . S
Nd720 O751 2.424 . S
Nd721 C731 2.836 . S
Nd721 O743 2.414 . S
Nd721 O745 2.424 . S
Nd721 O746 2.500 . S
Nd721 O747 2.492 . S
Nd721 O748 2.487 . S
Nd721 O749 2.682 . S
Nd721 O750 2.410 . S
C722 Nd720 2.836 . S
C722 C723 1.498 . S
C722 O740 1.258 . S
C722 O741 1.239 . S
C723 C722 1.498 . S
C723 C724 1.366 . S
C723 C728 1.407 . S
C724 C723 1.366 . S
C724 C725 1.392 . S
C724 H752 0.930 . S
C725 C724 1.392 . S
C725 C726 1.398 . S
C725 H753 0.929 . S
C726 C725 1.398 . S
C726 C727 1.352 . S
C727 C726 1.352 . S
C727 C728 1.384 . S
C727 H754 0.930 . S
C728 C723 1.407 . S
C728 C727 1.384 . S
C728 H755 0.929 . S
C729 O742 1.241 . S
C729 O743 1.273 . S
C730 O744 1.251 . S
C730 O745 1.268 . S
C731 Nd721 2.836 . S
C731 C732 1.498 . S
C731 O746 1.258 . S
C731 O747 1.239 . S
C732 C731 1.498 . S
C732 C733 1.366 . S
C732 C737 1.407 . S
C733 C732 1.366 . S
C733 C734 1.392 . S
C733 H756 0.930 . S
C734 C733 1.392 . S
C734 C735 1.398 . S
C734 H757 0.929 . S
C735 C734 1.398 . S
C735 C736 1.352 . S
C736 C735 1.352 . S
C736 C737 1.384 . S
C736 H758 0.930 . S
C737 C732 1.407 . S
C737 C736 1.384 . S
C737 H759 0.929 . S
C738 O748 1.241 . S
C738 O749 1.273 . S
C739 O750 1.251 . S
C739 O751 1.268 . S
O740 Nd720 2.500 . S
O740 C722 1.258 . S
O741 Nd720 2.492 . S
O741 C722 1.239 . S
O742 Nd720 2.487 . S
O742 C729 1.241 . S
O743 Nd720 2.682 . S
O743 Nd721 2.414 . S
O743 C729 1.273 . S
O744 Nd720 2.410 . S
O744 C730 1.251 . S
O745 Nd721 2.424 . S
O745 C730 1.268 . S
O746 Nd721 2.500 . S
O746 C731 1.258 . S
O747 Nd721 2.492 . S
O747 C731 1.239 . S
O748 Nd721 2.487 . S
O748 C738 1.241 . S
O749 Nd720 2.414 . S
O749 Nd721 2.682 . S
O749 C738 1.273 . S
O750 Nd721 2.410 . S
O750 C739 1.251 . S
O751 Nd720 2.424 . S
O751 C739 1.268 . S
H752 C724 0.930 . S
H753 C725 0.929 . S
H754 C727 0.930 . S
H755 C728 0.929 . S
H756 C733 0.930 . S
H757 C734 0.929 . S
H758 C736 0.930 . S
H759 C737 0.929 . S
Nd760 C762 2.836 . S
Nd760 O780 2.500 . S
Nd760 O781 2.492 . S
Nd760 O782 2.487 . S
Nd760 O783 2.682 . S
Nd760 O784 2.410 . S
Nd760 O789 2.414 . S
Nd760 O791 2.424 . S
Nd761 C771 2.836 . S
Nd761 O783 2.414 . S
Nd761 O785 2.424 . S
Nd761 O786 2.500 . S
Nd761 O787 2.492 . S
Nd761 O788 2.487 . S
Nd761 O789 2.682 . S
Nd761 O790 2.410 . S
C762 Nd760 2.836 . S
C762 C763 1.498 . S
C762 O780 1.258 . S
C762 O781 1.239 . S
C763 C762 1.498 . S
C763 C764 1.366 . S
C763 C768 1.407 . S
C764 C763 1.366 . S
C764 C765 1.392 . S
C764 H792 0.930 . S
C765 C764 1.392 . S
C765 C766 1.398 . S
C765 H793 0.929 . S
C766 C765 1.398 . S
C766 C767 1.352 . S
C767 C766 1.352 . S
C767 C768 1.384 . S
C767 H794 0.930 . S
C768 C763 1.407 . S
C768 C767 1.384 . S
C768 H795 0.929 . S
C769 O782 1.241 . S
C769 O783 1.273 . S
C770 O784 1.251 . S
C770 O785 1.268 . S
C771 Nd761 2.836 . S
C771 C772 1.498 . S
C771 O786 1.258 . S
C771 O787 1.239 . S
C772 C771 1.498 . S
C772 C773 1.366 . S
C772 C777 1.407 . S
C773 C772 1.366 . S
C773 C774 1.392 . S
C773 H796 0.930 . S
C774 C773 1.392 . S
C774 C775 1.398 . S
C774 H797 0.929 . S
C775 C774 1.398 . S
C775 C776 1.352 . S
C776 C775 1.352 . S
C776 C777 1.384 . S
C776 H798 0.930 . S
C777 C772 1.407 . S
C777 C776 1.384 . S
C777 H799 0.929 . S
C778 O788 1.241 . S
C778 O789 1.273 . S
C779 O790 1.251 . S
C779 O791 1.268 . S
O780 Nd760 2.500 . S
O780 C762 1.258 . S
O781 Nd760 2.492 . S
O781 C762 1.239 . S
O782 Nd760 2.487 . S
O782 C769 1.241 . S
O783 Nd760 2.682 . S
O783 Nd761 2.414 . S
O783 C769 1.273 . S
O784 Nd760 2.410 . S
O784 C770 1.251 . S
O785 Nd761 2.424 . S
O785 C770 1.268 . S
O786 Nd761 2.500 . S
O786 C771 1.258 . S
O787 Nd761 2.492 . S
O787 C771 1.239 . S
O788 Nd761 2.487 . S
O788 C778 1.241 . S
O789 Nd760 2.414 . S
O789 Nd761 2.682 . S
O789 C778 1.273 . S
O790 Nd761 2.410 . S
O790 C779 1.251 . S
O791 Nd760 2.424 . S
O791 C779 1.268 . S
H792 C764 0.930 . S
H793 C765 0.929 . S
H794 C767 0.930 . S
H795 C768 0.929 . S
H796 C773 0.930 . S
H797 C774 0.929 . S
H798 C776 0.930 . S
H799 C777 0.929 . S
Nd800 C802 2.836 . S
Nd800 O820 2.500 . S
Nd800 O821 2.492 . S
Nd800 O822 2.487 . S
Nd800 O823 2.682 . S
Nd800 O824 2.410 . S
Nd800 O829 2.414 . S
Nd800 O831 2.424 . S
Nd801 C811 2.836 . S
Nd801 O823 2.414 . S
Nd801 O825 2.424 . S
Nd801 O826 2.500 . S
Nd801 O827 2.492 . S
Nd801 O828 2.487 . S
Nd801 O829 2.682 . S
Nd801 O830 2.410 . S
C802 Nd800 2.836 . S
C802 C803 1.498 . S
C802 O820 1.258 . S
C802 O821 1.239 . S
C803 C802 1.498 . S
C803 C804 1.366 . S
C803 C808 1.407 . S
C804 C803 1.366 . S
C804 C805 1.392 . S
C804 H832 0.930 . S
C805 C804 1.392 . S
C805 C806 1.398 . S
C805 H833 0.929 . S
C806 C805 1.398 . S
C806 C807 1.352 . S
C807 C806 1.352 . S
C807 C808 1.384 . S
C807 H834 0.930 . S
C808 C803 1.407 . S
C808 C807 1.384 . S
C808 H835 0.929 . S
C809 O822 1.241 . S
C809 O823 1.273 . S
C810 O824 1.251 . S
C810 O825 1.268 . S
C811 Nd801 2.836 . S
C811 C812 1.498 . S
C811 O826 1.258 . S
C811 O827 1.239 . S
C812 C811 1.498 . S
C812 C813 1.366 . S
C812 C817 1.407 . S
C813 C812 1.366 . S
C813 C814 1.392 . S
C813 H836 0.930 . S
C814 C813 1.392 . S
C814 C815 1.398 . S
C814 H837 0.929 . S
C815 C814 1.398 . S
C815 C816 1.352 . S
C816 C815 1.352 . S
C816 C817 1.384 . S
C816 H838 0.930 . S
C817 C812 1.407 . S
C817 C816 1.384 . S
C817 H839 0.929 . S
C818 O828 1.241 . S
C818 O829 1.273 . S
C819 O830 1.251 . S
C819 O831 1.268 . S
O820 Nd800 2.500 . S
O820 C802 1.258 . S
O821 Nd800 2.492 . S
O821 C802 1.239 . S
O822 Nd800 2.487 . S
O822 C809 1.241 . S
O823 Nd800 2.682 . S
O823 Nd801 2.414 . S
O823 C809 1.273 . S
O824 Nd800 2.410 . S
O824 C810 1.251 . S
O825 Nd801 2.424 . S
O825 C810 1.268 . S
O826 Nd801 2.500 . S
O826 C811 1.258 . S
O827 Nd801 2.492 . S
O827 C811 1.239 . S
O828 Nd801 2.487 . S
O828 C818 1.241 . S
O829 Nd800 2.414 . S
O829 Nd801 2.682 . S
O829 C818 1.273 . S
O830 Nd801 2.410 . S
O830 C819 1.251 . S
O831 Nd800 2.424 . S
O831 C819 1.268 . S
H832 C804 0.930 . S
H833 C805 0.929 . S
H834 C807 0.930 . S
H835 C808 0.929 . S
H836 C813 0.930 . S
H837 C814 0.929 . S
H838 C816 0.930 . S
H839 C817 0.929 . S
Nd840 C842 2.836 . S
Nd840 O860 2.500 . S
Nd840 O861 2.492 . S
Nd840 O862 2.487 . S
Nd840 O863 2.682 . S
Nd840 O864 2.410 . S
Nd840 O869 2.414 . S
Nd840 O871 2.424 . S
Nd841 C851 2.836 . S
Nd841 O863 2.414 . S
Nd841 O865 2.424 . S
Nd841 O866 2.500 . S
Nd841 O867 2.492 . S
Nd841 O868 2.487 . S
Nd841 O869 2.682 . S
Nd841 O870 2.410 . S
C842 Nd840 2.836 . S
C842 C843 1.498 . S
C842 O860 1.258 . S
C842 O861 1.239 . S
C843 C842 1.498 . S
C843 C844 1.366 . S
C843 C848 1.407 . S
C844 C843 1.366 . S
C844 C845 1.392 . S
C844 H872 0.930 . S
C845 C844 1.392 . S
C845 C846 1.398 . S
C845 H873 0.929 . S
C846 C845 1.398 . S
C846 C847 1.352 . S
C847 C846 1.352 . S
C847 C848 1.384 . S
C847 H874 0.930 . S
C848 C843 1.407 . S
C848 C847 1.384 . S
C848 H875 0.929 . S
C849 O862 1.241 . S
C849 O863 1.273 . S
C850 O864 1.251 . S
C850 O865 1.268 . S
C851 Nd841 2.836 . S
C851 C852 1.498 . S
C851 O866 1.258 . S
C851 O867 1.239 . S
C852 C851 1.498 . S
C852 C853 1.366 . S
C852 C857 1.407 . S
C853 C852 1.366 . S
C853 C854 1.392 1_556 S
C853 H876 0.930 . S
C854 C853 1.392 1_554 S
C854 C855 1.398 . S
C854 H877 0.929 . S
C855 C854 1.398 . S
C855 C856 1.352 . S
C856 C855 1.352 . S
C856 C857 1.384 1_554 S
C856 H878 0.930 . S
C857 C852 1.407 . S
C857 C856 1.384 1_556 S
C857 H879 0.929 . S
C858 O868 1.241 . S
C858 O869 1.273 . S
C859 O870 1.251 . S
C859 O871 1.268 . S
O860 Nd840 2.500 . S
O860 C842 1.258 . S
O861 Nd840 2.492 . S
O861 C842 1.239 . S
O862 Nd840 2.487 . S
O862 C849 1.241 . S
O863 Nd840 2.682 . S
O863 Nd841 2.414 . S
O863 C849 1.273 . S
O864 Nd840 2.410 . S
O864 C850 1.251 . S
O865 Nd841 2.424 . S
O865 C850 1.268 . S
O866 Nd841 2.500 . S
O866 C851 1.258 . S
O867 Nd841 2.492 . S
O867 C851 1.239 . S
O868 Nd841 2.487 . S
O868 C858 1.241 . S
O869 Nd840 2.414 . S
O869 Nd841 2.682 . S
O869 C858 1.273 . S
O870 Nd841 2.410 . S
O870 C859 1.251 . S
O871 Nd840 2.424 . S
O871 C859 1.268 . S
H872 C844 0.930 . S
H873 C845 0.929 . S
H874 C847 0.930 . S
H875 C848 0.929 . S
H876 C853 0.930 . S
H877 C854 0.929 . S
H878 C856 0.930 . S
H879 C857 0.929 . S
Nd880 C882 2.836 . S
Nd880 O900 2.500 . S
Nd880 O901 2.492 . S
Nd880 O902 2.487 . S
Nd880 O903 2.682 . S
Nd880 O904 2.410 . S
Nd880 O909 2.414 . S
Nd880 O911 2.424 . S
Nd881 C891 2.836 . S
Nd881 O903 2.414 . S
Nd881 O905 2.424 . S
Nd881 O906 2.500 . S
Nd881 O907 2.492 . S
Nd881 O908 2.487 . S
Nd881 O909 2.682 . S
Nd881 O910 2.410 . S
C882 Nd880 2.836 . S
C882 C883 1.498 . S
C882 O900 1.258 . S
C882 O901 1.239 . S
C883 C882 1.498 . S
C883 C884 1.366 . S
C883 C888 1.407 . S
C884 C883 1.366 . S
C884 C885 1.392 . S
C884 H912 0.930 . S
C885 C884 1.392 . S
C885 C886 1.398 . S
C885 H913 0.929 . S
C886 C885 1.398 . S
C886 C887 1.352 . S
C887 C886 1.352 . S
C887 C888 1.384 . S
C887 H914 0.930 . S
C888 C883 1.407 . S
C888 C887 1.384 . S
C888 H915 0.929 . S
C889 O902 1.241 . S
C889 O903 1.273 . S
C890 O904 1.251 . S
C890 O905 1.268 . S
C891 Nd881 2.836 . S
C891 C892 1.498 . S
C891 O906 1.258 . S
C891 O907 1.239 . S
C892 C891 1.498 . S
C892 C893 1.366 . S
C892 C897 1.407 . S
C893 C892 1.366 . S
C893 C894 1.392 1_556 S
C893 H916 0.930 . S
C894 C893 1.392 1_554 S
C894 C895 1.398 . S
C894 H917 0.929 . S
C895 C894 1.398 . S
C895 C896 1.352 . S
C896 C895 1.352 . S
C896 C897 1.384 1_554 S
C896 H918 0.930 . S
C897 C892 1.407 . S
C897 C896 1.384 1_556 S
C897 H919 0.929 . S
C898 O908 1.241 . S
C898 O909 1.273 . S
C899 O910 1.251 . S
C899 O911 1.268 . S
O900 Nd880 2.500 . S
O900 C882 1.258 . S
O901 Nd880 2.492 . S
O901 C882 1.239 . S
O902 Nd880 2.487 . S
O902 C889 1.241 . S
O903 Nd880 2.682 . S
O903 Nd881 2.414 . S
O903 C889 1.273 . S
O904 Nd880 2.410 . S
O904 C890 1.251 . S
O905 Nd881 2.424 . S
O905 C890 1.268 . S
O906 Nd881 2.500 . S
O906 C891 1.258 . S
O907 Nd881 2.492 . S
O907 C891 1.239 . S
O908 Nd881 2.487 . S
O908 C898 1.241 . S
O909 Nd880 2.414 . S
O909 Nd881 2.682 . S
O909 C898 1.273 . S
O910 Nd881 2.410 . S
O910 C899 1.251 . S
O911 Nd880 2.424 . S
O911 C899 1.268 . S
H912 C884 0.930 . S
H913 C885 0.929 . S
H914 C887 0.930 . S
H915 C888 0.929 . S
H916 C893 0.930 . S
H917 C894 0.929 . S
H918 C896 0.930 . S
H919 C897 0.929 . S
Nd920 C922 2.836 . S
Nd920 O940 2.500 . S
Nd920 O941 2.492 . S
Nd920 O942 2.487 . S
Nd920 O943 2.682 . S
Nd920 O944 2.410 . S
Nd920 O949 2.414 . S
Nd920 O951 2.424 . S
Nd921 C931 2.836 . S
Nd921 O943 2.414 . S
Nd921 O945 2.424 . S
Nd921 O946 2.500 . S
Nd921 O947 2.492 . S
Nd921 O948 2.487 . S
Nd921 O949 2.682 . S
Nd921 O950 2.410 . S
C922 Nd920 2.836 . S
C922 C923 1.498 . S
C922 O940 1.258 . S
C922 O941 1.239 . S
C923 C922 1.498 . S
C923 C924 1.366 . S
C923 C928 1.407 . S
C924 C923 1.366 . S
C924 C925 1.392 . S
C924 H952 0.930 . S
C925 C924 1.392 . S
C925 C926 1.398 . S
C925 H953 0.929 . S
C926 C925 1.398 . S
C926 C927 1.352 . S
C927 C926 1.352 . S
C927 C928 1.384 . S
C927 H954 0.930 . S
C928 C923 1.407 . S
C928 C927 1.384 . S
C928 H955 0.929 . S
C929 O942 1.241 . S
C929 O943 1.273 . S
C930 O944 1.251 . S
C930 O945 1.268 . S
C931 Nd921 2.836 . S
C931 C932 1.498 . S
C931 O946 1.258 . S
C931 O947 1.239 . S
C932 C931 1.498 . S
C932 C933 1.366 . S
C932 C937 1.407 . S
C933 C932 1.366 . S
C933 C934 1.392 1_556 S
C933 H956 0.930 . S
C934 C933 1.392 1_554 S
C934 C935 1.398 . S
C934 H957 0.929 . S
C935 C934 1.398 . S
C935 C936 1.352 . S
C936 C935 1.352 . S
C936 C937 1.384 1_554 S
C936 H958 0.930 . S
C937 C932 1.407 . S
C937 C936 1.384 1_556 S
C937 H959 0.929 . S
C938 O948 1.241 . S
C938 O949 1.273 . S
C939 O950 1.251 . S
C939 O951 1.268 . S
O940 Nd920 2.500 . S
O940 C922 1.258 . S
O941 Nd920 2.492 . S
O941 C922 1.239 . S
O942 Nd920 2.487 . S
O942 C929 1.241 . S
O943 Nd920 2.682 . S
O943 Nd921 2.414 . S
O943 C929 1.273 . S
O944 Nd920 2.410 . S
O944 C930 1.251 . S
O945 Nd921 2.424 . S
O945 C930 1.268 . S
O946 Nd921 2.500 . S
O946 C931 1.258 . S
O947 Nd921 2.492 . S
O947 C931 1.239 . S
O948 Nd921 2.487 . S
O948 C938 1.241 . S
O949 Nd920 2.414 . S
O949 Nd921 2.682 . S
O949 C938 1.273 . S
O950 Nd921 2.410 . S
O950 C939 1.251 . S
O951 Nd920 2.424 . S
O951 C939 1.268 . S
H952 C924 0.930 . S
H953 C925 0.929 . S
H954 C927 0.930 . S
H955 C928 0.929 . S
H956 C933 0.930 . S
H957 C934 0.929 . S
H958 C936 0.930 . S
H959 C937 0.929 . S
Nd960 C962 2.836 . S
Nd960 O980 2.500 . S
Nd960 O981 2.492 . S
Nd960 O982 2.487 . S
Nd960 O983 2.682 . S
Nd960 O984 2.410 . S
Nd960 O989 2.414 . S
Nd960 O991 2.424 . S
Nd961 C971 2.836 . S
Nd961 O983 2.414 . S
Nd961 O985 2.424 . S
Nd961 O986 2.500 . S
Nd961 O987 2.492 . S
Nd961 O988 2.487 . S
Nd961 O989 2.682 . S
Nd961 O990 2.410 . S
C962 Nd960 2.836 . S
C962 C963 1.498 . S
C962 O980 1.258 . S
C962 O981 1.239 . S
C963 C962 1.498 . S
C963 C964 1.366 . S
C963 C968 1.407 . S
C964 C963 1.366 . S
C964 C965 1.392 . S
C964 H992 0.930 . S
C965 C964 1.392 . S
C965 C966 1.398 . S
C965 H993 0.929 . S
C966 C965 1.398 . S
C966 C967 1.352 . S
C967 C966 1.352 . S
C967 C968 1.384 . S
C967 H994 0.930 . S
C968 C963 1.407 . S
C968 C967 1.384 . S
C968 H995 0.929 . S
C969 O982 1.241 . S
C969 O983 1.273 . S
C970 O984 1.251 . S
C970 O985 1.268 . S
C971 Nd961 2.836 . S
C971 C972 1.498 . S
C971 O986 1.258 . S
C971 O987 1.239 . S
C972 C971 1.498 . S
C972 C973 1.366 . S
C972 C977 1.407 . S
C973 C972 1.366 . S
C973 C974 1.392 . S
C973 H996 0.930 . S
C974 C973 1.392 . S
C974 C975 1.398 . S
C974 H997 0.929 . S
C975 C974 1.398 . S
C975 C976 1.352 . S
C976 C975 1.352 . S
C976 C977 1.384 . S
C976 H998 0.930 . S
C977 C972 1.407 . S
C977 C976 1.384 . S
C977 H999 0.929 . S
C978 O988 1.241 . S
C978 O989 1.273 . S
C979 O990 1.251 . S
C979 O991 1.268 . S
O980 Nd960 2.500 . S
O980 C962 1.258 . S
O981 Nd960 2.492 . S
O981 C962 1.239 . S
O982 Nd960 2.487 . S
O982 C969 1.241 . S
O983 Nd960 2.682 . S
O983 Nd961 2.414 . S
O983 C969 1.273 . S
O984 Nd960 2.410 . S
O984 C970 1.251 . S
O985 Nd961 2.424 . S
O985 C970 1.268 . S
O986 Nd961 2.500 . S
O986 C971 1.258 . S
O987 Nd961 2.492 . S
O987 C971 1.239 . S
O988 Nd961 2.487 . S
O988 C978 1.241 . S
O989 Nd960 2.414 . S
O989 Nd961 2.682 . S
O989 C978 1.273 . S
O990 Nd961 2.410 . S
O990 C979 1.251 . S
O991 Nd960 2.424 . S
O991 C979 1.268 . S
H992 C964 0.930 . S
H993 C965 0.929 . S
H994 C967 0.930 . S
H995 C968 0.929 . S
H996 C973 0.930 . S
H997 C974 0.929 . S
H998 C976 0.930 . S
H999 C977 0.929 . S
Nd1000 C1002 2.836 . S
Nd1000 O1020 2.500 . S
Nd1000 O1021 2.492 . S
Nd1000 O1022 2.487 . S
Nd1000 O1023 2.682 . S
Nd1000 O1024 2.410 . S
Nd1000 O1029 2.414 . S
Nd1000 O1031 2.424 . S
Nd1001 C1011 2.836 . S
Nd1001 O1023 2.414 . S
Nd1001 O1025 2.424 . S
Nd1001 O1026 2.500 . S
Nd1001 O1027 2.492 . S
Nd1001 O1028 2.487 . S
Nd1001 O1029 2.682 . S
Nd1001 O1030 2.410 . S
C1002 Nd1000 2.836 . S
C1002 C1003 1.498 . S
C1002 O1020 1.258 . S
C1002 O1021 1.239 . S
C1003 C1002 1.498 . S
C1003 C1004 1.366 . S
C1003 C1008 1.407 . S
C1004 C1003 1.366 . S
C1004 C1005 1.392 . S
C1004 H1032 0.930 . S
C1005 C1004 1.392 . S
C1005 C1006 1.398 . S
C1005 H1033 0.929 . S
C1006 C1005 1.398 . S
C1006 C1007 1.352 . S
C1007 C1006 1.352 . S
C1007 C1008 1.384 . S
C1007 H1034 0.930 . S
C1008 C1003 1.407 . S
C1008 C1007 1.384 . S
C1008 H1035 0.929 . S
C1009 O1022 1.241 . S
C1009 O1023 1.273 . S
C1010 O1024 1.251 . S
C1010 O1025 1.268 . S
C1011 Nd1001 2.836 . S
C1011 C1012 1.498 . S
C1011 O1026 1.258 . S
C1011 O1027 1.239 . S
C1012 C1011 1.498 . S
C1012 C1013 1.366 . S
C1012 C1017 1.407 . S
C1013 C1012 1.366 . S
C1013 C1014 1.392 . S
C1013 H1036 0.930 . S
C1014 C1013 1.392 . S
C1014 C1015 1.398 . S
C1014 H1037 0.929 . S
C1015 C1014 1.398 . S
C1015 C1016 1.352 . S
C1016 C1015 1.352 . S
C1016 C1017 1.384 . S
C1016 H1038 0.930 . S
C1017 C1012 1.407 . S
C1017 C1016 1.384 . S
C1017 H1039 0.929 . S
C1018 O1028 1.241 . S
C1018 O1029 1.273 . S
C1019 O1030 1.251 . S
C1019 O1031 1.268 . S
O1020 Nd1000 2.500 . S
O1020 C1002 1.258 . S
O1021 Nd1000 2.492 . S
O1021 C1002 1.239 . S
O1022 Nd1000 2.487 . S
O1022 C1009 1.241 . S
O1023 Nd1000 2.682 . S
O1023 Nd1001 2.414 . S
O1023 C1009 1.273 . S
O1024 Nd1000 2.410 . S
O1024 C1010 1.251 . S
O1025 Nd1001 2.424 . S
O1025 C1010 1.268 . S
O1026 Nd1001 2.500 . S
O1026 C1011 1.258 . S
O1027 Nd1001 2.492 . S
O1027 C1011 1.239 . S
O1028 Nd1001 2.487 . S
O1028 C1018 1.241 . S
O1029 Nd1000 2.414 . S
O1029 Nd1001 2.682 . S
O1029 C1018 1.273 . S
O1030 Nd1001 2.410 . S
O1030 C1019 1.251 . S
O1031 Nd1000 2.424 . S
O1031 C1019 1.268 . S
H1032 C1004 0.930 . S
H1033 C1005 0.929 . S
H1034 C1007 0.930 . S
H1035 C1008 0.929 . S
H1036 C1013 0.930 . S
H1037 C1014 0.929 . S
H1038 C1016 0.930 . S
H1039 C1017 0.929 . S
Nd1040 C1042 2.836 . S
Nd1040 O1060 2.500 . S
Nd1040 O1061 2.492 . S
Nd1040 O1062 2.487 . S
Nd1040 O1063 2.682 . S
Nd1040 O1064 2.410 . S
Nd1040 O1069 2.414 . S
Nd1040 O1071 2.424 . S
Nd1041 C1051 2.836 . S
Nd1041 O1063 2.414 . S
Nd1041 O1065 2.424 . S
Nd1041 O1066 2.500 . S
Nd1041 O1067 2.492 . S
Nd1041 O1068 2.487 . S
Nd1041 O1069 2.682 . S
Nd1041 O1070 2.410 . S
C1042 Nd1040 2.836 . S
C1042 C1043 1.498 . S
C1042 O1060 1.258 . S
C1042 O1061 1.239 . S
C1043 C1042 1.498 . S
C1043 C1044 1.366 . S
C1043 C1048 1.407 . S
C1044 C1043 1.366 . S
C1044 C1045 1.392 . S
C1044 H1072 0.930 . S
C1045 C1044 1.392 . S
C1045 C1046 1.398 . S
C1045 H1073 0.929 . S
C1046 C1045 1.398 . S
C1046 C1047 1.352 . S
C1047 C1046 1.352 . S
C1047 C1048 1.384 . S
C1047 H1074 0.930 . S
C1048 C1043 1.407 . S
C1048 C1047 1.384 . S
C1048 H1075 0.929 . S
C1049 O1062 1.241 . S
C1049 O1063 1.273 . S
C1050 O1064 1.251 . S
C1050 O1065 1.268 . S
C1051 Nd1041 2.836 . S
C1051 C1052 1.498 . S
C1051 O1066 1.258 . S
C1051 O1067 1.239 . S
C1052 C1051 1.498 . S
C1052 C1053 1.366 . S
C1052 C1057 1.407 . S
C1053 C1052 1.366 . S
C1053 C1054 1.392 . S
C1053 H1076 0.930 . S
C1054 C1053 1.392 . S
C1054 C1055 1.398 . S
C1054 H1077 0.929 . S
C1055 C1054 1.398 . S
C1055 C1056 1.352 . S
C1056 C1055 1.352 . S
C1056 C1057 1.384 . S
C1056 H1078 0.930 . S
C1057 C1052 1.407 . S
C1057 C1056 1.384 . S
C1057 H1079 0.929 . S
C1058 O1068 1.241 . S
C1058 O1069 1.273 . S
C1059 O1070 1.251 . S
C1059 O1071 1.268 . S
O1060 Nd1040 2.500 . S
O1060 C1042 1.258 . S
O1061 Nd1040 2.492 . S
O1061 C1042 1.239 . S
O1062 Nd1040 2.487 . S
O1062 C1049 1.241 . S
O1063 Nd1040 2.682 . S
O1063 Nd1041 2.414 . S
O1063 C1049 1.273 . S
O1064 Nd1040 2.410 . S
O1064 C1050 1.251 . S
O1065 Nd1041 2.424 . S
O1065 C1050 1.268 . S
O1066 Nd1041 2.500 . S
O1066 C1051 1.258 . S
O1067 Nd1041 2.492 . S
O1067 C1051 1.239 . S
O1068 Nd1041 2.487 . S
O1068 C1058 1.241 . S
O1069 Nd1040 2.414 . S
O1069 Nd1041 2.682 . S
O1069 C1058 1.273 . S
O1070 Nd1041 2.410 . S
O1070 C1059 1.251 . S
O1071 Nd1040 2.424 . S
O1071 C1059 1.268 . S
H1072 C1044 0.930 . S
H1073 C1045 0.929 . S
H1074 C1047 0.930 . S
H1075 C1048 0.929 . S
H1076 C1053 0.930 . S
H1077 C1054 0.929 . S
H1078 C1056 0.930 . S
H1079 C1057 0.929 . S
Nd1080 C1082 2.836 . S
Nd1080 O1100 2.500 . S
Nd1080 O1101 2.492 . S
Nd1080 O1102 2.487 . S
Nd1080 O1103 2.682 . S
Nd1080 O1104 2.410 . S
Nd1080 O1109 2.414 . S
Nd1080 O1111 2.424 . S
Nd1081 C1091 2.836 . S
Nd1081 O1103 2.414 . S
Nd1081 O1105 2.424 . S
Nd1081 O1106 2.500 . S
Nd1081 O1107 2.492 . S
Nd1081 O1108 2.487 . S
Nd1081 O1109 2.682 . S
Nd1081 O1110 2.410 . S
C1082 Nd1080 2.836 . S
C1082 C1083 1.498 . S
C1082 O1100 1.258 . S
C1082 O1101 1.239 . S
C1083 C1082 1.498 . S
C1083 C1084 1.366 . S
C1083 C1088 1.407 . S
C1084 C1083 1.366 . S
C1084 C1085 1.392 . S
C1084 H1112 0.930 . S
C1085 C1084 1.392 . S
C1085 C1086 1.398 . S
C1085 H1113 0.929 . S
C1086 C1085 1.398 . S
C1086 C1087 1.352 . S
C1087 C1086 1.352 . S
C1087 C1088 1.384 . S
C1087 H1114 0.930 . S
C1088 C1083 1.407 . S
C1088 C1087 1.384 . S
C1088 H1115 0.929 . S
C1089 O1102 1.241 . S
C1089 O1103 1.273 . S
C1090 O1104 1.251 . S
C1090 O1105 1.268 . S
C1091 Nd1081 2.836 . S
C1091 C1092 1.498 . S
C1091 O1106 1.258 . S
C1091 O1107 1.239 . S
C1092 C1091 1.498 . S
C1092 C1093 1.366 . S
C1092 C1097 1.407 . S
C1093 C1092 1.366 . S
C1093 C1094 1.392 . S
C1093 H1116 0.930 . S
C1094 C1093 1.392 . S
C1094 C1095 1.398 . S
C1094 H1117 0.929 . S
C1095 C1094 1.398 . S
C1095 C1096 1.352 . S
C1096 C1095 1.352 . S
C1096 C1097 1.384 . S
C1096 H1118 0.930 . S
C1097 C1092 1.407 . S
C1097 C1096 1.384 . S
C1097 H1119 0.929 . S
C1098 O1108 1.241 . S
C1098 O1109 1.273 . S
C1099 O1110 1.251 . S
C1099 O1111 1.268 . S
O1100 Nd1080 2.500 . S
O1100 C1082 1.258 . S
O1101 Nd1080 2.492 . S
O1101 C1082 1.239 . S
O1102 Nd1080 2.487 . S
O1102 C1089 1.241 . S
O1103 Nd1080 2.682 . S
O1103 Nd1081 2.414 . S
O1103 C1089 1.273 . S
O1104 Nd1080 2.410 . S
O1104 C1090 1.251 . S
O1105 Nd1081 2.424 . S
O1105 C1090 1.268 . S
O1106 Nd1081 2.500 . S
O1106 C1091 1.258 . S
O1107 Nd1081 2.492 . S
O1107 C1091 1.239 . S
O1108 Nd1081 2.487 . S
O1108 C1098 1.241 . S
O1109 Nd1080 2.414 . S
O1109 Nd1081 2.682 . S
O1109 C1098 1.273 . S
O1110 Nd1081 2.410 . S
O1110 C1099 1.251 . S
O1111 Nd1080 2.424 . S
O1111 C1099 1.268 . S
H1112 C1084 0.930 . S
H1113 C1085 0.929 . S
H1114 C1087 0.930 . S
H1115 C1088 0.929 . S
H1116 C1093 0.930 . S
H1117 C1094 0.929 . S
H1118 C1096 0.930 . S
H1119 C1097 0.929 . S
Nd1120 C1122 2.836 . S
Nd1120 O1140 2.500 . S
Nd1120 O1141 2.492 . S
Nd1120 O1142 2.487 . S
Nd1120 O1143 2.682 . S
Nd1120 O1144 2.410 . S
Nd1120 O1149 2.414 . S
Nd1120 O1151 2.424 . S
Nd1121 C1131 2.836 . S
Nd1121 O1143 2.414 . S
Nd1121 O1145 2.424 . S
Nd1121 O1146 2.500 . S
Nd1121 O1147 2.492 . S
Nd1121 O1148 2.487 . S
Nd1121 O1149 2.682 . S
Nd1121 O1150 2.410 . S
C1122 Nd1120 2.836 . S
C1122 C1123 1.498 . S
C1122 O1140 1.258 . S
C1122 O1141 1.239 . S
C1123 C1122 1.498 . S
C1123 C1124 1.366 . S
C1123 C1128 1.407 . S
C1124 C1123 1.366 . S
C1124 C1125 1.392 . S
C1124 H1152 0.930 . S
C1125 C1124 1.392 . S
C1125 C1126 1.398 . S
C1125 H1153 0.929 . S
C1126 C1125 1.398 . S
C1126 C1127 1.352 . S
C1127 C1126 1.352 . S
C1127 C1128 1.384 . S
C1127 H1154 0.930 . S
C1128 C1123 1.407 . S
C1128 C1127 1.384 . S
C1128 H1155 0.929 . S
C1129 O1142 1.241 . S
C1129 O1143 1.273 . S
C1130 O1144 1.251 . S
C1130 O1145 1.268 . S
C1131 Nd1121 2.836 . S
C1131 C1132 1.498 . S
C1131 O1146 1.258 . S
C1131 O1147 1.239 . S
C1132 C1131 1.498 . S
C1132 C1133 1.366 . S
C1132 C1137 1.407 . S
C1133 C1132 1.366 . S
C1133 C1134 1.392 . S
C1133 H1156 0.930 . S
C1134 C1133 1.392 . S
C1134 C1135 1.398 . S
C1134 H1157 0.929 . S
C1135 C1134 1.398 . S
C1135 C1136 1.352 . S
C1136 C1135 1.352 . S
C1136 C1137 1.384 . S
C1136 H1158 0.930 . S
C1137 C1132 1.407 . S
C1137 C1136 1.384 . S
C1137 H1159 0.929 . S
C1138 O1148 1.241 . S
C1138 O1149 1.273 . S
C1139 O1150 1.251 . S
C1139 O1151 1.268 . S
O1140 Nd1120 2.500 . S
O1140 C1122 1.258 . S
O1141 Nd1120 2.492 . S
O1141 C1122 1.239 . S
O1142 Nd1120 2.487 . S
O1142 C1129 1.241 . S
O1143 Nd1120 2.682 . S
O1143 Nd1121 2.414 . S
O1143 C1129 1.273 . S
O1144 Nd1120 2.410 . S
O1144 C1130 1.251 . S
O1145 Nd1121 2.424 . S
O1145 C1130 1.268 . S
O1146 Nd1121 2.500 . S
O1146 C1131 1.258 . S
O1147 Nd1121 2.492 . S
O1147 C1131 1.239 . S
O1148 Nd1121 2.487 . S
O1148 C1138 1.241 . S
O1149 Nd1120 2.414 . S
O1149 Nd1121 2.682 . S
O1149 C1138 1.273 . S
O1150 Nd1121 2.410 . S
O1150 C1139 1.251 . S
O1151 Nd1120 2.424 . S
O1151 C1139 1.268 . S
H1152 C1124 0.930 . S
H1153 C1125 0.929 . S
H1154 C1127 0.930 . S
H1155 C1128 0.929 . S
H1156 C1133 0.930 . S
H1157 C1134 0.929 . S
H1158 C1136 0.930 . S
H1159 C1137 0.929 . S
Nd1160 C1162 2.836 . S
Nd1160 O1180 2.500 . S
Nd1160 O1181 2.492 . S
Nd1160 O1182 2.487 . S
Nd1160 O1183 2.682 . S
Nd1160 O1184 2.410 . S
Nd1160 O1189 2.414 . S
Nd1160 O1191 2.424 . S
Nd1161 C1171 2.836 . S
Nd1161 O1183 2.414 . S
Nd1161 O1185 2.424 . S
Nd1161 O1186 2.500 . S
Nd1161 O1187 2.492 . S
Nd1161 O1188 2.487 . S
Nd1161 O1189 2.682 . S
Nd1161 O1190 2.410 . S
C1162 Nd1160 2.836 . S
C1162 C1163 1.498 . S
C1162 O1180 1.258 . S
C1162 O1181 1.239 . S
C1163 C1162 1.498 . S
C1163 C1164 1.366 . S
C1163 C1168 1.407 . S
C1164 C1163 1.366 . S
C1164 C1165 1.392 . S
C1164 H1192 0.930 . S
C1165 C1164 1.392 . S
C1165 C1166 1.398 . S
C1165 H1193 0.929 . S
C1166 C1165 1.398 . S
C1166 C1167 1.352 . S
C1167 C1166 1.352 . S
C1167 C1168 1.384 . S
C1167 H1194 0.930 . S
C1168 C1163 1.407 . S
C1168 C1167 1.384 . S
C1168 H1195 0.929 . S
C1169 O1182 1.241 . S
C1169 O1183 1.273 . S
C1170 O1184 1.251 . S
C1170 O1185 1.268 . S
C1171 Nd1161 2.836 . S
C1171 C1172 1.498 . S
C1171 O1186 1.258 . S
C1171 O1187 1.239 . S
C1172 C1171 1.498 . S
C1172 C1173 1.366 . S
C1172 C1177 1.407 . S
C1173 C1172 1.366 . S
C1173 C1174 1.392 . S
C1173 H1196 0.930 . S
C1174 C1173 1.392 . S
C1174 C1175 1.398 . S
C1174 H1197 0.929 . S
C1175 C1174 1.398 . S
C1175 C1176 1.352 . S
C1176 C1175 1.352 . S
C1176 C1177 1.384 . S
C1176 H1198 0.930 . S
C1177 C1172 1.407 . S
C1177 C1176 1.384 . S
C1177 H1199 0.929 . S
C1178 O1188 1.241 . S
C1178 O1189 1.273 . S
C1179 O1190 1.251 . S
C1179 O1191 1.268 . S
O1180 Nd1160 2.500 . S
O1180 C1162 1.258 . S
O1181 Nd1160 2.492 . S
O1181 C1162 1.239 . S
O1182 Nd1160 2.487 . S
O1182 C1169 1.241 . S
O1183 Nd1160 2.682 . S
O1183 Nd1161 2.414 . S
O1183 C1169 1.273 . S
O1184 Nd1160 2.410 . S
O1184 C1170 1.251 . S
O1185 Nd1161 2.424 . S
O1185 C1170 1.268 . S
O1186 Nd1161 2.500 . S
O1186 C1171 1.258 . S
O1187 Nd1161 2.492 . S
O1187 C1171 1.239 . S
O1188 Nd1161 2.487 . S
O1188 C1178 1.241 . S
O1189 Nd1160 2.414 . S
O1189 Nd1161 2.682 . S
O1189 C1178 1.273 . S
O1190 Nd1161 2.410 . S
O1190 C1179 1.251 . S
O1191 Nd1160 2.424 . S
O1191 C1179 1.268 . S
H1192 C1164 0.930 . S
H1193 C1165 0.929 . S
H1194 C1167 0.930 . S
H1195 C1168 0.929 . S
H1196 C1173 0.930 . S
H1197 C1174 0.929 . S
H1198 C1176 0.930 . S
H1199 C1177 0.929 . S
Nd1200 C1202 2.836 . S
Nd1200 O1220 2.500 . S
Nd1200 O1221 2.492 . S
Nd1200 O1222 2.487 . S
Nd1200 O1223 2.682 . S
Nd1200 O1224 2.410 . S
Nd1200 O1229 2.414 . S
Nd1200 O1231 2.424 . S
Nd1201 C1211 2.836 . S
Nd1201 O1223 2.414 . S
Nd1201 O1225 2.424 . S
Nd1201 O1226 2.500 . S
Nd1201 O1227 2.492 . S
Nd1201 O1228 2.487 . S
Nd1201 O1229 2.682 . S
Nd1201 O1230 2.410 . S
C1202 Nd1200 2.836 . S
C1202 C1203 1.498 . S
C1202 O1220 1.258 . S
C1202 O1221 1.239 . S
C1203 C1202 1.498 . S
C1203 C1204 1.366 . S
C1203 C1208 1.407 . S
C1204 C1203 1.366 . S
C1204 C1205 1.392 . S
C1204 H1232 0.930 . S
C1205 C1204 1.392 . S
C1205 C1206 1.398 1_556 S
C1205 H1233 0.929 1_556 S
C1206 C1205 1.398 1_554 S
C1206 C1207 1.352 1_554 S
C1207 C1206 1.352 1_556 S
C1207 C1208 1.384 . S
C1207 H1234 0.930 . S
C1208 C1203 1.407 . S
C1208 C1207 1.384 . S
C1208 H1235 0.929 . S
C1209 O1222 1.241 . S
C1209 O1223 1.273 . S
C1210 O1224 1.251 . S
C1210 O1225 1.268 . S
C1211 Nd1201 2.836 . S
C1211 C1212 1.498 . S
C1211 O1226 1.258 . S
C1211 O1227 1.239 . S
C1212 C1211 1.498 . S
C1212 C1213 1.366 . S
C1212 C1217 1.407 . S
C1213 C1212 1.366 . S
C1213 C1214 1.392 . S
C1213 H1236 0.930 . S
C1214 C1213 1.392 . S
C1214 C1215 1.398 . S
C1214 H1237 0.929 . S
C1215 C1214 1.398 . S
C1215 C1216 1.352 . S
C1216 C1215 1.352 . S
C1216 C1217 1.384 . S
C1216 H1238 0.930 . S
C1217 C1212 1.407 . S
C1217 C1216 1.384 . S
C1217 H1239 0.929 . S
C1218 O1228 1.241 . S
C1218 O1229 1.273 . S
C1219 O1230 1.251 . S
C1219 O1231 1.268 . S
O1220 Nd1200 2.500 . S
O1220 C1202 1.258 . S
O1221 Nd1200 2.492 . S
O1221 C1202 1.239 . S
O1222 Nd1200 2.487 . S
O1222 C1209 1.241 . S
O1223 Nd1200 2.682 . S
O1223 Nd1201 2.414 . S
O1223 C1209 1.273 . S
O1224 Nd1200 2.410 . S
O1224 C1210 1.251 . S
O1225 Nd1201 2.424 . S
O1225 C1210 1.268 . S
O1226 Nd1201 2.500 . S
O1226 C1211 1.258 . S
O1227 Nd1201 2.492 . S
O1227 C1211 1.239 . S
O1228 Nd1201 2.487 . S
O1228 C1218 1.241 . S
O1229 Nd1200 2.414 . S
O1229 Nd1201 2.682 . S
O1229 C1218 1.273 . S
O1230 Nd1201 2.410 . S
O1230 C1219 1.251 . S
O1231 Nd1200 2.424 . S
O1231 C1219 1.268 . S
H1232 C1204 0.930 . S
H1233 C1205 0.929 1_554 S
H1234 C1207 0.930 . S
H1235 C1208 0.929 . S
H1236 C1213 0.930 . S
H1237 C1214 0.929 . S
H1238 C1216 0.930 . S
H1239 C1217 0.929 . S
Nd1240 C1242 2.836 . S
Nd1240 O1260 2.500 . S
Nd1240 O1261 2.492 . S
Nd1240 O1262 2.487 . S
Nd1240 O1263 2.682 . S
Nd1240 O1264 2.410 . S
Nd1240 O1269 2.414 . S
Nd1240 O1271 2.424 . S
Nd1241 C1251 2.836 . S
Nd1241 O1263 2.414 . S
Nd1241 O1265 2.424 . S
Nd1241 O1266 2.500 . S
Nd1241 O1267 2.492 . S
Nd1241 O1268 2.487 . S
Nd1241 O1269 2.682 . S
Nd1241 O1270 2.410 . S
C1242 Nd1240 2.836 . S
C1242 C1243 1.498 . S
C1242 O1260 1.258 . S
C1242 O1261 1.239 . S
C1243 C1242 1.498 . S
C1243 C1244 1.366 . S
C1243 C1248 1.407 . S
C1244 C1243 1.366 . S
C1244 C1245 1.392 . S
C1244 H1272 0.930 . S
C1245 C1244 1.392 . S
C1245 C1246 1.398 1_556 S
C1245 H1273 0.929 1_556 S
C1246 C1245 1.398 1_554 S
C1246 C1247 1.352 1_554 S
C1247 C1246 1.352 1_556 S
C1247 C1248 1.384 . S
C1247 H1274 0.930 . S
C1248 C1243 1.407 . S
C1248 C1247 1.384 . S
C1248 H1275 0.929 . S
C1249 O1262 1.241 . S
C1249 O1263 1.273 . S
C1250 O1264 1.251 . S
C1250 O1265 1.268 . S
C1251 Nd1241 2.836 . S
C1251 C1252 1.498 . S
C1251 O1266 1.258 . S
C1251 O1267 1.239 . S
C1252 C1251 1.498 . S
C1252 C1253 1.366 . S
C1252 C1257 1.407 . S
C1253 C1252 1.366 . S
C1253 C1254 1.392 . S
C1253 H1276 0.930 . S
C1254 C1253 1.392 . S
C1254 C1255 1.398 . S
C1254 H1277 0.929 . S
C1255 C1254 1.398 . S
C1255 C1256 1.352 . S
C1256 C1255 1.352 . S
C1256 C1257 1.384 . S
C1256 H1278 0.930 . S
C1257 C1252 1.407 . S
C1257 C1256 1.384 . S
C1257 H1279 0.929 . S
C1258 O1268 1.241 . S
C1258 O1269 1.273 . S
C1259 O1270 1.251 . S
C1259 O1271 1.268 . S
O1260 Nd1240 2.500 . S
O1260 C1242 1.258 . S
O1261 Nd1240 2.492 . S
O1261 C1242 1.239 . S
O1262 Nd1240 2.487 . S
O1262 C1249 1.241 . S
O1263 Nd1240 2.682 . S
O1263 Nd1241 2.414 . S
O1263 C1249 1.273 . S
O1264 Nd1240 2.410 . S
O1264 C1250 1.251 . S
O1265 Nd1241 2.424 . S
O1265 C1250 1.268 . S
O1266 Nd1241 2.500 . S
O1266 C1251 1.258 . S
O1267 Nd1241 2.492 . S
O1267 C1251 1.239 . S
O1268 Nd1241 2.487 . S
O1268 C1258 1.241 . S
O1269 Nd1240 2.414 . S
O1269 Nd1241 2.682 . S
O1269 C1258 1.273 . S
O1270 Nd1241 2.410 . S
O1270 C1259 1.251 . S
O1271 Nd1240 2.424 . S
O1271 C1259 1.268 . S
H1272 C1244 0.930 . S
H1273 C1245 0.929 1_554 S
H1274 C1247 0.930 . S
H1275 C1248 0.929 . S
H1276 C1253 0.930 . S
H1277 C1254 0.929 . S
H1278 C1256 0.930 . S
H1279 C1257 0.929 . S
Nd1280 C1282 2.836 . S
Nd1280 O1300 2.500 . S
Nd1280 O1301 2.492 . S
Nd1280 O1302 2.487 . S
Nd1280 O1303 2.682 . S
Nd1280 O1304 2.410 . S
Nd1280 O1309 2.414 . S
Nd1280 O1311 2.424 . S
Nd1281 C1291 2.836 . S
Nd1281 O1303 2.414 . S
Nd1281 O1305 2.424 . S
Nd1281 O1306 2.500 . S
Nd1281 O1307 2.492 . S
Nd1281 O1308 2.487 . S
Nd1281 O1309 2.682 . S
Nd1281 O1310 2.410 . S
C1282 Nd1280 2.836 . S
C1282 C1283 1.498 . S
C1282 O1300 1.258 . S
C1282 O1301 1.239 . S
C1283 C1282 1.498 . S
C1283 C1284 1.366 . S
C1283 C1288 1.407 . S
C1284 C1283 1.366 . S
C1284 C1285 1.392 . S
C1284 H1312 0.930 . S
C1285 C1284 1.392 . S
C1285 C1286 1.398 1_556 S
C1285 H1313 0.929 1_556 S
C1286 C1285 1.398 1_554 S
C1286 C1287 1.352 1_554 S
C1287 C1286 1.352 1_556 S
C1287 C1288 1.384 . S
C1287 H1314 0.930 . S
C1288 C1283 1.407 . S
C1288 C1287 1.384 . S
C1288 H1315 0.929 . S
C1289 O1302 1.241 . S
C1289 O1303 1.273 . S
C1290 O1304 1.251 . S
C1290 O1305 1.268 . S
C1291 Nd1281 2.836 . S
C1291 C1292 1.498 . S
C1291 O1306 1.258 . S
C1291 O1307 1.239 . S
C1292 C1291 1.498 . S
C1292 C1293 1.366 . S
C1292 C1297 1.407 . S
C1293 C1292 1.366 . S
C1293 C1294 1.392 . S
C1293 H1316 0.930 . S
C1294 C1293 1.392 . S
C1294 C1295 1.398 . S
C1294 H1317 0.929 . S
C1295 C1294 1.398 . S
C1295 C1296 1.352 . S
C1296 C1295 1.352 . S
C1296 C1297 1.384 . S
C1296 H1318 0.930 . S
C1297 C1292 1.407 . S
C1297 C1296 1.384 . S
C1297 H1319 0.929 . S
C1298 O1308 1.241 . S
C1298 O1309 1.273 . S
C1299 O1310 1.251 . S
C1299 O1311 1.268 . S
O1300 Nd1280 2.500 . S
O1300 C1282 1.258 . S
O1301 Nd1280 2.492 . S
O1301 C1282 1.239 . S
O1302 Nd1280 2.487 . S
O1302 C1289 1.241 . S
O1303 Nd1280 2.682 . S
O1303 Nd1281 2.414 . S
O1303 C1289 1.273 . S
O1304 Nd1280 2.410 . S
O1304 C1290 1.251 . S
O1305 Nd1281 2.424 . S
O1305 C1290 1.268 . S
O1306 Nd1281 2.500 . S
O1306 C1291 1.258 . S
O1307 Nd1281 2.492 . S
O1307 C1291 1.239 . S
O1308 Nd1281 2.487 . S
O1308 C1298 1.241 . S
O1309 Nd1280 2.414 . S
O1309 Nd1281 2.682 . S
O1309 C1298 1.273 . S
O1310 Nd1281 2.410 . S
O1310 C1299 1.251 . S
O1311 Nd1280 2.424 . S
O1311 C1299 1.268 . S
H1312 C1284 0.930 . S
H1313 C1285 0.929 1_554 S
H1314 C1287 0.930 . S
H1315 C1288 0.929 . S
H1316 C1293 0.930 . S
H1317 C1294 0.929 . S
H1318 C1296 0.930 . S
H1319 C1297 0.929 . S
Nd1320 C1322 2.836 . S
Nd1320 O1340 2.500 . S
Nd1320 O1341 2.492 . S
Nd1320 O1342 2.487 . S
Nd1320 O1343 2.682 . S
Nd1320 O1344 2.410 . S
Nd1320 O1349 2.414 . S
Nd1320 O1351 2.424 . S
Nd1321 C1331 2.836 . S
Nd1321 O1343 2.414 . S
Nd1321 O1345 2.424 . S
Nd1321 O1346 2.500 . S
Nd1321 O1347 2.492 . S
Nd1321 O1348 2.487 . S
Nd1321 O1349 2.682 . S
Nd1321 O1350 2.410 . S
C1322 Nd1320 2.836 . S
C1322 C1323 1.498 . S
C1322 O1340 1.258 . S
C1322 O1341 1.239 . S
C1323 C1322 1.498 . S
C1323 C1324 1.366 . S
C1323 C1328 1.407 . S
C1324 C1323 1.366 . S
C1324 C1325 1.392 1_554 S
C1324 H1352 0.930 . S
C1325 C1324 1.392 1_556 S
C1325 C1326 1.398 . S
C1325 H1353 0.929 . S
C1326 C1325 1.398 . S
C1326 C1327 1.352 . S
C1327 C1326 1.352 . S
C1327 C1328 1.384 1_556 S
C1327 H1354 0.930 . S
C1328 C1323 1.407 . S
C1328 C1327 1.384 1_554 S
C1328 H1355 0.929 . S
C1329 O1342 1.241 . S
C1329 O1343 1.273 . S
C1330 O1344 1.251 . S
C1330 O1345 1.268 . S
C1331 Nd1321 2.836 . S
C1331 C1332 1.498 . S
C1331 O1346 1.258 . S
C1331 O1347 1.239 . S
C1332 C1331 1.498 . S
C1332 C1333 1.366 . S
C1332 C1337 1.407 . S
C1333 C1332 1.366 . S
C1333 C1334 1.392 . S
C1333 H1356 0.930 . S
C1334 C1333 1.392 . S
C1334 C1335 1.398 . S
C1334 H1357 0.929 . S
C1335 C1334 1.398 . S
C1335 C1336 1.352 . S
C1336 C1335 1.352 . S
C1336 C1337 1.384 . S
C1336 H1358 0.930 . S
C1337 C1332 1.407 . S
C1337 C1336 1.384 . S
C1337 H1359 0.929 . S
C1338 O1348 1.241 . S
C1338 O1349 1.273 . S
C1339 O1350 1.251 . S
C1339 O1351 1.268 . S
O1340 Nd1320 2.500 . S
O1340 C1322 1.258 . S
O1341 Nd1320 2.492 . S
O1341 C1322 1.239 . S
O1342 Nd1320 2.487 . S
O1342 C1329 1.241 . S
O1343 Nd1320 2.682 . S
O1343 Nd1321 2.414 . S
O1343 C1329 1.273 . S
O1344 Nd1320 2.410 . S
O1344 C1330 1.251 . S
O1345 Nd1321 2.424 . S
O1345 C1330 1.268 . S
O1346 Nd1321 2.500 . S
O1346 C1331 1.258 . S
O1347 Nd1321 2.492 . S
O1347 C1331 1.239 . S
O1348 Nd1321 2.487 . S
O1348 C1338 1.241 . S
O1349 Nd1320 2.414 . S
O1349 Nd1321 2.682 . S
O1349 C1338 1.273 . S
O1350 Nd1321 2.410 . S
O1350 C1339 1.251 . S
O1351 Nd1320 2.424 . S
O1351 C1339 1.268 . S
H1352 C1324 0.930 . S
H1353 C1325 0.929 . S
H1354 C1327 0.930 . S
H1355 C1328 0.929 . S
H1356 C1333 0.930 . S
H1357 C1334 0.929 . S
H1358 C1336 0.930 . S
H1359 C1337 0.929 . S
Nd1360 C1362 2.836 . S
Nd1360 O1380 2.500 . S
Nd1360 O1381 2.492 . S
Nd1360 O1382 2.487 . S
Nd1360 O1383 2.682 . S
Nd1360 O1384 2.410 . S
Nd1360 O1389 2.414 . S
Nd1360 O1391 2.424 . S
Nd1361 C1371 2.836 . S
Nd1361 O1383 2.414 . S
Nd1361 O1385 2.424 . S
Nd1361 O1386 2.500 . S
Nd1361 O1387 2.492 . S
Nd1361 O1388 2.487 . S
Nd1361 O1389 2.682 . S
Nd1361 O1390 2.410 . S
C1362 Nd1360 2.836 . S
C1362 C1363 1.498 . S
C1362 O1380 1.258 . S
C1362 O1381 1.239 . S
C1363 C1362 1.498 . S
C1363 C1364 1.366 . S
C1363 C1368 1.407 . S
C1364 C1363 1.366 . S
C1364 C1365 1.392 1_554 S
C1364 H1392 0.930 . S
C1365 C1364 1.392 1_556 S
C1365 C1366 1.398 . S
C1365 H1393 0.929 . S
C1366 C1365 1.398 . S
C1366 C1367 1.352 . S
C1367 C1366 1.352 . S
C1367 C1368 1.384 1_556 S
C1367 H1394 0.930 . S
C1368 C1363 1.407 . S
C1368 C1367 1.384 1_554 S
C1368 H1395 0.929 . S
C1369 O1382 1.241 . S
C1369 O1383 1.273 . S
C1370 O1384 1.251 . S
C1370 O1385 1.268 . S
C1371 Nd1361 2.836 . S
C1371 C1372 1.498 . S
C1371 O1386 1.258 . S
C1371 O1387 1.239 . S
C1372 C1371 1.498 . S
C1372 C1373 1.366 . S
C1372 C1377 1.407 . S
C1373 C1372 1.366 . S
C1373 C1374 1.392 . S
C1373 H1396 0.930 . S
C1374 C1373 1.392 . S
C1374 C1375 1.398 . S
C1374 H1397 0.929 . S
C1375 C1374 1.398 . S
C1375 C1376 1.352 . S
C1376 C1375 1.352 . S
C1376 C1377 1.384 . S
C1376 H1398 0.930 . S
C1377 C1372 1.407 . S
C1377 C1376 1.384 . S
C1377 H1399 0.929 . S
C1378 O1388 1.241 . S
C1378 O1389 1.273 . S
C1379 O1390 1.251 . S
C1379 O1391 1.268 . S
O1380 Nd1360 2.500 . S
O1380 C1362 1.258 . S
O1381 Nd1360 2.492 . S
O1381 C1362 1.239 . S
O1382 Nd1360 2.487 . S
O1382 C1369 1.241 . S
O1383 Nd1360 2.682 . S
O1383 Nd1361 2.414 . S
O1383 C1369 1.273 . S
O1384 Nd1360 2.410 . S
O1384 C1370 1.251 . S
O1385 Nd1361 2.424 . S
O1385 C1370 1.268 . S
O1386 Nd1361 2.500 . S
O1386 C1371 1.258 . S
O1387 Nd1361 2.492 . S
O1387 C1371 1.239 . S
O1388 Nd1361 2.487 . S
O1388 C1378 1.241 . S
O1389 Nd1360 2.414 . S
O1389 Nd1361 2.682 . S
O1389 C1378 1.273 . S
O1390 Nd1361 2.410 . S
O1390 C1379 1.251 . S
O1391 Nd1360 2.424 . S
O1391 C1379 1.268 . S
H1392 C1364 0.930 . S
H1393 C1365 0.929 . S
H1394 C1367 0.930 . S
H1395 C1368 0.929 . S
H1396 C1373 0.930 . S
H1397 C1374 0.929 . S
H1398 C1376 0.930 . S
H1399 C1377 0.929 . S
Nd1400 C1402 2.836 . S
Nd1400 O1420 2.500 . S
Nd1400 O1421 2.492 . S
Nd1400 O1422 2.487 . S
Nd1400 O1423 2.682 . S
Nd1400 O1424 2.410 . S
Nd1400 O1429 2.414 . S
Nd1400 O1431 2.424 . S
Nd1401 C1411 2.836 . S
Nd1401 O1423 2.414 . S
Nd1401 O1425 2.424 . S
Nd1401 O1426 2.500 . S
Nd1401 O1427 2.492 . S
Nd1401 O1428 2.487 . S
Nd1401 O1429 2.682 . S
Nd1401 O1430 2.410 . S
C1402 Nd1400 2.836 . S
C1402 C1403 1.498 . S
C1402 O1420 1.258 . S
C1402 O1421 1.239 . S
C1403 C1402 1.498 . S
C1403 C1404 1.366 . S
C1403 C1408 1.407 . S
C1404 C1403 1.366 . S
C1404 C1405 1.392 1_554 S
C1404 H1432 0.930 . S
C1405 C1404 1.392 1_556 S
C1405 C1406 1.398 . S
C1405 H1433 0.929 . S
C1406 C1405 1.398 . S
C1406 C1407 1.352 . S
C1407 C1406 1.352 . S
C1407 C1408 1.384 1_556 S
C1407 H1434 0.930 . S
C1408 C1403 1.407 . S
C1408 C1407 1.384 1_554 S
C1408 H1435 0.929 . S
C1409 O1422 1.241 . S
C1409 O1423 1.273 . S
C1410 O1424 1.251 . S
C1410 O1425 1.268 . S
C1411 Nd1401 2.836 . S
C1411 C1412 1.498 . S
C1411 O1426 1.258 . S
C1411 O1427 1.239 . S
C1412 C1411 1.498 . S
C1412 C1413 1.366 . S
C1412 C1417 1.407 . S
C1413 C1412 1.366 . S
C1413 C1414 1.392 . S
C1413 H1436 0.930 . S
C1414 C1413 1.392 . S
C1414 C1415 1.398 . S
C1414 H1437 0.929 . S
C1415 C1414 1.398 . S
C1415 C1416 1.352 . S
C1416 C1415 1.352 . S
C1416 C1417 1.384 . S
C1416 H1438 0.930 . S
C1417 C1412 1.407 . S
C1417 C1416 1.384 . S
C1417 H1439 0.929 . S
C1418 O1428 1.241 . S
C1418 O1429 1.273 . S
C1419 O1430 1.251 . S
C1419 O1431 1.268 . S
O1420 Nd1400 2.500 . S
O1420 C1402 1.258 . S
O1421 Nd1400 2.492 . S
O1421 C1402 1.239 . S
O1422 Nd1400 2.487 . S
O1422 C1409 1.241 . S
O1423 Nd1400 2.682 . S
O1423 Nd1401 2.414 . S
O1423 C1409 1.273 . S
O1424 Nd1400 2.410 . S
O1424 C1410 1.251 . S
O1425 Nd1401 2.424 . S
O1425 C1410 1.268 . S
O1426 Nd1401 2.500 . S
O1426 C1411 1.258 . S
O1427 Nd1401 2.492 . S
O1427 C1411 1.239 . S
O1428 Nd1401 2.487 . S
O1428 C1418 1.241 . S
O1429 Nd1400 2.414 . S
O1429 Nd1401 2.682 . S
O1429 C1418 1.273 . S
O1430 Nd1401 2.410 . S
O1430 C1419 1.251 . S
O1431 Nd1400 2.424 . S
O1431 C1419 1.268 . S
H1432 C1404 0.930 . S
H1433 C1405 0.929 . S
H1434 C1407 0.930 . S
H1435 C1408 0.929 . S
H1436 C1413 0.930 . S
H1437 C1414 0.929 . S
H1438 C1416 0.930 . S
H1439 C1417 0.929 . S
C1440 C1441 1.391 . S
C1440 C1442 1.394 . S
C1440 H1456 0.931 . S
C1441 C1440 1.391 . S
C1441 C1445 1.376 1_556 S
C1442 C1440 1.394 . S
C1442 C1443 1.369 . S
C1442 C1446 1.531 . S
C1443 C1442 1.369 . S
C1443 C1444 1.410 1_556 S
C1443 C1451 1.503 . S
C1444 C1443 1.410 1_554 S
C1444 C1445 1.392 . S
C1444 C1447 1.511 . S
C1445 C1441 1.376 1_554 S
C1445 C1444 1.392 . S
C1445 H1457 0.929 . S
C1446 C1442 1.531 . S
C1446 H1458 0.960 . S
C1446 H1459 0.962 . S
C1446 H1460 0.960 . S
C1447 C1444 1.511 . S
C1447 H1461 0.961 . S
C1447 H1462 0.961 . S
C1447 H1463 0.961 . S
C1448 C1449 1.370 . S
C1448 C1450 1.363 . S
C1448 H1464 0.931 . S
C1449 C1448 1.370 . S
C1449 C1453 1.408 1_556 S
C1450 C1448 1.363 . S
C1450 C1451 1.370 . S
C1450 C1454 1.524 . S
C1451 C1443 1.503 . S
C1451 C1450 1.370 . S
C1451 C1452 1.403 1_556 S
C1452 C1451 1.403 1_554 S
C1452 C1453 1.404 . S
C1452 C1455 1.539 . S
C1453 C1449 1.408 1_554 S
C1453 C1452 1.404 . S
C1453 H1465 0.930 . S
C1454 C1450 1.524 . S
C1454 H1466 0.956 . S
C1454 H1467 0.961 . S
C1454 H1468 0.961 . S
C1455 C1452 1.539 . S
C1455 H1469 0.958 . S
C1455 H1470 0.961 . S
C1455 H1471 0.960 . S
H1456 C1440 0.931 . S
H1457 C1445 0.929 . S
H1458 C1446 0.960 . S
H1459 C1446 0.962 . S
H1460 C1446 0.960 . S
H1461 C1447 0.961 . S
H1462 C1447 0.961 . S
H1463 C1447 0.961 . S
H1464 C1448 0.931 . S
H1465 C1453 0.930 . S
H1466 C1454 0.956 . S
H1467 C1454 0.961 . S
H1468 C1454 0.961 . S
H1469 C1455 0.958 . S
H1470 C1455 0.961 . S
H1471 C1455 0.960 . S
C1472 C1473 1.391 . S
C1472 C1474 1.394 . S
C1472 H1488 0.931 . S
C1473 C1472 1.391 . S
C1473 C1477 1.376 1_556 S
C1474 C1472 1.394 . S
C1474 C1475 1.369 . S
C1474 C1478 1.531 . S
C1475 C1474 1.369 . S
C1475 C1476 1.410 1_556 S
C1475 C1483 1.503 . S
C1476 C1475 1.410 1_554 S
C1476 C1477 1.392 . S
C1476 C1479 1.511 . S
C1477 C1473 1.376 1_554 S
C1477 C1476 1.392 . S
C1477 H1489 0.929 . S
C1478 C1474 1.531 . S
C1478 H1490 0.960 . S
C1478 H1491 0.962 . S
C1478 H1492 0.960 . S
C1479 C1476 1.511 . S
C1479 H1493 0.961 . S
C1479 H1494 0.961 . S
C1479 H1495 0.961 . S
C1480 C1481 1.370 1_554 S
C1480 C1482 1.363 . S
C1480 H1496 0.931 . S
C1481 C1480 1.370 1_556 S
C1481 C1485 1.408 . S
C1482 C1480 1.363 . S
C1482 C1483 1.370 1_554 S
C1482 C1486 1.524 . S
C1483 C1475 1.503 . S
C1483 C1482 1.370 1_556 S
C1483 C1484 1.403 . S
C1484 C1483 1.403 . S
C1484 C1485 1.404 . S
C1484 C1487 1.539 . S
C1485 C1481 1.408 . S
C1485 C1484 1.404 . S
C1485 H1497 0.930 . S
C1486 C1482 1.524 . S
C1486 H1498 0.956 . S
C1486 H1499 0.961 . S
C1486 H1500 0.961 . S
C1487 C1484 1.539 . S
C1487 H1501 0.958 . S
C1487 H1502 0.961 . S
C1487 H1503 0.960 . S
H1488 C1472 0.931 . S
H1489 C1477 0.929 . S
H1490 C1478 0.960 . S
H1491 C1478 0.962 . S
H1492 C1478 0.960 . S
H1493 C1479 0.961 . S
H1494 C1479 0.961 . S
H1495 C1479 0.961 . S
H1496 C1480 0.931 . S
H1497 C1485 0.930 . S
H1498 C1486 0.956 . S
H1499 C1486 0.961 . S
H1500 C1486 0.961 . S
H1501 C1487 0.958 . S
H1502 C1487 0.961 . S
H1503 C1487 0.960 . S
C1504 C1505 1.391 . S
C1504 C1506 1.394 . S
C1504 H1520 0.931 . S
C1505 C1504 1.391 . S
C1505 C1509 1.376 1_556 S
C1506 C1504 1.394 . S
C1506 C1507 1.369 . S
C1506 C1510 1.531 . S
C1507 C1506 1.369 . S
C1507 C1508 1.410 1_556 S
C1507 C1515 1.503 . S
C1508 C1507 1.410 1_554 S
C1508 C1509 1.392 . S
C1508 C1511 1.511 . S
C1509 C1505 1.376 1_554 S
C1509 C1508 1.392 . S
C1509 H1521 0.929 . S
C1510 C1506 1.531 . S
C1510 H1522 0.960 . S
C1510 H1523 0.962 . S
C1510 H1524 0.960 . S
C1511 C1508 1.511 . S
C1511 H1525 0.961 . S
C1511 H1526 0.961 . S
C1511 H1527 0.961 . S
C1512 C1513 1.370 . S
C1512 C1514 1.363 . S
C1512 H1528 0.931 1_556 S
C1513 C1512 1.370 . S
C1513 C1517 1.408 . S
C1514 C1512 1.363 . S
C1514 C1515 1.370 . S
C1514 C1518 1.524 1_556 S
C1515 C1507 1.503 . S
C1515 C1514 1.370 . S
C1515 C1516 1.403 . S
C1516 C1515 1.403 . S
C1516 C1517 1.404 . S
C1516 C1519 1.539 . S
C1517 C1513 1.408 . S
C1517 C1516 1.404 . S
C1517 H1529 0.930 . S
C1518 C1514 1.524 1_554 S
C1518 H1530 0.956 1_554 S
C1518 H1531 0.961 . S
C1518 H1532 0.961 . S
C1519 C1516 1.539 . S
C1519 H1533 0.958 . S
C1519 H1534 0.961 . S
C1519 H1535 0.960 . S
H1520 C1504 0.931 . S
H1521 C1509 0.929 . S
H1522 C1510 0.960 . S
H1523 C1510 0.962 . S
H1524 C1510 0.960 . S
H1525 C1511 0.961 . S
H1526 C1511 0.961 . S
H1527 C1511 0.961 . S
H1528 C1512 0.931 1_554 S
H1529 C1517 0.930 . S
H1530 C1518 0.956 1_556 S
H1531 C1518 0.961 . S
H1532 C1518 0.961 . S
H1533 C1519 0.958 . S
H1534 C1519 0.961 . S
H1535 C1519 0.960 . S
C1536 C1537 1.391 . S
C1536 C1538 1.394 . S
C1536 H1552 0.931 . S
C1537 C1536 1.391 . S
C1537 C1541 1.376 . S
C1538 C1536 1.394 . S
C1538 C1539 1.369 . S
C1538 C1542 1.531 . S
C1539 C1538 1.369 . S
C1539 C1540 1.410 . S
C1539 C1547 1.503 . S
C1540 C1539 1.410 . S
C1540 C1541 1.392 . S
C1540 C1543 1.511 . S
C1541 C1537 1.376 . S
C1541 C1540 1.392 . S
C1541 H1553 0.929 . S
C1542 C1538 1.531 . S
C1542 H1554 0.960 . S
C1542 H1555 0.962 . S
C1542 H1556 0.960 . S
C1543 C1540 1.511 . S
C1543 H1557 0.961 . S
C1543 H1558 0.961 . S
C1543 H1559 0.961 . S
C1544 C1545 1.370 . S
C1544 C1546 1.363 . S
C1544 H1560 0.931 . S
C1545 C1544 1.370 . S
C1545 C1549 1.408 . S
C1546 C1544 1.363 . S
C1546 C1547 1.370 . S
C1546 C1550 1.524 . S
C1547 C1539 1.503 . S
C1547 C1546 1.370 . S
C1547 C1548 1.403 . S
C1548 C1547 1.403 . S
C1548 C1549 1.404 . S
C1548 C1551 1.539 . S
C1549 C1545 1.408 . S
C1549 C1548 1.404 . S
C1549 H1561 0.930 . S
C1550 C1546 1.524 . S
C1550 H1562 0.956 . S
C1550 H1563 0.961 . S
C1550 H1564 0.961 . S
C1551 C1548 1.539 . S
C1551 H1565 0.958 . S
C1551 H1566 0.961 . S
C1551 H1567 0.960 . S
H1552 C1536 0.931 . S
H1553 C1541 0.929 . S
H1554 C1542 0.960 . S
H1555 C1542 0.962 . S
H1556 C1542 0.960 . S
H1557 C1543 0.961 . S
H1558 C1543 0.961 . S
H1559 C1543 0.961 . S
H1560 C1544 0.931 . S
H1561 C1549 0.930 . S
H1562 C1550 0.956 . S
H1563 C1550 0.961 . S
H1564 C1550 0.961 . S
H1565 C1551 0.958 . S
H1566 C1551 0.961 . S
H1567 C1551 0.960 . S
C1568 C1569 1.391 . S
C1568 C1570 1.394 . S
C1568 H1584 0.931 . S
C1569 C1568 1.391 . S
C1569 C1573 1.376 . S
C1570 C1568 1.394 . S
C1570 C1571 1.369 . S
C1570 C1574 1.531 . S
C1571 C1570 1.369 . S
C1571 C1572 1.410 . S
C1571 C1579 1.503 . S
C1572 C1571 1.410 . S
C1572 C1573 1.392 . S
C1572 C1575 1.511 . S
C1573 C1569 1.376 . S
C1573 C1572 1.392 . S
C1573 H1585 0.929 . S
C1574 C1570 1.531 . S
C1574 H1586 0.960 . S
C1574 H1587 0.962 . S
C1574 H1588 0.960 . S
C1575 C1572 1.511 . S
C1575 H1589 0.961 . S
C1575 H1590 0.961 . S
C1575 H1591 0.961 . S
C1576 C1577 1.370 . S
C1576 C1578 1.363 . S
C1576 H1592 0.931 . S
C1577 C1576 1.370 . S
C1577 C1581 1.408 . S
C1578 C1576 1.363 . S
C1578 C1579 1.370 . S
C1578 C1582 1.524 . S
C1579 C1571 1.503 . S
C1579 C1578 1.370 . S
C1579 C1580 1.403 . S
C1580 C1579 1.403 . S
C1580 C1581 1.404 . S
C1580 C1583 1.539 . S
C1581 C1577 1.408 . S
C1581 C1580 1.404 . S
C1581 H1593 0.930 . S
C1582 C1578 1.524 . S
C1582 H1594 0.956 . S
C1582 H1595 0.961 . S
C1582 H1596 0.961 . S
C1583 C1580 1.539 . S
C1583 H1597 0.958 . S
C1583 H1598 0.961 . S
C1583 H1599 0.960 . S
H1584 C1568 0.931 . S
H1585 C1573 0.929 . S
H1586 C1574 0.960 . S
H1587 C1574 0.962 . S
H1588 C1574 0.960 . S
H1589 C1575 0.961 . S
H1590 C1575 0.961 . S
H1591 C1575 0.961 . S
H1592 C1576 0.931 . S
H1593 C1581 0.930 . S
H1594 C1582 0.956 . S
H1595 C1582 0.961 . S
H1596 C1582 0.961 . S
H1597 C1583 0.958 . S
H1598 C1583 0.961 . S
H1599 C1583 0.960 . S
C1600 C1601 1.391 . S
C1600 C1602 1.394 . S
C1600 H1616 0.931 . S
C1601 C1600 1.391 . S
C1601 C1605 1.376 . S
C1602 C1600 1.394 . S
C1602 C1603 1.369 . S
C1602 C1606 1.531 . S
C1603 C1602 1.369 . S
C1603 C1604 1.410 . S
C1603 C1611 1.503 . S
C1604 C1603 1.410 . S
C1604 C1605 1.392 . S
C1604 C1607 1.511 . S
C1605 C1601 1.376 . S
C1605 C1604 1.392 . S
C1605 H1617 0.929 . S
C1606 C1602 1.531 . S
C1606 H1618 0.960 . S
C1606 H1619 0.962 . S
C1606 H1620 0.960 . S
C1607 C1604 1.511 . S
C1607 H1621 0.961 . S
C1607 H1622 0.961 . S
C1607 H1623 0.961 . S
C1608 C1609 1.370 . S
C1608 C1610 1.363 . S
C1608 H1624 0.931 . S
C1609 C1608 1.370 . S
C1609 C1613 1.408 . S
C1610 C1608 1.363 . S
C1610 C1611 1.370 . S
C1610 C1614 1.524 . S
C1611 C1603 1.503 . S
C1611 C1610 1.370 . S
C1611 C1612 1.403 . S
C1612 C1611 1.403 . S
C1612 C1613 1.404 . S
C1612 C1615 1.539 . S
C1613 C1609 1.408 . S
C1613 C1612 1.404 . S
C1613 H1625 0.930 . S
C1614 C1610 1.524 . S
C1614 H1626 0.956 . S
C1614 H1627 0.961 . S
C1614 H1628 0.961 . S
C1615 C1612 1.539 . S
C1615 H1629 0.958 . S
C1615 H1630 0.961 . S
C1615 H1631 0.960 . S
H1616 C1600 0.931 . S
H1617 C1605 0.929 . S
H1618 C1606 0.960 . S
H1619 C1606 0.962 . S
H1620 C1606 0.960 . S
H1621 C1607 0.961 . S
H1622 C1607 0.961 . S
H1623 C1607 0.961 . S
H1624 C1608 0.931 . S
H1625 C1613 0.930 . S
H1626 C1614 0.956 . S
H1627 C1614 0.961 . S
H1628 C1614 0.961 . S
H1629 C1615 0.958 . S
H1630 C1615 0.961 . S
H1631 C1615 0.960 . S
C1632 C1633 1.391 . S
C1632 C1634 1.394 . S
C1632 H1648 0.931 . S
C1633 C1632 1.391 . S
C1633 C1637 1.376 . S
C1634 C1632 1.394 . S
C1634 C1635 1.369 . S
C1634 C1638 1.531 . S
C1635 C1634 1.369 . S
C1635 C1636 1.410 . S
C1635 C1643 1.503 . S
C1636 C1635 1.410 . S
C1636 C1637 1.392 . S
C1636 C1639 1.511 . S
C1637 C1633 1.376 . S
C1637 C1636 1.392 . S
C1637 H1649 0.929 . S
C1638 C1634 1.531 . S
C1638 H1650 0.960 . S
C1638 H1651 0.962 . S
C1638 H1652 0.960 . S
C1639 C1636 1.511 . S
C1639 H1653 0.961 . S
C1639 H1654 0.961 . S
C1639 H1655 0.961 . S
C1640 C1641 1.370 . S
C1640 C1642 1.363 . S
C1640 H1656 0.931 . S
C1641 C1640 1.370 . S
C1641 C1645 1.408 . S
C1642 C1640 1.363 . S
C1642 C1643 1.370 . S
C1642 C1646 1.524 . S
C1643 C1635 1.503 . S
C1643 C1642 1.370 . S
C1643 C1644 1.403 . S
C1644 C1643 1.403 . S
C1644 C1645 1.404 . S
C1644 C1647 1.539 . S
C1645 C1641 1.408 . S
C1645 C1644 1.404 . S
C1645 H1657 0.930 . S
C1646 C1642 1.524 . S
C1646 H1658 0.956 . S
C1646 H1659 0.961 . S
C1646 H1660 0.961 . S
C1647 C1644 1.539 . S
C1647 H1661 0.958 . S
C1647 H1662 0.961 . S
C1647 H1663 0.960 . S
H1648 C1632 0.931 . S
H1649 C1637 0.929 . S
H1650 C1638 0.960 . S
H1651 C1638 0.962 . S
H1652 C1638 0.960 . S
H1653 C1639 0.961 . S
H1654 C1639 0.961 . S
H1655 C1639 0.961 . S
H1656 C1640 0.931 . S
H1657 C1645 0.930 . S
H1658 C1646 0.956 . S
H1659 C1646 0.961 . S
H1660 C1646 0.961 . S
H1661 C1647 0.958 . S
H1662 C1647 0.961 . S
H1663 C1647 0.960 . S
C1664 C1665 1.391 . S
C1664 C1666 1.394 . S
C1664 H1680 0.931 . S
C1665 C1664 1.391 . S
C1665 C1669 1.376 . S
C1666 C1664 1.394 . S
C1666 C1667 1.369 . S
C1666 C1670 1.531 . S
C1667 C1666 1.369 . S
C1667 C1668 1.410 . S
C1667 C1675 1.503 . S
C1668 C1667 1.410 . S
C1668 C1669 1.392 . S
C1668 C1671 1.511 . S
C1669 C1665 1.376 . S
C1669 C1668 1.392 . S
C1669 H1681 0.929 . S
C1670 C1666 1.531 . S
C1670 H1682 0.960 . S
C1670 H1683 0.962 . S
C1670 H1684 0.960 . S
C1671 C1668 1.511 . S
C1671 H1685 0.961 . S
C1671 H1686 0.961 . S
C1671 H1687 0.961 . S
C1672 C1673 1.370 . S
C1672 C1674 1.363 . S
C1672 H1688 0.931 . S
C1673 C1672 1.370 . S
C1673 C1677 1.408 . S
C1674 C1672 1.363 . S
C1674 C1675 1.370 . S
C1674 C1678 1.524 . S
C1675 C1667 1.503 . S
C1675 C1674 1.370 . S
C1675 C1676 1.403 . S
C1676 C1675 1.403 . S
C1676 C1677 1.404 . S
C1676 C1679 1.539 . S
C1677 C1673 1.408 . S
C1677 C1676 1.404 . S
C1677 H1689 0.930 . S
C1678 C1674 1.524 . S
C1678 H1690 0.956 . S
C1678 H1691 0.961 . S
C1678 H1692 0.961 . S
C1679 C1676 1.539 . S
C1679 H1693 0.958 . S
C1679 H1694 0.961 . S
C1679 H1695 0.960 . S
H1680 C1664 0.931 . S
H1681 C1669 0.929 . S
H1682 C1670 0.960 . S
H1683 C1670 0.962 . S
H1684 C1670 0.960 . S
H1685 C1671 0.961 . S
H1686 C1671 0.961 . S
H1687 C1671 0.961 . S
H1688 C1672 0.931 . S
H1689 C1677 0.930 . S
H1690 C1678 0.956 . S
H1691 C1678 0.961 . S
H1692 C1678 0.961 . S
H1693 C1679 0.958 . S
H1694 C1679 0.961 . S
H1695 C1679 0.960 . S
C1696 C1697 1.391 . S
C1696 C1698 1.394 . S
C1696 H1712 0.931 . S
C1697 C1696 1.391 . S
C1697 C1701 1.376 . S
C1698 C1696 1.394 . S
C1698 C1699 1.369 . S
C1698 C1702 1.531 . S
C1699 C1698 1.369 . S
C1699 C1700 1.410 . S
C1699 C1707 1.503 . S
C1700 C1699 1.410 . S
C1700 C1701 1.392 . S
C1700 C1703 1.511 . S
C1701 C1697 1.376 . S
C1701 C1700 1.392 . S
C1701 H1713 0.929 . S
C1702 C1698 1.531 . S
C1702 H1714 0.960 . S
C1702 H1715 0.962 . S
C1702 H1716 0.960 . S
C1703 C1700 1.511 . S
C1703 H1717 0.961 . S
C1703 H1718 0.961 . S
C1703 H1719 0.961 . S
C1704 C1705 1.370 . S
C1704 C1706 1.363 . S
C1704 H1720 0.931 . S
C1705 C1704 1.370 . S
C1705 C1709 1.408 . S
C1706 C1704 1.363 . S
C1706 C1707 1.370 . S
C1706 C1710 1.524 . S
C1707 C1699 1.503 . S
C1707 C1706 1.370 . S
C1707 C1708 1.403 . S
C1708 C1707 1.403 . S
C1708 C1709 1.404 . S
C1708 C1711 1.539 . S
C1709 C1705 1.408 . S
C1709 C1708 1.404 . S
C1709 H1721 0.930 . S
C1710 C1706 1.524 . S
C1710 H1722 0.956 . S
C1710 H1723 0.961 . S
C1710 H1724 0.961 . S
C1711 C1708 1.539 . S
C1711 H1725 0.958 . S
C1711 H1726 0.961 . S
C1711 H1727 0.960 . S
H1712 C1696 0.931 . S
H1713 C1701 0.929 . S
H1714 C1702 0.960 . S
H1715 C1702 0.962 . S
H1716 C1702 0.960 . S
H1717 C1703 0.961 . S
H1718 C1703 0.961 . S
H1719 C1703 0.961 . S
H1720 C1704 0.931 . S
H1721 C1709 0.930 . S
H1722 C1710 0.956 . S
H1723 C1710 0.961 . S
H1724 C1710 0.961 . S
H1725 C1711 0.958 . S
H1726 C1711 0.961 . S
H1727 C1711 0.960 . S
C1728 C1729 1.391 . S
C1728 C1730 1.394 . S
C1728 H1744 0.931 . S
C1729 C1728 1.391 . S
C1729 C1733 1.376 . S
C1730 C1728 1.394 . S
C1730 C1731 1.369 . S
C1730 C1734 1.531 . S
C1731 C1730 1.369 . S
C1731 C1732 1.410 . S
C1731 C1739 1.503 . S
C1732 C1731 1.410 . S
C1732 C1733 1.392 . S
C1732 C1735 1.511 . S
C1733 C1729 1.376 . S
C1733 C1732 1.392 . S
C1733 H1745 0.929 . S
C1734 C1730 1.531 . S
C1734 H1746 0.960 . S
C1734 H1747 0.962 . S
C1734 H1748 0.960 . S
C1735 C1732 1.511 . S
C1735 H1749 0.961 . S
C1735 H1750 0.961 . S
C1735 H1751 0.961 . S
C1736 C1737 1.370 . S
C1736 C1738 1.363 . S
C1736 H1752 0.931 . S
C1737 C1736 1.370 . S
C1737 C1741 1.408 . S
C1738 C1736 1.363 . S
C1738 C1739 1.370 . S
C1738 C1742 1.524 . S
C1739 C1731 1.503 . S
C1739 C1738 1.370 . S
C1739 C1740 1.403 . S
C1740 C1739 1.403 . S
C1740 C1741 1.404 . S
C1740 C1743 1.539 . S
C1741 C1737 1.408 . S
C1741 C1740 1.404 . S
C1741 H1753 0.930 . S
C1742 C1738 1.524 . S
C1742 H1754 0.956 . S
C1742 H1755 0.961 . S
C1742 H1756 0.961 . S
C1743 C1740 1.539 . S
C1743 H1757 0.958 . S
C1743 H1758 0.961 . S
C1743 H1759 0.960 . S
H1744 C1728 0.931 . S
H1745 C1733 0.929 . S
H1746 C1734 0.960 . S
H1747 C1734 0.962 . S
H1748 C1734 0.960 . S
H1749 C1735 0.961 . S
H1750 C1735 0.961 . S
H1751 C1735 0.961 . S
H1752 C1736 0.931 . S
H1753 C1741 0.930 . S
H1754 C1742 0.956 . S
H1755 C1742 0.961 . S
H1756 C1742 0.961 . S
H1757 C1743 0.958 . S
H1758 C1743 0.961 . S
H1759 C1743 0.960 . S
C1760 C1761 1.391 . S
C1760 C1762 1.394 . S
C1760 H1776 0.931 . S
C1761 C1760 1.391 . S
C1761 C1765 1.376 . S
C1762 C1760 1.394 . S
C1762 C1763 1.369 . S
C1762 C1766 1.531 . S
C1763 C1762 1.369 . S
C1763 C1764 1.410 . S
C1763 C1771 1.503 . S
C1764 C1763 1.410 . S
C1764 C1765 1.392 . S
C1764 C1767 1.511 . S
C1765 C1761 1.376 . S
C1765 C1764 1.392 . S
C1765 H1777 0.929 . S
C1766 C1762 1.531 . S
C1766 H1778 0.960 . S
C1766 H1779 0.962 . S
C1766 H1780 0.960 . S
C1767 C1764 1.511 . S
C1767 H1781 0.961 . S
C1767 H1782 0.961 . S
C1767 H1783 0.961 . S
C1768 C1769 1.370 . S
C1768 C1770 1.363 . S
C1768 H1784 0.931 . S
C1769 C1768 1.370 . S
C1769 C1773 1.408 . S
C1770 C1768 1.363 . S
C1770 C1771 1.370 . S
C1770 C1774 1.524 . S
C1771 C1763 1.503 . S
C1771 C1770 1.370 . S
C1771 C1772 1.403 . S
C1772 C1771 1.403 . S
C1772 C1773 1.404 . S
C1772 C1775 1.539 . S
C1773 C1769 1.408 . S
C1773 C1772 1.404 . S
C1773 H1785 0.930 . S
C1774 C1770 1.524 . S
C1774 H1786 0.956 . S
C1774 H1787 0.961 . S
C1774 H1788 0.961 . S
C1775 C1772 1.539 . S
C1775 H1789 0.958 . S
C1775 H1790 0.961 . S
C1775 H1791 0.960 . S
H1776 C1760 0.931 . S
H1777 C1765 0.929 . S
H1778 C1766 0.960 . S
H1779 C1766 0.962 . S
H1780 C1766 0.960 . S
H1781 C1767 0.961 . S
H1782 C1767 0.961 . S
H1783 C1767 0.961 . S
H1784 C1768 0.931 . S
H1785 C1773 0.930 . S
H1786 C1774 0.956 . S
H1787 C1774 0.961 . S
H1788 C1774 0.961 . S
H1789 C1775 0.958 . S
H1790 C1775 0.961 . S
H1791 C1775 0.960 . S
C1792 C1793 1.391 . S
C1792 C1794 1.394 . S
C1792 H1808 0.931 . S
C1793 C1792 1.391 . S
C1793 C1797 1.376 . S
C1794 C1792 1.394 . S
C1794 C1795 1.369 . S
C1794 C1798 1.531 . S
C1795 C1794 1.369 . S
C1795 C1796 1.410 . S
C1795 C1803 1.503 . S
C1796 C1795 1.410 . S
C1796 C1797 1.392 . S
C1796 C1799 1.511 . S
C1797 C1793 1.376 . S
C1797 C1796 1.392 . S
C1797 H1809 0.929 . S
C1798 C1794 1.531 . S
C1798 H1810 0.960 . S
C1798 H1811 0.962 . S
C1798 H1812 0.960 . S
C1799 C1796 1.511 . S
C1799 H1813 0.961 . S
C1799 H1814 0.961 . S
C1799 H1815 0.961 . S
C1800 C1801 1.370 . S
C1800 C1802 1.363 . S
C1800 H1816 0.931 . S
C1801 C1800 1.370 . S
C1801 C1805 1.408 . S
C1802 C1800 1.363 . S
C1802 C1803 1.370 . S
C1802 C1806 1.524 . S
C1803 C1795 1.503 . S
C1803 C1802 1.370 . S
C1803 C1804 1.403 . S
C1804 C1803 1.403 . S
C1804 C1805 1.404 . S
C1804 C1807 1.539 . S
C1805 C1801 1.408 . S
C1805 C1804 1.404 . S
C1805 H1817 0.930 . S
C1806 C1802 1.524 . S
C1806 H1818 0.956 . S
C1806 H1819 0.961 . S
C1806 H1820 0.961 . S
C1807 C1804 1.539 . S
C1807 H1821 0.958 . S
C1807 H1822 0.961 . S
C1807 H1823 0.960 . S
H1808 C1792 0.931 . S
H1809 C1797 0.929 . S
H1810 C1798 0.960 . S
H1811 C1798 0.962 . S
H1812 C1798 0.960 . S
H1813 C1799 0.961 . S
H1814 C1799 0.961 . S
H1815 C1799 0.961 . S
H1816 C1800 0.931 . S
H1817 C1805 0.930 . S
H1818 C1806 0.956 . S
H1819 C1806 0.961 . S
H1820 C1806 0.961 . S
H1821 C1807 0.958 . S
H1822 C1807 0.961 . S
H1823 C1807 0.960 . S
C1824 C1825 1.391 . S
C1824 C1826 1.394 . S
C1824 H1840 0.931 . S
C1825 C1824 1.391 . S
C1825 C1829 1.376 . S
C1826 C1824 1.394 . S
C1826 C1827 1.369 . S
C1826 C1830 1.531 . S
C1827 C1826 1.369 . S
C1827 C1828 1.410 . S
C1827 C1835 1.503 . S
C1828 C1827 1.410 . S
C1828 C1829 1.392 . S
C1828 C1831 1.511 . S
C1829 C1825 1.376 . S
C1829 C1828 1.392 . S
C1829 H1841 0.929 . S
C1830 C1826 1.531 . S
C1830 H1842 0.960 . S
C1830 H1843 0.962 . S
C1830 H1844 0.960 . S
C1831 C1828 1.511 . S
C1831 H1845 0.961 . S
C1831 H1846 0.961 . S
C1831 H1847 0.961 . S
C1832 C1833 1.370 . S
C1832 C1834 1.363 . S
C1832 H1848 0.931 . S
C1833 C1832 1.370 . S
C1833 C1837 1.408 . S
C1834 C1832 1.363 . S
C1834 C1835 1.370 . S
C1834 C1838 1.524 . S
C1835 C1827 1.503 . S
C1835 C1834 1.370 . S
C1835 C1836 1.403 . S
C1836 C1835 1.403 . S
C1836 C1837 1.404 . S
C1836 C1839 1.539 . S
C1837 C1833 1.408 . S
C1837 C1836 1.404 . S
C1837 H1849 0.930 . S
C1838 C1834 1.524 . S
C1838 H1850 0.956 . S
C1838 H1851 0.961 . S
C1838 H1852 0.961 . S
C1839 C1836 1.539 . S
C1839 H1853 0.958 . S
C1839 H1854 0.961 . S
C1839 H1855 0.960 . S
H1840 C1824 0.931 . S
H1841 C1829 0.929 . S
H1842 C1830 0.960 . S
H1843 C1830 0.962 . S
H1844 C1830 0.960 . S
H1845 C1831 0.961 . S
H1846 C1831 0.961 . S
H1847 C1831 0.961 . S
H1848 C1832 0.931 . S
H1849 C1837 0.930 . S
H1850 C1838 0.956 . S
H1851 C1838 0.961 . S
H1852 C1838 0.961 . S
H1853 C1839 0.958 . S
H1854 C1839 0.961 . S
H1855 C1839 0.960 . S
C1856 C1857 1.391 . S
C1856 C1858 1.394 . S
C1856 H1872 0.931 . S
C1857 C1856 1.391 . S
C1857 C1861 1.376 . S
C1858 C1856 1.394 . S
C1858 C1859 1.369 . S
C1858 C1862 1.531 . S
C1859 C1858 1.369 . S
C1859 C1860 1.410 . S
C1859 C1867 1.503 1_565 S
C1860 C1859 1.410 . S
C1860 C1861 1.392 . S
C1860 C1863 1.511 . S
C1861 C1857 1.376 . S
C1861 C1860 1.392 . S
C1861 H1873 0.929 . S
C1862 C1858 1.531 . S
C1862 H1874 0.960 1_565 S
C1862 H1875 0.962 . S
C1862 H1876 0.960 . S
C1863 C1860 1.511 . S
C1863 H1877 0.961 . S
C1863 H1878 0.961 1_565 S
C1863 H1879 0.961 . S
C1864 C1865 1.370 . S
C1864 C1866 1.363 . S
C1864 H1880 0.931 . S
C1865 C1864 1.370 . S
C1865 C1869 1.408 . S
C1866 C1864 1.363 . S
C1866 C1867 1.370 . S
C1866 C1870 1.524 . S
C1867 C1859 1.503 1_545 S
C1867 C1866 1.370 . S
C1867 C1868 1.403 . S
C1868 C1867 1.403 . S
C1868 C1869 1.404 . S
C1868 C1871 1.539 . S
C1869 C1865 1.408 . S
C1869 C1868 1.404 . S
C1869 H1881 0.930 . S
C1870 C1866 1.524 . S
C1870 H1882 0.956 . S
C1870 H1883 0.962 1_545 S
C1870 H1884 0.961 . S
C1871 C1868 1.539 . S
C1871 H1885 0.958 . S
C1871 H1886 0.961 . S
C1871 H1887 0.960 1_545 S
H1872 C1856 0.931 . S
H1873 C1861 0.929 . S
H1874 C1862 0.960 1_545 S
H1875 C1862 0.962 . S
H1876 C1862 0.960 . S
H1877 C1863 0.961 . S
H1878 C1863 0.961 1_545 S
H1879 C1863 0.961 . S
H1880 C1864 0.931 . S
H1881 C1869 0.930 . S
H1882 C1870 0.956 . S
H1883 C1870 0.962 1_565 S
H1884 C1870 0.961 . S
H1885 C1871 0.958 . S
H1886 C1871 0.961 . S
H1887 C1871 0.960 1_565 S
C1888 C1889 1.391 . S
C1888 C1890 1.394 . S
C1888 H1904 0.931 . S
C1889 C1888 1.391 . S
C1889 C1893 1.376 . S
C1890 C1888 1.394 . S
C1890 C1891 1.369 . S
C1890 C1894 1.531 . S
C1891 C1890 1.369 . S
C1891 C1892 1.410 . S
C1891 C1899 1.503 1_655 S
C1892 C1891 1.410 . S
C1892 C1893 1.392 . S
C1892 C1895 1.511 . S
C1893 C1889 1.376 . S
C1893 C1892 1.392 . S
C1893 H1905 0.929 . S
C1894 C1890 1.531 . S
C1894 H1906 0.960 1_655 S
C1894 H1907 0.962 . S
C1894 H1908 0.960 . S
C1895 C1892 1.511 . S
C1895 H1909 0.961 . S
C1895 H1910 0.961 1_655 S
C1895 H1911 0.961 . S
C1896 C1897 1.370 . S
C1896 C1898 1.363 . S
C1896 H1912 0.931 . S
C1897 C1896 1.370 . S
C1897 C1901 1.408 . S
C1898 C1896 1.363 . S
C1898 C1899 1.370 . S
C1898 C1902 1.524 . S
C1899 C1891 1.503 1_455 S
C1899 C1898 1.370 . S
C1899 C1900 1.403 . S
C1900 C1899 1.403 . S
C1900 C1901 1.404 . S
C1900 C1903 1.539 . S
C1901 C1897 1.408 . S
C1901 C1900 1.404 . S
C1901 H1913 0.930 . S
C1902 C1898 1.524 . S
C1902 H1914 0.956 . S
C1902 H1915 0.961 1_455 S
C1902 H1916 0.961 . S
C1903 C1900 1.539 . S
C1903 H1917 0.958 . S
C1903 H1918 0.961 . S
C1903 H1919 0.960 1_455 S
H1904 C1888 0.931 . S
H1905 C1893 0.929 . S
H1906 C1894 0.960 1_455 S
H1907 C1894 0.962 . S
H1908 C1894 0.960 . S
H1909 C1895 0.961 . S
H1910 C1895 0.961 1_455 S
H1911 C1895 0.961 . S
H1912 C1896 0.931 . S
H1913 C1901 0.930 . S
H1914 C1902 0.956 . S
H1915 C1902 0.961 1_655 S
H1916 C1902 0.961 . S
H1917 C1903 0.958 . S
H1918 C1903 0.961 . S
H1919 C1903 0.960 1_655 S
C1920 C1921 1.391 . S
C1920 C1922 1.394 . S
C1920 H1936 0.931 . S
C1921 C1920 1.391 . S
C1921 C1925 1.376 . S
C1922 C1920 1.394 . S
C1922 C1923 1.369 . S
C1922 C1926 1.531 . S
C1923 C1922 1.369 . S
C1923 C1924 1.410 . S
C1923 C1931 1.503 . S
C1924 C1923 1.410 . S
C1924 C1925 1.392 . S
C1924 C1927 1.511 . S
C1925 C1921 1.376 . S
C1925 C1924 1.392 . S
C1925 H1937 0.929 . S
C1926 C1922 1.531 . S
C1926 H1938 0.960 . S
C1926 H1939 0.962 . S
C1926 H1940 0.960 . S
C1927 C1924 1.511 . S
C1927 H1941 0.961 . S
C1927 H1942 0.961 . S
C1927 H1943 0.961 . S
C1928 C1929 1.370 . S
C1928 C1930 1.363 . S
C1928 H1944 0.931 . S
C1929 C1928 1.370 . S
C1929 C1933 1.408 . S
C1930 C1928 1.363 . S
C1930 C1931 1.370 . S
C1930 C1934 1.524 . S
C1931 C1923 1.503 . S
C1931 C1930 1.370 . S
C1931 C1932 1.403 . S
C1932 C1931 1.403 . S
C1932 C1933 1.404 . S
C1932 C1935 1.539 . S
C1933 C1929 1.408 . S
C1933 C1932 1.404 . S
C1933 H1945 0.930 . S
C1934 C1930 1.524 . S
C1934 H1946 0.956 . S
C1934 H1947 0.961 . S
C1934 H1948 0.961 . S
C1935 C1932 1.539 . S
C1935 H1949 0.958 . S
C1935 H1950 0.961 . S
C1935 H1951 0.960 . S
H1936 C1920 0.931 . S
H1937 C1925 0.929 . S
H1938 C1926 0.960 . S
H1939 C1926 0.962 . S
H1940 C1926 0.960 . S
H1941 C1927 0.961 . S
H1942 C1927 0.961 . S
H1943 C1927 0.961 . S
H1944 C1928 0.931 . S
H1945 C1933 0.930 . S
H1946 C1934 0.956 . S
H1947 C1934 0.961 . S
H1948 C1934 0.961 . S
H1949 C1935 0.958 . S
H1950 C1935 0.961 . S
H1951 C1935 0.960 . S
C1952 C1953 1.391 . S
C1952 C1954 1.394 . S
C1952 H1968 0.931 . S
C1953 C1952 1.391 . S
C1953 C1957 1.376 . S
C1954 C1952 1.394 . S
C1954 C1955 1.369 . S
C1954 C1958 1.531 . S
C1955 C1954 1.369 . S
C1955 C1956 1.410 . S
C1955 C1963 1.503 1_545 S
C1956 C1955 1.410 . S
C1956 C1957 1.392 . S
C1956 C1959 1.511 . S
C1957 C1953 1.376 . S
C1957 C1956 1.392 . S
C1957 H1969 0.929 . S
C1958 C1954 1.531 . S
C1958 H1970 0.960 1_545 S
C1958 H1971 0.962 . S
C1958 H1972 0.960 . S
C1959 C1956 1.511 . S
C1959 H1973 0.961 . S
C1959 H1974 0.961 1_545 S
C1959 H1975 0.961 . S
C1960 C1961 1.370 . S
C1960 C1962 1.363 . S
C1960 H1976 0.931 . S
C1961 C1960 1.370 . S
C1961 C1965 1.408 . S
C1962 C1960 1.363 . S
C1962 C1963 1.370 . S
C1962 C1966 1.524 . S
C1963 C1955 1.503 1_565 S
C1963 C1962 1.370 . S
C1963 C1964 1.403 . S
C1964 C1963 1.403 . S
C1964 C1965 1.404 . S
C1964 C1967 1.539 . S
C1965 C1961 1.408 . S
C1965 C1964 1.404 . S
C1965 H1977 0.930 . S
C1966 C1962 1.524 . S
C1966 H1978 0.944 1_565 S
C1966 H1979 0.961 1_565 S
C1966 H1980 0.961 . S
C1967 C1964 1.539 . S
C1967 H1981 0.958 . S
C1967 H1982 0.961 . S
C1967 H1983 0.960 . S
H1968 C1952 0.931 . S
H1969 C1957 0.929 . S
H1970 C1958 0.960 1_565 S
H1971 C1958 0.962 . S
H1972 C1958 0.960 . S
H1973 C1959 0.961 . S
H1974 C1959 0.961 1_565 S
H1975 C1959 0.961 . S
H1976 C1960 0.931 . S
H1977 C1965 0.930 . S
H1978 C1966 0.944 1_545 S
H1979 C1966 0.961 1_545 S
H1980 C1966 0.961 . S
H1981 C1967 0.958 . S
H1982 C1967 0.961 . S
H1983 C1967 0.960 . S
C1984 C1985 1.391 . S
C1984 C1986 1.394 . S
C1984 H2000 0.931 . S
C1985 C1984 1.391 . S
C1985 C1989 1.376 . S
C1986 C1984 1.394 . S
C1986 C1987 1.369 . S
C1986 C1990 1.531 . S
C1987 C1986 1.369 . S
C1987 C1988 1.410 . S
C1987 C1995 1.503 1_455 S
C1988 C1987 1.410 . S
C1988 C1989 1.392 . S
C1988 C1991 1.511 . S
C1989 C1985 1.376 . S
C1989 C1988 1.392 . S
C1989 H2001 0.929 . S
C1990 C1986 1.531 . S
C1990 H2002 0.960 1_455 S
C1990 H2003 0.962 . S
C1990 H2004 0.960 . S
C1991 C1988 1.511 . S
C1991 H2005 0.961 . S
C1991 H2006 0.961 1_455 S
C1991 H2007 0.961 . S
C1992 C1993 1.370 . S
C1992 C1994 1.363 . S
C1992 H2008 0.931 . S
C1993 C1992 1.370 . S
C1993 C1997 1.408 . S
C1994 C1992 1.363 . S
C1994 C1995 1.370 . S
C1994 C1998 1.524 . S
C1995 C1987 1.503 1_655 S
C1995 C1994 1.370 . S
C1995 C1996 1.403 . S
C1996 C1995 1.403 . S
C1996 C1997 1.404 . S
C1996 C1999 1.539 . S
C1997 C1993 1.408 . S
C1997 C1996 1.404 . S
C1997 H2009 0.930 . S
C1998 C1994 1.524 . S
C1998 H2010 0.928 1_655 S
C1998 H2011 0.961 1_655 S
C1998 H2012 0.961 . S
C1999 C1996 1.539 . S
C1999 H2013 0.958 . S
C1999 H2014 0.961 . S
C1999 H2015 0.960 . S
H2000 C1984 0.931 . S
H2001 C1989 0.929 . S
H2002 C1990 0.960 1_655 S
H2003 C1990 0.962 . S
H2004 C1990 0.960 . S
H2005 C1991 0.961 . S
H2006 C1991 0.961 1_655 S
H2007 C1991 0.961 . S
H2008 C1992 0.931 . S
H2009 C1997 0.930 . S
H2010 C1998 0.928 1_455 S
H2011 C1998 0.961 1_455 S
H2012 C1998 0.961 . S
H2013 C1999 0.958 . S
H2014 C1999 0.961 . S
H2015 C1999 0.960 . S
C2016 C2017 1.391 . S
C2016 C2018 1.394 . S
C2016 H2032 0.931 . S
C2017 C2016 1.391 . S
C2017 C2021 1.376 . S
C2018 C2016 1.394 . S
C2018 C2019 1.369 . S
C2018 C2022 1.531 1_455 S
C2019 C2018 1.369 . S
C2019 C2020 1.410 . S
C2019 C2027 1.503 1_455 S
C2020 C2019 1.410 . S
C2020 C2021 1.392 . S
C2020 C2023 1.511 . S
C2021 C2017 1.376 . S
C2021 C2020 1.392 . S
C2021 H2033 0.929 . S
C2022 C2018 1.531 1_655 S
C2022 H2034 0.960 . S
C2022 H2035 0.962 . S
C2022 H2036 0.960 1_655 S
C2023 C2020 1.511 . S
C2023 H2037 0.961 . S
C2023 H2038 0.961 . S
C2023 H2039 0.961 . S
C2024 C2025 1.370 . S
C2024 C2026 1.363 . S
C2024 H2040 0.931 . S
C2025 C2024 1.370 . S
C2025 C2029 1.408 . S
C2026 C2024 1.363 . S
C2026 C2027 1.370 . S
C2026 C2030 1.524 . S
C2027 C2019 1.503 1_655 S
C2027 C2026 1.370 . S
C2027 C2028 1.403 1_655 S
C2028 C2027 1.403 1_455 S
C2028 C2029 1.404 1_455 S
C2028 C2031 1.539 . S
C2029 C2025 1.408 . S
C2029 C2028 1.404 1_655 S
C2029 H2041 0.930 . S
C2030 C2026 1.524 . S
C2030 H2042 0.956 . S
C2030 H2043 0.961 . S
C2030 H2044 0.961 . S
C2031 C2028 1.539 . S
C2031 H2045 0.958 . S
C2031 H2046 0.961 . S
C2031 H2047 0.960 . S
H2032 C2016 0.931 . S
H2033 C2021 0.929 . S
H2034 C2022 0.960 . S
H2035 C2022 0.962 . S
H2036 C2022 0.960 1_455 S
H2037 C2023 0.961 . S
H2038 C2023 0.961 . S
H2039 C2023 0.961 . S
H2040 C2024 0.931 . S
H2041 C2029 0.930 . S
H2042 C2030 0.956 . S
H2043 C2030 0.961 . S
H2044 C2030 0.961 . S
H2045 C2031 0.958 . S
H2046 C2031 0.961 . S
H2047 C2031 0.960 . S
C2048 C2049 1.391 . S
C2048 C2050 1.394 . S
C2048 H2064 0.931 . S
C2049 C2048 1.391 . S
C2049 C2053 1.376 . S
C2050 C2048 1.394 . S
C2050 C2051 1.369 . S
C2050 C2054 1.531 . S
C2051 C2050 1.369 . S
C2051 C2052 1.410 . S
C2051 C2059 1.503 . S
C2052 C2051 1.410 . S
C2052 C2053 1.392 . S
C2052 C2055 1.511 . S
C2053 C2049 1.376 . S
C2053 C2052 1.392 . S
C2053 H2065 0.929 . S
C2054 C2050 1.531 . S
C2054 H2066 0.960 . S
C2054 H2067 0.962 . S
C2054 H2068 0.960 . S
C2055 C2052 1.511 . S
C2055 H2069 0.961 . S
C2055 H2070 0.961 . S
C2055 H2071 0.961 . S
C2056 C2057 1.370 . S
C2056 C2058 1.363 . S
C2056 H2072 0.931 . S
C2057 C2056 1.370 . S
C2057 C2061 1.408 . S
C2058 C2056 1.363 . S
C2058 C2059 1.370 . S
C2058 C2062 1.524 . S
C2059 C2051 1.503 . S
C2059 C2058 1.370 . S
C2059 C2060 1.403 . S
C2060 C2059 1.403 . S
C2060 C2061 1.404 . S
C2060 C2063 1.539 . S
C2061 C2057 1.408 . S
C2061 C2060 1.404 . S
C2061 H2073 0.930 . S
C2062 C2058 1.524 . S
C2062 H2074 0.956 . S
C2062 H2075 0.961 . S
C2062 H2076 0.961 . S
C2063 C2060 1.539 . S
C2063 H2077 0.958 . S
C2063 H2078 0.961 . S
C2063 H2079 0.960 . S
H2064 C2048 0.931 . S
H2065 C2053 0.929 . S
H2066 C2054 0.960 . S
H2067 C2054 0.962 . S
H2068 C2054 0.960 . S
H2069 C2055 0.961 . S
H2070 C2055 0.961 . S
H2071 C2055 0.961 . S
H2072 C2056 0.931 . S
H2073 C2061 0.930 . S
H2074 C2062 0.956 . S
H2075 C2062 0.961 . S
H2076 C2062 0.961 . S
H2077 C2063 0.958 . S
H2078 C2063 0.961 . S
H2079 C2063 0.960 . S
C2080 C2081 1.391 . S
C2080 C2082 1.394 . S
C2080 H2096 0.931 . S
C2081 C2080 1.391 . S
C2081 C2085 1.376 . S
C2082 C2080 1.394 . S
C2082 C2083 1.369 . S
C2082 C2086 1.531 . S
C2083 C2082 1.369 . S
C2083 C2084 1.410 . S
C2083 C2091 1.503 1_565 S
C2084 C2083 1.410 . S
C2084 C2085 1.392 . S
C2084 C2087 1.558 . S
C2085 C2081 1.376 . S
C2085 C2084 1.392 . S
C2085 H2097 0.929 . S
C2086 C2082 1.531 . S
C2086 H2098 0.960 . S
C2086 H2099 0.962 . S
C2086 H2100 0.960 . S
C2087 C2084 1.558 . S
C2087 H2101 0.933 1_565 S
C2087 H2102 0.927 1_565 S
C2087 H2103 0.980 . S
C2088 C2089 1.370 . S
C2088 C2090 1.363 . S
C2088 H2104 0.931 . S
C2089 C2088 1.370 . S
C2089 C2093 1.408 . S
C2090 C2088 1.363 . S
C2090 C2091 1.370 . S
C2090 C2094 1.524 . S
C2091 C2083 1.503 1_545 S
C2091 C2090 1.370 . S
C2091 C2092 1.403 1_545 S
C2092 C2091 1.403 1_565 S
C2092 C2093 1.404 1_565 S
C2092 C2095 1.539 . S
C2093 C2089 1.408 . S
C2093 C2092 1.404 1_545 S
C2093 H2105 0.930 . S
C2094 C2090 1.524 . S
C2094 H2106 0.956 . S
C2094 H2107 0.961 . S
C2094 H2108 0.961 . S
C2095 C2092 1.539 . S
C2095 H2109 0.958 . S
C2095 H2110 0.961 . S
C2095 H2111 0.960 . S
H2096 C2080 0.931 . S
H2097 C2085 0.929 . S
H2098 C2086 0.960 . S
H2099 C2086 0.962 . S
H2100 C2086 0.960 . S
H2101 C2087 0.933 1_545 S
H2102 C2087 0.927 1_545 S
H2103 C2087 0.980 . S
H2104 C2088 0.931 . S
H2105 C2093 0.930 . S
H2106 C2094 0.956 . S
H2107 C2094 0.961 . S
H2108 C2094 0.961 . S
H2109 C2095 0.958 . S
H2110 C2095 0.961 . S
H2111 C2095 0.960 . S
C2112 C2113 1.391 . S
C2112 C2114 1.394 1_655 S
C2112 H2128 0.931 . S
C2113 C2112 1.391 . S
C2113 C2117 1.376 . S
C2114 C2112 1.394 1_455 S
C2114 C2115 1.369 1_455 S
C2114 C2118 1.531 . S
C2115 C2114 1.369 1_655 S
C2115 C2116 1.410 . S
C2115 C2123 1.503 1_655 S
C2116 C2115 1.410 . S
C2116 C2117 1.392 . S
C2116 C2119 1.511 . S
C2117 C2113 1.376 . S
C2117 C2116 1.392 . S
C2117 H2129 0.929 . S
C2118 C2114 1.531 . S
C2118 H2130 0.960 . S
C2118 H2131 0.962 . S
C2118 H2132 0.960 . S
C2119 C2116 1.511 . S
C2119 H2133 0.961 . S
C2119 H2134 0.961 . S
C2119 H2135 0.961 . S
C2120 C2121 1.370 . S
C2120 C2122 1.363 . S
C2120 H2136 0.931 . S
C2121 C2120 1.370 . S
C2121 C2125 1.408 . S
C2122 C2120 1.363 . S
C2122 C2123 1.370 . S
C2122 C2126 1.524 1_455 S
C2123 C2115 1.503 1_455 S
C2123 C2122 1.370 . S
C2123 C2124 1.403 . S
C2124 C2123 1.403 . S
C2124 C2125 1.404 . S
C2124 C2127 1.539 . S
C2125 C2121 1.408 . S
C2125 C2124 1.404 . S
C2125 H2137 0.930 . S
C2126 C2122 1.524 1_655 S
C2126 H2138 0.956 . S
C2126 H2139 0.961 . S
C2126 H2140 0.961 . S
C2127 C2124 1.539 . S
C2127 H2141 0.958 . S
C2127 H2142 0.961 . S
C2127 H2143 0.960 . S
H2128 C2112 0.931 . S
H2129 C2117 0.929 . S
H2130 C2118 0.960 . S
H2131 C2118 0.962 . S
H2132 C2118 0.960 . S
H2133 C2119 0.961 . S
H2134 C2119 0.961 . S
H2135 C2119 0.961 . S
H2136 C2120 0.931 . S
H2137 C2125 0.930 . S
H2138 C2126 0.956 . S
H2139 C2126 0.961 . S
H2140 C2126 0.961 . S
H2141 C2127 0.958 . S
H2142 C2127 0.961 . S
H2143 C2127 0.960 . S
C2144 C2145 1.391 . S
C2144 C2146 1.394 . S
C2144 H2160 0.931 . S
C2145 C2144 1.391 . S
C2145 C2149 1.376 . S
C2146 C2144 1.394 . S
C2146 C2147 1.369 . S
C2146 C2150 1.531 . S
C2147 C2146 1.369 . S
C2147 C2148 1.410 . S
C2147 C2155 1.503 . S
C2148 C2147 1.410 . S
C2148 C2149 1.392 . S
C2148 C2151 1.511 . S
C2149 C2145 1.376 . S
C2149 C2148 1.392 . S
C2149 H2161 0.929 . S
C2150 C2146 1.531 . S
C2150 H2162 0.960 . S
C2150 H2163 0.962 . S
C2150 H2164 0.960 . S
C2151 C2148 1.511 . S
C2151 H2165 0.961 . S
C2151 H2166 0.961 . S
C2151 H2167 0.961 . S
C2152 C2153 1.370 . S
C2152 C2154 1.363 . S
C2152 H2168 0.931 . S
C2153 C2152 1.370 . S
C2153 C2157 1.408 . S
C2154 C2152 1.363 . S
C2154 C2155 1.370 . S
C2154 C2158 1.524 . S
C2155 C2147 1.503 . S
C2155 C2154 1.370 . S
C2155 C2156 1.403 . S
C2156 C2155 1.403 . S
C2156 C2157 1.404 . S
C2156 C2159 1.539 . S
C2157 C2153 1.408 . S
C2157 C2156 1.404 . S
C2157 H2169 0.930 . S
C2158 C2154 1.524 . S
C2158 H2170 0.956 . S
C2158 H2171 0.961 . S
C2158 H2172 0.961 . S
C2159 C2156 1.539 . S
C2159 H2173 0.958 . S
C2159 H2174 0.961 . S
C2159 H2175 0.960 . S
H2160 C2144 0.931 . S
H2161 C2149 0.929 . S
H2162 C2150 0.960 . S
H2163 C2150 0.962 . S
H2164 C2150 0.960 . S
H2165 C2151 0.961 . S
H2166 C2151 0.961 . S
H2167 C2151 0.961 . S
H2168 C2152 0.931 . S
H2169 C2157 0.930 . S
H2170 C2158 0.956 . S
H2171 C2158 0.961 . S
H2172 C2158 0.961 . S
H2173 C2159 0.958 . S
H2174 C2159 0.961 . S
H2175 C2159 0.960 . S
C2176 C2177 1.391 . S
C2176 C2178 1.394 . S
C2176 H2192 0.931 . S
C2177 C2176 1.391 . S
C2177 C2181 1.376 . S
C2178 C2176 1.394 . S
C2178 C2179 1.369 . S
C2178 C2182 1.531 1_545 S
C2179 C2178 1.369 . S
C2179 C2180 1.410 . S
C2179 C2187 1.503 1_545 S
C2180 C2179 1.410 . S
C2180 C2181 1.392 . S
C2180 C2183 1.511 . S
C2181 C2177 1.376 . S
C2181 C2180 1.392 . S
C2181 H2193 0.929 . S
C2182 C2178 1.531 1_565 S
C2182 H2194 0.960 . S
C2182 H2195 0.962 . S
C2182 H2196 0.960 . S
C2183 C2180 1.511 . S
C2183 H2197 0.961 . S
C2183 H2198 0.961 . S
C2183 H2199 0.961 . S
C2184 C2185 1.370 . S
C2184 C2186 1.346 1_565 S
C2184 H2200 0.931 . S
C2185 C2184 1.370 . S
C2185 C2189 1.408 . S
C2186 C2184 1.346 1_545 S
C2186 C2187 1.345 1_545 S
C2186 C2190 1.568 . S
C2187 C2179 1.503 1_565 S
C2187 C2186 1.345 1_565 S
C2187 C2188 1.403 . S
C2188 C2187 1.403 . S
C2188 C2189 1.404 . S
C2188 C2191 1.539 . S
C2189 C2185 1.408 . S
C2189 C2188 1.404 . S
C2189 H2201 0.930 . S
C2190 C2186 1.568 . S
C2190 H2202 0.956 . S
C2190 H2203 0.961 . S
C2190 H2204 0.961 . S
C2191 C2188 1.539 . S
C2191 H2205 0.958 . S
C2191 H2206 0.961 . S
C2191 H2207 0.960 . S
H2192 C2176 0.931 . S
H2193 C2181 0.929 . S
H2194 C2182 0.960 . S
H2195 C2182 0.962 . S
H2196 C2182 0.960 . S
H2197 C2183 0.961 . S
H2198 C2183 0.961 . S
H2199 C2183 0.961 . S
H2200 C2184 0.931 . S
H2201 C2189 0.930 . S
H2202 C2190 0.956 . S
H2203 C2190 0.961 . S
H2204 C2190 0.961 . S
H2205 C2191 0.958 . S
H2206 C2191 0.961 . S
H2207 C2191 0.960 . S
C2208 C2209 1.391 . S
C2208 C2210 1.394 . S
C2208 H2224 0.931 . S
C2209 C2208 1.391 . S
C2209 C2213 1.376 . S
C2210 C2208 1.394 . S
C2210 C2211 1.369 . S
C2210 C2214 1.531 . S
C2211 C2210 1.369 . S
C2211 C2212 1.410 . S
C2211 C2219 1.503 . S
C2212 C2211 1.410 . S
C2212 C2213 1.392 . S
C2212 C2215 1.511 . S
C2213 C2209 1.376 . S
C2213 C2212 1.392 . S
C2213 H2225 0.929 . S
C2214 C2210 1.531 . S
C2214 H2226 0.960 . S
C2214 H2227 0.962 . S
C2214 H2228 0.960 . S
C2215 C2212 1.511 . S
C2215 H2229 0.961 . S
C2215 H2230 0.961 . S
C2215 H2231 0.961 . S
C2216 C2217 1.370 . S
C2216 C2218 1.363 . S
C2216 H2232 0.931 . S
C2217 C2216 1.370 . S
C2217 C2221 1.408 . S
C2218 C2216 1.363 . S
C2218 C2219 1.370 . S
C2218 C2222 1.524 . S
C2219 C2211 1.503 . S
C2219 C2218 1.370 . S
C2219 C2220 1.403 . S
C2220 C2219 1.403 . S
C2220 C2221 1.404 . S
C2220 C2223 1.539 . S
C2221 C2217 1.408 . S
C2221 C2220 1.404 . S
C2221 H2233 0.930 . S
C2222 C2218 1.524 . S
C2222 H2234 0.956 . S
C2222 H2235 0.961 . S
C2222 H2236 0.961 . S
C2223 C2220 1.539 . S
C2223 H2237 0.958 . S
C2223 H2238 0.961 . S
C2223 H2239 0.960 . S
H2224 C2208 0.931 . S
H2225 C2213 0.929 . S
H2226 C2214 0.960 . S
H2227 C2214 0.962 . S
H2228 C2214 0.960 . S
H2229 C2215 0.961 . S
H2230 C2215 0.961 . S
H2231 C2215 0.961 . S
H2232 C2216 0.931 . S
H2233 C2221 0.930 . S
H2234 C2222 0.956 . S
H2235 C2222 0.961 . S
H2236 C2222 0.961 . S
H2237 C2223 0.958 . S
H2238 C2223 0.961 . S
H2239 C2223 0.960 . S
C2240 C2241 1.391 . S
C2240 C2242 1.394 . S
C2240 H2256 0.931 . S
C2241 C2240 1.391 . S
C2241 C2245 1.376 . S
C2242 C2240 1.394 . S
C2242 C2243 1.369 . S
C2242 C2246 1.531 . S
C2243 C2242 1.369 . S
C2243 C2244 1.410 . S
C2243 C2251 1.503 . S
C2244 C2243 1.410 . S
C2244 C2245 1.392 . S
C2244 C2247 1.511 . S
C2245 C2241 1.376 . S
C2245 C2244 1.392 . S
C2245 H2257 0.929 . S
C2246 C2242 1.531 . S
C2246 H2258 0.960 . S
C2246 H2259 0.962 . S
C2246 H2260 0.960 . S
C2247 C2244 1.511 . S
C2247 H2261 0.961 . S
C2247 H2262 0.961 . S
C2247 H2263 0.961 . S
C2248 C2249 1.370 . S
C2248 C2250 1.363 . S
C2248 H2264 0.931 . S
C2249 C2248 1.370 . S
C2249 C2253 1.408 . S
C2250 C2248 1.363 . S
C2250 C2251 1.370 . S
C2250 C2254 1.524 . S
C2251 C2243 1.503 . S
C2251 C2250 1.370 . S
C2251 C2252 1.403 . S
C2252 C2251 1.403 . S
C2252 C2253 1.404 . S
C2252 C2255 1.539 . S
C2253 C2249 1.408 . S
C2253 C2252 1.404 . S
C2253 H2265 0.930 . S
C2254 C2250 1.524 . S
C2254 H2266 0.956 . S
C2254 H2267 0.961 . S
C2254 H2268 0.961 . S
C2255 C2252 1.539 . S
C2255 H2269 0.958 . S
C2255 H2270 0.961 . S
C2255 H2271 0.960 . S
H2256 C2240 0.931 . S
H2257 C2245 0.929 . S
H2258 C2246 0.960 . S
H2259 C2246 0.962 . S
H2260 C2246 0.960 . S
H2261 C2247 0.961 . S
H2262 C2247 0.961 . S
H2263 C2247 0.961 . S
H2264 C2248 0.931 . S
H2265 C2253 0.930 . S
H2266 C2254 0.956 . S
H2267 C2254 0.961 . S
H2268 C2254 0.961 . S
H2269 C2255 0.958 . S
H2270 C2255 0.961 . S
H2271 C2255 0.960 . S
C2272 C2273 1.391 . S
C2272 C2274 1.394 . S
C2272 H2288 0.931 . S
C2273 C2272 1.391 . S
C2273 C2277 1.376 . S
C2274 C2272 1.394 . S
C2274 C2275 1.369 . S
C2274 C2278 1.531 . S
C2275 C2274 1.369 . S
C2275 C2276 1.410 . S
C2275 C2283 1.503 . S
C2276 C2275 1.410 . S
C2276 C2277 1.392 . S
C2276 C2279 1.511 . S
C2277 C2273 1.376 . S
C2277 C2276 1.392 . S
C2277 H2289 0.929 . S
C2278 C2274 1.531 . S
C2278 H2290 0.960 . S
C2278 H2291 0.962 . S
C2278 H2292 0.960 . S
C2279 C2276 1.511 . S
C2279 H2293 0.961 . S
C2279 H2294 0.961 . S
C2279 H2295 0.961 . S
C2280 C2281 1.370 . S
C2280 C2282 1.363 . S
C2280 H2296 0.931 . S
C2281 C2280 1.370 . S
C2281 C2285 1.408 . S
C2282 C2280 1.363 . S
C2282 C2283 1.370 . S
C2282 C2286 1.524 . S
C2283 C2275 1.503 . S
C2283 C2282 1.370 . S
C2283 C2284 1.403 . S
C2284 C2283 1.403 . S
C2284 C2285 1.404 . S
C2284 C2287 1.539 . S
C2285 C2281 1.408 . S
C2285 C2284 1.404 . S
C2285 H2297 0.930 . S
C2286 C2282 1.524 . S
C2286 H2298 0.956 . S
C2286 H2299 0.961 . S
C2286 H2300 0.961 . S
C2287 C2284 1.539 . S
C2287 H2301 0.958 . S
C2287 H2302 0.961 . S
C2287 H2303 0.960 . S
H2288 C2272 0.931 . S
H2289 C2277 0.929 . S
H2290 C2278 0.960 . S
H2291 C2278 0.962 . S
H2292 C2278 0.960 . S
H2293 C2279 0.961 . S
H2294 C2279 0.961 . S
H2295 C2279 0.961 . S
H2296 C2280 0.931 . S
H2297 C2285 0.930 . S
H2298 C2286 0.956 . S
H2299 C2286 0.961 . S
H2300 C2286 0.961 . S
H2301 C2287 0.958 . S
H2302 C2287 0.961 . S
H2303 C2287 0.960 . S
C2304 C2305 1.391 . S
C2304 C2306 1.394 . S
C2304 H2320 0.931 . S
C2305 C2304 1.391 . S
C2305 C2309 1.376 . S
C2306 C2304 1.394 . S
C2306 C2307 1.369 . S
C2306 C2310 1.531 . S
C2307 C2306 1.369 . S
C2307 C2308 1.410 . S
C2307 C2315 1.503 . S
C2308 C2307 1.410 . S
C2308 C2309 1.392 . S
C2308 C2311 1.511 . S
C2309 C2305 1.376 . S
C2309 C2308 1.392 . S
C2309 H2321 0.929 . S
C2310 C2306 1.531 . S
C2310 H2322 0.960 . S
C2310 H2323 0.962 . S
C2310 H2324 0.960 . S
C2311 C2308 1.511 . S
C2311 H2325 0.961 . S
C2311 H2326 0.961 . S
C2311 H2327 0.961 . S
C2312 C2313 1.370 . S
C2312 C2314 1.363 . S
C2312 H2328 0.931 . S
C2313 C2312 1.370 . S
C2313 C2317 1.408 . S
C2314 C2312 1.363 . S
C2314 C2315 1.370 . S
C2314 C2318 1.524 . S
C2315 C2307 1.503 . S
C2315 C2314 1.370 . S
C2315 C2316 1.403 . S
C2316 C2315 1.403 . S
C2316 C2317 1.404 . S
C2316 C2319 1.539 . S
C2317 C2313 1.408 . S
C2317 C2316 1.404 . S
C2317 H2329 0.930 . S
C2318 C2314 1.524 . S
C2318 H2330 0.956 . S
C2318 H2331 0.961 . S
C2318 H2332 0.961 . S
C2319 C2316 1.539 . S
C2319 H2333 0.958 . S
C2319 H2334 0.961 . S
C2319 H2335 0.960 . S
H2320 C2304 0.931 . S
H2321 C2309 0.929 . S
H2322 C2310 0.960 . S
H2323 C2310 0.962 . S
H2324 C2310 0.960 . S
H2325 C2311 0.961 . S
H2326 C2311 0.961 . S
H2327 C2311 0.961 . S
H2328 C2312 0.931 . S
H2329 C2317 0.930 . S
H2330 C2318 0.956 . S
H2331 C2318 0.961 . S
H2332 C2318 0.961 . S
H2333 C2319 0.958 . S
H2334 C2319 0.961 . S
H2335 C2319 0.960 . S
C2336 C2337 1.391 . S
C2336 C2338 1.394 . S
C2336 H2352 0.931 . S
C2337 C2336 1.391 . S
C2337 C2341 1.376 . S
C2338 C2336 1.394 . S
C2338 C2339 1.369 . S
C2338 C2342 1.531 . S
C2339 C2338 1.369 . S
C2339 C2340 1.410 . S
C2339 C2347 1.503 . S
C2340 C2339 1.410 . S
C2340 C2341 1.392 . S
C2340 C2343 1.511 . S
C2341 C2337 1.376 . S
C2341 C2340 1.392 . S
C2341 H2353 0.929 . S
C2342 C2338 1.531 . S
C2342 H2354 0.960 . S
C2342 H2355 0.962 . S
C2342 H2356 0.960 . S
C2343 C2340 1.511 . S
C2343 H2357 0.961 . S
C2343 H2358 0.961 . S
C2343 H2359 0.961 . S
C2344 C2345 1.370 . S
C2344 C2346 1.363 . S
C2344 H2360 0.931 . S
C2345 C2344 1.370 . S
C2345 C2349 1.408 . S
C2346 C2344 1.363 . S
C2346 C2347 1.370 . S
C2346 C2350 1.524 . S
C2347 C2339 1.503 . S
C2347 C2346 1.370 . S
C2347 C2348 1.403 . S
C2348 C2347 1.403 . S
C2348 C2349 1.404 . S
C2348 C2351 1.539 . S
C2349 C2345 1.408 . S
C2349 C2348 1.404 . S
C2349 H2361 0.930 . S
C2350 C2346 1.524 . S
C2350 H2362 0.956 . S
C2350 H2363 0.961 . S
C2350 H2364 0.961 . S
C2351 C2348 1.539 . S
C2351 H2365 0.958 . S
C2351 H2366 0.961 . S
C2351 H2367 0.960 . S
H2352 C2336 0.931 . S
H2353 C2341 0.929 . S
H2354 C2342 0.960 . S
H2355 C2342 0.962 . S
H2356 C2342 0.960 . S
H2357 C2343 0.961 . S
H2358 C2343 0.961 . S
H2359 C2343 0.961 . S
H2360 C2344 0.931 . S
H2361 C2349 0.930 . S
H2362 C2350 0.956 . S
H2363 C2350 0.961 . S
H2364 C2350 0.961 . S
H2365 C2351 0.958 . S
H2366 C2351 0.961 . S
H2367 C2351 0.960 . S
C2368 C2369 1.391 . S
C2368 C2370 1.394 . S
C2368 H2384 0.931 . S
C2369 C2368 1.391 . S
C2369 C2373 1.376 . S
C2370 C2368 1.394 . S
C2370 C2371 1.369 . S
C2370 C2374 1.531 . S
C2371 C2370 1.369 . S
C2371 C2372 1.410 . S
C2371 C2379 1.503 . S
C2372 C2371 1.410 . S
C2372 C2373 1.392 . S
C2372 C2375 1.511 . S
C2373 C2369 1.376 . S
C2373 C2372 1.392 . S
C2373 H2385 0.929 . S
C2374 C2370 1.531 . S
C2374 H2386 0.960 . S
C2374 H2387 0.962 . S
C2374 H2388 0.960 . S
C2375 C2372 1.511 . S
C2375 H2389 0.961 . S
C2375 H2390 0.961 . S
C2375 H2391 0.961 . S
C2376 C2377 1.370 . S
C2376 C2378 1.363 . S
C2376 H2392 0.931 . S
C2377 C2376 1.370 . S
C2377 C2381 1.408 . S
C2378 C2376 1.363 . S
C2378 C2379 1.370 . S
C2378 C2382 1.524 . S
C2379 C2371 1.503 . S
C2379 C2378 1.370 . S
C2379 C2380 1.403 . S
C2380 C2379 1.403 . S
C2380 C2381 1.404 . S
C2380 C2383 1.539 . S
C2381 C2377 1.408 . S
C2381 C2380 1.404 . S
C2381 H2393 0.930 . S
C2382 C2378 1.524 . S
C2382 H2394 0.956 . S
C2382 H2395 0.961 . S
C2382 H2396 0.961 . S
C2383 C2380 1.539 . S
C2383 H2397 0.958 . S
C2383 H2398 0.961 . S
C2383 H2399 0.960 . S
H2384 C2368 0.931 . S
H2385 C2373 0.929 . S
H2386 C2374 0.960 . S
H2387 C2374 0.962 . S
H2388 C2374 0.960 . S
H2389 C2375 0.961 . S
H2390 C2375 0.961 . S
H2391 C2375 0.961 . S
H2392 C2376 0.931 . S
H2393 C2381 0.930 . S
H2394 C2382 0.956 . S
H2395 C2382 0.961 . S
H2396 C2382 0.961 . S
H2397 C2383 0.958 . S
H2398 C2383 0.961 . S
H2399 C2383 0.960 . S
C2400 C2401 1.391 . S
C2400 C2402 1.394 . S
C2400 H2416 0.931 . S
C2401 C2400 1.391 . S
C2401 C2405 1.376 . S
C2402 C2400 1.394 . S
C2402 C2403 1.369 . S
C2402 C2406 1.531 . S
C2403 C2402 1.369 . S
C2403 C2404 1.410 . S
C2403 C2411 1.503 . S
C2404 C2403 1.410 . S
C2404 C2405 1.392 . S
C2404 C2407 1.511 . S
C2405 C2401 1.376 . S
C2405 C2404 1.392 . S
C2405 H2417 0.929 . S
C2406 C2402 1.531 . S
C2406 H2418 0.960 . S
C2406 H2419 0.962 . S
C2406 H2420 0.960 . S
C2407 C2404 1.511 . S
C2407 H2421 0.961 . S
C2407 H2422 0.961 . S
C2407 H2423 0.961 . S
C2408 C2409 1.370 . S
C2408 C2410 1.363 . S
C2408 H2424 0.931 . S
C2409 C2408 1.370 . S
C2409 C2413 1.408 . S
C2410 C2408 1.363 . S
C2410 C2411 1.370 . S
C2410 C2414 1.524 . S
C2411 C2403 1.503 . S
C2411 C2410 1.370 . S
C2411 C2412 1.403 . S
C2412 C2411 1.403 . S
C2412 C2413 1.404 . S
C2412 C2415 1.539 . S
C2413 C2409 1.408 . S
C2413 C2412 1.404 . S
C2413 H2425 0.930 . S
C2414 C2410 1.524 . S
C2414 H2426 0.956 . S
C2414 H2427 0.961 . S
C2414 H2428 0.961 . S
C2415 C2412 1.539 . S
C2415 H2429 0.958 . S
C2415 H2430 0.961 . S
C2415 H2431 0.960 . S
H2416 C2400 0.931 . S
H2417 C2405 0.929 . S
H2418 C2406 0.960 . S
H2419 C2406 0.962 . S
H2420 C2406 0.960 . S
H2421 C2407 0.961 . S
H2422 C2407 0.961 . S
H2423 C2407 0.961 . S
H2424 C2408 0.931 . S
H2425 C2413 0.930 . S
H2426 C2414 0.956 . S
H2427 C2414 0.961 . S
H2428 C2414 0.961 . S
H2429 C2415 0.958 . S
H2430 C2415 0.961 . S
H2431 C2415 0.960 . S
C2432 C2433 1.391 . S
C2432 C2434 1.394 . S
C2432 H2448 0.931 . S
C2433 C2432 1.391 . S
C2433 C2437 1.376 . S
C2434 C2432 1.394 . S
C2434 C2435 1.369 . S
C2434 C2438 1.531 . S
C2435 C2434 1.369 . S
C2435 C2436 1.410 . S
C2435 C2443 1.503 . S
C2436 C2435 1.410 . S
C2436 C2437 1.392 . S
C2436 C2439 1.511 . S
C2437 C2433 1.376 . S
C2437 C2436 1.392 . S
C2437 H2449 0.929 . S
C2438 C2434 1.531 . S
C2438 H2450 0.960 . S
C2438 H2451 0.962 . S
C2438 H2452 0.960 . S
C2439 C2436 1.511 . S
C2439 H2453 0.961 . S
C2439 H2454 0.961 . S
C2439 H2455 0.961 . S
C2440 C2441 1.370 . S
C2440 C2442 1.363 . S
C2440 H2456 0.931 . S
C2441 C2440 1.370 . S
C2441 C2445 1.408 . S
C2442 C2440 1.363 . S
C2442 C2443 1.370 . S
C2442 C2446 1.524 . S
C2443 C2435 1.503 . S
C2443 C2442 1.370 . S
C2443 C2444 1.403 . S
C2444 C2443 1.403 . S
C2444 C2445 1.404 . S
C2444 C2447 1.539 . S
C2445 C2441 1.408 . S
C2445 C2444 1.404 . S
C2445 H2457 0.930 . S
C2446 C2442 1.524 . S
C2446 H2458 0.956 . S
C2446 H2459 0.961 . S
C2446 H2460 0.961 . S
C2447 C2444 1.539 . S
C2447 H2461 0.958 . S
C2447 H2462 0.961 . S
C2447 H2463 0.960 . S
H2448 C2432 0.931 . S
H2449 C2437 0.929 . S
H2450 C2438 0.960 . S
H2451 C2438 0.962 . S
H2452 C2438 0.960 . S
H2453 C2439 0.961 . S
H2454 C2439 0.961 . S
H2455 C2439 0.961 . S
H2456 C2440 0.931 . S
H2457 C2445 0.930 . S
H2458 C2446 0.956 . S
H2459 C2446 0.961 . S
H2460 C2446 0.961 . S
H2461 C2447 0.958 . S
H2462 C2447 0.961 . S
H2463 C2447 0.960 . S
C2464 C2465 1.391 . S
C2464 C2466 1.394 . S
C2464 H2480 0.931 . S
C2465 C2464 1.391 . S
C2465 C2469 1.376 . S
C2466 C2464 1.394 . S
C2466 C2467 1.369 . S
C2466 C2470 1.531 . S
C2467 C2466 1.369 . S
C2467 C2468 1.410 . S
C2467 C2475 1.503 . S
C2468 C2467 1.410 . S
C2468 C2469 1.392 . S
C2468 C2471 1.511 . S
C2469 C2465 1.376 . S
C2469 C2468 1.392 . S
C2469 H2481 0.929 . S
C2470 C2466 1.531 . S
C2470 H2482 0.960 . S
C2470 H2483 0.962 . S
C2470 H2484 0.960 . S
C2471 C2468 1.511 . S
C2471 H2485 0.961 . S
C2471 H2486 0.961 . S
C2471 H2487 0.961 . S
C2472 C2473 1.370 . S
C2472 C2474 1.363 . S
C2472 H2488 0.931 . S
C2473 C2472 1.370 . S
C2473 C2477 1.408 . S
C2474 C2472 1.363 . S
C2474 C2475 1.370 . S
C2474 C2478 1.524 . S
C2475 C2467 1.503 . S
C2475 C2474 1.370 . S
C2475 C2476 1.403 . S
C2476 C2475 1.403 . S
C2476 C2477 1.404 . S
C2476 C2479 1.539 . S
C2477 C2473 1.408 . S
C2477 C2476 1.404 . S
C2477 H2489 0.930 . S
C2478 C2474 1.524 . S
C2478 H2490 0.956 . S
C2478 H2491 0.961 . S
C2478 H2492 0.961 . S
C2479 C2476 1.539 . S
C2479 H2493 0.958 . S
C2479 H2494 0.961 . S
C2479 H2495 0.960 . S
H2480 C2464 0.931 . S
H2481 C2469 0.929 . S
H2482 C2470 0.960 . S
H2483 C2470 0.962 . S
H2484 C2470 0.960 . S
H2485 C2471 0.961 . S
H2486 C2471 0.961 . S
H2487 C2471 0.961 . S
H2488 C2472 0.931 . S
H2489 C2477 0.930 . S
H2490 C2478 0.956 . S
H2491 C2478 0.961 . S
H2492 C2478 0.961 . S
H2493 C2479 0.958 . S
H2494 C2479 0.961 . S
H2495 C2479 0.960 . S
C2496 C2497 1.391 . S
C2496 C2498 1.394 . S
C2496 H2512 0.931 . S
C2497 C2496 1.391 . S
C2497 C2501 1.376 . S
C2498 C2496 1.394 . S
C2498 C2499 1.369 . S
C2498 C2502 1.531 . S
C2499 C2498 1.369 . S
C2499 C2500 1.410 . S
C2499 C2507 1.477 1_556 S
C2500 C2499 1.410 . S
C2500 C2501 1.392 . S
C2500 C2503 1.511 . S
C2501 C2497 1.376 . S
C2501 C2500 1.392 . S
C2501 H2513 0.929 . S
C2502 C2498 1.531 . S
C2502 H2514 0.960 1_556 S
C2502 H2515 0.962 1_556 S
C2502 H2516 0.960 . S
C2503 C2500 1.511 . S
C2503 H2517 0.961 . S
C2503 H2518 0.961 . S
C2503 H2519 0.961 . S
C2504 C2505 1.370 . S
C2504 C2506 1.363 . S
C2504 H2520 0.931 . S
C2505 C2504 1.370 . S
C2505 C2509 1.408 . S
C2506 C2504 1.363 . S
C2506 C2507 1.393 . S
C2506 C2510 1.524 . S
C2507 C2499 1.477 1_554 S
C2507 C2506 1.393 . S
C2507 C2508 1.407 . S
C2508 C2507 1.407 . S
C2508 C2509 1.404 . S
C2508 C2511 1.539 1_554 S
C2509 C2505 1.408 . S
C2509 C2508 1.404 . S
C2509 H2521 0.930 . S
C2510 C2506 1.524 . S
C2510 H2522 0.956 . S
C2510 H2523 0.964 . S
C2510 H2524 0.961 . S
C2511 C2508 1.539 1_556 S
C2511 H2525 0.958 . S
C2511 H2526 0.961 . S
C2511 H2527 0.960 . S
H2512 C2496 0.931 . S
H2513 C2501 0.929 . S
H2514 C2502 0.960 1_554 S
H2515 C2502 0.962 1_554 S
H2516 C2502 0.960 . S
H2517 C2503 0.961 . S
H2518 C2503 0.961 . S
H2519 C2503 0.961 . S
H2520 C2504 0.931 . S
H2521 C2509 0.930 . S
H2522 C2510 0.956 . S
H2523 C2510 0.964 . S
H2524 C2510 0.961 . S
H2525 C2511 0.958 . S
H2526 C2511 0.961 . S
H2527 C2511 0.960 . S
C2528 C2529 1.391 . S
C2528 C2530 1.394 . S
C2528 H2544 0.931 . S
C2529 C2528 1.391 . S
C2529 C2533 1.376 . S
C2530 C2528 1.394 . S
C2530 C2531 1.369 . S
C2530 C2534 1.531 . S
C2531 C2530 1.369 . S
C2531 C2532 1.410 . S
C2531 C2539 1.503 1_556 S
C2532 C2531 1.410 . S
C2532 C2533 1.392 . S
C2532 C2535 1.511 . S
C2533 C2529 1.376 . S
C2533 C2532 1.392 . S
C2533 H2545 0.929 . S
C2534 C2530 1.531 . S
C2534 H2546 0.960 1_556 S
C2534 H2547 0.962 . S
C2534 H2548 0.960 . S
C2535 C2532 1.511 . S
C2535 H2549 0.961 . S
C2535 H2550 0.961 . S
C2535 H2551 0.961 . S
C2536 C2537 1.370 . S
C2536 C2538 1.363 . S
C2536 H2552 0.931 . S
C2537 C2536 1.370 . S
C2537 C2541 1.408 . S
C2538 C2536 1.363 . S
C2538 C2539 1.370 . S
C2538 C2542 1.524 1_554 S
C2539 C2531 1.503 1_554 S
C2539 C2538 1.370 . S
C2539 C2540 1.403 . S
C2540 C2539 1.403 . S
C2540 C2541 1.404 . S
C2540 C2543 1.539 . S
C2541 C2537 1.408 . S
C2541 C2540 1.404 . S
C2541 H2553 0.930 . S
C2542 C2538 1.524 1_556 S
C2542 H2554 0.956 . S
C2542 H2555 0.961 . S
C2542 H2556 0.961 . S
C2543 C2540 1.539 . S
C2543 H2557 0.958 . S
C2543 H2558 0.961 . S
C2543 H2559 0.960 . S
H2544 C2528 0.931 . S
H2545 C2533 0.929 . S
H2546 C2534 0.960 1_554 S
H2547 C2534 0.962 . S
H2548 C2534 0.960 . S
H2549 C2535 0.961 . S
H2550 C2535 0.961 . S
H2551 C2535 0.961 . S
H2552 C2536 0.931 . S
H2553 C2541 0.930 . S
H2554 C2542 0.956 . S
H2555 C2542 0.961 . S
H2556 C2542 0.961 . S
H2557 C2543 0.958 . S
H2558 C2543 0.961 . S
H2559 C2543 0.960 . S
C2560 C2561 1.391 . S
C2560 C2562 1.394 . S
C2560 H2576 0.931 . S
C2561 C2560 1.391 . S
C2561 C2565 1.376 . S
C2562 C2560 1.394 . S
C2562 C2563 1.369 . S
C2562 C2566 1.531 . S
C2563 C2562 1.369 . S
C2563 C2564 1.410 . S
C2563 C2571 1.503 1_556 S
C2564 C2563 1.410 . S
C2564 C2565 1.392 . S
C2564 C2567 1.511 . S
C2565 C2561 1.376 . S
C2565 C2564 1.392 . S
C2565 H2577 0.929 . S
C2566 C2562 1.531 . S
C2566 H2578 0.960 1_556 S
C2566 H2579 0.962 1_556 S
C2566 H2580 0.960 . S
C2567 C2564 1.511 . S
C2567 H2581 0.961 . S
C2567 H2582 0.961 . S
C2567 H2583 0.961 . S
C2568 C2569 1.370 . S
C2568 C2570 1.363 . S
C2568 H2584 0.931 . S
C2569 C2568 1.370 . S
C2569 C2573 1.408 . S
C2570 C2568 1.363 . S
C2570 C2571 1.370 . S
C2570 C2574 1.524 . S
C2571 C2563 1.503 1_554 S
C2571 C2570 1.370 . S
C2571 C2572 1.403 . S
C2572 C2571 1.403 . S
C2572 C2573 1.404 . S
C2572 C2575 1.539 1_554 S
C2573 C2569 1.408 . S
C2573 C2572 1.404 . S
C2573 H2585 0.930 . S
C2574 C2570 1.524 . S
C2574 H2586 0.956 . S
C2574 H2587 0.943 1_554 S
C2574 H2588 0.961 . S
C2575 C2572 1.539 1_556 S
C2575 H2589 0.958 . S
C2575 H2590 0.961 . S
C2575 H2591 0.960 . S
H2576 C2560 0.931 . S
H2577 C2565 0.929 . S
H2578 C2566 0.960 1_554 S
H2579 C2566 0.962 1_554 S
H2580 C2566 0.960 . S
H2581 C2567 0.961 . S
H2582 C2567 0.961 . S
H2583 C2567 0.961 . S
H2584 C2568 0.931 . S
H2585 C2573 0.930 . S
H2586 C2574 0.956 . S
H2587 C2574 0.943 1_556 S
H2588 C2574 0.961 . S
H2589 C2575 0.958 . S
H2590 C2575 0.961 . S
H2591 C2575 0.960 . S
C2592 C2593 1.391 . S
C2592 C2594 1.394 . S
C2592 H2608 0.931 . S
C2593 C2592 1.391 . S
C2593 C2597 1.376 . S
C2594 C2592 1.394 . S
C2594 C2595 1.369 . S
C2594 C2598 1.531 . S
C2595 C2594 1.369 . S
C2595 C2596 1.410 . S
C2595 C2603 1.503 . S
C2596 C2595 1.410 . S
C2596 C2597 1.392 . S
C2596 C2599 1.511 . S
C2597 C2593 1.376 . S
C2597 C2596 1.392 . S
C2597 H2609 0.929 . S
C2598 C2594 1.531 . S
C2598 H2610 0.960 . S
C2598 H2611 0.962 . S
C2598 H2612 0.960 . S
C2599 C2596 1.511 . S
C2599 H2613 0.961 . S
C2599 H2614 0.961 . S
C2599 H2615 0.961 . S
C2600 C2601 1.370 . S
C2600 C2602 1.363 . S
C2600 H2616 0.931 . S
C2601 C2600 1.370 . S
C2601 C2605 1.408 . S
C2602 C2600 1.363 . S
C2602 C2603 1.370 . S
C2602 C2606 1.524 . S
C2603 C2595 1.503 . S
C2603 C2602 1.370 . S
C2603 C2604 1.403 . S
C2604 C2603 1.403 . S
C2604 C2605 1.404 . S
C2604 C2607 1.539 . S
C2605 C2601 1.408 . S
C2605 C2604 1.404 . S
C2605 H2617 0.930 . S
C2606 C2602 1.524 . S
C2606 H2618 0.956 . S
C2606 H2619 0.961 . S
C2606 H2620 0.961 . S
C2607 C2604 1.539 . S
C2607 H2621 0.958 . S
C2607 H2622 0.961 . S
C2607 H2623 0.960 . S
H2608 C2592 0.931 . S
H2609 C2597 0.929 . S
H2610 C2598 0.960 . S
H2611 C2598 0.962 . S
H2612 C2598 0.960 . S
H2613 C2599 0.961 . S
H2614 C2599 0.961 . S
H2615 C2599 0.961 . S
H2616 C2600 0.931 . S
H2617 C2605 0.930 . S
H2618 C2606 0.956 . S
H2619 C2606 0.961 . S
H2620 C2606 0.961 . S
H2621 C2607 0.958 . S
H2622 C2607 0.961 . S
H2623 C2607 0.960 . S
C2624 C2625 1.391 . S
C2624 C2626 1.394 . S
C2624 H2640 0.931 . S
C2625 C2624 1.391 . S
C2625 C2629 1.376 . S
C2626 C2624 1.394 . S
C2626 C2627 1.369 . S
C2626 C2630 1.531 . S
C2627 C2626 1.369 . S
C2627 C2628 1.410 . S
C2627 C2635 1.503 . S
C2628 C2627 1.410 . S
C2628 C2629 1.392 . S
C2628 C2631 1.511 . S
C2629 C2625 1.376 . S
C2629 C2628 1.392 . S
C2629 H2641 0.929 . S
C2630 C2626 1.531 . S
C2630 H2642 0.960 . S
C2630 H2643 0.962 . S
C2630 H2644 0.960 . S
C2631 C2628 1.511 . S
C2631 H2645 0.961 . S
C2631 H2646 0.961 . S
C2631 H2647 0.961 . S
C2632 C2633 1.370 . S
C2632 C2634 1.363 . S
C2632 H2648 0.931 . S
C2633 C2632 1.370 . S
C2633 C2637 1.408 . S
C2634 C2632 1.363 . S
C2634 C2635 1.370 . S
C2634 C2638 1.524 . S
C2635 C2627 1.503 . S
C2635 C2634 1.370 . S
C2635 C2636 1.403 . S
C2636 C2635 1.403 . S
C2636 C2637 1.404 . S
C2636 C2639 1.539 . S
C2637 C2633 1.408 . S
C2637 C2636 1.404 . S
C2637 H2649 0.930 . S
C2638 C2634 1.524 . S
C2638 H2650 0.956 . S
C2638 H2651 0.961 . S
C2638 H2652 0.961 . S
C2639 C2636 1.539 . S
C2639 H2653 0.958 . S
C2639 H2654 0.961 . S
C2639 H2655 0.960 . S
H2640 C2624 0.931 . S
H2641 C2629 0.929 . S
H2642 C2630 0.960 . S
H2643 C2630 0.962 . S
H2644 C2630 0.960 . S
H2645 C2631 0.961 . S
H2646 C2631 0.961 . S
H2647 C2631 0.961 . S
H2648 C2632 0.931 . S
H2649 C2637 0.930 . S
H2650 C2638 0.956 . S
H2651 C2638 0.961 . S
H2652 C2638 0.961 . S
H2653 C2639 0.958 . S
H2654 C2639 0.961 . S
H2655 C2639 0.960 . S
C2656 C2657 1.391 . S
C2656 C2658 1.394 . S
C2656 H2672 0.931 . S
C2657 C2656 1.391 . S
C2657 C2661 1.376 . S
C2658 C2656 1.394 . S
C2658 C2659 1.369 . S
C2658 C2662 1.531 . S
C2659 C2658 1.369 . S
C2659 C2660 1.410 . S
C2659 C2667 1.503 . S
C2660 C2659 1.410 . S
C2660 C2661 1.392 . S
C2660 C2663 1.511 . S
C2661 C2657 1.376 . S
C2661 C2660 1.392 . S
C2661 H2673 0.929 . S
C2662 C2658 1.531 . S
C2662 H2674 0.960 . S
C2662 H2675 0.962 . S
C2662 H2676 0.960 . S
C2663 C2660 1.511 . S
C2663 H2677 0.961 . S
C2663 H2678 0.961 . S
C2663 H2679 0.961 . S
C2664 C2665 1.370 . S
C2664 C2666 1.363 . S
C2664 H2680 0.931 . S
C2665 C2664 1.370 . S
C2665 C2669 1.408 . S
C2666 C2664 1.363 . S
C2666 C2667 1.370 . S
C2666 C2670 1.524 . S
C2667 C2659 1.503 . S
C2667 C2666 1.370 . S
C2667 C2668 1.403 . S
C2668 C2667 1.403 . S
C2668 C2669 1.404 . S
C2668 C2671 1.539 . S
C2669 C2665 1.408 . S
C2669 C2668 1.404 . S
C2669 H2681 0.930 . S
C2670 C2666 1.524 . S
C2670 H2682 0.956 . S
C2670 H2683 0.961 . S
C2670 H2684 0.961 . S
C2671 C2668 1.539 . S
C2671 H2685 0.958 . S
C2671 H2686 0.961 . S
C2671 H2687 0.960 . S
H2672 C2656 0.931 . S
H2673 C2661 0.929 . S
H2674 C2662 0.960 . S
H2675 C2662 0.962 . S
H2676 C2662 0.960 . S
H2677 C2663 0.961 . S
H2678 C2663 0.961 . S
H2679 C2663 0.961 . S
H2680 C2664 0.931 . S
H2681 C2669 0.930 . S
H2682 C2670 0.956 . S
H2683 C2670 0.961 . S
H2684 C2670 0.961 . S
H2685 C2671 0.958 . S
H2686 C2671 0.961 . S
H2687 C2671 0.960 . S
C2688 C2689 1.391 . S
C2688 C2690 1.394 . S
C2688 H2704 0.931 . S
C2689 C2688 1.391 . S
C2689 C2693 1.376 . S
C2690 C2688 1.394 . S
C2690 C2691 1.369 . S
C2690 C2694 1.531 . S
C2691 C2690 1.369 . S
C2691 C2692 1.410 . S
C2691 C2699 1.503 . S
C2692 C2691 1.410 . S
C2692 C2693 1.392 . S
C2692 C2695 1.511 . S
C2693 C2689 1.376 . S
C2693 C2692 1.392 . S
C2693 H2705 0.929 . S
C2694 C2690 1.531 . S
C2694 H2706 0.960 . S
C2694 H2707 0.962 . S
C2694 H2708 0.960 . S
C2695 C2692 1.511 . S
C2695 H2709 0.961 . S
C2695 H2710 0.961 . S
C2695 H2711 0.961 . S
C2696 C2697 1.370 . S
C2696 C2698 1.363 1_554 S
C2696 H2712 0.931 . S
C2697 C2696 1.370 . S
C2697 C2701 1.408 . S
C2698 C2696 1.363 1_556 S
C2698 C2699 1.370 . S
C2698 C2702 1.524 . S
C2699 C2691 1.503 . S
C2699 C2698 1.370 . S
C2699 C2700 1.403 . S
C2700 C2699 1.403 . S
C2700 C2701 1.404 1_556 S
C2700 C2703 1.539 . S
C2701 C2697 1.408 . S
C2701 C2700 1.404 1_554 S
C2701 H2713 0.930 . S
C2702 C2698 1.524 . S
C2702 H2714 0.956 . S
C2702 H2715 0.961 . S
C2702 H2716 0.961 . S
C2703 C2700 1.539 . S
C2703 H2717 0.958 . S
C2703 H2718 0.961 . S
C2703 H2719 0.960 . S
H2704 C2688 0.931 . S
H2705 C2693 0.929 . S
H2706 C2694 0.960 . S
H2707 C2694 0.962 . S
H2708 C2694 0.960 . S
H2709 C2695 0.961 . S
H2710 C2695 0.961 . S
H2711 C2695 0.961 . S
H2712 C2696 0.931 . S
H2713 C2701 0.930 . S
H2714 C2702 0.956 . S
H2715 C2702 0.961 . S
H2716 C2702 0.961 . S
H2717 C2703 0.958 . S
H2718 C2703 0.961 . S
H2719 C2703 0.960 . S
C2720 C2721 1.391 . S
C2720 C2722 1.394 . S
C2720 H2736 0.931 . S
C2721 C2720 1.391 . S
C2721 C2725 1.376 . S
C2722 C2720 1.394 . S
C2722 C2723 1.369 . S
C2722 C2726 1.531 . S
C2723 C2722 1.369 . S
C2723 C2724 1.410 . S
C2723 C2731 1.503 . S
C2724 C2723 1.410 . S
C2724 C2725 1.392 . S
C2724 C2727 1.511 . S
C2725 C2721 1.376 . S
C2725 C2724 1.392 . S
C2725 H2737 0.929 . S
C2726 C2722 1.531 . S
C2726 H2738 0.960 . S
C2726 H2739 0.962 . S
C2726 H2740 0.960 . S
C2727 C2724 1.511 . S
C2727 H2741 0.961 . S
C2727 H2742 0.961 . S
C2727 H2743 0.961 . S
C2728 C2729 1.370 . S
C2728 C2730 1.363 1_554 S
C2728 H2744 0.931 . S
C2729 C2728 1.370 . S
C2729 C2733 1.408 . S
C2730 C2728 1.363 1_556 S
C2730 C2731 1.370 . S
C2730 C2734 1.524 . S
C2731 C2723 1.503 . S
C2731 C2730 1.370 . S
C2731 C2732 1.403 1_556 S
C2732 C2731 1.403 1_554 S
C2732 C2733 1.404 . S
C2732 C2735 1.539 . S
C2733 C2729 1.408 . S
C2733 C2732 1.404 . S
C2733 H2745 0.930 . S
C2734 C2730 1.524 . S
C2734 H2746 0.956 . S
C2734 H2747 0.961 . S
C2734 H2748 0.961 . S
C2735 C2732 1.539 . S
C2735 H2749 0.958 . S
C2735 H2750 0.961 . S
C2735 H2751 0.960 1_554 S
H2736 C2720 0.931 . S
H2737 C2725 0.929 . S
H2738 C2726 0.960 . S
H2739 C2726 0.962 . S
H2740 C2726 0.960 . S
H2741 C2727 0.961 . S
H2742 C2727 0.961 . S
H2743 C2727 0.961 . S
H2744 C2728 0.931 . S
H2745 C2733 0.930 . S
H2746 C2734 0.956 . S
H2747 C2734 0.961 . S
H2748 C2734 0.961 . S
H2749 C2735 0.958 . S
H2750 C2735 0.961 . S
H2751 C2735 0.960 1_556 S
C2752 C2753 1.391 . S
C2752 C2754 1.394 1_554 S
C2752 H2768 0.931 . S
C2753 C2752 1.391 . S
C2753 C2757 1.376 . S
C2754 C2752 1.394 1_556 S
C2754 C2755 1.369 . S
C2754 C2758 1.531 . S
C2755 C2754 1.369 . S
C2755 C2756 1.430 . S
C2755 C2763 1.503 . S
C2756 C2755 1.430 . S
C2756 C2757 1.367 1_556 S
C2756 C2759 1.516 . S
C2757 C2753 1.376 . S
C2757 C2756 1.367 1_554 S
C2757 H2769 0.929 . S
C2758 C2754 1.531 . S
C2758 H2770 0.960 . S
C2758 H2771 0.962 . S
C2758 H2772 0.960 . S
C2759 C2756 1.516 . S
C2759 H2773 0.961 1_556 S
C2759 H2774 0.961 . S
C2759 H2775 0.968 . S
C2760 C2761 1.370 . S
C2760 C2762 1.363 . S
C2760 H2776 0.931 . S
C2761 C2760 1.370 . S
C2761 C2765 1.408 . S
C2762 C2760 1.363 . S
C2762 C2763 1.370 . S
C2762 C2766 1.524 . S
C2763 C2755 1.503 . S
C2763 C2762 1.370 . S
C2763 C2764 1.403 . S
C2764 C2763 1.403 . S
C2764 C2765 1.404 . S
C2764 C2767 1.539 . S
C2765 C2761 1.408 . S
C2765 C2764 1.404 . S
C2765 H2777 0.930 . S
C2766 C2762 1.524 . S
C2766 H2778 0.956 . S
C2766 H2779 0.961 . S
C2766 H2780 0.961 . S
C2767 C2764 1.539 . S
C2767 H2781 0.958 . S
C2767 H2782 0.961 . S
C2767 H2783 0.960 . S
H2768 C2752 0.931 . S
H2769 C2757 0.929 . S
H2770 C2758 0.960 . S
H2771 C2758 0.962 . S
H2772 C2758 0.960 . S
H2773 C2759 0.961 1_554 S
H2774 C2759 0.961 . S
H2775 C2759 0.968 . S
H2776 C2760 0.931 . S
H2777 C2765 0.930 . S
H2778 C2766 0.956 . S
H2779 C2766 0.961 . S
H2780 C2766 0.961 . S
H2781 C2767 0.958 . S
H2782 C2767 0.961 . S
H2783 C2767 0.960 . S
C2784 C2785 1.391 . S
C2784 C2786 1.394 . S
C2784 H2800 0.931 . S
C2785 C2784 1.391 . S
C2785 C2789 1.376 . S
C2786 C2784 1.394 . S
C2786 C2787 1.369 . S
C2786 C2790 1.531 . S
C2787 C2786 1.369 . S
C2787 C2788 1.410 . S
C2787 C2795 1.503 . S
C2788 C2787 1.410 . S
C2788 C2789 1.392 . S
C2788 C2791 1.511 . S
C2789 C2785 1.376 . S
C2789 C2788 1.392 . S
C2789 H2801 0.929 . S
C2790 C2786 1.531 . S
C2790 H2802 0.960 . S
C2790 H2803 0.962 . S
C2790 H2804 0.960 . S
C2791 C2788 1.511 . S
C2791 H2805 0.961 . S
C2791 H2806 0.961 . S
C2791 H2807 0.961 . S
C2792 C2793 1.370 . S
C2792 C2794 1.363 . S
C2792 H2808 0.931 . S
C2793 C2792 1.370 . S
C2793 C2797 1.408 . S
C2794 C2792 1.363 . S
C2794 C2795 1.370 . S
C2794 C2798 1.524 . S
C2795 C2787 1.503 . S
C2795 C2794 1.370 . S
C2795 C2796 1.403 . S
C2796 C2795 1.403 . S
C2796 C2797 1.404 . S
C2796 C2799 1.539 . S
C2797 C2793 1.408 . S
C2797 C2796 1.404 . S
C2797 H2809 0.930 . S
C2798 C2794 1.524 . S
C2798 H2810 0.956 . S
C2798 H2811 0.961 . S
C2798 H2812 0.961 . S
C2799 C2796 1.539 . S
C2799 H2813 0.958 . S
C2799 H2814 0.961 . S
C2799 H2815 0.960 . S
H2800 C2784 0.931 . S
H2801 C2789 0.929 . S
H2802 C2790 0.960 . S
H2803 C2790 0.962 . S
H2804 C2790 0.960 . S
H2805 C2791 0.961 . S
H2806 C2791 0.961 . S
H2807 C2791 0.961 . S
H2808 C2792 0.931 . S
H2809 C2797 0.930 . S
H2810 C2798 0.956 . S
H2811 C2798 0.961 . S
H2812 C2798 0.961 . S
H2813 C2799 0.958 . S
H2814 C2799 0.961 . S
H2815 C2799 0.960 . S
C2816 C2817 1.391 . S
C2816 C2818 1.394 . S
C2816 H2832 0.931 . S
C2817 C2816 1.391 . S
C2817 C2821 1.376 . S
C2818 C2816 1.394 . S
C2818 C2819 1.369 . S
C2818 C2822 1.531 . S
C2819 C2818 1.369 . S
C2819 C2820 1.410 . S
C2819 C2827 1.503 . S
C2820 C2819 1.410 . S
C2820 C2821 1.392 . S
C2820 C2823 1.511 . S
C2821 C2817 1.376 . S
C2821 C2820 1.392 . S
C2821 H2833 0.929 . S
C2822 C2818 1.531 . S
C2822 H2834 0.960 . S
C2822 H2835 0.962 . S
C2822 H2836 0.960 . S
C2823 C2820 1.511 . S
C2823 H2837 0.961 . S
C2823 H2838 0.961 . S
C2823 H2839 0.961 . S
C2824 C2825 1.370 . S
C2824 C2826 1.363 . S
C2824 H2840 0.931 . S
C2825 C2824 1.370 . S
C2825 C2829 1.408 . S
C2826 C2824 1.363 . S
C2826 C2827 1.370 . S
C2826 C2830 1.524 . S
C2827 C2819 1.503 . S
C2827 C2826 1.370 . S
C2827 C2828 1.403 . S
C2828 C2827 1.403 . S
C2828 C2829 1.404 . S
C2828 C2831 1.539 . S
C2829 C2825 1.408 . S
C2829 C2828 1.404 . S
C2829 H2841 0.930 . S
C2830 C2826 1.524 . S
C2830 H2842 0.956 . S
C2830 H2843 0.961 . S
C2830 H2844 0.961 . S
C2831 C2828 1.539 . S
C2831 H2845 0.958 . S
C2831 H2846 0.961 . S
C2831 H2847 0.960 . S
H2832 C2816 0.931 . S
H2833 C2821 0.929 . S
H2834 C2822 0.960 . S
H2835 C2822 0.962 . S
H2836 C2822 0.960 . S
H2837 C2823 0.961 . S
H2838 C2823 0.961 . S
H2839 C2823 0.961 . S
H2840 C2824 0.931 . S
H2841 C2829 0.930 . S
H2842 C2830 0.956 . S
H2843 C2830 0.961 . S
H2844 C2830 0.961 . S
H2845 C2831 0.958 . S
H2846 C2831 0.961 . S
H2847 C2831 0.960 . S
C2848 C2849 1.391 . S
C2848 C2850 1.394 . S
C2848 H2864 0.931 . S
C2849 C2848 1.391 . S
C2849 C2853 1.376 . S
C2850 C2848 1.394 . S
C2850 C2851 1.369 . S
C2850 C2854 1.531 . S
C2851 C2850 1.369 . S
C2851 C2852 1.410 . S
C2851 C2859 1.503 . S
C2852 C2851 1.410 . S
C2852 C2853 1.392 . S
C2852 C2855 1.511 . S
C2853 C2849 1.376 . S
C2853 C2852 1.392 . S
C2853 H2865 0.929 . S
C2854 C2850 1.531 . S
C2854 H2866 0.960 . S
C2854 H2867 0.962 . S
C2854 H2868 0.960 . S
C2855 C2852 1.511 . S
C2855 H2869 0.961 . S
C2855 H2870 0.961 . S
C2855 H2871 0.961 . S
C2856 C2857 1.370 . S
C2856 C2858 1.363 . S
C2856 H2872 0.931 . S
C2857 C2856 1.370 . S
C2857 C2861 1.408 . S
C2858 C2856 1.363 . S
C2858 C2859 1.370 . S
C2858 C2862 1.524 . S
C2859 C2851 1.503 . S
C2859 C2858 1.370 . S
C2859 C2860 1.403 . S
C2860 C2859 1.403 . S
C2860 C2861 1.404 . S
C2860 C2863 1.539 . S
C2861 C2857 1.408 . S
C2861 C2860 1.404 . S
C2861 H2873 0.930 . S
C2862 C2858 1.524 . S
C2862 H2874 0.956 . S
C2862 H2875 0.961 . S
C2862 H2876 0.961 . S
C2863 C2860 1.539 . S
C2863 H2877 0.958 . S
C2863 H2878 0.961 . S
C2863 H2879 0.960 . S
H2864 C2848 0.931 . S
H2865 C2853 0.929 . S
H2866 C2854 0.960 . S
H2867 C2854 0.962 . S
H2868 C2854 0.960 . S
H2869 C2855 0.961 . S
H2870 C2855 0.961 . S
H2871 C2855 0.961 . S
H2872 C2856 0.931 . S
H2873 C2861 0.930 . S
H2874 C2862 0.956 . S
H2875 C2862 0.961 . S
H2876 C2862 0.961 . S
H2877 C2863 0.958 . S
H2878 C2863 0.961 . S
H2879 C2863 0.960 . S
C2880 C2881 1.391 . S
C2880 C2882 1.394 . S
C2880 H2896 0.931 . S
C2881 C2880 1.391 . S
C2881 C2885 1.376 . S
C2882 C2880 1.394 . S
C2882 C2883 1.369 . S
C2882 C2886 1.531 . S
C2883 C2882 1.369 . S
C2883 C2884 1.410 . S
C2883 C2891 1.503 . S
C2884 C2883 1.410 . S
C2884 C2885 1.392 . S
C2884 C2887 1.511 . S
C2885 C2881 1.376 . S
C2885 C2884 1.392 . S
C2885 H2897 0.929 . S
C2886 C2882 1.531 . S
C2886 H2898 0.960 . S
C2886 H2899 0.962 . S
C2886 H2900 0.960 . S
C2887 C2884 1.511 . S
C2887 H2901 0.961 . S
C2887 H2902 0.961 . S
C2887 H2903 0.961 . S
C2888 C2889 1.370 . S
C2888 C2890 1.363 . S
C2888 H2904 0.931 . S
C2889 C2888 1.370 . S
C2889 C2893 1.408 . S
C2890 C2888 1.363 . S
C2890 C2891 1.370 . S
C2890 C2894 1.524 . S
C2891 C2883 1.503 . S
C2891 C2890 1.370 . S
C2891 C2892 1.403 . S
C2892 C2891 1.403 . S
C2892 C2893 1.404 . S
C2892 C2895 1.539 . S
C2893 C2889 1.408 . S
C2893 C2892 1.404 . S
C2893 H2905 0.930 . S
C2894 C2890 1.524 . S
C2894 H2906 0.956 . S
C2894 H2907 0.961 . S
C2894 H2908 0.961 . S
C2895 C2892 1.539 . S
C2895 H2909 0.958 . S
C2895 H2910 0.961 . S
C2895 H2911 0.960 . S
H2896 C2880 0.931 . S
H2897 C2885 0.929 . S
H2898 C2886 0.960 . S
H2899 C2886 0.962 . S
H2900 C2886 0.960 . S
H2901 C2887 0.961 . S
H2902 C2887 0.961 . S
H2903 C2887 0.961 . S
H2904 C2888 0.931 . S
H2905 C2893 0.930 . S
H2906 C2894 0.956 . S
H2907 C2894 0.961 . S
H2908 C2894 0.961 . S
H2909 C2895 0.958 . S
H2910 C2895 0.961 . S
H2911 C2895 0.960 . S
C2912 C2913 1.391 . S
C2912 C2914 1.394 . S
C2912 H2928 0.931 . S
C2913 C2912 1.391 . S
C2913 C2917 1.376 . S
C2914 C2912 1.394 . S
C2914 C2915 1.369 . S
C2914 C2918 1.531 . S
C2915 C2914 1.369 . S
C2915 C2916 1.410 . S
C2915 C2923 1.503 . S
C2916 C2915 1.410 . S
C2916 C2917 1.392 . S
C2916 C2919 1.511 . S
C2917 C2913 1.376 . S
C2917 C2916 1.392 . S
C2917 H2929 0.929 . S
C2918 C2914 1.531 . S
C2918 H2930 0.960 . S
C2918 H2931 0.962 . S
C2918 H2932 0.960 . S
C2919 C2916 1.511 . S
C2919 H2933 0.961 . S
C2919 H2934 0.961 . S
C2919 H2935 0.961 . S
C2920 C2921 1.370 . S
C2920 C2922 1.363 . S
C2920 H2936 0.931 . S
C2921 C2920 1.370 . S
C2921 C2925 1.408 . S
C2922 C2920 1.363 . S
C2922 C2923 1.370 . S
C2922 C2926 1.524 . S
C2923 C2915 1.503 . S
C2923 C2922 1.370 . S
C2923 C2924 1.403 . S
C2924 C2923 1.403 . S
C2924 C2925 1.404 . S
C2924 C2927 1.539 . S
C2925 C2921 1.408 . S
C2925 C2924 1.404 . S
C2925 H2937 0.930 . S
C2926 C2922 1.524 . S
C2926 H2938 0.956 . S
C2926 H2939 0.961 . S
C2926 H2940 0.961 . S
C2927 C2924 1.539 . S
C2927 H2941 0.958 . S
C2927 H2942 0.961 . S
C2927 H2943 0.960 . S
H2928 C2912 0.931 . S
H2929 C2917 0.929 . S
H2930 C2918 0.960 . S
H2931 C2918 0.962 . S
H2932 C2918 0.960 . S
H2933 C2919 0.961 . S
H2934 C2919 0.961 . S
H2935 C2919 0.961 . S
H2936 C2920 0.931 . S
H2937 C2925 0.930 . S
H2938 C2926 0.956 . S
H2939 C2926 0.961 . S
H2940 C2926 0.961 . S
H2941 C2927 0.958 . S
H2942 C2927 0.961 . S
H2943 C2927 0.960 . S
C2944 C2945 1.391 . S
C2944 C2946 1.394 . S
C2944 H2960 0.931 . S
C2945 C2944 1.391 . S
C2945 C2949 1.376 . S
C2946 C2944 1.394 . S
C2946 C2947 1.369 . S
C2946 C2950 1.531 . S
C2947 C2946 1.369 . S
C2947 C2948 1.410 . S
C2947 C2955 1.503 . S
C2948 C2947 1.410 . S
C2948 C2949 1.392 . S
C2948 C2951 1.511 . S
C2949 C2945 1.376 . S
C2949 C2948 1.392 . S
C2949 H2961 0.929 . S
C2950 C2946 1.531 . S
C2950 H2962 0.960 . S
C2950 H2963 0.962 . S
C2950 H2964 0.960 . S
C2951 C2948 1.511 . S
C2951 H2965 0.961 . S
C2951 H2966 0.961 . S
C2951 H2967 0.961 . S
C2952 C2953 1.370 . S
C2952 C2954 1.363 . S
C2952 H2968 0.931 . S
C2953 C2952 1.370 . S
C2953 C2957 1.408 . S
C2954 C2952 1.363 . S
C2954 C2955 1.370 . S
C2954 C2958 1.524 . S
C2955 C2947 1.503 . S
C2955 C2954 1.370 . S
C2955 C2956 1.403 . S
C2956 C2955 1.403 . S
C2956 C2957 1.404 . S
C2956 C2959 1.539 . S
C2957 C2953 1.408 . S
C2957 C2956 1.404 . S
C2957 H2969 0.930 . S
C2958 C2954 1.524 . S
C2958 H2970 0.956 . S
C2958 H2971 0.961 . S
C2958 H2972 0.961 . S
C2959 C2956 1.539 . S
C2959 H2973 0.958 . S
C2959 H2974 0.961 . S
C2959 H2975 0.960 . S
H2960 C2944 0.931 . S
H2961 C2949 0.929 . S
H2962 C2950 0.960 . S
H2963 C2950 0.962 . S
H2964 C2950 0.960 . S
H2965 C2951 0.961 . S
H2966 C2951 0.961 . S
H2967 C2951 0.961 . S
H2968 C2952 0.931 . S
H2969 C2957 0.930 . S
H2970 C2958 0.956 . S
H2971 C2958 0.961 . S
H2972 C2958 0.961 . S
H2973 C2959 0.958 . S
H2974 C2959 0.961 . S
H2975 C2959 0.960 . S
C2976 C2977 1.391 . S
C2976 C2978 1.394 . S
C2976 H2992 0.931 . S
C2977 C2976 1.391 . S
C2977 C2981 1.376 . S
C2978 C2976 1.394 . S
C2978 C2979 1.369 1_556 S
C2978 C2982 1.531 1_556 S
C2979 C2978 1.369 1_554 S
C2979 C2980 1.410 1_554 S
C2979 C2987 1.503 . S
C2980 C2979 1.410 1_556 S
C2980 C2981 1.392 . S
C2980 C2983 1.511 . S
C2981 C2977 1.376 . S
C2981 C2980 1.392 . S
C2981 H2993 0.929 . S
C2982 C2978 1.531 1_554 S
C2982 H2994 0.960 . S
C2982 H2995 0.962 . S
C2982 H2996 0.960 . S
C2983 C2980 1.511 . S
C2983 H2997 0.961 . S
C2983 H2998 0.961 1_556 S
C2983 H2999 0.961 . S
C2984 C2985 1.370 . S
C2984 C2986 1.363 . S
C2984 H3000 0.931 . S
C2985 C2984 1.370 . S
C2985 C2989 1.408 . S
C2986 C2984 1.363 . S
C2986 C2987 1.370 . S
C2986 C2990 1.524 . S
C2987 C2979 1.503 . S
C2987 C2986 1.370 . S
C2987 C2988 1.403 . S
C2988 C2987 1.403 . S
C2988 C2989 1.404 . S
C2988 C2991 1.539 . S
C2989 C2985 1.408 . S
C2989 C2988 1.404 . S
C2989 H3001 0.930 . S
C2990 C2986 1.524 . S
C2990 H3002 0.956 . S
C2990 H3003 0.961 1_554 S
C2990 H3004 0.961 . S
C2991 C2988 1.539 . S
C2991 H3005 0.958 . S
C2991 H3006 0.961 . S
C2991 H3007 0.960 . S
H2992 C2976 0.931 . S
H2993 C2981 0.929 . S
H2994 C2982 0.960 . S
H2995 C2982 0.962 . S
H2996 C2982 0.960 . S
H2997 C2983 0.961 . S
H2998 C2983 0.961 1_554 S
H2999 C2983 0.961 . S
H3000 C2984 0.931 . S
H3001 C2989 0.930 . S
H3002 C2990 0.956 . S
H3003 C2990 0.961 1_556 S
H3004 C2990 0.961 . S
H3005 C2991 0.958 . S
H3006 C2991 0.961 . S
H3007 C2991 0.960 . S
C3008 C3009 1.391 . S
C3008 C3010 1.394 . S
C3008 H3024 0.931 . S
C3009 C3008 1.391 . S
C3009 C3013 1.376 . S
C3010 C3008 1.394 . S
C3010 C3011 1.369 . S
C3010 C3014 1.531 1_556 S
C3011 C3010 1.369 . S
C3011 C3012 1.410 . S
C3011 C3019 1.503 1_556 S
C3012 C3011 1.410 . S
C3012 C3013 1.392 . S
C3012 C3015 1.511 . S
C3013 C3009 1.376 . S
C3013 C3012 1.392 . S
C3013 H3025 0.929 . S
C3014 C3010 1.531 1_554 S
C3014 H3026 0.960 . S
C3014 H3027 0.962 . S
C3014 H3028 0.960 1_554 S
C3015 C3012 1.511 . S
C3015 H3029 0.961 . S
C3015 H3030 0.961 1_556 S
C3015 H3031 0.961 . S
C3016 C3017 1.370 . S
C3016 C3018 1.363 . S
C3016 H3032 0.931 . S
C3017 C3016 1.370 . S
C3017 C3021 1.408 . S
C3018 C3016 1.363 . S
C3018 C3019 1.370 . S
C3018 C3022 1.524 . S
C3019 C3011 1.503 1_554 S
C3019 C3018 1.370 . S
C3019 C3020 1.403 . S
C3020 C3019 1.403 . S
C3020 C3021 1.404 . S
C3020 C3023 1.539 . S
C3021 C3017 1.408 . S
C3021 C3020 1.404 . S
C3021 H3033 0.930 . S
C3022 C3018 1.524 . S
C3022 H3034 0.956 . S
C3022 H3035 0.961 . S
C3022 H3036 0.961 . S
C3023 C3020 1.539 . S
C3023 H3037 0.958 . S
C3023 H3038 0.961 . S
C3023 H3039 0.960 1_554 S
H3024 C3008 0.931 . S
H3025 C3013 0.929 . S
H3026 C3014 0.960 . S
H3027 C3014 0.962 . S
H3028 C3014 0.960 1_556 S
H3029 C3015 0.961 . S
H3030 C3015 0.961 1_554 S
H3031 C3015 0.961 . S
H3032 C3016 0.931 . S
H3033 C3021 0.930 . S
H3034 C3022 0.956 . S
H3035 C3022 0.961 . S
H3036 C3022 0.961 . S
H3037 C3023 0.958 . S
H3038 C3023 0.961 . S
H3039 C3023 0.960 1_556 S
C3040 C3041 1.391 . S
C3040 C3042 1.394 . S
C3040 H3056 0.931 . S
C3041 C3040 1.391 . S
C3041 C3045 1.376 . S
C3042 C3040 1.394 . S
C3042 C3043 1.369 1_556 S
C3042 C3046 1.531 . S
C3043 C3042 1.369 1_554 S
C3043 C3044 1.410 1_554 S
C3043 C3051 1.503 . S
C3044 C3043 1.410 1_556 S
C3044 C3045 1.392 . S
C3044 C3047 1.511 1_556 S
C3045 C3041 1.376 . S
C3045 C3044 1.392 . S
C3045 H3057 0.929 . S
C3046 C3042 1.531 . S
C3046 H3058 0.960 1_556 S
C3046 H3059 0.962 . S
C3046 H3060 0.960 . S
C3047 C3044 1.511 1_554 S
C3047 H3061 0.961 . S
C3047 H3062 0.961 . S
C3047 H3063 0.961 . S
C3048 C3049 1.370 . S
C3048 C3050 1.363 . S
C3048 H3064 0.931 . S
C3049 C3048 1.370 . S
C3049 C3053 1.408 . S
C3050 C3048 1.363 . S
C3050 C3051 1.370 . S
C3050 C3054 1.524 . S
C3051 C3043 1.503 . S
C3051 C3050 1.370 . S
C3051 C3052 1.403 . S
C3052 C3051 1.403 . S
C3052 C3053 1.404 . S
C3052 C3055 1.539 . S
C3053 C3049 1.408 . S
C3053 C3052 1.404 . S
C3053 H3065 0.930 . S
C3054 C3050 1.524 . S
C3054 H3066 0.956 1_554 S
C3054 H3067 0.961 1_554 S
C3054 H3068 0.961 . S
C3055 C3052 1.539 . S
C3055 H3069 0.958 . S
C3055 H3070 0.961 . S
C3055 H3071 0.960 . S
H3056 C3040 0.931 . S
H3057 C3045 0.929 . S
H3058 C3046 0.960 1_554 S
H3059 C3046 0.962 . S
H3060 C3046 0.960 . S
H3061 C3047 0.961 . S
H3062 C3047 0.961 . S
H3063 C3047 0.961 . S
H3064 C3048 0.931 . S
H3065 C3053 0.930 . S
H3066 C3054 0.956 1_556 S
H3067 C3054 0.961 1_556 S
H3068 C3054 0.961 . S
H3069 C3055 0.958 . S
H3070 C3055 0.961 . S
H3071 C3055 0.960 . S
C3072 C3073 1.391 . S
C3072 C3074 1.394 . S
C3072 H3088 0.931 . S
C3073 C3072 1.391 . S
C3073 C3077 1.376 . S
C3074 C3072 1.394 . S
C3074 C3075 1.369 . S
C3074 C3078 1.531 . S
C3075 C3074 1.369 . S
C3075 C3076 1.410 . S
C3075 C3083 1.503 . S
C3076 C3075 1.410 . S
C3076 C3077 1.392 . S
C3076 C3079 1.511 . S
C3077 C3073 1.376 . S
C3077 C3076 1.392 . S
C3077 H3089 0.929 . S
C3078 C3074 1.531 . S
C3078 H3090 0.960 . S
C3078 H3091 0.962 . S
C3078 H3092 0.960 . S
C3079 C3076 1.511 . S
C3079 H3093 0.961 . S
C3079 H3094 0.961 . S
C3079 H3095 0.961 . S
C3080 C3081 1.370 . S
C3080 C3082 1.363 . S
C3080 H3096 0.931 . S
C3081 C3080 1.370 . S
C3081 C3085 1.408 . S
C3082 C3080 1.363 . S
C3082 C3083 1.370 . S
C3082 C3086 1.524 . S
C3083 C3075 1.503 . S
C3083 C3082 1.370 . S
C3083 C3084 1.403 . S
C3084 C3083 1.403 . S
C3084 C3085 1.404 . S
C3084 C3087 1.539 . S
C3085 C3081 1.408 . S
C3085 C3084 1.404 . S
C3085 H3097 0.930 . S
C3086 C3082 1.524 . S
C3086 H3098 0.956 . S
C3086 H3099 0.961 . S
C3086 H3100 0.961 . S
C3087 C3084 1.539 . S
C3087 H3101 0.958 . S
C3087 H3102 0.961 . S
C3087 H3103 0.960 . S
H3088 C3072 0.931 . S
H3089 C3077 0.929 . S
H3090 C3078 0.960 . S
H3091 C3078 0.962 . S
H3092 C3078 0.960 . S
H3093 C3079 0.961 . S
H3094 C3079 0.961 . S
H3095 C3079 0.961 . S
H3096 C3080 0.931 . S
H3097 C3085 0.930 . S
H3098 C3086 0.956 . S
H3099 C3086 0.961 . S
H3100 C3086 0.961 . S
H3101 C3087 0.958 . S
H3102 C3087 0.961 . S
H3103 C3087 0.960 . S
C3104 C3105 1.391 . S
C3104 C3106 1.394 . S
C3104 H3120 0.931 . S
C3105 C3104 1.391 . S
C3105 C3109 1.376 . S
C3106 C3104 1.394 . S
C3106 C3107 1.369 . S
C3106 C3110 1.531 . S
C3107 C3106 1.369 . S
C3107 C3108 1.410 . S
C3107 C3115 1.503 . S
C3108 C3107 1.410 . S
C3108 C3109 1.392 . S
C3108 C3111 1.511 . S
C3109 C3105 1.376 . S
C3109 C3108 1.392 . S
C3109 H3121 0.929 . S
C3110 C3106 1.531 . S
C3110 H3122 0.960 . S
C3110 H3123 0.962 . S
C3110 H3124 0.960 . S
C3111 C3108 1.511 . S
C3111 H3125 0.961 . S
C3111 H3126 0.961 . S
C3111 H3127 0.961 . S
C3112 C3113 1.370 . S
C3112 C3114 1.363 . S
C3112 H3128 0.931 . S
C3113 C3112 1.370 . S
C3113 C3117 1.408 . S
C3114 C3112 1.363 . S
C3114 C3115 1.370 . S
C3114 C3118 1.524 . S
C3115 C3107 1.503 . S
C3115 C3114 1.370 . S
C3115 C3116 1.403 . S
C3116 C3115 1.403 . S
C3116 C3117 1.404 . S
C3116 C3119 1.539 . S
C3117 C3113 1.408 . S
C3117 C3116 1.404 . S
C3117 H3129 0.930 . S
C3118 C3114 1.524 . S
C3118 H3130 0.956 . S
C3118 H3131 0.961 . S
C3118 H3132 0.961 . S
C3119 C3116 1.539 . S
C3119 H3133 0.958 . S
C3119 H3134 0.961 . S
C3119 H3135 0.960 . S
H3120 C3104 0.931 . S
H3121 C3109 0.929 . S
H3122 C3110 0.960 . S
H3123 C3110 0.962 . S
H3124 C3110 0.960 . S
H3125 C3111 0.961 . S
H3126 C3111 0.961 . S
H3127 C3111 0.961 . S
H3128 C3112 0.931 . S
H3129 C3117 0.930 . S
H3130 C3118 0.956 . S
H3131 C3118 0.961 . S
H3132 C3118 0.961 . S
H3133 C3119 0.958 . S
H3134 C3119 0.961 . S
H3135 C3119 0.960 . S
C3136 C3137 1.391 . S
C3136 C3138 1.394 . S
C3136 H3152 0.931 . S
C3137 C3136 1.391 . S
C3137 C3141 1.376 . S
C3138 C3136 1.394 . S
C3138 C3139 1.369 . S
C3138 C3142 1.531 . S
C3139 C3138 1.369 . S
C3139 C3140 1.410 . S
C3139 C3147 1.503 . S
C3140 C3139 1.410 . S
C3140 C3141 1.392 . S
C3140 C3143 1.511 . S
C3141 C3137 1.376 . S
C3141 C3140 1.392 . S
C3141 H3153 0.929 . S
C3142 C3138 1.531 . S
C3142 H3154 0.960 . S
C3142 H3155 0.962 . S
C3142 H3156 0.960 . S
C3143 C3140 1.511 . S
C3143 H3157 0.961 . S
C3143 H3158 0.961 . S
C3143 H3159 0.961 . S
C3144 C3145 1.370 . S
C3144 C3146 1.363 . S
C3144 H3160 0.931 . S
C3145 C3144 1.370 . S
C3145 C3149 1.408 . S
C3146 C3144 1.363 . S
C3146 C3147 1.370 . S
C3146 C3150 1.524 . S
C3147 C3139 1.503 . S
C3147 C3146 1.370 . S
C3147 C3148 1.403 . S
C3148 C3147 1.403 . S
C3148 C3149 1.404 . S
C3148 C3151 1.539 . S
C3149 C3145 1.408 . S
C3149 C3148 1.404 . S
C3149 H3161 0.930 . S
C3150 C3146 1.524 . S
C3150 H3162 0.956 . S
C3150 H3163 0.961 . S
C3150 H3164 0.961 . S
C3151 C3148 1.539 . S
C3151 H3165 0.958 . S
C3151 H3166 0.961 . S
C3151 H3167 0.960 . S
H3152 C3136 0.931 . S
H3153 C3141 0.929 . S
H3154 C3142 0.960 . S
H3155 C3142 0.962 . S
H3156 C3142 0.960 . S
H3157 C3143 0.961 . S
H3158 C3143 0.961 . S
H3159 C3143 0.961 . S
H3160 C3144 0.931 . S
H3161 C3149 0.930 . S
H3162 C3150 0.956 . S
H3163 C3150 0.961 . S
H3164 C3150 0.961 . S
H3165 C3151 0.958 . S
H3166 C3151 0.961 . S
H3167 C3151 0.960 . S
C3168 C3169 1.391 . S
C3168 C3170 1.394 . S
C3168 H3184 0.931 . S
C3169 C3168 1.391 . S
C3169 C3173 1.376 . S
C3170 C3168 1.394 . S
C3170 C3171 1.369 . S
C3170 C3174 1.531 . S
C3171 C3170 1.369 . S
C3171 C3172 1.410 . S
C3171 C3179 1.503 . S
C3172 C3171 1.410 . S
C3172 C3173 1.392 . S
C3172 C3175 1.511 . S
C3173 C3169 1.376 . S
C3173 C3172 1.392 . S
C3173 H3185 0.929 . S
C3174 C3170 1.531 . S
C3174 H3186 0.960 . S
C3174 H3187 0.962 . S
C3174 H3188 0.960 . S
C3175 C3172 1.511 . S
C3175 H3189 0.961 . S
C3175 H3190 0.961 . S
C3175 H3191 0.961 . S
C3176 C3177 1.370 . S
C3176 C3178 1.363 . S
C3176 H3192 0.931 . S
C3177 C3176 1.370 . S
C3177 C3181 1.408 . S
C3178 C3176 1.363 . S
C3178 C3179 1.370 . S
C3178 C3182 1.524 . S
C3179 C3171 1.503 . S
C3179 C3178 1.370 . S
C3179 C3180 1.403 . S
C3180 C3179 1.403 . S
C3180 C3181 1.404 . S
C3180 C3183 1.539 . S
C3181 C3177 1.408 . S
C3181 C3180 1.404 . S
C3181 H3193 0.930 . S
C3182 C3178 1.524 . S
C3182 H3194 0.956 . S
C3182 H3195 0.961 . S
C3182 H3196 0.961 . S
C3183 C3180 1.539 . S
C3183 H3197 0.958 . S
C3183 H3198 0.961 . S
C3183 H3199 0.960 . S
H3184 C3168 0.931 . S
H3185 C3173 0.929 . S
H3186 C3174 0.960 . S
H3187 C3174 0.962 . S
H3188 C3174 0.960 . S
H3189 C3175 0.961 . S
H3190 C3175 0.961 . S
H3191 C3175 0.961 . S
H3192 C3176 0.931 . S
H3193 C3181 0.930 . S
H3194 C3182 0.956 . S
H3195 C3182 0.961 . S
H3196 C3182 0.961 . S
H3197 C3183 0.958 . S
H3198 C3183 0.961 . S
H3199 C3183 0.960 . S
C3200 C3201 1.391 . S
C3200 C3202 1.394 . S
C3200 H3216 0.931 . S
C3201 C3200 1.391 . S
C3201 C3205 1.376 . S
C3202 C3200 1.394 . S
C3202 C3203 1.369 . S
C3202 C3206 1.531 . S
C3203 C3202 1.369 . S
C3203 C3204 1.410 . S
C3203 C3211 1.503 . S
C3204 C3203 1.410 . S
C3204 C3205 1.392 . S
C3204 C3207 1.511 . S
C3205 C3201 1.376 . S
C3205 C3204 1.392 . S
C3205 H3217 0.929 . S
C3206 C3202 1.531 . S
C3206 H3218 0.960 . S
C3206 H3219 0.962 . S
C3206 H3220 0.960 . S
C3207 C3204 1.511 . S
C3207 H3221 0.961 . S
C3207 H3222 0.961 . S
C3207 H3223 0.961 . S
C3208 C3209 1.370 . S
C3208 C3210 1.363 . S
C3208 H3224 0.931 . S
C3209 C3208 1.370 . S
C3209 C3213 1.408 . S
C3210 C3208 1.363 . S
C3210 C3211 1.370 . S
C3210 C3214 1.524 . S
C3211 C3203 1.503 . S
C3211 C3210 1.370 . S
C3211 C3212 1.403 . S
C3212 C3211 1.403 . S
C3212 C3213 1.404 . S
C3212 C3215 1.539 . S
C3213 C3209 1.408 . S
C3213 C3212 1.404 . S
C3213 H3225 0.930 . S
C3214 C3210 1.524 . S
C3214 H3226 0.956 . S
C3214 H3227 0.961 . S
C3214 H3228 0.961 . S
C3215 C3212 1.539 . S
C3215 H3229 0.958 . S
C3215 H3230 0.961 . S
C3215 H3231 0.960 . S
H3216 C3200 0.931 . S
H3217 C3205 0.929 . S
H3218 C3206 0.960 . S
H3219 C3206 0.962 . S
H3220 C3206 0.960 . S
H3221 C3207 0.961 . S
H3222 C3207 0.961 . S
H3223 C3207 0.961 . S
H3224 C3208 0.931 . S
H3225 C3213 0.930 . S
H3226 C3214 0.956 . S
H3227 C3214 0.961 . S
H3228 C3214 0.961 . S
H3229 C3215 0.958 . S
H3230 C3215 0.961 . S
H3231 C3215 0.960 . S
C3232 C3233 1.391 . S
C3232 C3234 1.394 . S
C3232 H3248 0.931 . S
C3233 C3232 1.391 . S
C3233 C3237 1.376 . S
C3234 C3232 1.394 . S
C3234 C3235 1.369 . S
C3234 C3238 1.531 . S
C3235 C3234 1.369 . S
C3235 C3236 1.410 . S
C3235 C3243 1.503 . S
C3236 C3235 1.410 . S
C3236 C3237 1.392 . S
C3236 C3239 1.511 . S
C3237 C3233 1.376 . S
C3237 C3236 1.392 . S
C3237 H3249 0.929 . S
C3238 C3234 1.531 . S
C3238 H3250 0.960 . S
C3238 H3251 0.962 . S
C3238 H3252 0.960 . S
C3239 C3236 1.511 . S
C3239 H3253 0.961 . S
C3239 H3254 0.961 . S
C3239 H3255 0.961 . S
C3240 C3241 1.370 . S
C3240 C3242 1.363 . S
C3240 H3256 0.931 . S
C3241 C3240 1.370 . S
C3241 C3245 1.408 . S
C3242 C3240 1.363 . S
C3242 C3243 1.370 . S
C3242 C3246 1.524 . S
C3243 C3235 1.503 . S
C3243 C3242 1.370 . S
C3243 C3244 1.403 . S
C3244 C3243 1.403 . S
C3244 C3245 1.404 . S
C3244 C3247 1.539 . S
C3245 C3241 1.408 . S
C3245 C3244 1.404 . S
C3245 H3257 0.930 . S
C3246 C3242 1.524 . S
C3246 H3258 0.956 . S
C3246 H3259 0.961 . S
C3246 H3260 0.961 . S
C3247 C3244 1.539 . S
C3247 H3261 0.958 . S
C3247 H3262 0.961 . S
C3247 H3263 0.960 . S
H3248 C3232 0.931 . S
H3249 C3237 0.929 . S
H3250 C3238 0.960 . S
H3251 C3238 0.962 . S
H3252 C3238 0.960 . S
H3253 C3239 0.961 . S
H3254 C3239 0.961 . S
H3255 C3239 0.961 . S
H3256 C3240 0.931 . S
H3257 C3245 0.930 . S
H3258 C3246 0.956 . S
H3259 C3246 0.961 . S
H3260 C3246 0.961 . S
H3261 C3247 0.958 . S
H3262 C3247 0.961 . S
H3263 C3247 0.960 . S
C3264 C3265 1.391 . S
C3264 C3266 1.394 . S
C3264 H3280 0.931 . S
C3265 C3264 1.391 . S
C3265 C3269 1.376 . S
C3266 C3264 1.394 . S
C3266 C3267 1.369 . S
C3266 C3270 1.531 . S
C3267 C3266 1.369 . S
C3267 C3268 1.410 . S
C3267 C3275 1.503 . S
C3268 C3267 1.410 . S
C3268 C3269 1.392 . S
C3268 C3271 1.511 . S
C3269 C3265 1.376 . S
C3269 C3268 1.392 . S
C3269 H3281 0.929 . S
C3270 C3266 1.531 . S
C3270 H3282 0.960 . S
C3270 H3283 0.962 . S
C3270 H3284 0.960 . S
C3271 C3268 1.511 . S
C3271 H3285 0.961 . S
C3271 H3286 0.961 . S
C3271 H3287 0.961 . S
C3272 C3273 1.370 . S
C3272 C3274 1.363 . S
C3272 H3288 0.931 . S
C3273 C3272 1.370 . S
C3273 C3277 1.408 . S
C3274 C3272 1.363 . S
C3274 C3275 1.370 . S
C3274 C3278 1.524 . S
C3275 C3267 1.503 . S
C3275 C3274 1.370 . S
C3275 C3276 1.403 . S
C3276 C3275 1.403 . S
C3276 C3277 1.404 . S
C3276 C3279 1.539 . S
C3277 C3273 1.408 . S
C3277 C3276 1.404 . S
C3277 H3289 0.930 . S
C3278 C3274 1.524 . S
C3278 H3290 0.956 . S
C3278 H3291 0.961 . S
C3278 H3292 0.961 . S
C3279 C3276 1.539 . S
C3279 H3293 0.958 . S
C3279 H3294 0.961 . S
C3279 H3295 0.960 . S
H3280 C3264 0.931 . S
H3281 C3269 0.929 . S
H3282 C3270 0.960 . S
H3283 C3270 0.962 . S
H3284 C3270 0.960 . S
H3285 C3271 0.961 . S
H3286 C3271 0.961 . S
H3287 C3271 0.961 . S
H3288 C3272 0.931 . S
H3289 C3277 0.930 . S
H3290 C3278 0.956 . S
H3291 C3278 0.961 . S
H3292 C3278 0.961 . S
H3293 C3279 0.958 . S
H3294 C3279 0.961 . S
H3295 C3279 0.960 . S
C3296 C3297 1.391 . S
C3296 C3298 1.394 . S
C3296 H3312 0.931 . S
C3297 C3296 1.391 . S
C3297 C3301 1.376 . S
C3298 C3296 1.394 . S
C3298 C3299 1.369 . S
C3298 C3302 1.531 . S
C3299 C3298 1.369 . S
C3299 C3300 1.410 . S
C3299 C3307 1.503 . S
C3300 C3299 1.410 . S
C3300 C3301 1.392 . S
C3300 C3303 1.511 . S
C3301 C3297 1.376 . S
C3301 C3300 1.392 . S
C3301 H3313 0.929 . S
C3302 C3298 1.531 . S
C3302 H3314 0.960 . S
C3302 H3315 0.962 . S
C3302 H3316 0.960 . S
C3303 C3300 1.511 . S
C3303 H3317 0.961 . S
C3303 H3318 0.961 . S
C3303 H3319 0.961 . S
C3304 C3305 1.370 . S
C3304 C3306 1.363 . S
C3304 H3320 0.931 . S
C3305 C3304 1.370 . S
C3305 C3309 1.408 . S
C3306 C3304 1.363 . S
C3306 C3307 1.370 . S
C3306 C3310 1.524 . S
C3307 C3299 1.503 . S
C3307 C3306 1.370 . S
C3307 C3308 1.403 . S
C3308 C3307 1.403 . S
C3308 C3309 1.404 . S
C3308 C3311 1.539 . S
C3309 C3305 1.408 . S
C3309 C3308 1.404 . S
C3309 H3321 0.930 . S
C3310 C3306 1.524 . S
C3310 H3322 0.956 . S
C3310 H3323 0.961 . S
C3310 H3324 0.961 . S
C3311 C3308 1.539 . S
C3311 H3325 0.958 . S
C3311 H3326 0.961 . S
C3311 H3327 0.960 . S
H3312 C3296 0.931 . S
H3313 C3301 0.929 . S
H3314 C3302 0.960 . S
H3315 C3302 0.962 . S
H3316 C3302 0.960 . S
H3317 C3303 0.961 . S
H3318 C3303 0.961 . S
H3319 C3303 0.961 . S
H3320 C3304 0.931 . S
H3321 C3309 0.930 . S
H3322 C3310 0.956 . S
H3323 C3310 0.961 . S
H3324 C3310 0.961 . S
H3325 C3311 0.958 . S
H3326 C3311 0.961 . S
H3327 C3311 0.960 . S
C3328 C3329 1.391 . S
C3328 C3330 1.394 . S
C3328 H3344 0.931 . S
C3329 C3328 1.391 . S
C3329 C3333 1.376 . S
C3330 C3328 1.394 . S
C3330 C3331 1.369 . S
C3330 C3334 1.531 . S
C3331 C3330 1.369 . S
C3331 C3332 1.410 . S
C3331 C3339 1.503 . S
C3332 C3331 1.410 . S
C3332 C3333 1.392 . S
C3332 C3335 1.511 . S
C3333 C3329 1.376 . S
C3333 C3332 1.392 . S
C3333 H3345 0.929 . S
C3334 C3330 1.531 . S
C3334 H3346 0.960 . S
C3334 H3347 0.962 . S
C3334 H3348 0.960 . S
C3335 C3332 1.511 . S
C3335 H3349 0.961 . S
C3335 H3350 0.961 . S
C3335 H3351 0.961 . S
C3336 C3337 1.370 . S
C3336 C3338 1.363 . S
C3336 H3352 0.931 . S
C3337 C3336 1.370 . S
C3337 C3341 1.408 . S
C3338 C3336 1.363 . S
C3338 C3339 1.370 . S
C3338 C3342 1.524 . S
C3339 C3331 1.503 . S
C3339 C3338 1.370 . S
C3339 C3340 1.403 . S
C3340 C3339 1.403 . S
C3340 C3341 1.404 . S
C3340 C3343 1.539 . S
C3341 C3337 1.408 . S
C3341 C3340 1.404 . S
C3341 H3353 0.930 . S
C3342 C3338 1.524 . S
C3342 H3354 0.956 . S
C3342 H3355 0.961 . S
C3342 H3356 0.961 . S
C3343 C3340 1.539 . S
C3343 H3357 0.958 . S
C3343 H3358 0.961 . S
C3343 H3359 0.960 . S
H3344 C3328 0.931 . S
H3345 C3333 0.929 . S
H3346 C3334 0.960 . S
H3347 C3334 0.962 . S
H3348 C3334 0.960 . S
H3349 C3335 0.961 . S
H3350 C3335 0.961 . S
H3351 C3335 0.961 . S
H3352 C3336 0.931 . S
H3353 C3341 0.930 . S
H3354 C3342 0.956 . S
H3355 C3342 0.961 . S
H3356 C3342 0.961 . S
H3357 C3343 0.958 . S
H3358 C3343 0.961 . S
H3359 C3343 0.960 . S
C3360 C3361 1.391 . S
C3360 C3362 1.394 . S
C3360 H3376 0.931 . S
C3361 C3360 1.391 . S
C3361 C3365 1.376 . S
C3362 C3360 1.394 . S
C3362 C3363 1.369 . S
C3362 C3366 1.531 . S
C3363 C3362 1.369 . S
C3363 C3364 1.410 . S
C3363 C3371 1.503 . S
C3364 C3363 1.410 . S
C3364 C3365 1.392 . S
C3364 C3367 1.511 . S
C3365 C3361 1.376 . S
C3365 C3364 1.392 . S
C3365 H3377 0.929 . S
C3366 C3362 1.531 . S
C3366 H3378 0.960 . S
C3366 H3379 0.962 . S
C3366 H3380 0.960 . S
C3367 C3364 1.511 . S
C3367 H3381 0.961 . S
C3367 H3382 0.961 . S
C3367 H3383 0.961 . S
C3368 C3369 1.370 . S
C3368 C3370 1.363 . S
C3368 H3384 0.931 . S
C3369 C3368 1.370 . S
C3369 C3373 1.408 . S
C3370 C3368 1.363 . S
C3370 C3371 1.370 . S
C3370 C3374 1.524 . S
C3371 C3363 1.503 . S
C3371 C3370 1.370 . S
C3371 C3372 1.403 . S
C3372 C3371 1.403 . S
C3372 C3373 1.404 . S
C3372 C3375 1.539 . S
C3373 C3369 1.408 . S
C3373 C3372 1.404 . S
C3373 H3385 0.930 . S
C3374 C3370 1.524 . S
C3374 H3386 0.956 . S
C3374 H3387 0.961 . S
C3374 H3388 0.961 . S
C3375 C3372 1.539 . S
C3375 H3389 0.958 . S
C3375 H3390 0.961 . S
C3375 H3391 0.960 . S
H3376 C3360 0.931 . S
H3377 C3365 0.929 . S
H3378 C3366 0.960 . S
H3379 C3366 0.962 . S
H3380 C3366 0.960 . S
H3381 C3367 0.961 . S
H3382 C3367 0.961 . S
H3383 C3367 0.961 . S
H3384 C3368 0.931 . S
H3385 C3373 0.930 . S
H3386 C3374 0.956 . S
H3387 C3374 0.961 . S
H3388 C3374 0.961 . S
H3389 C3375 0.958 . S
H3390 C3375 0.961 . S
H3391 C3375 0.960 . S
C3392 C3393 1.391 . S
C3392 C3394 1.394 . S
C3392 H3408 0.931 . S
C3393 C3392 1.391 . S
C3393 C3397 1.376 . S
C3394 C3392 1.394 . S
C3394 C3395 1.369 . S
C3394 C3398 1.531 . S
C3395 C3394 1.369 . S
C3395 C3396 1.410 . S
C3395 C3403 1.503 . S
C3396 C3395 1.410 . S
C3396 C3397 1.392 . S
C3396 C3399 1.511 . S
C3397 C3393 1.376 . S
C3397 C3396 1.392 . S
C3397 H3409 0.929 . S
C3398 C3394 1.531 . S
C3398 H3410 0.960 . S
C3398 H3411 0.962 . S
C3398 H3412 0.960 . S
C3399 C3396 1.511 . S
C3399 H3413 0.961 . S
C3399 H3414 0.961 . S
C3399 H3415 0.961 . S
C3400 C3401 1.370 . S
C3400 C3402 1.363 . S
C3400 H3416 0.931 . S
C3401 C3400 1.370 . S
C3401 C3405 1.408 . S
C3402 C3400 1.363 . S
C3402 C3403 1.370 . S
C3402 C3406 1.524 . S
C3403 C3395 1.503 . S
C3403 C3402 1.370 . S
C3403 C3404 1.403 . S
C3404 C3403 1.403 . S
C3404 C3405 1.404 . S
C3404 C3407 1.539 . S
C3405 C3401 1.408 . S
C3405 C3404 1.404 . S
C3405 H3417 0.930 . S
C3406 C3402 1.524 . S
C3406 H3418 0.956 . S
C3406 H3419 0.961 . S
C3406 H3420 0.961 . S
C3407 C3404 1.539 . S
C3407 H3421 0.958 . S
C3407 H3422 0.961 . S
C3407 H3423 0.960 . S
H3408 C3392 0.931 . S
H3409 C3397 0.929 . S
H3410 C3398 0.960 . S
H3411 C3398 0.962 . S
H3412 C3398 0.960 . S
H3413 C3399 0.961 . S
H3414 C3399 0.961 . S
H3415 C3399 0.961 . S
H3416 C3400 0.931 . S
H3417 C3405 0.930 . S
H3418 C3406 0.956 . S
H3419 C3406 0.961 . S
H3420 C3406 0.961 . S
H3421 C3407 0.958 . S
H3422 C3407 0.961 . S
H3423 C3407 0.960 . S
C3424 C3425 1.391 . S
C3424 C3426 1.394 . S
C3424 H3440 0.931 . S
C3425 C3424 1.391 . S
C3425 C3429 1.376 . S
C3426 C3424 1.394 . S
C3426 C3427 1.369 . S
C3426 C3430 1.531 . S
C3427 C3426 1.369 . S
C3427 C3428 1.410 . S
C3427 C3435 1.503 . S
C3428 C3427 1.410 . S
C3428 C3429 1.392 . S
C3428 C3431 1.511 . S
C3429 C3425 1.376 . S
C3429 C3428 1.392 . S
C3429 H3441 0.929 . S
C3430 C3426 1.531 . S
C3430 H3442 0.960 . S
C3430 H3443 0.962 . S
C3430 H3444 0.960 . S
C3431 C3428 1.511 . S
C3431 H3445 0.961 . S
C3431 H3446 0.961 . S
C3431 H3447 0.961 . S
C3432 C3433 1.370 . S
C3432 C3434 1.363 . S
C3432 H3448 0.931 . S
C3433 C3432 1.370 . S
C3433 C3437 1.408 . S
C3434 C3432 1.363 . S
C3434 C3435 1.370 . S
C3434 C3438 1.524 . S
C3435 C3427 1.503 . S
C3435 C3434 1.370 . S
C3435 C3436 1.403 . S
C3436 C3435 1.403 . S
C3436 C3437 1.404 . S
C3436 C3439 1.539 . S
C3437 C3433 1.408 . S
C3437 C3436 1.404 . S
C3437 H3449 0.930 . S
C3438 C3434 1.524 . S
C3438 H3450 0.956 . S
C3438 H3451 0.961 . S
C3438 H3452 0.961 . S
C3439 C3436 1.539 . S
C3439 H3453 0.958 . S
C3439 H3454 0.961 . S
C3439 H3455 0.960 . S
H3440 C3424 0.931 . S
H3441 C3429 0.929 . S
H3442 C3430 0.960 . S
H3443 C3430 0.962 . S
H3444 C3430 0.960 . S
H3445 C3431 0.961 . S
H3446 C3431 0.961 . S
H3447 C3431 0.961 . S
H3448 C3432 0.931 . S
H3449 C3437 0.930 . S
H3450 C3438 0.956 . S
H3451 C3438 0.961 . S
H3452 C3438 0.961 . S
H3453 C3439 0.958 . S
H3454 C3439 0.961 . S
H3455 C3439 0.960 . S
C3456 C3457 1.391 . S
C3456 C3458 1.394 . S
C3456 H3472 0.931 . S
C3457 C3456 1.391 . S
C3457 C3461 1.376 . S
C3458 C3456 1.394 . S
C3458 C3459 1.369 . S
C3458 C3462 1.531 . S
C3459 C3458 1.369 . S
C3459 C3460 1.410 . S
C3459 C3467 1.503 . S
C3460 C3459 1.410 . S
C3460 C3461 1.392 . S
C3460 C3463 1.511 . S
C3461 C3457 1.376 . S
C3461 C3460 1.392 . S
C3461 H3473 0.929 . S
C3462 C3458 1.531 . S
C3462 H3474 0.960 . S
C3462 H3475 0.962 . S
C3462 H3476 0.960 . S
C3463 C3460 1.511 . S
C3463 H3477 0.961 . S
C3463 H3478 0.961 . S
C3463 H3479 0.961 . S
C3464 C3465 1.370 . S
C3464 C3466 1.363 . S
C3464 H3480 0.931 . S
C3465 C3464 1.370 . S
C3465 C3469 1.408 . S
C3466 C3464 1.363 . S
C3466 C3467 1.370 . S
C3466 C3470 1.524 . S
C3467 C3459 1.503 . S
C3467 C3466 1.370 . S
C3467 C3468 1.403 . S
C3468 C3467 1.403 . S
C3468 C3469 1.404 . S
C3468 C3471 1.539 . S
C3469 C3465 1.408 . S
C3469 C3468 1.404 . S
C3469 H3481 0.930 . S
C3470 C3466 1.524 . S
C3470 H3482 0.956 . S
C3470 H3483 0.961 . S
C3470 H3484 0.961 . S
C3471 C3468 1.539 . S
C3471 H3485 0.958 . S
C3471 H3486 0.961 . S
C3471 H3487 0.960 . S
H3472 C3456 0.931 . S
H3473 C3461 0.929 . S
H3474 C3462 0.960 . S
H3475 C3462 0.962 . S
H3476 C3462 0.960 . S
H3477 C3463 0.961 . S
H3478 C3463 0.961 . S
H3479 C3463 0.961 . S
H3480 C3464 0.931 . S
H3481 C3469 0.930 . S
H3482 C3470 0.956 . S
H3483 C3470 0.961 . S
H3484 C3470 0.961 . S
H3485 C3471 0.958 . S
H3486 C3471 0.961 . S
H3487 C3471 0.960 . S
C3488 C3489 1.391 . S
C3488 C3490 1.394 . S
C3488 H3504 0.931 . S
C3489 C3488 1.391 . S
C3489 C3493 1.376 . S
C3490 C3488 1.394 . S
C3490 C3491 1.369 . S
C3490 C3494 1.531 . S
C3491 C3490 1.369 . S
C3491 C3492 1.410 . S
C3491 C3499 1.503 . S
C3492 C3491 1.410 . S
C3492 C3493 1.392 . S
C3492 C3495 1.511 . S
C3493 C3489 1.376 . S
C3493 C3492 1.392 . S
C3493 H3505 0.929 . S
C3494 C3490 1.531 . S
C3494 H3506 0.960 . S
C3494 H3507 0.962 . S
C3494 H3508 0.960 . S
C3495 C3492 1.511 . S
C3495 H3509 0.961 . S
C3495 H3510 0.961 . S
C3495 H3511 0.961 . S
C3496 C3497 1.370 . S
C3496 C3498 1.363 . S
C3496 H3512 0.931 . S
C3497 C3496 1.370 . S
C3497 C3501 1.408 . S
C3498 C3496 1.363 . S
C3498 C3499 1.370 . S
C3498 C3502 1.524 . S
C3499 C3491 1.503 . S
C3499 C3498 1.370 . S
C3499 C3500 1.403 . S
C3500 C3499 1.403 . S
C3500 C3501 1.404 . S
C3500 C3503 1.539 . S
C3501 C3497 1.408 . S
C3501 C3500 1.404 . S
C3501 H3513 0.930 . S
C3502 C3498 1.524 . S
C3502 H3514 0.956 . S
C3502 H3515 0.961 . S
C3502 H3516 0.961 . S
C3503 C3500 1.539 . S
C3503 H3517 0.958 . S
C3503 H3518 0.961 . S
C3503 H3519 0.960 . S
H3504 C3488 0.931 . S
H3505 C3493 0.929 . S
H3506 C3494 0.960 . S
H3507 C3494 0.962 . S
H3508 C3494 0.960 . S
H3509 C3495 0.961 . S
H3510 C3495 0.961 . S
H3511 C3495 0.961 . S
H3512 C3496 0.931 . S
H3513 C3501 0.930 . S
H3514 C3502 0.956 . S
H3515 C3502 0.961 . S
H3516 C3502 0.961 . S
H3517 C3503 0.958 . S
H3518 C3503 0.961 . S
H3519 C3503 0.960 . S
C3520 C3521 1.391 . S
C3520 C3522 1.394 . S
C3520 H3536 0.931 . S
C3521 C3520 1.391 . S
C3521 C3525 1.376 . S
C3522 C3520 1.394 . S
C3522 C3523 1.369 . S
C3522 C3526 1.531 . S
C3523 C3522 1.369 . S
C3523 C3524 1.410 . S
C3523 C3531 1.503 . S
C3524 C3523 1.410 . S
C3524 C3525 1.392 . S
C3524 C3527 1.511 . S
C3525 C3521 1.376 . S
C3525 C3524 1.392 . S
C3525 H3537 0.929 . S
C3526 C3522 1.531 . S
C3526 H3538 0.960 . S
C3526 H3539 0.962 . S
C3526 H3540 0.960 . S
C3527 C3524 1.511 . S
C3527 H3541 0.961 . S
C3527 H3542 0.961 . S
C3527 H3543 0.961 . S
C3528 C3529 1.370 . S
C3528 C3530 1.363 . S
C3528 H3544 0.931 . S
C3529 C3528 1.370 . S
C3529 C3533 1.408 . S
C3530 C3528 1.363 . S
C3530 C3531 1.370 . S
C3530 C3534 1.524 . S
C3531 C3523 1.503 . S
C3531 C3530 1.370 . S
C3531 C3532 1.403 . S
C3532 C3531 1.403 . S
C3532 C3533 1.404 . S
C3532 C3535 1.539 . S
C3533 C3529 1.408 . S
C3533 C3532 1.404 . S
C3533 H3545 0.930 . S
C3534 C3530 1.524 . S
C3534 H3546 0.956 . S
C3534 H3547 0.961 . S
C3534 H3548 0.961 . S
C3535 C3532 1.539 . S
C3535 H3549 0.958 . S
C3535 H3550 0.961 . S
C3535 H3551 0.960 . S
H3536 C3520 0.931 . S
H3537 C3525 0.929 . S
H3538 C3526 0.960 . S
H3539 C3526 0.962 . S
H3540 C3526 0.960 . S
H3541 C3527 0.961 . S
H3542 C3527 0.961 . S
H3543 C3527 0.961 . S
H3544 C3528 0.931 . S
H3545 C3533 0.930 . S
H3546 C3534 0.956 . S
H3547 C3534 0.961 . S
H3548 C3534 0.961 . S
H3549 C3535 0.958 . S
H3550 C3535 0.961 . S
H3551 C3535 0.960 . S
C3552 C3553 1.391 . S
C3552 C3554 1.394 . S
C3552 H3568 0.931 . S
C3553 C3552 1.391 . S
C3553 C3557 1.376 . S
C3554 C3552 1.394 . S
C3554 C3555 1.369 . S
C3554 C3558 1.531 . S
C3555 C3554 1.369 . S
C3555 C3556 1.410 . S
C3555 C3563 1.503 . S
C3556 C3555 1.410 . S
C3556 C3557 1.392 . S
C3556 C3559 1.511 . S
C3557 C3553 1.376 . S
C3557 C3556 1.392 . S
C3557 H3569 0.929 . S
C3558 C3554 1.531 . S
C3558 H3570 0.960 . S
C3558 H3571 0.962 . S
C3558 H3572 0.960 . S
C3559 C3556 1.511 . S
C3559 H3573 0.961 . S
C3559 H3574 0.961 . S
C3559 H3575 0.961 . S
C3560 C3561 1.370 . S
C3560 C3562 1.363 . S
C3560 H3576 0.931 . S
C3561 C3560 1.370 . S
C3561 C3565 1.408 . S
C3562 C3560 1.363 . S
C3562 C3563 1.370 . S
C3562 C3566 1.524 . S
C3563 C3555 1.503 . S
C3563 C3562 1.370 . S
C3563 C3564 1.403 . S
C3564 C3563 1.403 . S
C3564 C3565 1.404 . S
C3564 C3567 1.539 . S
C3565 C3561 1.408 . S
C3565 C3564 1.404 . S
C3565 H3577 0.930 . S
C3566 C3562 1.524 . S
C3566 H3578 0.956 . S
C3566 H3579 0.961 . S
C3566 H3580 0.961 . S
C3567 C3564 1.539 . S
C3567 H3581 0.958 . S
C3567 H3582 0.961 . S
C3567 H3583 0.960 . S
H3568 C3552 0.931 . S
H3569 C3557 0.929 . S
H3570 C3558 0.960 . S
H3571 C3558 0.962 . S
H3572 C3558 0.960 . S
H3573 C3559 0.961 . S
H3574 C3559 0.961 . S
H3575 C3559 0.961 . S
H3576 C3560 0.931 . S
H3577 C3565 0.930 . S
H3578 C3566 0.956 . S
H3579 C3566 0.961 . S
H3580 C3566 0.961 . S
H3581 C3567 0.958 . S
H3582 C3567 0.961 . S
H3583 C3567 0.960 . S
C3584 C3585 1.391 . S
C3584 C3586 1.394 . S
C3584 H3600 0.931 . S
C3585 C3584 1.391 . S
C3585 C3589 1.376 . S
C3586 C3584 1.394 . S
C3586 C3587 1.369 . S
C3586 C3590 1.531 . S
C3587 C3586 1.369 . S
C3587 C3588 1.410 . S
C3587 C3595 1.503 . S
C3588 C3587 1.410 . S
C3588 C3589 1.392 . S
C3588 C3591 1.511 . S
C3589 C3585 1.376 . S
C3589 C3588 1.392 . S
C3589 H3601 0.929 . S
C3590 C3586 1.531 . S
C3590 H3602 0.960 . S
C3590 H3603 0.962 . S
C3590 H3604 0.960 . S
C3591 C3588 1.511 . S
C3591 H3605 0.961 . S
C3591 H3606 0.961 . S
C3591 H3607 0.961 . S
C3592 C3593 1.370 . S
C3592 C3594 1.363 . S
C3592 H3608 0.931 . S
C3593 C3592 1.370 . S
C3593 C3597 1.408 . S
C3594 C3592 1.363 . S
C3594 C3595 1.370 . S
C3594 C3598 1.524 . S
C3595 C3587 1.503 . S
C3595 C3594 1.370 . S
C3595 C3596 1.403 . S
C3596 C3595 1.403 . S
C3596 C3597 1.404 . S
C3596 C3599 1.539 . S
C3597 C3593 1.408 . S
C3597 C3596 1.404 . S
C3597 H3609 0.930 . S
C3598 C3594 1.524 . S
C3598 H3610 0.956 . S
C3598 H3611 0.961 . S
C3598 H3612 0.961 . S
C3599 C3596 1.539 . S
C3599 H3613 0.958 . S
C3599 H3614 0.961 . S
C3599 H3615 0.960 . S
H3600 C3584 0.931 . S
H3601 C3589 0.929 . S
H3602 C3590 0.960 . S
H3603 C3590 0.962 . S
H3604 C3590 0.960 . S
H3605 C3591 0.961 . S
H3606 C3591 0.961 . S
H3607 C3591 0.961 . S
H3608 C3592 0.931 . S
H3609 C3597 0.930 . S
H3610 C3598 0.956 . S
H3611 C3598 0.961 . S
H3612 C3598 0.961 . S
H3613 C3599 0.958 . S
H3614 C3599 0.961 . S
H3615 C3599 0.960 . S
C3616 C3617 1.391 . S
C3616 C3618 1.394 . S
C3616 H3632 0.931 . S
C3617 C3616 1.391 . S
C3617 C3621 1.376 . S
C3618 C3616 1.394 . S
C3618 C3619 1.369 . S
C3618 C3622 1.531 . S
C3619 C3618 1.369 . S
C3619 C3620 1.410 . S
C3619 C3627 1.503 . S
C3620 C3619 1.410 . S
C3620 C3621 1.392 . S
C3620 C3623 1.511 . S
C3621 C3617 1.376 . S
C3621 C3620 1.392 . S
C3621 H3633 0.929 . S
C3622 C3618 1.531 . S
C3622 H3634 0.960 . S
C3622 H3635 0.962 . S
C3622 H3636 0.960 . S
C3623 C3620 1.511 . S
C3623 H3637 0.961 . S
C3623 H3638 0.961 . S
C3623 H3639 0.961 . S
C3624 C3625 1.370 . S
C3624 C3626 1.363 . S
C3624 H3640 0.931 . S
C3625 C3624 1.370 . S
C3625 C3629 1.408 . S
C3626 C3624 1.363 . S
C3626 C3627 1.370 . S
C3626 C3630 1.524 . S
C3627 C3619 1.503 . S
C3627 C3626 1.370 . S
C3627 C3628 1.403 . S
C3628 C3627 1.403 . S
C3628 C3629 1.404 . S
C3628 C3631 1.539 . S
C3629 C3625 1.408 . S
C3629 C3628 1.404 . S
C3629 H3641 0.930 . S
C3630 C3626 1.524 . S
C3630 H3642 0.956 . S
C3630 H3643 0.961 . S
C3630 H3644 0.961 . S
C3631 C3628 1.539 . S
C3631 H3645 0.958 . S
C3631 H3646 0.961 . S
C3631 H3647 0.960 . S
H3632 C3616 0.931 . S
H3633 C3621 0.929 . S
H3634 C3622 0.960 . S
H3635 C3622 0.962 . S
H3636 C3622 0.960 . S
H3637 C3623 0.961 . S
H3638 C3623 0.961 . S
H3639 C3623 0.961 . S
H3640 C3624 0.931 . S
H3641 C3629 0.930 . S
H3642 C3630 0.956 . S
H3643 C3630 0.961 . S
H3644 C3630 0.961 . S
H3645 C3631 0.958 . S
H3646 C3631 0.961 . S
H3647 C3631 0.960 . S
C3648 C3649 1.391 . S
C3648 C3650 1.394 . S
C3648 H3664 0.931 . S
C3649 C3648 1.391 . S
C3649 C3653 1.376 . S
C3650 C3648 1.394 . S
C3650 C3651 1.369 . S
C3650 C3654 1.531 . S
C3651 C3650 1.369 . S
C3651 C3652 1.410 . S
C3651 C3659 1.503 . S
C3652 C3651 1.410 . S
C3652 C3653 1.392 . S
C3652 C3655 1.511 . S
C3653 C3649 1.376 . S
C3653 C3652 1.392 . S
C3653 H3665 0.929 . S
C3654 C3650 1.531 . S
C3654 H3666 0.960 . S
C3654 H3667 0.962 . S
C3654 H3668 0.960 . S
C3655 C3652 1.511 . S
C3655 H3669 0.961 . S
C3655 H3670 0.961 . S
C3655 H3671 0.961 . S
C3656 C3657 1.370 . S
C3656 C3658 1.363 . S
C3656 H3672 0.931 . S
C3657 C3656 1.370 . S
C3657 C3661 1.408 . S
C3658 C3656 1.363 . S
C3658 C3659 1.370 . S
C3658 C3662 1.524 . S
C3659 C3651 1.503 . S
C3659 C3658 1.370 . S
C3659 C3660 1.403 . S
C3660 C3659 1.403 . S
C3660 C3661 1.404 . S
C3660 C3663 1.539 . S
C3661 C3657 1.408 . S
C3661 C3660 1.404 . S
C3661 H3673 0.930 . S
C3662 C3658 1.524 . S
C3662 H3674 0.956 . S
C3662 H3675 0.961 . S
C3662 H3676 0.961 . S
C3663 C3660 1.539 . S
C3663 H3677 0.958 . S
C3663 H3678 0.961 . S
C3663 H3679 0.960 . S
H3664 C3648 0.931 . S
H3665 C3653 0.929 . S
H3666 C3654 0.960 . S
H3667 C3654 0.962 . S
H3668 C3654 0.960 . S
H3669 C3655 0.961 . S
H3670 C3655 0.961 . S
H3671 C3655 0.961 . S
H3672 C3656 0.931 . S
H3673 C3661 0.930 . S
H3674 C3662 0.956 . S
H3675 C3662 0.961 . S
H3676 C3662 0.961 . S
H3677 C3663 0.958 . S
H3678 C3663 0.961 . S
H3679 C3663 0.960 . S
C3680 C3681 1.391 . S
C3680 C3682 1.394 . S
C3680 H3696 0.931 . S
C3681 C3680 1.391 . S
C3681 C3685 1.376 . S
C3682 C3680 1.394 . S
C3682 C3683 1.369 . S
C3682 C3686 1.531 . S
C3683 C3682 1.369 . S
C3683 C3684 1.410 . S
C3683 C3691 1.503 . S
C3684 C3683 1.410 . S
C3684 C3685 1.392 . S
C3684 C3687 1.511 . S
C3685 C3681 1.376 . S
C3685 C3684 1.392 . S
C3685 H3697 0.929 . S
C3686 C3682 1.531 . S
C3686 H3698 0.960 . S
C3686 H3699 0.962 . S
C3686 H3700 0.960 . S
C3687 C3684 1.511 . S
C3687 H3701 0.961 . S
C3687 H3702 0.961 . S
C3687 H3703 0.961 . S
C3688 C3689 1.370 . S
C3688 C3690 1.363 . S
C3688 H3704 0.931 . S
C3689 C3688 1.370 . S
C3689 C3693 1.408 . S
C3690 C3688 1.363 . S
C3690 C3691 1.370 . S
C3690 C3694 1.524 . S
C3691 C3683 1.503 . S
C3691 C3690 1.370 . S
C3691 C3692 1.403 . S
C3692 C3691 1.403 . S
C3692 C3693 1.404 . S
C3692 C3695 1.539 . S
C3693 C3689 1.408 . S
C3693 C3692 1.404 . S
C3693 H3705 0.930 . S
C3694 C3690 1.524 . S
C3694 H3706 0.956 . S
C3694 H3707 0.961 . S
C3694 H3708 0.961 . S
C3695 C3692 1.539 . S
C3695 H3709 0.958 . S
C3695 H3710 0.961 . S
C3695 H3711 0.960 . S
H3696 C3680 0.931 . S
H3697 C3685 0.929 . S
H3698 C3686 0.960 . S
H3699 C3686 0.962 . S
H3700 C3686 0.960 . S
H3701 C3687 0.961 . S
H3702 C3687 0.961 . S
H3703 C3687 0.961 . S
H3704 C3688 0.931 . S
H3705 C3693 0.930 . S
H3706 C3694 0.956 . S
H3707 C3694 0.961 . S
H3708 C3694 0.961 . S
H3709 C3695 0.958 . S
H3710 C3695 0.961 . S
H3711 C3695 0.960 . S
C3712 C3713 1.391 . S
C3712 C3714 1.394 . S
C3712 H3728 0.931 . S
C3713 C3712 1.391 . S
C3713 C3717 1.376 . S
C3714 C3712 1.394 . S
C3714 C3715 1.369 . S
C3714 C3718 1.531 . S
C3715 C3714 1.369 . S
C3715 C3716 1.410 . S
C3715 C3723 1.503 . S
C3716 C3715 1.410 . S
C3716 C3717 1.392 . S
C3716 C3719 1.511 . S
C3717 C3713 1.376 . S
C3717 C3716 1.392 . S
C3717 H3729 0.929 . S
C3718 C3714 1.531 . S
C3718 H3730 0.960 . S
C3718 H3731 0.962 . S
C3718 H3732 0.960 . S
C3719 C3716 1.511 . S
C3719 H3733 0.961 . S
C3719 H3734 0.961 . S
C3719 H3735 0.961 . S
C3720 C3721 1.370 . S
C3720 C3722 1.363 . S
C3720 H3736 0.931 . S
C3721 C3720 1.370 . S
C3721 C3725 1.408 . S
C3722 C3720 1.363 . S
C3722 C3723 1.370 . S
C3722 C3726 1.524 . S
C3723 C3715 1.503 . S
C3723 C3722 1.370 . S
C3723 C3724 1.403 . S
C3724 C3723 1.403 . S
C3724 C3725 1.404 . S
C3724 C3727 1.539 . S
C3725 C3721 1.408 . S
C3725 C3724 1.404 . S
C3725 H3737 0.930 . S
C3726 C3722 1.524 . S
C3726 H3738 0.956 . S
C3726 H3739 0.961 . S
C3726 H3740 0.961 . S
C3727 C3724 1.539 . S
C3727 H3741 0.958 . S
C3727 H3742 0.961 . S
C3727 H3743 0.960 . S
H3728 C3712 0.931 . S
H3729 C3717 0.929 . S
H3730 C3718 0.960 . S
H3731 C3718 0.962 . S
H3732 C3718 0.960 . S
H3733 C3719 0.961 . S
H3734 C3719 0.961 . S
H3735 C3719 0.961 . S
H3736 C3720 0.931 . S
H3737 C3725 0.930 . S
H3738 C3726 0.956 . S
H3739 C3726 0.961 . S
H3740 C3726 0.961 . S
H3741 C3727 0.958 . S
H3742 C3727 0.961 . S
H3743 C3727 0.960 . S
C3744 C3745 1.391 . S
C3744 C3746 1.394 . S
C3744 H3760 0.931 . S
C3745 C3744 1.391 . S
C3745 C3749 1.376 1_455 S
C3746 C3744 1.394 . S
C3746 C3747 1.369 . S
C3746 C3750 1.531 . S
C3747 C3746 1.369 . S
C3747 C3748 1.410 1_455 S
C3747 C3755 1.503 1_455 S
C3748 C3747 1.410 1_655 S
C3748 C3749 1.392 . S
C3748 C3751 1.511 . S
C3749 C3745 1.376 1_655 S
C3749 C3748 1.392 . S
C3749 H3761 0.929 . S
C3750 C3746 1.531 . S
C3750 H3762 0.960 . S
C3750 H3763 0.962 . S
C3750 H3764 0.960 . S
C3751 C3748 1.511 . S
C3751 H3765 0.961 . S
C3751 H3766 0.961 . S
C3751 H3767 0.961 . S
C3752 C3753 1.370 . S
C3752 C3754 1.363 . S
C3752 H3768 0.931 . S
C3753 C3752 1.370 . S
C3753 C3757 1.408 . S
C3754 C3752 1.363 . S
C3754 C3755 1.370 . S
C3754 C3758 1.568 . S
C3755 C3747 1.503 1_655 S
C3755 C3754 1.370 . S
C3755 C3756 1.403 . S
C3756 C3755 1.403 . S
C3756 C3757 1.404 . S
C3756 C3759 1.539 . S
C3757 C3753 1.408 . S
C3757 C3756 1.404 . S
C3757 H3769 0.930 . S
C3758 C3754 1.568 . S
C3758 H3770 0.895 1_655 S
C3758 H3771 0.993 . S
C3758 H3772 0.951 . S
C3759 C3756 1.539 . S
C3759 H3773 0.958 1_655 S
C3759 H3774 0.961 . S
C3759 H3775 0.960 . S
H3760 C3744 0.931 . S
H3761 C3749 0.929 . S
H3762 C3750 0.960 . S
H3763 C3750 0.962 . S
H3764 C3750 0.960 . S
H3765 C3751 0.961 . S
H3766 C3751 0.961 . S
H3767 C3751 0.961 . S
H3768 C3752 0.931 . S
H3769 C3757 0.930 . S
H3770 C3758 0.895 1_455 S
H3771 C3758 0.993 . S
H3772 C3758 0.951 . S
H3773 C3759 0.958 1_455 S
H3774 C3759 0.961 . S
H3775 C3759 0.960 . S
C3776 C3777 1.391 . S
C3776 C3778 1.394 . S
C3776 H3792 0.931 . S
C3777 C3776 1.391 . S
C3777 C3781 1.376 . S
C3778 C3776 1.394 . S
C3778 C3779 1.369 . S
C3778 C3782 1.531 . S
C3779 C3778 1.369 . S
C3779 C3780 1.410 . S
C3779 C3787 1.503 . S
C3780 C3779 1.410 . S
C3780 C3781 1.392 . S
C3780 C3783 1.511 . S
C3781 C3777 1.376 . S
C3781 C3780 1.392 . S
C3781 H3793 0.929 . S
C3782 C3778 1.531 . S
C3782 H3794 0.960 . S
C3782 H3795 0.962 . S
C3782 H3796 0.960 . S
C3783 C3780 1.511 . S
C3783 H3797 0.961 . S
C3783 H3798 0.961 . S
C3783 H3799 0.961 . S
C3784 C3785 1.370 . S
C3784 C3786 1.363 . S
C3784 H3800 0.931 . S
C3785 C3784 1.370 . S
C3785 C3789 1.408 . S
C3786 C3784 1.363 . S
C3786 C3787 1.370 . S
C3786 C3790 1.524 . S
C3787 C3779 1.503 . S
C3787 C3786 1.370 . S
C3787 C3788 1.403 . S
C3788 C3787 1.403 . S
C3788 C3789 1.404 . S
C3788 C3791 1.539 . S
C3789 C3785 1.408 . S
C3789 C3788 1.404 . S
C3789 H3801 0.930 . S
C3790 C3786 1.524 . S
C3790 H3802 0.956 . S
C3790 H3803 0.961 . S
C3790 H3804 0.961 . S
C3791 C3788 1.539 . S
C3791 H3805 0.958 . S
C3791 H3806 0.961 . S
C3791 H3807 0.960 . S
H3792 C3776 0.931 . S
H3793 C3781 0.929 . S
H3794 C3782 0.960 . S
H3795 C3782 0.962 . S
H3796 C3782 0.960 . S
H3797 C3783 0.961 . S
H3798 C3783 0.961 . S
H3799 C3783 0.961 . S
H3800 C3784 0.931 . S
H3801 C3789 0.930 . S
H3802 C3790 0.956 . S
H3803 C3790 0.961 . S
H3804 C3790 0.961 . S
H3805 C3791 0.958 . S
H3806 C3791 0.961 . S
H3807 C3791 0.960 . S
C3808 C3809 1.391 . S
C3808 C3810 1.394 . S
C3808 H3824 0.931 . S
C3809 C3808 1.391 . S
C3809 C3813 1.376 . S
C3810 C3808 1.394 . S
C3810 C3811 1.369 . S
C3810 C3814 1.531 . S
C3811 C3810 1.369 . S
C3811 C3812 1.410 1_565 S
C3811 C3819 1.503 1_565 S
C3812 C3811 1.410 1_545 S
C3812 C3813 1.392 1_545 S
C3812 C3815 1.511 . S
C3813 C3809 1.376 . S
C3813 C3812 1.392 1_565 S
C3813 H3825 0.929 1_565 S
C3814 C3810 1.531 . S
C3814 H3826 0.960 . S
C3814 H3827 0.962 . S
C3814 H3828 0.960 . S
C3815 C3812 1.511 . S
C3815 H3829 0.961 . S
C3815 H3830 0.961 . S
C3815 H3831 0.961 . S
C3816 C3817 1.370 . S
C3816 C3818 1.363 . S
C3816 H3832 0.931 . S
C3817 C3816 1.370 . S
C3817 C3821 1.408 . S
C3818 C3816 1.363 . S
C3818 C3819 1.370 . S
C3818 C3822 1.524 . S
C3819 C3811 1.503 1_545 S
C3819 C3818 1.370 . S
C3819 C3820 1.403 1_545 S
C3820 C3819 1.403 1_565 S
C3820 C3821 1.404 1_565 S
C3820 C3823 1.539 . S
C3821 C3817 1.408 . S
C3821 C3820 1.404 1_545 S
C3821 H3833 0.930 1_545 S
C3822 C3818 1.524 . S
C3822 H3834 0.956 . S
C3822 H3835 0.961 . S
C3822 H3836 0.961 . S
C3823 C3820 1.539 . S
C3823 H3837 0.958 . S
C3823 H3838 0.961 . S
C3823 H3839 0.960 . S
H3824 C3808 0.931 . S
H3825 C3813 0.929 1_545 S
H3826 C3814 0.960 . S
H3827 C3814 0.962 . S
H3828 C3814 0.960 . S
H3829 C3815 0.961 . S
H3830 C3815 0.961 . S
H3831 C3815 0.961 . S
H3832 C3816 0.931 . S
H3833 C3821 0.930 1_565 S
H3834 C3822 0.956 . S
H3835 C3822 0.961 . S
H3836 C3822 0.961 . S
H3837 C3823 0.958 . S
H3838 C3823 0.961 . S
H3839 C3823 0.960 . S
C3840 C3841 1.391 . S
C3840 C3842 1.394 . S
C3840 H3856 0.931 . S
C3841 C3840 1.391 . S
C3841 C3845 1.376 . S
C3842 C3840 1.394 . S
C3842 C3843 1.369 . S
C3842 C3846 1.531 1_655 S
C3843 C3842 1.369 . S
C3843 C3844 1.410 . S
C3843 C3851 1.484 1_655 S
C3844 C3843 1.410 . S
C3844 C3845 1.392 . S
C3844 C3847 1.511 . S
C3845 C3841 1.376 . S
C3845 C3844 1.392 . S
C3845 H3857 0.929 . S
C3846 C3842 1.531 1_455 S
C3846 H3858 0.960 . S
C3846 H3859 0.962 . S
C3846 H3860 0.960 . S
C3847 C3844 1.511 . S
C3847 H3861 0.961 . S
C3847 H3862 0.961 . S
C3847 H3863 0.961 . S
C3848 C3849 1.370 . S
C3848 C3850 1.363 . S
C3848 H3864 0.931 . S
C3849 C3848 1.370 . S
C3849 C3853 1.408 1_455 S
C3850 C3848 1.363 . S
C3850 C3851 1.407 . S
C3850 C3854 1.524 . S
C3851 C3843 1.484 1_455 S
C3851 C3850 1.407 . S
C3851 C3852 1.390 1_455 S
C3852 C3851 1.390 1_655 S
C3852 C3853 1.404 . S
C3852 C3855 1.539 . S
C3853 C3849 1.408 1_655 S
C3853 C3852 1.404 . S
C3853 H3865 0.930 . S
C3854 C3850 1.524 . S
C3854 H3866 0.956 . S
C3854 H3867 0.961 . S
C3854 H3868 0.961 . S
C3855 C3852 1.539 . S
C3855 H3869 0.958 . S
C3855 H3870 0.961 . S
C3855 H3871 0.960 . S
H3856 C3840 0.931 . S
H3857 C3845 0.929 . S
H3858 C3846 0.960 . S
H3859 C3846 0.962 . S
H3860 C3846 0.960 . S
H3861 C3847 0.961 . S
H3862 C3847 0.961 . S
H3863 C3847 0.961 . S
H3864 C3848 0.931 . S
H3865 C3853 0.930 . S
H3866 C3854 0.956 . S
H3867 C3854 0.961 . S
H3868 C3854 0.961 . S
H3869 C3855 0.958 . S
H3870 C3855 0.961 . S
H3871 C3855 0.960 . S
C3872 C3873 1.391 . S
C3872 C3874 1.394 . S
C3872 H3888 0.931 . S
C3873 C3872 1.391 . S
C3873 C3877 1.376 . S
C3874 C3872 1.394 . S
C3874 C3875 1.369 . S
C3874 C3878 1.531 . S
C3875 C3874 1.369 . S
C3875 C3876 1.410 . S
C3875 C3883 1.503 . S
C3876 C3875 1.410 . S
C3876 C3877 1.392 . S
C3876 C3879 1.511 . S
C3877 C3873 1.376 . S
C3877 C3876 1.392 . S
C3877 H3889 0.929 . S
C3878 C3874 1.531 . S
C3878 H3890 0.960 . S
C3878 H3891 0.962 . S
C3878 H3892 0.960 . S
C3879 C3876 1.511 . S
C3879 H3893 0.961 . S
C3879 H3894 0.961 . S
C3879 H3895 0.961 . S
C3880 C3881 1.370 . S
C3880 C3882 1.363 . S
C3880 H3896 0.931 . S
C3881 C3880 1.370 . S
C3881 C3885 1.408 . S
C3882 C3880 1.363 . S
C3882 C3883 1.370 . S
C3882 C3886 1.524 . S
C3883 C3875 1.503 . S
C3883 C3882 1.370 . S
C3883 C3884 1.403 . S
C3884 C3883 1.403 . S
C3884 C3885 1.404 . S
C3884 C3887 1.539 . S
C3885 C3881 1.408 . S
C3885 C3884 1.404 . S
C3885 H3897 0.930 . S
C3886 C3882 1.524 . S
C3886 H3898 0.956 . S
C3886 H3899 0.961 . S
C3886 H3900 0.961 . S
C3887 C3884 1.539 . S
C3887 H3901 0.958 . S
C3887 H3902 0.961 . S
C3887 H3903 0.960 . S
H3888 C3872 0.931 . S
H3889 C3877 0.929 . S
H3890 C3878 0.960 . S
H3891 C3878 0.962 . S
H3892 C3878 0.960 . S
H3893 C3879 0.961 . S
H3894 C3879 0.961 . S
H3895 C3879 0.961 . S
H3896 C3880 0.931 . S
H3897 C3885 0.930 . S
H3898 C3886 0.956 . S
H3899 C3886 0.961 . S
H3900 C3886 0.961 . S
H3901 C3887 0.958 . S
H3902 C3887 0.961 . S
H3903 C3887 0.960 . S
C3904 C3905 1.391 . S
C3904 C3906 1.394 1_545 S
C3904 H3920 0.931 . S
C3905 C3904 1.391 . S
C3905 C3909 1.376 . S
C3906 C3904 1.394 1_565 S
C3906 C3907 1.377 . S
C3906 C3910 1.531 . S
C3907 C3906 1.377 . S
C3907 C3908 1.396 1_565 S
C3907 C3915 1.507 . S
C3908 C3907 1.396 1_545 S
C3908 C3909 1.392 . S
C3908 C3911 1.511 . S
C3909 C3905 1.376 . S
C3909 C3908 1.392 . S
C3909 H3921 0.929 . S
C3910 C3906 1.531 . S
C3910 H3922 0.960 . S
C3910 H3923 0.962 . S
C3910 H3924 0.960 . S
C3911 C3908 1.511 . S
C3911 H3925 0.961 . S
C3911 H3926 0.961 . S
C3911 H3927 0.961 . S
C3912 C3913 1.366 . S
C3912 C3914 1.365 1_565 S
C3912 H3928 0.933 1_565 S
C3913 C3912 1.366 . S
C3913 C3917 1.408 . S
C3914 C3912 1.365 1_545 S
C3914 C3915 1.370 1_545 S
C3914 C3918 1.524 . S
C3915 C3907 1.507 . S
C3915 C3914 1.370 1_565 S
C3915 C3916 1.403 . S
C3916 C3915 1.403 . S
C3916 C3917 1.404 . S
C3916 C3919 1.539 . S
C3917 C3913 1.408 . S
C3917 C3916 1.404 . S
C3917 H3929 0.930 . S
C3918 C3914 1.524 . S
C3918 H3930 0.956 . S
C3918 H3931 0.961 . S
C3918 H3932 0.961 . S
C3919 C3916 1.539 . S
C3919 H3933 0.958 . S
C3919 H3934 0.961 . S
C3919 H3935 0.960 . S
H3920 C3904 0.931 . S
H3921 C3909 0.929 . S
H3922 C3910 0.960 . S
H3923 C3910 0.962 . S
H3924 C3910 0.960 . S
H3925 C3911 0.961 . S
H3926 C3911 0.961 . S
H3927 C3911 0.961 . S
H3928 C3912 0.933 1_545 S
H3929 C3917 0.930 . S
H3930 C3918 0.956 . S
H3931 C3918 0.961 . S
H3932 C3918 0.961 . S
H3933 C3919 0.958 . S
H3934 C3919 0.961 . S
H3935 C3919 0.960 . S
C3936 C3937 1.391 . S
C3936 C3938 1.394 . S
C3936 H3952 0.931 . S
C3937 C3936 1.391 . S
C3937 C3941 1.376 . S
C3938 C3936 1.394 . S
C3938 C3939 1.369 . S
C3938 C3942 1.531 . S
C3939 C3938 1.369 . S
C3939 C3940 1.410 . S
C3939 C3947 1.503 . S
C3940 C3939 1.410 . S
C3940 C3941 1.392 . S
C3940 C3943 1.511 . S
C3941 C3937 1.376 . S
C3941 C3940 1.392 . S
C3941 H3953 0.929 . S
C3942 C3938 1.531 . S
C3942 H3954 0.960 . S
C3942 H3955 0.962 . S
C3942 H3956 0.960 . S
C3943 C3940 1.511 . S
C3943 H3957 0.961 . S
C3943 H3958 0.961 . S
C3943 H3959 0.961 . S
C3944 C3945 1.370 . S
C3944 C3946 1.363 . S
C3944 H3960 0.931 . S
C3945 C3944 1.370 . S
C3945 C3949 1.408 . S
C3946 C3944 1.363 . S
C3946 C3947 1.370 . S
C3946 C3950 1.524 . S
C3947 C3939 1.503 . S
C3947 C3946 1.370 . S
C3947 C3948 1.403 . S
C3948 C3947 1.403 . S
C3948 C3949 1.404 . S
C3948 C3951 1.539 . S
C3949 C3945 1.408 . S
C3949 C3948 1.404 . S
C3949 H3961 0.930 . S
C3950 C3946 1.524 . S
C3950 H3962 0.956 . S
C3950 H3963 0.961 . S
C3950 H3964 0.961 . S
C3951 C3948 1.539 . S
C3951 H3965 0.958 . S
C3951 H3966 0.961 . S
C3951 H3967 0.960 . S
H3952 C3936 0.931 . S
H3953 C3941 0.929 . S
H3954 C3942 0.960 . S
H3955 C3942 0.962 . S
H3956 C3942 0.960 . S
H3957 C3943 0.961 . S
H3958 C3943 0.961 . S
H3959 C3943 0.961 . S
H3960 C3944 0.931 . S
H3961 C3949 0.930 . S
H3962 C3950 0.956 . S
H3963 C3950 0.961 . S
H3964 C3950 0.961 . S
H3965 C3951 0.958 . S
H3966 C3951 0.961 . S
H3967 C3951 0.960 . S
C3968 C3969 1.391 . S
C3968 C3970 1.394 . S
C3968 H3984 0.931 . S
C3969 C3968 1.391 . S
C3969 C3973 1.376 . S
C3970 C3968 1.394 . S
C3970 C3971 1.369 . S
C3970 C3974 1.531 . S
C3971 C3970 1.369 . S
C3971 C3972 1.410 . S
C3971 C3979 1.503 . S
C3972 C3971 1.410 . S
C3972 C3973 1.392 . S
C3972 C3975 1.511 . S
C3973 C3969 1.376 . S
C3973 C3972 1.392 . S
C3973 H3985 0.929 . S
C3974 C3970 1.531 . S
C3974 H3986 0.960 . S
C3974 H3987 0.962 . S
C3974 H3988 0.960 . S
C3975 C3972 1.511 . S
C3975 H3989 0.961 . S
C3975 H3990 0.961 . S
C3975 H3991 0.961 . S
C3976 C3977 1.370 . S
C3976 C3978 1.363 . S
C3976 H3992 0.931 . S
C3977 C3976 1.370 . S
C3977 C3981 1.408 . S
C3978 C3976 1.363 . S
C3978 C3979 1.370 . S
C3978 C3982 1.524 . S
C3979 C3971 1.503 . S
C3979 C3978 1.370 . S
C3979 C3980 1.403 . S
C3980 C3979 1.403 . S
C3980 C3981 1.404 . S
C3980 C3983 1.539 . S
C3981 C3977 1.408 . S
C3981 C3980 1.404 . S
C3981 H3993 0.930 . S
C3982 C3978 1.524 . S
C3982 H3994 0.956 . S
C3982 H3995 0.961 . S
C3982 H3996 0.961 . S
C3983 C3980 1.539 . S
C3983 H3997 0.958 . S
C3983 H3998 0.961 . S
C3983 H3999 0.960 . S
H3984 C3968 0.931 . S
H3985 C3973 0.929 . S
H3986 C3974 0.960 . S
H3987 C3974 0.962 . S
H3988 C3974 0.960 . S
H3989 C3975 0.961 . S
H3990 C3975 0.961 . S
H3991 C3975 0.961 . S
H3992 C3976 0.931 . S
H3993 C3981 0.930 . S
H3994 C3982 0.956 . S
H3995 C3982 0.961 . S
H3996 C3982 0.961 . S
H3997 C3983 0.958 . S
H3998 C3983 0.961 . S
H3999 C3983 0.960 . S
C4000 C4001 1.391 . S
C4000 C4002 1.394 . S
C4000 H4016 0.931 . S
C4001 C4000 1.391 . S
C4001 C4005 1.376 . S
C4002 C4000 1.394 . S
C4002 C4003 1.369 . S
C4002 C4006 1.531 . S
C4003 C4002 1.369 . S
C4003 C4004 1.410 . S
C4003 C4011 1.503 . S
C4004 C4003 1.410 . S
C4004 C4005 1.392 . S
C4004 C4007 1.511 . S
C4005 C4001 1.376 . S
C4005 C4004 1.392 . S
C4005 H4017 0.929 . S
C4006 C4002 1.531 . S
C4006 H4018 0.960 . S
C4006 H4019 0.962 . S
C4006 H4020 0.960 . S
C4007 C4004 1.511 . S
C4007 H4021 0.961 . S
C4007 H4022 0.961 . S
C4007 H4023 0.961 . S
C4008 C4009 1.370 . S
C4008 C4010 1.363 . S
C4008 H4024 0.931 . S
C4009 C4008 1.370 . S
C4009 C4013 1.408 . S
C4010 C4008 1.363 . S
C4010 C4011 1.370 . S
C4010 C4014 1.524 . S
C4011 C4003 1.503 . S
C4011 C4010 1.370 . S
C4011 C4012 1.403 . S
C4012 C4011 1.403 . S
C4012 C4013 1.404 . S
C4012 C4015 1.539 . S
C4013 C4009 1.408 . S
C4013 C4012 1.404 . S
C4013 H4025 0.930 . S
C4014 C4010 1.524 . S
C4014 H4026 0.956 . S
C4014 H4027 0.961 . S
C4014 H4028 0.961 . S
C4015 C4012 1.539 . S
C4015 H4029 0.958 . S
C4015 H4030 0.961 . S
C4015 H4031 0.960 . S
H4016 C4000 0.931 . S
H4017 C4005 0.929 . S
H4018 C4006 0.960 . S
H4019 C4006 0.962 . S
H4020 C4006 0.960 . S
H4021 C4007 0.961 . S
H4022 C4007 0.961 . S
H4023 C4007 0.961 . S
H4024 C4008 0.931 . S
H4025 C4013 0.930 . S
H4026 C4014 0.956 . S
H4027 C4014 0.961 . S
H4028 C4014 0.961 . S
H4029 C4015 0.958 . S
H4030 C4015 0.961 . S
H4031 C4015 0.960 . S
C4032 C4033 1.391 . S
C4032 C4034 1.394 . S
C4032 H4048 0.931 . S
C4033 C4032 1.391 . S
C4033 C4037 1.376 . S
C4034 C4032 1.394 . S
C4034 C4035 1.369 . S
C4034 C4038 1.531 . S
C4035 C4034 1.369 . S
C4035 C4036 1.410 . S
C4035 C4043 1.503 . S
C4036 C4035 1.410 . S
C4036 C4037 1.392 . S
C4036 C4039 1.511 . S
C4037 C4033 1.376 . S
C4037 C4036 1.392 . S
C4037 H4049 0.929 . S
C4038 C4034 1.531 . S
C4038 H4050 0.960 . S
C4038 H4051 0.962 . S
C4038 H4052 0.960 . S
C4039 C4036 1.511 . S
C4039 H4053 0.961 . S
C4039 H4054 0.961 . S
C4039 H4055 0.961 . S
C4040 C4041 1.370 . S
C4040 C4042 1.363 . S
C4040 H4056 0.931 . S
C4041 C4040 1.370 . S
C4041 C4045 1.408 . S
C4042 C4040 1.363 . S
C4042 C4043 1.370 . S
C4042 C4046 1.524 . S
C4043 C4035 1.503 . S
C4043 C4042 1.370 . S
C4043 C4044 1.403 . S
C4044 C4043 1.403 . S
C4044 C4045 1.404 . S
C4044 C4047 1.539 . S
C4045 C4041 1.408 . S
C4045 C4044 1.404 . S
C4045 H4057 0.930 . S
C4046 C4042 1.524 . S
C4046 H4058 0.956 . S
C4046 H4059 0.961 . S
C4046 H4060 0.961 . S
C4047 C4044 1.539 . S
C4047 H4061 0.958 . S
C4047 H4062 0.961 . S
C4047 H4063 0.960 . S
H4048 C4032 0.931 . S
H4049 C4037 0.929 . S
H4050 C4038 0.960 . S
H4051 C4038 0.962 . S
H4052 C4038 0.960 . S
H4053 C4039 0.961 . S
H4054 C4039 0.961 . S
H4055 C4039 0.961 . S
H4056 C4040 0.931 . S
H4057 C4045 0.930 . S
H4058 C4046 0.956 . S
H4059 C4046 0.961 . S
H4060 C4046 0.961 . S
H4061 C4047 0.958 . S
H4062 C4047 0.961 . S
H4063 C4047 0.960 . S
C4064 C4065 1.391 . S
C4064 C4066 1.394 . S
C4064 H4080 0.931 . S
C4065 C4064 1.391 . S
C4065 C4069 1.376 . S
C4066 C4064 1.394 . S
C4066 C4067 1.369 . S
C4066 C4070 1.531 . S
C4067 C4066 1.369 . S
C4067 C4068 1.410 . S
C4067 C4075 1.503 . S
C4068 C4067 1.410 . S
C4068 C4069 1.392 . S
C4068 C4071 1.511 . S
C4069 C4065 1.376 . S
C4069 C4068 1.392 . S
C4069 H4081 0.929 . S
C4070 C4066 1.531 . S
C4070 H4082 0.960 . S
C4070 H4083 0.962 . S
C4070 H4084 0.960 . S
C4071 C4068 1.511 . S
C4071 H4085 0.961 . S
C4071 H4086 0.961 . S
C4071 H4087 0.961 . S
C4072 C4073 1.370 . S
C4072 C4074 1.363 . S
C4072 H4088 0.931 . S
C4073 C4072 1.370 . S
C4073 C4077 1.408 . S
C4074 C4072 1.363 . S
C4074 C4075 1.370 . S
C4074 C4078 1.524 . S
C4075 C4067 1.503 . S
C4075 C4074 1.370 . S
C4075 C4076 1.403 . S
C4076 C4075 1.403 . S
C4076 C4077 1.404 . S
C4076 C4079 1.539 . S
C4077 C4073 1.408 . S
C4077 C4076 1.404 . S
C4077 H4089 0.930 . S
C4078 C4074 1.524 . S
C4078 H4090 0.956 . S
C4078 H4091 0.961 . S
C4078 H4092 0.961 . S
C4079 C4076 1.539 . S
C4079 H4093 0.958 . S
C4079 H4094 0.961 . S
C4079 H4095 0.960 . S
H4080 C4064 0.931 . S
H4081 C4069 0.929 . S
H4082 C4070 0.960 . S
H4083 C4070 0.962 . S
H4084 C4070 0.960 . S
H4085 C4071 0.961 . S
H4086 C4071 0.961 . S
H4087 C4071 0.961 . S
H4088 C4072 0.931 . S
H4089 C4077 0.930 . S
H4090 C4078 0.956 . S
H4091 C4078 0.961 . S
H4092 C4078 0.961 . S
H4093 C4079 0.958 . S
H4094 C4079 0.961 . S
H4095 C4079 0.960 . S
C4096 C4097 1.391 . S
C4096 C4098 1.394 . S
C4096 H4112 0.931 . S
C4097 C4096 1.391 . S
C4097 C4101 1.376 . S
C4098 C4096 1.394 . S
C4098 C4099 1.369 . S
C4098 C4102 1.531 . S
C4099 C4098 1.369 . S
C4099 C4100 1.410 . S
C4099 C4107 1.503 . S
C4100 C4099 1.410 . S
C4100 C4101 1.392 . S
C4100 C4103 1.511 . S
C4101 C4097 1.376 . S
C4101 C4100 1.392 . S
C4101 H4113 0.929 . S
C4102 C4098 1.531 . S
C4102 H4114 0.960 . S
C4102 H4115 0.962 . S
C4102 H4116 0.960 . S
C4103 C4100 1.511 . S
C4103 H4117 0.961 . S
C4103 H4118 0.961 . S
C4103 H4119 0.961 . S
C4104 C4105 1.370 . S
C4104 C4106 1.363 . S
C4104 H4120 0.931 . S
C4105 C4104 1.370 . S
C4105 C4109 1.408 . S
C4106 C4104 1.363 . S
C4106 C4107 1.370 . S
C4106 C4110 1.524 . S
C4107 C4099 1.503 . S
C4107 C4106 1.370 . S
C4107 C4108 1.403 . S
C4108 C4107 1.403 . S
C4108 C4109 1.404 . S
C4108 C4111 1.539 . S
C4109 C4105 1.408 . S
C4109 C4108 1.404 . S
C4109 H4121 0.930 . S
C4110 C4106 1.524 . S
C4110 H4122 0.956 . S
C4110 H4123 0.961 . S
C4110 H4124 0.961 . S
C4111 C4108 1.539 . S
C4111 H4125 0.958 . S
C4111 H4126 0.961 . S
C4111 H4127 0.960 . S
H4112 C4096 0.931 . S
H4113 C4101 0.929 . S
H4114 C4102 0.960 . S
H4115 C4102 0.962 . S
H4116 C4102 0.960 . S
H4117 C4103 0.961 . S
H4118 C4103 0.961 . S
H4119 C4103 0.961 . S
H4120 C4104 0.931 . S
H4121 C4109 0.930 . S
H4122 C4110 0.956 . S
H4123 C4110 0.961 . S
H4124 C4110 0.961 . S
H4125 C4111 0.958 . S
H4126 C4111 0.961 . S
H4127 C4111 0.960 . S
C4128 C4129 1.391 . S
C4128 C4130 1.394 . S
C4128 H4144 0.931 . S
C4129 C4128 1.391 . S
C4129 C4133 1.376 . S
C4130 C4128 1.394 . S
C4130 C4131 1.369 . S
C4130 C4134 1.531 . S
C4131 C4130 1.369 . S
C4131 C4132 1.410 . S
C4131 C4139 1.503 1_554 S
C4132 C4131 1.410 . S
C4132 C4133 1.392 . S
C4132 C4135 1.511 1_554 S
C4133 C4129 1.376 . S
C4133 C4132 1.392 . S
C4133 H4145 0.929 . S
C4134 C4130 1.531 . S
C4134 H4146 0.960 1_554 S
C4134 H4147 0.962 . S
C4134 H4148 0.960 . S
C4135 C4132 1.511 1_556 S
C4135 H4149 0.961 1_556 S
C4135 H4150 0.961 . S
C4135 H4151 0.961 . S
C4136 C4137 1.370 . S
C4136 C4138 1.363 . S
C4136 H4152 0.931 . S
C4137 C4136 1.370 . S
C4137 C4141 1.408 . S
C4138 C4136 1.363 . S
C4138 C4139 1.370 . S
C4138 C4142 1.524 . S
C4139 C4131 1.503 1_556 S
C4139 C4138 1.370 . S
C4139 C4140 1.403 . S
C4140 C4139 1.403 . S
C4140 C4141 1.404 . S
C4140 C4143 1.539 . S
C4141 C4137 1.408 . S
C4141 C4140 1.404 . S
C4141 H4153 0.930 . S
C4142 C4138 1.524 . S
C4142 H4154 0.956 1_556 S
C4142 H4155 0.961 1_556 S
C4142 H4156 0.961 . S
C4143 C4140 1.539 . S
C4143 H4157 0.958 . S
C4143 H4158 0.961 . S
C4143 H4159 0.960 . S
H4144 C4128 0.931 . S
H4145 C4133 0.929 . S
H4146 C4134 0.960 1_556 S
H4147 C4134 0.962 . S
H4148 C4134 0.960 . S
H4149 C4135 0.961 1_554 S
H4150 C4135 0.961 . S
H4151 C4135 0.961 . S
H4152 C4136 0.931 . S
H4153 C4141 0.930 . S
H4154 C4142 0.956 1_554 S
H4155 C4142 0.961 1_554 S
H4156 C4142 0.961 . S
H4157 C4143 0.958 . S
H4158 C4143 0.961 . S
H4159 C4143 0.960 . S
C4160 C4161 1.391 . S
C4160 C4162 1.394 . S
C4160 H4176 0.931 . S
C4161 C4160 1.391 . S
C4161 C4165 1.376 . S
C4162 C4160 1.394 . S
C4162 C4163 1.369 . S
C4162 C4166 1.531 . S
C4163 C4162 1.369 . S
C4163 C4164 1.410 . S
C4163 C4171 1.503 1_556 S
C4164 C4163 1.410 . S
C4164 C4165 1.392 . S
C4164 C4167 1.511 . S
C4165 C4161 1.376 . S
C4165 C4164 1.392 . S
C4165 H4177 0.929 . S
C4166 C4162 1.531 . S
C4166 H4178 0.960 . S
C4166 H4179 0.962 . S
C4166 H4180 0.960 . S
C4167 C4164 1.511 . S
C4167 H4181 0.961 . S
C4167 H4182 0.961 1_556 S
C4167 H4183 0.961 . S
C4168 C4169 1.370 . S
C4168 C4170 1.363 . S
C4168 H4184 0.931 . S
C4169 C4168 1.370 . S
C4169 C4173 1.408 . S
C4170 C4168 1.363 . S
C4170 C4171 1.370 . S
C4170 C4174 1.524 1_554 S
C4171 C4163 1.503 1_554 S
C4171 C4170 1.370 . S
C4171 C4172 1.403 . S
C4172 C4171 1.403 . S
C4172 C4173 1.404 . S
C4172 C4175 1.539 . S
C4173 C4169 1.408 . S
C4173 C4172 1.404 . S
C4173 H4185 0.930 . S
C4174 C4170 1.524 1_556 S
C4174 H4186 0.956 . S
C4174 H4187 0.961 . S
C4174 H4188 0.961 1_556 S
C4175 C4172 1.539 . S
C4175 H4189 0.958 . S
C4175 H4190 0.961 . S
C4175 H4191 0.960 1_554 S
H4176 C4160 0.931 . S
H4177 C4165 0.929 . S
H4178 C4166 0.960 . S
H4179 C4166 0.962 . S
H4180 C4166 0.960 . S
H4181 C4167 0.961 . S
H4182 C4167 0.961 1_554 S
H4183 C4167 0.961 . S
H4184 C4168 0.931 . S
H4185 C4173 0.930 . S
H4186 C4174 0.956 . S
H4187 C4174 0.961 . S
H4188 C4174 0.961 1_554 S
H4189 C4175 0.958 . S
H4190 C4175 0.961 . S
H4191 C4175 0.960 1_556 S
C4192 C4193 1.391 . S
C4192 C4194 1.394 . S
C4192 H4208 0.931 . S
C4193 C4192 1.391 . S
C4193 C4197 1.376 . S
C4194 C4192 1.394 . S
C4194 C4195 1.369 . S
C4194 C4198 1.531 . S
C4195 C4194 1.369 . S
C4195 C4196 1.410 . S
C4195 C4203 1.503 1_556 S
C4196 C4195 1.410 . S
C4196 C4197 1.392 . S
C4196 C4199 1.511 . S
C4197 C4193 1.376 . S
C4197 C4196 1.392 . S
C4197 H4209 0.929 . S
C4198 C4194 1.531 . S
C4198 H4210 0.960 1_556 S
C4198 H4211 0.962 . S
C4198 H4212 0.960 . S
C4199 C4196 1.511 . S
C4199 H4213 0.961 . S
C4199 H4214 0.961 . S
C4199 H4215 0.961 . S
C4200 C4201 1.370 . S
C4200 C4202 1.363 . S
C4200 H4216 0.931 . S
C4201 C4200 1.370 . S
C4201 C4205 1.408 . S
C4202 C4200 1.363 . S
C4202 C4203 1.370 . S
C4202 C4206 1.524 1_554 S
C4203 C4195 1.503 1_554 S
C4203 C4202 1.370 . S
C4203 C4204 1.403 . S
C4204 C4203 1.403 . S
C4204 C4205 1.404 . S
C4204 C4207 1.539 . S
C4205 C4201 1.408 . S
C4205 C4204 1.404 . S
C4205 H4217 0.930 . S
C4206 C4202 1.524 1_556 S
C4206 H4218 0.956 . S
C4206 H4219 0.961 . S
C4206 H4220 0.961 . S
C4207 C4204 1.539 . S
C4207 H4221 0.958 . S
C4207 H4222 0.961 . S
C4207 H4223 0.960 . S
H4208 C4192 0.931 . S
H4209 C4197 0.929 . S
H4210 C4198 0.960 1_554 S
H4211 C4198 0.962 . S
H4212 C4198 0.960 . S
H4213 C4199 0.961 . S
H4214 C4199 0.961 . S
H4215 C4199 0.961 . S
H4216 C4200 0.931 . S
H4217 C4205 0.930 . S
H4218 C4206 0.956 . S
H4219 C4206 0.961 . S
H4220 C4206 0.961 . S
H4221 C4207 0.958 . S
H4222 C4207 0.961 . S
H4223 C4207 0.960 . S
C4224 C4225 1.391 . S
C4224 C4226 1.394 . S
C4224 H4240 0.931 . S
C4225 C4224 1.391 . S
C4225 C4229 1.376 . S
C4226 C4224 1.394 . S
C4226 C4227 1.369 . S
C4226 C4230 1.531 . S
C4227 C4226 1.369 . S
C4227 C4228 1.410 . S
C4227 C4235 1.503 . S
C4228 C4227 1.410 . S
C4228 C4229 1.392 . S
C4228 C4231 1.511 . S
C4229 C4225 1.376 . S
C4229 C4228 1.392 . S
C4229 H4241 0.929 . S
C4230 C4226 1.531 . S
C4230 H4242 0.960 . S
C4230 H4243 0.962 . S
C4230 H4244 0.960 . S
C4231 C4228 1.511 . S
C4231 H4245 0.961 . S
C4231 H4246 0.961 . S
C4231 H4247 0.961 . S
C4232 C4233 1.370 . S
C4232 C4234 1.363 . S
C4232 H4248 0.931 . S
C4233 C4232 1.370 . S
C4233 C4237 1.408 . S
C4234 C4232 1.363 . S
C4234 C4235 1.370 . S
C4234 C4238 1.524 . S
C4235 C4227 1.503 . S
C4235 C4234 1.370 . S
C4235 C4236 1.403 . S
C4236 C4235 1.403 . S
C4236 C4237 1.404 . S
C4236 C4239 1.539 . S
C4237 C4233 1.408 . S
C4237 C4236 1.404 . S
C4237 H4249 0.930 . S
C4238 C4234 1.524 . S
C4238 H4250 0.956 . S
C4238 H4251 0.961 . S
C4238 H4252 0.961 . S
C4239 C4236 1.539 . S
C4239 H4253 0.958 . S
C4239 H4254 0.961 . S
C4239 H4255 0.960 . S
H4240 C4224 0.931 . S
H4241 C4229 0.929 . S
H4242 C4230 0.960 . S
H4243 C4230 0.962 . S
H4244 C4230 0.960 . S
H4245 C4231 0.961 . S
H4246 C4231 0.961 . S
H4247 C4231 0.961 . S
H4248 C4232 0.931 . S
H4249 C4237 0.930 . S
H4250 C4238 0.956 . S
H4251 C4238 0.961 . S
H4252 C4238 0.961 . S
H4253 C4239 0.958 . S
H4254 C4239 0.961 . S
H4255 C4239 0.960 . S
C4256 C4257 1.391 . S
C4256 C4258 1.394 . S
C4256 H4272 0.931 . S
C4257 C4256 1.391 . S
C4257 C4261 1.376 . S
C4258 C4256 1.394 . S
C4258 C4259 1.369 . S
C4258 C4262 1.531 . S
C4259 C4258 1.369 . S
C4259 C4260 1.410 . S
C4259 C4267 1.503 . S
C4260 C4259 1.410 . S
C4260 C4261 1.392 . S
C4260 C4263 1.511 . S
C4261 C4257 1.376 . S
C4261 C4260 1.392 . S
C4261 H4273 0.929 . S
C4262 C4258 1.531 . S
C4262 H4274 0.960 . S
C4262 H4275 0.962 . S
C4262 H4276 0.960 . S
C4263 C4260 1.511 . S
C4263 H4277 0.961 . S
C4263 H4278 0.961 . S
C4263 H4279 0.961 . S
C4264 C4265 1.370 . S
C4264 C4266 1.363 . S
C4264 H4280 0.931 . S
C4265 C4264 1.370 . S
C4265 C4269 1.408 . S
C4266 C4264 1.363 . S
C4266 C4267 1.370 . S
C4266 C4270 1.524 . S
C4267 C4259 1.503 . S
C4267 C4266 1.370 . S
C4267 C4268 1.403 . S
C4268 C4267 1.403 . S
C4268 C4269 1.404 . S
C4268 C4271 1.539 . S
C4269 C4265 1.408 . S
C4269 C4268 1.404 . S
C4269 H4281 0.930 . S
C4270 C4266 1.524 . S
C4270 H4282 0.956 . S
C4270 H4283 0.961 . S
C4270 H4284 0.961 . S
C4271 C4268 1.539 . S
C4271 H4285 0.958 . S
C4271 H4286 0.961 . S
C4271 H4287 0.960 . S
H4272 C4256 0.931 . S
H4273 C4261 0.929 . S
H4274 C4262 0.960 . S
H4275 C4262 0.962 . S
H4276 C4262 0.960 . S
H4277 C4263 0.961 . S
H4278 C4263 0.961 . S
H4279 C4263 0.961 . S
H4280 C4264 0.931 . S
H4281 C4269 0.930 . S
H4282 C4270 0.956 . S
H4283 C4270 0.961 . S
H4284 C4270 0.961 . S
H4285 C4271 0.958 . S
H4286 C4271 0.961 . S
H4287 C4271 0.960 . S
C4288 C4289 1.391 . S
C4288 C4290 1.394 . S
C4288 H4304 0.931 . S
C4289 C4288 1.391 . S
C4289 C4293 1.376 . S
C4290 C4288 1.394 . S
C4290 C4291 1.369 . S
C4290 C4294 1.531 . S
C4291 C4290 1.369 . S
C4291 C4292 1.410 . S
C4291 C4299 1.503 . S
C4292 C4291 1.410 . S
C4292 C4293 1.392 . S
C4292 C4295 1.511 . S
C4293 C4289 1.376 . S
C4293 C4292 1.392 . S
C4293 H4305 0.929 . S
C4294 C4290 1.531 . S
C4294 H4306 0.960 . S
C4294 H4307 0.962 . S
C4294 H4308 0.960 . S
C4295 C4292 1.511 . S
C4295 H4309 0.961 . S
C4295 H4310 0.961 . S
C4295 H4311 0.961 . S
C4296 C4297 1.370 . S
C4296 C4298 1.363 . S
C4296 H4312 0.931 . S
C4297 C4296 1.370 . S
C4297 C4301 1.408 . S
C4298 C4296 1.363 . S
C4298 C4299 1.370 . S
C4298 C4302 1.524 . S
C4299 C4291 1.503 . S
C4299 C4298 1.370 . S
C4299 C4300 1.403 . S
C4300 C4299 1.403 . S
C4300 C4301 1.404 . S
C4300 C4303 1.539 . S
C4301 C4297 1.408 . S
C4301 C4300 1.404 . S
C4301 H4313 0.930 . S
C4302 C4298 1.524 . S
C4302 H4314 0.956 . S
C4302 H4315 0.961 . S
C4302 H4316 0.961 . S
C4303 C4300 1.539 . S
C4303 H4317 0.958 . S
C4303 H4318 0.961 . S
C4303 H4319 0.960 . S
H4304 C4288 0.931 . S
H4305 C4293 0.929 . S
H4306 C4294 0.960 . S
H4307 C4294 0.962 . S
H4308 C4294 0.960 . S
H4309 C4295 0.961 . S
H4310 C4295 0.961 . S
H4311 C4295 0.961 . S
H4312 C4296 0.931 . S
H4313 C4301 0.930 . S
H4314 C4302 0.956 . S
H4315 C4302 0.961 . S
H4316 C4302 0.961 . S
H4317 C4303 0.958 . S
H4318 C4303 0.961 . S
H4319 C4303 0.960 . S
C4320 C4321 1.391 . S
C4320 C4322 1.394 . S
C4320 H4336 0.931 . S
C4321 C4320 1.391 . S
C4321 C4325 1.370 1_554 S
C4322 C4320 1.394 . S
C4322 C4323 1.369 . S
C4322 C4326 1.531 . S
C4323 C4322 1.369 . S
C4323 C4324 1.410 . S
C4323 C4331 1.503 1_455 S
C4324 C4323 1.410 . S
C4324 C4325 1.382 1_554 S
C4324 C4327 1.511 1_455 S
C4325 C4321 1.370 1_556 S
C4325 C4324 1.382 1_556 S
C4325 H4337 0.945 . S
C4326 C4322 1.531 . S
C4326 H4338 0.960 . S
C4326 H4339 0.962 . S
C4326 H4340 0.960 . S
C4327 C4324 1.511 1_655 S
C4327 H4341 0.961 1_554 S
C4327 H4342 0.961 . S
C4327 H4343 0.961 . S
C4328 C4329 1.370 . S
C4328 C4330 1.363 . S
C4328 H4344 0.931 . S
C4329 C4328 1.370 . S
C4329 C4333 1.408 . S
C4330 C4328 1.363 . S
C4330 C4331 1.370 . S
C4330 C4334 1.524 . S
C4331 C4323 1.503 1_655 S
C4331 C4330 1.370 . S
C4331 C4332 1.403 . S
C4332 C4331 1.403 . S
C4332 C4333 1.404 . S
C4332 C4335 1.539 1_655 S
C4333 C4329 1.408 . S
C4333 C4332 1.404 . S
C4333 H4345 0.930 . S
C4334 C4330 1.524 . S
C4334 H4346 0.956 . S
C4334 H4347 0.961 . S
C4334 H4348 0.961 . S
C4335 C4332 1.539 1_455 S
C4335 H4349 0.958 . S
C4335 H4350 0.961 . S
C4335 H4351 0.960 . S
H4336 C4320 0.931 . S
H4337 C4325 0.945 . S
H4338 C4326 0.960 . S
H4339 C4326 0.962 . S
H4340 C4326 0.960 . S
H4341 C4327 0.961 1_556 S
H4342 C4327 0.961 . S
H4343 C4327 0.961 . S
H4344 C4328 0.931 . S
H4345 C4333 0.930 . S
H4346 C4334 0.956 . S
H4347 C4334 0.961 . S
H4348 C4334 0.961 . S
H4349 C4335 0.958 . S
H4350 C4335 0.961 . S
H4351 C4335 0.960 . S
C4352 C4353 1.391 . S
C4352 C4354 1.394 . S
C4352 H4368 0.931 1_554 S
C4353 C4352 1.391 . S
C4353 C4357 1.376 . S
C4354 C4352 1.394 . S
C4354 C4355 1.369 . S
C4354 C4358 1.531 . S
C4355 C4354 1.369 . S
C4355 C4356 1.410 . S
C4355 C4363 1.503 . S
C4356 C4355 1.410 . S
C4356 C4357 1.392 . S
C4356 C4359 1.511 . S
C4357 C4353 1.376 . S
C4357 C4356 1.392 . S
C4357 H4369 0.929 . S
C4358 C4354 1.531 . S
C4358 H4370 0.960 . S
C4358 H4371 0.962 . S
C4358 H4372 0.960 1_554 S
C4359 C4356 1.511 . S
C4359 H4373 0.961 . S
C4359 H4374 0.961 . S
C4359 H4375 0.961 . S
C4360 C4361 1.370 . S
C4360 C4362 1.363 . S
C4360 H4376 0.931 . S
C4361 C4360 1.370 . S
C4361 C4365 1.408 . S
C4362 C4360 1.363 . S
C4362 C4363 1.370 . S
C4362 C4366 1.524 . S
C4363 C4355 1.503 . S
C4363 C4362 1.370 . S
C4363 C4364 1.403 . S
C4364 C4363 1.403 . S
C4364 C4365 1.404 . S
C4364 C4367 1.539 . S
C4365 C4361 1.408 . S
C4365 C4364 1.404 . S
C4365 H4377 0.930 . S
C4366 C4362 1.524 . S
C4366 H4378 0.956 . S
C4366 H4379 0.961 . S
C4366 H4380 0.961 . S
C4367 C4364 1.539 . S
C4367 H4381 0.958 . S
C4367 H4382 0.961 . S
C4367 H4383 0.960 . S
H4368 C4352 0.931 1_556 S
H4369 C4357 0.929 . S
H4370 C4358 0.960 . S
H4371 C4358 0.962 . S
H4372 C4358 0.960 1_556 S
H4373 C4359 0.961 . S
H4374 C4359 0.961 . S
H4375 C4359 0.961 . S
H4376 C4360 0.931 . S
H4377 C4365 0.930 . S
H4378 C4366 0.956 . S
H4379 C4366 0.961 . S
H4380 C4366 0.961 . S
H4381 C4367 0.958 . S
H4382 C4367 0.961 . S
H4383 C4367 0.960 . S
C4384 C4385 1.391 . S
C4384 C4386 1.394 . S
C4384 H4400 0.931 . S
C4385 C4384 1.391 . S
C4385 C4389 1.376 . S
C4386 C4384 1.394 . S
C4386 C4387 1.369 . S
C4386 C4390 1.531 . S
C4387 C4386 1.369 . S
C4387 C4388 1.410 . S
C4387 C4395 1.503 1_545 S
C4388 C4387 1.410 . S
C4388 C4389 1.392 . S
C4388 C4391 1.511 1_545 S
C4389 C4385 1.376 . S
C4389 C4388 1.392 . S
C4389 H4401 0.929 . S
C4390 C4386 1.531 . S
C4390 H4402 0.960 . S
C4390 H4403 0.962 . S
C4390 H4404 0.960 . S
C4391 C4388 1.511 1_565 S
C4391 H4405 0.961 . S
C4391 H4406 0.961 . S
C4391 H4407 0.961 . S
C4392 C4393 1.370 . S
C4392 C4394 1.363 . S
C4392 H4408 0.931 . S
C4393 C4392 1.370 . S
C4393 C4397 1.408 1_554 S
C4394 C4392 1.363 . S
C4394 C4395 1.370 . S
C4394 C4398 1.524 . S
C4395 C4387 1.503 1_565 S
C4395 C4394 1.370 . S
C4395 C4396 1.403 . S
C4396 C4395 1.403 . S
C4396 C4397 1.404 1_554 S
C4396 C4399 1.539 1_565 S
C4397 C4393 1.408 1_556 S
C4397 C4396 1.404 1_556 S
C4397 H4409 0.930 . S
C4398 C4394 1.524 . S
C4398 H4410 1.018 . S
C4398 H4411 0.961 . S
C4398 H4412 0.961 . S
C4399 C4396 1.539 1_545 S
C4399 H4413 0.958 1_554 S
C4399 H4414 0.961 1_544 S
C4399 H4415 0.960 . S
H4400 C4384 0.931 . S
H4401 C4389 0.929 . S
H4402 C4390 0.960 . S
H4403 C4390 0.962 . S
H4404 C4390 0.960 . S
H4405 C4391 0.961 . S
H4406 C4391 0.961 . S
H4407 C4391 0.961 . S
H4408 C4392 0.931 . S
H4409 C4397 0.930 . S
H4410 C4398 1.018 . S
H4411 C4398 0.961 . S
H4412 C4398 0.961 . S
H4413 C4399 0.958 1_556 S
H4414 C4399 0.961 1_566 S
H4415 C4399 0.960 . S
C4416 C4417 1.391 . S
C4416 C4418 1.394 . S
C4416 H4432 0.931 . S
C4417 C4416 1.391 . S
C4417 C4421 1.376 . S
C4418 C4416 1.394 . S
C4418 C4419 1.369 . S
C4418 C4422 1.531 . S
C4419 C4418 1.369 . S
C4419 C4420 1.410 . S
C4419 C4427 1.503 1_565 S
C4420 C4419 1.410 . S
C4420 C4421 1.392 . S
C4420 C4423 1.511 . S
C4421 C4417 1.376 . S
C4421 C4420 1.392 . S
C4421 H4433 0.929 . S
C4422 C4418 1.531 . S
C4422 H4434 0.975 . S
C4422 H4435 0.962 1_565 S
C4422 H4436 0.960 . S
C4423 C4420 1.511 . S
C4423 H4437 0.961 . S
C4423 H4438 0.961 . S
C4423 H4439 0.961 . S
C4424 C4425 1.370 . S
C4424 C4426 1.363 . S
C4424 H4440 0.931 . S
C4425 C4424 1.370 . S
C4425 C4429 1.408 . S
C4426 C4424 1.363 . S
C4426 C4427 1.370 . S
C4426 C4430 1.524 . S
C4427 C4419 1.503 1_545 S
C4427 C4426 1.370 . S
C4427 C4428 1.408 1_545 S
C4428 C4427 1.408 1_565 S
C4428 C4429 1.375 1_565 S
C4428 C4431 1.564 . S
C4429 C4425 1.408 . S
C4429 C4428 1.375 1_545 S
C4429 H4441 0.930 . S
C4430 C4426 1.524 . S
C4430 H4442 0.956 . S
C4430 H4443 0.961 . S
C4430 H4444 0.961 . S
C4431 C4428 1.564 . S
C4431 H4445 0.958 . S
C4431 H4446 0.961 . S
C4431 H4447 0.960 . S
H4432 C4416 0.931 . S
H4433 C4421 0.929 . S
H4434 C4422 0.975 . S
H4435 C4422 0.962 1_545 S
H4436 C4422 0.960 . S
H4437 C4423 0.961 . S
H4438 C4423 0.961 . S
H4439 C4423 0.961 . S
H4440 C4424 0.931 . S
H4441 C4429 0.930 . S
H4442 C4430 0.956 . S
H4443 C4430 0.961 . S
H4444 C4430 0.961 . S
H4445 C4431 0.958 . S
H4446 C4431 0.961 . S
H4447 C4431 0.960 . S
C4448 C4449 1.391 . S
C4448 C4450 1.394 . S
C4448 H4464 0.931 . S
C4449 C4448 1.391 . S
C4449 C4453 1.376 . S
C4450 C4448 1.394 . S
C4450 C4451 1.369 . S
C4450 C4454 1.531 . S
C4451 C4450 1.369 . S
C4451 C4452 1.410 . S
C4451 C4459 1.503 1_655 S
C4452 C4451 1.410 . S
C4452 C4453 1.392 . S
C4452 C4455 1.511 1_655 S
C4453 C4449 1.376 . S
C4453 C4452 1.392 . S
C4453 H4465 0.929 . S
C4454 C4450 1.531 . S
C4454 H4466 0.960 . S
C4454 H4467 0.962 . S
C4454 H4468 0.960 . S
C4455 C4452 1.511 1_455 S
C4455 H4469 0.961 . S
C4455 H4470 0.961 . S
C4455 H4471 0.961 . S
C4456 C4457 1.370 . S
C4456 C4458 1.363 . S
C4456 H4472 0.931 . S
C4457 C4456 1.370 . S
C4457 C4461 1.408 . S
C4458 C4456 1.363 . S
C4458 C4459 1.370 . S
C4458 C4462 1.524 1_455 S
C4459 C4451 1.503 1_455 S
C4459 C4458 1.370 . S
C4459 C4460 1.403 . S
C4460 C4459 1.403 . S
C4460 C4461 1.404 . S
C4460 C4463 1.539 . S
C4461 C4457 1.408 . S
C4461 C4460 1.404 . S
C4461 H4473 0.930 . S
C4462 C4458 1.524 1_655 S
C4462 H4474 0.956 . S
C4462 H4475 0.961 . S
C4462 H4476 0.961 . S
C4463 C4460 1.539 . S
C4463 H4477 0.958 . S
C4463 H4478 0.961 . S
C4463 H4479 0.960 . S
H4464 C4448 0.931 . S
H4465 C4453 0.929 . S
H4466 C4454 0.960 . S
H4467 C4454 0.962 . S
H4468 C4454 0.960 . S
H4469 C4455 0.961 . S
H4470 C4455 0.961 . S
H4471 C4455 0.961 . S
H4472 C4456 0.931 . S
H4473 C4461 0.930 . S
H4474 C4462 0.956 . S
H4475 C4462 0.961 . S
H4476 C4462 0.961 . S
H4477 C4463 0.958 . S
H4478 C4463 0.961 . S
H4479 C4463 0.960 . S
C4480 C4481 1.391 . S
C4480 C4482 1.394 . S
C4480 H4496 0.931 . S
C4481 C4480 1.391 . S
C4481 C4485 1.376 . S
C4482 C4480 1.394 . S
C4482 C4483 1.369 . S
C4482 C4486 1.531 . S
C4483 C4482 1.369 . S
C4483 C4484 1.410 . S
C4483 C4491 1.503 . S
C4484 C4483 1.410 . S
C4484 C4485 1.392 . S
C4484 C4487 1.511 . S
C4485 C4481 1.376 . S
C4485 C4484 1.392 . S
C4485 H4497 0.929 . S
C4486 C4482 1.531 . S
C4486 H4498 0.960 . S
C4486 H4499 0.962 . S
C4486 H4500 0.960 . S
C4487 C4484 1.511 . S
C4487 H4501 0.961 . S
C4487 H4502 0.961 . S
C4487 H4503 0.961 . S
C4488 C4489 1.370 . S
C4488 C4490 1.363 . S
C4488 H4504 0.931 . S
C4489 C4488 1.370 . S
C4489 C4493 1.408 . S
C4490 C4488 1.363 . S
C4490 C4491 1.370 . S
C4490 C4494 1.524 . S
C4491 C4483 1.503 . S
C4491 C4490 1.370 . S
C4491 C4492 1.403 . S
C4492 C4491 1.403 . S
C4492 C4493 1.404 . S
C4492 C4495 1.539 . S
C4493 C4489 1.408 . S
C4493 C4492 1.404 . S
C4493 H4505 0.930 . S
C4494 C4490 1.524 . S
C4494 H4506 0.956 . S
C4494 H4507 0.961 . S
C4494 H4508 0.961 . S
C4495 C4492 1.539 . S
C4495 H4509 0.958 . S
C4495 H4510 0.961 . S
C4495 H4511 0.960 . S
H4496 C4480 0.931 . S
H4497 C4485 0.929 . S
H4498 C4486 0.960 . S
H4499 C4486 0.962 . S
H4500 C4486 0.960 . S
H4501 C4487 0.961 . S
H4502 C4487 0.961 . S
H4503 C4487 0.961 . S
H4504 C4488 0.931 . S
H4505 C4493 0.930 . S
H4506 C4494 0.956 . S
H4507 C4494 0.961 . S
H4508 C4494 0.961 . S
H4509 C4495 0.958 . S
H4510 C4495 0.961 . S
H4511 C4495 0.960 . S
C4512 C4513 1.391 . S
C4512 C4514 1.394 . S
C4512 H4528 0.931 . S
C4513 C4512 1.391 . S
C4513 C4517 1.376 . S
C4514 C4512 1.394 . S
C4514 C4515 1.369 . S
C4514 C4518 1.531 . S
C4515 C4514 1.369 . S
C4515 C4516 1.410 . S
C4515 C4523 1.503 . S
C4516 C4515 1.410 . S
C4516 C4517 1.392 . S
C4516 C4519 1.511 . S
C4517 C4513 1.376 . S
C4517 C4516 1.392 . S
C4517 H4529 0.929 . S
C4518 C4514 1.531 . S
C4518 H4530 0.960 . S
C4518 H4531 0.962 . S
C4518 H4532 0.960 . S
C4519 C4516 1.511 . S
C4519 H4533 0.961 . S
C4519 H4534 0.961 . S
C4519 H4535 0.961 . S
C4520 C4521 1.370 . S
C4520 C4522 1.363 . S
C4520 H4536 0.931 . S
C4521 C4520 1.370 . S
C4521 C4525 1.408 . S
C4522 C4520 1.363 . S
C4522 C4523 1.370 . S
C4522 C4526 1.524 . S
C4523 C4515 1.503 . S
C4523 C4522 1.370 . S
C4523 C4524 1.403 . S
C4524 C4523 1.403 . S
C4524 C4525 1.404 . S
C4524 C4527 1.539 . S
C4525 C4521 1.408 . S
C4525 C4524 1.404 . S
C4525 H4537 0.930 . S
C4526 C4522 1.524 . S
C4526 H4538 0.956 . S
C4526 H4539 0.961 . S
C4526 H4540 0.961 . S
C4527 C4524 1.539 . S
C4527 H4541 0.958 . S
C4527 H4542 0.961 . S
C4527 H4543 0.960 . S
H4528 C4512 0.931 . S
H4529 C4517 0.929 . S
H4530 C4518 0.960 . S
H4531 C4518 0.962 . S
H4532 C4518 0.960 . S
H4533 C4519 0.961 . S
H4534 C4519 0.961 . S
H4535 C4519 0.961 . S
H4536 C4520 0.931 . S
H4537 C4525 0.930 . S
H4538 C4526 0.956 . S
H4539 C4526 0.961 . S
H4540 C4526 0.961 . S
H4541 C4527 0.958 . S
H4542 C4527 0.961 . S
H4543 C4527 0.960 . S
C4544 C4545 1.391 . S
C4544 C4546 1.394 . S
C4544 H4560 0.931 . S
C4545 C4544 1.391 . S
C4545 C4549 1.376 . S
C4546 C4544 1.394 . S
C4546 C4547 1.369 . S
C4546 C4550 1.531 . S
C4547 C4546 1.369 . S
C4547 C4548 1.410 . S
C4547 C4555 1.503 . S
C4548 C4547 1.410 . S
C4548 C4549 1.392 . S
C4548 C4551 1.511 . S
C4549 C4545 1.376 . S
C4549 C4548 1.392 . S
C4549 H4561 0.929 . S
C4550 C4546 1.531 . S
C4550 H4562 0.960 . S
C4550 H4563 0.962 . S
C4550 H4564 0.960 . S
C4551 C4548 1.511 . S
C4551 H4565 0.961 . S
C4551 H4566 0.961 . S
C4551 H4567 0.961 . S
C4552 C4553 1.370 . S
C4552 C4554 1.363 . S
C4552 H4568 0.931 . S
C4553 C4552 1.370 . S
C4553 C4557 1.408 . S
C4554 C4552 1.363 . S
C4554 C4555 1.370 . S
C4554 C4558 1.524 . S
C4555 C4547 1.503 . S
C4555 C4554 1.370 . S
C4555 C4556 1.403 . S
C4556 C4555 1.403 . S
C4556 C4557 1.404 . S
C4556 C4559 1.539 . S
C4557 C4553 1.408 . S
C4557 C4556 1.404 . S
C4557 H4569 0.930 . S
C4558 C4554 1.524 . S
C4558 H4570 0.956 . S
C4558 H4571 0.961 . S
C4558 H4572 0.961 . S
C4559 C4556 1.539 . S
C4559 H4573 0.958 . S
C4559 H4574 0.961 . S
C4559 H4575 0.960 . S
H4560 C4544 0.931 . S
H4561 C4549 0.929 . S
H4562 C4550 0.960 . S
H4563 C4550 0.962 . S
H4564 C4550 0.960 . S
H4565 C4551 0.961 . S
H4566 C4551 0.961 . S
H4567 C4551 0.961 . S
H4568 C4552 0.931 . S
H4569 C4557 0.930 . S
H4570 C4558 0.956 . S
H4571 C4558 0.961 . S
H4572 C4558 0.961 . S
H4573 C4559 0.958 . S
H4574 C4559 0.961 . S
H4575 C4559 0.960 . S
C4576 C4577 1.391 . S
C4576 C4578 1.394 . S
C4576 H4592 0.931 . S
C4577 C4576 1.391 . S
C4577 C4581 1.376 . S
C4578 C4576 1.394 . S
C4578 C4579 1.369 . S
C4578 C4582 1.531 . S
C4579 C4578 1.369 . S
C4579 C4580 1.410 . S
C4579 C4587 1.503 . S
C4580 C4579 1.410 . S
C4580 C4581 1.392 . S
C4580 C4583 1.511 . S
C4581 C4577 1.376 . S
C4581 C4580 1.392 . S
C4581 H4593 0.929 . S
C4582 C4578 1.531 . S
C4582 H4594 0.960 . S
C4582 H4595 0.962 . S
C4582 H4596 0.960 . S
C4583 C4580 1.511 . S
C4583 H4597 0.961 . S
C4583 H4598 0.961 . S
C4583 H4599 0.961 . S
C4584 C4585 1.370 . S
C4584 C4586 1.363 . S
C4584 H4600 0.931 . S
C4585 C4584 1.370 . S
C4585 C4589 1.408 . S
C4586 C4584 1.363 . S
C4586 C4587 1.370 . S
C4586 C4590 1.524 . S
C4587 C4579 1.503 . S
C4587 C4586 1.370 . S
C4587 C4588 1.403 . S
C4588 C4587 1.403 . S
C4588 C4589 1.404 . S
C4588 C4591 1.539 . S
C4589 C4585 1.408 . S
C4589 C4588 1.404 . S
C4589 H4601 0.930 . S
C4590 C4586 1.524 . S
C4590 H4602 0.956 . S
C4590 H4603 0.961 . S
C4590 H4604 0.961 . S
C4591 C4588 1.539 . S
C4591 H4605 0.958 . S
C4591 H4606 0.961 . S
C4591 H4607 0.960 . S
H4592 C4576 0.931 . S
H4593 C4581 0.929 . S
H4594 C4582 0.960 . S
H4595 C4582 0.962 . S
H4596 C4582 0.960 . S
H4597 C4583 0.961 . S
H4598 C4583 0.961 . S
H4599 C4583 0.961 . S
H4600 C4584 0.931 . S
H4601 C4589 0.930 . S
H4602 C4590 0.956 . S
H4603 C4590 0.961 . S
H4604 C4590 0.961 . S
H4605 C4591 0.958 . S
H4606 C4591 0.961 . S
H4607 C4591 0.960 . S
C4608 C4609 1.391 . S
C4608 C4610 1.394 . S
C4608 H4624 0.931 . S
C4609 C4608 1.391 . S
C4609 C4613 1.376 . S
C4610 C4608 1.394 . S
C4610 C4611 1.369 . S
C4610 C4614 1.531 . S
C4611 C4610 1.369 . S
C4611 C4612 1.410 . S
C4611 C4619 1.503 . S
C4612 C4611 1.410 . S
C4612 C4613 1.392 . S
C4612 C4615 1.511 . S
C4613 C4609 1.376 . S
C4613 C4612 1.392 . S
C4613 H4625 0.929 . S
C4614 C4610 1.531 . S
C4614 H4626 0.960 . S
C4614 H4627 0.962 . S
C4614 H4628 0.960 . S
C4615 C4612 1.511 . S
C4615 H4629 0.961 . S
C4615 H4630 0.961 . S
C4615 H4631 0.961 . S
C4616 C4617 1.370 . S
C4616 C4618 1.363 . S
C4616 H4632 0.931 . S
C4617 C4616 1.370 . S
C4617 C4621 1.408 . S
C4618 C4616 1.363 . S
C4618 C4619 1.370 . S
C4618 C4622 1.524 . S
C4619 C4611 1.503 . S
C4619 C4618 1.370 . S
C4619 C4620 1.403 . S
C4620 C4619 1.403 . S
C4620 C4621 1.404 . S
C4620 C4623 1.539 . S
C4621 C4617 1.408 . S
C4621 C4620 1.404 . S
C4621 H4633 0.930 1_556 S
C4622 C4618 1.524 . S
C4622 H4634 0.956 . S
C4622 H4635 0.961 . S
C4622 H4636 0.961 . S
C4623 C4620 1.539 . S
C4623 H4637 0.958 . S
C4623 H4638 0.961 . S
C4623 H4639 0.960 . S
H4624 C4608 0.931 . S
H4625 C4613 0.929 . S
H4626 C4614 0.960 . S
H4627 C4614 0.962 . S
H4628 C4614 0.960 . S
H4629 C4615 0.961 . S
H4630 C4615 0.961 . S
H4631 C4615 0.961 . S
H4632 C4616 0.931 . S
H4633 C4621 0.930 1_554 S
H4634 C4622 0.956 . S
H4635 C4622 0.961 . S
H4636 C4622 0.961 . S
H4637 C4623 0.958 . S
H4638 C4623 0.961 . S
H4639 C4623 0.960 . S
C4640 C4641 1.391 . S
C4640 C4642 1.394 . S
C4640 H4656 0.931 . S
C4641 C4640 1.391 . S
C4641 C4645 1.376 . S
C4642 C4640 1.394 . S
C4642 C4643 1.369 . S
C4642 C4646 1.531 . S
C4643 C4642 1.369 . S
C4643 C4644 1.410 . S
C4643 C4651 1.503 . S
C4644 C4643 1.410 . S
C4644 C4645 1.392 . S
C4644 C4647 1.511 . S
C4645 C4641 1.376 . S
C4645 C4644 1.392 . S
C4645 H4657 0.929 . S
C4646 C4642 1.531 . S
C4646 H4658 0.960 . S
C4646 H4659 0.962 . S
C4646 H4660 0.960 . S
C4647 C4644 1.511 . S
C4647 H4661 0.961 . S
C4647 H4662 0.961 . S
C4647 H4663 0.961 . S
C4648 C4649 1.370 . S
C4648 C4650 1.363 . S
C4648 H4664 0.931 . S
C4649 C4648 1.370 . S
C4649 C4653 1.408 . S
C4650 C4648 1.363 . S
C4650 C4651 1.370 . S
C4650 C4654 1.524 . S
C4651 C4643 1.503 . S
C4651 C4650 1.370 . S
C4651 C4652 1.403 . S
C4652 C4651 1.403 . S
C4652 C4653 1.404 . S
C4652 C4655 1.539 . S
C4653 C4649 1.408 . S
C4653 C4652 1.404 . S
C4653 H4665 0.930 . S
C4654 C4650 1.524 . S
C4654 H4666 0.956 . S
C4654 H4667 0.961 . S
C4654 H4668 0.961 . S
C4655 C4652 1.539 . S
C4655 H4669 0.958 . S
C4655 H4670 0.961 . S
C4655 H4671 0.960 . S
H4656 C4640 0.931 . S
H4657 C4645 0.929 . S
H4658 C4646 0.960 . S
H4659 C4646 0.962 . S
H4660 C4646 0.960 . S
H4661 C4647 0.961 . S
H4662 C4647 0.961 . S
H4663 C4647 0.961 . S
H4664 C4648 0.931 . S
H4665 C4653 0.930 . S
H4666 C4654 0.956 . S
H4667 C4654 0.961 . S
H4668 C4654 0.961 . S
H4669 C4655 0.958 . S
H4670 C4655 0.961 . S
H4671 C4655 0.960 . S
C4672 C4673 1.391 . S
C4672 C4674 1.394 . S
C4672 H4688 0.931 . S
C4673 C4672 1.391 . S
C4673 C4677 1.376 . S
C4674 C4672 1.394 . S
C4674 C4675 1.369 . S
C4674 C4678 1.531 . S
C4675 C4674 1.369 . S
C4675 C4676 1.410 . S
C4675 C4683 1.503 . S
C4676 C4675 1.410 . S
C4676 C4677 1.392 . S
C4676 C4679 1.511 . S
C4677 C4673 1.376 . S
C4677 C4676 1.392 . S
C4677 H4689 0.929 . S
C4678 C4674 1.531 . S
C4678 H4690 0.960 . S
C4678 H4691 0.962 . S
C4678 H4692 0.960 . S
C4679 C4676 1.511 . S
C4679 H4693 0.961 . S
C4679 H4694 0.961 . S
C4679 H4695 0.961 . S
C4680 C4681 1.370 . S
C4680 C4682 1.363 . S
C4680 H4696 0.931 . S
C4681 C4680 1.370 . S
C4681 C4685 1.408 . S
C4682 C4680 1.363 . S
C4682 C4683 1.370 . S
C4682 C4686 1.524 . S
C4683 C4675 1.503 . S
C4683 C4682 1.370 . S
C4683 C4684 1.403 . S
C4684 C4683 1.403 . S
C4684 C4685 1.404 . S
C4684 C4687 1.539 . S
C4685 C4681 1.408 . S
C4685 C4684 1.404 . S
C4685 H4697 0.930 . S
C4686 C4682 1.524 . S
C4686 H4698 0.956 . S
C4686 H4699 0.961 . S
C4686 H4700 0.961 . S
C4687 C4684 1.539 . S
C4687 H4701 0.958 . S
C4687 H4702 0.961 . S
C4687 H4703 0.960 . S
H4688 C4672 0.931 . S
H4689 C4677 0.929 . S
H4690 C4678 0.960 . S
H4691 C4678 0.962 . S
H4692 C4678 0.960 . S
H4693 C4679 0.961 . S
H4694 C4679 0.961 . S
H4695 C4679 0.961 . S
H4696 C4680 0.931 . S
H4697 C4685 0.930 . S
H4698 C4686 0.956 . S
H4699 C4686 0.961 . S
H4700 C4686 0.961 . S
H4701 C4687 0.958 . S
H4702 C4687 0.961 . S
H4703 C4687 0.960 . S
C4704 C4705 1.391 . S
C4704 C4706 1.394 . S
C4704 H4720 0.931 . S
C4705 C4704 1.391 . S
C4705 C4709 1.376 . S
C4706 C4704 1.394 . S
C4706 C4707 1.369 . S
C4706 C4710 1.531 . S
C4707 C4706 1.369 . S
C4707 C4708 1.410 . S
C4707 C4715 1.503 . S
C4708 C4707 1.410 . S
C4708 C4709 1.392 . S
C4708 C4711 1.511 . S
C4709 C4705 1.376 . S
C4709 C4708 1.392 . S
C4709 H4721 0.929 . S
C4710 C4706 1.531 . S
C4710 H4722 0.960 . S
C4710 H4723 0.962 . S
C4710 H4724 0.960 . S
C4711 C4708 1.511 . S
C4711 H4725 0.961 . S
C4711 H4726 0.961 . S
C4711 H4727 0.961 . S
C4712 C4713 1.370 . S
C4712 C4714 1.363 . S
C4712 H4728 0.931 . S
C4713 C4712 1.370 . S
C4713 C4717 1.408 . S
C4714 C4712 1.363 . S
C4714 C4715 1.370 . S
C4714 C4718 1.524 . S
C4715 C4707 1.503 . S
C4715 C4714 1.370 . S
C4715 C4716 1.403 . S
C4716 C4715 1.403 . S
C4716 C4717 1.404 . S
C4716 C4719 1.539 . S
C4717 C4713 1.408 . S
C4717 C4716 1.404 . S
C4717 H4729 0.930 . S
C4718 C4714 1.524 . S
C4718 H4730 0.956 . S
C4718 H4731 0.961 . S
C4718 H4732 0.961 . S
C4719 C4716 1.539 . S
C4719 H4733 0.958 . S
C4719 H4734 0.961 . S
C4719 H4735 0.960 . S
H4720 C4704 0.931 . S
H4721 C4709 0.929 . S
H4722 C4710 0.960 . S
H4723 C4710 0.962 . S
H4724 C4710 0.960 . S
H4725 C4711 0.961 . S
H4726 C4711 0.961 . S
H4727 C4711 0.961 . S
H4728 C4712 0.931 . S
H4729 C4717 0.930 . S
H4730 C4718 0.956 . S
H4731 C4718 0.961 . S
H4732 C4718 0.961 . S
H4733 C4719 0.958 . S
H4734 C4719 0.961 . S
H4735 C4719 0.960 . S
C4736 C4737 1.391 . S
C4736 C4738 1.394 . S
C4736 H4752 0.931 . S
C4737 C4736 1.391 . S
C4737 C4741 1.376 . S
C4738 C4736 1.394 . S
C4738 C4739 1.369 . S
C4738 C4742 1.531 . S
C4739 C4738 1.369 . S
C4739 C4740 1.410 . S
C4739 C4747 1.503 . S
C4740 C4739 1.410 . S
C4740 C4741 1.392 . S
C4740 C4743 1.511 . S
C4741 C4737 1.376 . S
C4741 C4740 1.392 . S
C4741 H4753 0.929 . S
C4742 C4738 1.531 . S
C4742 H4754 0.960 . S
C4742 H4755 0.962 . S
C4742 H4756 0.960 . S
C4743 C4740 1.511 . S
C4743 H4757 0.961 . S
C4743 H4758 0.961 . S
C4743 H4759 0.961 . S
C4744 C4745 1.370 . S
C4744 C4746 1.363 . S
C4744 H4760 0.931 . S
C4745 C4744 1.370 . S
C4745 C4749 1.408 . S
C4746 C4744 1.363 . S
C4746 C4747 1.370 . S
C4746 C4750 1.524 . S
C4747 C4739 1.503 . S
C4747 C4746 1.370 . S
C4747 C4748 1.403 . S
C4748 C4747 1.403 . S
C4748 C4749 1.404 . S
C4748 C4751 1.539 . S
C4749 C4745 1.408 . S
C4749 C4748 1.404 . S
C4749 H4761 0.930 . S
C4750 C4746 1.524 . S
C4750 H4762 0.956 . S
C4750 H4763 0.961 . S
C4750 H4764 0.961 . S
C4751 C4748 1.539 . S
C4751 H4765 0.958 . S
C4751 H4766 0.961 . S
C4751 H4767 0.960 . S
H4752 C4736 0.931 . S
H4753 C4741 0.929 . S
H4754 C4742 0.960 . S
H4755 C4742 0.962 . S
H4756 C4742 0.960 . S
H4757 C4743 0.961 . S
H4758 C4743 0.961 . S
H4759 C4743 0.961 . S
H4760 C4744 0.931 . S
H4761 C4749 0.930 . S
H4762 C4750 0.956 . S
H4763 C4750 0.961 . S
H4764 C4750 0.961 . S
H4765 C4751 0.958 . S
H4766 C4751 0.961 . S
H4767 C4751 0.960 . S
C4768 C4769 1.391 . S
C4768 C4770 1.394 . S
C4768 H4784 0.931 . S
C4769 C4768 1.391 . S
C4769 C4773 1.376 . S
C4770 C4768 1.394 . S
C4770 C4771 1.369 . S
C4770 C4774 1.531 . S
C4771 C4770 1.369 . S
C4771 C4772 1.410 . S
C4771 C4779 1.503 . S
C4772 C4771 1.410 . S
C4772 C4773 1.392 . S
C4772 C4775 1.511 . S
C4773 C4769 1.376 . S
C4773 C4772 1.392 . S
C4773 H4785 0.929 . S
C4774 C4770 1.531 . S
C4774 H4786 0.960 . S
C4774 H4787 0.962 . S
C4774 H4788 0.960 . S
C4775 C4772 1.511 . S
C4775 H4789 0.961 . S
C4775 H4790 0.961 . S
C4775 H4791 0.961 . S
C4776 C4777 1.370 . S
C4776 C4778 1.363 . S
C4776 H4792 0.931 . S
C4777 C4776 1.370 . S
C4777 C4781 1.408 . S
C4778 C4776 1.363 . S
C4778 C4779 1.370 . S
C4778 C4782 1.524 . S
C4779 C4771 1.503 . S
C4779 C4778 1.370 . S
C4779 C4780 1.403 . S
C4780 C4779 1.403 . S
C4780 C4781 1.404 . S
C4780 C4783 1.539 . S
C4781 C4777 1.408 . S
C4781 C4780 1.404 . S
C4781 H4793 0.930 . S
C4782 C4778 1.524 . S
C4782 H4794 0.956 . S
C4782 H4795 0.961 . S
C4782 H4796 0.961 . S
C4783 C4780 1.539 . S
C4783 H4797 0.958 . S
C4783 H4798 0.961 . S
C4783 H4799 0.960 . S
H4784 C4768 0.931 . S
H4785 C4773 0.929 . S
H4786 C4774 0.960 . S
H4787 C4774 0.962 . S
H4788 C4774 0.960 . S
H4789 C4775 0.961 . S
H4790 C4775 0.961 . S
H4791 C4775 0.961 . S
H4792 C4776 0.931 . S
H4793 C4781 0.930 . S
H4794 C4782 0.956 . S
H4795 C4782 0.961 . S
H4796 C4782 0.961 . S
H4797 C4783 0.958 . S
H4798 C4783 0.961 . S
H4799 C4783 0.960 . S
C4800 C4801 1.391 . S
C4800 C4802 1.394 . S
C4800 H4816 0.931 . S
C4801 C4800 1.391 . S
C4801 C4805 1.376 . S
C4802 C4800 1.394 . S
C4802 C4803 1.369 . S
C4802 C4806 1.531 . S
C4803 C4802 1.369 . S
C4803 C4804 1.410 . S
C4803 C4811 1.503 . S
C4804 C4803 1.410 . S
C4804 C4805 1.392 . S
C4804 C4807 1.511 . S
C4805 C4801 1.376 . S
C4805 C4804 1.392 . S
C4805 H4817 0.929 . S
C4806 C4802 1.531 . S
C4806 H4818 0.960 . S
C4806 H4819 0.962 . S
C4806 H4820 0.960 . S
C4807 C4804 1.511 . S
C4807 H4821 0.961 . S
C4807 H4822 0.961 . S
C4807 H4823 0.961 . S
C4808 C4809 1.370 . S
C4808 C4810 1.363 . S
C4808 H4824 0.931 . S
C4809 C4808 1.370 . S
C4809 C4813 1.408 . S
C4810 C4808 1.363 . S
C4810 C4811 1.370 . S
C4810 C4814 1.524 . S
C4811 C4803 1.503 . S
C4811 C4810 1.370 . S
C4811 C4812 1.403 . S
C4812 C4811 1.403 . S
C4812 C4813 1.404 . S
C4812 C4815 1.539 . S
C4813 C4809 1.408 . S
C4813 C4812 1.404 . S
C4813 H4825 0.930 . S
C4814 C4810 1.524 . S
C4814 H4826 0.956 . S
C4814 H4827 0.961 . S
C4814 H4828 0.961 . S
C4815 C4812 1.539 . S
C4815 H4829 0.958 . S
C4815 H4830 0.961 . S
C4815 H4831 0.960 . S
H4816 C4800 0.931 . S
H4817 C4805 0.929 . S
H4818 C4806 0.960 . S
H4819 C4806 0.962 . S
H4820 C4806 0.960 . S
H4821 C4807 0.961 . S
H4822 C4807 0.961 . S
H4823 C4807 0.961 . S
H4824 C4808 0.931 . S
H4825 C4813 0.930 . S
H4826 C4814 0.956 . S
H4827 C4814 0.961 . S
H4828 C4814 0.961 . S
H4829 C4815 0.958 . S
H4830 C4815 0.961 . S
H4831 C4815 0.960 . S
C4832 C4833 1.391 . S
C4832 C4834 1.394 . S
C4832 H4848 0.931 . S
C4833 C4832 1.391 . S
C4833 C4837 1.376 . S
C4834 C4832 1.394 . S
C4834 C4835 1.369 . S
C4834 C4838 1.531 . S
C4835 C4834 1.369 . S
C4835 C4836 1.410 . S
C4835 C4843 1.503 . S
C4836 C4835 1.410 . S
C4836 C4837 1.392 . S
C4836 C4839 1.511 . S
C4837 C4833 1.376 . S
C4837 C4836 1.392 . S
C4837 H4849 0.929 . S
C4838 C4834 1.531 . S
C4838 H4850 0.960 . S
C4838 H4851 0.962 . S
C4838 H4852 0.960 . S
C4839 C4836 1.511 . S
C4839 H4853 0.961 . S
C4839 H4854 0.961 . S
C4839 H4855 0.961 . S
C4840 C4841 1.370 . S
C4840 C4842 1.363 . S
C4840 H4856 0.931 . S
C4841 C4840 1.370 . S
C4841 C4845 1.408 . S
C4842 C4840 1.363 . S
C4842 C4843 1.370 . S
C4842 C4846 1.524 . S
C4843 C4835 1.503 . S
C4843 C4842 1.370 . S
C4843 C4844 1.403 . S
C4844 C4843 1.403 . S
C4844 C4845 1.404 . S
C4844 C4847 1.539 . S
C4845 C4841 1.408 . S
C4845 C4844 1.404 . S
C4845 H4857 0.930 . S
C4846 C4842 1.524 . S
C4846 H4858 0.956 . S
C4846 H4859 0.961 . S
C4846 H4860 0.961 . S
C4847 C4844 1.539 . S
C4847 H4861 0.958 . S
C4847 H4862 0.961 . S
C4847 H4863 0.960 . S
H4848 C4832 0.931 . S
H4849 C4837 0.929 . S
H4850 C4838 0.960 . S
H4851 C4838 0.962 . S
H4852 C4838 0.960 . S
H4853 C4839 0.961 . S
H4854 C4839 0.961 . S
H4855 C4839 0.961 . S
H4856 C4840 0.931 . S
H4857 C4845 0.930 . S
H4858 C4846 0.956 . S
H4859 C4846 0.961 . S
H4860 C4846 0.961 . S
H4861 C4847 0.958 . S
H4862 C4847 0.961 . S
H4863 C4847 0.960 . S
C4864 C4865 1.391 . S
C4864 C4866 1.394 . S
C4864 H4880 0.931 . S
C4865 C4864 1.391 . S
C4865 C4869 1.376 . S
C4866 C4864 1.394 . S
C4866 C4867 1.369 . S
C4866 C4870 1.531 . S
C4867 C4866 1.369 . S
C4867 C4868 1.410 . S
C4867 C4875 1.503 . S
C4868 C4867 1.410 . S
C4868 C4869 1.392 . S
C4868 C4871 1.511 . S
C4869 C4865 1.376 . S
C4869 C4868 1.392 . S
C4869 H4881 0.929 . S
C4870 C4866 1.531 . S
C4870 H4882 0.960 . S
C4870 H4883 0.962 . S
C4870 H4884 0.960 . S
C4871 C4868 1.511 . S
C4871 H4885 0.961 . S
C4871 H4886 0.961 . S
C4871 H4887 0.961 . S
C4872 C4873 1.370 . S
C4872 C4874 1.363 . S
C4872 H4888 0.931 . S
C4873 C4872 1.370 . S
C4873 C4877 1.408 . S
C4874 C4872 1.363 . S
C4874 C4875 1.370 . S
C4874 C4878 1.524 . S
C4875 C4867 1.503 . S
C4875 C4874 1.370 . S
C4875 C4876 1.403 . S
C4876 C4875 1.403 . S
C4876 C4877 1.404 . S
C4876 C4879 1.539 . S
C4877 C4873 1.408 . S
C4877 C4876 1.404 . S
C4877 H4889 0.930 . S
C4878 C4874 1.524 . S
C4878 H4890 0.956 . S
C4878 H4891 0.961 . S
C4878 H4892 0.961 . S
C4879 C4876 1.539 . S
C4879 H4893 0.958 . S
C4879 H4894 0.961 . S
C4879 H4895 0.960 . S
H4880 C4864 0.931 . S
H4881 C4869 0.929 . S
H4882 C4870 0.960 . S
H4883 C4870 0.962 . S
H4884 C4870 0.960 . S
H4885 C4871 0.961 . S
H4886 C4871 0.961 . S
H4887 C4871 0.961 . S
H4888 C4872 0.931 . S
H4889 C4877 0.930 . S
H4890 C4878 0.956 . S
H4891 C4878 0.961 . S
H4892 C4878 0.961 . S
H4893 C4879 0.958 . S
H4894 C4879 0.961 . S
H4895 C4879 0.960 . S
C1441 C609 1.008 . S
C1449 C9 0.995 . S
C1473 C649 0.952 . S
C1481 C49 1.018 . S
C1505 C89 1.078 . S
C1513 C689 1.025 . S
C1537 C129 1.023 . S
C1545 C969 1.031 . S
C1569 C169 0.977 . S
C1577 C1009 1.024 . S
C1601 C209 1.058 . S
C1609 C1049 1.008 . S
C1633 C1338 1.040 . S
C1641 C258 0.989 . S
C1665 C1378 0.982 . S
C1673 C298 0.989 . S
C1697 C338 1.062 . S
C1705 C1418 1.003 . S
C1729 C738 1.059 . S
C1737 C378 1.000 . S
C1761 C418 1.012 . S
C1769 C778 0.988 . S
C1793 C458 1.045 . S
C1801 C818 0.994 . S
C1825 C1089 0.994 . S
C1833 C489 1.027 . S
C1857 C529 1.027 . S
C1865 C1129 0.994 . S
C1889 C1169 1.019 . S
C1897 C569 0.990 . S
C1921 C1218 1.010 . S
C1929 C858 1.032 . S
C1953 C1258 0.991 . S
C1961 C898 1.033 . S
C1985 C938 0.979 . S
C1993 C1298 1.032 . S
C2017 C19 2.064 . S
C2025 C179 2.055 . S
C2049 C59 2.069 . S
C2057 C219 2.069 . S
C2081 C99 2.074 . S
C2089 C139 2.059 . S
C2113 C250 2.062 . S
C2121 C410 2.069 . S
C2145 C290 2.070 . S
C2153 C450 2.055 . S
C2177 C330 2.051 . S
C2185 C370 2.070 . S
C2209 C499 2.062 . S
C2217 C659 2.054 . S
C2241 C699 2.053 . S
C2249 C539 2.069 . S
C2273 C579 2.075 . S
C2281 C619 2.065 . S
C2305 C730 2.046 . S
C2313 C890 2.055 . S
C2337 C770 2.041 . S
C2345 C930 2.068 . S
C2369 C850 2.040 . S
C2377 C810 2.057 . S
C2401 C979 2.075 . S
C2409 C1139 2.060 . S
C2433 C1179 2.076 . S
C2441 C1019 2.067 . S
C2465 C1059 2.057 . S
C2473 C1099 2.053 . S
C2497 C1210 2.037 . S
C2505 C1370 2.063 . S
C2529 C1250 2.070 . S
C2537 C1410 2.055 . S
C2561 C1290 2.037 . S
C2569 C1330 2.063 . S
C2593 C419 1.568 . S
C2601 C15 1.528 . S
C2625 C55 1.532 . S
C2633 C459 1.567 . S
C2657 C95 1.508 . S
C2665 C379 1.568 . S
C2689 C135 1.507 . S
C2697 C339 1.568 . S
C2721 C175 1.547 . S
C2729 C259 1.567 . S
C2753 C299 1.560 . S
C2761 C215 1.537 . S
C2785 C246 1.525 . S
C2793 C170 1.566 . S
C2817 C210 1.560 . S
C2825 C286 1.533 . S
C2849 C326 1.520 . S
C2857 C130 1.567 . S
C2881 C366 1.549 . S
C2889 C90 1.570 . S
C2913 C10 1.565 . S
C2921 C406 1.526 . S
C2945 C50 1.561 . S
C2953 C446 1.526 . S
C2977 C899 1.563 . S
C2985 C495 1.525 . S
C3009 C939 1.562 . S
C3017 C535 1.543 . S
C3041 C859 1.568 . S
C3049 C575 1.530 . S
C3073 C819 1.569 . S
C3081 C615 1.532 . S
C3105 C655 1.548 . S
C3113 C739 1.568 . S
C3137 C779 1.568 . S
C3145 C695 1.528 . S
C3169 C650 1.568 . S
C3177 C726 1.545 . S
C3201 C766 1.510 . S
C3209 C690 1.568 . S
C3233 C806 1.522 . S
C3241 C610 1.567 . S
C3265 C570 1.566 . S
C3273 C846 1.545 . S
C3297 C886 1.509 . S
C3305 C490 1.568 . S
C3329 C926 1.540 . S
C3337 C530 1.568 . S
C3361 C975 1.512 . S
C3369 C1379 1.568 . S
C3393 C1015 1.512 . S
C3401 C1419 1.568 . S
C3425 C1339 1.568 . S
C3433 C1055 1.545 . S
C3457 C1299 1.569 . S
C3465 C1095 1.539 . S
C3489 C1135 1.540 . S
C3497 C1219 1.567 . S
C3521 C1259 1.569 . S
C3529 C1175 1.540 . S
C3553 C1206 1.519 . S
C3561 C1130 1.570 . S
C3585 C1170 1.569 . S
C3593 C1246 1.533 . S
C3617 C1286 1.525 . S
C3625 C1090 1.567 . S
C3649 C1326 1.546 . S
C3657 C1050 1.571 . S
C3681 C970 1.569 . S
C3689 C1366 1.532 . S
C3713 C1010 1.569 . S
C3721 C1406 1.543 . S
C3745 C6 1.095 . S
C3753 C166 1.110 . S
C3777 C206 1.134 . S
C3785 C46 1.122 . S
C3809 C86 1.106 . S
C3817 C126 1.109 . S
C3841 C255 1.112 . S
C3849 C415 1.111 . S
C3873 C455 1.131 . S
C3881 C295 1.125 . S
C3905 C335 1.100 . S
C3913 C375 1.115 . S
C3937 C646 1.100 . S
C3945 C486 1.118 . S
C3969 C686 1.131 . S
C3977 C526 1.124 . S
C4001 C606 1.114 . S
C4009 C566 1.124 . S
C4033 C895 1.099 . S
C4041 C735 1.115 . S
C4065 C775 1.130 . S
C4073 C935 1.125 . S
C4097 C855 1.130 . S
C4105 C815 1.119 . S
C4129 C1126 1.130 . S
C4137 C966 1.117 . S
C4161 C1006 1.135 . S
C4169 C1166 1.123 . S
C4193 C1046 1.110 . S
C4201 C1086 1.109 . S
C4225 C1375 1.102 . S
C4233 C1215 1.117 . S
C4257 C1255 1.128 . S
C4265 C1415 1.125 . S
C4289 C1295 1.129 . S
C4297 C1335 1.119 . S
C4321 C18 0.256 . S
C4329 C249 0.278 . S
C4353 C58 0.355 . S
C4361 C289 0.238 . S
C4385 C329 0.233 . S
C4393 C98 0.288 . S
C4417 C369 0.207 . S
C4425 C138 0.302 . S
C4449 C178 0.358 . S
C4457 C409 0.232 . S
C4481 C218 0.294 . S
C4489 C449 0.274 . S
C4513 C729 0.335 . S
C4521 C498 0.242 . S
C4545 C538 0.359 . S
C4553 C769 0.233 . S
C4577 C809 0.310 . S
C4585 C578 0.266 . S
C4609 C849 0.203 . S
C4617 C618 0.297 . S
C4641 C889 0.251 . S
C4649 C658 0.281 . S
C4673 C929 0.340 . S
C4681 C698 0.241 . S
C4705 C1209 0.323 . S
C4713 C978 0.249 . S
C4737 C1018 0.342 . S
C4745 C1249 0.249 . S
C4769 C1289 0.234 . S
C4777 C1058 0.296 . S
C4801 C1329 0.338 . S
C4809 C1098 0.241 . S
C4833 C1369 0.319 . S
C4841 C1138 0.262 . S
C4865 C1178 0.259 . S
C4873 C1409 0.278 . S
