# Generated by pormake.
# Topology ukv, (4)-cn, num edge types: 1
# Building blocks:
#     Node 0, Type 0, BuildingBlock: CEKHIL_clean_sbu_0, # of connection points: 4
#     Node 1, Type 0, BuildingBlock: CEKHIL_clean_sbu_0, # of connection points: 4
#     Node 2, Type 0, BuildingBlock: CEKHIL_clean_sbu_0, # of connection points: 4
#     Node 3, Type 0, BuildingBlock: CEKHIL_clean_sbu_0, # of connection points: 4
#     Node 4, Type 0, BuildingBlock: CEKHIL_clean_sbu_0, # of connection points: 4
#     Node 5, Type 0, BuildingBlock: CEKHIL_clean_sbu_0, # of connection points: 4
#     Node 6, Type 0, BuildingBlock: CEKHIL_clean_sbu_0, # of connection points: 4
#     Node 7, Type 0, BuildingBlock: CEKHIL_clean_sbu_0, # of connection points: 4
#     Node 8, Type 0, BuildingBlock: CEKHIL_clean_sbu_0, # of connection points: 4
#     Node 9, Type 0, BuildingBlock: CEKHIL_clean_sbu_0, # of connection points: 4
#     Node 10, Type 0, BuildingBlock: CEKHIL_clean_sbu_0, # of connection points: 4
#     Node 11, Type 0, BuildingBlock: CEKHIL_clean_sbu_0, # of connection points: 4
#     Node 12, Type 0, BuildingBlock: CEKHIL_clean_sbu_0, # of connection points: 4
#     Node 13, Type 0, BuildingBlock: CEKHIL_clean_sbu_0, # of connection points: 4
#     Node 14, Type 0, BuildingBlock: CEKHIL_clean_sbu_0, # of connection points: 4
#     Node 15, Type 0, BuildingBlock: CEKHIL_clean_sbu_0, # of connection points: 4
#     Node 16, Type 0, BuildingBlock: CEKHIL_clean_sbu_0, # of connection points: 4
#     Node 17, Type 0, BuildingBlock: CEKHIL_clean_sbu_0, # of connection points: 4
#     Node 18, Type 0, BuildingBlock: CEKHIL_clean_sbu_0, # of connection points: 4
#     Node 19, Type 0, BuildingBlock: CEKHIL_clean_sbu_0, # of connection points: 4
#     Node 20, Type 0, BuildingBlock: CEKHIL_clean_sbu_0, # of connection points: 4
#     Node 21, Type 0, BuildingBlock: CEKHIL_clean_sbu_0, # of connection points: 4
#     Node 22, Type 0, BuildingBlock: CEKHIL_clean_sbu_0, # of connection points: 4
#     Node 23, Type 0, BuildingBlock: CEKHIL_clean_sbu_0, # of connection points: 4
#     Node 24, Type 0, BuildingBlock: CEKHIL_clean_sbu_0, # of connection points: 4
#     Node 25, Type 0, BuildingBlock: CEKHIL_clean_sbu_0, # of connection points: 4
#     Node 26, Type 0, BuildingBlock: CEKHIL_clean_sbu_0, # of connection points: 4
#     Node 27, Type 0, BuildingBlock: CEKHIL_clean_sbu_0, # of connection points: 4
#     Node 28, Type 0, BuildingBlock: CEKHIL_clean_sbu_0, # of connection points: 4
#     Node 29, Type 0, BuildingBlock: CEKHIL_clean_sbu_0, # of connection points: 4
#     Node 30, Type 0, BuildingBlock: CEKHIL_clean_sbu_0, # of connection points: 4
#     Node 31, Type 0, BuildingBlock: CEKHIL_clean_sbu_0, # of connection points: 4
#     Node 32, Type 0, BuildingBlock: CEKHIL_clean_sbu_0, # of connection points: 4
#     Node 33, Type 0, BuildingBlock: CEKHIL_clean_sbu_0, # of connection points: 4
#     Node 34, Type 0, BuildingBlock: CEKHIL_clean_sbu_0, # of connection points: 4
#     Node 35, Type 0, BuildingBlock: CEKHIL_clean_sbu_0, # of connection points: 4
#     Edge 36, Type (0, 0), BuildingBlock: KIFKEQ_clean_linker_1, # of connection points: 2
#     Edge 37, Type (0, 0), BuildingBlock: KIFKEQ_clean_linker_1, # of connection points: 2
#     Edge 38, Type (0, 0), BuildingBlock: KIFKEQ_clean_linker_1, # of connection points: 2
#     Edge 39, Type (0, 0), BuildingBlock: KIFKEQ_clean_linker_1, # of connection points: 2
#     Edge 40, Type (0, 0), BuildingBlock: KIFKEQ_clean_linker_1, # of connection points: 2
#     Edge 41, Type (0, 0), BuildingBlock: KIFKEQ_clean_linker_1, # of connection points: 2
#     Edge 42, Type (0, 0), BuildingBlock: KIFKEQ_clean_linker_1, # of connection points: 2
#     Edge 43, Type (0, 0), BuildingBlock: KIFKEQ_clean_linker_1, # of connection points: 2
#     Edge 44, Type (0, 0), BuildingBlock: KIFKEQ_clean_linker_1, # of connection points: 2
#     Edge 45, Type (0, 0), BuildingBlock: KIFKEQ_clean_linker_1, # of connection points: 2
#     Edge 46, Type (0, 0), BuildingBlock: KIFKEQ_clean_linker_1, # of connection points: 2
#     Edge 47, Type (0, 0), BuildingBlock: KIFKEQ_clean_linker_1, # of connection points: 2
#     Edge 48, Type (0, 0), BuildingBlock: KIFKEQ_clean_linker_1, # of connection points: 2
#     Edge 49, Type (0, 0), BuildingBlock: KIFKEQ_clean_linker_1, # of connection points: 2
#     Edge 50, Type (0, 0), BuildingBlock: KIFKEQ_clean_linker_1, # of connection points: 2
#     Edge 51, Type (0, 0), BuildingBlock: KIFKEQ_clean_linker_1, # of connection points: 2
#     Edge 52, Type (0, 0), BuildingBlock: KIFKEQ_clean_linker_1, # of connection points: 2
#     Edge 53, Type (0, 0), BuildingBlock: KIFKEQ_clean_linker_1, # of connection points: 2
#     Edge 54, Type (0, 0), BuildingBlock: KIFKEQ_clean_linker_1, # of connection points: 2
#     Edge 55, Type (0, 0), BuildingBlock: KIFKEQ_clean_linker_1, # of connection points: 2
#     Edge 56, Type (0, 0), BuildingBlock: KIFKEQ_clean_linker_1, # of connection points: 2
#     Edge 57, Type (0, 0), BuildingBlock: KIFKEQ_clean_linker_1, # of connection points: 2
#     Edge 58, Type (0, 0), BuildingBlock: KIFKEQ_clean_linker_1, # of connection points: 2
#     Edge 59, Type (0, 0), BuildingBlock: KIFKEQ_clean_linker_1, # of connection points: 2
#     Edge 60, Type (0, 0), BuildingBlock: KIFKEQ_clean_linker_1, # of connection points: 2
#     Edge 61, Type (0, 0), BuildingBlock: KIFKEQ_clean_linker_1, # of connection points: 2
#     Edge 62, Type (0, 0), BuildingBlock: KIFKEQ_clean_linker_1, # of connection points: 2
#     Edge 63, Type (0, 0), BuildingBlock: KIFKEQ_clean_linker_1, # of connection points: 2
#     Edge 64, Type (0, 0), BuildingBlock: KIFKEQ_clean_linker_1, # of connection points: 2
#     Edge 65, Type (0, 0), BuildingBlock: KIFKEQ_clean_linker_1, # of connection points: 2
#     Edge 66, Type (0, 0), BuildingBlock: KIFKEQ_clean_linker_1, # of connection points: 2
#     Edge 67, Type (0, 0), BuildingBlock: KIFKEQ_clean_linker_1, # of connection points: 2
#     Edge 68, Type (0, 0), BuildingBlock: KIFKEQ_clean_linker_1, # of connection points: 2
#     Edge 69, Type (0, 0), BuildingBlock: KIFKEQ_clean_linker_1, # of connection points: 2
#     Edge 70, Type (0, 0), BuildingBlock: KIFKEQ_clean_linker_1, # of connection points: 2
#     Edge 71, Type (0, 0), BuildingBlock: KIFKEQ_clean_linker_1, # of connection points: 2
#     Edge 72, Type (0, 0), BuildingBlock: KIFKEQ_clean_linker_1, # of connection points: 2
#     Edge 73, Type (0, 0), BuildingBlock: KIFKEQ_clean_linker_1, # of connection points: 2
#     Edge 74, Type (0, 0), BuildingBlock: KIFKEQ_clean_linker_1, # of connection points: 2
#     Edge 75, Type (0, 0), BuildingBlock: KIFKEQ_clean_linker_1, # of connection points: 2
#     Edge 76, Type (0, 0), BuildingBlock: KIFKEQ_clean_linker_1, # of connection points: 2
#     Edge 77, Type (0, 0), BuildingBlock: KIFKEQ_clean_linker_1, # of connection points: 2
#     Edge 78, Type (0, 0), BuildingBlock: KIFKEQ_clean_linker_1, # of connection points: 2
#     Edge 79, Type (0, 0), BuildingBlock: KIFKEQ_clean_linker_1, # of connection points: 2
#     Edge 80, Type (0, 0), BuildingBlock: KIFKEQ_clean_linker_1, # of connection points: 2
#     Edge 81, Type (0, 0), BuildingBlock: KIFKEQ_clean_linker_1, # of connection points: 2
#     Edge 82, Type (0, 0), BuildingBlock: KIFKEQ_clean_linker_1, # of connection points: 2
#     Edge 83, Type (0, 0), BuildingBlock: KIFKEQ_clean_linker_1, # of connection points: 2
#     Edge 84, Type (0, 0), BuildingBlock: KIFKEQ_clean_linker_1, # of connection points: 2
#     Edge 85, Type (0, 0), BuildingBlock: KIFKEQ_clean_linker_1, # of connection points: 2
#     Edge 86, Type (0, 0), BuildingBlock: KIFKEQ_clean_linker_1, # of connection points: 2
#     Edge 87, Type (0, 0), BuildingBlock: KIFKEQ_clean_linker_1, # of connection points: 2
#     Edge 88, Type (0, 0), BuildingBlock: KIFKEQ_clean_linker_1, # of connection points: 2
#     Edge 89, Type (0, 0), BuildingBlock: KIFKEQ_clean_linker_1, # of connection points: 2
#     Edge 90, Type (0, 0), BuildingBlock: KIFKEQ_clean_linker_1, # of connection points: 2
#     Edge 91, Type (0, 0), BuildingBlock: KIFKEQ_clean_linker_1, # of connection points: 2
#     Edge 92, Type (0, 0), BuildingBlock: KIFKEQ_clean_linker_1, # of connection points: 2
#     Edge 93, Type (0, 0), BuildingBlock: KIFKEQ_clean_linker_1, # of connection points: 2
#     Edge 94, Type (0, 0), BuildingBlock: KIFKEQ_clean_linker_1, # of connection points: 2
#     Edge 95, Type (0, 0), BuildingBlock: KIFKEQ_clean_linker_1, # of connection points: 2
#     Edge 96, Type (0, 0), BuildingBlock: KIFKEQ_clean_linker_1, # of connection points: 2
#     Edge 97, Type (0, 0), BuildingBlock: KIFKEQ_clean_linker_1, # of connection points: 2
#     Edge 98, Type (0, 0), BuildingBlock: KIFKEQ_clean_linker_1, # of connection points: 2
#     Edge 99, Type (0, 0), BuildingBlock: KIFKEQ_clean_linker_1, # of connection points: 2
#     Edge 100, Type (0, 0), BuildingBlock: KIFKEQ_clean_linker_1, # of connection points: 2
#     Edge 101, Type (0, 0), BuildingBlock: KIFKEQ_clean_linker_1, # of connection points: 2
#     Edge 102, Type (0, 0), BuildingBlock: KIFKEQ_clean_linker_1, # of connection points: 2
#     Edge 103, Type (0, 0), BuildingBlock: KIFKEQ_clean_linker_1, # of connection points: 2
#     Edge 104, Type (0, 0), BuildingBlock: KIFKEQ_clean_linker_1, # of connection points: 2
#     Edge 105, Type (0, 0), BuildingBlock: KIFKEQ_clean_linker_1, # of connection points: 2
#     Edge 106, Type (0, 0), BuildingBlock: KIFKEQ_clean_linker_1, # of connection points: 2
#     Edge 107, Type (0, 0), BuildingBlock: KIFKEQ_clean_linker_1, # of connection points: 2
# Relax obj value: 0.234
# Max RMSD: 0.137
# Mean RMSD: 0.137
data_MOF--net-ukv--node1-CEKHIL_clean_sbu_0--edge1-KIFKEQ_clean_linker_1
_symmetry_space_group_name_H-M    P1
_symmetry_Int_Tables_number       1
_symmetry_cell_setting            triclinic
loop_
_symmetry_equiv_pos_as_xyz
'x, y, z'
_cell_length_a     95.964587
_cell_length_b     95.934955
_cell_length_c     21.650719
_cell_angle_alpha  89.995504
_cell_angle_beta   90.027314
_cell_angle_gamma 120.01783
loop_
_atom_site_label
_atom_site_type_symbol
_atom_site_fract_x
_atom_site_fract_y
_atom_site_fract_z
_atom_type_partial_charge
Co0 Co 0.26445 0.07479 0.08543 0.0
O1 O 0.26398 0.06178 0.15363 0.0
O2 O 0.24266 0.05735 0.09886 0.0
C3 C 0.28625 0.07624 0.03908 0.0
O4 O 0.26031 0.0852 0.01102 0.0
Co5 Co 0.29391 0.10885 0.06112 0.0
O6 O 0.28415 0.10527 0.97782 0.0
C7 C 0.26916 0.10459 0.15344 0.0
C8 C 0.24866 0.05285 0.14335 0.0
C9 C 0.26912 0.09575 0.9705 0.0
O10 O 0.26088 0.08936 0.14256 0.0
O11 O 0.28272 0.11401 0.12775 0.0
O12 O 0.27208 0.06377 0.03033 0.0
O13 O 0.28691 0.08661 0.07854 0.0
Co14 Co 0.92562 0.19176 0.08652 0.0
O15 O 0.94007 0.20363 0.15267 0.0
O16 O 0.9418 0.18548 0.09485 0.0
C17 C 0.92561 0.21305 0.04173 0.0
O18 O 0.91317 0.17735 0.01384 0.0
Co19 Co 0.89263 0.19029 0.07143 0.0
O20 O 0.89378 0.18283 0.98731 0.0
C21 C 0.8961 0.16887 0.16139 0.0
C22 C 0.94755 0.19586 0.13977 0.0
C23 C 0.90214 0.17614 0.97675 0.0
O24 O 0.91094 0.17449 0.14637 0.0
O25 O 0.88714 0.17396 0.13854 0.0
O26 O 0.93711 0.21 0.03002 0.0
O27 O 0.91546 0.20409 0.08334 0.0
Co28 Co 0.81204 0.74017 0.0949 0.0
O29 O 0.80116 0.74481 0.15903 0.0
O30 O 0.81932 0.763 0.09576 0.0
C31 C 0.79007 0.71858 0.05461 0.0
O32 O 0.82557 0.73977 0.02312 0.0
Co33 Co 0.81123 0.70708 0.09601 0.0
O34 O 0.82388 0.71545 0.01923 0.0
C35 C 0.83463 0.73401 0.17409 0.0
C36 C 0.80934 0.75971 0.14142 0.0
C37 C 0.82916 0.7297 -0.00096 0.0
O38 O 0.8297 0.74344 0.15427 0.0
O39 O 0.82835 0.71919 0.15889 0.0
O40 O 0.7936 0.73307 0.03922 0.0
O41 O 0.79874 0.71772 0.0983 0.0
Co42 Co 0.07297 0.26669 0.41384 0.0
O43 O 0.06012 0.26311 0.3411 0.0
O44 O 0.05688 0.24414 0.40757 0.0
C45 C 0.07215 0.28856 0.4479 0.0
O46 O 0.08354 0.26583 0.4942 0.0
Co47 Co 0.10554 0.29863 0.43238 0.0
O48 O 0.10293 0.29092 0.51881 0.0
C49 C 0.10399 0.27258 0.35299 0.0
C50 C 0.05216 0.2481 0.35759 0.0
C51 C 0.094 0.27607 0.532 0.0
O52 O 0.08896 0.26323 0.3653 0.0
O53 O 0.11211 0.28713 0.37226 0.0
O54 O 0.06032 0.27419 0.4596 0.0
O55 O 0.08311 0.28919 0.41176 0.0
Co56 Co 0.73237 0.8085 0.38726 0.0
O57 O 0.73785 0.79938 0.31906 0.0
O58 O 0.75554 0.81914 0.3786 0.0
C59 C 0.71402 0.78493 0.43071 0.0
O60 O 0.73115 0.82062 0.46242 0.0
Co61 Co 0.69727 0.80192 0.40359 0.0
O62 O 0.70506 0.80994 0.48829 0.0
C63 C 0.71907 0.82597 0.31189 0.0
C64 C 0.75278 0.80936 0.33258 0.0
C65 C 0.72 0.81891 0.49995 0.0
O66 O 0.73107 0.82453 0.33029 0.0
O67 O 0.70472 0.81724 0.33231 0.0
O68 O 0.72927 0.79076 0.44152 0.0
O69 O 0.71067 0.79258 0.38996 0.0
Co70 Co 0.19211 0.92436 0.41208 0.0
O71 O 0.20297 0.93688 0.34056 0.0
O72 O 0.18648 0.94098 0.39929 0.0
C73 C 0.21395 0.92477 0.4535 0.0
O74 O 0.17925 0.91418 0.49072 0.0
Co75 Co 0.19014 0.89141 0.43713 0.0
O76 O 0.1852 0.8954 0.52183 0.0
C77 C 0.16673 0.89322 0.35238 0.0
C78 C 0.19625 0.94543 0.35233 0.0
C79 C 0.17902 0.90426 0.53135 0.0
O80 O 0.17329 0.90855 0.36 0.0
O81 O 0.17197 0.88461 0.37727 0.0
O82 O 0.21155 0.93681 0.46198 0.0
O83 O 0.204 0.91374 0.41652 0.0
Co84 Co 0.73133 0.92433 0.88681 0.0
O85 O 0.73632 0.93857 0.81766 0.0
O86 O 0.75444 0.93703 0.87634 0.0
C87 C 0.71297 0.92942 0.93079 0.0
O88 O 0.73066 0.9114 0.96257 0.0
Co89 Co 0.6965 0.89552 0.90599 0.0
O90 O 0.70475 0.89576 0.99028 0.0
C91 C 0.71805 0.89328 0.81322 0.0
C92 C 0.75134 0.9437 0.83 0.0
C93 C 0.71976 0.90199 0.00096 0.0
O94 O 0.73 0.90686 0.83068 0.0
O95 O 0.70375 0.88753 0.83448 0.0
O96 O 0.72823 0.93906 0.94057 0.0
O97 O 0.70957 0.91825 0.89077 0.0
Co98 Co 0.07614 0.81067 0.91075 0.0
O99 O 0.06263 0.80087 0.83991 0.0
O100 O 0.06003 0.81713 0.90566 0.0
C101 C 0.07551 0.78823 0.94683 0.0
O102 O 0.08749 0.82266 0.98957 0.0
Co103 Co 0.10887 0.8115 0.92533 0.0
O104 O 0.10655 0.81636 0.01228 0.0
C105 C 0.10684 0.83604 0.84843 0.0
C106 C 0.05483 0.80805 0.85678 0.0
C107 C 0.09798 0.82261 0.02649 0.0
O108 O 0.09168 0.82976 0.8593 0.0
O109 O 0.11547 0.8303 0.86879 0.0
O110 O 0.06381 0.79092 0.95885 0.0
O111 O 0.0862 0.79818 0.90872 0.0
Co112 Co 0.18451 0.26295 0.9155 0.0
O113 O 0.1958 0.2631 0.84214 0.0
O114 O 0.17965 0.24127 0.89599 0.0
C115 C 0.20588 0.28418 0.96045 0.0
O116 O 0.17119 0.25806 0.99407 0.0
Co117 Co 0.18104 0.29234 0.95426 0.0
O118 O 0.17607 0.28153 0.03574 0.0
C119 C 0.15859 0.26873 0.86213 0.0
C120 C 0.18942 0.24767 0.84953 0.0
C121 C 0.1704 0.2664 0.03896 0.0
O122 O 0.1656 0.26026 0.86503 0.0
O123 O 0.16329 0.28184 0.89212 0.0
O124 O 0.20401 0.26984 0.96523 0.0
O125 O 0.19556 0.28534 0.92601 0.0
Co126 Co 0.92746 0.73675 0.5926 0.0
O127 O 0.94145 0.73963 0.66096 0.0
O128 O 0.94343 0.75928 0.60109 0.0
C129 C 0.92801 0.71555 0.54975 0.0
O130 O 0.91561 0.73845 0.51743 0.0
Co131 Co 0.89475 0.70501 0.57491 0.0
O132 O 0.89643 0.71351 0.49023 0.0
C133 C 0.89717 0.72998 0.66225 0.0
C134 C 0.94898 0.75484 0.64728 0.0
C135 C 0.90492 0.72854 0.47949 0.0
O136 O 0.91215 0.73928 0.64921 0.0
O137 O 0.88855 0.71586 0.63946 0.0
O138 O 0.93955 0.73013 0.53891 0.0
O139 O 0.91749 0.71424 0.5899 0.0
Co140 Co 0.26196 0.18981 0.59076 0.0
O141 O 0.26018 0.20287 0.65354 0.0
O142 O 0.24002 0.18577 0.59429 0.0
C143 C 0.28487 0.20969 0.54826 0.0
O144 O 0.25964 0.1747 0.52018 0.0
Co145 Co 0.29228 0.18546 0.59098 0.0
O146 O 0.28217 0.17283 0.51546 0.0
C147 C 0.26441 0.16516 0.67143 0.0
C148 C 0.24518 0.19656 0.63796 0.0
C149 C 0.2682 0.16921 0.49615 0.0
O150 O 0.25652 0.17185 0.65173 0.0
O151 O 0.27882 0.16942 0.65535 0.0
O152 O 0.27102 0.20803 0.53323 0.0
O153 O 0.28452 0.20047 0.59221 0.0
Co154 Co 0.81044 0.07154 0.58819 0.0
O155 O 0.7983 0.05469 0.64629 0.0
O156 O 0.81838 0.0565 0.58944 0.0
C157 C 0.78934 0.07144 0.54116 0.0
O158 O 0.8254 0.0872 0.52313 0.0
Co159 Co 0.80852 0.10309 0.59699 0.0
O160 O 0.82339 0.10967 0.52548 0.0
C161 C 0.82703 0.09646 0.68882 0.0
C162 C 0.80737 0.04879 0.63109 0.0
C163 C 0.8293 0.10138 0.50369 0.0
O164 O 0.82604 0.08489 0.65556 0.0
O165 O 0.81916 0.1037 0.67724 0.0
O166 O 0.79363 0.06107 0.52508 0.0
O167 O 0.79664 0.08001 0.5889 0.0
Co168 Co 0.93284 0.41009 0.43182 0.0
O169 O 0.92786 0.39547 0.49964 0.0
O170 O 0.90978 0.39579 0.43675 0.0
C171 C 0.95311 0.40724 0.39269 0.0
O172 O 0.93352 0.42309 0.35626 0.0
Co173 Co 0.9669 0.44075 0.42039 0.0
O174 O 0.95935 0.44135 0.33572 0.0
C175 C 0.94317 0.43967 0.51089 0.0
C176 C 0.9129 0.38928 0.48357 0.0
C177 C 0.94447 0.43388 0.32137 0.0
O178 O 0.93184 0.42636 0.48836 0.0
O179 O 0.95788 0.44622 0.49362 0.0
O180 O 0.93827 0.39681 0.37907 0.0
O181 O 0.95495 0.41787 0.43305 0.0
Co182 Co 0.59514 0.52458 0.42128 0.0
O183 O 0.60863 0.53613 0.48994 0.0
O184 O 0.61247 0.51979 0.42925 0.0
C185 C 0.59394 0.54573 0.38099 0.0
O186 O 0.58398 0.51114 0.34473 0.0
Co187 Co 0.56124 0.52117 0.40567 0.0
O188 O 0.56406 0.51604 0.31969 0.0
C189 C 0.56548 0.49865 0.48708 0.0
C190 C 0.61737 0.52979 0.47558 0.0
C191 C 0.57319 0.51032 0.30711 0.0
O192 O 0.58071 0.50577 0.4762 0.0
O193 O 0.55605 0.50322 0.46499 0.0
O194 O 0.60617 0.54383 0.36933 0.0
O195 O 0.58376 0.53578 0.42045 0.0
Co196 Co 0.47717 0.06341 0.42799 0.0
O197 O 0.46831 0.06775 0.50009 0.0
O198 O 0.48645 0.08643 0.43831 0.0
C199 C 0.45349 0.04398 0.3889 0.0
O200 O 0.48875 0.06346 0.34895 0.0
Co201 Co 0.47296 0.02933 0.40627 0.0
O202 O 0.48046 0.03783 0.32197 0.0
C203 C 0.49737 0.05196 0.4952 0.0
C204 C 0.47726 0.08289 0.48673 0.0
C205 C 0.48812 0.05289 0.31064 0.0
O206 O 0.49472 0.06338 0.47945 0.0
O207 O 0.48913 0.03753 0.47474 0.0
O208 O 0.45815 0.05906 0.37909 0.0
O209 O 0.46243 0.04135 0.42587 0.0
Co210 Co 0.7454 0.60118 0.74269 0.0
O211 O 0.73344 0.59933 0.66906 0.0
O212 O 0.72888 0.57893 0.72986 0.0
C213 C 0.74485 0.62282 0.78111 0.0
O214 O 0.75486 0.59859 0.82341 0.0
Co215 Co 0.77819 0.63208 0.77065 0.0
O216 O 0.77348 0.62328 0.85557 0.0
C217 C 0.77694 0.60677 0.68791 0.0
C218 C 0.72482 0.58409 0.68129 0.0
C219 C 0.76444 0.60824 0.86491 0.0
O220 O 0.76156 0.59801 0.69394 0.0
O221 O 0.78537 0.62065 0.71282 0.0
O222 O 0.73268 0.60843 0.78939 0.0
O223 O 0.75613 0.6237 0.74615 0.0
Co224 Co 0.40692 0.14127 0.73084 0.0
O225 O 0.41118 0.12896 0.67194 0.0
O226 O 0.42947 0.14735 0.73439 0.0
C227 C 0.38426 0.12076 0.77189 0.0
O228 O 0.40659 0.15608 0.79735 0.0
Co229 Co 0.37531 0.14275 0.71389 0.0
O230 O 0.38329 0.1564 0.78893 0.0
C231 C 0.40292 0.16167 0.63266 0.0
C232 C 0.42601 0.13683 0.69052 0.0
C233 C 0.39688 0.16094 0.81456 0.0
O234 O 0.41187 0.15841 0.66677 0.0
O235 O 0.38769 0.1552 0.63947 0.0
O236 O 0.39829 0.12351 0.79039 0.0
O237 O 0.38448 0.12904 0.72459 0.0
Co238 Co 0.85588 0.26121 0.73177 0.0
O239 O 0.86615 0.27543 0.66317 0.0
O240 O 0.84909 0.27707 0.7277 0.0
C241 C 0.87815 0.26175 0.76961 0.0
O242 O 0.84312 0.24902 0.80781 0.0
Co243 Co 0.85576 0.22854 0.74195 0.0
O244 O 0.84481 0.2266 0.82143 0.0
C245 C 0.83153 0.23096 0.66438 0.0
C246 C 0.85852 0.2828 0.67998 0.0
C247 C 0.83993 0.23619 0.83774 0.0
O248 O 0.83732 0.24595 0.6775 0.0
O249 O 0.83757 0.22248 0.68314 0.0
O250 O 0.87518 0.27321 0.78296 0.0
O251 O 0.86861 0.25143 0.72966 0.0
Co252 Co 0.40443 0.25708 0.2348 0.0
O253 O 0.40463 0.27062 0.16912 0.0
O254 O 0.42622 0.27446 0.22057 0.0
C255 C 0.38303 0.25569 0.28408 0.0
O256 O 0.40891 0.24605 0.30631 0.0
Co257 Co 0.37502 0.22314 0.26012 0.0
O258 O 0.38524 0.22641 0.34241 0.0
C259 C 0.39882 0.22754 0.163 0.0
C260 C 0.42002 0.27936 0.17823 0.0
C261 C 0.40039 0.23559 0.34755 0.0
O262 O 0.40731 0.24275 0.17414 0.0
O263 O 0.38558 0.21809 0.19064 0.0
O264 O 0.39735 0.26792 0.29319 0.0
O265 O 0.38203 0.24542 0.24344 0.0
Co266 Co 0.74251 0.14359 0.23562 0.0
O267 O 0.72898 0.13353 0.16498 0.0
O268 O 0.72623 0.14975 0.23048 0.0
C269 C 0.74237 0.1214 0.27157 0.0
O270 O 0.7536 0.15585 0.31391 0.0
Co271 Co 0.77553 0.1452 0.25278 0.0
O272 O 0.77322 0.15058 0.33907 0.0
C273 C 0.77295 0.16878 0.17154 0.0
C274 C 0.72105 0.14058 0.18187 0.0
C275 C 0.76424 0.15647 0.35165 0.0
O276 O 0.75786 0.16263 0.18377 0.0
O277 O 0.78163 0.16312 0.19226 0.0
O278 O 0.7305 0.12382 0.28404 0.0
O279 O 0.75301 0.13156 0.23393 0.0
Co280 Co 0.85715 0.59822 0.24183 0.0
O281 O 0.86613 0.59397 0.16986 0.0
O282 O 0.85058 0.57562 0.23864 0.0
C283 C 0.87996 0.62027 0.27378 0.0
O284 O 0.84606 0.5981 0.3223 0.0
Co285 Co 0.85647 0.63019 0.25642 0.0
O286 O 0.85262 0.62357 0.34418 0.0
C287 C 0.83119 0.60322 0.18318 0.0
C288 C 0.85914 0.57912 0.18847 0.0
C289 C 0.84653 0.60883 0.3593 0.0
O290 O 0.83755 0.59438 0.19325 0.0
O291 O 0.83714 0.6177 0.20263 0.0
O292 O 0.8774 0.60596 0.28673 0.0
O293 O 0.86958 0.62075 0.23725 0.0
Co294 Co 0.59369 0.0666 0.92751 0.0
O295 O 0.60718 0.07085 -0.0012 0.0
O296 O 0.60882 0.0894 0.93343 0.0
C297 C 0.59579 0.0456 0.89125 0.0
O298 O 0.58233 0.06687 0.84837 0.0
Co299 Co 0.5621 0.03386 0.90854 0.0
O300 O 0.56523 0.04122 0.82152 0.0
C301 C 0.56212 0.05913 0.98804 0.0
C302 C 0.61435 0.08586 0.98217 0.0
C303 C 0.57299 0.0562 0.80916 0.0
O304 O 0.57723 0.0688 0.97856 0.0
O305 O 0.55429 0.04485 0.96593 0.0
O306 O 0.60699 0.06029 0.87973 0.0
O307 O 0.58467 0.04416 0.92857 0.0
Co308 Co 0.93288 0.52587 0.93215 0.0
O309 O 0.92878 0.53521 0.00346 0.0
O310 O 0.91017 0.51863 0.93747 0.0
C311 C 0.95433 0.54879 0.89705 0.0
O312 O 0.93239 0.51415 0.853 0.0
Co313 Co 0.96526 0.52624 0.91362 0.0
O314 O 0.95787 0.52184 0.82669 0.0
C315 C 0.93962 0.50131 0.993 0.0
C316 C 0.91378 0.52761 0.98654 0.0
C317 C 0.9429 0.51494 0.81418 0.0
O318 O 0.93015 0.50697 0.98302 0.0
O319 O 0.95392 0.50757 0.97135 0.0
O320 O 0.9398 0.54569 0.88476 0.0
O321 O 0.95534 0.53882 0.93408 0.0
Co322 Co 0.47891 0.40987 0.91986 0.0
O323 O 0.46726 0.39695 0.98958 0.0
O324 O 0.4837 0.39265 0.93144 0.0
C325 C 0.45777 0.41065 0.87732 0.0
O326 O 0.49251 0.42031 0.84306 0.0
Co327 Co 0.48239 0.44355 0.89715 0.0
O328 O 0.48771 0.43992 0.81252 0.0
C329 C 0.50471 0.44014 0.98287 0.0
C330 C 0.47362 0.3881 0.9774 0.0
C331 C 0.49348 0.4307 0.80311 0.0
O332 O 0.49761 0.42481 0.97431 0.0
O333 O 0.50018 0.44933 0.95799 0.0
O334 O 0.45973 0.39837 0.86779 0.0
O335 O 0.46773 0.42124 0.91565 0.0
Co336 Co 0.60098 0.74221 0.75969 0.0
O337 O 0.59745 0.72806 0.82826 0.0
O338 O 0.57836 0.72635 0.76573 0.0
C339 C 0.6224 0.74148 0.71951 0.0
O340 O 0.59989 0.75426 0.68401 0.0
Co341 Co 0.63338 0.77484 0.74664 0.0
O342 O 0.62393 0.77658 0.66793 0.0
C343 C 0.60737 0.77258 0.8277 0.0
C344 C 0.58237 0.72063 0.81265 0.0
C345 C 0.60934 0.76699 0.65308 0.0
O346 O 0.59807 0.75758 0.81489 0.0
O347 O 0.62176 0.78104 0.80746 0.0
O348 O 0.60785 0.73004 0.70761 0.0
O349 O 0.62352 0.75197 0.75939 0.0
Co350 Co 0.26067 0.85595 0.76681 0.0
O351 O 0.27425 0.86488 0.83811 0.0
O352 O 0.27594 0.8484 0.77072 0.0
C353 C 0.26252 0.87912 0.73297 0.0
O354 O 0.24914 0.84471 0.68718 0.0
Co355 Co 0.22888 0.85703 0.75224 0.0
O356 O 0.23092 0.85217 0.66498 0.0
C357 C 0.22932 0.83136 0.82739 0.0
C358 C 0.28148 0.8572 0.82018 0.0
C359 C 0.23898 0.84541 0.65031 0.0
O360 O 0.24441 0.83696 0.81687 0.0
O361 O 0.22136 0.83789 0.80758 0.0
O362 O 0.27378 0.87581 0.7202 0.0
O363 O 0.25155 0.86926 0.77039 0.0
Co364 Co 0.14844 0.40585 0.75156 0.0
O365 O 0.13941 0.40748 0.82842 0.0
O366 O 0.15447 0.42808 0.76707 0.0
C367 C 0.12568 0.38441 0.71551 0.0
O368 O 0.15948 0.40874 0.6682 0.0
Co369 Co 0.14982 0.37506 0.7168 0.0
O370 O 0.15289 0.38419 0.63265 0.0
C371 C 0.17465 0.39968 0.79945 0.0
C372 C 0.14603 0.42278 0.81748 0.0
C373 C 0.15887 0.39928 0.62481 0.0
O374 O 0.16825 0.40868 0.79563 0.0
O375 O 0.16879 0.38588 0.77353 0.0
O376 O 0.12791 0.39886 0.70923 0.0
O377 O 0.1365 0.38334 0.74706 0.0
Co378 Co 0.4091 0.93286 0.062 0.0
O379 O 0.39395 0.92741 0.99572 0.0
O380 O 0.3954 0.90968 0.0571 0.0
C381 C 0.40554 0.95252 0.10335 0.0
O382 O 0.4229 0.93414 0.13595 0.0
Co383 Co 0.43901 0.96749 0.07055 0.0
O384 O 0.44079 0.96023 0.15438 0.0
C385 C 0.43841 0.94401 0.97998 0.0
C386 C 0.38833 0.9125 0.01142 0.0
C387 C 0.43388 0.94539 0.16937 0.0
O388 O 0.42534 0.93252 0.00333 0.0
O389 O 0.44468 0.95873 -0.00305 0.0
O390 O 0.39564 0.93753 0.11679 0.0
O391 O 0.41603 0.95486 0.06159 0.0
Co392 Co 0.06837 0.4755 0.05903 0.0
O393 O 0.07202 0.46099 0.01062 0.0
O394 O 0.09134 0.48306 0.0547 0.0
C395 C 0.04797 0.45614 0.11527 0.0
O396 O 0.06859 0.49286 0.11423 0.0
Co397 Co 0.03471 0.4731 0.04729 0.0
O398 O 0.04385 0.49024 0.11092 0.0
C399 C 0.05877 0.4884 0.94872 0.0
C400 C 0.08721 0.47019 0.02189 0.0
C401 C 0.05835 0.49715 0.13033 0.0
O402 O 0.06975 0.48843 0.98304 0.0
O403 O 0.04383 0.48105 0.96311 0.0
O404 O 0.06281 0.46114 0.13088 0.0
O405 O 0.04615 0.46183 0.06401 0.0
Co406 Co 0.52201 0.59285 0.07488 0.0
O407 O 0.532 0.6057 0.00269 0.0
O408 O 0.51641 0.60954 0.06775 0.0
C409 C 0.54412 0.59279 0.11082 0.0
O410 O 0.50999 0.58251 0.15469 0.0
Co411 Co 0.51985 0.55967 0.0957 0.0
O412 O 0.51547 0.56315 0.18196 0.0
C413 C 0.49579 0.56203 0.01649 0.0
C414 C 0.52544 0.61415 0.01869 0.0
C415 C 0.5097 0.57227 0.19381 0.0
O416 O 0.50255 0.57735 0.02491 0.0
O417 O 0.50114 0.55326 0.0389 0.0
O418 O 0.54202 0.60492 0.1219 0.0
O419 O 0.5337 0.58196 0.07434 0.0
Co420 Co 0.06727 0.59282 0.56035 0.0
O421 O 0.07234 0.61006 0.50365 0.0
O422 O 0.09045 0.60672 0.55509 0.0
C423 C 0.0478 0.59466 0.61242 0.0
O424 O 0.06623 0.57649 0.62336 0.0
Co425 Co 0.03267 0.56275 0.55888 0.0
O426 O 0.04015 0.55782 0.63687 0.0
C427 C 0.05596 0.56705 0.4609 0.0
C428 C 0.08734 0.61509 0.51584 0.0
C429 C 0.05497 0.56418 0.65163 0.0
O430 O 0.06742 0.57896 0.49019 0.0
O431 O 0.04121 0.56011 0.478 0.0
O432 O 0.06284 0.6041 0.62647 0.0
O433 O 0.04529 0.58582 0.5643 0.0
Co434 Co 0.40758 0.47954 0.5739 0.0
O435 O 0.39451 0.46983 0.50195 0.0
O436 O 0.39098 0.48532 0.56864 0.0
C437 C 0.40762 0.45726 0.60789 0.0
O438 O 0.41825 0.49129 0.65386 0.0
Co439 Co 0.44073 0.48142 0.59147 0.0
O440 O 0.43764 0.48562 0.67844 0.0
C441 C 0.43825 0.50582 0.51504 0.0
C442 C 0.38623 0.47648 0.51905 0.0
C443 C 0.42863 0.49142 0.69185 0.0
O444 O 0.42298 0.49911 0.52432 0.0
O445 O 0.44705 0.50034 0.536 0.0
O446 O 0.39557 0.4594 0.62018 0.0
O447 O 0.41834 0.46774 0.57128 0.0
Co448 Co 0.52595 0.93271 0.56272 0.0
O449 O 0.53594 0.92875 0.49321 0.0
O450 O 0.51802 0.90985 0.55493 0.0
C451 C 0.54879 0.95318 0.60336 0.0
O452 O 0.51338 0.93219 0.63957 0.0
Co453 Co 0.52772 0.96578 0.5813 0.0
O454 O 0.52177 0.95778 0.66704 0.0
C455 C 0.50323 0.94131 0.49702 0.0
C456 C 0.5277 0.91363 0.50799 0.0
C457 C 0.51415 0.94273 0.67832 0.0
O458 O 0.50813 0.93126 0.50809 0.0
O459 O 0.50977 0.95552 0.51987 0.0
O460 O 0.54484 0.93834 0.61431 0.0
O461 O 0.53974 0.95509 0.56426 0.0
Co462 Co 0.2589 0.40435 0.25435 0.0
O463 O 0.27162 0.40819 0.32781 0.0
O464 O 0.27595 0.42657 0.25682 0.0
C465 C 0.25812 0.38128 0.22594 0.0
O466 O 0.24883 0.4049 0.17211 0.0
Co467 Co 0.22523 0.37368 0.23871 0.0
O468 O 0.22893 0.37986 0.15048 0.0
C469 C 0.22849 0.40181 0.30843 0.0
C470 C 0.28032 0.42289 0.30833 0.0
C471 C 0.23844 0.39441 0.13479 0.0
O472 O 0.24381 0.40975 0.29982 0.0
O473 O 0.2193 0.38739 0.28945 0.0
O474 O 0.27055 0.39515 0.21266 0.0
O475 O 0.24746 0.3818 0.26064 0.0
Co476 Co 0.60051 0.85845 0.25689 0.0
O477 O 0.59639 0.86817 0.32704 0.0
O478 O 0.57775 0.85115 0.26221 0.0
C479 C 0.62176 0.88126 0.22005 0.0
O480 O 0.60011 0.8463 0.17898 0.0
Co481 Co 0.63304 0.85894 0.24132 0.0
O482 O 0.62549 0.85297 0.15515 0.0
C483 C 0.60756 0.83463 0.32272 0.0
C484 C 0.58139 0.86044 0.31036 0.0
C485 C 0.61058 0.84626 0.14198 0.0
O486 O 0.59794 0.83994 0.30966 0.0
O487 O 0.622 0.841 0.30238 0.0
O488 O 0.60716 0.87793 0.20779 0.0
O489 O 0.62297 0.8716 0.25822 0.0
Co490 Co 0.14521 0.74262 0.26581 0.0
O491 O 0.13578 0.72937 0.33765 0.0
O492 O 0.15244 0.72715 0.27293 0.0
C493 C 0.12239 0.74099 0.22876 0.0
O494 O 0.15694 0.75365 0.18634 0.0
Co495 Co 0.14479 0.77462 0.24648 0.0
O496 O 0.14994 0.772 0.16024 0.0
C497 C 0.1698 0.77412 0.32576 0.0
C498 C 0.14339 0.72192 0.32184 0.0
C499 C 0.15657 0.76368 0.14781 0.0
O500 O 0.16406 0.75896 0.31642 0.0
O501 O 0.16355 0.78215 0.30387 0.0
O502 O 0.12554 0.72952 0.21801 0.0
O503 O 0.13216 0.75205 0.26611 0.0
H504 H 0.21827 0.95798 0.26022 0.0
H505 H 0.18513 0.9668 0.36514 0.0
H506 H 0.22909 0.98419 0.2114 0.0
H507 H 0.19598 0.99321 0.3146 0.0
H508 H 0.21595 0.03195 0.13832 0.0
H509 H 0.20089 0.00548 0.18873 0.0
H510 H 0.24465 0.01305 0.27502 0.0
H511 H 0.2596 0.03935 0.22624 0.0
C512 C 0.21309 0.96538 0.27218 0.0
C513 C 0.20093 0.96036 0.31707 0.0
C514 C 0.21932 0.9804 0.2442 0.0
C515 C 0.21343 0.99069 0.25975 0.0
C516 C 0.20067 0.98542 0.30196 0.0
C517 C 0.19451 0.97036 0.3308 0.0
C518 C 0.22227 0.02804 0.16882 0.0
C519 C 0.23898 0.03768 0.17795 0.0
C520 C 0.21365 0.01296 0.19767 0.0
C521 C 0.2217 0.00728 0.23518 0.0
C522 C 0.23824 0.01716 0.24592 0.0
C523 C 0.24676 0.03222 0.21799 0.0
H524 H 0.9729 0.19301 0.09813 0.0
H525 H 0.95547 0.20685 0.25716 0.0
H526 H 0.99884 0.20243 0.15035 0.0
H527 H 0.98111 0.2158 0.30964 0.0
H528 H 0.02606 0.22091 0.40165 0.0
H529 H 1.0002 0.20461 0.34899 0.0
H530 H 0.01978 0.23299 0.18382 0.0
H531 H 0.04543 0.24952 0.23667 0.0
C532 C 0.97449 0.1977 0.1447 0.0
C533 C 0.96228 0.19933 0.17357 0.0
C534 C 0.98929 0.20309 0.17441 0.0
C535 C 0.99189 0.20976 0.23398 0.0
C536 C 0.97933 0.21054 0.26399 0.0
C537 C 0.96473 0.20553 0.23382 0.0
C538 C 0.02492 0.22341 0.35369 0.0
C539 C 0.03766 0.23653 0.32328 0.0
C540 C 0.01015 0.21413 0.32373 0.0
C541 C 0.00806 0.21758 0.26248 0.0
C542 C 0.02115 0.23001 0.23087 0.0
C543 C 0.03577 0.2395 0.2612 0.0
H544 H 0.78185 0.81564 0.37868 0.0
H545 H 0.75258 0.80026 0.21395 0.0
H546 H 0.80036 0.80805 0.33142 0.0
H547 H 0.77121 0.7931 0.16636 0.0
H548 H 0.81118 0.78642 0.08807 0.0
H549 H 0.80158 0.80367 0.13246 0.0
H550 H 0.79166 0.77773 0.30466 0.0
H551 H 0.80077 0.76031 0.26004 0.0
C552 C 0.7797 0.81118 0.33167 0.0
C553 C 0.76575 0.80838 0.30006 0.0
C554 C 0.79024 0.80681 0.30478 0.0
C555 C 0.78717 0.79999 0.24536 0.0
C556 C 0.77394 0.79848 0.21197 0.0
C557 C 0.76324 0.80248 0.23932 0.0
C558 C 0.80731 0.78471 0.13583 0.0
C559 C 0.80656 0.77199 0.17058 0.0
C560 C 0.80182 0.79454 0.16111 0.0
C561 C 0.79593 0.79203 0.22196 0.0
C562 C 0.79631 0.78004 0.25791 0.0
C563 C 0.8014 0.77001 0.23225 0.0
H564 H 0.74999 0.95218 0.71162 0.0
H565 H 0.78115 0.96628 0.87111 0.0
H566 H 0.76855 0.97752 0.66087 0.0
H567 H 0.7996 0.99192 0.82065 0.0
H568 H 0.80009 0.0402 0.75039 0.0
H569 H 0.79109 0.01379 0.79595 0.0
H570 H 0.79874 0.99674 0.62181 0.0
H571 H 0.80833 0.02356 0.57649 0.0
C572 C 0.76102 0.96056 0.73516 0.0
C573 C 0.76409 0.95738 0.79543 0.0
C574 C 0.77169 0.97499 0.70593 0.0
C575 C 0.78546 0.98665 0.73697 0.0
C576 C 0.78906 0.98307 0.79579 0.0
C577 C 0.77854 0.96844 0.82455 0.0
C578 C 0.80028 0.03093 0.72237 0.0
C579 C 0.80481 0.03381 0.66002 0.0
C580 C 0.79524 0.01587 0.74852 0.0
C581 C 0.79425 0.00327 0.71237 0.0
C582 C 0.79949 0.00633 0.65062 0.0
C583 C 0.80498 0.02161 0.62482 0.0
H584 H 0.04719 0.79935 0.73677 0.0
H585 H 0.02895 0.80907 0.90375 0.0
H586 H 0.02116 0.78996 0.68666 0.0
H587 H 0.00269 0.79923 0.85386 0.0
H588 H 0.95725 0.75208 0.76472 0.0
H589 H 0.98312 0.76887 0.81569 0.0
H590 H 1.00024 0.79964 0.65533 0.0
H591 H 0.97412 0.78305 0.60469 0.0
C592 C 0.03768 0.79974 0.76234 0.0
C593 C 0.04002 0.80486 0.82415 0.0
C594 C 0.02284 0.79445 0.73358 0.0
C595 C 0.00997 0.79387 0.76652 0.0
C596 C 0.01247 0.7996 0.82757 0.0
C597 C 0.02747 0.80526 0.85595 0.0
C598 C 0.96642 0.76262 0.74088 0.0
C599 C 0.96374 0.76624 0.68072 0.0
C600 C 0.98116 0.77227 0.77018 0.0
C601 C 0.99362 0.78552 0.73934 0.0
C602 C 0.99078 0.78949 0.68 0.0
C603 C 0.97586 0.78004 0.6512 0.0
H604 H 0.21225 0.18348 0.63046 0.0
H605 H 0.25523 0.22267 0.7113 0.0
H606 H 0.19618 0.19431 0.67712 0.0
H607 H 0.23937 0.2334 0.75622 0.0
H608 H 0.21085 0.25897 0.75497 0.0
H609 H 0.22232 0.24496 0.69997 0.0
H610 H 0.1909 0.20123 0.79867 0.0
H611 H 0.17936 0.21533 0.85494 0.0
C612 C 0.21823 0.19433 0.65814 0.0
C613 C 0.235 0.20225 0.66706 0.0
C614 C 0.20906 0.20046 0.68483 0.0
C615 C 0.21662 0.21474 0.71961 0.0
C616 C 0.2333 0.22246 0.72901 0.0
C617 C 0.24235 0.21626 0.70342 0.0
C618 C 0.20615 0.2463 0.76444 0.0
C619 C 0.19434 0.23831 0.80993 0.0
C620 C 0.21273 0.2383 0.73287 0.0
C621 C 0.20756 0.22209 0.74556 0.0
C622 C 0.19502 0.21373 0.78804 0.0
C623 C 0.18849 0.22182 0.82029 0.0
H624 H 0.86855 0.29165 0.56184 0.0
H625 H 0.85535 0.30748 0.7271 0.0
H626 H 0.87738 0.31782 0.51407 0.0
H627 H 0.86458 0.3339 0.67957 0.0
H628 H 0.91269 0.3807 0.60289 0.0
H629 H 0.89494 0.35453 0.64982 0.0
H630 H 0.86773 0.33835 0.48034 0.0
H631 H 0.88532 0.36482 0.43365 0.0
C632 C 0.86728 0.30064 0.58748 0.0
C633 C 0.8614 0.29762 0.64828 0.0
C634 C 0.87221 0.31556 0.55998 0.0
C635 C 0.87165 0.32784 0.59323 0.0
C636 C 0.86509 0.32459 0.65304 0.0
C637 C 0.85981 0.3095 0.6801 0.0
C638 C 0.90264 0.3717 0.57625 0.0
C639 C 0.90039 0.3747 0.51466 0.0
C640 C 0.89244 0.35678 0.6032 0.0
C641 C 0.88001 0.34445 0.56859 0.0
C642 C 0.87723 0.3477 0.50791 0.0
C643 C 0.88723 0.36281 0.48137 0.0
H644 H 0.63834 0.51818 0.46213 0.0
H645 H 0.63147 0.5534 0.56139 0.0
H646 H 0.66516 0.52917 0.50958 0.0
H647 H 0.65808 0.56434 0.607 0.0
H648 H 0.71344 0.59287 0.58279 0.0
H649 H 0.68741 0.57733 0.53233 0.0
H650 H 0.67684 0.53619 0.64529 0.0
H651 H 0.70301 0.55186 0.6973 0.0
C652 C 0.64244 0.52809 0.49442 0.0
C653 C 0.63281 0.53496 0.50779 0.0
C654 C 0.65772 0.53432 0.5215 0.0
C655 C 0.66357 0.54759 0.56149 0.0
C656 C 0.65378 0.55411 0.57612 0.0
C657 C 0.63854 0.5478 0.54997 0.0
C658 C 0.70575 0.58044 0.59638 0.0
C659 C 0.71022 0.57365 0.6446 0.0
C660 C 0.69088 0.57157 0.56732 0.0
C661 C 0.68022 0.55566 0.58519 0.0
C662 C 0.68498 0.54844 0.63065 0.0
C663 C 0.69989 0.55742 0.66039 0.0
H664 H 0.42695 0.12905 0.57152 0.0
H665 H 0.45208 0.13739 0.74503 0.0
H666 H 0.44447 0.12032 0.52529 0.0
H667 H 0.46947 0.12813 0.69887 0.0
H668 H 0.46768 0.0809 0.60594 0.0
H669 H 0.45986 0.09847 0.65833 0.0
H670 H 0.47475 0.12978 0.49929 0.0
H671 H 0.48292 0.11231 0.44709 0.0
C672 C 0.43642 0.12923 0.59945 0.0
C673 C 0.43813 0.13376 0.66185 0.0
C674 C 0.44652 0.12437 0.57286 0.0
C675 C 0.45833 0.1236 0.6085 0.0
C676 C 0.46048 0.1287 0.67044 0.0
C677 C 0.45058 0.13399 0.69674 0.0
C678 C 0.46971 0.09178 0.58286 0.0
C679 C 0.47574 0.09518 0.52228 0.0
C680 C 0.46534 0.10189 0.61303 0.0
C681 C 0.46665 0.11542 0.5827 0.0
C682 C 0.47363 0.11939 0.52358 0.0
C683 C 0.47832 0.10943 0.49384 0.0
H684 H 0.4088 0.29361 0.10017 0.0
H685 H 0.45279 0.3 0.18125 0.0
H686 H 0.42365 0.32014 0.05329 0.0
H687 H 0.46777 0.32674 0.13292 0.0
H688 H 0.4847 0.36669 0.96592 0.0
H689 H 0.47327 0.33999 0.0144 0.0
H690 H 0.43895 0.34841 0.11174 0.0
H691 H 0.45032 0.37489 0.06477 0.0
C692 C 0.42168 0.30058 0.10738 0.0
C693 C 0.4296 0.29475 0.14487 0.0
C694 C 0.43016 0.31579 0.08063 0.0
C695 C 0.44679 0.32548 0.09004 0.0
C696 C 0.45493 0.31944 0.12505 0.0
C697 C 0.44637 0.30421 0.15272 0.0
C698 C 0.47489 0.36291 -0.00157 0.0
C699 C 0.46834 0.37285 0.01115 0.0
C700 C 0.4684 0.34769 0.02614 0.0
C701 C 0.45514 0.34216 0.06612 0.0
C702 C 0.44906 0.35235 0.08053 0.0
C703 C 0.45563 0.36754 0.05369 0.0
H704 H 0.69585 0.14287 0.22852 0.0
H705 H 0.71243 0.13029 0.06366 0.0
H706 H 0.66939 0.13301 0.18064 0.0
H707 H 0.68617 0.12084 0.01551 0.0
H708 H 0.63917 0.11346 0.93442 0.0
H709 H 0.66557 0.13061 0.98208 0.0
H710 H 0.64903 0.10244 0.14919 0.0
H711 H 0.62286 0.08509 0.10126 0.0
C712 C 0.69397 0.13839 0.18154 0.0
C713 C 0.70611 0.1372 0.14988 0.0
C714 C 0.67885 0.13274 0.15432 0.0
C715 C 0.6758 0.1262 0.0945 0.0
C716 C 0.68828 0.12597 0.06148 0.0
C717 C 0.70325 0.13128 0.08914 0.0
C718 C 0.64108 0.11119 0.98181 0.0
C719 C 0.62905 0.09791 0.01413 0.0
C720 C 0.65616 0.12095 0.00888 0.0
C721 C 0.65927 0.1178 0.06917 0.0
C722 C 0.64687 0.10519 0.10284 0.0
C723 C 0.63195 0.09523 0.07534 0.0
H724 H 0.86767 0.57963 0.06856 0.0
H725 H 0.85776 0.5522 0.23714 0.0
H726 H 0.87707 0.56282 0.0203 0.0
H727 H 0.86754 0.53556 0.18902 0.0
H728 H 0.91505 0.53741 0.10518 0.0
H729 H 0.89753 0.54584 0.15409 0.0
H730 H 0.86833 0.5329 0.98932 0.0
H731 H 0.8857 0.5241 0.94061 0.0
C732 C 0.86721 0.5698 0.09484 0.0
C733 C 0.8621 0.56726 0.15663 0.0
C734 C 0.8725 0.56013 0.06712 0.0
C735 C 0.87306 0.54795 0.10108 0.0
C736 C 0.86722 0.5449 0.16197 0.0
C737 C 0.86159 0.55437 0.18933 0.0
C738 C 0.90468 0.53602 0.07994 0.0
C739 C 0.90178 0.53022 0.01903 0.0
C740 C 0.8946 0.54074 0.10805 0.0
C741 C 0.88163 0.54003 0.07535 0.0
C742 C 0.87828 0.53355 0.01541 0.0
C743 C 0.88818 0.5285 0.9877 0.0
H744 H 0.55449 0.69576 0.76652 0.0
H745 H 0.58407 0.71185 0.93045 0.0
H746 H 0.53724 0.66952 0.81537 0.0
H747 H 0.56662 0.68587 0.9796 0.0
H748 H 0.52486 0.64044 0.06354 0.0
H749 H 0.53583 0.66683 0.01373 0.0
H750 H 0.54595 0.64797 0.84951 0.0
H751 H 0.53539 0.62176 0.89962 0.0
C752 C 0.55706 0.69381 0.81345 0.0
C753 C 0.57064 0.70576 0.84468 0.0
C754 C 0.54724 0.67883 0.84121 0.0
C755 C 0.55062 0.67575 0.90118 0.0
C756 C 0.56368 0.68801 0.93354 0.0
C757 C 0.5737 0.70282 0.90532 0.0
C758 C 0.52911 0.64186 0.01636 0.0
C759 C 0.52938 0.62912 0.98549 0.0
C760 C 0.53542 0.65694 0.98805 0.0
C761 C 0.54171 0.65938 0.92792 0.0
C762 C 0.54104 0.64635 0.89572 0.0
C763 C 0.53508 0.6314 0.92448 0.0
H764 H 0.37916 0.9118 0.8927 0.0
H765 H 0.36442 0.88479 0.06288 0.0
H766 H 0.35289 0.89364 0.84743 0.0
H767 H 0.33782 0.86676 0.01788 0.0
H768 H 0.29032 0.86656 0.93906 0.0
H769 H 0.31664 0.87553 0.98574 0.0
H770 H 0.33257 0.86339 0.81831 0.0
H771 H 0.30604 0.85404 0.77184 0.0
C772 C 0.37039 0.90174 0.91988 0.0
C773 C 0.37375 0.8997 0.98125 0.0
C774 C 0.3554 0.8913 0.89389 0.0
C775 C 0.34334 0.87883 0.92924 0.0
C776 C 0.34695 0.87628 0.98971 0.0
C777 C 0.36214 0.88653 0.01529 0.0
C778 C 0.2993 0.86541 0.91281 0.0
C779 C 0.29621 0.85973 0.85171 0.0
C780 C 0.31432 0.87044 0.93968 0.0
C781 C 0.32662 0.87018 0.90552 0.0
C782 C 0.32326 0.86369 0.84555 0.0
C783 C 0.3081 0.85833 0.81909 0.0
H784 H 0.13356 0.41584 0.93313 0.0
H785 H 0.15059 0.45292 0.79341 0.0
H786 H 0.12256 0.42978 0.99162 0.0
H787 H 0.13936 0.46688 0.8523 0.0
H788 H 0.11996 0.48917 0.00198 0.0
H789 H 0.13814 0.48023 0.96019 0.0
H790 H 0.09832 0.43145 0.95186 0.0
H791 H 0.08043 0.44021 0.99209 0.0
C792 C 0.13525 0.42716 0.91551 0.0
C793 C 0.14265 0.43313 0.85808 0.0
C794 C 0.12898 0.43515 0.94911 0.0
C795 C 0.1299 0.44926 0.92596 0.0
C796 C 0.13854 0.45604 0.87122 0.0
C797 C 0.14489 0.44802 0.83745 0.0
C798 C 0.11522 0.47655 0.99151 0.0
C799 C 0.09879 0.46539 0.0 0.0
C800 C 0.12557 0.47147 0.96754 0.0
C801 C 0.11964 0.45513 0.95342 0.0
C802 C 0.10329 0.44406 0.96318 0.0
C803 C 0.09301 0.44913 0.98581 0.0
H804 H 0.08776 0.62469 0.39844 0.0
H805 H 0.11492 0.63908 0.56831 0.0
H806 H 0.10596 0.65099 0.35353 0.0
H807 H 0.13296 0.66581 0.52378 0.0
H808 H 0.1332 0.71349 0.44037 0.0
H809 H 0.1239 0.6873 0.48907 0.0
H810 H 0.13702 0.67074 0.32577 0.0
H811 H 0.14672 0.69712 0.27739 0.0
C812 C 0.09784 0.63342 0.42568 0.0
C813 C 0.09998 0.62993 0.48671 0.0
C814 C 0.10829 0.64842 0.39991 0.0
C815 C 0.12085 0.66039 0.43522 0.0
C816 C 0.12339 0.65673 0.49564 0.0
C817 C 0.11314 0.64148 0.52094 0.0
C818 C 0.1345 0.7044 0.41552 0.0
C819 C 0.14056 0.70727 0.35495 0.0
C820 C 0.12928 0.68947 0.44356 0.0
C821 C 0.12974 0.67704 0.41105 0.0
C822 C 0.13659 0.68017 0.35174 0.0
C823 C 0.14214 0.69524 0.32418 0.0
H824 H 0.3785 0.46674 0.39991 0.0
H825 H 0.36037 0.47797 0.56374 0.0
H826 H 0.35256 0.45719 0.34911 0.0
H827 H 0.33422 0.46807 0.51304 0.0
H828 H 0.28792 0.4217 0.42853 0.0
H829 H 0.31383 0.43841 0.47914 0.0
H830 H 0.3324 0.4664 0.31245 0.0
H831 H 0.30631 0.44983 0.26191 0.0
C832 C 0.36904 0.46741 0.42466 0.0
C833 C 0.37139 0.47301 0.48583 0.0
C834 C 0.35423 0.46203 0.39546 0.0
C835 C 0.34141 0.46187 0.42726 0.0
C836 C 0.34394 0.46806 0.48763 0.0
C837 C 0.35888 0.47377 0.51646 0.0
C838 C 0.29743 0.43162 0.40309 0.0
C839 C 0.29515 0.43441 0.3412 0.0
C840 C 0.31222 0.44124 0.43218 0.0
C841 C 0.3251 0.45365 0.39959 0.0
C842 C 0.32264 0.45687 0.33847 0.0
C843 C 0.30772 0.44744 0.30971 0.0
H844 H 0.5377 0.91491 0.38979 0.0
H845 H 0.52465 0.8858 0.55483 0.0
H846 H 0.54686 0.89782 0.34211 0.0
H847 H 0.53427 0.86891 0.5075 0.0
H848 H 0.58224 0.87004 0.42905 0.0
H849 H 0.56498 0.87904 0.4764 0.0
H850 H 0.53684 0.86728 0.30913 0.0
H851 H 0.55389 0.85783 0.26208 0.0
C852 C 0.53651 0.90466 0.41534 0.0
C853 C 0.53053 0.90169 0.47599 0.0
C854 C 0.54167 0.89484 0.38797 0.0
C855 C 0.54128 0.88209 0.42125 0.0
C856 C 0.53465 0.87868 0.48096 0.0
C857 C 0.52912 0.88828 0.50785 0.0
C858 C 0.57213 0.86901 0.40295 0.0
C859 C 0.56943 0.86332 0.34187 0.0
C860 C 0.56221 0.87407 0.43015 0.0
C861 C 0.54962 0.87385 0.3963 0.0
C862 C 0.54648 0.86753 0.33611 0.0
C863 C 0.55619 0.8621 0.30936 0.0
H864 H 0.25617 0.13539 0.63465 0.0
H865 H 0.25516 0.16237 0.79215 0.0
H866 H 0.25036 0.11261 0.70143 0.0
H867 H 0.24956 0.13962 0.85968 0.0
H868 H 0.28022 0.10267 0.85339 0.0
H869 H 0.27189 0.11502 0.77439 0.0
H870 H 0.23307 0.10965 0.89159 0.0
H871 H 0.24135 0.09692 0.9707 0.0
C872 C 0.25407 0.13615 0.68342 0.0
C873 C 0.25618 0.15052 0.7088 0.0
C874 C 0.25078 0.12316 0.72153 0.0
C875 C 0.24975 0.12445 0.78572 0.0
C876 C 0.25018 0.13826 0.81026 0.0
C877 C 0.25343 0.15129 0.77187 0.0
C878 C 0.26955 0.10358 0.86124 0.0
C879 C 0.26145 0.09894 0.9179 0.0
C880 C 0.26471 0.11059 0.816 0.0
C881 C 0.25187 0.11337 0.82709 0.0
C882 C 0.24302 0.10766 0.88206 0.0
C883 C 0.24768 0.1003 0.92698 0.0
H884 H 0.82441 0.10918 0.7965 0.0
H885 H 0.85728 0.10025 0.69055 0.0
H886 H 0.84651 0.12761 0.8629 0.0
H887 H 0.87958 0.11897 0.75762 0.0
H888 H 0.88939 0.17808 0.86771 0.0
H889 H 0.87308 0.15573 0.79834 0.0
H890 H 0.88548 0.12506 0.90179 0.0
H891 H 0.90204 0.14757 0.9717 0.0
C892 C 0.83628 0.11078 0.78868 0.0
C893 C 0.83919 0.10344 0.73816 0.0
C894 C 0.84889 0.12133 0.82651 0.0
C895 C 0.86465 0.12478 0.81444 0.0
C896 C 0.86746 0.1164 0.76753 0.0
C897 C 0.85472 0.10568 0.72957 0.0
C898 C 0.88912 0.16675 0.87443 0.0
C899 C 0.89678 0.16448 0.92546 0.0
C900 C 0.8798 0.154 0.83482 0.0
C901 C 0.87795 0.13875 0.8456 0.0
C902 C 0.88684 0.13679 0.89277 0.0
C903 C 0.89631 0.14966 0.93247 0.0
H904 H 0.91038 0.74977 0.76237 0.0
H905 H 0.86601 0.72268 0.66062 0.0
H906 H 0.89576 0.75506 0.84347 0.0
H907 H 0.85156 0.72815 0.74073 0.0
H908 H 0.82997 0.74456 0.88971 0.0
H909 H 0.84876 0.74997 0.80345 0.0
H910 H 0.87442 0.73261 0.91395 0.0
H911 H 0.85559 0.72692 -0.00147 0.0
C912 C 0.89762 0.74532 0.75664 0.0
C913 C 0.88924 0.73556 0.70602 0.0
C914 C 0.88929 0.74836 0.80283 0.0
C915 C 0.87255 0.74198 0.79824 0.0
C916 C 0.86447 0.73333 0.74515 0.0
C917 C 0.87271 0.73005 0.69972 0.0
C918 C 0.83983 0.74222 0.8955 0.0
C919 C 0.84131 0.73514 0.94994 0.0
C920 C 0.85055 0.74532 0.8465 0.0
C921 C 0.86306 0.74177 0.85234 0.0
C922 C 0.86504 0.73567 0.90848 0.0
C923 C 0.85418 0.73224 0.95654 0.0
H924 H 0.15278 0.25439 0.74815 0.0
H925 H 0.13239 0.2713 0.88669 0.0
H926 H 0.13209 0.25161 0.67471 0.0
H927 H 0.11155 0.2681 0.81445 0.0
H928 H 0.10485 0.29258 0.63928 0.0
H929 H 0.11631 0.28583 0.72629 0.0
H930 H 0.1032 0.24003 0.64207 0.0
H931 H 0.09164 0.2469 0.55417 0.0
C932 C 0.14357 0.257 0.76339 0.0
C933 C 0.14438 0.26345 0.82229 0.0
C934 C 0.13168 0.25534 0.72158 0.0
C935 C 0.1204 0.25996 0.73857 0.0
C936 C 0.1203 0.2648 0.79965 0.0
C937 C 0.13223 0.26664 0.84092 0.0
C938 C 0.10404 0.2809 0.64005 0.0
C939 C 0.09749 0.27033 0.58989 0.0
C940 C 0.11052 0.27696 0.69009 0.0
C941 C 0.11074 0.26241 0.69087 0.0
C942 C 0.10329 0.25137 0.64243 0.0
C943 C 0.09657 0.25524 0.59249 0.0
H944 H 0.70526 0.81075 0.61138 0.0
H945 H 0.74394 0.85019 0.51249 0.0
H946 H 0.70758 0.82912 0.69365 0.0
H947 H 0.74589 0.8688 0.5939 0.0
H948 H 0.74683 0.89677 0.77152 0.0
H949 H 0.75045 0.87834 0.70346 0.0
H950 H 0.69883 0.84875 0.68625 0.0
H951 H 0.69521 0.8667 0.7537 0.0
C952 C 0.71448 0.82333 0.60797 0.0
C953 C 0.72424 0.82914 0.55534 0.0
C954 C 0.71576 0.83386 0.65478 0.0
C955 C 0.72658 0.85048 0.64925 0.0
C956 C 0.7374 0.85607 0.59936 0.0
C957 C 0.73629 0.84543 0.55277 0.0
C958 C 0.7363 0.88634 0.75288 0.0
C959 C 0.72073 0.88316 0.7685 0.0
C960 C 0.73837 0.87579 0.71413 0.0
C961 C 0.72492 0.8619 0.69068 0.0
C962 C 0.70945 0.85905 0.70511 0.0
C963 C 0.70739 0.86948 0.74346 0.0
H964 H 0.18529 0.89603 0.64285 0.0
H965 H 0.15086 0.9046 0.54687 0.0
H966 H 0.1666 0.88378 0.72755 0.0
H967 H 0.13192 0.89241 0.63294 0.0
H968 H 0.1342 0.86305 0.87914 0.0
H969 H 0.15145 0.88539 0.8114 0.0
H970 H 0.11605 0.86421 0.66576 0.0
H971 H 0.09845 0.84224 0.73531 0.0
C972 C 0.17387 0.89574 0.64092 0.0
C973 C 0.16945 0.9011 0.58818 0.0
C974 C 0.16313 0.8888 0.68973 0.0
C975 C 0.14765 0.88697 0.68691 0.0
C976 C 0.14369 0.89349 0.63615 0.0
C977 C 0.15457 0.90061 0.58724 0.0
C978 C 0.12996 0.86347 0.83316 0.0
C979 C 0.1152 0.85088 0.81175 0.0
C980 C 0.13982 0.87621 0.79433 0.0
C981 C 0.13533 0.87638 0.73267 0.0
C982 C 0.11988 0.86449 0.71304 0.0
C983 C 0.10982 0.85186 0.75259 0.0
H984 H 0.74404 0.8951 0.01195 0.0
H985 H 0.70556 0.89553 0.11344 0.0
H986 H 0.74648 0.87861 0.09296 0.0
H987 H 0.70836 0.87965 0.19519 0.0
H988 H 0.6962 0.82949 0.25173 0.0
H989 H 0.6997 0.85115 0.18515 0.0
H990 H 0.75132 0.87367 0.20346 0.0
H991 H 0.74784 0.85156 0.27096 0.0
C992 C 0.73655 0.89219 0.05272 0.0
C993 C 0.72439 0.89626 0.05612 0.0
C994 C 0.73794 0.88276 0.09906 0.0
C995 C 0.72729 0.87747 0.1495 0.0
C996 C 0.71641 0.88315 0.15591 0.0
C997 C 0.71485 0.89231 0.10938 0.0
C998 C 0.70835 0.839 0.24194 0.0
C999 C 0.72174 0.83879 0.26724 0.0
C1000 C 0.71034 0.85156 0.20408 0.0
C1001 C 0.72577 0.86435 0.19029 0.0
C1002 C 0.73927 0.86402 0.21377 0.0
C1003 C 0.73727 0.85134 0.25215 0.0
H1004 H 0.10847 0.81606 0.1325 0.0
H1005 H 0.09732 0.85033 0.05017 0.0
H1006 H 0.12125 0.83411 0.21884 0.0
H1007 H 0.11012 0.86859 0.13778 0.0
H1008 H 0.14041 0.86469 0.37794 0.0
H1009 H 0.11864 0.84763 0.30786 0.0
H1010 H 0.13883 0.88492 0.16885 0.0
H1011 H 0.16036 0.9023 0.24061 0.0
C1012 C 0.10837 0.82731 0.13387 0.0
C1013 C 0.10203 0.83186 0.08455 0.0
C1014 C 0.11562 0.83765 0.18359 0.0
C1015 C 0.11679 0.85287 0.18507 0.0
C1016 C 0.10951 0.85701 0.13762 0.0
C1017 C 0.10206 0.8465 0.08788 0.0
C1018 C 0.13997 0.86936 0.33286 0.0
C1019 C 0.15219 0.88463 0.31394 0.0
C1020 C 0.12752 0.8596 0.29275 0.0
C1021 C 0.12722 0.86476 0.23232 0.0
C1022 C 0.13869 0.8806 0.21519 0.0
C1023 C 0.15107 0.89053 0.256 0.0
H1024 H 0.17875 0.26666 0.1588 0.0
H1025 H 0.13811 0.24889 0.03566 0.0
H1026 H 0.16099 0.2616 0.24703 0.0
H1027 H 0.12044 0.24494 0.12263 0.0
H1028 H 0.09171 0.24442 0.28538 0.0
H1029 H 0.10681 0.2359 0.21919 0.0
H1030 H 0.15104 0.2787 0.27136 0.0
H1031 H 0.1363 0.28677 0.33767 0.0
C1032 C 0.1659 0.26111 0.1511 0.0
C1033 C 0.1597 0.25819 0.09103 0.0
C1034 C 0.15573 0.25839 0.20132 0.0
C1035 C 0.13937 0.25345 0.19176 0.0
C1036 C 0.13293 0.24876 0.13199 0.0
C1037 C 0.14305 0.25104 0.08198 0.0
C1038 C 0.10469 0.25183 0.28319 0.0
C1039 C 0.11274 0.26644 0.31588 0.0
C1040 C 0.11334 0.24695 0.24534 0.0
C1041 C 0.13018 0.25656 0.23985 0.0
C1042 C 0.13817 0.27074 0.27505 0.0
C1043 C 0.12961 0.27557 0.3125 0.0
H1044 H 0.86231 0.73595 0.13956 0.0
H1045 H 0.83977 0.74623 0.29136 0.0
H1046 H 0.88456 0.74022 0.20653 0.0
H1047 H 0.8619 0.75011 0.35951 0.0
H1048 H 0.89447 0.71388 0.36875 0.0
H1049 H 0.88146 0.72089 0.28805 0.0
H1050 H 0.89162 0.76396 0.38795 0.0
H1051 H 0.90483 0.75689 0.46924 0.0
C1052 C 0.86241 0.73958 0.18706 0.0
C1053 C 0.84939 0.74064 0.2109 0.0
C1054 C 0.87509 0.74198 0.22533 0.0
C1055 C 0.87481 0.74521 0.28842 0.0
C1056 C 0.86247 0.74772 0.31096 0.0
C1057 C 0.84979 0.74546 0.27225 0.0
C1058 C 0.89433 0.72507 0.37263 0.0
C1059 C 0.90055 0.73479 0.42521 0.0
C1060 C 0.88696 0.72916 0.32627 0.0
C1061 C 0.88547 0.74296 0.33185 0.0
C1062 C 0.89255 0.75323 0.38271 0.0
C1063 C 0.9002 0.74925 0.42884 0.0
H1064 H 0.27636 0.13578 0.15754 0.0
H1065 H 0.24798 0.09001 0.24921 0.0
H1066 H 0.26975 0.14904 0.23832 0.0
H1067 H 0.24126 0.10342 0.33065 0.0
H1068 H 0.26639 0.14041 0.49634 0.0
H1069 H 0.26048 0.12227 0.40937 0.0
H1070 H 0.24926 0.15263 0.29722 0.0
H1071 H 0.25514 0.17087 0.38565 0.0
C1072 C 0.26848 0.1285 0.19455 0.0
C1073 C 0.26301 0.11191 0.19792 0.0
C1074 C 0.26449 0.13608 0.24039 0.0
C1075 C 0.25505 0.12729 0.29099 0.0
C1076 C 0.24864 0.1105 0.29225 0.0
C1077 C 0.2525 0.10284 0.2458 0.0
C1078 C 0.26224 0.14296 0.45351 0.0
C1079 C 0.2614 0.15706 0.44702 0.0
C1080 C 0.2587 0.13249 0.40389 0.0
C1081 C 0.25449 0.13607 0.34637 0.0
C1082 C 0.25254 0.14964 0.34107 0.0
C1083 C 0.25585 0.16003 0.39142 0.0
H1084 H 0.83327 0.08743 0.39979 0.0
H1085 H 0.85307 0.13241 0.499 0.0
H1086 H 0.852 0.10136 0.31408 0.0
H1087 H 0.87193 0.14611 0.41486 0.0
H1088 H 0.90978 0.16522 0.26643 0.0
H1089 H 0.89575 0.1462 0.35099 0.0
H1090 H 0.85191 0.12436 0.24397 0.0
H1091 H 0.86573 0.14351 0.1606 0.0
C1092 C 0.84186 0.10018 0.40376 0.0
C1093 C 0.84165 0.10893 0.45535 0.0
C1094 C 0.85254 0.1081 0.35502 0.0
C1095 C 0.86343 0.12475 0.35829 0.0
C1096 C 0.8638 0.13324 0.41159 0.0
C1097 C 0.85291 0.12544 0.45935 0.0
C1098 C 0.89725 0.15611 0.26065 0.0
C1099 C 0.88873 0.15593 0.20767 0.0
C1100 C 0.88926 0.14526 0.3088 0.0
C1101 C 0.87279 0.13386 0.30372 0.0
C1102 C 0.86464 0.13293 0.24873 0.0
C1103 C 0.8725 0.14398 0.20139 0.0
H1104 H 0.91559 0.43202 0.29506 0.0
H1105 H 0.96282 0.44755 0.21986 0.0
H1106 H 0.90971 0.4445 0.20746 0.0
H1107 H 0.95709 0.46 0.13365 0.0
H1108 H 0.94417 0.47628 0.96993 0.0
H1109 H 0.94087 0.45534 0.04188 0.0
H1110 H 0.92023 0.47318 0.17593 0.0
H1111 H 0.92304 0.49388 0.10235 0.0
C1112 C 0.92456 0.43779 0.25922 0.0
C1113 C 0.93972 0.43895 0.26448 0.0
C1114 C 0.92124 0.44501 0.20941 0.0
C1115 C 0.93293 0.45325 0.16369 0.0
C1116 C 0.94771 0.45357 0.16752 0.0
C1117 C 0.95108 0.44655 0.2173 0.0
C1118 C 0.93854 0.47544 0.01422 0.0
C1119 C 0.93414 0.48683 0.03133 0.0
C1120 C 0.93668 0.46349 0.05543 0.0
C1121 C 0.93068 0.46287 0.11511 0.0
C1122 C 0.92489 0.47335 0.13022 0.0
C1123 C 0.92653 0.48523 0.08833 0.0
H1124 H 0.56472 0.51705 0.19717 0.0
H1125 H 0.57257 0.48175 0.29002 0.0
H1126 H 0.55205 0.49863 0.11169 0.0
H1127 H 0.5598 0.46305 0.20343 0.0
H1128 H 0.50947 0.43105 0.09739 0.0
H1129 H 0.53113 0.44794 0.16958 0.0
H1130 H 0.55433 0.48372 0.02658 0.0
H1131 H 0.53243 0.46719 0.95599 0.0
C1132 C 0.56416 0.50548 0.19821 0.0
C1133 C 0.56954 0.50077 0.25008 0.0
C1134 C 0.55696 0.49491 0.14908 0.0
C1135 C 0.55483 0.4793 0.15084 0.0
C1136 C 0.56118 0.47495 0.20101 0.0
C1137 C 0.56862 0.48569 0.25016 0.0
C1138 C 0.51944 0.44234 0.08129 0.0
C1139 C 0.51918 0.44806 0.02194 0.0
C1140 C 0.53189 0.45198 0.12235 0.0
C1141 C 0.54428 0.46733 0.10407 0.0
C1142 C 0.54477 0.47215 0.04248 0.0
C1143 C 0.53226 0.46269 0.00209 0.0
H1144 H 0.57042 0.07488 0.09924 0.0
H1145 H 0.53283 0.05497 0.96187 0.0
H1146 H 0.5521 0.07752 0.17093 0.0
H1147 H 0.51479 0.05822 0.03179 0.0
H1148 H 0.48316 0.03582 0.20506 0.0
H1149 H 0.50179 0.04191 0.12032 0.0
H1150 H 0.53438 0.08805 0.20251 0.0
H1151 H 0.51561 0.08174 0.28876 0.0
C1152 C 0.55843 0.07161 0.08379 0.0
C1153 C 0.55286 0.0644 0.02585 0.0
C1154 C 0.54795 0.07317 0.12459 0.0
C1155 C 0.53186 0.06773 0.10749 0.0
C1156 C 0.52695 0.06211 0.04699 0.0
C1157 C 0.53728 0.06029 0.00689 0.0
C1158 C 0.49415 0.0474 0.20458 0.0
C1159 C 0.49799 0.05821 0.25389 0.0
C1160 C 0.50481 0.05099 0.15562 0.0
C1161 C 0.51965 0.06547 0.15467 0.0
C1162 C 0.52312 0.07674 0.20223 0.0
C1163 C 0.51231 0.07318 0.25128 0.0
H1164 H 0.77283 0.62301 0.97608 0.0
H1165 H 0.76274 0.57916 0.88282 0.0
H1166 H 0.78431 0.6161 0.06217 0.0
H1167 H 0.77414 0.57197 0.97027 0.0
H1168 H 0.82416 0.58772 0.07193 0.0
H1169 H 0.8022 0.58354 0.00284 0.0
H1170 H 0.78223 0.59945 0.14715 0.0
H1171 H 0.8046 0.60435 0.21446 0.0
C1172 C 0.77261 0.61161 0.97502 0.0
C1173 C 0.7671 0.60173 0.92257 0.0
C1174 C 0.7791 0.60755 0.02465 0.0
C1175 C 0.78031 0.59353 0.02295 0.0
C1176 C 0.77355 0.58294 0.9726 0.0
C1177 C 0.76689 0.58698 0.92286 0.0
C1178 C 0.81479 0.58986 0.08912 0.0
C1179 C 0.81616 0.59667 0.14764 0.0
C1180 C 0.80216 0.58739 0.04982 0.0
C1181 C 0.79065 0.59152 0.06907 0.0
C1182 C 0.79112 0.59656 0.13036 0.0
C1183 C 0.80388 0.59933 0.16894 0.0
H1184 H 0.39001 0.18495 0.82288 0.0
H1185 H 0.41482 0.16412 0.91794 0.0
H1186 H 0.39585 0.20366 0.90788 0.0
H1187 H 0.42047 0.18285 0.0044 0.0
H1188 H 0.39495 0.19759 0.16396 0.0
H1189 H 0.39952 0.1837 0.07897 0.0
H1190 H 0.41907 0.227 0.96911 0.0
H1191 H 0.41469 0.24107 0.05502 0.0
C1192 C 0.39684 0.18448 0.86189 0.0
C1193 C 0.40177 0.17296 0.86438 0.0
C1194 C 0.40037 0.19534 0.91014 0.0
C1195 C 0.40867 0.19474 0.96247 0.0
C1196 C 0.41409 0.18356 0.96431 0.0
C1197 C 0.41085 0.17287 0.91512 0.0
C1198 C 0.40055 0.20425 0.12211 0.0
C1199 C 0.40422 0.2203 0.11547 0.0
C1200 C 0.40331 0.19634 0.07377 0.0
C1201 C 0.40956 0.20427 0.01751 0.0
C1202 C 0.4142 0.22065 0.01214 0.0
C1203 C 0.4117 0.22867 0.06111 0.0
H1204 H 0.81071 0.20998 0.83573 0.0
H1205 H 0.8427 0.24992 0.9513 0.0
H1206 H 0.7923 0.19766 0.92205 0.0
H1207 H 0.82422 0.23749 0.03906 0.0
H1208 H 0.80453 0.19169 0.17164 0.0
H1209 H 0.81889 0.2123 0.09423 0.0
H1210 H 0.77401 0.19882 0.00167 0.0
H1211 H 0.7595 0.17797 0.07972 0.0
C1212 C 0.81354 0.21627 0.8796 0.0
C1213 C 0.82807 0.23073 0.88762 0.0
C1214 C 0.80295 0.20933 0.92882 0.0
C1215 C 0.80683 0.21661 0.98734 0.0
C1216 C 0.82097 0.23163 0.99438 0.0
C1217 C 0.83151 0.23873 0.94451 0.0
C1218 C 0.79766 0.1933 0.13542 0.0
C1219 C 0.78094 0.18297 0.13074 0.0
C1220 C 0.80589 0.20528 0.09153 0.0
C1221 C 0.79759 0.20709 0.04164 0.0
C1222 C 0.7807 0.19758 0.03952 0.0
C1223 C 0.77241 0.18567 0.08406 0.0
H1224 H 0.42548 0.23039 0.33371 0.0
H1225 H 0.39248 0.23045 0.46891 0.0
H1226 H 0.43276 0.21522 0.40524 0.0
H1227 H 0.40028 0.21594 0.5412 0.0
H1228 H 0.40022 0.16096 0.50791 0.0
H1229 H 0.40677 0.18407 0.44119 0.0
H1230 H 0.42747 0.21604 0.59691 0.0
H1231 H 0.42156 0.19292 0.66307 0.0
C1232 C 0.42043 0.22788 0.37985 0.0
C1233 C 0.40843 0.23151 0.39612 0.0
C1234 C 0.42455 0.21919 0.42048 0.0
C1235 C 0.41707 0.21451 0.4784 0.0
C1236 C 0.40632 0.21961 0.49694 0.0
C1237 C 0.40185 0.22786 0.45573 0.0
C1238 C 0.40686 0.173 0.52696 0.0
C1239 C 0.41057 0.17531 0.59001 0.0
C1240 C 0.41062 0.18619 0.48901 0.0
C1241 C 0.41767 0.20176 0.51418 0.0
C1242 C 0.42223 0.20415 0.57656 0.0
C1243 C 0.41888 0.19099 0.61414 0.0
H1244 H 0.80504 0.20358 0.69728 0.0
H1245 H 0.82467 0.2388 0.55119 0.0
H1246 H 0.78308 0.18533 0.6299 0.0
H1247 H 0.80286 0.2203 0.48252 0.0
H1248 H 0.77588 0.15215 0.45956 0.0
H1249 H 0.78761 0.17132 0.54368 0.0
H1250 H 0.77338 0.20259 0.45466 0.0
H1251 H 0.76149 0.18318 0.36986 0.0
C1252 C 0.80436 0.20753 0.65103 0.0
C1253 C 0.81658 0.22238 0.62866 0.0
C1254 C 0.79183 0.19711 0.61255 0.0
C1255 C 0.79147 0.20125 0.55065 0.0
C1256 C 0.80282 0.21681 0.53013 0.0
C1257 C 0.81532 0.22738 0.56915 0.0
C1258 C 0.77487 0.1629 0.45875 0.0
C1259 C 0.76793 0.16626 0.4081 0.0
C1260 C 0.78149 0.17386 0.50712 0.0
C1261 C 0.78147 0.18851 0.50557 0.0
C1262 C 0.77362 0.19143 0.45678 0.0
C1263 C 0.76674 0.18029 0.40861 0.0
H1264 H 0.8061 0.61032 0.71295 0.0
H1265 H 0.76771 0.59012 0.57871 0.0
H1266 H 0.82332 0.6058 0.64312 0.0
H1267 H 0.78519 0.58612 0.5073 0.0
H1268 H 0.8533 0.62669 0.46341 0.0
H1269 H 0.83582 0.62138 0.55166 0.0
H1270 H 0.80222 0.57451 0.47738 0.0
H1271 H 0.81986 0.58001 0.38787 0.0
C1272 C 0.80129 0.60467 0.66868 0.0
C1273 C 0.78575 0.6009 0.65041 0.0
C1274 C 0.81114 0.60209 0.62874 0.0
C1275 C 0.80576 0.59596 0.56917 0.0
C1276 C 0.78968 0.59083 0.55298 0.0
C1277 C 0.77969 0.59319 0.5936 0.0
C1278 C 0.84238 0.61509 0.46664 0.0
C1279 C 0.83785 0.60385 0.41857 0.0
C1280 C 0.83238 0.61196 0.51749 0.0
C1281 C 0.81754 0.59754 0.52135 0.0
C1282 C 0.8135 0.58579 0.47532 0.0
C1283 C 0.82366 0.58887 0.42445 0.0
H1284 H 0.56976 0.04322 0.69549 0.0
H1285 H 0.56568 0.07997 0.795 0.0
H1286 H 0.55473 0.0457 0.6095 0.0
H1287 H 0.54986 0.08191 0.71033 0.0
H1288 H 0.52169 0.08143 0.53658 0.0
H1289 H 0.54461 0.08641 0.60216 0.0
H1290 H 0.52615 0.03514 0.61388 0.0
H1291 H 0.50379 0.03021 0.54883 0.0
C1292 C 0.56601 0.05216 0.69802 0.0
C1293 C 0.56863 0.06126 0.75181 0.0
C1294 C 0.5573 0.0535 0.64917 0.0
C1295 C 0.55064 0.0636 0.65413 0.0
C1296 C 0.55478 0.07399 0.7052 0.0
C1297 C 0.56384 0.07288 0.75367 0.0
C1298 C 0.52259 0.07126 0.55329 0.0
C1299 C 0.51092 0.05542 0.53718 0.0
C1300 C 0.53573 0.07413 0.59057 0.0
C1301 C 0.53741 0.0612 0.61204 0.0
C1302 C 0.52558 0.04543 0.59649 0.0
C1303 C 0.51258 0.04259 0.5596 0.0
H1304 H 0.91439 0.43901 0.53059 0.0
H1305 H 0.96364 0.46105 0.59413 0.0
H1306 H 0.91037 0.45781 0.59572 0.0
H1307 H 0.95965 0.47952 0.65753 0.0
H1308 H 0.95815 0.52202 0.70374 0.0
H1309 H 0.95452 0.50265 0.62361 0.0
H1310 H 0.9126 0.46591 0.71829 0.0
H1311 H 0.91603 0.48548 0.79828 0.0
C1312 C 0.92422 0.44764 0.55902 0.0
C1313 C 0.9394 0.44873 0.55658 0.0
C1314 C 0.92195 0.45842 0.59575 0.0
C1315 C 0.93487 0.47039 0.62986 0.0
C1316 C 0.94965 0.47074 0.63005 0.0
C1317 C 0.95189 0.46007 0.594 0.0
C1318 C 0.9478 0.50999 0.70618 0.0
C1319 C 0.93756 0.50513 0.75759 0.0
C1320 C 0.94574 0.49891 0.66049 0.0
C1321 C 0.93353 0.48274 0.66591 0.0
C1322 C 0.92212 0.47831 0.71332 0.0
C1323 C 0.92409 0.48951 0.75896 0.0
H1324 H 0.57381 0.49441 0.60358 0.0
H1325 H 0.53991 0.47018 0.45617 0.0
H1326 H 0.55664 0.4725 0.67431 0.0
H1327 H 0.52311 0.44804 0.52552 0.0
H1328 H 0.5222 0.43137 0.79309 0.0
H1329 H 0.54173 0.44374 0.7088 0.0
H1330 H 0.50686 0.45041 0.60605 0.0
H1331 H 0.48764 0.43819 0.68952 0.0
C1332 C 0.56302 0.48408 0.58591 0.0
C1333 C 0.55793 0.48402 0.52516 0.0
C1334 C 0.55322 0.4715 0.62615 0.0
C1335 C 0.53835 0.4587 0.60569 0.0
C1336 C 0.5343 0.4579 0.54294 0.0
C1337 C 0.54391 0.47053 0.50326 0.0
C1338 C 0.5186 0.43497 0.75137 0.0
C1339 C 0.50349 0.43394 0.74763 0.0
C1340 C 0.5298 0.44217 0.7035 0.0
C1341 C 0.52589 0.44814 0.65094 0.0
C1342 C 0.51025 0.4458 0.64545 0.0
C1343 C 0.49922 0.43886 0.69339 0.0
H1344 H 0.61762 0.81279 0.32232 0.0
H1345 H 0.58499 0.82457 0.41514 0.0
H1346 H 0.61214 0.7922 0.39897 0.0
H1347 H 0.57945 0.80375 0.49254 0.0
H1348 H 0.60512 0.79246 0.6579 0.0
H1349 H 0.59884 0.80497 0.57265 0.0
H1350 H 0.59275 0.76647 0.45168 0.0
H1351 H 0.59903 0.75388 0.53824 0.0
C1352 C 0.60904 0.81077 0.35865 0.0
C1353 C 0.60201 0.82052 0.36366 0.0
C1354 C 0.60574 0.7988 0.40211 0.0
C1355 C 0.59544 0.79642 0.45198 0.0
C1356 C 0.58752 0.80541 0.45469 0.0
C1357 C 0.59068 0.8173 0.41051 0.0
C1358 C 0.602 0.78648 0.61339 0.0
C1359 C 0.60262 0.77235 0.60397 0.0
C1360 C 0.59826 0.79354 0.56474 0.0
C1361 C 0.59533 0.78672 0.50544 0.0
C1362 C 0.59501 0.77199 0.49695 0.0
C1363 C 0.59855 0.76478 0.54617 0.0
H1364 H 0.22714 0.85166 0.54696 0.0
H1365 H 0.24057 0.81836 0.62245 0.0
H1366 H 0.21431 0.83378 0.46033 0.0
H1367 H 0.22782 0.80035 0.5343 0.0
H1368 H 0.19484 0.80355 0.30028 0.0
H1369 H 0.21671 0.82111 0.36912 0.0
H1370 H 0.19935 0.78308 0.50518 0.0
H1371 H 0.1778 0.76524 0.43448 0.0
C1372 C 0.22771 0.84067 0.54409 0.0
C1373 C 0.23469 0.83632 0.59176 0.0
C1374 C 0.22044 0.83043 0.4941 0.0
C1375 C 0.21993 0.81554 0.49052 0.0
C1376 C 0.22787 0.81166 0.53613 0.0
C1377 C 0.2353 0.82203 0.58622 0.0
C1378 C 0.19595 0.79885 0.34438 0.0
C1379 C 0.18451 0.78321 0.36286 0.0
C1380 C 0.20845 0.8089 0.38382 0.0
C1381 C 0.20955 0.80364 0.44322 0.0
C1382 C 0.19888 0.7875 0.45966 0.0
C1383 C 0.18648 0.7773 0.41946 0.0
H1384 H 0.18639 0.42823 0.60735 0.0
H1385 H 0.15155 0.38527 0.51203 0.0
H1386 H 0.2047 0.43538 0.51916 0.0
H1387 H 0.16966 0.39213 0.42512 0.0
H1388 H 0.20171 0.40241 0.2749 0.0
H1389 H 0.1849 0.40853 0.34091 0.0
H1390 H 0.22033 0.42303 0.48654 0.0
H1391 H 0.23748 0.41766 0.41879 0.0
C1392 C 0.18242 0.42064 0.56667 0.0
C1393 C 0.16767 0.40608 0.56668 0.0
C1394 C 0.19295 0.42465 0.51647 0.0
C1395 C 0.18878 0.41423 0.46541 0.0
C1396 C 0.1733 0.40055 0.46323 0.0
C1397 C 0.1629 0.39651 0.51334 0.0
C1398 C 0.20609 0.40742 0.32037 0.0
C1399 C 0.22068 0.40929 0.34251 0.0
C1400 C 0.19647 0.41088 0.35823 0.0
C1401 C 0.20104 0.41583 0.4196 0.0
C1402 C 0.21643 0.41927 0.4395 0.0
C1403 C 0.22625 0.41611 0.40094 0.0
H1404 H 0.4957 0.9248 0.38708 0.0
H1405 H 0.47899 0.94722 0.51745 0.0
H1406 H 0.4752 0.92232 0.31288 0.0
H1407 H 0.45828 0.94423 0.4451 0.0
H1408 H 0.44872 0.96456 0.26799 0.0
H1409 H 0.46229 0.95967 0.35234 0.0
H1410 H 0.44648 0.91185 0.28242 0.0
H1411 H 0.43291 0.9169 0.19643 0.0
C1412 C 0.48733 0.92872 0.40044 0.0
C1413 C 0.48909 0.93652 0.45716 0.0
C1414 C 0.47556 0.92726 0.35821 0.0
C1415 C 0.46535 0.93341 0.37268 0.0
C1416 C 0.46623 0.93977 0.4319 0.0
C1417 C 0.47806 0.94145 0.47338 0.0
C1418 C 0.44791 0.9529 0.27092 0.0
C1419 C 0.43984 0.94117 0.2253 0.0
C1420 C 0.4556 0.95003 0.31967 0.0
C1421 C 0.45547 0.93534 0.3242 0.0
C1422 C 0.44687 0.92331 0.27992 0.0
C1423 C 0.439 0.92616 0.23107 0.0
H1424 H 0.08437 0.568 0.43173 0.0
H1425 H 0.03581 0.55051 0.36701 0.0
H1426 H 0.0889 0.55387 0.34614 0.0
H1427 H 0.04023 0.5365 0.28316 0.0
H1428 H 0.05241 0.52143 0.11345 0.0
H1429 H 0.05567 0.54184 0.1879 0.0
H1430 H 0.07806 0.5244 0.31569 0.0
H1431 H 0.07526 0.50416 0.23932 0.0
C1432 C 0.07479 0.56139 0.39875 0.0
C1433 C 0.05972 0.56033 0.40608 0.0
C1434 C 0.07734 0.55322 0.3502 0.0
C1435 C 0.06496 0.54415 0.30775 0.0
C1436 C 0.05012 0.54359 0.31435 0.0
C1437 C 0.04754 0.55154 0.3628 0.0
C1438 C 0.05836 0.5222 0.15693 0.0
C1439 C 0.06335 0.51111 0.17128 0.0
C1440 C 0.0602 0.53385 0.19958 0.0
C1441 C 0.06677 0.53448 0.25816 0.0
C1442 C 0.07296 0.52421 0.27084 0.0
C1443 C 0.07132 0.51261 0.22739 0.0
H1444 H 0.46592 0.53264 0.54482 0.0
H1445 H 0.42945 0.51233 0.40328 0.0
H1446 H 0.48333 0.55458 0.4758 0.0
H1447 H 0.44714 0.534 0.33277 0.0
H1448 H 0.48258 0.57425 0.2134 0.0
H1449 H 0.46398 0.56269 0.30074 0.0
H1450 H 0.49723 0.55102 0.38935 0.0
H1451 H 0.51561 0.56252 0.30302 0.0
C1452 C 0.46152 0.53312 0.4992 0.0
C1453 C 0.44655 0.52072 0.47863 0.0
C1454 C 0.47148 0.54565 0.45971 0.0
C1455 C 0.46678 0.5458 0.39839 0.0
C1456 C 0.4511 0.53424 0.37981 0.0
C1457 C 0.44098 0.52179 0.41993 0.0
C1458 C 0.48608 0.56969 0.25265 0.0
C1459 C 0.50044 0.56912 0.25143 0.0
C1460 C 0.47539 0.56297 0.30229 0.0
C1461 C 0.47906 0.55585 0.35175 0.0
C1462 C 0.49406 0.55655 0.35244 0.0
C1463 C 0.50458 0.56304 0.30275 0.0
H1464 H 0.08392 0.56529 0.67133 0.0
H1465 H 0.0352 0.54393 0.73996 0.0
H1466 H 0.08849 0.54722 0.73838 0.0
H1467 H 0.03977 0.52612 0.80564 0.0
H1468 H 0.04235 0.48266 0.84149 0.0
H1469 H 0.04462 0.50287 0.76784 0.0
H1470 H 0.08713 0.539 0.86157 0.0
H1471 H 0.08496 0.51858 0.9356 0.0
C1472 C 0.07433 0.55701 0.70147 0.0
C1473 C 0.0591 0.55582 0.69952 0.0
C1474 C 0.07694 0.54667 0.7395 0.0
C1475 C 0.06433 0.53503 0.77564 0.0
C1476 C 0.04955 0.5347 0.77686 0.0
C1477 C 0.04697 0.54497 0.73938 0.0
C1478 C 0.05251 0.49478 0.84513 0.0
C1479 C 0.06336 0.49911 0.89454 0.0
C1480 C 0.05376 0.50635 0.80327 0.0
C1481 C 0.06581 0.52252 0.81018 0.0
C1482 C 0.0777 0.52661 0.85555 0.0
C1483 C 0.0765 0.51491 0.89759 0.0
H1484 H 0.46921 0.53392 0.04421 0.0
H1485 H 0.48922 0.57112 0.90532 0.0
H1486 H 0.44737 0.5167 0.97453 0.0
H1487 H 0.46762 0.55361 0.83411 0.0
H1488 H 0.42689 0.51857 0.71455 0.0
H1489 H 0.43886 0.53688 0.8026 0.0
H1490 H 0.45074 0.50322 0.88621 0.0
H1491 H 0.43883 0.48513 0.79923 0.0
C1492 C 0.46871 0.5385 -0.001 0.0
C1493 C 0.481 0.55365 0.9794 0.0
C1494 C 0.45623 0.52865 0.95913 0.0
C1495 C 0.45599 0.53363 0.89835 0.0
C1496 C 0.46745 0.54944 0.88073 0.0
C1497 C 0.47986 0.55944 0.92125 0.0
C1498 C 0.4316 0.51492 0.75288 0.0
C1499 C 0.43208 0.50052 0.75006 0.0
C1500 C 0.43856 0.52544 0.8029 0.0
C1501 C 0.44584 0.52156 0.85117 0.0
C1502 C 0.4451 0.50654 0.85026 0.0
C1503 C 0.43836 0.49619 0.8002 0.0
H1504 H 0.48386 0.91673 0.69017 0.0
H1505 H 0.52089 0.95746 0.78972 0.0
H1506 H 0.46408 0.91377 0.76848 0.0
H1507 H 0.5013 0.95432 0.86802 0.0
H1508 H 0.46092 0.96501 0.90067 0.0
H1509 H 0.47913 0.96084 0.83648 0.0
H1510 H 0.45538 0.91079 0.88961 0.0
H1511 H 0.43684 0.91497 0.9555 0.0
C1512 C 0.4879 0.92457 0.73015 0.0
C1513 C 0.5038 0.93752 0.73353 0.0
C1514 C 0.47658 0.92289 0.7748 0.0
C1515 C 0.48114 0.93407 0.82322 0.0
C1516 C 0.49745 0.94575 0.83034 0.0
C1517 C 0.50866 0.94752 0.78572 0.0
C1518 C 0.45944 0.95306 0.8988 0.0
C1519 C 0.44757 0.94038 0.93403 0.0
C1520 C 0.46996 0.95071 0.86223 0.0
C1521 C 0.46894 0.93562 0.85961 0.0
C1522 C 0.4565 0.92259 0.89162 0.0
C1523 C 0.44588 0.92497 0.92889 0.0
H1524 H 0.19917 0.39412 0.77649 0.0
H1525 H 0.18307 0.41714 0.90671 0.0
H1526 H 0.22039 0.39769 0.8475 0.0
H1527 H 0.204 0.42022 0.97913 0.0
H1528 H 0.22699 0.37629 0.03136 0.0
H1529 H 0.21618 0.38234 0.94062 0.0
H1530 H 0.23222 0.43022 0.01051 0.0
H1531 H 0.24298 0.424 0.10252 0.0
C1532 C 0.20036 0.40018 0.82005 0.0
C1533 C 0.18928 0.40501 0.83693 0.0
C1534 C 0.2125 0.40223 0.86067 0.0
C1535 C 0.21364 0.40888 0.91949 0.0
C1536 C 0.20348 0.41509 0.93407 0.0
C1537 C 0.19143 0.41324 0.89283 0.0
C1538 C 0.22858 0.38825 0.02665 0.0
C1539 C 0.23563 0.39959 0.07424 0.0
C1540 C 0.22249 0.39179 0.97435 0.0
C1541 C 0.22322 0.40675 0.96853 0.0
C1542 C 0.23134 0.41855 0.01406 0.0
C1543 C 0.23761 0.41503 0.06639 0.0
H1544 H 0.5926 0.76442 0.94089 0.0
H1545 H 0.60866 0.80032 0.79724 0.0
H1546 H 0.5887 0.78245 0.01013 0.0
H1547 H 0.60425 0.81804 0.8649 0.0
H1548 H 0.62718 0.8515 0.03529 0.0
H1549 H 0.62135 0.83248 0.95191 0.0
H1550 H 0.57615 0.79907 0.03823 0.0
H1551 H 0.58211 0.81832 0.12264 0.0
C1552 C 0.59473 0.77592 0.92362 0.0
C1553 C 0.60123 0.78121 0.86459 0.0
C1554 C 0.59244 0.78622 0.96297 0.0
C1555 C 0.59649 0.8018 0.94325 0.0
C1556 C 0.60139 0.80627 0.88185 0.0
C1557 C 0.60388 0.79614 0.84315 0.0
C1558 C 0.6158 0.84027 0.0357 0.0
C1559 C 0.60516 0.83633 0.08556 0.0
C1560 C 0.61239 0.82938 0.9877 0.0
C1561 C 0.5983 0.8142 0.98861 0.0
C1562 C 0.58715 0.81062 0.03659 0.0
C1563 C 0.59049 0.82168 0.0845 0.0
H1564 H 0.20036 0.80605 0.79876 0.0
H1565 H 0.23771 0.82339 0.93709 0.0
H1566 H 0.18242 0.78415 0.86678 0.0
H1567 H 0.21948 0.80184 0.00691 0.0
H1568 H 0.15096 0.77498 0.04161 0.0
H1569 H 0.16926 0.78708 0.9556 0.0
H1570 H 0.20189 0.77347 0.03685 0.0
H1571 H 0.18345 0.76145 0.12428 0.0
C1572 C 0.20479 0.80495 0.84352 0.0
C1573 C 0.22024 0.8165 0.86345 0.0
C1574 C 0.19452 0.79245 0.88249 0.0
C1575 C 0.19937 0.79149 0.9428 0.0
C1576 C 0.21538 0.80221 0.96066 0.0
C1577 C 0.22581 0.8146 0.92096 0.0
C1578 C 0.16186 0.77423 0.04047 0.0
C1579 C 0.16588 0.76746 0.08994 0.0
C1580 C 0.17233 0.78106 0.99084 0.0
C1581 C 0.18713 0.78135 0.9895 0.0
C1582 C 0.19066 0.77357 0.03694 0.0
C1583 C 0.18005 0.76658 0.08664 0.0
H1584 H 0.38169 0.10805 0.88701 0.0
H1585 H 0.3534 0.11161 0.73916 0.0
H1586 H 0.3576 0.0946 0.95147 0.0
H1587 H 0.32932 0.09813 0.80362 0.0
H1588 H 0.31749 0.09725 0.06525 0.0
H1589 H 0.34086 0.10536 -0.00071 0.0
H1590 H 0.31042 0.07178 0.85951 0.0
H1591 H 0.28687 0.06351 0.92623 0.0
C1592 C 0.37029 0.10574 0.86795 0.0
C1593 C 0.36944 0.11098 0.80822 0.0
C1594 C 0.35653 0.0981 0.90491 0.0
C1595 C 0.34161 0.09538 0.88262 0.0
C1596 C 0.34062 0.09994 0.82183 0.0
C1597 C 0.35443 0.10774 0.7851 0.0
C1598 C 0.3158 0.09143 0.02078 0.0
C1599 C 0.30038 0.07976 0.0008 0.0
C1600 C 0.3292 0.09601 0.98317 0.0
C1601 C 0.32747 0.08919 0.92431 0.0
C1602 C 0.31208 0.07726 0.90465 0.0
C1603 C 0.29864 0.07248 0.94286 0.0
H1604 H 0.90582 0.22475 0.0688 0.0
H1605 H 0.93818 0.22573 0.9281 0.0
H1606 H 0.89785 0.2399 0.00162 0.0
H1607 H 0.93015 0.24099 0.86042 0.0
H1608 H 0.89214 0.27476 0.88112 0.0
H1609 H 0.90716 0.26619 0.94749 0.0
H1610 H 0.90398 0.23283 0.80668 0.0
H1611 H 0.88906 0.24137 0.74066 0.0
C1612 C 0.91143 0.22845 0.0238 0.0
C1613 C 0.92255 0.22398 0.00351 0.0
C1614 C 0.90695 0.23724 0.9855 0.0
C1615 C 0.91336 0.24163 0.92573 0.0
C1616 C 0.92496 0.23769 0.90619 0.0
C1617 C 0.9296 0.22903 0.94495 0.0
C1618 C 0.89496 0.26585 0.86395 0.0
C1619 C 0.88933 0.25863 0.80599 0.0
C1620 C 0.90348 0.2609 0.90199 0.0
C1621 C 0.90667 0.24879 0.88238 0.0
C1622 C 0.90185 0.24229 0.82289 0.0
C1623 C 0.89321 0.24711 0.78525 0.0
H1624 H 0.76526 0.65424 0.75559 0.0
H1625 H 0.73063 0.62296 0.89073 0.0
H1626 H 0.77276 0.67733 0.82256 0.0
H1627 H 0.73823 0.64619 0.95836 0.0
H1628 H 0.77866 0.68713 0.08365 0.0
H1629 H 0.76418 0.66379 0.01641 0.0
H1630 H 0.76293 0.69445 0.87311 0.0
H1631 H 0.77744 0.71787 0.94056 0.0
C1632 C 0.75904 0.65236 0.79922 0.0
C1633 C 0.74741 0.63682 0.81811 0.0
C1634 C 0.76326 0.6656 0.83741 0.0
C1635 C 0.75609 0.66356 0.89572 0.0
C1636 C 0.74398 0.64809 0.9137 0.0
C1637 C 0.73958 0.63483 0.87494 0.0
C1638 C 0.77503 0.68885 0.0382 0.0
C1639 C 0.77929 0.70433 0.01713 0.0
C1640 C 0.76664 0.67546 -0.00014 0.0
C1641 C 0.76248 0.67731 0.93944 0.0
C1642 C 0.76608 0.6927 0.91937 0.0
C1643 C 0.77433 0.70609 0.95802 0.0
H1644 H 0.11421 0.35291 0.74111 0.0
H1645 H 0.10999 0.38446 0.60977 0.0
H1646 H 0.09723 0.3298 0.67611 0.0
H1647 H 0.09299 0.36121 0.54401 0.0
H1648 H 0.06006 0.2894 0.56153 0.0
H1649 H 0.0694 0.31298 0.62878 0.0
H1650 H 0.10077 0.34331 0.48367 0.0
H1651 H 0.09157 0.31984 0.41697 0.0
C1652 C 0.10938 0.35484 0.69882 0.0
C1653 C 0.11346 0.37046 0.68029 0.0
C1654 C 0.09955 0.34159 0.66182 0.0
C1655 C 0.09378 0.3437 0.60501 0.0
C1656 C 0.09731 0.35926 0.58759 0.0
C1657 C 0.10696 0.37254 0.62525 0.0
C1658 C 0.06862 0.30117 0.54356 0.0
C1659 C 0.07516 0.30282 0.48422 0.0
C1660 C 0.07402 0.31463 0.58209 0.0
C1661 C 0.08584 0.32996 0.56148 0.0
C1662 C 0.09154 0.3317 0.50062 0.0
C1663 C 0.08633 0.31825 0.46256 0.0
H1664 H 0.68222 0.76712 0.40603 0.0
H1665 H 0.7171 0.77759 0.55056 0.0
H1666 H 0.66047 0.7532 0.4798 0.0
H1667 H 0.6952 0.76341 0.62497 0.0
H1668 H 0.65372 0.76448 0.73662 0.0
H1669 H 0.6764 0.77113 0.66879 0.0
H1670 H 0.64573 0.73086 0.55141 0.0
H1671 H 0.62286 0.72435 0.61906 0.0
C1672 C 0.68521 0.76603 0.45338 0.0
C1673 C 0.70133 0.7735 0.47267 0.0
C1674 C 0.67273 0.75797 0.49567 0.0
C1675 C 0.67609 0.7573 0.55841 0.0
C1676 C 0.69224 0.76388 0.57701 0.0
C1677 C 0.70477 0.77185 0.53438 0.0
C1678 C 0.65185 0.75689 0.69684 0.0
C1679 C 0.63646 0.74402 0.68271 0.0
C1680 C 0.66491 0.76061 0.65824 0.0
C1681 C 0.66288 0.75156 0.60454 0.0
C1682 C 0.64764 0.73816 0.59213 0.0
C1683 C 0.63456 0.73441 0.63092 0.0
H1684 H 0.22797 0.93918 0.56328 0.0
H1685 H 0.22484 0.90409 0.43072 0.0
H1686 H 0.24344 0.93179 0.63265 0.0
H1687 H 0.24028 0.8968 0.49951 0.0
H1688 H 0.24306 0.89123 0.7605 0.0
H1689 H 0.23474 0.90589 0.69184 0.0
H1690 H 0.26724 0.90691 0.55169 0.0
H1691 H 0.27563 0.89223 0.6207 0.0
C1692 C 0.23088 0.93015 0.54845 0.0
C1693 C 0.22516 0.92214 0.49182 0.0
C1694 C 0.23966 0.92588 0.58819 0.0
C1695 C 0.24307 0.91373 0.57144 0.0
C1696 C 0.23803 0.90635 0.51338 0.0
C1697 C 0.22909 0.91044 0.47418 0.0
C1698 C 0.24871 0.89492 0.71557 0.0
C1699 C 0.25991 0.89052 0.69578 0.0
C1700 C 0.24401 0.90339 0.67639 0.0
C1701 C 0.25029 0.90747 0.61632 0.0
C1702 C 0.26214 0.90382 0.59767 0.0
C1703 C 0.267 0.89551 0.63726 0.0
H1704 H 0.71625 0.94028 0.05009 0.0
H1705 H 0.68112 0.91523 0.90692 0.0
H1706 H 0.69447 0.93278 0.1249 0.0
H1707 H 0.6595 0.90763 0.98107 0.0
H1708 H 0.62203 0.89891 0.12008 0.0
H1709 H 0.64483 0.91542 0.05233 0.0
H1710 H 0.67581 0.90634 0.16998 0.0
H1711 H 0.65319 0.89017 0.23792 0.0
C1712 C 0.70389 0.9336 0.03427 0.0
C1713 C 0.70034 0.92826 0.97287 0.0
C1714 C 0.69143 0.92918 0.07713 0.0
C1715 C 0.67525 0.9195 0.05905 0.0
C1716 C 0.67179 0.91522 0.99654 0.0
C1717 C 0.68419 0.9195 0.95404 0.0
C1718 C 0.63379 0.90073 0.13206 0.0
C1719 C 0.63579 0.89309 0.18387 0.0
C1720 C 0.64683 0.91013 0.09319 0.0
C1721 C 0.66212 0.91212 0.10555 0.0
C1722 C 0.66427 0.90524 0.15944 0.0
C1723 C 0.65125 0.89583 0.19811 0.0
H1724 H 0.1102 0.72812 0.11508 0.0
H1725 H 0.10994 0.76024 0.25419 0.0
H1726 H 0.09559 0.73628 0.04456 0.0
H1727 H 0.09533 0.76829 0.18417 0.0
H1728 H 0.06134 0.77373 0.0561 0.0
H1729 H 0.06939 0.75877 0.12502 0.0
H1730 H 0.10478 0.76309 0.99165 0.0
H1731 H 0.09681 0.77805 0.92302 0.0
C1732 C 0.10667 0.7366 0.1311 0.0
C1733 C 0.11123 0.74359 0.19001 0.0
C1734 C 0.09841 0.74135 0.09065 0.0
C1735 C 0.09436 0.75295 0.10883 0.0
C1736 C 0.09813 0.75921 0.16905 0.0
C1737 C 0.10656 0.75465 0.20904 0.0
C1738 C 0.07061 0.77119 0.04102 0.0
C1739 C 0.07852 0.77713 0.98435 0.0
C1740 C 0.07526 0.7627 0.08057 0.0
C1741 C 0.08774 0.7598 0.06377 0.0
C1742 C 0.09501 0.76498 0.0056 0.0
C1743 C 0.09051 0.77363 0.96647 0.0
H1744 H 0.27142 0.37853 0.11819 0.0
H1745 H 0.23599 0.35053 0.25673 0.0
H1746 H 0.26183 0.3544 0.05422 0.0
H1747 H 0.22653 0.32643 0.19313 0.0
H1748 H 0.21853 0.31569 0.93331 0.0
H1749 H 0.23448 0.33874 9e-05 0.0
H1750 H 0.23442 0.30697 0.14147 0.0
H1751 H 0.21853 0.28373 0.07368 0.0
C1752 C 0.26188 0.36716 0.13566 0.0
C1753 C 0.25438 0.36641 0.19224 0.0
C1754 C 0.25635 0.35338 0.09897 0.0
C1755 C 0.24342 0.33857 0.1187 0.0
C1756 C 0.23662 0.33764 0.17704 0.0
C1757 C 0.24197 0.35145 0.21325 0.0
C1758 C 0.2222 0.31365 0.97818 0.0
C1759 C 0.21732 0.29796 -0.00158 0.0
C1760 C 0.23141 0.32685 0.01624 0.0
C1761 C 0.23572 0.32465 0.07588 0.0
C1762 C 0.23126 0.30898 0.09562 0.0
C1763 C 0.22226 0.29573 0.05685 0.0
H1764 H 0.88997 0.65156 0.24707 0.0
H1765 H 0.89529 0.62134 0.38177 0.0
H1766 H 0.90515 0.67492 0.31362 0.0
H1767 H 0.91047 0.64477 0.4486 0.0
H1768 H 0.90873 0.68389 0.57585 0.0
H1769 H 0.90065 0.66106 0.50675 0.0
H1770 H 0.93206 0.69308 0.36528 0.0
H1771 H 0.94025 0.71605 0.43495 0.0
C1772 C 0.89468 0.64998 0.29037 0.0
C1773 C 0.89137 0.63463 0.30943 0.0
C1774 C 0.90344 0.66337 0.32831 0.0
C1775 C 0.90893 0.66164 0.3864 0.0
C1776 C 0.90629 0.64641 0.40418 0.0
C1777 C 0.89768 0.63303 0.36583 0.0
C1778 C 0.91414 0.68603 0.53042 0.0
C1779 C 0.92507 0.70173 0.51066 0.0
C1780 C 0.90959 0.67294 0.49099 0.0
C1781 C 0.91572 0.67529 0.43062 0.0
C1782 C 0.92712 0.69095 0.41154 0.0
C1783 C 0.93186 0.70405 0.45145 0.0
H1784 H 0.31547 0.21768 0.57903 0.0
H1785 H 0.28771 0.22433 0.4369 0.0
H1786 H 0.33965 0.23193 0.51581 0.0
H1787 H 0.31197 0.23858 0.37349 0.0
H1788 H 0.38263 0.26739 0.39939 0.0
H1789 H 0.359 0.25904 0.46578 0.0
H1790 H 0.32831 0.22797 0.32059 0.0
H1791 H 0.35174 0.23614 0.25501 0.0
C1792 C 0.31459 0.22238 0.5346 0.0
C1793 C 0.29969 0.21978 0.51261 0.0
C1794 C 0.32846 0.23065 0.49867 0.0
C1795 C 0.32767 0.23633 0.43974 0.0
C1796 C 0.31288 0.23424 0.41866 0.0
C1797 C 0.29903 0.22612 0.45496 0.0
C1798 C 0.37079 0.25899 0.38154 0.0
C1799 C 0.36898 0.25235 0.32227 0.0
C1800 C 0.35731 0.25417 0.4195 0.0
C1801 C 0.34183 0.24289 0.39821 0.0
C1802 C 0.34005 0.23682 0.33797 0.0
C1803 C 0.35348 0.24142 0.3006 0.0
H1804 H 0.77681 0.09042 0.57121 0.0
H1805 H 0.77844 0.06093 0.42386 0.0
H1806 H 0.76233 0.09926 0.5042 0.0
H1807 H 0.76381 0.06975 0.35658 0.0
H1808 H 0.76365 0.11158 0.24362 0.0
H1809 H 0.772 0.09634 0.30855 0.0
H1810 H 0.7369 0.09077 0.44571 0.0
H1811 H 0.72854 0.10615 0.38043 0.0
C1812 C 0.77384 0.08562 0.52474 0.0
C1813 C 0.77886 0.07508 0.50258 0.0
C1814 C 0.76543 0.0906 0.4865 0.0
C1815 C 0.76195 0.08523 0.42507 0.0
C1816 C 0.76643 0.07417 0.40361 0.0
C1817 C 0.77474 0.06908 0.44214 0.0
C1818 C 0.75751 0.10686 0.28715 0.0
C1819 C 0.74551 0.11013 0.30717 0.0
C1820 C 0.76223 0.09803 0.32417 0.0
C1821 C 0.75515 0.0924 0.38234 0.0
C1822 C 0.74265 0.09507 0.40126 0.0
C1823 C 0.7378 0.10378 0.3638 0.0
H1824 H 0.95292 0.39518 0.27744 0.0
H1825 H 0.98457 0.42508 0.42288 0.0
H1826 H 0.97617 0.40374 0.20927 0.0
H1827 H 0.00759 0.43386 0.35509 0.0
H1828 H 0.04826 0.44366 0.22877 0.0
H1829 H 0.02521 0.42771 0.29622 0.0
H1830 H 0.99345 0.4293 0.15834 0.0
H1831 H 0.01631 0.44481 0.09082 0.0
C1832 C 0.96485 0.40327 0.29524 0.0
C1833 C 0.96694 0.40958 0.35517 0.0
C1834 C 0.97815 0.40829 0.25614 0.0
C1835 C 0.99373 0.41963 0.27652 0.0
C1836 C 0.99583 0.42502 0.33794 0.0
C1837 C 0.98259 0.42006 0.37674 0.0
C1838 C 0.03632 0.44042 0.21274 0.0
C1839 C 0.03411 0.44562 0.15486 0.0
C1840 C 0.02312 0.43131 0.25133 0.0
C1841 C 0.00747 0.42724 0.23273 0.0
C1842 C 0.00527 0.43198 0.17381 0.0
C1843 C 0.01843 0.44105 0.13534 0.0
H1844 H 0.5547 0.57212 0.08249 0.0
H1845 H 0.55813 0.60583 0.22216 0.0
H1846 H 0.56979 0.56373 0.14849 0.0
H1847 H 0.57316 0.59728 0.28868 0.0
H1848 H 0.60615 0.55907 0.26803 0.0
H1849 H 0.59702 0.57351 0.20105 0.0
H1850 H 0.5638 0.57026 0.34245 0.0
H1851 H 0.57279 0.55575 0.40894 0.0
C1852 C 0.55895 0.57794 0.1269 0.0
C1853 C 0.55523 0.5896 0.14729 0.0
C1854 C 0.56765 0.57319 0.16452 0.0
C1855 C 0.57262 0.57984 0.22372 0.0
C1856 C 0.56941 0.59193 0.24329 0.0
C1857 C 0.5609 0.59688 0.20515 0.0
C1858 C 0.59712 0.56171 0.28513 0.0
C1859 C 0.59014 0.55626 0.34356 0.0
C1860 C 0.59185 0.5699 0.24676 0.0
C1861 C 0.57971 0.57301 0.26661 0.0
C1862 C 0.5733 0.5682 0.3262 0.0
C1863 C 0.57838 0.55981 0.36409 0.0
H1864 H 0.3914 0.95115 0.21504 0.0
H1865 H 0.4239 0.9844 0.07886 0.0
H1866 H 0.39838 0.97363 0.28561 0.0
H1867 H 0.43108 0.00669 0.14925 0.0
H1868 H 0.44026 0.04602 0.27916 0.0
H1869 H 0.42384 0.02375 0.2087 0.0
H1870 H 0.42322 0.99002 0.34256 0.0
H1871 H 0.43925 0.01208 0.41263 0.0
C1872 C 0.39976 0.96327 0.19971 0.0
C1873 C 0.40727 0.96601 0.14183 0.0
C1874 C 0.40381 0.97614 0.24017 0.0
C1875 C 0.4154 0.99195 0.22329 0.0
C1876 C 0.422 0.99473 0.16361 0.0
C1877 C 0.41799 0.98191 0.1234 0.0
C1878 C 0.43621 0.0338 0.29399 0.0
C1879 C 0.44116 0.03077 0.351 0.0
C1880 C 0.4269 0.02106 0.25359 0.0
C1881 C 0.42232 0.00511 0.2698 0.0
C1882 C 0.42635 0.00209 0.32874 0.0
C1883 C 0.43568 0.01478 0.36877 0.0
H1884 H 0.57586 0.01386 0.91472 0.0
H1885 H 0.60997 0.04628 0.78057 0.0
H1886 H 0.5681 0.99136 0.84426 0.0
H1887 H 0.60222 0.02366 0.70981 0.0
H1888 H 0.56161 0.98509 0.58064 0.0
H1889 H 0.57666 0.00734 0.65175 0.0
H1890 H 0.57645 0.97417 0.78714 0.0
H1891 H 0.56126 0.95178 0.71564 0.0
C1892 C 0.58196 0.01611 0.87066 0.0
C1893 C 0.59344 0.03183 0.85298 0.0
C1894 C 0.57758 0.00319 0.83042 0.0
C1895 C 0.58449 0.00574 0.77134 0.0
C1896 C 0.59661 0.02136 0.75489 0.0
C1897 C 0.60111 0.03428 0.79551 0.0
C1898 C 0.56506 0.98258 0.6251 0.0
C1899 C 0.56018 0.96669 0.64275 0.0
C1900 C 0.57378 0.99535 0.66572 0.0
C1901 C 0.5777 0.99251 0.72515 0.0
C1902 C 0.5735 0.9767 0.74175 0.0
C1903 C 0.56489 0.9639 0.70074 0.0
H1904 H 0.04954 0.60619 0.72983 0.0
H1905 H 0.01579 0.57707 0.58807 0.0
H1906 H 0.02715 0.59899 0.80115 0.0
H1907 H 0.99357 0.56974 0.65909 0.0
H1908 H 0.95483 0.56381 0.78849 0.0
H1909 H 0.97795 0.57871 0.72 0.0
H1910 H 0.00864 0.57374 0.85361 0.0
H1911 H 0.9857 0.55914 0.92192 0.0
C1912 C 0.03735 0.59846 0.71365 0.0
C1913 C 0.03442 0.59208 0.65358 0.0
C1914 C 0.02454 0.59429 0.7545 0.0
C1915 C 0.00857 0.58374 0.73587 0.0
C1916 C 0.00567 0.57804 0.67478 0.0
C1917 C 0.01844 0.58214 0.63419 0.0
C1918 C 0.96659 0.56627 0.80374 0.0
C1919 C 0.96845 0.5602 0.86028 0.0
C1920 C 0.97981 0.57469 0.7644 0.0
C1921 C 0.99512 0.5773 0.78114 0.0
C1922 C 0.99708 0.5721 0.83946 0.0
C1923 C 0.9839 0.56363 0.87849 0.0
H1924 H 0.42821 0.44672 0.57778 0.0
H1925 H 0.39511 0.44337 0.71984 0.0
H1926 H 0.4373 0.43216 0.64353 0.0
H1927 H 0.40433 0.42887 0.78607 0.0
H1928 H 0.44403 0.39743 0.76576 0.0
H1929 H 0.42863 0.40546 0.69876 0.0
H1930 H 0.43176 0.43929 0.83729 0.0
H1931 H 0.4472 0.43142 0.90367 0.0
C1932 C 0.42265 0.44257 0.62263 0.0
C1933 C 0.411 0.44621 0.64383 0.0
C1934 C 0.42779 0.43417 0.66012 0.0
C1935 C 0.42155 0.42943 0.71995 0.0
C1936 C 0.40938 0.43245 0.74019 0.0
C1937 C 0.40405 0.44066 0.70222 0.0
C1938 C 0.44116 0.40637 0.7822 0.0
C1939 C 0.44684 0.41385 0.83975 0.0
C1940 C 0.43242 0.411 0.74384 0.0
C1941 C 0.42899 0.42297 0.76292 0.0
C1942 C 0.43405 0.42989 0.82168 0.0
C1943 C 0.44298 0.42546 0.85948 0.0
loop_
_geom_bond_atom_site_label_1
_geom_bond_atom_site_label_2
_geom_bond_distance
_geom_bond_site_symmetry_2
_ccdc_geom_bond_type
Co0 O1 2.216 . S
Co0 O2 2.091 . S
Co0 O4 2.004 1_554 S
Co0 O10 2.021 . S
Co0 O12 2.137 1_554 S
Co0 O13 2.244 . S
O1 Co0 2.216 . S
O1 C8 1.247 . S
O2 Co0 2.091 . S
O2 C8 1.261 . S
C3 O12 1.247 1_554 S
C3 O13 1.272 . S
O4 Co0 2.004 1_556 S
O4 C9 1.259 . S
Co5 O6 2.061 1_554 S
Co5 O11 2.052 . S
Co5 O13 2.135 . S
O6 Co5 2.061 1_556 S
O6 C9 1.235 . S
C7 O10 1.238 . S
C7 O11 1.241 . S
C8 O1 1.247 . S
C8 O2 1.261 . S
C9 O4 1.259 . S
C9 O6 1.235 . S
O10 Co0 2.021 . S
O10 C7 1.238 . S
O11 Co5 2.052 . S
O11 C7 1.241 . S
O12 Co0 2.137 1_556 S
O12 C3 1.247 1_556 S
O13 Co0 2.244 . S
O13 C3 1.272 . S
O13 Co5 2.135 . S
Co14 O15 2.216 . S
Co14 O16 2.091 . S
Co14 O18 2.004 1_554 S
Co14 O24 2.021 . S
Co14 O26 2.137 1_554 S
Co14 O27 2.244 . S
O15 Co14 2.216 . S
O15 C22 1.247 . S
O16 Co14 2.091 . S
O16 C22 1.261 . S
C17 O26 1.247 1_554 S
C17 O27 1.272 . S
O18 Co14 2.004 1_556 S
O18 C23 1.259 . S
Co19 O20 2.061 1_554 S
Co19 O25 2.052 . S
Co19 O27 2.135 . S
O20 Co19 2.061 1_556 S
O20 C23 1.235 . S
C21 O24 1.238 . S
C21 O25 1.241 . S
C22 O15 1.247 . S
C22 O16 1.261 . S
C23 O18 1.259 . S
C23 O20 1.235 . S
O24 Co14 2.021 . S
O24 C21 1.238 . S
O25 Co19 2.052 . S
O25 C21 1.241 . S
O26 Co14 2.137 1_556 S
O26 C17 1.247 1_556 S
O27 Co14 2.244 . S
O27 C17 1.272 . S
O27 Co19 2.135 . S
Co28 O29 2.216 . S
Co28 O30 2.091 . S
Co28 O32 2.004 1_554 S
Co28 O38 2.021 . S
Co28 O40 2.137 1_554 S
Co28 O41 2.244 . S
O29 Co28 2.216 . S
O29 C36 1.247 . S
O30 Co28 2.091 . S
O30 C36 1.261 . S
C31 O40 1.247 1_554 S
C31 O41 1.272 . S
O32 Co28 2.004 1_556 S
O32 C37 1.259 . S
Co33 O34 2.061 1_554 S
Co33 O39 2.052 . S
Co33 O41 2.135 . S
O34 Co33 2.061 1_556 S
O34 C37 1.235 . S
C35 O38 1.238 . S
C35 O39 1.241 . S
C36 O29 1.247 . S
C36 O30 1.261 . S
C37 O32 1.259 . S
C37 O34 1.235 . S
O38 Co28 2.021 . S
O38 C35 1.238 . S
O39 Co33 2.052 . S
O39 C35 1.241 . S
O40 Co28 2.137 1_556 S
O40 C31 1.247 1_556 S
O41 Co28 2.244 . S
O41 C31 1.272 . S
O41 Co33 2.135 . S
Co42 O43 2.216 . S
Co42 O44 2.091 . S
Co42 O46 2.004 . S
Co42 O52 2.021 . S
Co42 O54 2.137 . S
Co42 O55 2.244 . S
O43 Co42 2.216 . S
O43 C50 1.247 . S
O44 Co42 2.091 . S
O44 C50 1.261 . S
C45 O54 1.247 . S
C45 O55 1.272 . S
O46 Co42 2.004 . S
O46 C51 1.259 . S
Co47 O48 2.061 . S
Co47 O53 2.052 . S
Co47 O55 2.135 . S
O48 Co47 2.061 . S
O48 C51 1.235 . S
C49 O52 1.238 . S
C49 O53 1.241 . S
C50 O43 1.247 . S
C50 O44 1.261 . S
C51 O46 1.259 . S
C51 O48 1.235 . S
O52 Co42 2.021 . S
O52 C49 1.238 . S
O53 Co47 2.052 . S
O53 C49 1.241 . S
O54 Co42 2.137 . S
O54 C45 1.247 . S
O55 Co42 2.244 . S
O55 C45 1.272 . S
O55 Co47 2.135 . S
Co56 O57 2.216 . S
Co56 O58 2.091 . S
Co56 O60 2.004 . S
Co56 O66 2.021 . S
Co56 O68 2.137 . S
Co56 O69 2.244 . S
O57 Co56 2.216 . S
O57 C64 1.247 . S
O58 Co56 2.091 . S
O58 C64 1.261 . S
C59 O68 1.247 . S
C59 O69 1.272 . S
O60 Co56 2.004 . S
O60 C65 1.259 . S
Co61 O62 2.061 . S
Co61 O67 2.052 . S
Co61 O69 2.135 . S
O62 Co61 2.061 . S
O62 C65 1.235 . S
C63 O66 1.238 . S
C63 O67 1.241 . S
C64 O57 1.247 . S
C64 O58 1.261 . S
C65 O60 1.259 . S
C65 O62 1.235 . S
O66 Co56 2.021 . S
O66 C63 1.238 . S
O67 Co61 2.052 . S
O67 C63 1.241 . S
O68 Co56 2.137 . S
O68 C59 1.247 . S
O69 Co56 2.244 . S
O69 C59 1.272 . S
O69 Co61 2.135 . S
Co70 O71 2.216 . S
Co70 O72 2.091 . S
Co70 O74 2.004 . S
Co70 O80 2.021 . S
Co70 O82 2.137 . S
Co70 O83 2.244 . S
O71 Co70 2.216 . S
O71 C78 1.247 . S
O72 Co70 2.091 . S
O72 C78 1.261 . S
C73 O82 1.247 . S
C73 O83 1.272 . S
O74 Co70 2.004 . S
O74 C79 1.259 . S
Co75 O76 2.061 . S
Co75 O81 2.052 . S
Co75 O83 2.135 . S
O76 Co75 2.061 . S
O76 C79 1.235 . S
C77 O80 1.238 . S
C77 O81 1.241 . S
C78 O71 1.247 . S
C78 O72 1.261 . S
C79 O74 1.259 . S
C79 O76 1.235 . S
O80 Co70 2.021 . S
O80 C77 1.238 . S
O81 Co75 2.052 . S
O81 C77 1.241 . S
O82 Co70 2.137 . S
O82 C73 1.247 . S
O83 Co70 2.244 . S
O83 C73 1.272 . S
O83 Co75 2.135 . S
Co84 O85 2.216 . S
Co84 O86 2.091 . S
Co84 O88 2.004 1_556 S
Co84 O94 2.021 . S
Co84 O96 2.137 1_556 S
Co84 O97 2.244 . S
O85 Co84 2.216 . S
O85 C92 1.247 . S
O86 Co84 2.091 . S
O86 C92 1.261 . S
C87 O96 1.247 1_556 S
C87 O97 1.272 . S
O88 Co84 2.004 1_554 S
O88 C93 1.259 . S
Co89 O90 2.061 1_556 S
Co89 O95 2.052 . S
Co89 O97 2.135 . S
O90 Co89 2.061 1_554 S
O90 C93 1.235 . S
C91 O94 1.238 . S
C91 O95 1.241 . S
C92 O85 1.247 . S
C92 O86 1.261 . S
C93 O88 1.259 . S
C93 O90 1.235 . S
O94 Co84 2.021 . S
O94 C91 1.238 . S
O95 Co89 2.052 . S
O95 C91 1.241 . S
O96 Co84 2.137 1_554 S
O96 C87 1.247 1_554 S
O97 Co84 2.244 . S
O97 C87 1.272 . S
O97 Co89 2.135 . S
Co98 O99 2.216 . S
Co98 O100 2.091 . S
Co98 O102 2.004 1_556 S
Co98 O108 2.021 . S
Co98 O110 2.137 1_556 S
Co98 O111 2.244 . S
O99 Co98 2.216 . S
O99 C106 1.247 . S
O100 Co98 2.091 . S
O100 C106 1.261 . S
C101 O110 1.247 1_556 S
C101 O111 1.272 . S
O102 Co98 2.004 1_554 S
O102 C107 1.259 . S
Co103 O104 2.061 1_556 S
Co103 O109 2.052 . S
Co103 O111 2.135 . S
O104 Co103 2.061 1_554 S
O104 C107 1.235 . S
C105 O108 1.238 . S
C105 O109 1.241 . S
C106 O99 1.247 . S
C106 O100 1.261 . S
C107 O102 1.259 . S
C107 O104 1.235 . S
O108 Co98 2.021 . S
O108 C105 1.238 . S
O109 Co103 2.052 . S
O109 C105 1.241 . S
O110 Co98 2.137 1_554 S
O110 C101 1.247 1_554 S
O111 Co98 2.244 . S
O111 C101 1.272 . S
O111 Co103 2.135 . S
Co112 O113 2.216 . S
Co112 O114 2.091 . S
Co112 O116 2.004 1_556 S
Co112 O122 2.021 . S
Co112 O124 2.137 1_556 S
Co112 O125 2.244 . S
O113 Co112 2.216 . S
O113 C120 1.247 . S
O114 Co112 2.091 . S
O114 C120 1.261 . S
C115 O124 1.247 1_556 S
C115 O125 1.272 . S
O116 Co112 2.004 1_554 S
O116 C121 1.259 . S
Co117 O118 2.061 1_556 S
Co117 O123 2.052 . S
Co117 O125 2.135 . S
O118 Co117 2.061 1_554 S
O118 C121 1.235 . S
C119 O122 1.238 . S
C119 O123 1.241 . S
C120 O113 1.247 . S
C120 O114 1.261 . S
C121 O116 1.259 . S
C121 O118 1.235 . S
O122 Co112 2.021 . S
O122 C119 1.238 . S
O123 Co117 2.052 . S
O123 C119 1.241 . S
O124 Co112 2.137 1_554 S
O124 C115 1.247 1_554 S
O125 Co112 2.244 . S
O125 C115 1.272 . S
O125 Co117 2.135 . S
Co126 O127 2.216 . S
Co126 O128 2.091 . S
Co126 O130 2.004 . S
Co126 O136 2.021 . S
Co126 O138 2.137 . S
Co126 O139 2.244 . S
O127 Co126 2.216 . S
O127 C134 1.247 . S
O128 Co126 2.091 . S
O128 C134 1.261 . S
C129 O138 1.247 . S
C129 O139 1.272 . S
O130 Co126 2.004 . S
O130 C135 1.259 . S
Co131 O132 2.061 . S
Co131 O137 2.052 . S
Co131 O139 2.135 . S
O132 Co131 2.061 . S
O132 C135 1.235 . S
C133 O136 1.238 . S
C133 O137 1.241 . S
C134 O127 1.247 . S
C134 O128 1.261 . S
C135 O130 1.259 . S
C135 O132 1.235 . S
O136 Co126 2.021 . S
O136 C133 1.238 . S
O137 Co131 2.052 . S
O137 C133 1.241 . S
O138 Co126 2.137 . S
O138 C129 1.247 . S
O139 Co126 2.244 . S
O139 C129 1.272 . S
O139 Co131 2.135 . S
Co140 O141 2.216 . S
Co140 O142 2.091 . S
Co140 O144 2.004 . S
Co140 O150 2.021 . S
Co140 O152 2.137 . S
Co140 O153 2.244 . S
O141 Co140 2.216 . S
O141 C148 1.247 . S
O142 Co140 2.091 . S
O142 C148 1.261 . S
C143 O152 1.247 . S
C143 O153 1.272 . S
O144 Co140 2.004 . S
O144 C149 1.259 . S
Co145 O146 2.061 . S
Co145 O151 2.052 . S
Co145 O153 2.135 . S
O146 Co145 2.061 . S
O146 C149 1.235 . S
C147 O150 1.238 . S
C147 O151 1.241 . S
C148 O141 1.247 . S
C148 O142 1.261 . S
C149 O144 1.259 . S
C149 O146 1.235 . S
O150 Co140 2.021 . S
O150 C147 1.238 . S
O151 Co145 2.052 . S
O151 C147 1.241 . S
O152 Co140 2.137 . S
O152 C143 1.247 . S
O153 Co140 2.244 . S
O153 C143 1.272 . S
O153 Co145 2.135 . S
Co154 O155 2.216 . S
Co154 O156 2.091 . S
Co154 O158 2.004 . S
Co154 O164 2.021 . S
Co154 O166 2.137 . S
Co154 O167 2.244 . S
O155 Co154 2.216 . S
O155 C162 1.247 . S
O156 Co154 2.091 . S
O156 C162 1.261 . S
C157 O166 1.247 . S
C157 O167 1.272 . S
O158 Co154 2.004 . S
O158 C163 1.259 . S
Co159 O160 2.061 . S
Co159 O165 2.052 . S
Co159 O167 2.135 . S
O160 Co159 2.061 . S
O160 C163 1.235 . S
C161 O164 1.238 . S
C161 O165 1.241 . S
C162 O155 1.247 . S
C162 O156 1.261 . S
C163 O158 1.259 . S
C163 O160 1.235 . S
O164 Co154 2.021 . S
O164 C161 1.238 . S
O165 Co159 2.052 . S
O165 C161 1.241 . S
O166 Co154 2.137 . S
O166 C157 1.247 . S
O167 Co154 2.244 . S
O167 C157 1.272 . S
O167 Co159 2.135 . S
Co168 O169 2.216 . S
Co168 O170 2.091 . S
Co168 O172 2.004 . S
Co168 O178 2.021 . S
Co168 O180 2.137 . S
Co168 O181 2.244 . S
O169 Co168 2.216 . S
O169 C176 1.247 . S
O170 Co168 2.091 . S
O170 C176 1.261 . S
C171 O180 1.247 . S
C171 O181 1.272 . S
O172 Co168 2.004 . S
O172 C177 1.259 . S
Co173 O174 2.061 . S
Co173 O179 2.052 . S
Co173 O181 2.135 . S
O174 Co173 2.061 . S
O174 C177 1.235 . S
C175 O178 1.238 . S
C175 O179 1.241 . S
C176 O169 1.247 . S
C176 O170 1.261 . S
C177 O172 1.259 . S
C177 O174 1.235 . S
O178 Co168 2.021 . S
O178 C175 1.238 . S
O179 Co173 2.052 . S
O179 C175 1.241 . S
O180 Co168 2.137 . S
O180 C171 1.247 . S
O181 Co168 2.244 . S
O181 C171 1.272 . S
O181 Co173 2.135 . S
Co182 O183 2.216 . S
Co182 O184 2.091 . S
Co182 O186 2.004 . S
Co182 O192 2.021 . S
Co182 O194 2.137 . S
Co182 O195 2.244 . S
O183 Co182 2.216 . S
O183 C190 1.247 . S
O184 Co182 2.091 . S
O184 C190 1.261 . S
C185 O194 1.247 . S
C185 O195 1.272 . S
O186 Co182 2.004 . S
O186 C191 1.259 . S
Co187 O188 2.061 . S
Co187 O193 2.052 . S
Co187 O195 2.135 . S
O188 Co187 2.061 . S
O188 C191 1.235 . S
C189 O192 1.238 . S
C189 O193 1.241 . S
C190 O183 1.247 . S
C190 O184 1.261 . S
C191 O186 1.259 . S
C191 O188 1.235 . S
O192 Co182 2.021 . S
O192 C189 1.238 . S
O193 Co187 2.052 . S
O193 C189 1.241 . S
O194 Co182 2.137 . S
O194 C185 1.247 . S
O195 Co182 2.244 . S
O195 C185 1.272 . S
O195 Co187 2.135 . S
Co196 O197 2.216 . S
Co196 O198 2.091 . S
Co196 O200 2.004 . S
Co196 O206 2.021 . S
Co196 O208 2.137 . S
Co196 O209 2.244 . S
O197 Co196 2.216 . S
O197 C204 1.247 . S
O198 Co196 2.091 . S
O198 C204 1.261 . S
C199 O208 1.247 . S
C199 O209 1.272 . S
O200 Co196 2.004 . S
O200 C205 1.259 . S
Co201 O202 2.061 . S
Co201 O207 2.052 . S
Co201 O209 2.135 . S
O202 Co201 2.061 . S
O202 C205 1.235 . S
C203 O206 1.238 . S
C203 O207 1.241 . S
C204 O197 1.247 . S
C204 O198 1.261 . S
C205 O200 1.259 . S
C205 O202 1.235 . S
O206 Co196 2.021 . S
O206 C203 1.238 . S
O207 Co201 2.052 . S
O207 C203 1.241 . S
O208 Co196 2.137 . S
O208 C199 1.247 . S
O209 Co196 2.244 . S
O209 C199 1.272 . S
O209 Co201 2.135 . S
Co210 O211 2.216 . S
Co210 O212 2.091 . S
Co210 O214 2.004 . S
Co210 O220 2.021 . S
Co210 O222 2.137 . S
Co210 O223 2.244 . S
O211 Co210 2.216 . S
O211 C218 1.247 . S
O212 Co210 2.091 . S
O212 C218 1.261 . S
C213 O222 1.247 . S
C213 O223 1.272 . S
O214 Co210 2.004 . S
O214 C219 1.259 . S
Co215 O216 2.061 . S
Co215 O221 2.052 . S
Co215 O223 2.135 . S
O216 Co215 2.061 . S
O216 C219 1.235 . S
C217 O220 1.238 . S
C217 O221 1.241 . S
C218 O211 1.247 . S
C218 O212 1.261 . S
C219 O214 1.259 . S
C219 O216 1.235 . S
O220 Co210 2.021 . S
O220 C217 1.238 . S
O221 Co215 2.052 . S
O221 C217 1.241 . S
O222 Co210 2.137 . S
O222 C213 1.247 . S
O223 Co210 2.244 . S
O223 C213 1.272 . S
O223 Co215 2.135 . S
Co224 O225 2.216 . S
Co224 O226 2.091 . S
Co224 O228 2.004 . S
Co224 O234 2.021 . S
Co224 O236 2.137 . S
Co224 O237 2.244 . S
O225 Co224 2.216 . S
O225 C232 1.247 . S
O226 Co224 2.091 . S
O226 C232 1.261 . S
C227 O236 1.247 . S
C227 O237 1.272 . S
O228 Co224 2.004 . S
O228 C233 1.259 . S
Co229 O230 2.061 . S
Co229 O235 2.052 . S
Co229 O237 2.135 . S
O230 Co229 2.061 . S
O230 C233 1.235 . S
C231 O234 1.238 . S
C231 O235 1.241 . S
C232 O225 1.247 . S
C232 O226 1.261 . S
C233 O228 1.259 . S
C233 O230 1.235 . S
O234 Co224 2.021 . S
O234 C231 1.238 . S
O235 Co229 2.052 . S
O235 C231 1.241 . S
O236 Co224 2.137 . S
O236 C227 1.247 . S
O237 Co224 2.244 . S
O237 C227 1.272 . S
O237 Co229 2.135 . S
Co238 O239 2.216 . S
Co238 O240 2.091 . S
Co238 O242 2.004 . S
Co238 O248 2.021 . S
Co238 O250 2.137 . S
Co238 O251 2.244 . S
O239 Co238 2.216 . S
O239 C246 1.247 . S
O240 Co238 2.091 . S
O240 C246 1.261 . S
C241 O250 1.247 . S
C241 O251 1.272 . S
O242 Co238 2.004 . S
O242 C247 1.259 . S
Co243 O244 2.061 . S
Co243 O249 2.052 . S
Co243 O251 2.135 . S
O244 Co243 2.061 . S
O244 C247 1.235 . S
C245 O248 1.238 . S
C245 O249 1.241 . S
C246 O239 1.247 . S
C246 O240 1.261 . S
C247 O242 1.259 . S
C247 O244 1.235 . S
O248 Co238 2.021 . S
O248 C245 1.238 . S
O249 Co243 2.052 . S
O249 C245 1.241 . S
O250 Co238 2.137 . S
O250 C241 1.247 . S
O251 Co238 2.244 . S
O251 C241 1.272 . S
O251 Co243 2.135 . S
Co252 O253 2.216 . S
Co252 O254 2.091 . S
Co252 O256 2.004 . S
Co252 O262 2.021 . S
Co252 O264 2.137 . S
Co252 O265 2.244 . S
O253 Co252 2.216 . S
O253 C260 1.247 . S
O254 Co252 2.091 . S
O254 C260 1.261 . S
C255 O264 1.247 . S
C255 O265 1.272 . S
O256 Co252 2.004 . S
O256 C261 1.259 . S
Co257 O258 2.061 . S
Co257 O263 2.052 . S
Co257 O265 2.135 . S
O258 Co257 2.061 . S
O258 C261 1.235 . S
C259 O262 1.238 . S
C259 O263 1.241 . S
C260 O253 1.247 . S
C260 O254 1.261 . S
C261 O256 1.259 . S
C261 O258 1.235 . S
O262 Co252 2.021 . S
O262 C259 1.238 . S
O263 Co257 2.052 . S
O263 C259 1.241 . S
O264 Co252 2.137 . S
O264 C255 1.247 . S
O265 Co252 2.244 . S
O265 C255 1.272 . S
O265 Co257 2.135 . S
Co266 O267 2.216 . S
Co266 O268 2.091 . S
Co266 O270 2.004 . S
Co266 O276 2.021 . S
Co266 O278 2.137 . S
Co266 O279 2.244 . S
O267 Co266 2.216 . S
O267 C274 1.247 . S
O268 Co266 2.091 . S
O268 C274 1.261 . S
C269 O278 1.247 . S
C269 O279 1.272 . S
O270 Co266 2.004 . S
O270 C275 1.259 . S
Co271 O272 2.061 . S
Co271 O277 2.052 . S
Co271 O279 2.135 . S
O272 Co271 2.061 . S
O272 C275 1.235 . S
C273 O276 1.238 . S
C273 O277 1.241 . S
C274 O267 1.247 . S
C274 O268 1.261 . S
C275 O270 1.259 . S
C275 O272 1.235 . S
O276 Co266 2.021 . S
O276 C273 1.238 . S
O277 Co271 2.052 . S
O277 C273 1.241 . S
O278 Co266 2.137 . S
O278 C269 1.247 . S
O279 Co266 2.244 . S
O279 C269 1.272 . S
O279 Co271 2.135 . S
Co280 O281 2.216 . S
Co280 O282 2.091 . S
Co280 O284 2.004 . S
Co280 O290 2.021 . S
Co280 O292 2.137 . S
Co280 O293 2.244 . S
O281 Co280 2.216 . S
O281 C288 1.247 . S
O282 Co280 2.091 . S
O282 C288 1.261 . S
C283 O292 1.247 . S
C283 O293 1.272 . S
O284 Co280 2.004 . S
O284 C289 1.259 . S
Co285 O286 2.061 . S
Co285 O291 2.052 . S
Co285 O293 2.135 . S
O286 Co285 2.061 . S
O286 C289 1.235 . S
C287 O290 1.238 . S
C287 O291 1.241 . S
C288 O281 1.247 . S
C288 O282 1.261 . S
C289 O284 1.259 . S
C289 O286 1.235 . S
O290 Co280 2.021 . S
O290 C287 1.238 . S
O291 Co285 2.052 . S
O291 C287 1.241 . S
O292 Co280 2.137 . S
O292 C283 1.247 . S
O293 Co280 2.244 . S
O293 C283 1.272 . S
O293 Co285 2.135 . S
Co294 O295 2.216 . S
Co294 O296 2.091 . S
Co294 O298 2.004 . S
Co294 O304 2.021 . S
Co294 O306 2.137 . S
Co294 O307 2.244 . S
O295 Co294 2.216 . S
O295 C302 1.247 . S
O296 Co294 2.091 . S
O296 C302 1.261 . S
C297 O306 1.247 . S
C297 O307 1.272 . S
O298 Co294 2.004 . S
O298 C303 1.259 . S
Co299 O300 2.061 . S
Co299 O305 2.052 . S
Co299 O307 2.135 . S
O300 Co299 2.061 . S
O300 C303 1.235 . S
C301 O304 1.238 . S
C301 O305 1.241 . S
C302 O295 1.247 . S
C302 O296 1.261 . S
C303 O298 1.259 . S
C303 O300 1.235 . S
O304 Co294 2.021 . S
O304 C301 1.238 . S
O305 Co299 2.052 . S
O305 C301 1.241 . S
O306 Co294 2.137 . S
O306 C297 1.247 . S
O307 Co294 2.244 . S
O307 C297 1.272 . S
O307 Co299 2.135 . S
Co308 O309 2.216 . S
Co308 O310 2.091 . S
Co308 O312 2.004 . S
Co308 O318 2.021 . S
Co308 O320 2.137 . S
Co308 O321 2.244 . S
O309 Co308 2.216 . S
O309 C316 1.247 . S
O310 Co308 2.091 . S
O310 C316 1.261 . S
C311 O320 1.247 . S
C311 O321 1.272 . S
O312 Co308 2.004 . S
O312 C317 1.259 . S
Co313 O314 2.061 . S
Co313 O319 2.052 . S
Co313 O321 2.135 . S
O314 Co313 2.061 . S
O314 C317 1.235 . S
C315 O318 1.238 . S
C315 O319 1.241 . S
C316 O309 1.247 . S
C316 O310 1.261 . S
C317 O312 1.259 . S
C317 O314 1.235 . S
O318 Co308 2.021 . S
O318 C315 1.238 . S
O319 Co313 2.052 . S
O319 C315 1.241 . S
O320 Co308 2.137 . S
O320 C311 1.247 . S
O321 Co308 2.244 . S
O321 C311 1.272 . S
O321 Co313 2.135 . S
Co322 O323 2.216 . S
Co322 O324 2.091 . S
Co322 O326 2.004 . S
Co322 O332 2.021 . S
Co322 O334 2.137 . S
Co322 O335 2.244 . S
O323 Co322 2.216 . S
O323 C330 1.247 . S
O324 Co322 2.091 . S
O324 C330 1.261 . S
C325 O334 1.247 . S
C325 O335 1.272 . S
O326 Co322 2.004 . S
O326 C331 1.259 . S
Co327 O328 2.061 . S
Co327 O333 2.052 . S
Co327 O335 2.135 . S
O328 Co327 2.061 . S
O328 C331 1.235 . S
C329 O332 1.238 . S
C329 O333 1.241 . S
C330 O323 1.247 . S
C330 O324 1.261 . S
C331 O326 1.259 . S
C331 O328 1.235 . S
O332 Co322 2.021 . S
O332 C329 1.238 . S
O333 Co327 2.052 . S
O333 C329 1.241 . S
O334 Co322 2.137 . S
O334 C325 1.247 . S
O335 Co322 2.244 . S
O335 C325 1.272 . S
O335 Co327 2.135 . S
Co336 O337 2.216 . S
Co336 O338 2.091 . S
Co336 O340 2.004 . S
Co336 O346 2.021 . S
Co336 O348 2.137 . S
Co336 O349 2.244 . S
O337 Co336 2.216 . S
O337 C344 1.247 . S
O338 Co336 2.091 . S
O338 C344 1.261 . S
C339 O348 1.247 . S
C339 O349 1.272 . S
O340 Co336 2.004 . S
O340 C345 1.259 . S
Co341 O342 2.061 . S
Co341 O347 2.052 . S
Co341 O349 2.135 . S
O342 Co341 2.061 . S
O342 C345 1.235 . S
C343 O346 1.238 . S
C343 O347 1.241 . S
C344 O337 1.247 . S
C344 O338 1.261 . S
C345 O340 1.259 . S
C345 O342 1.235 . S
O346 Co336 2.021 . S
O346 C343 1.238 . S
O347 Co341 2.052 . S
O347 C343 1.241 . S
O348 Co336 2.137 . S
O348 C339 1.247 . S
O349 Co336 2.244 . S
O349 C339 1.272 . S
O349 Co341 2.135 . S
Co350 O351 2.216 . S
Co350 O352 2.091 . S
Co350 O354 2.004 . S
Co350 O360 2.021 . S
Co350 O362 2.137 . S
Co350 O363 2.244 . S
O351 Co350 2.216 . S
O351 C358 1.247 . S
O352 Co350 2.091 . S
O352 C358 1.261 . S
C353 O362 1.247 . S
C353 O363 1.272 . S
O354 Co350 2.004 . S
O354 C359 1.259 . S
Co355 O356 2.061 . S
Co355 O361 2.052 . S
Co355 O363 2.135 . S
O356 Co355 2.061 . S
O356 C359 1.235 . S
C357 O360 1.238 . S
C357 O361 1.241 . S
C358 O351 1.247 . S
C358 O352 1.261 . S
C359 O354 1.259 . S
C359 O356 1.235 . S
O360 Co350 2.021 . S
O360 C357 1.238 . S
O361 Co355 2.052 . S
O361 C357 1.241 . S
O362 Co350 2.137 . S
O362 C353 1.247 . S
O363 Co350 2.244 . S
O363 C353 1.272 . S
O363 Co355 2.135 . S
Co364 O365 2.216 . S
Co364 O366 2.091 . S
Co364 O368 2.004 . S
Co364 O374 2.021 . S
Co364 O376 2.137 . S
Co364 O377 2.244 . S
O365 Co364 2.216 . S
O365 C372 1.247 . S
O366 Co364 2.091 . S
O366 C372 1.261 . S
C367 O376 1.247 . S
C367 O377 1.272 . S
O368 Co364 2.004 . S
O368 C373 1.259 . S
Co369 O370 2.061 . S
Co369 O375 2.052 . S
Co369 O377 2.135 . S
O370 Co369 2.061 . S
O370 C373 1.235 . S
C371 O374 1.238 . S
C371 O375 1.241 . S
C372 O365 1.247 . S
C372 O366 1.261 . S
C373 O368 1.259 . S
C373 O370 1.235 . S
O374 Co364 2.021 . S
O374 C371 1.238 . S
O375 Co369 2.052 . S
O375 C371 1.241 . S
O376 Co364 2.137 . S
O376 C367 1.247 . S
O377 Co364 2.244 . S
O377 C367 1.272 . S
O377 Co369 2.135 . S
Co378 O379 2.216 . S
Co378 O380 2.091 . S
Co378 O382 2.004 . S
Co378 O388 2.021 . S
Co378 O390 2.137 . S
Co378 O391 2.244 . S
O379 Co378 2.216 . S
O379 C386 1.247 . S
O380 Co378 2.091 . S
O380 C386 1.261 . S
C381 O390 1.247 . S
C381 O391 1.272 . S
O382 Co378 2.004 . S
O382 C387 1.259 . S
Co383 O384 2.061 . S
Co383 O389 2.052 . S
Co383 O391 2.135 . S
O384 Co383 2.061 . S
O384 C387 1.235 . S
C385 O388 1.238 . S
C385 O389 1.241 . S
C386 O379 1.247 . S
C386 O380 1.261 . S
C387 O382 1.259 . S
C387 O384 1.235 . S
O388 Co378 2.021 . S
O388 C385 1.238 . S
O389 Co383 2.052 . S
O389 C385 1.241 . S
O390 Co378 2.137 . S
O390 C381 1.247 . S
O391 Co378 2.244 . S
O391 C381 1.272 . S
O391 Co383 2.135 . S
Co392 O393 2.216 . S
Co392 O394 2.091 . S
Co392 O396 2.004 . S
Co392 O402 2.021 . S
Co392 O404 2.137 . S
Co392 O405 2.244 . S
O393 Co392 2.216 . S
O393 C400 1.247 . S
O394 Co392 2.091 . S
O394 C400 1.261 . S
C395 O404 1.247 . S
C395 O405 1.272 . S
O396 Co392 2.004 . S
O396 C401 1.259 . S
Co397 O398 2.061 . S
Co397 O403 2.052 . S
Co397 O405 2.135 . S
O398 Co397 2.061 . S
O398 C401 1.235 . S
C399 O402 1.238 . S
C399 O403 1.241 . S
C400 O393 1.247 . S
C400 O394 1.261 . S
C401 O396 1.259 . S
C401 O398 1.235 . S
O402 Co392 2.021 . S
O402 C399 1.238 . S
O403 Co397 2.052 . S
O403 C399 1.241 . S
O404 Co392 2.137 . S
O404 C395 1.247 . S
O405 Co392 2.244 . S
O405 C395 1.272 . S
O405 Co397 2.135 . S
Co406 O407 2.216 . S
Co406 O408 2.091 . S
Co406 O410 2.004 . S
Co406 O416 2.021 . S
Co406 O418 2.137 . S
Co406 O419 2.244 . S
O407 Co406 2.216 . S
O407 C414 1.247 . S
O408 Co406 2.091 . S
O408 C414 1.261 . S
C409 O418 1.247 . S
C409 O419 1.272 . S
O410 Co406 2.004 . S
O410 C415 1.259 . S
Co411 O412 2.061 . S
Co411 O417 2.052 . S
Co411 O419 2.135 . S
O412 Co411 2.061 . S
O412 C415 1.235 . S
C413 O416 1.238 . S
C413 O417 1.241 . S
C414 O407 1.247 . S
C414 O408 1.261 . S
C415 O410 1.259 . S
C415 O412 1.235 . S
O416 Co406 2.021 . S
O416 C413 1.238 . S
O417 Co411 2.052 . S
O417 C413 1.241 . S
O418 Co406 2.137 . S
O418 C409 1.247 . S
O419 Co406 2.244 . S
O419 C409 1.272 . S
O419 Co411 2.135 . S
Co420 O421 2.216 . S
Co420 O422 2.091 . S
Co420 O424 2.004 . S
Co420 O430 2.021 . S
Co420 O432 2.137 . S
Co420 O433 2.244 . S
O421 Co420 2.216 . S
O421 C428 1.247 . S
O422 Co420 2.091 . S
O422 C428 1.261 . S
C423 O432 1.247 . S
C423 O433 1.272 . S
O424 Co420 2.004 . S
O424 C429 1.259 . S
Co425 O426 2.061 . S
Co425 O431 2.052 . S
Co425 O433 2.135 . S
O426 Co425 2.061 . S
O426 C429 1.235 . S
C427 O430 1.238 . S
C427 O431 1.241 . S
C428 O421 1.247 . S
C428 O422 1.261 . S
C429 O424 1.259 . S
C429 O426 1.235 . S
O430 Co420 2.021 . S
O430 C427 1.238 . S
O431 Co425 2.052 . S
O431 C427 1.241 . S
O432 Co420 2.137 . S
O432 C423 1.247 . S
O433 Co420 2.244 . S
O433 C423 1.272 . S
O433 Co425 2.135 . S
Co434 O435 2.216 . S
Co434 O436 2.091 . S
Co434 O438 2.004 . S
Co434 O444 2.021 . S
Co434 O446 2.137 . S
Co434 O447 2.244 . S
O435 Co434 2.216 . S
O435 C442 1.247 . S
O436 Co434 2.091 . S
O436 C442 1.261 . S
C437 O446 1.247 . S
C437 O447 1.272 . S
O438 Co434 2.004 . S
O438 C443 1.259 . S
Co439 O440 2.061 . S
Co439 O445 2.052 . S
Co439 O447 2.135 . S
O440 Co439 2.061 . S
O440 C443 1.235 . S
C441 O444 1.238 . S
C441 O445 1.241 . S
C442 O435 1.247 . S
C442 O436 1.261 . S
C443 O438 1.259 . S
C443 O440 1.235 . S
O444 Co434 2.021 . S
O444 C441 1.238 . S
O445 Co439 2.052 . S
O445 C441 1.241 . S
O446 Co434 2.137 . S
O446 C437 1.247 . S
O447 Co434 2.244 . S
O447 C437 1.272 . S
O447 Co439 2.135 . S
Co448 O449 2.216 . S
Co448 O450 2.091 . S
Co448 O452 2.004 . S
Co448 O458 2.021 . S
Co448 O460 2.137 . S
Co448 O461 2.244 . S
O449 Co448 2.216 . S
O449 C456 1.247 . S
O450 Co448 2.091 . S
O450 C456 1.261 . S
C451 O460 1.247 . S
C451 O461 1.272 . S
O452 Co448 2.004 . S
O452 C457 1.259 . S
Co453 O454 2.061 . S
Co453 O459 2.052 . S
Co453 O461 2.135 . S
O454 Co453 2.061 . S
O454 C457 1.235 . S
C455 O458 1.238 . S
C455 O459 1.241 . S
C456 O449 1.247 . S
C456 O450 1.261 . S
C457 O452 1.259 . S
C457 O454 1.235 . S
O458 Co448 2.021 . S
O458 C455 1.238 . S
O459 Co453 2.052 . S
O459 C455 1.241 . S
O460 Co448 2.137 . S
O460 C451 1.247 . S
O461 Co448 2.244 . S
O461 C451 1.272 . S
O461 Co453 2.135 . S
Co462 O463 2.216 . S
Co462 O464 2.091 . S
Co462 O466 2.004 . S
Co462 O472 2.021 . S
Co462 O474 2.137 . S
Co462 O475 2.244 . S
O463 Co462 2.216 . S
O463 C470 1.247 . S
O464 Co462 2.091 . S
O464 C470 1.261 . S
C465 O474 1.247 . S
C465 O475 1.272 . S
O466 Co462 2.004 . S
O466 C471 1.259 . S
Co467 O468 2.061 . S
Co467 O473 2.052 . S
Co467 O475 2.135 . S
O468 Co467 2.061 . S
O468 C471 1.235 . S
C469 O472 1.238 . S
C469 O473 1.241 . S
C470 O463 1.247 . S
C470 O464 1.261 . S
C471 O466 1.259 . S
C471 O468 1.235 . S
O472 Co462 2.021 . S
O472 C469 1.238 . S
O473 Co467 2.052 . S
O473 C469 1.241 . S
O474 Co462 2.137 . S
O474 C465 1.247 . S
O475 Co462 2.244 . S
O475 C465 1.272 . S
O475 Co467 2.135 . S
Co476 O477 2.216 . S
Co476 O478 2.091 . S
Co476 O480 2.004 . S
Co476 O486 2.021 . S
Co476 O488 2.137 . S
Co476 O489 2.244 . S
O477 Co476 2.216 . S
O477 C484 1.247 . S
O478 Co476 2.091 . S
O478 C484 1.261 . S
C479 O488 1.247 . S
C479 O489 1.272 . S
O480 Co476 2.004 . S
O480 C485 1.259 . S
Co481 O482 2.061 . S
Co481 O487 2.052 . S
Co481 O489 2.135 . S
O482 Co481 2.061 . S
O482 C485 1.235 . S
C483 O486 1.238 . S
C483 O487 1.241 . S
C484 O477 1.247 . S
C484 O478 1.261 . S
C485 O480 1.259 . S
C485 O482 1.235 . S
O486 Co476 2.021 . S
O486 C483 1.238 . S
O487 Co481 2.052 . S
O487 C483 1.241 . S
O488 Co476 2.137 . S
O488 C479 1.247 . S
O489 Co476 2.244 . S
O489 C479 1.272 . S
O489 Co481 2.135 . S
Co490 O491 2.216 . S
Co490 O492 2.091 . S
Co490 O494 2.004 . S
Co490 O500 2.021 . S
Co490 O502 2.137 . S
Co490 O503 2.244 . S
O491 Co490 2.216 . S
O491 C498 1.247 . S
O492 Co490 2.091 . S
O492 C498 1.261 . S
C493 O502 1.247 . S
C493 O503 1.272 . S
O494 Co490 2.004 . S
O494 C499 1.259 . S
Co495 O496 2.061 . S
Co495 O501 2.052 . S
Co495 O503 2.135 . S
O496 Co495 2.061 . S
O496 C499 1.235 . S
C497 O500 1.238 . S
C497 O501 1.241 . S
C498 O491 1.247 . S
C498 O492 1.261 . S
C499 O494 1.259 . S
C499 O496 1.235 . S
O500 Co490 2.021 . S
O500 C497 1.238 . S
O501 Co495 2.052 . S
O501 C497 1.241 . S
O502 Co490 2.137 . S
O502 C493 1.247 . S
O503 Co490 2.244 . S
O503 C493 1.272 . S
O503 Co495 2.135 . S
H504 C512 0.950 . S
H505 C517 0.950 . S
H506 C514 0.950 . S
H507 C516 0.950 . S
H508 C518 0.950 . S
H509 C520 0.950 . S
H510 C522 0.950 . S
H511 C523 0.950 . S
C512 H504 0.950 . S
C512 C513 1.386 . S
C512 C514 1.391 . S
C513 C512 1.386 . S
C513 C517 1.393 . S
C514 H506 0.950 . S
C514 C512 1.391 . S
C514 C515 1.400 . S
C515 C514 1.400 . S
C515 C516 1.398 . S
C515 C521 1.491 1_565 S
C516 H507 0.950 . S
C516 C515 1.398 . S
C516 C517 1.391 . S
C517 H505 0.950 . S
C517 C513 1.393 . S
C517 C516 1.391 . S
C518 H508 0.950 . S
C518 C519 1.386 . S
C518 C520 1.391 . S
C519 C518 1.386 . S
C519 C523 1.393 . S
C520 H509 0.950 . S
C520 C518 1.391 . S
C520 C521 1.400 . S
C521 C515 1.491 1_545 S
C521 C520 1.400 . S
C521 C522 1.398 . S
C522 H510 0.950 . S
C522 C521 1.398 . S
C522 C523 1.391 . S
C523 H511 0.950 . S
C523 C519 1.393 . S
C523 C522 1.391 . S
H524 C532 0.950 . S
H525 C537 0.950 . S
H526 C534 0.950 . S
H527 C536 0.950 . S
H528 C538 0.950 . S
H529 C540 0.950 . S
H530 C542 0.950 . S
H531 C543 0.950 . S
C532 H524 0.950 . S
C532 C533 1.386 . S
C532 C534 1.391 . S
C533 C532 1.386 . S
C533 C537 1.393 . S
C534 H526 0.950 . S
C534 C532 1.391 . S
C534 C535 1.400 . S
C535 C534 1.400 . S
C535 C536 1.398 . S
C535 C541 1.491 1_655 S
C536 H527 0.950 . S
C536 C535 1.398 . S
C536 C537 1.391 . S
C537 H525 0.950 . S
C537 C533 1.393 . S
C537 C536 1.391 . S
C538 H528 0.950 . S
C538 C539 1.386 . S
C538 C540 1.391 . S
C539 C538 1.386 . S
C539 C543 1.393 . S
C540 H529 0.950 . S
C540 C538 1.391 . S
C540 C541 1.400 . S
C541 C535 1.491 1_455 S
C541 C540 1.400 . S
C541 C542 1.398 . S
C542 H530 0.950 . S
C542 C541 1.398 . S
C542 C543 1.391 . S
C543 H531 0.950 . S
C543 C539 1.393 . S
C543 C542 1.391 . S
H544 C552 0.950 . S
H545 C557 0.950 . S
H546 C554 0.950 . S
H547 C556 0.950 . S
H548 C558 0.950 . S
H549 C560 0.950 . S
H550 C562 0.950 . S
H551 C563 0.950 . S
C552 H544 0.950 . S
C552 C553 1.386 . S
C552 C554 1.391 . S
C553 C552 1.386 . S
C553 C557 1.393 . S
C554 H546 0.950 . S
C554 C552 1.391 . S
C554 C555 1.400 . S
C555 C554 1.400 . S
C555 C556 1.398 . S
C555 C561 1.491 . S
C556 H547 0.950 . S
C556 C555 1.398 . S
C556 C557 1.391 . S
C557 H545 0.950 . S
C557 C553 1.393 . S
C557 C556 1.391 . S
C558 H548 0.950 . S
C558 C559 1.386 . S
C558 C560 1.391 . S
C559 C558 1.386 . S
C559 C563 1.393 . S
C560 H549 0.950 . S
C560 C558 1.391 . S
C560 C561 1.400 . S
C561 C555 1.491 . S
C561 C560 1.400 . S
C561 C562 1.398 . S
C562 H550 0.950 . S
C562 C561 1.398 . S
C562 C563 1.391 . S
C563 H551 0.950 . S
C563 C559 1.393 . S
C563 C562 1.391 . S
H564 C572 0.950 . S
H565 C577 0.950 . S
H566 C574 0.950 . S
H567 C576 0.950 1_545 S
H568 C578 0.950 . S
H569 C580 0.950 . S
H570 C582 0.950 1_565 S
H571 C583 0.950 . S
C572 H564 0.950 . S
C572 C573 1.386 . S
C572 C574 1.391 . S
C573 C572 1.386 . S
C573 C577 1.393 . S
C574 H566 0.950 . S
C574 C572 1.391 . S
C574 C575 1.400 . S
C575 C574 1.400 . S
C575 C576 1.398 . S
C575 C581 1.491 1_565 S
C576 H567 0.950 1_565 S
C576 C575 1.398 . S
C576 C577 1.391 . S
C577 H565 0.950 . S
C577 C573 1.393 . S
C577 C576 1.391 . S
C578 H568 0.950 . S
C578 C579 1.386 . S
C578 C580 1.391 . S
C579 C578 1.386 . S
C579 C583 1.393 . S
C580 H569 0.950 . S
C580 C578 1.391 . S
C580 C581 1.400 . S
C581 C575 1.491 1_545 S
C581 C580 1.400 . S
C581 C582 1.398 . S
C582 H570 0.950 1_545 S
C582 C581 1.398 . S
C582 C583 1.391 . S
C583 H571 0.950 . S
C583 C579 1.393 . S
C583 C582 1.391 . S
H584 C592 0.950 . S
H585 C597 0.950 . S
H586 C594 0.950 . S
H587 C596 0.950 1_655 S
H588 C598 0.950 . S
H589 C600 0.950 . S
H590 C602 0.950 1_455 S
H591 C603 0.950 . S
C592 H584 0.950 . S
C592 C593 1.386 . S
C592 C594 1.391 . S
C593 C592 1.386 . S
C593 C597 1.393 . S
C594 H586 0.950 . S
C594 C592 1.391 . S
C594 C595 1.400 . S
C595 C594 1.400 . S
C595 C596 1.398 . S
C595 C601 1.491 1_455 S
C596 H587 0.950 1_455 S
C596 C595 1.398 . S
C596 C597 1.391 . S
C597 H585 0.950 . S
C597 C593 1.393 . S
C597 C596 1.391 . S
C598 H588 0.950 . S
C598 C599 1.386 . S
C598 C600 1.391 . S
C599 C598 1.386 . S
C599 C603 1.393 . S
C600 H589 0.950 . S
C600 C598 1.391 . S
C600 C601 1.400 . S
C601 C595 1.491 1_655 S
C601 C600 1.400 . S
C601 C602 1.398 . S
C602 H590 0.950 1_655 S
C602 C601 1.398 . S
C602 C603 1.391 . S
C603 H591 0.950 . S
C603 C599 1.393 . S
C603 C602 1.391 . S
H604 C612 0.950 . S
H605 C617 0.950 . S
H606 C614 0.950 . S
H607 C616 0.950 . S
H608 C618 0.950 . S
H609 C620 0.950 . S
H610 C622 0.950 . S
H611 C623 0.950 . S
C612 H604 0.950 . S
C612 C613 1.386 . S
C612 C614 1.391 . S
C613 C612 1.386 . S
C613 C617 1.393 . S
C614 H606 0.950 . S
C614 C612 1.391 . S
C614 C615 1.400 . S
C615 C614 1.400 . S
C615 C616 1.398 . S
C615 C621 1.491 . S
C616 H607 0.950 . S
C616 C615 1.398 . S
C616 C617 1.391 . S
C617 H605 0.950 . S
C617 C613 1.393 . S
C617 C616 1.391 . S
C618 H608 0.950 . S
C618 C619 1.386 . S
C618 C620 1.391 . S
C619 C618 1.386 . S
C619 C623 1.393 . S
C620 H609 0.950 . S
C620 C618 1.391 . S
C620 C621 1.400 . S
C621 C615 1.491 . S
C621 C620 1.400 . S
C621 C622 1.398 . S
C622 H610 0.950 . S
C622 C621 1.398 . S
C622 C623 1.391 . S
C623 H611 0.950 . S
C623 C619 1.393 . S
C623 C622 1.391 . S
H624 C632 0.950 . S
H625 C637 0.950 . S
H626 C634 0.950 . S
H627 C636 0.950 . S
H628 C638 0.950 . S
H629 C640 0.950 . S
H630 C642 0.950 . S
H631 C643 0.950 . S
C632 H624 0.950 . S
C632 C633 1.386 . S
C632 C634 1.391 . S
C633 C632 1.386 . S
C633 C637 1.393 . S
C634 H626 0.950 . S
C634 C632 1.391 . S
C634 C635 1.400 . S
C635 C634 1.400 . S
C635 C636 1.398 . S
C635 C641 1.491 . S
C636 H627 0.950 . S
C636 C635 1.398 . S
C636 C637 1.391 . S
C637 H625 0.950 . S
C637 C633 1.393 . S
C637 C636 1.391 . S
C638 H628 0.950 . S
C638 C639 1.386 . S
C638 C640 1.391 . S
C639 C638 1.386 . S
C639 C643 1.393 . S
C640 H629 0.950 . S
C640 C638 1.391 . S
C640 C641 1.400 . S
C641 C635 1.491 . S
C641 C640 1.400 . S
C641 C642 1.398 . S
C642 H630 0.950 . S
C642 C641 1.398 . S
C642 C643 1.391 . S
C643 H631 0.950 . S
C643 C639 1.393 . S
C643 C642 1.391 . S
H644 C652 0.950 . S
H645 C657 0.950 . S
H646 C654 0.950 . S
H647 C656 0.950 . S
H648 C658 0.950 . S
H649 C660 0.950 . S
H650 C662 0.950 . S
H651 C663 0.950 . S
C652 H644 0.950 . S
C652 C653 1.386 . S
C652 C654 1.391 . S
C653 C652 1.386 . S
C653 C657 1.393 . S
C654 H646 0.950 . S
C654 C652 1.391 . S
C654 C655 1.400 . S
C655 C654 1.400 . S
C655 C656 1.398 . S
C655 C661 1.491 . S
C656 H647 0.950 . S
C656 C655 1.398 . S
C656 C657 1.391 . S
C657 H645 0.950 . S
C657 C653 1.393 . S
C657 C656 1.391 . S
C658 H648 0.950 . S
C658 C659 1.386 . S
C658 C660 1.391 . S
C659 C658 1.386 . S
C659 C663 1.393 . S
C660 H649 0.950 . S
C660 C658 1.391 . S
C660 C661 1.400 . S
C661 C655 1.491 . S
C661 C660 1.400 . S
C661 C662 1.398 . S
C662 H650 0.950 . S
C662 C661 1.398 . S
C662 C663 1.391 . S
C663 H651 0.950 . S
C663 C659 1.393 . S
C663 C662 1.391 . S
H664 C672 0.950 . S
H665 C677 0.950 . S
H666 C674 0.950 . S
H667 C676 0.950 . S
H668 C678 0.950 . S
H669 C680 0.950 . S
H670 C682 0.950 . S
H671 C683 0.950 . S
C672 H664 0.950 . S
C672 C673 1.386 . S
C672 C674 1.391 . S
C673 C672 1.386 . S
C673 C677 1.393 . S
C674 H666 0.950 . S
C674 C672 1.391 . S
C674 C675 1.400 . S
C675 C674 1.400 . S
C675 C676 1.398 . S
C675 C681 1.491 . S
C676 H667 0.950 . S
C676 C675 1.398 . S
C676 C677 1.391 . S
C677 H665 0.950 . S
C677 C673 1.393 . S
C677 C676 1.391 . S
C678 H668 0.950 . S
C678 C679 1.386 . S
C678 C680 1.391 . S
C679 C678 1.386 . S
C679 C683 1.393 . S
C680 H669 0.950 . S
C680 C678 1.391 . S
C680 C681 1.400 . S
C681 C675 1.491 . S
C681 C680 1.400 . S
C681 C682 1.398 . S
C682 H670 0.950 . S
C682 C681 1.398 . S
C682 C683 1.391 . S
C683 H671 0.950 . S
C683 C679 1.393 . S
C683 C682 1.391 . S
H684 C692 0.950 . S
H685 C697 0.950 . S
H686 C694 0.950 . S
H687 C696 0.950 . S
H688 C698 0.950 . S
H689 C700 0.950 . S
H690 C702 0.950 . S
H691 C703 0.950 . S
C692 H684 0.950 . S
C692 C693 1.386 . S
C692 C694 1.391 . S
C693 C692 1.386 . S
C693 C697 1.393 . S
C694 H686 0.950 . S
C694 C692 1.391 . S
C694 C695 1.400 . S
C695 C694 1.400 . S
C695 C696 1.398 . S
C695 C701 1.491 . S
C696 H687 0.950 . S
C696 C695 1.398 . S
C696 C697 1.391 . S
C697 H685 0.950 . S
C697 C693 1.393 . S
C697 C696 1.391 . S
C698 H688 0.950 . S
C698 C699 1.386 . S
C698 C700 1.391 1_556 S
C699 C698 1.386 . S
C699 C703 1.393 . S
C700 H689 0.950 . S
C700 C698 1.391 1_554 S
C700 C701 1.400 . S
C701 C695 1.491 . S
C701 C700 1.400 . S
C701 C702 1.398 . S
C702 H690 0.950 . S
C702 C701 1.398 . S
C702 C703 1.391 1_554 S
C703 H691 0.950 . S
C703 C699 1.393 . S
C703 C702 1.391 1_556 S
H704 C712 0.950 . S
H705 C717 0.950 . S
H706 C714 0.950 . S
H707 C716 0.950 . S
H708 C718 0.950 . S
H709 C720 0.950 . S
H710 C722 0.950 . S
H711 C723 0.950 . S
C712 H704 0.950 . S
C712 C713 1.386 . S
C712 C714 1.391 . S
C713 C712 1.386 . S
C713 C717 1.393 . S
C714 H706 0.950 . S
C714 C712 1.391 . S
C714 C715 1.400 . S
C715 C714 1.400 . S
C715 C716 1.398 . S
C715 C721 1.491 . S
C716 H707 0.950 . S
C716 C715 1.398 . S
C716 C717 1.391 . S
C717 H705 0.950 . S
C717 C713 1.393 . S
C717 C716 1.391 . S
C718 H708 0.950 . S
C718 C719 1.386 . S
C718 C720 1.391 . S
C719 C718 1.386 . S
C719 C723 1.393 1_556 S
C720 H709 0.950 . S
C720 C718 1.391 . S
C720 C721 1.400 1_556 S
C721 C715 1.491 . S
C721 C720 1.400 1_554 S
C721 C722 1.398 . S
C722 H710 0.950 . S
C722 C721 1.398 . S
C722 C723 1.391 . S
C723 H711 0.950 . S
C723 C719 1.393 1_554 S
C723 C722 1.391 . S
H724 C732 0.950 . S
H725 C737 0.950 . S
H726 C734 0.950 . S
H727 C736 0.950 . S
H728 C738 0.950 . S
H729 C740 0.950 . S
H730 C742 0.950 . S
H731 C743 0.950 . S
C732 H724 0.950 . S
C732 C733 1.386 . S
C732 C734 1.391 . S
C733 C732 1.386 . S
C733 C737 1.393 . S
C734 H726 0.950 . S
C734 C732 1.391 . S
C734 C735 1.400 . S
C735 C734 1.400 . S
C735 C736 1.398 . S
C735 C741 1.491 . S
C736 H727 0.950 . S
C736 C735 1.398 . S
C736 C737 1.391 . S
C737 H725 0.950 . S
C737 C733 1.393 . S
C737 C736 1.391 . S
C738 H728 0.950 . S
C738 C739 1.386 1_554 S
C738 C740 1.391 . S
C739 C738 1.386 1_556 S
C739 C743 1.393 . S
C740 H729 0.950 . S
C740 C738 1.391 . S
C740 C741 1.400 . S
C741 C735 1.491 . S
C741 C740 1.400 . S
C741 C742 1.397 1_554 S
C742 H730 0.950 . S
C742 C741 1.397 1_556 S
C742 C743 1.392 . S
C743 H731 0.950 . S
C743 C739 1.393 . S
C743 C742 1.392 . S
H744 C752 0.950 . S
H745 C757 0.950 . S
H746 C754 0.950 . S
H747 C756 0.950 . S
H748 C758 0.950 . S
H749 C760 0.950 . S
H750 C762 0.950 . S
H751 C763 0.950 . S
C752 H744 0.950 . S
C752 C753 1.386 . S
C752 C754 1.391 . S
C753 C752 1.386 . S
C753 C757 1.393 . S
C754 H746 0.950 . S
C754 C752 1.391 . S
C754 C755 1.400 . S
C755 C754 1.400 . S
C755 C756 1.398 . S
C755 C761 1.491 . S
C756 H747 0.950 . S
C756 C755 1.398 . S
C756 C757 1.391 . S
C757 H745 0.950 . S
C757 C753 1.393 . S
C757 C756 1.391 . S
C758 H748 0.950 . S
C758 C759 1.386 . S
C758 C760 1.393 . S
C759 C758 1.386 . S
C759 C763 1.393 1_554 S
C760 H749 0.950 . S
C760 C758 1.393 . S
C760 C761 1.398 1_554 S
C761 C755 1.491 . S
C761 C760 1.398 1_556 S
C761 C762 1.398 . S
C762 H750 0.950 . S
C762 C761 1.398 . S
C762 C763 1.391 . S
C763 H751 0.950 . S
C763 C759 1.393 1_556 S
C763 C762 1.391 . S
H764 C772 0.950 . S
H765 C777 0.950 . S
H766 C774 0.950 . S
H767 C776 0.950 1_554 S
H768 C778 0.950 . S
H769 C780 0.950 . S
H770 C782 0.950 . S
H771 C783 0.950 . S
C772 H764 0.950 . S
C772 C773 1.386 1_556 S
C772 C774 1.391 . S
C773 C772 1.386 1_554 S
C773 C777 1.393 . S
C774 H766 0.950 . S
C774 C772 1.391 . S
C774 C775 1.400 . S
C775 C774 1.400 . S
C775 C776 1.398 . S
C775 C781 1.491 . S
C776 H767 0.950 1_556 S
C776 C775 1.398 . S
C776 C777 1.391 1_556 S
C777 H765 0.950 . S
C777 C773 1.393 . S
C777 C776 1.391 1_554 S
C778 H768 0.950 . S
C778 C779 1.386 . S
C778 C780 1.391 . S
C779 C778 1.386 . S
C779 C783 1.393 . S
C780 H769 0.950 . S
C780 C778 1.391 . S
C780 C781 1.400 . S
C781 C775 1.491 . S
C781 C780 1.400 . S
C781 C782 1.398 . S
C782 H770 0.950 . S
C782 C781 1.398 . S
C782 C783 1.391 . S
C783 H771 0.950 . S
C783 C779 1.393 . S
C783 C782 1.391 . S
H784 C792 0.950 . S
H785 C797 0.950 . S
H786 C794 0.950 . S
H787 C796 0.950 . S
H788 C798 0.950 1_554 S
H789 C800 0.950 . S
H790 C802 0.950 . S
H791 C803 0.950 . S
C792 H784 0.950 . S
C792 C793 1.386 . S
C792 C794 1.391 . S
C793 C792 1.386 . S
C793 C797 1.393 . S
C794 H786 0.950 . S
C794 C792 1.391 . S
C794 C795 1.400 . S
C795 C794 1.400 . S
C795 C796 1.398 . S
C795 C801 1.491 . S
C796 H787 0.950 . S
C796 C795 1.398 . S
C796 C797 1.391 . S
C797 H785 0.950 . S
C797 C793 1.393 . S
C797 C796 1.391 . S
C798 H788 0.950 1_556 S
C798 C799 1.386 1_556 S
C798 C800 1.391 . S
C799 C798 1.386 1_554 S
C799 C803 1.393 . S
C800 H789 0.950 . S
C800 C798 1.391 . S
C800 C801 1.400 . S
C801 C795 1.491 . S
C801 C800 1.400 . S
C801 C802 1.398 . S
C802 H790 0.950 . S
C802 C801 1.398 . S
C802 C803 1.391 1_556 S
C803 H791 0.950 . S
C803 C799 1.393 . S
C803 C802 1.391 1_554 S
H804 C812 0.950 . S
H805 C817 0.950 . S
H806 C814 0.950 . S
H807 C816 0.950 . S
H808 C818 0.950 . S
H809 C820 0.950 . S
H810 C822 0.950 . S
H811 C823 0.950 . S
C812 H804 0.950 . S
C812 C813 1.386 . S
C812 C814 1.391 . S
C813 C812 1.386 . S
C813 C817 1.393 . S
C814 H806 0.950 . S
C814 C812 1.391 . S
C814 C815 1.400 . S
C815 C814 1.400 . S
C815 C816 1.398 . S
C815 C821 1.491 . S
C816 H807 0.950 . S
C816 C815 1.398 . S
C816 C817 1.391 . S
C817 H805 0.950 . S
C817 C813 1.393 . S
C817 C816 1.391 . S
C818 H808 0.950 . S
C818 C819 1.386 . S
C818 C820 1.391 . S
C819 C818 1.386 . S
C819 C823 1.393 . S
C820 H809 0.950 . S
C820 C818 1.391 . S
C820 C821 1.400 . S
C821 C815 1.491 . S
C821 C820 1.400 . S
C821 C822 1.398 . S
C822 H810 0.950 . S
C822 C821 1.398 . S
C822 C823 1.391 . S
C823 H811 0.950 . S
C823 C819 1.393 . S
C823 C822 1.391 . S
H824 C832 0.950 . S
H825 C837 0.950 . S
H826 C834 0.950 . S
H827 C836 0.950 . S
H828 C838 0.950 . S
H829 C840 0.950 . S
H830 C842 0.950 . S
H831 C843 0.950 . S
C832 H824 0.950 . S
C832 C833 1.386 . S
C832 C834 1.391 . S
C833 C832 1.386 . S
C833 C837 1.393 . S
C834 H826 0.950 . S
C834 C832 1.391 . S
C834 C835 1.400 . S
C835 C834 1.400 . S
C835 C836 1.398 . S
C835 C841 1.491 . S
C836 H827 0.950 . S
C836 C835 1.398 . S
C836 C837 1.391 . S
C837 H825 0.950 . S
C837 C833 1.393 . S
C837 C836 1.391 . S
C838 H828 0.950 . S
C838 C839 1.386 . S
C838 C840 1.391 . S
C839 C838 1.386 . S
C839 C843 1.393 . S
C840 H829 0.950 . S
C840 C838 1.391 . S
C840 C841 1.400 . S
C841 C835 1.491 . S
C841 C840 1.400 . S
C841 C842 1.398 . S
C842 H830 0.950 . S
C842 C841 1.398 . S
C842 C843 1.391 . S
C843 H831 0.950 . S
C843 C839 1.393 . S
C843 C842 1.391 . S
H844 C852 0.950 . S
H845 C857 0.950 . S
H846 C854 0.950 . S
H847 C856 0.950 . S
H848 C858 0.950 . S
H849 C860 0.950 . S
H850 C862 0.950 . S
H851 C863 0.950 . S
C852 H844 0.950 . S
C852 C853 1.386 . S
C852 C854 1.391 . S
C853 C852 1.386 . S
C853 C857 1.393 . S
C854 H846 0.950 . S
C854 C852 1.391 . S
C854 C855 1.400 . S
C855 C854 1.400 . S
C855 C856 1.398 . S
C855 C861 1.491 . S
C856 H847 0.950 . S
C856 C855 1.398 . S
C856 C857 1.391 . S
C857 H845 0.950 . S
C857 C853 1.393 . S
C857 C856 1.391 . S
C858 H848 0.950 . S
C858 C859 1.386 . S
C858 C860 1.391 . S
C859 C858 1.386 . S
C859 C863 1.393 . S
C860 H849 0.950 . S
C860 C858 1.391 . S
C860 C861 1.400 . S
C861 C855 1.491 . S
C861 C860 1.400 . S
C861 C862 1.398 . S
C862 H850 0.950 . S
C862 C861 1.398 . S
C862 C863 1.391 . S
C863 H851 0.950 . S
C863 C859 1.393 . S
C863 C862 1.391 . S
H864 C872 0.950 . S
H865 C877 0.950 . S
H866 C874 0.950 . S
H867 C876 0.950 . S
H868 C878 0.950 . S
H869 C880 0.950 . S
H870 C882 0.950 . S
H871 C883 0.950 . S
C872 H864 0.950 . S
C872 C873 1.386 . S
C872 C874 1.391 . S
C873 C872 1.386 . S
C873 C877 1.393 . S
C874 H866 0.950 . S
C874 C872 1.391 . S
C874 C875 1.400 . S
C875 C874 1.400 . S
C875 C876 1.398 . S
C875 C881 1.491 . S
C876 H867 0.950 . S
C876 C875 1.398 . S
C876 C877 1.391 . S
C877 H865 0.950 . S
C877 C873 1.393 . S
C877 C876 1.391 . S
C878 H868 0.950 . S
C878 C879 1.386 . S
C878 C880 1.391 . S
C879 C878 1.386 . S
C879 C883 1.393 . S
C880 H869 0.950 . S
C880 C878 1.391 . S
C880 C881 1.400 . S
C881 C875 1.491 . S
C881 C880 1.400 . S
C881 C882 1.398 . S
C882 H870 0.950 . S
C882 C881 1.398 . S
C882 C883 1.391 . S
C883 H871 0.950 . S
C883 C879 1.393 . S
C883 C882 1.391 . S
H884 C892 0.950 . S
H885 C897 0.950 . S
H886 C894 0.950 . S
H887 C896 0.950 . S
H888 C898 0.950 . S
H889 C900 0.950 . S
H890 C902 0.950 . S
H891 C903 0.950 . S
C892 H884 0.950 . S
C892 C893 1.386 . S
C892 C894 1.391 . S
C893 C892 1.386 . S
C893 C897 1.393 . S
C894 H886 0.950 . S
C894 C892 1.391 . S
C894 C895 1.400 . S
C895 C894 1.400 . S
C895 C896 1.398 . S
C895 C901 1.491 . S
C896 H887 0.950 . S
C896 C895 1.398 . S
C896 C897 1.391 . S
C897 H885 0.950 . S
C897 C893 1.393 . S
C897 C896 1.391 . S
C898 H888 0.950 . S
C898 C899 1.386 . S
C898 C900 1.391 . S
C899 C898 1.386 . S
C899 C903 1.393 . S
C900 H889 0.950 . S
C900 C898 1.391 . S
C900 C901 1.400 . S
C901 C895 1.491 . S
C901 C900 1.400 . S
C901 C902 1.398 . S
C902 H890 0.950 . S
C902 C901 1.398 . S
C902 C903 1.391 . S
C903 H891 0.950 . S
C903 C899 1.393 . S
C903 C902 1.391 . S
H904 C912 0.950 . S
H905 C917 0.950 . S
H906 C914 0.950 . S
H907 C916 0.950 . S
H908 C918 0.950 . S
H909 C920 0.950 . S
H910 C922 0.950 . S
H911 C923 0.950 . S
C912 H904 0.950 . S
C912 C913 1.386 . S
C912 C914 1.391 . S
C913 C912 1.386 . S
C913 C917 1.393 . S
C914 H906 0.950 . S
C914 C912 1.391 . S
C914 C915 1.400 . S
C915 C914 1.400 . S
C915 C916 1.398 . S
C915 C921 1.491 . S
C916 H907 0.950 . S
C916 C915 1.398 . S
C916 C917 1.391 . S
C917 H905 0.950 . S
C917 C913 1.393 . S
C917 C916 1.391 . S
C918 H908 0.950 . S
C918 C919 1.386 . S
C918 C920 1.391 . S
C919 C918 1.386 . S
C919 C923 1.393 . S
C920 H909 0.950 . S
C920 C918 1.391 . S
C920 C921 1.400 . S
C921 C915 1.491 . S
C921 C920 1.400 . S
C921 C922 1.398 . S
C922 H910 0.950 . S
C922 C921 1.398 . S
C922 C923 1.391 . S
C923 H911 0.950 . S
C923 C919 1.393 . S
C923 C922 1.391 . S
H924 C932 0.950 . S
H925 C937 0.950 . S
H926 C934 0.950 . S
H927 C936 0.950 . S
H928 C938 0.950 . S
H929 C940 0.950 . S
H930 C942 0.950 . S
H931 C943 0.950 . S
C932 H924 0.950 . S
C932 C933 1.386 . S
C932 C934 1.391 . S
C933 C932 1.386 . S
C933 C937 1.393 . S
C934 H926 0.950 . S
C934 C932 1.391 . S
C934 C935 1.400 . S
C935 C934 1.400 . S
C935 C936 1.398 . S
C935 C941 1.491 . S
C936 H927 0.950 . S
C936 C935 1.398 . S
C936 C937 1.391 . S
C937 H925 0.950 . S
C937 C933 1.393 . S
C937 C936 1.391 . S
C938 H928 0.950 . S
C938 C939 1.386 . S
C938 C940 1.391 . S
C939 C938 1.386 . S
C939 C943 1.393 . S
C940 H929 0.950 . S
C940 C938 1.391 . S
C940 C941 1.400 . S
C941 C935 1.491 . S
C941 C940 1.400 . S
C941 C942 1.398 . S
C942 H930 0.950 . S
C942 C941 1.398 . S
C942 C943 1.391 . S
C943 H931 0.950 . S
C943 C939 1.393 . S
C943 C942 1.391 . S
H944 C952 0.950 . S
H945 C957 0.950 . S
H946 C954 0.950 . S
H947 C956 0.950 . S
H948 C958 0.950 . S
H949 C960 0.950 . S
H950 C962 0.950 . S
H951 C963 0.950 . S
C952 H944 0.950 . S
C952 C953 1.386 . S
C952 C954 1.391 . S
C953 C952 1.386 . S
C953 C957 1.393 . S
C954 H946 0.950 . S
C954 C952 1.391 . S
C954 C955 1.400 . S
C955 C954 1.400 . S
C955 C956 1.398 . S
C955 C961 1.491 . S
C956 H947 0.950 . S
C956 C955 1.398 . S
C956 C957 1.391 . S
C957 H945 0.950 . S
C957 C953 1.393 . S
C957 C956 1.391 . S
C958 H948 0.950 . S
C958 C959 1.386 . S
C958 C960 1.391 . S
C959 C958 1.386 . S
C959 C963 1.393 . S
C960 H949 0.950 . S
C960 C958 1.391 . S
C960 C961 1.400 . S
C961 C955 1.491 . S
C961 C960 1.400 . S
C961 C962 1.398 . S
C962 H950 0.950 . S
C962 C961 1.398 . S
C962 C963 1.391 . S
C963 H951 0.950 . S
C963 C959 1.393 . S
C963 C962 1.391 . S
H964 C972 0.950 . S
H965 C977 0.950 . S
H966 C974 0.950 . S
H967 C976 0.950 . S
H968 C978 0.950 . S
H969 C980 0.950 . S
H970 C982 0.950 . S
H971 C983 0.950 . S
C972 H964 0.950 . S
C972 C973 1.386 . S
C972 C974 1.391 . S
C973 C972 1.386 . S
C973 C977 1.393 . S
C974 H966 0.950 . S
C974 C972 1.391 . S
C974 C975 1.400 . S
C975 C974 1.400 . S
C975 C976 1.398 . S
C975 C981 1.491 . S
C976 H967 0.950 . S
C976 C975 1.398 . S
C976 C977 1.391 . S
C977 H965 0.950 . S
C977 C973 1.393 . S
C977 C976 1.391 . S
C978 H968 0.950 . S
C978 C979 1.386 . S
C978 C980 1.391 . S
C979 C978 1.386 . S
C979 C983 1.393 . S
C980 H969 0.950 . S
C980 C978 1.391 . S
C980 C981 1.400 . S
C981 C975 1.491 . S
C981 C980 1.400 . S
C981 C982 1.398 . S
C982 H970 0.950 . S
C982 C981 1.398 . S
C982 C983 1.391 . S
C983 H971 0.950 . S
C983 C979 1.393 . S
C983 C982 1.391 . S
H984 C992 0.950 . S
H985 C997 0.950 . S
H986 C994 0.950 . S
H987 C996 0.950 . S
H988 C998 0.950 . S
H989 C1000 0.950 . S
H990 C1002 0.950 . S
H991 C1003 0.950 . S
C992 H984 0.950 . S
C992 C993 1.386 . S
C992 C994 1.391 . S
C993 C992 1.386 . S
C993 C997 1.393 . S
C994 H986 0.950 . S
C994 C992 1.391 . S
C994 C995 1.400 . S
C995 C994 1.400 . S
C995 C996 1.398 . S
C995 C1001 1.491 . S
C996 H987 0.950 . S
C996 C995 1.398 . S
C996 C997 1.391 . S
C997 H985 0.950 . S
C997 C993 1.393 . S
C997 C996 1.391 . S
C998 H988 0.950 . S
C998 C999 1.386 . S
C998 C1000 1.391 . S
C999 C998 1.386 . S
C999 C1003 1.393 . S
C1000 H989 0.950 . S
C1000 C998 1.391 . S
C1000 C1001 1.400 . S
C1001 C995 1.491 . S
C1001 C1000 1.400 . S
C1001 C1002 1.398 . S
C1002 H990 0.950 . S
C1002 C1001 1.398 . S
C1002 C1003 1.391 . S
C1003 H991 0.950 . S
C1003 C999 1.393 . S
C1003 C1002 1.391 . S
H1004 C1012 0.950 . S
H1005 C1017 0.950 . S
H1006 C1014 0.950 . S
H1007 C1016 0.950 . S
H1008 C1018 0.950 . S
H1009 C1020 0.950 . S
H1010 C1022 0.950 . S
H1011 C1023 0.950 . S
C1012 H1004 0.950 . S
C1012 C1013 1.386 . S
C1012 C1014 1.391 . S
C1013 C1012 1.386 . S
C1013 C1017 1.393 . S
C1014 H1006 0.950 . S
C1014 C1012 1.391 . S
C1014 C1015 1.400 . S
C1015 C1014 1.400 . S
C1015 C1016 1.398 . S
C1015 C1021 1.491 . S
C1016 H1007 0.950 . S
C1016 C1015 1.398 . S
C1016 C1017 1.391 . S
C1017 H1005 0.950 . S
C1017 C1013 1.393 . S
C1017 C1016 1.391 . S
C1018 H1008 0.950 . S
C1018 C1019 1.386 . S
C1018 C1020 1.391 . S
C1019 C1018 1.386 . S
C1019 C1023 1.393 . S
C1020 H1009 0.950 . S
C1020 C1018 1.391 . S
C1020 C1021 1.400 . S
C1021 C1015 1.491 . S
C1021 C1020 1.400 . S
C1021 C1022 1.398 . S
C1022 H1010 0.950 . S
C1022 C1021 1.398 . S
C1022 C1023 1.391 . S
C1023 H1011 0.950 . S
C1023 C1019 1.393 . S
C1023 C1022 1.391 . S
H1024 C1032 0.950 . S
H1025 C1037 0.950 . S
H1026 C1034 0.950 . S
H1027 C1036 0.950 . S
H1028 C1038 0.950 . S
H1029 C1040 0.950 . S
H1030 C1042 0.950 . S
H1031 C1043 0.950 . S
C1032 H1024 0.950 . S
C1032 C1033 1.386 . S
C1032 C1034 1.391 . S
C1033 C1032 1.386 . S
C1033 C1037 1.393 . S
C1034 H1026 0.950 . S
C1034 C1032 1.391 . S
C1034 C1035 1.400 . S
C1035 C1034 1.400 . S
C1035 C1036 1.398 . S
C1035 C1041 1.491 . S
C1036 H1027 0.950 . S
C1036 C1035 1.398 . S
C1036 C1037 1.391 . S
C1037 H1025 0.950 . S
C1037 C1033 1.393 . S
C1037 C1036 1.391 . S
C1038 H1028 0.950 . S
C1038 C1039 1.386 . S
C1038 C1040 1.391 . S
C1039 C1038 1.386 . S
C1039 C1043 1.393 . S
C1040 H1029 0.950 . S
C1040 C1038 1.391 . S
C1040 C1041 1.400 . S
C1041 C1035 1.491 . S
C1041 C1040 1.400 . S
C1041 C1042 1.398 . S
C1042 H1030 0.950 . S
C1042 C1041 1.398 . S
C1042 C1043 1.391 . S
C1043 H1031 0.950 . S
C1043 C1039 1.393 . S
C1043 C1042 1.391 . S
H1044 C1052 0.950 . S
H1045 C1057 0.950 . S
H1046 C1054 0.950 . S
H1047 C1056 0.950 . S
H1048 C1058 0.950 . S
H1049 C1060 0.950 . S
H1050 C1062 0.950 . S
H1051 C1063 0.950 . S
C1052 H1044 0.950 . S
C1052 C1053 1.386 . S
C1052 C1054 1.391 . S
C1053 C1052 1.386 . S
C1053 C1057 1.393 . S
C1054 H1046 0.950 . S
C1054 C1052 1.391 . S
C1054 C1055 1.400 . S
C1055 C1054 1.400 . S
C1055 C1056 1.398 . S
C1055 C1061 1.491 . S
C1056 H1047 0.950 . S
C1056 C1055 1.398 . S
C1056 C1057 1.391 . S
C1057 H1045 0.950 . S
C1057 C1053 1.393 . S
C1057 C1056 1.391 . S
C1058 H1048 0.950 . S
C1058 C1059 1.386 . S
C1058 C1060 1.391 . S
C1059 C1058 1.386 . S
C1059 C1063 1.393 . S
C1060 H1049 0.950 . S
C1060 C1058 1.391 . S
C1060 C1061 1.400 . S
C1061 C1055 1.491 . S
C1061 C1060 1.400 . S
C1061 C1062 1.398 . S
C1062 H1050 0.950 . S
C1062 C1061 1.398 . S
C1062 C1063 1.391 . S
C1063 H1051 0.950 . S
C1063 C1059 1.393 . S
C1063 C1062 1.391 . S
H1064 C1072 0.950 . S
H1065 C1077 0.950 . S
H1066 C1074 0.950 . S
H1067 C1076 0.950 . S
H1068 C1078 0.950 . S
H1069 C1080 0.950 . S
H1070 C1082 0.950 . S
H1071 C1083 0.950 . S
C1072 H1064 0.950 . S
C1072 C1073 1.386 . S
C1072 C1074 1.391 . S
C1073 C1072 1.386 . S
C1073 C1077 1.393 . S
C1074 H1066 0.950 . S
C1074 C1072 1.391 . S
C1074 C1075 1.400 . S
C1075 C1074 1.400 . S
C1075 C1076 1.398 . S
C1075 C1081 1.491 . S
C1076 H1067 0.950 . S
C1076 C1075 1.398 . S
C1076 C1077 1.391 . S
C1077 H1065 0.950 . S
C1077 C1073 1.393 . S
C1077 C1076 1.391 . S
C1078 H1068 0.950 . S
C1078 C1079 1.386 . S
C1078 C1080 1.391 . S
C1079 C1078 1.386 . S
C1079 C1083 1.393 . S
C1080 H1069 0.950 . S
C1080 C1078 1.391 . S
C1080 C1081 1.400 . S
C1081 C1075 1.491 . S
C1081 C1080 1.400 . S
C1081 C1082 1.398 . S
C1082 H1070 0.950 . S
C1082 C1081 1.398 . S
C1082 C1083 1.391 . S
C1083 H1071 0.950 . S
C1083 C1079 1.393 . S
C1083 C1082 1.391 . S
H1084 C1092 0.950 . S
H1085 C1097 0.950 . S
H1086 C1094 0.950 . S
H1087 C1096 0.950 . S
H1088 C1098 0.950 . S
H1089 C1100 0.950 . S
H1090 C1102 0.950 . S
H1091 C1103 0.950 . S
C1092 H1084 0.950 . S
C1092 C1093 1.386 . S
C1092 C1094 1.391 . S
C1093 C1092 1.386 . S
C1093 C1097 1.393 . S
C1094 H1086 0.950 . S
C1094 C1092 1.391 . S
C1094 C1095 1.400 . S
C1095 C1094 1.400 . S
C1095 C1096 1.398 . S
C1095 C1101 1.491 . S
C1096 H1087 0.950 . S
C1096 C1095 1.398 . S
C1096 C1097 1.391 . S
C1097 H1085 0.950 . S
C1097 C1093 1.393 . S
C1097 C1096 1.391 . S
C1098 H1088 0.950 . S
C1098 C1099 1.386 . S
C1098 C1100 1.391 . S
C1099 C1098 1.386 . S
C1099 C1103 1.393 . S
C1100 H1089 0.950 . S
C1100 C1098 1.391 . S
C1100 C1101 1.400 . S
C1101 C1095 1.491 . S
C1101 C1100 1.400 . S
C1101 C1102 1.398 . S
C1102 H1090 0.950 . S
C1102 C1101 1.398 . S
C1102 C1103 1.391 . S
C1103 H1091 0.950 . S
C1103 C1099 1.393 . S
C1103 C1102 1.391 . S
H1104 C1112 0.950 . S
H1105 C1117 0.950 . S
H1106 C1114 0.950 . S
H1107 C1116 0.950 . S
H1108 C1118 0.950 1_556 S
H1109 C1120 0.950 . S
H1110 C1122 0.950 . S
H1111 C1123 0.950 . S
C1112 H1104 0.950 . S
C1112 C1113 1.386 . S
C1112 C1114 1.391 . S
C1113 C1112 1.386 . S
C1113 C1117 1.393 . S
C1114 H1106 0.950 . S
C1114 C1112 1.391 . S
C1114 C1115 1.400 . S
C1115 C1114 1.400 . S
C1115 C1116 1.398 . S
C1115 C1121 1.491 . S
C1116 H1107 0.950 . S
C1116 C1115 1.398 . S
C1116 C1117 1.391 . S
C1117 H1105 0.950 . S
C1117 C1113 1.393 . S
C1117 C1116 1.391 . S
C1118 H1108 0.950 1_554 S
C1118 C1119 1.386 . S
C1118 C1120 1.391 . S
C1119 C1118 1.386 . S
C1119 C1123 1.393 . S
C1120 H1109 0.950 . S
C1120 C1118 1.391 . S
C1120 C1121 1.400 . S
C1121 C1115 1.491 . S
C1121 C1120 1.400 . S
C1121 C1122 1.398 . S
C1122 H1110 0.950 . S
C1122 C1121 1.398 . S
C1122 C1123 1.391 . S
C1123 H1111 0.950 . S
C1123 C1119 1.393 . S
C1123 C1122 1.391 . S
H1124 C1132 0.950 . S
H1125 C1137 0.950 . S
H1126 C1134 0.950 . S
H1127 C1136 0.950 . S
H1128 C1138 0.950 . S
H1129 C1140 0.950 . S
H1130 C1142 0.950 . S
H1131 C1143 0.950 1_556 S
C1132 H1124 0.950 . S
C1132 C1133 1.386 . S
C1132 C1134 1.391 . S
C1133 C1132 1.386 . S
C1133 C1137 1.393 . S
C1134 H1126 0.950 . S
C1134 C1132 1.391 . S
C1134 C1135 1.400 . S
C1135 C1134 1.400 . S
C1135 C1136 1.398 . S
C1135 C1141 1.491 . S
C1136 H1127 0.950 . S
C1136 C1135 1.398 . S
C1136 C1137 1.391 . S
C1137 H1125 0.950 . S
C1137 C1133 1.393 . S
C1137 C1136 1.391 . S
C1138 H1128 0.950 . S
C1138 C1139 1.386 . S
C1138 C1140 1.391 . S
C1139 C1138 1.386 . S
C1139 C1143 1.393 . S
C1140 H1129 0.950 . S
C1140 C1138 1.391 . S
C1140 C1141 1.400 . S
C1141 C1135 1.491 . S
C1141 C1140 1.400 . S
C1141 C1142 1.398 . S
C1142 H1130 0.950 . S
C1142 C1141 1.398 . S
C1142 C1143 1.391 . S
C1143 H1131 0.950 1_554 S
C1143 C1139 1.393 . S
C1143 C1142 1.391 . S
H1144 C1152 0.950 . S
H1145 C1157 0.950 1_556 S
H1146 C1154 0.950 . S
H1147 C1156 0.950 . S
H1148 C1158 0.950 . S
H1149 C1160 0.950 . S
H1150 C1162 0.950 . S
H1151 C1163 0.950 . S
C1152 H1144 0.950 . S
C1152 C1153 1.386 . S
C1152 C1154 1.391 . S
C1153 C1152 1.386 . S
C1153 C1157 1.393 . S
C1154 H1146 0.950 . S
C1154 C1152 1.391 . S
C1154 C1155 1.400 . S
C1155 C1154 1.400 . S
C1155 C1156 1.398 . S
C1155 C1161 1.491 . S
C1156 H1147 0.950 . S
C1156 C1155 1.398 . S
C1156 C1157 1.391 . S
C1157 H1145 0.950 1_554 S
C1157 C1153 1.393 . S
C1157 C1156 1.391 . S
C1158 H1148 0.950 . S
C1158 C1159 1.386 . S
C1158 C1160 1.391 . S
C1159 C1158 1.386 . S
C1159 C1163 1.393 . S
C1160 H1149 0.950 . S
C1160 C1158 1.391 . S
C1160 C1161 1.400 . S
C1161 C1155 1.491 . S
C1161 C1160 1.400 . S
C1161 C1162 1.398 . S
C1162 H1150 0.950 . S
C1162 C1161 1.398 . S
C1162 C1163 1.391 . S
C1163 H1151 0.950 . S
C1163 C1159 1.393 . S
C1163 C1162 1.391 . S
H1164 C1172 0.950 . S
H1165 C1177 0.950 . S
H1166 C1174 0.950 . S
H1167 C1176 0.950 . S
H1168 C1178 0.950 . S
H1169 C1180 0.950 1_556 S
H1170 C1182 0.950 . S
H1171 C1183 0.950 . S
C1172 H1164 0.950 . S
C1172 C1173 1.386 . S
C1172 C1174 1.391 1_556 S
C1173 C1172 1.386 . S
C1173 C1177 1.393 . S
C1174 H1166 0.950 . S
C1174 C1172 1.391 1_554 S
C1174 C1175 1.400 . S
C1175 C1174 1.400 . S
C1175 C1176 1.398 1_554 S
C1175 C1181 1.491 . S
C1176 H1167 0.950 . S
C1176 C1175 1.398 1_556 S
C1176 C1177 1.391 . S
C1177 H1165 0.950 . S
C1177 C1173 1.393 . S
C1177 C1176 1.391 . S
C1178 H1168 0.950 . S
C1178 C1179 1.386 . S
C1178 C1180 1.391 . S
C1179 C1178 1.386 . S
C1179 C1183 1.393 . S
C1180 H1169 0.950 1_554 S
C1180 C1178 1.391 . S
C1180 C1181 1.400 . S
C1181 C1175 1.491 . S
C1181 C1180 1.400 . S
C1181 C1182 1.398 . S
C1182 H1170 0.950 . S
C1182 C1181 1.398 . S
C1182 C1183 1.391 . S
C1183 H1171 0.950 . S
C1183 C1179 1.393 . S
C1183 C1182 1.391 . S
H1184 C1192 0.950 . S
H1185 C1197 0.950 . S
H1186 C1194 0.950 . S
H1187 C1196 0.951 1_554 S
H1188 C1198 0.950 . S
H1189 C1200 0.950 . S
H1190 C1202 0.950 . S
H1191 C1203 0.950 . S
C1192 H1184 0.950 . S
C1192 C1193 1.386 . S
C1192 C1194 1.391 . S
C1193 C1192 1.386 . S
C1193 C1197 1.393 . S
C1194 H1186 0.950 . S
C1194 C1192 1.391 . S
C1194 C1195 1.400 1_556 S
C1195 C1194 1.400 1_554 S
C1195 C1196 1.399 1_554 S
C1195 C1201 1.491 . S
C1196 H1187 0.951 1_556 S
C1196 C1195 1.399 1_556 S
C1196 C1197 1.389 . S
C1197 H1185 0.950 . S
C1197 C1193 1.393 . S
C1197 C1196 1.389 . S
C1198 H1188 0.950 . S
C1198 C1199 1.386 . S
C1198 C1200 1.391 . S
C1199 C1198 1.386 . S
C1199 C1203 1.393 . S
C1200 H1189 0.950 . S
C1200 C1198 1.391 . S
C1200 C1201 1.400 . S
C1201 C1195 1.491 . S
C1201 C1200 1.400 . S
C1201 C1202 1.398 . S
C1202 H1190 0.950 . S
C1202 C1201 1.398 . S
C1202 C1203 1.391 . S
C1203 H1191 0.950 . S
C1203 C1199 1.393 . S
C1203 C1202 1.391 . S
H1204 C1212 0.950 . S
H1205 C1217 0.950 . S
H1206 C1214 0.950 . S
H1207 C1216 0.950 . S
H1208 C1218 0.950 . S
H1209 C1220 0.950 . S
H1210 C1222 0.950 . S
H1211 C1223 0.950 . S
C1212 H1204 0.950 . S
C1212 C1213 1.386 . S
C1212 C1214 1.391 . S
C1213 C1212 1.386 . S
C1213 C1217 1.393 . S
C1214 H1206 0.950 . S
C1214 C1212 1.391 . S
C1214 C1215 1.400 1_556 S
C1215 C1214 1.400 1_554 S
C1215 C1216 1.398 . S
C1215 C1221 1.491 . S
C1216 H1207 0.950 . S
C1216 C1215 1.398 . S
C1216 C1217 1.391 1_554 S
C1217 H1205 0.950 . S
C1217 C1213 1.393 . S
C1217 C1216 1.391 1_556 S
C1218 H1208 0.950 . S
C1218 C1219 1.386 . S
C1218 C1220 1.391 . S
C1219 C1218 1.386 . S
C1219 C1223 1.393 . S
C1220 H1209 0.950 . S
C1220 C1218 1.391 . S
C1220 C1221 1.400 . S
C1221 C1215 1.491 . S
C1221 C1220 1.400 . S
C1221 C1222 1.398 . S
C1222 H1210 0.950 . S
C1222 C1221 1.398 . S
C1222 C1223 1.391 . S
C1223 H1211 0.950 . S
C1223 C1219 1.393 . S
C1223 C1222 1.391 . S
H1224 C1232 0.950 . S
H1225 C1237 0.950 . S
H1226 C1234 0.950 . S
H1227 C1236 0.950 . S
H1228 C1238 0.950 . S
H1229 C1240 0.950 . S
H1230 C1242 0.950 . S
H1231 C1243 0.950 . S
C1232 H1224 0.950 . S
C1232 C1233 1.386 . S
C1232 C1234 1.391 . S
C1233 C1232 1.386 . S
C1233 C1237 1.393 . S
C1234 H1226 0.950 . S
C1234 C1232 1.391 . S
C1234 C1235 1.400 . S
C1235 C1234 1.400 . S
C1235 C1236 1.398 . S
C1235 C1241 1.491 . S
C1236 H1227 0.950 . S
C1236 C1235 1.398 . S
C1236 C1237 1.391 . S
C1237 H1225 0.950 . S
C1237 C1233 1.393 . S
C1237 C1236 1.391 . S
C1238 H1228 0.950 . S
C1238 C1239 1.386 . S
C1238 C1240 1.391 . S
C1239 C1238 1.386 . S
C1239 C1243 1.393 . S
C1240 H1229 0.950 . S
C1240 C1238 1.391 . S
C1240 C1241 1.400 . S
C1241 C1235 1.491 . S
C1241 C1240 1.400 . S
C1241 C1242 1.398 . S
C1242 H1230 0.950 . S
C1242 C1241 1.398 . S
C1242 C1243 1.391 . S
C1243 H1231 0.950 . S
C1243 C1239 1.393 . S
C1243 C1242 1.391 . S
H1244 C1252 0.950 . S
H1245 C1257 0.950 . S
H1246 C1254 0.950 . S
H1247 C1256 0.950 . S
H1248 C1258 0.950 . S
H1249 C1260 0.950 . S
H1250 C1262 0.950 . S
H1251 C1263 0.950 . S
C1252 H1244 0.950 . S
C1252 C1253 1.386 . S
C1252 C1254 1.391 . S
C1253 C1252 1.386 . S
C1253 C1257 1.393 . S
C1254 H1246 0.950 . S
C1254 C1252 1.391 . S
C1254 C1255 1.400 . S
C1255 C1254 1.400 . S
C1255 C1256 1.398 . S
C1255 C1261 1.491 . S
C1256 H1247 0.950 . S
C1256 C1255 1.398 . S
C1256 C1257 1.391 . S
C1257 H1245 0.950 . S
C1257 C1253 1.393 . S
C1257 C1256 1.391 . S
C1258 H1248 0.950 . S
C1258 C1259 1.386 . S
C1258 C1260 1.391 . S
C1259 C1258 1.386 . S
C1259 C1263 1.393 . S
C1260 H1249 0.950 . S
C1260 C1258 1.391 . S
C1260 C1261 1.400 . S
C1261 C1255 1.491 . S
C1261 C1260 1.400 . S
C1261 C1262 1.398 . S
C1262 H1250 0.950 . S
C1262 C1261 1.398 . S
C1262 C1263 1.391 . S
C1263 H1251 0.950 . S
C1263 C1259 1.393 . S
C1263 C1262 1.391 . S
H1264 C1272 0.950 . S
H1265 C1277 0.950 . S
H1266 C1274 0.950 . S
H1267 C1276 0.950 . S
H1268 C1278 0.950 . S
H1269 C1280 0.950 . S
H1270 C1282 0.950 . S
H1271 C1283 0.950 . S
C1272 H1264 0.950 . S
C1272 C1273 1.386 . S
C1272 C1274 1.391 . S
C1273 C1272 1.386 . S
C1273 C1277 1.393 . S
C1274 H1266 0.950 . S
C1274 C1272 1.391 . S
C1274 C1275 1.400 . S
C1275 C1274 1.400 . S
C1275 C1276 1.398 . S
C1275 C1281 1.491 . S
C1276 H1267 0.950 . S
C1276 C1275 1.398 . S
C1276 C1277 1.391 . S
C1277 H1265 0.950 . S
C1277 C1273 1.393 . S
C1277 C1276 1.391 . S
C1278 H1268 0.950 . S
C1278 C1279 1.386 . S
C1278 C1280 1.391 . S
C1279 C1278 1.386 . S
C1279 C1283 1.393 . S
C1280 H1269 0.950 . S
C1280 C1278 1.391 . S
C1280 C1281 1.400 . S
C1281 C1275 1.491 . S
C1281 C1280 1.400 . S
C1281 C1282 1.398 . S
C1282 H1270 0.950 . S
C1282 C1281 1.398 . S
C1282 C1283 1.391 . S
C1283 H1271 0.950 . S
C1283 C1279 1.393 . S
C1283 C1282 1.391 . S
H1284 C1292 0.950 . S
H1285 C1297 0.950 . S
H1286 C1294 0.950 . S
H1287 C1296 0.950 . S
H1288 C1298 0.950 . S
H1289 C1300 0.950 . S
H1290 C1302 0.950 . S
H1291 C1303 0.950 . S
C1292 H1284 0.950 . S
C1292 C1293 1.386 . S
C1292 C1294 1.391 . S
C1293 C1292 1.386 . S
C1293 C1297 1.393 . S
C1294 H1286 0.950 . S
C1294 C1292 1.391 . S
C1294 C1295 1.400 . S
C1295 C1294 1.400 . S
C1295 C1296 1.398 . S
C1295 C1301 1.491 . S
C1296 H1287 0.950 . S
C1296 C1295 1.398 . S
C1296 C1297 1.391 . S
C1297 H1285 0.950 . S
C1297 C1293 1.393 . S
C1297 C1296 1.391 . S
C1298 H1288 0.950 . S
C1298 C1299 1.386 . S
C1298 C1300 1.391 . S
C1299 C1298 1.386 . S
C1299 C1303 1.393 . S
C1300 H1289 0.950 . S
C1300 C1298 1.391 . S
C1300 C1301 1.400 . S
C1301 C1295 1.491 . S
C1301 C1300 1.400 . S
C1301 C1302 1.398 . S
C1302 H1290 0.950 . S
C1302 C1301 1.398 . S
C1302 C1303 1.391 . S
C1303 H1291 0.950 . S
C1303 C1299 1.393 . S
C1303 C1302 1.391 . S
H1304 C1312 0.950 . S
H1305 C1317 0.950 . S
H1306 C1314 0.950 . S
H1307 C1316 0.950 . S
H1308 C1318 0.950 . S
H1309 C1320 0.950 . S
H1310 C1322 0.950 . S
H1311 C1323 0.950 . S
C1312 H1304 0.950 . S
C1312 C1313 1.386 . S
C1312 C1314 1.391 . S
C1313 C1312 1.386 . S
C1313 C1317 1.393 . S
C1314 H1306 0.950 . S
C1314 C1312 1.391 . S
C1314 C1315 1.400 . S
C1315 C1314 1.400 . S
C1315 C1316 1.398 . S
C1315 C1321 1.491 . S
C1316 H1307 0.950 . S
C1316 C1315 1.398 . S
C1316 C1317 1.391 . S
C1317 H1305 0.950 . S
C1317 C1313 1.393 . S
C1317 C1316 1.391 . S
C1318 H1308 0.950 . S
C1318 C1319 1.386 . S
C1318 C1320 1.391 . S
C1319 C1318 1.386 . S
C1319 C1323 1.393 . S
C1320 H1309 0.950 . S
C1320 C1318 1.391 . S
C1320 C1321 1.400 . S
C1321 C1315 1.491 . S
C1321 C1320 1.400 . S
C1321 C1322 1.398 . S
C1322 H1310 0.950 . S
C1322 C1321 1.398 . S
C1322 C1323 1.391 . S
C1323 H1311 0.950 . S
C1323 C1319 1.393 . S
C1323 C1322 1.391 . S
H1324 C1332 0.950 . S
H1325 C1337 0.950 . S
H1326 C1334 0.950 . S
H1327 C1336 0.950 . S
H1328 C1338 0.950 . S
H1329 C1340 0.950 . S
H1330 C1342 0.950 . S
H1331 C1343 0.950 . S
C1332 H1324 0.950 . S
C1332 C1333 1.386 . S
C1332 C1334 1.391 . S
C1333 C1332 1.386 . S
C1333 C1337 1.393 . S
C1334 H1326 0.950 . S
C1334 C1332 1.391 . S
C1334 C1335 1.400 . S
C1335 C1334 1.400 . S
C1335 C1336 1.398 . S
C1335 C1341 1.491 . S
C1336 H1327 0.950 . S
C1336 C1335 1.398 . S
C1336 C1337 1.391 . S
C1337 H1325 0.950 . S
C1337 C1333 1.393 . S
C1337 C1336 1.391 . S
C1338 H1328 0.950 . S
C1338 C1339 1.386 . S
C1338 C1340 1.391 . S
C1339 C1338 1.386 . S
C1339 C1343 1.393 . S
C1340 H1329 0.950 . S
C1340 C1338 1.391 . S
C1340 C1341 1.400 . S
C1341 C1335 1.491 . S
C1341 C1340 1.400 . S
C1341 C1342 1.398 . S
C1342 H1330 0.950 . S
C1342 C1341 1.398 . S
C1342 C1343 1.391 . S
C1343 H1331 0.950 . S
C1343 C1339 1.393 . S
C1343 C1342 1.391 . S
H1344 C1352 0.950 . S
H1345 C1357 0.950 . S
H1346 C1354 0.950 . S
H1347 C1356 0.950 . S
H1348 C1358 0.950 . S
H1349 C1360 0.950 . S
H1350 C1362 0.950 . S
H1351 C1363 0.950 . S
C1352 H1344 0.950 . S
C1352 C1353 1.386 . S
C1352 C1354 1.391 . S
C1353 C1352 1.386 . S
C1353 C1357 1.393 . S
C1354 H1346 0.950 . S
C1354 C1352 1.391 . S
C1354 C1355 1.400 . S
C1355 C1354 1.400 . S
C1355 C1356 1.398 . S
C1355 C1361 1.491 . S
C1356 H1347 0.950 . S
C1356 C1355 1.398 . S
C1356 C1357 1.391 . S
C1357 H1345 0.950 . S
C1357 C1353 1.393 . S
C1357 C1356 1.391 . S
C1358 H1348 0.950 . S
C1358 C1359 1.386 . S
C1358 C1360 1.391 . S
C1359 C1358 1.386 . S
C1359 C1363 1.393 . S
C1360 H1349 0.950 . S
C1360 C1358 1.391 . S
C1360 C1361 1.400 . S
C1361 C1355 1.491 . S
C1361 C1360 1.400 . S
C1361 C1362 1.398 . S
C1362 H1350 0.950 . S
C1362 C1361 1.398 . S
C1362 C1363 1.391 . S
C1363 H1351 0.950 . S
C1363 C1359 1.393 . S
C1363 C1362 1.391 . S
H1364 C1372 0.950 . S
H1365 C1377 0.950 . S
H1366 C1374 0.950 . S
H1367 C1376 0.950 . S
H1368 C1378 0.950 . S
H1369 C1380 0.950 . S
H1370 C1382 0.950 . S
H1371 C1383 0.950 . S
C1372 H1364 0.950 . S
C1372 C1373 1.386 . S
C1372 C1374 1.391 . S
C1373 C1372 1.386 . S
C1373 C1377 1.393 . S
C1374 H1366 0.950 . S
C1374 C1372 1.391 . S
C1374 C1375 1.400 . S
C1375 C1374 1.400 . S
C1375 C1376 1.398 . S
C1375 C1381 1.491 . S
C1376 H1367 0.950 . S
C1376 C1375 1.398 . S
C1376 C1377 1.391 . S
C1377 H1365 0.950 . S
C1377 C1373 1.393 . S
C1377 C1376 1.391 . S
C1378 H1368 0.950 . S
C1378 C1379 1.386 . S
C1378 C1380 1.391 . S
C1379 C1378 1.386 . S
C1379 C1383 1.393 . S
C1380 H1369 0.950 . S
C1380 C1378 1.391 . S
C1380 C1381 1.400 . S
C1381 C1375 1.491 . S
C1381 C1380 1.400 . S
C1381 C1382 1.398 . S
C1382 H1370 0.950 . S
C1382 C1381 1.398 . S
C1382 C1383 1.391 . S
C1383 H1371 0.950 . S
C1383 C1379 1.393 . S
C1383 C1382 1.391 . S
H1384 C1392 0.950 . S
H1385 C1397 0.950 . S
H1386 C1394 0.950 . S
H1387 C1396 0.950 . S
H1388 C1398 0.950 . S
H1389 C1400 0.950 . S
H1390 C1402 0.950 . S
H1391 C1403 0.950 . S
C1392 H1384 0.950 . S
C1392 C1393 1.386 . S
C1392 C1394 1.391 . S
C1393 C1392 1.386 . S
C1393 C1397 1.393 . S
C1394 H1386 0.950 . S
C1394 C1392 1.391 . S
C1394 C1395 1.400 . S
C1395 C1394 1.400 . S
C1395 C1396 1.398 . S
C1395 C1401 1.491 . S
C1396 H1387 0.950 . S
C1396 C1395 1.398 . S
C1396 C1397 1.391 . S
C1397 H1385 0.950 . S
C1397 C1393 1.393 . S
C1397 C1396 1.391 . S
C1398 H1388 0.950 . S
C1398 C1399 1.386 . S
C1398 C1400 1.391 . S
C1399 C1398 1.386 . S
C1399 C1403 1.393 . S
C1400 H1389 0.950 . S
C1400 C1398 1.391 . S
C1400 C1401 1.400 . S
C1401 C1395 1.491 . S
C1401 C1400 1.400 . S
C1401 C1402 1.398 . S
C1402 H1390 0.950 . S
C1402 C1401 1.398 . S
C1402 C1403 1.391 . S
C1403 H1391 0.950 . S
C1403 C1399 1.393 . S
C1403 C1402 1.391 . S
H1404 C1412 0.950 . S
H1405 C1417 0.950 . S
H1406 C1414 0.950 . S
H1407 C1416 0.950 . S
H1408 C1418 0.950 . S
H1409 C1420 0.950 . S
H1410 C1422 0.950 . S
H1411 C1423 0.950 . S
C1412 H1404 0.950 . S
C1412 C1413 1.386 . S
C1412 C1414 1.391 . S
C1413 C1412 1.386 . S
C1413 C1417 1.393 . S
C1414 H1406 0.950 . S
C1414 C1412 1.391 . S
C1414 C1415 1.400 . S
C1415 C1414 1.400 . S
C1415 C1416 1.398 . S
C1415 C1421 1.491 . S
C1416 H1407 0.950 . S
C1416 C1415 1.398 . S
C1416 C1417 1.391 . S
C1417 H1405 0.950 . S
C1417 C1413 1.393 . S
C1417 C1416 1.391 . S
C1418 H1408 0.950 . S
C1418 C1419 1.386 . S
C1418 C1420 1.391 . S
C1419 C1418 1.386 . S
C1419 C1423 1.393 . S
C1420 H1409 0.950 . S
C1420 C1418 1.391 . S
C1420 C1421 1.400 . S
C1421 C1415 1.491 . S
C1421 C1420 1.400 . S
C1421 C1422 1.398 . S
C1422 H1410 0.950 . S
C1422 C1421 1.398 . S
C1422 C1423 1.391 . S
C1423 H1411 0.950 . S
C1423 C1419 1.393 . S
C1423 C1422 1.391 . S
H1424 C1432 0.950 . S
H1425 C1437 0.950 . S
H1426 C1434 0.950 . S
H1427 C1436 0.950 . S
H1428 C1438 0.950 . S
H1429 C1440 0.950 . S
H1430 C1442 0.950 . S
H1431 C1443 0.950 . S
C1432 H1424 0.950 . S
C1432 C1433 1.386 . S
C1432 C1434 1.391 . S
C1433 C1432 1.386 . S
C1433 C1437 1.393 . S
C1434 H1426 0.950 . S
C1434 C1432 1.391 . S
C1434 C1435 1.400 . S
C1435 C1434 1.400 . S
C1435 C1436 1.398 . S
C1435 C1441 1.491 . S
C1436 H1427 0.950 . S
C1436 C1435 1.398 . S
C1436 C1437 1.391 . S
C1437 H1425 0.950 . S
C1437 C1433 1.393 . S
C1437 C1436 1.391 . S
C1438 H1428 0.950 . S
C1438 C1439 1.386 . S
C1438 C1440 1.391 . S
C1439 C1438 1.386 . S
C1439 C1443 1.393 . S
C1440 H1429 0.950 . S
C1440 C1438 1.391 . S
C1440 C1441 1.400 . S
C1441 C1435 1.491 . S
C1441 C1440 1.400 . S
C1441 C1442 1.398 . S
C1442 H1430 0.950 . S
C1442 C1441 1.398 . S
C1442 C1443 1.391 . S
C1443 H1431 0.950 . S
C1443 C1439 1.393 . S
C1443 C1442 1.391 . S
H1444 C1452 0.950 . S
H1445 C1457 0.950 . S
H1446 C1454 0.950 . S
H1447 C1456 0.950 . S
H1448 C1458 0.950 . S
H1449 C1460 0.950 . S
H1450 C1462 0.950 . S
H1451 C1463 0.950 . S
C1452 H1444 0.950 . S
C1452 C1453 1.386 . S
C1452 C1454 1.391 . S
C1453 C1452 1.386 . S
C1453 C1457 1.393 . S
C1454 H1446 0.950 . S
C1454 C1452 1.391 . S
C1454 C1455 1.400 . S
C1455 C1454 1.400 . S
C1455 C1456 1.398 . S
C1455 C1461 1.491 . S
C1456 H1447 0.950 . S
C1456 C1455 1.398 . S
C1456 C1457 1.391 . S
C1457 H1445 0.950 . S
C1457 C1453 1.393 . S
C1457 C1456 1.391 . S
C1458 H1448 0.950 . S
C1458 C1459 1.386 . S
C1458 C1460 1.391 . S
C1459 C1458 1.386 . S
C1459 C1463 1.393 . S
C1460 H1449 0.950 . S
C1460 C1458 1.391 . S
C1460 C1461 1.400 . S
C1461 C1455 1.491 . S
C1461 C1460 1.400 . S
C1461 C1462 1.398 . S
C1462 H1450 0.950 . S
C1462 C1461 1.398 . S
C1462 C1463 1.391 . S
C1463 H1451 0.950 . S
C1463 C1459 1.393 . S
C1463 C1462 1.391 . S
H1464 C1472 0.950 . S
H1465 C1477 0.950 . S
H1466 C1474 0.950 . S
H1467 C1476 0.950 . S
H1468 C1478 0.950 . S
H1469 C1480 0.950 . S
H1470 C1482 0.950 . S
H1471 C1483 0.950 . S
C1472 H1464 0.950 . S
C1472 C1473 1.386 . S
C1472 C1474 1.391 . S
C1473 C1472 1.386 . S
C1473 C1477 1.393 . S
C1474 H1466 0.950 . S
C1474 C1472 1.391 . S
C1474 C1475 1.400 . S
C1475 C1474 1.400 . S
C1475 C1476 1.398 . S
C1475 C1481 1.491 . S
C1476 H1467 0.950 . S
C1476 C1475 1.398 . S
C1476 C1477 1.391 . S
C1477 H1465 0.950 . S
C1477 C1473 1.393 . S
C1477 C1476 1.391 . S
C1478 H1468 0.950 . S
C1478 C1479 1.386 . S
C1478 C1480 1.391 . S
C1479 C1478 1.386 . S
C1479 C1483 1.393 . S
C1480 H1469 0.950 . S
C1480 C1478 1.391 . S
C1480 C1481 1.400 . S
C1481 C1475 1.491 . S
C1481 C1480 1.400 . S
C1481 C1482 1.398 . S
C1482 H1470 0.950 . S
C1482 C1481 1.398 . S
C1482 C1483 1.391 . S
C1483 H1471 0.950 . S
C1483 C1479 1.393 . S
C1483 C1482 1.391 . S
H1484 C1492 0.950 1_554 S
H1485 C1497 0.950 . S
H1486 C1494 0.950 . S
H1487 C1496 0.950 . S
H1488 C1498 0.950 . S
H1489 C1500 0.950 . S
H1490 C1502 0.950 . S
H1491 C1503 0.950 . S
C1492 H1484 0.950 1_556 S
C1492 C1493 1.386 . S
C1492 C1494 1.391 . S
C1493 C1492 1.386 . S
C1493 C1497 1.393 . S
C1494 H1486 0.950 . S
C1494 C1492 1.391 . S
C1494 C1495 1.400 . S
C1495 C1494 1.400 . S
C1495 C1496 1.398 . S
C1495 C1501 1.491 . S
C1496 H1487 0.950 . S
C1496 C1495 1.398 . S
C1496 C1497 1.391 . S
C1497 H1485 0.950 . S
C1497 C1493 1.393 . S
C1497 C1496 1.391 . S
C1498 H1488 0.950 . S
C1498 C1499 1.386 . S
C1498 C1500 1.391 . S
C1499 C1498 1.386 . S
C1499 C1503 1.393 . S
C1500 H1489 0.950 . S
C1500 C1498 1.391 . S
C1500 C1501 1.400 . S
C1501 C1495 1.491 . S
C1501 C1500 1.400 . S
C1501 C1502 1.398 . S
C1502 H1490 0.950 . S
C1502 C1501 1.398 . S
C1502 C1503 1.391 . S
C1503 H1491 0.950 . S
C1503 C1499 1.393 . S
C1503 C1502 1.391 . S
H1504 C1512 0.950 . S
H1505 C1517 0.950 . S
H1506 C1514 0.950 . S
H1507 C1516 0.950 . S
H1508 C1518 0.950 . S
H1509 C1520 0.950 . S
H1510 C1522 0.950 . S
H1511 C1523 0.950 . S
C1512 H1504 0.950 . S
C1512 C1513 1.386 . S
C1512 C1514 1.391 . S
C1513 C1512 1.386 . S
C1513 C1517 1.393 . S
C1514 H1506 0.950 . S
C1514 C1512 1.391 . S
C1514 C1515 1.400 . S
C1515 C1514 1.400 . S
C1515 C1516 1.398 . S
C1515 C1521 1.491 . S
C1516 H1507 0.950 . S
C1516 C1515 1.398 . S
C1516 C1517 1.391 . S
C1517 H1505 0.950 . S
C1517 C1513 1.393 . S
C1517 C1516 1.391 . S
C1518 H1508 0.950 . S
C1518 C1519 1.386 . S
C1518 C1520 1.391 . S
C1519 C1518 1.386 . S
C1519 C1523 1.393 . S
C1520 H1509 0.950 . S
C1520 C1518 1.391 . S
C1520 C1521 1.400 . S
C1521 C1515 1.491 . S
C1521 C1520 1.400 . S
C1521 C1522 1.398 . S
C1522 H1510 0.950 . S
C1522 C1521 1.398 . S
C1522 C1523 1.391 . S
C1523 H1511 0.950 . S
C1523 C1519 1.393 . S
C1523 C1522 1.391 . S
H1524 C1532 0.950 . S
H1525 C1537 0.950 . S
H1526 C1534 0.950 . S
H1527 C1536 0.950 . S
H1528 C1538 0.950 . S
H1529 C1540 0.950 . S
H1530 C1542 0.950 . S
H1531 C1543 0.950 . S
C1532 H1524 0.950 . S
C1532 C1533 1.386 . S
C1532 C1534 1.391 . S
C1533 C1532 1.386 . S
C1533 C1537 1.393 . S
C1534 H1526 0.950 . S
C1534 C1532 1.391 . S
C1534 C1535 1.400 . S
C1535 C1534 1.400 . S
C1535 C1536 1.398 . S
C1535 C1541 1.491 . S
C1536 H1527 0.950 . S
C1536 C1535 1.398 . S
C1536 C1537 1.391 . S
C1537 H1525 0.950 . S
C1537 C1533 1.393 . S
C1537 C1536 1.391 . S
C1538 H1528 0.950 . S
C1538 C1539 1.386 . S
C1538 C1540 1.391 . S
C1539 C1538 1.386 . S
C1539 C1543 1.393 . S
C1540 H1529 0.950 . S
C1540 C1538 1.391 . S
C1540 C1541 1.400 1_554 S
C1541 C1535 1.491 . S
C1541 C1540 1.400 1_556 S
C1541 C1542 1.398 . S
C1542 H1530 0.950 . S
C1542 C1541 1.398 . S
C1542 C1543 1.391 1_556 S
C1543 H1531 0.950 . S
C1543 C1539 1.393 . S
C1543 C1542 1.391 1_554 S
H1544 C1552 0.950 . S
H1545 C1557 0.950 . S
H1546 C1554 0.950 1_554 S
H1547 C1556 0.950 . S
H1548 C1558 0.950 . S
H1549 C1560 0.950 . S
H1550 C1562 0.950 . S
H1551 C1563 0.950 . S
C1552 H1544 0.950 . S
C1552 C1553 1.386 . S
C1552 C1554 1.391 . S
C1553 C1552 1.386 . S
C1553 C1557 1.393 . S
C1554 H1546 0.950 1_556 S
C1554 C1552 1.391 . S
C1554 C1555 1.400 . S
C1555 C1554 1.400 . S
C1555 C1556 1.398 . S
C1555 C1561 1.491 . S
C1556 H1547 0.950 . S
C1556 C1555 1.398 . S
C1556 C1557 1.391 . S
C1557 H1545 0.950 . S
C1557 C1553 1.393 . S
C1557 C1556 1.391 . S
C1558 H1548 0.950 . S
C1558 C1559 1.386 . S
C1558 C1560 1.391 1_554 S
C1559 C1558 1.386 . S
C1559 C1563 1.393 . S
C1560 H1549 0.950 . S
C1560 C1558 1.391 1_556 S
C1560 C1561 1.400 . S
C1561 C1555 1.491 . S
C1561 C1560 1.400 . S
C1561 C1562 1.398 1_556 S
C1562 H1550 0.950 . S
C1562 C1561 1.398 1_554 S
C1562 C1563 1.391 . S
C1563 H1551 0.950 . S
C1563 C1559 1.393 . S
C1563 C1562 1.391 . S
H1564 C1572 0.950 . S
H1565 C1577 0.950 . S
H1566 C1574 0.950 . S
H1567 C1576 0.950 . S
H1568 C1578 0.950 . S
H1569 C1580 0.950 . S
H1570 C1582 0.950 1_556 S
H1571 C1583 0.950 . S
C1572 H1564 0.950 . S
C1572 C1573 1.386 . S
C1572 C1574 1.391 . S
C1573 C1572 1.386 . S
C1573 C1577 1.393 . S
C1574 H1566 0.950 . S
C1574 C1572 1.391 . S
C1574 C1575 1.400 . S
C1575 C1574 1.400 . S
C1575 C1576 1.398 . S
C1575 C1581 1.491 . S
C1576 H1567 0.950 . S
C1576 C1575 1.398 . S
C1576 C1577 1.391 . S
C1577 H1565 0.950 . S
C1577 C1573 1.393 . S
C1577 C1576 1.391 . S
C1578 H1568 0.950 . S
C1578 C1579 1.386 . S
C1578 C1580 1.391 . S
C1579 C1578 1.386 . S
C1579 C1583 1.393 . S
C1580 H1569 0.950 . S
C1580 C1578 1.391 . S
C1580 C1581 1.400 1_554 S
C1581 C1575 1.491 . S
C1581 C1580 1.400 1_556 S
C1581 C1582 1.398 1_556 S
C1582 H1570 0.950 1_554 S
C1582 C1581 1.398 1_554 S
C1582 C1583 1.391 . S
C1583 H1571 0.950 . S
C1583 C1579 1.393 . S
C1583 C1582 1.391 . S
H1584 C1592 0.950 . S
H1585 C1597 0.950 . S
H1586 C1594 0.950 . S
H1587 C1596 0.950 . S
H1588 C1598 0.950 . S
H1589 C1600 0.950 . S
H1590 C1602 0.950 . S
H1591 C1603 0.950 . S
C1592 H1584 0.950 . S
C1592 C1593 1.386 . S
C1592 C1594 1.391 . S
C1593 C1592 1.386 . S
C1593 C1597 1.393 . S
C1594 H1586 0.950 . S
C1594 C1592 1.391 . S
C1594 C1595 1.400 . S
C1595 C1594 1.400 . S
C1595 C1596 1.398 . S
C1595 C1601 1.491 . S
C1596 H1587 0.950 . S
C1596 C1595 1.398 . S
C1596 C1597 1.391 . S
C1597 H1585 0.950 . S
C1597 C1593 1.393 . S
C1597 C1596 1.391 . S
C1598 H1588 0.950 . S
C1598 C1599 1.386 . S
C1598 C1600 1.391 . S
C1599 C1598 1.386 . S
C1599 C1603 1.393 . S
C1600 H1589 0.950 . S
C1600 C1598 1.391 . S
C1600 C1601 1.400 . S
C1601 C1595 1.491 . S
C1601 C1600 1.400 . S
C1601 C1602 1.398 . S
C1602 H1590 0.950 . S
C1602 C1601 1.398 . S
C1602 C1603 1.391 . S
C1603 H1591 0.950 . S
C1603 C1599 1.393 . S
C1603 C1602 1.391 . S
H1604 C1612 0.950 . S
H1605 C1617 0.950 . S
H1606 C1614 0.950 . S
H1607 C1616 0.950 . S
H1608 C1618 0.950 . S
H1609 C1620 0.950 . S
H1610 C1622 0.950 . S
H1611 C1623 0.950 . S
C1612 H1604 0.950 . S
C1612 C1613 1.386 . S
C1612 C1614 1.391 . S
C1613 C1612 1.386 . S
C1613 C1617 1.393 . S
C1614 H1606 0.950 . S
C1614 C1612 1.391 . S
C1614 C1615 1.400 . S
C1615 C1614 1.400 . S
C1615 C1616 1.398 . S
C1615 C1621 1.491 . S
C1616 H1607 0.950 . S
C1616 C1615 1.398 . S
C1616 C1617 1.391 . S
C1617 H1605 0.950 . S
C1617 C1613 1.393 . S
C1617 C1616 1.391 . S
C1618 H1608 0.950 . S
C1618 C1619 1.386 . S
C1618 C1620 1.391 . S
C1619 C1618 1.386 . S
C1619 C1623 1.393 . S
C1620 H1609 0.950 . S
C1620 C1618 1.391 . S
C1620 C1621 1.400 . S
C1621 C1615 1.491 . S
C1621 C1620 1.400 . S
C1621 C1622 1.398 . S
C1622 H1610 0.950 . S
C1622 C1621 1.398 . S
C1622 C1623 1.391 . S
C1623 H1611 0.950 . S
C1623 C1619 1.393 . S
C1623 C1622 1.391 . S
H1624 C1632 0.950 . S
H1625 C1637 0.950 . S
H1626 C1634 0.950 . S
H1627 C1636 0.950 . S
H1628 C1638 0.950 . S
H1629 C1640 0.950 1_554 S
H1630 C1642 0.950 . S
H1631 C1643 0.950 . S
C1632 H1624 0.950 . S
C1632 C1633 1.386 . S
C1632 C1634 1.391 . S
C1633 C1632 1.386 . S
C1633 C1637 1.393 . S
C1634 H1626 0.950 . S
C1634 C1632 1.391 . S
C1634 C1635 1.400 . S
C1635 C1634 1.400 . S
C1635 C1636 1.398 . S
C1635 C1641 1.491 . S
C1636 H1627 0.950 . S
C1636 C1635 1.398 . S
C1636 C1637 1.391 . S
C1637 H1625 0.950 . S
C1637 C1633 1.393 . S
C1637 C1636 1.391 . S
C1638 H1628 0.950 . S
C1638 C1639 1.386 1_554 S
C1638 C1640 1.391 1_554 S
C1639 C1638 1.386 1_556 S
C1639 C1643 1.393 . S
C1640 H1629 0.950 1_556 S
C1640 C1638 1.391 1_556 S
C1640 C1641 1.400 . S
C1641 C1635 1.491 . S
C1641 C1640 1.400 . S
C1641 C1642 1.398 . S
C1642 H1630 0.950 . S
C1642 C1641 1.398 . S
C1642 C1643 1.391 . S
C1643 H1631 0.950 . S
C1643 C1639 1.393 . S
C1643 C1642 1.391 . S
H1644 C1652 0.950 . S
H1645 C1657 0.950 . S
H1646 C1654 0.950 . S
H1647 C1656 0.950 . S
H1648 C1658 0.950 . S
H1649 C1660 0.950 . S
H1650 C1662 0.950 . S
H1651 C1663 0.950 . S
C1652 H1644 0.950 . S
C1652 C1653 1.386 . S
C1652 C1654 1.391 . S
C1653 C1652 1.386 . S
C1653 C1657 1.393 . S
C1654 H1646 0.950 . S
C1654 C1652 1.391 . S
C1654 C1655 1.400 . S
C1655 C1654 1.400 . S
C1655 C1656 1.398 . S
C1655 C1661 1.491 . S
C1656 H1647 0.950 . S
C1656 C1655 1.398 . S
C1656 C1657 1.391 . S
C1657 H1645 0.950 . S
C1657 C1653 1.393 . S
C1657 C1656 1.391 . S
C1658 H1648 0.950 . S
C1658 C1659 1.386 . S
C1658 C1660 1.391 . S
C1659 C1658 1.386 . S
C1659 C1663 1.393 . S
C1660 H1649 0.950 . S
C1660 C1658 1.391 . S
C1660 C1661 1.400 . S
C1661 C1655 1.491 . S
C1661 C1660 1.400 . S
C1661 C1662 1.398 . S
C1662 H1650 0.950 . S
C1662 C1661 1.398 . S
C1662 C1663 1.391 . S
C1663 H1651 0.950 . S
C1663 C1659 1.393 . S
C1663 C1662 1.391 . S
H1664 C1672 0.950 . S
H1665 C1677 0.950 . S
H1666 C1674 0.950 . S
H1667 C1676 0.950 . S
H1668 C1678 0.950 . S
H1669 C1680 0.950 . S
H1670 C1682 0.950 . S
H1671 C1683 0.950 . S
C1672 H1664 0.950 . S
C1672 C1673 1.386 . S
C1672 C1674 1.391 . S
C1673 C1672 1.386 . S
C1673 C1677 1.393 . S
C1674 H1666 0.950 . S
C1674 C1672 1.391 . S
C1674 C1675 1.400 . S
C1675 C1674 1.400 . S
C1675 C1676 1.398 . S
C1675 C1681 1.491 . S
C1676 H1667 0.950 . S
C1676 C1675 1.398 . S
C1676 C1677 1.391 . S
C1677 H1665 0.950 . S
C1677 C1673 1.393 . S
C1677 C1676 1.391 . S
C1678 H1668 0.950 . S
C1678 C1679 1.386 . S
C1678 C1680 1.391 . S
C1679 C1678 1.386 . S
C1679 C1683 1.393 . S
C1680 H1669 0.950 . S
C1680 C1678 1.391 . S
C1680 C1681 1.400 . S
C1681 C1675 1.491 . S
C1681 C1680 1.400 . S
C1681 C1682 1.398 . S
C1682 H1670 0.950 . S
C1682 C1681 1.398 . S
C1682 C1683 1.391 . S
C1683 H1671 0.950 . S
C1683 C1679 1.393 . S
C1683 C1682 1.391 . S
H1684 C1692 0.950 . S
H1685 C1697 0.950 . S
H1686 C1694 0.950 . S
H1687 C1696 0.950 . S
H1688 C1698 0.950 . S
H1689 C1700 0.950 . S
H1690 C1702 0.950 . S
H1691 C1703 0.950 . S
C1692 H1684 0.950 . S
C1692 C1693 1.386 . S
C1692 C1694 1.391 . S
C1693 C1692 1.386 . S
C1693 C1697 1.393 . S
C1694 H1686 0.950 . S
C1694 C1692 1.391 . S
C1694 C1695 1.400 . S
C1695 C1694 1.400 . S
C1695 C1696 1.398 . S
C1695 C1701 1.491 . S
C1696 H1687 0.950 . S
C1696 C1695 1.398 . S
C1696 C1697 1.391 . S
C1697 H1685 0.950 . S
C1697 C1693 1.393 . S
C1697 C1696 1.391 . S
C1698 H1688 0.950 . S
C1698 C1699 1.386 . S
C1698 C1700 1.391 . S
C1699 C1698 1.386 . S
C1699 C1703 1.393 . S
C1700 H1689 0.950 . S
C1700 C1698 1.391 . S
C1700 C1701 1.400 . S
C1701 C1695 1.491 . S
C1701 C1700 1.400 . S
C1701 C1702 1.398 . S
C1702 H1690 0.950 . S
C1702 C1701 1.398 . S
C1702 C1703 1.391 . S
C1703 H1691 0.950 . S
C1703 C1699 1.393 . S
C1703 C1702 1.391 . S
H1704 C1712 0.950 . S
H1705 C1717 0.950 . S
H1706 C1714 0.950 . S
H1707 C1716 0.950 1_556 S
H1708 C1718 0.950 . S
H1709 C1720 0.950 . S
H1710 C1722 0.950 . S
H1711 C1723 0.950 . S
C1712 H1704 0.950 . S
C1712 C1713 1.386 . S
C1712 C1714 1.391 . S
C1713 C1712 1.386 . S
C1713 C1717 1.393 1_554 S
C1714 H1706 0.950 . S
C1714 C1712 1.391 . S
C1714 C1715 1.400 . S
C1715 C1714 1.400 . S
C1715 C1716 1.398 . S
C1715 C1721 1.491 . S
C1716 H1707 0.950 1_554 S
C1716 C1715 1.398 . S
C1716 C1717 1.391 1_554 S
C1717 H1705 0.950 . S
C1717 C1713 1.393 1_556 S
C1717 C1716 1.391 1_556 S
C1718 H1708 0.950 . S
C1718 C1719 1.386 . S
C1718 C1720 1.391 . S
C1719 C1718 1.386 . S
C1719 C1723 1.393 . S
C1720 H1709 0.950 . S
C1720 C1718 1.391 . S
C1720 C1721 1.400 . S
C1721 C1715 1.491 . S
C1721 C1720 1.400 . S
C1721 C1722 1.398 . S
C1722 H1710 0.950 . S
C1722 C1721 1.398 . S
C1722 C1723 1.391 . S
C1723 H1711 0.950 . S
C1723 C1719 1.393 . S
C1723 C1722 1.391 . S
H1724 C1732 0.950 . S
H1725 C1737 0.950 . S
H1726 C1734 0.950 . S
H1727 C1736 0.950 . S
H1728 C1738 0.950 . S
H1729 C1740 0.950 . S
H1730 C1742 0.950 . S
H1731 C1743 0.950 . S
C1732 H1724 0.950 . S
C1732 C1733 1.386 . S
C1732 C1734 1.391 . S
C1733 C1732 1.386 . S
C1733 C1737 1.393 . S
C1734 H1726 0.950 . S
C1734 C1732 1.391 . S
C1734 C1735 1.400 . S
C1735 C1734 1.400 . S
C1735 C1736 1.398 . S
C1735 C1741 1.491 . S
C1736 H1727 0.950 . S
C1736 C1735 1.398 . S
C1736 C1737 1.391 . S
C1737 H1725 0.950 . S
C1737 C1733 1.393 . S
C1737 C1736 1.391 . S
C1738 H1728 0.950 . S
C1738 C1739 1.386 . S
C1738 C1740 1.391 . S
C1739 C1738 1.386 . S
C1739 C1743 1.393 1_554 S
C1740 H1729 0.950 . S
C1740 C1738 1.391 . S
C1740 C1741 1.400 . S
C1741 C1735 1.491 . S
C1741 C1740 1.400 . S
C1741 C1742 1.398 . S
C1742 H1730 0.950 . S
C1742 C1741 1.398 . S
C1742 C1743 1.391 1_554 S
C1743 H1731 0.950 . S
C1743 C1739 1.393 1_556 S
C1743 C1742 1.391 1_556 S
H1744 C1752 0.950 . S
H1745 C1757 0.950 . S
H1746 C1754 0.950 . S
H1747 C1756 0.950 . S
H1748 C1758 0.950 . S
H1749 C1760 0.950 . S
H1750 C1762 0.950 . S
H1751 C1763 0.950 1_556 S
C1752 H1744 0.950 . S
C1752 C1753 1.386 . S
C1752 C1754 1.391 . S
C1753 C1752 1.386 . S
C1753 C1757 1.393 . S
C1754 H1746 0.950 . S
C1754 C1752 1.391 . S
C1754 C1755 1.400 . S
C1755 C1754 1.400 . S
C1755 C1756 1.398 . S
C1755 C1761 1.491 . S
C1756 H1747 0.950 . S
C1756 C1755 1.398 . S
C1756 C1757 1.391 . S
C1757 H1745 0.950 . S
C1757 C1753 1.393 . S
C1757 C1756 1.391 . S
C1758 H1748 0.950 . S
C1758 C1759 1.386 . S
C1758 C1760 1.391 . S
C1759 C1758 1.386 . S
C1759 C1763 1.393 . S
C1760 H1749 0.950 . S
C1760 C1758 1.391 . S
C1760 C1761 1.400 . S
C1761 C1755 1.491 . S
C1761 C1760 1.400 . S
C1761 C1762 1.398 . S
C1762 H1750 0.950 . S
C1762 C1761 1.398 . S
C1762 C1763 1.391 . S
C1763 H1751 0.950 1_554 S
C1763 C1759 1.393 . S
C1763 C1762 1.391 . S
H1764 C1772 0.950 . S
H1765 C1777 0.950 . S
H1766 C1774 0.950 . S
H1767 C1776 0.950 . S
H1768 C1778 0.950 . S
H1769 C1780 0.950 . S
H1770 C1782 0.950 . S
H1771 C1783 0.950 . S
C1772 H1764 0.950 . S
C1772 C1773 1.386 . S
C1772 C1774 1.391 . S
C1773 C1772 1.386 . S
C1773 C1777 1.393 . S
C1774 H1766 0.950 . S
C1774 C1772 1.391 . S
C1774 C1775 1.400 . S
C1775 C1774 1.400 . S
C1775 C1776 1.398 . S
C1775 C1781 1.491 . S
C1776 H1767 0.950 . S
C1776 C1775 1.398 . S
C1776 C1777 1.391 . S
C1777 H1765 0.950 . S
C1777 C1773 1.393 . S
C1777 C1776 1.391 . S
C1778 H1768 0.950 . S
C1778 C1779 1.386 . S
C1778 C1780 1.391 . S
C1779 C1778 1.386 . S
C1779 C1783 1.393 . S
C1780 H1769 0.950 . S
C1780 C1778 1.391 . S
C1780 C1781 1.400 . S
C1781 C1775 1.491 . S
C1781 C1780 1.400 . S
C1781 C1782 1.398 . S
C1782 H1770 0.950 . S
C1782 C1781 1.398 . S
C1782 C1783 1.391 . S
C1783 H1771 0.950 . S
C1783 C1779 1.393 . S
C1783 C1782 1.391 . S
H1784 C1792 0.950 . S
H1785 C1797 0.950 . S
H1786 C1794 0.950 . S
H1787 C1796 0.950 . S
H1788 C1798 0.950 . S
H1789 C1800 0.950 . S
H1790 C1802 0.950 . S
H1791 C1803 0.950 . S
C1792 H1784 0.950 . S
C1792 C1793 1.386 . S
C1792 C1794 1.391 . S
C1793 C1792 1.386 . S
C1793 C1797 1.393 . S
C1794 H1786 0.950 . S
C1794 C1792 1.391 . S
C1794 C1795 1.400 . S
C1795 C1794 1.400 . S
C1795 C1796 1.398 . S
C1795 C1801 1.491 . S
C1796 H1787 0.950 . S
C1796 C1795 1.398 . S
C1796 C1797 1.391 . S
C1797 H1785 0.950 . S
C1797 C1793 1.393 . S
C1797 C1796 1.391 . S
C1798 H1788 0.950 . S
C1798 C1799 1.386 . S
C1798 C1800 1.391 . S
C1799 C1798 1.386 . S
C1799 C1803 1.393 . S
C1800 H1789 0.950 . S
C1800 C1798 1.391 . S
C1800 C1801 1.400 . S
C1801 C1795 1.491 . S
C1801 C1800 1.400 . S
C1801 C1802 1.398 . S
C1802 H1790 0.950 . S
C1802 C1801 1.398 . S
C1802 C1803 1.391 . S
C1803 H1791 0.950 . S
C1803 C1799 1.393 . S
C1803 C1802 1.391 . S
H1804 C1812 0.950 . S
H1805 C1817 0.950 . S
H1806 C1814 0.950 . S
H1807 C1816 0.950 . S
H1808 C1818 0.950 . S
H1809 C1820 0.950 . S
H1810 C1822 0.950 . S
H1811 C1823 0.950 . S
C1812 H1804 0.950 . S
C1812 C1813 1.386 . S
C1812 C1814 1.391 . S
C1813 C1812 1.386 . S
C1813 C1817 1.393 . S
C1814 H1806 0.950 . S
C1814 C1812 1.391 . S
C1814 C1815 1.400 . S
C1815 C1814 1.400 . S
C1815 C1816 1.398 . S
C1815 C1821 1.491 . S
C1816 H1807 0.950 . S
C1816 C1815 1.398 . S
C1816 C1817 1.391 . S
C1817 H1805 0.950 . S
C1817 C1813 1.393 . S
C1817 C1816 1.391 . S
C1818 H1808 0.950 . S
C1818 C1819 1.386 . S
C1818 C1820 1.391 . S
C1819 C1818 1.386 . S
C1819 C1823 1.393 . S
C1820 H1809 0.950 . S
C1820 C1818 1.391 . S
C1820 C1821 1.400 . S
C1821 C1815 1.491 . S
C1821 C1820 1.400 . S
C1821 C1822 1.398 . S
C1822 H1810 0.950 . S
C1822 C1821 1.398 . S
C1822 C1823 1.391 . S
C1823 H1811 0.950 . S
C1823 C1819 1.393 . S
C1823 C1822 1.391 . S
H1824 C1832 0.950 . S
H1825 C1837 0.950 . S
H1826 C1834 0.950 . S
H1827 C1836 0.983 . S
H1828 C1838 0.950 . S
H1829 C1840 0.950 . S
H1830 C1842 0.983 . S
H1831 C1843 0.950 . S
C1832 H1824 0.950 . S
C1832 C1833 1.386 . S
C1832 C1834 1.391 . S
C1833 C1832 1.386 . S
C1833 C1837 1.393 . S
C1834 H1826 0.950 . S
C1834 C1832 1.391 . S
C1834 C1835 1.400 . S
C1835 C1834 1.400 . S
C1835 C1836 1.398 . S
C1835 C1841 1.491 1_655 S
C1836 H1827 0.983 . S
C1836 C1835 1.398 . S
C1836 C1837 1.391 . S
C1837 H1825 0.950 . S
C1837 C1833 1.393 . S
C1837 C1836 1.391 . S
C1838 H1828 0.950 . S
C1838 C1839 1.386 . S
C1838 C1840 1.391 . S
C1839 C1838 1.386 . S
C1839 C1843 1.393 . S
C1840 H1829 0.950 . S
C1840 C1838 1.391 . S
C1840 C1841 1.400 . S
C1841 C1835 1.491 1_455 S
C1841 C1840 1.400 . S
C1841 C1842 1.398 . S
C1842 H1830 0.983 . S
C1842 C1841 1.398 . S
C1842 C1843 1.391 . S
C1843 H1831 0.950 . S
C1843 C1839 1.393 . S
C1843 C1842 1.391 . S
H1844 C1852 0.950 . S
H1845 C1857 0.950 . S
H1846 C1854 0.950 . S
H1847 C1856 0.950 . S
H1848 C1858 0.950 . S
H1849 C1860 0.950 . S
H1850 C1862 0.950 . S
H1851 C1863 0.950 . S
C1852 H1844 0.950 . S
C1852 C1853 1.386 . S
C1852 C1854 1.391 . S
C1853 C1852 1.386 . S
C1853 C1857 1.393 . S
C1854 H1846 0.950 . S
C1854 C1852 1.391 . S
C1854 C1855 1.400 . S
C1855 C1854 1.400 . S
C1855 C1856 1.398 . S
C1855 C1861 1.491 . S
C1856 H1847 0.950 . S
C1856 C1855 1.398 . S
C1856 C1857 1.391 . S
C1857 H1845 0.950 . S
C1857 C1853 1.393 . S
C1857 C1856 1.391 . S
C1858 H1848 0.950 . S
C1858 C1859 1.386 . S
C1858 C1860 1.391 . S
C1859 C1858 1.386 . S
C1859 C1863 1.393 . S
C1860 H1849 0.950 . S
C1860 C1858 1.391 . S
C1860 C1861 1.400 . S
C1861 C1855 1.491 . S
C1861 C1860 1.400 . S
C1861 C1862 1.398 . S
C1862 H1850 0.950 . S
C1862 C1861 1.398 . S
C1862 C1863 1.391 . S
C1863 H1851 0.950 . S
C1863 C1859 1.393 . S
C1863 C1862 1.391 . S
H1864 C1872 0.950 . S
H1865 C1877 0.950 . S
H1866 C1874 0.950 . S
H1867 C1876 0.976 . S
H1868 C1878 0.950 . S
H1869 C1880 0.950 . S
H1870 C1882 0.976 . S
H1871 C1883 0.950 . S
C1872 H1864 0.950 . S
C1872 C1873 1.386 . S
C1872 C1874 1.391 . S
C1873 C1872 1.386 . S
C1873 C1877 1.393 . S
C1874 H1866 0.950 . S
C1874 C1872 1.391 . S
C1874 C1875 1.400 . S
C1875 C1874 1.400 . S
C1875 C1876 1.398 . S
C1875 C1881 1.491 1_565 S
C1876 H1867 0.976 . S
C1876 C1875 1.398 . S
C1876 C1877 1.391 . S
C1877 H1865 0.950 . S
C1877 C1873 1.393 . S
C1877 C1876 1.391 . S
C1878 H1868 0.950 . S
C1878 C1879 1.386 . S
C1878 C1880 1.391 . S
C1879 C1878 1.386 . S
C1879 C1883 1.393 . S
C1880 H1869 0.950 . S
C1880 C1878 1.391 . S
C1880 C1881 1.400 . S
C1881 C1875 1.491 1_545 S
C1881 C1880 1.400 . S
C1881 C1882 1.398 . S
C1882 H1870 0.976 . S
C1882 C1881 1.398 . S
C1882 C1883 1.391 . S
C1883 H1871 0.950 . S
C1883 C1879 1.393 . S
C1883 C1882 1.391 . S
H1884 C1892 0.950 . S
H1885 C1897 0.950 . S
H1886 C1894 0.950 . S
H1887 C1896 0.950 . S
H1888 C1898 0.950 . S
H1889 C1900 0.950 . S
H1890 C1902 0.950 . S
H1891 C1903 0.950 . S
C1892 H1884 0.950 . S
C1892 C1893 1.386 . S
C1892 C1894 1.391 . S
C1893 C1892 1.386 . S
C1893 C1897 1.393 . S
C1894 H1886 0.950 . S
C1894 C1892 1.391 . S
C1894 C1895 1.400 . S
C1895 C1894 1.400 . S
C1895 C1896 1.398 . S
C1895 C1901 1.491 1_545 S
C1896 H1887 0.950 . S
C1896 C1895 1.398 . S
C1896 C1897 1.391 . S
C1897 H1885 0.950 . S
C1897 C1893 1.393 . S
C1897 C1896 1.391 . S
C1898 H1888 0.950 . S
C1898 C1899 1.386 . S
C1898 C1900 1.391 . S
C1899 C1898 1.386 . S
C1899 C1903 1.393 . S
C1900 H1889 0.950 . S
C1900 C1898 1.391 . S
C1900 C1901 1.400 . S
C1901 C1895 1.491 1_565 S
C1901 C1900 1.400 . S
C1901 C1902 1.398 . S
C1902 H1890 0.950 . S
C1902 C1901 1.398 . S
C1902 C1903 1.391 . S
C1903 H1891 0.950 . S
C1903 C1899 1.393 . S
C1903 C1902 1.391 . S
H1904 C1912 0.950 . S
H1905 C1917 0.950 . S
H1906 C1914 0.950 . S
H1907 C1916 0.950 . S
H1908 C1918 0.950 . S
H1909 C1920 0.950 . S
H1910 C1922 0.950 . S
H1911 C1923 0.950 . S
C1912 H1904 0.950 . S
C1912 C1913 1.386 . S
C1912 C1914 1.391 . S
C1913 C1912 1.386 . S
C1913 C1917 1.393 . S
C1914 H1906 0.950 . S
C1914 C1912 1.391 . S
C1914 C1915 1.400 . S
C1915 C1914 1.400 . S
C1915 C1916 1.398 . S
C1915 C1921 1.491 1_455 S
C1916 H1907 0.950 . S
C1916 C1915 1.398 . S
C1916 C1917 1.391 . S
C1917 H1905 0.950 . S
C1917 C1913 1.393 . S
C1917 C1916 1.391 . S
C1918 H1908 0.950 . S
C1918 C1919 1.386 . S
C1918 C1920 1.391 . S
C1919 C1918 1.386 . S
C1919 C1923 1.393 . S
C1920 H1909 0.950 . S
C1920 C1918 1.391 . S
C1920 C1921 1.400 . S
C1921 C1915 1.491 1_655 S
C1921 C1920 1.400 . S
C1921 C1922 1.398 . S
C1922 H1910 0.950 . S
C1922 C1921 1.398 . S
C1922 C1923 1.391 . S
C1923 H1911 0.950 . S
C1923 C1919 1.393 . S
C1923 C1922 1.391 . S
H1924 C1932 0.950 . S
H1925 C1937 0.950 . S
H1926 C1934 0.950 . S
H1927 C1936 0.950 . S
H1928 C1938 0.950 . S
H1929 C1940 0.950 . S
H1930 C1942 0.950 . S
H1931 C1943 0.950 . S
C1932 H1924 0.950 . S
C1932 C1933 1.386 . S
C1932 C1934 1.391 . S
C1933 C1932 1.386 . S
C1933 C1937 1.393 . S
C1934 H1926 0.950 . S
C1934 C1932 1.391 . S
C1934 C1935 1.400 . S
C1935 C1934 1.400 . S
C1935 C1936 1.398 . S
C1935 C1941 1.491 . S
C1936 H1927 0.950 . S
C1936 C1935 1.398 . S
C1936 C1937 1.391 . S
C1937 H1925 0.950 . S
C1937 C1933 1.393 . S
C1937 C1936 1.391 . S
C1938 H1928 0.950 . S
C1938 C1939 1.386 . S
C1938 C1940 1.391 . S
C1939 C1938 1.386 . S
C1939 C1943 1.393 . S
C1940 H1929 0.950 . S
C1940 C1938 1.391 . S
C1940 C1941 1.400 . S
C1941 C1935 1.491 . S
C1941 C1940 1.400 . S
C1941 C1942 1.398 . S
C1942 H1930 0.950 . S
C1942 C1941 1.398 . S
C1942 C1943 1.391 . S
C1943 H1931 0.950 . S
C1943 C1939 1.393 . S
C1943 C1942 1.391 . S
C513 C78 1.185 . S
C519 C8 1.184 . S
C533 C22 1.185 . S
C539 C50 1.184 . S
C553 C64 1.195 . S
C559 C36 1.191 . S
C573 C92 1.200 . S
C579 C162 1.199 . S
C593 C106 1.197 . S
C599 C134 1.194 . S
C613 C148 1.185 . S
C619 C120 1.184 . S
C633 C246 1.196 . S
C639 C176 1.198 . S
C653 C190 1.201 . S
C659 C218 1.201 . S
C673 C232 1.200 . S
C679 C204 1.201 . S
C693 C260 1.201 . S
C699 C330 1.202 . S
C713 C274 1.191 . S
C719 C302 1.194 . S
C733 C288 1.199 . S
C739 C316 1.196 . S
C753 C344 1.197 . S
C759 C414 1.195 . S
C773 C386 1.197 . S
C779 C358 1.200 . S
C793 C372 1.184 . S
C799 C400 1.185 . S
C813 C428 1.198 . S
C819 C498 1.195 . S
C833 C442 1.190 . S
C839 C470 1.188 . S
C853 C456 1.201 . S
C859 C484 1.199 . S
C873 C147 1.249 . S
C879 C9 1.247 . S
C893 C161 1.278 . S
C899 C23 1.239 . S
C913 C133 1.261 . S
C919 C37 1.231 . S
C933 C119 1.262 . S
C939 C51 1.231 . S
C953 C65 1.258 . S
C959 C91 1.272 . S
C973 C79 1.251 . S
C979 C105 1.276 . S
C993 C93 1.257 . S
C999 C63 1.273 . S
C1013 C107 1.247 . S
C1019 C77 1.249 . S
C1033 C121 1.231 . S
C1039 C49 1.260 . S
C1053 C35 1.275 . S
C1059 C135 1.254 . S
C1073 C7 1.259 . S
C1079 C149 1.232 . S
C1093 C163 1.231 . S
C1099 C21 1.261 . S
C1113 C177 1.233 . S
C1119 C315 1.275 1_554 S
C1133 C191 1.252 . S
C1139 C329 1.248 1_554 S
C1153 C301 1.266 1_554 S
C1159 C205 1.230 . S
C1173 C219 1.264 . S
C1179 C287 1.255 . S
C1193 C233 1.252 . S
C1199 C259 1.276 . S
C1213 C247 1.231 . S
C1219 C273 1.261 . S
C1233 C261 1.248 . S
C1239 C231 1.278 . S
C1253 C245 1.278 . S
C1259 C275 1.248 . S
C1273 C217 1.276 . S
C1279 C289 1.251 . S
C1293 C303 1.244 . S
C1299 C203 1.250 . S
C1313 C175 1.274 . S
C1319 C317 1.256 . S
C1333 C189 1.252 . S
C1339 C331 1.239 . S
C1353 C483 1.264 . S
C1359 C345 1.264 . S
C1373 C359 1.246 . S
C1379 C497 1.278 . S
C1393 C373 1.230 . S
C1399 C469 1.266 . S
C1413 C455 1.271 . S
C1419 C387 1.230 . S
C1433 C427 1.249 . S
C1439 C401 1.256 . S
C1453 C441 1.250 . S
C1459 C415 1.258 . S
C1473 C429 1.251 . S
C1479 C399 1.277 1_556 S
C1493 C413 1.276 1_556 S
C1499 C443 1.235 . S
C1513 C457 1.254 . S
C1519 C385 1.275 1_556 S
C1533 C371 1.277 . S
C1539 C471 1.250 . S
C1553 C343 1.252 . S
C1559 C485 1.261 . S
C1573 C357 1.276 . S
C1579 C499 1.253 . S
C1593 C227 1.356 . S
C1599 C3 1.360 1_556 S
C1613 C17 1.363 1_556 S
C1619 C241 1.363 . S
C1633 C213 1.366 . S
C1639 C31 1.353 1_556 S
C1653 C367 1.367 . S
C1659 C45 1.359 . S
C1673 C59 1.363 . S
C1679 C339 1.354 . S
C1693 C73 1.354 . S
C1699 C353 1.362 . S
C1713 C87 1.366 1_554 S
C1719 C479 1.353 . S
C1733 C493 1.364 . S
C1739 C101 1.353 1_554 S
C1753 C465 1.364 . S
C1759 C115 1.363 1_554 S
C1773 C283 1.353 . S
C1779 C129 1.367 . S
C1793 C143 1.361 . S
C1799 C255 1.355 . S
C1813 C157 1.356 . S
C1819 C269 1.368 . S
C1833 C171 1.354 . S
C1839 C395 1.368 . S
C1853 C409 1.362 . S
C1859 C185 1.364 . S
C1873 C381 1.354 . S
C1879 C199 1.368 . S
C1893 C297 1.353 . S
C1899 C451 1.364 . S
C1913 C423 1.366 . S
C1919 C311 1.353 . S
C1933 C437 1.355 . S
C1939 C325 1.361 . S
