# Generated by pormake.
# Topology umc, (4)-cn, num edge types: 1
# Building blocks:
#     Node 0, Type 0, BuildingBlock: ESEHIV_clean_sbu_0, # of connection points: 4
#     Node 1, Type 0, BuildingBlock: ESEHIV_clean_sbu_0, # of connection points: 4
#     Node 2, Type 0, BuildingBlock: ESEHIV_clean_sbu_0, # of connection points: 4
#     Node 3, Type 0, BuildingBlock: ESEHIV_clean_sbu_0, # of connection points: 4
#     Node 4, Type 0, BuildingBlock: ESEHIV_clean_sbu_0, # of connection points: 4
#     Node 5, Type 0, BuildingBlock: ESEHIV_clean_sbu_0, # of connection points: 4
#     Node 6, Type 0, BuildingBlock: ESEHIV_clean_sbu_0, # of connection points: 4
#     Node 7, Type 0, BuildingBlock: ESEHIV_clean_sbu_0, # of connection points: 4
#     Node 8, Type 0, BuildingBlock: ESEHIV_clean_sbu_0, # of connection points: 4
#     Node 9, Type 0, BuildingBlock: ESEHIV_clean_sbu_0, # of connection points: 4
#     Node 10, Type 0, BuildingBlock: ESEHIV_clean_sbu_0, # of connection points: 4
#     Node 11, Type 0, BuildingBlock: ESEHIV_clean_sbu_0, # of connection points: 4
#     Node 12, Type 0, BuildingBlock: ESEHIV_clean_sbu_0, # of connection points: 4
#     Node 13, Type 0, BuildingBlock: ESEHIV_clean_sbu_0, # of connection points: 4
#     Node 14, Type 0, BuildingBlock: ESEHIV_clean_sbu_0, # of connection points: 4
#     Node 15, Type 0, BuildingBlock: ESEHIV_clean_sbu_0, # of connection points: 4
#     Edge 16, Type (0, 0), None
#     Edge 17, Type (0, 0), None
#     Edge 18, Type (0, 0), None
#     Edge 19, Type (0, 0), None
#     Edge 20, Type (0, 0), None
#     Edge 21, Type (0, 0), None
#     Edge 22, Type (0, 0), None
#     Edge 23, Type (0, 0), None
#     Edge 24, Type (0, 0), None
#     Edge 25, Type (0, 0), None
#     Edge 26, Type (0, 0), None
#     Edge 27, Type (0, 0), None
#     Edge 28, Type (0, 0), None
#     Edge 29, Type (0, 0), None
#     Edge 30, Type (0, 0), None
#     Edge 31, Type (0, 0), None
#     Edge 32, Type (0, 0), None
#     Edge 33, Type (0, 0), None
#     Edge 34, Type (0, 0), None
#     Edge 35, Type (0, 0), None
#     Edge 36, Type (0, 0), None
#     Edge 37, Type (0, 0), None
#     Edge 38, Type (0, 0), None
#     Edge 39, Type (0, 0), None
#     Edge 40, Type (0, 0), None
#     Edge 41, Type (0, 0), None
#     Edge 42, Type (0, 0), None
#     Edge 43, Type (0, 0), None
#     Edge 44, Type (0, 0), None
#     Edge 45, Type (0, 0), None
#     Edge 46, Type (0, 0), None
#     Edge 47, Type (0, 0), None
# Relax obj value: 0.036
# Max RMSD: 0.096
# Mean RMSD: 0.096
data_MOF--net-umc--node1-ESEHIV_clean_sbu_0--edge1-none
_symmetry_space_group_name_H-M    P1
_symmetry_Int_Tables_number       1
_symmetry_cell_setting            triclinic
loop_
_symmetry_equiv_pos_as_xyz
'x, y, z'
_cell_length_a     27.189713
_cell_length_b     19.075781
_cell_length_c     25.285838
_cell_angle_alpha  89.901776
_cell_angle_beta   89.994302
_cell_angle_gamma 89.998798
loop_
_atom_site_label
_atom_site_type_symbol
_atom_site_fract_x
_atom_site_fract_y
_atom_site_fract_z
_atom_type_partial_charge
Cu0 Cu 0.45811 -0.01422 0.38938 0.0
N1 N 0.52591 0.00349 0.38607 0.0
N2 N 0.60588 -0.02404 0.38393 0.0
C3 C 0.5595 0.95136 0.38723 0.0
C4 C 0.60168 0.04632 0.38045 0.0
C5 C 0.5521 0.06319 0.38159 0.0
O6 O 0.44333 0.93625 0.32479 0.0
C7 C 0.40928 0.9194 0.47762 0.0
O8 O 0.36765 0.92663 0.45198 0.0
H9 H 0.54989 0.8965 0.39055 0.0
H10 H 0.5365 0.11515 0.37889 0.0
N11 N 0.41553 0.06352 0.3919 0.0
N12 N 0.38055 0.16915 0.39703 0.0
C13 C 0.42309 0.1325 0.40052 0.0
C14 C 0.36689 0.05751 0.38235 0.0
C15 C 0.34515 0.1224 0.38572 0.0
C16 C 0.44243 -0.02703 0.2826 0.0
O17 O 0.44849 0.04115 0.28544 0.0
H18 H 0.45869 0.15544 0.4083 0.0
H19 H 0.34865 0.00913 0.37188 0.0
O20 O 0.44971 0.93326 0.45456 0.0
H21 H 0.63196 0.0828 0.37682 0.0
H22 H 0.30697 0.13466 0.37797 0.0
Cu23 Cu 0.79755 0.92618 0.3894 0.0
N24 N 0.72975 0.90844 0.38608 0.0
N25 N 0.64979 0.93597 0.38393 0.0
C26 C 0.69616 -0.03944 0.38727 0.0
C27 C 0.65399 0.86563 0.3804 0.0
C28 C 0.70357 0.84876 0.38154 0.0
O29 O 0.81236 -0.02422 0.32471 0.0
C30 C 0.84619 -0.0074 0.4776 0.0
O31 O 0.8879 -0.01459 0.45211 0.0
H32 H 0.70576 0.0154 0.39063 0.0
H33 H 0.71917 0.79682 0.37879 0.0
N34 N 0.84016 0.84847 0.39211 0.0
N35 N 0.87512 0.74279 0.39714 0.0
C36 C 0.83257 0.77942 0.40053 0.0
C37 C 0.88883 0.85456 0.38277 0.0
C38 C 0.91056 0.78964 0.38609 0.0
C39 C 0.81328 0.9391 0.28259 0.0
O40 O 0.80724 0.87091 0.28558 0.0
H41 H 0.79693 0.75639 0.40806 0.0
H42 H 0.90711 0.90301 0.37242 0.0
O43 O 0.80583 -0.02133 0.45447 0.0
H44 H 0.62372 0.82917 0.37672 0.0
H45 H 0.94877 0.77744 0.37845 0.0
Cu46 Cu 0.45808 0.92627 0.124 0.0
N47 N 0.52588 0.90858 0.12727 0.0
N48 N 0.60585 0.93612 0.12939 0.0
C49 C 0.55947 -0.03928 0.12619 0.0
C50 C 0.60166 0.86574 0.13273 0.0
C51 C 0.55208 0.84887 0.1316 0.0
O52 O 0.44331 -0.02418 0.18859 0.0
C53 C 0.4092 -0.00751 0.03575 0.0
O54 O 0.36757 -0.01491 0.06138 0.0
H55 H 0.54985 0.01559 0.12298 0.0
H56 H 0.53649 0.79689 0.1342 0.0
N57 N 0.41551 0.84853 0.12153 0.0
N58 N 0.38052 0.7429 0.11637 0.0
C59 C 0.42305 0.77957 0.11279 0.0
C60 C 0.36689 0.85451 0.13124 0.0
C61 C 0.34514 0.78962 0.12786 0.0
C62 C 0.44243 0.9391 0.23079 0.0
O63 O 0.44852 0.87092 0.22795 0.0
H64 H 0.45863 0.75665 0.10486 0.0
H65 H 0.34866 0.90286 0.14182 0.0
O66 O 0.44964 -0.02123 0.05883 0.0
H67 H 0.63195 0.82925 0.13625 0.0
H68 H 0.30698 0.77734 0.13569 0.0
Cu69 Cu 0.79752 -0.01404 0.12393 0.0
N70 N 0.72972 0.00366 0.12725 0.0
N71 N 0.64975 -0.02388 0.12941 0.0
C72 C 0.69612 0.95155 0.12601 0.0
C73 C 0.65395 0.04645 0.13304 0.0
C74 C 0.70353 0.06333 0.13189 0.0
O75 O 0.81233 0.93634 0.1886 0.0
C76 C 0.84621 0.91968 0.03569 0.0
O77 O 0.88791 0.92695 0.06119 0.0
H78 H 0.70573 0.89671 0.12258 0.0
H79 H 0.71913 0.11526 0.13471 0.0
N80 N 0.8401 0.06369 0.12125 0.0
N81 N 0.87506 0.16937 0.11622 0.0
C82 C 0.83252 0.13274 0.11279 0.0
C83 C 0.88877 0.05761 0.13064 0.0
C84 C 0.9105 0.12252 0.12733 0.0
C85 C 0.81326 -0.02698 0.23072 0.0
O86 O 0.8072 0.0412 0.22775 0.0
H87 H 0.79689 0.15576 0.10522 0.0
H88 H 0.90704 0.00917 0.14102 0.0
O89 O 0.80584 0.93351 0.05883 0.0
H90 H 0.62367 0.08289 0.13679 0.0
H91 H 0.9487 0.13473 0.135 0.0
Cu92 Cu 0.79727 0.92632 0.62396 0.0
N93 N 0.72946 0.90861 0.62726 0.0
N94 N 0.6495 0.93613 0.62939 0.0
C95 C 0.69587 -0.03926 0.62613 0.0
C96 C 0.65369 0.86577 0.63282 0.0
C97 C 0.70328 0.8489 0.63168 0.0
O98 O 0.81204 -0.02414 0.68854 0.0
C99 C 0.84611 -0.00733 0.53572 0.0
O100 O 0.88776 -0.01463 0.56133 0.0
H101 H 0.70548 0.0156 0.62285 0.0
H102 H 0.71887 0.79693 0.63434 0.0
N103 N 0.83984 0.84858 0.62146 0.0
N104 N 0.87483 0.74294 0.61632 0.0
C105 C 0.83229 0.7796 0.61281 0.0
C106 C 0.88848 0.85458 0.63104 0.0
C107 C 0.91022 0.78969 0.62767 0.0
C108 C 0.81293 0.93915 0.73074 0.0
O109 O 0.80687 0.87097 0.72791 0.0
H110 H 0.7967 0.75666 0.60499 0.0
H111 H 0.90672 0.90295 0.64154 0.0
O112 O 0.80568 -0.02117 0.55878 0.0
H113 H 0.62342 0.82928 0.63641 0.0
H114 H 0.9484 0.77743 0.63544 0.0
Cu115 Cu 0.45783 -0.01409 0.62393 0.0
N116 N 0.52562 0.00365 0.62725 0.0
N117 N 0.60559 -0.02388 0.6294 0.0
C118 C 0.55922 0.95154 0.62603 0.0
C119 C 0.60138 0.04646 0.63299 0.0
C120 C 0.5518 0.06332 0.63184 0.0
O121 O 0.44301 0.93633 0.68862 0.0
C122 C 0.4092 0.91941 0.53574 0.0
O123 O 0.36747 0.92658 0.56121 0.0
H124 H 0.54962 0.8967 0.62264 0.0
H125 H 0.5362 0.11526 0.63464 0.0
N126 N 0.41522 0.06362 0.6212 0.0
N127 N 0.38026 0.16931 0.61618 0.0
C128 C 0.42282 0.13268 0.61281 0.0
C129 C 0.36653 0.05753 0.63048 0.0
C130 C 0.34481 0.12245 0.62717 0.0
C131 C 0.44207 -0.02698 0.73074 0.0
O132 O 0.44811 0.04121 0.72775 0.0
H133 H 0.45846 0.15571 0.60533 0.0
H134 H 0.34825 0.00907 0.6408 0.0
O135 O 0.44955 0.93339 0.55887 0.0
H136 H 0.63166 0.08291 0.63671 0.0
H137 H 0.30659 0.13464 0.63478 0.0
Cu138 Cu 0.79727 -0.01412 0.88933 0.0
N139 N 0.72947 0.00357 0.88606 0.0
N140 N 0.6495 -0.02396 0.88395 0.0
C141 C 0.69588 0.95144 0.88716 0.0
C142 C 0.65369 0.04641 0.88058 0.0
C143 C 0.70327 0.06328 0.88171 0.0
O144 O 0.81204 0.93633 0.82475 0.0
C145 C 0.84616 0.91965 0.97757 0.0
O146 O 0.8878 0.92707 0.95197 0.0
H147 H 0.7055 0.89657 0.89039 0.0
H148 H 0.71886 0.11526 0.8791 0.0
N149 N 0.83984 0.06363 0.8918 0.0
N150 N 0.87483 0.16926 0.89697 0.0
C151 C 0.8323 0.13258 0.90054 0.0
C152 C 0.88846 0.05765 0.88209 0.0
C153 C 0.91021 0.12253 0.88548 0.0
C154 C 0.81292 -0.02696 0.78254 0.0
O155 O 0.80684 0.04121 0.78537 0.0
H156 H 0.79672 0.1555 0.90848 0.0
H157 H 0.90669 0.00929 0.87151 0.0
O158 O 0.80572 0.93338 0.95451 0.0
H159 H 0.62341 0.0829 0.87705 0.0
H160 H 0.94837 0.13482 0.87764 0.0
Cu161 Cu 0.45783 0.9262 0.88941 0.0
N162 N 0.52563 0.90849 0.88609 0.0
N163 N 0.6056 0.93604 0.88394 0.0
C164 C 0.55923 -0.03939 0.88732 0.0
C165 C 0.6014 0.8657 0.88032 0.0
C166 C 0.55182 0.84883 0.88147 0.0
O167 O 0.44302 -0.0242 0.82473 0.0
C168 C 0.40913 -0.00749 0.97763 0.0
O169 O 0.36742 -0.01477 0.95216 0.0
H170 H 0.54962 0.01545 0.89074 0.0
H171 H 0.53622 0.79689 0.87866 0.0
N172 N 0.41525 0.84847 0.8921 0.0
N173 N 0.38029 0.74278 0.89713 0.0
C174 C 0.42283 0.77941 0.90055 0.0
C175 C 0.36658 0.85454 0.88272 0.0
C176 C 0.34485 0.78963 0.88603 0.0
C177 C 0.44209 0.93912 0.78262 0.0
O178 O 0.44815 0.87093 0.78559 0.0
H179 H 0.45846 0.75639 0.90811 0.0
H180 H 0.34831 0.90299 0.87234 0.0
O181 O 0.4495 -0.02134 0.9545 0.0
H182 H 0.63168 0.82926 0.87659 0.0
H183 H 0.30665 0.77743 0.87837 0.0
Cu184 Cu 0.95808 0.48585 0.38934 0.0
N185 N 1.02588 0.50352 0.38601 0.0
N186 N 1.10584 0.47597 0.38386 0.0
C187 C 1.05947 0.4514 0.38738 0.0
C188 C 1.10164 0.5463 0.38 0.0
C189 C 1.05206 0.56318 0.38114 0.0
O190 O 0.94327 0.43628 0.32478 0.0
C191 C 0.90923 0.41964 0.47764 0.0
O192 O 0.86759 0.42697 0.45202 0.0
H193 H 1.04986 0.39657 0.39097 0.0
H194 H 1.03645 0.61511 0.37814 0.0
N195 N 0.91554 0.56362 0.39182 0.0
N196 N 0.88061 0.66929 0.39691 0.0
C197 C 0.92313 0.63259 0.40047 0.0
C198 C 0.8669 0.55767 0.38222 0.0
C199 C 0.84519 0.62257 0.38558 0.0
C200 C 0.94239 0.47298 0.28257 0.0
O201 O 0.94848 0.54116 0.28539 0.0
H202 H 0.95873 0.65548 0.40834 0.0
H203 H 0.84863 0.5093 0.37174 0.0
O204 O 0.94966 0.4334 0.45455 0.0
H205 H 0.13191 0.58273 0.37608 0.0
H206 H 0.807 0.63487 0.37786 0.0
Cu207 Cu 0.29751 0.42608 0.38938 0.0
N208 N 0.2297 0.40839 0.38607 0.0
N209 N 0.14974 0.43596 0.38392 0.0
C210 C 0.19613 0.46055 0.38703 0.0
C211 C 0.15391 0.36558 0.38078 0.0
C212 C 0.20349 0.34869 0.38193 0.0
O213 O 0.31233 0.47572 0.32471 0.0
C214 C 0.34622 0.49235 0.47759 0.0
O215 O 0.38792 0.48508 0.45207 0.0
H216 H 0.20575 0.51541 0.3901 0.0
H217 H 0.21906 0.2967 0.3795 0.0
N218 N 0.3401 0.34834 0.39202 0.0
N219 N 0.37505 0.24265 0.39701 0.0
C220 C 0.33251 0.27929 0.40051 0.0
C221 C 0.38876 0.3544 0.38259 0.0
C222 C 0.41049 0.28948 0.3859 0.0
C223 C 0.31327 0.43906 0.28258 0.0
O224 O 0.30721 0.37087 0.28554 0.0
H225 H 0.2969 0.25629 0.40817 0.0
H226 H 0.40703 0.40284 0.37221 0.0
O227 O 0.30585 0.47851 0.45447 0.0
H228 H 1.12362 0.3291 0.3774 0.0
H229 H 0.4487 0.27727 0.37825 0.0
Cu230 Cu 0.9581 0.42626 0.12399 0.0
N231 N 1.0259 0.40857 0.12729 0.0
N232 N 1.10587 0.43612 0.12943 0.0
C233 C 1.05948 0.46073 0.12634 0.0
C234 C 1.10169 0.36573 0.13257 0.0
C235 C 1.05211 0.34885 0.13143 0.0
O236 O 0.9433 0.4758 0.18857 0.0
C237 C 0.90927 0.49264 0.03575 0.0
O238 O 0.86763 0.48539 0.0614 0.0
H239 H 1.04986 0.51561 0.12326 0.0
H240 H 1.03654 0.29685 0.13385 0.0
N241 N 0.91552 0.34852 0.12149 0.0
N242 N 0.88057 0.24287 0.11641 0.0
C243 C 0.92309 0.27954 0.11285 0.0
C244 C 0.86688 0.3545 0.13107 0.0
C245 C 0.84515 0.28961 0.12771 0.0
C246 C 0.94239 0.43909 0.23077 0.0
O247 O 0.94845 0.37091 0.22795 0.0
H248 H 0.95868 0.25661 0.105 0.0
H249 H 0.84863 0.40288 0.14154 0.0
O250 O 0.94969 0.47876 0.05881 0.0
H251 H 0.13198 0.32923 0.13594 0.0
H252 H 0.80696 0.27734 0.13542 0.0
Cu253 Cu 0.29753 0.48595 0.12393 0.0
N254 N 0.22973 0.50368 0.1273 0.0
N255 N 0.14977 0.47612 0.12948 0.0
C256 C 0.19613 0.45157 0.12591 0.0
C257 C 0.15397 0.54643 0.13337 0.0
C258 C 0.20355 0.56331 0.13221 0.0
O259 O 0.31236 0.43633 0.18859 0.0
C260 C 0.34615 0.41953 0.03569 0.0
O261 O 0.38786 0.42664 0.06119 0.0
H262 H 0.20574 0.39676 0.12229 0.0
H263 H 0.21916 0.61522 0.13524 0.0
N264 N 0.34011 0.56369 0.12122 0.0
N265 N 0.37502 0.6694 0.11628 0.0
C266 C 0.33248 0.63276 0.11289 0.0
C267 C 0.3888 0.55761 0.13046 0.0
C268 C 0.41051 0.62254 0.12717 0.0
C269 C 0.31329 0.473 0.23072 0.0
O270 O 0.30724 0.54119 0.22775 0.0
H271 H 0.29684 0.65577 0.10541 0.0
H272 H 0.40711 0.50915 0.14071 0.0
O273 O 0.3058 0.43351 0.05883 0.0
H274 H 1.12371 0.58285 0.13734 0.0
H275 H 0.44874 0.63474 0.1347 0.0
Cu276 Cu 0.29731 0.42625 0.624 0.0
N277 N 0.22951 0.40858 0.62733 0.0
N278 N 0.14954 0.43613 0.62947 0.0
C279 C 0.19591 0.46069 0.62595 0.0
C280 C 0.15374 0.3658 0.63333 0.0
C281 C 0.20333 0.34892 0.63219 0.0
O282 O 0.3121 0.47583 0.68856 0.0
C283 C 0.34617 0.49243 0.53571 0.0
O284 O 0.38782 0.48504 0.5613 0.0
H285 H 0.20552 0.51553 0.62236 0.0
H286 H 0.21894 0.29699 0.6352 0.0
N287 N 0.33985 0.34847 0.62154 0.0
N288 N 0.37477 0.2428 0.61644 0.0
C289 C 0.33226 0.27951 0.61286 0.0
C290 C 0.38848 0.35442 0.63118 0.0
C291 C 0.41019 0.28951 0.62781 0.0
C292 C 0.31297 0.43914 0.73077 0.0
O293 O 0.30688 0.37097 0.72795 0.0
H294 H 0.29666 0.25663 0.60495 0.0
H295 H 0.40674 0.40278 0.64168 0.0
O296 O 0.30574 0.4787 0.5588 0.0
H297 H 1.12347 0.32937 0.63725 0.0
H298 H 0.44837 0.27721 0.63555 0.0
Cu299 Cu 0.95787 0.48602 0.62395 0.0
N300 N 1.02568 0.5037 0.62726 0.0
N301 N 1.10564 0.47614 0.62941 0.0
C302 C 1.05926 0.45155 0.62631 0.0
C303 C 1.10147 0.54651 0.63255 0.0
C304 C 1.05189 0.56341 0.6314 0.0
O305 O 0.94304 0.4364 0.68862 0.0
C306 C 0.90918 0.41966 0.53576 0.0
O307 O 0.86747 0.42691 0.56125 0.0
H308 H 1.04963 0.39668 0.62323 0.0
H309 H 1.03632 0.61539 0.63383 0.0
N310 N 0.91528 0.56376 0.62129 0.0
N311 N 0.88033 0.66945 0.61631 0.0
C312 C 0.92287 0.63281 0.61284 0.0
C313 C 0.86661 0.55769 0.63067 0.0
C314 C 0.84488 0.6226 0.62737 0.0
C315 C 0.9421 0.47307 0.73075 0.0
O316 O 0.94815 0.54125 0.72778 0.0
H317 H 0.95849 0.65582 0.60522 0.0
H318 H 0.84833 0.50924 0.64102 0.0
O319 O 0.94955 0.43356 0.55887 0.0
H320 H 0.13176 0.583 0.63592 0.0
H321 H 0.80667 0.63481 0.63499 0.0
Cu322 Cu 0.29726 0.48589 0.88935 0.0
N323 N 0.22945 0.50358 0.88604 0.0
N324 N 0.14949 0.47603 0.88391 0.0
C325 C 0.19587 0.45142 0.88702 0.0
C326 C 0.15366 0.54642 0.88074 0.0
C327 C 0.20324 0.5633 0.88188 0.0
O328 O 0.31206 0.43634 0.82477 0.0
C329 C 0.34609 0.4195 0.97757 0.0
O330 O 0.38774 0.42677 0.95196 0.0
H331 H 0.20549 0.39654 0.89011 0.0
H332 H 0.21882 0.61529 0.87943 0.0
N333 N 0.33983 0.56364 0.89184 0.0
N334 N 0.37478 0.66929 0.89693 0.0
C335 C 0.33226 0.63261 0.90048 0.0
C336 C 0.38847 0.55765 0.88227 0.0
C337 C 0.4102 0.62255 0.88563 0.0
C338 C 0.31297 0.47304 0.78256 0.0
O339 O 0.30692 0.54122 0.78538 0.0
H340 H 0.29667 0.65554 0.90834 0.0
H341 H 0.40673 0.50927 0.8718 0.0
O342 O 0.30566 0.43338 0.95452 0.0
H343 H 1.12337 0.58292 0.87735 0.0
H344 H 0.44839 0.63482 0.87791 0.0
Cu345 Cu 0.95783 0.4262 0.88941 0.0
N346 N 1.02562 0.40848 0.88605 0.0
N347 N 1.10559 0.43603 0.88387 0.0
C348 C 1.05922 0.46058 0.88742 0.0
C349 C 1.10138 0.36572 0.88 0.0
C350 C 1.0518 0.34884 0.88116 0.0
O351 O 0.94299 0.47581 0.82474 0.0
C352 C 0.9092 0.49266 0.97763 0.0
O353 O 0.86747 0.48553 0.95216 0.0
H354 H 1.04961 0.5154 0.89102 0.0
H355 H 1.03619 0.29693 0.87815 0.0
N356 N 0.91524 0.34846 0.89212 0.0
N357 N 0.88032 0.24275 0.89706 0.0
C358 C 0.92287 0.2794 0.90045 0.0
C359 C 0.86655 0.35454 0.8829 0.0
C360 C 0.84484 0.28961 0.88618 0.0
C361 C 0.94207 0.43913 0.78262 0.0
O362 O 0.94812 0.37095 0.78559 0.0
H363 H 0.95851 0.25638 0.90791 0.0
H364 H 0.84824 0.40301 0.87266 0.0
O365 O 0.94955 0.47866 0.9545 0.0
H366 H 0.13165 0.3293 0.87605 0.0
H367 H 0.80661 0.27742 0.87865 0.0
loop_
_geom_bond_atom_site_label_1
_geom_bond_atom_site_label_2
_geom_bond_distance
_geom_bond_site_symmetry_2
_ccdc_geom_bond_type
Cu0 N1 1.999 . S
Cu0 O6 1.974 . S
Cu0 N11 1.985 . S
Cu0 O20 1.959 . S
N1 Cu0 1.999 . S
N1 C3 1.263 . S
N1 C5 1.389 . S
N2 C3 1.358 . S
N2 C4 1.400 . S
C3 N1 1.263 . S
C3 N2 1.358 . S
C3 H9 0.930 . S
C4 N2 1.400 . S
C4 C5 1.351 . S
C4 H21 0.930 . S
C5 N1 1.389 . S
C5 C4 1.351 . S
C5 H10 0.930 . S
O6 Cu0 1.974 . S
O6 C16 1.282 . S
C7 O8 1.261 . S
C7 O20 1.251 . S
O8 C7 1.261 . S
H9 C3 0.930 . S
H10 C5 0.930 . S
N11 Cu0 1.985 . S
N11 C13 1.335 . S
N11 C14 1.390 . S
N12 C13 1.345 . S
N12 C15 1.336 . S
C13 N11 1.335 . S
C13 N12 1.345 . S
C13 H18 0.930 . S
C14 N11 1.390 . S
C14 C15 1.346 . S
C14 H19 0.930 . S
C15 N12 1.336 . S
C15 C14 1.346 . S
C15 H22 0.929 . S
C16 O6 1.282 . S
C16 O17 1.216 1_545 S
O17 C16 1.216 1_565 S
H18 C13 0.930 . S
H19 C14 0.930 . S
O20 Cu0 1.959 . S
O20 C7 1.251 . S
H21 C4 0.930 . S
H22 C15 0.929 . S
Cu23 N24 1.999 . S
Cu23 O29 1.974 . S
Cu23 N34 1.985 . S
Cu23 O43 1.959 . S
N24 Cu23 1.999 . S
N24 C26 1.263 . S
N24 C28 1.389 . S
N25 C26 1.358 . S
N25 C27 1.400 . S
C26 N24 1.263 . S
C26 N25 1.358 . S
C26 H32 0.930 . S
C27 N25 1.400 . S
C27 C28 1.351 . S
C27 H44 0.930 . S
C28 N24 1.389 . S
C28 C27 1.351 . S
C28 H33 0.930 . S
O29 Cu23 1.974 . S
O29 C39 1.282 . S
C30 O31 1.261 . S
C30 O43 1.251 . S
O31 C30 1.261 . S
H32 C26 0.930 . S
H33 C28 0.930 . S
N34 Cu23 1.985 . S
N34 C36 1.335 . S
N34 C37 1.390 . S
N35 C36 1.345 . S
N35 C38 1.336 . S
C36 N34 1.335 . S
C36 N35 1.345 . S
C36 H41 0.930 . S
C37 N34 1.390 . S
C37 C38 1.346 . S
C37 H42 0.930 . S
C38 N35 1.336 . S
C38 C37 1.346 . S
C38 H45 0.929 . S
C39 O29 1.282 . S
C39 O40 1.216 1_565 S
O40 C39 1.216 1_545 S
H41 C36 0.930 . S
H42 C37 0.930 . S
O43 Cu23 1.959 . S
O43 C30 1.251 . S
H44 C27 0.930 . S
H45 C38 0.929 . S
Cu46 N47 1.999 . S
Cu46 O52 1.974 . S
Cu46 N57 1.985 . S
Cu46 O66 1.959 . S
N47 Cu46 1.999 . S
N47 C49 1.263 . S
N47 C51 1.389 . S
N48 C49 1.358 . S
N48 C50 1.400 . S
C49 N47 1.263 . S
C49 N48 1.358 . S
C49 H55 0.930 . S
C50 N48 1.400 . S
C50 C51 1.351 . S
C50 H67 0.930 . S
C51 N47 1.389 . S
C51 C50 1.351 . S
C51 H56 0.930 . S
O52 Cu46 1.974 . S
O52 C62 1.282 . S
C53 O54 1.261 . S
C53 O66 1.251 . S
O54 C53 1.261 . S
H55 C49 0.930 . S
H56 C51 0.930 . S
N57 Cu46 1.985 . S
N57 C59 1.335 . S
N57 C60 1.390 . S
N58 C59 1.345 . S
N58 C61 1.336 . S
C59 N57 1.335 . S
C59 N58 1.345 . S
C59 H64 0.930 . S
C60 N57 1.390 . S
C60 C61 1.346 . S
C60 H65 0.930 . S
C61 N58 1.336 . S
C61 C60 1.346 . S
C61 H68 0.929 . S
C62 O52 1.282 . S
C62 O63 1.216 1_565 S
O63 C62 1.216 1_545 S
H64 C59 0.930 . S
H65 C60 0.930 . S
O66 Cu46 1.959 . S
O66 C53 1.251 . S
H67 C50 0.930 . S
H68 C61 0.929 . S
Cu69 N70 1.999 . S
Cu69 O75 1.974 . S
Cu69 N80 1.985 . S
Cu69 O89 1.959 . S
N70 Cu69 1.999 . S
N70 C72 1.263 . S
N70 C74 1.389 . S
N71 C72 1.358 . S
N71 C73 1.400 . S
C72 N70 1.263 . S
C72 N71 1.358 . S
C72 H78 0.930 . S
C73 N71 1.400 . S
C73 C74 1.351 . S
C73 H90 0.930 . S
C74 N70 1.389 . S
C74 C73 1.351 . S
C74 H79 0.930 . S
O75 Cu69 1.974 . S
O75 C85 1.282 . S
C76 O77 1.261 . S
C76 O89 1.251 . S
O77 C76 1.261 . S
H78 C72 0.930 . S
H79 C74 0.930 . S
N80 Cu69 1.985 . S
N80 C82 1.335 . S
N80 C83 1.390 . S
N81 C82 1.345 . S
N81 C84 1.336 . S
C82 N80 1.335 . S
C82 N81 1.345 . S
C82 H87 0.930 . S
C83 N80 1.390 . S
C83 C84 1.346 . S
C83 H88 0.930 . S
C84 N81 1.336 . S
C84 C83 1.346 . S
C84 H91 0.929 . S
C85 O75 1.282 . S
C85 O86 1.216 1_545 S
O86 C85 1.216 1_565 S
H87 C82 0.930 . S
H88 C83 0.930 . S
O89 Cu69 1.959 . S
O89 C76 1.251 . S
H90 C73 0.930 . S
H91 C84 0.929 . S
Cu92 N93 1.999 . S
Cu92 O98 1.974 . S
Cu92 N103 1.985 . S
Cu92 O112 1.959 . S
N93 Cu92 1.999 . S
N93 C95 1.263 . S
N93 C97 1.389 . S
N94 C95 1.358 . S
N94 C96 1.400 . S
C95 N93 1.263 . S
C95 N94 1.358 . S
C95 H101 0.930 . S
C96 N94 1.400 . S
C96 C97 1.351 . S
C96 H113 0.930 . S
C97 N93 1.389 . S
C97 C96 1.351 . S
C97 H102 0.930 . S
O98 Cu92 1.974 . S
O98 C108 1.282 . S
C99 O100 1.261 . S
C99 O112 1.251 . S
O100 C99 1.261 . S
H101 C95 0.930 . S
H102 C97 0.930 . S
N103 Cu92 1.985 . S
N103 C105 1.335 . S
N103 C106 1.390 . S
N104 C105 1.345 . S
N104 C107 1.336 . S
C105 N103 1.335 . S
C105 N104 1.345 . S
C105 H110 0.930 . S
C106 N103 1.390 . S
C106 C107 1.346 . S
C106 H111 0.930 . S
C107 N104 1.336 . S
C107 C106 1.346 . S
C107 H114 0.929 . S
C108 O98 1.282 . S
C108 O109 1.216 1_565 S
O109 C108 1.216 1_545 S
H110 C105 0.930 . S
H111 C106 0.930 . S
O112 Cu92 1.959 . S
O112 C99 1.251 . S
H113 C96 0.930 . S
H114 C107 0.929 . S
Cu115 N116 1.999 . S
Cu115 O121 1.974 . S
Cu115 N126 1.985 . S
Cu115 O135 1.959 . S
N116 Cu115 1.999 . S
N116 C118 1.263 . S
N116 C120 1.389 . S
N117 C118 1.358 . S
N117 C119 1.400 . S
C118 N116 1.263 . S
C118 N117 1.358 . S
C118 H124 0.930 . S
C119 N117 1.400 . S
C119 C120 1.351 . S
C119 H136 0.930 . S
C120 N116 1.389 . S
C120 C119 1.351 . S
C120 H125 0.930 . S
O121 Cu115 1.974 . S
O121 C131 1.282 . S
C122 O123 1.261 . S
C122 O135 1.251 . S
O123 C122 1.261 . S
H124 C118 0.930 . S
H125 C120 0.930 . S
N126 Cu115 1.985 . S
N126 C128 1.335 . S
N126 C129 1.390 . S
N127 C128 1.345 . S
N127 C130 1.336 . S
C128 N126 1.335 . S
C128 N127 1.345 . S
C128 H133 0.930 . S
C129 N126 1.390 . S
C129 C130 1.346 . S
C129 H134 0.930 . S
C130 N127 1.336 . S
C130 C129 1.346 . S
C130 H137 0.929 . S
C131 O121 1.282 . S
C131 O132 1.216 1_545 S
O132 C131 1.216 1_565 S
H133 C128 0.930 . S
H134 C129 0.930 . S
O135 Cu115 1.959 . S
O135 C122 1.251 . S
H136 C119 0.930 . S
H137 C130 0.929 . S
Cu138 N139 1.999 . S
Cu138 O144 1.974 . S
Cu138 N149 1.985 . S
Cu138 O158 1.959 . S
N139 Cu138 1.999 . S
N139 C141 1.263 . S
N139 C143 1.389 . S
N140 C141 1.358 . S
N140 C142 1.400 . S
C141 N139 1.263 . S
C141 N140 1.358 . S
C141 H147 0.930 . S
C142 N140 1.400 . S
C142 C143 1.351 . S
C142 H159 0.930 . S
C143 N139 1.389 . S
C143 C142 1.351 . S
C143 H148 0.930 . S
O144 Cu138 1.974 . S
O144 C154 1.282 . S
C145 O146 1.261 . S
C145 O158 1.251 . S
O146 C145 1.261 . S
H147 C141 0.930 . S
H148 C143 0.930 . S
N149 Cu138 1.985 . S
N149 C151 1.335 . S
N149 C152 1.390 . S
N150 C151 1.345 . S
N150 C153 1.336 . S
C151 N149 1.335 . S
C151 N150 1.345 . S
C151 H156 0.930 . S
C152 N149 1.390 . S
C152 C153 1.346 . S
C152 H157 0.930 . S
C153 N150 1.336 . S
C153 C152 1.346 . S
C153 H160 0.929 . S
C154 O144 1.282 . S
C154 O155 1.216 1_545 S
O155 C154 1.216 1_565 S
H156 C151 0.930 . S
H157 C152 0.930 . S
O158 Cu138 1.959 . S
O158 C145 1.251 . S
H159 C142 0.930 . S
H160 C153 0.929 . S
Cu161 N162 1.999 . S
Cu161 O167 1.974 . S
Cu161 N172 1.985 . S
Cu161 O181 1.959 . S
N162 Cu161 1.999 . S
N162 C164 1.263 . S
N162 C166 1.389 . S
N163 C164 1.358 . S
N163 C165 1.400 . S
C164 N162 1.263 . S
C164 N163 1.358 . S
C164 H170 0.930 . S
C165 N163 1.400 . S
C165 C166 1.351 . S
C165 H182 0.930 . S
C166 N162 1.389 . S
C166 C165 1.351 . S
C166 H171 0.930 . S
O167 Cu161 1.974 . S
O167 C177 1.282 . S
C168 O169 1.261 . S
C168 O181 1.251 . S
O169 C168 1.261 . S
H170 C164 0.930 . S
H171 C166 0.930 . S
N172 Cu161 1.985 . S
N172 C174 1.335 . S
N172 C175 1.390 . S
N173 C174 1.345 . S
N173 C176 1.336 . S
C174 N172 1.335 . S
C174 N173 1.345 . S
C174 H179 0.930 . S
C175 N172 1.390 . S
C175 C176 1.346 . S
C175 H180 0.930 . S
C176 N173 1.336 . S
C176 C175 1.346 . S
C176 H183 0.929 . S
C177 O167 1.282 . S
C177 O178 1.216 1_565 S
O178 C177 1.216 1_545 S
H179 C174 0.930 . S
H180 C175 0.930 . S
O181 Cu161 1.959 . S
O181 C168 1.251 . S
H182 C165 0.930 . S
H183 C176 0.929 . S
Cu184 N185 1.999 . S
Cu184 O190 1.974 . S
Cu184 N195 1.985 . S
Cu184 O204 1.959 . S
N185 Cu184 1.999 . S
N185 C187 1.263 . S
N185 C189 1.389 . S
N186 C187 1.358 . S
N186 C188 1.400 . S
C187 N185 1.263 . S
C187 N186 1.358 . S
C187 H193 0.930 . S
C188 N186 1.400 . S
C188 C189 1.351 . S
C188 H205 0.930 1_655 S
C189 N185 1.389 . S
C189 C188 1.351 . S
C189 H194 0.930 . S
O190 Cu184 1.974 . S
O190 C200 1.282 . S
C191 O192 1.261 . S
C191 O204 1.251 . S
O192 C191 1.261 . S
H193 C187 0.930 . S
H194 C189 0.930 . S
N195 Cu184 1.985 . S
N195 C197 1.335 . S
N195 C198 1.390 . S
N196 C197 1.345 . S
N196 C199 1.336 . S
C197 N195 1.335 . S
C197 N196 1.345 . S
C197 H202 0.930 . S
C198 N195 1.390 . S
C198 C199 1.346 . S
C198 H203 0.930 . S
C199 N196 1.336 . S
C199 C198 1.346 . S
C199 H206 0.929 . S
C200 O190 1.282 . S
C200 O201 1.216 . S
O201 C200 1.216 . S
H202 C197 0.930 . S
H203 C198 0.930 . S
O204 Cu184 1.959 . S
O204 C191 1.251 . S
H205 C188 0.930 1_455 S
H206 C199 0.929 . S
Cu207 N208 1.999 . S
Cu207 O213 1.974 . S
Cu207 N218 1.985 . S
Cu207 O227 1.959 . S
N208 Cu207 1.999 . S
N208 C210 1.263 . S
N208 C212 1.389 . S
N209 C210 1.358 . S
N209 C211 1.400 . S
C210 N208 1.263 . S
C210 N209 1.358 . S
C210 H216 0.930 . S
C211 N209 1.400 . S
C211 C212 1.351 . S
C211 H228 0.930 1_455 S
C212 N208 1.389 . S
C212 C211 1.351 . S
C212 H217 0.930 . S
O213 Cu207 1.974 . S
O213 C223 1.282 . S
C214 O215 1.261 . S
C214 O227 1.251 . S
O215 C214 1.261 . S
H216 C210 0.930 . S
H217 C212 0.930 . S
N218 Cu207 1.985 . S
N218 C220 1.335 . S
N218 C221 1.390 . S
N219 C220 1.345 . S
N219 C222 1.336 . S
C220 N218 1.335 . S
C220 N219 1.345 . S
C220 H225 0.930 . S
C221 N218 1.390 . S
C221 C222 1.346 . S
C221 H226 0.930 . S
C222 N219 1.336 . S
C222 C221 1.346 . S
C222 H229 0.929 . S
C223 O213 1.282 . S
C223 O224 1.216 . S
O224 C223 1.216 . S
H225 C220 0.930 . S
H226 C221 0.930 . S
O227 Cu207 1.959 . S
O227 C214 1.251 . S
H228 C211 0.930 1_655 S
H229 C222 0.929 . S
Cu230 N231 1.999 . S
Cu230 O236 1.974 . S
Cu230 N241 1.985 . S
Cu230 O250 1.959 . S
N231 Cu230 1.999 . S
N231 C233 1.263 . S
N231 C235 1.389 . S
N232 C233 1.358 . S
N232 C234 1.400 . S
C233 N231 1.263 . S
C233 N232 1.358 . S
C233 H239 0.930 . S
C234 N232 1.400 . S
C234 C235 1.351 . S
C234 H251 0.930 1_655 S
C235 N231 1.389 . S
C235 C234 1.351 . S
C235 H240 0.930 . S
O236 Cu230 1.974 . S
O236 C246 1.282 . S
C237 O238 1.261 . S
C237 O250 1.251 . S
O238 C237 1.261 . S
H239 C233 0.930 . S
H240 C235 0.930 . S
N241 Cu230 1.985 . S
N241 C243 1.335 . S
N241 C244 1.390 . S
N242 C243 1.345 . S
N242 C245 1.336 . S
C243 N241 1.335 . S
C243 N242 1.345 . S
C243 H248 0.930 . S
C244 N241 1.390 . S
C244 C245 1.346 . S
C244 H249 0.930 . S
C245 N242 1.336 . S
C245 C244 1.346 . S
C245 H252 0.929 . S
C246 O236 1.282 . S
C246 O247 1.216 . S
O247 C246 1.216 . S
H248 C243 0.930 . S
H249 C244 0.930 . S
O250 Cu230 1.959 . S
O250 C237 1.251 . S
H251 C234 0.930 1_455 S
H252 C245 0.929 . S
Cu253 N254 1.999 . S
Cu253 O259 1.974 . S
Cu253 N264 1.985 . S
Cu253 O273 1.959 . S
N254 Cu253 1.999 . S
N254 C256 1.263 . S
N254 C258 1.389 . S
N255 C256 1.358 . S
N255 C257 1.400 . S
C256 N254 1.263 . S
C256 N255 1.358 . S
C256 H262 0.930 . S
C257 N255 1.400 . S
C257 C258 1.351 . S
C257 H274 0.930 1_455 S
C258 N254 1.389 . S
C258 C257 1.351 . S
C258 H263 0.930 . S
O259 Cu253 1.974 . S
O259 C269 1.282 . S
C260 O261 1.261 . S
C260 O273 1.251 . S
O261 C260 1.261 . S
H262 C256 0.930 . S
H263 C258 0.930 . S
N264 Cu253 1.985 . S
N264 C266 1.335 . S
N264 C267 1.390 . S
N265 C266 1.345 . S
N265 C268 1.336 . S
C266 N264 1.335 . S
C266 N265 1.345 . S
C266 H271 0.930 . S
C267 N264 1.390 . S
C267 C268 1.346 . S
C267 H272 0.930 . S
C268 N265 1.336 . S
C268 C267 1.346 . S
C268 H275 0.929 . S
C269 O259 1.282 . S
C269 O270 1.216 . S
O270 C269 1.216 . S
H271 C266 0.930 . S
H272 C267 0.930 . S
O273 Cu253 1.959 . S
O273 C260 1.251 . S
H274 C257 0.930 1_655 S
H275 C268 0.929 . S
Cu276 N277 1.999 . S
Cu276 O282 1.974 . S
Cu276 N287 1.985 . S
Cu276 O296 1.959 . S
N277 Cu276 1.999 . S
N277 C279 1.263 . S
N277 C281 1.389 . S
N278 C279 1.358 . S
N278 C280 1.400 . S
C279 N277 1.263 . S
C279 N278 1.358 . S
C279 H285 0.930 . S
C280 N278 1.400 . S
C280 C281 1.351 . S
C280 H297 0.930 1_455 S
C281 N277 1.389 . S
C281 C280 1.351 . S
C281 H286 0.930 . S
O282 Cu276 1.974 . S
O282 C292 1.282 . S
C283 O284 1.261 . S
C283 O296 1.251 . S
O284 C283 1.261 . S
H285 C279 0.930 . S
H286 C281 0.930 . S
N287 Cu276 1.985 . S
N287 C289 1.335 . S
N287 C290 1.390 . S
N288 C289 1.345 . S
N288 C291 1.336 . S
C289 N287 1.335 . S
C289 N288 1.345 . S
C289 H294 0.930 . S
C290 N287 1.390 . S
C290 C291 1.346 . S
C290 H295 0.930 . S
C291 N288 1.336 . S
C291 C290 1.346 . S
C291 H298 0.929 . S
C292 O282 1.282 . S
C292 O293 1.216 . S
O293 C292 1.216 . S
H294 C289 0.930 . S
H295 C290 0.930 . S
O296 Cu276 1.959 . S
O296 C283 1.251 . S
H297 C280 0.930 1_655 S
H298 C291 0.929 . S
Cu299 N300 1.999 . S
Cu299 O305 1.974 . S
Cu299 N310 1.985 . S
Cu299 O319 1.959 . S
N300 Cu299 1.999 . S
N300 C302 1.263 . S
N300 C304 1.389 . S
N301 C302 1.358 . S
N301 C303 1.400 . S
C302 N300 1.263 . S
C302 N301 1.358 . S
C302 H308 0.930 . S
C303 N301 1.400 . S
C303 C304 1.351 . S
C303 H320 0.930 1_655 S
C304 N300 1.389 . S
C304 C303 1.351 . S
C304 H309 0.930 . S
O305 Cu299 1.974 . S
O305 C315 1.282 . S
C306 O307 1.261 . S
C306 O319 1.251 . S
O307 C306 1.261 . S
H308 C302 0.930 . S
H309 C304 0.930 . S
N310 Cu299 1.985 . S
N310 C312 1.335 . S
N310 C313 1.390 . S
N311 C312 1.345 . S
N311 C314 1.336 . S
C312 N310 1.335 . S
C312 N311 1.345 . S
C312 H317 0.930 . S
C313 N310 1.390 . S
C313 C314 1.346 . S
C313 H318 0.930 . S
C314 N311 1.336 . S
C314 C313 1.346 . S
C314 H321 0.929 . S
C315 O305 1.282 . S
C315 O316 1.216 . S
O316 C315 1.216 . S
H317 C312 0.930 . S
H318 C313 0.930 . S
O319 Cu299 1.959 . S
O319 C306 1.251 . S
H320 C303 0.930 1_455 S
H321 C314 0.929 . S
Cu322 N323 1.999 . S
Cu322 O328 1.974 . S
Cu322 N333 1.985 . S
Cu322 O342 1.959 . S
N323 Cu322 1.999 . S
N323 C325 1.263 . S
N323 C327 1.389 . S
N324 C325 1.358 . S
N324 C326 1.400 . S
C325 N323 1.263 . S
C325 N324 1.358 . S
C325 H331 0.930 . S
C326 N324 1.400 . S
C326 C327 1.351 . S
C326 H343 0.930 1_455 S
C327 N323 1.389 . S
C327 C326 1.351 . S
C327 H332 0.930 . S
O328 Cu322 1.974 . S
O328 C338 1.282 . S
C329 O330 1.261 . S
C329 O342 1.251 . S
O330 C329 1.261 . S
H331 C325 0.930 . S
H332 C327 0.930 . S
N333 Cu322 1.985 . S
N333 C335 1.335 . S
N333 C336 1.390 . S
N334 C335 1.345 . S
N334 C337 1.336 . S
C335 N333 1.335 . S
C335 N334 1.345 . S
C335 H340 0.930 . S
C336 N333 1.390 . S
C336 C337 1.346 . S
C336 H341 0.930 . S
C337 N334 1.336 . S
C337 C336 1.346 . S
C337 H344 0.929 . S
C338 O328 1.282 . S
C338 O339 1.216 . S
O339 C338 1.216 . S
H340 C335 0.930 . S
H341 C336 0.930 . S
O342 Cu322 1.959 . S
O342 C329 1.251 . S
H343 C326 0.930 1_655 S
H344 C337 0.929 . S
Cu345 N346 1.999 . S
Cu345 O351 1.974 . S
Cu345 N356 1.985 . S
Cu345 O365 1.959 . S
N346 Cu345 1.999 . S
N346 C348 1.263 . S
N346 C350 1.389 . S
N347 C348 1.358 . S
N347 C349 1.400 . S
C348 N346 1.263 . S
C348 N347 1.358 . S
C348 H354 0.930 . S
C349 N347 1.400 . S
C349 C350 1.351 . S
C349 H366 0.930 1_655 S
C350 N346 1.389 . S
C350 C349 1.351 . S
C350 H355 0.930 . S
O351 Cu345 1.974 . S
O351 C361 1.282 . S
C352 O353 1.261 . S
C352 O365 1.251 . S
O353 C352 1.261 . S
H354 C348 0.930 . S
H355 C350 0.930 . S
N356 Cu345 1.985 . S
N356 C358 1.335 . S
N356 C359 1.390 . S
N357 C358 1.345 . S
N357 C360 1.336 . S
C358 N356 1.335 . S
C358 N357 1.345 . S
C358 H363 0.930 . S
C359 N356 1.390 . S
C359 C360 1.346 . S
C359 H364 0.930 . S
C360 N357 1.336 . S
C360 C359 1.346 . S
C360 H367 0.929 . S
C361 O351 1.282 . S
C361 O362 1.216 . S
O362 C361 1.216 . S
H363 C358 0.930 . S
H364 C359 0.930 . S
O365 Cu345 1.959 . S
O365 C352 1.251 . S
H366 C349 0.930 1_455 S
H367 C360 0.929 . S
C7 C122 1.706 . S
C99 C30 1.706 . S
C53 C168 1.706 1_554 S
C145 C76 1.706 1_556 S
C306 C191 1.706 . S
C283 C214 1.706 . S
C352 C237 1.706 1_556 S
C260 C329 1.706 1_554 S
N25 N2 1.457 1_565 S
N48 N71 1.456 1_565 S
N94 N117 1.457 1_565 S
N140 N163 1.456 1_545 S
N186 N209 1.456 1_655 S
N255 N232 1.456 1_455 S
N301 N278 1.456 1_655 S
N324 N347 1.456 1_455 S
N219 N12 1.367 . S
N35 N196 1.367 . S
N265 N58 1.367 . S
N81 N242 1.367 . S
N104 N311 1.367 . S
N288 N127 1.367 . S
N150 N357 1.367 . S
N334 N173 1.367 . S
C16 C62 1.663 1_545 S
C85 C39 1.663 1_545 S
C154 C108 1.663 1_545 S
C177 C131 1.663 1_565 S
C246 C200 1.663 . S
C223 C269 1.663 . S
C338 C292 1.663 . S
C315 C361 1.663 . S
