# Generated by pormake.
# Topology qtz-x, (6)-cn, num edge types: 1
# Building blocks:
#     Node 0, Type 0, BuildingBlock: NUHQIS_clean_sbu_0, # of connection points: 6
#     Node 1, Type 0, BuildingBlock: NUHQIS_clean_sbu_0, # of connection points: 6
#     Node 2, Type 0, BuildingBlock: NUHQIS_clean_sbu_0, # of connection points: 6
#     Edge 3, Type (0, 0), BuildingBlock: ZUJKAS_clean_linker_0, # of connection points: 2
#     Edge 4, Type (0, 0), BuildingBlock: ZUJKAS_clean_linker_0, # of connection points: 2
#     Edge 5, Type (0, 0), BuildingBlock: ZUJKAS_clean_linker_0, # of connection points: 2
#     Edge 6, Type (0, 0), BuildingBlock: ZUJKAS_clean_linker_0, # of connection points: 2
#     Edge 7, Type (0, 0), BuildingBlock: ZUJKAS_clean_linker_0, # of connection points: 2
#     Edge 8, Type (0, 0), BuildingBlock: ZUJKAS_clean_linker_0, # of connection points: 2
#     Edge 9, Type (0, 0), BuildingBlock: ZUJKAS_clean_linker_0, # of connection points: 2
#     Edge 10, Type (0, 0), BuildingBlock: ZUJKAS_clean_linker_0, # of connection points: 2
#     Edge 11, Type (0, 0), BuildingBlock: ZUJKAS_clean_linker_0, # of connection points: 2
# Relax obj value: 0.185
# Max RMSD: 0.238
# Mean RMSD: 0.225
data_MOF--net-qtz-x--node1-NUHQIS_clean_sbu_0--edge1-ZUJKAS_clean_linker_0
_symmetry_space_group_name_H-M    P1
_symmetry_Int_Tables_number       1
_symmetry_cell_setting            triclinic
loop_
_symmetry_equiv_pos_as_xyz
'x, y, z'
_cell_length_a     19.631021
_cell_length_b     19.605445
_cell_length_c     65.46751
_cell_angle_alpha  73.164912
_cell_angle_beta   109.75709
_cell_angle_gamma 121.55515
loop_
_atom_site_label
_atom_site_type_symbol
_atom_site_fract_x
_atom_site_fract_y
_atom_site_fract_z
_atom_type_partial_charge
Tb0 Tb 0.94314 0.5825 0.19336 0.0
Eu1 Eu 0.1263 0.68969 0.18179 0.0
C2 C 0.03239 0.77005 0.18767 0.0
C3 C 0.9593 0.6398 0.14392 0.0
C4 C 0.80097 0.45966 0.2295 0.0
C5 C 0.72111 0.4061 0.25712 0.0
C6 C 0.72865 0.43682 0.23535 0.0
C7 C 0.86531 0.45047 0.24567 0.0
C8 C 0.85801 0.42012 0.26741 0.0
C9 C 0.78611 0.39821 0.2735 0.0
C10 C 0.81251 0.49951 0.20714 0.0
O11 O 0.99957 0.50524 0.20118 0.0
O12 O 0.06757 0.56454 0.17374 0.0
O13 O 0.15147 0.64981 0.21817 0.0
O14 O 0.02999 0.62281 0.22399 0.0
C15 C 0.03188 0.50091 0.18738 0.0
O16 O 0.24124 0.6989 0.18106 0.0
O17 O 0.21826 0.80168 0.16759 0.0
O18 O 0.10322 0.76995 0.19386 0.0
O19 O 0.96384 0.70581 0.18122 0.0
O20 O 0.91608 0.58228 0.15785 0.0
O21 O 0.03482 0.6954 0.15057 0.0
C22 C 0.10621 0.63526 0.23136 0.0
O23 O 0.85322 0.57811 0.20499 0.0
O24 O 0.83806 0.47053 0.19741 0.0
C25 C 0.28494 0.77761 0.14884 0.0
C26 C 0.32304 0.78972 0.10966 0.0
C27 C 0.38593 0.8206 0.12813 0.0
C28 C 0.36695 0.81454 0.14756 0.0
C29 C 0.22195 0.74675 0.13051 0.0
C30 C 0.24078 0.75288 0.11108 0.0
C31 C 0.26471 0.77025 0.16929 0.0
H32 H 0.66524 0.39074 0.26122 0.0
H33 H 0.6787 0.44436 0.22317 0.0
H34 H 0.92193 0.46812 0.24156 0.0
H35 H 0.90888 0.41393 0.27946 0.0
H36 H 0.44986 0.84832 0.12768 0.0
H37 H 0.41625 0.83827 0.16161 0.0
H38 H 0.15813 0.71792 0.13123 0.0
H39 H 0.19088 0.72945 0.09712 0.0
Tb40 Tb 0.78163 0.12542 0.54923 0.0
Eu41 Eu 0.66892 0.9399 0.53703 0.0
C42 C 0.86229 0.02932 0.54641 0.0
C43 C 0.72812 0.09606 0.49981 0.0
C44 C 0.87341 0.28528 0.58257 0.0
C45 C 0.94495 0.38125 0.60857 0.0
C46 C 0.93469 0.36121 0.5885 0.0
C47 C 0.82219 0.22958 0.59683 0.0
C48 C 0.83238 0.24943 0.61686 0.0
C49 C 0.89414 0.32539 0.62303 0.0
C50 C 0.86554 0.26177 0.56223 0.0
O51 O 0.65913 0.07979 0.55343 0.0
O52 O 0.58962 0.00039 0.52638 0.0
O53 O 0.66683 0.92822 0.57226 0.0
O54 O 0.78489 0.04624 0.5804 0.0
C55 C 0.59149 0.04192 0.5392 0.0
O56 O 0.5493 0.83343 0.52954 0.0
O57 O 0.65941 0.83388 0.52932 0.0
O58 O 0.79904 0.96239 0.55197 0.0
O59 O 0.85899 0.09758 0.53969 0.0
O60 O 0.7451 0.14389 0.51342 0.0
O61 O 0.70969 0.01952 0.50634 0.0
C62 C 0.72564 -0.02398 0.58657 0.0
O63 O 0.89454 0.21247 0.56494 0.0
O64 O 0.7934 0.23869 0.54877 0.0
C65 C 0.54138 0.7733 0.50185 0.0
C66 C 0.46645 0.73014 0.45916 0.0
C67 C 0.42997 0.6804 0.47687 0.0
C68 C 0.46727 0.70182 0.49805 0.0
C69 C 0.5777 0.82308 0.4842 0.0
C70 C 0.5408 0.8017 0.46311 0.0
C71 C 0.57935 0.79772 0.52393 0.0
H72 H 0.99374 0.43984 0.61295 0.0
H73 H 0.97528 0.40449 0.57777 0.0
H74 H 0.77473 0.17037 0.59254 0.0
H75 H 0.79153 0.2054 0.62745 0.0
H76 H 0.37295 0.62468 0.47437 0.0
H77 H 0.43806 0.66284 0.51144 0.0
H78 H 0.63447 0.87895 0.4867 0.0
H79 H 0.56981 0.84213 0.44982 0.0
Tb80 Tb 0.7324 0.80503 0.86283 0.0
Eu81 Eu 0.84453 0.71996 0.86654 0.0
C82 C 0.91768 0.90513 0.8642 0.0
C83 C 0.76479 0.79463 0.81946 0.0
C84 C 0.60875 0.8562 0.8807 0.0
C85 C 0.56163 0.91113 0.8986 0.0
C86 C 0.5924 0.91688 0.88142 0.0
C87 C 0.59313 0.78914 0.89722 0.0
C88 C 0.5619 0.78307 0.91431 0.0
C89 C 0.54658 0.8444 0.91531 0.0
C90 C 0.64837 0.86617 0.86384 0.0
O91 O 0.66132 0.67524 0.86983 0.0
O92 O 0.71443 0.64179 0.85067 0.0
O93 O 0.81604 0.68623 0.89975 0.0
O94 O 0.79057 0.7901 0.89763 0.0
C95 C 0.65334 0.62619 0.85822 0.0
O96 O 0.86152 0.61341 0.87319 0.0
O97 O 0.95839 0.73177 0.86419 0.0
O98 O 0.92602 0.84327 0.87674 0.0
O99 O 0.84515 0.89749 0.85335 0.0
O100 O 0.71582 0.79825 0.82843 0.0
O101 O 0.82409 0.77688 0.83131 0.0
C102 C 0.80587 0.73029 0.90907 0.0
O103 O 0.72836 0.90117 0.86946 0.0
O104 O 0.61809 0.80273 0.85439 0.0
C105 C 0.9355 0.62309 0.84989 0.0
C106 C 0.94533 0.56747 0.81637 0.0
C107 C 0.98504 0.55325 0.83827 0.0
C108 C 0.98034 0.58117 0.85492 0.0
C109 C 0.89483 0.63626 0.82813 0.0
C110 C 0.89988 0.60895 0.81152 0.0
C111 C 0.9311 0.65378 0.86711 0.0
H112 H 0.54992 0.95903 0.89887 0.0
H113 H 0.60489 0.96942 0.86891 0.0
H114 H 0.60677 0.74232 0.89716 0.0
H115 H 0.55213 0.73159 0.9271 0.0
H116 H 0.02081 0.52182 0.84246 0.0
H117 H 0.01198 0.57044 0.87165 0.0
H118 H 0.85927 0.66789 0.82399 0.0
H119 H 0.8675 0.61967 0.79488 0.0
H120 H 0.89693 0.78979 0.17897 0.0
H121 H 0.89372 0.91276 0.17896 0.0
H122 H 0.15849 0.04045 0.19581 0.0
H123 H 0.16253 0.91768 0.19623 0.0
H124 H 0.08703 0.06538 0.22104 0.0
H125 H 0.9494 0.11261 0.13218 0.0
H126 H 0.89157 0.01461 0.14623 0.0
H127 H 0.99203 0.04374 0.1437 0.0
C128 C 0.95451 0.8441 0.1826 0.0
C129 C 0.03001 0.84414 0.18751 0.0
C130 C 0.9525 0.91432 0.18248 0.0
C131 C 0.02587 -0.01426 0.18706 0.0
C132 C 0.10124 -0.01417 0.19215 0.0
H133 H 0.1017 0.4738 0.16298 0.0
H134 H 0.09925 0.34746 0.16352 0.0
C135 C 0.10337 0.91565 0.19236 0.0
C136 C 0.02439 0.06026 0.18699 0.0
H137 H 0.96416 0.19861 0.15421 0.0
C138 C 0.06024 0.09466 0.20645 0.0
C139 C 0.99011 0.09842 0.16783 0.0
C140 C 0.95423 0.06601 0.14623 0.0
C141 C 0.06246 0.16638 0.2073 0.0
C142 C 0.02651 0.20353 0.18828 0.0
C143 C 0.991 0.16935 0.1688 0.0
C144 C 0.02725 0.27934 0.18807 0.0
C145 C 0.10485 0.20271 0.22839 0.0
C146 C 0.98677 0.2823 0.20155 0.0
C147 C 0.98833 0.35445 0.20137 0.0
C148 C 0.02987 0.42453 0.18756 0.0
C149 C 0.06935 0.42093 0.17385 0.0
C150 C 0.06795 0.34885 0.1741 0.0
H151 H 0.14621 0.17801 0.23959 0.0
H152 H 0.14135 0.26949 0.2251 0.0
H153 H 0.05794 0.1885 0.23697 0.0
H154 H 0.95368 0.22873 0.21213 0.0
H155 H 0.95677 0.35516 0.212 0.0
H156 H 0.5733 0.12113 0.56347 0.0
H157 H 0.44623 0.11356 0.56444 0.0
H158 H 0.30997 0.9513 0.51584 0.0
H159 H 0.43702 0.95926 0.51449 0.0
H160 H 0.26742 0.07299 0.50748 0.0
H161 H 0.26616 0.92027 0.59324 0.0
H162 H 0.35975 0.01195 0.59035 0.0
H163 H 0.33131 0.92721 0.57795 0.0
C164 C 0.51639 0.0839 0.55294 0.0
C165 C 0.51521 0.04043 0.53898 0.0
C166 C 0.44377 0.07923 0.55364 0.0
C167 C 0.36864 0.03059 0.54054 0.0
C168 C 0.36738 -0.01134 0.5262 0.0
H169 H 0.88708 0.89738 0.55553 0.0
H170 H 1.00808 0.8947 0.55362 0.0
C171 C 0.44004 -0.00662 0.52545 0.0
C172 C 0.29153 0.02458 0.54157 0.0
H173 H 0.17107 0.97227 0.57656 0.0
C174 C 0.24601 0.05053 0.52253 0.0
C175 C 0.2632 -0.00599 0.56116 0.0
C176 C 0.30714 0.961 0.58179 0.0
C177 C 0.17397 0.04897 0.52271 0.0
C178 C 0.14778 0.022 0.54255 0.0
C179 C 0.19193 -0.00623 0.56144 0.0
C180 C 0.07532 0.02379 0.5441 0.0
C181 C 0.12626 0.07567 0.50162 0.0
C182 C 0.074 0.09745 0.53985 0.0
C183 C 1.00516 0.09924 0.54089 0.0
C184 C 0.93652 0.02736 0.54639 0.0
C185 C 0.93886 0.95379 0.55121 0.0
C186 C 1.00784 0.95209 0.55011 0.0
H187 H 0.14114 0.07279 0.48705 0.0
H188 H 0.05908 0.03774 0.5003 0.0
H189 H 0.14232 0.13925 0.50128 0.0
H190 H 0.12629 0.15365 0.53568 0.0
H191 H 1.0057 0.15702 0.53726 0.0
H192 H 0.92546 0.01374 0.82725 0.0
H193 H 0.04737 0.13424 0.81764 0.0
H194 H 0.19486 0.08584 0.88015 0.0
H195 H 0.07342 0.96294 0.88947 0.0
H196 H 0.14052 0.26408 0.83586 0.0
H197 H 0.33253 0.13028 0.84011 0.0
H198 H 0.22472 0.06943 0.84011 0.0
H199 H 0.30028 0.09905 0.86529 0.0
C200 C 0.98397 0.02882 0.83894 0.0
C201 C 0.99047 -0.02046 0.85914 0.0
C202 C 0.05347 0.09723 0.83335 0.0
C203 C 0.13022 0.11774 0.84796 0.0
C204 C 0.13655 0.06936 0.86833 0.0
H205 H 0.5258 0.55991 0.87764 0.0
H206 H 0.39475 0.43926 0.86976 0.0
C207 C 0.06721 -4e-05 0.87377 0.0
C208 C 0.20266 0.19322 0.84273 0.0
H209 H 0.40632 0.27148 0.84601 0.0
C210 C 0.19824 0.26562 0.83759 0.0
C211 C 0.27714 0.19503 0.84428 0.0
C212 C 0.28359 0.11905 0.84748 0.0
C213 C 0.26826 0.34027 0.83579 0.0
C214 C 0.34458 0.34201 0.84002 0.0
C215 C 0.34778 0.26976 0.84326 0.0
C216 C 0.4224 0.4169 0.84373 0.0
C217 C 0.2601 0.41638 0.83005 0.0
C218 C 0.48226 0.44225 0.83224 0.0
C219 C 0.55803 0.51031 0.83705 0.0
C220 C 0.57451 0.55366 0.85338 0.0
C221 C 0.51443 0.52797 0.86485 0.0
C222 C 0.43926 0.45963 0.8602 0.0
H223 H 0.19874 0.40583 0.81939 0.0
H224 H 0.26618 0.43513 0.84529 0.0
H225 H 0.30806 0.4666 0.82153 0.0
H226 H 0.47041 0.40922 0.81966 0.0
H227 H 0.60333 0.52917 0.82791 0.0
H228 H 0.42622 0.71366 0.93422 0.0
H229 H 0.38283 0.7053 0.9662 0.0
H230 H 0.5603 0.95566 0.97132 0.0
H231 H 0.60313 0.96464 0.93922 0.0
H232 H 0.47337 0.72766 1.00773 0.0
H233 H 0.35608 0.95039 0.97481 0.0
H234 H 0.37794 0.91084 0.95749 0.0
H235 H 0.45978 -0.00903 0.97282 0.0
C236 C 0.45566 0.76699 0.94211 0.0
C237 C 0.51774 0.83995 0.93413 0.0
C238 C 0.43071 0.76221 0.96034 0.0
C239 C 0.46733 0.83021 0.97094 0.0
C240 C 0.52953 0.90304 0.96305 0.0
H241 H 0.44399 0.91755 0.09018 0.0
H242 H 0.47806 0.92539 0.0566 0.0
C243 C 0.55409 0.90804 0.94473 0.0
C244 C 0.44327 0.8238 0.99088 0.0
H245 H 0.37361 0.90615 1.01331 0.0
C246 C 0.45092 0.76624 1.00888 0.0
C247 C 0.41414 0.87432 0.99238 0.0
C248 C 0.40068 0.93456 0.97327 0.0
C249 C 0.43187 0.75893 1.02849 0.0
C250 C 0.40358 0.80996 1.03005 0.0
C251 C 0.39558 0.86731 1.01206 0.0
C252 C 0.38228 0.80492 0.05028 0.0
C253 C 0.44393 0.69792 0.04756 0.0
C254 C 0.31656 0.73489 0.05768 0.0
C255 C 0.2972 0.73001 0.0769 0.0
C256 C 0.34308 0.79527 0.08907 0.0
C257 C 0.40827 0.86576 0.08141 0.0
C258 C 0.42745 0.8706 0.06215 0.0
H259 H 0.48337 0.6767 0.04545 0.0
H260 H 0.47206 0.72385 0.06317 0.0
H261 H 0.38334 0.64462 0.04892 0.0
H262 H 0.28019 0.68397 0.04856 0.0
H263 H 0.24699 0.67465 0.0824 0.0
H264 H 0.76244 0.25067 0.47898 0.0
H265 H 0.77162 0.30471 0.44069 0.0
H266 H 0.71153 0.07143 0.42938 0.0
H267 H 0.70323 0.01725 0.4675 0.0
H268 H 0.84528 0.19707 0.41311 0.0
H269 H 0.5832 0.2637 0.3857 0.0
H270 H 0.65843 0.30811 0.40937 0.0
H271 H 0.59867 0.20004 0.41104 0.0
C272 C 0.75072 0.21067 0.46834 0.0
C273 C 0.73173 0.12935 0.47642 0.0
C274 C 0.75559 0.24162 0.44639 0.0
C275 C 0.74128 0.19191 0.43204 0.0
C276 C 0.72254 0.11093 0.44008 0.0
H277 H 0.65269 0.276 0.2897 0.0
H278 H 0.64333 0.2278 0.32809 0.0
C279 C 0.7176 0.07996 0.46195 0.0
C280 C 0.74793 0.22428 0.40881 0.0
H281 H 0.66524 0.30804 0.36032 0.0
C282 C 0.80596 0.2214 0.40157 0.0
C283 C 0.69594 0.25512 0.39367 0.0
C284 C 0.62999 0.25644 0.4002 0.0
C285 C 0.81386 0.24897 0.37971 0.0
C286 C 0.76311 0.28149 0.36467 0.0
C287 C 0.70458 0.28374 0.37186 0.0
C288 C 0.76888 0.31211 0.34133 0.0
C289 C 0.87526 0.24129 0.37281 0.0
C290 C 0.84219 0.37639 0.33593 0.0
C291 C 0.84771 0.40419 0.31399 0.0
C292 C 0.7798 0.36874 0.2969 0.0
C293 C 0.706 0.30521 0.30238 0.0
C294 C 0.70062 0.27735 0.32434 0.0
H295 H 0.89338 0.19653 0.38448 0.0
H296 H 0.85015 0.22291 0.3562 0.0
H297 H 0.93145 0.30067 0.37234 0.0
H298 H 0.89514 0.40552 0.34869 0.0
H299 H 0.90499 0.45433 0.31042 0.0
H300 H 0.64757 0.8291 0.78792 0.0
H301 H 0.63087 0.85465 0.74799 0.0
H302 H 0.8418 0.82537 0.75611 0.0
H303 H 0.85826 0.79875 0.79571 0.0
H304 H 0.73542 0.97326 0.722 0.0
H305 H 0.67202 0.67296 0.7121 0.0
H306 H 0.66962 0.69273 0.73705 0.0
H307 H 0.76593 0.72106 0.73171 0.0
C308 C 0.69021 0.82775 0.78122 0.0
C309 C 0.7539 0.81121 0.79516 0.0
C310 C 0.68061 0.84245 0.75836 0.0
C311 C 0.7341 0.84043 0.74895 0.0
C312 C 0.79839 0.82525 0.76286 0.0
H313 H 0.84083 0.0574 0.6206 0.0
H314 H 0.83786 0.02347 0.65926 0.0
C315 C 0.80797 0.81048 0.78562 0.0
C316 C 0.72444 0.85603 0.72468 0.0
H317 H 0.7062 0.77735 0.68165 0.0
C318 C 0.72828 0.93011 0.71315 0.0
C319 C 0.71391 0.79939 0.71297 0.0
C320 C 0.70427 0.71676 0.72404 0.0
C321 C 0.72473 0.95017 0.69047 0.0
C322 C 0.71858 0.8952 0.67899 0.0
C323 C 0.71186 0.82 0.69039 0.0
C324 C 0.72051 0.915 0.6553 0.0
C325 C 0.72704 0.02996 0.67906 0.0
C326 C 0.65715 0.86376 0.64011 0.0
C327 C 0.6592 0.88242 0.61787 0.0
C328 C 0.72492 0.95263 0.61033 0.0
C329 C 0.78898 0.00292 0.62569 0.0
C330 C 0.78702 -0.01595 0.64787 0.0
H331 H 0.70534 0.05212 0.68811 0.0
H332 H 0.79128 0.07587 0.6783 0.0
H333 H 0.6887 0.02517 0.66207 0.0
H334 H 0.60543 0.80974 0.64543 0.0
H335 H 0.60872 0.84237 0.60656 0.0
H336 H 0.84115 0.61499 0.93871 0.0
H337 H 0.85198 0.5866 0.97828 0.0
H338 H 0.79805 0.77788 0.97386 0.0
H339 H 0.78548 0.8057 0.93426 0.0
H340 H 0.95803 0.68295 1.00915 0.0
H341 H 0.64138 0.59591 1.01008 0.0
H342 H 0.66938 0.60408 0.98556 0.0
H343 H 0.69 0.69313 0.99444 0.0
C344 C 0.83106 0.6508 0.94609 0.0
C345 C 0.81251 0.71277 0.93319 0.0
C346 C 0.83723 0.63439 0.96877 0.0
C347 C 0.8245 0.67908 0.9791 0.0
C348 C 0.80617 0.74111 0.96628 0.0
H349 H 0.01662 0.76711 0.11247 0.0
H350 H 0.97758 0.76913 0.07298 0.0
C351 C 0.79985 0.75752 0.9436 0.0
C352 C 0.83497 0.66385 1.00339 0.0
H353 H 0.74151 0.62511 0.04412 0.0
C354 C 0.91028 0.66951 1.01675 0.0
C355 C 0.7724 0.64511 1.01345 0.0
C356 C 0.68845 0.63334 1.00015 0.0
C357 C 0.92585 0.66007 0.03972 0.0
C358 C 0.86494 0.64573 0.04971 0.0
C359 C 0.78844 0.63686 0.03646 0.0
C360 C 0.88209 0.64474 0.07374 0.0
C361 C 1.00782 0.66601 0.0531 0.0
C362 C 0.83863 0.57504 0.08738 0.0
C363 C 0.86057 0.57367 0.11026 0.0
C364 C 0.92621 0.64212 0.11978 0.0
C365 C 0.96644 0.71279 0.10584 0.0
C366 C 0.94447 0.71411 0.08317 0.0
H367 H 0.03732 0.65356 0.04383 0.0
H368 H 0.04955 0.72819 0.05735 0.0
H369 H 1.00122 0.6231 0.06859 0.0
H370 H 0.7897 0.52095 0.08042 0.0
H371 H 0.82845 0.51829 0.12049 0.0
H372 H 0.03032 0.60397 0.26367 0.0
H373 H 0.09158 0.61256 0.30268 0.0
H374 H 0.32496 0.67643 0.29244 0.0
H375 H 0.26456 0.66902 0.25326 0.0
H376 H 0.17102 0.53065 0.33441 0.0
H377 H 0.38043 0.86112 0.3226 0.0
H378 H 0.29609 0.80934 0.30103 0.0
H379 H 0.39003 0.8041 0.30763 0.0
C380 C 0.09474 0.61989 0.26964 0.0
C381 C 0.14274 0.63672 0.25522 0.0
C382 C 0.12957 0.62455 0.292 0.0
C383 C 0.21313 0.64654 0.3004 0.0
C384 C 0.26072 0.66102 0.28621 0.0
H385 H 0.54019 0.74184 0.42863 0.0
H386 H 0.47694 0.71579 0.39062 0.0
C387 C 0.22595 0.65636 0.26382 0.0
C388 C 0.2505 0.65527 0.32395 0.0
H389 H 0.39631 0.79222 0.35866 0.0
C390 C 0.22024 0.5878 0.33975 0.0
C391 C 0.31444 0.73001 0.33085 0.0
C392 C 0.3468 0.80554 0.31468 0.0
C393 C 0.25327 0.59273 0.36228 0.0
C394 C 0.31732 0.66749 0.36916 0.0
C395 C 0.34747 0.73487 0.35335 0.0
C396 C 0.35395 0.67781 0.39266 0.0
C397 C 0.22035 0.51755 0.37848 0.0
C398 C 0.3058 0.66503 0.40648 0.0
C399 C 0.34185 0.67998 0.42824 0.0
C400 C 0.42692 0.70885 0.43652 0.0
C401 C 0.47469 0.72057 0.4227 0.0
C402 C 0.4386 0.70538 0.401 0.0
H403 H 0.18821 0.46179 0.37071 0.0
H404 H 0.27044 0.51451 0.39251 0.0
H405 H 0.17554 0.51863 0.38496 0.0
H406 H 0.2407 0.64559 0.40027 0.0
H407 H 0.30356 0.67151 0.43835 0.0
H408 H 0.93024 0.42056 0.81614 0.0
H409 H 0.93267 0.37304 0.78572 0.0
H410 H 0.97316 0.60284 0.7458 0.0
H411 H 0.97234 0.65113 0.77613 0.0
H412 H 0.82466 0.36288 0.74357 0.0
H413 H 0.14975 0.56374 0.73845 0.0
H414 H 0.11395 0.54672 0.76241 0.0
H415 H 0.09846 0.61665 0.73894 0.0
C416 C 0.94103 0.46133 0.80099 0.0
C417 C 0.95099 0.53953 0.7985 0.0
C418 C 0.94201 0.434 0.78363 0.0
C419 C 0.95406 0.48479 0.76363 0.0
C420 C 0.96512 0.56316 0.76122 0.0
H421 H 0.92727 0.46936 0.63187 0.0
H422 H 0.944 0.50253 0.66709 0.0
C423 C 0.96376 0.59035 0.77848 0.0
C424 C 0.95021 0.45483 0.74474 0.0
H425 H 0.05785 0.4963 0.70739 0.0
C426 C 0.87591 0.39113 0.73581 0.0
C427 C 0.01725 0.492 0.7347 0.0
C428 C 0.09965 0.55808 0.74421 0.0
C429 C 0.86566 0.36595 0.71648 0.0
C430 C 0.93198 0.40482 0.70607 0.0
C431 C 1.00702 0.46694 0.71536 0.0
C432 C 0.92363 0.3843 0.68499 0.0
C433 C 0.783 0.30033 0.70686 0.0
C434 C 0.90776 0.30713 0.68349 0.0
C435 C 0.89857 0.28808 0.66341 0.0
C436 C 0.90541 0.34602 0.64448 0.0
C437 C 0.9225 0.42364 0.64616 0.0
C438 C 0.93173 0.4426 0.66624 0.0
H439 H 0.73404 0.28874 0.71428 0.0
H440 H 0.76528 0.31658 0.68885 0.0
H441 H 0.78638 0.24335 0.70992 0.0
H442 H 0.90284 0.26176 0.69787 0.0
H443 H 0.88697 0.22823 0.66277 0.0
loop_
_geom_bond_atom_site_label_1
_geom_bond_atom_site_label_2
_geom_bond_distance
_geom_bond_site_symmetry_2
_ccdc_geom_bond_type
Tb0 C10 2.825 . S
Tb0 O11 2.347 . S
Tb0 O14 2.366 1_655 S
Tb0 O19 2.418 . S
Tb0 O20 2.384 . S
Tb0 O23 2.479 . S
Tb0 O24 2.471 . S
Eu1 O12 2.418 . S
Eu1 O13 2.384 . S
Eu1 O16 2.479 . S
Eu1 O17 2.471 . S
Eu1 O18 2.347 . S
Eu1 O21 2.366 1_455 S
Eu1 C31 2.825 . S
C2 O18 1.259 1_655 S
C2 O19 1.265 . S
C3 O20 1.255 . S
C3 O21 1.265 . S
C4 C6 1.380 . S
C4 C7 1.374 . S
C4 C10 1.507 . S
C5 C6 1.384 . S
C5 C9 1.387 . S
C5 H32 0.930 . S
C6 C4 1.380 . S
C6 C5 1.384 . S
C6 H33 0.931 . S
C7 C4 1.374 . S
C7 C8 1.390 . S
C7 H34 0.930 . S
C8 C7 1.390 . S
C8 C9 1.391 . S
C8 H35 0.930 . S
C9 C5 1.387 . S
C9 C8 1.391 . S
C10 Tb0 2.825 . S
C10 C4 1.507 . S
C10 O23 1.238 . S
C10 O24 1.247 . S
O11 Tb0 2.347 . S
O11 C15 1.259 1_655 S
O12 Eu1 2.418 . S
O12 C15 1.265 . S
O13 Eu1 2.384 . S
O13 C22 1.255 . S
O14 Tb0 2.366 1_455 S
O14 C22 1.265 . S
C15 O11 1.259 1_455 S
C15 O12 1.265 . S
O16 Eu1 2.479 . S
O16 C31 1.238 . S
O17 Eu1 2.471 . S
O17 C31 1.247 . S
O18 Eu1 2.347 . S
O18 C2 1.259 1_455 S
O19 Tb0 2.418 . S
O19 C2 1.265 . S
O20 Tb0 2.384 . S
O20 C3 1.255 . S
O21 Eu1 2.366 1_655 S
O21 C3 1.265 . S
C22 O13 1.255 . S
C22 O14 1.265 . S
O23 Tb0 2.479 . S
O23 C10 1.238 . S
O24 Tb0 2.471 . S
O24 C10 1.247 . S
C25 C28 1.380 . S
C25 C29 1.374 . S
C25 C31 1.507 . S
C26 C27 1.387 . S
C26 C30 1.391 . S
C27 C26 1.387 . S
C27 C28 1.384 . S
C27 H36 0.930 . S
C28 C25 1.380 . S
C28 C27 1.384 . S
C28 H37 0.931 . S
C29 C25 1.374 . S
C29 C30 1.390 . S
C29 H38 0.930 . S
C30 C26 1.391 . S
C30 C29 1.390 . S
C30 H39 0.930 . S
C31 Eu1 2.825 . S
C31 O16 1.238 . S
C31 O17 1.247 . S
C31 C25 1.507 . S
H32 C5 0.930 . S
H33 C6 0.931 . S
H34 C7 0.930 . S
H35 C8 0.930 . S
H36 C27 0.930 . S
H37 C28 0.931 . S
H38 C29 0.930 . S
H39 C30 0.930 . S
Tb40 C50 2.825 . S
Tb40 O51 2.347 . S
Tb40 O54 2.366 . S
Tb40 O59 2.418 . S
Tb40 O60 2.384 . S
Tb40 O63 2.479 . S
Tb40 O64 2.471 . S
Eu41 O52 2.418 . S
Eu41 O53 2.384 . S
Eu41 O56 2.479 . S
Eu41 O57 2.471 . S
Eu41 O58 2.347 . S
Eu41 O61 2.366 1_565 S
Eu41 C71 2.825 . S
C42 O58 1.259 1_545 S
C42 O59 1.265 . S
C43 O60 1.255 . S
C43 O61 1.265 . S
C44 C46 1.380 . S
C44 C47 1.374 . S
C44 C50 1.507 . S
C45 C46 1.384 . S
C45 C49 1.387 . S
C45 H72 0.930 . S
C46 C44 1.380 . S
C46 C45 1.384 . S
C46 H73 0.931 . S
C47 C44 1.374 . S
C47 C48 1.390 . S
C47 H74 0.930 . S
C48 C47 1.390 . S
C48 C49 1.391 . S
C48 H75 0.930 . S
C49 C45 1.387 . S
C49 C48 1.391 . S
C50 Tb40 2.825 . S
C50 C44 1.507 . S
C50 O63 1.238 . S
C50 O64 1.247 . S
O51 Tb40 2.347 . S
O51 C55 1.259 1_545 S
O52 Eu41 2.418 . S
O52 C55 1.265 . S
O53 Eu41 2.384 . S
O53 C62 1.255 . S
O54 Tb40 2.366 . S
O54 C62 1.265 1_545 S
C55 O51 1.259 1_565 S
C55 O52 1.265 . S
O56 Eu41 2.479 . S
O56 C71 1.238 . S
O57 Eu41 2.471 . S
O57 C71 1.247 . S
O58 Eu41 2.347 . S
O58 C42 1.259 1_565 S
O59 Tb40 2.418 . S
O59 C42 1.265 . S
O60 Tb40 2.384 . S
O60 C43 1.255 . S
O61 Eu41 2.366 1_545 S
O61 C43 1.265 . S
C62 O53 1.255 . S
C62 O54 1.265 1_565 S
O63 Tb40 2.479 . S
O63 C50 1.238 . S
O64 Tb40 2.471 . S
O64 C50 1.247 . S
C65 C68 1.380 . S
C65 C69 1.374 . S
C65 C71 1.507 . S
C66 C67 1.387 . S
C66 C70 1.391 . S
C67 C66 1.387 . S
C67 C68 1.384 . S
C67 H76 0.930 . S
C68 C65 1.380 . S
C68 C67 1.384 . S
C68 H77 0.931 . S
C69 C65 1.374 . S
C69 C70 1.390 . S
C69 H78 0.930 . S
C70 C66 1.391 . S
C70 C69 1.390 . S
C70 H79 0.930 . S
C71 Eu41 2.825 . S
C71 O56 1.238 . S
C71 O57 1.247 . S
C71 C65 1.507 . S
H72 C45 0.930 . S
H73 C46 0.931 . S
H74 C47 0.930 . S
H75 C48 0.930 . S
H76 C67 0.930 . S
H77 C68 0.931 . S
H78 C69 0.930 . S
H79 C70 0.930 . S
Tb80 C90 2.825 . S
Tb80 O91 2.347 . S
Tb80 O94 2.366 . S
Tb80 O99 2.420 . S
Tb80 O100 2.384 . S
Tb80 O103 2.479 . S
Tb80 O104 2.471 . S
Eu81 O92 2.418 . S
Eu81 O93 2.384 . S
Eu81 O96 2.479 . S
Eu81 O97 2.471 . S
Eu81 O98 2.347 . S
Eu81 O101 2.366 . S
Eu81 C111 2.825 . S
C82 O98 1.259 . S
C82 O99 1.272 . S
C83 O100 1.255 . S
C83 O101 1.265 . S
C84 C86 1.380 . S
C84 C87 1.374 . S
C84 C90 1.507 . S
C85 C86 1.384 1_545 S
C85 C89 1.387 1_545 S
C85 H112 0.930 . S
C86 C84 1.380 . S
C86 C85 1.384 1_565 S
C86 H113 0.931 1_565 S
C87 C84 1.374 . S
C87 C88 1.390 . S
C87 H114 0.930 . S
C88 C87 1.390 . S
C88 C89 1.391 . S
C88 H115 0.930 . S
C89 C85 1.387 1_565 S
C89 C88 1.391 . S
C90 Tb80 2.825 . S
C90 C84 1.507 . S
C90 O103 1.238 . S
C90 O104 1.247 . S
O91 Tb80 2.347 . S
O91 C95 1.259 . S
O92 Eu81 2.418 . S
O92 C95 1.265 . S
O93 Eu81 2.384 . S
O93 C102 1.255 . S
O94 Tb80 2.366 . S
O94 C102 1.265 . S
C95 O91 1.259 . S
C95 O92 1.265 . S
O96 Eu81 2.479 . S
O96 C111 1.238 . S
O97 Eu81 2.471 . S
O97 C111 1.247 . S
O98 Eu81 2.347 . S
O98 C82 1.259 . S
O99 Tb80 2.420 . S
O99 C82 1.272 . S
O100 Tb80 2.384 . S
O100 C83 1.255 . S
O101 Eu81 2.366 . S
O101 C83 1.265 . S
C102 O93 1.255 . S
C102 O94 1.265 . S
O103 Tb80 2.479 . S
O103 C90 1.238 . S
O104 Tb80 2.471 . S
O104 C90 1.247 . S
C105 C108 1.380 . S
C105 C109 1.374 . S
C105 C111 1.507 . S
C106 C107 1.387 . S
C106 C110 1.391 . S
C107 C106 1.387 . S
C107 C108 1.384 . S
C107 H116 0.930 . S
C108 C105 1.380 . S
C108 C107 1.384 . S
C108 H117 0.931 . S
C109 C105 1.374 . S
C109 C110 1.390 . S
C109 H118 0.930 . S
C110 C106 1.391 . S
C110 C109 1.390 . S
C110 H119 0.930 1_655 S
C111 Eu81 2.825 . S
C111 O96 1.238 . S
C111 O97 1.247 . S
C111 C105 1.507 . S
H112 C85 0.930 . S
H113 C86 0.931 1_545 S
H114 C87 0.930 . S
H115 C88 0.930 . S
H116 C107 0.930 . S
H117 C108 0.931 . S
H118 C109 0.930 . S
H119 C110 0.930 1_455 S
H120 C128 0.929 . S
H121 C130 0.930 . S
H122 C132 0.930 1_545 S
H123 C135 0.929 . S
H124 C138 0.930 . S
H125 C140 0.960 . S
H126 C140 0.960 . S
H127 C140 0.960 1_455 S
C128 H120 0.929 . S
C128 C129 1.377 1_655 S
C128 C130 1.384 . S
C129 C128 1.377 1_455 S
C129 C135 1.390 . S
C130 H121 0.930 . S
C130 C128 1.384 . S
C130 C131 1.374 . S
C131 C130 1.374 . S
C131 C132 1.395 1_655 S
C131 C136 1.492 1_565 S
C132 H122 0.930 1_565 S
C132 C131 1.395 1_455 S
C132 C135 1.386 . S
H133 C149 0.930 . S
H134 C150 0.931 . S
C135 H123 0.929 . S
C135 C129 1.390 . S
C135 C132 1.386 . S
C136 C131 1.492 1_545 S
C136 C138 1.395 . S
C136 C139 1.403 . S
H137 C143 0.930 . S
C138 H124 0.930 . S
C138 C136 1.395 . S
C138 C141 1.403 . S
C139 C136 1.403 . S
C139 C140 1.524 . S
C139 C143 1.400 . S
C140 H125 0.960 . S
C140 H126 0.960 . S
C140 H127 0.960 1_655 S
C140 C139 1.524 . S
C141 C138 1.403 . S
C141 C142 1.392 . S
C141 C145 1.495 . S
C142 C141 1.392 . S
C142 C143 1.385 . S
C142 C144 1.478 . S
C143 H137 0.930 . S
C143 C139 1.400 . S
C143 C142 1.385 . S
C144 C142 1.478 . S
C144 C146 1.381 . S
C144 C150 1.383 1_655 S
C145 C141 1.495 . S
C145 H151 0.959 . S
C145 H152 0.961 1_655 S
C145 H153 0.960 . S
C146 C144 1.381 . S
C146 C147 1.394 . S
C146 H154 0.930 . S
C147 C146 1.394 . S
C147 C148 1.383 . S
C147 H155 0.929 . S
C148 C147 1.383 . S
C148 C149 1.377 1_655 S
C149 H133 0.930 . S
C149 C148 1.377 1_455 S
C149 C150 1.379 . S
C150 H134 0.931 . S
C150 C144 1.383 1_455 S
C150 C149 1.379 . S
H151 C145 0.959 . S
H152 C145 0.961 1_455 S
H153 C145 0.960 . S
H154 C146 0.930 . S
H155 C147 0.929 . S
H156 C164 0.929 . S
H157 C166 0.930 . S
H158 C168 0.930 . S
H159 C171 0.929 . S
H160 C174 0.930 . S
H161 C176 0.960 . S
H162 C176 0.960 1_545 S
H163 C176 0.960 . S
C164 H156 0.929 . S
C164 C165 1.377 . S
C164 C166 1.384 . S
C165 C164 1.377 . S
C165 C171 1.390 1_545 S
C166 H157 0.930 . S
C166 C164 1.384 . S
C166 C167 1.372 . S
C167 C166 1.372 . S
C167 C168 1.400 1_545 S
C167 C172 1.490 . S
C168 H158 0.930 . S
C168 C167 1.400 1_565 S
C168 C171 1.386 . S
H169 C185 0.930 . S
H170 C186 0.931 . S
C171 H159 0.929 . S
C171 C165 1.390 1_565 S
C171 C168 1.386 . S
C172 C167 1.490 . S
C172 C174 1.395 . S
C172 C175 1.403 1_545 S
H173 C179 0.930 . S
C174 H160 0.930 . S
C174 C172 1.395 . S
C174 C177 1.403 . S
C175 C172 1.403 1_565 S
C175 C176 1.524 . S
C175 C179 1.400 . S
C176 H161 0.960 . S
C176 H162 0.960 1_565 S
C176 H163 0.960 . S
C176 C175 1.524 . S
C177 C174 1.403 . S
C177 C178 1.392 . S
C177 C181 1.495 . S
C178 C177 1.392 . S
C178 C179 1.385 1_545 S
C178 C180 1.478 . S
C179 H173 0.930 . S
C179 C175 1.400 . S
C179 C178 1.385 1_565 S
C180 C178 1.478 . S
C180 C182 1.381 . S
C180 C186 1.383 1_445 S
C181 C177 1.495 . S
C181 H187 0.959 . S
C181 H188 0.961 . S
C181 H189 0.960 . S
C182 C180 1.381 . S
C182 C183 1.394 1_455 S
C182 H190 0.930 . S
C183 C182 1.394 1_655 S
C183 C184 1.384 1_545 S
C183 H191 0.929 . S
C184 C183 1.384 1_565 S
C184 C185 1.376 . S
C185 H169 0.930 . S
C185 C184 1.376 . S
C185 C186 1.379 . S
C186 H170 0.931 . S
C186 C180 1.383 1_665 S
C186 C185 1.379 . S
H187 C181 0.959 . S
H188 C181 0.961 . S
H189 C181 0.960 . S
H190 C182 0.930 . S
H191 C183 0.929 . S
H192 C200 0.929 1_655 S
H193 C202 0.930 . S
H194 C204 0.930 . S
H195 C207 0.929 . S
H196 C210 0.930 . S
H197 C212 0.960 . S
H198 C212 0.960 . S
H199 C212 0.960 . S
C200 H192 0.929 1_455 S
C200 C201 1.377 1_455 S
C200 C202 1.384 . S
C201 C200 1.377 1_655 S
C201 C207 1.390 1_655 S
C202 H193 0.930 . S
C202 C200 1.384 . S
C202 C203 1.372 . S
C203 C202 1.372 . S
C203 C204 1.400 . S
C203 C208 1.490 . S
C204 H194 0.930 . S
C204 C203 1.400 . S
C204 C207 1.386 . S
H205 C221 0.930 . S
H206 C222 0.931 . S
C207 H195 0.929 . S
C207 C201 1.390 1_455 S
C207 C204 1.386 . S
C208 C203 1.490 . S
C208 C210 1.395 . S
C208 C211 1.403 . S
H209 C215 0.930 . S
C210 H196 0.930 . S
C210 C208 1.395 . S
C210 C213 1.403 . S
C211 C208 1.403 . S
C211 C212 1.524 . S
C211 C215 1.400 . S
C212 H197 0.960 . S
C212 H198 0.960 . S
C212 H199 0.960 . S
C212 C211 1.524 . S
C213 C210 1.403 . S
C213 C214 1.392 . S
C213 C217 1.495 . S
C214 C213 1.392 . S
C214 C215 1.385 . S
C214 C216 1.478 . S
C215 H209 0.930 . S
C215 C211 1.400 . S
C215 C214 1.385 . S
C216 C214 1.478 . S
C216 C218 1.381 . S
C216 C222 1.383 . S
C217 C213 1.495 . S
C217 H223 0.959 . S
C217 H224 0.961 . S
C217 H225 0.960 . S
C218 C216 1.381 . S
C218 C219 1.394 . S
C218 H226 0.930 . S
C219 C218 1.394 . S
C219 C220 1.383 . S
C219 H227 0.929 . S
C220 C219 1.383 . S
C220 C221 1.377 . S
C221 H205 0.930 . S
C221 C220 1.377 . S
C221 C222 1.379 . S
C222 H206 0.931 . S
C222 C216 1.383 . S
C222 C221 1.379 . S
H223 C217 0.959 . S
H224 C217 0.961 . S
H225 C217 0.960 . S
H226 C218 0.930 . S
H227 C219 0.929 . S
H228 C236 0.929 . S
H229 C238 0.930 . S
H230 C240 0.930 . S
H231 C243 0.929 . S
H232 C246 0.930 . S
H233 C248 0.960 . S
H234 C248 0.960 . S
H235 C248 0.960 . S
C236 H228 0.929 . S
C236 C237 1.377 . S
C236 C238 1.384 . S
C237 C236 1.377 . S
C237 C243 1.390 . S
C238 H229 0.930 . S
C238 C236 1.384 . S
C238 C239 1.372 . S
C239 C238 1.372 . S
C239 C240 1.400 . S
C239 C244 1.490 . S
C240 H230 0.930 . S
C240 C239 1.400 . S
C240 C243 1.386 . S
H241 C257 0.930 . S
H242 C258 0.931 . S
C243 H231 0.929 . S
C243 C237 1.390 . S
C243 C240 1.386 . S
C244 C239 1.490 . S
C244 C246 1.395 . S
C244 C247 1.403 . S
H245 C251 0.930 1_544 S
C246 H232 0.930 . S
C246 C244 1.395 . S
C246 C249 1.403 . S
C247 C244 1.403 . S
C247 C248 1.524 1_565 S
C247 C251 1.400 . S
C248 H233 0.960 . S
C248 H234 0.960 . S
C248 H235 0.960 . S
C248 C247 1.524 1_545 S
C249 C246 1.403 . S
C249 C250 1.392 . S
C249 C253 1.495 . S
C250 C249 1.392 . S
C250 C251 1.385 . S
C250 C252 1.478 1_556 S
C251 H245 0.930 1_566 S
C251 C247 1.400 . S
C251 C250 1.385 . S
C252 C250 1.478 1_554 S
C252 C254 1.381 . S
C252 C258 1.383 . S
C253 C249 1.495 . S
C253 H259 0.959 . S
C253 H260 0.961 1_556 S
C253 H261 0.960 . S
C254 C252 1.381 . S
C254 C255 1.394 . S
C254 H262 0.930 1_554 S
C255 C254 1.394 . S
C255 C256 1.383 . S
C255 H263 0.929 . S
C256 C255 1.383 . S
C256 C257 1.377 . S
C257 H241 0.930 . S
C257 C256 1.377 . S
C257 C258 1.379 . S
C258 H242 0.931 . S
C258 C252 1.383 . S
C258 C257 1.379 . S
H259 C253 0.959 . S
H260 C253 0.961 1_554 S
H261 C253 0.960 . S
H262 C254 0.930 1_556 S
H263 C255 0.929 . S
H264 C272 0.929 . S
H265 C274 0.930 . S
H266 C276 0.930 . S
H267 C279 0.929 . S
H268 C282 0.930 . S
H269 C284 0.960 . S
H270 C284 0.960 . S
H271 C284 0.960 . S
C272 H264 0.929 . S
C272 C273 1.377 . S
C272 C274 1.384 . S
C273 C272 1.377 . S
C273 C279 1.390 . S
C274 H265 0.930 . S
C274 C272 1.384 . S
C274 C275 1.372 . S
C275 C274 1.372 . S
C275 C276 1.400 . S
C275 C280 1.490 . S
C276 H266 0.930 . S
C276 C275 1.400 . S
C276 C279 1.386 . S
H277 C293 0.930 . S
H278 C294 0.931 . S
C279 H267 0.929 . S
C279 C273 1.390 . S
C279 C276 1.386 . S
C280 C275 1.490 . S
C280 C282 1.395 . S
C280 C283 1.403 . S
H281 C287 0.930 . S
C282 H268 0.930 . S
C282 C280 1.395 . S
C282 C285 1.403 . S
C283 C280 1.403 . S
C283 C284 1.524 . S
C283 C287 1.400 . S
C284 H269 0.960 . S
C284 H270 0.960 . S
C284 H271 0.960 . S
C284 C283 1.524 . S
C285 C282 1.403 . S
C285 C286 1.392 . S
C285 C289 1.495 . S
C286 C285 1.392 . S
C286 C287 1.385 . S
C286 C288 1.478 . S
C287 H281 0.930 . S
C287 C283 1.400 . S
C287 C286 1.385 . S
C288 C286 1.478 . S
C288 C290 1.381 . S
C288 C294 1.383 . S
C289 C285 1.495 . S
C289 H295 0.959 . S
C289 H296 0.961 . S
C289 H297 0.960 . S
C290 C288 1.381 . S
C290 C291 1.394 . S
C290 H298 0.930 . S
C291 C290 1.394 . S
C291 C292 1.383 . S
C291 H299 0.929 . S
C292 C291 1.383 . S
C292 C293 1.377 . S
C293 H277 0.930 . S
C293 C292 1.377 . S
C293 C294 1.379 . S
C294 H278 0.931 . S
C294 C288 1.383 . S
C294 C293 1.379 . S
H295 C289 0.959 . S
H296 C289 0.961 . S
H297 C289 0.960 . S
H298 C290 0.930 . S
H299 C291 0.929 . S
H300 C308 0.929 . S
H301 C310 0.930 . S
H302 C312 0.930 . S
H303 C315 0.929 . S
H304 C318 0.930 1_545 S
H305 C320 0.960 . S
H306 C320 0.960 . S
H307 C320 0.960 . S
C308 H300 0.929 . S
C308 C309 1.377 . S
C308 C310 1.384 . S
C309 C308 1.377 . S
C309 C315 1.390 . S
C310 H301 0.930 . S
C310 C308 1.384 . S
C310 C311 1.372 . S
C311 C310 1.372 . S
C311 C312 1.400 . S
C311 C316 1.490 . S
C312 H302 0.930 . S
C312 C311 1.400 . S
C312 C315 1.386 . S
H313 C329 0.930 . S
H314 C330 0.931 . S
C315 H303 0.929 . S
C315 C309 1.390 . S
C315 C312 1.386 . S
C316 C311 1.490 . S
C316 C318 1.395 . S
C316 C319 1.403 . S
H317 C323 0.930 . S
C318 H304 0.930 1_565 S
C318 C316 1.395 . S
C318 C321 1.403 . S
C319 C316 1.403 . S
C319 C320 1.524 . S
C319 C323 1.400 . S
C320 H305 0.960 . S
C320 H306 0.960 . S
C320 H307 0.960 . S
C320 C319 1.524 . S
C321 C318 1.403 . S
C321 C322 1.392 . S
C321 C325 1.495 1_565 S
C322 C321 1.392 . S
C322 C323 1.385 . S
C322 C324 1.478 . S
C323 H317 0.930 . S
C323 C319 1.400 . S
C323 C322 1.385 . S
C324 C322 1.478 . S
C324 C326 1.381 . S
C324 C330 1.383 . S
C325 C321 1.495 1_545 S
C325 H331 0.959 . S
C325 H332 0.961 . S
C325 H333 0.960 . S
C326 C324 1.381 . S
C326 C327 1.394 . S
C326 H334 0.930 . S
C327 C326 1.394 . S
C327 C328 1.383 . S
C327 H335 0.929 . S
C328 C327 1.383 . S
C328 C329 1.377 . S
C329 H313 0.930 . S
C329 C328 1.377 . S
C329 C330 1.379 . S
C330 H314 0.931 . S
C330 C324 1.383 . S
C330 C329 1.379 . S
H331 C325 0.959 . S
H332 C325 0.961 . S
H333 C325 0.960 . S
H334 C326 0.930 . S
H335 C327 0.929 . S
H336 C344 0.929 . S
H337 C346 0.930 . S
H338 C348 0.930 . S
H339 C351 0.929 . S
H340 C354 0.930 . S
H341 C356 0.960 . S
H342 C356 0.960 . S
H343 C356 0.960 . S
C344 H336 0.929 . S
C344 C345 1.377 . S
C344 C346 1.384 . S
C345 C344 1.377 . S
C345 C351 1.390 . S
C346 H337 0.930 . S
C346 C344 1.384 . S
C346 C347 1.372 . S
C347 C346 1.372 . S
C347 C348 1.400 . S
C347 C352 1.490 . S
C348 H338 0.930 . S
C348 C347 1.400 . S
C348 C351 1.386 . S
H349 C365 0.930 1_455 S
H350 C366 0.931 . S
C351 H339 0.929 . S
C351 C345 1.390 . S
C351 C348 1.386 . S
C352 C347 1.490 . S
C352 C354 1.395 . S
C352 C355 1.403 . S
H353 C359 0.930 . S
C354 H340 0.930 . S
C354 C352 1.395 . S
C354 C357 1.403 1_556 S
C355 C352 1.403 . S
C355 C356 1.524 . S
C355 C359 1.400 1_556 S
C356 H341 0.960 . S
C356 H342 0.960 . S
C356 H343 0.960 . S
C356 C355 1.524 . S
C357 C354 1.403 1_554 S
C357 C358 1.392 . S
C357 C361 1.495 . S
C358 C357 1.392 . S
C358 C359 1.385 . S
C358 C360 1.478 . S
C359 H353 0.930 . S
C359 C355 1.400 1_554 S
C359 C358 1.385 . S
C360 C358 1.478 . S
C360 C362 1.381 . S
C360 C366 1.383 . S
C361 C357 1.495 . S
C361 H367 0.959 . S
C361 H368 0.961 . S
C361 H369 0.960 . S
C362 C360 1.381 . S
C362 C363 1.394 . S
C362 H370 0.930 . S
C363 C362 1.394 . S
C363 C364 1.383 . S
C363 H371 0.929 . S
C364 C363 1.383 . S
C364 C365 1.377 . S
C365 H349 0.930 1_655 S
C365 C364 1.377 . S
C365 C366 1.379 . S
C366 H350 0.931 . S
C366 C360 1.383 . S
C366 C365 1.379 . S
H367 C361 0.959 . S
H368 C361 0.961 . S
H369 C361 0.960 . S
H370 C362 0.930 . S
H371 C363 0.929 . S
H372 C380 0.929 . S
H373 C382 0.930 . S
H374 C384 0.930 . S
H375 C387 0.929 . S
H376 C390 0.930 . S
H377 C392 0.960 . S
H378 C392 0.960 . S
H379 C392 0.960 . S
C380 H372 0.929 . S
C380 C381 1.377 . S
C380 C382 1.384 . S
C381 C380 1.377 . S
C381 C387 1.390 . S
C382 H373 0.930 . S
C382 C380 1.384 . S
C382 C383 1.372 . S
C383 C382 1.372 . S
C383 C384 1.400 . S
C383 C388 1.490 . S
C384 H374 0.930 . S
C384 C383 1.400 . S
C384 C387 1.386 . S
H385 C401 0.930 . S
H386 C402 0.931 . S
C387 H375 0.929 . S
C387 C381 1.390 . S
C387 C384 1.386 . S
C388 C383 1.490 . S
C388 C390 1.395 . S
C388 C391 1.403 . S
H389 C395 0.930 . S
C390 H376 0.930 . S
C390 C388 1.395 . S
C390 C393 1.403 . S
C391 C388 1.403 . S
C391 C392 1.524 . S
C391 C395 1.400 . S
C392 H377 0.960 . S
C392 H378 0.960 . S
C392 H379 0.960 . S
C392 C391 1.524 . S
C393 C390 1.403 . S
C393 C394 1.392 . S
C393 C397 1.495 . S
C394 C393 1.392 . S
C394 C395 1.385 . S
C394 C396 1.478 . S
C395 H389 0.930 . S
C395 C391 1.400 . S
C395 C394 1.385 . S
C396 C394 1.478 . S
C396 C398 1.381 . S
C396 C402 1.383 . S
C397 C393 1.495 . S
C397 H403 0.959 . S
C397 H404 0.961 . S
C397 H405 0.960 . S
C398 C396 1.381 . S
C398 C399 1.394 . S
C398 H406 0.930 . S
C399 C398 1.394 . S
C399 C400 1.383 . S
C399 H407 0.929 . S
C400 C399 1.383 . S
C400 C401 1.377 . S
C401 H385 0.930 . S
C401 C400 1.377 . S
C401 C402 1.379 . S
C402 H386 0.931 . S
C402 C396 1.383 . S
C402 C401 1.379 . S
H403 C397 0.959 . S
H404 C397 0.961 . S
H405 C397 0.960 . S
H406 C398 0.930 . S
H407 C399 0.929 . S
H408 C416 0.929 . S
H409 C418 0.930 . S
H410 C420 0.930 . S
H411 C423 0.929 . S
H412 C426 0.930 . S
H413 C428 0.960 . S
H414 C428 0.960 . S
H415 C428 0.960 . S
C416 H408 0.929 . S
C416 C417 1.377 . S
C416 C418 1.384 . S
C417 C416 1.377 . S
C417 C423 1.390 1_655 S
C418 H409 0.930 . S
C418 C416 1.384 . S
C418 C419 1.372 . S
C419 C418 1.372 . S
C419 C420 1.400 1_655 S
C419 C424 1.490 . S
C420 H410 0.930 . S
C420 C419 1.400 1_455 S
C420 C423 1.386 . S
H421 C437 0.930 . S
H422 C438 0.931 . S
C423 H411 0.929 . S
C423 C417 1.390 1_455 S
C423 C420 1.386 . S
C424 C419 1.490 . S
C424 C426 1.395 . S
C424 C427 1.403 . S
H425 C431 0.930 1_455 S
C426 H412 0.930 . S
C426 C424 1.395 . S
C426 C429 1.403 . S
C427 C424 1.403 . S
C427 C428 1.524 1_655 S
C427 C431 1.400 . S
C428 H413 0.960 . S
C428 H414 0.960 . S
C428 H415 0.960 . S
C428 C427 1.524 1_455 S
C429 C426 1.403 . S
C429 C430 1.392 . S
C429 C433 1.495 . S
C430 C429 1.392 . S
C430 C431 1.385 . S
C430 C432 1.478 . S
C431 H425 0.930 1_655 S
C431 C427 1.400 . S
C431 C430 1.385 . S
C432 C430 1.478 . S
C432 C434 1.381 . S
C432 C438 1.383 . S
C433 C429 1.495 . S
C433 H439 0.959 . S
C433 H440 0.961 . S
C433 H441 0.960 . S
C434 C432 1.381 . S
C434 C435 1.394 . S
C434 H442 0.930 . S
C435 C434 1.394 . S
C435 C436 1.383 . S
C435 H443 0.929 . S
C436 C435 1.383 . S
C436 C437 1.377 . S
C437 H421 0.930 . S
C437 C436 1.377 . S
C437 C438 1.379 . S
C438 H422 0.931 . S
C438 C432 1.383 . S
C438 C437 1.379 . S
H439 C433 0.959 . S
H440 C433 0.961 . S
H441 C433 0.960 . S
H442 C434 0.930 . S
H443 C435 0.929 . S
C129 C2 1.338 1_455 S
C148 C15 1.358 1_655 S
C165 C55 1.414 1_545 S
C184 C42 1.405 1_565 S
C201 C82 1.203 1_545 S
C220 C95 1.221 . S
C237 C89 0.903 . S
C256 C26 0.866 . S
C273 C43 1.726 . S
C292 C9 1.697 . S
C309 C83 2.243 . S
C328 C62 2.214 . S
C345 C102 2.186 . S
C364 C3 2.156 . S
C381 C22 1.609 . S
C400 C66 1.540 . S
C417 C106 0.919 . S
C436 C49 0.930 . S
