# Generated by pormake.
# Topology wme, (6)-cn, num edge types: 1
# Building blocks:
#     Node 0, Type 0, BuildingBlock: NUHQIS_clean_sbu_0, # of connection points: 6
#     Node 1, Type 0, BuildingBlock: NUHQIS_clean_sbu_0, # of connection points: 6
#     Node 2, Type 0, BuildingBlock: NUHQIS_clean_sbu_0, # of connection points: 6
#     Node 3, Type 0, BuildingBlock: NUHQIS_clean_sbu_0, # of connection points: 6
#     Node 4, Type 0, BuildingBlock: NUHQIS_clean_sbu_0, # of connection points: 6
#     Node 5, Type 0, BuildingBlock: NUHQIS_clean_sbu_0, # of connection points: 6
#     Node 6, Type 0, BuildingBlock: NUHQIS_clean_sbu_0, # of connection points: 6
#     Node 7, Type 0, BuildingBlock: NUHQIS_clean_sbu_0, # of connection points: 6
#     Node 8, Type 0, BuildingBlock: NUHQIS_clean_sbu_0, # of connection points: 6
#     Node 9, Type 0, BuildingBlock: NUHQIS_clean_sbu_0, # of connection points: 6
#     Node 10, Type 0, BuildingBlock: NUHQIS_clean_sbu_0, # of connection points: 6
#     Node 11, Type 0, BuildingBlock: NUHQIS_clean_sbu_0, # of connection points: 6
#     Edge 12, Type (0, 0), BuildingBlock: XUDNAN_clean_linker_2, # of connection points: 2
#     Edge 13, Type (0, 0), BuildingBlock: XUDNAN_clean_linker_2, # of connection points: 2
#     Edge 14, Type (0, 0), BuildingBlock: XUDNAN_clean_linker_2, # of connection points: 2
#     Edge 15, Type (0, 0), BuildingBlock: XUDNAN_clean_linker_2, # of connection points: 2
#     Edge 16, Type (0, 0), BuildingBlock: XUDNAN_clean_linker_2, # of connection points: 2
#     Edge 17, Type (0, 0), BuildingBlock: XUDNAN_clean_linker_2, # of connection points: 2
#     Edge 18, Type (0, 0), BuildingBlock: XUDNAN_clean_linker_2, # of connection points: 2
#     Edge 19, Type (0, 0), BuildingBlock: XUDNAN_clean_linker_2, # of connection points: 2
#     Edge 20, Type (0, 0), BuildingBlock: XUDNAN_clean_linker_2, # of connection points: 2
#     Edge 21, Type (0, 0), BuildingBlock: XUDNAN_clean_linker_2, # of connection points: 2
#     Edge 22, Type (0, 0), BuildingBlock: XUDNAN_clean_linker_2, # of connection points: 2
#     Edge 23, Type (0, 0), BuildingBlock: XUDNAN_clean_linker_2, # of connection points: 2
#     Edge 24, Type (0, 0), BuildingBlock: XUDNAN_clean_linker_2, # of connection points: 2
#     Edge 25, Type (0, 0), BuildingBlock: XUDNAN_clean_linker_2, # of connection points: 2
#     Edge 26, Type (0, 0), BuildingBlock: XUDNAN_clean_linker_2, # of connection points: 2
#     Edge 27, Type (0, 0), BuildingBlock: XUDNAN_clean_linker_2, # of connection points: 2
#     Edge 28, Type (0, 0), BuildingBlock: XUDNAN_clean_linker_2, # of connection points: 2
#     Edge 29, Type (0, 0), BuildingBlock: XUDNAN_clean_linker_2, # of connection points: 2
#     Edge 30, Type (0, 0), BuildingBlock: XUDNAN_clean_linker_2, # of connection points: 2
#     Edge 31, Type (0, 0), BuildingBlock: XUDNAN_clean_linker_2, # of connection points: 2
#     Edge 32, Type (0, 0), BuildingBlock: XUDNAN_clean_linker_2, # of connection points: 2
#     Edge 33, Type (0, 0), BuildingBlock: XUDNAN_clean_linker_2, # of connection points: 2
#     Edge 34, Type (0, 0), BuildingBlock: XUDNAN_clean_linker_2, # of connection points: 2
#     Edge 35, Type (0, 0), BuildingBlock: XUDNAN_clean_linker_2, # of connection points: 2
#     Edge 36, Type (0, 0), BuildingBlock: XUDNAN_clean_linker_2, # of connection points: 2
#     Edge 37, Type (0, 0), BuildingBlock: XUDNAN_clean_linker_2, # of connection points: 2
#     Edge 38, Type (0, 0), BuildingBlock: XUDNAN_clean_linker_2, # of connection points: 2
#     Edge 39, Type (0, 0), BuildingBlock: XUDNAN_clean_linker_2, # of connection points: 2
#     Edge 40, Type (0, 0), BuildingBlock: XUDNAN_clean_linker_2, # of connection points: 2
#     Edge 41, Type (0, 0), BuildingBlock: XUDNAN_clean_linker_2, # of connection points: 2
#     Edge 42, Type (0, 0), BuildingBlock: XUDNAN_clean_linker_2, # of connection points: 2
#     Edge 43, Type (0, 0), BuildingBlock: XUDNAN_clean_linker_2, # of connection points: 2
#     Edge 44, Type (0, 0), BuildingBlock: XUDNAN_clean_linker_2, # of connection points: 2
#     Edge 45, Type (0, 0), BuildingBlock: XUDNAN_clean_linker_2, # of connection points: 2
#     Edge 46, Type (0, 0), BuildingBlock: XUDNAN_clean_linker_2, # of connection points: 2
#     Edge 47, Type (0, 0), BuildingBlock: XUDNAN_clean_linker_2, # of connection points: 2
# Relax obj value: 0.087
# Max RMSD: 0.188
# Mean RMSD: 0.188
data_MOF--net-wme--node1-NUHQIS_clean_sbu_0--edge1-XUDNAN_clean_linker_2
_symmetry_space_group_name_H-M    P1
_symmetry_Int_Tables_number       1
_symmetry_cell_setting            triclinic
loop_
_symmetry_equiv_pos_as_xyz
'x, y, z'
_cell_length_a     40.170492
_cell_length_b     40.184325
_cell_length_c     53.092152
_cell_angle_alpha  90.035848
_cell_angle_beta   90.105396
_cell_angle_gamma 120.20371
loop_
_atom_site_label
_atom_site_type_symbol
_atom_site_fract_x
_atom_site_fract_y
_atom_site_fract_z
_atom_type_partial_charge
Tb0 Tb 0.22705 0.38479 0.10705 0.0
Eu1 Eu 0.2534 0.32444 0.12863 0.0
C2 C 0.25362 0.34041 0.07148 0.0
C3 C 0.1664 0.29724 0.11406 0.0
C4 C 0.19783 0.46004 0.10041 0.0
C5 C 0.1529 0.48217 0.11011 0.0
C6 C 0.16006 0.45343 0.10165 0.0
C7 C 0.22848 0.49622 0.1078 0.0
C8 C 0.22131 0.52516 0.11613 0.0
C9 C 0.1834 0.51845 0.11737 0.0
C10 C 0.20419 0.42909 0.09066 0.0
O11 O 0.21454 0.38018 0.14746 0.0
O12 O 0.25289 0.35682 0.16259 0.0
O13 O 0.30787 0.38216 0.12198 0.0
O14 O 0.2819 0.42148 0.12529 0.0
C15 C 0.23117 0.37218 0.16608 0.0
O16 O 0.25162 0.28288 0.15574 0.0
O17 O 0.2868 0.29586 0.12225 0.0
O18 O 0.23821 0.31242 0.0878 0.0
O19 O 0.25887 0.37454 0.07732 0.0
O20 O 0.18039 0.32668 0.09855 0.0
O21 O 0.18856 0.29391 0.13084 0.0
C22 C 0.31189 0.41669 0.12444 0.0
O23 O 0.2395 0.43613 0.0885 0.0
O24 O 0.18149 0.39473 0.09954 0.0
C25 C 0.25541 0.23149 0.1366 0.0
C26 C 0.22477 0.15232 0.12597 0.0
C27 C 0.20072 0.1662 0.13429 0.0
C28 C 0.21581 0.20534 0.13941 0.0
C29 C 0.2795 0.21783 0.12833 0.0
C30 C 0.26437 0.17871 0.12299 0.0
C31 C 0.2718 0.27304 0.14156 0.0
H32 H 0.12344 0.47622 0.11039 0.0
H33 H 0.13593 0.42599 0.09582 0.0
H34 H 0.25797 0.5023 0.10704 0.0
H35 H 0.24543 0.55274 0.12173 0.0
H36 H 0.17022 0.14677 0.13717 0.0
H37 H 0.19643 0.21507 0.14558 0.0
H38 H 0.31005 0.23752 0.12581 0.0
H39 H 0.28369 0.16929 0.11622 0.0
Tb40 Tb 0.87795 0.23354 0.61359 0.0
Eu41 Eu 0.95688 0.24573 0.64205 0.0
C42 C 0.95081 0.24645 0.58171 0.0
C43 C 0.88909 0.16301 0.62379 0.0
C44 C 0.77738 0.21523 0.60161 0.0
C45 C 0.72756 0.23146 0.6097 0.0
C46 C 0.7657 0.24268 0.60388 0.0
C47 C 0.75 0.17615 0.60535 0.0
C48 C 0.71169 0.16488 0.6111 0.0
C49 C 0.69992 0.19239 0.61318 0.0
C50 C 0.8177 0.22811 0.59434 0.0
O51 O 0.8691 0.23811 0.65414 0.0
O52 O 0.91076 0.22041 0.67085 0.0
O53 O 0.95067 0.29853 0.64893 0.0
O54 O 0.9235 0.29296 0.61069 0.0
C55 C 0.88156 0.22604 0.67308 0.0
O56 O 0.98569 0.22457 0.66676 0.0
O57 O 1.01849 0.28093 0.64981 0.0
O58 O 0.97269 0.2588 0.60176 0.0
O59 O 0.9131 0.23187 0.58233 0.0
O60 O 0.86548 0.17663 0.62541 0.0
O61 O 0.9267 0.18609 0.62451 0.0
C62 C 0.93978 0.31347 0.63086 0.0
O63 O 0.84428 0.25873 0.60577 0.0
O64 O 0.82787 0.20215 0.59161 0.0
C65 C 0.0483 0.24329 0.65314 0.0
C66 C 0.10167 0.22222 0.63584 0.0
C67 C 0.10003 0.22998 0.66153 0.0
C68 C 0.07357 0.24047 0.67009 0.0
C69 C 0.04939 0.23495 0.62759 0.0
C70 C 0.07585 0.22463 0.619 0.0
C71 C 1.01994 0.25356 0.66214 0.0
H72 H 0.71979 0.25355 0.61155 0.0
H73 H 0.78612 0.27298 0.601 0.0
H74 H 0.75797 0.15421 0.60357 0.0
H75 H 0.69113 0.1345 0.61335 0.0
H76 H 0.11972 0.22874 0.67494 0.0
H77 H 0.07293 0.2465 0.68992 0.0
H78 H 1.02974 0.23644 0.61426 0.0
H79 H 0.07593 0.21833 0.59917 0.0
Tb80 Tb 0.66742 0.85607 0.10979 0.0
Eu81 Eu 0.7296 0.93747 0.13928 0.0
C82 C 0.72498 0.93142 0.07956 0.0
C83 C 0.74756 0.86981 0.12741 0.0
C84 C 0.59153 0.75383 0.09394 0.0
C85 C 0.52965 0.69554 0.08744 0.0
C86 C 0.55564 0.73414 0.08185 0.0
C87 C 0.60117 0.73421 0.11178 0.0
C88 C 0.57519 0.69536 0.11729 0.0
C89 C 0.53897 0.6756 0.10527 0.0
C90 C 0.61743 0.79498 0.08804 0.0
O91 O 0.65207 0.84299 0.14966 0.0
O92 O 0.70124 0.89568 0.17049 0.0
O93 O 0.66944 0.92846 0.14465 0.0
O94 O 0.64698 0.89679 0.1074 0.0
C95 C 0.67031 0.86135 0.17041 0.0
O96 O 0.7794 0.96905 0.16407 0.0
O97 O 0.75406 0.99912 0.14568 0.0
O98 O 0.72833 0.95246 0.09918 0.0
O99 O 0.70801 0.89352 0.08063 0.0
O100 O 0.71027 0.84567 0.12708 0.0
O101 O 0.76137 0.90718 0.12592 0.0
C102 C 0.64284 0.91434 0.12693 0.0
O103 O 0.60975 0.819 0.09949 0.0
O104 O 0.65443 0.80784 0.08723 0.0
C105 C 0.82177 0.03267 0.15077 0.0
C106 C 0.8962 0.09054 0.1356 0.0
C107 C 0.8849 0.08709 0.161 0.0
C108 C 0.84801 0.05845 0.16848 0.0
C109 C 0.83302 0.03559 0.12547 0.0
C110 C 0.86981 0.06429 0.11795 0.0
C111 C 0.78307 1.00245 0.15885 0.0
H112 H 0.50234 0.68118 0.07755 0.0
H113 H 0.54757 0.74874 0.06808 0.0
H114 H 0.62858 0.74895 0.12156 0.0
H115 H 0.58315 0.68099 0.13127 0.0
H116 H 0.90429 0.10701 0.17504 0.0
H117 H 0.83992 0.05655 0.18811 0.0
H118 H 0.81333 1.01569 0.11153 0.0
H119 H 0.87767 0.06572 0.09831 0.0
Tb120 Tb 0.85827 0.67449 0.6103 0.0
Eu121 Eu 0.81523 0.72449 0.62471 0.0
C122 C 0.83465 0.71649 0.57031 0.0
C123 C 0.90674 0.76155 0.62499 0.0
C124 C 0.89404 0.60266 0.60546 0.0
C125 C 0.90899 0.55293 0.59363 0.0
C126 C 0.90289 0.58324 0.58706 0.0
C127 C 0.89072 0.59068 0.63066 0.0
C128 C 0.89685 0.56026 0.63729 0.0
C129 C 0.90641 0.54109 0.61887 0.0
C130 C 0.8908 0.63652 0.59789 0.0
O131 O 0.85815 0.67703 0.65171 0.0
O132 O 0.80882 0.68975 0.65909 0.0
O133 O 0.76837 0.66356 0.6141 0.0
O134 O 0.80158 0.63207 0.62349 0.0
C135 C 0.83296 0.67884 0.66683 0.0
O136 O 0.80511 0.76213 0.64923 0.0
O137 O 0.77883 0.74745 0.61216 0.0
O138 O 0.84459 0.74287 0.5875 0.0
O139 O 0.83098 0.68318 0.57672 0.0
O140 O 0.90281 0.73531 0.60849 0.0
O141 O 0.87694 0.75869 0.63706 0.0
C142 C 0.76923 0.63182 0.61919 0.0
O143 O 0.85795 0.63008 0.58875 0.0
O144 O 0.90591 0.66628 0.61286 0.0
C145 C 0.79762 0.81043 0.62786 0.0
C146 C 0.81392 0.8875 0.62159 0.0
C147 C 0.82911 0.87738 0.64217 0.0
C148 C 0.82095 0.83932 0.64532 0.0
C149 C 0.78332 0.82081 0.60694 0.0
C150 C 0.79143 0.85879 0.60381 0.0
C151 C 0.78633 0.76937 0.63203 0.0
H152 H 0.91681 0.5395 0.5789 0.0
H153 H 0.90589 0.59209 0.56753 0.0
H154 H 0.88388 0.60512 0.64526 0.0
H155 H 0.89403 0.55176 0.65687 0.0
H156 H 0.84619 0.89856 0.65636 0.0
H157 H 0.83229 0.83243 0.66177 0.0
H158 H 0.76522 0.79939 0.59314 0.0
H159 H 0.77969 0.86559 0.58753 0.0
Tb160 Tb 0.20045 0.83222 0.10856 0.0
Eu161 Eu 0.1121 0.79686 0.13197 0.0
C162 C 0.12684 0.78397 0.07609 0.0
C163 C 0.16064 0.88217 0.11214 0.0
C164 C 0.30727 0.86787 0.10056 0.0
C165 C 0.35497 0.84707 0.10263 0.0
C166 C 0.31793 0.8399 0.09619 0.0
C167 C 0.33469 0.90313 0.11143 0.0
C168 C 0.37152 0.91023 0.11792 0.0
C169 C 0.38234 0.8824 0.11358 0.0
C170 C 0.26911 0.86208 0.09233 0.0
O171 O 0.20515 0.82604 0.14903 0.0
O172 O 0.1547 0.83342 0.16176 0.0
O173 O 0.12854 0.75226 0.14234 0.0
O174 O 0.18123 0.772 0.11604 0.0
C175 C 0.18662 0.83318 0.16666 0.0
O176 O 0.07109 0.78888 0.16198 0.0
O177 O 0.05046 0.7669 0.12449 0.0
O178 O 0.11066 0.7658 0.09688 0.0
O179 O 0.15958 0.81707 0.07685 0.0
O180 O 0.1917 0.88033 0.11698 0.0
O181 O 0.12684 0.85087 0.11068 0.0
C182 C 0.15497 0.74674 0.13147 0.0
O183 O 0.24169 0.82741 0.08656 0.0
O184 O 0.25571 0.88063 0.10488 0.0
C185 C 1.01312 0.78621 0.14813 0.0
C186 C 0.95216 0.8025 0.14687 0.0
C187 C 0.95296 0.77735 0.16503 0.0
C188 C 0.98302 0.76927 0.1656 0.0
C189 C 1.01365 0.81293 0.13078 0.0
C190 C 0.98347 0.82108 0.1302 0.0
C191 C 0.04135 0.77282 0.14692 0.0
H192 H 0.36207 0.82481 0.09916 0.0
H193 H 0.2978 0.81257 0.08759 0.0
H194 H 0.32788 0.92568 0.11463 0.0
H195 H 0.39186 0.93804 0.12583 0.0
H196 H 0.92974 0.76307 0.17847 0.0
H197 H 0.98205 0.7487 0.17919 0.0
H198 H 0.03665 0.82645 0.1171 0.0
H199 H 0.98376 0.84049 0.11594 0.0
Tb200 Tb 0.39744 0.20056 0.60377 0.0
Eu201 Eu 0.34606 0.11298 0.6279 0.0
C202 C 0.36027 0.12728 0.57055 0.0
C203 C 0.30731 0.16236 0.61097 0.0
C204 C 0.47285 0.30369 0.59009 0.0
C205 C 0.53775 0.33872 0.60733 0.0
C206 C 0.50425 0.30378 0.60177 0.0
C207 C 0.47561 0.33887 0.58377 0.0
C208 C 0.50893 0.37375 0.58942 0.0
C209 C 0.54035 0.37423 0.60153 0.0
C210 C 0.4361 0.26775 0.58561 0.0
O211 O 0.41116 0.20559 0.64397 0.0
O212 O 0.35349 0.15571 0.65771 0.0
O213 O 0.40794 0.13126 0.63681 0.0
O214 O 0.43675 0.17814 0.60629 0.0
C215 C 0.38587 0.18778 0.66197 0.0
O216 O 0.31451 0.07203 0.65818 0.0
O217 O 0.31841 0.05126 0.62136 0.0
O218 O 0.36746 0.11111 0.58938 0.0
O219 O 0.36213 0.16055 0.57381 0.0
O220 O 0.34138 0.19359 0.61197 0.0
O221 O 0.30255 0.12758 0.61239 0.0
C222 C 0.43805 0.15463 0.62307 0.0
O223 O 0.43751 0.23802 0.57705 0.0
O224 O 0.41046 0.25807 0.6033 0.0
C225 C 0.25978 1.01439 0.64355 0.0
C226 C 0.1795 0.96201 0.64447 0.0
C227 C 0.20044 0.97622 0.66702 0.0
C228 C 0.24018 1.00201 0.66656 0.0
C229 C 0.23889 0.99992 0.62097 0.0
C230 C 0.19923 0.97395 0.62145 0.0
C231 C 0.30177 0.04217 0.64332 0.0
H232 H 0.56154 0.33786 0.61629 0.0
H233 H 0.50268 0.27693 0.6069 0.0
H234 H 0.45154 0.33939 0.57493 0.0
H235 H 0.50952 0.40034 0.58498 0.0
H236 H 0.18613 0.96721 0.68507 0.0
H237 H 0.25558 1.01242 0.68422 0.0
H238 H 0.25303 1.00881 0.60286 0.0
H239 H 0.18387 0.96385 0.60376 0.0
Tb240 Tb 0.67867 0.82904 0.40365 0.0
Eu241 Eu 0.73181 0.79247 0.38443 0.0
C242 C 0.72771 0.80938 0.44042 0.0
C243 C 0.76361 0.88271 0.38595 0.0
C244 C 0.60518 0.86152 0.41077 0.0
C245 C 0.55067 0.86858 0.42319 0.0
C246 C 0.58106 0.86247 0.42949 0.0
C247 C 0.59777 0.86591 0.38545 0.0
C248 C 0.56742 0.8722 0.37913 0.0
C249 C 0.54371 0.87408 0.39796 0.0
C250 C 0.63933 0.85888 0.41835 0.0
O251 O 0.67622 0.8283 0.36232 0.0
O252 O 0.69093 0.78111 0.35253 0.0
O253 O 0.67489 0.74289 0.39821 0.0
O254 O 0.63658 0.76998 0.39341 0.0
C255 C 0.67698 0.80339 0.34639 0.0
O256 O 0.7734 0.79057 0.35873 0.0
O257 O 0.75604 0.75577 0.39257 0.0
O258 O 0.75241 0.82034 0.42206 0.0
O259 O 0.69329 0.80454 0.43609 0.0
O260 O 0.7387 0.87642 0.40402 0.0
O261 O 0.76045 0.85417 0.3722 0.0
C262 C 0.64057 0.73971 0.39678 0.0
O263 O 0.63355 0.8256 0.42603 0.0
O264 O 0.66962 0.87612 0.40402 0.0
C265 C 0.82154 0.78437 0.38042 0.0
C266 C 0.90005 0.81288 0.39248 0.0
C267 C 0.88549 0.79722 0.36852 0.0
C268 C 0.84659 0.78303 0.36259 0.0
C269 C 0.83619 0.80074 0.40418 0.0
C270 C 0.87494 0.81468 0.41016 0.0
C271 C 0.78055 0.76943 0.37396 0.0
H272 H 0.53341 0.87026 0.43824 0.0
H273 H 0.58634 0.85942 0.44914 0.0
H274 H 0.61585 0.8652 0.37059 0.0
H275 H 0.56263 0.87574 0.35948 0.0
H276 H 0.90394 0.7951 0.35454 0.0
H277 H 0.836 0.77078 0.3441 0.0
H278 H 0.81767 0.8027 0.41821 0.0
H279 H 0.88532 0.82706 0.42863 0.0
Tb280 Tb 0.8631 0.67052 0.90638 0.0
Eu281 Eu 0.95304 0.71786 0.88457 0.0
C282 C 0.936 0.71107 0.94136 0.0
C283 C 0.90312 0.75893 0.89426 0.0
C284 C 0.75778 0.59832 0.9155 0.0
C285 C 0.6949 0.54415 0.9268 0.0
C286 C 0.73022 0.57624 0.93377 0.0
C287 C 0.74935 0.58793 0.89005 0.0
C288 C 0.71399 0.55595 0.88304 0.0
C289 C 0.68628 0.53336 0.90132 0.0
C290 C 0.79492 0.63199 0.92338 0.0
O291 O 0.85768 0.67456 0.86565 0.0
O292 O 0.91703 0.68715 0.85075 0.0
O293 O 0.93852 0.6567 0.89385 0.0
O294 O 0.873 0.62794 0.88829 0.0
C295 C 0.88076 0.67715 0.8471 0.0
O296 O 0.99712 0.7532 0.85708 0.0
O297 O 1.01405 0.74008 0.89272 0.0
O298 O 0.95114 0.73692 0.92373 0.0
O299 O 0.90393 0.67862 0.9367 0.0
O300 O 0.88111 0.73148 0.91019 0.0
O301 O 0.9277 0.75602 0.87947 0.0
C302 C 0.9045 0.62585 0.89004 0.0
O303 O 0.82256 0.62532 0.92917 0.0
O304 O 0.80765 0.66315 0.90991 0.0
C305 C 0.05248 0.80291 0.87665 0.0
C306 C 0.10196 0.88335 0.88196 0.0
C307 C 0.0637 0.8654 0.89063 0.0
C308 C 0.03928 0.82564 0.88806 0.0
C309 C 0.09088 0.82036 0.8686 0.0
C310 C 0.1155 0.86026 0.87133 0.0
C311 C 1.02559 0.76143 0.87251 0.0
H312 H 0.67474 0.52732 0.94147 0.0
H313 H 0.73613 0.58368 0.95353 0.0
H314 H 0.7701 0.60454 0.87558 0.0
H315 H 0.70834 0.54905 0.86321 0.0
H316 H 0.05247 0.88219 0.89922 0.0
H317 H 1.00982 0.81268 0.89459 0.0
H318 H 0.1016 0.80329 0.85979 0.0
H319 H 0.14471 0.8732 0.86433 0.0
Tb320 Tb 0.22812 0.85579 0.40673 0.0
Eu321 Eu 0.26189 0.94428 0.38507 0.0
C322 C 0.26311 0.92717 0.44175 0.0
C323 C 0.17361 0.89064 0.40157 0.0
C324 C 0.20317 0.7529 0.41581 0.0
C325 C 0.20082 0.7084 0.38378 0.0
C326 C 0.20537 0.74418 0.39045 0.0
C327 C 0.19821 0.72606 0.43443 0.0
C328 C 0.19396 0.69039 0.42779 0.0
C329 C 0.19429 0.68078 0.40234 0.0
C330 C 0.20212 0.78789 0.42293 0.0
O331 O 0.23679 0.85323 0.36632 0.0
O332 O 0.228 0.90298 0.35414 0.0
O333 O 0.30824 0.92979 0.37554 0.0
O334 O 0.29026 0.88019 0.404 0.0
C335 C 0.22913 0.87169 0.34889 0.0
O336 O 0.26971 0.9864 0.35603 0.0
O337 O 0.29148 1.00562 0.39365 0.0
O338 O 0.28627 0.94485 0.42305 0.0
O339 O 0.23211 0.89353 0.43794 0.0
O340 O 0.17751 0.86035 0.39888 0.0
O341 O 0.20324 0.92585 0.40159 0.0
C342 C 0.3153 0.9056 0.3881 0.0
O343 O 0.23396 0.8174 0.43108 0.0
O344 O 0.18384 0.79827 0.40746 0.0
C345 C 0.265 0.03851 0.37277 0.0
C346 C 0.23017 0.08451 0.37637 0.0
C347 C 0.26283 0.09593 0.36111 0.0
C348 C 0.28007 0.07312 0.35935 0.0
C349 C 0.23227 0.02681 0.38781 0.0
C350 C 0.2151 0.04955 0.38964 0.0
C351 C 0.28398 1.01521 0.37183 0.0
H352 H 0.20178 0.70209 0.36404 0.0
H353 H 0.20935 0.76452 0.37573 0.0
H354 H 0.19626 0.73215 0.45408 0.0
H355 H 0.18872 0.66971 0.44253 0.0
H356 H 0.27494 0.12237 0.35037 0.0
H357 H 0.30531 0.08263 0.34763 0.0
H358 H 0.22027 1.0003 0.39847 0.0
H359 H 0.19044 0.04004 0.40189 0.0
Tb360 Tb 0.38982 0.21199 0.90242 0.0
Eu361 Eu 0.33771 0.25014 0.88347 0.0
C362 C 0.34839 0.23954 0.93943 0.0
C363 C 0.301 0.15894 0.89073 0.0
C364 C 0.46215 0.17865 0.91086 0.0
C365 C 0.53015 0.20458 0.90122 0.0
C366 C 0.49941 0.21032 0.90727 0.0
C367 C 0.45631 0.14133 0.90812 0.0
C368 C 0.48688 0.13561 0.90195 0.0
C369 C 0.52423 0.16712 0.89851 0.0
C370 C 0.4293 0.18332 0.91862 0.0
O371 O 0.38923 0.20713 0.86124 0.0
O372 O 0.36574 0.24665 0.84808 0.0
O373 O 0.39921 0.29954 0.89053 0.0
O374 O 0.43102 0.26583 0.88497 0.0
C375 C 0.38116 0.22516 0.84353 0.0
O376 O 0.29623 0.25435 0.85886 0.0
O377 O 0.31691 0.28949 0.89257 0.0
O378 O 0.32141 0.22702 0.92245 0.0
O379 O 0.38196 0.24373 0.93341 0.0
O380 O 0.32975 0.16569 0.90586 0.0
O381 O 0.30133 0.18639 0.87717 0.0
C382 C 0.43108 0.29849 0.88635 0.0
O383 O 0.43614 0.21778 0.92435 0.0
O384 O 0.39761 0.16421 0.90564 0.0
C385 C 0.251 0.2636 0.88165 0.0
C386 C 0.1733 0.23744 0.89464 0.0
C387 C 0.18685 0.25085 0.87018 0.0
C388 C 0.22533 0.26388 0.8638 0.0
C389 C 0.2374 0.24962 0.90598 0.0
C390 C 0.19906 0.23686 0.91242 0.0
C391 C 0.29133 0.27662 0.87446 0.0
H392 H 0.5585 0.22947 0.89851 0.0
H393 H 0.50491 0.23948 0.90929 0.0
H394 H 0.42801 0.11642 0.91107 0.0
H395 H 0.48137 0.10638 0.90043 0.0
H396 H 0.1679 0.25202 0.85612 0.0
H397 H 0.23508 0.27426 0.84488 0.0
H398 H 0.25635 0.24846 0.92006 0.0
H399 H 0.18946 0.22623 0.9313 0.0
Tb400 Tb 0.19982 0.37535 0.40457 0.0
Eu401 Eu 0.10977 0.32591 0.38356 0.0
C402 C 0.12895 0.34081 0.44002 0.0
C403 C 0.15962 0.28576 0.39482 0.0
C404 C 0.3056 0.4472 0.42025 0.0
C405 C 0.37048 0.48563 0.43707 0.0
C406 C 0.33278 0.45483 0.43925 0.0
C407 C 0.31629 0.47199 0.39937 0.0
C408 C 0.35418 0.5032 0.39724 0.0
C409 C 0.38197 0.5097 0.41579 0.0
C410 C 0.26802 0.41112 0.42181 0.0
O411 O 0.2016 0.39043 0.36491 0.0
O412 O 0.14938 0.33382 0.3514 0.0
O413 O 0.12769 0.38807 0.37626 0.0
O414 O 0.18021 0.41712 0.40321 0.0
C415 C 0.18162 0.36598 0.34684 0.0
O416 O 0.06491 0.29721 0.35484 0.0
O417 O 0.04908 0.29396 0.39402 0.0
O418 O 0.11242 0.34936 0.42207 0.0
O419 O 0.16109 0.34092 0.43521 0.0
O420 O 0.19109 0.31953 0.39274 0.0
O421 O 0.12565 0.28266 0.39728 0.0
C422 C 0.15429 0.41847 0.38857 0.0
O423 O 0.23917 0.41232 0.4321 0.0
O424 O 0.25729 0.38858 0.40218 0.0
C425 C 1.01136 0.23895 0.36946 0.0
C426 C 0.96159 0.15807 0.36934 0.0
C427 C 1.00187 0.17423 0.36806 0.0
C428 C 1.02646 0.21421 0.36815 0.0
C429 C 0.97132 0.22311 0.37082 0.0
C430 C 0.94664 0.18307 0.37076 0.0
C431 C 0.03718 0.28103 0.37134 0.0
H432 H 0.39095 0.49015 0.45187 0.0
H433 H 0.3252 0.43609 0.45549 0.0
H434 H 0.29578 0.46652 0.38441 0.0
H435 H 0.36216 0.52116 0.38061 0.0
H436 H 1.01451 0.15596 0.36738 0.0
H437 H 0.05732 0.22583 0.36749 0.0
H438 H 0.95912 0.24173 0.37213 0.0
H439 H 0.91584 0.17171 0.37152 0.0
Tb440 Tb 0.84571 0.19639 0.91259 0.0
Eu441 Eu 0.81206 0.10848 0.88964 0.0
C442 C 0.81074 0.12365 0.94653 0.0
C443 C 0.90033 0.16173 0.90592 0.0
C444 C 0.87194 0.29938 0.92449 0.0
C445 C 0.8388 0.33297 0.91089 0.0
C446 C 0.83801 0.29867 0.91712 0.0
C447 C 0.90646 0.33483 0.92569 0.0
C448 C 0.90735 0.36902 0.91931 0.0
C449 C 0.8736 0.36862 0.91166 0.0
C450 C 0.87287 0.26385 0.9301 0.0
O451 O 0.83646 0.20078 0.87239 0.0
O452 O 0.84274 0.15017 0.85837 0.0
O453 O 0.76633 0.12347 0.88032 0.0
O454 O 0.78362 0.17267 0.90914 0.0
C455 C 0.8418 0.18186 0.85408 0.0
O456 O 0.80481 0.06697 0.86033 0.0
O457 O 0.77939 0.0468 0.89699 0.0
O458 O 0.78757 0.10687 0.92762 0.0
O459 O 0.84155 0.15763 0.94322 0.0
O460 O 0.89602 0.19184 0.90366 0.0
O461 O 0.87095 0.12638 0.90562 0.0
C462 C 0.75895 0.14732 0.89293 0.0
O463 O 0.84148 0.23398 0.93841 0.0
O464 O 0.89011 0.25411 0.91339 0.0
C465 C 0.80339 1.01074 0.87639 0.0
C466 C 0.83436 0.96115 0.87887 0.0
C467 C 0.84026 0.98419 0.85751 0.0
C468 C 0.82491 1.00862 0.85626 0.0
C469 C 0.79667 0.98699 0.8975 0.0
C470 C 0.81203 0.96258 0.89875 0.0
C471 C 0.78802 0.03748 0.87547 0.0
H472 H 0.81209 0.33148 0.90549 0.0
H473 H 0.81099 0.27166 0.91597 0.0
H474 H 0.93303 0.336 0.93118 0.0
H475 H 0.93476 0.39564 0.91976 0.0
H476 H 0.85667 0.98325 0.84163 0.0
H477 H 0.83012 0.02601 0.83955 0.0
H478 H 0.77986 0.98755 0.91326 0.0
H479 H 0.80711 0.94545 0.91555 0.0
H480 H 0.22168 0.95198 0.12601 0.0
H481 H 0.10598 0.89865 0.09501 0.0
H482 H 0.11041 0.96231 0.09384 0.0
H483 H 0.21222 1.01729 0.16644 0.0
H484 H 0.26114 0.05577 0.16217 0.0
H485 H 0.24958 1.00646 0.15913 0.0
H486 H 0.2792 1.02068 0.11437 0.0
H487 H 0.29088 0.07007 0.11726 0.0
H488 H 0.26215 0.04129 0.09109 0.0
H489 H 0.12755 0.03208 0.09661 0.0
H490 H 0.15494 0.10164 0.10421 0.0
H491 H 0.25801 0.10806 0.13551 0.0
C492 C 0.19739 0.95366 0.11869 0.0
C493 C 0.16357 0.92034 0.11041 0.0
C494 C 0.13223 0.9238 0.10138 0.0
C495 C 0.13451 0.95983 0.10061 0.0
C496 C 0.16821 0.99205 0.10909 0.0
C497 C 0.19901 0.98924 0.11805 0.0
C498 C 0.23131 0.02786 0.12707 0.0
C499 C 0.23899 0.02676 0.15538 0.0
C500 C 0.26806 0.04073 0.11151 0.0
C501 C 0.2139 0.05293 0.12183 0.0
C502 C 0.17761 0.03184 0.11132 0.0
C503 C 0.15589 0.04883 0.10493 0.0
C504 C 0.17162 0.08836 0.10952 0.0
C505 C 0.20865 0.11053 0.12059 0.0
C506 C 0.22991 0.09229 0.12671 0.0
H507 H 0.24341 0.1358 0.64111 0.0
H508 H 0.29802 0.20358 0.5745 0.0
H509 H 0.24776 0.22168 0.57167 0.0
H510 H 0.14162 0.10403 0.62323 0.0
H511 H 0.12893 0.10917 0.65496 0.0
H512 H 0.16556 0.09663 0.64955 0.0
H513 H 0.21352 0.15504 0.67653 0.0
H514 H 0.17725 0.16802 0.68179 0.0
H515 H 0.22296 0.20255 0.66835 0.0
H516 H 0.19572 0.23708 0.57798 0.0
H517 H 0.14547 0.24998 0.59337 0.0
H518 H 0.12505 0.17447 0.65712 0.0
C519 C 0.24384 0.15337 0.62551 0.0
C520 C 0.27391 0.16772 0.60765 0.0
C521 C 0.27476 0.19194 0.58807 0.0
C522 C 0.24638 0.20234 0.58633 0.0
C523 C 0.21758 0.18862 0.60454 0.0
C524 C 0.216 0.16465 0.62379 0.0
C525 C 0.18411 0.15712 0.64223 0.0
C526 C 0.15322 0.11418 0.6425 0.0
C527 C 0.20045 0.17155 0.66879 0.0
C528 C 0.16868 0.18123 0.63062 0.0
C529 C 0.18809 0.19865 0.6087 0.0
C530 C 0.17996 0.22323 0.59495 0.0
C531 C 0.15125 0.23029 0.60382 0.0
C532 C 0.13108 0.2131 0.62638 0.0
C533 C 0.13999 0.18814 0.63986 0.0
H534 H 0.96638 0.11724 0.15944 0.0
H535 H 0.91371 0.1354 0.09336 0.0
H536 H 0.97724 0.18832 0.07999 0.0
H537 H 1.03313 0.21657 0.17205 0.0
H538 H 0.07159 0.20869 0.18188 0.0
H539 H 1.02222 0.1712 0.18583 0.0
H540 H 0.03571 0.12422 0.16038 0.0
H541 H 0.08514 0.16162 0.1563 0.0
H542 H 0.05578 0.13742 0.12918 0.0
H543 H 0.04589 0.24112 0.07464 0.0
H544 H 0.11506 0.28939 0.07728 0.0
H545 H 0.12385 0.23705 0.14664 0.0
C546 C 0.96818 0.13238 0.14218 0.0
C547 C 0.93492 0.12197 0.12742 0.0
C548 C 0.93873 0.14236 0.10482 0.0
C549 C 0.9747 0.17264 0.09712 0.0
C550 C 1.0068 0.18219 0.11212 0.0
C551 C 1.00396 0.16261 0.13413 0.0
C552 C 0.04295 0.179 0.14692 0.0
C553 C 0.04242 0.19481 0.17323 0.0
C554 C 0.05563 0.14876 0.14827 0.0
C555 C 0.06801 0.2112 0.12886 0.0
C556 C 0.04655 0.21246 0.10889 0.0
C557 C 0.06302 0.24026 0.09011 0.0
C558 C 0.10241 0.26763 0.0918 0.0
C559 C 0.12508 0.26705 0.11211 0.0
C560 C 0.10749 0.23817 0.13076 0.0
H561 H 0.87977 0.95813 0.63076 0.0
H562 H 0.75993 0.90657 0.60809 0.0
H563 H 0.76711 0.97101 0.60528 0.0
H564 H 0.88227 0.03299 0.6694 0.0
H565 H 0.93039 0.06901 0.6604 0.0
H566 H 0.91651 1.01883 0.66006 0.0
H567 H 0.93666 0.02456 0.61325 0.0
H568 H 0.9506 0.07477 0.61346 0.0
H569 H 0.91622 0.04264 0.59056 0.0
H570 H 0.78582 0.0402 0.60646 0.0
H571 H 0.81552 0.11049 0.61024 0.0
H572 H 0.92411 0.11925 0.63155 0.0
C573 C 0.85505 0.96041 0.62521 0.0
C574 C 0.81929 0.92704 0.61945 0.0
C575 C 0.78778 0.93149 0.61215 0.0
C576 C 0.79149 0.96805 0.61065 0.0
C577 C 0.82697 1.00019 0.61644 0.0
C578 C 0.85831 0.9969 0.62346 0.0
C579 C 0.89313 0.03636 0.62876 0.0
C580 C 0.90634 0.03947 0.65629 0.0
C581 C 0.9261 0.04509 0.61041 0.0
C582 C 0.87629 0.06221 0.62379 0.0
C583 C 0.83803 0.04056 0.61677 0.0
C584 C 0.81581 0.05747 0.61181 0.0
C585 C 0.833 0.09754 0.61409 0.0
C586 C 0.87224 0.12062 0.62116 0.0
C587 C 0.89417 0.10254 0.62592 0.0
H588 H 0.94768 0.86861 0.1384 0.0
H589 H 0.87722 0.74497 0.14876 0.0
H590 H 0.81866 0.74951 0.14468 0.0
H591 H 0.88621 0.89388 0.17322 0.0
H592 H 0.89345 0.93233 0.15237 0.0
H593 H 0.93052 0.91992 0.15582 0.0
H594 H 0.9301 0.90992 0.10762 0.0
H595 H 0.89303 0.92231 0.10403 0.0
H596 H 0.88551 0.87706 0.09203 0.0
H597 H 0.76774 0.76628 0.13946 0.0
H598 H 0.72645 0.79452 0.13412 0.0
H599 H 0.82794 0.90823 0.12717 0.0
C600 C 0.91991 0.84252 0.1397 0.0
C601 C 0.91721 0.80642 0.1442 0.0
C602 C 0.88023 0.77302 0.14586 0.0
C603 C 0.84669 0.77525 0.14337 0.0
C604 C 0.8503 0.81111 0.1392 0.0
C605 C 0.88584 0.84424 0.13739 0.0
C606 C 0.88109 0.87911 0.1331 0.0
C607 C 0.89887 0.90802 0.15493 0.0
C608 C 0.89847 0.89822 0.10768 0.0
C609 C 0.83738 0.86026 0.13282 0.0
C610 C 0.82043 0.82098 0.13628 0.0
C611 C 0.78064 0.79701 0.13674 0.0
C612 C 0.75739 0.81348 0.13365 0.0
C613 C 0.77372 0.85373 0.1302 0.0
C614 C 0.81444 0.8774 0.12977 0.0
H615 H 0.97706 0.77971 0.60426 0.0
H616 H 0.9238 0.81983 0.65828 0.0
H617 H 0.98734 0.87495 0.66879 0.0
H618 H 0.06206 0.80539 0.64059 0.0
H619 H 0.09392 0.82078 0.61384 0.0
H620 H 0.04403 0.78442 0.61001 0.0
H621 H 0.03632 0.82536 0.57531 0.0
H622 H 0.08621 0.86182 0.57899 0.0
H623 H 0.04918 0.87436 0.58213 0.0
H624 H 0.05635 0.92497 0.67444 0.0
H625 H 0.12688 0.96807 0.67373 0.0
H626 H 0.13623 0.89651 0.61611 0.0
C627 C 0.97874 0.80017 0.61821 0.0
C628 C 0.94527 0.79527 0.63041 0.0
C629 C 0.94885 0.82277 0.6486 0.0
C630 C 0.98489 0.85428 0.65477 0.0
C631 C 1.01724 0.85812 0.64255 0.0
C632 C 1.01461 0.832 0.62458 0.0
C633 C 0.0541 0.84301 0.61439 0.0
C634 C 0.06411 0.81152 0.62006 0.0
C635 C 0.05659 0.85166 0.58602 0.0
C636 C 0.07919 0.87926 0.62952 0.0
C637 C 0.05729 0.88734 0.64569 0.0
C638 C 0.07386 0.91899 0.66185 0.0
C639 C 0.11396 0.94315 0.66143 0.0
C640 C 0.13709 0.93564 0.64493 0.0
C641 C 0.1193 0.90322 0.62876 0.0
H642 H 0.12738 0.90431 0.37024 0.0
H643 H 0.13151 0.85875 0.44334 0.0
H644 H 0.06292 0.83823 0.45026 0.0
H645 H 0.05767 0.93631 0.38706 0.0
H646 H 1.03341 0.92165 0.35706 0.0
H647 H 0.084 0.9374 0.35931 0.0
H648 H 0.07109 0.87328 0.33911 0.0
H649 H 1.02048 0.85717 0.33703 0.0
H650 H 0.03639 0.82828 0.35332 0.0
H651 H 0.99326 0.8184 0.448 0.0
H652 H 0.92644 0.79923 0.43653 0.0
H653 H 0.96586 0.85534 0.36404 0.0
C654 C 0.11395 0.89104 0.38795 0.0
C655 C 0.13462 0.88376 0.40658 0.0
C656 C 0.11607 0.86507 0.42914 0.0
C657 C 0.0772 0.85332 0.43319 0.0
C658 C 0.05721 0.86016 0.41432 0.0
C659 C 0.07486 0.87861 0.39214 0.0
C660 C 0.04589 0.87952 0.37414 0.0
C661 C 0.05584 0.9212 0.3691 0.0
C662 C 0.04332 0.85829 0.34945 0.0
C663 C 1.00914 0.85791 0.38942 0.0
C664 C 1.01651 0.84756 0.41268 0.0
C665 C 0.98718 0.82669 0.42994 0.0
C666 C 0.94929 0.81603 0.42327 0.0
C667 C 0.9408 0.82587 0.39943 0.0
C668 C 0.97133 0.84722 0.38236 0.0
H669 H 0.17863 0.92752 0.89614 0.0
H670 H 0.08117 0.93611 0.86913 0.0
H671 H 0.121 1.0069 0.8697 0.0
H672 H 0.21671 1.01038 0.93806 0.0
H673 H 0.26639 0.02571 0.93149 0.0
H674 H 0.23027 0.97546 0.92931 0.0
H675 H 0.25083 0.97356 0.88336 0.0
H676 H 0.28703 0.02377 0.88543 0.0
H677 H 0.25139 1.00724 0.8607 0.0
H678 H 0.17135 0.07628 0.87145 0.0
H679 H 0.22895 0.14062 0.87549 0.0
H680 H 0.29455 0.08879 0.90256 0.0
C681 C 0.16575 0.94435 0.89032 0.0
C682 C 0.12661 0.92616 0.88272 0.0
C683 C 0.11082 0.94927 0.87539 0.0
C684 C 0.13329 0.98955 0.87552 0.0
C685 C 0.17159 1.00654 0.88317 0.0
C686 C 0.18777 0.98481 0.89056 0.0
C687 C 0.22976 1.01062 0.89795 0.0
C688 C 0.23615 1.00521 0.92586 0.0
C689 C 0.25632 1.00336 0.88084 0.0
C690 C 0.23468 0.05016 0.89329 0.0
C691 C 0.20069 0.04697 0.8847 0.0
C692 C 0.19807 0.07917 0.87831 0.0
C693 C 0.23105 0.11565 0.88061 0.0
C694 C 0.26632 0.11988 0.88943 0.0
C695 C 0.26794 0.08657 0.89604 0.0
H696 H 0.22506 0.28049 0.39018 0.0
H697 H 0.10051 0.21059 0.39554 0.0
H698 H 0.10496 0.15184 0.39095 0.0
H699 H 0.2377 0.22314 0.34382 0.0
H700 H 0.28172 0.22955 0.3574 0.0
H701 H 0.2689 0.26622 0.36141 0.0
H702 H 0.27387 0.26228 0.40986 0.0
H703 H 0.28695 0.22579 0.40601 0.0
H704 H 0.24635 0.21644 0.42538 0.0
H705 H 0.12291 0.10058 0.38481 0.0
H706 H 0.15301 0.06064 0.37912 0.0
H707 H 0.26602 0.16382 0.379 0.0
C708 C 0.19867 0.25286 0.3905 0.0
C709 C 0.16239 0.25031 0.39318 0.0
C710 C 0.12865 0.21346 0.39349 0.0
C711 C 0.13087 0.17985 0.39087 0.0
C712 C 0.16704 0.18346 0.38804 0.0
C713 C 0.20035 0.21902 0.38799 0.0
C714 C 0.23565 0.21496 0.38475 0.0
C715 C 0.25726 0.23463 0.36039 0.0
C716 C 0.26227 0.2308 0.40788 0.0
C717 C 0.21699 0.17156 0.38292 0.0
C718 C 0.1774 0.15394 0.3848 0.0
C719 C 0.15392 0.11407 0.38349 0.0
C720 C 0.17136 0.09159 0.3804 0.0
C721 C 0.21199 0.10891 0.37875 0.0
C722 C 0.23492 0.14956 0.37991 0.0
H723 H 0.10625 0.19295 0.86757 0.0
H724 H 0.14901 0.25518 0.93803 0.0
H725 H 0.08281 0.23751 0.94992 0.0
H726 H 0.0362 0.21995 0.85572 0.0
H727 H 1.00066 0.17405 0.84288 0.0
H728 H 0.05107 0.18939 0.84055 0.0
H729 H 0.03861 0.12673 0.86269 0.0
H730 H 0.98813 0.11126 0.8652 0.0
H731 H 1.01539 0.1145 0.89302 0.0
H732 H 1.01341 0.21837 0.95266 0.0
H733 H 0.94459 0.19746 0.94638 0.0
H734 H 0.94509 0.14515 0.87514 0.0
C735 C 0.10163 0.20271 0.88554 0.0
C736 C 0.13293 0.22537 0.90192 0.0
C737 C 0.12556 0.23738 0.92533 0.0
C738 C 0.08803 0.22757 0.93222 0.0
C739 C 0.05793 0.20537 0.91565 0.0
C740 C 0.06418 0.19284 0.89286 0.0
C741 C 1.02674 0.1702 0.87824 0.0
C742 C 1.0288 0.18957 0.85285 0.0
C743 C 1.01663 0.12818 0.87458 0.0
C744 C 0.99868 0.17287 0.89609 0.0
C745 C 1.01738 0.1932 0.9176 0.0
C746 C 0.99832 0.20181 0.93614 0.0
C747 C 0.95931 0.18982 0.93246 0.0
C748 C 0.93962 0.16905 0.91062 0.0
C749 C 0.95937 0.16002 0.89234 0.0
H750 H 0.89509 0.11345 0.39694 0.0
H751 H 0.96866 0.10583 0.34014 0.0
H752 H 0.92663 0.03534 0.33905 0.0
H753 H 0.87325 0.0266 0.43033 0.0
H754 H 0.82387 1.01283 0.43657 0.0
H755 H 0.85973 0.06295 0.4332 0.0
H756 H 0.81915 0.07008 0.39793 0.0
H757 H 0.78312 1.02 0.40123 0.0
H758 H 0.80479 0.03851 0.37096 0.0
H759 H 0.87711 0.96628 0.34355 0.0
H760 H 0.82274 0.90211 0.3532 0.0
H761 H 0.77945 0.95265 0.40707 0.0
C762 C 0.90221 0.09699 0.38414 0.0
C763 C 0.93548 0.11538 0.36872 0.0
C764 C 0.94386 0.09257 0.35245 0.0
C765 C 0.91999 0.05245 0.35158 0.0
C766 C 0.88768 0.03531 0.36707 0.0
C767 C 0.87864 0.05672 0.38305 0.0
C768 C 0.84204 0.03078 0.39768 0.0
C769 C 0.85022 0.03346 0.42614 0.0
C770 C 0.8104 0.04043 0.39158 0.0
C771 C 0.83193 0.99152 0.38733 0.0
C772 C 0.85878 0.99501 0.3697 0.0
C773 C 0.85589 0.96316 0.35732 0.0
C774 C 0.82473 0.92671 0.36298 0.0
C775 C 0.79657 0.92205 0.38093 0.0
C776 C 0.80044 0.95509 0.39332 0.0
H777 H 0.8432 0.76989 0.90837 0.0
H778 H 0.95791 0.82845 0.87595 0.0
H779 H 0.95357 0.88692 0.87019 0.0
H780 H 0.80306 0.80906 0.86643 0.0
H781 H 0.773 0.81382 0.88963 0.0
H782 H 0.78596 0.77721 0.8932 0.0
H783 H 0.81413 0.80379 0.93745 0.0
H784 H 0.80111 0.84042 0.93406 0.0
H785 H 0.85026 0.85386 0.94099 0.0
H786 H 0.93619 0.93808 0.86606 0.0
H787 H 0.90672 0.979 0.86401 0.0
H788 H 0.80233 0.88732 0.89778 0.0
C789 C 0.86761 0.79524 0.90045 0.0
C790 C 0.90095 0.7946 0.8927 0.0
C791 C 0.93203 0.82816 0.882 0.0
C792 C 0.92991 0.86161 0.87869 0.0
C793 C 0.89645 0.86112 0.88608 0.0
C794 C 0.86584 0.82891 0.89677 0.0
C795 C 0.83255 0.83565 0.90193 0.0
C796 C 0.79652 0.80725 0.8869 0.0
C797 C 0.82402 0.83329 0.93029 0.0
C798 C 0.84917 0.87649 0.89225 0.0
C799 C 0.88614 0.89064 0.88332 0.0
C800 C 0.90724 0.92735 0.87301 0.0
C801 C 0.89011 0.95027 0.87173 0.0
C802 C 0.85211 0.93641 0.88059 0.0
C803 C 0.83156 0.89899 0.89109 0.0
H804 H 0.20572 0.72673 0.11231 0.0
H805 H 0.10367 0.68319 0.1591 0.0
H806 H 0.10207 0.62098 0.16289 0.0
H807 H 0.17617 0.64172 0.07788 0.0
H808 H 0.22359 0.64749 0.07602 0.0
H809 H 0.21823 0.68917 0.07874 0.0
H810 H 0.26179 0.71103 0.11843 0.0
H811 H 0.26735 0.66938 0.11586 0.0
H812 H 0.24965 0.67852 0.14468 0.0
H813 H 0.10971 0.562 0.15916 0.0
H814 H 0.12583 0.51184 0.14851 0.0
H815 H 0.22246 0.59476 0.10386 0.0
C816 C 0.18316 0.7044 0.12363 0.0
C817 C 0.15479 0.71002 0.13544 0.0
C818 C 0.12579 0.67973 0.14993 0.0
C819 C 0.12468 0.64428 0.15219 0.0
C820 C 0.15285 0.63966 0.13996 0.0
C821 C 0.18162 0.66903 0.12605 0.0
C822 C 0.20758 0.6565 0.1138 0.0
C823 C 0.20629 0.65885 0.0849 0.0
C824 C 0.24905 0.68027 0.1238 0.0
C825 C 0.18866 0.61518 0.12266 0.0
C826 C 0.15725 0.606 0.13783 0.0
C827 C 0.13439 0.569 0.14743 0.0
C828 C 0.14365 0.54065 0.14116 0.0
C829 C 0.17547 0.54934 0.12539 0.0
C830 C 0.1984 0.58731 0.11631 0.0
H831 H 0.65733 0.22198 0.59272 0.0
H832 H 0.64948 0.13594 0.64557 0.0
H833 H 0.58164 0.11665 0.65413 0.0
H834 H 0.59996 0.25095 0.62866 0.0
H835 H 0.57785 0.25797 0.60116 0.0
H836 H 0.62558 0.26461 0.59917 0.0
H837 H 0.60334 0.21497 0.5627 0.0
H838 H 0.55557 0.20819 0.56458 0.0
H839 H 0.56253 0.16738 0.56728 0.0
H840 H 0.51399 0.10712 0.65696 0.0
H841 H 0.45286 0.10771 0.65328 0.0
H842 H 0.50653 0.20096 0.59912 0.0
C843 C 0.6416 0.19936 0.60633 0.0
C844 C 0.65895 0.18056 0.61849 0.0
C845 C 0.63683 0.15053 0.63577 0.0
C846 C 0.59831 0.13953 0.64088 0.0
C847 C 0.58225 0.15883 0.62861 0.0
C848 C 0.60327 0.18812 0.61169 0.0
C849 C 0.57942 0.20425 0.60086 0.0
C850 C 0.59674 0.24697 0.60789 0.0
C851 C 0.57495 0.19832 0.57216 0.0
C852 C 0.54159 0.17938 0.61424 0.0
C853 C 0.54369 0.15338 0.63022 0.0
C854 C 0.51208 0.1274 0.6445 0.0
C855 C 0.47746 0.12796 0.64229 0.0
C856 C 0.47469 0.15429 0.62588 0.0
C857 C 0.50742 0.18033 0.61181 0.0
H858 H 0.4607 0.64176 0.11181 0.0
H859 H 0.55339 0.61599 0.11158 0.0
H860 H 0.50607 0.54713 0.1188 0.0
H861 H 0.40259 0.57256 0.16019 0.0
H862 H 0.35775 0.5607 0.14505 0.0
H863 H 0.39925 0.60801 0.14127 0.0
H864 H 0.3933 0.59978 0.09275 0.0
H865 H 0.35182 0.55252 0.09642 0.0
H866 H 0.39263 0.55869 0.07852 0.0
H867 H 0.44709 0.47966 0.12322 0.0
H868 H 0.38268 0.42092 0.12554 0.0
H869 H 0.32963 0.49205 0.12338 0.0
C870 C 0.47113 0.62169 0.11331 0.0
C871 C 0.51086 0.63439 0.11106 0.0
C872 C 0.52321 0.60712 0.11348 0.0
C873 C 0.49649 0.56788 0.11747 0.0
C874 C 0.45748 0.55632 0.11926 0.0
C875 C 0.44494 0.58257 0.11742 0.0
C876 C 0.4015 0.56288 0.11945 0.0
C877 C 0.38958 0.57687 0.14289 0.0
C878 C 0.38379 0.56882 0.09535 0.0
C879 C 0.3914 0.52133 0.12225 0.0
C880 C 0.42398 0.51799 0.12217 0.0
C881 C 0.42144 0.48207 0.12355 0.0
C882 C 0.3847 0.44882 0.12487 0.0
C883 C 0.35094 0.45167 0.12485 0.0
C884 C 0.3547 0.48862 0.12375 0.0
H885 H 0.88776 0.47445 0.59249 0.0
H886 H 0.94421 0.53627 0.66101 0.0
H887 H 0.95963 0.48568 0.67175 0.0
H888 H 0.84696 0.37874 0.61809 0.0
H889 H 0.85453 0.35884 0.58971 0.0
H890 H 0.8472 0.39946 0.58794 0.0
H891 H 0.91154 0.43812 0.56374 0.0
H892 H 0.91912 0.39766 0.56552 0.0
H893 H 0.9553 0.44398 0.57742 0.0
H894 H 0.96947 0.42712 0.67473 0.0
H895 H 0.97135 0.36665 0.6697 0.0
H896 H 0.91045 0.34551 0.59859 0.0
C897 C 0.90358 0.47764 0.60971 0.0
C898 C 0.91466 0.50967 0.62586 0.0
C899 C 0.93479 0.51195 0.64841 0.0
C900 C 0.94398 0.4834 0.65461 0.0
C901 C 0.93292 0.45249 0.63813 0.0
C902 C 0.91304 0.44948 0.61616 0.0
C903 C 0.90441 0.41356 0.60154 0.0
C904 C 0.86069 0.38603 0.59919 0.0
C905 C 0.92376 0.42397 0.57552 0.0
C906 C 0.92278 0.39695 0.61856 0.0
C907 C 0.93899 0.4196 0.63965 0.0
C908 C 0.95694 0.40931 0.6582 0.0
C909 C 0.958 0.37494 0.65517 0.0
C910 C 0.9414 0.35127 0.63368 0.0
C911 C 0.92384 0.36291 0.61517 0.0
H912 H 0.5814 0.88427 0.09422 0.0
H913 H 0.62167 0.94748 0.16455 0.0
H914 H 0.55964 0.94622 0.16887 0.0
H915 H 0.52884 0.92993 0.0719 0.0
H916 H 0.49061 0.88618 0.05829 0.0
H917 H 0.53854 0.89337 0.06053 0.0
H918 H 0.51192 0.82925 0.08502 0.0
H919 H 0.46394 0.82199 0.08303 0.0
H920 H 0.48437 0.82212 0.11331 0.0
H921 H 0.49183 0.93635 0.1658 0.0
H922 H 0.42543 0.92023 0.15542 0.0
H923 H 0.42979 0.86346 0.08696 0.0
C924 C 0.5775 0.89826 0.11046 0.0
C925 C 0.60677 0.91625 0.129 0.0
C926 C 0.59997 0.93376 0.15001 0.0
C927 C 0.56472 0.93308 0.15265 0.0
C928 C 0.53642 0.9147 0.13414 0.0
C929 C 0.54254 0.89773 0.11341 0.0
C930 C 0.50738 0.87929 0.09635 0.0
C931 C 0.51692 0.89834 0.07022 0.0
C932 C 0.49094 0.83557 0.09432 0.0
C933 C 0.48031 0.88842 0.1107 0.0
C934 C 0.4976 0.90889 0.13244 0.0
C935 C 0.4782 0.92053 0.14874 0.0
C936 C 0.44044 0.91134 0.14259 0.0
C937 C 0.42211 0.89066 0.12027 0.0
C938 C 0.44256 0.87893 0.10428 0.0
H939 H 0.70681 0.59608 0.58704 0.0
H940 H 0.752 0.58321 0.65828 0.0
H941 H 0.6968 0.51715 0.66238 0.0
H942 H 0.603 0.53698 0.60298 0.0
H943 H 0.59 0.51586 0.57199 0.0
H944 H 0.6306 0.56376 0.57597 0.0
H945 H 0.6743 0.54301 0.55329 0.0
H946 H 0.63397 0.495 0.54945 0.0
H947 H 0.67708 0.50239 0.56503 0.0
H948 H 0.6396 0.45155 0.65773 0.0
H949 H 0.58302 0.3902 0.64489 0.0
H950 H 0.57583 0.44325 0.57537 0.0
C951 C 0.70431 0.5796 0.60378 0.0
C952 C 0.7332 0.59475 0.62256 0.0
C953 C 0.72989 0.57207 0.64383 0.0
C954 C 0.69868 0.53457 0.64632 0.0
C955 C 0.67112 0.51993 0.62723 0.0
C956 C 0.67346 0.54164 0.60638 0.0
C957 C 0.6413 0.51777 0.58782 0.0
C958 C 0.61464 0.5346 0.5845 0.0
C959 C 0.65765 0.51435 0.5624 0.0
C960 C 0.62091 0.47932 0.60142 0.0
C961 C 0.63851 0.48139 0.62418 0.0
C962 C 0.62551 0.44955 0.63994 0.0
C963 C 0.59352 0.41464 0.63233 0.0
C964 C 0.57488 0.41154 0.60902 0.0
C965 C 0.58899 0.44457 0.59343 0.0
H966 H 0.33976 0.86182 0.41285 0.0
H967 H 0.37593 0.95164 0.35647 0.0
H968 H 0.43771 0.95241 0.3519 0.0
H969 H 0.43113 0.89806 0.44279 0.0
H970 H 0.42476 0.85101 0.4486 0.0
H971 H 0.38343 0.8572 0.44684 0.0
H972 H 0.35403 0.80522 0.41185 0.0
H973 H 0.39528 0.79885 0.41348 0.0
H974 H 0.38163 0.81051 0.38387 0.0
H975 H 0.49633 0.94317 0.35403 0.0
H976 H 0.54643 0.9264 0.36336 0.0
H977 H 0.4708 0.84244 0.41822 0.0
C978 C 0.3605 0.88172 0.39946 0.0
C979 C 0.35276 0.90672 0.385 0.0
C980 C 0.38103 0.93222 0.36778 0.0
C981 C 0.41622 0.93281 0.36504 0.0
C982 C 0.42278 0.90772 0.37963 0.0
C983 C 0.39562 0.88271 0.39653 0.0
C984 C 0.4096 0.85897 0.4103 0.0
C985 C 0.4124 0.8668 0.43882 0.0
C986 C 0.38359 0.81584 0.40452 0.0
C987 C 0.44911 0.87463 0.39869 0.0
C988 C 0.45617 0.90258 0.38093 0.0
C989 C 0.49093 0.92123 0.36784 0.0
C990 C 0.51917 0.91129 0.37316 0.0
C991 C 0.51273 0.88302 0.39152 0.0
C992 C 0.47696 0.86443 0.40427 0.0
H993 H 0.61301 0.50437 0.92175 0.0
H994 H 0.67568 0.48109 0.86441 0.0
H995 H 0.61599 0.42212 0.85237 0.0
H996 H 0.55393 0.40662 0.94132 0.0
H997 H 0.51156 0.41023 0.94667 0.0
H998 H 0.55865 0.45225 0.94983 0.0
H999 H 0.53994 0.48824 0.91745 0.0
H1000 H 0.49281 0.44621 0.91409 0.0
H1001 H 0.52264 0.46738 0.88675 0.0
H1002 H 0.55128 0.36361 0.84817 0.0
H1003 H 0.48524 0.30859 0.85232 0.0
H1004 H 0.4624 0.36814 0.91198 0.0
C1005 C 0.61424 0.48695 0.90663 0.0
C1006 C 0.64937 0.49796 0.89389 0.0
C1007 C 0.64931 0.47412 0.87415 0.0
C1008 C 0.61547 0.4403 0.86723 0.0
C1009 C 0.58156 0.4304 0.88013 0.0
C1010 C 0.58055 0.45292 0.89942 0.0
C1011 C 0.54038 0.43467 0.91079 0.0
C1012 C 0.54119 0.42539 0.93881 0.0
C1013 C 0.52291 0.46068 0.90704 0.0
C1014 C 0.51919 0.39811 0.89511 0.0
C1015 C 0.54365 0.39646 0.87749 0.0
C1016 C 0.53175 0.36478 0.86168 0.0
C1017 C 0.49416 0.33365 0.86419 0.0
C1018 C 0.46853 0.33428 0.88222 0.0
C1019 C 0.48106 0.36728 0.89761 0.0
H1020 H 0.22154 0.63685 0.42412 0.0
H1021 H 0.1465 0.63514 0.36463 0.0
H1022 H 0.12878 0.56835 0.35403 0.0
H1023 H 0.25517 0.58009 0.39083 0.0
H1024 H 0.25623 0.55531 0.41884 0.0
H1025 H 0.26392 0.60341 0.42111 0.0
H1026 H 0.2081 0.57977 0.45326 0.0
H1027 H 0.20017 0.5316 0.45102 0.0
H1028 H 0.16113 0.54044 0.4449 0.0
H1029 H 0.11671 0.50026 0.35133 0.0
H1030 H 0.11388 0.43759 0.35541 0.0
H1031 H 0.19746 0.4843 0.41631 0.0
C1032 C 0.20145 0.62245 0.40882 0.0
C1033 C 0.1855 0.64132 0.39515 0.0
C1034 C 0.15952 0.62152 0.37514 0.0
C1035 C 0.14909 0.58347 0.36908 0.0
C1036 C 0.16505 0.5656 0.38308 0.0
C1037 C 0.19094 0.58455 0.4024 0.0
C1038 C 0.20383 0.55881 0.41459 0.0
C1039 C 0.24737 0.5754 0.41113 0.0
C1040 C 0.19262 0.55227 0.4426 0.0
C1041 C 0.18073 0.52225 0.39937 0.0
C1042 C 0.15852 0.5267 0.38129 0.0
C1043 C 0.13418 0.49654 0.36533 0.0
C1044 C 0.13266 0.46098 0.36785 0.0
C1045 C 0.15545 0.45587 0.38614 0.0
C1046 C 0.17977 0.48713 0.40203 0.0
H1047 H 0.73359 0.19224 0.91536 0.0
H1048 H 0.69907 0.09843 0.862 0.0
H1049 H 0.63642 0.09512 0.85636 0.0
H1050 H 0.64238 0.15555 0.94506 0.0
H1051 H 0.6467 0.20211 0.94911 0.0
H1052 H 0.68928 0.19798 0.9482 0.0
H1053 H 0.71625 0.24723 0.91165 0.0
H1054 H 0.6737 0.25149 0.9124 0.0
H1055 H 0.68783 0.2385 0.8835 0.0
H1056 H 0.57664 0.10076 0.85751 0.0
H1057 H 0.52425 0.11459 0.86553 0.0
H1058 H 0.59772 0.20446 0.9183 0.0
C1059 C 0.713 0.17103 0.9024 0.0
C1060 C 0.7214 0.14554 0.88914 0.0
C1061 C 0.69345 0.11828 0.87239 0.0
C1062 C 0.65775 0.11621 0.86903 0.0
C1063 C 0.65042 0.14166 0.88247 0.0
C1064 C 0.67728 0.16858 0.8988 0.0
C1065 C 0.66199 0.19207 0.9114 0.0
C1066 C 0.65996 0.18658 0.94014 0.0
C1067 C 0.6864 0.23486 0.90431 0.0
C1068 C 0.62212 0.1739 0.8998 0.0
C1069 C 0.61607 0.14497 0.8831 0.0
C1070 C 0.5811 0.1234 0.87052 0.0
C1071 C 0.55144 0.13134 0.8753 0.0
C1072 C 0.55677 0.16058 0.89256 0.0
C1073 C 0.59284 0.18231 0.90474 0.0
H1074 H 0.41344 0.58606 0.40139 0.0
H1075 H 0.44427 0.50084 0.42285 0.0
H1076 H 0.51311 0.54965 0.41917 0.0
H1077 H 0.49114 0.63733 0.35598 0.0
H1078 H 0.49889 0.68411 0.36459 0.0
H1079 H 0.45176 0.64215 0.36789 0.0
H1080 H 0.4509 0.65849 0.415 0.0
H1081 H 0.49801 0.70043 0.41183 0.0
H1082 H 0.48963 0.66471 0.43534 0.0
H1083 H 0.57871 0.60764 0.41398 0.0
H1084 H 0.63676 0.67142 0.40848 0.0
H1085 H 0.56443 0.72019 0.39092 0.0
C1086 C 0.43473 0.57766 0.40506 0.0
C1087 C 0.42338 0.53957 0.41252 0.0
C1088 C 0.45218 0.52987 0.41741 0.0
C1089 C 0.49141 0.55737 0.41523 0.0
C1090 C 0.50166 0.59468 0.40817 0.0
C1091 C 0.47424 0.60497 0.40317 0.0
C1092 C 0.4933 0.6475 0.3967 0.0
C1093 C 0.48317 0.65309 0.36968 0.0
C1094 C 0.4823 0.66905 0.41586 0.0
C1095 C 0.53559 0.65941 0.39898 0.0
C1096 C 0.5397 0.62839 0.40546 0.0
C1097 C 0.57586 0.63214 0.40884 0.0
C1098 C 0.60874 0.66857 0.40564 0.0
C1099 C 0.60541 0.70102 0.39923 0.0
C1100 C 0.56815 0.6961 0.39581 0.0
H1101 H 0.94002 0.59372 0.91706 0.0
H1102 H 0.858 0.57075 0.85692 0.0
H1103 H 0.84364 0.50347 0.85458 0.0
H1104 H 0.97465 0.52907 0.89462 0.0
H1105 H 0.97738 0.51344 0.92598 0.0
H1106 H 0.98467 0.56102 0.92102 0.0
H1107 H 0.93056 0.5468 0.95305 0.0
H1108 H 0.92289 0.49912 0.95795 0.0
H1109 H 0.88333 0.5054 0.94835 0.0
H1110 H 0.8352 0.43807 0.8602 0.0
H1111 H 0.83318 0.37835 0.87338 0.0
H1112 H 0.91758 0.44184 0.93183 0.0
C1113 C 0.91989 0.57471 0.90297 0.0
C1114 C 0.90049 0.58746 0.88689 0.0
C1115 C 0.87334 0.56153 0.86925 0.0
C1116 C 0.86501 0.52329 0.86777 0.0
C1117 C 0.88379 0.51121 0.88426 0.0
C1118 C 0.91069 0.53605 0.90153 0.0
C1119 C 0.9245 0.51476 0.91827 0.0
C1120 C 0.96788 0.53051 0.91475 0.0
C1121 C 0.91472 0.51664 0.94605 0.0
C1122 C 0.9009 0.47416 0.90783 0.0
C1123 C 0.87788 0.47291 0.8881 0.0
C1124 C 0.85311 0.43866 0.87564 0.0
C1125 C 0.85187 0.40473 0.88347 0.0
C1126 C 0.875 0.40503 0.90379 0.0
C1127 C 0.89984 0.44046 0.91605 0.0
H1128 H 0.17854 0.3174 0.31005 0.0
H1129 H 0.2116 0.43633 0.32434 0.0
H1130 H 0.2263 0.45114 0.27898 0.0
H1131 H 0.25427 0.33926 0.26455 0.0
H1132 H 0.22438 0.29725 0.24569 0.0
H1133 H 0.2161 0.29652 0.27906 0.0
H1134 H 0.14505 0.27707 0.27033 0.0
H1135 H 0.15322 0.27817 0.23693 0.0
H1136 H 0.13468 0.30688 0.25022 0.0
H1137 H 0.23225 0.45103 0.23112 0.0
H1138 H 0.23898 0.43853 0.18607 0.0
H1139 H 0.20818 0.32153 0.20463 0.0
C1140 C 0.1891 0.34659 0.30359 0.0
C1141 C 0.19385 0.37576 0.32047 0.0
C1142 C 0.20805 0.41372 0.31157 0.0
C1143 C 0.21618 0.42228 0.28588 0.0
C1144 C 0.21066 0.39267 0.26958 0.0
C1145 C 0.19829 0.3558 0.27822 0.0
C1146 C 0.19626 0.3295 0.25716 0.0
C1147 C 0.22444 0.31478 0.2619 0.0
C1148 C 0.15484 0.29593 0.25345 0.0
C1149 C 0.20897 0.35714 0.23521 0.0
C1150 C 0.21651 0.39329 0.24259 0.0
C1151 C 0.22694 0.42299 0.22521 0.0
C1152 C 0.23046 0.41566 0.19974 0.0
C1153 C 0.22438 0.37927 0.1922 0.0
C1154 C 0.21338 0.34973 0.21012 0.0
H1155 H 0.87781 0.17558 0.70798 0.0
H1156 H 0.84954 0.26521 0.69596 0.0
H1157 H 0.83392 0.26303 0.74148 0.0
H1158 H 0.80481 0.12147 0.75621 0.0
H1159 H 0.83695 0.11032 0.77308 0.0
H1160 H 0.84105 0.11653 0.73941 0.0
H1161 H 0.913 0.16866 0.74469 0.0
H1162 H 0.90898 0.16322 0.77835 0.0
H1163 H 0.92582 0.2099 0.76446 0.0
H1164 H 0.82843 0.25486 0.78996 0.0
H1165 H 0.82781 0.23763 0.8349 0.0
H1166 H 0.86084 0.15413 0.8131 0.0
C1167 C 0.86753 0.19424 0.71476 0.0
C1168 C 0.8648 0.22053 0.69853 0.0
C1169 C 0.85134 0.24451 0.7081 0.0
C1170 C 0.84273 0.24364 0.73392 0.0
C1171 C 0.84739 0.21834 0.74965 0.0
C1172 C 0.85888 0.19365 0.7402 0.0
C1173 C 0.86354 0.17034 0.76073 0.0
C1174 C 0.83487 0.12711 0.75714 0.0
C1175 C 0.90531 0.17855 0.76213 0.0
C1176 C 0.85357 0.1861 0.78346 0.0
C1177 C 0.84426 0.21372 0.7769 0.0
C1178 C 0.8353 0.23297 0.79519 0.0
C1179 C 0.83529 0.2232 0.82067 0.0
C1180 C 0.8442 0.19447 0.82757 0.0
C1181 C 0.85365 0.17606 0.80858 0.0
H1182 H 0.67738 0.89641 0.21544 0.0
H1183 H 0.63507 0.78418 0.18122 0.0
H1184 H 0.62446 0.75498 0.22368 0.0
H1185 H 0.73029 0.88732 0.26217 0.0
H1186 H 0.71976 0.91238 0.28619 0.0
H1187 H 0.71793 0.92318 0.25356 0.0
H1188 H 0.64753 0.90797 0.2589 0.0
H1189 H 0.64922 0.89745 0.29173 0.0
H1190 H 0.61193 0.86213 0.27164 0.0
H1191 H 0.63004 0.74076 0.26939 0.0
H1192 H 0.64558 0.74146 0.31457 0.0
H1193 H 0.68093 0.86255 0.31884 0.0
C1194 C 0.66488 0.8655 0.21689 0.0
C1195 C 0.657 0.84247 0.19513 0.0
C1196 C 0.64087 0.80222 0.1977 0.0
C1197 C 0.63489 0.78547 0.22173 0.0
C1198 C 0.64438 0.80932 0.24285 0.0
C1199 C 0.65827 0.84839 0.24062 0.0
C1200 C 0.66885 0.86828 0.26602 0.0
C1201 C 0.71174 0.89961 0.26703 0.0
C1202 C 0.64282 0.88493 0.27245 0.0
C1203 C 0.66046 0.83466 0.28288 0.0
C1204 C 0.64619 0.80082 0.26922 0.0
C1205 C 0.64021 0.76683 0.28035 0.0
C1206 C 0.64931 0.76755 0.30596 0.0
C1207 C 0.66393 0.80194 0.32019 0.0
C1208 C 0.66882 0.83564 0.30855 0.0
H1209 H 0.89236 0.68719 0.69697 0.0
H1210 H 0.77028 0.64889 0.69732 0.0
H1211 H 0.76826 0.63859 0.7432 0.0
H1212 H 0.89017 0.6224 0.74794 0.0
H1213 H 0.93542 0.65899 0.76097 0.0
H1214 H 0.9263 0.65835 0.72766 0.0
H1215 H 0.94097 0.72886 0.73033 0.0
H1216 H 0.94987 0.72964 0.76361 0.0
H1217 H 0.91445 0.741 0.75222 0.0
H1218 H 0.78034 0.63839 0.78911 0.0
H1219 H 0.8058 0.64835 0.8324 0.0
H1220 H 0.92053 0.68797 0.80284 0.0
C1221 C 0.86506 0.67566 0.70666 0.0
C1222 C 0.83143 0.66863 0.69365 0.0
C1223 C 0.79639 0.6545 0.70699 0.0
C1224 C 0.7949 0.64839 0.73301 0.0
C1225 C 0.82873 0.6566 0.74545 0.0
C1226 C 0.86316 0.6698 0.73277 0.0
C1227 C 0.89592 0.6795 0.751 0.0
C1228 C 0.91295 0.65323 0.74663 0.0
C1229 C 0.92713 0.72229 0.74918 0.0
C1230 C 0.87465 0.67061 0.77587 0.0
C1231 C 0.83585 0.657 0.77219 0.0
C1232 C 0.81059 0.6486 0.79227 0.0
C1233 C 0.82541 0.65452 0.81681 0.0
C1234 C 0.86519 0.66892 0.8211 0.0
C1235 C 0.88993 0.6766 0.80026 0.0
H1236 H 0.16992 0.86738 0.20528 0.0
H1237 H 0.23178 0.80752 0.18792 0.0
H1238 H 0.24788 0.80882 0.23305 0.0
H1239 H 0.23667 0.93011 0.25307 0.0
H1240 H 0.19909 0.92887 0.27227 0.0
H1241 H 0.19299 0.92323 0.23863 0.0
H1242 H 0.12929 0.85863 0.24503 0.0
H1243 H 0.13547 0.86382 0.27868 0.0
H1244 H 0.1296 0.82109 0.26344 0.0
H1245 H 0.25382 0.81352 0.28077 0.0
H1246 H 0.25602 0.8284 0.32624 0.0
H1247 H 0.19265 0.88755 0.31144 0.0
C1248 C 0.18708 0.85476 0.21094 0.0
C1249 C 0.19955 0.83728 0.19314 0.0
C1250 C 0.22215 0.82131 0.20124 0.0
C1251 C 0.2312 0.82166 0.22685 0.0
C1252 C 0.21781 0.83851 0.24399 0.0
C1253 C 0.19679 0.85534 0.23629 0.0
C1254 C 0.18655 0.87238 0.2583 0.0
C1255 C 0.20494 0.91625 0.25539 0.0
C1256 C 0.14262 0.8528 0.26154 0.0
C1257 C 0.20482 0.86228 0.27965 0.0
C1258 C 0.22236 0.84236 0.27113 0.0
C1259 C 0.24044 0.82935 0.28762 0.0
C1260 C 0.24132 0.8377 0.3134 0.0
C1261 C 0.22466 0.85925 0.3223 0.0
C1262 C 0.20588 0.87125 0.30516 0.0
H1263 H 0.33372 0.20807 0.80329 0.0
H1264 H 0.44864 0.23459 0.82467 0.0
H1265 H 0.4645 0.23293 0.77963 0.0
H1266 H 0.3214 0.13955 0.75527 0.0
H1267 H 0.29341 0.15229 0.7351 0.0
H1268 H 0.29259 0.15789 0.7687 0.0
H1269 H 0.31348 0.2298 0.76253 0.0
H1270 H 0.31484 0.2245 0.72892 0.0
H1271 H 0.3569 0.26074 0.7453 0.0
H1272 H 0.46785 0.23067 0.73169 0.0
H1273 H 0.4554 0.21754 0.68593 0.0
H1274 H 0.33647 0.18684 0.69719 0.0
C1275 C 0.36222 0.21356 0.7984 0.0
C1276 C 0.39016 0.22173 0.81717 0.0
C1277 C 0.42695 0.22818 0.81036 0.0
C1278 C 0.43622 0.22758 0.78491 0.0
C1279 C 0.40806 0.21978 0.76671 0.0
C1280 C 0.37154 0.21206 0.77326 0.0
C1281 C 0.34555 0.20176 0.75045 0.0
C1282 C 0.31122 0.16042 0.75251 0.0
C1283 C 0.3319 0.23095 0.74658 0.0
C1284 C 0.37312 0.20506 0.72997 0.0
C1285 C 0.40928 0.21624 0.73957 0.0
C1286 C 0.43959 0.22171 0.72401 0.0
C1287 C 0.43239 0.21451 0.69808 0.0
C1288 C 0.39504 0.20125 0.68822 0.0
C1289 C 0.36529 0.19695 0.70434 0.0
H1290 H 0.28289 0.21598 0.96651 0.0
H1291 H 0.40215 0.3071 0.96148 0.0
H1292 H 0.3898 0.34511 0.99303 0.0
H1293 H 0.24103 0.27396 0.97258 0.0
H1294 H 0.20516 0.24382 0.9953 0.0
H1295 H 0.22349 0.22293 0.97323 0.0
H1296 H 0.24388 0.19413 0.00968 0.0
H1297 H 0.22453 0.2138 0.03192 0.0
H1298 H 0.27388 0.22516 0.0347 0.0
H1299 H 0.36214 0.3755 0.0223 0.0
H1300 H 0.32528 0.3903 0.05328 0.0
H1301 H 0.22567 0.27714 0.04121 0.0
C1302 C 0.30659 0.24357 0.97251 0.0
C1303 C 0.34353 0.25856 0.96177 0.0
C1304 C 0.37381 0.29487 0.96984 0.0
C1305 C 0.36692 0.31682 0.98749 0.0
C1306 C 0.32976 0.30171 0.99713 0.0
C1307 C 0.30041 0.26541 0.99044 0.0
C1308 C 0.26332 0.25523 1.00397 0.0
C1309 C 0.23138 0.24861 0.98515 0.0
C1310 C 0.25068 0.22 0.02109 0.0
C1311 C 0.27622 0.29157 0.01921 0.0
C1312 C 0.31442 0.31839 0.01466 0.0
C1313 C 0.33233 0.35456 0.02615 0.0
C1314 C 0.31108 0.36292 0.04347 0.0
C1315 C 0.27265 0.33494 0.04941 0.0
C1316 C 0.25496 0.2991 0.03684 0.0
H1317 H 0.07048 0.34942 0.45883 0.0
H1318 H 0.13567 0.29199 0.47307 0.0
H1319 H 0.09177 0.25621 0.50826 0.0
H1320 H 0.05246 0.3602 0.52416 0.0
H1321 H 1.00502 0.35267 0.51792 0.0
H1322 H 0.0416 0.37315 0.49401 0.0
H1323 H 0.996 0.31928 0.46316 0.0
H1324 H 0.95963 0.29808 0.48722 0.0
H1325 H 0.97679 0.26957 0.47184 0.0
H1326 H 0.04026 0.22602 0.54115 0.0
H1327 H 0.99084 0.2105 0.57373 0.0
H1328 H 0.95946 0.28824 0.53872 0.0
C1329 C 0.07573 0.32952 0.46948 0.0
C1330 C 0.10649 0.32342 0.46322 0.0
C1331 C 0.11252 0.29734 0.47767 0.0
C1332 C 0.08746 0.27659 0.49748 0.0
C1333 C 0.05674 0.2825 0.50265 0.0
C1334 C 0.05124 0.30887 0.48939 0.0
C1335 C 1.01703 0.31106 0.49941 0.0
C1336 C 1.0298 0.35167 0.50948 0.0
C1337 C 0.9855 0.29876 0.4792 0.0
C1338 C 1.00411 0.28183 0.52053 0.0
C1339 C 1.02716 0.26533 0.52178 0.0
C1340 C 1.02195 0.23857 0.54024 0.0
C1341 C 0.99363 0.22972 0.55853 0.0
C1342 C 0.97094 0.24758 0.55833 0.0
C1343 C 0.97555 0.27324 0.53874 0.0
H1344 H 0.69235 0.94579 0.03894 0.0
H1345 H 0.80134 0.96998 0.07117 0.0
H1346 H 0.83602 1.02316 0.04084 0.0
H1347 H 0.72665 0.9703 0.97212 0.0
H1348 H 0.69681 0.99127 0.96656 0.0
H1349 H 0.68158 0.95218 0.98858 0.0
H1350 H 0.67486 0.99432 0.0229 0.0
H1351 H 0.69132 0.03395 1.00125 0.0
H1352 H 0.71596 0.04038 0.03083 0.0
H1353 H 0.85819 0.07904 0.01057 0.0
H1354 H 0.86665 0.12678 0.97793 0.0
H1355 H 0.74326 0.0654 0.96501 0.0
C1356 C 0.72355 0.96105 0.03865 0.0
C1357 C 0.74437 0.95305 0.05669 0.0
C1358 C 0.7851 0.97495 0.05683 0.0
C1359 C 0.80497 1.00549 0.0399 0.0
C1360 C 0.78361 1.01374 0.02293 0.0
C1361 C 0.74383 0.99159 0.02176 0.0
C1362 C 0.72767 1.0077 1.00259 0.0
C1363 C 0.70697 0.97863 0.98119 0.0
C1364 C 0.70087 1.01979 0.01515 0.0
C1365 C 0.76442 0.04249 0.99342 0.0
C1366 C 0.79639 0.04576 1.00553 0.0
C1367 C 0.83338 0.07649 1.00076 0.0
C1368 C 0.8379 0.10376 0.98244 0.0
C1369 C 0.80564 0.09985 0.96904 0.0
C1370 C 0.76847 0.06911 0.97498 0.0
H1371 H 0.8597 0.77928 0.53988 0.0
H1372 H 0.76419 0.66367 0.55161 0.0
H1373 H 0.72494 0.67605 0.52109 0.0
H1374 H 0.80721 0.82646 0.53468 0.0
H1375 H 0.83552 0.85881 0.50979 0.0
H1376 H 0.85721 0.84044 0.53121 0.0
H1377 H 0.87786 0.81308 0.49394 0.0
H1378 H 0.85743 0.83263 0.47241 0.0
H1379 H 0.84228 0.78215 0.47118 0.0
H1380 H 0.69381 0.70436 0.493 0.0
H1381 H 0.67766 0.7409 0.46261 0.0
H1382 H 0.79523 0.83597 0.46647 0.0
C1383 C 0.83093 0.75621 0.53537 0.0
C1384 C 0.8151 0.72033 0.54779 0.0
C1385 C 0.77712 0.69103 0.54185 0.0
C1386 C 0.75447 0.69802 0.5248 0.0
C1387 C 0.77051 0.73422 0.51351 0.0
C1388 C 0.80831 0.76239 0.51793 0.0
C1389 C 0.8189 0.79862 0.50308 0.0
C1390 C 0.83038 0.83311 0.52075 0.0
C1391 C 0.85101 0.8071 0.48402 0.0
C1392 C 0.78101 0.78673 0.48992 0.0
C1393 C 0.75321 0.74975 0.49653 0.0
C1394 C 0.71552 0.73315 0.48749 0.0
C1395 C 0.70644 0.75431 0.47051 0.0
C1396 C 0.73509 0.79137 0.46242 0.0
C1397 C 0.77269 0.80782 0.47252 0.0
H1398 H 0.99596 0.77759 0.96095 0.0
H1399 H 0.93246 0.65353 0.97083 0.0
H1400 H 0.97952 0.65931 1.00307 0.0
H1401 H 0.09089 0.79191 0.96846 0.0
H1402 H 0.10925 0.83608 0.98609 0.0
H1403 H 0.07081 0.82269 0.96366 0.0
H1404 H 1.02795 0.82732 0.9983 0.0
H1405 H 0.06657 0.84158 0.02066 0.0
H1406 H 1.01979 0.80065 0.02715 0.0
H1407 H 1.03403 0.67793 0.03288 0.0
H1408 H 0.08603 0.70871 0.06429 0.0
H1409 H 0.11402 0.8214 0.03672 0.0
C1410 C 0.99172 0.75167 0.97013 0.0
C1411 C 0.96046 0.71504 0.96339 0.0
C1412 C 0.95588 0.68187 0.97583 0.0
C1413 C 0.98275 0.68485 0.99395 0.0
C1414 C 1.01383 0.72124 0.99958 0.0
C1415 C 1.01801 0.75417 0.9885 0.0
C1416 C 0.05307 0.78992 0.99889 0.0
C1417 C 0.08276 0.81141 0.97803 0.0
C1418 C 0.04112 0.81642 0.01204 0.0
C1419 C 0.06793 0.77191 0.01766 0.0
C1420 C 0.0451 0.73219 0.01734 0.0
C1421 C 0.05206 0.70896 0.03332 0.0
C1422 C 0.08186 0.72673 0.05097 0.0
C1423 C 0.1043 0.76739 0.05275 0.0
C1424 C 0.09802 0.79029 0.03534 0.0
H1425 H 0.3281 0.96796 0.46949 0.0
H1426 H 0.20969 0.94128 0.46298 0.0
H1427 H 0.22279 0.99323 0.49357 0.0
H1428 H 0.33699 0.9895 0.5378 0.0
H1429 H 0.38672 0.02674 0.53477 0.0
H1430 H 0.36656 0.98627 0.51351 0.0
H1431 H 0.3882 0.03357 0.47582 0.0
H1432 H 0.40726 0.07412 0.49697 0.0
H1433 H 0.37181 0.06781 0.47369 0.0
H1434 H 0.25165 0.0533 0.52146 0.0
H1435 H 0.2896 0.10685 0.55138 0.0
H1436 H 0.38733 0.09029 0.54177 0.0
C1437 C 0.30468 0.97234 0.47517 0.0
C1438 C 0.26779 0.95044 0.4643 0.0
C1439 C 0.23791 0.95727 0.47165 0.0
C1440 C 0.24527 0.98703 0.4887 0.0
C1441 C 0.28246 1.00911 0.49844 0.0
C1442 C 0.31132 1.00124 0.49254 0.0
C1443 C 0.34859 0.02853 0.5059 0.0
C1444 C 0.3604 1.00644 0.52408 0.0
C1445 C 0.38085 0.05241 0.48696 0.0
C1446 C 0.33649 0.05345 0.51999 0.0
C1447 C 0.29846 0.04235 0.51511 0.0
C1448 C 0.28134 0.06199 0.52555 0.0
C1449 C 0.3032 0.09268 0.54219 0.0
C1450 C 0.34141 0.10286 0.54844 0.0
C1451 C 0.35831 0.08332 0.53693 0.0
loop_
_geom_bond_atom_site_label_1
_geom_bond_atom_site_label_2
_geom_bond_distance
_geom_bond_site_symmetry_2
_ccdc_geom_bond_type
Tb0 C10 2.825 . S
Tb0 O11 2.347 . S
Tb0 O14 2.366 . S
Tb0 O19 2.418 . S
Tb0 O20 2.384 . S
Tb0 O23 2.479 . S
Tb0 O24 2.471 . S
Eu1 O12 2.418 . S
Eu1 O13 2.384 . S
Eu1 O16 2.479 . S
Eu1 O17 2.471 . S
Eu1 O18 2.347 . S
Eu1 O21 2.366 . S
Eu1 C31 2.825 . S
C2 O18 1.259 . S
C2 O19 1.265 . S
C3 O20 1.255 . S
C3 O21 1.265 . S
C4 C6 1.380 . S
C4 C7 1.374 . S
C4 C10 1.507 . S
C5 C6 1.384 . S
C5 C9 1.387 . S
C5 H32 0.930 . S
C6 C4 1.380 . S
C6 C5 1.384 . S
C6 H33 0.931 . S
C7 C4 1.374 . S
C7 C8 1.390 . S
C7 H34 0.930 . S
C8 C7 1.390 . S
C8 C9 1.391 . S
C8 H35 0.930 . S
C9 C5 1.387 . S
C9 C8 1.391 . S
C10 Tb0 2.825 . S
C10 C4 1.507 . S
C10 O23 1.238 . S
C10 O24 1.247 . S
O11 Tb0 2.347 . S
O11 C15 1.259 . S
O12 Eu1 2.418 . S
O12 C15 1.265 . S
O13 Eu1 2.384 . S
O13 C22 1.255 . S
O14 Tb0 2.366 . S
O14 C22 1.265 . S
C15 O11 1.259 . S
C15 O12 1.265 . S
O16 Eu1 2.479 . S
O16 C31 1.238 . S
O17 Eu1 2.471 . S
O17 C31 1.247 . S
O18 Eu1 2.347 . S
O18 C2 1.259 . S
O19 Tb0 2.418 . S
O19 C2 1.265 . S
O20 Tb0 2.384 . S
O20 C3 1.255 . S
O21 Eu1 2.366 . S
O21 C3 1.265 . S
C22 O13 1.255 . S
C22 O14 1.265 . S
O23 Tb0 2.479 . S
O23 C10 1.238 . S
O24 Tb0 2.471 . S
O24 C10 1.247 . S
C25 C28 1.380 . S
C25 C29 1.374 . S
C25 C31 1.507 . S
C26 C27 1.387 . S
C26 C30 1.391 . S
C27 C26 1.387 . S
C27 C28 1.384 . S
C27 H36 0.930 . S
C28 C25 1.380 . S
C28 C27 1.384 . S
C28 H37 0.931 . S
C29 C25 1.374 . S
C29 C30 1.390 . S
C29 H38 0.930 . S
C30 C26 1.391 . S
C30 C29 1.390 . S
C30 H39 0.930 . S
C31 Eu1 2.825 . S
C31 O16 1.238 . S
C31 O17 1.247 . S
C31 C25 1.507 . S
H32 C5 0.930 . S
H33 C6 0.931 . S
H34 C7 0.930 . S
H35 C8 0.930 . S
H36 C27 0.930 . S
H37 C28 0.931 . S
H38 C29 0.930 . S
H39 C30 0.930 . S
Tb40 C50 2.825 . S
Tb40 O51 2.347 . S
Tb40 O54 2.366 . S
Tb40 O59 2.418 . S
Tb40 O60 2.384 . S
Tb40 O63 2.479 . S
Tb40 O64 2.471 . S
Eu41 O52 2.418 . S
Eu41 O53 2.384 . S
Eu41 O56 2.479 . S
Eu41 O57 2.471 . S
Eu41 O58 2.347 . S
Eu41 O61 2.366 . S
Eu41 C71 2.825 . S
C42 O58 1.259 . S
C42 O59 1.265 . S
C43 O60 1.255 . S
C43 O61 1.265 . S
C44 C46 1.380 . S
C44 C47 1.374 . S
C44 C50 1.507 . S
C45 C46 1.384 . S
C45 C49 1.387 . S
C45 H72 0.930 . S
C46 C44 1.380 . S
C46 C45 1.384 . S
C46 H73 0.931 . S
C47 C44 1.374 . S
C47 C48 1.390 . S
C47 H74 0.930 . S
C48 C47 1.390 . S
C48 C49 1.391 . S
C48 H75 0.930 . S
C49 C45 1.387 . S
C49 C48 1.391 . S
C50 Tb40 2.825 . S
C50 C44 1.507 . S
C50 O63 1.238 . S
C50 O64 1.247 . S
O51 Tb40 2.347 . S
O51 C55 1.259 . S
O52 Eu41 2.418 . S
O52 C55 1.265 . S
O53 Eu41 2.384 . S
O53 C62 1.255 . S
O54 Tb40 2.366 . S
O54 C62 1.265 . S
C55 O51 1.259 . S
C55 O52 1.265 . S
O56 Eu41 2.479 . S
O56 C71 1.238 . S
O57 Eu41 2.471 . S
O57 C71 1.247 . S
O58 Eu41 2.347 . S
O58 C42 1.259 . S
O59 Tb40 2.418 . S
O59 C42 1.265 . S
O60 Tb40 2.384 . S
O60 C43 1.255 . S
O61 Eu41 2.366 . S
O61 C43 1.265 . S
C62 O53 1.255 . S
C62 O54 1.265 . S
O63 Tb40 2.479 . S
O63 C50 1.238 . S
O64 Tb40 2.471 . S
O64 C50 1.247 . S
C65 C68 1.380 . S
C65 C69 1.374 . S
C65 C71 1.507 1_455 S
C66 C67 1.387 . S
C66 C70 1.391 . S
C67 C66 1.387 . S
C67 C68 1.384 . S
C67 H76 0.930 . S
C68 C65 1.380 . S
C68 C67 1.384 . S
C68 H77 0.931 . S
C69 C65 1.374 . S
C69 C70 1.390 . S
C69 H78 0.930 . S
C70 C66 1.391 . S
C70 C69 1.390 . S
C70 H79 0.930 . S
C71 Eu41 2.825 . S
C71 O56 1.238 . S
C71 O57 1.247 . S
C71 C65 1.507 1_655 S
H72 C45 0.930 . S
H73 C46 0.931 . S
H74 C47 0.930 . S
H75 C48 0.930 . S
H76 C67 0.930 . S
H77 C68 0.931 . S
H78 C69 0.930 . S
H79 C70 0.930 . S
Tb80 C90 2.825 . S
Tb80 O91 2.347 . S
Tb80 O94 2.366 . S
Tb80 O99 2.418 . S
Tb80 O100 2.384 . S
Tb80 O103 2.479 . S
Tb80 O104 2.471 . S
Eu81 O92 2.418 . S
Eu81 O93 2.384 . S
Eu81 O96 2.479 . S
Eu81 O97 2.471 . S
Eu81 O98 2.347 . S
Eu81 O101 2.366 . S
Eu81 C111 2.825 . S
C82 O98 1.259 . S
C82 O99 1.265 . S
C83 O100 1.255 . S
C83 O101 1.265 . S
C84 C86 1.380 . S
C84 C87 1.374 . S
C84 C90 1.507 . S
C85 C86 1.384 . S
C85 C89 1.387 . S
C85 H112 0.930 . S
C86 C84 1.380 . S
C86 C85 1.384 . S
C86 H113 0.931 . S
C87 C84 1.374 . S
C87 C88 1.390 . S
C87 H114 0.930 . S
C88 C87 1.390 . S
C88 C89 1.391 . S
C88 H115 0.930 . S
C89 C85 1.387 . S
C89 C88 1.391 . S
C90 Tb80 2.825 . S
C90 C84 1.507 . S
C90 O103 1.238 . S
C90 O104 1.247 . S
O91 Tb80 2.347 . S
O91 C95 1.259 . S
O92 Eu81 2.418 . S
O92 C95 1.265 . S
O93 Eu81 2.384 . S
O93 C102 1.255 . S
O94 Tb80 2.366 . S
O94 C102 1.265 . S
C95 O91 1.259 . S
C95 O92 1.265 . S
O96 Eu81 2.479 . S
O96 C111 1.238 . S
O97 Eu81 2.471 . S
O97 C111 1.247 . S
O98 Eu81 2.347 . S
O98 C82 1.259 . S
O99 Tb80 2.418 . S
O99 C82 1.265 . S
O100 Tb80 2.384 . S
O100 C83 1.255 . S
O101 Eu81 2.366 . S
O101 C83 1.265 . S
C102 O93 1.255 . S
C102 O94 1.265 . S
O103 Tb80 2.479 . S
O103 C90 1.238 . S
O104 Tb80 2.471 . S
O104 C90 1.247 . S
C105 C108 1.380 . S
C105 C109 1.374 . S
C105 C111 1.507 1_545 S
C106 C107 1.387 . S
C106 C110 1.391 . S
C107 C106 1.387 . S
C107 C108 1.384 . S
C107 H116 0.930 . S
C108 C105 1.380 . S
C108 C107 1.384 . S
C108 H117 0.931 . S
C109 C105 1.374 . S
C109 C110 1.390 . S
C109 H118 0.930 . S
C110 C106 1.391 . S
C110 C109 1.390 . S
C110 H119 0.930 . S
C111 Eu81 2.825 . S
C111 O96 1.238 . S
C111 O97 1.247 . S
C111 C105 1.507 1_565 S
H112 C85 0.930 . S
H113 C86 0.931 . S
H114 C87 0.930 . S
H115 C88 0.930 . S
H116 C107 0.930 . S
H117 C108 0.931 . S
H118 C109 0.930 . S
H119 C110 0.930 . S
Tb120 C130 2.825 . S
Tb120 O131 2.347 . S
Tb120 O134 2.366 . S
Tb120 O139 2.418 . S
Tb120 O140 2.384 . S
Tb120 O143 2.479 . S
Tb120 O144 2.471 . S
Eu121 O132 2.418 . S
Eu121 O133 2.384 . S
Eu121 O136 2.479 . S
Eu121 O137 2.471 . S
Eu121 O138 2.347 . S
Eu121 O141 2.366 . S
Eu121 C151 2.825 . S
C122 O138 1.259 . S
C122 O139 1.265 . S
C123 O140 1.255 . S
C123 O141 1.265 . S
C124 C126 1.380 . S
C124 C127 1.374 . S
C124 C130 1.507 . S
C125 C126 1.384 . S
C125 C129 1.387 . S
C125 H152 0.930 . S
C126 C124 1.380 . S
C126 C125 1.384 . S
C126 H153 0.931 . S
C127 C124 1.374 . S
C127 C128 1.390 . S
C127 H154 0.930 . S
C128 C127 1.390 . S
C128 C129 1.391 . S
C128 H155 0.930 . S
C129 C125 1.387 . S
C129 C128 1.391 . S
C130 Tb120 2.825 . S
C130 C124 1.507 . S
C130 O143 1.238 . S
C130 O144 1.247 . S
O131 Tb120 2.347 . S
O131 C135 1.259 . S
O132 Eu121 2.418 . S
O132 C135 1.265 . S
O133 Eu121 2.384 . S
O133 C142 1.255 . S
O134 Tb120 2.366 . S
O134 C142 1.265 . S
C135 O131 1.259 . S
C135 O132 1.265 . S
O136 Eu121 2.479 . S
O136 C151 1.238 . S
O137 Eu121 2.471 . S
O137 C151 1.247 . S
O138 Eu121 2.347 . S
O138 C122 1.259 . S
O139 Tb120 2.418 . S
O139 C122 1.265 . S
O140 Tb120 2.384 . S
O140 C123 1.255 . S
O141 Eu121 2.366 . S
O141 C123 1.265 . S
C142 O133 1.255 . S
C142 O134 1.265 . S
O143 Tb120 2.479 . S
O143 C130 1.238 . S
O144 Tb120 2.471 . S
O144 C130 1.247 . S
C145 C148 1.380 . S
C145 C149 1.374 . S
C145 C151 1.507 . S
C146 C147 1.387 . S
C146 C150 1.391 . S
C147 C146 1.387 . S
C147 C148 1.384 . S
C147 H156 0.930 . S
C148 C145 1.380 . S
C148 C147 1.384 . S
C148 H157 0.931 . S
C149 C145 1.374 . S
C149 C150 1.390 . S
C149 H158 0.930 . S
C150 C146 1.391 . S
C150 C149 1.390 . S
C150 H159 0.930 . S
C151 Eu121 2.825 . S
C151 O136 1.238 . S
C151 O137 1.247 . S
C151 C145 1.507 . S
H152 C125 0.930 . S
H153 C126 0.931 . S
H154 C127 0.930 . S
H155 C128 0.930 . S
H156 C147 0.930 . S
H157 C148 0.931 . S
H158 C149 0.930 . S
H159 C150 0.930 . S
Tb160 C170 2.825 . S
Tb160 O171 2.347 . S
Tb160 O174 2.366 . S
Tb160 O179 2.418 . S
Tb160 O180 2.384 . S
Tb160 O183 2.479 . S
Tb160 O184 2.471 . S
Eu161 O172 2.418 . S
Eu161 O173 2.384 . S
Eu161 O176 2.479 . S
Eu161 O177 2.471 . S
Eu161 O178 2.347 . S
Eu161 O181 2.366 . S
Eu161 C191 2.825 . S
C162 O178 1.259 . S
C162 O179 1.265 . S
C163 O180 1.255 . S
C163 O181 1.265 . S
C164 C166 1.380 . S
C164 C167 1.374 . S
C164 C170 1.507 . S
C165 C166 1.384 . S
C165 C169 1.387 . S
C165 H192 0.930 . S
C166 C164 1.380 . S
C166 C165 1.384 . S
C166 H193 0.931 . S
C167 C164 1.374 . S
C167 C168 1.390 . S
C167 H194 0.930 . S
C168 C167 1.390 . S
C168 C169 1.391 . S
C168 H195 0.930 . S
C169 C165 1.387 . S
C169 C168 1.391 . S
C170 Tb160 2.825 . S
C170 C164 1.507 . S
C170 O183 1.238 . S
C170 O184 1.247 . S
O171 Tb160 2.347 . S
O171 C175 1.259 . S
O172 Eu161 2.418 . S
O172 C175 1.265 . S
O173 Eu161 2.384 . S
O173 C182 1.255 . S
O174 Tb160 2.366 . S
O174 C182 1.265 . S
C175 O171 1.259 . S
C175 O172 1.265 . S
O176 Eu161 2.479 . S
O176 C191 1.238 . S
O177 Eu161 2.471 . S
O177 C191 1.247 . S
O178 Eu161 2.347 . S
O178 C162 1.259 . S
O179 Tb160 2.418 . S
O179 C162 1.265 . S
O180 Tb160 2.384 . S
O180 C163 1.255 . S
O181 Eu161 2.366 . S
O181 C163 1.265 . S
C182 O173 1.255 . S
C182 O174 1.265 . S
O183 Tb160 2.479 . S
O183 C170 1.238 . S
O184 Tb160 2.471 . S
O184 C170 1.247 . S
C185 C188 1.380 . S
C185 C189 1.374 . S
C185 C191 1.507 1_655 S
C186 C187 1.387 . S
C186 C190 1.391 . S
C187 C186 1.387 . S
C187 C188 1.384 . S
C187 H196 0.930 . S
C188 C185 1.380 . S
C188 C187 1.384 . S
C188 H197 0.931 . S
C189 C185 1.374 . S
C189 C190 1.390 . S
C189 H198 0.930 . S
C190 C186 1.391 . S
C190 C189 1.390 . S
C190 H199 0.930 . S
C191 Eu161 2.825 . S
C191 O176 1.238 . S
C191 O177 1.247 . S
C191 C185 1.507 1_455 S
H192 C165 0.930 . S
H193 C166 0.931 . S
H194 C167 0.930 . S
H195 C168 0.930 . S
H196 C187 0.930 . S
H197 C188 0.931 . S
H198 C189 0.930 . S
H199 C190 0.930 . S
Tb200 C210 2.825 . S
Tb200 O211 2.347 . S
Tb200 O214 2.366 . S
Tb200 O219 2.418 . S
Tb200 O220 2.384 . S
Tb200 O223 2.479 . S
Tb200 O224 2.471 . S
Eu201 O212 2.418 . S
Eu201 O213 2.384 . S
Eu201 O216 2.479 . S
Eu201 O217 2.471 . S
Eu201 O218 2.347 . S
Eu201 O221 2.366 . S
Eu201 C231 2.825 . S
C202 O218 1.259 . S
C202 O219 1.265 . S
C203 O220 1.255 . S
C203 O221 1.265 . S
C204 C206 1.380 . S
C204 C207 1.374 . S
C204 C210 1.507 . S
C205 C206 1.384 . S
C205 C209 1.387 . S
C205 H232 0.930 . S
C206 C204 1.380 . S
C206 C205 1.384 . S
C206 H233 0.931 . S
C207 C204 1.374 . S
C207 C208 1.390 . S
C207 H234 0.930 . S
C208 C207 1.390 . S
C208 C209 1.391 . S
C208 H235 0.930 . S
C209 C205 1.387 . S
C209 C208 1.391 . S
C210 Tb200 2.825 . S
C210 C204 1.507 . S
C210 O223 1.238 . S
C210 O224 1.247 . S
O211 Tb200 2.347 . S
O211 C215 1.259 . S
O212 Eu201 2.418 . S
O212 C215 1.265 . S
O213 Eu201 2.384 . S
O213 C222 1.255 . S
O214 Tb200 2.366 . S
O214 C222 1.265 . S
C215 O211 1.259 . S
C215 O212 1.265 . S
O216 Eu201 2.479 . S
O216 C231 1.238 . S
O217 Eu201 2.471 . S
O217 C231 1.247 . S
O218 Eu201 2.347 . S
O218 C202 1.259 . S
O219 Tb200 2.418 . S
O219 C202 1.265 . S
O220 Tb200 2.384 . S
O220 C203 1.255 . S
O221 Eu201 2.366 . S
O221 C203 1.265 . S
C222 O213 1.255 . S
C222 O214 1.265 . S
O223 Tb200 2.479 . S
O223 C210 1.238 . S
O224 Tb200 2.471 . S
O224 C210 1.247 . S
C225 C228 1.380 . S
C225 C229 1.374 . S
C225 C231 1.507 1_565 S
C226 C227 1.387 . S
C226 C230 1.391 . S
C227 C226 1.387 . S
C227 C228 1.384 . S
C227 H236 0.930 . S
C228 C225 1.380 . S
C228 C227 1.384 . S
C228 H237 0.931 . S
C229 C225 1.374 . S
C229 C230 1.390 . S
C229 H238 0.930 . S
C230 C226 1.391 . S
C230 C229 1.390 . S
C230 H239 0.930 . S
C231 Eu201 2.825 . S
C231 O216 1.238 . S
C231 O217 1.247 . S
C231 C225 1.507 1_545 S
H232 C205 0.930 . S
H233 C206 0.931 . S
H234 C207 0.930 . S
H235 C208 0.930 . S
H236 C227 0.930 . S
H237 C228 0.931 . S
H238 C229 0.930 . S
H239 C230 0.930 . S
Tb240 C250 2.825 . S
Tb240 O251 2.347 . S
Tb240 O254 2.366 . S
Tb240 O259 2.418 . S
Tb240 O260 2.384 . S
Tb240 O263 2.479 . S
Tb240 O264 2.471 . S
Eu241 O252 2.418 . S
Eu241 O253 2.384 . S
Eu241 O256 2.479 . S
Eu241 O257 2.471 . S
Eu241 O258 2.347 . S
Eu241 O261 2.366 . S
Eu241 C271 2.825 . S
C242 O258 1.259 . S
C242 O259 1.265 . S
C243 O260 1.255 . S
C243 O261 1.265 . S
C244 C246 1.380 . S
C244 C247 1.374 . S
C244 C250 1.507 . S
C245 C246 1.384 . S
C245 C249 1.387 . S
C245 H272 0.930 . S
C246 C244 1.380 . S
C246 C245 1.384 . S
C246 H273 0.931 . S
C247 C244 1.374 . S
C247 C248 1.390 . S
C247 H274 0.930 . S
C248 C247 1.390 . S
C248 C249 1.391 . S
C248 H275 0.930 . S
C249 C245 1.387 . S
C249 C248 1.391 . S
C250 Tb240 2.825 . S
C250 C244 1.507 . S
C250 O263 1.238 . S
C250 O264 1.247 . S
O251 Tb240 2.347 . S
O251 C255 1.259 . S
O252 Eu241 2.418 . S
O252 C255 1.265 . S
O253 Eu241 2.384 . S
O253 C262 1.255 . S
O254 Tb240 2.366 . S
O254 C262 1.265 . S
C255 O251 1.259 . S
C255 O252 1.265 . S
O256 Eu241 2.479 . S
O256 C271 1.238 . S
O257 Eu241 2.471 . S
O257 C271 1.247 . S
O258 Eu241 2.347 . S
O258 C242 1.259 . S
O259 Tb240 2.418 . S
O259 C242 1.265 . S
O260 Tb240 2.384 . S
O260 C243 1.255 . S
O261 Eu241 2.366 . S
O261 C243 1.265 . S
C262 O253 1.255 . S
C262 O254 1.265 . S
O263 Tb240 2.479 . S
O263 C250 1.238 . S
O264 Tb240 2.471 . S
O264 C250 1.247 . S
C265 C268 1.380 . S
C265 C269 1.374 . S
C265 C271 1.507 . S
C266 C267 1.387 . S
C266 C270 1.391 . S
C267 C266 1.387 . S
C267 C268 1.384 . S
C267 H276 0.930 . S
C268 C265 1.380 . S
C268 C267 1.384 . S
C268 H277 0.931 . S
C269 C265 1.374 . S
C269 C270 1.390 . S
C269 H278 0.930 . S
C270 C266 1.391 . S
C270 C269 1.390 . S
C270 H279 0.930 . S
C271 Eu241 2.825 . S
C271 O256 1.238 . S
C271 O257 1.247 . S
C271 C265 1.507 . S
H272 C245 0.930 . S
H273 C246 0.931 . S
H274 C247 0.930 . S
H275 C248 0.930 . S
H276 C267 0.930 . S
H277 C268 0.931 . S
H278 C269 0.930 . S
H279 C270 0.930 . S
Tb280 C290 2.825 . S
Tb280 O291 2.347 . S
Tb280 O294 2.366 . S
Tb280 O299 2.418 . S
Tb280 O300 2.384 . S
Tb280 O303 2.479 . S
Tb280 O304 2.471 . S
Eu281 O292 2.418 . S
Eu281 O293 2.384 . S
Eu281 O296 2.479 . S
Eu281 O297 2.471 . S
Eu281 O298 2.347 . S
Eu281 O301 2.366 . S
Eu281 C311 2.825 . S
C282 O298 1.259 . S
C282 O299 1.265 . S
C283 O300 1.255 . S
C283 O301 1.265 . S
C284 C286 1.380 . S
C284 C287 1.374 . S
C284 C290 1.507 . S
C285 C286 1.384 . S
C285 C289 1.387 . S
C285 H312 0.930 . S
C286 C284 1.380 . S
C286 C285 1.384 . S
C286 H313 0.931 . S
C287 C284 1.374 . S
C287 C288 1.390 . S
C287 H314 0.930 . S
C288 C287 1.390 . S
C288 C289 1.391 . S
C288 H315 0.930 . S
C289 C285 1.387 . S
C289 C288 1.391 . S
C290 Tb280 2.825 . S
C290 C284 1.507 . S
C290 O303 1.238 . S
C290 O304 1.247 . S
O291 Tb280 2.347 . S
O291 C295 1.259 . S
O292 Eu281 2.418 . S
O292 C295 1.265 . S
O293 Eu281 2.384 . S
O293 C302 1.255 . S
O294 Tb280 2.366 . S
O294 C302 1.265 . S
C295 O291 1.259 . S
C295 O292 1.265 . S
O296 Eu281 2.479 . S
O296 C311 1.238 . S
O297 Eu281 2.471 . S
O297 C311 1.247 . S
O298 Eu281 2.347 . S
O298 C282 1.259 . S
O299 Tb280 2.418 . S
O299 C282 1.265 . S
O300 Tb280 2.384 . S
O300 C283 1.255 . S
O301 Eu281 2.366 . S
O301 C283 1.265 . S
C302 O293 1.255 . S
C302 O294 1.265 . S
O303 Tb280 2.479 . S
O303 C290 1.238 . S
O304 Tb280 2.471 . S
O304 C290 1.247 . S
C305 C308 1.380 . S
C305 C309 1.374 . S
C305 C311 1.507 1_455 S
C306 C307 1.387 . S
C306 C310 1.391 . S
C307 C306 1.387 . S
C307 C308 1.384 . S
C307 H316 0.930 . S
C308 C305 1.380 . S
C308 C307 1.384 . S
C308 H317 0.931 . S
C309 C305 1.374 . S
C309 C310 1.390 . S
C309 H318 0.930 . S
C310 C306 1.391 . S
C310 C309 1.390 . S
C310 H319 0.930 . S
C311 Eu281 2.825 . S
C311 O296 1.238 . S
C311 O297 1.247 . S
C311 C305 1.507 1_655 S
H312 C285 0.930 . S
H313 C286 0.931 . S
H314 C287 0.930 . S
H315 C288 0.930 . S
H316 C307 0.930 . S
H317 C308 0.931 . S
H318 C309 0.930 . S
H319 C310 0.930 . S
Tb320 C330 2.825 . S
Tb320 O331 2.347 . S
Tb320 O334 2.366 . S
Tb320 O339 2.418 . S
Tb320 O340 2.384 . S
Tb320 O343 2.479 . S
Tb320 O344 2.471 . S
Eu321 O332 2.418 . S
Eu321 O333 2.384 . S
Eu321 O336 2.479 . S
Eu321 O337 2.471 . S
Eu321 O338 2.347 . S
Eu321 O341 2.366 . S
Eu321 C351 2.825 . S
C322 O338 1.259 . S
C322 O339 1.265 . S
C323 O340 1.255 . S
C323 O341 1.265 . S
C324 C326 1.380 . S
C324 C327 1.374 . S
C324 C330 1.507 . S
C325 C326 1.384 . S
C325 C329 1.387 . S
C325 H352 0.930 . S
C326 C324 1.380 . S
C326 C325 1.384 . S
C326 H353 0.931 . S
C327 C324 1.374 . S
C327 C328 1.390 . S
C327 H354 0.930 . S
C328 C327 1.390 . S
C328 C329 1.391 . S
C328 H355 0.930 . S
C329 C325 1.387 . S
C329 C328 1.391 . S
C330 Tb320 2.825 . S
C330 C324 1.507 . S
C330 O343 1.238 . S
C330 O344 1.247 . S
O331 Tb320 2.347 . S
O331 C335 1.259 . S
O332 Eu321 2.418 . S
O332 C335 1.265 . S
O333 Eu321 2.384 . S
O333 C342 1.255 . S
O334 Tb320 2.366 . S
O334 C342 1.265 . S
C335 O331 1.259 . S
C335 O332 1.265 . S
O336 Eu321 2.479 . S
O336 C351 1.238 . S
O337 Eu321 2.471 . S
O337 C351 1.247 . S
O338 Eu321 2.347 . S
O338 C322 1.259 . S
O339 Tb320 2.418 . S
O339 C322 1.265 . S
O340 Tb320 2.384 . S
O340 C323 1.255 . S
O341 Eu321 2.366 . S
O341 C323 1.265 . S
C342 O333 1.255 . S
C342 O334 1.265 . S
O343 Tb320 2.479 . S
O343 C330 1.238 . S
O344 Tb320 2.471 . S
O344 C330 1.247 . S
C345 C348 1.380 . S
C345 C349 1.374 . S
C345 C351 1.507 1_545 S
C346 C347 1.387 . S
C346 C350 1.391 . S
C347 C346 1.387 . S
C347 C348 1.384 . S
C347 H356 0.930 . S
C348 C345 1.380 . S
C348 C347 1.384 . S
C348 H357 0.931 . S
C349 C345 1.374 . S
C349 C350 1.390 . S
C349 H358 0.930 . S
C350 C346 1.391 . S
C350 C349 1.390 . S
C350 H359 0.930 . S
C351 Eu321 2.825 . S
C351 O336 1.238 . S
C351 O337 1.247 . S
C351 C345 1.507 1_565 S
H352 C325 0.930 . S
H353 C326 0.931 . S
H354 C327 0.930 . S
H355 C328 0.930 . S
H356 C347 0.930 . S
H357 C348 0.931 . S
H358 C349 0.930 . S
H359 C350 0.930 . S
Tb360 C370 2.825 . S
Tb360 O371 2.347 . S
Tb360 O374 2.366 . S
Tb360 O379 2.418 . S
Tb360 O380 2.384 . S
Tb360 O383 2.479 . S
Tb360 O384 2.471 . S
Eu361 O372 2.418 . S
Eu361 O373 2.384 . S
Eu361 O376 2.479 . S
Eu361 O377 2.471 . S
Eu361 O378 2.347 . S
Eu361 O381 2.366 . S
Eu361 C391 2.825 . S
C362 O378 1.259 . S
C362 O379 1.265 . S
C363 O380 1.255 . S
C363 O381 1.265 . S
C364 C366 1.380 . S
C364 C367 1.374 . S
C364 C370 1.507 . S
C365 C366 1.384 . S
C365 C369 1.387 . S
C365 H392 0.930 . S
C366 C364 1.380 . S
C366 C365 1.384 . S
C366 H393 0.931 . S
C367 C364 1.374 . S
C367 C368 1.390 . S
C367 H394 0.930 . S
C368 C367 1.390 . S
C368 C369 1.391 . S
C368 H395 0.930 . S
C369 C365 1.387 . S
C369 C368 1.391 . S
C370 Tb360 2.825 . S
C370 C364 1.507 . S
C370 O383 1.238 . S
C370 O384 1.247 . S
O371 Tb360 2.347 . S
O371 C375 1.259 . S
O372 Eu361 2.418 . S
O372 C375 1.265 . S
O373 Eu361 2.384 . S
O373 C382 1.255 . S
O374 Tb360 2.366 . S
O374 C382 1.265 . S
C375 O371 1.259 . S
C375 O372 1.265 . S
O376 Eu361 2.479 . S
O376 C391 1.238 . S
O377 Eu361 2.471 . S
O377 C391 1.247 . S
O378 Eu361 2.347 . S
O378 C362 1.259 . S
O379 Tb360 2.418 . S
O379 C362 1.265 . S
O380 Tb360 2.384 . S
O380 C363 1.255 . S
O381 Eu361 2.366 . S
O381 C363 1.265 . S
C382 O373 1.255 . S
C382 O374 1.265 . S
O383 Tb360 2.479 . S
O383 C370 1.238 . S
O384 Tb360 2.471 . S
O384 C370 1.247 . S
C385 C388 1.380 . S
C385 C389 1.374 . S
C385 C391 1.507 . S
C386 C387 1.387 . S
C386 C390 1.391 . S
C387 C386 1.387 . S
C387 C388 1.384 . S
C387 H396 0.930 . S
C388 C385 1.380 . S
C388 C387 1.384 . S
C388 H397 0.931 . S
C389 C385 1.374 . S
C389 C390 1.390 . S
C389 H398 0.930 . S
C390 C386 1.391 . S
C390 C389 1.390 . S
C390 H399 0.930 . S
C391 Eu361 2.825 . S
C391 O376 1.238 . S
C391 O377 1.247 . S
C391 C385 1.507 . S
H392 C365 0.930 . S
H393 C366 0.931 . S
H394 C367 0.930 . S
H395 C368 0.930 . S
H396 C387 0.930 . S
H397 C388 0.931 . S
H398 C389 0.930 . S
H399 C390 0.930 . S
Tb400 C410 2.825 . S
Tb400 O411 2.347 . S
Tb400 O414 2.366 . S
Tb400 O419 2.418 . S
Tb400 O420 2.384 . S
Tb400 O423 2.479 . S
Tb400 O424 2.471 . S
Eu401 O412 2.418 . S
Eu401 O413 2.384 . S
Eu401 O416 2.479 . S
Eu401 O417 2.471 . S
Eu401 O418 2.347 . S
Eu401 O421 2.366 . S
Eu401 C431 2.825 . S
C402 O418 1.259 . S
C402 O419 1.265 . S
C403 O420 1.255 . S
C403 O421 1.265 . S
C404 C406 1.380 . S
C404 C407 1.374 . S
C404 C410 1.507 . S
C405 C406 1.384 . S
C405 C409 1.387 . S
C405 H432 0.930 . S
C406 C404 1.380 . S
C406 C405 1.384 . S
C406 H433 0.931 . S
C407 C404 1.374 . S
C407 C408 1.390 . S
C407 H434 0.930 . S
C408 C407 1.390 . S
C408 C409 1.391 . S
C408 H435 0.930 . S
C409 C405 1.387 . S
C409 C408 1.391 . S
C410 Tb400 2.825 . S
C410 C404 1.507 . S
C410 O423 1.238 . S
C410 O424 1.247 . S
O411 Tb400 2.347 . S
O411 C415 1.259 . S
O412 Eu401 2.418 . S
O412 C415 1.265 . S
O413 Eu401 2.384 . S
O413 C422 1.255 . S
O414 Tb400 2.366 . S
O414 C422 1.265 . S
C415 O411 1.259 . S
C415 O412 1.265 . S
O416 Eu401 2.479 . S
O416 C431 1.238 . S
O417 Eu401 2.471 . S
O417 C431 1.247 . S
O418 Eu401 2.347 . S
O418 C402 1.259 . S
O419 Tb400 2.418 . S
O419 C402 1.265 . S
O420 Tb400 2.384 . S
O420 C403 1.255 . S
O421 Eu401 2.366 . S
O421 C403 1.265 . S
C422 O413 1.255 . S
C422 O414 1.265 . S
O423 Tb400 2.479 . S
O423 C410 1.238 . S
O424 Tb400 2.471 . S
O424 C410 1.247 . S
C425 C428 1.380 . S
C425 C429 1.374 . S
C425 C431 1.507 1_655 S
C426 C427 1.387 . S
C426 C430 1.391 . S
C427 C426 1.387 . S
C427 C428 1.384 . S
C427 H436 0.930 . S
C428 C425 1.380 . S
C428 C427 1.384 . S
C428 H437 0.931 . S
C429 C425 1.374 . S
C429 C430 1.390 . S
C429 H438 0.930 . S
C430 C426 1.391 . S
C430 C429 1.390 . S
C430 H439 0.930 . S
C431 Eu401 2.825 . S
C431 O416 1.238 . S
C431 O417 1.247 . S
C431 C425 1.507 1_455 S
H432 C405 0.930 . S
H433 C406 0.931 . S
H434 C407 0.930 . S
H435 C408 0.930 . S
H436 C427 0.930 . S
H437 C428 0.931 . S
H438 C429 0.930 . S
H439 C430 0.930 . S
Tb440 C450 2.825 . S
Tb440 O451 2.347 . S
Tb440 O454 2.366 . S
Tb440 O459 2.418 . S
Tb440 O460 2.384 . S
Tb440 O463 2.479 . S
Tb440 O464 2.471 . S
Eu441 O452 2.418 . S
Eu441 O453 2.384 . S
Eu441 O456 2.479 . S
Eu441 O457 2.471 . S
Eu441 O458 2.347 . S
Eu441 O461 2.366 . S
Eu441 C471 2.825 . S
C442 O458 1.259 . S
C442 O459 1.265 . S
C443 O460 1.255 . S
C443 O461 1.265 . S
C444 C446 1.380 . S
C444 C447 1.374 . S
C444 C450 1.507 . S
C445 C446 1.384 . S
C445 C449 1.387 . S
C445 H472 0.930 . S
C446 C444 1.380 . S
C446 C445 1.384 . S
C446 H473 0.931 . S
C447 C444 1.374 . S
C447 C448 1.390 . S
C447 H474 0.930 . S
C448 C447 1.390 . S
C448 C449 1.391 . S
C448 H475 0.930 . S
C449 C445 1.387 . S
C449 C448 1.391 . S
C450 Tb440 2.825 . S
C450 C444 1.507 . S
C450 O463 1.238 . S
C450 O464 1.247 . S
O451 Tb440 2.347 . S
O451 C455 1.259 . S
O452 Eu441 2.418 . S
O452 C455 1.265 . S
O453 Eu441 2.384 . S
O453 C462 1.255 . S
O454 Tb440 2.366 . S
O454 C462 1.265 . S
C455 O451 1.259 . S
C455 O452 1.265 . S
O456 Eu441 2.479 . S
O456 C471 1.238 . S
O457 Eu441 2.471 . S
O457 C471 1.247 . S
O458 Eu441 2.347 . S
O458 C442 1.259 . S
O459 Tb440 2.418 . S
O459 C442 1.265 . S
O460 Tb440 2.384 . S
O460 C443 1.255 . S
O461 Eu441 2.366 . S
O461 C443 1.265 . S
C462 O453 1.255 . S
C462 O454 1.265 . S
O463 Tb440 2.479 . S
O463 C450 1.238 . S
O464 Tb440 2.471 . S
O464 C450 1.247 . S
C465 C468 1.380 . S
C465 C469 1.374 . S
C465 C471 1.507 1_565 S
C466 C467 1.387 . S
C466 C470 1.391 . S
C467 C466 1.387 . S
C467 C468 1.384 . S
C467 H476 0.930 . S
C468 C465 1.380 . S
C468 C467 1.384 . S
C468 H477 0.931 . S
C469 C465 1.374 . S
C469 C470 1.390 . S
C469 H478 0.930 . S
C470 C466 1.391 . S
C470 C469 1.390 . S
C470 H479 0.930 . S
C471 Eu441 2.825 . S
C471 O456 1.238 . S
C471 O457 1.247 . S
C471 C465 1.507 1_545 S
H472 C445 0.930 . S
H473 C446 0.931 . S
H474 C447 0.930 . S
H475 C448 0.930 . S
H476 C467 0.930 . S
H477 C468 0.931 . S
H478 C469 0.930 . S
H479 C470 0.930 . S
H480 C492 0.930 . S
H481 C494 0.930 . S
H482 C495 0.930 . S
H483 C499 0.959 . S
H484 C499 0.959 . S
H485 C499 0.961 1_565 S
H486 C500 0.960 . S
H487 C500 0.961 1_545 S
H488 C500 0.959 . S
H489 C503 0.929 . S
H490 C504 0.931 . S
H491 C506 0.930 . S
C492 H480 0.930 . S
C492 C493 1.399 . S
C492 C497 1.399 . S
C493 C492 1.399 . S
C493 C494 1.376 . S
C494 H481 0.930 . S
C494 C493 1.376 . S
C494 C495 1.388 . S
C495 H482 0.930 . S
C495 C494 1.388 . S
C495 C496 1.390 . S
C496 C495 1.390 . S
C496 C497 1.394 . S
C496 C502 1.465 1_565 S
C497 C492 1.399 . S
C497 C496 1.394 . S
C497 C498 1.519 1_565 S
C498 C497 1.519 1_545 S
C498 C499 1.502 . S
C498 C500 1.560 1_545 S
C498 C501 1.523 . S
C499 H483 0.959 . S
C499 H484 0.959 . S
C499 H485 0.961 1_545 S
C499 C498 1.502 . S
C500 H486 0.960 . S
C500 H487 0.961 1_565 S
C500 H488 0.959 . S
C500 C498 1.560 1_565 S
C501 C498 1.523 . S
C501 C502 1.396 . S
C501 C506 1.390 . S
C502 C496 1.465 1_545 S
C502 C501 1.396 . S
C502 C503 1.399 . S
C503 H489 0.929 . S
C503 C502 1.399 . S
C503 C504 1.385 . S
C504 H490 0.931 . S
C504 C503 1.385 . S
C504 C505 1.389 . S
C505 C504 1.389 . S
C505 C506 1.387 . S
C506 H491 0.930 . S
C506 C501 1.390 . S
C506 C505 1.387 . S
H507 C519 0.930 . S
H508 C521 0.930 . S
H509 C522 0.930 . S
H510 C526 0.959 . S
H511 C526 0.959 . S
H512 C526 0.961 . S
H513 C527 0.960 . S
H514 C527 0.961 . S
H515 C527 0.959 . S
H516 C530 0.929 . S
H517 C531 0.931 . S
H518 C533 0.930 . S
C519 H507 0.930 . S
C519 C520 1.399 . S
C519 C524 1.399 . S
C520 C519 1.399 . S
C520 C521 1.376 . S
C521 H508 0.930 . S
C521 C520 1.376 . S
C521 C522 1.388 . S
C522 H509 0.930 . S
C522 C521 1.388 . S
C522 C523 1.390 . S
C523 C522 1.390 . S
C523 C524 1.394 . S
C523 C529 1.465 . S
C524 C519 1.399 . S
C524 C523 1.394 . S
C524 C525 1.516 . S
C525 C524 1.516 . S
C525 C526 1.502 . S
C525 C527 1.561 . S
C525 C528 1.526 . S
C526 H510 0.959 . S
C526 H511 0.959 . S
C526 H512 0.961 . S
C526 C525 1.502 . S
C527 H513 0.960 . S
C527 H514 0.961 . S
C527 H515 0.959 . S
C527 C525 1.561 . S
C528 C525 1.526 . S
C528 C529 1.396 . S
C528 C533 1.390 . S
C529 C523 1.465 . S
C529 C528 1.396 . S
C529 C530 1.399 . S
C530 H516 0.929 . S
C530 C529 1.399 . S
C530 C531 1.385 . S
C531 H517 0.931 . S
C531 C530 1.385 . S
C531 C532 1.389 . S
C532 C531 1.389 . S
C532 C533 1.387 . S
C533 H518 0.930 . S
C533 C528 1.390 . S
C533 C532 1.387 . S
H534 C546 0.930 . S
H535 C548 0.930 . S
H536 C549 0.930 . S
H537 C553 0.959 . S
H538 C553 0.959 . S
H539 C553 0.961 1_655 S
H540 C554 0.960 . S
H541 C554 0.961 . S
H542 C554 0.959 . S
H543 C557 0.929 . S
H544 C558 0.931 . S
H545 C560 0.930 . S
C546 H534 0.930 . S
C546 C547 1.399 . S
C546 C551 1.399 . S
C547 C546 1.399 . S
C547 C548 1.376 . S
C548 H535 0.930 . S
C548 C547 1.376 . S
C548 C549 1.388 . S
C549 H536 0.930 . S
C549 C548 1.388 . S
C549 C550 1.390 . S
C550 C549 1.390 . S
C550 C551 1.394 . S
C550 C556 1.465 1_655 S
C551 C546 1.399 . S
C551 C550 1.394 . S
C551 C552 1.516 1_655 S
C552 C551 1.516 1_455 S
C552 C553 1.502 . S
C552 C554 1.561 . S
C552 C555 1.526 . S
C553 H537 0.959 . S
C553 H538 0.959 . S
C553 H539 0.961 1_455 S
C553 C552 1.502 . S
C554 H540 0.960 . S
C554 H541 0.961 . S
C554 H542 0.959 . S
C554 C552 1.561 . S
C555 C552 1.526 . S
C555 C556 1.396 . S
C555 C560 1.390 . S
C556 C550 1.465 1_455 S
C556 C555 1.396 . S
C556 C557 1.399 . S
C557 H543 0.929 . S
C557 C556 1.399 . S
C557 C558 1.385 . S
C558 H544 0.931 . S
C558 C557 1.385 . S
C558 C559 1.389 . S
C559 C558 1.389 . S
C559 C560 1.387 . S
C560 H545 0.930 . S
C560 C555 1.390 . S
C560 C559 1.387 . S
H561 C573 0.930 . S
H562 C575 0.930 . S
H563 C576 0.930 . S
H564 C580 0.959 . S
H565 C580 0.959 . S
H566 C580 0.961 . S
H567 C581 0.960 . S
H568 C581 0.961 . S
H569 C581 0.959 . S
H570 C584 0.929 . S
H571 C585 0.931 . S
H572 C587 0.930 . S
C573 H561 0.930 . S
C573 C574 1.399 . S
C573 C578 1.399 . S
C574 C573 1.399 . S
C574 C575 1.376 . S
C575 H562 0.930 . S
C575 C574 1.376 . S
C575 C576 1.388 . S
C576 H563 0.930 . S
C576 C575 1.388 . S
C576 C577 1.390 . S
C577 C576 1.390 . S
C577 C578 1.394 . S
C577 C583 1.465 1_565 S
C578 C573 1.399 . S
C578 C577 1.394 . S
C578 C579 1.516 1_565 S
C579 C578 1.516 1_545 S
C579 C580 1.502 . S
C579 C581 1.561 . S
C579 C582 1.526 . S
C580 H564 0.959 . S
C580 H565 0.959 . S
C580 H566 0.961 . S
C580 C579 1.502 . S
C581 H567 0.960 . S
C581 H568 0.961 . S
C581 H569 0.959 . S
C581 C579 1.561 . S
C582 C579 1.526 . S
C582 C583 1.396 . S
C582 C587 1.390 . S
C583 C577 1.465 1_545 S
C583 C582 1.396 . S
C583 C584 1.399 . S
C584 H570 0.929 . S
C584 C583 1.399 . S
C584 C585 1.385 . S
C585 H571 0.931 . S
C585 C584 1.385 . S
C585 C586 1.389 . S
C586 C585 1.389 . S
C586 C587 1.387 . S
C587 H572 0.930 . S
C587 C582 1.390 . S
C587 C586 1.387 . S
H588 C600 0.930 . S
H589 C602 0.930 . S
H590 C603 0.930 . S
H591 C607 0.959 . S
H592 C607 0.959 . S
H593 C607 0.961 . S
H594 C608 0.960 . S
H595 C608 0.961 . S
H596 C608 0.959 . S
H597 C611 0.929 . S
H598 C612 0.931 . S
H599 C614 0.930 . S
C600 H588 0.930 . S
C600 C601 1.399 . S
C600 C605 1.399 . S
C601 C600 1.399 . S
C601 C602 1.376 . S
C602 H589 0.930 . S
C602 C601 1.376 . S
C602 C603 1.388 . S
C603 H590 0.930 . S
C603 C602 1.388 . S
C603 C604 1.390 . S
C604 C603 1.390 . S
C604 C605 1.394 . S
C604 C610 1.465 . S
C605 C600 1.399 . S
C605 C604 1.394 . S
C605 C606 1.516 . S
C606 C605 1.516 . S
C606 C607 1.502 . S
C606 C608 1.561 . S
C606 C609 1.526 . S
C607 H591 0.959 . S
C607 H592 0.959 . S
C607 H593 0.961 . S
C607 C606 1.502 . S
C608 H594 0.960 . S
C608 H595 0.961 . S
C608 H596 0.959 . S
C608 C606 1.561 . S
C609 C606 1.526 . S
C609 C610 1.396 . S
C609 C614 1.390 . S
C610 C604 1.465 . S
C610 C609 1.396 . S
C610 C611 1.399 . S
C611 H597 0.929 . S
C611 C610 1.399 . S
C611 C612 1.385 . S
C612 H598 0.931 . S
C612 C611 1.385 . S
C612 C613 1.389 . S
C613 C612 1.389 . S
C613 C614 1.387 . S
C614 H599 0.930 . S
C614 C609 1.390 . S
C614 C613 1.387 . S
H615 C627 0.930 . S
H616 C629 0.930 . S
H617 C630 0.930 . S
H618 C634 0.959 . S
H619 C634 0.959 . S
H620 C634 0.961 1_655 S
H621 C635 0.960 . S
H622 C635 0.961 1_455 S
H623 C635 0.959 . S
H624 C638 0.929 . S
H625 C639 0.931 . S
H626 C641 0.930 . S
C627 H615 0.930 . S
C627 C628 1.399 . S
C627 C632 1.399 . S
C628 C627 1.399 . S
C628 C629 1.376 . S
C629 H616 0.930 . S
C629 C628 1.376 . S
C629 C630 1.388 . S
C630 H617 0.930 . S
C630 C629 1.388 . S
C630 C631 1.390 . S
C631 C630 1.390 . S
C631 C632 1.394 . S
C631 C637 1.465 1_655 S
C632 C627 1.399 . S
C632 C631 1.394 . S
C632 C633 1.515 1_655 S
C633 C632 1.515 1_455 S
C633 C634 1.503 . S
C633 C635 1.560 1_455 S
C633 C636 1.527 . S
C634 H618 0.959 . S
C634 H619 0.959 . S
C634 H620 0.961 1_455 S
C634 C633 1.503 . S
C635 H621 0.960 . S
C635 H622 0.961 1_655 S
C635 H623 0.959 . S
C635 C633 1.560 1_655 S
C636 C633 1.527 . S
C636 C637 1.396 . S
C636 C641 1.390 . S
C637 C631 1.465 1_455 S
C637 C636 1.396 . S
C637 C638 1.399 . S
C638 H624 0.929 . S
C638 C637 1.399 . S
C638 C639 1.385 . S
C639 H625 0.931 . S
C639 C638 1.385 . S
C639 C640 1.389 . S
C640 C639 1.389 . S
C640 C641 1.387 . S
C641 H626 0.930 . S
C641 C636 1.390 . S
C641 C640 1.387 . S
H642 C654 0.930 . S
H643 C656 0.930 . S
H644 C657 0.930 . S
H645 C661 0.959 . S
H646 C661 0.959 . S
H647 C661 0.961 . S
H648 C662 0.960 . S
H649 C662 0.961 1_655 S
H650 C662 0.959 1_655 S
H651 C665 0.929 . S
H652 C666 0.931 . S
H653 C668 0.930 . S
C654 H642 0.930 . S
C654 C655 1.399 . S
C654 C659 1.399 . S
C655 C654 1.399 . S
C655 C656 1.376 . S
C656 H643 0.930 . S
C656 C655 1.376 . S
C656 C657 1.388 . S
C657 H644 0.930 . S
C657 C656 1.388 . S
C657 C658 1.390 . S
C658 C657 1.390 . S
C658 C659 1.394 . S
C658 C664 1.465 1_455 S
C659 C654 1.399 . S
C659 C658 1.394 . S
C659 C660 1.516 . S
C660 C659 1.516 . S
C660 C661 1.502 . S
C660 C662 1.561 . S
C660 C663 1.526 1_455 S
C661 H645 0.959 . S
C661 H646 0.959 . S
C661 H647 0.961 . S
C661 C660 1.502 . S
C662 H648 0.960 . S
C662 H649 0.961 1_455 S
C662 H650 0.959 1_455 S
C662 C660 1.561 . S
C663 C660 1.526 1_655 S
C663 C664 1.396 . S
C663 C668 1.390 . S
C664 C658 1.465 1_655 S
C664 C663 1.396 . S
C664 C665 1.399 . S
C665 H651 0.929 . S
C665 C664 1.399 . S
C665 C666 1.385 . S
C666 H652 0.931 . S
C666 C665 1.385 . S
C666 C667 1.389 . S
C667 C666 1.389 . S
C667 C668 1.387 . S
C668 H653 0.930 . S
C668 C663 1.390 . S
C668 C667 1.387 . S
H669 C681 0.930 . S
H670 C683 0.930 . S
H671 C684 0.930 . S
H672 C688 0.959 . S
H673 C688 0.959 . S
H674 C688 0.961 1_565 S
H675 C689 0.960 . S
H676 C689 0.961 1_545 S
H677 C689 0.959 . S
H678 C692 0.929 . S
H679 C693 0.931 . S
H680 C695 0.930 . S
C681 H669 0.930 . S
C681 C682 1.399 . S
C681 C686 1.399 . S
C682 C681 1.399 . S
C682 C683 1.376 . S
C683 H670 0.930 . S
C683 C682 1.376 . S
C683 C684 1.388 . S
C684 H671 0.930 . S
C684 C683 1.388 . S
C684 C685 1.390 . S
C685 C684 1.390 . S
C685 C686 1.394 . S
C685 C691 1.465 1_565 S
C686 C681 1.399 . S
C686 C685 1.394 . S
C686 C687 1.516 1_565 S
C687 C686 1.516 1_545 S
C687 C688 1.502 . S
C687 C689 1.561 1_545 S
C687 C690 1.526 . S
C688 H672 0.959 . S
C688 H673 0.959 . S
C688 H674 0.961 1_545 S
C688 C687 1.502 . S
C689 H675 0.960 . S
C689 H676 0.961 1_565 S
C689 H677 0.959 . S
C689 C687 1.561 1_565 S
C690 C687 1.526 . S
C690 C691 1.396 . S
C690 C695 1.390 . S
C691 C685 1.465 1_545 S
C691 C690 1.396 . S
C691 C692 1.399 . S
C692 H678 0.929 . S
C692 C691 1.399 . S
C692 C693 1.385 . S
C693 H679 0.931 . S
C693 C692 1.385 . S
C693 C694 1.389 . S
C694 C693 1.389 . S
C694 C695 1.387 . S
C695 H680 0.930 . S
C695 C690 1.390 . S
C695 C694 1.387 . S
H696 C708 0.930 . S
H697 C710 0.930 . S
H698 C711 0.930 . S
H699 C715 0.959 . S
H700 C715 0.959 . S
H701 C715 0.961 . S
H702 C716 0.960 . S
H703 C716 0.961 . S
H704 C716 0.959 . S
H705 C719 0.929 . S
H706 C720 0.931 . S
H707 C722 0.930 . S
C708 H696 0.930 . S
C708 C709 1.399 . S
C708 C713 1.399 . S
C709 C708 1.399 . S
C709 C710 1.376 . S
C710 H697 0.930 . S
C710 C709 1.376 . S
C710 C711 1.388 . S
C711 H698 0.930 . S
C711 C710 1.388 . S
C711 C712 1.390 . S
C712 C711 1.390 . S
C712 C713 1.394 . S
C712 C718 1.465 . S
C713 C708 1.399 . S
C713 C712 1.394 . S
C713 C714 1.516 . S
C714 C713 1.516 . S
C714 C715 1.502 . S
C714 C716 1.561 . S
C714 C717 1.526 . S
C715 H699 0.959 . S
C715 H700 0.959 . S
C715 H701 0.961 . S
C715 C714 1.502 . S
C716 H702 0.960 . S
C716 H703 0.961 . S
C716 H704 0.959 . S
C716 C714 1.561 . S
C717 C714 1.526 . S
C717 C718 1.396 . S
C717 C722 1.390 . S
C718 C712 1.465 . S
C718 C717 1.396 . S
C718 C719 1.399 . S
C719 H705 0.929 . S
C719 C718 1.399 . S
C719 C720 1.385 . S
C720 H706 0.931 . S
C720 C719 1.385 . S
C720 C721 1.389 . S
C721 C720 1.389 . S
C721 C722 1.387 . S
C722 H707 0.930 . S
C722 C717 1.390 . S
C722 C721 1.387 . S
H723 C735 0.930 . S
H724 C737 0.930 . S
H725 C738 0.930 . S
H726 C742 0.959 . S
H727 C742 0.959 . S
H728 C742 0.961 1_455 S
H729 C743 0.960 . S
H730 C743 0.961 . S
H731 C743 0.959 . S
H732 C746 0.929 . S
H733 C747 0.931 . S
H734 C749 0.930 . S
C735 H723 0.930 . S
C735 C736 1.399 . S
C735 C740 1.399 . S
C736 C735 1.399 . S
C736 C737 1.376 . S
C737 H724 0.930 . S
C737 C736 1.376 . S
C737 C738 1.388 . S
C738 H725 0.930 . S
C738 C737 1.388 . S
C738 C739 1.390 . S
C739 C738 1.390 . S
C739 C740 1.394 . S
C739 C745 1.465 1_455 S
C740 C735 1.399 . S
C740 C739 1.394 . S
C740 C741 1.516 1_455 S
C741 C740 1.516 1_655 S
C741 C742 1.502 . S
C741 C743 1.561 . S
C741 C744 1.526 . S
C742 H726 0.959 . S
C742 H727 0.959 . S
C742 H728 0.961 1_655 S
C742 C741 1.502 . S
C743 H729 0.960 . S
C743 H730 0.961 . S
C743 H731 0.959 . S
C743 C741 1.561 . S
C744 C741 1.526 . S
C744 C745 1.396 . S
C744 C749 1.390 . S
C745 C739 1.465 1_655 S
C745 C744 1.396 . S
C745 C746 1.399 . S
C746 H732 0.929 . S
C746 C745 1.399 . S
C746 C747 1.385 . S
C747 H733 0.931 . S
C747 C746 1.385 . S
C747 C748 1.389 . S
C748 C747 1.389 . S
C748 C749 1.387 . S
C749 H734 0.930 . S
C749 C744 1.390 . S
C749 C748 1.387 . S
H750 C762 0.930 . S
H751 C764 0.930 . S
H752 C765 0.930 . S
H753 C769 0.959 . S
H754 C769 0.959 . S
H755 C769 0.961 1_545 S
H756 C770 0.960 . S
H757 C770 0.961 1_565 S
H758 C770 0.959 . S
H759 C773 0.929 . S
H760 C774 0.931 . S
H761 C776 0.930 . S
C762 H750 0.930 . S
C762 C763 1.399 . S
C762 C767 1.399 . S
C763 C762 1.399 . S
C763 C764 1.376 . S
C764 H751 0.930 . S
C764 C763 1.376 . S
C764 C765 1.388 . S
C765 H752 0.930 . S
C765 C764 1.388 . S
C765 C766 1.390 . S
C766 C765 1.390 . S
C766 C767 1.394 . S
C766 C772 1.465 1_545 S
C767 C762 1.399 . S
C767 C766 1.394 . S
C767 C768 1.516 1_545 S
C768 C767 1.516 1_565 S
C768 C769 1.502 . S
C768 C770 1.561 1_565 S
C768 C771 1.526 . S
C769 H753 0.959 . S
C769 H754 0.959 . S
C769 H755 0.961 1_565 S
C769 C768 1.502 . S
C770 H756 0.960 . S
C770 H757 0.961 1_545 S
C770 H758 0.959 . S
C770 C768 1.561 1_545 S
C771 C768 1.526 . S
C771 C772 1.396 . S
C771 C776 1.390 . S
C772 C766 1.465 1_565 S
C772 C771 1.396 . S
C772 C773 1.399 . S
C773 H759 0.929 . S
C773 C772 1.399 . S
C773 C774 1.385 . S
C774 H760 0.931 . S
C774 C773 1.385 . S
C774 C775 1.389 . S
C775 C774 1.389 . S
C775 C776 1.387 . S
C776 H761 0.930 . S
C776 C771 1.390 . S
C776 C775 1.387 . S
H777 C789 0.930 . S
H778 C791 0.930 . S
H779 C792 0.930 . S
H780 C796 0.959 . S
H781 C796 0.959 . S
H782 C796 0.961 . S
H783 C797 0.960 . S
H784 C797 0.961 . S
H785 C797 0.959 . S
H786 C800 0.929 . S
H787 C801 0.931 . S
H788 C803 0.930 . S
C789 H777 0.930 . S
C789 C790 1.399 . S
C789 C794 1.399 . S
C790 C789 1.399 . S
C790 C791 1.376 . S
C791 H778 0.930 . S
C791 C790 1.376 . S
C791 C792 1.388 . S
C792 H779 0.930 . S
C792 C791 1.388 . S
C792 C793 1.390 . S
C793 C792 1.390 . S
C793 C794 1.394 . S
C793 C799 1.465 . S
C794 C789 1.399 . S
C794 C793 1.394 . S
C794 C795 1.516 . S
C795 C794 1.516 . S
C795 C796 1.502 . S
C795 C797 1.561 . S
C795 C798 1.526 . S
C796 H780 0.959 . S
C796 H781 0.959 . S
C796 H782 0.961 . S
C796 C795 1.502 . S
C797 H783 0.960 . S
C797 H784 0.961 . S
C797 H785 0.959 . S
C797 C795 1.561 . S
C798 C795 1.526 . S
C798 C799 1.396 . S
C798 C803 1.390 . S
C799 C793 1.465 . S
C799 C798 1.396 . S
C799 C800 1.399 . S
C800 H786 0.929 . S
C800 C799 1.399 . S
C800 C801 1.385 . S
C801 H787 0.931 . S
C801 C800 1.385 . S
C801 C802 1.389 . S
C802 C801 1.389 . S
C802 C803 1.387 . S
C803 H788 0.930 . S
C803 C798 1.390 . S
C803 C802 1.387 . S
H804 C816 0.930 . S
H805 C818 0.930 . S
H806 C819 0.930 . S
H807 C823 0.959 . S
H808 C823 0.959 . S
H809 C823 0.961 . S
H810 C824 0.960 . S
H811 C824 0.961 . S
H812 C824 0.959 . S
H813 C827 0.929 . S
H814 C828 0.931 . S
H815 C830 0.930 . S
C816 H804 0.930 . S
C816 C817 1.399 . S
C816 C821 1.399 . S
C817 C816 1.399 . S
C817 C818 1.376 . S
C818 H805 0.930 . S
C818 C817 1.376 . S
C818 C819 1.388 . S
C819 H806 0.930 . S
C819 C818 1.388 . S
C819 C820 1.390 . S
C820 C819 1.390 . S
C820 C821 1.394 . S
C820 C826 1.465 . S
C821 C816 1.399 . S
C821 C820 1.394 . S
C821 C822 1.516 . S
C822 C821 1.516 . S
C822 C823 1.502 . S
C822 C824 1.561 . S
C822 C825 1.526 . S
C823 H807 0.959 . S
C823 H808 0.959 . S
C823 H809 0.961 . S
C823 C822 1.502 . S
C824 H810 0.960 . S
C824 H811 0.961 . S
C824 H812 0.959 . S
C824 C822 1.561 . S
C825 C822 1.526 . S
C825 C826 1.396 . S
C825 C830 1.390 . S
C826 C820 1.465 . S
C826 C825 1.396 . S
C826 C827 1.399 . S
C827 H813 0.929 . S
C827 C826 1.399 . S
C827 C828 1.385 . S
C828 H814 0.931 . S
C828 C827 1.385 . S
C828 C829 1.389 . S
C829 C828 1.389 . S
C829 C830 1.387 . S
C830 H815 0.930 . S
C830 C825 1.390 . S
C830 C829 1.387 . S
H831 C843 0.930 . S
H832 C845 0.930 . S
H833 C846 0.930 . S
H834 C850 0.959 . S
H835 C850 0.959 . S
H836 C850 0.961 . S
H837 C851 0.960 . S
H838 C851 0.961 . S
H839 C851 0.959 . S
H840 C854 0.929 . S
H841 C855 0.931 . S
H842 C857 0.930 . S
C843 H831 0.930 . S
C843 C844 1.399 . S
C843 C848 1.399 . S
C844 C843 1.399 . S
C844 C845 1.376 . S
C845 H832 0.930 . S
C845 C844 1.376 . S
C845 C846 1.388 . S
C846 H833 0.930 . S
C846 C845 1.388 . S
C846 C847 1.390 . S
C847 C846 1.390 . S
C847 C848 1.394 . S
C847 C853 1.465 . S
C848 C843 1.399 . S
C848 C847 1.394 . S
C848 C849 1.516 . S
C849 C848 1.516 . S
C849 C850 1.502 . S
C849 C851 1.561 . S
C849 C852 1.526 . S
C850 H834 0.959 . S
C850 H835 0.959 . S
C850 H836 0.961 . S
C850 C849 1.502 . S
C851 H837 0.960 . S
C851 H838 0.961 . S
C851 H839 0.959 . S
C851 C849 1.561 . S
C852 C849 1.526 . S
C852 C853 1.396 . S
C852 C857 1.390 . S
C853 C847 1.465 . S
C853 C852 1.396 . S
C853 C854 1.399 . S
C854 H840 0.929 . S
C854 C853 1.399 . S
C854 C855 1.385 . S
C855 H841 0.931 . S
C855 C854 1.385 . S
C855 C856 1.389 . S
C856 C855 1.389 . S
C856 C857 1.387 . S
C857 H842 0.930 . S
C857 C852 1.390 . S
C857 C856 1.387 . S
H858 C870 0.930 . S
H859 C872 0.930 . S
H860 C873 0.930 . S
H861 C877 0.959 . S
H862 C877 0.959 . S
H863 C877 0.961 . S
H864 C878 0.960 . S
H865 C878 0.961 . S
H866 C878 0.959 . S
H867 C881 0.929 . S
H868 C882 0.931 . S
H869 C884 0.930 . S
C870 H858 0.930 . S
C870 C871 1.399 . S
C870 C875 1.399 . S
C871 C870 1.399 . S
C871 C872 1.376 . S
C872 H859 0.930 . S
C872 C871 1.376 . S
C872 C873 1.388 . S
C873 H860 0.930 . S
C873 C872 1.388 . S
C873 C874 1.390 . S
C874 C873 1.390 . S
C874 C875 1.394 . S
C874 C880 1.465 . S
C875 C870 1.399 . S
C875 C874 1.394 . S
C875 C876 1.516 . S
C876 C875 1.516 . S
C876 C877 1.502 . S
C876 C878 1.561 . S
C876 C879 1.526 . S
C877 H861 0.959 . S
C877 H862 0.959 . S
C877 H863 0.961 . S
C877 C876 1.502 . S
C878 H864 0.960 . S
C878 H865 0.961 . S
C878 H866 0.959 . S
C878 C876 1.561 . S
C879 C876 1.526 . S
C879 C880 1.396 . S
C879 C884 1.390 . S
C880 C874 1.465 . S
C880 C879 1.396 . S
C880 C881 1.399 . S
C881 H867 0.929 . S
C881 C880 1.399 . S
C881 C882 1.385 . S
C882 H868 0.931 . S
C882 C881 1.385 . S
C882 C883 1.389 . S
C883 C882 1.389 . S
C883 C884 1.387 . S
C884 H869 0.930 . S
C884 C879 1.390 . S
C884 C883 1.387 . S
H885 C897 0.930 . S
H886 C899 0.930 . S
H887 C900 0.930 . S
H888 C904 0.959 . S
H889 C904 0.959 . S
H890 C904 0.961 . S
H891 C905 0.960 . S
H892 C905 0.961 . S
H893 C905 0.959 . S
H894 C908 0.929 . S
H895 C909 0.931 . S
H896 C911 0.930 . S
C897 H885 0.930 . S
C897 C898 1.399 . S
C897 C902 1.399 . S
C898 C897 1.399 . S
C898 C899 1.376 . S
C899 H886 0.930 . S
C899 C898 1.376 . S
C899 C900 1.388 . S
C900 H887 0.930 . S
C900 C899 1.388 . S
C900 C901 1.390 . S
C901 C900 1.390 . S
C901 C902 1.394 . S
C901 C907 1.465 . S
C902 C897 1.399 . S
C902 C901 1.394 . S
C902 C903 1.516 . S
C903 C902 1.516 . S
C903 C904 1.502 . S
C903 C905 1.561 . S
C903 C906 1.526 . S
C904 H888 0.959 . S
C904 H889 0.959 . S
C904 H890 0.961 . S
C904 C903 1.502 . S
C905 H891 0.960 . S
C905 H892 0.961 . S
C905 H893 0.959 . S
C905 C903 1.561 . S
C906 C903 1.526 . S
C906 C907 1.396 . S
C906 C911 1.390 . S
C907 C901 1.465 . S
C907 C906 1.396 . S
C907 C908 1.399 . S
C908 H894 0.929 . S
C908 C907 1.399 . S
C908 C909 1.385 . S
C909 H895 0.931 . S
C909 C908 1.385 . S
C909 C910 1.389 . S
C910 C909 1.389 . S
C910 C911 1.387 . S
C911 H896 0.930 . S
C911 C906 1.390 . S
C911 C910 1.387 . S
H912 C924 0.930 . S
H913 C926 0.930 . S
H914 C927 0.930 . S
H915 C931 0.959 . S
H916 C931 0.959 . S
H917 C931 0.961 . S
H918 C932 0.960 . S
H919 C932 0.961 . S
H920 C932 0.959 . S
H921 C935 0.929 . S
H922 C936 0.931 . S
H923 C938 0.930 . S
C924 H912 0.930 . S
C924 C925 1.399 . S
C924 C929 1.399 . S
C925 C924 1.399 . S
C925 C926 1.376 . S
C926 H913 0.930 . S
C926 C925 1.376 . S
C926 C927 1.388 . S
C927 H914 0.930 . S
C927 C926 1.388 . S
C927 C928 1.390 . S
C928 C927 1.390 . S
C928 C929 1.394 . S
C928 C934 1.465 . S
C929 C924 1.399 . S
C929 C928 1.394 . S
C929 C930 1.516 . S
C930 C929 1.516 . S
C930 C931 1.502 . S
C930 C932 1.561 . S
C930 C933 1.526 . S
C931 H915 0.959 . S
C931 H916 0.959 . S
C931 H917 0.961 . S
C931 C930 1.502 . S
C932 H918 0.960 . S
C932 H919 0.961 . S
C932 H920 0.959 . S
C932 C930 1.561 . S
C933 C930 1.526 . S
C933 C934 1.396 . S
C933 C938 1.390 . S
C934 C928 1.465 . S
C934 C933 1.396 . S
C934 C935 1.399 . S
C935 H921 0.929 . S
C935 C934 1.399 . S
C935 C936 1.385 . S
C936 H922 0.931 . S
C936 C935 1.385 . S
C936 C937 1.389 . S
C937 C936 1.389 . S
C937 C938 1.387 . S
C938 H923 0.930 . S
C938 C933 1.390 . S
C938 C937 1.387 . S
H939 C951 0.930 . S
H940 C953 0.930 . S
H941 C954 0.930 . S
H942 C958 0.959 . S
H943 C958 0.959 . S
H944 C958 0.961 . S
H945 C959 0.960 . S
H946 C959 0.961 . S
H947 C959 0.959 . S
H948 C962 0.929 . S
H949 C963 0.931 . S
H950 C965 0.930 . S
C951 H939 0.930 . S
C951 C952 1.399 . S
C951 C956 1.399 . S
C952 C951 1.399 . S
C952 C953 1.376 . S
C953 H940 0.930 . S
C953 C952 1.376 . S
C953 C954 1.388 . S
C954 H941 0.930 . S
C954 C953 1.388 . S
C954 C955 1.390 . S
C955 C954 1.390 . S
C955 C956 1.394 . S
C955 C961 1.465 . S
C956 C951 1.399 . S
C956 C955 1.394 . S
C956 C957 1.516 . S
C957 C956 1.516 . S
C957 C958 1.502 . S
C957 C959 1.561 . S
C957 C960 1.526 . S
C958 H942 0.959 . S
C958 H943 0.959 . S
C958 H944 0.961 . S
C958 C957 1.502 . S
C959 H945 0.960 . S
C959 H946 0.961 . S
C959 H947 0.959 . S
C959 C957 1.561 . S
C960 C957 1.526 . S
C960 C961 1.396 . S
C960 C965 1.390 . S
C961 C955 1.465 . S
C961 C960 1.396 . S
C961 C962 1.399 . S
C962 H948 0.929 . S
C962 C961 1.399 . S
C962 C963 1.385 . S
C963 H949 0.931 . S
C963 C962 1.385 . S
C963 C964 1.389 . S
C964 C963 1.389 . S
C964 C965 1.387 . S
C965 H950 0.930 . S
C965 C960 1.390 . S
C965 C964 1.387 . S
H966 C978 0.930 . S
H967 C980 0.930 . S
H968 C981 0.930 . S
H969 C985 0.959 . S
H970 C985 0.959 . S
H971 C985 0.961 . S
H972 C986 0.960 . S
H973 C986 0.961 . S
H974 C986 0.959 . S
H975 C989 0.929 . S
H976 C990 0.931 . S
H977 C992 0.930 . S
C978 H966 0.930 . S
C978 C979 1.399 . S
C978 C983 1.399 . S
C979 C978 1.399 . S
C979 C980 1.376 . S
C980 H967 0.930 . S
C980 C979 1.376 . S
C980 C981 1.388 . S
C981 H968 0.930 . S
C981 C980 1.388 . S
C981 C982 1.390 . S
C982 C981 1.390 . S
C982 C983 1.394 . S
C982 C988 1.465 . S
C983 C978 1.399 . S
C983 C982 1.394 . S
C983 C984 1.516 . S
C984 C983 1.516 . S
C984 C985 1.502 . S
C984 C986 1.561 . S
C984 C987 1.526 . S
C985 H969 0.959 . S
C985 H970 0.959 . S
C985 H971 0.961 . S
C985 C984 1.502 . S
C986 H972 0.960 . S
C986 H973 0.961 . S
C986 H974 0.959 . S
C986 C984 1.561 . S
C987 C984 1.526 . S
C987 C988 1.396 . S
C987 C992 1.390 . S
C988 C982 1.465 . S
C988 C987 1.396 . S
C988 C989 1.399 . S
C989 H975 0.929 . S
C989 C988 1.399 . S
C989 C990 1.385 . S
C990 H976 0.931 . S
C990 C989 1.385 . S
C990 C991 1.389 . S
C991 C990 1.389 . S
C991 C992 1.387 . S
C992 H977 0.930 . S
C992 C987 1.390 . S
C992 C991 1.387 . S
H993 C1005 0.930 . S
H994 C1007 0.930 . S
H995 C1008 0.930 . S
H996 C1012 0.959 . S
H997 C1012 0.959 . S
H998 C1012 0.961 . S
H999 C1013 0.960 . S
H1000 C1013 0.961 . S
H1001 C1013 0.959 . S
H1002 C1016 0.929 . S
H1003 C1017 0.931 . S
H1004 C1019 0.930 . S
C1005 H993 0.930 . S
C1005 C1006 1.399 . S
C1005 C1010 1.399 . S
C1006 C1005 1.399 . S
C1006 C1007 1.376 . S
C1007 H994 0.930 . S
C1007 C1006 1.376 . S
C1007 C1008 1.388 . S
C1008 H995 0.930 . S
C1008 C1007 1.388 . S
C1008 C1009 1.390 . S
C1009 C1008 1.390 . S
C1009 C1010 1.394 . S
C1009 C1015 1.465 . S
C1010 C1005 1.399 . S
C1010 C1009 1.394 . S
C1010 C1011 1.516 . S
C1011 C1010 1.516 . S
C1011 C1012 1.502 . S
C1011 C1013 1.561 . S
C1011 C1014 1.526 . S
C1012 H996 0.959 . S
C1012 H997 0.959 . S
C1012 H998 0.961 . S
C1012 C1011 1.502 . S
C1013 H999 0.960 . S
C1013 H1000 0.961 . S
C1013 H1001 0.959 . S
C1013 C1011 1.561 . S
C1014 C1011 1.526 . S
C1014 C1015 1.396 . S
C1014 C1019 1.390 . S
C1015 C1009 1.465 . S
C1015 C1014 1.396 . S
C1015 C1016 1.399 . S
C1016 H1002 0.929 . S
C1016 C1015 1.399 . S
C1016 C1017 1.385 . S
C1017 H1003 0.931 . S
C1017 C1016 1.385 . S
C1017 C1018 1.389 . S
C1018 C1017 1.389 . S
C1018 C1019 1.387 . S
C1019 H1004 0.930 . S
C1019 C1014 1.390 . S
C1019 C1018 1.387 . S
H1020 C1032 0.930 . S
H1021 C1034 0.930 . S
H1022 C1035 0.930 . S
H1023 C1039 0.959 . S
H1024 C1039 0.959 . S
H1025 C1039 0.961 . S
H1026 C1040 0.960 . S
H1027 C1040 0.961 . S
H1028 C1040 0.959 . S
H1029 C1043 0.929 . S
H1030 C1044 0.931 . S
H1031 C1046 0.930 . S
C1032 H1020 0.930 . S
C1032 C1033 1.399 . S
C1032 C1037 1.399 . S
C1033 C1032 1.399 . S
C1033 C1034 1.376 . S
C1034 H1021 0.930 . S
C1034 C1033 1.376 . S
C1034 C1035 1.388 . S
C1035 H1022 0.930 . S
C1035 C1034 1.388 . S
C1035 C1036 1.390 . S
C1036 C1035 1.390 . S
C1036 C1037 1.394 . S
C1036 C1042 1.465 . S
C1037 C1032 1.399 . S
C1037 C1036 1.394 . S
C1037 C1038 1.516 . S
C1038 C1037 1.516 . S
C1038 C1039 1.502 . S
C1038 C1040 1.561 . S
C1038 C1041 1.526 . S
C1039 H1023 0.959 . S
C1039 H1024 0.959 . S
C1039 H1025 0.961 . S
C1039 C1038 1.502 . S
C1040 H1026 0.960 . S
C1040 H1027 0.961 . S
C1040 H1028 0.959 . S
C1040 C1038 1.561 . S
C1041 C1038 1.526 . S
C1041 C1042 1.396 . S
C1041 C1046 1.390 . S
C1042 C1036 1.465 . S
C1042 C1041 1.396 . S
C1042 C1043 1.399 . S
C1043 H1029 0.929 . S
C1043 C1042 1.399 . S
C1043 C1044 1.385 . S
C1044 H1030 0.931 . S
C1044 C1043 1.385 . S
C1044 C1045 1.389 . S
C1045 C1044 1.389 . S
C1045 C1046 1.387 . S
C1046 H1031 0.930 . S
C1046 C1041 1.390 . S
C1046 C1045 1.387 . S
H1047 C1059 0.930 . S
H1048 C1061 0.930 . S
H1049 C1062 0.930 . S
H1050 C1066 0.959 . S
H1051 C1066 0.959 . S
H1052 C1066 0.961 . S
H1053 C1067 0.960 . S
H1054 C1067 0.961 . S
H1055 C1067 0.959 . S
H1056 C1070 0.929 . S
H1057 C1071 0.931 . S
H1058 C1073 0.930 . S
C1059 H1047 0.930 . S
C1059 C1060 1.399 . S
C1059 C1064 1.399 . S
C1060 C1059 1.399 . S
C1060 C1061 1.376 . S
C1061 H1048 0.930 . S
C1061 C1060 1.376 . S
C1061 C1062 1.388 . S
C1062 H1049 0.930 . S
C1062 C1061 1.388 . S
C1062 C1063 1.390 . S
C1063 C1062 1.390 . S
C1063 C1064 1.394 . S
C1063 C1069 1.465 . S
C1064 C1059 1.399 . S
C1064 C1063 1.394 . S
C1064 C1065 1.516 . S
C1065 C1064 1.516 . S
C1065 C1066 1.502 . S
C1065 C1067 1.561 . S
C1065 C1068 1.526 . S
C1066 H1050 0.959 . S
C1066 H1051 0.959 . S
C1066 H1052 0.961 . S
C1066 C1065 1.502 . S
C1067 H1053 0.960 . S
C1067 H1054 0.961 . S
C1067 H1055 0.959 . S
C1067 C1065 1.561 . S
C1068 C1065 1.526 . S
C1068 C1069 1.396 . S
C1068 C1073 1.390 . S
C1069 C1063 1.465 . S
C1069 C1068 1.396 . S
C1069 C1070 1.399 . S
C1070 H1056 0.929 . S
C1070 C1069 1.399 . S
C1070 C1071 1.385 . S
C1071 H1057 0.931 . S
C1071 C1070 1.385 . S
C1071 C1072 1.389 . S
C1072 C1071 1.389 . S
C1072 C1073 1.387 . S
C1073 H1058 0.930 . S
C1073 C1068 1.390 . S
C1073 C1072 1.387 . S
H1074 C1086 0.930 . S
H1075 C1088 0.930 . S
H1076 C1089 0.930 . S
H1077 C1093 0.959 . S
H1078 C1093 0.959 . S
H1079 C1093 0.961 . S
H1080 C1094 0.960 . S
H1081 C1094 0.961 . S
H1082 C1094 0.959 . S
H1083 C1097 0.929 . S
H1084 C1098 0.931 . S
H1085 C1100 0.930 . S
C1086 H1074 0.930 . S
C1086 C1087 1.399 . S
C1086 C1091 1.399 . S
C1087 C1086 1.399 . S
C1087 C1088 1.376 . S
C1088 H1075 0.930 . S
C1088 C1087 1.376 . S
C1088 C1089 1.388 . S
C1089 H1076 0.930 . S
C1089 C1088 1.388 . S
C1089 C1090 1.390 . S
C1090 C1089 1.390 . S
C1090 C1091 1.394 . S
C1090 C1096 1.465 . S
C1091 C1086 1.399 . S
C1091 C1090 1.394 . S
C1091 C1092 1.516 . S
C1092 C1091 1.516 . S
C1092 C1093 1.502 . S
C1092 C1094 1.561 . S
C1092 C1095 1.526 . S
C1093 H1077 0.959 . S
C1093 H1078 0.959 . S
C1093 H1079 0.961 . S
C1093 C1092 1.502 . S
C1094 H1080 0.960 . S
C1094 H1081 0.961 . S
C1094 H1082 0.959 . S
C1094 C1092 1.561 . S
C1095 C1092 1.526 . S
C1095 C1096 1.396 . S
C1095 C1100 1.390 . S
C1096 C1090 1.465 . S
C1096 C1095 1.396 . S
C1096 C1097 1.399 . S
C1097 H1083 0.929 . S
C1097 C1096 1.399 . S
C1097 C1098 1.385 . S
C1098 H1084 0.931 . S
C1098 C1097 1.385 . S
C1098 C1099 1.389 . S
C1099 C1098 1.389 . S
C1099 C1100 1.387 . S
C1100 H1085 0.930 . S
C1100 C1095 1.390 . S
C1100 C1099 1.387 . S
H1101 C1113 0.930 . S
H1102 C1115 0.930 . S
H1103 C1116 0.930 . S
H1104 C1120 0.959 . S
H1105 C1120 0.959 . S
H1106 C1120 0.961 . S
H1107 C1121 0.960 . S
H1108 C1121 0.961 . S
H1109 C1121 0.959 . S
H1110 C1124 0.929 . S
H1111 C1125 0.931 . S
H1112 C1127 0.930 . S
C1113 H1101 0.930 . S
C1113 C1114 1.399 . S
C1113 C1118 1.399 . S
C1114 C1113 1.399 . S
C1114 C1115 1.376 . S
C1115 H1102 0.930 . S
C1115 C1114 1.376 . S
C1115 C1116 1.388 . S
C1116 H1103 0.930 . S
C1116 C1115 1.388 . S
C1116 C1117 1.390 . S
C1117 C1116 1.390 . S
C1117 C1118 1.394 . S
C1117 C1123 1.465 . S
C1118 C1113 1.399 . S
C1118 C1117 1.394 . S
C1118 C1119 1.516 . S
C1119 C1118 1.516 . S
C1119 C1120 1.502 . S
C1119 C1121 1.561 . S
C1119 C1122 1.526 . S
C1120 H1104 0.959 . S
C1120 H1105 0.959 . S
C1120 H1106 0.961 . S
C1120 C1119 1.502 . S
C1121 H1107 0.960 . S
C1121 H1108 0.961 . S
C1121 H1109 0.959 . S
C1121 C1119 1.561 . S
C1122 C1119 1.526 . S
C1122 C1123 1.396 . S
C1122 C1127 1.390 . S
C1123 C1117 1.465 . S
C1123 C1122 1.396 . S
C1123 C1124 1.399 . S
C1124 H1110 0.929 . S
C1124 C1123 1.399 . S
C1124 C1125 1.385 . S
C1125 H1111 0.931 . S
C1125 C1124 1.385 . S
C1125 C1126 1.389 . S
C1126 C1125 1.389 . S
C1126 C1127 1.387 . S
C1127 H1112 0.930 . S
C1127 C1122 1.390 . S
C1127 C1126 1.387 . S
H1128 C1140 0.930 . S
H1129 C1142 0.930 . S
H1130 C1143 0.930 . S
H1131 C1147 0.959 . S
H1132 C1147 0.959 . S
H1133 C1147 0.961 . S
H1134 C1148 0.960 . S
H1135 C1148 0.961 . S
H1136 C1148 0.959 . S
H1137 C1151 0.929 . S
H1138 C1152 0.931 . S
H1139 C1154 0.930 . S
C1140 H1128 0.930 . S
C1140 C1141 1.399 . S
C1140 C1145 1.399 . S
C1141 C1140 1.399 . S
C1141 C1142 1.376 . S
C1142 H1129 0.930 . S
C1142 C1141 1.376 . S
C1142 C1143 1.388 . S
C1143 H1130 0.930 . S
C1143 C1142 1.388 . S
C1143 C1144 1.390 . S
C1144 C1143 1.390 . S
C1144 C1145 1.394 . S
C1144 C1150 1.465 . S
C1145 C1140 1.399 . S
C1145 C1144 1.394 . S
C1145 C1146 1.516 . S
C1146 C1145 1.516 . S
C1146 C1147 1.502 . S
C1146 C1148 1.561 . S
C1146 C1149 1.526 . S
C1147 H1131 0.959 . S
C1147 H1132 0.959 . S
C1147 H1133 0.961 . S
C1147 C1146 1.502 . S
C1148 H1134 0.960 . S
C1148 H1135 0.961 . S
C1148 H1136 0.959 . S
C1148 C1146 1.561 . S
C1149 C1146 1.526 . S
C1149 C1150 1.396 . S
C1149 C1154 1.390 . S
C1150 C1144 1.465 . S
C1150 C1149 1.396 . S
C1150 C1151 1.399 . S
C1151 H1137 0.929 . S
C1151 C1150 1.399 . S
C1151 C1152 1.385 . S
C1152 H1138 0.931 . S
C1152 C1151 1.385 . S
C1152 C1153 1.389 . S
C1153 C1152 1.389 . S
C1153 C1154 1.387 . S
C1154 H1139 0.930 . S
C1154 C1149 1.390 . S
C1154 C1153 1.387 . S
H1155 C1167 0.930 . S
H1156 C1169 0.930 . S
H1157 C1170 0.930 . S
H1158 C1174 0.959 . S
H1159 C1174 0.959 . S
H1160 C1174 0.961 . S
H1161 C1175 0.960 . S
H1162 C1175 0.961 . S
H1163 C1175 0.959 . S
H1164 C1178 0.929 . S
H1165 C1179 0.931 . S
H1166 C1181 0.930 . S
C1167 H1155 0.930 . S
C1167 C1168 1.399 . S
C1167 C1172 1.399 . S
C1168 C1167 1.399 . S
C1168 C1169 1.376 . S
C1169 H1156 0.930 . S
C1169 C1168 1.376 . S
C1169 C1170 1.388 . S
C1170 H1157 0.930 . S
C1170 C1169 1.388 . S
C1170 C1171 1.390 . S
C1171 C1170 1.390 . S
C1171 C1172 1.394 . S
C1171 C1177 1.465 . S
C1172 C1167 1.399 . S
C1172 C1171 1.394 . S
C1172 C1173 1.516 . S
C1173 C1172 1.516 . S
C1173 C1174 1.502 . S
C1173 C1175 1.561 . S
C1173 C1176 1.526 . S
C1174 H1158 0.959 . S
C1174 H1159 0.959 . S
C1174 H1160 0.961 . S
C1174 C1173 1.502 . S
C1175 H1161 0.960 . S
C1175 H1162 0.961 . S
C1175 H1163 0.959 . S
C1175 C1173 1.561 . S
C1176 C1173 1.526 . S
C1176 C1177 1.396 . S
C1176 C1181 1.390 . S
C1177 C1171 1.465 . S
C1177 C1176 1.396 . S
C1177 C1178 1.399 . S
C1178 H1164 0.929 . S
C1178 C1177 1.399 . S
C1178 C1179 1.385 . S
C1179 H1165 0.931 . S
C1179 C1178 1.385 . S
C1179 C1180 1.389 . S
C1180 C1179 1.389 . S
C1180 C1181 1.387 . S
C1181 H1166 0.930 . S
C1181 C1176 1.390 . S
C1181 C1180 1.387 . S
H1182 C1194 0.930 . S
H1183 C1196 0.930 . S
H1184 C1197 0.930 . S
H1185 C1201 0.959 . S
H1186 C1201 0.959 . S
H1187 C1201 0.961 . S
H1188 C1202 0.960 . S
H1189 C1202 0.961 . S
H1190 C1202 0.959 . S
H1191 C1205 0.929 . S
H1192 C1206 0.931 . S
H1193 C1208 0.930 . S
C1194 H1182 0.930 . S
C1194 C1195 1.399 . S
C1194 C1199 1.399 . S
C1195 C1194 1.399 . S
C1195 C1196 1.376 . S
C1196 H1183 0.930 . S
C1196 C1195 1.376 . S
C1196 C1197 1.388 . S
C1197 H1184 0.930 . S
C1197 C1196 1.388 . S
C1197 C1198 1.390 . S
C1198 C1197 1.390 . S
C1198 C1199 1.394 . S
C1198 C1204 1.465 . S
C1199 C1194 1.399 . S
C1199 C1198 1.394 . S
C1199 C1200 1.516 . S
C1200 C1199 1.516 . S
C1200 C1201 1.502 . S
C1200 C1202 1.561 . S
C1200 C1203 1.526 . S
C1201 H1185 0.959 . S
C1201 H1186 0.959 . S
C1201 H1187 0.961 . S
C1201 C1200 1.502 . S
C1202 H1188 0.960 . S
C1202 H1189 0.961 . S
C1202 H1190 0.959 . S
C1202 C1200 1.561 . S
C1203 C1200 1.526 . S
C1203 C1204 1.396 . S
C1203 C1208 1.390 . S
C1204 C1198 1.465 . S
C1204 C1203 1.396 . S
C1204 C1205 1.399 . S
C1205 H1191 0.929 . S
C1205 C1204 1.399 . S
C1205 C1206 1.385 . S
C1206 H1192 0.931 . S
C1206 C1205 1.385 . S
C1206 C1207 1.389 . S
C1207 C1206 1.389 . S
C1207 C1208 1.387 . S
C1208 H1193 0.930 . S
C1208 C1203 1.390 . S
C1208 C1207 1.387 . S
H1209 C1221 0.930 . S
H1210 C1223 0.930 . S
H1211 C1224 0.930 . S
H1212 C1228 0.959 . S
H1213 C1228 0.959 . S
H1214 C1228 0.961 . S
H1215 C1229 0.960 . S
H1216 C1229 0.961 . S
H1217 C1229 0.959 . S
H1218 C1232 0.929 . S
H1219 C1233 0.931 . S
H1220 C1235 0.930 . S
C1221 H1209 0.930 . S
C1221 C1222 1.399 . S
C1221 C1226 1.399 . S
C1222 C1221 1.399 . S
C1222 C1223 1.376 . S
C1223 H1210 0.930 . S
C1223 C1222 1.376 . S
C1223 C1224 1.388 . S
C1224 H1211 0.930 . S
C1224 C1223 1.388 . S
C1224 C1225 1.390 . S
C1225 C1224 1.390 . S
C1225 C1226 1.394 . S
C1225 C1231 1.465 . S
C1226 C1221 1.399 . S
C1226 C1225 1.394 . S
C1226 C1227 1.516 . S
C1227 C1226 1.516 . S
C1227 C1228 1.502 . S
C1227 C1229 1.561 . S
C1227 C1230 1.526 . S
C1228 H1212 0.959 . S
C1228 H1213 0.959 . S
C1228 H1214 0.961 . S
C1228 C1227 1.502 . S
C1229 H1215 0.960 . S
C1229 H1216 0.961 . S
C1229 H1217 0.959 . S
C1229 C1227 1.561 . S
C1230 C1227 1.526 . S
C1230 C1231 1.396 . S
C1230 C1235 1.390 . S
C1231 C1225 1.465 . S
C1231 C1230 1.396 . S
C1231 C1232 1.399 . S
C1232 H1218 0.929 . S
C1232 C1231 1.399 . S
C1232 C1233 1.385 . S
C1233 H1219 0.931 . S
C1233 C1232 1.385 . S
C1233 C1234 1.389 . S
C1234 C1233 1.389 . S
C1234 C1235 1.387 . S
C1235 H1220 0.930 . S
C1235 C1230 1.390 . S
C1235 C1234 1.387 . S
H1236 C1248 0.930 . S
H1237 C1250 0.930 . S
H1238 C1251 0.930 . S
H1239 C1255 0.959 . S
H1240 C1255 0.959 . S
H1241 C1255 0.961 . S
H1242 C1256 0.960 . S
H1243 C1256 0.961 . S
H1244 C1256 0.959 . S
H1245 C1259 0.929 . S
H1246 C1260 0.931 . S
H1247 C1262 0.930 . S
C1248 H1236 0.930 . S
C1248 C1249 1.399 . S
C1248 C1253 1.399 . S
C1249 C1248 1.399 . S
C1249 C1250 1.376 . S
C1250 H1237 0.930 . S
C1250 C1249 1.376 . S
C1250 C1251 1.388 . S
C1251 H1238 0.930 . S
C1251 C1250 1.388 . S
C1251 C1252 1.390 . S
C1252 C1251 1.390 . S
C1252 C1253 1.394 . S
C1252 C1258 1.465 . S
C1253 C1248 1.399 . S
C1253 C1252 1.394 . S
C1253 C1254 1.516 . S
C1254 C1253 1.516 . S
C1254 C1255 1.502 . S
C1254 C1256 1.561 . S
C1254 C1257 1.526 . S
C1255 H1239 0.959 . S
C1255 H1240 0.959 . S
C1255 H1241 0.961 . S
C1255 C1254 1.502 . S
C1256 H1242 0.960 . S
C1256 H1243 0.961 . S
C1256 H1244 0.959 . S
C1256 C1254 1.561 . S
C1257 C1254 1.526 . S
C1257 C1258 1.396 . S
C1257 C1262 1.390 . S
C1258 C1252 1.465 . S
C1258 C1257 1.396 . S
C1258 C1259 1.399 . S
C1259 H1245 0.929 . S
C1259 C1258 1.399 . S
C1259 C1260 1.385 . S
C1260 H1246 0.931 . S
C1260 C1259 1.385 . S
C1260 C1261 1.389 . S
C1261 C1260 1.389 . S
C1261 C1262 1.387 . S
C1262 H1247 0.930 . S
C1262 C1257 1.390 . S
C1262 C1261 1.387 . S
H1263 C1275 0.930 . S
H1264 C1277 0.930 . S
H1265 C1278 0.930 . S
H1266 C1282 0.959 . S
H1267 C1282 0.959 . S
H1268 C1282 0.961 . S
H1269 C1283 0.960 . S
H1270 C1283 0.961 . S
H1271 C1283 0.959 . S
H1272 C1286 0.929 . S
H1273 C1287 0.931 . S
H1274 C1289 0.930 . S
C1275 H1263 0.930 . S
C1275 C1276 1.399 . S
C1275 C1280 1.399 . S
C1276 C1275 1.399 . S
C1276 C1277 1.376 . S
C1277 H1264 0.930 . S
C1277 C1276 1.376 . S
C1277 C1278 1.388 . S
C1278 H1265 0.930 . S
C1278 C1277 1.388 . S
C1278 C1279 1.390 . S
C1279 C1278 1.390 . S
C1279 C1280 1.394 . S
C1279 C1285 1.465 . S
C1280 C1275 1.399 . S
C1280 C1279 1.394 . S
C1280 C1281 1.516 . S
C1281 C1280 1.516 . S
C1281 C1282 1.502 . S
C1281 C1283 1.561 . S
C1281 C1284 1.526 . S
C1282 H1266 0.959 . S
C1282 H1267 0.959 . S
C1282 H1268 0.961 . S
C1282 C1281 1.502 . S
C1283 H1269 0.960 . S
C1283 H1270 0.961 . S
C1283 H1271 0.959 . S
C1283 C1281 1.561 . S
C1284 C1281 1.526 . S
C1284 C1285 1.396 . S
C1284 C1289 1.390 . S
C1285 C1279 1.465 . S
C1285 C1284 1.396 . S
C1285 C1286 1.399 . S
C1286 H1272 0.929 . S
C1286 C1285 1.399 . S
C1286 C1287 1.385 . S
C1287 H1273 0.931 . S
C1287 C1286 1.385 . S
C1287 C1288 1.389 . S
C1288 C1287 1.389 . S
C1288 C1289 1.387 . S
C1289 H1274 0.930 . S
C1289 C1284 1.390 . S
C1289 C1288 1.387 . S
H1290 C1302 0.930 . S
H1291 C1304 0.930 . S
H1292 C1305 0.930 . S
H1293 C1309 0.959 . S
H1294 C1309 0.959 . S
H1295 C1309 0.961 . S
H1296 C1310 0.960 . S
H1297 C1310 0.961 . S
H1298 C1310 0.959 . S
H1299 C1313 0.929 . S
H1300 C1314 0.931 . S
H1301 C1316 0.930 . S
C1302 H1290 0.930 . S
C1302 C1303 1.399 . S
C1302 C1307 1.399 . S
C1303 C1302 1.399 . S
C1303 C1304 1.376 . S
C1304 H1291 0.930 . S
C1304 C1303 1.376 . S
C1304 C1305 1.388 . S
C1305 H1292 0.930 . S
C1305 C1304 1.388 . S
C1305 C1306 1.390 . S
C1306 C1305 1.390 . S
C1306 C1307 1.394 . S
C1306 C1312 1.465 1_556 S
C1307 C1302 1.399 . S
C1307 C1306 1.394 . S
C1307 C1308 1.516 1_556 S
C1308 C1307 1.516 1_554 S
C1308 C1309 1.502 1_554 S
C1308 C1310 1.561 . S
C1308 C1311 1.526 . S
C1309 H1293 0.959 . S
C1309 H1294 0.959 . S
C1309 H1295 0.961 . S
C1309 C1308 1.502 1_556 S
C1310 H1296 0.960 . S
C1310 H1297 0.961 . S
C1310 H1298 0.959 . S
C1310 C1308 1.561 . S
C1311 C1308 1.526 . S
C1311 C1312 1.396 . S
C1311 C1316 1.390 . S
C1312 C1306 1.465 1_554 S
C1312 C1311 1.396 . S
C1312 C1313 1.399 . S
C1313 H1299 0.929 . S
C1313 C1312 1.399 . S
C1313 C1314 1.385 . S
C1314 H1300 0.931 . S
C1314 C1313 1.385 . S
C1314 C1315 1.389 . S
C1315 C1314 1.389 . S
C1315 C1316 1.387 . S
C1316 H1301 0.930 . S
C1316 C1311 1.390 . S
C1316 C1315 1.387 . S
H1317 C1329 0.930 . S
H1318 C1331 0.930 . S
H1319 C1332 0.930 . S
H1320 C1336 0.959 . S
H1321 C1336 0.959 . S
H1322 C1336 0.961 . S
H1323 C1337 0.960 . S
H1324 C1337 0.961 . S
H1325 C1337 0.959 . S
H1326 C1340 0.929 . S
H1327 C1341 0.931 . S
H1328 C1343 0.930 . S
C1329 H1317 0.930 . S
C1329 C1330 1.399 . S
C1329 C1334 1.399 . S
C1330 C1329 1.399 . S
C1330 C1331 1.376 . S
C1331 H1318 0.930 . S
C1331 C1330 1.376 . S
C1331 C1332 1.388 . S
C1332 H1319 0.930 . S
C1332 C1331 1.388 . S
C1332 C1333 1.390 . S
C1333 C1332 1.390 . S
C1333 C1334 1.394 . S
C1333 C1339 1.465 1_455 S
C1334 C1329 1.399 . S
C1334 C1333 1.394 . S
C1334 C1335 1.516 1_455 S
C1335 C1334 1.516 1_655 S
C1335 C1336 1.502 . S
C1335 C1337 1.561 . S
C1335 C1338 1.526 . S
C1336 H1320 0.959 . S
C1336 H1321 0.959 . S
C1336 H1322 0.961 . S
C1336 C1335 1.502 . S
C1337 H1323 0.960 . S
C1337 H1324 0.961 . S
C1337 H1325 0.959 . S
C1337 C1335 1.561 . S
C1338 C1335 1.526 . S
C1338 C1339 1.396 . S
C1338 C1343 1.390 . S
C1339 C1333 1.465 1_655 S
C1339 C1338 1.396 . S
C1339 C1340 1.399 . S
C1340 H1326 0.929 . S
C1340 C1339 1.399 . S
C1340 C1341 1.385 . S
C1341 H1327 0.931 . S
C1341 C1340 1.385 . S
C1341 C1342 1.389 . S
C1342 C1341 1.389 . S
C1342 C1343 1.387 . S
C1343 H1328 0.930 . S
C1343 C1338 1.390 . S
C1343 C1342 1.387 . S
H1344 C1356 0.930 . S
H1345 C1358 0.930 . S
H1346 C1359 0.930 1_556 S
H1347 C1363 0.959 . S
H1348 C1363 0.959 . S
H1349 C1363 0.961 . S
H1350 C1364 0.960 . S
H1351 C1364 0.961 . S
H1352 C1364 0.959 . S
H1353 C1367 0.929 . S
H1354 C1368 0.931 . S
H1355 C1370 0.930 . S
C1356 H1344 0.930 . S
C1356 C1357 1.399 . S
C1356 C1361 1.399 . S
C1357 C1356 1.399 . S
C1357 C1358 1.376 . S
C1358 H1345 0.930 . S
C1358 C1357 1.376 . S
C1358 C1359 1.388 . S
C1359 H1346 0.930 1_554 S
C1359 C1358 1.388 . S
C1359 C1360 1.390 . S
C1360 C1359 1.390 . S
C1360 C1361 1.394 . S
C1360 C1366 1.465 1_564 S
C1361 C1356 1.399 . S
C1361 C1360 1.394 . S
C1361 C1362 1.516 1_565 S
C1362 C1361 1.516 1_545 S
C1362 C1363 1.502 . S
C1362 C1364 1.561 . S
C1362 C1365 1.526 1_554 S
C1363 H1347 0.959 . S
C1363 H1348 0.959 . S
C1363 H1349 0.961 . S
C1363 C1362 1.502 . S
C1364 H1350 0.960 . S
C1364 H1351 0.961 . S
C1364 H1352 0.959 . S
C1364 C1362 1.561 . S
C1365 C1362 1.526 1_556 S
C1365 C1366 1.396 . S
C1365 C1370 1.390 . S
C1366 C1360 1.465 1_546 S
C1366 C1365 1.396 . S
C1366 C1367 1.399 . S
C1367 H1353 0.929 . S
C1367 C1366 1.399 . S
C1367 C1368 1.385 . S
C1368 H1354 0.931 . S
C1368 C1367 1.385 . S
C1368 C1369 1.389 . S
C1369 C1368 1.389 . S
C1369 C1370 1.387 . S
C1370 H1355 0.930 . S
C1370 C1365 1.390 . S
C1370 C1369 1.387 . S
H1371 C1383 0.930 . S
H1372 C1385 0.930 . S
H1373 C1386 0.930 . S
H1374 C1390 0.959 . S
H1375 C1390 0.959 . S
H1376 C1390 0.961 . S
H1377 C1391 0.960 . S
H1378 C1391 0.961 . S
H1379 C1391 0.959 . S
H1380 C1394 0.929 . S
H1381 C1395 0.931 . S
H1382 C1397 0.930 . S
C1383 H1371 0.930 . S
C1383 C1384 1.399 . S
C1383 C1388 1.399 . S
C1384 C1383 1.399 . S
C1384 C1385 1.376 . S
C1385 H1372 0.930 . S
C1385 C1384 1.376 . S
C1385 C1386 1.388 . S
C1386 H1373 0.930 . S
C1386 C1385 1.388 . S
C1386 C1387 1.390 . S
C1387 C1386 1.390 . S
C1387 C1388 1.394 . S
C1387 C1393 1.465 . S
C1388 C1383 1.399 . S
C1388 C1387 1.394 . S
C1388 C1389 1.516 . S
C1389 C1388 1.516 . S
C1389 C1390 1.502 . S
C1389 C1391 1.561 . S
C1389 C1392 1.526 . S
C1390 H1374 0.959 . S
C1390 H1375 0.959 . S
C1390 H1376 0.961 . S
C1390 C1389 1.502 . S
C1391 H1377 0.960 . S
C1391 H1378 0.961 . S
C1391 H1379 0.959 . S
C1391 C1389 1.561 . S
C1392 C1389 1.526 . S
C1392 C1393 1.396 . S
C1392 C1397 1.390 . S
C1393 C1387 1.465 . S
C1393 C1392 1.396 . S
C1393 C1394 1.399 . S
C1394 H1380 0.929 . S
C1394 C1393 1.399 . S
C1394 C1395 1.385 . S
C1395 H1381 0.931 . S
C1395 C1394 1.385 . S
C1395 C1396 1.389 . S
C1396 C1395 1.389 . S
C1396 C1397 1.387 . S
C1397 H1382 0.930 . S
C1397 C1392 1.390 . S
C1397 C1396 1.387 . S
H1398 C1410 0.930 . S
H1399 C1412 0.930 . S
H1400 C1413 0.930 1_455 S
H1401 C1417 0.959 . S
H1402 C1417 0.959 . S
H1403 C1417 0.961 . S
H1404 C1418 0.960 . S
H1405 C1418 0.961 . S
H1406 C1418 0.959 . S
H1407 C1421 0.929 . S
H1408 C1422 0.931 . S
H1409 C1424 0.930 . S
C1410 H1398 0.930 . S
C1410 C1411 1.399 . S
C1410 C1415 1.399 . S
C1411 C1410 1.399 . S
C1411 C1412 1.376 . S
C1412 H1399 0.930 . S
C1412 C1411 1.376 . S
C1412 C1413 1.388 . S
C1413 H1400 0.930 1_655 S
C1413 C1412 1.388 . S
C1413 C1414 1.390 . S
C1414 C1413 1.390 . S
C1414 C1415 1.394 . S
C1414 C1420 1.466 1_656 S
C1415 C1410 1.399 . S
C1415 C1414 1.394 . S
C1415 C1416 1.516 1_556 S
C1416 C1415 1.516 1_554 S
C1416 C1417 1.502 . S
C1416 C1418 1.561 . S
C1416 C1419 1.526 1_655 S
C1417 H1401 0.959 . S
C1417 H1402 0.959 . S
C1417 H1403 0.961 . S
C1417 C1416 1.502 . S
C1418 H1404 0.960 . S
C1418 H1405 0.961 . S
C1418 H1406 0.959 . S
C1418 C1416 1.561 . S
C1419 C1416 1.526 1_455 S
C1419 C1420 1.395 . S
C1419 C1424 1.390 . S
C1420 C1414 1.466 1_454 S
C1420 C1419 1.395 . S
C1420 C1421 1.399 1_554 S
C1421 H1407 0.929 . S
C1421 C1420 1.399 1_556 S
C1421 C1422 1.385 1_556 S
C1422 H1408 0.931 . S
C1422 C1421 1.385 1_554 S
C1422 C1423 1.389 . S
C1423 C1422 1.389 . S
C1423 C1424 1.387 . S
C1424 H1409 0.930 . S
C1424 C1419 1.390 . S
C1424 C1423 1.387 . S
H1425 C1437 0.930 . S
H1426 C1439 0.930 . S
H1427 C1440 0.930 . S
H1428 C1444 0.959 1_565 S
H1429 C1444 0.959 . S
H1430 C1444 0.961 1_565 S
H1431 C1445 0.960 . S
H1432 C1445 0.961 . S
H1433 C1445 0.959 . S
H1434 C1448 0.929 . S
H1435 C1449 0.931 . S
H1436 C1451 0.930 . S
C1437 H1425 0.930 . S
C1437 C1438 1.399 . S
C1437 C1442 1.399 . S
C1438 C1437 1.399 . S
C1438 C1439 1.376 . S
C1439 H1426 0.930 . S
C1439 C1438 1.376 . S
C1439 C1440 1.388 . S
C1440 H1427 0.930 . S
C1440 C1439 1.388 . S
C1440 C1441 1.390 . S
C1441 C1440 1.390 . S
C1441 C1442 1.394 . S
C1441 C1447 1.465 1_565 S
C1442 C1437 1.399 . S
C1442 C1441 1.394 . S
C1442 C1443 1.516 1_565 S
C1443 C1442 1.516 1_545 S
C1443 C1444 1.502 . S
C1443 C1445 1.561 . S
C1443 C1446 1.526 . S
C1444 H1428 0.959 1_545 S
C1444 H1429 0.959 . S
C1444 H1430 0.961 1_545 S
C1444 C1443 1.502 . S
C1445 H1431 0.960 . S
C1445 H1432 0.961 . S
C1445 H1433 0.959 . S
C1445 C1443 1.561 . S
C1446 C1443 1.526 . S
C1446 C1447 1.396 . S
C1446 C1451 1.390 . S
C1447 C1441 1.465 1_545 S
C1447 C1446 1.396 . S
C1447 C1448 1.399 . S
C1448 H1434 0.929 . S
C1448 C1447 1.399 . S
C1448 C1449 1.385 . S
C1449 H1435 0.931 . S
C1449 C1448 1.385 . S
C1449 C1450 1.389 . S
C1450 C1449 1.389 . S
C1450 C1451 1.387 . S
C1451 H1436 0.930 . S
C1451 C1446 1.390 . S
C1451 C1450 1.387 . S
C493 C163 1.299 . S
C505 C26 1.321 . S
C520 C203 1.281 . S
C532 C66 1.302 . S
C547 C106 1.300 . S
C559 C3 1.305 . S
C574 C146 1.302 . S
C586 C43 1.282 . S
C601 C186 1.303 . S
C613 C83 1.279 . S
C628 C123 1.300 . S
C640 C226 1.321 . S
C655 C323 1.288 . S
C667 C266 1.301 . S
C682 C306 1.316 . S
C694 C363 1.277 . S
C709 C403 1.323 . S
C721 C346 1.311 . S
C736 C386 1.301 . S
C748 C443 1.311 . S
C763 C426 1.316 . S
C775 C243 1.277 . S
C790 C283 1.309 . S
C802 C466 1.320 . S
C817 C182 1.756 . S
C829 C9 1.675 . S
C844 C49 1.712 . S
C856 C222 1.741 . S
C871 C89 1.678 . S
C883 C22 1.756 . S
C898 C129 1.677 . S
C910 C62 1.756 . S
C925 C102 1.737 . S
C937 C169 1.719 . S
C952 C142 1.729 . S
C964 C209 1.731 . S
C979 C342 1.744 . S
C991 C249 1.705 . S
C1006 C289 1.725 . S
C1018 C382 1.734 . S
C1033 C329 1.729 . S
C1045 C422 1.731 . S
C1060 C462 1.741 . S
C1072 C369 1.712 . S
C1087 C409 1.688 . S
C1099 C262 1.749 . S
C1114 C302 1.729 . S
C1126 C449 1.732 . S
C1141 C415 1.633 . S
C1153 C15 1.682 . S
C1168 C55 1.606 . S
C1180 C455 1.687 . S
C1195 C95 1.675 . S
C1207 C255 1.645 . S
C1222 C135 1.629 . S
C1234 C295 1.684 . S
C1249 C175 1.604 . S
C1261 C335 1.685 . S
C1276 C375 1.689 . S
C1288 C215 1.610 . S
C1303 C362 2.145 . S
C1315 C2 2.140 . S
C1330 C402 2.141 . S
C1342 C42 2.132 . S
C1357 C82 2.141 . S
C1369 C442 2.132 . S
C1384 C122 2.151 . S
C1396 C242 2.129 . S
C1411 C282 2.134 . S
C1423 C162 2.149 . S
C1438 C322 2.138 . S
C1450 C202 2.134 . S
