# Generated by pormake.
# Topology umj, (4)-cn, num edge types: 1
# Building blocks:
#     Node 0, Type 0, BuildingBlock: NAWXER_clean_sbu_0, # of connection points: 4
#     Node 1, Type 0, BuildingBlock: NAWXER_clean_sbu_0, # of connection points: 4
#     Node 2, Type 0, BuildingBlock: NAWXER_clean_sbu_0, # of connection points: 4
#     Node 3, Type 0, BuildingBlock: NAWXER_clean_sbu_0, # of connection points: 4
#     Node 4, Type 0, BuildingBlock: NAWXER_clean_sbu_0, # of connection points: 4
#     Node 5, Type 0, BuildingBlock: NAWXER_clean_sbu_0, # of connection points: 4
#     Node 6, Type 0, BuildingBlock: NAWXER_clean_sbu_0, # of connection points: 4
#     Node 7, Type 0, BuildingBlock: NAWXER_clean_sbu_0, # of connection points: 4
#     Node 8, Type 0, BuildingBlock: NAWXER_clean_sbu_0, # of connection points: 4
#     Node 9, Type 0, BuildingBlock: NAWXER_clean_sbu_0, # of connection points: 4
#     Node 10, Type 0, BuildingBlock: NAWXER_clean_sbu_0, # of connection points: 4
#     Node 11, Type 0, BuildingBlock: NAWXER_clean_sbu_0, # of connection points: 4
#     Edge 12, Type (0, 0), BuildingBlock: XIVTED_clean_linker_0, # of connection points: 2
#     Edge 13, Type (0, 0), BuildingBlock: XIVTED_clean_linker_0, # of connection points: 2
#     Edge 14, Type (0, 0), BuildingBlock: XIVTED_clean_linker_0, # of connection points: 2
#     Edge 15, Type (0, 0), BuildingBlock: XIVTED_clean_linker_0, # of connection points: 2
#     Edge 16, Type (0, 0), BuildingBlock: XIVTED_clean_linker_0, # of connection points: 2
#     Edge 17, Type (0, 0), BuildingBlock: XIVTED_clean_linker_0, # of connection points: 2
#     Edge 18, Type (0, 0), BuildingBlock: XIVTED_clean_linker_0, # of connection points: 2
#     Edge 19, Type (0, 0), BuildingBlock: XIVTED_clean_linker_0, # of connection points: 2
#     Edge 20, Type (0, 0), BuildingBlock: XIVTED_clean_linker_0, # of connection points: 2
#     Edge 21, Type (0, 0), BuildingBlock: XIVTED_clean_linker_0, # of connection points: 2
#     Edge 22, Type (0, 0), BuildingBlock: XIVTED_clean_linker_0, # of connection points: 2
#     Edge 23, Type (0, 0), BuildingBlock: XIVTED_clean_linker_0, # of connection points: 2
#     Edge 24, Type (0, 0), BuildingBlock: XIVTED_clean_linker_0, # of connection points: 2
#     Edge 25, Type (0, 0), BuildingBlock: XIVTED_clean_linker_0, # of connection points: 2
#     Edge 26, Type (0, 0), BuildingBlock: XIVTED_clean_linker_0, # of connection points: 2
#     Edge 27, Type (0, 0), BuildingBlock: XIVTED_clean_linker_0, # of connection points: 2
#     Edge 28, Type (0, 0), BuildingBlock: XIVTED_clean_linker_0, # of connection points: 2
#     Edge 29, Type (0, 0), BuildingBlock: XIVTED_clean_linker_0, # of connection points: 2
#     Edge 30, Type (0, 0), BuildingBlock: XIVTED_clean_linker_0, # of connection points: 2
#     Edge 31, Type (0, 0), BuildingBlock: XIVTED_clean_linker_0, # of connection points: 2
#     Edge 32, Type (0, 0), BuildingBlock: XIVTED_clean_linker_0, # of connection points: 2
#     Edge 33, Type (0, 0), BuildingBlock: XIVTED_clean_linker_0, # of connection points: 2
#     Edge 34, Type (0, 0), BuildingBlock: XIVTED_clean_linker_0, # of connection points: 2
#     Edge 35, Type (0, 0), BuildingBlock: XIVTED_clean_linker_0, # of connection points: 2
# Relax obj value: 0.019
# Max RMSD: 0.123
# Mean RMSD: 0.123
data_MOF--net-umj--node1-NAWXER_clean_sbu_0--edge1-XIVTED_clean_linker_0
_symmetry_space_group_name_H-M    P1
_symmetry_Int_Tables_number       1
_symmetry_cell_setting            triclinic
loop_
_symmetry_equiv_pos_as_xyz
'x, y, z'
_cell_length_a     29.828862
_cell_length_b     29.868633
_cell_length_c     85.595437
_cell_angle_alpha  89.975521
_cell_angle_beta   90.004074
_cell_angle_gamma 119.96239
loop_
_atom_site_label
_atom_site_type_symbol
_atom_site_fract_x
_atom_site_fract_y
_atom_site_fract_z
_atom_type_partial_charge
C0 C 0.0486 0.26878 0.11797 0.0
C1 C 0.10691 0.30772 0.06342 0.0
O2 O 0.09542 0.29267 0.11333 0.0
Zn3 Zn 0.08148 0.28859 0.09089 0.0
O4 O 0.01205 0.25178 0.1079 0.0
Zn5 Zn 0.00158 0.24976 0.08336 0.0
O6 O 0.96788 0.17586 0.07876 0.0
O7 O 0.04924 0.20858 0.08605 0.0
O8 O 0.05774 0.28254 0.06524 0.0
O9 O 0.1365 0.31887 0.07527 0.0
O10 O 0.04806 0.33671 0.08831 0.0
O11 O 0.96646 0.28962 0.08096 0.0
C12 C 0.0065 0.16987 0.08154 0.0
C13 C 0.00504 0.33348 0.08446 0.0
C14 C 0.79241 0.10345 0.39632 0.0
C15 C 0.77445 0.04205 0.45036 0.0
O16 O 0.80895 0.13185 0.40843 0.0
Zn17 Zn 0.78625 0.0757 0.42355 0.0
O18 O 0.77026 0.05428 0.3977 0.0
Zn19 Zn 0.74829 0.99706 0.41537 0.0
O20 O 0.67353 0.95986 0.41238 0.0
O21 O 0.70393 0.03904 0.42162 0.0
O22 O 0.75564 0.00571 0.44019 0.0
O23 O 0.79637 0.0889 0.44585 0.0
O24 O 0.83696 0.04672 0.41839 0.0
O25 O 0.79079 0.96596 0.41047 0.0
C26 C 0.66582 0.99583 0.41715 0.0
C27 C 0.83468 0.00509 0.41353 0.0
C28 C 0.72611 0.77976 0.78493 0.0
C29 C 0.6873 0.80088 0.73051 0.0
O30 O 0.7022 0.80276 0.78038 0.0
Zn31 Zn 0.70626 0.79356 0.75791 0.0
O32 O 0.74318 0.7605 0.77477 0.0
Zn33 Zn 0.74521 0.75285 0.7502 0.0
O34 O 0.81918 0.79316 0.74558 0.0
O35 O 0.78634 0.84146 0.75307 0.0
O36 O 0.71248 0.77684 0.73221 0.0
O37 O 0.67599 0.8188 0.74245 0.0
O38 O 0.6581 0.71219 0.75513 0.0
O39 O 0.70535 0.67806 0.74758 0.0
C40 C 0.82511 0.83763 0.74846 0.0
C41 C 0.66141 0.67263 0.75113 0.0
C42 C 0.98811 0.66084 0.08459 0.0
C43 C 0.98653 0.82439 0.08171 0.0
O44 O 0.02657 0.70465 0.08098 0.0
Zn45 Zn 0.99153 0.74454 0.08352 0.0
O46 O 0.94523 0.65764 0.08858 0.0
Zn47 Zn 0.91188 0.70578 0.09128 0.0
O48 O 0.85635 0.67526 0.07583 0.0
O49 O 0.93477 0.71162 0.06556 0.0
O50 O 0.94394 0.78573 0.08635 0.0
O51 O 0.02507 0.81837 0.07883 0.0
O52 O 0.98187 0.74281 0.10809 0.0
O53 O 0.89867 0.70198 0.11376 0.0
C54 C 0.88554 0.68638 0.06389 0.0
C55 C 0.94562 0.72592 0.11827 0.0
C56 C 0.16601 0.99451 0.41313 0.0
C57 C 0.33389 0.00126 0.41697 0.0
O58 O 0.21007 0.0333 0.40996 0.0
Zn59 Zn 0.25203 0.00152 0.41498 0.0
O60 O 0.16332 0.95281 0.4181 0.0
Zn61 Zn 0.21306 0.92294 0.4234 0.0
O62 O 0.20292 0.9105 0.44574 0.0
O63 O 0.24461 0.99351 0.4398 0.0
O64 O 0.29516 0.95856 0.4215 0.0
O65 O 0.32695 0.03753 0.41198 0.0
O66 O 0.22917 0.94373 0.39749 0.0
O67 O 0.18966 0.8664 0.40839 0.0
C68 C 0.22544 0.95754 0.4501 0.0
C69 C 0.20644 0.8945 0.39621 0.0
C70 C 0.30843 0.20082 0.72971 0.0
C71 C 0.26963 0.21999 0.78428 0.0
O72 O 0.31976 0.18256 0.74156 0.0
Zn73 Zn 0.28946 0.20721 0.75717 0.0
O74 O 0.28317 0.22473 0.73153 0.0
Zn75 Zn 0.25041 0.24806 0.7497 0.0
O76 O 0.29017 0.32296 0.74729 0.0
O77 O 0.33751 0.28866 0.7546 0.0
O78 O 0.2525 0.23957 0.77424 0.0
O79 O 0.29362 0.19724 0.77958 0.0
O80 O 0.20936 0.15938 0.75236 0.0
O81 O 0.17639 0.20782 0.74513 0.0
C82 C 0.33414 0.32833 0.75077 0.0
C83 C 0.17052 0.1633 0.74788 0.0
C84 C 0.6634 0.98908 0.59729 0.0
C85 C 0.82748 0.98893 0.6003 0.0
O86 O 0.70734 0.02777 0.60065 0.0
Zn87 Zn 0.74708 0.99266 0.59843 0.0
O88 O 0.66008 0.94592 0.59366 0.0
Zn89 Zn 0.70853 0.91271 0.59131 0.0
O90 O 0.67873 0.85851 0.60713 0.0
O91 O 0.71508 0.9375 0.61687 0.0
O92 O 0.78895 0.94575 0.59599 0.0
O93 O 0.82096 0.02726 0.60289 0.0
O94 O 0.7445 0.98089 0.57392 0.0
O95 O 0.70382 0.8973 0.56898 0.0
C96 C 0.69011 0.88846 0.61888 0.0
C97 C 0.72736 0.94375 0.56406 0.0
C98 C 0.79758 0.68623 0.95251 0.0
C99 C 0.77756 0.7257 0.89806 0.0
O100 O 0.81574 0.67508 0.9406 0.0
Zn101 Zn 0.79086 0.70554 0.92509 0.0
O102 O 0.77358 0.71144 0.95078 0.0
Zn103 Zn 0.74987 0.74429 0.93276 0.0
O104 O 0.6749 0.70433 0.93524 0.0
O105 O 0.70939 0.6574 0.92772 0.0
O106 O 0.75806 0.74257 0.9082 0.0
O107 O 0.80052 0.70177 0.90263 0.0
O108 O 0.83866 0.78548 0.92999 0.0
O109 O 0.79012 0.81815 0.93742 0.0
C110 C 0.66963 0.66054 0.93165 0.0
C111 C 0.8347 0.82415 0.93457 0.0
C112 C 0.10785 0.7977 0.28596 0.0
C113 C 0.04463 0.77502 0.23193 0.0
O114 O 0.1361 0.81504 0.27381 0.0
Zn115 Zn 0.07952 0.78934 0.25877 0.0
O116 O 0.05848 0.77362 0.28462 0.0
Zn117 Zn 0.00057 0.74901 0.26692 0.0
O118 O 0.96555 0.67437 0.26975 0.0
O119 O 0.04644 0.70796 0.26175 0.0
O120 O 0.00876 0.75598 0.24224 0.0
O121 O 0.09173 0.79806 0.23628 0.0
O122 O 0.04764 0.83751 0.26378 0.0
O123 O 0.96697 0.78914 0.2717 0.0
C124 C 0.00371 0.66862 0.26599 0.0
C125 C 0.00519 0.8336 0.26861 0.0
C126 C 0.30975 0.10841 0.61875 0.0
C127 C 0.2717 0.0514 0.5641 0.0
O128 O 0.32081 0.13806 0.60693 0.0
Zn129 Zn 0.29108 0.0834 0.59124 0.0
O130 O 0.28499 0.05932 0.61687 0.0
Zn131 Zn 0.25283 0.00361 0.59862 0.0
O132 O 0.29282 0.96881 0.60092 0.0
O133 O 0.33978 0.05048 0.59369 0.0
O134 O 0.25488 0.01462 0.57409 0.0
O135 O 0.29528 0.09802 0.56885 0.0
O136 O 0.21072 0.05023 0.59602 0.0
O137 O 0.17899 0.96897 0.60319 0.0
C138 C 0.33664 0.00748 0.59744 0.0
C139 C 0.17232 0.00715 0.60046 0.0
C140 C 0.21718 0.26866 0.89775 0.0
C141 C 0.19805 0.30717 0.95235 0.0
O142 O 0.19425 0.29245 0.90247 0.0
Zn143 Zn 0.2042 0.28818 0.92488 0.0
O144 O 0.2368 0.25153 0.90777 0.0
Zn145 Zn 0.24526 0.24927 0.93231 0.0
O146 O 0.20503 0.17536 0.9369 0.0
O147 O 0.1564 0.20818 0.92971 0.0
O148 O 0.22199 0.28196 0.95049 0.0
O149 O 0.17961 0.31843 0.94053 0.0
O150 O 0.28575 0.33624 0.92743 0.0
O151 O 0.32026 0.28909 0.93471 0.0
C152 C 0.16041 0.16943 0.93418 0.0
C153 C 0.32552 0.33297 0.93125 0.0
C154 C 0.95231 0.22113 0.23184 0.0
C155 C 0.88969 0.19875 0.28592 0.0
O156 O 0.90528 0.19811 0.23626 0.0
Zn157 Zn 0.91779 0.20698 0.25872 0.0
O158 O 0.98834 0.24026 0.2421 0.0
Zn159 Zn 0.9968 0.24735 0.26677 0.0
O160 O 0.03047 0.20726 0.27154 0.0
O161 O 0.94971 0.15883 0.26372 0.0
O162 O 0.93905 0.22283 0.28454 0.0
O163 O 0.86134 0.18134 0.27379 0.0
O164 O 0.95089 0.28838 0.26165 0.0
O165 O 0.03187 0.32199 0.26956 0.0
C166 C 0.99222 0.16278 0.2685 0.0
C167 C 0.99367 0.32773 0.26585 0.0
H168 H 0.04951 0.26828 0.21931 0.0
H169 H 0.95193 0.21782 0.13071 0.0
H170 H 0.88828 0.18752 0.20608 0.0
H171 H 0.11341 0.30066 0.14365 0.0
H172 H 0.92838 0.20516 0.1582 0.0
H173 H 0.07358 0.27911 0.19181 0.0
C174 C 0.01903 0.2527 0.21063 0.0
C175 C 0.96663 0.22692 0.21507 0.0
C176 C 0.96898 0.22606 0.15507 0.0
C177 C 0.99428 0.23937 0.1834 0.0
C178 C 0.98261 0.23337 0.13933 0.0
C179 C 0.0349 0.26049 0.1348 0.0
C180 C 0.0078 0.24597 0.16651 0.0
C181 C 0.07267 0.27956 0.14657 0.0
C182 C 0.03294 0.25897 0.19489 0.0
C183 C 0.92909 0.20764 0.20323 0.0
N184 N 0.05836 0.27198 0.16189 0.0
N185 N 0.94366 0.21431 0.18795 0.0
H186 H 0.8085 0.10726 0.47575 0.0
H187 H 0.69506 0.87723 0.53883 0.0
H188 H 0.72871 0.94553 0.46336 0.0
H189 H 0.77713 0.0394 0.55071 0.0
H190 H 0.70759 0.90098 0.51108 0.0
H191 H 0.79799 0.08278 0.50336 0.0
C192 C 0.78888 0.06665 0.47882 0.0
C193 C 0.76947 0.02848 0.46719 0.0
C194 C 0.7229 0.9313 0.51979 0.0
C195 C 0.75717 5e-05 0.4988 0.0
C196 C 0.71576 0.91772 0.53563 0.0
C197 C 0.73496 0.95628 0.54715 0.0
C198 C 0.74939 0.98379 0.51546 0.0
C199 C 0.76151 0.00821 0.54229 0.0
C200 C 0.78285 0.05264 0.49459 0.0
C201 C 0.74433 0.97638 0.47189 0.0
N202 N 0.76783 0.02036 0.52687 0.0
N203 N 0.73885 0.96374 0.4873 0.0
H204 H 0.69473 0.81281 0.81063 0.0
H205 H 0.81128 0.69491 0.87237 0.0
H206 H 0.77634 0.73307 0.79755 0.0
H207 H 0.73106 0.77608 0.88542 0.0
H208 H 0.79967 0.70923 0.84481 0.0
H209 H 0.70842 0.80054 0.83818 0.0
C210 C 0.71556 0.79285 0.81353 0.0
C211 C 0.73432 0.77395 0.80173 0.0
C212 C 0.78469 0.72395 0.85374 0.0
C213 C 0.75011 0.75965 0.83321 0.0
C214 C 0.79135 0.71577 0.86947 0.0
C215 C 0.77212 0.73422 0.88126 0.0
C216 C 0.75861 0.75074 0.84977 0.0
C217 C 0.74656 0.76104 0.87677 0.0
C218 C 0.72338 0.78581 0.82926 0.0
C219 C 0.76107 0.74832 0.80621 0.0
N220 N 0.74053 0.7684 0.86143 0.0
N221 N 0.76808 0.7419 0.82155 0.0
H222 H 0.04267 0.77675 0.13076 0.0
H223 H 0.94722 0.72801 0.21959 0.0
H224 H 0.88154 0.69462 0.14411 0.0
H225 H 0.10817 0.80812 0.20603 0.0
H226 H 0.92256 0.71683 0.19214 0.0
H227 H 0.06696 0.78978 0.1582 0.0
C228 C 0.01223 0.76143 0.13946 0.0
C229 C 0.95982 0.7344 0.13506 0.0
C230 C 0.96327 0.7369 0.19514 0.0
C231 C 0.98776 0.74937 0.16671 0.0
C232 C 0.97752 0.74338 0.21085 0.0
C233 C 0.03 0.76908 0.21518 0.0
C234 C 0.00168 0.75622 0.18357 0.0
C235 C 0.0673 0.78808 0.20327 0.0
C236 C 0.02628 0.76896 0.15517 0.0
C237 C 0.92236 0.71564 0.14693 0.0
N238 N 0.0524 0.78121 0.18801 0.0
N239 N 0.93708 0.72344 0.16221 0.0
H240 H 0.22138 0.95521 0.55115 0.0
H241 H 0.27151 0.05456 0.4627 0.0
H242 H 0.30324 0.11684 0.53858 0.0
H243 H 0.19191 0.89338 0.47577 0.0
H244 H 0.28194 0.0782 0.49026 0.0
H245 H 0.20891 0.93244 0.52362 0.0
C246 C 0.23676 0.98609 0.5426 0.0
C247 C 0.26355 0.03818 0.54725 0.0
C248 C 0.26213 0.03767 0.48712 0.0
C249 C 0.24923 0.01198 0.51548 0.0
C250 C 0.25608 0.02402 0.47136 0.0
C251 C 0.23077 0.97176 0.46687 0.0
C252 C 0.24277 -0.00113 0.49857 0.0
C253 C 0.21167 0.9341 0.47866 0.0
C254 C 0.22955 0.97291 0.52683 0.0
C255 C 0.28239 0.07623 0.53556 0.0
N256 N 0.21812 0.94841 0.49395 0.0
N257 N 0.27493 0.06236 0.5202 0.0
H258 H 0.3007 0.18564 0.80976 0.0
H259 H 0.18363 0.30059 0.87228 0.0
H260 H 0.21939 0.26619 0.79722 0.0
H261 H 0.26344 0.21852 0.88479 0.0
H262 H 0.19544 0.28755 0.84464 0.0
H263 H 0.28664 0.19647 0.83739 0.0
C264 C 0.27987 0.20548 0.81279 0.0
C265 C 0.2613 0.22503 0.80112 0.0
C266 C 0.21028 0.27235 0.85346 0.0
C267 C 0.24507 0.23766 0.8327 0.0
C268 C 0.20349 0.27979 0.86924 0.0
C269 C 0.22257 0.26073 0.8809 0.0
C270 C 0.23635 0.2457 0.84931 0.0
C271 C 0.24807 0.23403 0.87624 0.0
C272 C 0.27183 0.2117 0.82857 0.0
C273 C 0.23452 0.25047 0.80578 0.0
N274 N 0.25424 0.2274 0.86085 0.0
N275 N 0.2273 0.25607 0.82116 0.0
H276 H 0.05765 0.31822 0.03823 0.0
H277 H 0.25744 0.31672 0.97756 0.0
H278 H 0.20215 0.32958 0.05199 0.0
H279 H 0.1254 0.33003 0.9638 0.0
H280 H 0.24205 0.32936 1.0047 0.0
H281 H 0.08565 0.33053 0.01108 0.0
C282 C 0.09559 0.32377 0.03554 0.0
C283 C 0.12739 0.32213 0.04737 0.0
C284 C 0.21673 0.33015 0.99578 0.0
C285 C 0.15954 0.3359 0.01618 0.0
C286 C 0.22535 0.32275 0.98025 0.0
C287 C 0.19212 0.32157 0.96842 0.0
C288 C 0.1741 0.33575 0.9996 0.0
C289 C 0.15175 0.3304 0.97257 0.0
C290 C 0.1116 0.33098 0.02001 0.0
C291 C 0.17637 0.33034 0.04322 0.0
N292 N 0.14338 0.33636 0.98787 0.0
N293 N 0.19067 0.3361 0.02792 0.0
H294 H 0.86354 0.20114 0.38617 0.0
H295 H 0.79213 0.12652 0.29596 0.0
H296 H 0.73716 0.05536 0.37029 0.0
H297 H 0.93691 0.25414 0.312 0.0
H298 H 0.76154 0.1096 0.32313 0.0
H299 H 0.88087 0.23085 0.35893 0.0
C300 C 0.83898 0.17577 0.37699 0.0
C301 C 0.79944 0.12549 0.38045 0.0
C302 C 0.79979 0.14165 0.32064 0.0
C303 C 0.81888 0.15896 0.34939 0.0
C304 C 0.81713 0.15136 0.30515 0.0
C305 C 0.86737 0.19121 0.30177 0.0
C306 C 0.83283 0.17232 0.33274 0.0
C307 C 0.89818 0.22239 0.31412 0.0
C308 C 0.84896 0.19258 0.36146 0.0
C309 C 0.76866 0.09415 0.36812 0.0
N310 N 0.88059 0.21208 0.32904 0.0
N311 N 0.77926 0.11123 0.35315 0.0
H312 H 0.66574 0.87477 0.71943 0.0
H313 H 0.66295 0.79167 0.63011 0.0
H314 H 0.67714 0.74232 0.70508 0.0
H315 H 0.68535 0.94004 0.6444 0.0
H316 H 0.64971 0.76442 0.65759 0.0
H317 H 0.65431 0.89057 0.69194 0.0
C318 C 0.66503 0.84863 0.71054 0.0
C319 C 0.6732 0.80772 0.71449 0.0
C320 C 0.65703 0.80276 0.65465 0.0
C321 C 0.66023 0.82537 0.68316 0.0
C322 C 0.66442 0.8182 0.63898 0.0
C323 C 0.67607 0.8684 0.635 0.0
C324 C 0.66094 0.83768 0.66634 0.0
C325 C 0.67735 0.90123 0.64697 0.0
C326 C 0.65875 0.85772 0.69487 0.0
C327 C 0.67187 0.7749 0.70252 0.0
N328 N 0.67026 0.88545 0.66209 0.0
N329 N 0.66594 0.78463 0.68741 0.0
H330 H 0.78906 0.66215 0.05295 0.0
H331 H 0.86944 0.66153 0.96349 0.0
H332 H 0.9347 0.67775 0.03836 0.0
H333 H 0.74006 0.67826 0.97806 0.0
H334 H 0.88455 0.64885 0.99093 0.0
H335 H 0.76116 0.64942 0.02552 0.0
C336 C 0.81479 0.66214 0.04402 0.0
C337 C 0.86451 0.67185 0.04789 0.0
C338 C 0.85252 0.65475 0.98806 0.0
C339 C 0.8331 0.65738 0.01662 0.0
C340 C 0.84383 0.66179 0.97241 0.0
C341 C 0.80403 0.67179 0.96853 0.0
C342 C 0.82088 0.65737 0.99982 0.0
C343 C 0.77183 0.67159 0.98056 0.0
C344 C 0.79901 0.65508 0.02838 0.0
C345 C 0.89633 0.67132 0.03586 0.0
N346 N 0.78118 0.66493 0.99564 0.0
N347 N 0.88026 0.66464 0.02078 0.0
H348 H 0.20562 0.86975 0.29591 0.0
H349 H 0.13441 0.79691 0.38624 0.0
H350 H 0.06067 0.74276 0.31214 0.0
H351 H 0.26179 0.94168 0.37011 0.0
H352 H 0.11666 0.76674 0.35905 0.0
H353 H 0.2364 0.88693 0.32304 0.0
C354 C 0.18061 0.8451 0.30513 0.0
C355 C 0.13028 0.80536 0.30181 0.0
C356 C 0.14887 0.80489 0.36152 0.0
C357 C 0.16502 0.82455 0.33275 0.0
C358 C 0.1591 0.82195 0.37702 0.0
C359 C 0.19906 0.8721 0.38039 0.0
C360 C 0.17913 0.83812 0.34939 0.0
C361 C 0.22997 0.90301 0.368 0.0
C362 C 0.19806 0.85496 0.32061 0.0
C363 C 0.09947 0.77443 0.31421 0.0
N364 N 0.21913 0.8857 0.35306 0.0
N365 N 0.11717 0.78489 0.32912 0.0
H366 H 0.31908 0.05898 0.6441 0.0
H367 H 0.31765 0.25951 0.70436 0.0
H368 H 0.33172 0.20363 0.63007 0.0
H369 H 0.33133 0.12809 0.71843 0.0
H370 H 0.33019 0.24359 0.67726 0.0
H371 H 0.33097 0.08713 0.67123 0.0
C372 C 0.32481 0.09697 0.64673 0.0
C373 C 0.32368 0.12879 0.63482 0.0
C374 C 0.33109 0.21852 0.68625 0.0
C375 C 0.33699 0.16113 0.66598 0.0
C376 C 0.32374 0.22745 0.70175 0.0
C377 C 0.32272 0.19457 0.71366 0.0
C378 C 0.33678 0.17593 0.68253 0.0
C379 C 0.3316 0.15419 0.70961 0.0
C380 C 0.33178 0.11307 0.66224 0.0
C381 C 0.33208 0.17783 0.63889 0.0
N382 N 0.3375 0.14553 0.69433 0.0
N383 N 0.33763 0.19222 0.65418 0.0
H384 H 0.90791 0.56194 0.0864 0.0
H385 H 0.08532 0.43239 0.08599 0.0
H386 H 0.07397 0.64963 0.08106 0.0
H387 H 0.91906 0.34465 0.08127 0.0
H388 H 0.0818 0.512 0.08526 0.0
H389 H 0.9114 0.48232 0.08561 0.0
C390 C 0.94526 0.56454 0.08508 0.0
C391 C 0.99086 0.61274 0.08388 0.0
C392 C 0.04607 0.47542 0.08434 0.0
C393 C 0.99492 0.52114 0.08296 0.0
C394 C 0.04792 0.42977 0.08482 0.0
C395 C 0.00227 0.38157 0.08378 0.0
C396 C 0.99819 0.47316 0.08294 0.0
C397 C 0.95515 0.38087 0.08214 0.0
C398 C 0.94709 0.51889 0.08456 0.0
C399 C 0.03791 0.61342 0.08205 0.0
N400 N 0.9543 0.42602 0.08186 0.0
N401 N 0.03876 0.56826 0.08174 0.0
H402 H 0.61383 0.00015 0.44242 0.0
H403 H 0.41057 0.04316 0.39479 0.0
H404 H 0.60267 0.98244 0.39239 0.0
H405 H 0.37308 0.96792 0.43974 0.0
H406 H 0.491 0.03874 0.39452 0.0
H407 H 0.53337 0.00373 0.44252 0.0
C408 C 0.59375 0.9961 0.4315 0.0
C409 C 0.61385 0.98981 0.41742 0.0
C410 C 0.46517 0.02359 0.40446 0.0
C411 C 0.52374 0.99639 0.41734 0.0
C412 C 0.41983 0.0267 0.4047 0.0
C413 C 0.38555 0.0061 0.41734 0.0
C414 C 0.47655 0.00092 0.41711 0.0
C415 C 0.39867 0.98428 0.42979 0.0
C416 C 0.54823 -0.00152 0.43155 0.0
C417 C 0.58744 0.98611 0.4035 0.0
N418 N 0.44329 0.98256 0.42943 0.0
N419 N 0.54387 0.99005 0.40377 0.0
H420 H 0.43327 0.34722 0.75229 0.0
H421 H 0.56228 0.65373 0.75285 0.0
H422 H 0.34504 0.42526 0.74763 0.0
H423 H 0.65043 0.57582 0.74756 0.0
H424 H 0.48267 0.57062 0.75198 0.0
H425 H 0.51285 0.43037 0.7516 0.0
C426 C 0.43054 0.3819 0.75114 0.0
C427 C 0.38221 0.3792 0.7501 0.0
C428 C 0.51934 0.5716 0.75096 0.0
C429 C 0.47376 0.4749 0.7493 0.0
C430 C 0.56499 0.61909 0.75152 0.0
C431 C 0.61331 0.6218 0.75036 0.0
C432 C 0.52172 0.52616 0.74936 0.0
C433 C 0.61412 0.57556 0.74853 0.0
C434 C 0.47617 0.42941 0.75068 0.0
C435 C 0.38136 0.4255 0.74849 0.0
N436 N 0.56897 0.52957 0.74817 0.0
N437 N 0.4265 0.47152 0.74823 0.0
H438 H 0.43575 0.08746 0.59553 0.0
H439 H 0.56424 0.90914 0.59568 0.0
H440 H 0.34752 0.92157 0.60073 0.0
H441 H 0.65272 0.07518 0.60035 0.0
H442 H 0.48476 0.91309 0.59638 0.0
H443 H 0.51531 0.0836 0.59615 0.0
C444 C 0.43302 0.05009 0.59678 0.0
C445 C 0.38472 0.00464 0.598 0.0
C446 C 0.52148 0.94868 0.59729 0.0
C447 C 0.47616 0.00015 0.59872 0.0
C448 C 0.56704 0.94657 0.59683 0.0
C449 C 0.61539 0.99203 0.59788 0.0
C450 C 0.52402 0.99663 0.59869 0.0
C451 C 0.61636 0.03923 0.59948 0.0
C452 C 0.47862 0.04804 0.5972 0.0
C453 C 0.38384 0.95752 0.59973 0.0
N454 N 0.57129 0.04033 0.59975 0.0
N455 N 0.42893 0.95647 0.59995 0.0
H456 H 0.34412 0.43186 0.92963 0.0
H457 H 0.65112 0.56171 0.92996 0.0
H458 H 0.42267 0.34422 0.93461 0.0
H459 H 0.57243 0.6492 0.93493 0.0
H460 H 0.56804 0.48203 0.93061 0.0
H461 H 0.42718 0.51151 0.9305 0.0
C462 C 0.37889 0.42927 0.93089 0.0
C463 C 0.37637 0.38108 0.93196 0.0
C464 C 0.56884 0.51857 0.93161 0.0
C465 C 0.47197 0.47272 0.93297 0.0
C466 C 0.61631 0.56426 0.93118 0.0
C467 C 0.6188 0.61241 0.93231 0.0
C468 C 0.52318 0.52074 0.93305 0.0
C469 C 0.57235 0.61302 0.934 0.0
C470 C 0.42635 0.47494 0.93145 0.0
C471 C 0.42278 0.38043 0.93371 0.0
N472 N 0.52637 0.56782 0.93423 0.0
N473 N 0.46875 0.42561 0.93407 0.0
H474 H 0.91758 0.57228 0.26981 0.0
H475 H 0.07982 0.42405 0.26966 0.0
H476 H 0.08347 0.64906 0.26413 0.0
H477 H 0.91391 0.34732 0.26404 0.0
H478 H 0.08201 0.50724 0.27056 0.0
H479 H 0.91539 0.48908 0.27063 0.0
C480 C 0.95345 0.57167 0.26877 0.0
C481 C 0.00066 0.61766 0.26679 0.0
C482 C 0.04517 0.47209 0.26914 0.0
C483 C -0.00142 0.52294 0.26782 0.0
C484 C 0.04394 0.42467 0.26865 0.0
C485 C 0.99673 0.3787 0.26667 0.0
C486 C -0.00119 0.4734 0.26779 0.0
C487 C 0.95132 0.38178 0.26545 0.0
C488 C 0.95222 0.52424 0.26921 0.0
C489 C 0.04607 0.61459 0.26554 0.0
N490 N 0.95349 0.42822 0.26605 0.0
N491 N 0.04389 0.56814 0.26609 0.0
H492 H 0.08653 0.15035 0.08142 0.0
H493 H 0.9065 0.84391 0.08189 0.0
H494 H 0.92009 0.07358 0.07772 0.0
H495 H 0.07276 0.92058 0.07752 0.0
H496 H 0.91077 0.92736 0.08034 0.0
H497 H 0.08219 0.06686 0.07995 0.0
C498 C 0.04895 0.1159 0.08025 0.0
C499 C 0.00349 0.11905 0.07979 0.0
C500 C 0.94634 0.92604 0.07963 0.0
C501 C -0.00161 0.02289 0.07815 0.0
C502 C 0.94403 0.87833 0.08056 0.0
C503 C 0.98947 0.87517 0.07994 0.0
C504 C 0.99449 0.97128 0.07819 0.0
C505 C 0.0368 0.92115 0.07808 0.0
C506 C 0.0466 0.06817 0.07937 0.0
C507 C 0.95608 0.07303 0.07814 0.0
N508 N 0.03811 0.96736 0.07739 0.0
N509 N 0.95473 0.0268 0.0775 0.0
H510 H 0.9334 0.08676 0.41404 0.0
H511 H 0.06729 0.91312 0.41327 0.0
H512 H 0.8477 0.92083 0.40899 0.0
H513 H 0.1534 0.07929 0.40902 0.0
H514 H 0.98685 0.91532 0.41188 0.0
H515 H 0.01402 0.08485 0.41241 0.0
C516 C 0.93145 0.04982 0.41254 0.0
C517 C 0.8835 0.00377 0.41174 0.0
C518 C 0.02325 0.95133 0.41116 0.0
C519 C 0.97623 0.00145 0.40992 0.0
C520 C 0.06936 0.95019 0.41199 0.0
C521 C 0.11738 0.99621 0.41135 0.0
C522 C 0.0248 -0.00113 0.40982 0.0
C523 C 0.11737 0.04291 0.40957 0.0
C524 C 0.97766 0.04886 0.41156 0.0
C525 C 0.88366 0.95724 0.40968 0.0
N526 N 0.07179 0.04308 0.409 0.0
N527 N 0.9293 0.95724 0.40896 0.0
H528 H 0.1513 0.06402 0.74766 0.0
H529 H 0.84441 0.93695 0.74873 0.0
H530 H 0.07393 0.15314 0.74425 0.0
H531 H 0.92149 0.84785 0.74414 0.0
H532 H 0.9278 0.01616 0.74706 0.0
H533 H 0.0678 0.98481 0.74631 0.0
C534 C 0.11671 0.06701 0.74658 0.0
C535 C 0.11969 0.11548 0.74617 0.0
C536 C 0.92658 0.97937 0.74633 0.0
C537 C 0.02353 0.02437 0.74467 0.0
C538 C 0.87891 0.93396 0.74733 0.0
C539 C 0.87588 0.88549 0.74668 0.0
C540 C 0.97193 0.97662 0.74479 0.0
C541 C 0.92196 0.88428 0.74473 0.0
C542 C 0.06898 0.02161 0.74577 0.0
C543 C 0.07349 0.11671 0.74464 0.0
N544 N 0.96814 0.9292 0.74397 0.0
N545 N 0.02727 0.07179 0.74406 0.0
H546 H 0.92271 0.07622 0.60442 0.0
H547 H 0.07711 0.91985 0.60467 0.0
H548 H 0.849 0.91031 0.60017 0.0
H549 H 0.15074 0.0857 0.60019 0.0
H550 H 0.99291 0.91554 0.60614 0.0
H551 H 0.00686 0.08049 0.60598 0.0
C552 C 0.92417 0.04074 0.6039 0.0
C553 C 0.87877 0.99293 0.60204 0.0
C554 C 0.0276 0.95287 0.60489 0.0
C555 C 0.97471 0.99743 0.60386 0.0
C556 C 0.07563 0.95531 0.60409 0.0
C557 C 0.12101 0.00311 0.60218 0.0
C558 C 0.02504 -0.00142 0.6039 0.0
C559 C 0.11677 0.0479 0.60151 0.0
C560 C 0.97218 0.04316 0.60476 0.0
C561 C 0.88299 0.94812 0.60146 0.0
N562 N 0.06973 0.04452 0.60234 0.0
N563 N 0.93002 0.95148 0.60234 0.0
H564 H 0.93419 0.84355 0.93455 0.0
H565 H 0.0609 0.15001 0.93427 0.0
H566 H 0.84473 0.92045 0.93851 0.0
H567 H 0.15043 0.07316 0.93817 0.0
H568 H 0.98169 0.06661 0.9359 0.0
H569 H 0.01342 0.92698 0.93596 0.0
C570 C 0.93113 0.87802 0.93576 0.0
C571 C 0.88255 0.87493 0.93631 0.0
C572 C 0.01858 0.06788 0.93649 0.0
C573 C 0.9737 0.97102 0.93789 0.0
C574 C 0.06398 0.11556 0.93551 0.0
C575 C 0.11257 0.11866 0.93598 0.0
C576 C 0.02145 0.0226 0.93782 0.0
C577 C 0.11391 0.07264 0.93773 0.0
C578 C 0.97655 0.92572 0.93662 0.0
C579 C 0.88124 0.92097 0.93802 0.0
N580 N 0.06899 0.02646 0.93847 0.0
N581 N 0.92618 0.96717 0.93863 0.0
H582 H 0.91875 0.843 0.27315 0.0
H583 H 0.07873 0.15343 0.27297 0.0
H584 H 0.08474 0.9332 0.26808 0.0
H585 H 0.91267 0.06317 0.2681 0.0
H586 H 0.08174 0.07293 0.27453 0.0
H587 H 0.91576 0.92351 0.27465 0.0
C588 C 0.95452 0.87963 0.27244 0.0
C589 C 0.00197 0.88129 0.27036 0.0
C590 C 0.04466 0.07086 0.27317 0.0
C591 C -0.00106 0.97344 0.27213 0.0
C592 C 0.04295 0.11679 0.27232 0.0
C593 C 0.99547 0.11511 0.27028 0.0
C594 C -0.00147 0.02298 0.27211 0.0
C595 C 0.95025 0.06644 0.26953 0.0
C596 C 0.95282 0.92557 0.27326 0.0
C597 C 0.04718 0.92995 0.26954 0.0
N598 N 0.95291 0.02243 0.27042 0.0
N599 N 0.04453 0.97397 0.2704 0.0
loop_
_geom_bond_atom_site_label_1
_geom_bond_atom_site_label_2
_geom_bond_distance
_geom_bond_site_symmetry_2
_ccdc_geom_bond_type
C0 O2 1.247 . S
C0 O4 1.258 1_455 S
C1 O8 1.247 . S
C1 O9 1.258 . S
O2 C0 1.247 . S
O2 Zn3 2.028 . S
Zn3 O2 2.028 . S
Zn3 O7 2.035 . S
Zn3 O9 2.035 . S
Zn3 O10 2.028 . S
O4 C0 1.258 1_655 S
O4 Zn5 2.035 . S
Zn5 O4 2.035 . S
Zn5 O6 2.012 1_655 S
Zn5 O8 2.028 1_655 S
Zn5 O11 2.035 1_655 S
O6 Zn5 2.012 1_455 S
O6 C12 1.272 . S
O7 Zn3 2.035 . S
O7 C12 1.258 . S
O8 C1 1.247 . S
O8 Zn5 2.028 1_455 S
O9 C1 1.258 . S
O9 Zn3 2.035 . S
O10 Zn3 2.028 . S
O10 C13 1.247 . S
O11 Zn5 2.035 1_455 S
O11 C13 1.258 . S
C12 O6 1.272 . S
C12 O7 1.258 . S
C13 O10 1.247 . S
C13 O11 1.258 . S
C14 O16 1.247 . S
C14 O18 1.258 . S
C15 O22 1.247 1_545 S
C15 O23 1.258 . S
O16 C14 1.247 . S
O16 Zn17 2.028 . S
Zn17 O16 2.028 . S
Zn17 O21 2.035 . S
Zn17 O23 2.035 . S
Zn17 O24 2.028 . S
O18 C14 1.258 . S
O18 Zn19 2.035 1_545 S
Zn19 O18 2.035 1_565 S
Zn19 O20 2.028 1_565 S
Zn19 O22 2.028 . S
Zn19 O25 2.043 1_565 S
O20 Zn19 2.028 1_545 S
O20 C26 1.247 . S
O21 Zn17 2.035 . S
O21 C26 1.258 . S
O22 C15 1.247 1_565 S
O22 Zn19 2.028 . S
O23 C15 1.258 . S
O23 Zn17 2.035 . S
O24 Zn17 2.028 . S
O24 C27 1.247 . S
O25 Zn19 2.043 1_545 S
O25 C27 1.270 . S
C26 O20 1.247 . S
C26 O21 1.258 . S
C27 O24 1.247 . S
C27 O25 1.270 . S
C28 O30 1.247 . S
C28 O32 1.258 . S
C29 O36 1.247 . S
C29 O37 1.258 . S
O30 C28 1.247 . S
O30 Zn31 2.028 . S
Zn31 O30 2.028 . S
Zn31 O35 2.035 . S
Zn31 O37 2.035 . S
Zn31 O38 2.028 . S
O32 C28 1.258 . S
O32 Zn33 2.035 . S
Zn33 O32 2.035 . S
Zn33 O34 2.028 . S
Zn33 O36 2.028 . S
Zn33 O39 2.035 . S
O34 Zn33 2.028 . S
O34 C40 1.247 . S
O35 Zn31 2.035 . S
O35 C40 1.258 . S
O36 C29 1.247 . S
O36 Zn33 2.028 . S
O37 C29 1.258 . S
O37 Zn31 2.035 . S
O38 Zn31 2.028 . S
O38 C41 1.247 . S
O39 Zn33 2.035 . S
O39 C41 1.258 . S
C40 O34 1.247 . S
C40 O35 1.258 . S
C41 O38 1.247 . S
C41 O39 1.258 . S
C42 O44 1.247 . S
C42 O46 1.258 . S
C43 O50 1.247 . S
C43 O51 1.281 . S
O44 C42 1.247 . S
O44 Zn45 2.028 1_655 S
Zn45 O44 2.028 1_455 S
Zn45 O49 2.035 1_455 S
Zn45 O51 2.021 1_455 S
Zn45 O52 2.028 . S
O46 C42 1.258 . S
O46 Zn47 2.035 . S
Zn47 O46 2.035 . S
Zn47 O48 2.028 . S
Zn47 O50 2.028 . S
Zn47 O53 2.035 . S
O48 Zn47 2.028 . S
O48 C54 1.247 . S
O49 Zn45 2.035 1_655 S
O49 C54 1.258 . S
O50 C43 1.247 . S
O50 Zn47 2.028 . S
O51 C43 1.281 . S
O51 Zn45 2.021 1_655 S
O52 Zn45 2.028 . S
O52 C55 1.247 1_455 S
O53 Zn47 2.035 . S
O53 C55 1.258 . S
C54 O48 1.247 . S
C54 O49 1.258 . S
C55 O52 1.247 1_655 S
C55 O53 1.258 . S
C56 O58 1.260 . S
C56 O60 1.258 . S
C57 O64 1.247 . S
C57 O65 1.258 . S
O58 C56 1.260 . S
O58 Zn59 2.037 1_565 S
Zn59 O58 2.037 1_545 S
Zn59 O63 2.035 . S
Zn59 O65 2.035 1_545 S
Zn59 O66 2.028 1_545 S
O60 C56 1.258 . S
O60 Zn61 2.035 . S
Zn61 O60 2.035 . S
Zn61 O62 2.028 . S
Zn61 O64 2.028 . S
Zn61 O67 2.035 . S
O62 Zn61 2.028 . S
O62 C68 1.247 . S
O63 Zn59 2.035 . S
O63 C68 1.258 1_545 S
O64 C57 1.247 . S
O64 Zn61 2.028 . S
O65 C57 1.258 . S
O65 Zn59 2.035 1_565 S
O66 Zn59 2.028 1_565 S
O66 C69 1.247 . S
O67 Zn61 2.035 . S
O67 C69 1.258 . S
C68 O62 1.247 . S
C68 O63 1.258 1_565 S
C69 O66 1.247 . S
C69 O67 1.258 . S
C70 O72 1.247 . S
C70 O74 1.258 . S
C71 O78 1.247 . S
C71 O79 1.258 . S
O72 C70 1.247 . S
O72 Zn73 2.028 . S
Zn73 O72 2.028 . S
Zn73 O77 2.035 . S
Zn73 O79 2.035 . S
Zn73 O80 2.028 . S
O74 C70 1.258 . S
O74 Zn75 2.035 . S
Zn75 O74 2.035 . S
Zn75 O76 2.028 . S
Zn75 O78 2.028 . S
Zn75 O81 2.035 . S
O76 Zn75 2.028 . S
O76 C82 1.247 . S
O77 Zn73 2.035 . S
O77 C82 1.258 . S
O78 C71 1.247 . S
O78 Zn75 2.028 . S
O79 C71 1.258 . S
O79 Zn73 2.035 . S
O80 Zn73 2.028 . S
O80 C83 1.247 . S
O81 Zn75 2.035 . S
O81 C83 1.258 . S
C82 O76 1.247 . S
C82 O77 1.258 . S
C83 O80 1.247 . S
C83 O81 1.258 . S
C84 O86 1.247 . S
C84 O88 1.258 . S
C85 O92 1.247 . S
C85 O93 1.281 . S
O86 C84 1.247 . S
O86 Zn87 2.028 1_565 S
Zn87 O86 2.028 1_545 S
Zn87 O91 2.035 1_545 S
Zn87 O93 2.021 1_545 S
Zn87 O94 2.028 . S
O88 C84 1.258 . S
O88 Zn89 2.035 . S
Zn89 O88 2.035 . S
Zn89 O90 2.028 . S
Zn89 O92 2.028 . S
Zn89 O95 2.035 . S
O90 Zn89 2.028 . S
O90 C96 1.247 . S
O91 Zn87 2.035 1_565 S
O91 C96 1.258 . S
O92 C85 1.247 . S
O92 Zn89 2.028 . S
O93 C85 1.281 . S
O93 Zn87 2.021 1_565 S
O94 Zn87 2.028 . S
O94 C97 1.247 1_545 S
O95 Zn89 2.035 . S
O95 C97 1.258 . S
C96 O90 1.247 . S
C96 O91 1.258 . S
C97 O94 1.247 1_565 S
C97 O95 1.258 . S
C98 O100 1.247 . S
C98 O102 1.258 . S
C99 O106 1.247 . S
C99 O107 1.258 . S
O100 C98 1.247 . S
O100 Zn101 2.028 . S
Zn101 O100 2.028 . S
Zn101 O105 2.035 . S
Zn101 O107 2.035 . S
Zn101 O108 2.028 . S
O102 C98 1.258 . S
O102 Zn103 2.035 . S
Zn103 O102 2.035 . S
Zn103 O104 2.028 . S
Zn103 O106 2.028 . S
Zn103 O109 2.035 . S
O104 Zn103 2.028 . S
O104 C110 1.247 . S
O105 Zn101 2.035 . S
O105 C110 1.258 . S
O106 C99 1.247 . S
O106 Zn103 2.028 . S
O107 C99 1.258 . S
O107 Zn101 2.035 . S
O108 Zn101 2.028 . S
O108 C111 1.247 . S
O109 Zn103 2.035 . S
O109 C111 1.258 . S
C110 O104 1.247 . S
C110 O105 1.258 . S
C111 O108 1.247 . S
C111 O109 1.258 . S
C112 O114 1.247 . S
C112 O116 1.258 . S
C113 O120 1.247 1_455 S
C113 O121 1.258 . S
O114 C112 1.247 . S
O114 Zn115 2.028 . S
Zn115 O114 2.028 . S
Zn115 O119 2.035 . S
Zn115 O121 2.035 . S
Zn115 O122 2.028 . S
O116 C112 1.258 . S
O116 Zn117 2.035 1_455 S
Zn117 O116 2.035 1_655 S
Zn117 O118 2.028 1_655 S
Zn117 O120 2.028 . S
Zn117 O123 2.043 1_655 S
O118 Zn117 2.028 1_455 S
O118 C124 1.247 . S
O119 Zn115 2.035 . S
O119 C124 1.258 . S
O120 C113 1.247 1_655 S
O120 Zn117 2.028 . S
O121 C113 1.258 . S
O121 Zn115 2.035 . S
O122 Zn115 2.028 . S
O122 C125 1.247 . S
O123 Zn117 2.043 1_455 S
O123 C125 1.270 . S
C124 O118 1.247 . S
C124 O119 1.258 . S
C125 O122 1.247 . S
C125 O123 1.270 . S
C126 O128 1.247 . S
C126 O130 1.258 . S
C127 O134 1.247 1_545 S
C127 O135 1.258 . S
O128 C126 1.247 . S
O128 Zn129 2.028 . S
Zn129 O128 2.028 . S
Zn129 O133 2.035 . S
Zn129 O135 2.035 . S
Zn129 O136 2.028 . S
O130 C126 1.258 . S
O130 Zn131 2.035 1_545 S
Zn131 O130 2.035 1_565 S
Zn131 O132 2.028 1_565 S
Zn131 O134 2.028 . S
Zn131 O137 2.035 1_565 S
O132 Zn131 2.028 1_545 S
O132 C138 1.247 . S
O133 Zn129 2.035 . S
O133 C138 1.258 . S
O134 C127 1.247 1_565 S
O134 Zn131 2.028 . S
O135 C127 1.258 . S
O135 Zn129 2.035 . S
O136 Zn129 2.028 . S
O136 C139 1.247 . S
O137 Zn131 2.035 1_545 S
O137 C139 1.258 . S
C138 O132 1.247 . S
C138 O133 1.258 . S
C139 O136 1.247 . S
C139 O137 1.258 . S
C140 O142 1.247 . S
C140 O144 1.258 . S
C141 O148 1.247 . S
C141 O149 1.258 . S
O142 C140 1.247 . S
O142 Zn143 2.028 . S
Zn143 O142 2.028 . S
Zn143 O147 2.035 . S
Zn143 O149 2.035 . S
Zn143 O150 2.028 . S
O144 C140 1.258 . S
O144 Zn145 2.035 . S
Zn145 O144 2.035 . S
Zn145 O146 2.028 . S
Zn145 O148 2.028 . S
Zn145 O151 2.035 . S
O146 Zn145 2.028 . S
O146 C152 1.247 . S
O147 Zn143 2.035 . S
O147 C152 1.258 . S
O148 C141 1.247 . S
O148 Zn145 2.028 . S
O149 C141 1.258 . S
O149 Zn143 2.035 . S
O150 Zn143 2.028 . S
O150 C153 1.247 . S
O151 Zn145 2.035 . S
O151 C153 1.258 . S
C152 O146 1.247 . S
C152 O147 1.258 . S
C153 O150 1.247 . S
C153 O151 1.258 . S
C154 O156 1.247 . S
C154 O158 1.258 1_655 S
C155 O162 1.247 . S
C155 O163 1.258 . S
O156 C154 1.247 . S
O156 Zn157 2.028 . S
Zn157 O156 2.028 . S
Zn157 O161 2.035 . S
Zn157 O163 2.035 . S
Zn157 O164 2.028 . S
O158 C154 1.258 1_455 S
O158 Zn159 2.035 . S
Zn159 O158 2.035 . S
Zn159 O160 2.037 1_455 S
Zn159 O162 2.028 1_455 S
Zn159 O165 2.035 1_455 S
O160 Zn159 2.037 1_655 S
O160 C166 1.260 . S
O161 Zn157 2.035 . S
O161 C166 1.258 . S
O162 C155 1.247 . S
O162 Zn159 2.028 1_655 S
O163 C155 1.258 . S
O163 Zn157 2.035 . S
O164 Zn157 2.028 . S
O164 C167 1.247 . S
O165 Zn159 2.035 1_655 S
O165 C167 1.258 . S
C166 O160 1.260 . S
C166 O161 1.258 . S
C167 O164 1.247 . S
C167 O165 1.258 . S
H168 C174 0.930 . S
H169 C178 0.930 . S
H170 C183 0.929 . S
H171 C181 0.929 . S
H172 C176 0.929 . S
H173 C182 0.929 . S
C174 H168 0.930 . S
C174 C175 1.367 1_455 S
C174 C182 1.378 . S
C175 C174 1.367 1_655 S
C175 C183 1.433 . S
C176 H172 0.929 . S
C176 C178 1.378 . S
C176 C180 1.350 1_655 S
C177 C180 1.463 1_655 S
C177 C182 1.350 1_655 S
C177 N185 1.427 . S
C178 H169 0.930 . S
C178 C176 1.378 . S
C178 C179 1.367 1_655 S
C179 C178 1.367 1_455 S
C179 C181 1.433 . S
C180 C176 1.350 1_455 S
C180 C177 1.463 1_455 S
C180 N184 1.427 . S
C181 H171 0.929 . S
C181 C179 1.433 . S
C181 N184 1.384 . S
C182 H173 0.929 . S
C182 C174 1.378 . S
C182 C177 1.350 1_455 S
C183 H170 0.929 . S
C183 C175 1.433 . S
C183 N185 1.384 . S
N184 C180 1.427 . S
N184 C181 1.384 . S
N185 C177 1.427 . S
N185 C183 1.384 . S
H186 C192 0.930 . S
H187 C196 0.930 . S
H188 C201 0.929 . S
H189 C199 0.929 . S
H190 C194 0.929 . S
H191 C200 0.929 . S
C192 H186 0.930 . S
C192 C193 1.367 . S
C192 C200 1.378 . S
C193 C192 1.367 . S
C193 C201 1.433 1_545 S
C194 H190 0.929 . S
C194 C196 1.378 . S
C194 C198 1.350 . S
C195 C198 1.463 1_545 S
C195 C200 1.350 . S
C195 N203 1.427 1_545 S
C196 H187 0.930 . S
C196 C194 1.378 . S
C196 C197 1.367 . S
C197 C196 1.367 . S
C197 C199 1.433 1_565 S
C198 C194 1.350 . S
C198 C195 1.463 1_565 S
C198 N202 1.427 1_565 S
C199 H189 0.929 . S
C199 C197 1.433 1_545 S
C199 N202 1.384 . S
C200 H191 0.929 . S
C200 C192 1.378 . S
C200 C195 1.350 . S
C201 H188 0.929 . S
C201 C193 1.433 1_565 S
C201 N203 1.384 . S
N202 C198 1.427 1_545 S
N202 C199 1.384 . S
N203 C195 1.427 1_565 S
N203 C201 1.384 . S
H204 C210 0.930 . S
H205 C214 0.930 . S
H206 C219 0.929 . S
H207 C217 0.929 . S
H208 C212 0.929 . S
H209 C218 0.929 . S
C210 H204 0.930 . S
C210 C211 1.367 . S
C210 C218 1.378 . S
C211 C210 1.367 . S
C211 C219 1.433 . S
C212 H208 0.929 . S
C212 C214 1.378 . S
C212 C216 1.350 . S
C213 C216 1.463 . S
C213 C218 1.350 . S
C213 N221 1.427 . S
C214 H205 0.930 . S
C214 C212 1.378 . S
C214 C215 1.367 . S
C215 C214 1.367 . S
C215 C217 1.433 . S
C216 C212 1.350 . S
C216 C213 1.463 . S
C216 N220 1.427 . S
C217 H207 0.929 . S
C217 C215 1.433 . S
C217 N220 1.384 . S
C218 H209 0.929 . S
C218 C210 1.378 . S
C218 C213 1.350 . S
C219 H206 0.929 . S
C219 C211 1.433 . S
C219 N221 1.384 . S
N220 C216 1.427 . S
N220 C217 1.384 . S
N221 C213 1.427 . S
N221 C219 1.384 . S
H222 C228 0.930 . S
H223 C232 0.930 . S
H224 C237 0.929 . S
H225 C235 0.929 . S
H226 C230 0.941 . S
H227 C236 0.941 . S
C228 H222 0.930 . S
C228 C229 1.367 . S
C228 C236 1.376 1_655 S
C229 C228 1.367 . S
C229 C237 1.433 . S
C230 H226 0.941 . S
C230 C232 1.376 1_655 S
C230 C234 1.339 1_655 S
C231 C234 1.463 1_655 S
C231 C236 1.339 1_655 S
C231 N239 1.427 . S
C232 H223 0.930 . S
C232 C230 1.376 1_455 S
C232 C233 1.367 . S
C233 C232 1.367 . S
C233 C235 1.433 . S
C234 C230 1.339 1_455 S
C234 C231 1.463 1_455 S
C234 N238 1.427 . S
C235 H225 0.929 . S
C235 C233 1.433 . S
C235 N238 1.384 . S
C236 H227 0.941 . S
C236 C228 1.376 1_455 S
C236 C231 1.339 1_455 S
C237 H224 0.929 . S
C237 C229 1.433 . S
C237 N239 1.384 . S
N238 C234 1.427 . S
N238 C235 1.384 . S
N239 C231 1.427 . S
N239 C237 1.384 . S
H240 C246 0.930 . S
H241 C250 0.930 . S
H242 C255 0.929 . S
H243 C253 0.929 . S
H244 C248 0.929 . S
H245 C254 0.929 . S
C246 H240 0.930 . S
C246 C247 1.367 1_565 S
C246 C254 1.378 . S
C247 C246 1.367 1_545 S
C247 C255 1.433 . S
C248 H244 0.929 . S
C248 C250 1.378 . S
C248 C252 1.336 1_545 S
C249 C252 1.462 1_545 S
C249 C254 1.336 1_545 S
C249 N257 1.444 . S
C250 H241 0.930 . S
C250 C248 1.378 . S
C250 C251 1.367 1_545 S
C251 C250 1.367 1_565 S
C251 C253 1.433 . S
C252 C248 1.336 1_565 S
C252 C249 1.462 1_565 S
C252 N256 1.443 . S
C253 H243 0.929 . S
C253 C251 1.433 . S
C253 N256 1.384 . S
C254 H245 0.929 . S
C254 C246 1.378 . S
C254 C249 1.336 1_565 S
C255 H242 0.929 . S
C255 C247 1.433 . S
C255 N257 1.384 . S
N256 C252 1.443 . S
N256 C253 1.384 . S
N257 C249 1.444 . S
N257 C255 1.384 . S
H258 C264 0.930 . S
H259 C268 0.930 . S
H260 C273 0.929 . S
H261 C271 0.929 . S
H262 C266 0.929 . S
H263 C272 0.929 . S
C264 H258 0.930 . S
C264 C265 1.367 . S
C264 C272 1.378 . S
C265 C264 1.367 . S
C265 C273 1.433 . S
C266 H262 0.929 . S
C266 C268 1.378 . S
C266 C270 1.350 . S
C267 C270 1.463 . S
C267 C272 1.350 . S
C267 N275 1.427 . S
C268 H259 0.930 . S
C268 C266 1.378 . S
C268 C269 1.367 . S
C269 C268 1.367 . S
C269 C271 1.433 . S
C270 C266 1.350 . S
C270 C267 1.463 . S
C270 N274 1.427 . S
C271 H261 0.929 . S
C271 C269 1.433 . S
C271 N274 1.384 . S
C272 H263 0.929 . S
C272 C264 1.378 . S
C272 C267 1.350 . S
C273 H260 0.929 . S
C273 C265 1.433 . S
C273 N275 1.384 . S
N274 C270 1.427 . S
N274 C271 1.384 . S
N275 C267 1.427 . S
N275 C273 1.384 . S
H276 C282 0.930 . S
H277 C286 0.930 . S
H278 C291 0.929 . S
H279 C289 0.929 . S
H280 C284 0.929 . S
H281 C290 0.929 . S
C282 H276 0.930 . S
C282 C283 1.367 . S
C282 C290 1.378 . S
C283 C282 1.367 . S
C283 C291 1.433 . S
C284 H280 0.929 . S
C284 C286 1.378 . S
C284 C288 1.350 . S
C285 C288 1.463 1_554 S
C285 C290 1.350 . S
C285 N293 1.427 . S
C286 H277 0.930 . S
C286 C284 1.378 . S
C286 C287 1.367 . S
C287 C286 1.367 . S
C287 C289 1.433 . S
C288 C284 1.350 . S
C288 C285 1.463 1_556 S
C288 N292 1.427 . S
C289 H279 0.929 . S
C289 C287 1.433 . S
C289 N292 1.384 . S
C290 H281 0.929 . S
C290 C282 1.378 . S
C290 C285 1.350 . S
C291 H278 0.929 . S
C291 C283 1.433 . S
C291 N293 1.384 . S
N292 C288 1.427 . S
N292 C289 1.384 . S
N293 C285 1.427 . S
N293 C291 1.384 . S
H294 C300 0.930 . S
H295 C304 0.930 . S
H296 C309 0.929 . S
H297 C307 0.929 . S
H298 C302 0.929 . S
H299 C308 0.929 . S
C300 H294 0.930 . S
C300 C301 1.367 . S
C300 C308 1.378 . S
C301 C300 1.367 . S
C301 C309 1.433 . S
C302 H298 0.929 . S
C302 C304 1.378 . S
C302 C306 1.350 . S
C303 C306 1.463 . S
C303 C308 1.350 . S
C303 N311 1.427 . S
C304 H295 0.930 . S
C304 C302 1.378 . S
C304 C305 1.367 . S
C305 C304 1.367 . S
C305 C307 1.433 . S
C306 C302 1.350 . S
C306 C303 1.463 . S
C306 N310 1.427 . S
C307 H297 0.929 . S
C307 C305 1.433 . S
C307 N310 1.384 . S
C308 H299 0.929 . S
C308 C300 1.378 . S
C308 C303 1.350 . S
C309 H296 0.929 . S
C309 C301 1.433 . S
C309 N311 1.384 . S
N310 C306 1.427 . S
N310 C307 1.384 . S
N311 C303 1.427 . S
N311 C309 1.384 . S
H312 C318 0.930 . S
H313 C322 0.930 . S
H314 C327 0.929 . S
H315 C325 0.929 . S
H316 C320 0.929 . S
H317 C326 0.929 . S
C318 H312 0.930 . S
C318 C319 1.367 . S
C318 C326 1.378 . S
C319 C318 1.367 . S
C319 C327 1.433 . S
C320 H316 0.929 . S
C320 C322 1.378 . S
C320 C324 1.350 . S
C321 C324 1.463 . S
C321 C326 1.350 . S
C321 N329 1.427 . S
C322 H313 0.930 . S
C322 C320 1.378 . S
C322 C323 1.367 . S
C323 C322 1.367 . S
C323 C325 1.433 . S
C324 C320 1.350 . S
C324 C321 1.463 . S
C324 N328 1.427 . S
C325 H315 0.929 . S
C325 C323 1.433 . S
C325 N328 1.384 . S
C326 H317 0.929 . S
C326 C318 1.378 . S
C326 C321 1.350 . S
C327 H314 0.929 . S
C327 C319 1.433 . S
C327 N329 1.384 . S
N328 C324 1.427 . S
N328 C325 1.384 . S
N329 C321 1.427 . S
N329 C327 1.384 . S
H330 C336 0.930 . S
H331 C340 0.930 . S
H332 C345 0.929 . S
H333 C343 0.929 . S
H334 C338 0.929 . S
H335 C344 0.929 . S
C336 H330 0.930 . S
C336 C337 1.367 . S
C336 C344 1.378 . S
C337 C336 1.367 . S
C337 C345 1.433 . S
C338 H334 0.929 . S
C338 C340 1.378 . S
C338 C342 1.350 . S
C339 C342 1.463 1_554 S
C339 C344 1.350 . S
C339 N347 1.427 . S
C340 H331 0.930 . S
C340 C338 1.378 . S
C340 C341 1.367 . S
C341 C340 1.367 . S
C341 C343 1.433 . S
C342 C338 1.350 . S
C342 C339 1.463 1_556 S
C342 N346 1.427 . S
C343 H333 0.929 . S
C343 C341 1.433 . S
C343 N346 1.384 . S
C344 H335 0.929 . S
C344 C336 1.378 . S
C344 C339 1.350 . S
C345 H332 0.929 . S
C345 C337 1.433 . S
C345 N347 1.384 . S
N346 C342 1.427 . S
N346 C343 1.384 . S
N347 C339 1.427 . S
N347 C345 1.384 . S
H348 C354 0.930 . S
H349 C358 0.930 . S
H350 C363 0.929 . S
H351 C361 0.929 . S
H352 C356 0.929 . S
H353 C362 0.929 . S
C354 H348 0.930 . S
C354 C355 1.367 . S
C354 C362 1.378 . S
C355 C354 1.367 . S
C355 C363 1.433 . S
C356 H352 0.929 . S
C356 C358 1.378 . S
C356 C360 1.350 . S
C357 C360 1.463 . S
C357 C362 1.350 . S
C357 N365 1.427 . S
C358 H349 0.930 . S
C358 C356 1.378 . S
C358 C359 1.367 . S
C359 C358 1.367 . S
C359 C361 1.433 . S
C360 C356 1.350 . S
C360 C357 1.463 . S
C360 N364 1.427 . S
C361 H351 0.929 . S
C361 C359 1.433 . S
C361 N364 1.384 . S
C362 H353 0.929 . S
C362 C354 1.378 . S
C362 C357 1.350 . S
C363 H350 0.929 . S
C363 C355 1.433 . S
C363 N365 1.384 . S
N364 C360 1.427 . S
N364 C361 1.384 . S
N365 C357 1.427 . S
N365 C363 1.384 . S
H366 C372 0.930 . S
H367 C376 0.930 . S
H368 C381 0.929 . S
H369 C379 0.929 . S
H370 C374 0.929 . S
H371 C380 0.929 . S
C372 H366 0.930 . S
C372 C373 1.367 . S
C372 C380 1.378 . S
C373 C372 1.367 . S
C373 C381 1.433 . S
C374 H370 0.929 . S
C374 C376 1.378 . S
C374 C378 1.350 . S
C375 C378 1.463 . S
C375 C380 1.350 . S
C375 N383 1.427 . S
C376 H367 0.930 . S
C376 C374 1.378 . S
C376 C377 1.367 . S
C377 C376 1.367 . S
C377 C379 1.433 . S
C378 C374 1.350 . S
C378 C375 1.463 . S
C378 N382 1.427 . S
C379 H369 0.929 . S
C379 C377 1.433 . S
C379 N382 1.384 . S
C380 H371 0.929 . S
C380 C372 1.378 . S
C380 C375 1.350 . S
C381 H368 0.929 . S
C381 C373 1.433 . S
C381 N383 1.384 . S
N382 C378 1.427 . S
N382 C379 1.384 . S
N383 C375 1.427 . S
N383 C381 1.384 . S
H384 C390 0.930 . S
H385 C394 0.930 . S
H386 C399 0.929 . S
H387 C397 0.929 . S
H388 C392 0.929 . S
H389 C398 0.929 . S
C390 H384 0.930 . S
C390 C391 1.367 . S
C390 C398 1.378 . S
C391 C390 1.367 . S
C391 C399 1.433 1_655 S
C392 H388 0.929 . S
C392 C394 1.378 . S
C392 C396 1.350 . S
C393 C396 1.463 1_655 S
C393 C398 1.350 . S
C393 N401 1.427 1_655 S
C394 H385 0.930 . S
C394 C392 1.378 . S
C394 C395 1.367 . S
C395 C394 1.367 . S
C395 C397 1.433 1_455 S
C396 C392 1.350 . S
C396 C393 1.463 1_455 S
C396 N400 1.427 1_455 S
C397 H387 0.929 . S
C397 C395 1.433 1_655 S
C397 N400 1.384 . S
C398 H389 0.929 . S
C398 C390 1.378 . S
C398 C393 1.350 . S
C399 H386 0.929 . S
C399 C391 1.433 1_455 S
C399 N401 1.384 . S
N400 C396 1.427 1_655 S
N400 C397 1.384 . S
N401 C393 1.427 1_455 S
N401 C399 1.384 . S
H402 C408 0.930 . S
H403 C412 0.930 . S
H404 C417 0.929 . S
H405 C415 0.929 . S
H406 C410 0.929 . S
H407 C416 0.929 . S
C408 H402 0.930 . S
C408 C409 1.367 . S
C408 C416 1.378 . S
C409 C408 1.367 . S
C409 C417 1.433 . S
C410 H406 0.929 . S
C410 C412 1.378 . S
C410 C414 1.350 . S
C411 C414 1.463 1_545 S
C411 C416 1.350 . S
C411 N419 1.427 . S
C412 H403 0.930 . S
C412 C410 1.378 . S
C412 C413 1.367 . S
C413 C412 1.367 . S
C413 C415 1.433 . S
C414 C410 1.350 . S
C414 C411 1.463 1_565 S
C414 N418 1.427 . S
C415 H405 0.929 . S
C415 C413 1.433 . S
C415 N418 1.384 . S
C416 H407 0.929 . S
C416 C408 1.378 . S
C416 C411 1.350 . S
C417 H404 0.929 . S
C417 C409 1.433 . S
C417 N419 1.384 . S
N418 C414 1.427 . S
N418 C415 1.384 . S
N419 C411 1.427 . S
N419 C417 1.384 . S
H420 C426 0.930 . S
H421 C430 0.930 . S
H422 C435 0.929 . S
H423 C433 0.929 . S
H424 C428 0.929 . S
H425 C434 0.929 . S
C426 H420 0.930 . S
C426 C427 1.367 . S
C426 C434 1.378 . S
C427 C426 1.367 . S
C427 C435 1.433 . S
C428 H424 0.929 . S
C428 C430 1.378 . S
C428 C432 1.350 . S
C429 C432 1.463 . S
C429 C434 1.350 . S
C429 N437 1.427 . S
C430 H421 0.930 . S
C430 C428 1.378 . S
C430 C431 1.367 . S
C431 C430 1.367 . S
C431 C433 1.433 . S
C432 C428 1.350 . S
C432 C429 1.463 . S
C432 N436 1.427 . S
C433 H423 0.929 . S
C433 C431 1.433 . S
C433 N436 1.384 . S
C434 H425 0.929 . S
C434 C426 1.378 . S
C434 C429 1.350 . S
C435 H422 0.929 . S
C435 C427 1.433 . S
C435 N437 1.384 . S
N436 C432 1.427 . S
N436 C433 1.384 . S
N437 C429 1.427 . S
N437 C435 1.384 . S
H438 C444 0.930 . S
H439 C448 0.930 . S
H440 C453 0.929 . S
H441 C451 0.929 . S
H442 C446 0.929 . S
H443 C452 0.929 . S
C444 H438 0.930 . S
C444 C445 1.367 . S
C444 C452 1.378 . S
C445 C444 1.367 . S
C445 C453 1.433 1_545 S
C446 H442 0.929 . S
C446 C448 1.378 . S
C446 C450 1.350 . S
C447 C450 1.463 1_545 S
C447 C452 1.350 . S
C447 N455 1.427 1_545 S
C448 H439 0.930 . S
C448 C446 1.378 . S
C448 C449 1.367 . S
C449 C448 1.367 . S
C449 C451 1.433 1_565 S
C450 C446 1.350 . S
C450 C447 1.463 1_565 S
C450 N454 1.427 1_565 S
C451 H441 0.929 . S
C451 C449 1.433 1_545 S
C451 N454 1.384 . S
C452 H443 0.929 . S
C452 C444 1.378 . S
C452 C447 1.350 . S
C453 H440 0.929 . S
C453 C445 1.433 1_565 S
C453 N455 1.384 . S
N454 C450 1.427 1_545 S
N454 C451 1.384 . S
N455 C447 1.427 1_565 S
N455 C453 1.384 . S
H456 C462 0.930 . S
H457 C466 0.930 . S
H458 C471 0.929 . S
H459 C469 0.929 . S
H460 C464 0.929 . S
H461 C470 0.929 . S
C462 H456 0.930 . S
C462 C463 1.367 . S
C462 C470 1.378 . S
C463 C462 1.367 . S
C463 C471 1.433 . S
C464 H460 0.929 . S
C464 C466 1.378 . S
C464 C468 1.350 . S
C465 C468 1.463 . S
C465 C470 1.350 . S
C465 N473 1.427 . S
C466 H457 0.930 . S
C466 C464 1.378 . S
C466 C467 1.367 . S
C467 C466 1.367 . S
C467 C469 1.433 . S
C468 C464 1.350 . S
C468 C465 1.463 . S
C468 N472 1.427 . S
C469 H459 0.929 . S
C469 C467 1.433 . S
C469 N472 1.384 . S
C470 H461 0.929 . S
C470 C462 1.378 . S
C470 C465 1.350 . S
C471 H458 0.929 . S
C471 C463 1.433 . S
C471 N473 1.384 . S
N472 C468 1.427 . S
N472 C469 1.384 . S
N473 C465 1.427 . S
N473 C471 1.384 . S
H474 C480 0.930 . S
H475 C484 0.930 . S
H476 C489 0.929 . S
H477 C487 0.929 . S
H478 C482 0.929 . S
H479 C488 0.929 . S
C480 H474 0.930 . S
C480 C481 1.367 1_655 S
C480 C488 1.378 . S
C481 C480 1.367 1_455 S
C481 C489 1.433 . S
C482 H478 0.929 . S
C482 C484 1.378 . S
C482 C486 1.350 1_455 S
C483 C486 1.463 1_455 S
C483 C488 1.350 1_455 S
C483 N491 1.427 . S
C484 H475 0.930 . S
C484 C482 1.378 . S
C484 C485 1.367 1_455 S
C485 C484 1.367 1_655 S
C485 C487 1.433 . S
C486 C482 1.350 1_655 S
C486 C483 1.463 1_655 S
C486 N490 1.427 . S
C487 H477 0.929 . S
C487 C485 1.433 . S
C487 N490 1.384 . S
C488 H479 0.929 . S
C488 C480 1.378 . S
C488 C483 1.350 1_655 S
C489 H476 0.929 . S
C489 C481 1.433 . S
C489 N491 1.384 . S
N490 C486 1.427 . S
N490 C487 1.384 . S
N491 C483 1.427 . S
N491 C489 1.384 . S
H492 C498 0.930 . S
H493 C502 0.930 . S
H494 C507 0.929 1_655 S
H495 C505 0.929 1_455 S
H496 C500 0.929 . S
H497 C506 0.929 . S
C498 H492 0.930 . S
C498 C499 1.367 . S
C498 C506 1.378 . S
C499 C498 1.367 . S
C499 C507 1.433 . S
C500 H496 0.929 . S
C500 C502 1.378 . S
C500 C504 1.350 . S
C501 C504 1.463 1_445 S
C501 C506 1.350 . S
C501 N509 1.427 1_455 S
C502 H493 0.930 . S
C502 C500 1.378 . S
C502 C503 1.367 . S
C503 C502 1.367 . S
C503 C505 1.433 . S
C504 C500 1.350 . S
C504 C501 1.463 1_665 S
C504 N508 1.427 1_655 S
C505 H495 0.929 1_655 S
C505 C503 1.433 . S
C505 N508 1.384 1_655 S
C506 H497 0.929 . S
C506 C498 1.378 . S
C506 C501 1.350 . S
C507 H494 0.929 1_455 S
C507 C499 1.433 . S
C507 N509 1.384 1_455 S
N508 C504 1.427 1_455 S
N508 C505 1.384 1_455 S
N509 C501 1.427 1_655 S
N509 C507 1.384 1_655 S
H510 C516 0.930 . S
H511 C520 0.930 . S
H512 C525 0.929 . S
H513 C523 0.929 . S
H514 C518 0.929 1_655 S
H515 C524 0.929 1_455 S
C516 H510 0.930 . S
C516 C517 1.367 . S
C516 C524 1.378 . S
C517 C516 1.367 . S
C517 C525 1.433 1_545 S
C518 H514 0.929 1_455 S
C518 C520 1.378 . S
C518 C522 1.350 . S
C519 C522 1.463 1_645 S
C519 C524 1.350 . S
C519 N527 1.427 1_545 S
C520 H511 0.930 . S
C520 C518 1.378 . S
C520 C521 1.367 . S
C521 C520 1.367 . S
C521 C523 1.433 1_565 S
C522 C518 1.350 . S
C522 C519 1.463 1_465 S
C522 N526 1.427 1_565 S
C523 H513 0.929 . S
C523 C521 1.433 1_545 S
C523 N526 1.384 . S
C524 H515 0.929 1_655 S
C524 C516 1.378 . S
C524 C519 1.350 . S
C525 H512 0.929 . S
C525 C517 1.433 1_565 S
C525 N527 1.384 . S
N526 C522 1.427 1_545 S
N526 C523 1.384 . S
N527 C519 1.427 1_565 S
N527 C525 1.384 . S
H528 C534 0.930 . S
H529 C538 0.930 . S
H530 C543 0.929 . S
H531 C541 0.929 . S
H532 C536 0.929 1_545 S
H533 C542 0.929 1_565 S
C534 H528 0.930 . S
C534 C535 1.367 . S
C534 C542 1.378 . S
C535 C534 1.367 . S
C535 C543 1.433 . S
C536 H532 0.929 1_565 S
C536 C538 1.378 . S
C536 C540 1.350 . S
C537 C540 1.463 1_445 S
C537 C542 1.350 . S
C537 N545 1.427 . S
C538 H529 0.930 . S
C538 C536 1.378 . S
C538 C539 1.367 . S
C539 C538 1.367 . S
C539 C541 1.433 . S
C540 C536 1.350 . S
C540 C537 1.463 1_665 S
C540 N544 1.427 . S
C541 H531 0.929 . S
C541 C539 1.433 . S
C541 N544 1.384 . S
C542 H533 0.929 1_545 S
C542 C534 1.378 . S
C542 C537 1.350 . S
C543 H530 0.929 . S
C543 C535 1.433 . S
C543 N545 1.384 . S
N544 C540 1.427 . S
N544 C541 1.384 . S
N545 C537 1.427 . S
N545 C543 1.384 . S
H546 C552 0.930 1_545 S
H547 C556 0.930 1_565 S
H548 C561 0.929 . S
H549 C559 0.929 . S
H550 C554 0.929 . S
H551 C560 0.929 . S
C552 H546 0.930 1_565 S
C552 C553 1.367 . S
C552 C560 1.378 1_565 S
C553 C552 1.367 . S
C553 C561 1.433 . S
C554 H550 0.929 . S
C554 C556 1.378 1_565 S
C554 C558 1.350 1_565 S
C555 C558 1.463 1_665 S
C555 C560 1.350 1_565 S
C555 N563 1.427 . S
C556 H547 0.930 1_545 S
C556 C554 1.378 1_545 S
C556 C557 1.367 . S
C557 C556 1.367 . S
C557 C559 1.433 . S
C558 C554 1.350 1_545 S
C558 C555 1.463 1_445 S
C558 N562 1.427 . S
C559 H549 0.929 . S
C559 C557 1.433 . S
C559 N562 1.384 . S
C560 H551 0.929 . S
C560 C552 1.378 1_545 S
C560 C555 1.350 1_545 S
C561 H548 0.929 . S
C561 C553 1.433 . S
C561 N563 1.384 . S
N562 C558 1.427 . S
N562 C559 1.384 . S
N563 C555 1.427 . S
N563 C561 1.384 . S
H564 C570 0.930 . S
H565 C574 0.930 . S
H566 C579 0.929 . S
H567 C577 0.929 . S
H568 C572 0.929 1_655 S
H569 C578 0.929 1_455 S
C570 H564 0.930 . S
C570 C571 1.367 . S
C570 C578 1.378 . S
C571 C570 1.367 . S
C571 C579 1.433 . S
C572 H568 0.929 1_455 S
C572 C574 1.378 . S
C572 C576 1.350 . S
C573 C576 1.463 1_665 S
C573 C578 1.350 . S
C573 N581 1.427 . S
C574 H565 0.930 . S
C574 C572 1.378 . S
C574 C575 1.367 . S
C575 C574 1.367 . S
C575 C577 1.433 . S
C576 C572 1.350 . S
C576 C573 1.463 1_445 S
C576 N580 1.427 . S
C577 H567 0.929 . S
C577 C575 1.433 . S
C577 N580 1.384 . S
C578 H569 0.929 1_655 S
C578 C570 1.378 . S
C578 C573 1.350 . S
C579 H566 0.929 . S
C579 C571 1.433 . S
C579 N581 1.384 . S
N580 C576 1.427 . S
N580 C577 1.384 . S
N581 C573 1.427 . S
N581 C579 1.384 . S
H582 C588 0.930 . S
H583 C592 0.930 . S
H584 C597 0.929 . S
H585 C595 0.929 . S
H586 C590 0.929 . S
H587 C596 0.929 . S
C588 H582 0.930 . S
C588 C589 1.367 1_655 S
C588 C596 1.378 . S
C589 C588 1.367 1_455 S
C589 C597 1.433 . S
C590 H586 0.929 . S
C590 C592 1.378 . S
C590 C594 1.350 1_455 S
C591 C594 1.463 1_465 S
C591 C596 1.350 1_455 S
C591 N599 1.427 . S
C592 H583 0.930 . S
C592 C590 1.378 . S
C592 C593 1.367 1_455 S
C593 C592 1.367 1_655 S
C593 C595 1.433 . S
C594 C590 1.350 1_655 S
C594 C591 1.463 1_645 S
C594 N598 1.427 . S
C595 H585 0.929 . S
C595 C593 1.433 . S
C595 N598 1.384 . S
C596 H587 0.929 . S
C596 C588 1.378 . S
C596 C591 1.350 1_655 S
C597 H584 0.929 . S
C597 C589 1.433 . S
C597 N599 1.384 . S
N598 C594 1.427 . S
N598 C595 1.384 . S
N599 C591 1.427 . S
N599 C597 1.384 . S
C175 C154 1.569 . S
C179 C0 1.563 . S
C193 C15 1.565 . S
C197 C97 1.563 . S
C211 C28 1.563 . S
C215 C99 1.565 . S
C229 C55 1.569 . S
C233 C113 1.564 . S
C247 C127 1.567 . S
C251 C68 1.568 . S
C265 C71 1.563 . S
C269 C140 1.565 . S
C283 C1 1.574 . S
C287 C141 1.575 . S
C301 C14 1.571 . S
C305 C155 1.571 . S
C319 C29 1.573 . S
C323 C96 1.571 . S
C337 C54 1.571 . S
C341 C98 1.572 . S
C355 C112 1.572 . S
C359 C69 1.571 . S
C373 C126 1.574 . S
C377 C70 1.575 . S
C391 C42 1.595 . S
C395 C13 1.595 . S
C409 C26 1.593 . S
C413 C57 1.591 . S
C427 C82 1.595 . S
C431 C41 1.593 . S
C445 C138 1.594 . S
C449 C84 1.595 . S
C463 C153 1.595 . S
C467 C110 1.591 . S
C481 C124 1.588 . S
C485 C167 1.591 . S
C499 C12 1.563 . S
C503 C43 1.562 . S
C517 C27 1.564 . S
C521 C56 1.561 . S
C535 C83 1.565 . S
C539 C40 1.562 . S
C553 C85 1.558 . S
C557 C139 1.560 . S
C571 C111 1.565 . S
C575 C152 1.562 . S
C589 C125 1.558 . S
C593 C166 1.555 . S
