# Generated by pormake.
# Topology whw, (6)-cn, num edge types: 1
# Building blocks:
#     Node 0, Type 0, BuildingBlock: CUWYAW_clean_sbu_0, # of connection points: 6
#     Node 1, Type 0, BuildingBlock: CUWYAW_clean_sbu_0, # of connection points: 6
#     Node 2, Type 0, BuildingBlock: CUWYAW_clean_sbu_0, # of connection points: 6
#     Node 3, Type 0, BuildingBlock: CUWYAW_clean_sbu_0, # of connection points: 6
#     Node 4, Type 0, BuildingBlock: CUWYAW_clean_sbu_0, # of connection points: 6
#     Node 5, Type 0, BuildingBlock: CUWYAW_clean_sbu_0, # of connection points: 6
#     Node 6, Type 0, BuildingBlock: CUWYAW_clean_sbu_0, # of connection points: 6
#     Node 7, Type 0, BuildingBlock: CUWYAW_clean_sbu_0, # of connection points: 6
#     Node 8, Type 0, BuildingBlock: CUWYAW_clean_sbu_0, # of connection points: 6
#     Node 9, Type 0, BuildingBlock: CUWYAW_clean_sbu_0, # of connection points: 6
#     Node 10, Type 0, BuildingBlock: CUWYAW_clean_sbu_0, # of connection points: 6
#     Node 11, Type 0, BuildingBlock: CUWYAW_clean_sbu_0, # of connection points: 6
#     Node 12, Type 0, BuildingBlock: CUWYAW_clean_sbu_0, # of connection points: 6
#     Node 13, Type 0, BuildingBlock: CUWYAW_clean_sbu_0, # of connection points: 6
#     Node 14, Type 0, BuildingBlock: CUWYAW_clean_sbu_0, # of connection points: 6
#     Node 15, Type 0, BuildingBlock: CUWYAW_clean_sbu_0, # of connection points: 6
#     Edge 16, Type (0, 0), BuildingBlock: CIFDUS_clean_linker_0, # of connection points: 2
#     Edge 17, Type (0, 0), BuildingBlock: CIFDUS_clean_linker_0, # of connection points: 2
#     Edge 18, Type (0, 0), BuildingBlock: CIFDUS_clean_linker_0, # of connection points: 2
#     Edge 19, Type (0, 0), BuildingBlock: CIFDUS_clean_linker_0, # of connection points: 2
#     Edge 20, Type (0, 0), BuildingBlock: CIFDUS_clean_linker_0, # of connection points: 2
#     Edge 21, Type (0, 0), BuildingBlock: CIFDUS_clean_linker_0, # of connection points: 2
#     Edge 22, Type (0, 0), BuildingBlock: CIFDUS_clean_linker_0, # of connection points: 2
#     Edge 23, Type (0, 0), BuildingBlock: CIFDUS_clean_linker_0, # of connection points: 2
#     Edge 24, Type (0, 0), BuildingBlock: CIFDUS_clean_linker_0, # of connection points: 2
#     Edge 25, Type (0, 0), BuildingBlock: CIFDUS_clean_linker_0, # of connection points: 2
#     Edge 26, Type (0, 0), BuildingBlock: CIFDUS_clean_linker_0, # of connection points: 2
#     Edge 27, Type (0, 0), BuildingBlock: CIFDUS_clean_linker_0, # of connection points: 2
#     Edge 28, Type (0, 0), BuildingBlock: CIFDUS_clean_linker_0, # of connection points: 2
#     Edge 29, Type (0, 0), BuildingBlock: CIFDUS_clean_linker_0, # of connection points: 2
#     Edge 30, Type (0, 0), BuildingBlock: CIFDUS_clean_linker_0, # of connection points: 2
#     Edge 31, Type (0, 0), BuildingBlock: CIFDUS_clean_linker_0, # of connection points: 2
#     Edge 32, Type (0, 0), BuildingBlock: CIFDUS_clean_linker_0, # of connection points: 2
#     Edge 33, Type (0, 0), BuildingBlock: CIFDUS_clean_linker_0, # of connection points: 2
#     Edge 34, Type (0, 0), BuildingBlock: CIFDUS_clean_linker_0, # of connection points: 2
#     Edge 35, Type (0, 0), BuildingBlock: CIFDUS_clean_linker_0, # of connection points: 2
#     Edge 36, Type (0, 0), BuildingBlock: CIFDUS_clean_linker_0, # of connection points: 2
#     Edge 37, Type (0, 0), BuildingBlock: CIFDUS_clean_linker_0, # of connection points: 2
#     Edge 38, Type (0, 0), BuildingBlock: CIFDUS_clean_linker_0, # of connection points: 2
#     Edge 39, Type (0, 0), BuildingBlock: CIFDUS_clean_linker_0, # of connection points: 2
#     Edge 40, Type (0, 0), BuildingBlock: CIFDUS_clean_linker_0, # of connection points: 2
#     Edge 41, Type (0, 0), BuildingBlock: CIFDUS_clean_linker_0, # of connection points: 2
#     Edge 42, Type (0, 0), BuildingBlock: CIFDUS_clean_linker_0, # of connection points: 2
#     Edge 43, Type (0, 0), BuildingBlock: CIFDUS_clean_linker_0, # of connection points: 2
#     Edge 44, Type (0, 0), BuildingBlock: CIFDUS_clean_linker_0, # of connection points: 2
#     Edge 45, Type (0, 0), BuildingBlock: CIFDUS_clean_linker_0, # of connection points: 2
#     Edge 46, Type (0, 0), BuildingBlock: CIFDUS_clean_linker_0, # of connection points: 2
#     Edge 47, Type (0, 0), BuildingBlock: CIFDUS_clean_linker_0, # of connection points: 2
#     Edge 48, Type (0, 0), BuildingBlock: CIFDUS_clean_linker_0, # of connection points: 2
#     Edge 49, Type (0, 0), BuildingBlock: CIFDUS_clean_linker_0, # of connection points: 2
#     Edge 50, Type (0, 0), BuildingBlock: CIFDUS_clean_linker_0, # of connection points: 2
#     Edge 51, Type (0, 0), BuildingBlock: CIFDUS_clean_linker_0, # of connection points: 2
#     Edge 52, Type (0, 0), BuildingBlock: CIFDUS_clean_linker_0, # of connection points: 2
#     Edge 53, Type (0, 0), BuildingBlock: CIFDUS_clean_linker_0, # of connection points: 2
#     Edge 54, Type (0, 0), BuildingBlock: CIFDUS_clean_linker_0, # of connection points: 2
#     Edge 55, Type (0, 0), BuildingBlock: CIFDUS_clean_linker_0, # of connection points: 2
#     Edge 56, Type (0, 0), BuildingBlock: CIFDUS_clean_linker_0, # of connection points: 2
#     Edge 57, Type (0, 0), BuildingBlock: CIFDUS_clean_linker_0, # of connection points: 2
#     Edge 58, Type (0, 0), BuildingBlock: CIFDUS_clean_linker_0, # of connection points: 2
#     Edge 59, Type (0, 0), BuildingBlock: CIFDUS_clean_linker_0, # of connection points: 2
#     Edge 60, Type (0, 0), BuildingBlock: CIFDUS_clean_linker_0, # of connection points: 2
#     Edge 61, Type (0, 0), BuildingBlock: CIFDUS_clean_linker_0, # of connection points: 2
#     Edge 62, Type (0, 0), BuildingBlock: CIFDUS_clean_linker_0, # of connection points: 2
#     Edge 63, Type (0, 0), BuildingBlock: CIFDUS_clean_linker_0, # of connection points: 2
# Relax obj value: 0.516
# Max RMSD: 0.274
# Mean RMSD: 0.237
data_MOF--net-whw--node1-CUWYAW_clean_sbu_0--edge1-CIFDUS_clean_linker_0
_symmetry_space_group_name_H-M    P1
_symmetry_Int_Tables_number       1
_symmetry_cell_setting            triclinic
loop_
_symmetry_equiv_pos_as_xyz
'x, y, z'
_cell_length_a     40.904403
_cell_length_b     40.662878
_cell_length_c     29.769413
_cell_angle_alpha  98.185046
_cell_angle_beta   83.412133
_cell_angle_gamma 91.895235
loop_
_atom_site_label
_atom_site_type_symbol
_atom_site_fract_x
_atom_site_fract_y
_atom_site_fract_z
_atom_type_partial_charge
C0 C 0.9156 0.1331 0.22053 0.0
Eu1 Eu 0.97281 0.14257 0.25083 0.0
C2 C 0.90456 0.11867 0.17688 0.0
C3 C 0.87304 0.10417 0.17541 0.0
C4 C 0.86335 0.08845 0.13398 0.0
C5 C 0.8853 0.08688 0.09388 0.0
C6 C 0.91666 0.10189 0.09562 0.0
C7 C 0.92625 0.11749 0.13676 0.0
C8 C 0.00126 0.19897 0.2908 0.0
C9 C 0.03312 0.15905 0.17127 0.0
C10 C 0.09958 0.12928 0.29638 0.0
Eu11 Eu 0.04271 0.13398 0.2669 0.0
C12 C 0.11167 0.13138 0.34115 0.0
C13 C 0.14017 0.11448 0.34553 0.0
C14 C 0.15221 0.11664 0.38794 0.0
C15 C 0.13584 0.13576 0.42655 0.0
C16 C 0.1065 0.1516 0.42216 0.0
C17 C 0.09449 0.14935 0.37983 0.0
C18 C 0.01789 0.08175 0.21409 0.0
C19 C 0.98395 0.14072 0.35506 0.0
O20 O 0.92868 0.112 0.24234 0.0
O21 O 0.93237 0.16111 0.22058 0.0
O22 O 0.97002 0.19188 0.29822 0.0
O23 O 0.01421 0.17691 0.26083 0.0
O24 O 0.00157 0.15035 0.18098 0.0
O25 O 0.05424 0.15809 0.20182 0.0
O26 O 0.08905 0.15688 0.28546 0.0
O27 O 0.08032 0.10373 0.28602 0.0
O28 O 0.0475 0.09349 0.2078 0.0
O29 O 0.00223 0.09721 0.24983 0.0
O30 O 0.01579 0.13952 0.34001 0.0
O31 O 0.96147 0.13942 0.32637 0.0
H32 H 0.85615 0.10467 0.20631 0.0
H33 H 0.83904 0.07711 0.13337 0.0
H34 H 0.93385 0.10164 0.06504 0.0
H35 H 0.95076 0.1283 0.13727 0.0
H36 H 0.15337 0.10002 0.31602 0.0
H37 H 0.1747 0.10398 0.39031 0.0
H38 H 0.09358 0.16705 0.45095 0.0
H39 H 0.07221 0.16227 0.37716 0.0
C40 C 0.14172 0.6135 0.43119 0.0
Eu41 Eu 0.13667 0.67219 0.47895 0.0
C42 C 0.15729 0.60209 0.38529 0.0
C43 C 0.15876 0.56818 0.36828 0.0
C44 C 0.17364 0.55786 0.32403 0.0
C45 C 0.18734 0.58144 0.29663 0.0
C46 C 0.1865 0.61536 0.3147 0.0
C47 C 0.17159 0.62552 0.35858 0.0
C48 C 0.08355 0.70249 0.53008 0.0
C49 C 0.12115 0.73203 0.419 0.0
C50 C 0.16095 0.79991 0.56354 0.0
Eu51 Eu 0.15095 0.74252 0.51525 0.0
C52 C 0.15861 0.81303 0.61248 0.0
C53 C 0.17638 0.84186 0.62711 0.0
C54 C 0.17378 0.85509 0.67339 0.0
C55 C 0.15335 0.83966 0.70591 0.0
C56 C 0.13643 0.81007 0.69114 0.0
C57 C 0.13905 0.79689 0.64486 0.0
C58 C 0.19847 0.7133 0.45245 0.0
C59 C 0.14289 0.6852 0.58524 0.0
O60 O 0.16233 0.62553 0.46009 0.0
O61 O 0.11592 0.63216 0.43346 0.0
O62 O 0.0898 0.67107 0.5275 0.0
O63 O 0.10515 0.71512 0.50379 0.0
O64 O 0.12828 0.70012 0.41843 0.0
O65 O 0.12477 0.75389 0.4558 0.0
O66 O 0.13319 0.7913 0.54671 0.0
O67 O 0.1842 0.77842 0.54893 0.0
O68 O 0.18879 0.74342 0.45401 0.0
O69 O 0.18376 0.70007 0.48532 0.0
O70 O 0.14483 0.71705 0.58 0.0
O71 O 0.14246 0.66185 0.54984 0.0
H72 H 0.14806 0.54982 0.38892 0.0
H73 H 0.17391 0.53161 0.31094 0.0
H74 H 0.19602 0.63429 0.29426 0.0
H75 H 0.17062 0.65177 0.37146 0.0
H76 H 0.19192 0.85442 0.60263 0.0
H77 H 0.18737 0.8777 0.68363 0.0
H78 H 0.12008 0.7978 0.71504 0.0
H79 H 0.12525 0.77448 0.6343 0.0
C80 C 0.64301 0.87502 0.52742 0.0
Eu81 Eu 0.58745 0.85891 0.57029 0.0
C82 C 0.64966 0.89602 0.49115 0.0
C83 C 0.67816 0.91605 0.48854 0.0
C84 C 0.68412 0.9363 0.45407 0.0
C85 C 0.6618 0.93644 0.42138 0.0
C86 C 0.6319 0.9184 0.42702 0.0
C87 C 0.62593 0.89852 0.46152 0.0
C88 C 0.55934 0.80614 0.60482 0.0
C89 C 0.52599 0.83834 0.5053 0.0
C90 C 0.45851 0.87674 0.65672 0.0
Eu91 Eu 0.5163 0.86983 0.61038 0.0
C92 C 0.4441 0.87453 0.70396 0.0
C93 C 0.44604 0.90176 0.73844 0.0
C94 C 0.43349 0.89918 0.78337 0.0
C95 C 0.41864 0.86939 0.79467 0.0
C96 C 0.41592 0.84243 0.76002 0.0
C97 C 0.4284 0.84504 0.71504 0.0
C98 C 0.54649 0.91937 0.56813 0.0
C99 C 0.57363 0.86552 0.68021 0.0
O100 O 0.63065 0.89121 0.5664 0.0
O101 O 0.62802 0.84632 0.51689 0.0
O102 O 0.59103 0.81211 0.60266 0.0
O103 O 0.54585 0.82582 0.58397 0.0
O104 O 0.55807 0.84585 0.5068 0.0
O105 O 0.50501 0.8427 0.54274 0.0
O106 O 0.46831 0.84892 0.63179 0.0
O107 O 0.47898 0.9016 0.65081 0.0
O108 O 0.51663 0.90926 0.56331 0.0
O109 O 0.55846 0.90363 0.59557 0.0
O110 O 0.54188 0.86595 0.67439 0.0
O111 O 0.59673 0.86543 0.64511 0.0
H112 H 0.69609 0.91551 0.51252 0.0
H113 H 0.70703 0.95039 0.45154 0.0
H114 H 0.61394 0.91745 0.40284 0.0
H115 H 0.60309 0.88434 0.46417 0.0
H116 H 0.45768 0.92498 0.73097 0.0
H117 H 0.43624 0.92023 0.80946 0.0
H118 H 0.4042 0.8193 0.76772 0.0
H119 H 0.42603 0.82384 0.68903 0.0
C120 C 0.43259 0.36701 0.82822 0.0
Eu121 Eu 0.44059 0.30891 0.85261 0.0
C122 C 0.40559 0.38249 0.811 0.0
C123 C 0.4122 0.40943 0.78692 0.0
C124 C 0.38772 0.42106 0.76457 0.0
C125 C 0.35631 0.40552 0.76542 0.0
C126 C 0.34895 0.3806 0.79339 0.0
C127 C 0.37349 0.36924 0.81611 0.0
C128 C 0.49008 0.28687 0.89141 0.0
C129 C 0.46862 0.24713 0.77224 0.0
C130 C 0.41728 0.1805 0.89699 0.0
Eu131 Eu 0.42913 0.23781 0.86847 0.0
C132 C 0.41612 0.1701 0.94223 0.0
C133 C 0.3974 0.14212 0.95261 0.0
C134 C 0.39282 0.1349 0.99752 0.0
C135 C 0.40662 0.15591 1.03238 0.0
C136 C 0.42614 0.18329 1.0214 0.0
C137 C 0.43076 0.19033 0.97677 0.0
C138 C 0.38335 0.26329 0.82428 0.0
C139 C 0.42381 0.29591 0.95767 0.0
O140 O 0.42661 0.3606 0.87001 0.0
O141 O 0.4471 0.34246 0.80085 0.0
O142 O 0.48451 0.31817 0.89259 0.0
O143 O 0.47351 0.2699 0.86302 0.0
O144 O 0.45857 0.27865 0.7814 0.0
O145 O 0.46349 0.22696 0.80358 0.0
O146 O 0.44622 0.18937 0.87852 0.0
O147 O 0.3943 0.20117 0.89326 0.0
O148 O 0.39626 0.23438 0.81184 0.0
O149 O 0.3953 0.27798 0.85908 0.0
O150 O 0.42739 0.26408 0.94166 0.0
O151 O 0.4236 0.31825 0.92937 0.0
H152 H 0.43678 0.42021 0.78315 0.0
H153 H 0.39458 0.43999 0.7429 0.0
H154 H 0.3251 0.3682 0.79469 0.0
H155 H 0.36799 0.34897 0.83575 0.0
H156 H 0.38562 0.12646 0.92634 0.0
H157 H 0.37774 0.11359 1.00523 0.0
H158 H 0.43765 0.1995 1.04744 0.0
H159 H 0.4451 0.21208 0.96955 0.0
C160 C 0.96972 0.89213 0.84706 0.0
Eu161 Eu 0.98161 0.90019 0.9323 0.0
C162 C 0.96179 0.8846 0.79846 0.0
C163 C 0.97428 0.90426 0.76492 0.0
C164 C 0.96933 0.89483 0.71862 0.0
C165 C 0.95168 0.8654 0.70424 0.0
C166 C 0.93881 0.84613 0.73817 0.0
C167 C 0.94385 0.85548 0.78424 0.0
C168 C 0.9844 0.94699 1.00613 0.0
C169 C 0.05826 0.88621 0.94137 0.0
C170 C 0.02085 0.8558 0.09769 0.0
Eu171 Eu 0.00061 0.87379 1.02417 0.0
C172 C 0.03306 0.84454 0.13907 0.0
C173 C 0.0537 0.81685 0.13464 0.0
C174 C 0.06354 0.8049 0.1733 0.0
C175 C 0.05303 0.82005 0.21812 0.0
C176 C 0.03214 0.84769 0.22233 0.0
C177 C 0.02249 0.85974 0.18365 0.0
C178 C 0.97566 0.8307 0.95747 0.0
C179 C 0.92586 0.89356 1.0157 0.0
O180 O 0.95868 0.87223 0.87661 0.0
O181 O -0.01404 0.91856 0.86462 0.0
O182 O 0.96677 0.94978 0.9728 0.0
O183 O 0.00277 0.92185 0.99621 0.0
O184 O 0.0363 0.89705 0.91786 0.0
O185 O 0.05094 0.87668 0.9824 0.0
O186 O 0.00753 0.88483 0.09774 0.0
O187 O 0.02433 0.83766 1.05746 0.0
O188 O 0.9691 0.82834 1.00068 0.0
O189 O -0.00455 0.85425 0.95337 0.0
O190 O 0.94888 0.89227 1.04342 0.0
O191 O 0.93192 0.89113 0.97074 0.0
H192 H -0.01139 0.92655 0.77424 0.0
H193 H 0.98012 0.91032 0.69392 0.0
H194 H 0.92457 0.82371 0.7293 0.0
H195 H 0.93393 0.83944 0.80876 0.0
H196 H 0.06226 0.80418 0.10106 0.0
H197 H 0.07981 0.78391 0.1678 0.0
H198 H 0.02265 0.85993 0.25574 0.0
H199 H 0.00613 0.88068 0.18879 0.0
C200 C 0.41792 0.63277 0.24035 0.0
Eu201 Eu 0.41338 0.69197 0.219 0.0
C202 C 0.40081 0.61766 0.27831 0.0
C203 C 0.38468 0.63815 0.31544 0.0
C204 C 0.36673 0.62432 0.35087 0.0
C205 C 0.3645 0.58962 0.34981 0.0
C206 C 0.37976 0.56908 0.31159 0.0
C207 C 0.39776 0.58307 0.27594 0.0
C208 C 0.45483 0.73576 0.1803 0.0
C209 C 0.42181 0.75398 0.30216 0.0
C210 C 0.36456 0.8109 0.1877 0.0
Eu211 Eu 0.38338 0.75733 0.21379 0.0
C212 C 0.37307 0.82166 0.14282 0.0
C213 C 0.34904 0.83499 0.12104 0.0
C214 C 0.35547 0.8392 0.07502 0.0
C215 C 0.38594 0.82986 1.05032 0.0
C216 C 0.41036 0.81784 0.07289 0.0
C217 C 0.40396 0.81365 0.11862 0.0
C218 C 0.34495 0.71831 0.26559 0.0
C219 C 0.40372 0.70401 0.11808 0.0
O220 O 0.39834 0.64002 0.21159 0.0
O221 O 0.43895 0.65688 0.25107 0.0
O222 O 0.45865 0.70373 0.17042 0.0
O223 O 0.43305 0.7416 0.21295 0.0
O224 O 0.42289 0.72122 0.2891 0.0
O225 O 0.40952 0.77399 0.27696 0.0
O226 O 0.38905 0.81056 0.21241 0.0
O227 O 0.34617 0.78388 0.18711 0.0
O228 O 0.3476 0.75025 0.27456 0.0
O229 O 0.36094 0.7082 0.22721 0.0
O230 O 0.39425 0.73428 0.13741 0.0
O231 O 0.40982 0.68136 0.14339 0.0
H232 H 0.38631 0.66493 0.31722 0.0
H233 H 0.35596 0.64095 0.38011 0.0
H234 H 0.3784 0.54229 0.3098 0.0
H235 H 0.40941 0.56698 0.24677 0.0
H236 H 0.3249 0.84074 0.13899 0.0
H237 H 0.33615 0.84836 1.05831 0.0
H238 H 0.43424 0.81097 1.05492 0.0
H239 H 0.42278 0.8028 0.13446 0.0
C240 C 0.65713 0.14887 0.45152 0.0
Eu241 Eu 0.59737 0.14648 0.42935 0.0
C242 C 0.67433 0.12871 0.47833 0.0
C243 C 0.67073 0.09387 0.47244 0.0
C244 C 0.68401 0.07524 0.5016 0.0
C245 C 0.7006 0.09114 0.5377 0.0
C246 C 0.70551 0.1259 0.54193 0.0
C247 C 0.6926 0.14444 0.51238 0.0
C248 C 0.56196 0.19061 0.39702 0.0
C249 C 0.53773 0.16613 0.51439 0.0
C250 C 0.47269 0.10076 0.39357 0.0
Eu251 Eu 0.52927 0.12272 0.41838 0.0
C252 C 0.45535 0.10411 0.35419 0.0
C253 C 0.43354 0.07899 0.3382 0.0
C254 C 0.41965 0.08051 0.29777 0.0
C255 C 0.42734 0.10733 0.27322 0.0
C256 C 0.44871 0.13274 0.29002 0.0
C257 C 0.46272 0.13105 0.33002 0.0
C258 C 0.56547 0.08218 0.4587 0.0
C259 C 0.58039 0.13105 0.32632 0.0
O260 O 0.64875 0.13345 0.41293 0.0
O261 O 0.63377 0.16778 0.47416 0.0
O262 O 0.59388 0.19036 0.38965 0.0
O263 O 0.55206 0.17208 0.426 0.0
O264 O 0.56987 0.16018 0.50312 0.0
O265 O 0.51669 0.15713 0.48414 0.0
O266 O 0.47622 0.12798 0.42199 0.0
O267 O 0.49968 0.08359 0.38401 0.0
O268 O 0.5357 0.09118 0.47297 0.0
O269 O 0.5752 0.0955 0.42362 0.0
O270 O 0.54936 0.12983 0.34489 0.0
O271 O 0.60464 0.13216 0.35222 0.0
H272 H 0.65663 0.08105 0.44638 0.0
H273 H 0.68003 0.04857 0.49707 0.0
H274 H 0.71748 0.13921 0.56986 0.0
H275 H 0.69555 0.17125 0.51749 0.0
H276 H 0.42795 0.05783 0.35632 0.0
H277 H 0.40333 0.0606 0.28536 0.0
H278 H 0.45569 0.15331 0.27124 0.0
H279 H 0.48009 0.15029 0.34129 0.0
C280 C 0.18602 0.34664 0.56313 0.0
Eu281 Eu 0.18941 0.32042 0.63876 0.0
C282 C 0.17126 0.34513 0.51844 0.0
C283 C 0.13908 0.3561 0.51714 0.0
C284 C 0.12681 0.35874 0.47537 0.0
C285 C 0.14616 0.3506 0.43292 0.0
C286 C 0.17829 0.33925 0.43429 0.0
C287 C 0.19059 0.33667 0.47618 0.0
C288 C 0.23895 0.29822 0.67909 0.0
C289 C 0.17219 0.24315 0.64477 0.0
C290 C 0.152 0.27276 0.81404 0.0
Eu291 Eu 0.16764 0.2975 0.73692 0.0
C292 C 0.14114 0.25921 0.85849 0.0
C293 C 0.10873 0.26379 0.88027 0.0
C294 C 0.09801 0.25068 0.92111 0.0
C295 C 0.11915 0.23253 0.94238 0.0
C296 C 0.1516 0.22784 0.92021 0.0
C297 C 0.16234 0.24091 0.87925 0.0
C298 C 0.12108 0.32032 0.69052 0.0
C299 C 0.19106 0.37335 0.73277 0.0
O300 O 0.16708 0.35489 0.60148 0.0
O301 O 0.20842 0.32523 0.56742 0.0
O302 O 0.2394 0.29764 0.63512 0.0
O303 O 0.21447 0.31425 0.6999 0.0
O304 O 0.17363 0.26752 0.61945 0.0
O305 O 0.17199 0.24815 0.68979 0.0
O306 O 0.18132 0.26915 0.7908 0.0
O307 O 0.13215 0.29007 0.79555 0.0
O308 O 0.12154 0.32678 0.73439 0.0
O309 O 0.14462 0.30187 0.67453 0.0
O310 O 0.18792 0.34859 0.75763 0.0
O311 O 0.1901 0.36918 0.68787 0.0
H312 H 0.12343 0.36353 0.5486 0.0
H313 H 0.10223 0.36816 0.4767 0.0
H314 H 0.19411 0.33225 0.40289 0.0
H315 H 0.21564 0.32863 0.47547 0.0
H316 H 0.09137 0.27754 0.86565 0.0
H317 H 0.07303 0.25515 0.93621 0.0
H318 H 0.1689 0.2135 0.93397 0.0
H319 H 0.18733 0.23643 0.86366 0.0
C320 C 0.91834 0.12332 0.74463 0.0
Eu321 Eu 0.92511 0.18296 0.723 0.0
C322 C 0.89679 0.10915 0.77973 0.0
C323 C 0.89308 0.07467 0.77787 0.0
C324 C 0.8729 0.06135 0.81215 0.0
C325 C 0.85638 0.08247 0.84871 0.0
C326 C 0.85816 0.11703 0.84806 0.0
C327 C 0.87829 0.13023 0.81388 0.0
C328 C 0.973 0.21524 0.67586 0.0
C329 C 0.94845 0.24483 0.79871 0.0
C330 C 0.89533 0.30851 0.68773 0.0
Eu331 Eu 0.90748 0.25262 0.71443 0.0
C332 C 0.90355 0.31877 0.64253 0.0
C333 C 0.8846 0.34231 0.62763 0.0
C334 C 0.89006 0.34864 0.58236 0.0
C335 C 0.91421 0.3311 0.55153 0.0
C336 C 0.93365 0.30821 0.56704 0.0
C337 C 0.92841 0.30217 0.61215 0.0
C338 C 0.86405 0.22223 0.77208 0.0
C339 C 0.91617 0.19615 0.62125 0.0
O340 O 0.90251 0.13395 0.71401 0.0
O341 O 0.94134 0.14425 0.75879 0.0
O342 O 0.97096 0.18294 0.67067 0.0
O343 O 0.95368 0.22704 0.70937 0.0
O344 O 0.94088 0.21235 0.79086 0.0
O345 O 0.9409 0.26521 0.77045 0.0
O346 O 0.92045 0.3045 0.70985 0.0
O347 O 0.87379 0.28403 0.68891 0.0
O348 O 0.87356 0.25294 0.77953 0.0
O349 O 0.87689 0.2088 0.73326 0.0
O350 O 0.91237 0.22773 0.63929 0.0
O351 O 0.9186 0.17298 0.64749 0.0
H352 H 0.90652 0.05813 0.75075 0.0
H353 H 0.87181 0.03464 0.81165 0.0
H354 H 0.84616 0.13409 0.87588 0.0
H355 H 0.88038 0.15695 0.815 0.0
H356 H 0.86507 0.35504 0.65056 0.0
H357 H 0.87471 0.36634 0.57105 0.0
H358 H 0.95273 0.29473 0.54414 0.0
H359 H 0.94324 0.28381 0.62293 0.0
C360 C 0.67694 0.80548 1.03976 0.0
Eu361 Eu 0.68953 0.79176 0.11935 0.0
C362 C 0.66861 0.81411 0.99474 0.0
C363 C 0.68623 0.80086 0.95302 0.0
C364 C 0.67716 0.80761 0.91091 0.0
C365 C 0.65012 0.82796 0.90878 0.0
C366 C 0.63254 0.84119 0.95072 0.0
C367 C 0.64158 0.83436 0.9928 0.0
C368 C 0.74191 0.78566 0.16486 0.0
C369 C 0.67942 0.71383 0.13281 0.0
C370 C 0.65992 0.74542 0.29967 0.0
Eu371 Eu 0.67197 0.77114 0.22247 0.0
C372 C 0.64355 0.74397 0.34777 0.0
C373 C 0.60918 0.73947 0.35774 0.0
C374 C 0.595 0.73323 0.40157 0.0
C375 C 0.61461 0.73106 0.43721 0.0
C376 C 0.64893 0.73609 0.42705 0.0
C377 C 0.663 0.74237 0.38343 0.0
C378 C 0.62496 0.7967 0.18036 0.0
C379 C 0.69592 0.84556 0.20863 0.0
O380 O 0.65973 0.81686 0.07854 0.0
O381 O 0.70229 0.78756 1.04436 0.0
O382 O 0.74257 0.80315 0.13106 0.0
O383 O 0.71523 0.76901 0.16899 0.0
O384 O 0.68286 0.73657 0.10481 0.0
O385 O 0.67681 0.72071 0.17803 0.0
O386 O 0.68493 0.76569 0.29145 0.0
O387 O 0.64225 0.73933 0.2653 0.0
O388 O 0.62588 0.80215 0.22428 0.0
O389 O 0.64713 0.77716 0.16327 0.0
O390 O 0.69595 0.82159 0.23465 0.0
O391 O 0.68762 0.84096 0.16633 0.0
H392 H 0.70688 0.78481 0.9528 0.0
H393 H 0.6912 0.79626 0.87987 0.0
H394 H 0.6119 0.85728 0.95128 0.0
H395 H 0.62715 0.84494 1.02399 0.0
H396 H 0.59316 0.74007 0.33134 0.0
H397 H 0.56855 0.73005 0.40739 0.0
H398 H 0.66541 0.73409 0.45245 0.0
H399 H 0.68953 0.74489 0.37717 0.0
C400 C 0.65754 0.11509 0.91755 0.0
Eu401 Eu 0.64757 0.17197 0.96924 0.0
C402 C 0.67475 0.10445 0.87236 0.0
C403 C 0.68321 0.07107 0.85896 0.0
C404 C 0.7005 0.06123 0.81606 0.0
C405 C 0.71007 0.08491 0.78688 0.0
C406 C 0.70197 0.11838 0.80094 0.0
C407 C 0.68419 0.128 0.84319 0.0
C408 C 0.59105 0.19392 1.02014 0.0
C409 C 0.62687 0.23476 0.91791 0.0
C410 C 0.66271 0.29677 0.06652 0.0
Eu411 Eu 0.65544 0.24039 1.01438 0.0
C412 C 0.65442 0.31155 0.1142 0.0
C413 C 0.66545 0.3439 0.12856 0.0
C414 C 0.65704 0.35884 0.17346 0.0
C415 C 0.63753 0.34159 0.20478 0.0
C416 C 0.6273 0.30874 0.1905 0.0
C417 C 0.63563 0.29385 0.14549 0.0
C418 C 0.70702 0.21826 0.95139 0.0
C419 C 0.64797 0.18061 0.07783 0.0
O420 O 0.67668 0.12758 0.94813 0.0
O421 O 0.63105 0.13254 0.91887 0.0
O422 O 0.60019 0.16314 1.01364 0.0
O423 O 0.6116 0.21058 0.99738 0.0
O424 O 0.63753 0.20345 0.91191 0.0
O425 O 0.628 0.25347 0.95796 0.0
O426 O 0.63808 0.29007 1.04204 0.0
O427 O 0.68441 0.27316 1.0595 0.0
O428 O 0.69479 0.24756 0.9565 0.0
O429 O 0.69251 0.20216 0.98138 0.0
O430 O 0.64372 0.21241 0.07598 0.0
O431 O 0.65478 0.15971 1.03989 0.0
H432 H 0.67616 0.05267 0.88141 0.0
H433 H 0.70597 0.03522 0.80539 0.0
H434 H 0.70813 0.13687 0.77834 0.0
H435 H 0.67737 0.15375 0.85294 0.0
H436 H 0.6802 0.35777 0.10484 0.0
H437 H 0.66545 0.38407 0.18355 0.0
H438 H 0.61182 0.29499 0.21362 0.0
H439 H 0.62693 0.26881 0.13493 0.0
C440 C 0.91834 0.85501 0.3234 0.0
Eu441 Eu 0.9341 0.79712 0.34069 0.0
C442 C 0.89906 0.86776 0.29133 0.0
C443 C 0.87826 0.89484 0.3066 0.0
C444 C 0.85906 0.90677 0.27663 0.0
C445 C 0.86032 0.89154 0.23111 0.0
C446 C 0.88073 0.86389 0.21653 0.0
C447 C 0.89969 0.85198 0.24638 0.0
C448 C -0.01197 0.77311 0.36808 0.0
C449 C 0.95625 0.73811 0.25402 0.0
C450 C 0.9281 0.664 0.37747 0.0
Eu451 Eu 0.92833 0.72346 0.35471 0.0
C452 C 0.93516 0.64948 0.41734 0.0
C453 C 0.92909 0.6156 0.41917 0.0
C454 C 0.93392 0.60207 0.45842 0.0
C455 C 0.94483 0.62237 0.4963 0.0
C456 C 0.95148 0.65626 0.49375 0.0
C457 C 0.94669 0.66966 0.45454 0.0
C458 C 0.87742 0.74704 0.31926 0.0
C459 C 0.9272 0.78171 0.44506 0.0
O460 O 0.90091 0.83863 0.35277 0.0
O461 O 0.94646 0.84085 0.30693 0.0
O462 O 0.98003 0.80425 0.37785 0.0
O463 O 0.96923 0.75818 0.34121 0.0
O464 O 0.94678 0.7696 0.26689 0.0
O465 O 0.95447 0.71647 0.28348 0.0
O466 O 0.95334 0.67705 0.35474 0.0
O467 O 0.90207 0.6827 0.38372 0.0
O468 O 0.88816 0.71716 0.30803 0.0
O469 O 0.89218 0.7624 0.35103 0.0
O470 O 0.92998 0.74979 0.42801 0.0
O471 O 0.92523 0.8047 0.41823 0.0
H472 H 0.87718 0.90697 0.34158 0.0
H473 H 0.84405 0.9284 0.28853 0.0
H474 H 0.88343 0.85233 0.18124 0.0
H475 H 0.91525 0.8308 0.23405 0.0
H476 H 0.92019 0.59975 0.39053 0.0
H477 H 0.92894 0.57582 0.45925 0.0
H478 H 0.95944 0.67271 0.52252 0.0
H479 H 0.95148 0.69586 0.4535 0.0
C480 C 0.40982 0.63209 0.71655 0.0
Eu481 Eu 0.46615 0.64668 0.74764 0.0
C482 C 0.40006 0.61283 0.67476 0.0
C483 C 0.42364 0.6048 0.63716 0.0
C484 C 0.4146 0.58648 0.59727 0.0
C485 C 0.38179 0.57569 0.59428 0.0
C486 C 0.35831 0.58312 0.63248 0.0
C487 C 0.36747 0.60154 0.67259 0.0
C488 C 0.49054 0.7059 0.78579 0.0
C489 C 0.52568 0.66473 0.66912 0.0
C490 C 0.59306 0.6434 0.79561 0.0
Eu491 Eu 0.53544 0.64338 0.76649 0.0
C492 C 0.60634 0.63697 0.83723 0.0
C493 C 0.63446 0.61751 0.83331 0.0
C494 C 0.64812 0.61171 0.87229 0.0
C495 C 0.63399 0.62552 0.9159 0.0
C496 C 0.60488 0.64379 0.91965 0.0
C497 C 0.59109 0.64932 0.88068 0.0
C498 C 0.51403 0.5878 0.71629 0.0
C499 C 0.47608 0.64799 0.8533 0.0
O500 O 0.42266 0.61466 0.74358 0.0
O501 O 0.42619 0.65982 0.71153 0.0
O502 O 0.45982 0.6967 0.79236 0.0
O503 O 0.50535 0.68437 0.75685 0.0
O504 O 0.49532 0.6522 0.67721 0.0
O505 O 0.54538 0.66847 0.70204 0.0
O506 O 0.57586 0.67034 0.79799 0.0
O507 O 0.58009 0.61757 0.77249 0.0
O508 O 0.54264 0.60165 0.70923 0.0
O509 O 0.49722 0.60347 0.75091 0.0
O510 O 0.50801 0.64589 0.83902 0.0
O511 O 0.4541 0.64684 0.82393 0.0
H512 H 0.44902 0.61296 0.63849 0.0
H513 H 0.43317 0.58181 0.56821 0.0
H514 H 0.33287 0.57518 0.63102 0.0
H515 H 0.34909 0.60727 0.70168 0.0
H516 H 0.64619 0.60726 0.79999 0.0
H517 H 0.6703 0.59726 0.86821 0.0
H518 H 0.59358 0.65533 0.95255 0.0
H519 H 0.56901 0.66393 0.88455 0.0
C520 C 0.16702 0.34363 1.02894 0.0
Eu521 Eu 0.10703 0.34412 0.06942 0.0
C522 C 0.18844 0.369 1.00994 0.0
C523 C 0.21626 0.35912 0.97995 0.0
C524 C 0.23212 0.38127 0.9526 0.0
C525 C 0.22012 0.41366 0.95448 0.0
C526 C 0.19457 0.42455 0.9887 0.0
C527 C 0.17865 0.40224 1.016 0.0
C528 C 0.07269 0.29755 0.11286 0.0
C529 C 0.04181 0.31772 1.01981 0.0
C530 C -0.01287 0.38742 0.16305 0.0
Eu531 Eu 0.04035 0.36703 0.11243 0.0
C532 C 0.97474 0.38816 0.21161 0.0
C533 C -0.00852 0.40612 0.24622 0.0
C534 C 0.98067 0.40448 0.29205 0.0
C535 C 0.95319 0.38465 0.30399 0.0
C536 C 0.9361 0.36724 0.26946 0.0
C537 C 0.94669 0.36915 0.22366 0.0
C538 C 0.06935 0.40182 1.04587 0.0
C539 C 0.10076 0.3716 0.17862 0.0
O540 O 0.16002 0.34765 0.07321 0.0
O541 O 0.14119 0.33527 1.00753 0.0
O542 O 0.09567 0.29003 0.07932 0.0
O543 O 0.07247 0.32825 0.12335 0.0
O544 O 0.07294 0.32822 1.01261 0.0
O545 O 0.02512 0.32475 1.0606 0.0
O546 O -0.01033 0.35776 0.13905 0.0
O547 O 0.01217 0.40722 0.15335 0.0
O548 O 0.03889 0.39225 1.04947 0.0
O549 O 0.08335 0.39302 0.07751 0.0
O550 O 0.06849 0.37218 0.17628 0.0
O551 O 0.12121 0.36475 0.14065 0.0
H552 H 0.22412 0.33354 0.97498 0.0
H553 H 0.25146 0.3716 0.92663 0.0
H554 H 0.18498 0.44937 0.99162 0.0
H555 H 0.15724 0.41026 1.03942 0.0
H556 H 0.01333 0.42083 0.23804 0.0
H557 H -0.00554 0.4178 0.3181 0.0
H558 H 0.91473 0.35193 0.27792 0.0
H559 H 0.93338 0.35515 0.19756 0.0
C560 C 0.43462 0.40078 0.37183 0.0
Eu561 Eu 0.45628 0.39859 0.45128 0.0
C562 C 0.43906 0.39082 0.32075 0.0
C563 C 0.43296 0.41409 0.29214 0.0
C564 C 0.43284 0.40489 0.24468 0.0
C565 C 0.43893 0.37191 0.22362 0.0
C566 C 0.44555 0.34863 0.25237 0.0
C567 C 0.44556 0.3579 0.30009 0.0
C568 C 0.46247 0.44382 0.52675 0.0
C569 C 0.53517 0.38738 0.44153 0.0
C570 C 0.52249 0.35772 0.59817 0.0
Eu571 Eu 0.48826 0.37202 0.53345 0.0
C572 C 0.52941 0.33839 0.63594 0.0
C573 C 0.53619 0.30416 0.62712 0.0
C574 C 0.5483 0.28744 0.66012 0.0
C575 C 0.55411 0.30396 0.70374 0.0
C576 C 0.54641 0.33817 0.7128 0.0
C577 C 0.53445 0.35497 0.67959 0.0
C578 C 0.45953 0.32721 0.47223 0.0
C579 C 0.41002 0.38171 0.54005 0.0
O580 O 0.42638 0.37757 0.39771 0.0
O581 O 0.45365 0.4241 0.39106 0.0
O582 O 0.43991 0.4449 0.49943 0.0
O583 O 0.48285 0.42122 0.51051 0.0
O584 O 0.50935 0.39572 0.42304 0.0
O585 O 0.53344 0.3791 0.48327 0.0
O586 O 0.50101 0.3818 0.60493 0.0
O587 O 0.52503 0.34245 0.55616 0.0
O588 O 0.45923 0.32409 0.51518 0.0
O589 O 0.47637 0.35241 0.46465 0.0
O590 O 0.43605 0.38319 0.56316 0.0
O591 O 0.41185 0.3818 0.49538 0.0
H592 H 0.42725 0.43948 0.30676 0.0
H593 H 0.42695 0.42371 0.22473 0.0
H594 H 0.45083 0.32312 0.2381 0.0
H595 H 0.45014 0.33911 0.32089 0.0
H596 H 0.53313 0.29027 0.59398 0.0
H597 H 0.55343 0.26138 0.65068 0.0
H598 H 0.55082 0.35265 0.74497 0.0
H599 H 0.53029 0.38143 0.68762 0.0
C600 C 0.1574 0.65611 0.9577 0.0
Eu601 Eu 0.09992 0.6386 0.93199 0.0
C602 C 0.17873 0.64249 0.98675 0.0
C603 C 0.19305 0.66375 1.02055 0.0
C604 C 0.20987 0.65067 1.05202 0.0
C605 C 0.2127 0.61605 1.05002 0.0
C606 C 0.20033 0.59496 1.01403 0.0
C607 C 0.18325 0.60802 0.98292 0.0
C608 C 0.05258 0.67224 0.90197 0.0
C609 C 0.03895 0.64009 1.01518 0.0
C610 C -0.01184 0.57152 0.87877 0.0
Eu611 Eu 0.03881 0.59881 0.91448 0.0
C612 C 0.97729 0.57783 0.83548 0.0
C613 C 0.97007 0.55125 0.80241 0.0
C614 C 0.96745 0.55678 0.75762 0.0
C615 C 0.97237 0.5889 0.74549 0.0
C616 C 0.97773 0.61563 0.7793 0.0
C617 C 0.98025 0.61016 0.82378 0.0
C618 C 0.08211 0.56665 0.9546 0.0
C619 C 0.08978 0.62041 0.8275 0.0
O620 O 0.15313 0.63734 0.91938 0.0
O621 O 0.13004 0.66955 0.97824 0.0
O622 O 0.08363 0.68022 0.89507 0.0
O623 O 0.04903 0.65126 0.92873 0.0
O624 O 0.07099 0.64518 1.00391 0.0
O625 O 0.02013 0.62443 0.98516 0.0
O626 O -0.01421 0.59658 0.91187 0.0
O627 O 0.01654 0.55674 0.87432 0.0
O628 O 0.05046 0.56571 0.96383 0.0
O629 O 0.08993 0.58361 0.92225 0.0
O630 O 0.06018 0.60938 0.84242 0.0
O631 O 0.11164 0.62998 0.85595 0.0
H632 H 0.18988 0.69038 1.02395 0.0
H633 H 0.21862 0.66762 0.07972 0.0
H634 H 0.20236 0.56824 1.01133 0.0
H635 H 0.17247 0.59098 0.95703 0.0
H636 H 0.96826 0.52609 0.81059 0.0
H637 H 0.96333 0.53576 0.73203 0.0
H638 H 0.98104 0.64071 0.77103 0.0
H639 H -0.01365 0.63109 0.84833 0.0
H640 H 0.09605 0.17711 0.13604 0.0
H641 H -0.00438 0.1707 0.1042 0.0
H642 H 0.01254 0.19257 1.0326 0.0
H643 H 0.05591 0.21305 0.97753 0.0
H644 H 0.1561 0.22167 1.01122 0.0
H645 H 0.13921 0.19913 0.08184 0.0
C646 C 0.07776 0.1803 0.11347 0.0
C647 C 0.04438 0.17184 0.12629 0.0
C648 C 0.08771 0.19321 0.07179 0.0
C649 C 0.02142 0.1766 0.09595 0.0
C650 C 0.03114 0.18928 1.05467 0.0
C651 C 0.07427 0.21043 1.0002 0.0
C652 C 0.10773 0.21902 0.98729 0.0
C653 C 0.06425 0.19772 1.04203 0.0
C654 C 0.13047 0.21471 1.01826 0.0
C655 C 0.12073 0.20194 1.05941 0.0
H656 H 0.10352 0.7951 0.40677 0.0
H657 H 0.10798 0.69416 0.33854 0.0
H658 H 0.08672 0.71156 0.27225 0.0
H659 H 0.06747 0.75572 0.23213 0.0
H660 H 0.06501 0.85694 0.30008 0.0
H661 H 0.08401 0.839 0.36704 0.0
C662 C 0.09999 0.77679 0.37742 0.0
C663 C 0.1079 0.74319 0.37816 0.0
C664 C 0.08777 0.78706 0.33882 0.0
C665 C 0.10259 0.72016 0.33945 0.0
C666 C 0.0903 0.73014 0.30125 0.0
C667 C 0.07131 0.77407 0.26128 0.0
C668 C 0.06445 0.80797 0.26 0.0
C669 C 0.083 0.76361 0.30022 0.0
C670 C 0.06925 0.83073 0.29929 0.0
C671 C 0.08053 0.82048 0.33791 0.0
H672 H 0.48707 0.75696 0.31761 0.0
H673 H 0.39041 0.78736 0.37947 0.0
H674 H 0.41404 0.81632 0.4465 0.0
H675 H 0.46188 0.83353 0.48759 0.0
H676 H 0.55948 0.80617 0.42561 0.0
H677 H 0.53606 0.77614 0.35871 0.0
C678 C 0.47123 0.76961 0.34611 0.0
C679 C 0.43679 0.76936 0.34394 0.0
C680 C 0.48527 0.78719 0.38431 0.0
C681 C 0.41677 0.78671 0.38052 0.0
C682 C 0.43036 0.80343 0.41879 0.0
C683 C 0.47823 0.82114 0.45947 0.0
C684 C 0.51262 0.82233 0.4621 0.0
C685 C 0.46454 0.80399 0.42105 0.0
C686 C 0.53307 0.80611 0.42478 0.0
C687 C 0.51958 0.78866 0.38652 0.0
H688 H 0.45753 0.25492 0.6838 0.0
H689 H 0.52163 0.20705 0.7587 0.0
H690 H 0.55 0.17927 0.68735 0.0
H691 H 0.55556 0.16599 0.60234 0.0
H692 H 0.48903 0.21131 0.52798 0.0
H693 H 0.46342 0.24211 0.59894 0.0
C694 C 0.47793 0.23871 0.68448 0.0
C695 C 0.48735 0.23341 0.72708 0.0
C696 C 0.49374 0.22173 0.64279 0.0
C697 C 0.51362 0.21173 0.72677 0.0
C698 C 0.52992 0.19563 0.68574 0.0
C699 C 0.53564 0.18277 0.60163 0.0
C700 C 0.52445 0.18606 0.55927 0.0
C701 C 0.52004 0.2 0.64332 0.0
C702 C 0.49824 0.20787 0.55969 0.0
C703 C 0.48341 0.22563 0.60051 0.0
H704 H 0.82614 0.86247 0.1625 0.0
H705 H 0.8642 0.95711 0.21996 0.0
H706 H 0.87821 0.97234 0.14406 0.0
H707 H 0.90226 0.94796 0.06819 0.0
H708 H 0.87563 0.84829 1.0139 0.0
H709 H 0.83471 0.84529 0.07991 0.0
C710 C 0.83586 0.88707 0.15815 0.0
C711 C 0.84647 0.90759 0.19602 0.0
C712 C 0.84742 0.8939 0.11427 0.0
C713 C 0.85715 0.94019 0.19102 0.0
C714 C 0.86582 0.94868 0.14739 0.0
C715 C 0.88604 0.92645 0.06975 0.0
C716 C 0.89218 0.89813 1.03749 0.0
C717 C 0.86474 0.92412 0.10939 0.0
C718 C 0.87124 0.87024 1.03892 0.0
C719 C 0.84818 0.86844 0.07698 0.0
H720 H 0.88792 0.03951 0.88809 0.0
H721 H 0.80083 0.09911 0.90834 0.0
H722 H 0.79782 0.09885 0.99087 0.0
H723 H 0.8292 0.09505 1.05604 0.0
H724 H 0.92145 0.04401 1.03172 0.0
H725 H 0.91294 0.02658 0.95257 0.0
C726 C 0.86731 0.05111 0.9102 0.0
C727 C 0.84521 0.07011 0.8924 0.0
C728 C 0.86723 0.05291 0.95736 0.0
C729 C 0.81859 0.0849 0.92156 0.0
C730 C 0.8171 0.08507 0.96874 0.0
C731 C 0.84674 0.07913 1.03364 0.0
C732 C 0.87589 0.07056 1.0496 0.0
C733 C 0.84278 0.07135 0.98707 0.0
C734 C 0.89868 0.0503 1.02032 0.0
C735 C 0.89396 0.0407 0.97486 0.0
H736 H 0.68273 0.04174 0.72479 0.0
H737 H 0.76647 0.10745 0.74239 0.0
H738 H 0.77683 0.10712 0.65976 0.0
H739 H 0.75326 0.09987 0.58695 0.0
H740 H 0.66375 0.04165 0.57348 0.0
H741 H 0.66543 0.02579 0.64868 0.0
C742 C 0.70409 0.05472 0.71021 0.0
C743 C 0.72361 0.07489 0.73913 0.0
C744 C 0.7085 0.05612 0.66319 0.0
C745 C 0.75109 0.09194 0.72036 0.0
C746 C 0.75678 0.09197 0.67326 0.0
C747 C 0.73448 0.0832 0.60017 0.0
C748 C 0.70788 0.07298 0.57517 0.0
C749 C 0.73423 0.07606 0.64486 0.0
C750 C 0.68446 0.05024 0.59189 0.0
C751 C 0.68512 0.04143 0.63534 0.0
H752 H 0.72325 0.93336 0.37501 0.0
H753 H 0.62496 0.9641 0.364 0.0
H754 H 0.63201 0.94469 0.28217 0.0
H755 H 0.65722 0.89934 0.22567 0.0
H756 H 0.75317 0.86496 0.24128 0.0
H757 H 0.75664 0.90628 0.30846 0.0
C758 C 0.70386 0.9376 0.35466 0.0
C759 C 0.6725 0.94721 0.37609 0.0
C760 C 0.70755 0.92473 0.30824 0.0
C761 C 0.64863 0.95447 0.34855 0.0
C762 C 0.65254 0.94309 0.30173 0.0
C763 C 0.67959 0.90238 0.24233 0.0
C764 C 0.70449 0.87887 0.22996 0.0
C765 C 0.68048 0.92487 0.28261 0.0
C766 C 0.73354 0.88271 0.25116 0.0
C767 C 0.73536 0.90611 0.28981 0.0
H768 H 0.55963 0.69168 0.46148 0.0
H769 H 0.63575 0.75332 0.52141 0.0
H770 H 0.61588 0.73844 0.59623 0.0
H771 H 0.57777 0.70672 0.64598 0.0
H772 H 0.49984 0.64739 0.5875 0.0
H773 H 0.51915 0.66285 0.51229 0.0
C774 C 0.57183 0.70226 0.49077 0.0
C775 C 0.59998 0.72329 0.48436 0.0
C776 C 0.5599 0.69383 0.53476 0.0
C777 C 0.6149 0.73633 0.52381 0.0
C778 C 0.60332 0.72797 0.5672 0.0
C779 C 0.56498 0.69703 0.61683 0.0
C780 C 0.53741 0.67538 0.62302 0.0
C781 C 0.5761 0.70639 0.5732 0.0
C782 C 0.52109 0.66386 0.58442 0.0
C783 C 0.53222 0.67273 0.54106 0.0
H784 H 0.62814 0.2143 0.82292 0.0
H785 H 0.58913 0.28973 0.9309 0.0
H786 H 0.56279 0.31613 0.87682 0.0
H787 H 0.55 0.31891 0.79897 0.0
H788 H 0.59324 0.24747 0.68845 0.0
H789 H 0.61695 0.21876 0.74278 0.0
C790 C 0.6138 0.23642 0.8347 0.0
C791 C 0.61092 0.24956 0.88177 0.0
C792 C 0.59876 0.25246 0.80263 0.0
C793 C 0.59221 0.27859 0.89546 0.0
C794 C 0.57689 0.29395 0.86429 0.0
C795 C 0.56495 0.29741 0.78606 0.0
C796 C 0.56905 0.28596 0.73844 0.0
C797 C 0.57998 0.2813 0.81769 0.0
C798 C 0.58834 0.25723 0.72422 0.0
C799 C 0.60249 0.24065 0.75561 0.0
H800 H 0.04564 0.32661 0.92896 0.0
H801 H -0.0022 0.26619 1.02559 0.0
H802 H 0.96628 0.23668 0.96663 0.0
H803 H 0.94996 0.22927 0.8872 0.0
H804 H -0.00432 0.29274 0.7928 0.0
H805 H 0.02981 0.31906 0.85014 0.0
C806 C 0.02851 0.30681 0.93702 0.0
C807 C 0.02437 0.2987 0.98196 0.0
C808 C 0.00965 0.29033 0.90293 0.0
C809 C 0.0016 0.27316 0.99155 0.0
C810 C 0.98348 0.25616 0.95766 0.0
C811 C 0.96752 0.2487 0.87912 0.0
C812 C 0.96985 0.25888 0.8353 0.0
C813 C -0.0131 0.26469 0.91316 0.0
C814 C -0.00719 0.2844 0.82605 0.0
C815 C 0.01256 0.29958 0.85898 0.0
H816 H 0.95814 0.67466 0.21027 0.0
H817 H -0.01058 0.77435 0.19042 0.0
H818 H 0.01919 0.75283 0.11604 0.0
H819 H 0.03782 0.70496 1.05706 0.0
H820 H 0.00255 0.60632 0.07602 0.0
H821 H 0.97354 0.62797 0.1504 0.0
C822 C 0.97134 0.69184 0.1897 0.0
C823 C 0.97148 0.72621 0.20634 0.0
C824 C -0.01174 0.6793 0.14694 0.0
C825 C -0.01143 0.74791 0.17866 0.0
C826 C 0.00591 0.73553 0.13623 0.0
C827 C 0.02403 0.68825 0.07781 0.0
C828 C 0.02296 0.65384 1.06141 0.0
C829 C 0.00629 0.70118 0.12016 0.0
C830 C 0.00416 0.6327 0.08805 0.0
C831 C -0.01255 0.64514 0.13054 0.0
H832 H 0.37435 0.43378 0.5806 0.0
H833 H 0.37596 0.32696 0.56112 0.0
H834 H 0.34083 0.32573 0.63299 0.0
H835 H 0.33079 0.3552 0.71005 0.0
H836 H 0.33819 0.462 0.73353 0.0
H837 H 0.3461 0.46362 0.65144 0.0
C838 C 0.36532 0.41034 0.59107 0.0
C839 C 0.37786 0.38055 0.56668 0.0
C840 C 0.34712 0.41005 0.63385 0.0
C841 C 0.36645 0.35012 0.5799 0.0
C842 C 0.34668 0.34949 0.62121 0.0
C843 C 0.33218 0.37896 0.69727 0.0
C844 C 0.3366 0.40833 0.72737 0.0
C845 C 0.33979 0.37934 0.65027 0.0
C846 C 0.33641 0.43894 0.71063 0.0
C847 C 0.3416 0.43982 0.66362 0.0
H848 H 0.32895 0.59116 0.55477 0.0
H849 H 0.4135 0.52787 0.53241 0.0
H850 H 0.40873 0.51828 0.45093 0.0
H851 H 0.39099 0.54118 0.38672 0.0
H852 H 0.30918 0.60805 0.40819 0.0
H853 H 0.30185 0.60235 0.48929 0.0
C854 C 0.34543 0.57411 0.53234 0.0
C855 C 0.372 0.56081 0.5494 0.0
C856 C 0.34349 0.57004 0.48517 0.0
C857 C 0.39313 0.53873 0.51996 0.0
C858 C 0.39056 0.53345 0.47326 0.0
C859 C 0.37055 0.5533 0.40859 0.0
C860 C 0.35145 0.57596 0.39194 0.0
C861 C 0.36738 0.55096 0.45532 0.0
C862 C 0.32489 0.59125 0.4207 0.0
C863 C 0.32078 0.58812 0.46708 0.0
H864 H 0.24079 0.60496 0.24706 0.0
H865 H 0.15783 0.53705 0.2357 0.0
H866 H 0.16445 0.53557 0.15317 0.0
H867 H 0.18386 0.56483 0.08918 0.0
H868 H 0.26335 0.63697 0.10093 0.0
H869 H 0.26785 0.62583 0.17852 0.0
C870 C 0.22469 0.58923 0.2263 0.0
C871 C 0.19829 0.57193 0.2475 0.0
C872 C 0.22746 0.58997 0.17914 0.0
C873 C 0.17822 0.5508 0.22031 0.0
C874 C 0.18173 0.55027 0.17309 0.0
C875 C 0.20314 0.57716 0.10782 0.0
C876 C 0.22273 0.60228 0.08975 0.0
C877 C 0.20482 0.57144 0.15271 0.0
C878 C 0.24745 0.61809 0.11461 0.0
C879 C 0.25001 0.61174 0.15893 0.0
H880 H 0.2497 0.39777 0.75469 0.0
H881 H 0.14656 0.41975 0.76967 0.0
H882 H 0.15055 0.44934 0.84608 0.0
H883 H 0.17758 0.44692 0.91408 0.0
H884 H 0.27957 0.41949 0.90142 0.0
H885 H 0.28245 0.41567 0.81858 0.0
C886 C 0.22873 0.41109 0.77361 0.0
C887 C 0.19774 0.40608 0.75759 0.0
C888 C 0.23085 0.42599 0.81869 0.0
C889 C 0.1706 0.42326 0.7818 0.0
C890 C 0.17279 0.43963 0.82588 0.0
C891 C 0.20105 0.44189 0.89369 0.0
C892 C 0.22768 0.43108 0.91363 0.0
C893 C 0.20195 0.43795 0.84603 0.0
C894 C 0.25815 0.42612 0.88658 0.0
C895 C 0.25975 0.42363 0.8391 0.0
H896 H 0.01764 0.30152 0.17003 0.0
H897 H 0.11183 0.25396 0.14153 0.0
H898 H 0.10211 0.23031 0.2131 0.0
H899 H 0.06413 0.21806 0.2778 0.0
H900 H 0.96603 0.25657 0.29755 0.0
H901 H 0.9814 0.29316 0.23979 0.0
C902 C 0.03566 0.2854 0.17928 0.0
C903 C 0.06458 0.27786 0.14987 0.0
C904 C 0.02991 0.27219 0.22031 0.0
C905 C 0.08861 0.25839 0.16268 0.0
C906 C 0.08347 0.24577 0.2041 0.0
C907 C 0.04656 0.23551 0.2706 0.0
C908 C 0.01356 0.23309 0.28907 0.0
C909 C 0.05398 0.25206 0.23267 0.0
C910 C -0.00867 0.25697 0.28211 0.0
C911 C -0.00024 0.27698 0.24794 0.0
H912 H 0.00336 0.79553 0.45386 0.0
H913 H 0.00933 0.7105 0.34873 0.0
H914 H 0.02602 0.67583 0.40215 0.0
H915 H 0.04295 0.67081 0.47566 0.0
H916 H 0.05203 0.75827 0.57366 0.0
H917 H 0.02104 0.79015 0.52924 0.0
C918 C 0.00867 0.7695 0.44272 0.0
C919 C 0.00463 0.75521 0.3979 0.0
C920 C 0.01895 0.7499 0.47339 0.0
C921 C 0.01178 0.72165 0.38349 0.0
C922 C 0.02099 0.70182 0.41402 0.0
C923 C 0.03683 0.69652 0.4883 0.0
C924 C 0.05011 0.71246 0.52715 0.0
C925 C 0.02447 0.71566 0.45903 0.0
C926 C 0.04193 0.74557 0.54367 0.0
C927 C 0.02545 0.76405 0.51735 0.0
H928 H 0.45792 0.74695 0.746 0.0
H929 H 0.54538 0.73946 0.81129 0.0
H930 H 0.57668 0.77176 0.75711 0.0
H931 H 0.58155 0.78935 0.68073 0.0
H932 H 0.49516 0.78856 0.60999 0.0
H933 H 0.46137 0.76957 0.6746 0.0
C934 C 0.48342 0.75394 0.74974 0.0
C935 C 0.49971 0.74027 0.78142 0.0
C936 C 0.50191 0.76856 0.71521 0.0
C937 C 0.53252 0.74968 0.7867 0.0
C938 C 0.55065 0.76702 0.75472 0.0
C939 C 0.55535 0.78488 0.67956 0.0
C940 C 0.54068 0.79021 0.64096 0.0
C941 C 0.53612 0.77413 0.71685 0.0
C942 C 0.50679 0.78457 0.63964 0.0
C943 C 0.48744 0.77417 0.67668 0.0
H944 H 0.56411 0.25315 1.05044 0.0
H945 H 0.5412 0.15376 0.98966 0.0
H946 H 0.50531 0.17548 0.94145 0.0
H947 H 0.49443 0.22272 0.90252 0.0
H948 H 0.51601 0.32237 0.96368 0.0
H949 H 0.54025 0.30072 1.02457 0.0
C950 C 0.54959 0.23627 1.02865 0.0
C951 C 0.55645 0.20225 1.02154 0.0
C952 C 0.53078 0.24908 0.99903 0.0
C953 C 0.53698 0.18026 0.99459 0.0
C954 C 0.51722 0.19271 0.966 0.0
C955 C 0.50363 0.2396 0.92981 0.0
C956 C 0.50405 0.27383 0.92833 0.0
C957 C 0.51637 0.22706 0.96537 0.0
C958 C 0.51616 0.29574 0.96371 0.0
C959 C 0.52955 0.28345 0.99884 0.0
H960 H 0.94473 0.77102 0.96095 0.0
H961 H 0.00793 0.82664 0.87186 0.0
H962 H 0.03485 0.77613 0.83464 0.0
H963 H 0.0531 0.72184 0.84956 0.0
H964 H -0.0106 0.66632 0.93838 0.0
H965 H 0.94966 0.71052 0.95248 0.0
C966 C 0.96312 0.77174 0.93175 0.0
C967 C 0.97608 0.80225 0.92123 0.0
C968 C 0.97922 0.7427 0.91138 0.0
C969 C -0.00136 0.8032 0.88191 0.0
C970 C 0.01439 0.77434 0.86082 0.0
C971 C 0.02993 0.71902 0.8705 0.0
C972 C 0.02498 0.69226 0.8953 0.0
C973 C 0.00714 0.74468 0.87879 0.0
C974 C -0.00565 0.68773 0.92066 0.0
C975 C 0.97147 0.71294 0.92872 0.0
H976 H 0.56923 0.83051 0.21268 0.0
H977 H 0.61425 0.76552 0.09646 0.0
H978 H 0.56064 0.74428 0.07773 0.0
H979 H 0.50451 0.73129 0.11111 0.0
H980 H 0.45913 0.79824 0.22496 0.0
H981 H 0.50896 0.83205 0.22711 0.0
C982 C 0.56711 0.81294 0.18204 0.0
C983 C 0.59521 0.79796 0.15779 0.0
C984 C 0.53622 0.80043 0.17174 0.0
C985 C 0.5926 0.77636 0.11688 0.0
C986 C 0.56196 0.76393 0.10622 0.0
C987 C 0.50529 0.75394 0.13517 0.0
C988 C 0.47942 0.76115 0.16966 0.0
C989 C 0.534 0.77354 0.1361 0.0
C990 C 0.47964 0.79135 0.19938 0.0
C991 C 0.50809 0.81085 0.20066 0.0
H992 H 0.49674 0.18862 0.41095 0.0
H993 H 0.57782 0.24234 0.34777 0.0
H994 H 0.54176 0.28924 0.34746 0.0
H995 H 0.49543 0.31982 0.39027 0.0
H996 H 0.42354 0.2697 0.47549 0.0
H997 H 0.44554 0.21603 0.43955 0.0
C998 C 0.50622 0.2102 0.39581 0.0
C999 C 0.53993 0.21309 0.3815 0.0
C1000 C 0.48637 0.23776 0.39996 0.0
C1001 C 0.55201 0.24035 0.36035 0.0
C1002 C 0.53141 0.26706 0.36033 0.0
C1003 C 0.48381 0.29702 0.39969 0.0
C1004 C 0.4592 0.29829 0.43698 0.0
C1005 C 0.4996 0.26705 0.38398 0.0
C1006 C 0.44323 0.26899 0.44774 0.0
C1007 C 0.45617 0.23845 0.42768 0.0
H1008 H 0.10753 0.27604 0.61862 0.0
H1009 H 0.065 0.35552 0.7175 0.0
H1010 H 0.01003 0.33212 0.70816 0.0
H1011 H 0.97889 0.28099 0.69302 0.0
H1012 H 0.0239 0.1952 0.61011 0.0
H1013 H 0.0734 0.22865 0.5918 0.0
C1014 C 0.08613 0.28886 0.63698 0.0
C1015 C 0.09004 0.31657 0.6702 0.0
C1016 C 0.05535 0.27321 0.63541 0.0
C1017 C 0.06234 0.33368 0.6926 0.0
C1018 C 0.03107 0.32005 0.68767 0.0
C1019 C -0.00084 0.2698 0.66995 0.0
C1020 C -0.00143 0.23561 0.65422 0.0
C1021 C 0.02788 0.28839 0.66259 0.0
C1022 C 0.02446 0.2214 0.62349 0.0
C1023 C 0.05262 0.24049 0.61317 0.0
H1024 H 0.9642 0.06544 0.16813 0.0
H1025 H 0.05374 0.02637 0.20094 0.0
H1026 H 0.05013 0.97886 0.14148 0.0
H1027 H 0.02604 0.95279 0.0726 0.0
H1028 H 0.93729 0.99202 1.03809 0.0
H1029 H 0.9355 0.03432 0.1059 0.0
C1030 C 0.98213 0.04586 0.16327 0.0
C1031 C 0.00905 0.04926 0.189 0.0
C1032 C 0.98055 0.01902 0.12772 0.0
C1033 C 0.03264 0.02411 0.1817 0.0
C1034 C 0.03081 0.99709 0.14734 0.0
C1035 C 0.00623 0.9705 0.08011 0.0
C1036 C 0.98236 0.97012 1.04964 0.0
C1037 C 0.00567 0.99503 0.1188 0.0
C1038 C 0.95657 0.99281 1.06026 0.0
C1039 C 0.95546 0.01685 0.09905 0.0
H1040 H 0.20443 0.70199 0.36034 0.0
H1041 H 0.25799 0.69791 0.47572 0.0
H1042 H 0.30983 0.69272 0.42504 0.0
H1043 H 0.33986 0.701 0.35024 0.0
H1044 H 0.28614 0.70125 0.23414 0.0
H1045 H 0.23416 0.69519 0.28233 0.0
C1046 C 0.22734 0.69855 0.37406 0.0
C1047 C 0.22752 0.70028 0.42161 0.0
C1048 C 0.25692 0.69515 0.34458 0.0
C1049 C 0.25729 0.69632 0.4392 0.0
C1050 C 0.28693 0.69365 0.41023 0.0
C1051 C 0.3169 0.69787 0.33505 0.0
C1052 C 0.31682 0.70114 0.28859 0.0
C1053 C 0.28714 0.69454 0.36314 0.0
C1054 C 0.28684 0.69815 0.26957 0.0
C1055 C 0.25709 0.69522 0.29733 0.0
H1056 H 0.58387 0.06525 0.5364 0.0
H1057 H 0.56642 0.02521 0.3992 0.0
H1058 H 0.56202 0.96902 0.42018 0.0
H1059 H 0.55246 0.93345 0.48151 0.0
H1060 H 0.57327 0.97263 0.61762 0.0
H1061 H 0.58731 0.027 0.59338 0.0
C1062 C 0.58046 0.04399 0.51077 0.0
C1063 C 0.57541 0.04916 0.46643 0.0
C1064 C 0.57769 0.01183 0.52327 0.0
C1065 C 0.57074 0.02165 0.43341 0.0
C1066 C 0.56772 0.98961 0.4456 0.0
C1067 C 0.56077 0.95379 0.50547 0.0
C1068 C 0.56119 0.94954 0.5514 0.0
C1069 C 0.56942 0.9847 0.49101 0.0
C1070 C 0.57255 0.97562 0.58216 0.0
C1071 C 0.58046 0.00668 0.56833 0.0
H1072 H 0.37054 0.24908 0.73709 0.0
H1073 H 0.33189 0.30119 0.86757 0.0
H1074 H 0.28311 0.31639 0.83461 0.0
H1075 H 0.2512 0.31411 0.76819 0.0
H1076 H 0.29122 0.26241 0.63777 0.0
H1077 H 0.33965 0.24784 0.671 0.0
C1078 C 0.35145 0.26388 0.75819 0.0
C1079 C 0.35479 0.27427 0.80447 0.0
C1080 C 0.32368 0.27249 0.73898 0.0
C1081 C 0.32993 0.29328 0.83165 0.0
C1082 C 0.302 0.30179 0.81287 0.0
C1083 C 0.27048 0.29951 0.74722 0.0
C1084 C 0.26755 0.28911 0.70065 0.0
C1085 C 0.29854 0.29142 0.76654 0.0
C1086 C 0.29286 0.27057 0.67372 0.0
C1087 C 0.32059 0.26226 0.69266 0.0
H1088 H 0.72371 0.18696 0.86491 0.0
H1089 H 0.76484 0.23781 0.98293 0.0
H1090 H 0.81882 0.24004 0.93834 0.0
H1091 H 0.85206 0.23443 0.86345 0.0
H1092 H 0.81221 0.18204 0.74517 0.0
H1093 H 0.76025 0.17243 0.79212 0.0
C1094 C 0.74481 0.19717 0.88121 0.0
C1095 C 0.74045 0.21165 0.92738 0.0
C1096 C 0.77585 0.19842 0.85508 0.0
C1097 C 0.76775 0.22604 0.94772 0.0
C1098 C 0.79854 0.22754 0.92209 0.0
C1099 C 0.83222 0.22023 0.84818 0.0
C1100 C 0.83576 0.20933 0.80084 0.0
C1101 C 0.80258 0.21484 0.87542 0.0
C1102 C 0.81008 0.19069 0.7815 0.0
C1103 C 0.78028 0.18543 0.80835 0.0
H1104 H 0.8766 0.78012 0.24752 0.0
H1105 H 0.81371 0.73658 0.35009 0.0
H1106 H 0.76534 0.74526 0.31174 0.0
H1107 H 0.74194 0.76106 0.24516 0.0
H1108 H 0.80506 0.80483 0.14283 0.0
H1109 H 0.85252 0.79944 0.18391 0.0
C1110 C 0.85213 0.77353 0.26201 0.0
C1111 C 0.84832 0.75848 0.30186 0.0
C1112 C 0.82468 0.77805 0.23929 0.0
C1113 C 0.81684 0.74889 0.31986 0.0
C1114 C 0.78933 0.75353 0.29771 0.0
C1115 C 0.76598 0.76993 0.23244 0.0
C1116 C 0.77 0.78344 0.19124 0.0
C1117 C 0.79306 0.76744 0.25684 0.0
C1118 C 0.80133 0.7946 0.17473 0.0
C1119 C 0.82847 0.79168 0.19829 0.0
H1120 H 0.45435 0.56248 0.69029 0.0
H1121 H 0.55721 0.53985 0.68253 0.0
H1122 H 0.54994 0.49128 0.62644 0.0
H1123 H 0.51621 0.45888 0.57235 0.0
H1124 H 0.41387 0.482 0.57638 0.0
H1125 H 0.41878 0.52588 0.64085 0.0
C1126 C 0.47489 0.54652 0.67693 0.0
C1127 C 0.50631 0.55503 0.69035 0.0
C1128 C 0.47078 0.51888 0.64315 0.0
C1129 C 0.53278 0.53405 0.67259 0.0
C1130 C 0.52873 0.50626 0.64026 0.0
C1131 C 0.49495 0.47336 0.58762 0.0
C1132 C 0.46495 0.46775 0.5689 0.0
C1133 C 0.49815 0.49906 0.62406 0.0
C1134 C 0.4375 0.48645 0.58943 0.0
C1135 C 0.44028 0.51156 0.62637 0.0
H1136 H 0.07966 0.50508 0.91019 0.0
H1137 H 0.12141 0.56419 1.02182 0.0
H1138 H 0.12784 0.51427 1.05728 0.0
H1139 H 0.10827 0.45672 0.06535 0.0
H1140 H 0.05881 0.40073 0.95816 0.0
H1141 H 0.06885 0.44581 0.91189 0.0
C1142 C 0.09173 0.50665 0.94108 0.0
C1143 C 0.10035 0.53803 0.96322 0.0
C1144 C 0.09285 0.47831 0.96281 0.0
C1145 C 0.11513 0.54014 1.00383 0.0
C1146 C 0.11818 0.51164 1.02452 0.0
C1147 C 0.10067 0.45414 1.03128 0.0
C1148 C 0.08255 0.42573 1.01517 0.0
C1149 C 0.10508 0.48099 1.0058 0.0
C1150 C 0.0725 0.4226 0.97125 0.0
C1151 C 0.07821 0.44837 0.94486 0.0
H1152 H 0.10596 0.13965 0.51399 0.0
H1153 H 0.20056 0.14927 0.43571 0.0
H1154 H 0.22337 0.17644 0.50357 0.0
H1155 H 0.21253 0.20968 0.57869 0.0
H1156 H 0.11716 0.20488 0.6555 0.0
H1157 H 0.09852 0.16344 0.5953 0.0
C1158 C 0.13174 0.14706 0.51211 0.0
C1159 C 0.15128 0.14319 0.46963 0.0
C1160 C 0.14443 0.16392 0.551 0.0
C1161 C 0.18489 0.15201 0.46785 0.0
C1162 C 0.19793 0.16789 0.50662 0.0
C1163 C 0.18823 0.19822 0.58302 0.0
C1164 C 0.16617 0.20994 0.62099 0.0
C1165 C 0.17742 0.1757 0.54753 0.0
C1166 C 0.13459 0.19561 0.62661 0.0
C1167 C 0.12382 0.17238 0.59187 0.0
H1168 H 0.1474 0.81084 0.78441 0.0
H1169 H 0.14398 0.90556 0.73556 0.0
H1170 H 0.12246 0.93132 0.81148 0.0
H1171 H 0.0936 0.92429 0.88614 0.0
H1172 H 0.09254 0.82914 0.93396 0.0
H1173 H 0.12765 0.80652 0.86509 0.0
C1174 C 0.14244 0.83723 0.79061 0.0
C1175 C 0.14677 0.85605 0.75401 0.0
C1176 C 0.12921 0.85185 0.83436 0.0
C1177 C 0.14096 0.89039 0.76289 0.0
C1178 C 0.12842 0.90518 0.80636 0.0
C1179 C 0.1024 0.89904 0.88238 0.0
C1180 C 0.09035 0.87833 0.91474 0.0
C1181 C 0.12101 0.88583 0.84168 0.0
C1182 C 0.10177 0.84567 0.9097 0.0
C1183 C 0.12127 0.83253 0.8698 0.0
H1184 H 0.37105 0.87994 1.00512 0.0
H1185 H 0.41451 0.78291 0.98451 0.0
H1186 H 0.42738 0.78611 0.9032 0.0
H1187 H 0.42842 0.81744 0.83878 0.0
H1188 H 0.3843 0.91412 0.85856 0.0
H1189 H 0.36943 0.91007 0.93952 0.0
C1190 C 0.38297 0.85937 0.98267 0.0
C1191 C 0.3921 0.83141 1.00076 0.0
C1192 C 0.39028 0.86136 0.93597 0.0
C1193 C 0.40778 0.80498 0.97144 0.0
C1194 C 0.41499 0.8067 0.92495 0.0
C1195 C 0.41503 0.83737 0.86064 0.0
C1196 C 0.40748 0.86603 0.84284 0.0
C1197 C 0.40665 0.83491 0.90697 0.0
C1198 C 0.39069 0.89195 0.8717 0.0
C1199 C 0.38209 0.88961 0.91789 0.0
H1200 H 0.40117 0.15936 0.24378 0.0
H1201 H 0.42788 0.05697 0.20199 0.0
H1202 H 0.41927 0.06174 0.12322 0.0
H1203 H 0.41242 0.09756 0.06491 0.0
H1204 H 0.38855 0.20072 0.10704 0.0
H1205 H 0.38797 0.19325 0.18702 0.0
C1206 C 0.40462 0.138 0.21746 0.0
C1207 C 0.41555 0.10806 0.22832 0.0
C1208 C 0.40066 0.14123 0.17227 0.0
C1209 C 0.41939 0.08029 0.19432 0.0
C1210 C 0.41479 0.0831 0.14925 0.0
C1211 C 0.40636 0.11813 0.09173 0.0
C1212 C 0.40108 0.14972 0.08033 0.0
C1213 C 0.40664 0.1138 0.13759 0.0
C1214 C 0.39332 0.17631 0.1152 0.0
C1215 C 0.3929 0.17206 0.16084 0.0
H1216 H 0.92862 0.84516 0.49282 0.0
H1217 H 0.93318 0.74208 0.51103 0.0
H1218 H 0.94172 0.75842 0.5909 0.0
H1219 H 0.94876 0.80189 0.65618 0.0
H1220 H 0.94276 0.90506 0.6388 0.0
H1221 H 0.93446 0.88871 0.5588 0.0
C1222 C 0.93113 0.82617 0.51425 0.0
C1223 C 0.92996 0.79223 0.49521 0.0
C1224 C 0.93611 0.83579 0.56075 0.0
C1225 C 0.9337 0.7683 0.52407 0.0
C1226 C 0.9387 0.77767 0.57007 0.0
C1227 C 0.94527 0.82096 0.63528 0.0
C1228 C 0.94655 0.85491 0.65448 0.0
C1229 C 0.94003 0.81135 0.5889 0.0
C1230 C 0.94254 0.87884 0.62565 0.0
C1231 C 0.93747 0.86946 0.57963 0.0
H1232 H 0.96022 0.15138 0.57259 0.0
H1233 H 0.88913 0.22286 0.55447 0.0
H1234 H 0.90208 0.21069 0.4713 0.0
H1235 H 0.93465 0.18031 0.40287 0.0
H1236 H 0.01062 0.11435 0.42201 0.0
H1237 H -0.00513 0.12357 0.50474 0.0
C1238 C 0.94718 0.16396 0.55044 0.0
C1239 C 0.92295 0.18744 0.57015 0.0
C1240 C 0.95582 0.15779 0.50242 0.0
C1241 C 0.90736 0.20431 0.54061 0.0
C1242 C 0.91489 0.19738 0.49287 0.0
C1243 C 0.94754 0.16768 0.42512 0.0
C1244 C 0.97347 0.14602 0.40575 0.0
C1245 C 0.93914 0.1742 0.47323 0.0
C1246 C -0.00957 0.13078 0.43555 0.0
C1247 C 0.9814 0.13611 0.48305 0.0
H1248 H 0.59165 0.18808 0.13646 0.0
H1249 H 0.68701 0.14342 0.11975 0.0
H1250 H 0.67498 0.12369 0.19436 0.0
H1251 H 0.63739 0.12038 0.26611 0.0
H1252 H 0.53996 0.16052 0.2779 0.0
H1253 H 0.55248 0.18018 0.20409 0.0
C1254 C 0.6098 0.17401 0.14919 0.0
C1255 C 0.64045 0.1677 0.12273 0.0
C1256 C 0.60217 0.16166 0.19145 0.0
C1257 C 0.66337 0.14883 0.13939 0.0
C1258 C 0.65643 0.13752 0.18216 0.0
C1259 C 0.61875 0.13303 0.25226 0.0
C1260 C 0.58763 0.13874 0.27807 0.0
C1261 C 0.62592 0.14387 0.20874 0.0
C1262 C 0.56393 0.15526 0.25911 0.0
C1263 C 0.57118 0.16685 0.2168 0.0
H1264 H 0.63558 0.85806 0.70626 0.0
H1265 H 0.53291 0.86151 0.75946 0.0
H1266 H 0.5469 0.8502 0.83323 0.0
H1267 H 0.58814 0.83804 0.88324 0.0
H1268 H 0.69097 0.83579 0.83038 0.0
H1269 H 0.67693 0.84733 0.75691 0.0
C1270 C 0.61621 0.85674 0.73404 0.0
C1271 C 0.58311 0.86109 0.72666 0.0
C1272 C 0.62443 0.85 0.77694 0.0
C1273 C 0.5586 0.85875 0.76355 0.0
C1274 C 0.5666 0.85209 0.80604 0.0
C1275 C 0.60767 0.84039 0.85599 0.0
C1276 C 0.64079 0.83565 0.8633 0.0
C1277 C 0.59944 0.84753 0.81327 0.0
C1278 C 0.66526 0.83848 0.82646 0.0
C1279 C 0.65725 0.84543 0.78413 0.0
H1280 H 0.60849 0.61902 1.00333 0.0
H1281 H 0.70015 0.63294 0.92002 0.0
H1282 H 0.72696 0.65172 0.98786 0.0
H1283 H 0.71955 0.68029 0.06607 0.0
H1284 H 0.6266 0.67332 0.14817 0.0
H1285 H 0.60537 0.63516 0.08665 0.0
C1286 C 0.63453 0.62537 1.00018 0.0
C1287 C 0.65192 0.62566 0.95657 0.0
C1288 C 0.6495 0.63787 1.03937 0.0
C1289 C 0.68595 0.63275 0.953 0.0
C1290 C 0.70134 0.64385 0.99189 0.0
C1291 C 0.69531 0.66883 0.07123 0.0
C1292 C 0.67438 0.6798 0.11081 0.0
C1293 C 0.68273 0.64884 1.03472 0.0
C1294 C 0.64307 0.66505 0.11777 0.0
C1295 C 0.63074 0.64378 0.0822 0.0
H1296 H 0.55869 0.42299 0.37492 0.0
H1297 H 0.57775 0.33649 0.43568 0.0
H1298 H 0.61494 0.31565 0.36799 0.0
H1299 H 0.63428 0.31785 0.28665 0.0
H1300 H 0.61279 0.40379 0.22583 0.0
H1301 H 0.58477 0.42922 0.29844 0.0
C1302 C 0.57194 0.40016 0.37392 0.0
C1303 C 0.56549 0.38124 0.40999 0.0
C1304 C 0.59238 0.38793 0.33445 0.0
C1305 C 0.58268 0.35169 0.40851 0.0
C1306 C 0.60353 0.33952 0.36948 0.0
C1307 C 0.62382 0.34233 0.28956 0.0
C1308 C 0.62526 0.35871 0.25075 0.0
C1309 C 0.6073 0.3567 0.33143 0.0
C1310 C 0.61214 0.39068 0.25515 0.0
C1311 C 0.59593 0.40519 0.29663 0.0
H1312 H 0.94135 0.32704 0.33844 0.0
H1313 H 0.94428 0.43329 0.37728 0.0
H1314 H 0.93086 0.4262 0.45769 0.0
H1315 H 0.9203 0.38949 0.51695 0.0
H1316 H 0.91884 0.2832 0.4776 0.0
H1317 H 0.92956 0.29053 0.39718 0.0
C1318 C 0.93858 0.34862 0.36452 0.0
C1319 C 0.94356 0.38061 0.35223 0.0
C1320 C 0.93131 0.34431 0.41044 0.0
C1321 C 0.94062 0.40842 0.38622 0.0
C1322 C 0.93291 0.40437 0.43205 0.0
C1323 C 0.92196 0.36803 0.49064 0.0
C1324 C 0.91891 0.33591 0.50296 0.0
C1325 C 0.92847 0.37242 0.44457 0.0
C1326 C 0.92147 0.30818 0.46877 0.0
C1327 C 0.92749 0.31233 0.42287 0.0
H1328 H 0.92969 0.56594 0.68421 0.0
H1329 H 0.01831 0.62499 0.69949 0.0
H1330 H 0.01934 0.63807 0.6219 0.0
H1331 H -0.00677 0.6355 0.55166 0.0
H1332 H 0.90281 0.57915 0.53747 0.0
H1333 H 0.90479 0.56142 0.61207 0.0
C1334 C 0.94938 0.58131 0.67022 0.0
C1335 C 0.97372 0.59471 0.69746 0.0
C1336 C 0.94951 0.58917 0.62582 0.0
C1337 C -0.00092 0.61476 0.67921 0.0
C1338 C -0.00027 0.62218 0.63488 0.0
C1339 C 0.97394 0.61936 0.56491 0.0
C1340 C 0.94781 0.60888 0.53926 0.0
C1341 C 0.97473 0.61003 0.60823 0.0
C1342 C 0.92337 0.58735 0.55639 0.0
C1343 C 0.92431 0.57743 0.59922 0.0
H1344 H 0.41937 0.31205 0.1751 0.0
H1345 H 0.45714 0.40983 0.15449 0.0
H1346 H 0.45382 0.39632 0.0728 0.0
H1347 H 0.44089 0.35654 1.0054 0.0
H1348 H 0.40587 0.25798 1.02557 0.0
H1349 H 0.40787 0.27186 0.10773 0.0
C1350 C 0.42723 0.33045 0.15295 0.0
C1351 C 0.43813 0.3623 0.17228 0.0
C1352 C 0.42568 0.32236 0.10509 0.0
C1353 C 0.44783 0.38544 0.14188 0.0
C1354 C 0.44617 0.37764 0.09461 0.0
C1355 C 0.43325 0.33821 1.02778 0.0
C1356 C 0.42282 0.30624 1.00865 0.0
C1357 C 0.43496 0.34625 0.07563 0.0
C1358 C 0.41386 0.28279 1.0387 0.0
C1359 C 0.41504 0.29072 0.08604 0.0
H1360 H 0.44955 0.66072 0.07065 0.0
H1361 H 0.37807 0.73099 1.04976 0.0
H1362 H 0.39248 0.71855 0.96677 0.0
H1363 H 0.42616 0.68787 0.89931 0.0
H1364 H 0.50178 0.62264 0.92182 0.0
H1365 H 0.48508 0.63277 1.00424 0.0
C1366 C 0.43681 0.67315 1.04803 0.0
C1367 C 0.41206 0.69633 0.06695 0.0
C1368 C 0.44611 0.66669 1.00021 0.0
C1369 C 0.39678 0.71278 1.03663 0.0
C1370 C 0.40511 0.70565 0.98898 0.0
C1371 C 0.43878 0.67561 0.92223 0.0
C1372 C 0.46492 0.65386 0.90385 0.0
C1373 C 0.42975 0.6826 0.97021 0.0
C1374 C 0.48148 0.63911 0.93453 0.0
C1375 C 0.4719 0.64497 0.98186 0.0
H1376 H 0.10646 0.63299 0.61489 0.0
H1377 H 0.16647 0.71716 0.6623 0.0
H1378 H 0.15669 0.70345 0.74022 0.0
H1379 H 0.13029 0.66833 0.79546 0.0
H1380 H 0.06545 0.58765 0.75036 0.0
H1381 H 0.07794 0.59902 0.67128 0.0
C1382 C 0.11772 0.64809 0.64221 0.0
C1383 C 0.13778 0.67578 0.6324 0.0
C1384 C 0.11101 0.64068 0.68749 0.0
C1385 C 0.15129 0.69559 0.66859 0.0
C1386 C 0.14563 0.68776 0.71325 0.0
C1387 C 0.11908 0.65296 0.76832 0.0
C1388 C 0.09743 0.62665 0.77895 0.0
C1389 C 0.12547 0.66044 0.72318 0.0
C1390 C 0.08247 0.60774 0.7433 0.0
C1391 C 0.0896 0.61431 0.69802 0.0
H1392 H 0.067 0.35958 0.26077 0.0
H1393 H 0.16416 0.38296 0.19967 0.0
H1394 H 0.1866 0.37871 0.27135 0.0
H1395 H 0.17919 0.36742 0.35171 0.0
H1396 H 0.08227 0.34113 0.4112 0.0
H1397 H 0.05971 0.34769 0.34082 0.0
C1398 C 0.09304 0.36426 0.2632 0.0
C1399 C 0.11366 0.37209 0.22437 0.0
C1400 C 0.10608 0.36105 0.30466 0.0
C1401 C 0.14747 0.37721 0.22857 0.0
C1402 C 0.16042 0.37462 0.26976 0.0
C1403 C 0.15316 0.36281 0.34947 0.0
C1404 C 0.13274 0.35399 0.388 0.0
C1405 C 0.14008 0.36627 0.30807 0.0
C1406 C 0.0989 0.34862 0.38337 0.0
C1407 C 0.08583 0.35217 0.34264 0.0
loop_
_geom_bond_atom_site_label_1
_geom_bond_atom_site_label_2
_geom_bond_distance
_geom_bond_site_symmetry_2
_ccdc_geom_bond_type
C0 Eu1 2.835 . S
C0 C2 1.500 1_455 S
C0 O20 1.257 . S
C0 O21 1.260 . S
Eu1 C0 2.835 . S
Eu1 O20 2.473 . S
Eu1 O21 2.482 . S
Eu1 O22 2.430 . S
Eu1 O23 2.670 . S
Eu1 O24 2.394 . S
Eu1 O29 2.355 . S
Eu1 O31 2.374 . S
C2 C0 1.500 1_655 S
C2 C3 1.377 . S
C2 C7 1.377 1_554 S
C3 C2 1.377 . S
C3 C4 1.395 1_554 S
C3 H32 0.931 . S
C4 C3 1.395 1_556 S
C4 C5 1.383 . S
C4 H33 0.931 . S
C5 C4 1.383 . S
C5 C6 1.394 . S
C6 C5 1.394 . S
C6 C7 1.378 . S
C6 H34 0.931 . S
C7 C2 1.377 1_556 S
C7 C6 1.378 . S
C7 H35 0.931 1_656 S
C8 O22 1.259 . S
C8 O23 1.270 . S
C9 O24 1.251 . S
C9 O25 1.251 . S
C10 Eu11 2.835 . S
C10 C12 1.500 . S
C10 O26 1.257 . S
C10 O27 1.260 . S
Eu11 C10 2.835 . S
Eu11 O23 2.355 . S
Eu11 O25 2.374 . S
Eu11 O26 2.473 . S
Eu11 O27 2.480 . S
Eu11 O28 2.430 . S
Eu11 O29 2.670 . S
Eu11 O30 2.394 . S
C12 C10 1.500 . S
C12 C13 1.377 . S
C12 C17 1.377 . S
C13 C12 1.377 . S
C13 C14 1.395 . S
C13 H36 0.931 . S
C14 C13 1.395 . S
C14 C15 1.383 . S
C14 H37 0.931 . S
C15 C14 1.383 . S
C15 C16 1.394 . S
C16 C15 1.394 . S
C16 C17 1.378 . S
C16 H38 0.931 . S
C17 C12 1.377 . S
C17 C16 1.378 . S
C17 H39 0.931 . S
C18 O28 1.259 . S
C18 O29 1.270 . S
C19 O30 1.251 . S
C19 O31 1.251 . S
O20 C0 1.257 . S
O20 Eu1 2.473 . S
O21 C0 1.260 . S
O21 Eu1 2.482 . S
O22 Eu1 2.430 . S
O22 C8 1.259 . S
O23 Eu1 2.670 . S
O23 C8 1.270 . S
O23 Eu11 2.355 . S
O24 Eu1 2.394 . S
O24 C9 1.251 . S
O25 C9 1.251 . S
O25 Eu11 2.374 . S
O26 C10 1.257 . S
O26 Eu11 2.473 . S
O27 C10 1.260 . S
O27 Eu11 2.480 . S
O28 Eu11 2.430 . S
O28 C18 1.259 . S
O29 Eu1 2.355 . S
O29 Eu11 2.670 . S
O29 C18 1.270 . S
O30 Eu11 2.394 . S
O30 C19 1.251 . S
O31 Eu1 2.374 . S
O31 C19 1.251 . S
H32 C3 0.931 . S
H33 C4 0.931 . S
H34 C6 0.931 . S
H35 C7 0.931 1_454 S
H36 C13 0.931 . S
H37 C14 0.931 . S
H38 C16 0.931 . S
H39 C17 0.931 . S
C40 Eu41 2.835 . S
C40 C42 1.500 . S
C40 O60 1.257 . S
C40 O61 1.260 . S
Eu41 C40 2.835 . S
Eu41 O60 2.473 . S
Eu41 O61 2.480 . S
Eu41 O62 2.430 . S
Eu41 O63 2.670 . S
Eu41 O64 2.394 . S
Eu41 O69 2.355 . S
Eu41 O71 2.374 . S
C42 C40 1.500 . S
C42 C43 1.377 . S
C42 C47 1.377 . S
C43 C42 1.377 . S
C43 C44 1.395 . S
C43 H72 0.931 . S
C44 C43 1.395 . S
C44 C45 1.383 . S
C44 H73 0.931 . S
C45 C44 1.383 . S
C45 C46 1.394 . S
C46 C45 1.394 . S
C46 C47 1.378 . S
C46 H74 0.931 . S
C47 C42 1.377 . S
C47 C46 1.378 . S
C47 H75 0.931 . S
C48 O62 1.259 . S
C48 O63 1.270 . S
C49 O64 1.251 . S
C49 O65 1.251 . S
C50 Eu51 2.835 . S
C50 C52 1.500 . S
C50 O66 1.257 . S
C50 O67 1.260 . S
Eu51 C50 2.835 . S
Eu51 O63 2.355 . S
Eu51 O65 2.374 . S
Eu51 O66 2.473 . S
Eu51 O67 2.480 . S
Eu51 O68 2.430 . S
Eu51 O69 2.670 . S
Eu51 O70 2.394 . S
C52 C50 1.500 . S
C52 C53 1.377 . S
C52 C57 1.377 . S
C53 C52 1.377 . S
C53 C54 1.395 . S
C53 H76 0.931 . S
C54 C53 1.395 . S
C54 C55 1.383 . S
C54 H77 0.931 . S
C55 C54 1.383 . S
C55 C56 1.394 . S
C56 C55 1.394 . S
C56 C57 1.378 . S
C56 H78 0.931 . S
C57 C52 1.377 . S
C57 C56 1.378 . S
C57 H79 0.931 . S
C58 O68 1.259 . S
C58 O69 1.270 . S
C59 O70 1.251 . S
C59 O71 1.251 . S
O60 C40 1.257 . S
O60 Eu41 2.473 . S
O61 C40 1.260 . S
O61 Eu41 2.480 . S
O62 Eu41 2.430 . S
O62 C48 1.259 . S
O63 Eu41 2.670 . S
O63 C48 1.270 . S
O63 Eu51 2.355 . S
O64 Eu41 2.394 . S
O64 C49 1.251 . S
O65 C49 1.251 . S
O65 Eu51 2.374 . S
O66 C50 1.257 . S
O66 Eu51 2.473 . S
O67 C50 1.260 . S
O67 Eu51 2.480 . S
O68 Eu51 2.430 . S
O68 C58 1.259 . S
O69 Eu41 2.355 . S
O69 Eu51 2.670 . S
O69 C58 1.270 . S
O70 Eu51 2.394 . S
O70 C59 1.251 . S
O71 Eu41 2.374 . S
O71 C59 1.251 . S
H72 C43 0.931 . S
H73 C44 0.931 . S
H74 C46 0.931 . S
H75 C47 0.931 . S
H76 C53 0.931 . S
H77 C54 0.931 . S
H78 C56 0.931 . S
H79 C57 0.931 . S
C80 Eu81 2.835 . S
C80 C82 1.500 . S
C80 O100 1.257 . S
C80 O101 1.260 . S
Eu81 C80 2.835 . S
Eu81 O100 2.473 . S
Eu81 O101 2.480 . S
Eu81 O102 2.430 . S
Eu81 O103 2.670 . S
Eu81 O104 2.394 . S
Eu81 O109 2.355 . S
Eu81 O111 2.374 . S
C82 C80 1.500 . S
C82 C83 1.377 . S
C82 C87 1.377 . S
C83 C82 1.377 . S
C83 C84 1.395 . S
C83 H112 0.931 . S
C84 C83 1.395 . S
C84 C85 1.383 . S
C84 H113 0.931 . S
C85 C84 1.383 . S
C85 C86 1.394 . S
C86 C85 1.394 . S
C86 C87 1.378 . S
C86 H114 0.931 . S
C87 C82 1.377 . S
C87 C86 1.378 . S
C87 H115 0.931 . S
C88 O102 1.259 . S
C88 O103 1.270 . S
C89 O104 1.251 . S
C89 O105 1.251 . S
C90 Eu91 2.835 . S
C90 C92 1.500 . S
C90 O106 1.257 . S
C90 O107 1.260 . S
Eu91 C90 2.835 . S
Eu91 O103 2.355 . S
Eu91 O105 2.374 . S
Eu91 O106 2.473 . S
Eu91 O107 2.480 . S
Eu91 O108 2.430 . S
Eu91 O109 2.670 . S
Eu91 O110 2.394 . S
C92 C90 1.500 . S
C92 C93 1.377 . S
C92 C97 1.377 . S
C93 C92 1.377 . S
C93 C94 1.395 . S
C93 H116 0.931 . S
C94 C93 1.395 . S
C94 C95 1.383 . S
C94 H117 0.931 . S
C95 C94 1.383 . S
C95 C96 1.394 . S
C96 C95 1.394 . S
C96 C97 1.378 . S
C96 H118 0.931 . S
C97 C92 1.377 . S
C97 C96 1.378 . S
C97 H119 0.931 . S
C98 O108 1.259 . S
C98 O109 1.270 . S
C99 O110 1.251 . S
C99 O111 1.251 . S
O100 C80 1.257 . S
O100 Eu81 2.473 . S
O101 C80 1.260 . S
O101 Eu81 2.480 . S
O102 Eu81 2.430 . S
O102 C88 1.259 . S
O103 Eu81 2.670 . S
O103 C88 1.270 . S
O103 Eu91 2.355 . S
O104 Eu81 2.394 . S
O104 C89 1.251 . S
O105 C89 1.251 . S
O105 Eu91 2.374 . S
O106 C90 1.257 . S
O106 Eu91 2.473 . S
O107 C90 1.260 . S
O107 Eu91 2.480 . S
O108 Eu91 2.430 . S
O108 C98 1.259 . S
O109 Eu81 2.355 . S
O109 Eu91 2.670 . S
O109 C98 1.270 . S
O110 Eu91 2.394 . S
O110 C99 1.251 . S
O111 Eu81 2.374 . S
O111 C99 1.251 . S
H112 C83 0.931 . S
H113 C84 0.931 . S
H114 C86 0.931 . S
H115 C87 0.931 . S
H116 C93 0.931 . S
H117 C94 0.931 . S
H118 C96 0.931 . S
H119 C97 0.931 . S
C120 Eu121 2.835 . S
C120 C122 1.500 . S
C120 O140 1.257 . S
C120 O141 1.260 . S
Eu121 C120 2.835 . S
Eu121 O140 2.473 . S
Eu121 O141 2.480 . S
Eu121 O142 2.430 . S
Eu121 O143 2.670 . S
Eu121 O144 2.394 . S
Eu121 O149 2.355 . S
Eu121 O151 2.374 . S
C122 C120 1.500 . S
C122 C123 1.377 . S
C122 C127 1.377 . S
C123 C122 1.377 . S
C123 C124 1.395 . S
C123 H152 0.931 . S
C124 C123 1.395 . S
C124 C125 1.383 . S
C124 H153 0.931 . S
C125 C124 1.383 . S
C125 C126 1.394 . S
C126 C125 1.394 . S
C126 C127 1.378 . S
C126 H154 0.931 . S
C127 C122 1.377 . S
C127 C126 1.378 . S
C127 H155 0.931 . S
C128 O142 1.259 . S
C128 O143 1.270 . S
C129 O144 1.251 . S
C129 O145 1.251 . S
C130 Eu131 2.835 . S
C130 C132 1.500 . S
C130 O146 1.257 . S
C130 O147 1.260 . S
Eu131 C130 2.835 . S
Eu131 O143 2.355 . S
Eu131 O145 2.374 . S
Eu131 O146 2.473 . S
Eu131 O147 2.480 . S
Eu131 O148 2.430 . S
Eu131 O149 2.670 . S
Eu131 O150 2.394 . S
C132 C130 1.500 . S
C132 C133 1.377 . S
C132 C137 1.377 . S
C133 C132 1.377 . S
C133 C134 1.395 . S
C133 H156 0.931 . S
C134 C133 1.395 . S
C134 C135 1.383 1_556 S
C134 H157 0.931 1_556 S
C135 C134 1.383 1_554 S
C135 C136 1.394 . S
C136 C135 1.394 . S
C136 C137 1.378 1_554 S
C136 H158 0.931 . S
C137 C132 1.377 . S
C137 C136 1.378 1_556 S
C137 H159 0.931 . S
C138 O148 1.259 . S
C138 O149 1.270 . S
C139 O150 1.251 . S
C139 O151 1.251 . S
O140 C120 1.257 . S
O140 Eu121 2.473 . S
O141 C120 1.260 . S
O141 Eu121 2.480 . S
O142 Eu121 2.430 . S
O142 C128 1.259 . S
O143 Eu121 2.670 . S
O143 C128 1.270 . S
O143 Eu131 2.355 . S
O144 Eu121 2.394 . S
O144 C129 1.251 . S
O145 C129 1.251 . S
O145 Eu131 2.374 . S
O146 C130 1.257 . S
O146 Eu131 2.473 . S
O147 C130 1.260 . S
O147 Eu131 2.480 . S
O148 Eu131 2.430 . S
O148 C138 1.259 . S
O149 Eu121 2.355 . S
O149 Eu131 2.670 . S
O149 C138 1.270 . S
O150 Eu131 2.394 . S
O150 C139 1.251 . S
O151 Eu121 2.374 . S
O151 C139 1.251 . S
H152 C123 0.931 . S
H153 C124 0.931 . S
H154 C126 0.931 . S
H155 C127 0.931 . S
H156 C133 0.931 . S
H157 C134 0.931 1_554 S
H158 C136 0.931 . S
H159 C137 0.931 . S
C160 Eu161 2.835 . S
C160 C162 1.500 . S
C160 O180 1.257 . S
C160 O181 1.260 . S
Eu161 C160 2.835 . S
Eu161 O180 2.473 . S
Eu161 O181 2.480 . S
Eu161 O182 2.430 . S
Eu161 O183 2.670 1_655 S
Eu161 O184 2.394 1_655 S
Eu161 O189 2.355 1_655 S
Eu161 O191 2.374 . S
C162 C160 1.500 . S
C162 C163 1.377 . S
C162 C167 1.377 . S
C163 C162 1.377 . S
C163 C164 1.395 . S
C163 H192 0.931 . S
C164 C163 1.395 . S
C164 C165 1.383 . S
C164 H193 0.931 . S
C165 C164 1.383 . S
C165 C166 1.394 . S
C166 C165 1.394 . S
C166 C167 1.378 . S
C166 H194 0.931 . S
C167 C162 1.377 . S
C167 C166 1.378 . S
C167 H195 0.931 . S
C168 O182 1.259 . S
C168 O183 1.270 1_655 S
C169 O184 1.251 . S
C169 O185 1.251 . S
C170 Eu171 2.835 1_554 S
C170 C172 1.500 . S
C170 O186 1.257 . S
C170 O187 1.260 1_554 S
Eu171 C170 2.835 1_556 S
Eu171 O183 2.355 . S
Eu171 O185 2.374 . S
Eu171 O186 2.473 1_556 S
Eu171 O187 2.480 . S
Eu171 O188 2.430 . S
Eu171 O189 2.670 . S
Eu171 O190 2.394 1_455 S
C172 C170 1.500 . S
C172 C173 1.377 . S
C172 C177 1.377 . S
C173 C172 1.377 . S
C173 C174 1.395 . S
C173 H196 0.931 . S
C174 C173 1.395 . S
C174 C175 1.383 . S
C174 H197 0.931 . S
C175 C174 1.383 . S
C175 C176 1.394 . S
C176 C175 1.394 . S
C176 C177 1.378 . S
C176 H198 0.931 . S
C177 C172 1.377 . S
C177 C176 1.378 . S
C177 H199 0.931 . S
C178 O188 1.259 . S
C178 O189 1.270 . S
C179 O190 1.251 . S
C179 O191 1.251 . S
O180 C160 1.257 . S
O180 Eu161 2.473 . S
O181 C160 1.260 . S
O181 Eu161 2.480 . S
O182 Eu161 2.430 . S
O182 C168 1.259 . S
O183 Eu161 2.670 1_455 S
O183 C168 1.270 1_455 S
O183 Eu171 2.355 . S
O184 Eu161 2.394 1_455 S
O184 C169 1.251 . S
O185 C169 1.251 . S
O185 Eu171 2.374 . S
O186 C170 1.257 . S
O186 Eu171 2.473 1_554 S
O187 C170 1.260 1_556 S
O187 Eu171 2.480 . S
O188 Eu171 2.430 . S
O188 C178 1.259 . S
O189 Eu161 2.355 1_455 S
O189 Eu171 2.670 . S
O189 C178 1.270 . S
O190 Eu171 2.394 1_655 S
O190 C179 1.251 . S
O191 Eu161 2.374 . S
O191 C179 1.251 . S
H192 C163 0.931 . S
H193 C164 0.931 . S
H194 C166 0.931 . S
H195 C167 0.931 . S
H196 C173 0.931 . S
H197 C174 0.931 . S
H198 C176 0.931 . S
H199 C177 0.931 . S
C200 Eu201 2.835 . S
C200 C202 1.500 . S
C200 O220 1.257 . S
C200 O221 1.260 . S
Eu201 C200 2.835 . S
Eu201 O220 2.473 . S
Eu201 O221 2.480 . S
Eu201 O222 2.430 . S
Eu201 O223 2.670 . S
Eu201 O224 2.394 . S
Eu201 O229 2.355 . S
Eu201 O231 2.374 . S
C202 C200 1.500 . S
C202 C203 1.377 . S
C202 C207 1.377 . S
C203 C202 1.377 . S
C203 C204 1.395 . S
C203 H232 0.931 . S
C204 C203 1.395 . S
C204 C205 1.383 . S
C204 H233 0.931 . S
C205 C204 1.383 . S
C205 C206 1.394 . S
C206 C205 1.394 . S
C206 C207 1.378 . S
C206 H234 0.931 . S
C207 C202 1.377 . S
C207 C206 1.378 . S
C207 H235 0.931 . S
C208 O222 1.259 . S
C208 O223 1.270 . S
C209 O224 1.251 . S
C209 O225 1.251 . S
C210 Eu211 2.835 . S
C210 C212 1.500 . S
C210 O226 1.257 . S
C210 O227 1.260 . S
Eu211 C210 2.835 . S
Eu211 O223 2.355 . S
Eu211 O225 2.374 . S
Eu211 O226 2.473 . S
Eu211 O227 2.480 . S
Eu211 O228 2.430 . S
Eu211 O229 2.670 . S
Eu211 O230 2.394 . S
C212 C210 1.500 . S
C212 C213 1.372 1_554 S
C212 C217 1.377 1_554 S
C213 C212 1.372 1_556 S
C213 C214 1.407 . S
C213 H236 0.924 1_556 S
C214 C213 1.407 . S
C214 C215 1.383 . S
C214 H237 0.931 . S
C215 C214 1.383 . S
C215 C216 1.394 . S
C216 C215 1.394 . S
C216 C217 1.378 . S
C216 H238 0.931 . S
C217 C212 1.377 1_556 S
C217 C216 1.378 . S
C217 H239 0.931 . S
C218 O228 1.259 . S
C218 O229 1.270 . S
C219 O230 1.251 . S
C219 O231 1.251 . S
O220 C200 1.257 . S
O220 Eu201 2.473 . S
O221 C200 1.260 . S
O221 Eu201 2.480 . S
O222 Eu201 2.430 . S
O222 C208 1.259 . S
O223 Eu201 2.670 . S
O223 C208 1.270 . S
O223 Eu211 2.355 . S
O224 Eu201 2.394 . S
O224 C209 1.251 . S
O225 C209 1.251 . S
O225 Eu211 2.374 . S
O226 C210 1.257 . S
O226 Eu211 2.473 . S
O227 C210 1.260 . S
O227 Eu211 2.480 . S
O228 Eu211 2.430 . S
O228 C218 1.259 . S
O229 Eu201 2.355 . S
O229 Eu211 2.670 . S
O229 C218 1.270 . S
O230 Eu211 2.394 . S
O230 C219 1.251 . S
O231 Eu201 2.374 . S
O231 C219 1.251 . S
H232 C203 0.931 . S
H233 C204 0.931 . S
H234 C206 0.931 . S
H235 C207 0.931 . S
H236 C213 0.924 1_554 S
H237 C214 0.931 . S
H238 C216 0.931 . S
H239 C217 0.931 . S
C240 Eu241 2.835 . S
C240 C242 1.500 . S
C240 O260 1.257 . S
C240 O261 1.260 . S
Eu241 C240 2.835 . S
Eu241 O260 2.473 . S
Eu241 O261 2.480 . S
Eu241 O262 2.430 . S
Eu241 O263 2.670 . S
Eu241 O264 2.394 . S
Eu241 O269 2.355 . S
Eu241 O271 2.374 . S
C242 C240 1.500 . S
C242 C243 1.377 . S
C242 C247 1.377 . S
C243 C242 1.377 . S
C243 C244 1.395 . S
C243 H272 0.931 . S
C244 C243 1.395 . S
C244 C245 1.383 . S
C244 H273 0.931 . S
C245 C244 1.383 . S
C245 C246 1.394 . S
C246 C245 1.394 . S
C246 C247 1.378 . S
C246 H274 0.931 . S
C247 C242 1.377 . S
C247 C246 1.378 . S
C247 H275 0.931 . S
C248 O262 1.259 . S
C248 O263 1.270 . S
C249 O264 1.251 . S
C249 O265 1.251 . S
C250 Eu251 2.835 . S
C250 C252 1.500 . S
C250 O266 1.257 . S
C250 O267 1.260 . S
Eu251 C250 2.835 . S
Eu251 O263 2.355 . S
Eu251 O265 2.374 . S
Eu251 O266 2.473 . S
Eu251 O267 2.480 . S
Eu251 O268 2.430 . S
Eu251 O269 2.670 . S
Eu251 O270 2.394 . S
C252 C250 1.500 . S
C252 C253 1.377 . S
C252 C257 1.377 . S
C253 C252 1.377 . S
C253 C254 1.395 . S
C253 H276 0.931 . S
C254 C253 1.395 . S
C254 C255 1.383 . S
C254 H277 0.931 . S
C255 C254 1.383 . S
C255 C256 1.394 . S
C256 C255 1.394 . S
C256 C257 1.378 . S
C256 H278 0.931 . S
C257 C252 1.377 . S
C257 C256 1.378 . S
C257 H279 0.931 . S
C258 O268 1.259 . S
C258 O269 1.270 . S
C259 O270 1.251 . S
C259 O271 1.251 . S
O260 C240 1.257 . S
O260 Eu241 2.473 . S
O261 C240 1.260 . S
O261 Eu241 2.480 . S
O262 Eu241 2.430 . S
O262 C248 1.259 . S
O263 Eu241 2.670 . S
O263 C248 1.270 . S
O263 Eu251 2.355 . S
O264 Eu241 2.394 . S
O264 C249 1.251 . S
O265 C249 1.251 . S
O265 Eu251 2.374 . S
O266 C250 1.257 . S
O266 Eu251 2.473 . S
O267 C250 1.260 . S
O267 Eu251 2.480 . S
O268 Eu251 2.430 . S
O268 C258 1.259 . S
O269 Eu241 2.355 . S
O269 Eu251 2.670 . S
O269 C258 1.270 . S
O270 Eu251 2.394 . S
O270 C259 1.251 . S
O271 Eu241 2.374 . S
O271 C259 1.251 . S
H272 C243 0.931 . S
H273 C244 0.931 . S
H274 C246 0.931 . S
H275 C247 0.931 . S
H276 C253 0.931 . S
H277 C254 0.931 . S
H278 C256 0.931 . S
H279 C257 0.931 . S
C280 Eu281 2.835 . S
C280 C282 1.500 . S
C280 O300 1.257 . S
C280 O301 1.260 . S
Eu281 C280 2.835 . S
Eu281 O300 2.473 . S
Eu281 O301 2.480 . S
Eu281 O302 2.430 . S
Eu281 O303 2.670 . S
Eu281 O304 2.394 . S
Eu281 O309 2.355 . S
Eu281 O311 2.374 . S
C282 C280 1.500 . S
C282 C283 1.377 . S
C282 C287 1.377 . S
C283 C282 1.377 . S
C283 C284 1.395 . S
C283 H312 0.931 . S
C284 C283 1.395 . S
C284 C285 1.383 . S
C284 H313 0.931 . S
C285 C284 1.383 . S
C285 C286 1.394 . S
C286 C285 1.394 . S
C286 C287 1.378 . S
C286 H314 0.931 . S
C287 C282 1.377 . S
C287 C286 1.378 . S
C287 H315 0.931 . S
C288 O302 1.259 . S
C288 O303 1.270 . S
C289 O304 1.251 . S
C289 O305 1.251 . S
C290 Eu291 2.835 . S
C290 C292 1.500 . S
C290 O306 1.257 . S
C290 O307 1.260 . S
Eu291 C290 2.835 . S
Eu291 O303 2.355 . S
Eu291 O305 2.374 . S
Eu291 O306 2.473 . S
Eu291 O307 2.480 . S
Eu291 O308 2.430 . S
Eu291 O309 2.670 . S
Eu291 O310 2.394 . S
C292 C290 1.500 . S
C292 C293 1.377 . S
C292 C297 1.377 . S
C293 C292 1.377 . S
C293 C294 1.395 . S
C293 H316 0.931 . S
C294 C293 1.395 . S
C294 C295 1.383 . S
C294 H317 0.931 . S
C295 C294 1.383 . S
C295 C296 1.394 . S
C296 C295 1.394 . S
C296 C297 1.378 . S
C296 H318 0.931 . S
C297 C292 1.377 . S
C297 C296 1.378 . S
C297 H319 0.931 . S
C298 O308 1.259 . S
C298 O309 1.270 . S
C299 O310 1.251 . S
C299 O311 1.251 . S
O300 C280 1.257 . S
O300 Eu281 2.473 . S
O301 C280 1.260 . S
O301 Eu281 2.480 . S
O302 Eu281 2.430 . S
O302 C288 1.259 . S
O303 Eu281 2.670 . S
O303 C288 1.270 . S
O303 Eu291 2.355 . S
O304 Eu281 2.394 . S
O304 C289 1.251 . S
O305 C289 1.251 . S
O305 Eu291 2.374 . S
O306 C290 1.257 . S
O306 Eu291 2.473 . S
O307 C290 1.260 . S
O307 Eu291 2.480 . S
O308 Eu291 2.430 . S
O308 C298 1.259 . S
O309 Eu281 2.355 . S
O309 Eu291 2.670 . S
O309 C298 1.270 . S
O310 Eu291 2.394 . S
O310 C299 1.251 . S
O311 Eu281 2.374 . S
O311 C299 1.251 . S
H312 C283 0.931 . S
H313 C284 0.931 . S
H314 C286 0.931 . S
H315 C287 0.931 . S
H316 C293 0.931 . S
H317 C294 0.931 . S
H318 C296 0.931 . S
H319 C297 0.931 . S
C320 Eu321 2.835 . S
C320 C322 1.500 . S
C320 O340 1.257 . S
C320 O341 1.260 . S
Eu321 C320 2.835 . S
Eu321 O340 2.473 . S
Eu321 O341 2.480 . S
Eu321 O342 2.430 . S
Eu321 O343 2.670 . S
Eu321 O344 2.394 . S
Eu321 O349 2.355 . S
Eu321 O351 2.374 . S
C322 C320 1.500 . S
C322 C323 1.377 . S
C322 C327 1.377 . S
C323 C322 1.377 . S
C323 C324 1.395 . S
C323 H352 0.931 . S
C324 C323 1.395 . S
C324 C325 1.383 . S
C324 H353 0.931 . S
C325 C324 1.383 . S
C325 C326 1.394 . S
C326 C325 1.394 . S
C326 C327 1.378 . S
C326 H354 0.931 . S
C327 C322 1.377 . S
C327 C326 1.378 . S
C327 H355 0.931 . S
C328 O342 1.259 . S
C328 O343 1.270 . S
C329 O344 1.251 . S
C329 O345 1.251 . S
C330 Eu331 2.835 . S
C330 C332 1.500 . S
C330 O346 1.257 . S
C330 O347 1.260 . S
Eu331 C330 2.835 . S
Eu331 O343 2.355 . S
Eu331 O345 2.374 . S
Eu331 O346 2.473 . S
Eu331 O347 2.480 . S
Eu331 O348 2.430 . S
Eu331 O349 2.670 . S
Eu331 O350 2.394 . S
C332 C330 1.500 . S
C332 C333 1.377 . S
C332 C337 1.377 . S
C333 C332 1.377 . S
C333 C334 1.395 . S
C333 H356 0.931 . S
C334 C333 1.395 . S
C334 C335 1.383 . S
C334 H357 0.931 . S
C335 C334 1.383 . S
C335 C336 1.394 . S
C336 C335 1.394 . S
C336 C337 1.378 . S
C336 H358 0.931 . S
C337 C332 1.377 . S
C337 C336 1.378 . S
C337 H359 0.931 . S
C338 O348 1.259 . S
C338 O349 1.270 . S
C339 O350 1.251 . S
C339 O351 1.251 . S
O340 C320 1.257 . S
O340 Eu321 2.473 . S
O341 C320 1.260 . S
O341 Eu321 2.480 . S
O342 Eu321 2.430 . S
O342 C328 1.259 . S
O343 Eu321 2.670 . S
O343 C328 1.270 . S
O343 Eu331 2.355 . S
O344 Eu321 2.394 . S
O344 C329 1.251 . S
O345 C329 1.251 . S
O345 Eu331 2.374 . S
O346 C330 1.257 . S
O346 Eu331 2.473 . S
O347 C330 1.260 . S
O347 Eu331 2.480 . S
O348 Eu331 2.430 . S
O348 C338 1.259 . S
O349 Eu321 2.355 . S
O349 Eu331 2.670 . S
O349 C338 1.270 . S
O350 Eu331 2.394 . S
O350 C339 1.251 . S
O351 Eu321 2.374 . S
O351 C339 1.251 . S
H352 C323 0.931 . S
H353 C324 0.931 . S
H354 C326 0.931 . S
H355 C327 0.931 . S
H356 C333 0.931 . S
H357 C334 0.931 . S
H358 C336 0.931 . S
H359 C337 0.931 . S
C360 Eu361 2.835 . S
C360 C362 1.500 1_554 S
C360 O380 1.257 . S
C360 O381 1.260 . S
Eu361 C360 2.835 . S
Eu361 O380 2.473 . S
Eu361 O381 2.480 . S
Eu361 O382 2.430 . S
Eu361 O383 2.670 . S
Eu361 O384 2.394 . S
Eu361 O389 2.355 . S
Eu361 O391 2.374 . S
C362 C360 1.500 1_556 S
C362 C363 1.377 . S
C362 C367 1.377 . S
C363 C362 1.377 . S
C363 C364 1.395 . S
C363 H392 0.931 . S
C364 C363 1.395 . S
C364 C365 1.383 . S
C364 H393 0.931 . S
C365 C364 1.383 . S
C365 C366 1.394 . S
C366 C365 1.394 . S
C366 C367 1.378 . S
C366 H394 0.931 . S
C367 C362 1.377 . S
C367 C366 1.378 . S
C367 H395 0.931 . S
C368 O382 1.259 . S
C368 O383 1.270 . S
C369 O384 1.251 . S
C369 O385 1.251 . S
C370 Eu371 2.835 . S
C370 C372 1.500 . S
C370 O386 1.257 . S
C370 O387 1.260 . S
Eu371 C370 2.835 . S
Eu371 O383 2.355 . S
Eu371 O385 2.374 . S
Eu371 O386 2.473 . S
Eu371 O387 2.480 . S
Eu371 O388 2.430 . S
Eu371 O389 2.670 . S
Eu371 O390 2.394 . S
C372 C370 1.500 . S
C372 C373 1.377 . S
C372 C377 1.377 . S
C373 C372 1.377 . S
C373 C374 1.395 . S
C373 H396 0.931 . S
C374 C373 1.395 . S
C374 C375 1.383 . S
C374 H397 0.931 . S
C375 C374 1.383 . S
C375 C376 1.394 . S
C376 C375 1.394 . S
C376 C377 1.378 . S
C376 H398 0.931 . S
C377 C372 1.377 . S
C377 C376 1.378 . S
C377 H399 0.931 . S
C378 O388 1.259 . S
C378 O389 1.270 . S
C379 O390 1.251 . S
C379 O391 1.251 . S
O380 C360 1.257 . S
O380 Eu361 2.473 . S
O381 C360 1.260 . S
O381 Eu361 2.480 . S
O382 Eu361 2.430 . S
O382 C368 1.259 . S
O383 Eu361 2.670 . S
O383 C368 1.270 . S
O383 Eu371 2.355 . S
O384 Eu361 2.394 . S
O384 C369 1.251 . S
O385 C369 1.251 . S
O385 Eu371 2.374 . S
O386 C370 1.257 . S
O386 Eu371 2.473 . S
O387 C370 1.260 . S
O387 Eu371 2.480 . S
O388 Eu371 2.430 . S
O388 C378 1.259 . S
O389 Eu361 2.355 . S
O389 Eu371 2.670 . S
O389 C378 1.270 . S
O390 Eu371 2.394 . S
O390 C379 1.251 . S
O391 Eu361 2.374 . S
O391 C379 1.251 . S
H392 C363 0.931 . S
H393 C364 0.931 . S
H394 C366 0.931 . S
H395 C367 0.931 . S
H396 C373 0.931 . S
H397 C374 0.931 . S
H398 C376 0.931 . S
H399 C377 0.931 . S
C400 Eu401 2.835 . S
C400 C402 1.500 . S
C400 O420 1.257 . S
C400 O421 1.260 . S
Eu401 C400 2.835 . S
Eu401 O420 2.473 . S
Eu401 O421 2.480 . S
Eu401 O422 2.430 . S
Eu401 O423 2.670 . S
Eu401 O424 2.394 . S
Eu401 O429 2.355 . S
Eu401 O431 2.374 . S
C402 C400 1.500 . S
C402 C403 1.377 . S
C402 C407 1.377 . S
C403 C402 1.377 . S
C403 C404 1.395 . S
C403 H432 0.931 . S
C404 C403 1.395 . S
C404 C405 1.383 . S
C404 H433 0.931 . S
C405 C404 1.383 . S
C405 C406 1.394 . S
C406 C405 1.394 . S
C406 C407 1.378 . S
C406 H434 0.931 . S
C407 C402 1.377 . S
C407 C406 1.378 . S
C407 H435 0.931 . S
C408 O422 1.259 . S
C408 O423 1.270 . S
C409 O424 1.251 . S
C409 O425 1.251 . S
C410 Eu411 2.835 1_554 S
C410 C412 1.500 . S
C410 O426 1.257 . S
C410 O427 1.260 . S
Eu411 C410 2.835 1_556 S
Eu411 O423 2.355 . S
Eu411 O425 2.374 . S
Eu411 O426 2.473 1_556 S
Eu411 O427 2.480 1_556 S
Eu411 O428 2.430 . S
Eu411 O429 2.670 . S
Eu411 O430 2.394 . S
C412 C410 1.500 . S
C412 C413 1.377 . S
C412 C417 1.377 . S
C413 C412 1.377 . S
C413 C414 1.395 . S
C413 H436 0.931 . S
C414 C413 1.395 . S
C414 C415 1.383 . S
C414 H437 0.931 . S
C415 C414 1.383 . S
C415 C416 1.394 . S
C416 C415 1.394 . S
C416 C417 1.378 . S
C416 H438 0.931 . S
C417 C412 1.377 . S
C417 C416 1.378 . S
C417 H439 0.931 . S
C418 O428 1.259 . S
C418 O429 1.270 . S
C419 O430 1.251 . S
C419 O431 1.251 . S
O420 C400 1.257 . S
O420 Eu401 2.473 . S
O421 C400 1.260 . S
O421 Eu401 2.480 . S
O422 Eu401 2.430 . S
O422 C408 1.259 . S
O423 Eu401 2.670 . S
O423 C408 1.270 . S
O423 Eu411 2.355 . S
O424 Eu401 2.394 . S
O424 C409 1.251 . S
O425 C409 1.251 . S
O425 Eu411 2.374 . S
O426 C410 1.257 . S
O426 Eu411 2.473 1_554 S
O427 C410 1.260 . S
O427 Eu411 2.480 1_554 S
O428 Eu411 2.430 . S
O428 C418 1.259 . S
O429 Eu401 2.355 . S
O429 Eu411 2.670 . S
O429 C418 1.270 . S
O430 Eu411 2.394 . S
O430 C419 1.251 . S
O431 Eu401 2.374 . S
O431 C419 1.251 . S
H432 C403 0.931 . S
H433 C404 0.931 . S
H434 C406 0.931 . S
H435 C407 0.931 . S
H436 C413 0.931 . S
H437 C414 0.931 . S
H438 C416 0.931 . S
H439 C417 0.931 . S
C440 Eu441 2.835 . S
C440 C442 1.500 . S
C440 O460 1.257 . S
C440 O461 1.260 . S
Eu441 C440 2.835 . S
Eu441 O460 2.473 . S
Eu441 O461 2.480 . S
Eu441 O462 2.430 . S
Eu441 O463 2.670 . S
Eu441 O464 2.394 . S
Eu441 O469 2.355 . S
Eu441 O471 2.374 . S
C442 C440 1.500 . S
C442 C443 1.377 . S
C442 C447 1.377 . S
C443 C442 1.377 . S
C443 C444 1.395 . S
C443 H472 0.931 . S
C444 C443 1.395 . S
C444 C445 1.383 . S
C444 H473 0.931 . S
C445 C444 1.383 . S
C445 C446 1.394 . S
C446 C445 1.394 . S
C446 C447 1.378 . S
C446 H474 0.931 . S
C447 C442 1.377 . S
C447 C446 1.378 . S
C447 H475 0.931 . S
C448 O462 1.259 . S
C448 O463 1.270 . S
C449 O464 1.251 . S
C449 O465 1.251 . S
C450 Eu451 2.835 . S
C450 C452 1.500 . S
C450 O466 1.257 . S
C450 O467 1.260 . S
Eu451 C450 2.835 . S
Eu451 O463 2.355 . S
Eu451 O465 2.374 . S
Eu451 O466 2.473 . S
Eu451 O467 2.480 . S
Eu451 O468 2.430 . S
Eu451 O469 2.670 . S
Eu451 O470 2.394 . S
C452 C450 1.500 . S
C452 C453 1.377 . S
C452 C457 1.377 . S
C453 C452 1.377 . S
C453 C454 1.395 . S
C453 H476 0.931 . S
C454 C453 1.395 . S
C454 C455 1.383 . S
C454 H477 0.931 . S
C455 C454 1.383 . S
C455 C456 1.394 . S
C456 C455 1.394 . S
C456 C457 1.378 . S
C456 H478 0.931 . S
C457 C452 1.377 . S
C457 C456 1.378 . S
C457 H479 0.931 . S
C458 O468 1.259 . S
C458 O469 1.270 . S
C459 O470 1.251 . S
C459 O471 1.251 . S
O460 C440 1.257 . S
O460 Eu441 2.473 . S
O461 C440 1.260 . S
O461 Eu441 2.480 . S
O462 Eu441 2.430 . S
O462 C448 1.259 . S
O463 Eu441 2.670 . S
O463 C448 1.270 . S
O463 Eu451 2.355 . S
O464 Eu441 2.394 . S
O464 C449 1.251 . S
O465 C449 1.251 . S
O465 Eu451 2.374 . S
O466 C450 1.257 . S
O466 Eu451 2.473 . S
O467 C450 1.260 . S
O467 Eu451 2.480 . S
O468 Eu451 2.430 . S
O468 C458 1.259 . S
O469 Eu441 2.355 . S
O469 Eu451 2.670 . S
O469 C458 1.270 . S
O470 Eu451 2.394 . S
O470 C459 1.251 . S
O471 Eu441 2.374 . S
O471 C459 1.251 . S
H472 C443 0.931 . S
H473 C444 0.931 . S
H474 C446 0.931 . S
H475 C447 0.931 . S
H476 C453 0.931 . S
H477 C454 0.931 . S
H478 C456 0.931 . S
H479 C457 0.931 . S
C480 Eu481 2.835 . S
C480 C482 1.500 . S
C480 O500 1.257 . S
C480 O501 1.260 . S
Eu481 C480 2.835 . S
Eu481 O500 2.473 . S
Eu481 O501 2.480 . S
Eu481 O502 2.430 . S
Eu481 O503 2.670 . S
Eu481 O504 2.394 . S
Eu481 O509 2.355 . S
Eu481 O511 2.374 . S
C482 C480 1.500 . S
C482 C483 1.377 . S
C482 C487 1.377 . S
C483 C482 1.377 . S
C483 C484 1.395 . S
C483 H512 0.931 . S
C484 C483 1.395 . S
C484 C485 1.383 . S
C484 H513 0.931 . S
C485 C484 1.383 . S
C485 C486 1.394 . S
C486 C485 1.394 . S
C486 C487 1.378 . S
C486 H514 0.931 . S
C487 C482 1.377 . S
C487 C486 1.378 . S
C487 H515 0.931 . S
C488 O502 1.259 . S
C488 O503 1.270 . S
C489 O504 1.251 . S
C489 O505 1.251 . S
C490 Eu491 2.835 . S
C490 C492 1.500 . S
C490 O506 1.257 . S
C490 O507 1.260 . S
Eu491 C490 2.835 . S
Eu491 O503 2.355 . S
Eu491 O505 2.374 . S
Eu491 O506 2.473 . S
Eu491 O507 2.480 . S
Eu491 O508 2.430 . S
Eu491 O509 2.670 . S
Eu491 O510 2.394 . S
C492 C490 1.500 . S
C492 C493 1.377 . S
C492 C497 1.377 . S
C493 C492 1.377 . S
C493 C494 1.395 . S
C493 H516 0.931 . S
C494 C493 1.395 . S
C494 C495 1.383 . S
C494 H517 0.931 . S
C495 C494 1.383 . S
C495 C496 1.394 . S
C496 C495 1.394 . S
C496 C497 1.378 . S
C496 H518 0.931 . S
C497 C492 1.377 . S
C497 C496 1.378 . S
C497 H519 0.931 . S
C498 O508 1.259 . S
C498 O509 1.270 . S
C499 O510 1.251 . S
C499 O511 1.251 . S
O500 C480 1.257 . S
O500 Eu481 2.473 . S
O501 C480 1.260 . S
O501 Eu481 2.480 . S
O502 Eu481 2.430 . S
O502 C488 1.259 . S
O503 Eu481 2.670 . S
O503 C488 1.270 . S
O503 Eu491 2.355 . S
O504 Eu481 2.394 . S
O504 C489 1.251 . S
O505 C489 1.251 . S
O505 Eu491 2.374 . S
O506 C490 1.257 . S
O506 Eu491 2.473 . S
O507 C490 1.260 . S
O507 Eu491 2.480 . S
O508 Eu491 2.430 . S
O508 C498 1.259 . S
O509 Eu481 2.355 . S
O509 Eu491 2.670 . S
O509 C498 1.270 . S
O510 Eu491 2.394 . S
O510 C499 1.251 . S
O511 Eu481 2.374 . S
O511 C499 1.251 . S
H512 C483 0.931 . S
H513 C484 0.931 . S
H514 C486 0.931 . S
H515 C487 0.931 . S
H516 C493 0.931 . S
H517 C494 0.931 . S
H518 C496 0.931 . S
H519 C497 0.931 . S
C520 Eu521 2.835 1_556 S
C520 C522 1.500 . S
C520 O540 1.257 . S
C520 O541 1.260 . S
Eu521 C520 2.835 1_554 S
Eu521 O540 2.473 1_554 S
Eu521 O541 2.480 1_554 S
Eu521 O542 2.430 . S
Eu521 O543 2.670 . S
Eu521 O544 2.394 1_554 S
Eu521 O549 2.355 . S
Eu521 O551 2.374 . S
C522 C520 1.500 . S
C522 C523 1.377 . S
C522 C527 1.377 . S
C523 C522 1.377 . S
C523 C524 1.395 . S
C523 H552 0.931 . S
C524 C523 1.395 . S
C524 C525 1.383 . S
C524 H553 0.931 . S
C525 C524 1.383 . S
C525 C526 1.394 . S
C526 C525 1.394 . S
C526 C527 1.378 . S
C526 H554 0.931 . S
C527 C522 1.377 . S
C527 C526 1.378 . S
C527 H555 0.931 . S
C528 O542 1.259 . S
C528 O543 1.270 . S
C529 O544 1.251 . S
C529 O545 1.251 1_556 S
C530 Eu531 2.835 1_655 S
C530 C532 1.500 . S
C530 O546 1.257 1_655 S
C530 O547 1.260 . S
Eu531 C530 2.835 1_455 S
Eu531 O543 2.355 . S
Eu531 O545 2.374 . S
Eu531 O546 2.473 . S
Eu531 O547 2.480 1_455 S
Eu531 O548 2.430 . S
Eu531 O549 2.670 . S
Eu531 O550 2.394 . S
C532 C530 1.500 . S
C532 C533 1.377 . S
C532 C537 1.377 . S
C533 C532 1.377 . S
C533 C534 1.395 . S
C533 H556 0.931 . S
C534 C533 1.395 . S
C534 C535 1.383 . S
C534 H557 0.931 . S
C535 C534 1.383 . S
C535 C536 1.394 . S
C536 C535 1.394 . S
C536 C537 1.378 . S
C536 H558 0.931 . S
C537 C532 1.377 . S
C537 C536 1.378 . S
C537 H559 0.926 1_655 S
C538 O548 1.259 . S
C538 O549 1.270 . S
C539 O550 1.251 . S
C539 O551 1.251 . S
O540 C520 1.257 . S
O540 Eu521 2.473 1_556 S
O541 C520 1.260 . S
O541 Eu521 2.480 1_556 S
O542 Eu521 2.430 . S
O542 C528 1.259 . S
O543 Eu521 2.670 . S
O543 C528 1.270 . S
O543 Eu531 2.355 . S
O544 Eu521 2.394 1_556 S
O544 C529 1.251 . S
O545 C529 1.251 1_554 S
O545 Eu531 2.374 . S
O546 C530 1.257 1_455 S
O546 Eu531 2.473 . S
O547 C530 1.260 . S
O547 Eu531 2.480 1_655 S
O548 Eu531 2.430 . S
O548 C538 1.259 . S
O549 Eu521 2.355 . S
O549 Eu531 2.670 . S
O549 C538 1.270 . S
O550 Eu531 2.394 . S
O550 C539 1.251 . S
O551 Eu521 2.374 . S
O551 C539 1.251 . S
H552 C523 0.931 . S
H553 C524 0.931 . S
H554 C526 0.931 . S
H555 C527 0.931 . S
H556 C533 0.931 . S
H557 C534 0.931 . S
H558 C536 0.931 . S
H559 C537 0.926 1_455 S
C560 Eu561 2.835 . S
C560 C562 1.500 . S
C560 O580 1.257 . S
C560 O581 1.260 . S
Eu561 C560 2.835 . S
Eu561 O580 2.473 . S
Eu561 O581 2.480 . S
Eu561 O582 2.430 . S
Eu561 O583 2.670 . S
Eu561 O584 2.394 . S
Eu561 O589 2.355 . S
Eu561 O591 2.374 . S
C562 C560 1.500 . S
C562 C563 1.377 . S
C562 C567 1.377 . S
C563 C562 1.377 . S
C563 C564 1.395 . S
C563 H592 0.931 . S
C564 C563 1.395 . S
C564 C565 1.383 . S
C564 H593 0.931 . S
C565 C564 1.383 . S
C565 C566 1.394 . S
C566 C565 1.394 . S
C566 C567 1.378 . S
C566 H594 0.931 . S
C567 C562 1.377 . S
C567 C566 1.378 . S
C567 H595 0.931 . S
C568 O582 1.259 . S
C568 O583 1.270 . S
C569 O584 1.251 . S
C569 O585 1.251 . S
C570 Eu571 2.835 . S
C570 C572 1.500 . S
C570 O586 1.257 . S
C570 O587 1.260 . S
Eu571 C570 2.835 . S
Eu571 O583 2.355 . S
Eu571 O585 2.374 . S
Eu571 O586 2.473 . S
Eu571 O587 2.480 . S
Eu571 O588 2.430 . S
Eu571 O589 2.670 . S
Eu571 O590 2.394 . S
C572 C570 1.500 . S
C572 C573 1.377 . S
C572 C577 1.377 . S
C573 C572 1.377 . S
C573 C574 1.395 . S
C573 H596 0.931 . S
C574 C573 1.395 . S
C574 C575 1.383 . S
C574 H597 0.931 . S
C575 C574 1.383 . S
C575 C576 1.394 . S
C576 C575 1.394 . S
C576 C577 1.378 . S
C576 H598 0.931 . S
C577 C572 1.377 . S
C577 C576 1.378 . S
C577 H599 0.931 . S
C578 O588 1.259 . S
C578 O589 1.270 . S
C579 O590 1.251 . S
C579 O591 1.251 . S
O580 C560 1.257 . S
O580 Eu561 2.473 . S
O581 C560 1.260 . S
O581 Eu561 2.480 . S
O582 Eu561 2.430 . S
O582 C568 1.259 . S
O583 Eu561 2.670 . S
O583 C568 1.270 . S
O583 Eu571 2.355 . S
O584 Eu561 2.394 . S
O584 C569 1.251 . S
O585 C569 1.251 . S
O585 Eu571 2.374 . S
O586 C570 1.257 . S
O586 Eu571 2.473 . S
O587 C570 1.260 . S
O587 Eu571 2.480 . S
O588 Eu571 2.430 . S
O588 C578 1.259 . S
O589 Eu561 2.355 . S
O589 Eu571 2.670 . S
O589 C578 1.270 . S
O590 Eu571 2.394 . S
O590 C579 1.251 . S
O591 Eu561 2.374 . S
O591 C579 1.251 . S
H592 C563 0.931 . S
H593 C564 0.931 . S
H594 C566 0.931 . S
H595 C567 0.931 . S
H596 C573 0.931 . S
H597 C574 0.931 . S
H598 C576 0.931 . S
H599 C577 0.931 . S
C600 Eu601 2.835 . S
C600 C602 1.500 1_556 S
C600 O620 1.257 . S
C600 O621 1.260 . S
Eu601 C600 2.835 . S
Eu601 O620 2.473 . S
Eu601 O621 2.480 . S
Eu601 O622 2.430 . S
Eu601 O623 2.670 . S
Eu601 O624 2.394 . S
Eu601 O629 2.355 . S
Eu601 O631 2.374 . S
C602 C600 1.500 1_554 S
C602 C603 1.377 . S
C602 C607 1.377 . S
C603 C602 1.377 . S
C603 C604 1.395 . S
C603 H632 0.931 . S
C604 C603 1.395 . S
C604 C605 1.383 . S
C604 H633 0.931 . S
C605 C604 1.383 . S
C605 C606 1.394 . S
C606 C605 1.394 . S
C606 C607 1.378 . S
C606 H634 0.931 . S
C607 C602 1.377 . S
C607 C606 1.378 . S
C607 H635 0.931 . S
C608 O622 1.259 . S
C608 O623 1.270 . S
C609 O624 1.251 . S
C609 O625 1.251 . S
C610 Eu611 2.835 . S
C610 C612 1.500 1_455 S
C610 O626 1.257 . S
C610 O627 1.260 . S
Eu611 C610 2.835 . S
Eu611 O623 2.355 . S
Eu611 O625 2.374 . S
Eu611 O626 2.473 . S
Eu611 O627 2.480 . S
Eu611 O628 2.430 . S
Eu611 O629 2.670 . S
Eu611 O630 2.394 . S
C612 C610 1.500 1_655 S
C612 C613 1.377 . S
C612 C617 1.377 . S
C613 C612 1.377 . S
C613 C614 1.395 . S
C613 H636 0.931 . S
C614 C613 1.395 . S
C614 C615 1.383 . S
C614 H637 0.931 . S
C615 C614 1.383 . S
C615 C616 1.394 . S
C616 C615 1.394 . S
C616 C617 1.378 . S
C616 H638 0.931 . S
C617 C612 1.377 . S
C617 C616 1.378 . S
C617 H639 0.931 1_655 S
C618 O628 1.259 . S
C618 O629 1.270 . S
C619 O630 1.251 . S
C619 O631 1.251 . S
O620 C600 1.257 . S
O620 Eu601 2.473 . S
O621 C600 1.260 . S
O621 Eu601 2.480 . S
O622 Eu601 2.430 . S
O622 C608 1.259 . S
O623 Eu601 2.670 . S
O623 C608 1.270 . S
O623 Eu611 2.355 . S
O624 Eu601 2.394 . S
O624 C609 1.251 . S
O625 C609 1.251 . S
O625 Eu611 2.374 . S
O626 C610 1.257 . S
O626 Eu611 2.473 . S
O627 C610 1.260 . S
O627 Eu611 2.480 . S
O628 Eu611 2.430 . S
O628 C618 1.259 . S
O629 Eu601 2.355 . S
O629 Eu611 2.670 . S
O629 C618 1.270 . S
O630 Eu611 2.394 . S
O630 C619 1.251 . S
O631 Eu601 2.374 . S
O631 C619 1.251 . S
H632 C603 0.931 . S
H633 C604 0.931 . S
H634 C606 0.931 . S
H635 C607 0.931 . S
H636 C613 0.931 . S
H637 C614 0.931 . S
H638 C616 0.931 . S
H639 C617 0.931 1_455 S
H640 C646 0.930 . S
H641 C649 0.930 1_554 S
H642 C650 0.930 . S
H643 C651 0.930 . S
H644 C654 0.930 . S
H645 C655 0.930 . S
C646 H640 0.930 . S
C646 C647 1.355 . S
C646 C648 1.415 1_554 S
C647 C646 1.355 . S
C647 C649 1.419 1_554 S
C648 C646 1.415 1_556 S
C648 C653 1.425 . S
C648 C655 1.409 . S
C649 H641 0.930 1_556 S
C649 C647 1.419 1_556 S
C649 C650 1.362 . S
C650 H642 0.930 . S
C650 C649 1.362 . S
C650 C653 1.409 . S
C651 H643 0.930 . S
C651 C652 1.355 . S
C651 C653 1.415 . S
C652 C651 1.355 . S
C652 C654 1.419 . S
C653 C648 1.425 . S
C653 C650 1.409 . S
C653 C651 1.415 . S
C654 H644 0.930 . S
C654 C652 1.419 . S
C654 C655 1.362 . S
C655 H645 0.930 . S
C655 C648 1.409 . S
C655 C654 1.362 . S
H656 C662 0.930 . S
H657 C665 0.930 . S
H658 C666 0.930 . S
H659 C667 0.930 . S
H660 C670 0.930 . S
H661 C671 0.930 . S
C662 H656 0.930 . S
C662 C663 1.355 . S
C662 C664 1.415 . S
C663 C662 1.355 . S
C663 C665 1.419 . S
C664 C662 1.415 . S
C664 C669 1.425 . S
C664 C671 1.409 . S
C665 H657 0.930 . S
C665 C663 1.419 . S
C665 C666 1.362 . S
C666 H658 0.930 . S
C666 C665 1.362 . S
C666 C669 1.409 . S
C667 H659 0.930 . S
C667 C668 1.355 . S
C667 C669 1.415 . S
C668 C667 1.355 . S
C668 C670 1.419 . S
C669 C664 1.425 . S
C669 C666 1.409 . S
C669 C667 1.415 . S
C670 H660 0.930 . S
C670 C668 1.419 . S
C670 C671 1.362 . S
C671 H661 0.930 . S
C671 C664 1.409 . S
C671 C670 1.362 . S
H672 C678 0.930 . S
H673 C681 0.930 . S
H674 C682 0.930 . S
H675 C683 0.930 . S
H676 C686 0.930 . S
H677 C687 0.930 . S
C678 H672 0.930 . S
C678 C679 1.355 . S
C678 C680 1.415 . S
C679 C678 1.355 . S
C679 C681 1.419 . S
C680 C678 1.415 . S
C680 C685 1.425 . S
C680 C687 1.409 . S
C681 H673 0.930 . S
C681 C679 1.419 . S
C681 C682 1.362 . S
C682 H674 0.930 . S
C682 C681 1.362 . S
C682 C685 1.409 . S
C683 H675 0.930 . S
C683 C684 1.355 . S
C683 C685 1.415 . S
C684 C683 1.355 . S
C684 C686 1.419 . S
C685 C680 1.425 . S
C685 C682 1.409 . S
C685 C683 1.415 . S
C686 H676 0.930 . S
C686 C684 1.419 . S
C686 C687 1.362 . S
C687 H677 0.930 . S
C687 C680 1.409 . S
C687 C686 1.362 . S
H688 C694 0.930 . S
H689 C697 0.930 . S
H690 C698 0.930 . S
H691 C699 0.930 . S
H692 C702 0.930 . S
H693 C703 0.930 . S
C694 H688 0.930 . S
C694 C695 1.355 . S
C694 C696 1.415 . S
C695 C694 1.355 . S
C695 C697 1.419 . S
C696 C694 1.415 . S
C696 C701 1.425 . S
C696 C703 1.409 . S
C697 H689 0.930 . S
C697 C695 1.419 . S
C697 C698 1.362 . S
C698 H690 0.930 . S
C698 C697 1.362 . S
C698 C701 1.409 . S
C699 H691 0.930 . S
C699 C700 1.355 . S
C699 C701 1.415 . S
C700 C699 1.355 . S
C700 C702 1.419 . S
C701 C696 1.425 . S
C701 C698 1.409 . S
C701 C699 1.415 . S
C702 H692 0.930 . S
C702 C700 1.419 . S
C702 C703 1.362 . S
C703 H693 0.930 . S
C703 C696 1.409 . S
C703 C702 1.362 . S
H704 C710 0.930 . S
H705 C713 0.930 . S
H706 C714 0.930 . S
H707 C715 0.931 . S
H708 C718 0.930 . S
H709 C719 0.930 . S
C710 H704 0.930 . S
C710 C711 1.355 . S
C710 C712 1.415 . S
C711 C710 1.355 . S
C711 C713 1.419 . S
C712 C710 1.415 . S
C712 C717 1.425 . S
C712 C719 1.409 . S
C713 H705 0.930 . S
C713 C711 1.419 . S
C713 C714 1.362 . S
C714 H706 0.930 . S
C714 C713 1.362 . S
C714 C717 1.409 . S
C715 H707 0.931 . S
C715 C716 1.355 1_554 S
C715 C717 1.415 . S
C716 C715 1.355 1_556 S
C716 C718 1.419 . S
C717 C712 1.425 . S
C717 C714 1.409 . S
C717 C715 1.415 . S
C718 H708 0.930 . S
C718 C716 1.419 . S
C718 C719 1.362 1_556 S
C719 H709 0.930 . S
C719 C712 1.409 . S
C719 C718 1.362 1_554 S
H720 C726 0.930 . S
H721 C729 0.930 . S
H722 C730 0.930 . S
H723 C731 0.930 . S
H724 C734 0.930 1_455 S
H725 C735 0.930 . S
C726 H720 0.930 . S
C726 C727 1.355 . S
C726 C728 1.415 . S
C727 C726 1.355 . S
C727 C729 1.419 . S
C728 C726 1.415 . S
C728 C733 1.425 . S
C728 C735 1.409 . S
C729 H721 0.930 . S
C729 C727 1.419 . S
C729 C730 1.362 . S
C730 H722 0.930 . S
C730 C729 1.362 . S
C730 C733 1.409 . S
C731 H723 0.930 . S
C731 C732 1.355 . S
C731 C733 1.415 . S
C732 C731 1.355 . S
C732 C734 1.419 . S
C733 C728 1.425 . S
C733 C730 1.409 . S
C733 C731 1.415 . S
C734 H724 0.930 1_655 S
C734 C732 1.419 . S
C734 C735 1.362 . S
C735 H725 0.930 . S
C735 C728 1.409 . S
C735 C734 1.362 . S
H736 C742 0.930 . S
H737 C745 0.930 . S
H738 C746 0.930 . S
H739 C747 0.930 . S
H740 C750 0.930 . S
H741 C751 0.930 . S
C742 H736 0.930 . S
C742 C743 1.355 . S
C742 C744 1.415 . S
C743 C742 1.355 . S
C743 C745 1.419 . S
C744 C742 1.415 . S
C744 C749 1.425 . S
C744 C751 1.409 . S
C745 H737 0.930 . S
C745 C743 1.419 . S
C745 C746 1.362 . S
C746 H738 0.930 . S
C746 C745 1.362 . S
C746 C749 1.409 . S
C747 H739 0.930 . S
C747 C748 1.355 . S
C747 C749 1.415 . S
C748 C747 1.355 . S
C748 C750 1.419 . S
C749 C744 1.425 . S
C749 C746 1.409 . S
C749 C747 1.415 . S
C750 H740 0.930 . S
C750 C748 1.419 . S
C750 C751 1.362 . S
C751 H741 0.930 . S
C751 C744 1.409 . S
C751 C750 1.362 . S
H752 C758 0.930 . S
H753 C761 0.930 . S
H754 C762 0.930 . S
H755 C763 0.930 . S
H756 C766 0.930 . S
H757 C767 0.930 . S
C758 H752 0.930 . S
C758 C759 1.355 . S
C758 C760 1.415 . S
C759 C758 1.355 . S
C759 C761 1.419 . S
C760 C758 1.415 . S
C760 C765 1.425 . S
C760 C767 1.409 . S
C761 H753 0.930 . S
C761 C759 1.419 . S
C761 C762 1.362 . S
C762 H754 0.930 . S
C762 C761 1.362 . S
C762 C765 1.409 . S
C763 H755 0.930 . S
C763 C764 1.355 . S
C763 C765 1.415 . S
C764 C763 1.355 . S
C764 C766 1.419 . S
C765 C760 1.425 . S
C765 C762 1.409 . S
C765 C763 1.415 . S
C766 H756 0.930 . S
C766 C764 1.419 . S
C766 C767 1.362 . S
C767 H757 0.930 . S
C767 C760 1.409 . S
C767 C766 1.362 . S
H768 C774 0.930 . S
H769 C777 0.930 . S
H770 C778 0.930 . S
H771 C779 0.930 . S
H772 C782 0.930 . S
H773 C783 0.930 . S
C774 H768 0.930 . S
C774 C775 1.355 . S
C774 C776 1.415 . S
C775 C774 1.355 . S
C775 C777 1.419 . S
C776 C774 1.415 . S
C776 C781 1.425 . S
C776 C783 1.409 . S
C777 H769 0.930 . S
C777 C775 1.419 . S
C777 C778 1.362 . S
C778 H770 0.930 . S
C778 C777 1.362 . S
C778 C781 1.409 . S
C779 H771 0.930 . S
C779 C780 1.355 . S
C779 C781 1.415 . S
C780 C779 1.355 . S
C780 C782 1.419 . S
C781 C776 1.425 . S
C781 C778 1.409 . S
C781 C779 1.415 . S
C782 H772 0.930 . S
C782 C780 1.419 . S
C782 C783 1.362 . S
C783 H773 0.930 . S
C783 C776 1.409 . S
C783 C782 1.362 . S
H784 C790 0.930 . S
H785 C793 0.930 . S
H786 C794 0.930 . S
H787 C795 0.930 . S
H788 C798 0.930 . S
H789 C799 0.930 . S
C790 H784 0.930 . S
C790 C791 1.355 . S
C790 C792 1.415 . S
C791 C790 1.355 . S
C791 C793 1.419 . S
C792 C790 1.415 . S
C792 C797 1.425 . S
C792 C799 1.409 . S
C793 H785 0.930 . S
C793 C791 1.419 . S
C793 C794 1.362 . S
C794 H786 0.930 . S
C794 C793 1.362 . S
C794 C797 1.409 . S
C795 H787 0.930 . S
C795 C796 1.355 . S
C795 C797 1.415 . S
C796 C795 1.355 . S
C796 C798 1.419 . S
C797 C792 1.425 . S
C797 C794 1.409 . S
C797 C795 1.415 . S
C798 H788 0.930 . S
C798 C796 1.419 . S
C798 C799 1.362 . S
C799 H789 0.930 . S
C799 C792 1.409 . S
C799 C798 1.362 . S
H800 C806 0.930 . S
H801 C809 0.930 . S
H802 C810 0.930 . S
H803 C811 0.930 . S
H804 C814 0.930 . S
H805 C815 0.930 . S
C806 H800 0.930 . S
C806 C807 1.355 1_455 S
C806 C808 1.415 1_455 S
C807 C806 1.355 1_655 S
C807 C809 1.419 . S
C808 C806 1.415 1_655 S
C808 C813 1.425 . S
C808 C815 1.409 1_655 S
C809 H801 0.930 . S
C809 C807 1.419 . S
C809 C810 1.362 . S
C810 H802 0.930 . S
C810 C809 1.362 . S
C810 C813 1.409 . S
C811 H803 0.930 . S
C811 C812 1.355 . S
C811 C813 1.415 . S
C812 C811 1.355 . S
C812 C814 1.419 . S
C813 C808 1.425 . S
C813 C810 1.409 . S
C813 C811 1.415 . S
C814 H804 0.930 . S
C814 C812 1.419 . S
C814 C815 1.362 1_655 S
C815 H805 0.930 . S
C815 C808 1.409 1_455 S
C815 C814 1.362 1_455 S
H816 C822 0.930 . S
H817 C825 0.930 . S
H818 C826 0.930 1_455 S
H819 C827 0.930 . S
H820 C830 0.930 . S
H821 C831 0.930 . S
C822 H816 0.930 . S
C822 C823 1.355 . S
C822 C824 1.415 . S
C823 C822 1.355 . S
C823 C825 1.419 . S
C824 C822 1.415 . S
C824 C829 1.425 . S
C824 C831 1.409 . S
C825 H817 0.930 . S
C825 C823 1.419 . S
C825 C826 1.362 . S
C826 H818 0.930 1_655 S
C826 C825 1.362 . S
C826 C829 1.409 . S
C827 H819 0.930 . S
C827 C828 1.355 1_455 S
C827 C829 1.415 1_455 S
C828 C827 1.355 1_655 S
C828 C830 1.419 . S
C829 C824 1.425 . S
C829 C826 1.409 . S
C829 C827 1.415 1_655 S
C830 H820 0.930 . S
C830 C828 1.419 . S
C830 C831 1.362 . S
C831 H821 0.930 . S
C831 C824 1.409 . S
C831 C830 1.362 . S
H832 C838 0.930 . S
H833 C841 0.930 . S
H834 C842 0.930 . S
H835 C843 0.930 . S
H836 C846 0.930 . S
H837 C847 0.930 . S
C838 H832 0.930 . S
C838 C839 1.355 . S
C838 C840 1.415 . S
C839 C838 1.355 . S
C839 C841 1.419 . S
C840 C838 1.415 . S
C840 C845 1.425 . S
C840 C847 1.409 . S
C841 H833 0.930 . S
C841 C839 1.419 . S
C841 C842 1.362 . S
C842 H834 0.930 . S
C842 C841 1.362 . S
C842 C845 1.409 . S
C843 H835 0.930 . S
C843 C844 1.355 . S
C843 C845 1.415 . S
C844 C843 1.355 . S
C844 C846 1.419 . S
C845 C840 1.425 . S
C845 C842 1.409 . S
C845 C843 1.415 . S
C846 H836 0.930 . S
C846 C844 1.419 . S
C846 C847 1.362 . S
C847 H837 0.930 . S
C847 C840 1.409 . S
C847 C846 1.362 . S
H848 C854 0.930 . S
H849 C857 0.930 . S
H850 C858 0.930 . S
H851 C859 0.930 . S
H852 C862 0.930 . S
H853 C863 0.930 . S
C854 H848 0.930 . S
C854 C855 1.355 . S
C854 C856 1.415 . S
C855 C854 1.355 . S
C855 C857 1.419 . S
C856 C854 1.415 . S
C856 C861 1.425 . S
C856 C863 1.409 . S
C857 H849 0.930 . S
C857 C855 1.419 . S
C857 C858 1.362 . S
C858 H850 0.930 . S
C858 C857 1.362 . S
C858 C861 1.409 . S
C859 H851 0.930 . S
C859 C860 1.355 . S
C859 C861 1.415 . S
C860 C859 1.355 . S
C860 C862 1.419 . S
C861 C856 1.425 . S
C861 C858 1.409 . S
C861 C859 1.415 . S
C862 H852 0.930 . S
C862 C860 1.419 . S
C862 C863 1.362 . S
C863 H853 0.930 . S
C863 C856 1.409 . S
C863 C862 1.362 . S
H864 C870 0.930 . S
H865 C873 0.930 . S
H866 C874 0.930 . S
H867 C875 0.930 . S
H868 C878 0.930 . S
H869 C879 0.930 . S
C870 H864 0.930 . S
C870 C871 1.355 . S
C870 C872 1.415 . S
C871 C870 1.355 . S
C871 C873 1.419 . S
C872 C870 1.415 . S
C872 C877 1.425 . S
C872 C879 1.409 . S
C873 H865 0.930 . S
C873 C871 1.419 . S
C873 C874 1.362 . S
C874 H866 0.930 . S
C874 C873 1.362 . S
C874 C877 1.409 . S
C875 H867 0.930 . S
C875 C876 1.355 . S
C875 C877 1.415 . S
C876 C875 1.355 . S
C876 C878 1.419 . S
C877 C872 1.425 . S
C877 C874 1.409 . S
C877 C875 1.415 . S
C878 H868 0.930 . S
C878 C876 1.419 . S
C878 C879 1.362 . S
C879 H869 0.930 . S
C879 C872 1.409 . S
C879 C878 1.362 . S
H880 C886 0.930 . S
H881 C889 0.930 . S
H882 C890 0.930 . S
H883 C891 0.930 . S
H884 C894 0.930 . S
H885 C895 0.930 . S
C886 H880 0.930 . S
C886 C887 1.355 . S
C886 C888 1.415 . S
C887 C886 1.355 . S
C887 C889 1.419 . S
C888 C886 1.415 . S
C888 C893 1.425 . S
C888 C895 1.409 . S
C889 H881 0.930 . S
C889 C887 1.419 . S
C889 C890 1.362 . S
C890 H882 0.930 . S
C890 C889 1.362 . S
C890 C893 1.409 . S
C891 H883 0.930 . S
C891 C892 1.355 . S
C891 C893 1.415 . S
C892 C891 1.355 . S
C892 C894 1.419 . S
C893 C888 1.425 . S
C893 C890 1.409 . S
C893 C891 1.415 . S
C894 H884 0.930 . S
C894 C892 1.419 . S
C894 C895 1.362 . S
C895 H885 0.930 . S
C895 C888 1.409 . S
C895 C894 1.362 . S
H896 C902 0.930 . S
H897 C905 0.930 . S
H898 C906 0.930 . S
H899 C907 0.930 . S
H900 C910 0.930 . S
H901 C911 0.930 . S
C902 H896 0.930 . S
C902 C903 1.355 . S
C902 C904 1.415 . S
C903 C902 1.355 . S
C903 C905 1.419 . S
C904 C902 1.415 . S
C904 C909 1.425 . S
C904 C911 1.409 . S
C905 H897 0.930 . S
C905 C903 1.419 . S
C905 C906 1.362 . S
C906 H898 0.930 . S
C906 C905 1.362 . S
C906 C909 1.409 . S
C907 H899 0.930 . S
C907 C908 1.355 . S
C907 C909 1.415 . S
C908 C907 1.355 . S
C908 C910 1.419 . S
C909 C904 1.425 . S
C909 C906 1.409 . S
C909 C907 1.415 . S
C910 H900 0.930 . S
C910 C908 1.419 . S
C910 C911 1.362 . S
C911 H901 0.930 . S
C911 C904 1.409 . S
C911 C910 1.362 . S
H912 C918 0.930 . S
H913 C921 0.930 . S
H914 C922 0.930 . S
H915 C923 0.930 . S
H916 C926 0.930 . S
H917 C927 0.930 . S
C918 H912 0.930 . S
C918 C919 1.355 1_655 S
C918 C920 1.415 1_655 S
C919 C918 1.355 1_455 S
C919 C921 1.419 . S
C920 C918 1.415 1_455 S
C920 C925 1.425 . S
C920 C927 1.409 . S
C921 H913 0.930 . S
C921 C919 1.419 . S
C921 C922 1.362 . S
C922 H914 0.930 . S
C922 C921 1.362 . S
C922 C925 1.409 . S
C923 H915 0.930 . S
C923 C924 1.355 . S
C923 C925 1.415 . S
C924 C923 1.355 . S
C924 C926 1.419 . S
C925 C920 1.425 . S
C925 C922 1.409 . S
C925 C923 1.415 . S
C926 H916 0.930 . S
C926 C924 1.419 . S
C926 C927 1.362 . S
C927 H917 0.930 . S
C927 C920 1.409 . S
C927 C926 1.362 . S
H928 C934 0.930 . S
H929 C937 0.930 . S
H930 C938 0.930 . S
H931 C939 0.930 . S
H932 C942 0.930 . S
H933 C943 0.930 . S
C934 H928 0.930 . S
C934 C935 1.355 . S
C934 C936 1.415 . S
C935 C934 1.355 . S
C935 C937 1.419 . S
C936 C934 1.415 . S
C936 C941 1.425 . S
C936 C943 1.409 . S
C937 H929 0.930 . S
C937 C935 1.419 . S
C937 C938 1.362 . S
C938 H930 0.930 . S
C938 C937 1.362 . S
C938 C941 1.409 . S
C939 H931 0.930 . S
C939 C940 1.355 . S
C939 C941 1.415 . S
C940 C939 1.355 . S
C940 C942 1.419 . S
C941 C936 1.425 . S
C941 C938 1.409 . S
C941 C939 1.415 . S
C942 H932 0.930 . S
C942 C940 1.419 . S
C942 C943 1.362 . S
C943 H933 0.930 . S
C943 C936 1.409 . S
C943 C942 1.362 . S
H944 C950 0.930 . S
H945 C953 0.930 . S
H946 C954 0.930 . S
H947 C955 0.930 . S
H948 C958 0.930 . S
H949 C959 0.930 . S
C950 H944 0.930 . S
C950 C951 1.355 . S
C950 C952 1.415 . S
C951 C950 1.355 . S
C951 C953 1.419 . S
C952 C950 1.415 . S
C952 C957 1.425 . S
C952 C959 1.409 . S
C953 H945 0.930 . S
C953 C951 1.419 . S
C953 C954 1.362 . S
C954 H946 0.930 . S
C954 C953 1.362 . S
C954 C957 1.409 . S
C955 H947 0.930 . S
C955 C956 1.355 . S
C955 C957 1.415 . S
C956 C955 1.355 . S
C956 C958 1.419 . S
C957 C952 1.425 . S
C957 C954 1.409 . S
C957 C955 1.415 . S
C958 H948 0.930 . S
C958 C956 1.419 . S
C958 C959 1.362 . S
C959 H949 0.930 . S
C959 C952 1.409 . S
C959 C958 1.362 . S
H960 C966 0.930 . S
H961 C969 0.930 . S
H962 C970 0.930 . S
H963 C971 0.930 . S
H964 C974 0.930 . S
H965 C975 0.930 1_655 S
C966 H960 0.930 . S
C966 C967 1.355 1_655 S
C966 C968 1.415 1_655 S
C967 C966 1.355 1_455 S
C967 C969 1.419 . S
C968 C966 1.415 1_455 S
C968 C973 1.425 . S
C968 C975 1.409 . S
C969 H961 0.930 . S
C969 C967 1.419 . S
C969 C970 1.362 . S
C970 H962 0.930 . S
C970 C969 1.362 . S
C970 C973 1.409 . S
C971 H963 0.930 . S
C971 C972 1.355 . S
C971 C973 1.415 . S
C972 C971 1.355 . S
C972 C974 1.419 . S
C973 C968 1.425 . S
C973 C970 1.409 . S
C973 C971 1.415 . S
C974 H964 0.930 . S
C974 C972 1.419 . S
C974 C975 1.362 . S
C975 H965 0.930 1_455 S
C975 C968 1.409 . S
C975 C974 1.362 . S
H976 C982 0.930 . S
H977 C985 0.930 . S
H978 C986 0.930 . S
H979 C987 0.930 . S
H980 C990 0.930 . S
H981 C991 0.930 . S
C982 H976 0.930 . S
C982 C983 1.355 . S
C982 C984 1.415 . S
C983 C982 1.355 . S
C983 C985 1.419 . S
C984 C982 1.415 . S
C984 C989 1.425 . S
C984 C991 1.409 . S
C985 H977 0.930 . S
C985 C983 1.419 . S
C985 C986 1.362 . S
C986 H978 0.930 . S
C986 C985 1.362 . S
C986 C989 1.409 . S
C987 H979 0.930 . S
C987 C988 1.355 . S
C987 C989 1.415 . S
C988 C987 1.355 . S
C988 C990 1.419 . S
C989 C984 1.425 . S
C989 C986 1.409 . S
C989 C987 1.415 . S
C990 H980 0.930 . S
C990 C988 1.419 . S
C990 C991 1.362 . S
C991 H981 0.930 . S
C991 C984 1.409 . S
C991 C990 1.362 . S
H992 C998 0.930 . S
H993 C1001 0.930 . S
H994 C1002 0.930 . S
H995 C1003 0.930 . S
H996 C1006 0.930 . S
H997 C1007 0.930 . S
C998 H992 0.930 . S
C998 C999 1.355 . S
C998 C1000 1.415 . S
C999 C998 1.355 . S
C999 C1001 1.419 . S
C1000 C998 1.415 . S
C1000 C1005 1.425 . S
C1000 C1007 1.409 . S
C1001 H993 0.930 . S
C1001 C999 1.419 . S
C1001 C1002 1.362 . S
C1002 H994 0.930 . S
C1002 C1001 1.362 . S
C1002 C1005 1.409 . S
C1003 H995 0.930 . S
C1003 C1004 1.355 . S
C1003 C1005 1.415 . S
C1004 C1003 1.355 . S
C1004 C1006 1.419 . S
C1005 C1000 1.425 . S
C1005 C1002 1.409 . S
C1005 C1003 1.415 . S
C1006 H996 0.930 . S
C1006 C1004 1.419 . S
C1006 C1007 1.362 . S
C1007 H997 0.930 . S
C1007 C1000 1.409 . S
C1007 C1006 1.362 . S
H1008 C1014 0.930 . S
H1009 C1017 0.930 . S
H1010 C1018 0.930 . S
H1011 C1019 0.930 1_655 S
H1012 C1022 0.930 . S
H1013 C1023 0.930 . S
C1014 H1008 0.930 . S
C1014 C1015 1.355 . S
C1014 C1016 1.415 . S
C1015 C1014 1.355 . S
C1015 C1017 1.419 . S
C1016 C1014 1.415 . S
C1016 C1021 1.425 . S
C1016 C1023 1.409 . S
C1017 H1009 0.930 . S
C1017 C1015 1.419 . S
C1017 C1018 1.362 . S
C1018 H1010 0.930 . S
C1018 C1017 1.362 . S
C1018 C1021 1.409 . S
C1019 H1011 0.930 1_455 S
C1019 C1020 1.355 1_455 S
C1019 C1021 1.415 . S
C1020 C1019 1.355 1_655 S
C1020 C1022 1.419 1_655 S
C1021 C1016 1.425 . S
C1021 C1018 1.409 . S
C1021 C1019 1.415 . S
C1022 H1012 0.930 . S
C1022 C1020 1.419 1_455 S
C1022 C1023 1.362 . S
C1023 H1013 0.930 . S
C1023 C1016 1.409 . S
C1023 C1022 1.362 . S
H1024 C1030 0.930 . S
H1025 C1033 0.927 1_565 S
H1026 C1034 0.930 . S
H1027 C1035 0.930 . S
H1028 C1038 0.930 . S
H1029 C1039 0.930 . S
C1030 H1024 0.930 . S
C1030 C1031 1.355 . S
C1030 C1032 1.415 . S
C1031 C1030 1.355 . S
C1031 C1033 1.429 . S
C1032 C1030 1.415 . S
C1032 C1037 1.425 1_545 S
C1032 C1039 1.409 1_455 S
C1033 H1025 0.927 1_545 S
C1033 C1031 1.429 . S
C1033 C1034 1.356 1_545 S
C1034 H1026 0.930 . S
C1034 C1033 1.356 1_565 S
C1034 C1037 1.409 . S
C1035 H1027 0.930 . S
C1035 C1036 1.355 . S
C1035 C1037 1.415 1_556 S
C1036 C1035 1.355 . S
C1036 C1038 1.419 1_455 S
C1037 C1032 1.425 1_565 S
C1037 C1034 1.409 . S
C1037 C1035 1.415 1_554 S
C1038 H1028 0.930 . S
C1038 C1036 1.419 1_655 S
C1038 C1039 1.362 1_566 S
C1039 H1029 0.930 . S
C1039 C1032 1.409 1_655 S
C1039 C1038 1.362 1_544 S
H1040 C1046 0.930 . S
H1041 C1049 0.930 . S
H1042 C1050 0.930 . S
H1043 C1051 0.930 . S
H1044 C1054 0.930 . S
H1045 C1055 0.930 . S
C1046 H1040 0.930 . S
C1046 C1047 1.355 . S
C1046 C1048 1.415 . S
C1047 C1046 1.355 . S
C1047 C1049 1.419 . S
C1048 C1046 1.415 . S
C1048 C1053 1.425 . S
C1048 C1055 1.409 . S
C1049 H1041 0.930 . S
C1049 C1047 1.419 . S
C1049 C1050 1.362 . S
C1050 H1042 0.930 . S
C1050 C1049 1.362 . S
C1050 C1053 1.409 . S
C1051 H1043 0.930 . S
C1051 C1052 1.355 . S
C1051 C1053 1.415 . S
C1052 C1051 1.355 . S
C1052 C1054 1.419 . S
C1053 C1048 1.425 . S
C1053 C1050 1.409 . S
C1053 C1051 1.415 . S
C1054 H1044 0.930 . S
C1054 C1052 1.419 . S
C1054 C1055 1.362 . S
C1055 H1045 0.930 . S
C1055 C1048 1.409 . S
C1055 C1054 1.362 . S
H1056 C1062 0.930 . S
H1057 C1065 0.930 . S
H1058 C1066 0.930 . S
H1059 C1067 0.930 . S
H1060 C1070 0.930 . S
H1061 C1071 0.930 . S
C1062 H1056 0.930 . S
C1062 C1063 1.355 . S
C1062 C1064 1.415 1_545 S
C1063 C1062 1.355 . S
C1063 C1065 1.419 . S
C1064 C1062 1.415 1_565 S
C1064 C1069 1.425 . S
C1064 C1071 1.409 . S
C1065 H1057 0.930 . S
C1065 C1063 1.419 . S
C1065 C1066 1.362 1_545 S
C1066 H1058 0.930 . S
C1066 C1065 1.362 1_565 S
C1066 C1069 1.409 . S
C1067 H1059 0.930 . S
C1067 C1068 1.355 . S
C1067 C1069 1.415 . S
C1068 C1067 1.355 . S
C1068 C1070 1.419 . S
C1069 C1064 1.425 . S
C1069 C1066 1.409 . S
C1069 C1067 1.415 . S
C1070 H1060 0.930 . S
C1070 C1068 1.419 . S
C1070 C1071 1.362 . S
C1071 H1061 0.930 . S
C1071 C1064 1.409 . S
C1071 C1070 1.362 . S
H1072 C1078 0.930 . S
H1073 C1081 0.930 . S
H1074 C1082 0.930 . S
H1075 C1083 0.930 . S
H1076 C1086 0.930 . S
H1077 C1087 0.930 . S
C1078 H1072 0.930 . S
C1078 C1079 1.355 . S
C1078 C1080 1.415 . S
C1079 C1078 1.355 . S
C1079 C1081 1.419 . S
C1080 C1078 1.415 . S
C1080 C1085 1.425 . S
C1080 C1087 1.409 . S
C1081 H1073 0.930 . S
C1081 C1079 1.419 . S
C1081 C1082 1.362 . S
C1082 H1074 0.930 . S
C1082 C1081 1.362 . S
C1082 C1085 1.409 . S
C1083 H1075 0.930 . S
C1083 C1084 1.355 . S
C1083 C1085 1.415 . S
C1084 C1083 1.355 . S
C1084 C1086 1.419 . S
C1085 C1080 1.425 . S
C1085 C1082 1.409 . S
C1085 C1083 1.415 . S
C1086 H1076 0.930 . S
C1086 C1084 1.419 . S
C1086 C1087 1.362 . S
C1087 H1077 0.930 . S
C1087 C1080 1.409 . S
C1087 C1086 1.362 . S
H1088 C1094 0.930 . S
H1089 C1097 0.930 . S
H1090 C1098 0.930 . S
H1091 C1099 0.930 . S
H1092 C1102 0.930 . S
H1093 C1103 0.930 . S
C1094 H1088 0.930 . S
C1094 C1095 1.355 . S
C1094 C1096 1.415 . S
C1095 C1094 1.355 . S
C1095 C1097 1.419 . S
C1096 C1094 1.415 . S
C1096 C1101 1.425 . S
C1096 C1103 1.409 . S
C1097 H1089 0.930 . S
C1097 C1095 1.419 . S
C1097 C1098 1.362 . S
C1098 H1090 0.930 . S
C1098 C1097 1.362 . S
C1098 C1101 1.409 . S
C1099 H1091 0.930 . S
C1099 C1100 1.355 . S
C1099 C1101 1.415 . S
C1100 C1099 1.355 . S
C1100 C1102 1.419 . S
C1101 C1096 1.425 . S
C1101 C1098 1.409 . S
C1101 C1099 1.415 . S
C1102 H1092 0.930 . S
C1102 C1100 1.419 . S
C1102 C1103 1.362 . S
C1103 H1093 0.930 . S
C1103 C1096 1.409 . S
C1103 C1102 1.362 . S
H1104 C1110 0.930 . S
H1105 C1113 0.930 . S
H1106 C1114 0.930 . S
H1107 C1115 0.930 . S
H1108 C1118 0.930 . S
H1109 C1119 0.930 . S
C1110 H1104 0.930 . S
C1110 C1111 1.355 . S
C1110 C1112 1.415 . S
C1111 C1110 1.355 . S
C1111 C1113 1.419 . S
C1112 C1110 1.415 . S
C1112 C1117 1.425 . S
C1112 C1119 1.409 . S
C1113 H1105 0.930 . S
C1113 C1111 1.419 . S
C1113 C1114 1.362 . S
C1114 H1106 0.930 . S
C1114 C1113 1.362 . S
C1114 C1117 1.409 . S
C1115 H1107 0.930 . S
C1115 C1116 1.355 . S
C1115 C1117 1.415 . S
C1116 C1115 1.355 . S
C1116 C1118 1.419 . S
C1117 C1112 1.425 . S
C1117 C1114 1.409 . S
C1117 C1115 1.415 . S
C1118 H1108 0.930 . S
C1118 C1116 1.419 . S
C1118 C1119 1.362 . S
C1119 H1109 0.930 . S
C1119 C1112 1.409 . S
C1119 C1118 1.362 . S
H1120 C1126 0.930 . S
H1121 C1129 0.930 . S
H1122 C1130 0.930 . S
H1123 C1131 0.930 . S
H1124 C1134 0.930 . S
H1125 C1135 0.930 . S
C1126 H1120 0.930 . S
C1126 C1127 1.355 . S
C1126 C1128 1.415 . S
C1127 C1126 1.355 . S
C1127 C1129 1.419 . S
C1128 C1126 1.415 . S
C1128 C1133 1.425 . S
C1128 C1135 1.409 . S
C1129 H1121 0.930 . S
C1129 C1127 1.419 . S
C1129 C1130 1.362 . S
C1130 H1122 0.930 . S
C1130 C1129 1.362 . S
C1130 C1133 1.409 . S
C1131 H1123 0.930 . S
C1131 C1132 1.355 . S
C1131 C1133 1.415 . S
C1132 C1131 1.355 . S
C1132 C1134 1.419 . S
C1133 C1128 1.425 . S
C1133 C1130 1.409 . S
C1133 C1131 1.415 . S
C1134 H1124 0.930 . S
C1134 C1132 1.419 . S
C1134 C1135 1.362 . S
C1135 H1125 0.930 . S
C1135 C1128 1.409 . S
C1135 C1134 1.362 . S
H1136 C1142 0.930 . S
H1137 C1145 0.930 . S
H1138 C1146 0.930 . S
H1139 C1147 0.930 . S
H1140 C1150 0.930 1_554 S
H1141 C1151 0.930 . S
C1142 H1136 0.930 . S
C1142 C1143 1.355 . S
C1142 C1144 1.415 . S
C1143 C1142 1.355 . S
C1143 C1145 1.419 . S
C1144 C1142 1.415 . S
C1144 C1149 1.425 . S
C1144 C1151 1.409 . S
C1145 H1137 0.930 . S
C1145 C1143 1.419 . S
C1145 C1146 1.362 . S
C1146 H1138 0.930 . S
C1146 C1145 1.362 . S
C1146 C1149 1.409 . S
C1147 H1139 0.930 . S
C1147 C1148 1.355 . S
C1147 C1149 1.415 1_554 S
C1148 C1147 1.355 . S
C1148 C1150 1.419 1_554 S
C1149 C1144 1.425 . S
C1149 C1146 1.409 . S
C1149 C1147 1.415 1_556 S
C1150 H1140 0.930 1_556 S
C1150 C1148 1.419 1_556 S
C1150 C1151 1.362 . S
C1151 H1141 0.930 . S
C1151 C1144 1.409 . S
C1151 C1150 1.362 . S
H1152 C1158 0.930 . S
H1153 C1161 0.930 . S
H1154 C1162 0.930 . S
H1155 C1163 0.930 . S
H1156 C1166 0.930 . S
H1157 C1167 0.930 . S
C1158 H1152 0.930 . S
C1158 C1159 1.355 . S
C1158 C1160 1.415 . S
C1159 C1158 1.355 . S
C1159 C1161 1.419 . S
C1160 C1158 1.415 . S
C1160 C1165 1.425 . S
C1160 C1167 1.409 . S
C1161 H1153 0.930 . S
C1161 C1159 1.419 . S
C1161 C1162 1.362 . S
C1162 H1154 0.930 . S
C1162 C1161 1.362 . S
C1162 C1165 1.409 . S
C1163 H1155 0.930 . S
C1163 C1164 1.355 . S
C1163 C1165 1.415 . S
C1164 C1163 1.355 . S
C1164 C1166 1.419 . S
C1165 C1160 1.425 . S
C1165 C1162 1.409 . S
C1165 C1163 1.415 . S
C1166 H1156 0.930 . S
C1166 C1164 1.419 . S
C1166 C1167 1.362 . S
C1167 H1157 0.930 . S
C1167 C1160 1.409 . S
C1167 C1166 1.362 . S
H1168 C1174 0.930 . S
H1169 C1177 0.930 . S
H1170 C1178 0.930 . S
H1171 C1179 0.930 . S
H1172 C1182 0.930 . S
H1173 C1183 0.930 . S
C1174 H1168 0.930 . S
C1174 C1175 1.355 . S
C1174 C1176 1.415 . S
C1175 C1174 1.355 . S
C1175 C1177 1.419 . S
C1176 C1174 1.415 . S
C1176 C1181 1.425 . S
C1176 C1183 1.409 . S
C1177 H1169 0.930 . S
C1177 C1175 1.419 . S
C1177 C1178 1.362 . S
C1178 H1170 0.930 . S
C1178 C1177 1.362 . S
C1178 C1181 1.409 . S
C1179 H1171 0.930 . S
C1179 C1180 1.355 . S
C1179 C1181 1.415 . S
C1180 C1179 1.355 . S
C1180 C1182 1.419 . S
C1181 C1176 1.425 . S
C1181 C1178 1.409 . S
C1181 C1179 1.415 . S
C1182 H1172 0.930 . S
C1182 C1180 1.419 . S
C1182 C1183 1.362 . S
C1183 H1173 0.930 . S
C1183 C1176 1.409 . S
C1183 C1182 1.362 . S
H1184 C1190 0.930 . S
H1185 C1193 0.930 . S
H1186 C1194 0.930 . S
H1187 C1195 0.930 . S
H1188 C1198 0.930 . S
H1189 C1199 0.930 . S
C1190 H1184 0.930 . S
C1190 C1191 1.355 . S
C1190 C1192 1.415 . S
C1191 C1190 1.355 . S
C1191 C1193 1.419 . S
C1192 C1190 1.415 . S
C1192 C1197 1.425 . S
C1192 C1199 1.409 . S
C1193 H1185 0.930 . S
C1193 C1191 1.419 . S
C1193 C1194 1.362 . S
C1194 H1186 0.930 . S
C1194 C1193 1.362 . S
C1194 C1197 1.409 . S
C1195 H1187 0.930 . S
C1195 C1196 1.355 . S
C1195 C1197 1.415 . S
C1196 C1195 1.355 . S
C1196 C1198 1.419 . S
C1197 C1192 1.425 . S
C1197 C1194 1.409 . S
C1197 C1195 1.415 . S
C1198 H1188 0.930 . S
C1198 C1196 1.419 . S
C1198 C1199 1.362 . S
C1199 H1189 0.930 . S
C1199 C1192 1.409 . S
C1199 C1198 1.362 . S
H1200 C1206 0.930 . S
H1201 C1209 0.930 . S
H1202 C1210 0.930 . S
H1203 C1211 0.930 . S
H1204 C1214 0.930 . S
H1205 C1215 0.930 . S
C1206 H1200 0.930 . S
C1206 C1207 1.355 . S
C1206 C1208 1.415 . S
C1207 C1206 1.355 . S
C1207 C1209 1.419 . S
C1208 C1206 1.415 . S
C1208 C1213 1.425 . S
C1208 C1215 1.409 . S
C1209 H1201 0.930 . S
C1209 C1207 1.419 . S
C1209 C1210 1.362 . S
C1210 H1202 0.930 . S
C1210 C1209 1.362 . S
C1210 C1213 1.409 . S
C1211 H1203 0.930 . S
C1211 C1212 1.355 . S
C1211 C1213 1.415 . S
C1212 C1211 1.355 . S
C1212 C1214 1.419 . S
C1213 C1208 1.425 . S
C1213 C1210 1.409 . S
C1213 C1211 1.415 . S
C1214 H1204 0.930 . S
C1214 C1212 1.419 . S
C1214 C1215 1.362 . S
C1215 H1205 0.930 . S
C1215 C1208 1.409 . S
C1215 C1214 1.362 . S
H1216 C1222 0.930 . S
H1217 C1225 0.930 . S
H1218 C1226 0.930 . S
H1219 C1227 0.930 . S
H1220 C1230 0.930 . S
H1221 C1231 0.930 . S
C1222 H1216 0.930 . S
C1222 C1223 1.355 . S
C1222 C1224 1.415 . S
C1223 C1222 1.355 . S
C1223 C1225 1.419 . S
C1224 C1222 1.415 . S
C1224 C1229 1.425 . S
C1224 C1231 1.409 . S
C1225 H1217 0.930 . S
C1225 C1223 1.419 . S
C1225 C1226 1.362 . S
C1226 H1218 0.930 . S
C1226 C1225 1.362 . S
C1226 C1229 1.409 . S
C1227 H1219 0.930 . S
C1227 C1228 1.355 . S
C1227 C1229 1.415 . S
C1228 C1227 1.355 . S
C1228 C1230 1.419 . S
C1229 C1224 1.425 . S
C1229 C1226 1.409 . S
C1229 C1227 1.415 . S
C1230 H1220 0.930 . S
C1230 C1228 1.419 . S
C1230 C1231 1.362 . S
C1231 H1221 0.930 . S
C1231 C1224 1.409 . S
C1231 C1230 1.362 . S
H1232 C1238 0.930 . S
H1233 C1241 0.930 . S
H1234 C1242 0.930 . S
H1235 C1243 0.930 1_455 S
H1236 C1246 0.930 . S
H1237 C1247 0.930 . S
C1238 H1232 0.930 . S
C1238 C1239 1.355 . S
C1238 C1240 1.415 . S
C1239 C1238 1.355 . S
C1239 C1241 1.419 . S
C1240 C1238 1.415 . S
C1240 C1245 1.425 . S
C1240 C1247 1.409 . S
C1241 H1233 0.930 . S
C1241 C1239 1.419 . S
C1241 C1242 1.362 . S
C1242 H1234 0.930 . S
C1242 C1241 1.362 . S
C1242 C1245 1.409 . S
C1243 H1235 0.930 1_655 S
C1243 C1244 1.355 . S
C1243 C1245 1.415 . S
C1244 C1243 1.355 . S
C1244 C1246 1.419 . S
C1245 C1240 1.425 . S
C1245 C1242 1.409 . S
C1245 C1243 1.415 . S
C1246 H1236 0.930 . S
C1246 C1244 1.419 . S
C1246 C1247 1.362 . S
C1247 H1237 0.930 . S
C1247 C1240 1.409 . S
C1247 C1246 1.362 . S
H1248 C1254 0.930 . S
H1249 C1257 0.930 . S
H1250 C1258 0.930 . S
H1251 C1259 0.930 . S
H1252 C1262 0.930 . S
H1253 C1263 0.930 . S
C1254 H1248 0.930 . S
C1254 C1255 1.355 . S
C1254 C1256 1.415 . S
C1255 C1254 1.355 . S
C1255 C1257 1.419 . S
C1256 C1254 1.415 . S
C1256 C1261 1.425 . S
C1256 C1263 1.409 . S
C1257 H1249 0.930 . S
C1257 C1255 1.419 . S
C1257 C1258 1.362 . S
C1258 H1250 0.930 . S
C1258 C1257 1.362 . S
C1258 C1261 1.409 . S
C1259 H1251 0.930 . S
C1259 C1260 1.355 . S
C1259 C1261 1.415 . S
C1260 C1259 1.355 . S
C1260 C1262 1.419 . S
C1261 C1256 1.425 . S
C1261 C1258 1.409 . S
C1261 C1259 1.415 . S
C1262 H1252 0.930 . S
C1262 C1260 1.419 . S
C1262 C1263 1.362 . S
C1263 H1253 0.930 . S
C1263 C1256 1.409 . S
C1263 C1262 1.362 . S
H1264 C1270 0.930 . S
H1265 C1273 0.930 . S
H1266 C1274 0.930 . S
H1267 C1275 0.930 . S
H1268 C1278 0.930 . S
H1269 C1279 0.930 . S
C1270 H1264 0.930 . S
C1270 C1271 1.355 . S
C1270 C1272 1.415 . S
C1271 C1270 1.355 . S
C1271 C1273 1.419 . S
C1272 C1270 1.415 . S
C1272 C1277 1.425 . S
C1272 C1279 1.409 . S
C1273 H1265 0.930 . S
C1273 C1271 1.419 . S
C1273 C1274 1.362 . S
C1274 H1266 0.930 . S
C1274 C1273 1.362 . S
C1274 C1277 1.409 . S
C1275 H1267 0.930 . S
C1275 C1276 1.355 . S
C1275 C1277 1.415 . S
C1276 C1275 1.355 . S
C1276 C1278 1.419 . S
C1277 C1272 1.425 . S
C1277 C1274 1.409 . S
C1277 C1275 1.415 . S
C1278 H1268 0.930 . S
C1278 C1276 1.419 . S
C1278 C1279 1.362 . S
C1279 H1269 0.930 . S
C1279 C1272 1.409 . S
C1279 C1278 1.362 . S
H1280 C1286 0.930 . S
H1281 C1289 0.930 . S
H1282 C1290 0.930 . S
H1283 C1291 0.930 . S
H1284 C1294 0.930 . S
H1285 C1295 0.930 . S
C1286 H1280 0.930 . S
C1286 C1287 1.355 . S
C1286 C1288 1.415 . S
C1287 C1286 1.355 . S
C1287 C1289 1.419 . S
C1288 C1286 1.415 . S
C1288 C1293 1.425 . S
C1288 C1295 1.409 1_556 S
C1289 H1281 0.930 . S
C1289 C1287 1.419 . S
C1289 C1290 1.362 . S
C1290 H1282 0.930 . S
C1290 C1289 1.362 . S
C1290 C1293 1.409 . S
C1291 H1283 0.930 . S
C1291 C1292 1.355 1_556 S
C1291 C1293 1.415 . S
C1292 C1291 1.355 1_554 S
C1292 C1294 1.419 . S
C1293 C1288 1.425 . S
C1293 C1290 1.409 . S
C1293 C1291 1.415 . S
C1294 H1284 0.930 . S
C1294 C1292 1.419 . S
C1294 C1295 1.362 . S
C1295 H1285 0.930 . S
C1295 C1288 1.409 1_554 S
C1295 C1294 1.362 . S
H1296 C1302 0.930 . S
H1297 C1305 0.930 . S
H1298 C1306 0.930 . S
H1299 C1307 0.930 . S
H1300 C1310 0.930 . S
H1301 C1311 0.930 . S
C1302 H1296 0.930 . S
C1302 C1303 1.355 . S
C1302 C1304 1.415 . S
C1303 C1302 1.355 . S
C1303 C1305 1.419 . S
C1304 C1302 1.415 . S
C1304 C1309 1.425 . S
C1304 C1311 1.409 . S
C1305 H1297 0.930 . S
C1305 C1303 1.419 . S
C1305 C1306 1.362 . S
C1306 H1298 0.930 . S
C1306 C1305 1.362 . S
C1306 C1309 1.409 . S
C1307 H1299 0.930 . S
C1307 C1308 1.355 . S
C1307 C1309 1.415 . S
C1308 C1307 1.355 . S
C1308 C1310 1.419 . S
C1309 C1304 1.425 . S
C1309 C1306 1.409 . S
C1309 C1307 1.415 . S
C1310 H1300 0.930 . S
C1310 C1308 1.419 . S
C1310 C1311 1.362 . S
C1311 H1301 0.930 . S
C1311 C1304 1.409 . S
C1311 C1310 1.362 . S
H1312 C1318 0.930 . S
H1313 C1321 0.930 . S
H1314 C1322 0.930 . S
H1315 C1323 0.930 . S
H1316 C1326 0.930 . S
H1317 C1327 0.930 . S
C1318 H1312 0.930 . S
C1318 C1319 1.355 . S
C1318 C1320 1.415 . S
C1319 C1318 1.355 . S
C1319 C1321 1.419 . S
C1320 C1318 1.415 . S
C1320 C1325 1.425 . S
C1320 C1327 1.409 . S
C1321 H1313 0.930 . S
C1321 C1319 1.419 . S
C1321 C1322 1.362 . S
C1322 H1314 0.930 . S
C1322 C1321 1.362 . S
C1322 C1325 1.409 . S
C1323 H1315 0.930 . S
C1323 C1324 1.355 . S
C1323 C1325 1.415 . S
C1324 C1323 1.355 . S
C1324 C1326 1.419 . S
C1325 C1320 1.425 . S
C1325 C1322 1.409 . S
C1325 C1323 1.415 . S
C1326 H1316 0.930 . S
C1326 C1324 1.419 . S
C1326 C1327 1.362 . S
C1327 H1317 0.930 . S
C1327 C1320 1.409 . S
C1327 C1326 1.362 . S
H1328 C1334 0.930 . S
H1329 C1337 0.930 1_455 S
H1330 C1338 0.930 . S
H1331 C1339 0.930 . S
H1332 C1342 0.930 . S
H1333 C1343 0.930 . S
C1334 H1328 0.930 . S
C1334 C1335 1.355 . S
C1334 C1336 1.415 . S
C1335 C1334 1.355 . S
C1335 C1337 1.419 . S
C1336 C1334 1.415 . S
C1336 C1341 1.425 . S
C1336 C1343 1.409 . S
C1337 H1329 0.930 1_655 S
C1337 C1335 1.419 . S
C1337 C1338 1.362 . S
C1338 H1330 0.930 . S
C1338 C1337 1.362 . S
C1338 C1341 1.409 . S
C1339 H1331 0.930 . S
C1339 C1340 1.355 . S
C1339 C1341 1.415 . S
C1340 C1339 1.355 . S
C1340 C1342 1.419 . S
C1341 C1336 1.425 . S
C1341 C1338 1.409 . S
C1341 C1339 1.415 . S
C1342 H1332 0.930 . S
C1342 C1340 1.419 . S
C1342 C1343 1.362 . S
C1343 H1333 0.930 . S
C1343 C1336 1.409 . S
C1343 C1342 1.362 . S
H1344 C1350 0.930 . S
H1345 C1353 0.930 . S
H1346 C1354 0.930 . S
H1347 C1355 0.930 . S
H1348 C1358 0.930 . S
H1349 C1359 0.930 . S
C1350 H1344 0.930 . S
C1350 C1351 1.355 . S
C1350 C1352 1.415 . S
C1351 C1350 1.355 . S
C1351 C1353 1.419 . S
C1352 C1350 1.415 . S
C1352 C1357 1.425 . S
C1352 C1359 1.409 . S
C1353 H1345 0.930 . S
C1353 C1351 1.419 . S
C1353 C1354 1.362 . S
C1354 H1346 0.930 . S
C1354 C1353 1.362 . S
C1354 C1357 1.409 . S
C1355 H1347 0.930 . S
C1355 C1356 1.355 . S
C1355 C1357 1.415 1_556 S
C1356 C1355 1.355 . S
C1356 C1358 1.419 . S
C1357 C1352 1.425 . S
C1357 C1354 1.409 . S
C1357 C1355 1.415 1_554 S
C1358 H1348 0.930 . S
C1358 C1356 1.419 . S
C1358 C1359 1.362 1_556 S
C1359 H1349 0.930 . S
C1359 C1352 1.409 . S
C1359 C1358 1.362 1_554 S
H1360 C1366 0.930 . S
H1361 C1369 0.930 . S
H1362 C1370 0.930 . S
H1363 C1371 0.930 . S
H1364 C1374 0.930 . S
H1365 C1375 0.930 . S
C1366 H1360 0.930 . S
C1366 C1367 1.355 . S
C1366 C1368 1.415 . S
C1367 C1366 1.355 . S
C1367 C1369 1.419 . S
C1368 C1366 1.415 . S
C1368 C1373 1.425 . S
C1368 C1375 1.409 . S
C1369 H1361 0.930 . S
C1369 C1367 1.419 . S
C1369 C1370 1.362 . S
C1370 H1362 0.930 . S
C1370 C1369 1.362 . S
C1370 C1373 1.409 . S
C1371 H1363 0.930 . S
C1371 C1372 1.355 . S
C1371 C1373 1.415 . S
C1372 C1371 1.355 . S
C1372 C1374 1.419 . S
C1373 C1368 1.425 . S
C1373 C1370 1.409 . S
C1373 C1371 1.415 . S
C1374 H1364 0.930 . S
C1374 C1372 1.419 . S
C1374 C1375 1.362 . S
C1375 H1365 0.930 . S
C1375 C1368 1.409 . S
C1375 C1374 1.362 . S
H1376 C1382 0.930 . S
H1377 C1385 0.930 . S
H1378 C1386 0.930 . S
H1379 C1387 0.930 . S
H1380 C1390 0.930 . S
H1381 C1391 0.930 . S
C1382 H1376 0.930 . S
C1382 C1383 1.355 . S
C1382 C1384 1.415 . S
C1383 C1382 1.355 . S
C1383 C1385 1.419 . S
C1384 C1382 1.415 . S
C1384 C1389 1.425 . S
C1384 C1391 1.409 . S
C1385 H1377 0.930 . S
C1385 C1383 1.419 . S
C1385 C1386 1.362 . S
C1386 H1378 0.930 . S
C1386 C1385 1.362 . S
C1386 C1389 1.409 . S
C1387 H1379 0.930 . S
C1387 C1388 1.355 . S
C1387 C1389 1.415 . S
C1388 C1387 1.355 . S
C1388 C1390 1.419 . S
C1389 C1384 1.425 . S
C1389 C1386 1.409 . S
C1389 C1387 1.415 . S
C1390 H1380 0.930 . S
C1390 C1388 1.419 . S
C1390 C1391 1.362 . S
C1391 H1381 0.930 . S
C1391 C1384 1.409 . S
C1391 C1390 1.362 . S
H1392 C1398 0.930 . S
H1393 C1401 0.930 . S
H1394 C1402 0.930 . S
H1395 C1403 0.930 . S
H1396 C1406 0.930 . S
H1397 C1407 0.930 . S
C1398 H1392 0.930 . S
C1398 C1399 1.355 . S
C1398 C1400 1.415 . S
C1399 C1398 1.355 . S
C1399 C1401 1.419 . S
C1400 C1398 1.415 . S
C1400 C1405 1.425 . S
C1400 C1407 1.409 . S
C1401 H1393 0.930 . S
C1401 C1399 1.419 . S
C1401 C1402 1.362 . S
C1402 H1394 0.930 . S
C1402 C1401 1.362 . S
C1402 C1405 1.409 . S
C1403 H1395 0.930 . S
C1403 C1404 1.355 . S
C1403 C1405 1.415 . S
C1404 C1403 1.355 . S
C1404 C1406 1.419 . S
C1405 C1400 1.425 . S
C1405 C1402 1.409 . S
C1405 C1403 1.415 . S
C1406 H1396 0.930 . S
C1406 C1404 1.419 . S
C1406 C1407 1.362 . S
C1407 H1397 0.930 . S
C1407 C1400 1.409 . S
C1407 C1406 1.362 . S
C647 C9 2.058 . S
C652 C295 2.084 . S
C663 C49 2.021 . S
C668 C175 2.068 . S
C679 C209 2.736 . S
C684 C89 2.767 . S
C695 C129 2.725 . S
C700 C249 2.696 . S
C711 C445 0.633 . S
C716 C179 0.463 . S
C727 C325 0.923 . S
C732 C5 0.868 . S
C743 C405 0.882 . S
C748 C245 0.776 . S
C759 C85 0.737 . S
C764 C379 0.467 . S
C775 C375 2.065 . S
C780 C489 2.076 . S
C791 C409 2.017 . S
C796 C575 2.058 . S
C807 C529 2.769 1_655 S
C812 C329 2.697 . S
C823 C449 2.725 . S
C828 C609 2.712 1_654 S
C839 C579 0.466 . S
C844 C125 0.612 . S
C855 C485 0.973 . S
C860 C205 0.886 . S
C871 C45 0.945 . S
C876 C605 0.911 . S
C887 C299 0.366 . S
C892 C525 0.640 . S
C903 C528 1.122 . S
C908 C8 0.995 . S
C919 C448 1.210 1_455 S
C924 C48 1.138 . S
C935 C488 1.088 . S
C940 C88 1.207 . S
C951 C408 0.969 . S
C956 C128 1.125 . S
C967 C178 0.690 . S
C972 C608 0.789 . S
C983 C378 0.645 . S
C988 C208 0.800 . S
C999 C248 0.794 . S
C1004 C578 0.767 . S
C1015 C298 0.848 . S
C1020 C328 0.702 . S
C1031 C18 2.028 . S
C1036 C168 2.066 1_455 S
C1047 C58 1.952 . S
C1052 C218 1.916 . S
C1063 C258 1.447 . S
C1068 C98 1.464 . S
C1079 C138 1.696 . S
C1084 C288 1.684 . S
C1095 C418 1.948 . S
C1100 C338 1.917 . S
C1111 C458 1.681 . S
C1116 C368 1.667 . S
C1127 C498 1.985 . S
C1132 C568 2.027 . S
C1143 C618 1.383 . S
C1148 C538 1.456 . S
C1159 C15 1.117 . S
C1164 C289 1.127 . S
C1175 C55 1.021 . S
C1180 C169 1.096 . S
C1191 C215 0.507 . S
C1196 C95 0.643 . S
C1207 C255 0.632 . S
C1212 C135 0.545 . S
C1223 C459 2.902 . S
C1228 C165 2.843 . S
C1239 C339 3.612 . S
C1244 C19 3.656 1_655 S
C1255 C419 3.715 1_554 S
C1260 C259 3.677 . S
C1271 C99 2.905 . S
C1276 C365 2.858 . S
C1287 C495 1.046 . S
C1292 C369 1.096 . S
C1303 C569 1.114 . S
C1308 C415 1.091 . S
C1319 C535 0.597 . S
C1324 C335 0.446 . S
C1335 C615 0.637 . S
C1340 C455 0.719 . S
C1351 C565 2.837 . S
C1356 C139 2.906 . S
C1367 C219 3.632 1_556 S
C1372 C499 3.657 . S
C1383 C59 3.712 . S
C1388 C619 3.670 . S
C1399 C539 2.904 . S
C1404 C285 2.847 . S
