# Generated by pormake.
# Topology umw, (4)-cn, num edge types: 1
# Building blocks:
#     Node 0, Type 0, BuildingBlock: CEKHIL_clean_sbu_0, # of connection points: 4
#     Node 1, Type 0, BuildingBlock: CEKHIL_clean_sbu_0, # of connection points: 4
#     Node 2, Type 0, BuildingBlock: CEKHIL_clean_sbu_0, # of connection points: 4
#     Node 3, Type 0, BuildingBlock: CEKHIL_clean_sbu_0, # of connection points: 4
#     Node 4, Type 0, BuildingBlock: CEKHIL_clean_sbu_0, # of connection points: 4
#     Node 5, Type 0, BuildingBlock: CEKHIL_clean_sbu_0, # of connection points: 4
#     Node 6, Type 0, BuildingBlock: CEKHIL_clean_sbu_0, # of connection points: 4
#     Node 7, Type 0, BuildingBlock: CEKHIL_clean_sbu_0, # of connection points: 4
#     Edge 8, Type (0, 0), BuildingBlock: UVAHIK_clean_linker_0, # of connection points: 2
#     Edge 9, Type (0, 0), BuildingBlock: UVAHIK_clean_linker_0, # of connection points: 2
#     Edge 10, Type (0, 0), BuildingBlock: UVAHIK_clean_linker_0, # of connection points: 2
#     Edge 11, Type (0, 0), BuildingBlock: UVAHIK_clean_linker_0, # of connection points: 2
#     Edge 12, Type (0, 0), BuildingBlock: UVAHIK_clean_linker_0, # of connection points: 2
#     Edge 13, Type (0, 0), BuildingBlock: UVAHIK_clean_linker_0, # of connection points: 2
#     Edge 14, Type (0, 0), BuildingBlock: UVAHIK_clean_linker_0, # of connection points: 2
#     Edge 15, Type (0, 0), BuildingBlock: UVAHIK_clean_linker_0, # of connection points: 2
#     Edge 16, Type (0, 0), BuildingBlock: UVAHIK_clean_linker_0, # of connection points: 2
#     Edge 17, Type (0, 0), BuildingBlock: UVAHIK_clean_linker_0, # of connection points: 2
#     Edge 18, Type (0, 0), BuildingBlock: UVAHIK_clean_linker_0, # of connection points: 2
#     Edge 19, Type (0, 0), BuildingBlock: UVAHIK_clean_linker_0, # of connection points: 2
#     Edge 20, Type (0, 0), BuildingBlock: UVAHIK_clean_linker_0, # of connection points: 2
#     Edge 21, Type (0, 0), BuildingBlock: UVAHIK_clean_linker_0, # of connection points: 2
#     Edge 22, Type (0, 0), BuildingBlock: UVAHIK_clean_linker_0, # of connection points: 2
#     Edge 23, Type (0, 0), BuildingBlock: UVAHIK_clean_linker_0, # of connection points: 2
# Relax obj value: 0.136
# Max RMSD: 0.106
# Mean RMSD: 0.106
data_MOF--net-umw--node1-CEKHIL_clean_sbu_0--edge1-UVAHIK_clean_linker_0
_symmetry_space_group_name_H-M    P1
_symmetry_Int_Tables_number       1
_symmetry_cell_setting            triclinic
loop_
_symmetry_equiv_pos_as_xyz
'x, y, z'
_cell_length_a     52.718671
_cell_length_b     52.83056
_cell_length_c     33.581626
_cell_angle_alpha  90.142202
_cell_angle_beta   90.058054
_cell_angle_gamma 90.098873
loop_
_atom_site_label
_atom_site_type_symbol
_atom_site_fract_x
_atom_site_fract_y
_atom_site_fract_z
_atom_type_partial_charge
Co0 Co 0.41601 0.18857 0.27519 0.0
O1 O 0.40698 0.22382 0.28256 0.0
O2 O 0.38347 0.1912 0.30114 0.0
C3 C 0.42974 0.19129 0.21151 0.0
O4 O 0.41774 0.14994 0.27256 0.0
Co5 Co 0.47123 0.17087 0.25689 0.0
O6 O 0.45549 0.1372 0.24892 0.0
C7 C 0.45798 0.18986 0.33669 0.0
C8 C 0.38642 0.21559 0.29966 0.0
C9 C 0.43295 0.1325 0.26039 0.0
O10 O 0.43412 0.1891 0.3283 0.0
O11 O 0.47541 0.18562 0.31109 0.0
O12 O 0.40552 0.18971 0.21872 0.0
O13 O 0.44406 0.19346 0.24233 0.0
Co14 Co 0.81958 0.41366 0.53435 0.0
O15 O 0.78542 0.40082 0.53877 0.0
O16 O 0.81984 0.37979 0.55655 0.0
C17 C 0.81574 0.43031 0.47262 0.0
O18 O 0.85793 0.4203 0.53365 0.0
Co19 Co 0.82961 0.47164 0.52442 0.0
O20 O 0.8655 0.46118 0.51895 0.0
C21 C 0.80843 0.4513 0.5985 0.0
C22 C 0.79521 0.38063 0.55451 0.0
C23 C 0.87325 0.43881 0.52629 0.0
O24 O 0.81617 0.42894 0.58921 0.0
O25 O 0.80918 0.47001 0.57444 0.0
O26 O 0.82036 0.40621 0.47653 0.0
O27 O 0.81162 0.44226 0.50524 0.0
Co28 Co 0.59251 0.81467 0.78246 0.0
O29 O 0.60452 0.78056 0.78921 0.0
O30 O 0.62586 0.81484 0.8071 0.0
C31 C 0.57758 0.80907 0.72001 0.0
O32 O 0.58643 0.85298 0.77956 0.0
Co33 Co 0.53495 0.8252 0.76657 0.0
O34 O 0.54625 0.86076 0.76044 0.0
C35 C 0.5526 0.806 0.84401 0.0
C36 C 0.62458 0.79023 0.80579 0.0
C37 C 0.56845 0.86835 0.76983 0.0
O38 O 0.57557 0.81262 0.83608 0.0
O39 O 0.5346 0.8067 0.81844 0.0
O40 O 0.60158 0.81407 0.72523 0.0
O41 O 0.56464 0.80623 0.75194 0.0
Co42 Co 0.19044 0.59025 0.02964 0.0
O43 O 0.22617 0.59721 0.03792 0.0
O44 O 0.19476 0.62283 0.05471 0.0
C45 C 0.19328 0.57548 0.96664 0.0
O46 O 0.15178 0.59085 0.02587 0.0
Co47 Co 0.169 0.53629 0.01223 0.0
O48 O 0.13663 0.55407 0.00188 0.0
C49 C 0.18815 0.54938 0.09223 0.0
C50 C 0.21899 0.61841 0.05415 0.0
C51 C 0.13344 0.57687 0.01313 0.0
O52 O 0.18905 0.57305 0.08315 0.0
O53 O 0.18288 0.53193 0.06705 0.0
O54 O 0.19311 0.5998 0.97304 0.0
O55 O 0.19392 0.5615 -0.0021 0.0
Co56 Co 0.41513 0.81341 0.29771 0.0
O57 O 0.40868 0.77829 0.28481 0.0
O58 O 0.38183 0.80973 0.2743 0.0
C59 C 0.4319 0.80671 0.35868 0.0
O60 O 0.41424 0.85168 0.30731 0.0
Co61 Co 0.46928 0.83462 0.31597 0.0
O62 O 0.45064 0.86453 0.33582 0.0
C63 C 0.45431 0.82123 0.23353 0.0
C64 C 0.38688 0.78573 0.27108 0.0
C65 C 0.42794 0.86867 0.32465 0.0
O66 O 0.43093 0.81823 0.24364 0.0
O67 O 0.47217 0.82584 0.25838 0.0
O68 O 0.40734 0.80728 0.35438 0.0
O69 O 0.44477 0.80835 0.32638 0.0
Co70 Co 0.19817 0.4151 0.54699 0.0
O71 O 0.23218 0.40325 0.53732 0.0
O72 O 0.19734 0.38273 0.51954 0.0
C73 C 0.20504 0.42756 0.61042 0.0
O74 O 0.15989 0.42093 0.55233 0.0
Co75 Co 0.18761 0.47161 0.56889 0.0
O76 O 0.15218 0.45995 0.57631 0.0
C77 C 0.204 0.45732 0.48793 0.0
C78 C 0.22201 0.38384 0.51966 0.0
C79 C 0.14455 0.4382 0.56486 0.0
O80 O 0.19909 0.43383 0.49481 0.0
O81 O 0.20322 0.47451 0.51484 0.0
O82 O 0.19969 0.40392 0.60307 0.0
O83 O 0.20739 0.4418 0.57979 0.0
Co84 Co 0.5919 0.19247 0.79184 0.0
O85 O 0.60507 0.22621 0.7844 0.0
O86 O 0.62506 0.19116 0.76681 0.0
C87 C 0.57772 0.19866 0.85459 0.0
O88 O 0.58496 0.15435 0.7954 0.0
Co89 Co 0.53446 0.18285 0.80907 0.0
O90 O 0.54505 0.14717 0.81619 0.0
C91 C 0.55151 0.20114 0.73062 0.0
C92 C 0.62472 0.21579 0.76784 0.0
C93 C 0.56699 0.13925 0.80625 0.0
O94 O 0.57458 0.19475 0.73838 0.0
O95 O 0.53371 0.20046 0.75647 0.0
O96 O 0.60147 0.19294 0.84884 0.0
O97 O 0.56447 0.20178 0.82296 0.0
Co98 Co 0.81517 0.59173 0.04939 0.0
O99 O 0.78024 0.60002 0.03715 0.0
O100 O 0.81322 0.62499 0.02601 0.0
C101 C 0.80815 0.57556 0.11071 0.0
O102 O 0.8535 0.59109 0.05788 0.0
Co103 Co 0.83464 0.53726 0.06838 0.0
O104 O 0.86663 0.55429 0.08395 0.0
C105 C 0.82103 0.55185 0.98576 0.0
C106 C 0.78891 0.62134 0.02331 0.0
C107 C 0.8709 0.57694 0.0729 0.0
O108 O 0.81872 0.57538 -0.00466 0.0
O109 O 0.82532 0.53422 0.01095 0.0
O110 O 0.81 0.59999 0.1062 0.0
O111 O 0.80898 0.56248 0.07849 0.0
C112 C 0.49165 0.19095 0.38855 0.0
C113 C 0.46634 0.19568 0.37768 0.0
C114 C 0.50038 0.19694 0.42644 0.0
C115 C 0.47908 0.20698 0.52852 0.0
H116 H 0.54808 0.23137 0.54234 0.0
C117 C 0.5211 0.22101 0.68352 0.0
C118 C 0.54429 0.20851 0.68982 0.0
C119 C 0.51208 0.22502 0.64513 0.0
C120 C 0.52879 0.22458 0.53886 0.0
H121 H 0.43027 0.21041 0.39824 0.0
H122 H 0.44571 0.22109 0.46509 0.0
H123 H 0.52998 0.22829 0.47553 0.0
H124 H 0.5771 0.19206 0.66081 0.0
H125 H 0.56112 0.1989 0.59325 0.0
H126 H 0.47805 0.20283 0.59175 0.0
C127 C 0.45868 0.21256 0.44399 0.0
C128 C 0.51842 0.2228 0.50073 0.0
C129 C 0.44984 0.20643 0.40582 0.0
C130 C 0.55912 0.20163 0.65684 0.0
C131 C 0.55001 0.20563 0.61823 0.0
C132 C 0.48939 0.20893 0.56665 0.0
C133 C 0.4841 0.20796 0.45453 0.0
C134 C 0.4937 0.21334 0.49511 0.0
C135 C 0.52603 0.21663 0.61218 0.0
C136 C 0.51452 0.21723 0.57208 0.0
H137 H 0.50486 0.1824 0.36783 0.0
H138 H 0.51986 0.19248 0.43392 0.0
H139 H 0.46012 0.19934 0.52516 0.0
H140 H 0.50944 0.22705 0.70832 0.0
H141 H 0.49379 0.23402 0.64125 0.0
C142 C 0.78364 0.47734 0.64606 0.0
C143 C 0.80003 0.45683 0.63935 0.0
C144 C 0.77952 0.48633 0.68448 0.0
C145 C 0.79051 0.47376 0.79141 0.0
H146 H 0.80311 0.54616 0.79602 0.0
C147 C 0.82846 0.52091 0.93147 0.0
C148 C 0.81768 0.54387 0.94405 0.0
C149 C 0.82265 0.51088 0.8943 0.0
C150 C 0.7991 0.52605 0.79524 0.0
H151 H 0.82321 0.42819 0.66756 0.0
H152 H 0.8164 0.4442 0.73504 0.0
H153 H 0.79721 0.52554 0.73174 0.0
H154 H 0.7933 0.575 0.92692 0.0
H155 H 0.78311 0.55734 0.86113 0.0
H156 H 0.79319 0.47422 0.85493 0.0
C157 C 0.80657 0.45322 0.71057 0.0
C158 C 0.79566 0.51421 0.75847 0.0
C159 C 0.81054 0.44407 0.67199 0.0
C160 C 0.80192 0.55731 0.91784 0.0
C161 C 0.79601 0.54716 0.8804 0.0
C162 C 0.79392 0.48561 0.82817 0.0
C163 C 0.79187 0.47509 0.71691 0.0
C164 C 0.79193 0.48785 0.75615 0.0
C165 C 0.80586 0.52352 0.86881 0.0
C166 C 0.79896 0.51174 0.83033 0.0
H167 H 0.77488 0.48721 0.62138 0.0
H168 H 0.76761 0.50281 0.68861 0.0
H169 H 0.78729 0.45351 0.79052 0.0
H170 H 0.84101 0.51031 0.95079 0.0
H171 H 0.83116 0.49305 0.88566 0.0
C172 C 0.44712 0.80363 0.16499 0.0
C173 C 0.46181 0.81808 0.1916 0.0
C174 C 0.45647 0.79791 0.12704 0.0
C175 C 0.5171 0.79271 0.07353 0.0
H176 H 0.4768 0.80144 0.97804 0.0
C177 C 0.55928 0.808 0.91769 0.0
C178 C 0.54565 0.79876 0.88483 0.0
C179 C 0.54973 0.80476 0.95613 0.0
C180 C 0.48817 0.79838 0.00447 0.0
H181 H 0.49691 0.83926 0.19856 0.0
H182 H 0.51285 0.8296 0.13264 0.0
H183 H 0.45717 0.80749 0.04301 0.0
H184 H 0.51289 0.77668 0.86637 0.0
H185 H 0.49653 0.77073 0.93336 0.0
H186 H 0.54829 0.78431 0.03499 0.0
C187 C 0.49456 0.82204 0.14133 0.0
C188 C 0.47691 0.8019 0.04161 0.0
C189 C 0.48531 0.82772 0.17898 0.0
C190 C 0.52351 0.78448 0.89118 0.0
C191 C 0.5141 0.7811 0.92947 0.0
C192 C 0.52836 0.78918 0.03642 0.0
C193 C 0.48057 0.80658 0.11539 0.0
C194 C 0.49145 0.79975 0.07638 0.0
C195 C 0.52657 0.79205 0.96214 0.0
C196 C 0.51414 0.79254 0.00153 0.0
H197 H 0.42897 0.7959 0.17401 0.0
H198 H 0.44527 0.78605 0.10738 0.0
H199 H 0.5286 0.79047 0.10004 0.0
H200 H 0.57641 0.81904 0.91358 0.0
H201 H 0.55969 0.81351 0.98082 0.0
C202 C 0.21973 0.48993 0.44052 0.0
C203 C 0.2097 0.46559 0.44698 0.0
C204 C 0.22256 0.49924 0.40207 0.0
C205 C 0.2236 0.4816 0.29594 0.0
H206 H 0.19456 0.54839 0.28101 0.0
C207 C 0.18925 0.51611 0.14457 0.0
C208 C 0.19359 0.5414 0.13347 0.0
C209 C 0.19499 0.50786 0.18277 0.0
C210 C 0.20319 0.52996 0.28476 0.0
H211 H 0.19615 0.43138 0.41808 0.0
H212 H 0.20082 0.44786 0.35056 0.0
H213 H 0.1986 0.53121 0.34791 0.0
H214 H 0.20734 0.57791 0.15399 0.0
H215 H 0.21746 0.56333 0.22131 0.0
H216 H 0.22765 0.48016 0.23264 0.0
C217 C 0.20663 0.45962 0.37542 0.0
C218 C 0.20548 0.52009 0.32305 0.0
C219 C 0.20385 0.45022 0.41405 0.0
C220 C 0.20367 0.55835 0.16169 0.0
C221 C 0.20947 0.55002 0.20015 0.0
C222 C 0.22137 0.49151 0.25765 0.0
C223 C 0.2154 0.48446 0.36921 0.0
C224 C 0.21527 0.49563 0.32892 0.0
C225 C 0.2053 0.52463 0.21089 0.0
C226 C 0.21062 0.51555 0.25164 0.0
H227 H 0.22488 0.50211 0.46524 0.0
H228 H 0.22985 0.51825 0.39809 0.0
H229 H 0.23155 0.46287 0.29971 0.0
H230 H 0.18129 0.50254 0.12379 0.0
H231 H 0.19097 0.48836 0.19044 0.0
C232 C 0.37437 0.25831 0.32644 0.0
C233 C 0.36795 0.23296 0.31872 0.0
C234 C 0.3576 0.2742 0.34697 0.0
C235 C 0.3007 0.2722 0.41342 0.0
H236 H 0.299 0.3441 0.39089 0.0
C237 C 0.22756 0.34252 0.48298 0.0
C238 C 0.23793 0.36511 0.49819 0.0
C239 C 0.24262 0.3257 0.4609 0.0
C240 C 0.29935 0.32406 0.39763 0.0
H241 H 0.33854 0.20459 0.3255 0.0
H242 H 0.30892 0.23243 0.35985 0.0
H243 H 0.32609 0.3165 0.35133 0.0
H244 H 0.2723 0.38763 0.50227 0.0
H245 H 0.29831 0.35857 0.46342 0.0
H246 H 0.27343 0.27996 0.45927 0.0
C247 C 0.32721 0.23997 0.35123 0.0
C248 C 0.31501 0.30819 0.37508 0.0
C249 C 0.34413 0.22401 0.33116 0.0
C250 C 0.26369 0.37039 0.4911 0.0
C251 C 0.27858 0.35382 0.46859 0.0
C252 C 0.28476 0.28806 0.43561 0.0
C253 C 0.33379 0.26525 0.35989 0.0
C254 C 0.31618 0.28204 0.38289 0.0
C255 C 0.26822 0.33137 0.45302 0.0
C256 C 0.28415 0.31421 0.42828 0.0
H257 H 0.39268 0.26573 0.31757 0.0
H258 H 0.36367 0.29334 0.35357 0.0
H259 H 0.30129 0.2523 0.42093 0.0
H260 H 0.20778 0.33793 0.48788 0.0
H261 H 0.2341 0.30857 0.44917 0.0
C262 C 0.78905 0.33793 0.58657 0.0
C263 C 0.77889 0.36099 0.57307 0.0
C264 C 0.77382 0.3206 0.60738 0.0
C265 C 0.71888 0.31888 0.67302 0.0
H266 H 0.71184 0.24804 0.64476 0.0
C267 C 0.64058 0.25741 0.74266 0.0
C268 C 0.64466 0.23142 0.7486 0.0
C269 C 0.6584 0.27218 0.72245 0.0
C270 C 0.7139 0.26765 0.65364 0.0
H271 H 0.74466 0.38365 0.57024 0.0
H272 H 0.71841 0.35374 0.60706 0.0
H273 H 0.74041 0.27521 0.60648 0.0
H274 H 0.67098 0.20064 0.73849 0.0
H275 H 0.70265 0.2266 0.70442 0.0
H276 H 0.69312 0.31158 0.72063 0.0
C277 C 0.73807 0.34902 0.60143 0.0
C278 C 0.7302 0.28322 0.63148 0.0
C279 C 0.7531 0.36607 0.5801 0.0
C280 C 0.66726 0.22061 0.73436 0.0
C281 C 0.68533 0.23551 0.7145 0.0
C282 C 0.70297 0.3033 0.69553 0.0
C283 C 0.74831 0.32625 0.61573 0.0
C284 C 0.73246 0.30911 0.64051 0.0
C285 C 0.68108 0.26152 0.70801 0.0
C286 C 0.69978 0.27754 0.68574 0.0
H287 H 0.80884 0.33347 0.58166 0.0
H288 H 0.78219 0.3032 0.61812 0.0
H289 H 0.72061 0.33867 0.68111 0.0
H290 H 0.62326 0.26633 0.75282 0.0
H291 H 0.65399 0.29191 0.71738 0.0
C292 C 0.78123 0.66439 -0.00568 0.0
C293 C 0.77225 0.63996 0.00321 0.0
C294 C 0.7661 0.68149 0.97314 0.0
C295 C 0.71418 0.68338 0.90068 0.0
H296 H 0.70544 0.75304 0.93447 0.0
C297 C 0.63911 0.74764 0.82851 0.0
C298 C 0.64376 0.77374 0.82505 0.0
C299 C 0.65594 0.73201 0.8491 0.0
C300 C 0.708 0.73379 0.92413 0.0
H301 H 0.74024 0.61443 -0.00284 0.0
H302 H 0.71397 0.64417 0.95971 0.0
H303 H 0.73223 0.72468 0.97346 0.0
H304 H 0.67012 0.80382 0.83989 0.0
H305 H 0.70007 0.77638 0.87486 0.0
H306 H 0.69056 0.69235 0.85098 0.0
C307 C 0.73272 0.65008 0.96921 0.0
C308 C 0.72326 0.7175 0.94667 0.0
C309 C 0.74769 0.63312 -0.00911 0.0
C310 C 0.66599 0.78378 0.84204 0.0
C311 C 0.68304 0.76805 0.8624 0.0
C312 C 0.69922 0.6997 0.87788 0.0
C313 C 0.74182 0.6744 0.95985 0.0
C314 C 0.72624 0.69202 0.93547 0.0
C315 C 0.67814 0.74193 0.86652 0.0
C316 C 0.69557 0.72507 0.88954 0.0
H317 H 0.80007 0.67024 0.0034 0.0
H318 H 0.77369 0.70003 0.96622 0.0
H319 H 0.71651 0.66397 0.89085 0.0
H320 H 0.62206 0.73926 0.81613 0.0
H321 H 0.65111 0.71219 0.85219 0.0
C322 C 0.26249 0.62889 0.08017 0.0
C323 C 0.23721 0.63609 0.07329 0.0
C324 C 0.2791 0.64499 0.1008 0.0
C325 C 0.28899 0.71177 0.13016 0.0
H326 H 0.33047 0.68357 0.21443 0.0
C327 C 0.34509 0.77601 0.23854 0.0
C328 C 0.36931 0.76801 0.25056 0.0
C329 C 0.32905 0.75972 0.21725 0.0
C330 C 0.31931 0.69176 0.19066 0.0
H331 H 0.20971 0.66608 0.08195 0.0
H332 H 0.23871 0.69421 0.11749 0.0
H333 H 0.30318 0.65579 0.1751 0.0
H334 H 0.39564 0.73655 0.2498 0.0
H335 H 0.36797 0.70833 0.21204 0.0
H336 H 0.30525 0.74766 0.1452 0.0
C337 C 0.24573 0.67614 0.10695 0.0
C338 C 0.30363 0.6758 0.16812 0.0
C339 C 0.22908 0.65996 0.08669 0.0
C340 C 0.37702 0.74325 0.24122 0.0
C341 C 0.36107 0.72701 0.21967 0.0
C342 C 0.30481 0.72771 0.15246 0.0
C343 C 0.27087 0.66876 0.11464 0.0
C344 C 0.28818 0.68562 0.13773 0.0
C345 C 0.3369 0.73506 0.20713 0.0
C346 C 0.32012 0.71797 0.18319 0.0
H347 H 0.26933 0.6106 0.07031 0.0
H348 H 0.29843 0.63886 0.1059 0.0
H349 H 0.27757 0.7199 0.10662 0.0
H350 H 0.33852 0.79494 0.2454 0.0
H351 H 0.31042 0.76648 0.20885 0.0
C352 C 0.42999 0.91203 0.35411 0.0
C353 C 0.4187 0.89508 0.32707 0.0
C354 C 0.42577 0.938 0.35093 0.0
C355 C 0.38864 0.98842 0.30047 0.0
H356 H 0.45355 0.0231 0.30209 0.0
C357 C 0.44019 0.08675 0.24523 0.0
C358 C 0.42512 0.10557 0.26298 0.0
C359 C 0.43545 0.06121 0.25242 0.0
C360 C 0.43527 0.01371 0.30135 0.0
H361 H 0.39237 0.8919 0.27765 0.0
H362 H 0.38532 0.93748 0.27165 0.0
H363 H 0.45145 0.97867 0.31963 0.0
H364 H 0.39206 0.11212 0.30005 0.0
H365 H 0.38385 0.06718 0.31274 0.0
H366 H 0.37272 0.02383 0.28131 0.0
C367 C 0.39729 0.93061 0.29551 0.0
C368 C 0.43399 0.98829 0.31199 0.0
C369 C 0.40136 0.90449 0.29892 0.0
C370 C 0.4041 0.09811 0.28602 0.0
C371 C 0.39935 0.0724 0.29325 0.0
C372 C 0.38991 0.01412 0.29004 0.0
C373 C 0.41037 0.94768 0.32037 0.0
C374 C 0.41074 0.97524 0.31149 0.0
C375 C 0.41555 0.05377 0.27758 0.0
C376 C 0.41335 0.02687 0.28984 0.0
H377 H 0.44312 0.90532 0.37656 0.0
H378 H 0.4356 0.95062 0.37122 0.0
H379 H 0.37045 0.97888 0.29986 0.0
H380 H 0.45628 0.09173 0.22677 0.0
H381 H 0.44791 0.04723 0.2392 0.0
C382 C 0.91174 0.41032 0.53175 0.0
C383 C 0.90117 0.43465 0.52779 0.0
C384 C 0.93818 0.40709 0.53372 0.0
C385 C 0.99852 0.44151 0.51174 0.0
H386 H 0.02909 0.39468 0.5864 0.0
C387 C 0.09988 0.45417 0.56799 0.0
C388 C 0.11666 0.43371 0.56306 0.0
C389 C 0.07382 0.45099 0.56267 0.0
C390 C 0.02076 0.40761 0.56512 0.0
H391 H 0.9104 0.47465 0.52359 0.0
H392 H 0.95575 0.46912 0.5279 0.0
H393 H 0.98283 0.39526 0.57798 0.0
H394 H 0.11878 0.39347 0.55033 0.0
H395 H 0.07277 0.38786 0.5419 0.0
H396 H 0.03623 0.45465 0.50025 0.0
C397 C 0.94389 0.45237 0.52832 0.0
C398 C 0.99429 0.40792 0.56016 0.0
C399 C 0.91768 0.45556 0.52611 0.0
C400 C 0.10646 0.40966 0.55422 0.0
C401 C 0.08015 0.40641 0.54948 0.0
C402 C 0.02477 0.44142 0.51709 0.0
C403 C 0.95461 0.42813 0.53186 0.0
C404 C 0.98279 0.42536 0.53411 0.0
C405 C 0.0637 0.42721 0.5528 0.0
C406 C 0.03613 0.42489 0.54442 0.0
H407 H 0.89962 0.39377 0.53319 0.0
H408 H 0.94574 0.38812 0.53625 0.0
H409 H 0.99051 0.45467 0.4905 0.0
H410 H 0.10688 0.47297 0.57484 0.0
H411 H 0.06153 0.46728 0.56584 0.0
C412 C 0.55184 0.91271 0.77075 0.0
C413 C 0.57275 0.89619 0.77226 0.0
C414 C 0.55501 0.93871 0.77615 0.0
C415 C 0.59758 0.99203 0.76744 0.0
H416 H 0.55411 0.02218 0.84761 0.0
C417 C 0.5954 0.10095 0.79851 0.0
C418 C 0.57125 0.11138 0.80561 0.0
C419 C 0.59876 0.07458 0.79697 0.0
C420 C 0.56624 0.0142 0.82482 0.0
H421 H 0.61363 0.89448 0.7792 0.0
H422 H 0.61917 0.94043 0.78774 0.0
H423 H 0.55425 0.97648 0.83853 0.0
H424 H 0.53171 0.102 0.81619 0.0
H425 H 0.53739 0.05669 0.81258 0.0
H426 H 0.60869 0.02991 0.75238 0.0
C427 C 0.60031 0.93287 0.78277 0.0
C428 C 0.56642 0.98796 0.81985 0.0
C429 C 0.59711 0.9066 0.77798 0.0
C430 C 0.55066 0.0948 0.8111 0.0
C431 C 0.55396 0.06863 0.80929 0.0
C432 C 0.59715 0.01847 0.77203 0.0
C433 C 0.57917 0.94906 0.78268 0.0
C434 C 0.58165 0.97663 0.79059 0.0
C435 C 0.57804 0.05806 0.80237 0.0
C436 C 0.58097 0.02993 0.80016 0.0
H437 H 0.53277 0.90556 0.7664 0.0
H438 H 0.53842 0.95079 0.77546 0.0
H439 H 0.60945 0.98373 0.74459 0.0
H440 H 0.6117 0.11312 0.79415 0.0
H441 H 0.61761 0.06716 0.79186 0.0
C442 C 0.90467 0.60709 0.0499 0.0
C443 C 0.89746 0.58622 0.0733 0.0
C444 C 0.93029 0.61341 0.04538 0.0
C445 C 0.99474 0.6027 0.08603 0.0
H446 H 0.0161 0.60656 0.97569 0.0
C447 C 0.08787 0.57496 -0.00742 0.0
C448 C 0.10714 0.5866 0.01506 0.0
C449 C 0.0625 0.58156 -0.00167 0.0
C450 C 0.0104 0.60577 0.00665 0.0
H451 H 0.91146 0.55674 0.11243 0.0
H452 H 0.95602 0.5679 0.10476 0.0
H453 H 0.97093 0.60611 -0.00828 0.0
H454 H 0.11499 0.61515 0.05998 0.0
H455 H 0.07047 0.62643 0.07042 0.0
H456 H 0.03424 0.60128 0.1008 0.0
C457 C 0.94189 0.57933 0.08982 0.0
C458 C 0.98455 0.60571 0.01587 0.0
C459 C 0.91633 0.57283 0.09401 0.0
C460 C 0.10058 0.60586 0.04213 0.0
C461 C 0.07511 0.61222 0.04831 0.0
C462 C 0.0206 0.60301 0.07682 0.0
C463 C 0.94919 0.59922 0.06458 0.0
C464 C 0.97645 0.60342 0.05558 0.0
C465 C 0.0558 0.59975 0.02702 0.0
C466 C 0.02868 0.60378 0.03696 0.0
H467 H 0.89065 0.61784 0.03355 0.0
H468 H 0.93536 0.62899 0.02603 0.0
H469 H 0.98904 0.60112 0.1169 0.0
H470 H 0.09231 0.56015 0.97134 0.0
H471 H 0.04804 0.57147 0.9817 0.0
C472 C 0.54191 0.2129 0.8963 0.0
C473 C 0.56501 0.19977 0.89368 0.0
C474 C 0.52727 0.21185 0.93067 0.0
C475 C 0.51493 0.1716 0.01729 0.0
H476 H 0.47687 0.22994 0.05419 0.0
C477 C 0.46489 0.17628 0.16848 0.0
C478 C 0.44117 0.1882 0.17166 0.0
C479 C 0.47801 0.17594 0.13262 0.0
C480 C 0.48702 0.21339 0.04376 0.0
H481 H 0.59141 0.17589 0.92553 0.0
H482 H 0.56571 0.17419 0.98663 0.0
H483 H 0.50641 0.23447 -0.0012 0.0
H484 H 0.41215 0.20849 0.13925 0.0
H485 H 0.43559 0.20838 0.07575 0.0
H486 H 0.49583 0.15068 0.06288 0.0
C487 C 0.55889 0.18512 0.96158 0.0
C488 C 0.50409 0.21599 0.01223 0.0
C489 C 0.57374 0.18628 0.92689 0.0
C490 C 0.43034 0.19905 0.13754 0.0
C491 C 0.44381 0.19913 0.10144 0.0
C492 C 0.49794 0.16904 0.04897 0.0
C493 C 0.53529 0.19762 0.96352 0.0
C494 C 0.51828 0.19513 -0.00139 0.0
C495 C 0.46799 0.18786 0.09893 0.0
C496 C 0.48388 0.18993 0.06264 0.0
H497 H 0.53469 0.22354 0.87119 0.0
H498 H 0.50913 0.22145 0.9308 0.0
H499 H 0.52514 0.15505 0.00705 0.0
H500 H 0.47381 0.16762 0.19391 0.0
H501 H 0.49665 0.16733 0.13186 0.0
C502 C 0.80795 0.53569 0.14952 0.0
C503 C 0.80883 0.56232 0.14948 0.0
C504 C 0.80987 0.52216 0.18482 0.0
C505 C 0.79903 0.52559 0.29122 0.0
H506 H 0.84386 0.46739 0.29493 0.0
C507 C 0.81471 0.47096 0.43584 0.0
C508 C 0.8167 0.44442 0.43463 0.0
C509 C 0.81479 0.48515 0.40108 0.0
C510 C 0.831 0.48335 0.2942 0.0
H511 H 0.8118 0.59568 0.18682 0.0
H512 H 0.81469 0.57172 0.24953 0.0
H513 H 0.84256 0.49378 0.23535 0.0
H514 H 0.82051 0.41195 0.39566 0.0
H515 H 0.81999 0.43694 0.33398 0.0
H516 H 0.78686 0.51491 0.34943 0.0
C517 C 0.81275 0.56151 0.22169 0.0
C518 C 0.8304 0.49858 0.26023 0.0
C519 C 0.81109 0.5752 0.18595 0.0
C520 C 0.81899 0.43236 0.39751 0.0
C521 C 0.81881 0.4467 0.3623 0.0
C522 C 0.79944 0.51025 0.32503 0.0
C523 C 0.81247 0.53483 0.22126 0.0
C524 C 0.81437 0.51982 0.25839 0.0
C525 C 0.81645 0.4733 0.36379 0.0
C526 C 0.81549 0.48897 0.32703 0.0
H527 H 0.80592 0.52506 0.12208 0.0
H528 H 0.80906 0.50168 0.1836 0.0
H529 H 0.78617 0.54156 0.29032 0.0
H530 H 0.81296 0.48102 0.46379 0.0
H531 H 0.81362 0.50556 0.40358 0.0
C532 C 0.53927 0.79907 0.6806 0.0
C533 C 0.56446 0.80783 0.68121 0.0
C534 C 0.5253 0.79887 0.64558 0.0
C535 C 0.52153 0.82814 0.54679 0.0
H536 H 0.47355 0.77363 0.52725 0.0
C537 C 0.47164 0.81159 0.39751 0.0
C538 C 0.44523 0.80762 0.3974 0.0
C539 C 0.48514 0.81275 0.43297 0.0
C540 C 0.48659 0.78913 0.53272 0.0
H541 H 0.59504 0.82276 0.64521 0.0
H542 H 0.57046 0.82204 0.58282 0.0
H543 H 0.50156 0.77173 0.58501 0.0
H544 H 0.41232 0.80132 0.43466 0.0
H545 H 0.43645 0.8025 0.49762 0.0
H546 H 0.50696 0.84503 0.49354 0.0
C547 C 0.56153 0.81566 0.61004 0.0
C548 C 0.50273 0.78805 0.56564 0.0
C549 C 0.57566 0.81591 0.64554 0.0
C550 C 0.43261 0.80451 0.43387 0.0
C551 C 0.44637 0.80517 0.46971 0.0
C552 C 0.50558 0.82906 0.51359 0.0
C553 C 0.53611 0.80721 0.60985 0.0
C554 C 0.5203 0.80762 0.57321 0.0
C555 C 0.47275 0.80947 0.46937 0.0
C556 C 0.48795 0.80958 0.50634 0.0
H557 H 0.53 0.7926 0.7075 0.0
H558 H 0.50571 0.7927 0.64685 0.0
H559 H 0.5345 0.84371 0.5521 0.0
H560 H 0.48218 0.81372 0.3701 0.0
H561 H 0.50549 0.81563 0.43183 0.0
C562 C 0.20347 0.57351 0.89357 0.0
C563 C 0.19087 0.5637 0.92694 0.0
C564 C 0.20432 0.5595 0.85801 0.0
C565 C 0.17407 0.50588 0.8044 0.0
H566 H 0.24102 0.49491 0.76016 0.0
C567 C 0.19206 0.43034 0.68249 0.0
C568 C 0.2066 0.43905 0.65035 0.0
C569 C 0.1908 0.44465 0.71774 0.0
C570 C 0.22215 0.4979 0.77197 0.0
H571 H 0.16792 0.53246 0.94839 0.0
H572 H 0.169 0.5086 0.88705 0.0
H573 H 0.23559 0.52481 0.81493 0.0
H574 H 0.23227 0.46852 0.63037 0.0
H575 H 0.2301 0.49316 0.69107 0.0
H576 H 0.16057 0.47908 0.76135 0.0
C577 C 0.1784 0.52685 0.88804 0.0
C578 C 0.21904 0.51518 0.80313 0.0
C579 C 0.17794 0.54053 0.92344 0.0
C580 C 0.22084 0.46137 0.65471 0.0
C581 C 0.21973 0.47547 0.68966 0.0
C582 C 0.17715 0.48869 0.77309 0.0
C583 C 0.19212 0.53579 0.85525 0.0
C584 C 0.19498 0.5193 0.81975 0.0
C585 C 0.20426 0.46765 0.7213 0.0
C586 C 0.20124 0.48449 0.7565 0.0
H587 H 0.2137 0.59127 0.89559 0.0
H588 H 0.21491 0.5669 0.83298 0.0
H589 H 0.15526 0.50875 0.81657 0.0
H590 H 0.18079 0.41327 0.6797 0.0
H591 H 0.17891 0.438 0.74184 0.0
loop_
_geom_bond_atom_site_label_1
_geom_bond_atom_site_label_2
_geom_bond_distance
_geom_bond_site_symmetry_2
_ccdc_geom_bond_type
Co0 O1 2.216 . S
Co0 O2 2.091 . S
Co0 O4 2.004 . S
Co0 O10 2.021 . S
Co0 O12 2.137 . S
Co0 O13 2.244 . S
O1 Co0 2.216 . S
O1 C8 1.247 . S
O2 Co0 2.091 . S
O2 C8 1.261 . S
C3 O12 1.247 . S
C3 O13 1.272 . S
O4 Co0 2.004 . S
O4 C9 1.259 . S
Co5 O6 2.061 . S
Co5 O11 2.052 . S
Co5 O13 2.135 . S
O6 Co5 2.061 . S
O6 C9 1.235 . S
C7 O10 1.238 . S
C7 O11 1.241 . S
C8 O1 1.247 . S
C8 O2 1.261 . S
C9 O4 1.259 . S
C9 O6 1.235 . S
O10 Co0 2.021 . S
O10 C7 1.238 . S
O11 Co5 2.052 . S
O11 C7 1.241 . S
O12 Co0 2.137 . S
O12 C3 1.247 . S
O13 Co0 2.244 . S
O13 C3 1.272 . S
O13 Co5 2.135 . S
Co14 O15 2.216 . S
Co14 O16 2.091 . S
Co14 O18 2.004 . S
Co14 O24 2.021 . S
Co14 O26 2.137 . S
Co14 O27 2.244 . S
O15 Co14 2.216 . S
O15 C22 1.247 . S
O16 Co14 2.091 . S
O16 C22 1.261 . S
C17 O26 1.247 . S
C17 O27 1.272 . S
O18 Co14 2.004 . S
O18 C23 1.259 . S
Co19 O20 2.061 . S
Co19 O25 2.052 . S
Co19 O27 2.135 . S
O20 Co19 2.061 . S
O20 C23 1.235 . S
C21 O24 1.238 . S
C21 O25 1.241 . S
C22 O15 1.247 . S
C22 O16 1.261 . S
C23 O18 1.259 . S
C23 O20 1.235 . S
O24 Co14 2.021 . S
O24 C21 1.238 . S
O25 Co19 2.052 . S
O25 C21 1.241 . S
O26 Co14 2.137 . S
O26 C17 1.247 . S
O27 Co14 2.244 . S
O27 C17 1.272 . S
O27 Co19 2.135 . S
Co28 O29 2.216 . S
Co28 O30 2.091 . S
Co28 O32 2.004 . S
Co28 O38 2.021 . S
Co28 O40 2.137 . S
Co28 O41 2.244 . S
O29 Co28 2.216 . S
O29 C36 1.247 . S
O30 Co28 2.091 . S
O30 C36 1.261 . S
C31 O40 1.247 . S
C31 O41 1.272 . S
O32 Co28 2.004 . S
O32 C37 1.259 . S
Co33 O34 2.061 . S
Co33 O39 2.052 . S
Co33 O41 2.135 . S
O34 Co33 2.061 . S
O34 C37 1.235 . S
C35 O38 1.238 . S
C35 O39 1.241 . S
C36 O29 1.247 . S
C36 O30 1.261 . S
C37 O32 1.259 . S
C37 O34 1.235 . S
O38 Co28 2.021 . S
O38 C35 1.238 . S
O39 Co33 2.052 . S
O39 C35 1.241 . S
O40 Co28 2.137 . S
O40 C31 1.247 . S
O41 Co28 2.244 . S
O41 C31 1.272 . S
O41 Co33 2.135 . S
Co42 O43 2.216 . S
Co42 O44 2.091 . S
Co42 O46 2.004 . S
Co42 O52 2.021 . S
Co42 O54 2.136 . S
Co42 O55 2.244 . S
O43 Co42 2.216 . S
O43 C50 1.247 . S
O44 Co42 2.091 . S
O44 C50 1.261 . S
C45 O54 1.247 1_556 S
C45 O55 1.272 1_556 S
O46 Co42 2.004 . S
O46 C51 1.259 . S
Co47 O48 2.061 . S
Co47 O53 2.052 . S
Co47 O55 2.135 . S
O48 Co47 2.061 . S
O48 C51 1.235 . S
C49 O52 1.238 . S
C49 O53 1.241 . S
C50 O43 1.247 . S
C50 O44 1.261 . S
C51 O46 1.259 . S
C51 O48 1.235 . S
O52 Co42 2.021 . S
O52 C49 1.238 . S
O53 Co47 2.052 . S
O53 C49 1.241 . S
O54 Co42 2.136 . S
O54 C45 1.247 1_554 S
O55 Co42 2.244 . S
O55 C45 1.272 1_554 S
O55 Co47 2.135 . S
Co56 O57 2.216 . S
Co56 O58 2.091 . S
Co56 O60 2.004 . S
Co56 O66 2.021 . S
Co56 O68 2.137 . S
Co56 O69 2.244 . S
O57 Co56 2.216 . S
O57 C64 1.247 . S
O58 Co56 2.091 . S
O58 C64 1.261 . S
C59 O68 1.247 . S
C59 O69 1.272 . S
O60 Co56 2.004 . S
O60 C65 1.259 . S
Co61 O62 2.061 . S
Co61 O67 2.052 . S
Co61 O69 2.135 . S
O62 Co61 2.061 . S
O62 C65 1.235 . S
C63 O66 1.238 . S
C63 O67 1.241 . S
C64 O57 1.247 . S
C64 O58 1.261 . S
C65 O60 1.259 . S
C65 O62 1.235 . S
O66 Co56 2.021 . S
O66 C63 1.238 . S
O67 Co61 2.052 . S
O67 C63 1.241 . S
O68 Co56 2.137 . S
O68 C59 1.247 . S
O69 Co56 2.244 . S
O69 C59 1.272 . S
O69 Co61 2.135 . S
Co70 O71 2.216 . S
Co70 O72 2.091 . S
Co70 O74 2.004 . S
Co70 O80 2.021 . S
Co70 O82 2.137 . S
Co70 O83 2.244 . S
O71 Co70 2.216 . S
O71 C78 1.247 . S
O72 Co70 2.091 . S
O72 C78 1.261 . S
C73 O82 1.247 . S
C73 O83 1.272 . S
O74 Co70 2.004 . S
O74 C79 1.259 . S
Co75 O76 2.061 . S
Co75 O81 2.052 . S
Co75 O83 2.135 . S
O76 Co75 2.061 . S
O76 C79 1.235 . S
C77 O80 1.238 . S
C77 O81 1.241 . S
C78 O71 1.247 . S
C78 O72 1.261 . S
C79 O74 1.259 . S
C79 O76 1.235 . S
O80 Co70 2.021 . S
O80 C77 1.238 . S
O81 Co75 2.052 . S
O81 C77 1.241 . S
O82 Co70 2.137 . S
O82 C73 1.247 . S
O83 Co70 2.244 . S
O83 C73 1.272 . S
O83 Co75 2.135 . S
Co84 O85 2.216 . S
Co84 O86 2.091 . S
Co84 O88 2.004 . S
Co84 O94 2.021 . S
Co84 O96 2.137 . S
Co84 O97 2.244 . S
O85 Co84 2.216 . S
O85 C92 1.247 . S
O86 Co84 2.091 . S
O86 C92 1.261 . S
C87 O96 1.247 . S
C87 O97 1.272 . S
O88 Co84 2.004 . S
O88 C93 1.259 . S
Co89 O90 2.061 . S
Co89 O95 2.052 . S
Co89 O97 2.135 . S
O90 Co89 2.061 . S
O90 C93 1.235 . S
C91 O94 1.238 . S
C91 O95 1.241 . S
C92 O85 1.247 . S
C92 O86 1.261 . S
C93 O88 1.259 . S
C93 O90 1.235 . S
O94 Co84 2.021 . S
O94 C91 1.238 . S
O95 Co89 2.052 . S
O95 C91 1.241 . S
O96 Co84 2.137 . S
O96 C87 1.247 . S
O97 Co84 2.244 . S
O97 C87 1.272 . S
O97 Co89 2.135 . S
Co98 O99 2.216 . S
Co98 O100 2.091 . S
Co98 O102 2.004 . S
Co98 O108 2.021 1_554 S
Co98 O110 2.137 . S
Co98 O111 2.244 . S
O99 Co98 2.216 . S
O99 C106 1.247 . S
O100 Co98 2.091 . S
O100 C106 1.261 . S
C101 O110 1.247 . S
C101 O111 1.272 . S
O102 Co98 2.004 . S
O102 C107 1.259 . S
Co103 O104 2.061 . S
Co103 O109 2.052 1_554 S
Co103 O111 2.135 . S
O104 Co103 2.061 . S
O104 C107 1.235 . S
C105 O108 1.238 . S
C105 O109 1.241 . S
C106 O99 1.247 . S
C106 O100 1.261 . S
C107 O102 1.259 . S
C107 O104 1.235 . S
O108 Co98 2.021 1_556 S
O108 C105 1.238 . S
O109 Co103 2.052 1_556 S
O109 C105 1.241 . S
O110 Co98 2.137 . S
O110 C101 1.247 . S
O111 Co98 2.244 . S
O111 C101 1.272 . S
O111 Co103 2.135 . S
C112 C113 1.349 . S
C112 C114 1.327 . S
C112 H137 0.950 . S
C113 C112 1.349 . S
C113 C129 1.349 . S
C114 C112 1.327 . S
C114 C133 1.429 . S
C114 H138 0.950 . S
C115 C132 1.574 . S
C115 C134 1.368 . S
C115 H139 0.949 . S
H116 C120 0.949 . S
C117 C118 1.349 . S
C117 C119 1.327 . S
C117 H140 0.950 . S
C118 C117 1.349 . S
C118 C130 1.349 . S
C119 C117 1.327 . S
C119 C135 1.429 . S
C119 H141 0.950 . S
C120 H116 0.949 . S
C120 C128 1.574 . S
C120 C136 1.368 . S
H121 C129 0.950 . S
H122 C127 0.950 . S
H123 C128 0.949 . S
H124 C130 0.950 . S
H125 C131 0.950 . S
H126 C132 0.949 . S
C127 H122 0.950 . S
C127 C129 1.327 . S
C127 C133 1.429 . S
C128 C120 1.574 . S
C128 H123 0.949 . S
C128 C134 1.368 . S
C129 C113 1.349 . S
C129 H121 0.950 . S
C129 C127 1.327 . S
C130 C118 1.349 . S
C130 H124 0.950 . S
C130 C131 1.327 . S
C131 H125 0.950 . S
C131 C130 1.327 . S
C131 C135 1.429 . S
C132 C115 1.574 . S
C132 H126 0.949 . S
C132 C136 1.368 . S
C133 C114 1.429 . S
C133 C127 1.429 . S
C133 C134 1.523 . S
C134 C115 1.368 . S
C134 C128 1.368 . S
C134 C133 1.523 . S
C135 C119 1.429 . S
C135 C131 1.429 . S
C135 C136 1.523 . S
C136 C120 1.368 . S
C136 C132 1.368 . S
C136 C135 1.523 . S
H137 C112 0.950 . S
H138 C114 0.950 . S
H139 C115 0.949 . S
H140 C117 0.950 . S
H141 C119 0.950 . S
C142 C143 1.349 . S
C142 C144 1.327 . S
C142 H167 0.950 . S
C143 C142 1.349 . S
C143 C159 1.349 . S
C144 C142 1.327 . S
C144 C163 1.429 . S
C144 H168 0.950 . S
C145 C162 1.574 . S
C145 C164 1.368 . S
C145 H169 0.949 . S
H146 C150 0.949 . S
C147 C148 1.349 . S
C147 C149 1.327 . S
C147 H170 0.950 . S
C148 C147 1.349 . S
C148 C160 1.349 . S
C149 C147 1.327 . S
C149 C165 1.429 . S
C149 H171 0.950 . S
C150 H146 0.949 . S
C150 C158 1.574 . S
C150 C166 1.368 . S
H151 C159 0.950 . S
H152 C157 0.950 . S
H153 C158 0.949 . S
H154 C160 0.950 . S
H155 C161 0.950 . S
H156 C162 0.949 . S
C157 H152 0.950 . S
C157 C159 1.327 . S
C157 C163 1.429 . S
C158 C150 1.574 . S
C158 H153 0.949 . S
C158 C164 1.368 . S
C159 C143 1.349 . S
C159 H151 0.950 . S
C159 C157 1.327 . S
C160 C148 1.349 . S
C160 H154 0.950 . S
C160 C161 1.327 . S
C161 H155 0.950 . S
C161 C160 1.327 . S
C161 C165 1.429 . S
C162 C145 1.574 . S
C162 H156 0.949 . S
C162 C166 1.368 . S
C163 C144 1.429 . S
C163 C157 1.429 . S
C163 C164 1.523 . S
C164 C145 1.368 . S
C164 C158 1.368 . S
C164 C163 1.523 . S
C165 C149 1.429 . S
C165 C161 1.429 . S
C165 C166 1.523 . S
C166 C150 1.368 . S
C166 C162 1.368 . S
C166 C165 1.523 . S
H167 C142 0.950 . S
H168 C144 0.950 . S
H169 C145 0.949 . S
H170 C147 0.950 . S
H171 C149 0.950 . S
C172 C173 1.349 . S
C172 C174 1.327 . S
C172 H197 0.950 . S
C173 C172 1.349 . S
C173 C189 1.349 . S
C174 C172 1.327 . S
C174 C193 1.429 . S
C174 H198 0.950 . S
C175 C192 1.574 . S
C175 C194 1.368 . S
C175 H199 0.949 . S
H176 C180 0.947 1_556 S
C177 C178 1.349 . S
C177 C179 1.327 . S
C177 H200 0.950 . S
C178 C177 1.349 . S
C178 C190 1.349 . S
C179 C177 1.327 . S
C179 C195 1.429 . S
C179 H201 0.950 . S
C180 H176 0.947 1_554 S
C180 C188 1.574 . S
C180 C196 1.368 . S
H181 C189 0.950 . S
H182 C187 0.950 . S
H183 C188 0.949 . S
H184 C190 0.950 . S
H185 C191 0.950 . S
H186 C192 0.949 . S
C187 H182 0.950 . S
C187 C189 1.327 . S
C187 C193 1.429 . S
C188 C180 1.574 . S
C188 H183 0.949 . S
C188 C194 1.368 . S
C189 C173 1.349 . S
C189 H181 0.950 . S
C189 C187 1.327 . S
C190 C178 1.349 . S
C190 H184 0.950 . S
C190 C191 1.327 . S
C191 H185 0.950 . S
C191 C190 1.327 . S
C191 C195 1.429 . S
C192 C175 1.574 . S
C192 H186 0.949 . S
C192 C196 1.368 . S
C193 C174 1.429 . S
C193 C187 1.429 . S
C193 C194 1.523 . S
C194 C175 1.368 . S
C194 C188 1.368 . S
C194 C193 1.523 . S
C195 C179 1.429 . S
C195 C191 1.429 . S
C195 C196 1.523 1_556 S
C196 C180 1.368 . S
C196 C192 1.368 . S
C196 C195 1.523 1_554 S
H197 C172 0.950 . S
H198 C174 0.950 . S
H199 C175 0.949 . S
H200 C177 0.950 . S
H201 C179 0.950 . S
C202 C203 1.349 . S
C202 C204 1.327 . S
C202 H227 0.950 . S
C203 C202 1.349 . S
C203 C219 1.349 . S
C204 C202 1.327 . S
C204 C223 1.429 . S
C204 H228 0.950 . S
C205 C222 1.574 . S
C205 C224 1.368 . S
C205 H229 0.949 . S
H206 C210 0.949 . S
C207 C208 1.349 . S
C207 C209 1.327 . S
C207 H230 0.950 . S
C208 C207 1.349 . S
C208 C220 1.349 . S
C209 C207 1.327 . S
C209 C225 1.429 . S
C209 H231 0.950 . S
C210 H206 0.949 . S
C210 C218 1.574 . S
C210 C226 1.368 . S
H211 C219 0.950 . S
H212 C217 0.950 . S
H213 C218 0.949 . S
H214 C220 0.950 . S
H215 C221 0.950 . S
H216 C222 0.949 . S
C217 H212 0.950 . S
C217 C219 1.327 . S
C217 C223 1.429 . S
C218 C210 1.574 . S
C218 H213 0.949 . S
C218 C224 1.368 . S
C219 C203 1.349 . S
C219 H211 0.950 . S
C219 C217 1.327 . S
C220 C208 1.349 . S
C220 H214 0.950 . S
C220 C221 1.327 . S
C221 H215 0.950 . S
C221 C220 1.327 . S
C221 C225 1.429 . S
C222 C205 1.574 . S
C222 H216 0.949 . S
C222 C226 1.368 . S
C223 C204 1.429 . S
C223 C217 1.429 . S
C223 C224 1.523 . S
C224 C205 1.368 . S
C224 C218 1.368 . S
C224 C223 1.523 . S
C225 C209 1.429 . S
C225 C221 1.429 . S
C225 C226 1.523 . S
C226 C210 1.368 . S
C226 C222 1.368 . S
C226 C225 1.523 . S
H227 C202 0.950 . S
H228 C204 0.950 . S
H229 C205 0.949 . S
H230 C207 0.950 . S
H231 C209 0.950 . S
C232 C233 1.349 . S
C232 C234 1.327 . S
C232 H257 0.950 . S
C233 C232 1.349 . S
C233 C249 1.349 . S
C234 C232 1.327 . S
C234 C253 1.429 . S
C234 H258 0.950 . S
C235 C252 1.574 . S
C235 C254 1.368 . S
C235 H259 0.949 . S
H236 C240 0.949 . S
C237 C238 1.349 . S
C237 C239 1.327 . S
C237 H260 0.950 . S
C238 C237 1.349 . S
C238 C250 1.349 . S
C239 C237 1.327 . S
C239 C255 1.429 . S
C239 H261 0.950 . S
C240 H236 0.949 . S
C240 C248 1.574 . S
C240 C256 1.368 . S
H241 C249 0.950 . S
H242 C247 0.950 . S
H243 C248 0.949 . S
H244 C250 0.950 . S
H245 C251 0.950 . S
H246 C252 0.949 . S
C247 H242 0.950 . S
C247 C249 1.327 . S
C247 C253 1.429 . S
C248 C240 1.574 . S
C248 H243 0.949 . S
C248 C254 1.368 . S
C249 C233 1.349 . S
C249 H241 0.950 . S
C249 C247 1.327 . S
C250 C238 1.349 . S
C250 H244 0.950 . S
C250 C251 1.327 . S
C251 H245 0.950 . S
C251 C250 1.327 . S
C251 C255 1.429 . S
C252 C235 1.574 . S
C252 H246 0.949 . S
C252 C256 1.368 . S
C253 C234 1.429 . S
C253 C247 1.429 . S
C253 C254 1.523 . S
C254 C235 1.368 . S
C254 C248 1.368 . S
C254 C253 1.523 . S
C255 C239 1.429 . S
C255 C251 1.429 . S
C255 C256 1.523 . S
C256 C240 1.368 . S
C256 C252 1.368 . S
C256 C255 1.523 . S
H257 C232 0.950 . S
H258 C234 0.950 . S
H259 C235 0.949 . S
H260 C237 0.950 . S
H261 C239 0.950 . S
C262 C263 1.349 . S
C262 C264 1.327 . S
C262 H287 0.950 . S
C263 C262 1.349 . S
C263 C279 1.349 . S
C264 C262 1.327 . S
C264 C283 1.429 . S
C264 H288 0.950 . S
C265 C282 1.574 . S
C265 C284 1.368 . S
C265 H289 0.949 . S
H266 C270 0.949 . S
C267 C268 1.349 . S
C267 C269 1.327 . S
C267 H290 0.950 . S
C268 C267 1.349 . S
C268 C280 1.349 . S
C269 C267 1.327 . S
C269 C285 1.429 . S
C269 H291 0.950 . S
C270 H266 0.949 . S
C270 C278 1.574 . S
C270 C286 1.368 . S
H271 C279 0.950 . S
H272 C277 0.950 . S
H273 C278 0.949 . S
H274 C280 0.950 . S
H275 C281 0.950 . S
H276 C282 0.949 . S
C277 H272 0.950 . S
C277 C279 1.327 . S
C277 C283 1.429 . S
C278 C270 1.574 . S
C278 H273 0.949 . S
C278 C284 1.368 . S
C279 C263 1.349 . S
C279 H271 0.950 . S
C279 C277 1.327 . S
C280 C268 1.349 . S
C280 H274 0.950 . S
C280 C281 1.327 . S
C281 H275 0.950 . S
C281 C280 1.327 . S
C281 C285 1.429 . S
C282 C265 1.574 . S
C282 H276 0.949 . S
C282 C286 1.368 . S
C283 C264 1.429 . S
C283 C277 1.429 . S
C283 C284 1.523 . S
C284 C265 1.368 . S
C284 C278 1.368 . S
C284 C283 1.523 . S
C285 C269 1.429 . S
C285 C281 1.429 . S
C285 C286 1.523 . S
C286 C270 1.368 . S
C286 C282 1.368 . S
C286 C285 1.523 . S
H287 C262 0.950 . S
H288 C264 0.950 . S
H289 C265 0.949 . S
H290 C267 0.950 . S
H291 C269 0.950 . S
C292 C293 1.349 . S
C292 C294 1.327 . S
C292 H317 0.950 . S
C293 C292 1.349 . S
C293 C309 1.349 1_554 S
C294 C292 1.327 . S
C294 C313 1.429 1_554 S
C294 H318 0.950 . S
C295 C312 1.574 . S
C295 C314 1.368 . S
C295 H319 0.949 . S
H296 C300 0.949 . S
C297 C298 1.349 . S
C297 C299 1.327 . S
C297 H320 0.950 . S
C298 C297 1.349 . S
C298 C310 1.349 . S
C299 C297 1.327 . S
C299 C315 1.429 . S
C299 H321 0.950 . S
C300 H296 0.949 . S
C300 C308 1.574 . S
C300 C316 1.368 . S
H301 C309 0.950 . S
H302 C307 0.950 . S
H303 C308 0.949 . S
H304 C310 0.950 . S
H305 C311 0.950 . S
H306 C312 0.949 . S
C307 H302 0.950 . S
C307 C309 1.327 . S
C307 C313 1.429 . S
C308 C300 1.574 . S
C308 H303 0.949 . S
C308 C314 1.368 . S
C309 C293 1.349 1_556 S
C309 H301 0.950 . S
C309 C307 1.327 . S
C310 C298 1.349 . S
C310 H304 0.950 . S
C310 C311 1.327 . S
C311 H305 0.950 . S
C311 C310 1.327 . S
C311 C315 1.429 . S
C312 C295 1.574 . S
C312 H306 0.949 . S
C312 C316 1.368 . S
C313 C294 1.429 1_556 S
C313 C307 1.429 . S
C313 C314 1.523 . S
C314 C295 1.368 . S
C314 C308 1.368 . S
C314 C313 1.523 . S
C315 C299 1.429 . S
C315 C311 1.429 . S
C315 C316 1.523 . S
C316 C300 1.368 . S
C316 C312 1.368 . S
C316 C315 1.523 . S
H317 C292 0.950 . S
H318 C294 0.950 . S
H319 C295 0.949 . S
H320 C297 0.950 . S
H321 C299 0.950 . S
C322 C323 1.349 . S
C322 C324 1.327 . S
C322 H347 0.950 . S
C323 C322 1.349 . S
C323 C339 1.349 . S
C324 C322 1.327 . S
C324 C343 1.429 . S
C324 H348 0.950 . S
C325 C342 1.574 . S
C325 C344 1.368 . S
C325 H349 0.949 . S
H326 C330 0.949 . S
C327 C328 1.349 . S
C327 C329 1.327 . S
C327 H350 0.950 . S
C328 C327 1.349 . S
C328 C340 1.349 . S
C329 C327 1.327 . S
C329 C345 1.429 . S
C329 H351 0.950 . S
C330 H326 0.949 . S
C330 C338 1.574 . S
C330 C346 1.368 . S
H331 C339 0.950 . S
H332 C337 0.950 . S
H333 C338 0.949 . S
H334 C340 0.950 . S
H335 C341 0.950 . S
H336 C342 0.949 . S
C337 H332 0.950 . S
C337 C339 1.327 . S
C337 C343 1.429 . S
C338 C330 1.574 . S
C338 H333 0.949 . S
C338 C344 1.368 . S
C339 C323 1.349 . S
C339 H331 0.950 . S
C339 C337 1.327 . S
C340 C328 1.349 . S
C340 H334 0.950 . S
C340 C341 1.327 . S
C341 H335 0.950 . S
C341 C340 1.327 . S
C341 C345 1.429 . S
C342 C325 1.574 . S
C342 H336 0.949 . S
C342 C346 1.368 . S
C343 C324 1.429 . S
C343 C337 1.429 . S
C343 C344 1.523 . S
C344 C325 1.368 . S
C344 C338 1.368 . S
C344 C343 1.523 . S
C345 C329 1.429 . S
C345 C341 1.429 . S
C345 C346 1.523 . S
C346 C330 1.368 . S
C346 C342 1.368 . S
C346 C345 1.523 . S
H347 C322 0.950 . S
H348 C324 0.950 . S
H349 C325 0.949 . S
H350 C327 0.950 . S
H351 C329 0.950 . S
C352 C353 1.349 . S
C352 C354 1.327 . S
C352 H377 0.950 . S
C353 C352 1.349 . S
C353 C369 1.349 . S
C354 C352 1.327 . S
C354 C373 1.429 . S
C354 H378 0.950 . S
C355 C372 1.574 1_565 S
C355 C374 1.368 . S
C355 H379 0.949 . S
H356 C360 0.949 . S
C357 C358 1.349 . S
C357 C359 1.327 . S
C357 H380 0.950 . S
C358 C357 1.349 . S
C358 C370 1.349 . S
C359 C357 1.327 . S
C359 C375 1.429 . S
C359 H381 0.950 . S
C360 H356 0.949 . S
C360 C368 1.574 1_545 S
C360 C376 1.368 . S
H361 C369 0.950 . S
H362 C367 0.950 . S
H363 C368 0.949 . S
H364 C370 0.950 . S
H365 C371 0.950 . S
H366 C372 0.949 . S
C367 H362 0.950 . S
C367 C369 1.327 . S
C367 C373 1.429 . S
C368 C360 1.574 1_565 S
C368 H363 0.949 . S
C368 C374 1.368 . S
C369 C353 1.349 . S
C369 H361 0.950 . S
C369 C367 1.327 . S
C370 C358 1.349 . S
C370 H364 0.950 . S
C370 C371 1.327 . S
C371 H365 0.950 . S
C371 C370 1.327 . S
C371 C375 1.429 . S
C372 C355 1.574 1_545 S
C372 H366 0.949 . S
C372 C376 1.368 . S
C373 C354 1.429 . S
C373 C367 1.429 . S
C373 C374 1.523 . S
C374 C355 1.368 . S
C374 C368 1.368 . S
C374 C373 1.523 . S
C375 C359 1.429 . S
C375 C371 1.429 . S
C375 C376 1.523 . S
C376 C360 1.368 . S
C376 C372 1.368 . S
C376 C375 1.523 . S
H377 C352 0.950 . S
H378 C354 0.950 . S
H379 C355 0.949 . S
H380 C357 0.950 . S
H381 C359 0.950 . S
C382 C383 1.349 . S
C382 C384 1.327 . S
C382 H407 0.950 . S
C383 C382 1.349 . S
C383 C399 1.349 . S
C384 C382 1.327 . S
C384 C403 1.429 . S
C384 H408 0.950 . S
C385 C402 1.574 1_655 S
C385 C404 1.368 . S
C385 H409 0.949 . S
H386 C390 0.949 . S
C387 C388 1.349 . S
C387 C389 1.327 . S
C387 H410 0.950 . S
C388 C387 1.349 . S
C388 C400 1.349 . S
C389 C387 1.327 . S
C389 C405 1.429 . S
C389 H411 0.950 . S
C390 H386 0.949 . S
C390 C398 1.574 1_455 S
C390 C406 1.368 . S
H391 C399 0.950 . S
H392 C397 0.950 . S
H393 C398 0.949 . S
H394 C400 0.950 . S
H395 C401 0.950 . S
H396 C402 0.949 . S
C397 H392 0.950 . S
C397 C399 1.327 . S
C397 C403 1.429 . S
C398 C390 1.574 1_655 S
C398 H393 0.949 . S
C398 C404 1.368 . S
C399 C383 1.349 . S
C399 H391 0.950 . S
C399 C397 1.327 . S
C400 C388 1.349 . S
C400 H394 0.950 . S
C400 C401 1.327 . S
C401 H395 0.950 . S
C401 C400 1.327 . S
C401 C405 1.429 . S
C402 C385 1.574 1_455 S
C402 H396 0.949 . S
C402 C406 1.368 . S
C403 C384 1.429 . S
C403 C397 1.429 . S
C403 C404 1.523 . S
C404 C385 1.368 . S
C404 C398 1.368 . S
C404 C403 1.523 . S
C405 C389 1.429 . S
C405 C401 1.429 . S
C405 C406 1.523 . S
C406 C390 1.368 . S
C406 C402 1.368 . S
C406 C405 1.523 . S
H407 C382 0.950 . S
H408 C384 0.950 . S
H409 C385 0.949 . S
H410 C387 0.950 . S
H411 C389 0.950 . S
C412 C413 1.349 . S
C412 C414 1.327 . S
C412 H437 0.950 . S
C413 C412 1.349 . S
C413 C429 1.349 . S
C414 C412 1.327 . S
C414 C433 1.429 . S
C414 H438 0.950 . S
C415 C432 1.574 1_565 S
C415 C434 1.368 . S
C415 H439 0.949 . S
H416 C420 0.949 . S
C417 C418 1.349 . S
C417 C419 1.327 . S
C417 H440 0.950 . S
C418 C417 1.349 . S
C418 C430 1.349 . S
C419 C417 1.327 . S
C419 C435 1.429 . S
C419 H441 0.950 . S
C420 H416 0.949 . S
C420 C428 1.574 1_545 S
C420 C436 1.368 . S
H421 C429 0.950 . S
H422 C427 0.950 . S
H423 C428 0.949 . S
H424 C430 0.950 . S
H425 C431 0.950 . S
H426 C432 0.949 . S
C427 H422 0.950 . S
C427 C429 1.327 . S
C427 C433 1.429 . S
C428 C420 1.574 1_565 S
C428 H423 0.949 . S
C428 C434 1.368 . S
C429 C413 1.349 . S
C429 H421 0.950 . S
C429 C427 1.327 . S
C430 C418 1.349 . S
C430 H424 0.950 . S
C430 C431 1.327 . S
C431 H425 0.950 . S
C431 C430 1.327 . S
C431 C435 1.429 . S
C432 C415 1.574 1_545 S
C432 H426 0.949 . S
C432 C436 1.368 . S
C433 C414 1.429 . S
C433 C427 1.429 . S
C433 C434 1.523 . S
C434 C415 1.368 . S
C434 C428 1.368 . S
C434 C433 1.523 . S
C435 C419 1.429 . S
C435 C431 1.429 . S
C435 C436 1.523 . S
C436 C420 1.368 . S
C436 C432 1.368 . S
C436 C435 1.523 . S
H437 C412 0.950 . S
H438 C414 0.950 . S
H439 C415 0.949 . S
H440 C417 0.950 . S
H441 C419 0.950 . S
C442 C443 1.349 . S
C442 C444 1.327 . S
C442 H467 0.950 . S
C443 C442 1.349 . S
C443 C459 1.349 . S
C444 C442 1.327 . S
C444 C463 1.429 . S
C444 H468 0.950 . S
C445 C462 1.574 1_655 S
C445 C464 1.368 . S
C445 H469 0.949 . S
H446 C450 0.949 . S
C447 C448 1.349 . S
C447 C449 1.327 . S
C447 H470 0.950 . S
C448 C447 1.349 . S
C448 C460 1.349 . S
C449 C447 1.327 . S
C449 C465 1.429 . S
C449 H471 0.950 . S
C450 H446 0.949 . S
C450 C458 1.574 1_455 S
C450 C466 1.368 . S
H451 C459 0.950 . S
H452 C457 0.950 . S
H453 C458 0.949 . S
H454 C460 0.950 . S
H455 C461 0.950 . S
H456 C462 0.949 . S
C457 H452 0.950 . S
C457 C459 1.327 . S
C457 C463 1.429 . S
C458 C450 1.574 1_655 S
C458 H453 0.949 . S
C458 C464 1.368 . S
C459 C443 1.349 . S
C459 H451 0.950 . S
C459 C457 1.327 . S
C460 C448 1.349 . S
C460 H454 0.950 . S
C460 C461 1.327 . S
C461 H455 0.950 . S
C461 C460 1.327 . S
C461 C465 1.429 . S
C462 C445 1.574 1_455 S
C462 H456 0.949 . S
C462 C466 1.368 . S
C463 C444 1.429 . S
C463 C457 1.429 . S
C463 C464 1.523 . S
C464 C445 1.368 . S
C464 C458 1.368 . S
C464 C463 1.523 . S
C465 C449 1.429 . S
C465 C461 1.429 . S
C465 C466 1.523 . S
C466 C450 1.368 . S
C466 C462 1.368 . S
C466 C465 1.523 . S
H467 C442 0.950 . S
H468 C444 0.950 . S
H469 C445 0.949 . S
H470 C447 0.950 . S
H471 C449 0.950 . S
C472 C473 1.349 . S
C472 C474 1.327 . S
C472 H497 0.950 . S
C473 C472 1.349 . S
C473 C489 1.349 . S
C474 C472 1.327 . S
C474 C493 1.429 . S
C474 H498 0.950 . S
C475 C492 1.574 . S
C475 C494 1.368 . S
C475 H499 0.949 . S
H476 C480 0.949 . S
C477 C478 1.349 . S
C477 C479 1.327 . S
C477 H500 0.950 . S
C478 C477 1.349 . S
C478 C490 1.349 . S
C479 C477 1.327 . S
C479 C495 1.429 . S
C479 H501 0.950 . S
C480 H476 0.949 . S
C480 C488 1.574 . S
C480 C496 1.368 . S
H481 C489 0.950 . S
H482 C487 0.950 . S
H483 C488 0.939 1_556 S
H484 C490 0.950 . S
H485 C491 0.950 . S
H486 C492 0.949 . S
C487 H482 0.950 . S
C487 C489 1.327 . S
C487 C493 1.429 . S
C488 C480 1.574 . S
C488 H483 0.939 1_554 S
C488 C494 1.368 . S
C489 C473 1.349 . S
C489 H481 0.950 . S
C489 C487 1.327 . S
C490 C478 1.349 . S
C490 H484 0.950 . S
C490 C491 1.327 . S
C491 H485 0.950 . S
C491 C490 1.327 . S
C491 C495 1.429 . S
C492 C475 1.574 . S
C492 H486 0.949 . S
C492 C496 1.368 . S
C493 C474 1.429 . S
C493 C487 1.429 . S
C493 C494 1.523 1_556 S
C494 C475 1.368 . S
C494 C488 1.368 . S
C494 C493 1.523 1_554 S
C495 C479 1.429 . S
C495 C491 1.429 . S
C495 C496 1.523 . S
C496 C480 1.368 . S
C496 C492 1.368 . S
C496 C495 1.523 . S
H497 C472 0.950 . S
H498 C474 0.950 . S
H499 C475 0.949 . S
H500 C477 0.950 . S
H501 C479 0.950 . S
C502 C503 1.349 . S
C502 C504 1.327 . S
C502 H527 0.950 . S
C503 C502 1.349 . S
C503 C519 1.349 . S
C504 C502 1.327 . S
C504 C523 1.429 . S
C504 H528 0.950 . S
C505 C522 1.574 . S
C505 C524 1.368 . S
C505 H529 0.949 . S
H506 C510 0.949 . S
C507 C508 1.349 . S
C507 C509 1.327 . S
C507 H530 0.950 . S
C508 C507 1.349 . S
C508 C520 1.349 . S
C509 C507 1.327 . S
C509 C525 1.429 . S
C509 H531 0.950 . S
C510 H506 0.949 . S
C510 C518 1.574 . S
C510 C526 1.368 . S
H511 C519 0.950 . S
H512 C517 0.950 . S
H513 C518 0.949 . S
H514 C520 0.950 . S
H515 C521 0.950 . S
H516 C522 0.949 . S
C517 H512 0.950 . S
C517 C519 1.327 . S
C517 C523 1.429 . S
C518 C510 1.574 . S
C518 H513 0.949 . S
C518 C524 1.368 . S
C519 C503 1.349 . S
C519 H511 0.950 . S
C519 C517 1.327 . S
C520 C508 1.349 . S
C520 H514 0.950 . S
C520 C521 1.327 . S
C521 H515 0.950 . S
C521 C520 1.327 . S
C521 C525 1.429 . S
C522 C505 1.574 . S
C522 H516 0.949 . S
C522 C526 1.368 . S
C523 C504 1.429 . S
C523 C517 1.429 . S
C523 C524 1.523 . S
C524 C505 1.368 . S
C524 C518 1.368 . S
C524 C523 1.523 . S
C525 C509 1.429 . S
C525 C521 1.429 . S
C525 C526 1.523 . S
C526 C510 1.368 . S
C526 C522 1.368 . S
C526 C525 1.523 . S
H527 C502 0.950 . S
H528 C504 0.950 . S
H529 C505 0.949 . S
H530 C507 0.950 . S
H531 C509 0.950 . S
C532 C533 1.349 . S
C532 C534 1.327 . S
C532 H557 0.950 . S
C533 C532 1.349 . S
C533 C549 1.349 . S
C534 C532 1.327 . S
C534 C553 1.429 . S
C534 H558 0.950 . S
C535 C552 1.574 . S
C535 C554 1.368 . S
C535 H559 0.949 . S
H536 C540 0.949 . S
C537 C538 1.349 . S
C537 C539 1.327 . S
C537 H560 0.950 . S
C538 C537 1.349 . S
C538 C550 1.349 . S
C539 C537 1.327 . S
C539 C555 1.429 . S
C539 H561 0.950 . S
C540 H536 0.949 . S
C540 C548 1.574 . S
C540 C556 1.368 . S
H541 C549 0.950 . S
H542 C547 0.950 . S
H543 C548 0.949 . S
H544 C550 0.950 . S
H545 C551 0.950 . S
H546 C552 0.949 . S
C547 H542 0.950 . S
C547 C549 1.327 . S
C547 C553 1.429 . S
C548 C540 1.574 . S
C548 H543 0.949 . S
C548 C554 1.368 . S
C549 C533 1.349 . S
C549 H541 0.950 . S
C549 C547 1.327 . S
C550 C538 1.349 . S
C550 H544 0.950 . S
C550 C551 1.327 . S
C551 H545 0.950 . S
C551 C550 1.327 . S
C551 C555 1.429 . S
C552 C535 1.574 . S
C552 H546 0.949 . S
C552 C556 1.368 . S
C553 C534 1.429 . S
C553 C547 1.429 . S
C553 C554 1.523 . S
C554 C535 1.368 . S
C554 C548 1.368 . S
C554 C553 1.523 . S
C555 C539 1.429 . S
C555 C551 1.429 . S
C555 C556 1.523 . S
C556 C540 1.368 . S
C556 C552 1.368 . S
C556 C555 1.523 . S
H557 C532 0.950 . S
H558 C534 0.950 . S
H559 C535 0.949 . S
H560 C537 0.950 . S
H561 C539 0.950 . S
C562 C563 1.349 . S
C562 C564 1.327 . S
C562 H587 0.950 . S
C563 C562 1.349 . S
C563 C579 1.349 . S
C564 C562 1.327 . S
C564 C583 1.429 . S
C564 H588 0.950 . S
C565 C582 1.574 . S
C565 C584 1.368 . S
C565 H589 0.949 . S
H566 C570 0.949 . S
C567 C568 1.349 . S
C567 C569 1.327 . S
C567 H590 0.950 . S
C568 C567 1.349 . S
C568 C580 1.349 . S
C569 C567 1.327 . S
C569 C585 1.429 . S
C569 H591 0.950 . S
C570 H566 0.949 . S
C570 C578 1.574 . S
C570 C586 1.368 . S
H571 C579 0.950 . S
H572 C577 0.950 . S
H573 C578 0.949 . S
H574 C580 0.950 . S
H575 C581 0.950 . S
H576 C582 0.949 . S
C577 H572 0.950 . S
C577 C579 1.327 . S
C577 C583 1.429 . S
C578 C570 1.574 . S
C578 H573 0.949 . S
C578 C584 1.368 . S
C579 C563 1.349 . S
C579 H571 0.950 . S
C579 C577 1.327 . S
C580 C568 1.349 . S
C580 H574 0.950 . S
C580 C581 1.327 . S
C581 H575 0.950 . S
C581 C580 1.327 . S
C581 C585 1.429 . S
C582 C565 1.574 . S
C582 H576 0.949 . S
C582 C586 1.368 . S
C583 C564 1.429 . S
C583 C577 1.429 . S
C583 C584 1.523 . S
C584 C565 1.368 . S
C584 C578 1.368 . S
C584 C583 1.523 . S
C585 C569 1.429 . S
C585 C581 1.429 . S
C585 C586 1.523 . S
C586 C570 1.368 . S
C586 C582 1.368 . S
C586 C585 1.523 . S
H587 C562 0.950 . S
H588 C564 0.950 . S
H589 C565 0.949 . S
H590 C567 0.950 . S
H591 C569 0.950 . S
C113 C7 0.468 . S
C118 C91 0.468 . S
C143 C21 0.468 . S
C148 C105 0.468 . S
C173 C63 0.468 . S
C178 C35 0.468 . S
C203 C77 0.468 . S
C208 C49 0.468 . S
C233 C8 1.506 . S
C238 C78 1.506 . S
C263 C22 1.506 . S
C268 C92 1.506 . S
C293 C106 1.506 . S
C298 C36 1.506 . S
C323 C50 1.506 . S
C328 C64 1.506 . S
C353 C65 1.506 . S
C358 C9 1.506 . S
C383 C23 1.506 . S
C388 C79 1.506 . S
C413 C37 1.506 . S
C418 C93 1.506 . S
C443 C107 1.506 . S
C448 C51 1.506 . S
C473 C87 1.519 . S
C478 C3 1.519 . S
C503 C101 1.519 . S
C508 C17 1.519 . S
C533 C31 1.519 . S
C538 C59 1.519 . S
C563 C45 1.519 . S
C568 C73 1.519 . S
