# Generated by pormake.
# Topology umg, (4)-cn, num edge types: 1
# Building blocks:
#     Node 0, Type 0, BuildingBlock: ESEHIV_clean_sbu_0, # of connection points: 4
#     Node 1, Type 0, BuildingBlock: ESEHIV_clean_sbu_0, # of connection points: 4
#     Node 2, Type 0, BuildingBlock: ESEHIV_clean_sbu_0, # of connection points: 4
#     Node 3, Type 0, BuildingBlock: ESEHIV_clean_sbu_0, # of connection points: 4
#     Node 4, Type 0, BuildingBlock: ESEHIV_clean_sbu_0, # of connection points: 4
#     Node 5, Type 0, BuildingBlock: ESEHIV_clean_sbu_0, # of connection points: 4
#     Node 6, Type 0, BuildingBlock: ESEHIV_clean_sbu_0, # of connection points: 4
#     Node 7, Type 0, BuildingBlock: ESEHIV_clean_sbu_0, # of connection points: 4
#     Node 8, Type 0, BuildingBlock: ESEHIV_clean_sbu_0, # of connection points: 4
#     Node 9, Type 0, BuildingBlock: ESEHIV_clean_sbu_0, # of connection points: 4
#     Node 10, Type 0, BuildingBlock: ESEHIV_clean_sbu_0, # of connection points: 4
#     Node 11, Type 0, BuildingBlock: ESEHIV_clean_sbu_0, # of connection points: 4
#     Edge 12, Type (0, 0), BuildingBlock: AJUNOK_clean_linker_0, # of connection points: 2
#     Edge 13, Type (0, 0), BuildingBlock: AJUNOK_clean_linker_0, # of connection points: 2
#     Edge 14, Type (0, 0), BuildingBlock: AJUNOK_clean_linker_0, # of connection points: 2
#     Edge 15, Type (0, 0), BuildingBlock: AJUNOK_clean_linker_0, # of connection points: 2
#     Edge 16, Type (0, 0), BuildingBlock: AJUNOK_clean_linker_0, # of connection points: 2
#     Edge 17, Type (0, 0), BuildingBlock: AJUNOK_clean_linker_0, # of connection points: 2
#     Edge 18, Type (0, 0), BuildingBlock: AJUNOK_clean_linker_0, # of connection points: 2
#     Edge 19, Type (0, 0), BuildingBlock: AJUNOK_clean_linker_0, # of connection points: 2
#     Edge 20, Type (0, 0), BuildingBlock: AJUNOK_clean_linker_0, # of connection points: 2
#     Edge 21, Type (0, 0), BuildingBlock: AJUNOK_clean_linker_0, # of connection points: 2
#     Edge 22, Type (0, 0), BuildingBlock: AJUNOK_clean_linker_0, # of connection points: 2
#     Edge 23, Type (0, 0), BuildingBlock: AJUNOK_clean_linker_0, # of connection points: 2
#     Edge 24, Type (0, 0), BuildingBlock: AJUNOK_clean_linker_0, # of connection points: 2
#     Edge 25, Type (0, 0), BuildingBlock: AJUNOK_clean_linker_0, # of connection points: 2
#     Edge 26, Type (0, 0), BuildingBlock: AJUNOK_clean_linker_0, # of connection points: 2
#     Edge 27, Type (0, 0), BuildingBlock: AJUNOK_clean_linker_0, # of connection points: 2
#     Edge 28, Type (0, 0), BuildingBlock: AJUNOK_clean_linker_0, # of connection points: 2
#     Edge 29, Type (0, 0), BuildingBlock: AJUNOK_clean_linker_0, # of connection points: 2
#     Edge 30, Type (0, 0), BuildingBlock: AJUNOK_clean_linker_0, # of connection points: 2
#     Edge 31, Type (0, 0), BuildingBlock: AJUNOK_clean_linker_0, # of connection points: 2
#     Edge 32, Type (0, 0), BuildingBlock: AJUNOK_clean_linker_0, # of connection points: 2
#     Edge 33, Type (0, 0), BuildingBlock: AJUNOK_clean_linker_0, # of connection points: 2
#     Edge 34, Type (0, 0), BuildingBlock: AJUNOK_clean_linker_0, # of connection points: 2
#     Edge 35, Type (0, 0), BuildingBlock: AJUNOK_clean_linker_0, # of connection points: 2
# Relax obj value: 0.031
# Max RMSD: 0.122
# Mean RMSD: 0.088
data_MOF--net-umg--node1-ESEHIV_clean_sbu_0--edge1-AJUNOK_clean_linker_0
_symmetry_space_group_name_H-M    P1
_symmetry_Int_Tables_number       1
_symmetry_cell_setting            triclinic
loop_
_symmetry_equiv_pos_as_xyz
'x, y, z'
_cell_length_a     21.465446
_cell_length_b     26.387384
_cell_length_c     67.401974
_cell_angle_alpha  89.860089
_cell_angle_beta   90.150852
_cell_angle_gamma 113.94292
loop_
_atom_site_label
_atom_site_type_symbol
_atom_site_fract_x
_atom_site_fract_y
_atom_site_fract_z
_atom_type_partial_charge
Cu0 Cu 0.32794 0.60367 0.11355 0.0
N1 N 0.33899 0.64747 0.09083 0.0
N2 N 0.35219 0.67561 0.05916 0.0
C3 C 0.35255 0.6366 0.07218 0.0
C4 C 0.33695 0.71186 0.0701 0.0
C5 C 0.32932 0.69462 0.08955 0.0
O6 O 0.38385 0.56059 0.11074 0.0
C7 C 0.19242 0.58739 0.12087 0.0
O8 O 0.2235 0.64082 0.12425 0.0
H9 H 0.36193 0.60058 0.06823 0.0
H10 H 0.31605 0.71451 0.10185 0.0
N11 N 0.36212 0.64955 0.13564 0.0
N12 N 0.38537 0.67873 0.16703 0.0
C13 C 0.34823 0.63625 0.15494 0.0
C14 C 0.40934 0.70208 0.13551 0.0
C15 C 0.42356 0.72024 0.15479 0.0
C16 C 0.44789 0.58816 0.10815 0.0
O17 O 0.47073 0.64229 0.10653 0.0
H18 H 0.31095 0.59653 0.15992 0.0
H19 H 0.43254 0.72535 0.1223 0.0
O20 O 0.22895 0.56065 0.11678 0.0
H21 H 0.32911 0.7472 0.06443 0.0
H22 H 0.45989 0.7607 0.15946 0.0
Cu23 Cu 0.76822 0.29576 0.43844 0.0
N24 N 0.73908 0.21843 0.4401 0.0
N25 N 0.66812 0.12869 0.43996 0.0
C26 C 0.67406 0.18127 0.43784 0.0
C27 C 0.73138 0.13267 0.44411 0.0
C28 C 0.77496 0.18811 0.44439 0.0
O29 O 0.75083 0.3194 0.46415 0.0
C30 C 0.71402 0.28565 0.40046 0.0
O31 O 0.7311 0.24319 0.40043 0.0
H32 H 0.63203 0.19256 0.43442 0.0
H33 H 0.82857 0.20481 0.44796 0.0
N34 N 0.86168 0.33511 0.43426 0.0
N35 N 0.95974 0.4106 0.43162 0.0
C36 C 0.89154 0.39089 0.43411 0.0
C37 C 0.91262 0.31851 0.43162 0.0
C38 C 0.97318 0.36493 0.43017 0.0
C39 C 0.69213 0.30694 0.47154 0.0
O40 O 0.63781 0.28166 0.46049 0.0
H41 H 0.86323 0.41647 0.43579 0.0
H42 H 0.9068 0.27599 0.43092 0.0
O43 O 0.7236 0.31479 0.41614 0.0
H44 H 0.74476 0.09803 0.44717 0.0
H45 H 1.02316 0.36456 0.42878 0.0
Cu46 Cu 0.47544 0.76859 0.74847 0.0
N47 N 0.53018 0.72946 0.74384 0.0
N48 N 0.56079 0.65793 0.741 0.0
C49 C 0.51727 0.67695 0.74941 0.0
C50 C 0.60289 0.70042 0.72975 0.0
C51 C 0.58397 0.74433 0.73156 0.0
O52 O 0.4339 0.74918 0.77449 0.0
C53 C 0.39486 0.71528 0.71478 0.0
O54 O 0.40609 0.67207 0.72043 0.0
H55 H 0.47496 0.65224 0.75875 0.0
H56 H 0.60542 0.78326 0.72359 0.0
N57 N 0.52741 0.84517 0.74981 0.0
N58 N 0.54857 0.93571 0.75139 0.0
C59 C 0.50476 0.88466 0.74536 0.0
C60 C 0.58797 0.87193 0.75876 0.0
C61 C 0.60133 0.92766 0.75964 0.0
C62 C 0.39103 0.70297 0.78104 0.0
O63 O 0.36343 0.66103 0.76881 0.0
H64 H 0.45623 0.87542 0.73823 0.0
H65 H 0.6185 0.85192 0.76512 0.0
O66 O 0.41378 0.75751 0.72608 0.0
H67 H 0.64175 0.69885 0.71989 0.0
H68 H 0.645 0.95932 0.76677 0.0
Cu69 Cu 0.75555 0.45858 0.11298 0.0
N70 N 0.74515 0.41425 0.09055 0.0
N71 N 0.73543 0.38546 0.05901 0.0
C72 C 0.7339 0.42486 0.07161 0.0
C73 C 0.74894 0.34925 0.07059 0.0
C74 C 0.75428 0.36682 0.08994 0.0
O75 O 0.70106 0.50266 0.10984 0.0
C76 C 0.89298 0.47717 0.12028 0.0
O77 O 0.86489 0.42319 0.12281 0.0
H78 H 0.72577 0.46114 0.06715 0.0
H79 H 0.76607 0.34716 0.10263 0.0
N80 N 0.72038 0.41291 0.13504 0.0
N81 N 0.69594 0.38345 0.16636 0.0
C82 C 0.73548 0.42523 0.15434 0.0
C83 C 0.67002 0.36173 0.13482 0.0
C84 C 0.655 0.34342 0.15406 0.0
C85 C 0.63663 0.47737 0.10734 0.0
O86 O 0.61024 0.42307 0.10586 0.0
H87 H 0.77514 0.46376 0.15935 0.0
H88 H 0.64514 0.33962 0.12158 0.0
O89 O 0.85417 0.50222 0.11657 0.0
H90 H 0.75764 0.31387 0.06547 0.0
H91 H 0.61614 0.30393 0.15864 0.0
Cu92 Cu 0.33364 0.76108 0.43484 0.0
N93 N 0.35598 0.83724 0.4359 0.0
N94 N 0.42424 0.92784 0.43618 0.0
C95 C 0.42049 0.87561 0.43477 0.0
C96 C 0.35914 0.92182 0.43864 0.0
C97 C 0.31714 0.86589 0.43848 0.0
O98 O 0.36526 0.74223 0.45969 0.0
C99 C 0.36487 0.70297 0.40309 0.0
O100 O 0.32998 0.65784 0.41324 0.0
H101 H 0.4639 0.86487 0.43364 0.0
H102 H 0.26251 0.84765 0.44048 0.0
N103 N 0.24 0.71768 0.43246 0.0
N104 N 0.14366 0.64091 0.43134 0.0
C105 C 0.21037 0.66278 0.43608 0.0
C106 C 0.19001 0.73096 0.4252 0.0
C107 C 0.13017 0.68357 0.42466 0.0
C108 C 0.33216 0.74428 0.47515 0.0
O109 O 0.27897 0.75648 0.47299 0.0
H110 H 0.23757 0.63896 0.44163 0.0
H111 H 0.19697 0.77156 0.41987 0.0
O112 O 0.377 0.74993 0.41089 0.0
H113 H 0.34295 0.95539 0.44049 0.0
H114 H 0.08146 0.68014 0.41893 0.0
Cu115 Cu 0.60844 0.31244 0.74717 0.0
N116 N 0.55961 0.35628 0.7422 0.0
N117 N 0.53793 0.43237 0.73966 0.0
C118 C 0.58098 0.41061 0.7466 0.0
C119 C 0.48694 0.38959 0.7308 0.0
C120 C 0.50061 0.34286 0.7323 0.0
O121 O 0.66084 0.33891 0.77144 0.0
C122 C 0.67941 0.35128 0.71054 0.0
O123 O 0.67679 0.39898 0.71469 0.0
H124 H 0.62749 0.43352 0.7547 0.0
H125 H 0.4706 0.30233 0.72619 0.0
N126 N 0.55191 0.23733 0.75104 0.0
N127 N 0.52221 0.14539 0.75266 0.0
C128 C 0.5683 0.19481 0.74601 0.0
C129 C 0.4933 0.2143 0.76123 0.0
C130 C 0.47504 0.15778 0.76234 0.0
C131 C 0.62741 0.3452 0.78614 0.0
O132 O 0.56231 0.33366 0.78376 0.0
H133 H 0.61441 0.20042 0.73809 0.0
H134 H 0.46728 0.23718 0.76813 0.0
O135 O 0.66127 0.31342 0.72371 0.0
H136 H 0.44386 0.39226 0.72321 0.0
H137 H 0.43233 0.12886 0.77065 0.0
Cu138 Cu 0.45991 0.75255 0.59509 0.0
N139 N 0.51432 0.82879 0.59713 0.0
N140 N 0.54235 0.92043 0.59727 0.0
C141 C 0.4953 0.86994 0.59203 0.0
C142 C 0.59368 0.91059 0.60562 0.0
C143 C 0.57606 0.8541 0.60561 0.0
O144 O 0.40856 0.74 0.57044 0.0
C145 C 0.39031 0.75862 0.63081 0.0
O146 O 0.40296 0.80964 0.62534 0.0
H147 H 0.44626 0.86266 0.5855 0.0
H148 H 0.6054 0.83291 0.61185 0.0
N149 N 0.51114 0.70967 0.59406 0.0
N150 N 0.53245 0.63337 0.5945 0.0
C151 C 0.48538 0.6545 0.59722 0.0
C152 C 0.57686 0.72411 0.58913 0.0
C153 C 0.59005 0.67704 0.5893 0.0
C154 C 0.44333 0.74961 0.55448 0.0
O155 O 0.50988 0.76727 0.55586 0.0
H156 H 0.43237 0.6301 0.60073 0.0
H157 H 0.6122 0.76561 0.58521 0.0
O158 O 0.40478 0.72739 0.619 0.0
H159 H 0.64051 0.9418 0.61144 0.0
H160 H 0.63813 0.675 0.58575 0.0
Cu161 Cu 0.76919 0.45988 0.91994 0.0
N162 N 0.73676 0.41409 0.94214 0.0
N163 N 0.7175 0.38488 0.97365 0.0
C164 C 0.75664 0.42561 0.96119 0.0
C165 C 0.67093 0.34674 0.96186 0.0
C166 C 0.6833 0.36461 0.94252 0.0
O167 O 0.8682 0.50288 0.92261 0.0
C168 C 0.64933 0.47618 0.91403 0.0
O169 O 0.62644 0.42238 0.91142 0.0
H170 H 0.79837 0.46349 0.9658 0.0
H171 H 0.65383 0.34381 0.92967 0.0
N172 N 0.75584 0.41588 0.89731 0.0
N173 N 0.73253 0.38606 0.86606 0.0
C174 C 0.73886 0.42679 0.87904 0.0
C175 C 0.76093 0.36684 0.89579 0.0
C176 C 0.74682 0.34845 0.87651 0.0
C177 C 0.90508 0.47596 0.92598 0.0
O178 O 0.87433 0.42216 0.92867 0.0
H179 H 0.73122 0.46383 0.8754 0.0
H180 H 0.77298 0.3455 0.90794 0.0
O181 O 0.71308 0.50312 0.91743 0.0
H182 H 0.62871 0.30969 0.9668 0.0
H183 H 0.74504 0.30962 0.87073 0.0
Cu184 Cu 0.33403 0.75563 0.28392 0.0
N185 N 0.23921 0.71344 0.28509 0.0
N186 N 0.13804 0.64068 0.28447 0.0
C187 C 0.20609 0.65819 0.28239 0.0
C188 C 0.12755 0.68651 0.28867 0.0
C189 C 0.19002 0.73127 0.28912 0.0
O190 O 0.36794 0.73961 0.25906 0.0
C191 C 0.36006 0.69853 0.31716 0.0
O192 O 0.31997 0.65294 0.3081 0.0
H193 H 0.23102 0.631 0.27902 0.0
H194 H 0.19894 0.7737 0.29248 0.0
N195 N 0.35454 0.83165 0.28233 0.0
N196 N 0.4179 0.92335 0.28155 0.0
C197 C 0.41396 0.87322 0.28766 0.0
C198 C 0.31999 0.85613 0.27232 0.0
C199 C 0.35871 0.91251 0.27185 0.0
C200 C 0.36578 0.69387 0.2524 0.0
O201 O 0.34628 0.65033 0.26408 0.0
H202 H 0.4547 0.86649 0.29511 0.0
H203 H 0.27199 0.83423 0.26477 0.0
O204 O 0.37616 0.74482 0.30832 0.0
H205 H 0.07849 0.68732 0.29177 0.0
H206 H 0.34605 0.94253 0.26375 0.0
Cu207 Cu 0.5785 0.29359 0.59135 0.0
N208 N 0.53054 0.21632 0.5894 0.0
N209 N 0.51038 0.12607 0.58923 0.0
C210 C 0.5556 0.17808 0.59347 0.0
C211 C 0.45511 0.13194 0.5819 0.0
C212 C 0.46767 0.18761 0.58203 0.0
O213 O 0.62041 0.3192 0.56584 0.0
C214 C 0.61948 0.2846 0.62973 0.0
O215 O 0.55876 0.24364 0.62979 0.0
H216 H 0.60684 0.18849 0.59889 0.0
H217 H 0.43394 0.20596 0.57672 0.0
N218 N 0.52272 0.33148 0.5954 0.0
N219 N 0.496 0.40492 0.59767 0.0
C220 C 0.54467 0.38675 0.59321 0.0
C221 C 0.45761 0.31364 0.60145 0.0
C222 C 0.44085 0.35893 0.60279 0.0
C223 C 0.6588 0.30043 0.55707 0.0
O224 O 0.68064 0.26741 0.56668 0.0
H225 H 0.59611 0.41331 0.58878 0.0
H226 H 0.42483 0.27096 0.60474 0.0
O227 O 0.64105 0.31246 0.61384 0.0
H228 H 0.40898 0.09839 0.57678 0.0
H229 H 0.39166 0.35781 0.60694 0.0
Cu230 Cu 0.34204 0.6062 0.91988 0.0
N231 N 0.37386 0.64938 0.94271 0.0
N232 N 0.38775 0.67675 0.97444 0.0
C233 C 0.34878 0.63811 0.9613 0.0
C234 C 0.43959 0.71317 0.96365 0.0
C235 C 0.43064 0.69642 0.94416 0.0
O236 O 0.24347 0.56217 0.92253 0.0
C237 C 0.46105 0.58746 0.91344 0.0
O238 O 0.4872 0.64153 0.91115 0.0
H239 H 0.30328 0.60204 0.96511 0.0
H240 H 0.46421 0.71651 0.93195 0.0
N241 N 0.35443 0.65255 0.89786 0.0
N242 N 0.3613 0.68284 0.86657 0.0
C243 C 0.35547 0.63986 0.87852 0.0
C244 C 0.35989 0.70514 0.89814 0.0
C245 C 0.3644 0.72397 0.87893 0.0
C246 C 0.20421 0.58765 0.92426 0.0
O247 O 0.23188 0.64209 0.92479 0.0
H248 H 0.35285 0.60021 0.87341 0.0
H249 H 0.35953 0.72795 0.91142 0.0
O250 O 0.39702 0.56244 0.91671 0.0
H251 H 0.48263 0.74828 0.96945 0.0
H252 H 0.36866 0.76462 0.87438 0.0
Cu253 Cu 0.74309 0.29874 0.28243 0.0
N254 N 0.83778 0.34105 0.28379 0.0
N255 N 0.93836 0.41485 0.28324 0.0
C256 C 0.86976 0.3968 0.28273 0.0
C257 C 0.94997 0.3684 0.28491 0.0
C258 C 0.888 0.32307 0.28518 0.0
O259 O 0.70921 0.31672 0.2579 0.0
C260 C 0.71843 0.34528 0.31902 0.0
O261 O 0.76766 0.39252 0.31386 0.0
H262 H 0.84313 0.42371 0.28214 0.0
H263 H 0.88022 0.28002 0.28623 0.0
N264 N 0.72162 0.22275 0.28018 0.0
N265 N 0.65348 0.13194 0.27956 0.0
C266 C 0.66342 0.18238 0.28687 0.0
C267 C 0.7501 0.19708 0.26837 0.0
C268 C 0.70859 0.1411 0.26811 0.0
C269 C 0.71386 0.36357 0.25159 0.0
O270 O 0.73565 0.40646 0.26354 0.0
H271 H 0.62804 0.19058 0.29634 0.0
H272 H 0.79547 0.218 0.25957 0.0
O273 O 0.69816 0.30528 0.30673 0.0
H274 H 0.9997 0.36715 0.28567 0.0
H275 H 0.71628 0.11011 0.25916 0.0
C276 C 0.34916 0.62727 1.00638 0.0
C277 C 0.37833 0.67731 0.99567 0.0
C278 C 0.34139 0.627 0.02708 0.0
C279 C 0.36222 0.67675 0.03792 0.0
H280 H 0.33304 0.58794 0.99876 0.0
H281 H 0.31805 0.58746 0.0346 0.0
S282 S 0.44139 0.81909 0.01697 0.0
N283 N 0.42644 0.77801 0.9975 0.0
N284 N 0.41493 0.77748 0.03634 0.0
C285 C 0.3917 0.72707 0.02739 0.0
C286 C 0.39906 0.72735 1.00632 0.0
C287 C 0.73323 0.35929 0.37501 0.0
C288 C 0.69741 0.30421 0.38127 0.0
C289 C 0.73476 0.37371 0.35486 0.0
C290 C 0.70016 0.33354 0.34036 0.0
H291 H 0.7651 0.39035 0.38539 0.0
H292 H 0.76738 0.41569 0.35052 0.0
S293 S 0.58633 0.18617 0.35028 0.0
N294 N 0.61814 0.21145 0.37221 0.0
N295 N 0.61886 0.23838 0.33456 0.0
C296 C 0.65774 0.27977 0.34695 0.0
C297 C 0.6571 0.26511 0.36736 0.0
C298 C 0.38079 0.77215 0.68663 0.0
C299 C 0.377 0.72069 0.69371 0.0
C300 C 0.37976 0.78265 0.66624 0.0
C301 C 0.37502 0.74221 0.65202 0.0
H302 H 0.38868 0.80591 0.69681 0.0
H303 H 0.38692 0.82402 0.66166 0.0
S304 S 0.34959 0.59702 0.6628 0.0
N305 N 0.35764 0.62607 0.68485 0.0
N306 N 0.356 0.64588 0.6466 0.0
C307 C 0.36479 0.68896 0.65892 0.0
C308 C 0.36568 0.6782 0.67972 0.0
C309 C 0.75012 0.43412 0.02672 0.0
C310 C 0.72904 0.38435 0.03762 0.0
C311 C 0.74653 0.43398 1.00592 0.0
C312 C 0.72181 0.38407 0.99508 0.0
H313 H 0.77056 0.47365 0.03429 0.0
H314 H 0.76264 0.47338 0.9983 0.0
S315 S 0.65956 0.24217 0.01647 0.0
N316 N 0.68005 0.28359 0.03592 0.0
N317 N 0.67737 0.28343 0.99695 0.0
C318 C 0.70076 0.33398 1.00579 0.0
C319 C 0.70345 0.3341 0.02698 0.0
C320 C 0.40344 0.74803 0.34935 0.0
C321 C 0.37405 0.69773 0.33882 0.0
C322 C 0.40463 0.74908 0.37015 0.0
C323 C 0.37656 0.69989 0.3814 0.0
H324 H 0.42248 0.7873 0.34153 0.0
H325 H 0.42459 0.78912 0.37741 0.0
S326 S 0.30497 0.55672 0.3611 0.0
N327 N 0.3247 0.59703 0.3413 0.0
N328 N 0.327 0.59899 0.38034 0.0
C329 C 0.35241 0.6491 0.37108 0.0
C330 C 0.35112 0.64804 0.34984 0.0
C331 C 0.69267 0.37559 0.6743 0.0
C332 C 0.68372 0.33621 0.68944 0.0
C333 C 0.67851 0.35943 0.65436 0.0
C334 C 0.65439 0.30332 0.64894 0.0
H335 H 0.70611 0.4187 0.67798 0.0
H336 H 0.68086 0.39039 0.64346 0.0
S337 S 0.63587 0.18545 0.68187 0.0
N338 N 0.66036 0.23961 0.6968 0.0
N339 N 0.63202 0.20962 0.6595 0.0
C340 C 0.6517 0.26443 0.66351 0.0
C341 C 0.66701 0.2808 0.68372 0.0
C342 C 0.38847 0.73526 0.21833 0.0
C343 C 0.37599 0.68905 0.23073 0.0
C344 C 0.39191 0.73146 0.19769 0.0
C345 C 0.38311 0.68135 0.18841 0.0
H346 H 0.3942 0.77475 0.22453 0.0
H347 H 0.39987 0.76791 0.18887 0.0
S348 S 0.35555 0.54918 0.21393 0.0
N349 N 0.35866 0.59203 0.2321 0.0
N350 N 0.36627 0.58534 0.19324 0.0
C351 C 0.37264 0.63512 0.20055 0.0
C352 C 0.36901 0.63891 0.22169 0.0
C353 C 0.7359 0.30819 0.506 0.0
C354 C 0.68568 0.31181 0.49326 0.0
C355 C 0.72769 0.30596 0.52666 0.0
C356 C 0.66981 0.30867 0.5354 0.0
H357 H 0.78073 0.3047 0.49997 0.0
H358 H 0.76651 0.30122 0.53583 0.0
S359 S 0.52559 0.32208 0.50866 0.0
N360 N 0.57737 0.32018 0.49088 0.0
N361 N 0.56258 0.31762 0.52971 0.0
C362 C 0.62054 0.3147 0.52286 0.0
C363 C 0.62827 0.31578 0.50179 0.0
C364 C 0.41404 0.74154 0.81546 0.0
C365 C 0.37888 0.69629 0.80284 0.0
C366 C 0.40786 0.73659 0.8361 0.0
C367 C 0.36627 0.68622 0.84519 0.0
H368 H 0.44769 0.78131 0.80941 0.0
H369 H 0.43702 0.77245 0.84506 0.0
S370 S 0.25956 0.55582 0.81917 0.0
N371 N 0.29859 0.59957 0.80112 0.0
N372 N 0.28636 0.5907 0.84003 0.0
C373 C 0.32973 0.64074 0.83287 0.0
C374 C 0.33604 0.64572 0.81172 0.0
C375 C 0.68338 0.32848 0.19686 0.0
C376 C 0.69801 0.38001 0.18773 0.0
C377 C 0.68626 0.3236 0.21747 0.0
C378 C 0.70414 0.3701 0.23 0.0
H379 H 0.67119 0.29159 0.18796 0.0
H380 H 0.67581 0.28291 0.22354 0.0
S381 S 0.74182 0.51412 0.21367 0.0
N382 N 0.72648 0.47812 0.19287 0.0
N383 N 0.73345 0.46932 0.23169 0.0
C384 C 0.71717 0.42183 0.22113 0.0
C385 C 0.71396 0.42673 0.20001 0.0
C386 C 0.45125 0.74814 0.51745 0.0
C387 C 0.41128 0.74319 0.53452 0.0
C388 C 0.42456 0.74613 0.49831 0.0
C389 C 0.35685 0.73951 0.4954 0.0
H390 H 0.50423 0.75458 0.51881 0.0
H391 H 0.45807 0.75166 0.48575 0.0
S392 S 0.2288 0.71993 0.53499 0.0
N393 N 0.29901 0.72783 0.54714 0.0
N394 N 0.24879 0.7242 0.51123 0.0
C395 C 0.31547 0.73245 0.5123 0.0
C396 C 0.34262 0.73421 0.53182 0.0
C397 C 0.73954 0.35921 0.83131 0.0
C398 C 0.70985 0.38091 0.84574 0.0
C399 C 0.7148 0.3501 0.81174 0.0
C400 C 0.65866 0.36144 0.80604 0.0
H401 H 0.78176 0.34869 0.83528 0.0
H402 H 0.73818 0.33215 0.80124 0.0
S403 S 0.56416 0.42028 0.83816 0.0
N404 N 0.62258 0.41467 0.85288 0.0
N405 N 0.57606 0.39783 0.81625 0.0
C406 C 0.6297 0.38449 0.82024 0.0
C407 C 0.6553 0.39418 0.84006 0.0
C408 C 1.0098 0.47602 0.12088 0.0
C409 C 0.96909 0.50678 0.12079 0.0
C410 C 0.08151 0.50207 0.12089 0.0
C411 C 0.11605 0.56018 0.12103 0.0
H412 H 0.98619 0.43113 0.12074 0.0
H413 H 0.11002 0.47633 0.12085 0.0
S414 S 1.03383 0.66027 0.12097 0.0
N415 N 0.96929 0.59885 0.12087 0.0
N416 N 0.10328 0.64789 0.12107 0.0
C417 C 0.07595 0.59153 0.12108 0.0
C418 C 1.00289 0.56491 0.1209 0.0
C419 C 0.54728 0.07395 0.44837 0.0
C420 C 0.60679 0.07876 0.43838 0.0
C421 C 0.4877 1.02481 0.44745 0.0
C422 C 0.48519 0.97891 0.43627 0.0
H423 H 0.54744 0.108 0.45734 0.0
H424 H 0.4438 1.02241 0.4559 0.0
S425 S 0.62549 0.97434 0.40514 0.0
N426 N 0.6586 0.03589 0.41581 0.0
N427 N 0.5464 0.94436 0.41334 0.0
C428 C 0.54396 0.98435 0.42557 0.0
C429 C 0.60477 0.03405 0.4268 0.0
C430 C 0.48727 0.50141 0.74223 0.0
C431 C 0.54529 0.48939 0.74071 0.0
C432 C 0.49279 0.55633 0.74272 0.0
C433 C 0.5566 0.60173 0.74159 0.0
H434 H 0.43702 0.46802 0.74307 0.0
H435 H 0.44645 0.56318 0.74352 0.0
S436 S 0.72457 0.59328 0.73771 0.0
N437 N 0.66891 0.52801 0.73797 0.0
N438 N 0.67927 0.63082 0.73951 0.0
C439 C 0.61513 0.59037 0.74032 0.0
C440 C 0.60952 0.53442 0.73978 0.0
C441 C 0.49385 0.03298 0.57705 0.0
C442 C 0.51975 0.07509 0.59141 0.0
C443 C 0.50202 0.98297 0.57898 0.0
C444 C 0.53627 0.97291 0.59537 0.0
H445 H 0.46768 0.03903 0.5641 0.0
H446 H 0.4818 0.95205 0.56745 0.0
S447 S 0.60766 0.06776 0.63809 0.0
N448 N 0.57747 0.10212 0.62315 0.0
N449 N 0.59233 1.00826 0.6269 0.0
C450 C 0.56157 1.01445 0.60999 0.0
C451 C 0.55343 0.06544 0.60798 0.0
C452 C 0.57878 0.58813 0.91372 0.0
C453 C 0.50736 0.55763 0.91318 0.0
C454 C 0.62419 0.56181 0.91398 0.0
C455 C 0.60043 0.50369 0.91353 0.0
H456 H 0.60017 0.63301 0.91416 0.0
H457 H 0.6784 0.58736 0.91452 0.0
S458 S 0.41812 0.40428 0.91165 0.0
N459 N 0.4153 0.46584 0.91199 0.0
N460 N 0.49977 0.41627 0.9123 0.0
C461 C 0.52902 0.47261 0.91279 0.0
C462 C 0.48283 0.49951 0.91268 0.0
C463 C 0.09979 0.54172 0.29334 0.0
C464 C 0.08787 0.58421 0.28365 0.0
C465 C 0.051 0.48664 0.29306 0.0
C466 C 0.9886 0.47171 0.28288 0.0
H467 H 0.14667 0.55143 0.30154 0.0
H468 H 0.0618 0.45571 0.30119 0.0
S469 S 0.93697 0.56707 0.25308 0.0
N470 N 1.0117 0.60753 0.26254 0.0
N471 N 0.92091 0.50403 0.26134 0.0
C472 C 0.9772 0.51382 0.27259 0.0
C473 C 1.02657 0.57 0.27314 0.0
C474 C 0.51886 0.47658 0.10686 0.0
C475 C 0.59028 0.50717 0.10705 0.0
C476 C 0.47335 0.50278 0.10717 0.0
C477 C 0.497 0.5609 0.10755 0.0
H478 H 0.49748 0.43169 0.10666 0.0
H479 H 0.41913 0.47713 0.10713 0.0
S480 S 0.67925 0.66062 0.10797 0.0
N481 N 0.68223 0.59913 0.10752 0.0
N482 N 0.59753 0.64845 0.10799 0.0
C483 C 0.56841 0.59211 0.10757 0.0
C484 C 0.61471 0.56532 0.10736 0.0
C485 C 0.99129 0.5085 0.44145 0.0
C486 C 1.0072 0.46837 0.43139 0.0
C487 C 1.03574 0.56486 0.44124 0.0
C488 C 0.09836 0.58316 0.4313 0.0
H489 H 0.94439 0.49636 0.44976 0.0
H490 H 1.02169 0.59433 0.44915 0.0
S491 S 0.16318 0.49737 0.40145 0.0
N492 N 0.08912 0.45282 0.41001 0.0
N493 N 0.17339 0.55838 0.41045 0.0
C494 C 0.11514 0.54411 0.42114 0.0
C495 C 0.06948 0.48683 0.421 0.0
C496 C 0.59119 0.08944 0.75042 0.0
C497 C 0.52701 0.09211 0.75146 0.0
C498 C 0.59746 0.03847 0.75006 0.0
C499 C 0.53994 0.98756 0.75077 0.0
H500 H 0.63741 0.12704 0.75032 0.0
H501 H 0.6481 0.03908 0.74927 0.0
S502 S 0.35961 0.97114 0.75296 0.0
N503 N 0.4043 0.03882 0.7522 0.0
N504 N 0.41604 0.94343 0.75259 0.0
C505 C 0.47524 0.98951 0.75159 0.0
C506 C 0.46885 0.04156 0.75174 0.0
C507 C 0.55419 0.5542 0.5818 0.0
C508 C 0.52226 0.57582 0.59556 0.0
C509 C 0.54468 0.49836 0.58247 0.0
C510 C 0.50301 0.46179 0.59696 0.0
H511 H 0.58609 0.58053 0.57025 0.0
H512 H 0.56975 0.48355 0.57141 0.0
S513 S 0.41269 0.49899 0.63748 0.0
N514 N 0.45014 0.55704 0.62475 0.0
N515 N 0.43263 0.45228 0.6261 0.0
C516 C 0.47135 0.48304 0.61095 0.0
C517 C 0.48091 0.53995 0.61024 0.0
C518 C 0.08702 0.58795 0.92394 0.0
C519 C 0.12823 0.55772 0.92509 0.0
C520 C 1.0154 0.56151 0.92433 0.0
C521 C 0.98143 0.50354 0.92604 0.0
H522 H 0.11016 0.63268 0.92252 0.0
H523 H 0.98653 0.58686 0.92325 0.0
S524 S 0.06521 0.40489 0.92995 0.0
N525 N 0.12921 0.46636 0.92824 0.0
N526 N 0.99534 0.41659 0.92912 0.0
C527 C 1.02205 0.47275 0.9274 0.0
C528 C 0.09505 0.49976 0.92688 0.0
C529 C 0.5431 0.97829 0.28131 0.0
C530 C 0.47653 0.97603 0.28256 0.0
C531 C 0.60038 0.02919 0.28073 0.0
C532 C 0.59376 0.08014 0.28147 0.0
H533 H 0.55105 0.94044 0.28018 0.0
H534 H 0.65038 1.02865 0.27954 0.0
S535 S 0.43056 0.09705 0.28567 0.0
N536 N 0.40757 0.02931 0.28558 0.0
N537 N 0.51439 0.12465 0.28373 0.0
C538 C 0.52743 0.07843 0.28314 0.0
C539 C 0.46916 1.02656 0.28382 0.0
loop_
_geom_bond_atom_site_label_1
_geom_bond_atom_site_label_2
_geom_bond_distance
_geom_bond_site_symmetry_2
_ccdc_geom_bond_type
Cu0 N1 1.999 . S
Cu0 O6 1.974 . S
Cu0 N11 1.985 . S
Cu0 O20 1.959 . S
N1 Cu0 1.999 . S
N1 C3 1.263 . S
N1 C5 1.389 . S
N2 C3 1.358 . S
N2 C4 1.400 . S
C3 N1 1.263 . S
C3 N2 1.358 . S
C3 H9 0.930 . S
C4 N2 1.400 . S
C4 C5 1.351 . S
C4 H21 0.930 . S
C5 N1 1.389 . S
C5 C4 1.351 . S
C5 H10 0.930 . S
O6 Cu0 1.974 . S
O6 C16 1.282 . S
C7 O8 1.261 . S
C7 O20 1.251 . S
O8 C7 1.261 . S
H9 C3 0.930 . S
H10 C5 0.930 . S
N11 Cu0 1.985 . S
N11 C13 1.335 . S
N11 C14 1.390 . S
N12 C13 1.345 . S
N12 C15 1.336 . S
C13 N11 1.335 . S
C13 N12 1.345 . S
C13 H18 0.930 . S
C14 N11 1.390 . S
C14 C15 1.346 . S
C14 H19 0.930 . S
C15 N12 1.336 . S
C15 C14 1.346 . S
C15 H22 0.929 . S
C16 O6 1.282 . S
C16 O17 1.216 . S
O17 C16 1.216 . S
H18 C13 0.930 . S
H19 C14 0.930 . S
O20 Cu0 1.959 . S
O20 C7 1.251 . S
H21 C4 0.930 . S
H22 C15 0.929 . S
Cu23 N24 1.999 . S
Cu23 O29 1.974 . S
Cu23 N34 1.985 . S
Cu23 O43 1.959 . S
N24 Cu23 1.999 . S
N24 C26 1.263 . S
N24 C28 1.389 . S
N25 C26 1.358 . S
N25 C27 1.400 . S
C26 N24 1.263 . S
C26 N25 1.358 . S
C26 H32 0.930 . S
C27 N25 1.400 . S
C27 C28 1.351 . S
C27 H44 0.930 . S
C28 N24 1.389 . S
C28 C27 1.351 . S
C28 H33 0.930 . S
O29 Cu23 1.974 . S
O29 C39 1.282 . S
C30 O31 1.261 . S
C30 O43 1.251 . S
O31 C30 1.261 . S
H32 C26 0.930 . S
H33 C28 0.930 . S
N34 Cu23 1.985 . S
N34 C36 1.335 . S
N34 C37 1.390 . S
N35 C36 1.345 . S
N35 C38 1.336 . S
C36 N34 1.335 . S
C36 N35 1.345 . S
C36 H41 0.930 . S
C37 N34 1.390 . S
C37 C38 1.346 . S
C37 H42 0.930 . S
C38 N35 1.336 . S
C38 C37 1.346 . S
C38 H45 0.929 . S
C39 O29 1.282 . S
C39 O40 1.216 . S
O40 C39 1.216 . S
H41 C36 0.930 . S
H42 C37 0.930 . S
O43 Cu23 1.959 . S
O43 C30 1.251 . S
H44 C27 0.930 . S
H45 C38 0.929 . S
Cu46 N47 1.999 . S
Cu46 O52 1.974 . S
Cu46 N57 1.985 . S
Cu46 O66 1.959 . S
N47 Cu46 1.999 . S
N47 C49 1.263 . S
N47 C51 1.389 . S
N48 C49 1.358 . S
N48 C50 1.400 . S
C49 N47 1.263 . S
C49 N48 1.358 . S
C49 H55 0.930 . S
C50 N48 1.400 . S
C50 C51 1.351 . S
C50 H67 0.930 . S
C51 N47 1.389 . S
C51 C50 1.351 . S
C51 H56 0.930 . S
O52 Cu46 1.974 . S
O52 C62 1.282 . S
C53 O54 1.261 . S
C53 O66 1.251 . S
O54 C53 1.261 . S
H55 C49 0.930 . S
H56 C51 0.930 . S
N57 Cu46 1.985 . S
N57 C59 1.335 . S
N57 C60 1.390 . S
N58 C59 1.345 . S
N58 C61 1.336 . S
C59 N57 1.335 . S
C59 N58 1.345 . S
C59 H64 0.930 . S
C60 N57 1.390 . S
C60 C61 1.346 . S
C60 H65 0.930 . S
C61 N58 1.336 . S
C61 C60 1.346 . S
C61 H68 0.929 . S
C62 O52 1.282 . S
C62 O63 1.216 . S
O63 C62 1.216 . S
H64 C59 0.930 . S
H65 C60 0.930 . S
O66 Cu46 1.959 . S
O66 C53 1.251 . S
H67 C50 0.930 . S
H68 C61 0.929 . S
Cu69 N70 1.999 . S
Cu69 O75 1.974 . S
Cu69 N80 1.985 . S
Cu69 O89 1.959 . S
N70 Cu69 1.999 . S
N70 C72 1.263 . S
N70 C74 1.389 . S
N71 C72 1.358 . S
N71 C73 1.400 . S
C72 N70 1.263 . S
C72 N71 1.358 . S
C72 H78 0.930 . S
C73 N71 1.400 . S
C73 C74 1.351 . S
C73 H90 0.930 . S
C74 N70 1.389 . S
C74 C73 1.351 . S
C74 H79 0.930 . S
O75 Cu69 1.974 . S
O75 C85 1.282 . S
C76 O77 1.261 . S
C76 O89 1.251 . S
O77 C76 1.261 . S
H78 C72 0.930 . S
H79 C74 0.930 . S
N80 Cu69 1.985 . S
N80 C82 1.335 . S
N80 C83 1.390 . S
N81 C82 1.345 . S
N81 C84 1.336 . S
C82 N80 1.335 . S
C82 N81 1.345 . S
C82 H87 0.930 . S
C83 N80 1.390 . S
C83 C84 1.346 . S
C83 H88 0.930 . S
C84 N81 1.336 . S
C84 C83 1.346 . S
C84 H91 0.929 . S
C85 O75 1.282 . S
C85 O86 1.216 . S
O86 C85 1.216 . S
H87 C82 0.930 . S
H88 C83 0.930 . S
O89 Cu69 1.959 . S
O89 C76 1.251 . S
H90 C73 0.930 . S
H91 C84 0.929 . S
Cu92 N93 1.999 . S
Cu92 O98 1.974 . S
Cu92 N103 1.985 . S
Cu92 O112 1.959 . S
N93 Cu92 1.999 . S
N93 C95 1.263 . S
N93 C97 1.389 . S
N94 C95 1.358 . S
N94 C96 1.400 . S
C95 N93 1.263 . S
C95 N94 1.358 . S
C95 H101 0.930 . S
C96 N94 1.400 . S
C96 C97 1.351 . S
C96 H113 0.930 . S
C97 N93 1.389 . S
C97 C96 1.351 . S
C97 H102 0.930 . S
O98 Cu92 1.974 . S
O98 C108 1.282 . S
C99 O100 1.261 . S
C99 O112 1.251 . S
O100 C99 1.261 . S
H101 C95 0.930 . S
H102 C97 0.930 . S
N103 Cu92 1.985 . S
N103 C105 1.335 . S
N103 C106 1.390 . S
N104 C105 1.345 . S
N104 C107 1.336 . S
C105 N103 1.335 . S
C105 N104 1.345 . S
C105 H110 0.930 . S
C106 N103 1.390 . S
C106 C107 1.346 . S
C106 H111 0.930 . S
C107 N104 1.336 . S
C107 C106 1.346 . S
C107 H114 0.929 . S
C108 O98 1.282 . S
C108 O109 1.216 . S
O109 C108 1.216 . S
H110 C105 0.930 . S
H111 C106 0.930 . S
O112 Cu92 1.959 . S
O112 C99 1.251 . S
H113 C96 0.930 . S
H114 C107 0.929 . S
Cu115 N116 1.999 . S
Cu115 O121 1.974 . S
Cu115 N126 1.985 . S
Cu115 O135 1.959 . S
N116 Cu115 1.999 . S
N116 C118 1.263 . S
N116 C120 1.389 . S
N117 C118 1.358 . S
N117 C119 1.400 . S
C118 N116 1.263 . S
C118 N117 1.358 . S
C118 H124 0.930 . S
C119 N117 1.400 . S
C119 C120 1.351 . S
C119 H136 0.930 . S
C120 N116 1.389 . S
C120 C119 1.351 . S
C120 H125 0.930 . S
O121 Cu115 1.974 . S
O121 C131 1.282 . S
C122 O123 1.261 . S
C122 O135 1.251 . S
O123 C122 1.261 . S
H124 C118 0.930 . S
H125 C120 0.930 . S
N126 Cu115 1.985 . S
N126 C128 1.335 . S
N126 C129 1.390 . S
N127 C128 1.345 . S
N127 C130 1.336 . S
C128 N126 1.335 . S
C128 N127 1.345 . S
C128 H133 0.930 . S
C129 N126 1.390 . S
C129 C130 1.346 . S
C129 H134 0.930 . S
C130 N127 1.336 . S
C130 C129 1.346 . S
C130 H137 0.929 . S
C131 O121 1.282 . S
C131 O132 1.216 . S
O132 C131 1.216 . S
H133 C128 0.930 . S
H134 C129 0.930 . S
O135 Cu115 1.959 . S
O135 C122 1.251 . S
H136 C119 0.930 . S
H137 C130 0.929 . S
Cu138 N139 1.999 . S
Cu138 O144 1.974 . S
Cu138 N149 1.985 . S
Cu138 O158 1.959 . S
N139 Cu138 1.999 . S
N139 C141 1.263 . S
N139 C143 1.389 . S
N140 C141 1.358 . S
N140 C142 1.400 . S
C141 N139 1.263 . S
C141 N140 1.358 . S
C141 H147 0.930 . S
C142 N140 1.400 . S
C142 C143 1.351 . S
C142 H159 0.930 . S
C143 N139 1.389 . S
C143 C142 1.351 . S
C143 H148 0.930 . S
O144 Cu138 1.974 . S
O144 C154 1.282 . S
C145 O146 1.261 . S
C145 O158 1.251 . S
O146 C145 1.261 . S
H147 C141 0.930 . S
H148 C143 0.930 . S
N149 Cu138 1.985 . S
N149 C151 1.335 . S
N149 C152 1.390 . S
N150 C151 1.345 . S
N150 C153 1.336 . S
C151 N149 1.335 . S
C151 N150 1.345 . S
C151 H156 0.930 . S
C152 N149 1.390 . S
C152 C153 1.346 . S
C152 H157 0.930 . S
C153 N150 1.336 . S
C153 C152 1.346 . S
C153 H160 0.929 . S
C154 O144 1.282 . S
C154 O155 1.216 . S
O155 C154 1.216 . S
H156 C151 0.930 . S
H157 C152 0.930 . S
O158 Cu138 1.959 . S
O158 C145 1.251 . S
H159 C142 0.930 . S
H160 C153 0.929 . S
Cu161 N162 1.999 . S
Cu161 O167 1.974 . S
Cu161 N172 1.985 . S
Cu161 O181 1.959 . S
N162 Cu161 1.999 . S
N162 C164 1.263 . S
N162 C166 1.389 . S
N163 C164 1.358 . S
N163 C165 1.400 . S
C164 N162 1.263 . S
C164 N163 1.358 . S
C164 H170 0.930 . S
C165 N163 1.400 . S
C165 C166 1.351 . S
C165 H182 0.930 . S
C166 N162 1.389 . S
C166 C165 1.351 . S
C166 H171 0.930 . S
O167 Cu161 1.974 . S
O167 C177 1.282 . S
C168 O169 1.261 . S
C168 O181 1.251 . S
O169 C168 1.261 . S
H170 C164 0.930 . S
H171 C166 0.930 . S
N172 Cu161 1.985 . S
N172 C174 1.335 . S
N172 C175 1.390 . S
N173 C174 1.345 . S
N173 C176 1.336 . S
C174 N172 1.335 . S
C174 N173 1.345 . S
C174 H179 0.930 . S
C175 N172 1.390 . S
C175 C176 1.346 . S
C175 H180 0.930 . S
C176 N173 1.336 . S
C176 C175 1.346 . S
C176 H183 0.929 . S
C177 O167 1.282 . S
C177 O178 1.216 . S
O178 C177 1.216 . S
H179 C174 0.930 . S
H180 C175 0.930 . S
O181 Cu161 1.959 . S
O181 C168 1.251 . S
H182 C165 0.930 . S
H183 C176 0.929 . S
Cu184 N185 1.999 . S
Cu184 O190 1.974 . S
Cu184 N195 1.985 . S
Cu184 O204 1.959 . S
N185 Cu184 1.999 . S
N185 C187 1.263 . S
N185 C189 1.389 . S
N186 C187 1.358 . S
N186 C188 1.400 . S
C187 N185 1.263 . S
C187 N186 1.358 . S
C187 H193 0.930 . S
C188 N186 1.400 . S
C188 C189 1.351 . S
C188 H205 0.931 1_455 S
C189 N185 1.389 . S
C189 C188 1.351 . S
C189 H194 0.930 . S
O190 Cu184 1.974 . S
O190 C200 1.282 . S
C191 O192 1.261 . S
C191 O204 1.251 . S
O192 C191 1.261 . S
H193 C187 0.930 . S
H194 C189 0.930 . S
N195 Cu184 1.985 . S
N195 C197 1.335 . S
N195 C198 1.390 . S
N196 C197 1.345 . S
N196 C199 1.336 . S
C197 N195 1.335 . S
C197 N196 1.345 . S
C197 H202 0.930 . S
C198 N195 1.390 . S
C198 C199 1.346 . S
C198 H203 0.930 . S
C199 N196 1.336 . S
C199 C198 1.346 . S
C199 H206 0.929 . S
C200 O190 1.282 . S
C200 O201 1.216 . S
O201 C200 1.216 . S
H202 C197 0.930 . S
H203 C198 0.930 . S
O204 Cu184 1.959 . S
O204 C191 1.251 . S
H205 C188 0.931 1_655 S
H206 C199 0.929 . S
Cu207 N208 1.999 . S
Cu207 O213 1.974 . S
Cu207 N218 1.985 . S
Cu207 O227 1.959 . S
N208 Cu207 1.999 . S
N208 C210 1.263 . S
N208 C212 1.389 . S
N209 C210 1.358 . S
N209 C211 1.400 . S
C210 N208 1.263 . S
C210 N209 1.358 . S
C210 H216 0.930 . S
C211 N209 1.400 . S
C211 C212 1.351 . S
C211 H228 0.930 . S
C212 N208 1.389 . S
C212 C211 1.351 . S
C212 H217 0.930 . S
O213 Cu207 1.974 . S
O213 C223 1.282 . S
C214 O215 1.261 . S
C214 O227 1.251 . S
O215 C214 1.261 . S
H216 C210 0.930 . S
H217 C212 0.930 . S
N218 Cu207 1.985 . S
N218 C220 1.335 . S
N218 C221 1.390 . S
N219 C220 1.345 . S
N219 C222 1.336 . S
C220 N218 1.335 . S
C220 N219 1.345 . S
C220 H225 0.930 . S
C221 N218 1.390 . S
C221 C222 1.346 . S
C221 H226 0.930 . S
C222 N219 1.336 . S
C222 C221 1.346 . S
C222 H229 0.929 . S
C223 O213 1.282 . S
C223 O224 1.216 . S
O224 C223 1.216 . S
H225 C220 0.930 . S
H226 C221 0.930 . S
O227 Cu207 1.959 . S
O227 C214 1.251 . S
H228 C211 0.930 . S
H229 C222 0.929 . S
Cu230 N231 1.999 . S
Cu230 O236 1.974 . S
Cu230 N241 1.985 . S
Cu230 O250 1.959 . S
N231 Cu230 1.999 . S
N231 C233 1.263 . S
N231 C235 1.389 . S
N232 C233 1.358 . S
N232 C234 1.400 . S
C233 N231 1.263 . S
C233 N232 1.358 . S
C233 H239 0.930 . S
C234 N232 1.400 . S
C234 C235 1.351 . S
C234 H251 0.930 . S
C235 N231 1.389 . S
C235 C234 1.351 . S
C235 H240 0.930 . S
O236 Cu230 1.974 . S
O236 C246 1.282 . S
C237 O238 1.261 . S
C237 O250 1.251 . S
O238 C237 1.261 . S
H239 C233 0.930 . S
H240 C235 0.930 . S
N241 Cu230 1.985 . S
N241 C243 1.335 . S
N241 C244 1.390 . S
N242 C243 1.345 . S
N242 C245 1.336 . S
C243 N241 1.335 . S
C243 N242 1.345 . S
C243 H248 0.930 . S
C244 N241 1.390 . S
C244 C245 1.346 . S
C244 H249 0.930 . S
C245 N242 1.336 . S
C245 C244 1.346 . S
C245 H252 0.929 . S
C246 O236 1.282 . S
C246 O247 1.216 . S
O247 C246 1.216 . S
H248 C243 0.930 . S
H249 C244 0.930 . S
O250 Cu230 1.959 . S
O250 C237 1.251 . S
H251 C234 0.930 . S
H252 C245 0.929 . S
Cu253 N254 1.999 . S
Cu253 O259 1.974 . S
Cu253 N264 1.985 . S
Cu253 O273 1.959 . S
N254 Cu253 1.999 . S
N254 C256 1.263 . S
N254 C258 1.389 . S
N255 C256 1.358 . S
N255 C257 1.400 . S
C256 N254 1.263 . S
C256 N255 1.358 . S
C256 H262 0.930 . S
C257 N255 1.400 . S
C257 C258 1.351 . S
C257 H274 0.932 1_655 S
C258 N254 1.389 . S
C258 C257 1.351 . S
C258 H263 0.930 . S
O259 Cu253 1.974 . S
O259 C269 1.282 . S
C260 O261 1.261 . S
C260 O273 1.251 . S
O261 C260 1.261 . S
H262 C256 0.930 . S
H263 C258 0.930 . S
N264 Cu253 1.985 . S
N264 C266 1.335 . S
N264 C267 1.390 . S
N265 C266 1.345 . S
N265 C268 1.336 . S
C266 N264 1.335 . S
C266 N265 1.345 . S
C266 H271 0.930 . S
C267 N264 1.390 . S
C267 C268 1.346 . S
C267 H272 0.930 . S
C268 N265 1.336 . S
C268 C267 1.346 . S
C268 H275 0.929 . S
C269 O259 1.282 . S
C269 O270 1.216 . S
O270 C269 1.216 . S
H271 C266 0.930 . S
H272 C267 0.930 . S
O273 Cu253 1.959 . S
O273 C260 1.251 . S
H274 C257 0.932 1_455 S
H275 C268 0.929 . S
C276 C277 1.369 . S
C276 C278 1.419 1_556 S
C276 H280 0.930 . S
C277 C276 1.369 . S
C277 C286 1.429 . S
C278 C276 1.419 1_554 S
C278 C279 1.363 . S
C278 H281 0.929 . S
C279 C278 1.363 . S
C279 C285 1.428 . S
H280 C276 0.930 . S
H281 C278 0.929 . S
S282 N283 1.613 . S
S282 N284 1.610 1_556 S
N283 S282 1.613 . S
N283 C286 1.350 . S
N284 S282 1.610 1_554 S
N284 C285 1.351 . S
C285 C279 1.428 . S
C285 N284 1.351 . S
C285 C286 1.434 1_554 S
C286 C277 1.429 . S
C286 N283 1.350 . S
C286 C285 1.434 1_556 S
C287 C288 1.369 . S
C287 C289 1.419 . S
C287 H291 0.930 . S
C288 C287 1.369 . S
C288 C297 1.429 . S
C289 C287 1.419 . S
C289 C290 1.363 . S
C289 H292 0.929 . S
C290 C289 1.363 . S
C290 C296 1.428 . S
H291 C287 0.930 . S
H292 C289 0.929 . S
S293 N294 1.613 . S
S293 N295 1.610 . S
N294 S293 1.613 . S
N294 C297 1.350 . S
N295 S293 1.610 . S
N295 C296 1.351 . S
C296 C290 1.428 . S
C296 N295 1.351 . S
C296 C297 1.434 . S
C297 C288 1.429 . S
C297 N294 1.350 . S
C297 C296 1.434 . S
C298 C299 1.369 . S
C298 C300 1.419 . S
C298 H302 0.930 . S
C299 C298 1.369 . S
C299 C308 1.429 . S
C300 C298 1.419 . S
C300 C301 1.363 . S
C300 H303 0.929 . S
C301 C300 1.363 . S
C301 C307 1.428 . S
H302 C298 0.930 . S
H303 C300 0.929 . S
S304 N305 1.613 . S
S304 N306 1.610 . S
N305 S304 1.613 . S
N305 C308 1.350 . S
N306 S304 1.610 . S
N306 C307 1.351 . S
C307 C301 1.428 . S
C307 N306 1.351 . S
C307 C308 1.434 . S
C308 C299 1.429 . S
C308 N305 1.350 . S
C308 C307 1.434 . S
C309 C310 1.369 . S
C309 C311 1.419 1_554 S
C309 H313 0.930 . S
C310 C309 1.369 . S
C310 C319 1.429 . S
C311 C309 1.419 1_556 S
C311 C312 1.363 . S
C311 H314 0.929 . S
C312 C311 1.363 . S
C312 C318 1.428 . S
H313 C309 0.930 . S
H314 C311 0.929 . S
S315 N316 1.613 . S
S315 N317 1.610 1_554 S
N316 S315 1.613 . S
N316 C319 1.350 . S
N317 S315 1.610 1_556 S
N317 C318 1.351 . S
C318 C312 1.428 . S
C318 N317 1.351 . S
C318 C319 1.434 1_556 S
C319 C310 1.429 . S
C319 N316 1.350 . S
C319 C318 1.434 1_554 S
C320 C321 1.369 . S
C320 C322 1.419 . S
C320 H324 0.930 . S
C321 C320 1.369 . S
C321 C330 1.429 . S
C322 C320 1.419 . S
C322 C323 1.363 . S
C322 H325 0.929 . S
C323 C322 1.363 . S
C323 C329 1.428 . S
H324 C320 0.930 . S
H325 C322 0.929 . S
S326 N327 1.613 . S
S326 N328 1.610 . S
N327 S326 1.613 . S
N327 C330 1.350 . S
N328 S326 1.610 . S
N328 C329 1.351 . S
C329 C323 1.428 . S
C329 N328 1.351 . S
C329 C330 1.434 . S
C330 C321 1.429 . S
C330 N327 1.350 . S
C330 C329 1.434 . S
C331 C332 1.369 . S
C331 C333 1.419 . S
C331 H335 0.930 . S
C332 C331 1.369 . S
C332 C341 1.429 . S
C333 C331 1.419 . S
C333 C334 1.363 . S
C333 H336 0.929 . S
C334 C333 1.363 . S
C334 C340 1.428 . S
H335 C331 0.930 . S
H336 C333 0.929 . S
S337 N338 1.613 . S
S337 N339 1.610 . S
N338 S337 1.613 . S
N338 C341 1.350 . S
N339 S337 1.610 . S
N339 C340 1.351 . S
C340 C334 1.428 . S
C340 N339 1.351 . S
C340 C341 1.434 . S
C341 C332 1.429 . S
C341 N338 1.350 . S
C341 C340 1.434 . S
C342 C343 1.369 . S
C342 C344 1.419 . S
C342 H346 0.930 . S
C343 C342 1.369 . S
C343 C352 1.429 . S
C344 C342 1.419 . S
C344 C345 1.363 . S
C344 H347 0.929 . S
C345 C344 1.363 . S
C345 C351 1.428 . S
H346 C342 0.930 . S
H347 C344 0.929 . S
S348 N349 1.613 . S
S348 N350 1.610 . S
N349 S348 1.613 . S
N349 C352 1.350 . S
N350 S348 1.610 . S
N350 C351 1.351 . S
C351 C345 1.428 . S
C351 N350 1.351 . S
C351 C352 1.434 . S
C352 C343 1.429 . S
C352 N349 1.350 . S
C352 C351 1.434 . S
C353 C354 1.369 . S
C353 C355 1.419 . S
C353 H357 0.930 . S
C354 C353 1.369 . S
C354 C363 1.429 . S
C355 C353 1.419 . S
C355 C356 1.363 . S
C355 H358 0.929 . S
C356 C355 1.363 . S
C356 C362 1.428 . S
H357 C353 0.930 . S
H358 C355 0.929 . S
S359 N360 1.613 . S
S359 N361 1.610 . S
N360 S359 1.613 . S
N360 C363 1.350 . S
N361 S359 1.610 . S
N361 C362 1.351 . S
C362 C356 1.428 . S
C362 N361 1.351 . S
C362 C363 1.434 . S
C363 C354 1.429 . S
C363 N360 1.350 . S
C363 C362 1.434 . S
C364 C365 1.369 . S
C364 C366 1.419 . S
C364 H368 0.930 . S
C365 C364 1.369 . S
C365 C374 1.429 . S
C366 C364 1.419 . S
C366 C367 1.363 . S
C366 H369 0.929 . S
C367 C366 1.363 . S
C367 C373 1.428 . S
H368 C364 0.930 . S
H369 C366 0.929 . S
S370 N371 1.613 . S
S370 N372 1.610 . S
N371 S370 1.613 . S
N371 C374 1.350 . S
N372 S370 1.610 . S
N372 C373 1.351 . S
C373 C367 1.428 . S
C373 N372 1.351 . S
C373 C374 1.434 . S
C374 C365 1.429 . S
C374 N371 1.350 . S
C374 C373 1.434 . S
C375 C376 1.369 . S
C375 C377 1.419 . S
C375 H379 0.930 . S
C376 C375 1.369 . S
C376 C385 1.429 . S
C377 C375 1.419 . S
C377 C378 1.363 . S
C377 H380 0.929 . S
C378 C377 1.363 . S
C378 C384 1.428 . S
H379 C375 0.930 . S
H380 C377 0.929 . S
S381 N382 1.613 . S
S381 N383 1.610 . S
N382 S381 1.613 . S
N382 C385 1.350 . S
N383 S381 1.610 . S
N383 C384 1.351 . S
C384 C378 1.428 . S
C384 N383 1.351 . S
C384 C385 1.434 . S
C385 C376 1.429 . S
C385 N382 1.350 . S
C385 C384 1.434 . S
C386 C387 1.369 . S
C386 C388 1.419 . S
C386 H390 0.930 . S
C387 C386 1.369 . S
C387 C396 1.429 . S
C388 C386 1.419 . S
C388 C389 1.363 . S
C388 H391 0.929 . S
C389 C388 1.363 . S
C389 C395 1.428 . S
H390 C386 0.930 . S
H391 C388 0.929 . S
S392 N393 1.613 . S
S392 N394 1.610 . S
N393 S392 1.613 . S
N393 C396 1.350 . S
N394 S392 1.610 . S
N394 C395 1.351 . S
C395 C389 1.428 . S
C395 N394 1.351 . S
C395 C396 1.434 . S
C396 C387 1.429 . S
C396 N393 1.350 . S
C396 C395 1.434 . S
C397 C398 1.369 . S
C397 C399 1.419 . S
C397 H401 0.930 . S
C398 C397 1.369 . S
C398 C407 1.429 . S
C399 C397 1.419 . S
C399 C400 1.363 . S
C399 H402 0.929 . S
C400 C399 1.363 . S
C400 C406 1.428 . S
H401 C397 0.930 . S
H402 C399 0.929 . S
S403 N404 1.613 . S
S403 N405 1.610 . S
N404 S403 1.613 . S
N404 C407 1.350 . S
N405 S403 1.610 . S
N405 C406 1.351 . S
C406 C400 1.428 . S
C406 N405 1.351 . S
C406 C407 1.434 . S
C407 C398 1.429 . S
C407 N404 1.350 . S
C407 C406 1.434 . S
C408 C409 1.369 . S
C408 C410 1.419 1_655 S
C408 H412 0.930 . S
C409 C408 1.369 . S
C409 C418 1.429 . S
C410 C408 1.419 1_455 S
C410 C411 1.363 . S
C410 H413 0.929 . S
C411 C410 1.363 . S
C411 C417 1.428 . S
H412 C408 0.930 . S
H413 C410 0.929 . S
S414 N415 1.613 . S
S414 N416 1.610 1_655 S
N415 S414 1.613 . S
N415 C418 1.350 . S
N416 S414 1.610 1_455 S
N416 C417 1.351 . S
C417 C411 1.428 . S
C417 N416 1.351 . S
C417 C418 1.434 1_455 S
C418 C409 1.429 . S
C418 N415 1.350 . S
C418 C417 1.434 1_655 S
C419 C420 1.369 . S
C419 C421 1.419 . S
C419 H423 0.930 . S
C420 C419 1.369 . S
C420 C429 1.429 1_545 S
C421 C419 1.419 . S
C421 C422 1.363 1_545 S
C421 H424 0.929 . S
C422 C421 1.363 1_565 S
C422 C428 1.428 . S
H423 C419 0.930 . S
H424 C421 0.929 . S
S425 N426 1.613 . S
S425 N427 1.610 . S
N426 S425 1.613 . S
N426 C429 1.350 . S
N427 S425 1.610 . S
N427 C428 1.351 . S
C428 C422 1.428 . S
C428 N427 1.351 . S
C428 C429 1.434 . S
C429 C420 1.429 1_565 S
C429 N426 1.350 . S
C429 C428 1.434 . S
C430 C431 1.369 . S
C430 C432 1.419 . S
C430 H434 0.930 . S
C431 C430 1.369 . S
C431 C440 1.429 . S
C432 C430 1.419 . S
C432 C433 1.363 . S
C432 H435 0.929 . S
C433 C432 1.363 . S
C433 C439 1.428 . S
H434 C430 0.930 . S
H435 C432 0.929 . S
S436 N437 1.613 . S
S436 N438 1.610 . S
N437 S436 1.613 . S
N437 C440 1.350 . S
N438 S436 1.610 . S
N438 C439 1.351 . S
C439 C433 1.428 . S
C439 N438 1.351 . S
C439 C440 1.434 . S
C440 C431 1.429 . S
C440 N437 1.350 . S
C440 C439 1.434 . S
C441 C442 1.369 . S
C441 C443 1.419 1_545 S
C441 H445 0.929 1_545 S
C442 C441 1.369 . S
C442 C451 1.429 . S
C443 C441 1.419 1_565 S
C443 C444 1.363 . S
C443 H446 0.929 . S
C444 C443 1.363 . S
C444 C450 1.418 1_565 S
H445 C441 0.929 1_565 S
H446 C443 0.929 . S
S447 N448 1.613 . S
S447 N449 1.610 . S
N448 S447 1.613 . S
N448 C451 1.350 . S
N449 S447 1.610 . S
N449 C450 1.348 . S
C450 C444 1.418 1_545 S
C450 N449 1.348 . S
C450 C451 1.448 . S
C451 C442 1.429 . S
C451 N448 1.350 . S
C451 C450 1.448 . S
C452 C453 1.369 . S
C452 C454 1.419 . S
C452 H456 0.930 . S
C453 C452 1.369 . S
C453 C462 1.429 . S
C454 C452 1.419 . S
C454 C455 1.363 . S
C454 H457 0.929 . S
C455 C454 1.363 . S
C455 C461 1.428 . S
H456 C452 0.930 . S
H457 C454 0.929 . S
S458 N459 1.613 . S
S458 N460 1.610 . S
N459 S458 1.613 . S
N459 C462 1.350 . S
N460 S458 1.610 . S
N460 C461 1.351 . S
C461 C455 1.428 . S
C461 N460 1.351 . S
C461 C462 1.434 . S
C462 C453 1.429 . S
C462 N459 1.350 . S
C462 C461 1.434 . S
C463 C464 1.369 . S
C463 C465 1.419 . S
C463 H467 0.930 . S
C464 C463 1.369 . S
C464 C473 1.429 1_455 S
C465 C463 1.419 . S
C465 C466 1.363 1_455 S
C465 H468 0.929 . S
C466 C465 1.363 1_655 S
C466 C472 1.428 . S
H467 C463 0.930 . S
H468 C465 0.929 . S
S469 N470 1.613 . S
S469 N471 1.610 . S
N470 S469 1.613 . S
N470 C473 1.350 . S
N471 S469 1.610 . S
N471 C472 1.351 . S
C472 C466 1.428 . S
C472 N471 1.351 . S
C472 C473 1.434 . S
C473 C464 1.429 1_655 S
C473 N470 1.350 . S
C473 C472 1.434 . S
C474 C475 1.369 . S
C474 C476 1.419 . S
C474 H478 0.930 . S
C475 C474 1.369 . S
C475 C484 1.429 . S
C476 C474 1.419 . S
C476 C477 1.363 . S
C476 H479 0.929 . S
C477 C476 1.363 . S
C477 C483 1.428 . S
H478 C474 0.930 . S
H479 C476 0.929 . S
S480 N481 1.613 . S
S480 N482 1.610 . S
N481 S480 1.613 . S
N481 C484 1.350 . S
N482 S480 1.610 . S
N482 C483 1.351 . S
C483 C477 1.428 . S
C483 N482 1.351 . S
C483 C484 1.434 . S
C484 C475 1.429 . S
C484 N481 1.350 . S
C484 C483 1.434 . S
C485 C486 1.369 . S
C485 C487 1.419 . S
C485 H489 0.930 . S
C486 C485 1.369 . S
C486 C495 1.429 1_655 S
C487 C485 1.419 . S
C487 C488 1.363 1_655 S
C487 H490 0.929 . S
C488 C487 1.363 1_455 S
C488 C494 1.428 . S
H489 C485 0.930 . S
H490 C487 0.929 . S
S491 N492 1.613 . S
S491 N493 1.610 . S
N492 S491 1.613 . S
N492 C495 1.350 . S
N493 S491 1.610 . S
N493 C494 1.351 . S
C494 C488 1.428 . S
C494 N493 1.351 . S
C494 C495 1.434 . S
C495 C486 1.429 1_455 S
C495 N492 1.350 . S
C495 C494 1.434 . S
C496 C497 1.369 . S
C496 C498 1.419 . S
C496 H500 0.930 . S
C497 C496 1.369 . S
C497 C506 1.429 1_545 S
C498 C496 1.419 . S
C498 C499 1.363 1_545 S
C498 H501 0.929 . S
C499 C498 1.363 1_565 S
C499 C505 1.428 . S
H500 C496 0.930 . S
H501 C498 0.929 . S
S502 N503 1.613 . S
S502 N504 1.610 . S
N503 S502 1.613 . S
N503 C506 1.350 . S
N504 S502 1.610 . S
N504 C505 1.351 . S
C505 C499 1.428 . S
C505 N504 1.351 . S
C505 C506 1.434 . S
C506 C497 1.429 1_565 S
C506 N503 1.350 . S
C506 C505 1.434 . S
C507 C508 1.369 . S
C507 C509 1.419 . S
C507 H511 0.930 . S
C508 C507 1.369 . S
C508 C517 1.429 . S
C509 C507 1.419 . S
C509 C510 1.363 . S
C509 H512 0.929 . S
C510 C509 1.363 . S
C510 C516 1.428 . S
H511 C507 0.930 . S
H512 C509 0.929 . S
S513 N514 1.613 . S
S513 N515 1.610 . S
N514 S513 1.613 . S
N514 C517 1.350 . S
N515 S513 1.610 . S
N515 C516 1.351 . S
C516 C510 1.428 . S
C516 N515 1.351 . S
C516 C517 1.434 . S
C517 C508 1.429 . S
C517 N514 1.350 . S
C517 C516 1.434 . S
C518 C519 1.369 . S
C518 C520 1.419 1_455 S
C518 H522 0.930 . S
C519 C518 1.369 . S
C519 C528 1.429 . S
C520 C518 1.419 1_655 S
C520 C521 1.363 . S
C520 H523 0.929 . S
C521 C520 1.363 . S
C521 C527 1.428 . S
H522 C518 0.930 . S
H523 C520 0.929 . S
S524 N525 1.613 . S
S524 N526 1.610 1_455 S
N525 S524 1.613 . S
N525 C528 1.350 . S
N526 S524 1.610 1_655 S
N526 C527 1.351 . S
C527 C521 1.428 . S
C527 N526 1.351 . S
C527 C528 1.434 1_655 S
C528 C519 1.429 . S
C528 N525 1.350 . S
C528 C527 1.434 1_455 S
C529 C530 1.369 . S
C529 C531 1.419 1_565 S
C529 H533 0.930 . S
C530 C529 1.369 . S
C530 C539 1.431 . S
C531 C529 1.419 1_545 S
C531 C532 1.363 . S
C531 H534 0.929 . S
C532 C531 1.363 . S
C532 C538 1.428 . S
H533 C529 0.930 . S
H534 C531 0.929 . S
S535 N536 1.613 . S
S535 N537 1.610 . S
N536 S535 1.613 . S
N536 C539 1.348 1_545 S
N537 S535 1.610 . S
N537 C538 1.351 . S
C538 C532 1.428 . S
C538 N537 1.351 . S
C538 C539 1.432 1_545 S
C539 C530 1.431 . S
C539 N536 1.348 1_565 S
C539 C538 1.432 1_565 S
C277 N232 1.573 . S
C279 N2 1.579 . S
C288 C30 1.632 . S
C290 C260 1.634 . S
C299 C53 1.632 . S
C301 C145 1.628 . S
C310 N71 1.573 . S
C312 N163 1.579 . S
C321 C191 1.631 . S
C323 C99 1.631 . S
C332 C122 1.637 . S
C334 C214 1.629 . S
C343 C200 1.630 . S
C345 N12 1.642 . S
C354 C39 1.598 . S
C356 C223 1.605 . S
C365 C62 1.627 . S
C367 N242 1.641 . S
C376 N81 1.641 . S
C378 C269 1.627 . S
C387 C154 1.603 . S
C389 C108 1.600 . S
C398 N173 1.638 . S
C400 C131 1.626 . S
C409 C76 1.322 . S
C411 C7 1.319 . S
C420 N25 1.277 . S
C422 N94 1.279 . S
C431 N117 1.238 . S
C433 N48 1.236 . S
C442 N209 1.280 . S
C444 N140 1.278 . S
C453 C237 1.322 . S
C455 C168 1.319 . S
C464 N186 1.235 . S
C466 N255 1.237 . S
C475 C85 1.845 . S
C477 C16 1.842 . S
C486 N35 1.726 . S
C488 N104 1.723 . S
C497 N127 1.764 . S
C499 N58 1.761 . S
C508 N150 1.731 . S
C510 N219 1.727 . S
C519 C246 1.844 . S
C521 C177 1.842 . S
C530 N196 1.768 . S
C532 N265 1.763 . S
