# Generated by pormake.
# Topology ukg, (4)-cn, num edge types: 1
# Building blocks:
#     Node 0, Type 0, BuildingBlock: NAWXER_clean_sbu_0, # of connection points: 4
#     Node 1, Type 0, BuildingBlock: NAWXER_clean_sbu_0, # of connection points: 4
#     Node 2, Type 0, BuildingBlock: NAWXER_clean_sbu_0, # of connection points: 4
#     Node 3, Type 0, BuildingBlock: NAWXER_clean_sbu_0, # of connection points: 4
#     Node 4, Type 0, BuildingBlock: NAWXER_clean_sbu_0, # of connection points: 4
#     Node 5, Type 0, BuildingBlock: NAWXER_clean_sbu_0, # of connection points: 4
#     Node 6, Type 0, BuildingBlock: NAWXER_clean_sbu_0, # of connection points: 4
#     Node 7, Type 0, BuildingBlock: NAWXER_clean_sbu_0, # of connection points: 4
#     Edge 8, Type (0, 0), BuildingBlock: TEMPAE_clean_linker_10, # of connection points: 2
#     Edge 9, Type (0, 0), BuildingBlock: TEMPAE_clean_linker_10, # of connection points: 2
#     Edge 10, Type (0, 0), BuildingBlock: TEMPAE_clean_linker_10, # of connection points: 2
#     Edge 11, Type (0, 0), BuildingBlock: TEMPAE_clean_linker_10, # of connection points: 2
#     Edge 12, Type (0, 0), BuildingBlock: TEMPAE_clean_linker_10, # of connection points: 2
#     Edge 13, Type (0, 0), BuildingBlock: TEMPAE_clean_linker_10, # of connection points: 2
#     Edge 14, Type (0, 0), BuildingBlock: TEMPAE_clean_linker_10, # of connection points: 2
#     Edge 15, Type (0, 0), BuildingBlock: TEMPAE_clean_linker_10, # of connection points: 2
#     Edge 16, Type (0, 0), BuildingBlock: TEMPAE_clean_linker_10, # of connection points: 2
#     Edge 17, Type (0, 0), BuildingBlock: TEMPAE_clean_linker_10, # of connection points: 2
#     Edge 18, Type (0, 0), BuildingBlock: TEMPAE_clean_linker_10, # of connection points: 2
#     Edge 19, Type (0, 0), BuildingBlock: TEMPAE_clean_linker_10, # of connection points: 2
#     Edge 20, Type (0, 0), BuildingBlock: TEMPAE_clean_linker_10, # of connection points: 2
#     Edge 21, Type (0, 0), BuildingBlock: TEMPAE_clean_linker_10, # of connection points: 2
#     Edge 22, Type (0, 0), BuildingBlock: TEMPAE_clean_linker_10, # of connection points: 2
#     Edge 23, Type (0, 0), BuildingBlock: TEMPAE_clean_linker_10, # of connection points: 2
# Relax obj value: 0.100
# Max RMSD: 0.242
# Mean RMSD: 0.242
data_MOF--net-ukg--node1-NAWXER_clean_sbu_0--edge1-TEMPAE_clean_linker_10
_symmetry_space_group_name_H-M    P1
_symmetry_Int_Tables_number       1
_symmetry_cell_setting            triclinic
loop_
_symmetry_equiv_pos_as_xyz
'x, y, z'
_cell_length_a     31.363528
_cell_length_b     31.362944
_cell_length_c     39.054183
_cell_angle_alpha  89.98124
_cell_angle_beta   90.004499
_cell_angle_gamma 89.997886
loop_
_atom_site_label
_atom_site_type_symbol
_atom_site_fract_x
_atom_site_fract_y
_atom_site_fract_z
_atom_type_partial_charge
C0 C 0.10982 0.67544 0.14823 0.0
C1 C 0.97887 0.61131 0.19048 0.0
O2 O 0.10456 0.64714 0.17103 0.0
Zn3 Zn 0.04374 0.64155 0.16769 0.0
O4 O 0.0774 0.68876 0.13127 0.0
Zn5 Zn 0.00994 0.67545 0.13046 0.0
O6 O 0.98576 0.73046 0.13887 0.0
O7 O 0.01996 0.70376 0.18341 0.0
O8 O 0.9718 0.63627 0.16498 0.0
O9 O 0.01691 0.60501 0.20044 0.0
O10 O 0.03262 0.60679 0.12092 0.0
O11 O 1.0001 0.65132 0.08588 0.0
C12 C 0.99802 0.73391 0.16975 0.0
C13 C 0.01566 0.61473 0.09173 0.0
C14 C 0.32746 0.61086 0.64868 0.0
C15 C 0.38953 0.47967 0.69245 0.0
O16 O 0.35542 0.6055 0.67173 0.0
Zn17 Zn 0.36028 0.54457 0.66885 0.0
O18 O 0.31395 0.57842 0.63187 0.0
Zn19 Zn 0.32642 0.51077 0.63168 0.0
O20 O 0.27095 0.48757 0.63973 0.0
O21 O 0.29757 0.52168 0.6843 0.0
O22 O 0.36474 0.4725 0.66685 0.0
O23 O 0.39617 0.51779 0.70205 0.0
O24 O 0.39541 0.53257 0.62238 0.0
O25 O 0.35083 0.50015 0.58734 0.0
C26 C 0.26725 0.50012 0.67051 0.0
C27 C 0.38752 0.51541 0.59326 0.0
C28 C 0.5036 0.76792 0.17189 0.0
C29 C 0.48812 0.8858 0.09241 0.0
O30 O 0.51739 0.77147 0.14145 0.0
Zn31 Zn 0.49385 0.82642 0.13244 0.0
O32 O 0.48107 0.79811 0.18488 0.0
Zn33 Zn 0.45787 0.86035 0.16812 0.0
O34 O 0.39743 0.85417 0.17099 0.0
O35 O 0.42589 0.81292 0.13146 0.0
O36 O 0.46782 0.89339 0.12026 0.0
O37 O 0.50746 0.85063 0.08875 0.0
O38 O 0.5302 0.86535 0.1677 0.0
O39 O 0.48371 0.89812 0.20084 0.0
C40 C 0.39296 0.82591 0.14804 0.0
C41 C 0.52216 0.89104 0.19245 0.0
C42 C 0.11889 0.98892 0.58929 0.0
C43 C 0.23424 0.00615 0.67086 0.0
O44 O 0.15401 0.00847 0.5861 0.0
Zn45 Zn 0.17714 0.99533 0.63027 0.0
O46 O 0.11072 0.96875 0.6171 0.0
Zn47 Zn 0.14253 0.95932 0.66555 0.0
O48 O 0.10361 0.98505 0.69746 0.0
O49 O 0.13684 0.03154 0.66458 0.0
O50 O 0.20397 0.98333 0.68338 0.0
O51 O 0.23151 0.01961 0.64027 0.0
O52 O 0.19123 0.92747 0.62983 0.0
O53 O 0.14919 0.89899 0.66882 0.0
C54 C 0.11056 0.02349 0.68893 0.0
C55 C 0.17806 0.89456 0.64636 0.0
C56 C 0.0226 0.3909 0.81293 0.0
C57 C 0.89356 0.32532 0.85726 0.0
O58 O 0.03074 0.36497 0.83751 0.0
Zn59 Zn 0.99452 0.32573 0.87266 0.0
O60 O 0.98411 0.39808 0.80468 0.0
Zn61 Zn 0.95839 0.35995 0.83722 0.0
O62 O 0.96844 0.39254 0.88524 0.0
O63 O 0.00824 0.34957 0.91646 0.0
O64 O 0.89796 0.35378 0.83444 0.0
O65 O 0.92654 0.31219 0.8737 0.0
O66 O 0.0181 0.27091 0.86331 0.0
O67 O 0.98157 0.29785 0.8201 0.0
C68 C 0.98882 0.38473 0.91302 0.0
C69 C 0.00419 0.2676 0.8329 0.0
C70 C 0.73366 0.50526 0.33368 0.0
C71 C 0.61766 0.48815 0.41469 0.0
O72 O 0.70342 0.48252 0.321 0.0
Zn73 Zn 0.64177 0.45864 0.33852 0.0
O74 O 0.73072 0.51869 0.36426 0.0
Zn75 Zn 0.67624 0.49453 0.37397 0.0
O76 O 0.69022 0.42668 0.3744 0.0
O77 O 0.64832 0.39826 0.3353 0.0
O78 O 0.65283 0.50757 0.41806 0.0
O79 O 0.60963 0.4681 0.38681 0.0
O80 O 0.60311 0.48452 0.30645 0.0
O81 O 0.6363 0.53088 0.33946 0.0
C82 C 0.67709 0.3938 0.35785 0.0
C83 C 0.61015 0.52293 0.315 0.0
C84 C 0.51534 0.11588 0.91365 0.0
C85 C 0.49821 0.2347 0.83512 0.0
O86 O 0.53232 0.10773 0.88451 0.0
Zn87 Zn 0.54366 0.14222 0.83762 0.0
O88 O 0.49993 0.15256 0.91935 0.0
Zn89 Zn 0.50998 0.17643 0.8747 0.0
O90 O 0.47172 0.1372 0.84026 0.0
O91 O 0.51681 0.10558 0.80501 0.0
O92 O 0.48608 0.23152 0.86605 0.0
O93 O 0.51999 0.20436 0.82158 0.0
O94 O 0.6045 0.14757 0.83429 0.0
O95 O 0.57751 0.18941 0.87394 0.0
C96 C 0.47876 0.11207 0.81487 0.0
C97 C 0.60988 0.17589 0.85704 0.0
C98 C 0.88851 0.01576 0.41084 0.0
C99 C 0.76779 0.99959 0.33414 0.0
O100 O 0.89608 0.03295 0.38167 0.0
Zn101 Zn 0.86059 0.04451 0.33527 0.0
O102 O 0.85198 1.0002 0.4169 0.0
Zn103 Zn 0.8272 0.01059 0.37266 0.0
O104 O 0.86551 0.97247 0.33746 0.0
O105 O 0.89633 0.01779 0.30194 0.0
O106 O 0.77181 0.987 0.36488 0.0
O107 O 0.79788 0.02133 0.32019 0.0
O108 O 0.85533 0.10538 0.33223 0.0
O109 O 0.81432 0.07818 0.37236 0.0
C110 C 0.89003 0.97967 0.31171 0.0
C111 C 0.8275 0.11064 0.35539 0.0
C112 C 0.95702 0.44364 0.94761 0.0
C113 C 0.99191 0.41748 0.93997 0.0
C114 C 0.96006 0.47527 0.97296 0.0
C115 C 0.99944 0.48191 0.98995 0.0
C116 C 0.03493 0.45588 0.98186 0.0
C117 C 0.03047 0.42342 0.95741 0.0
C118 C 0.92111 0.50136 0.98174 0.0
C119 C 0.07783 0.46287 0.99851 0.0
C120 C 0.01709 0.59044 0.03091 0.0
C121 C 0.01242 0.58085 0.06572 0.0
C122 C 0.01368 0.55837 0.00597 0.0
C123 C 0.00366 0.51615 0.0161 0.0
C124 C 0.99815 0.50656 0.05126 0.0
C125 C 0.00342 0.53891 0.07572 0.0
C126 C 0.02127 0.56955 0.96886 0.0
C127 C 0.98607 0.4623 0.063 0.0
H128 H 0.92715 0.43884 0.93417 0.0
H129 H 0.05761 0.40347 0.95114 0.0
H130 H 0.91446 0.49914 0.00959 0.0
H131 H 0.92693 0.53544 0.97579 0.0
H132 H 0.89238 0.49071 0.96746 0.0
H133 H 0.10258 0.44082 0.98848 0.0
H134 H 0.08853 0.49616 0.99411 0.0
H135 H 0.07531 0.45828 0.02659 0.0
H136 H 0.02424 0.6229 0.02326 0.0
H137 H 0.99928 0.53167 0.10267 0.0
H138 H 0.99206 0.56335 0.95367 0.0
H139 H 0.04691 0.5491 0.95821 0.0
H140 H 0.03047 0.60349 0.96541 0.0
H141 H 0.95636 0.45196 0.04998 0.0
H142 H 0.98106 0.46059 0.09113 0.0
H143 H 0.0114 0.43928 0.05589 0.0
C144 C 0.46317 0.50179 0.57742 0.0
C145 C 0.42148 0.51176 0.56736 0.0
C146 C 0.49556 0.4963 0.55301 0.0
C147 C 0.48629 0.5026 0.51788 0.0
C148 C 0.44432 0.51354 0.5077 0.0
C149 C 0.41218 0.51714 0.53256 0.0
C150 C 0.53951 0.4832 0.56478 0.0
C151 C 0.43351 0.522 0.47064 0.0
C152 C 0.57966 0.52927 0.45979 0.0
C153 C 0.58507 0.49102 0.44179 0.0
C154 C 0.54722 0.53365 0.48427 0.0
C155 C 0.52065 0.49838 0.49182 0.0
C156 C 0.52676 0.45928 0.47431 0.0
C157 C 0.55841 0.45634 0.44895 0.0
C158 C 0.54081 0.57628 0.50149 0.0
C159 C 0.50005 0.42055 0.48247 0.0
H160 H 0.47015 0.49712 0.60435 0.0
H161 H 0.3799 0.52503 0.52488 0.0
H162 H 0.54946 0.45362 0.55138 0.0
H163 H 0.563 0.5083 0.55815 0.0
H164 H 0.54091 0.47751 0.59284 0.0
H165 H 0.39973 0.53175 0.46716 0.0
H166 H 0.4544 0.54756 0.46039 0.0
H167 H 0.43941 0.493 0.45512 0.0
H168 H 0.59997 0.55627 0.4539 0.0
H169 H 0.56277 0.42672 0.43508 0.0
H170 H 0.54513 0.57306 0.52955 0.0
H171 H 0.50774 0.58763 0.49709 0.0
H172 H 0.56334 0.60088 0.49192 0.0
H173 H 0.50193 0.41333 0.51026 0.0
H174 H 0.51041 0.39195 0.4679 0.0
H175 H 0.46611 0.42697 0.47642 0.0
C176 C 0.45627 0.94483 0.05793 0.0
C177 C 0.49123 0.91878 0.06563 0.0
C178 C 0.45931 0.97657 0.03264 0.0
C179 C 0.49875 0.98342 0.01579 0.0
C180 C 0.53432 0.95755 0.02399 0.0
C181 C 0.52987 0.92498 0.04836 0.0
C182 C 0.42028 0.00249 0.02374 0.0
C183 C 0.57727 0.96477 0.0075 0.0
C184 C 0.50304 0.04012 0.92988 0.0
C185 C 0.5119 0.08212 0.93977 0.0
C186 C 0.49766 0.00786 0.95441 0.0
C187 C 0.50292 0.01761 0.98957 0.0
C188 C 0.51274 0.0599 0.99961 0.0
C189 C 0.51628 0.09187 0.97458 0.0
C190 C 0.4858 0.96352 0.94275 0.0
C191 C 0.52005 0.07125 0.03672 0.0
H192 H 0.42635 0.93983 0.07125 0.0
H193 H 0.55706 0.90511 0.05468 0.0
H194 H 0.42597 0.03661 0.02958 0.0
H195 H 0.41369 1.00011 0.99588 0.0
H196 H 0.39157 0.9918 0.03802 0.0
H197 H 0.60211 0.94295 0.01772 0.0
H198 H 0.57496 0.96002 0.97943 0.0
H199 H 0.58771 0.99816 0.01181 0.0
H200 H 0.49912 0.03275 0.90293 0.0
H201 H 0.52332 0.12437 0.98215 0.0
H202 H 0.45612 0.95307 0.95576 0.0
H203 H 0.51123 0.94064 0.94994 0.0
H204 H 0.48085 0.96172 0.91462 0.0
H205 H 0.49081 0.06488 0.05183 0.0
H206 H 0.529 0.10527 0.04011 0.0
H207 H 0.54579 0.05101 0.04751 0.0
C208 C 0.96474 0.0048 0.42642 0.0
C209 C 0.92264 0.01244 0.43668 0.0
C210 C 0.99732 0.99951 0.45071 0.0
C211 C 0.98772 0.00356 0.486 0.0
C212 C 0.94532 0.01219 0.49641 0.0
C213 C 0.91309 0.01571 0.4716 0.0
C214 C 0.04182 0.98896 0.43864 0.0
C215 C 0.93407 0.01819 0.53369 0.0
C216 C 0.06126 0.95657 0.55366 0.0
C217 C 0.08644 0.99188 0.56211 0.0
C218 C 0.02973 0.95959 0.52821 0.0
C219 C 0.02214 0.99932 0.51201 0.0
C220 C 0.04721 0.0352 0.5209 0.0
C221 C 0.07965 0.0308 0.54539 0.0
C222 C 0.0047 0.92027 0.51855 0.0
C223 C 0.03913 0.07844 0.50515 0.0
H224 H 0.97199 0.00175 0.39938 0.0
H225 H 0.88051 0.02182 0.47948 0.0
H226 H 0.06423 0.01458 0.44631 0.0
H227 H 0.05293 0.95906 0.45097 0.0
H228 H 0.04356 0.98501 0.41041 0.0
H229 H 0.89993 0.02643 0.53739 0.0
H230 H 0.94105 0.98861 0.54821 0.0
H231 H 0.95393 0.04394 0.5449 0.0
H232 H 0.06673 0.92645 0.56657 0.0
H233 H 0.09883 0.05824 0.55232 0.0
H234 H 0.00696 0.91472 0.49055 0.0
H235 H 0.97051 0.92491 0.52473 0.0
H236 H 0.01622 0.89133 0.53212 0.0
H237 H 0.04363 0.07693 0.47702 0.0
H238 H 0.06065 0.10337 0.51564 0.0
H239 H 0.00563 0.0882 0.50986 0.0
C240 C 0.15804 0.7278 0.1189 0.0
C241 C 0.15242 0.69492 0.14288 0.0
C242 C 0.19728 0.7491 0.11585 0.0
C243 C 0.23165 0.73733 0.13737 0.0
C244 C 0.22663 0.70317 0.16074 0.0
C245 C 0.18714 0.68236 0.16317 0.0
C246 C 0.20148 0.78518 0.09048 0.0
C247 C 0.26251 0.68964 0.18414 0.0
C248 C 0.34573 0.77202 0.11934 0.0
C249 C 0.35064 0.80591 0.14247 0.0
C250 C 0.30672 0.75022 0.11649 0.0
C251 C 0.2719 0.76253 0.13735 0.0
C252 C 0.27623 0.79765 0.15983 0.0
C253 C 0.31546 0.81893 0.16207 0.0
C254 C 0.30319 0.71313 0.09203 0.0
C255 C 0.23987 0.81183 0.1825 0.0
H256 H 0.13147 0.73766 0.10301 0.0
H257 H 0.18321 0.65693 0.1817 0.0
H258 H 0.20559 0.81573 0.10441 0.0
H259 H 0.2302 0.78061 0.07431 0.0
H260 H 0.17313 0.78794 0.07357 0.0
H261 H 0.25432 0.66086 0.19938 0.0
H262 H 0.29168 0.68285 0.16903 0.0
H263 H 0.27027 0.71597 0.20207 0.0
H264 H 0.37267 0.76178 0.10403 0.0
H265 H 0.31882 0.84515 0.17994 0.0
H266 H 0.27481 0.71696 0.07535 0.0
H267 H 0.29888 0.68314 0.1067 0.0
H268 H 0.33192 0.70982 0.0756 0.0
H269 H 0.21101 0.8181 0.16687 0.0
H270 H 0.2477 0.84108 0.19725 0.0
H271 H 0.23178 0.78604 0.20085 0.0
C272 C 0.27579 0.65932 0.61881 0.0
C273 C 0.30852 0.65362 0.6429 0.0
C274 C 0.25487 0.69872 0.61546 0.0
C275 C 0.26686 0.73319 0.63679 0.0
C276 C 0.30095 0.72811 0.66021 0.0
C277 C 0.32138 0.68845 0.66295 0.0
C278 C 0.21885 0.70298 0.59004 0.0
C279 C 0.31473 0.76408 0.68341 0.0
C280 C 0.23234 0.84723 0.61821 0.0
C281 C 0.19834 0.85229 0.64123 0.0
C282 C 0.25418 0.8082 0.61562 0.0
C283 C 0.24182 0.77353 0.63664 0.0
C284 C 0.20667 0.77806 0.65908 0.0
C285 C 0.18534 0.81728 0.66104 0.0
C286 C 0.29129 0.80446 0.5912 0.0
C287 C 0.19245 0.74188 0.68193 0.0
H288 H 0.26572 0.63268 0.6031 0.0
H289 H 0.34673 0.68446 0.68155 0.0
H290 H 0.18829 0.70721 0.60393 0.0
H291 H 0.22355 0.73164 0.57381 0.0
H292 H 0.21604 0.67458 0.57319 0.0
H293 H 0.34354 0.75587 0.69859 0.0
H294 H 0.32154 0.79313 0.66816 0.0
H295 H 0.28851 0.77204 0.70139 0.0
H296 H 0.24257 0.87404 0.60274 0.0
H297 H 0.15906 0.82076 0.67883 0.0
H298 H 0.28735 0.77606 0.57456 0.0
H299 H 0.32124 0.80003 0.60589 0.0
H300 H 0.29475 0.83314 0.57472 0.0
H301 H 0.18597 0.71297 0.66643 0.0
H302 H 0.16331 0.74991 0.69676 0.0
H303 H 0.21829 0.73376 0.70022 0.0
C304 C 0.65849 0.22766 0.88663 0.0
C305 C 0.65259 0.19513 0.8624 0.0
C306 C 0.69785 0.24872 0.88972 0.0
C307 C 0.73204 0.23711 0.86798 0.0
C308 C 0.72674 0.2033 0.84434 0.0
C309 C 0.68714 0.18269 0.84189 0.0
C310 C 0.70238 0.28442 0.91539 0.0
C311 C 0.76241 0.18995 0.82067 0.0
C312 C 0.81595 0.31875 0.84354 0.0
C313 C 0.85123 0.30535 0.86285 0.0
C314 C 0.77666 0.29758 0.8458 0.0
C315 C 0.77238 0.26217 0.86802 0.0
C316 C 0.80732 0.24945 0.88859 0.0
C317 C 0.84639 0.27116 0.88573 0.0
C318 C 0.74017 0.31219 0.82343 0.0
C319 C 0.80387 0.21204 0.91276 0.0
H320 H 0.63206 0.2374 0.9027 0.0
H321 H 0.68299 0.15753 0.82316 0.0
H322 H 0.7312 0.2795 0.93138 0.0
H323 H 0.70648 0.31515 0.90171 0.0
H324 H 0.67416 0.28702 0.93246 0.0
H325 H 0.754 0.16141 0.80524 0.0
H326 H 0.77013 0.21649 0.80293 0.0
H327 H 0.79165 0.18285 0.8356 0.0
H328 H 0.81925 0.3452 0.82587 0.0
H329 H 0.87342 0.26062 0.90081 0.0
H330 H 0.71146 0.31838 0.83926 0.0
H331 H 0.73183 0.28668 0.80493 0.0
H332 H 0.74799 0.3416 0.80887 0.0
H333 H 0.77562 0.21573 0.9296 0.0
H334 H 0.8327 0.20842 0.92902 0.0
H335 H 0.79935 0.18227 0.89786 0.0
C336 C 0.68393 0.31634 0.34366 0.0
C337 C 0.69736 0.35153 0.36305 0.0
C338 C 0.70529 0.27713 0.3456 0.0
C339 C 0.74095 0.27284 0.36755 0.0
C340 C 0.75373 0.30769 0.38818 0.0
C341 C 0.73182 0.34667 0.38565 0.0
C342 C 0.69059 0.24073 0.32318 0.0
C343 C 0.79141 0.30422 0.41207 0.0
C344 C 0.77602 0.15897 0.38558 0.0
C345 C 0.8083 0.15329 0.36109 0.0
C346 C 0.75486 0.19825 0.38893 0.0
C347 C 0.76614 0.23259 0.36721 0.0
C348 C 0.79973 0.22752 0.34334 0.0
C349 C 0.82043 0.188 0.34061 0.0
C350 C 0.71941 0.20251 0.41485 0.0
C351 C 0.81272 0.26336 0.31969 0.0
H352 H 0.65727 0.31966 0.3262 0.0
H353 H 0.74239 0.37363 0.40079 0.0
H354 H 0.71596 0.23258 0.30449 0.0
H355 H 0.68466 0.2119 0.33894 0.0
H356 H 0.66102 0.24854 0.30884 0.0
H357 H 0.79514 0.33299 0.42839 0.0
H358 H 0.78797 0.27589 0.42887 0.0
H359 H 0.82104 0.29983 0.39696 0.0
H360 H 0.76651 0.13242 0.40162 0.0
H361 H 0.84539 0.18402 0.32169 0.0
H362 H 0.68852 0.20655 0.40138 0.0
H363 H 0.72436 0.23128 0.43089 0.0
H364 H 0.71709 0.1742 0.43186 0.0
H365 H 0.78598 0.27107 0.30213 0.0
H366 H 0.84115 0.25515 0.30406 0.0
H367 H 0.81983 0.29256 0.33466 0.0
C368 C 0.79816 0.55008 0.32303 0.0
C369 C 0.77081 0.51729 0.31238 0.0
C370 C 0.83222 0.56351 0.30241 0.0
C371 C 0.83949 0.54326 0.27056 0.0
C372 C 0.81259 0.5095 0.25996 0.0
C373 C 0.77835 0.4971 0.2809 0.0
C374 C 0.85991 0.59996 0.31444 0.0
C375 C 0.81976 0.48678 0.22637 0.0
C376 C 0.9012 0.60702 0.20444 0.0
C377 C 0.94279 0.59166 0.20914 0.0
C378 C 0.86711 0.59093 0.2238 0.0
C379 C 0.87471 0.55829 0.24809 0.0
C380 C 0.91635 0.54162 0.25212 0.0
C381 C 0.94997 0.55872 0.23277 0.0
C382 C 0.82322 0.60985 0.21903 0.0
C383 C 0.92556 0.5064 0.27743 0.0
H384 H 0.79244 0.56599 0.34723 0.0
H385 H 0.75746 0.4716 0.27258 0.0
H386 H 0.8937 0.58963 0.3158 0.0
H387 H 0.85822 0.62663 0.29581 0.0
H388 H 0.85021 0.61206 0.34001 0.0
H389 H 0.79714 0.45994 0.22255 0.0
H390 H 0.81605 0.50955 0.20484 0.0
H391 H 0.85279 0.47418 0.22522 0.0
H392 H 0.89542 0.63256 0.18632 0.0
H393 H 0.98198 0.54649 0.23636 0.0
H394 H 0.81277 0.62534 0.24316 0.0
H395 H 0.79982 0.58437 0.21312 0.0
H396 H 0.82232 0.63391 0.19816 0.0
H397 H 0.91971 0.51798 0.30385 0.0
H398 H 0.959 0.4949 0.27575 0.0
H399 H 0.90379 0.47907 0.27299 0.0
C400 C 0.44243 0.4509 0.73451 0.0
C401 C 0.40882 0.44372 0.71151 0.0
C402 C 0.45959 0.41744 0.75402 0.0
C403 C 0.44228 0.37595 0.75083 0.0
C404 C 0.40876 0.36837 0.72731 0.0
C405 C 0.39265 0.4023 0.70774 0.0
C406 C 0.49577 0.42661 0.77844 0.0
C407 C 0.38913 0.32466 0.72347 0.0
C408 C 0.50437 0.27944 0.78221 0.0
C409 C 0.4856 0.2721 0.81429 0.0
C410 C 0.4912 0.31364 0.76153 0.0
C411 C 0.45807 0.34076 0.77302 0.0
C412 C 0.43929 0.33376 0.8055 0.0
C413 C 0.45348 0.29971 0.82584 0.0
C414 C 0.51239 0.32048 0.72725 0.0
C415 C 0.40357 0.36172 0.81849 0.0
H416 H 0.45528 0.48278 0.73739 0.0
H417 H 0.36655 0.39654 0.69014 0.0
H418 H 0.48524 0.42074 0.80514 0.0
H419 H 0.52288 0.40481 0.77329 0.0
H420 H 0.50725 0.46003 0.77646 0.0
H421 H 0.36398 0.32385 0.70345 0.0
H422 H 0.41404 0.30097 0.71681 0.0
H423 H 0.37485 0.31455 0.74817 0.0
H424 H 0.52933 0.25836 0.77317 0.0
H425 H 0.43866 0.29414 0.85051 0.0
H426 H 0.52507 0.35344 0.72556 0.0
H427 H 0.48863 0.31673 0.70643 0.0
H428 H 0.53893 0.29772 0.72274 0.0
H429 H 0.41409 0.39547 0.81933 0.0
H430 H 0.39266 0.35227 0.84447 0.0
H431 H 0.37603 0.35999 0.80071 0.0
C432 C 0.54988 0.94404 0.23501 0.0
C433 C 0.5576 0.91061 0.21196 0.0
C434 C 0.58307 0.96147 0.25469 0.0
C435 C 0.62477 0.94464 0.25159 0.0
C436 C 0.63283 0.91125 0.22808 0.0
C437 C 0.59922 0.89485 0.2084 0.0
C438 C 0.57341 0.99748 0.27914 0.0
C439 C 0.67679 0.89212 0.22431 0.0
C440 C 0.72157 0.00675 0.28216 0.0
C441 C 0.72964 0.98759 0.31398 0.0
C442 C 0.68679 0.99396 0.26198 0.0
C443 C 0.65983 0.96083 0.2737 0.0
C444 C 0.66741 0.94186 0.30603 0.0
C445 C 0.70205 0.95566 0.32587 0.0
C446 C 0.67936 0.01534 0.22785 0.0
C447 C 0.63964 0.90611 0.31925 0.0
H448 H 0.51784 0.95653 0.23777 0.0
H449 H 0.60543 0.86889 0.19077 0.0
H450 H 0.57951 0.98702 0.30583 0.0
H451 H 0.5948 0.02491 0.27396 0.0
H452 H 0.53981 0.00845 0.27722 0.0
H453 H 0.6779 0.86682 0.20442 0.0
H454 H 0.70015 0.91727 0.21747 0.0
H455 H 0.68713 0.87817 0.24907 0.0
H456 H 0.74261 0.03162 0.27288 0.0
H457 H 0.70815 0.94058 0.35037 0.0
H458 H 0.64616 0.0274 0.2263 0.0
H459 H 0.68352 0.99183 0.2069 0.0
H460 H 0.7016 0.04235 0.22342 0.0
H461 H 0.60581 0.91637 0.31993 0.0
H462 H 0.64909 0.89556 0.34533 0.0
H463 H 0.64166 0.87838 0.30168 0.0
C464 C 0.04788 0.20218 0.82277 0.0
C465 C 0.01557 0.22999 0.81189 0.0
C466 C 0.06096 0.16787 0.8023 0.0
C467 C 0.04086 0.16082 0.77035 0.0
C468 C 0.00739 0.18802 0.75962 0.0
C469 C 0.99533 0.22249 0.78043 0.0
C470 C 0.09709 0.13985 0.81447 0.0
C471 C 0.98485 0.18112 0.72591 0.0
C472 C 0.10564 0.10071 0.70406 0.0
C473 C 0.09041 0.05895 0.70802 0.0
C474 C 0.08917 0.1343 0.72372 0.0
C475 C 0.05628 0.12604 0.74763 0.0
C476 C 0.03976 0.08424 0.75097 0.0
C477 C 0.05723 0.0511 0.73128 0.0
C478 C 0.10795 0.17837 0.71967 0.0
C479 C 0.00429 0.07437 0.77587 0.0
H480 H 0.06379 0.20782 0.84699 0.0
H481 H 0.97016 0.24369 0.77194 0.0
H482 H 0.08674 0.10604 0.81519 0.0
H483 H 0.12417 0.14196 0.79626 0.0
H484 H 0.10864 0.14898 0.84035 0.0
H485 H 0.95776 0.20349 0.72227 0.0
H486 H 0.00766 0.18551 0.70449 0.0
H487 H 0.97266 0.14797 0.72434 0.0
H488 H 0.13136 0.10705 0.68623 0.0
H489 H 0.04513 0.01895 0.73433 0.0
H490 H 0.12297 0.18847 0.74408 0.0
H491 H 0.08245 0.20174 0.71373 0.0
H492 H 0.13236 0.17977 0.69909 0.0
H493 H 0.01554 0.07974 0.80246 0.0
H494 H 0.99297 0.04092 0.77366 0.0
H495 H 0.97692 0.09612 0.7715 0.0
C496 C 0.05028 0.44489 0.77115 0.0
C497 C 0.05794 0.41064 0.79343 0.0
C498 C 0.08335 0.46251 0.75146 0.0
C499 C 0.12487 0.44501 0.75372 0.0
C500 C 0.13288 0.41077 0.77646 0.0
C501 C 0.0994 0.39422 0.79621 0.0
C502 C 0.07376 0.49945 0.72788 0.0
C503 C 0.17661 0.39089 0.7793 0.0
C504 C 0.20089 0.45709 0.67872 0.0
C505 C 0.22923 0.4882 0.69087 0.0
C506 C 0.16638 0.44326 0.69871 0.0
C507 C 0.15972 0.46137 0.73148 0.0
C508 C 0.18743 0.49371 0.74348 0.0
C509 C 0.22203 0.50656 0.72312 0.0
C510 C 0.13778 0.4084 0.68515 0.0
C511 C 0.18101 0.51413 0.7781 0.0
H512 H 0.01836 0.45789 0.76903 0.0
H513 H 0.10555 0.36761 0.81324 0.0
H514 H 0.09569 0.52637 0.73332 0.0
H515 H 0.07914 0.48976 0.7009 0.0
H516 H 0.04039 0.51088 0.73048 0.0
H517 H 0.17773 0.36497 0.79867 0.0
H518 H 0.18625 0.37755 0.75415 0.0
H519 H 0.20048 0.41547 0.78631 0.0
H520 H 0.20628 0.44264 0.65389 0.0
H521 H 0.24365 0.53079 0.73262 0.0
H522 H 0.1041 0.4192 0.68512 0.0
H523 H 0.13971 0.38009 0.70213 0.0
H524 H 0.14652 0.39854 0.65875 0.0
H525 H 0.14802 0.52659 0.78034 0.0
H526 H 0.20372 0.54069 0.78275 0.0
H527 H 0.18528 0.48993 0.79854 0.0
C528 C 0.55629 0.55093 0.27325 0.0
C529 C 0.59022 0.55846 0.29585 0.0
C530 C 0.53881 0.58416 0.25364 0.0
C531 C 0.55614 0.62571 0.25635 0.0
C532 C 0.58991 0.63363 0.27954 0.0
C533 C 0.60633 0.59998 0.29917 0.0
C534 C 0.50238 0.57468 0.22955 0.0
C535 C 0.60959 0.6774 0.28286 0.0
C536 C 0.54643 0.70171 0.18117 0.0
C537 C 0.51499 0.7301 0.19268 0.0
C538 C 0.55957 0.6672 0.20142 0.0
C539 C 0.54047 0.66059 0.23383 0.0
C540 C 0.50785 0.68838 0.24521 0.0
C541 C 0.49566 0.72299 0.22458 0.0
C542 C 0.59476 0.63849 0.18853 0.0
C543 C 0.48639 0.68201 0.27943 0.0
H544 H 0.54352 0.51897 0.27071 0.0
H545 H 0.63267 0.60605 0.31647 0.0
H546 H 0.47546 0.5968 0.23447 0.0
H547 H 0.51277 0.57982 0.20271 0.0
H548 H 0.4907 0.54139 0.2321 0.0
H549 H 0.63482 0.67852 0.30281 0.0
H550 H 0.6238 0.68708 0.25803 0.0
H551 H 0.58474 0.70123 0.28933 0.0
H552 H 0.56161 0.707 0.1566 0.0
H553 H 0.47118 0.74465 0.23357 0.0
H554 H 0.58384 0.60486 0.18824 0.0
H555 H 0.62254 0.64029 0.20606 0.0
H556 H 0.60547 0.64725 0.16234 0.0
H557 H 0.47379 0.64905 0.28143 0.0
H558 H 0.45977 0.70479 0.28358 0.0
H559 H 0.51 0.6862 0.30032 0.0
C560 C 0.40111 0.10791 0.80078 0.0
C561 C 0.44268 0.09246 0.79619 0.0
C562 C 0.36705 0.09189 0.78136 0.0
C563 C 0.37466 0.05924 0.75709 0.0
C564 C 0.41628 0.04247 0.75318 0.0
C565 C 0.44986 0.05949 0.77261 0.0
C566 C 0.32318 0.1109 0.786 0.0
C567 C 0.42551 0.00724 0.7279 0.0
C568 C 0.27849 0.9981 0.7239 0.0
C569 C 0.27119 0.01826 0.69236 0.0
C570 C 0.31256 0.01053 0.74501 0.0
C571 C 0.33952 0.0443 0.73452 0.0
C572 C 0.33247 0.06455 0.70262 0.0
C573 C 0.29858 0.05109 0.68184 0.0
C574 C 0.31948 0.98782 0.77864 0.0
C575 C 0.36025 0.101 0.6907 0.0
H576 H 0.39532 0.13348 0.81886 0.0
H577 H 0.48186 0.04719 0.7691 0.0
H578 H 0.31289 0.12648 0.76185 0.0
H579 H 0.29969 0.08547 0.7918 0.0
H580 H 0.32224 0.13491 0.8069 0.0
H581 H 0.45892 0.99566 0.72969 0.0
H582 H 0.40366 0.97996 0.73229 0.0
H583 H 0.41981 0.01885 0.70146 0.0
H584 H 0.25756 0.97258 0.73213 0.0
H585 H 0.29304 0.06699 0.65759 0.0
H586 H 0.31577 0.01062 0.80015 0.0
H587 H 0.35246 0.9751 0.77991 0.0
H588 H 0.29675 0.96107 0.78243 0.0
H589 H 0.35851 0.12763 0.70935 0.0
H590 H 0.35066 0.11317 0.66511 0.0
H591 H 0.39402 0.09063 0.68942 0.0
C592 C 0.00564 0.78012 0.22166 0.0
C593 C 0.98544 0.77146 0.19037 0.0
C594 C 0.99266 0.81454 0.24216 0.0
C595 C 0.95823 0.84044 0.23135 0.0
C596 C 0.93796 0.83206 0.19966 0.0
C597 C 0.95203 0.79788 0.17944 0.0
C598 C 0.01548 0.82292 0.27552 0.0
C599 C 0.90078 0.85865 0.18745 0.0
C600 C 0.89455 0.90198 0.29766 0.0
C601 C 0.90935 0.94372 0.29264 0.0
C602 C 0.91061 0.86797 0.2782 0.0
C603 C 0.94265 0.8758 0.25344 0.0
C604 C 0.9586 0.91764 0.24894 0.0
C605 C 0.94156 0.95116 0.26843 0.0
C606 C 0.89249 0.82384 0.28351 0.0
C607 C 0.99317 0.92712 0.22312 0.0
H608 H 0.03163 0.75995 0.23018 0.0
H609 H 0.9361 0.79123 0.15539 0.0
H610 H 0.02733 0.85625 0.27617 0.0
H611 H 0.99299 0.81914 0.29723 0.0
H612 H 0.04287 0.80101 0.27951 0.0
H613 H 0.88875 0.84817 0.16206 0.0
H614 H 0.87429 0.85666 0.20622 0.0
H615 H 0.91028 0.89264 0.18565 0.0
H616 H 0.86956 0.89599 0.31623 0.0
H617 H 0.95336 0.98328 0.26455 0.0
H618 H 0.9184 0.80105 0.28971 0.0
H619 H 0.87719 0.81263 0.25952 0.0
H620 H 0.86847 0.8229 0.30441 0.0
H621 H 0.02113 0.9062 0.22768 0.0
H622 H 0.0038 0.96088 0.22412 0.0
H623 H 0.98137 0.92025 0.19692 0.0
loop_
_geom_bond_atom_site_label_1
_geom_bond_atom_site_label_2
_geom_bond_distance
_geom_bond_site_symmetry_2
_ccdc_geom_bond_type
C0 O2 1.247 . S
C0 O4 1.258 . S
C1 O8 1.247 . S
C1 O9 1.258 . S
O2 C0 1.247 . S
O2 Zn3 2.028 . S
Zn3 O2 2.028 . S
Zn3 O7 2.035 . S
Zn3 O9 2.035 1_455 S
Zn3 O10 2.028 . S
O4 C0 1.258 . S
O4 Zn5 2.035 1_455 S
Zn5 O4 2.035 1_655 S
Zn5 O6 2.028 . S
Zn5 O8 2.028 . S
Zn5 O11 2.035 . S
O6 Zn5 2.028 . S
O6 C12 1.247 . S
O7 Zn3 2.035 . S
O7 C12 1.258 1_455 S
O8 C1 1.247 . S
O8 Zn5 2.028 . S
O9 C1 1.258 . S
O9 Zn3 2.035 1_655 S
O10 Zn3 2.028 . S
O10 C13 1.247 . S
O11 Zn5 2.035 . S
O11 C13 1.258 1_655 S
C12 O6 1.247 . S
C12 O7 1.258 1_655 S
C13 O10 1.247 . S
C13 O11 1.258 1_455 S
C14 O16 1.247 . S
C14 O18 1.258 . S
C15 O22 1.247 . S
C15 O23 1.258 . S
O16 C14 1.247 . S
O16 Zn17 2.028 . S
Zn17 O16 2.028 . S
Zn17 O21 2.035 . S
Zn17 O23 2.035 . S
Zn17 O24 2.028 . S
O18 C14 1.258 . S
O18 Zn19 2.035 . S
Zn19 O18 2.035 . S
Zn19 O20 2.028 . S
Zn19 O22 2.028 . S
Zn19 O25 2.035 . S
O20 Zn19 2.028 . S
O20 C26 1.247 . S
O21 Zn17 2.035 . S
O21 C26 1.258 . S
O22 C15 1.247 . S
O22 Zn19 2.028 . S
O23 C15 1.258 . S
O23 Zn17 2.035 . S
O24 Zn17 2.028 . S
O24 C27 1.247 . S
O25 Zn19 2.035 . S
O25 C27 1.258 . S
C26 O20 1.247 . S
C26 O21 1.258 . S
C27 O24 1.247 . S
C27 O25 1.258 . S
C28 O30 1.247 . S
C28 O32 1.258 . S
C29 O36 1.247 . S
C29 O37 1.258 . S
O30 C28 1.247 . S
O30 Zn31 2.028 . S
Zn31 O30 2.028 . S
Zn31 O35 2.035 . S
Zn31 O37 2.035 . S
Zn31 O38 2.028 . S
O32 C28 1.258 . S
O32 Zn33 2.035 . S
Zn33 O32 2.035 . S
Zn33 O34 2.028 . S
Zn33 O36 2.028 . S
Zn33 O39 2.035 . S
O34 Zn33 2.028 . S
O34 C40 1.247 . S
O35 Zn31 2.035 . S
O35 C40 1.258 . S
O36 C29 1.247 . S
O36 Zn33 2.028 . S
O37 C29 1.258 . S
O37 Zn31 2.035 . S
O38 Zn31 2.028 . S
O38 C41 1.247 . S
O39 Zn33 2.035 . S
O39 C41 1.258 . S
C40 O34 1.247 . S
C40 O35 1.258 . S
C41 O38 1.247 . S
C41 O39 1.258 . S
C42 O44 1.247 1_565 S
C42 O46 1.258 . S
C43 O50 1.247 1_545 S
C43 O51 1.258 . S
O44 C42 1.247 1_545 S
O44 Zn45 2.028 . S
Zn45 O44 2.028 . S
Zn45 O49 2.035 . S
Zn45 O51 2.035 . S
Zn45 O52 2.028 1_545 S
O46 C42 1.258 . S
O46 Zn47 2.035 . S
Zn47 O46 2.035 . S
Zn47 O48 2.028 1_565 S
Zn47 O50 2.028 . S
Zn47 O53 2.035 . S
O48 Zn47 2.028 1_545 S
O48 C54 1.247 . S
O49 Zn45 2.035 . S
O49 C54 1.258 . S
O50 C43 1.247 1_565 S
O50 Zn47 2.028 . S
O51 C43 1.258 . S
O51 Zn45 2.035 . S
O52 Zn45 2.028 1_565 S
O52 C55 1.247 . S
O53 Zn47 2.035 . S
O53 C55 1.258 . S
C54 O48 1.247 . S
C54 O49 1.258 . S
C55 O52 1.247 . S
C55 O53 1.258 . S
C56 O58 1.247 . S
C56 O60 1.258 . S
C57 O64 1.247 . S
C57 O65 1.258 . S
O58 C56 1.247 . S
O58 Zn59 2.028 . S
Zn59 O58 2.028 . S
Zn59 O63 2.035 . S
Zn59 O65 2.035 1_455 S
Zn59 O66 2.028 . S
O60 C56 1.258 . S
O60 Zn61 2.035 1_455 S
Zn61 O60 2.035 1_655 S
Zn61 O62 2.028 . S
Zn61 O64 2.028 . S
Zn61 O67 2.035 . S
O62 Zn61 2.028 . S
O62 C68 1.247 . S
O63 Zn59 2.035 . S
O63 C68 1.258 1_455 S
O64 C57 1.247 . S
O64 Zn61 2.028 . S
O65 C57 1.258 . S
O65 Zn59 2.035 1_655 S
O66 Zn59 2.028 . S
O66 C69 1.247 . S
O67 Zn61 2.035 . S
O67 C69 1.258 1_655 S
C68 O62 1.247 . S
C68 O63 1.258 1_655 S
C69 O66 1.247 . S
C69 O67 1.258 1_455 S
C70 O72 1.247 . S
C70 O74 1.258 . S
C71 O78 1.247 . S
C71 O79 1.258 . S
O72 C70 1.247 . S
O72 Zn73 2.028 . S
Zn73 O72 2.028 . S
Zn73 O77 2.035 . S
Zn73 O79 2.035 . S
Zn73 O80 2.028 . S
O74 C70 1.258 . S
O74 Zn75 2.035 . S
Zn75 O74 2.035 . S
Zn75 O76 2.028 . S
Zn75 O78 2.028 . S
Zn75 O81 2.035 . S
O76 Zn75 2.028 . S
O76 C82 1.247 . S
O77 Zn73 2.035 . S
O77 C82 1.258 . S
O78 C71 1.247 . S
O78 Zn75 2.028 . S
O79 C71 1.258 . S
O79 Zn73 2.035 . S
O80 Zn73 2.028 . S
O80 C83 1.247 . S
O81 Zn75 2.035 . S
O81 C83 1.258 . S
C82 O76 1.247 . S
C82 O77 1.258 . S
C83 O80 1.247 . S
C83 O81 1.258 . S
C84 O86 1.247 . S
C84 O88 1.258 . S
C85 O92 1.247 . S
C85 O93 1.258 . S
O86 C84 1.247 . S
O86 Zn87 2.028 . S
Zn87 O86 2.028 . S
Zn87 O91 2.035 . S
Zn87 O93 2.035 . S
Zn87 O94 2.028 . S
O88 C84 1.258 . S
O88 Zn89 2.035 . S
Zn89 O88 2.035 . S
Zn89 O90 2.028 . S
Zn89 O92 2.028 . S
Zn89 O95 2.035 . S
O90 Zn89 2.028 . S
O90 C96 1.247 . S
O91 Zn87 2.035 . S
O91 C96 1.258 . S
O92 C85 1.247 . S
O92 Zn89 2.028 . S
O93 C85 1.258 . S
O93 Zn87 2.035 . S
O94 Zn87 2.028 . S
O94 C97 1.247 . S
O95 Zn89 2.035 . S
O95 C97 1.258 . S
C96 O90 1.247 . S
C96 O91 1.258 . S
C97 O94 1.247 . S
C97 O95 1.258 . S
C98 O100 1.247 . S
C98 O102 1.258 1_545 S
C99 O106 1.247 . S
C99 O107 1.258 1_565 S
O100 C98 1.247 . S
O100 Zn101 2.028 . S
Zn101 O100 2.028 . S
Zn101 O105 2.035 1_545 S
Zn101 O107 2.035 . S
Zn101 O108 2.028 . S
O102 C98 1.258 1_565 S
O102 Zn103 2.035 . S
Zn103 O102 2.035 . S
Zn103 O104 2.028 . S
Zn103 O106 2.028 . S
Zn103 O109 2.035 1_565 S
O104 Zn103 2.028 . S
O104 C110 1.247 . S
O105 Zn101 2.035 1_565 S
O105 C110 1.258 . S
O106 C99 1.247 . S
O106 Zn103 2.028 . S
O107 C99 1.258 1_545 S
O107 Zn101 2.035 . S
O108 Zn101 2.028 . S
O108 C111 1.247 . S
O109 Zn103 2.035 1_545 S
O109 C111 1.258 . S
C110 O104 1.247 . S
C110 O105 1.258 . S
C111 O108 1.247 . S
C111 O109 1.258 . S
C112 C113 1.391 . S
C112 C114 1.394 . S
C112 H128 0.931 . S
C113 C112 1.391 . S
C113 C117 1.376 1_655 S
C114 C112 1.394 . S
C114 C115 1.369 . S
C114 C118 1.531 1_556 S
C115 C114 1.369 . S
C115 C116 1.410 1_655 S
C115 C123 1.503 1_656 S
C116 C115 1.410 1_455 S
C116 C117 1.392 . S
C116 C119 1.511 . S
C117 C113 1.376 1_455 S
C117 C116 1.392 . S
C117 H129 0.929 . S
C118 C114 1.531 1_554 S
C118 H130 0.960 . S
C118 H131 0.962 1_554 S
C118 H132 0.960 . S
C119 C116 1.511 . S
C119 H133 0.961 . S
C119 H134 0.961 . S
C119 H135 0.961 . S
C120 C121 1.370 . S
C120 C122 1.363 . S
C120 H136 0.931 . S
C121 C120 1.370 . S
C121 C125 1.408 . S
C122 C120 1.363 . S
C122 C123 1.370 . S
C122 C126 1.524 1_454 S
C123 C115 1.503 1_454 S
C123 C122 1.370 . S
C123 C124 1.403 . S
C124 C123 1.403 . S
C124 C125 1.404 . S
C124 C127 1.539 . S
C125 C121 1.408 . S
C125 C124 1.404 . S
C125 H137 0.930 . S
C126 C122 1.524 1_656 S
C126 H138 0.956 . S
C126 H139 0.961 1_655 S
C126 H140 0.961 1_655 S
C127 C124 1.539 . S
C127 H141 0.958 1_455 S
C127 H142 0.961 . S
C127 H143 0.960 . S
H128 C112 0.931 . S
H129 C117 0.929 . S
H130 C118 0.960 . S
H131 C118 0.962 1_556 S
H132 C118 0.960 . S
H133 C119 0.961 . S
H134 C119 0.961 . S
H135 C119 0.961 . S
H136 C120 0.931 . S
H137 C125 0.930 . S
H138 C126 0.956 . S
H139 C126 0.961 1_455 S
H140 C126 0.961 1_455 S
H141 C127 0.958 1_655 S
H142 C127 0.961 . S
H143 C127 0.960 . S
C144 C145 1.391 . S
C144 C146 1.394 . S
C144 H160 0.931 . S
C145 C144 1.391 . S
C145 C149 1.376 . S
C146 C144 1.394 . S
C146 C147 1.369 . S
C146 C150 1.531 . S
C147 C146 1.369 . S
C147 C148 1.410 . S
C147 C155 1.503 . S
C148 C147 1.410 . S
C148 C149 1.392 . S
C148 C151 1.511 . S
C149 C145 1.376 . S
C149 C148 1.392 . S
C149 H161 0.929 . S
C150 C146 1.531 . S
C150 H162 0.960 . S
C150 H163 0.962 . S
C150 H164 0.960 . S
C151 C148 1.511 . S
C151 H165 0.961 . S
C151 H166 0.961 . S
C151 H167 0.961 . S
C152 C153 1.370 . S
C152 C154 1.363 . S
C152 H168 0.931 . S
C153 C152 1.370 . S
C153 C157 1.408 . S
C154 C152 1.363 . S
C154 C155 1.370 . S
C154 C158 1.524 . S
C155 C147 1.503 . S
C155 C154 1.370 . S
C155 C156 1.403 . S
C156 C155 1.403 . S
C156 C157 1.404 . S
C156 C159 1.539 . S
C157 C153 1.408 . S
C157 C156 1.404 . S
C157 H169 0.930 . S
C158 C154 1.524 . S
C158 H170 0.956 . S
C158 H171 0.961 . S
C158 H172 0.961 . S
C159 C156 1.539 . S
C159 H173 0.958 . S
C159 H174 0.961 . S
C159 H175 0.960 . S
H160 C144 0.931 . S
H161 C149 0.929 . S
H162 C150 0.960 . S
H163 C150 0.962 . S
H164 C150 0.960 . S
H165 C151 0.961 . S
H166 C151 0.961 . S
H167 C151 0.961 . S
H168 C152 0.931 . S
H169 C157 0.930 . S
H170 C158 0.956 . S
H171 C158 0.961 . S
H172 C158 0.961 . S
H173 C159 0.958 . S
H174 C159 0.961 . S
H175 C159 0.960 . S
C176 C177 1.391 . S
C176 C178 1.394 . S
C176 H192 0.931 . S
C177 C176 1.391 . S
C177 C181 1.376 . S
C178 C176 1.394 . S
C178 C179 1.369 . S
C178 C182 1.531 1_554 S
C179 C178 1.369 . S
C179 C180 1.410 . S
C179 C187 1.503 1_564 S
C180 C179 1.410 . S
C180 C181 1.392 . S
C180 C183 1.517 . S
C181 C177 1.376 . S
C181 C180 1.392 . S
C181 H193 0.929 . S
C182 C178 1.531 1_556 S
C182 H194 0.960 1_565 S
C182 H195 0.962 . S
C182 H196 0.960 1_556 S
C183 C180 1.517 . S
C183 H197 0.970 . S
C183 H198 0.958 1_565 S
C183 H199 0.949 1_565 S
C184 C185 1.370 . S
C184 C186 1.363 . S
C184 H200 0.931 . S
C185 C184 1.370 . S
C185 C189 1.408 . S
C186 C184 1.363 . S
C186 C187 1.370 . S
C186 C190 1.524 1_545 S
C187 C179 1.503 1_546 S
C187 C186 1.370 . S
C187 C188 1.403 . S
C188 C187 1.403 . S
C188 C189 1.404 . S
C188 C191 1.539 1_556 S
C189 C185 1.408 . S
C189 C188 1.404 . S
C189 H201 0.930 . S
C190 C186 1.524 1_565 S
C190 H202 0.956 . S
C190 H203 0.961 . S
C190 H204 0.961 . S
C191 C188 1.539 1_554 S
C191 H205 0.958 . S
C191 H206 0.961 . S
C191 H207 0.960 . S
H192 C176 0.931 . S
H193 C181 0.929 . S
H194 C182 0.960 1_545 S
H195 C182 0.962 . S
H196 C182 0.960 1_554 S
H197 C183 0.970 . S
H198 C183 0.958 1_545 S
H199 C183 0.949 1_545 S
H200 C184 0.931 . S
H201 C189 0.930 . S
H202 C190 0.956 . S
H203 C190 0.961 . S
H204 C190 0.961 . S
H205 C191 0.958 . S
H206 C191 0.961 . S
H207 C191 0.960 . S
C208 C209 1.391 . S
C208 C210 1.394 . S
C208 H224 0.931 . S
C209 C208 1.391 . S
C209 C213 1.376 . S
C210 C208 1.394 . S
C210 C211 1.369 . S
C210 C214 1.531 1_655 S
C211 C210 1.369 . S
C211 C212 1.410 . S
C211 C219 1.503 1_655 S
C212 C211 1.410 . S
C212 C213 1.392 . S
C212 C215 1.511 1_545 S
C213 C209 1.376 . S
C213 C212 1.392 . S
C213 H225 0.929 1_545 S
C214 C210 1.531 1_455 S
C214 H226 0.960 . S
C214 H227 0.962 . S
C214 H228 0.960 . S
C215 C212 1.511 1_565 S
C215 H229 0.961 . S
C215 H230 0.961 . S
C215 H231 0.961 1_565 S
C216 C217 1.370 . S
C216 C218 1.363 . S
C216 H232 0.931 . S
C217 C216 1.370 . S
C217 C221 1.408 1_565 S
C218 C216 1.363 . S
C218 C219 1.370 1_565 S
C218 C222 1.524 . S
C219 C211 1.503 1_455 S
C219 C218 1.370 1_545 S
C219 C220 1.403 . S
C220 C219 1.403 . S
C220 C221 1.404 . S
C220 C223 1.540 . S
C221 C217 1.408 1_545 S
C221 C220 1.404 . S
C221 H233 0.930 . S
C222 C218 1.524 . S
C222 H234 0.956 . S
C222 H235 0.961 1_455 S
C222 H236 0.961 . S
C223 C220 1.540 . S
C223 H237 0.959 . S
C223 H238 0.961 1_455 S
C223 H239 0.958 1_455 S
H224 C208 0.931 . S
H225 C213 0.929 1_565 S
H226 C214 0.960 . S
H227 C214 0.962 . S
H228 C214 0.960 . S
H229 C215 0.961 . S
H230 C215 0.961 . S
H231 C215 0.961 1_545 S
H232 C216 0.931 . S
H233 C221 0.930 . S
H234 C222 0.956 . S
H235 C222 0.961 1_655 S
H236 C222 0.961 . S
H237 C223 0.959 . S
H238 C223 0.961 1_655 S
H239 C223 0.958 1_655 S
C240 C241 1.391 . S
C240 C242 1.394 . S
C240 H256 0.931 . S
C241 C240 1.391 . S
C241 C245 1.376 . S
C242 C240 1.394 . S
C242 C243 1.369 . S
C242 C246 1.531 . S
C243 C242 1.369 . S
C243 C244 1.410 . S
C243 C251 1.503 . S
C244 C243 1.410 . S
C244 C245 1.392 . S
C244 C247 1.511 . S
C245 C241 1.376 . S
C245 C244 1.392 . S
C245 H257 0.929 . S
C246 C242 1.531 . S
C246 H258 0.960 . S
C246 H259 0.962 . S
C246 H260 0.960 . S
C247 C244 1.511 . S
C247 H261 0.961 . S
C247 H262 0.961 . S
C247 H263 0.961 . S
C248 C249 1.370 . S
C248 C250 1.363 . S
C248 H264 0.931 . S
C249 C248 1.370 . S
C249 C253 1.408 . S
C250 C248 1.363 . S
C250 C251 1.370 . S
C250 C254 1.524 . S
C251 C243 1.503 . S
C251 C250 1.370 . S
C251 C252 1.403 . S
C252 C251 1.403 . S
C252 C253 1.404 . S
C252 C255 1.539 . S
C253 C249 1.408 . S
C253 C252 1.404 . S
C253 H265 0.930 . S
C254 C250 1.524 . S
C254 H266 0.956 . S
C254 H267 0.961 . S
C254 H268 0.961 . S
C255 C252 1.539 . S
C255 H269 0.958 . S
C255 H270 0.961 . S
C255 H271 0.960 . S
H256 C240 0.931 . S
H257 C245 0.929 . S
H258 C246 0.960 . S
H259 C246 0.962 . S
H260 C246 0.960 . S
H261 C247 0.961 . S
H262 C247 0.961 . S
H263 C247 0.961 . S
H264 C248 0.931 . S
H265 C253 0.930 . S
H266 C254 0.956 . S
H267 C254 0.961 . S
H268 C254 0.961 . S
H269 C255 0.958 . S
H270 C255 0.961 . S
H271 C255 0.960 . S
C272 C273 1.391 . S
C272 C274 1.394 . S
C272 H288 0.931 . S
C273 C272 1.391 . S
C273 C277 1.376 . S
C274 C272 1.394 . S
C274 C275 1.369 . S
C274 C278 1.531 . S
C275 C274 1.369 . S
C275 C276 1.410 . S
C275 C283 1.503 . S
C276 C275 1.410 . S
C276 C277 1.392 . S
C276 C279 1.511 . S
C277 C273 1.376 . S
C277 C276 1.392 . S
C277 H289 0.929 . S
C278 C274 1.531 . S
C278 H290 0.960 . S
C278 H291 0.962 . S
C278 H292 0.960 . S
C279 C276 1.511 . S
C279 H293 0.961 . S
C279 H294 0.961 . S
C279 H295 0.961 . S
C280 C281 1.370 . S
C280 C282 1.363 . S
C280 H296 0.931 . S
C281 C280 1.370 . S
C281 C285 1.408 . S
C282 C280 1.363 . S
C282 C283 1.370 . S
C282 C286 1.524 . S
C283 C275 1.503 . S
C283 C282 1.370 . S
C283 C284 1.403 . S
C284 C283 1.403 . S
C284 C285 1.404 . S
C284 C287 1.539 . S
C285 C281 1.408 . S
C285 C284 1.404 . S
C285 H297 0.930 . S
C286 C282 1.524 . S
C286 H298 0.956 . S
C286 H299 0.961 . S
C286 H300 0.961 . S
C287 C284 1.539 . S
C287 H301 0.958 . S
C287 H302 0.961 . S
C287 H303 0.960 . S
H288 C272 0.931 . S
H289 C277 0.929 . S
H290 C278 0.960 . S
H291 C278 0.962 . S
H292 C278 0.960 . S
H293 C279 0.961 . S
H294 C279 0.961 . S
H295 C279 0.961 . S
H296 C280 0.931 . S
H297 C285 0.930 . S
H298 C286 0.956 . S
H299 C286 0.961 . S
H300 C286 0.961 . S
H301 C287 0.958 . S
H302 C287 0.961 . S
H303 C287 0.960 . S
C304 C305 1.391 . S
C304 C306 1.394 . S
C304 H320 0.931 . S
C305 C304 1.391 . S
C305 C309 1.376 . S
C306 C304 1.394 . S
C306 C307 1.369 . S
C306 C310 1.531 . S
C307 C306 1.369 . S
C307 C308 1.410 . S
C307 C315 1.503 . S
C308 C307 1.410 . S
C308 C309 1.392 . S
C308 C311 1.511 . S
C309 C305 1.376 . S
C309 C308 1.392 . S
C309 H321 0.929 . S
C310 C306 1.531 . S
C310 H322 0.960 . S
C310 H323 0.962 . S
C310 H324 0.960 . S
C311 C308 1.511 . S
C311 H325 0.961 . S
C311 H326 0.961 . S
C311 H327 0.961 . S
C312 C313 1.370 . S
C312 C314 1.363 . S
C312 H328 0.931 . S
C313 C312 1.370 . S
C313 C317 1.408 . S
C314 C312 1.363 . S
C314 C315 1.370 . S
C314 C318 1.524 . S
C315 C307 1.503 . S
C315 C314 1.370 . S
C315 C316 1.403 . S
C316 C315 1.403 . S
C316 C317 1.404 . S
C316 C319 1.539 . S
C317 C313 1.408 . S
C317 C316 1.404 . S
C317 H329 0.930 . S
C318 C314 1.524 . S
C318 H330 0.956 . S
C318 H331 0.961 . S
C318 H332 0.961 . S
C319 C316 1.539 . S
C319 H333 0.958 . S
C319 H334 0.961 . S
C319 H335 0.960 . S
H320 C304 0.931 . S
H321 C309 0.929 . S
H322 C310 0.960 . S
H323 C310 0.962 . S
H324 C310 0.960 . S
H325 C311 0.961 . S
H326 C311 0.961 . S
H327 C311 0.961 . S
H328 C312 0.931 . S
H329 C317 0.930 . S
H330 C318 0.956 . S
H331 C318 0.961 . S
H332 C318 0.961 . S
H333 C319 0.958 . S
H334 C319 0.961 . S
H335 C319 0.960 . S
C336 C337 1.391 . S
C336 C338 1.394 . S
C336 H352 0.931 . S
C337 C336 1.391 . S
C337 C341 1.376 . S
C338 C336 1.394 . S
C338 C339 1.369 . S
C338 C342 1.531 . S
C339 C338 1.369 . S
C339 C340 1.410 . S
C339 C347 1.503 . S
C340 C339 1.410 . S
C340 C341 1.392 . S
C340 C343 1.511 . S
C341 C337 1.376 . S
C341 C340 1.392 . S
C341 H353 0.929 . S
C342 C338 1.531 . S
C342 H354 0.960 . S
C342 H355 0.962 . S
C342 H356 0.960 . S
C343 C340 1.511 . S
C343 H357 0.961 . S
C343 H358 0.961 . S
C343 H359 0.961 . S
C344 C345 1.370 . S
C344 C346 1.363 . S
C344 H360 0.931 . S
C345 C344 1.370 . S
C345 C349 1.408 . S
C346 C344 1.363 . S
C346 C347 1.370 . S
C346 C350 1.524 . S
C347 C339 1.503 . S
C347 C346 1.370 . S
C347 C348 1.403 . S
C348 C347 1.403 . S
C348 C349 1.404 . S
C348 C351 1.539 . S
C349 C345 1.408 . S
C349 C348 1.404 . S
C349 H361 0.930 . S
C350 C346 1.524 . S
C350 H362 0.956 . S
C350 H363 0.961 . S
C350 H364 0.961 . S
C351 C348 1.539 . S
C351 H365 0.958 . S
C351 H366 0.961 . S
C351 H367 0.960 . S
H352 C336 0.931 . S
H353 C341 0.929 . S
H354 C342 0.960 . S
H355 C342 0.962 . S
H356 C342 0.960 . S
H357 C343 0.961 . S
H358 C343 0.961 . S
H359 C343 0.961 . S
H360 C344 0.931 . S
H361 C349 0.930 . S
H362 C350 0.956 . S
H363 C350 0.961 . S
H364 C350 0.961 . S
H365 C351 0.958 . S
H366 C351 0.961 . S
H367 C351 0.960 . S
C368 C369 1.391 . S
C368 C370 1.394 . S
C368 H384 0.931 . S
C369 C368 1.391 . S
C369 C373 1.376 . S
C370 C368 1.394 . S
C370 C371 1.369 . S
C370 C374 1.531 . S
C371 C370 1.369 . S
C371 C372 1.410 . S
C371 C379 1.503 . S
C372 C371 1.410 . S
C372 C373 1.392 . S
C372 C375 1.511 . S
C373 C369 1.376 . S
C373 C372 1.392 . S
C373 H385 0.929 . S
C374 C370 1.531 . S
C374 H386 0.960 . S
C374 H387 0.962 . S
C374 H388 0.960 . S
C375 C372 1.511 . S
C375 H389 0.961 . S
C375 H390 0.961 . S
C375 H391 0.961 . S
C376 C377 1.370 . S
C376 C378 1.363 . S
C376 H392 0.931 . S
C377 C376 1.370 . S
C377 C381 1.408 . S
C378 C376 1.363 . S
C378 C379 1.370 . S
C378 C382 1.524 . S
C379 C371 1.503 . S
C379 C378 1.370 . S
C379 C380 1.403 . S
C380 C379 1.403 . S
C380 C381 1.404 . S
C380 C383 1.539 . S
C381 C377 1.408 . S
C381 C380 1.404 . S
C381 H393 0.930 . S
C382 C378 1.524 . S
C382 H394 0.956 . S
C382 H395 0.961 . S
C382 H396 0.961 . S
C383 C380 1.539 . S
C383 H397 0.958 . S
C383 H398 0.961 . S
C383 H399 0.960 . S
H384 C368 0.931 . S
H385 C373 0.929 . S
H386 C374 0.960 . S
H387 C374 0.962 . S
H388 C374 0.960 . S
H389 C375 0.961 . S
H390 C375 0.961 . S
H391 C375 0.961 . S
H392 C376 0.931 . S
H393 C381 0.930 . S
H394 C382 0.956 . S
H395 C382 0.961 . S
H396 C382 0.961 . S
H397 C383 0.958 . S
H398 C383 0.961 . S
H399 C383 0.960 . S
C400 C401 1.391 . S
C400 C402 1.394 . S
C400 H416 0.931 . S
C401 C400 1.391 . S
C401 C405 1.376 . S
C402 C400 1.394 . S
C402 C403 1.369 . S
C402 C406 1.531 . S
C403 C402 1.369 . S
C403 C404 1.410 . S
C403 C411 1.503 . S
C404 C403 1.410 . S
C404 C405 1.392 . S
C404 C407 1.511 . S
C405 C401 1.376 . S
C405 C404 1.392 . S
C405 H417 0.929 . S
C406 C402 1.531 . S
C406 H418 0.960 . S
C406 H419 0.962 . S
C406 H420 0.960 . S
C407 C404 1.511 . S
C407 H421 0.961 . S
C407 H422 0.961 . S
C407 H423 0.961 . S
C408 C409 1.370 . S
C408 C410 1.363 . S
C408 H424 0.931 . S
C409 C408 1.370 . S
C409 C413 1.408 . S
C410 C408 1.363 . S
C410 C411 1.370 . S
C410 C414 1.524 . S
C411 C403 1.503 . S
C411 C410 1.370 . S
C411 C412 1.403 . S
C412 C411 1.403 . S
C412 C413 1.404 . S
C412 C415 1.539 . S
C413 C409 1.408 . S
C413 C412 1.404 . S
C413 H425 0.930 . S
C414 C410 1.524 . S
C414 H426 0.956 . S
C414 H427 0.961 . S
C414 H428 0.961 . S
C415 C412 1.539 . S
C415 H429 0.958 . S
C415 H430 0.961 . S
C415 H431 0.960 . S
H416 C400 0.931 . S
H417 C405 0.929 . S
H418 C406 0.960 . S
H419 C406 0.962 . S
H420 C406 0.960 . S
H421 C407 0.961 . S
H422 C407 0.961 . S
H423 C407 0.961 . S
H424 C408 0.931 . S
H425 C413 0.930 . S
H426 C414 0.956 . S
H427 C414 0.961 . S
H428 C414 0.961 . S
H429 C415 0.958 . S
H430 C415 0.961 . S
H431 C415 0.960 . S
C432 C433 1.391 . S
C432 C434 1.394 . S
C432 H448 0.931 . S
C433 C432 1.391 . S
C433 C437 1.376 . S
C434 C432 1.394 . S
C434 C435 1.369 . S
C434 C438 1.531 . S
C435 C434 1.369 . S
C435 C436 1.410 . S
C435 C443 1.503 . S
C436 C435 1.410 . S
C436 C437 1.392 . S
C436 C439 1.511 . S
C437 C433 1.376 . S
C437 C436 1.392 . S
C437 H449 0.929 . S
C438 C434 1.531 . S
C438 H450 0.960 . S
C438 H451 0.962 . S
C438 H452 0.960 . S
C439 C436 1.511 . S
C439 H453 0.961 . S
C439 H454 0.961 . S
C439 H455 0.961 . S
C440 C441 1.370 . S
C440 C442 1.363 . S
C440 H456 0.931 . S
C441 C440 1.370 . S
C441 C445 1.408 . S
C442 C440 1.363 . S
C442 C443 1.370 . S
C442 C446 1.524 . S
C443 C435 1.503 . S
C443 C442 1.370 . S
C443 C444 1.403 . S
C444 C443 1.403 . S
C444 C445 1.404 . S
C444 C447 1.539 . S
C445 C441 1.408 . S
C445 C444 1.404 . S
C445 H457 0.930 . S
C446 C442 1.524 . S
C446 H458 0.956 . S
C446 H459 0.961 . S
C446 H460 0.961 . S
C447 C444 1.539 . S
C447 H461 0.958 . S
C447 H462 0.961 . S
C447 H463 0.960 . S
H448 C432 0.931 . S
H449 C437 0.929 . S
H450 C438 0.960 . S
H451 C438 0.962 . S
H452 C438 0.960 . S
H453 C439 0.961 . S
H454 C439 0.961 . S
H455 C439 0.961 . S
H456 C440 0.931 . S
H457 C445 0.930 . S
H458 C446 0.956 . S
H459 C446 0.961 . S
H460 C446 0.961 . S
H461 C447 0.958 . S
H462 C447 0.961 . S
H463 C447 0.960 . S
C464 C465 1.391 . S
C464 C466 1.394 . S
C464 H480 0.931 . S
C465 C464 1.391 . S
C465 C469 1.376 . S
C466 C464 1.394 . S
C466 C467 1.369 . S
C466 C470 1.531 . S
C467 C466 1.369 . S
C467 C468 1.410 . S
C467 C475 1.503 . S
C468 C467 1.410 . S
C468 C469 1.392 . S
C468 C471 1.511 1_455 S
C469 C465 1.376 . S
C469 C468 1.392 . S
C469 H481 0.929 1_455 S
C470 C466 1.531 . S
C470 H482 0.960 . S
C470 H483 0.962 . S
C470 H484 0.960 . S
C471 C468 1.511 1_655 S
C471 H485 0.961 . S
C471 H486 0.961 1_655 S
C471 H487 0.961 . S
C472 C473 1.370 . S
C472 C474 1.363 . S
C472 H488 0.931 . S
C473 C472 1.370 . S
C473 C477 1.408 . S
C474 C472 1.363 . S
C474 C475 1.370 . S
C474 C478 1.524 . S
C475 C467 1.503 . S
C475 C474 1.370 . S
C475 C476 1.403 . S
C476 C475 1.403 . S
C476 C477 1.404 . S
C476 C479 1.539 . S
C477 C473 1.408 . S
C477 C476 1.404 . S
C477 H489 0.930 . S
C478 C474 1.524 . S
C478 H490 0.956 . S
C478 H491 0.961 . S
C478 H492 0.961 . S
C479 C476 1.539 . S
C479 H493 0.958 . S
C479 H494 0.961 . S
C479 H495 0.960 . S
H480 C464 0.931 . S
H481 C469 0.929 1_655 S
H482 C470 0.960 . S
H483 C470 0.962 . S
H484 C470 0.960 . S
H485 C471 0.961 . S
H486 C471 0.961 1_455 S
H487 C471 0.961 . S
H488 C472 0.931 . S
H489 C477 0.930 . S
H490 C478 0.956 . S
H491 C478 0.961 . S
H492 C478 0.961 . S
H493 C479 0.958 . S
H494 C479 0.961 . S
H495 C479 0.960 . S
C496 C497 1.391 . S
C496 C498 1.394 . S
C496 H512 0.931 . S
C497 C496 1.391 . S
C497 C501 1.376 . S
C498 C496 1.394 . S
C498 C499 1.369 . S
C498 C502 1.531 . S
C499 C498 1.369 . S
C499 C500 1.410 . S
C499 C507 1.503 . S
C500 C499 1.410 . S
C500 C501 1.392 . S
C500 C503 1.511 . S
C501 C497 1.376 . S
C501 C500 1.392 . S
C501 H513 0.929 . S
C502 C498 1.531 . S
C502 H514 0.960 . S
C502 H515 0.962 . S
C502 H516 0.960 . S
C503 C500 1.511 . S
C503 H517 0.961 . S
C503 H518 0.961 . S
C503 H519 0.961 . S
C504 C505 1.370 . S
C504 C506 1.363 . S
C504 H520 0.931 . S
C505 C504 1.370 . S
C505 C509 1.408 . S
C506 C504 1.363 . S
C506 C507 1.370 . S
C506 C510 1.524 . S
C507 C499 1.503 . S
C507 C506 1.370 . S
C507 C508 1.403 . S
C508 C507 1.403 . S
C508 C509 1.404 . S
C508 C511 1.539 . S
C509 C505 1.408 . S
C509 C508 1.404 . S
C509 H521 0.930 . S
C510 C506 1.524 . S
C510 H522 0.956 . S
C510 H523 0.961 . S
C510 H524 0.961 . S
C511 C508 1.539 . S
C511 H525 0.958 . S
C511 H526 0.961 . S
C511 H527 0.960 . S
H512 C496 0.931 . S
H513 C501 0.929 . S
H514 C502 0.960 . S
H515 C502 0.962 . S
H516 C502 0.960 . S
H517 C503 0.961 . S
H518 C503 0.961 . S
H519 C503 0.961 . S
H520 C504 0.931 . S
H521 C509 0.930 . S
H522 C510 0.956 . S
H523 C510 0.961 . S
H524 C510 0.961 . S
H525 C511 0.958 . S
H526 C511 0.961 . S
H527 C511 0.960 . S
C528 C529 1.391 . S
C528 C530 1.394 . S
C528 H544 0.931 . S
C529 C528 1.391 . S
C529 C533 1.376 . S
C530 C528 1.394 . S
C530 C531 1.369 . S
C530 C534 1.531 . S
C531 C530 1.369 . S
C531 C532 1.410 . S
C531 C539 1.503 . S
C532 C531 1.410 . S
C532 C533 1.392 . S
C532 C535 1.511 . S
C533 C529 1.376 . S
C533 C532 1.392 . S
C533 H545 0.929 . S
C534 C530 1.531 . S
C534 H546 0.960 . S
C534 H547 0.962 . S
C534 H548 0.960 . S
C535 C532 1.511 . S
C535 H549 0.961 . S
C535 H550 0.961 . S
C535 H551 0.961 . S
C536 C537 1.370 . S
C536 C538 1.363 . S
C536 H552 0.931 . S
C537 C536 1.370 . S
C537 C541 1.408 . S
C538 C536 1.363 . S
C538 C539 1.370 . S
C538 C542 1.524 . S
C539 C531 1.503 . S
C539 C538 1.370 . S
C539 C540 1.403 . S
C540 C539 1.403 . S
C540 C541 1.404 . S
C540 C543 1.539 . S
C541 C537 1.408 . S
C541 C540 1.404 . S
C541 H553 0.930 . S
C542 C538 1.524 . S
C542 H554 0.956 . S
C542 H555 0.961 . S
C542 H556 0.961 . S
C543 C540 1.539 . S
C543 H557 0.958 . S
C543 H558 0.961 . S
C543 H559 0.960 . S
H544 C528 0.931 . S
H545 C533 0.929 . S
H546 C534 0.960 . S
H547 C534 0.962 . S
H548 C534 0.960 . S
H549 C535 0.961 . S
H550 C535 0.961 . S
H551 C535 0.961 . S
H552 C536 0.931 . S
H553 C541 0.930 . S
H554 C542 0.956 . S
H555 C542 0.961 . S
H556 C542 0.961 . S
H557 C543 0.958 . S
H558 C543 0.961 . S
H559 C543 0.960 . S
C560 C561 1.391 . S
C560 C562 1.394 . S
C560 H576 0.931 . S
C561 C560 1.391 . S
C561 C565 1.376 . S
C562 C560 1.394 . S
C562 C563 1.369 . S
C562 C566 1.531 . S
C563 C562 1.369 . S
C563 C564 1.410 . S
C563 C571 1.503 . S
C564 C563 1.410 . S
C564 C565 1.392 . S
C564 C567 1.511 . S
C565 C561 1.376 . S
C565 C564 1.392 . S
C565 H577 0.929 . S
C566 C562 1.531 . S
C566 H578 0.960 . S
C566 H579 0.962 . S
C566 H580 0.960 . S
C567 C564 1.511 . S
C567 H581 0.961 . S
C567 H582 0.961 . S
C567 H583 0.961 . S
C568 C569 1.370 . S
C568 C570 1.363 . S
C568 H584 0.931 1_545 S
C569 C568 1.370 . S
C569 C573 1.408 . S
C570 C568 1.363 . S
C570 C571 1.370 . S
C570 C574 1.524 . S
C571 C563 1.503 . S
C571 C570 1.370 . S
C571 C572 1.403 . S
C572 C571 1.403 . S
C572 C573 1.404 . S
C572 C575 1.539 . S
C573 C569 1.408 . S
C573 C572 1.404 . S
C573 H585 0.930 . S
C574 C570 1.524 . S
C574 H586 0.956 . S
C574 H587 0.961 . S
C574 H588 0.961 1_545 S
C575 C572 1.539 . S
C575 H589 0.958 . S
C575 H590 0.961 . S
C575 H591 0.960 . S
H576 C560 0.931 . S
H577 C565 0.929 . S
H578 C566 0.960 . S
H579 C566 0.962 . S
H580 C566 0.960 . S
H581 C567 0.961 . S
H582 C567 0.961 . S
H583 C567 0.961 . S
H584 C568 0.931 1_565 S
H585 C573 0.930 . S
H586 C574 0.956 . S
H587 C574 0.961 . S
H588 C574 0.961 1_565 S
H589 C575 0.958 . S
H590 C575 0.961 . S
H591 C575 0.960 . S
C592 C593 1.391 . S
C592 C594 1.394 . S
C592 H608 0.931 1_655 S
C593 C592 1.391 . S
C593 C597 1.376 . S
C594 C592 1.394 . S
C594 C595 1.369 . S
C594 C598 1.531 . S
C595 C594 1.369 . S
C595 C596 1.410 . S
C595 C603 1.503 . S
C596 C595 1.410 . S
C596 C597 1.392 . S
C596 C599 1.511 . S
C597 C593 1.376 . S
C597 C596 1.392 . S
C597 H609 0.929 . S
C598 C594 1.531 . S
C598 H610 0.960 . S
C598 H611 0.962 1_655 S
C598 H612 0.960 . S
C599 C596 1.511 . S
C599 H613 0.961 . S
C599 H614 0.961 . S
C599 H615 0.961 . S
C600 C601 1.370 . S
C600 C602 1.363 . S
C600 H616 0.931 . S
C601 C600 1.370 . S
C601 C605 1.408 . S
C602 C600 1.363 . S
C602 C603 1.370 . S
C602 C606 1.524 . S
C603 C595 1.503 . S
C603 C602 1.370 . S
C603 C604 1.403 . S
C604 C603 1.403 . S
C604 C605 1.404 . S
C604 C607 1.539 . S
C605 C601 1.408 . S
C605 C604 1.404 . S
C605 H617 0.930 . S
C606 C602 1.524 . S
C606 H618 0.956 . S
C606 H619 0.961 . S
C606 H620 0.961 . S
C607 C604 1.539 . S
C607 H621 0.958 . S
C607 H622 0.961 . S
C607 H623 0.960 . S
H608 C592 0.931 1_455 S
H609 C597 0.929 . S
H610 C598 0.960 . S
H611 C598 0.962 1_455 S
H612 C598 0.960 . S
H613 C599 0.961 . S
H614 C599 0.961 . S
H615 C599 0.961 . S
H616 C600 0.931 . S
H617 C605 0.930 . S
H618 C606 0.956 . S
H619 C606 0.961 . S
H620 C606 0.961 . S
H621 C607 0.958 . S
H622 C607 0.961 . S
H623 C607 0.960 . S
C113 C68 1.755 . S
C121 C13 1.766 . S
C145 C27 1.737 . S
C153 C71 1.770 . S
C177 C29 1.767 . S
C185 C84 1.762 . S
C209 C98 1.779 . S
C217 C42 1.754 . S
C241 C0 2.117 . S
C249 C40 2.131 . S
C273 C14 2.117 . S
C281 C55 2.135 . S
C305 C97 2.143 . S
C313 C57 2.142 . S
C337 C82 2.120 . S
C345 C111 2.131 . S
C369 C70 1.406 . S
C377 C1 1.370 . S
C401 C15 1.356 . S
C409 C85 1.402 . S
C433 C41 1.361 . S
C441 C99 1.401 . S
C465 C69 1.406 . S
C473 C54 1.368 . S
C497 C56 1.402 . S
C505 C26 1.400 . S
C529 C83 1.401 . S
C537 C28 1.400 . S
C561 C96 1.387 . S
C569 C43 1.399 . S
C593 C12 1.393 . S
C601 C110 1.377 . S
