# Generated by pormake.
# Topology uos, (4)-cn, num edge types: 1
# Building blocks:
#     Node 0, Type 0, BuildingBlock: GALJAG_clean_sbu_0, # of connection points: 4
#     Node 1, Type 0, BuildingBlock: GALJAG_clean_sbu_0, # of connection points: 4
#     Node 2, Type 0, BuildingBlock: GALJAG_clean_sbu_0, # of connection points: 4
#     Node 3, Type 0, BuildingBlock: GALJAG_clean_sbu_0, # of connection points: 4
#     Node 4, Type 0, BuildingBlock: GALJAG_clean_sbu_0, # of connection points: 4
#     Node 5, Type 0, BuildingBlock: GALJAG_clean_sbu_0, # of connection points: 4
#     Node 6, Type 0, BuildingBlock: GALJAG_clean_sbu_0, # of connection points: 4
#     Node 7, Type 0, BuildingBlock: GALJAG_clean_sbu_0, # of connection points: 4
#     Node 8, Type 0, BuildingBlock: GALJAG_clean_sbu_0, # of connection points: 4
#     Node 9, Type 0, BuildingBlock: GALJAG_clean_sbu_0, # of connection points: 4
#     Node 10, Type 0, BuildingBlock: GALJAG_clean_sbu_0, # of connection points: 4
#     Node 11, Type 0, BuildingBlock: GALJAG_clean_sbu_0, # of connection points: 4
#     Node 12, Type 0, BuildingBlock: GALJAG_clean_sbu_0, # of connection points: 4
#     Node 13, Type 0, BuildingBlock: GALJAG_clean_sbu_0, # of connection points: 4
#     Node 14, Type 0, BuildingBlock: GALJAG_clean_sbu_0, # of connection points: 4
#     Node 15, Type 0, BuildingBlock: GALJAG_clean_sbu_0, # of connection points: 4
#     Node 16, Type 0, BuildingBlock: GALJAG_clean_sbu_0, # of connection points: 4
#     Node 17, Type 0, BuildingBlock: GALJAG_clean_sbu_0, # of connection points: 4
#     Node 18, Type 0, BuildingBlock: GALJAG_clean_sbu_0, # of connection points: 4
#     Node 19, Type 0, BuildingBlock: GALJAG_clean_sbu_0, # of connection points: 4
#     Node 20, Type 0, BuildingBlock: GALJAG_clean_sbu_0, # of connection points: 4
#     Node 21, Type 0, BuildingBlock: GALJAG_clean_sbu_0, # of connection points: 4
#     Node 22, Type 0, BuildingBlock: GALJAG_clean_sbu_0, # of connection points: 4
#     Node 23, Type 0, BuildingBlock: GALJAG_clean_sbu_0, # of connection points: 4
#     Node 24, Type 0, BuildingBlock: GALJAG_clean_sbu_0, # of connection points: 4
#     Node 25, Type 0, BuildingBlock: GALJAG_clean_sbu_0, # of connection points: 4
#     Node 26, Type 0, BuildingBlock: GALJAG_clean_sbu_0, # of connection points: 4
#     Node 27, Type 0, BuildingBlock: GALJAG_clean_sbu_0, # of connection points: 4
#     Node 28, Type 0, BuildingBlock: GALJAG_clean_sbu_0, # of connection points: 4
#     Node 29, Type 0, BuildingBlock: GALJAG_clean_sbu_0, # of connection points: 4
#     Node 30, Type 0, BuildingBlock: GALJAG_clean_sbu_0, # of connection points: 4
#     Node 31, Type 0, BuildingBlock: GALJAG_clean_sbu_0, # of connection points: 4
#     Edge 32, Type (0, 0), BuildingBlock: EZIPEK_clean_linker_0, # of connection points: 2
#     Edge 33, Type (0, 0), BuildingBlock: EZIPEK_clean_linker_0, # of connection points: 2
#     Edge 34, Type (0, 0), BuildingBlock: EZIPEK_clean_linker_0, # of connection points: 2
#     Edge 35, Type (0, 0), BuildingBlock: EZIPEK_clean_linker_0, # of connection points: 2
#     Edge 36, Type (0, 0), BuildingBlock: EZIPEK_clean_linker_0, # of connection points: 2
#     Edge 37, Type (0, 0), BuildingBlock: EZIPEK_clean_linker_0, # of connection points: 2
#     Edge 38, Type (0, 0), BuildingBlock: EZIPEK_clean_linker_0, # of connection points: 2
#     Edge 39, Type (0, 0), BuildingBlock: EZIPEK_clean_linker_0, # of connection points: 2
#     Edge 40, Type (0, 0), BuildingBlock: EZIPEK_clean_linker_0, # of connection points: 2
#     Edge 41, Type (0, 0), BuildingBlock: EZIPEK_clean_linker_0, # of connection points: 2
#     Edge 42, Type (0, 0), BuildingBlock: EZIPEK_clean_linker_0, # of connection points: 2
#     Edge 43, Type (0, 0), BuildingBlock: EZIPEK_clean_linker_0, # of connection points: 2
#     Edge 44, Type (0, 0), BuildingBlock: EZIPEK_clean_linker_0, # of connection points: 2
#     Edge 45, Type (0, 0), BuildingBlock: EZIPEK_clean_linker_0, # of connection points: 2
#     Edge 46, Type (0, 0), BuildingBlock: EZIPEK_clean_linker_0, # of connection points: 2
#     Edge 47, Type (0, 0), BuildingBlock: EZIPEK_clean_linker_0, # of connection points: 2
#     Edge 48, Type (0, 0), BuildingBlock: EZIPEK_clean_linker_0, # of connection points: 2
#     Edge 49, Type (0, 0), BuildingBlock: EZIPEK_clean_linker_0, # of connection points: 2
#     Edge 50, Type (0, 0), BuildingBlock: EZIPEK_clean_linker_0, # of connection points: 2
#     Edge 51, Type (0, 0), BuildingBlock: EZIPEK_clean_linker_0, # of connection points: 2
#     Edge 52, Type (0, 0), BuildingBlock: EZIPEK_clean_linker_0, # of connection points: 2
#     Edge 53, Type (0, 0), BuildingBlock: EZIPEK_clean_linker_0, # of connection points: 2
#     Edge 54, Type (0, 0), BuildingBlock: EZIPEK_clean_linker_0, # of connection points: 2
#     Edge 55, Type (0, 0), BuildingBlock: EZIPEK_clean_linker_0, # of connection points: 2
#     Edge 56, Type (0, 0), BuildingBlock: EZIPEK_clean_linker_0, # of connection points: 2
#     Edge 57, Type (0, 0), BuildingBlock: EZIPEK_clean_linker_0, # of connection points: 2
#     Edge 58, Type (0, 0), BuildingBlock: EZIPEK_clean_linker_0, # of connection points: 2
#     Edge 59, Type (0, 0), BuildingBlock: EZIPEK_clean_linker_0, # of connection points: 2
#     Edge 60, Type (0, 0), BuildingBlock: EZIPEK_clean_linker_0, # of connection points: 2
#     Edge 61, Type (0, 0), BuildingBlock: EZIPEK_clean_linker_0, # of connection points: 2
#     Edge 62, Type (0, 0), BuildingBlock: EZIPEK_clean_linker_0, # of connection points: 2
#     Edge 63, Type (0, 0), BuildingBlock: EZIPEK_clean_linker_0, # of connection points: 2
#     Edge 64, Type (0, 0), BuildingBlock: EZIPEK_clean_linker_0, # of connection points: 2
#     Edge 65, Type (0, 0), BuildingBlock: EZIPEK_clean_linker_0, # of connection points: 2
#     Edge 66, Type (0, 0), BuildingBlock: EZIPEK_clean_linker_0, # of connection points: 2
#     Edge 67, Type (0, 0), BuildingBlock: EZIPEK_clean_linker_0, # of connection points: 2
#     Edge 68, Type (0, 0), BuildingBlock: EZIPEK_clean_linker_0, # of connection points: 2
#     Edge 69, Type (0, 0), BuildingBlock: EZIPEK_clean_linker_0, # of connection points: 2
#     Edge 70, Type (0, 0), BuildingBlock: EZIPEK_clean_linker_0, # of connection points: 2
#     Edge 71, Type (0, 0), BuildingBlock: EZIPEK_clean_linker_0, # of connection points: 2
#     Edge 72, Type (0, 0), BuildingBlock: EZIPEK_clean_linker_0, # of connection points: 2
#     Edge 73, Type (0, 0), BuildingBlock: EZIPEK_clean_linker_0, # of connection points: 2
#     Edge 74, Type (0, 0), BuildingBlock: EZIPEK_clean_linker_0, # of connection points: 2
#     Edge 75, Type (0, 0), BuildingBlock: EZIPEK_clean_linker_0, # of connection points: 2
#     Edge 76, Type (0, 0), BuildingBlock: EZIPEK_clean_linker_0, # of connection points: 2
#     Edge 77, Type (0, 0), BuildingBlock: EZIPEK_clean_linker_0, # of connection points: 2
#     Edge 78, Type (0, 0), BuildingBlock: EZIPEK_clean_linker_0, # of connection points: 2
#     Edge 79, Type (0, 0), BuildingBlock: EZIPEK_clean_linker_0, # of connection points: 2
#     Edge 80, Type (0, 0), BuildingBlock: EZIPEK_clean_linker_0, # of connection points: 2
#     Edge 81, Type (0, 0), BuildingBlock: EZIPEK_clean_linker_0, # of connection points: 2
#     Edge 82, Type (0, 0), BuildingBlock: EZIPEK_clean_linker_0, # of connection points: 2
#     Edge 83, Type (0, 0), BuildingBlock: EZIPEK_clean_linker_0, # of connection points: 2
#     Edge 84, Type (0, 0), BuildingBlock: EZIPEK_clean_linker_0, # of connection points: 2
#     Edge 85, Type (0, 0), BuildingBlock: EZIPEK_clean_linker_0, # of connection points: 2
#     Edge 86, Type (0, 0), BuildingBlock: EZIPEK_clean_linker_0, # of connection points: 2
#     Edge 87, Type (0, 0), BuildingBlock: EZIPEK_clean_linker_0, # of connection points: 2
#     Edge 88, Type (0, 0), BuildingBlock: EZIPEK_clean_linker_0, # of connection points: 2
#     Edge 89, Type (0, 0), BuildingBlock: EZIPEK_clean_linker_0, # of connection points: 2
#     Edge 90, Type (0, 0), BuildingBlock: EZIPEK_clean_linker_0, # of connection points: 2
#     Edge 91, Type (0, 0), BuildingBlock: EZIPEK_clean_linker_0, # of connection points: 2
#     Edge 92, Type (0, 0), BuildingBlock: EZIPEK_clean_linker_0, # of connection points: 2
#     Edge 93, Type (0, 0), BuildingBlock: EZIPEK_clean_linker_0, # of connection points: 2
#     Edge 94, Type (0, 0), BuildingBlock: EZIPEK_clean_linker_0, # of connection points: 2
#     Edge 95, Type (0, 0), BuildingBlock: EZIPEK_clean_linker_0, # of connection points: 2
# Relax obj value: 0.041
# Max RMSD: 0.074
# Mean RMSD: 0.074
data_MOF--net-uos--node1-GALJAG_clean_sbu_0--edge1-EZIPEK_clean_linker_0
_symmetry_space_group_name_H-M    P1
_symmetry_Int_Tables_number       1
_symmetry_cell_setting            triclinic
loop_
_symmetry_equiv_pos_as_xyz
'x, y, z'
_cell_length_a     66.065994
_cell_length_b     66.031429
_cell_length_c     15.345649
_cell_angle_alpha  90.017711
_cell_angle_beta   89.99407
_cell_angle_gamma 90.015361
loop_
_atom_site_label
_atom_site_type_symbol
_atom_site_fract_x
_atom_site_fract_y
_atom_site_fract_z
_atom_type_partial_charge
In0 In 0.17204 0.16937 0.12212 0.0
O1 O 0.17298 0.14683 0.00773 0.0
O2 O 0.14574 0.16311 0.0297 0.0
C3 C 0.21039 0.16707 0.18355 0.0
C4 C 0.15199 0.14894 0.245 0.0
C5 C 0.16898 0.20984 0.09984 0.0
O6 O 0.20628 0.16456 0.10376 0.0
O7 O 0.1953 0.17065 0.23135 0.0
O8 O 0.15835 0.20016 0.15381 0.0
O9 O 0.18069 0.19909 0.05415 0.0
C10 C 0.15469 0.14954 0.98689 0.0
O11 O 0.14891 0.16753 0.23133 0.0
O12 O 0.16544 0.14078 0.19843 0.0
In13 In 0.0844 0.92258 0.37027 0.0
O14 O 0.10739 0.92135 0.25863 0.0
O15 O 0.08758 0.89623 0.27495 0.0
C16 C 0.08791 0.96132 0.42624 0.0
C17 C 0.10529 0.90224 0.49194 0.0
C18 C 0.04408 0.91943 0.34769 0.0
O19 O 0.09094 0.9565 0.34755 0.0
O20 O 0.08333 0.9468 0.47552 0.0
O21 O 0.05371 0.90898 0.40258 0.0
O22 O 0.05482 0.93103 0.30134 0.0
C23 C 0.10256 0.90364 0.23514 0.0
O24 O 0.08622 0.90356 0.49394 0.0
O25 O 0.11368 0.91155 0.43005 0.0
In26 In 0.33208 0.83691 0.63116 0.0
O27 O 0.33236 0.863 0.5314 0.0
O28 O 0.35653 0.84185 0.52829 0.0
C29 C 0.2935 0.83898 0.68852 0.0
C30 C 0.35374 0.8559 0.75422 0.0
C31 C 0.33346 0.79643 0.60744 0.0
O32 O 0.29794 0.84138 0.60886 0.0
O33 O 0.3084 0.83576 0.73789 0.0
O34 O 0.34141 0.80508 0.67233 0.0
O35 O 0.32526 0.80819 0.55295 0.0
C36 C 0.34922 0.85807 0.49884 0.0
O37 O 0.35972 0.83963 0.71937 0.0
O38 O 0.3367 0.86216 0.72896 0.0
In39 In 0.4184 0.08307 0.8765 0.0
O40 O 0.39588 0.0831 0.76253 0.0
O41 O 0.41238 0.11013 0.78822 0.0
C42 C 0.41584 0.04433 0.93138 0.0
C43 C 0.3979 0.10316 -0.00071 0.0
C44 C 0.45877 0.08517 0.85113 0.0
O45 O 0.41221 0.04926 0.85334 0.0
O46 O 0.42058 0.05875 0.98106 0.0
O47 O 0.4501 0.09283 0.91646 0.0
O48 O 0.44712 0.07674 0.79691 0.0
C49 C 0.39881 0.10151 0.74403 0.0
O50 O 0.41609 0.10729 0.98138 0.0
O51 O 0.39023 0.08869 0.95704 0.0
In52 In 0.17191 0.83671 0.86849 0.0
O53 O 0.15344 0.83706 0.74282 0.0
O54 O 0.1619 0.86523 0.79933 0.0
C55 C 0.16838 0.79656 0.90046 0.0
C56 C 0.15195 0.85629 0.9974 0.0
C57 C 0.2114 0.84006 0.82206 0.0
O58 O 0.15994 0.80511 0.83668 0.0
O59 O 0.17817 0.80829 0.94994 0.0
O60 O 0.20539 0.84375 0.89854 0.0
O61 O 0.19765 0.83503 0.7696 0.0
C62 C 0.15246 0.85615 0.73965 0.0
O63 O 0.17034 0.85976 0.98033 0.0
O64 O 0.14401 0.84229 0.95314 0.0
In65 In 0.41782 0.92401 0.12787 0.0
O66 O 0.41688 0.8976 0.03282 0.0
O67 O 0.39159 0.91777 0.03688 0.0
C68 C 0.45801 0.92255 0.15863 0.0
C69 C 0.39653 0.9069 0.25932 0.0
C70 C 0.41589 0.96242 0.06727 0.0
O71 O 0.44996 0.91475 0.09215 0.0
O72 O 0.44581 0.9306 0.2116 0.0
O73 O 0.41277 0.95819 0.14657 0.0
O74 O 0.41961 0.94738 0.01931 0.0
C75 C 0.3995 0.90208 0.0046 0.0
O76 O 0.39325 0.92484 0.23432 0.0
O77 O 0.41113 0.89823 0.22205 0.0
In78 In 0.33084 0.16855 0.37381 0.0
O79 O 0.33324 0.14352 0.47733 0.0
O80 O 0.35645 0.1657 0.47305 0.0
C81 C 0.29175 0.16605 0.32438 0.0
C82 C 0.35085 0.14853 0.24832 0.0
C83 C 0.3325 0.20893 0.39809 0.0
O84 O 0.29733 0.1617 0.40104 0.0
O85 O 0.30573 0.17154 0.27366 0.0
O86 O 0.34156 0.20016 0.33627 0.0
O87 O 0.32278 0.19739 0.44873 0.0
C88 C 0.35015 0.14941 0.50602 0.0
O89 O 0.35579 0.16619 0.27168 0.0
O90 O 0.33547 0.14136 0.28573 0.0
In91 In 0.08699 0.08153 0.61859 0.0
O92 O 0.1123 0.08353 0.72103 0.0
O93 O 0.09041 0.10707 0.7178 0.0
C94 C 0.08941 0.04271 0.56577 0.0
C95 C 0.10666 0.10215 0.4945 0.0
C96 C 0.04661 0.08268 0.64171 0.0
O97 O 0.09328 0.04778 0.6436 0.0
O98 O 0.08445 0.057 0.51583 0.0
O99 O 0.05526 0.09063 0.57682 0.0
O100 O 0.05829 0.07447 0.69651 0.0
C101 C 0.10671 0.10055 0.74996 0.0
O102 O 0.08939 0.10747 0.52144 0.0
O103 O 0.11361 0.08618 0.52794 0.0
In104 In 0.82955 0.83565 0.87206 0.0
O105 O 0.83092 0.8611 0.97403 0.0
O106 O 0.8553 0.84014 0.96891 0.0
C107 C 0.79033 0.83725 0.8238 0.0
C108 C 0.84986 0.8557 0.74828 0.0
C109 C 0.83173 0.79522 0.89448 0.0
O110 O 0.79571 0.84024 0.90199 0.0
O111 O 0.80459 0.83368 0.77148 0.0
O112 O 0.83741 0.80388 0.82535 0.0
O113 O 0.82547 0.80695 0.95367 0.0
C114 C 0.84825 0.85615 0.00172 0.0
O115 O 0.8557 0.83869 0.77629 0.0
O116 O 0.83347 0.86211 0.77994 0.0
In117 In 0.91873 0.08083 0.62281 0.0
O118 O 0.91692 0.09926 0.49794 0.0
O119 O 0.88937 0.09062 0.55961 0.0
C120 C 0.95918 0.0832 0.64639 0.0
C121 C 0.90112 0.10176 0.75388 0.0
C122 C 0.91431 0.04171 0.57433 0.0
O123 O 0.95019 0.09171 0.5839 0.0
O124 O 0.94781 0.07382 0.69873 0.0
O125 O 0.91165 0.04734 0.65218 0.0
O126 O 0.91886 0.05561 0.52189 0.0
C127 C 0.89781 0.10014 0.49829 0.0
O128 O 0.89796 0.08306 0.74224 0.0
O129 O 0.91397 0.10955 0.70318 0.0
In130 In 0.67352 0.16755 0.37325 0.0
O131 O 0.67275 0.15107 0.50546 0.0
O132 O 0.64486 0.15916 0.44627 0.0
C133 C 0.71202 0.16427 0.3157 0.0
C134 C 0.65542 0.14523 0.25063 0.0
C135 C 0.67069 0.20796 0.39774 0.0
O136 O 0.70657 0.15697 0.3882 0.0
O137 O 0.69825 0.17301 0.2733 0.0
O138 O 0.66118 0.19875 0.33854 0.0
O139 O 0.68117 0.1968 0.44692 0.0
C140 C 0.65362 0.15017 0.50804 0.0
O141 O 0.65271 0.16411 0.2565 0.0
O142 O 0.66759 0.13765 0.30491 0.0
In143 In 0.58556 0.92295 0.12836 0.0
O144 O 0.61289 0.92067 0.22047 0.0
O145 O 0.58842 0.90032 0.24009 0.0
C146 C 0.58827 0.96157 0.07129 0.0
C147 C 0.60293 0.89927 0.0077 0.0
C148 C 0.54532 0.92236 0.15572 0.0
O149 O 0.59142 0.95697 0.15021 0.0
O150 O 0.58404 0.94683 0.02245 0.0
O151 O 0.55336 0.91535 0.08742 0.0
O152 O 0.55758 0.92929 0.2115 0.0
C153 C 0.60605 0.90559 0.26163 0.0
O154 O 0.5857 0.89529 0.03901 0.0
O155 O 0.61103 0.9153 0.03553 0.0
In156 In 0.8326 0.1681 0.12469 0.0
O157 O 0.85249 0.16684 0.2456 0.0
O158 O 0.84048 0.13922 0.19581 0.0
C159 C 0.83489 0.20795 0.08514 0.0
C160 C 0.85362 0.14911 0.99807 0.0
C161 C 0.79377 0.165 0.17945 0.0
O162 O 0.84157 0.20066 0.15545 0.0
O163 O 0.82783 0.19504 0.03266 0.0
O164 O 0.79934 0.15818 0.10624 0.0
O165 O 0.80757 0.17317 0.22362 0.0
C166 C 0.85152 0.14777 0.25192 0.0
O167 O 0.83451 0.14794 0.00318 0.0
O168 O 0.86189 0.1605 0.05371 0.0
In169 In 0.58648 0.08192 0.879 0.0
O170 O 0.60424 0.08318 0.75022 0.0
O171 O 0.59555 0.11092 0.80975 0.0
C172 C 0.58929 0.04307 0.9324 0.0
C173 C 0.60883 0.09972 0.00191 0.0
C174 C 0.54616 0.08511 0.85328 0.0
O175 O 0.59497 0.04847 0.8572 0.0
O176 O 0.58236 0.05704 0.97954 0.0
O177 O 0.55484 0.09167 0.92073 0.0
O178 O 0.55776 0.07733 0.79722 0.0
C179 C 0.60508 0.10234 0.74889 0.0
O180 O 0.59026 0.10372 0.99198 0.0
O181 O 0.616 0.0864 0.95159 0.0
In182 In 0.6697 0.83478 0.63218 0.0
O183 O 0.6441 0.83421 0.73191 0.0
O184 O 0.66191 0.86106 0.7204 0.0
C185 C 0.6678 0.79488 0.59302 0.0
C186 C 0.65273 0.85683 0.50334 0.0
C187 C 0.70826 0.83705 0.69068 0.0
O188 O 0.66244 0.80199 0.66571 0.0
O189 O 0.67368 0.80794 0.53854 0.0
O190 O 0.70374 0.84064 0.61215 0.0
O191 O 0.69358 0.83232 0.73873 0.0
C192 C 0.64731 0.85216 0.75681 0.0
O193 O 0.67035 0.86047 0.53142 0.0
O194 O 0.64421 0.84162 0.53677 0.0
In195 In 0.91603 0.92188 0.37497 0.0
O196 O 0.91399 0.89769 0.47985 0.0
O197 O 0.88796 0.91606 0.45622 0.0
C198 C 0.95639 0.91949 0.34975 0.0
C199 C 0.89635 0.90474 0.23909 0.0
C200 C 0.91417 0.96005 0.43764 0.0
O201 O 0.94699 0.90833 0.4027 0.0
O202 O 0.94538 0.93144 0.30641 0.0
O203 O 0.90949 0.95584 0.35974 0.0
O204 O 0.91965 0.94514 0.48321 0.0
C205 C 0.89579 0.90163 0.49802 0.0
O206 O 0.89335 0.92291 0.26124 0.0
O207 O 0.9101 0.89585 0.28098 0.0
In208 In 0.67165 0.66745 0.62595 0.0
O209 O 0.66924 0.64696 0.50558 0.0
O210 O 0.64239 0.6613 0.55161 0.0
C211 C 0.71104 0.66377 0.67245 0.0
C212 C 0.65318 0.64664 0.75318 0.0
C213 C 0.6683 0.70761 0.59446 0.0
O214 O 0.70488 0.65904 0.59718 0.0
O215 O 0.6975 0.67 0.72349 0.0
O216 O 0.65999 0.69911 0.65873 0.0
O217 O 0.67786 0.69583 0.54439 0.0
C218 C 0.65029 0.64915 0.49809 0.0
O219 O 0.65406 0.66576 0.75321 0.0
O220 O 0.66244 0.63816 0.69125 0.0
In221 In 0.58533 0.42253 0.87139 0.0
O222 O 0.5863 0.39569 0.96533 0.0
O223 O 0.61132 0.41609 0.96321 0.0
C224 C 0.54524 0.42187 0.83919 0.0
C225 C 0.60572 0.40446 0.73959 0.0
C226 C 0.58754 0.46111 0.92877 0.0
O227 O 0.55291 0.41461 0.90783 0.0
O228 O 0.55783 0.42901 0.78526 0.0
O229 O 0.59228 0.45638 0.85143 0.0
O230 O 0.58185 0.44656 0.97582 0.0
C231 C 0.60364 0.40019 0.99424 0.0
O232 O 0.61201 0.42046 0.77581 0.0
O233 O 0.58859 0.39855 0.76522 0.0
In234 In 0.83129 0.33516 0.12303 0.0
O235 O 0.85136 0.33535 0.2439 0.0
O236 O 0.84135 0.36357 0.19225 0.0
C237 C 0.83409 0.29524 0.08601 0.0
C238 C 0.8502 0.35549 0.99368 0.0
C239 C 0.79259 0.33787 0.18095 0.0
O240 O 0.84279 0.30323 0.1506 0.0
O241 O 0.82458 0.30746 0.03784 0.0
O242 O 0.7972 0.34098 0.10213 0.0
O243 O 0.80735 0.33377 0.22964 0.0
C244 C 0.85168 0.35446 0.24911 0.0
O245 O 0.83182 0.35861 0.01248 0.0
O246 O 0.85858 0.34148 0.03631 0.0
In247 In 0.91722 0.58035 0.36969 0.0
O248 O 0.89329 0.57973 0.26083 0.0
O249 O 0.91057 0.60662 0.27817 0.0
C250 C 0.91454 0.54176 0.42661 0.0
C251 C 0.89858 0.60204 0.49289 0.0
C252 C 0.95753 0.58199 0.34171 0.0
O253 O 0.91089 0.54647 0.34827 0.0
O254 O 0.91936 0.55632 0.47539 0.0
O255 O 0.94929 0.58828 0.41065 0.0
O256 O 0.94547 0.57504 0.2853 0.0
C257 C 0.89636 0.59788 0.23838 0.0
O258 O 0.91579 0.60689 0.46386 0.0
O259 O 0.89098 0.58613 0.46139 0.0
In260 In 0.6716 0.3359 0.36774 0.0
O261 O 0.64582 0.33612 0.2691 0.0
O262 O 0.66439 0.36245 0.27981 0.0
C263 C 0.6703 0.29551 0.39326 0.0
C264 C 0.65393 0.35653 0.49961 0.0
C265 C 0.7105 0.33867 0.31463 0.0
O266 O 0.6635 0.30393 0.32559 0.0
O267 O 0.6775 0.30743 0.44975 0.0
O268 O 0.70547 0.34134 0.39329 0.0
O269 O 0.69609 0.33485 0.26354 0.0
C270 C 0.64944 0.35397 0.24417 0.0
O271 O 0.67086 0.36161 0.46838 0.0
O272 O 0.64656 0.34048 0.46841 0.0
In273 In 0.9183 0.42147 0.62186 0.0
O274 O 0.89465 0.42062 0.73117 0.0
O275 O 0.91498 0.39579 0.72046 0.0
C276 C 0.91492 0.46018 0.56563 0.0
C277 C 0.89795 0.40095 0.49884 0.0
C278 C 0.95866 0.41815 0.64432 0.0
O279 O 0.91294 0.45555 0.64514 0.0
O280 O 0.91822 0.44544 0.51556 0.0
O281 O 0.94876 0.40658 0.59468 0.0
O282 O 0.94817 0.43093 0.68569 0.0
C283 C 0.89962 0.40319 0.75751 0.0
O284 O 0.91695 0.40305 0.49621 0.0
O285 O 0.88936 0.40958 0.56204 0.0
In286 In 0.83136 0.66723 0.86648 0.0
O287 O 0.85865 0.66472 0.77628 0.0
O288 O 0.8362 0.64151 0.77142 0.0
C289 C 0.83257 0.70765 0.89112 0.0
C290 C 0.84881 0.64649 -0.00097 0.0
C291 C 0.7929 0.66506 0.80781 0.0
O292 O 0.84075 0.69912 0.82645 0.0
O293 O 0.8242 0.69581 0.9448 0.0
O294 O 0.7972 0.66262 0.8876 0.0
O295 O 0.80788 0.66839 0.75901 0.0
C296 C 0.85294 0.64808 0.74388 0.0
O297 O 0.83197 0.64132 0.96691 0.0
O298 O 0.85591 0.66277 0.96912 0.0
In299 In 0.58466 0.58118 0.12359 0.0
O300 O 0.5863 0.60048 0.00119 0.0
O301 O 0.61384 0.58942 0.0555 0.0
C302 C 0.54455 0.58302 0.15514 0.0
C303 C 0.6026 0.60192 0.25417 0.0
C304 C 0.58838 0.54256 0.06803 0.0
O305 O 0.55295 0.5928 0.09455 0.0
O306 O 0.55638 0.5727 0.20201 0.0
O307 O 0.59444 0.54799 0.14262 0.0
O308 O 0.58066 0.55639 0.02249 0.0
C309 C 0.6054 0.60002 0.99758 0.0
O310 O 0.60453 0.58295 0.2461 0.0
O311 O 0.59081 0.61012 0.20006 0.0
In312 In 0.33255 0.33667 0.37429 0.0
O313 O 0.3297 0.36167 0.47802 0.0
O314 O 0.35659 0.34404 0.47621 0.0
C315 C 0.29457 0.3397 0.30957 0.0
C316 C 0.3575 0.35344 0.25697 0.0
C317 C 0.33351 0.29632 0.4033 0.0
O318 O 0.29836 0.34199 0.38965 0.0
O319 O 0.3098 0.33623 0.26253 0.0
O320 O 0.33998 0.30434 0.33431 0.0
O321 O 0.32693 0.30861 0.45966 0.0
C322 C 0.34715 0.35876 0.50908 0.0
O323 O 0.36044 0.33591 0.28706 0.0
O324 O 0.34195 0.36239 0.28523 0.0
In325 In 0.41696 0.58119 0.1297 0.0
O326 O 0.39124 0.58233 0.23009 0.0
O327 O 0.41265 0.6064 0.22971 0.0
C328 C 0.41425 0.54215 0.0783 0.0
C329 C 0.39905 0.60328 0.00554 0.0
C330 C 0.45727 0.58244 0.1554 0.0
O331 O 0.41139 0.54737 0.1566 0.0
O332 O 0.41815 0.55645 0.02672 0.0
O333 O 0.44892 0.58888 0.08694 0.0
O334 O 0.44532 0.57559 0.21253 0.0
C335 C 0.39652 0.59924 0.261 0.0
O336 O 0.41689 0.60686 0.03062 0.0
O337 O 0.39049 0.58839 0.04133 0.0
In338 In 0.17083 0.66916 0.86593 0.0
O339 O 0.16945 0.64504 0.97273 0.0
O340 O 0.14344 0.66356 0.95294 0.0
C341 C 0.20991 0.66585 0.81409 0.0
C342 C 0.15006 0.64967 0.74128 0.0
C343 C 0.1681 0.70915 0.90296 0.0
O344 O 0.20469 0.66325 0.89251 0.0
O345 O 0.19566 0.66998 0.76283 0.0
O346 O 0.1625 0.7017 0.83117 0.0
O347 O 0.17448 0.69636 0.95753 0.0
C348 C 0.15125 0.64877 0.99284 0.0
O349 O 0.14981 0.66876 0.74774 0.0
O350 O 0.16106 0.64071 0.79615 0.0
In351 In 0.08675 0.42319 0.61955 0.0
O352 O 0.10308 0.42262 0.75182 0.0
O353 O 0.09545 0.39459 0.69225 0.0
C354 C 0.08925 0.46198 0.56483 0.0
C355 C 0.11015 0.40595 0.49834 0.0
C356 C 0.04635 0.41902 0.64049 0.0
O357 O 0.09586 0.45657 0.63856 0.0
O358 O 0.0815 0.44803 0.51994 0.0
O359 O 0.05603 0.4105 0.57989 0.0
O360 O 0.05707 0.42916 0.69282 0.0
C361 C 0.10426 0.4035 0.75419 0.0
O362 O 0.09135 0.40259 0.50277 0.0
O363 O 0.1171 0.41831 0.55343 0.0
In364 In 0.33135 0.66841 0.63323 0.0
O365 O 0.33332 0.64174 0.53766 0.0
O366 O 0.35514 0.6652 0.52618 0.0
C367 C 0.29228 0.66615 0.68425 0.0
C368 C 0.35342 0.64964 0.75557 0.0
C369 C 0.33286 0.70883 0.60911 0.0
O370 O 0.29749 0.66298 0.60603 0.0
O371 O 0.30663 0.67025 0.73537 0.0
O372 O 0.339 0.70038 0.67806 0.0
O373 O 0.32641 0.69687 0.55106 0.0
C374 C 0.34921 0.64804 0.50083 0.0
O375 O 0.3582 0.66691 0.72676 0.0
O376 O 0.33739 0.64222 0.72462 0.0
In377 In 0.08495 0.58168 0.36634 0.0
O378 O 0.10725 0.58132 0.2517 0.0
O379 O 0.09026 0.60824 0.27404 0.0
C380 C 0.08921 0.5434 0.42607 0.0
C381 C 0.1042 0.60254 0.49212 0.0
C382 C 0.04486 0.58371 0.33355 0.0
O383 O 0.09426 0.54829 0.34953 0.0
O384 O 0.08226 0.55762 0.47173 0.0
O385 O 0.05365 0.59545 0.38613 0.0
O386 O 0.0563 0.57134 0.29481 0.0
C387 C 0.10395 0.59953 0.23065 0.0
O388 O 0.08527 0.59995 0.49309 0.0
O389 O 0.1132 0.59423 0.42931 0.0
In390 In 0.17368 0.33787 0.12522 0.0
O391 O 0.15272 0.34181 0.24086 0.0
O392 O 0.16969 0.36753 0.19789 0.0
C393 C 0.16993 0.29751 0.10178 0.0
C394 C 0.15283 0.35597 0.99521 0.0
C395 C 0.21278 0.34047 0.17482 0.0
O396 O 0.16266 0.3067 0.16664 0.0
O397 O 0.17866 0.30869 0.04668 0.0
O398 O 0.20687 0.34694 0.10159 0.0
O399 O 0.19919 0.33286 0.22204 0.0
C400 C 0.15669 0.36042 0.24983 0.0
O401 O 0.17196 0.35492 0.9948 0.0
O402 O 0.14447 0.34694 0.05791 0.0
In403 In 0.41821 0.42199 0.87962 0.0
O404 O 0.42116 0.39627 0.97778 0.0
O405 O 0.39336 0.41271 0.97315 0.0
C406 C 0.45809 0.42115 0.84065 0.0
C407 C 0.39503 0.40555 0.75176 0.0
C408 C 0.41556 0.4603 0.94197 0.0
O409 O 0.45076 0.41281 0.90735 0.0
O410 O 0.44529 0.42947 0.79117 0.0
O411 O 0.41301 0.45621 0.86229 0.0
O412 O 0.41916 0.44519 0.98955 0.0
C413 C 0.40341 0.39845 0.00665 0.0
O414 O 0.39159 0.42291 0.78275 0.0
O415 O 0.41056 0.39698 0.78198 0.0
C416 C 0.25672 0.18045 0.3194 0.0
C417 C 0.27042 0.16499 0.29472 0.0
C418 C 0.2441 0.14954 0.20319 0.0
C419 C 0.23133 0.16644 0.21931 0.0
N420 N 0.22756 0.20023 0.27722 0.0
N421 N 0.27813 0.13575 0.20655 0.0
C422 C 0.23815 0.18248 0.27363 0.0
C423 C 0.26442 0.14985 0.23431 0.0
N424 N 0.26141 0.19324 0.38645 0.0
N425 N 0.23657 0.13277 0.16217 0.0
H426 H 0.29274 0.13468 0.23195 0.0
H427 H 0.2754 0.1259 0.15484 0.0
H428 H 0.22164 0.13167 0.1407 0.0
H429 H 0.24453 0.11922 0.15668 0.0
H430 H 0.25113 0.20355 0.41259 0.0
H431 H 0.27487 0.19222 0.42157 0.0
H432 H 0.23281 0.21313 0.30909 0.0
H433 H 0.21468 0.20285 0.23973 0.0
C434 C 0.1068 0.99371 0.4576 0.0
C435 C 0.08847 0.98249 0.45882 0.0
C436 C 0.07195 0.00962 0.54202 0.0
C437 C 0.08973 0.02149 0.53465 0.0
N438 N 0.12324 0.02633 0.47622 0.0
N439 N 0.05252 0.98141 0.4855 0.0
C440 C 0.10692 0.01398 0.48959 0.0
C441 C 0.07074 0.99087 0.49679 0.0
N442 N 0.12425 0.98473 0.42933 0.0
N443 N 0.05625 0.01623 0.59268 0.0
H444 H 0.05093 0.96822 0.44877 0.0
H445 H 0.03873 0.98766 0.50434 0.0
H446 H 0.0565 0.03004 0.62568 0.0
H447 H 0.04373 0.00733 0.60798 0.0
H448 H 0.13849 0.99131 0.43568 0.0
H449 H 0.12474 0.96995 0.40539 0.0
H450 H 0.13524 0.02263 0.43522 0.0
H451 H 0.1242 0.04093 0.50195 0.0
C452 C 0.23919 0.85612 0.734 0.0
C453 C 0.23294 0.84115 0.7947 0.0
C454 C 0.26557 0.82391 0.77896 0.0
C455 C 0.27243 0.83962 0.7229 0.0
N456 N 0.26722 0.87296 0.6622 0.0
N457 N 0.24168 0.81346 0.88993 0.0
C458 C 0.25962 0.85634 0.70412 0.0
C459 C 0.24664 0.82594 0.82219 0.0
N460 N 0.22563 0.87024 0.70529 0.0
N461 N 0.27657 0.80647 0.78738 0.0
H462 H 0.22801 0.81449 0.9234 0.0
H463 H 0.2519 0.80345 0.91852 0.0
H464 H 0.29017 0.80394 0.75478 0.0
H465 H 0.27121 0.79365 0.81949 0.0
H466 H 0.2284 0.87986 0.65288 0.0
H467 H 0.21114 0.87166 0.73146 0.0
H468 H 0.25922 0.88643 0.65472 0.0
H469 H 0.28224 0.87409 0.64197 0.0
C470 C 0.39916 0.01657 0.01693 0.0
C471 C 0.41529 0.02313 0.9628 0.0
C472 C 0.43263 0.99068 0.98423 0.0
C473 C 0.41572 0.98344 0.0325 0.0
N474 N 0.38127 0.98816 0.08089 0.0
N475 N 0.44616 0.01589 0.88502 0.0
C476 C 0.39856 0.99606 0.04552 0.0
C477 C 0.4316 0.00996 0.94306 0.0
N478 N 0.38445 0.02997 0.04146 0.0
N479 N 0.45013 0.97962 0.98164 0.0
H480 H 0.44646 0.03022 0.85651 0.0
H481 H 0.45711 0.00614 0.86008 0.0
H482 H 0.45177 0.96561 0.01205 0.0
H483 H 0.46369 0.98509 0.95631 0.0
H484 H 0.37372 0.02684 0.0893 0.0
H485 H 0.38374 0.04479 0.01807 0.0
H486 H 0.3676 0.99597 0.0835 0.0
H487 H 0.37998 0.9731 0.10043 0.0
C488 C 0.76154 0.81991 0.7482 0.0
C489 C 0.7689 0.83705 0.79447 0.0
C490 C 0.73582 0.85363 0.77814 0.0
C491 C 0.7293 0.83743 0.72418 0.0
N492 N 0.73645 0.80613 0.6495 0.0
N493 N 0.76418 0.87153 0.84256 0.0
C494 C 0.74236 0.8209 0.70647 0.0
C495 C 0.75631 0.85423 0.80719 0.0
N496 N 0.77247 0.80231 0.74771 0.0
N497 N 0.72242 0.8684 0.80194 0.0
H498 H 0.77915 0.87274 0.86337 0.0
H499 H 0.75643 0.88525 0.8446 0.0
H500 H 0.7076 0.86901 0.7786 0.0
H501 H 0.72553 0.87926 0.84931 0.0
H502 H 0.76696 0.78866 0.72336 0.0
H503 H 0.78634 0.80074 0.77934 0.0
H504 H 0.74613 0.79497 0.62582 0.0
H505 H 0.72218 0.8059 0.62077 0.0
C506 C 0.89563 0.99229 0.47428 0.0
C507 C 0.91391 0.98097 0.47314 0.0
C508 C 0.93118 0.00823 0.5527 0.0
C509 C 0.9135 0.02029 0.54613 0.0
N510 N 0.87956 0.02508 0.49266 0.0
N511 N 0.95 0.97956 0.49662 0.0
C512 C 0.8959 0.01269 0.50448 0.0
C513 C 0.93193 0.98926 0.50888 0.0
N514 N 0.87785 0.98327 0.45019 0.0
N515 N 0.94724 0.0149 0.60105 0.0
H516 H 0.95133 0.96609 0.46165 0.0
H517 H 0.96394 0.98581 0.51329 0.0
H518 H 0.94734 0.02887 0.63284 0.0
H519 H 0.95973 0.00593 0.61585 0.0
H520 H 0.86373 0.99001 0.45831 0.0
H521 H 0.87698 0.9683 0.42879 0.0
H522 H 0.86723 0.0213 0.45366 0.0
H523 H 0.87888 0.03977 0.51767 0.0
C524 C 0.7437 0.18261 0.27483 0.0
C525 C 0.73322 0.16399 0.28411 0.0
C526 C 0.76281 0.14566 0.22765 0.0
C527 C 0.77254 0.16446 0.21111 0.0
N528 N 0.77101 0.20095 0.20524 0.0
N529 N 0.73136 0.12802 0.25865 0.0
C530 C 0.76263 0.18298 0.23097 0.0
C531 C 0.74239 0.14554 0.25773 0.0
N532 N 0.73588 0.19987 0.31094 0.0
N533 N 0.77333 0.12798 0.21821 0.0
H534 H 0.71648 0.12732 0.28126 0.0
H535 H 0.73639 0.11452 0.23105 0.0
H536 H 0.78828 0.12745 0.19642 0.0
H537 H 0.76784 0.11397 0.23852 0.0
H538 H 0.74376 0.21351 0.31432 0.0
H539 H 0.72224 0.20013 0.34519 0.0
H540 H 0.76347 0.21477 0.20888 0.0
H541 H 0.78484 0.20188 0.17277 0.0
C542 C 0.60605 0.01522 0.01699 0.0
C543 C 0.58987 0.02186 0.96338 0.0
C544 C 0.57171 0.99014 0.99052 0.0
C545 C 0.58868 0.98267 0.03756 0.0
N546 N 0.62344 0.98675 0.08293 0.0
N547 N 0.55876 0.01477 0.88742 0.0
C548 C 0.60624 0.99487 0.04779 0.0
C549 C 0.57317 0.00901 0.94635 0.0
N550 N 0.6211 0.02845 0.03942 0.0
N551 N 0.55382 0.97971 0.99179 0.0
H552 H 0.55921 0.02862 0.85472 0.0
H553 H 0.54735 0.00518 0.86533 0.0
H554 H 0.55184 0.96618 0.02571 0.0
H555 H 0.54034 0.98544 0.96668 0.0
H556 H 0.632 0.02528 0.08651 0.0
H557 H 0.62191 0.04318 0.01508 0.0
H558 H 0.63733 0.9942 0.08348 0.0
H559 H 0.62435 0.97183 0.1048 0.0
C560 C 0.74627 0.67775 0.6721 0.0
C561 C 0.73253 0.66261 0.69994 0.0
C562 C 0.75906 0.64763 0.79175 0.0
C563 C 0.77191 0.66432 0.77267 0.0
N564 N 0.7761 0.69736 0.70711 0.0
N565 N 0.72499 0.63395 0.79148 0.0
C566 C 0.76512 0.67991 0.71579 0.0
C567 C 0.73867 0.64784 0.76166 0.0
N568 N 0.74138 0.69004 0.60367 0.0
N569 N 0.76659 0.63107 0.8343 0.0
H570 H 0.71041 0.63269 0.76601 0.0
H571 H 0.72773 0.62446 0.84437 0.0
H572 H 0.7816 0.62993 0.85457 0.0
H573 H 0.75854 0.61764 0.84209 0.0
H574 H 0.75161 0.70002 0.57493 0.0
H575 H 0.72774 0.68886 0.56993 0.0
H576 H 0.77079 0.71008 0.67412 0.0
H577 H 0.78959 0.70003 0.74034 0.0
C578 C 0.56993 0.49075 0.99714 0.0
C579 C 0.58797 0.48218 0.96267 0.0
C580 C 0.6065 0.51343 0.9974 0.0
C581 C 0.58882 0.52133 0.03724 0.0
N582 N 0.55465 0.51664 0.08811 0.0
N583 N 0.62415 0.48384 0.94236 0.0
C584 C 0.5708 0.50971 0.04094 0.0
C585 C 0.60647 0.49313 0.96578 0.0
N586 N 0.5518 0.48117 0.98477 0.0
N587 N 0.62318 0.5255 0.98813 0.0
H588 H 0.62479 0.46899 0.9195 0.0
H589 H 0.63838 0.49023 0.95208 0.0
H590 H 0.62399 0.54012 0.01378 0.0
H591 H 0.63569 0.52157 0.95049 0.0
H592 H 0.53787 0.4877 -0.00057 0.0
H593 H 0.55045 0.46734 0.9526 0.0
H594 H 0.54183 0.50798 0.10119 0.0
H595 H 0.55475 0.53048 0.12088 0.0
C596 C 0.73867 0.35534 0.23135 0.0
C597 C 0.73177 0.33907 0.28399 0.0
C598 C 0.76386 0.3212 0.26079 0.0
C599 C 0.77146 0.33823 0.21439 0.0
N600 N 0.76743 0.37297 0.16892 0.0
N601 N 0.73845 0.30769 0.35899 0.0
C602 C 0.7592 0.35569 0.20285 0.0
C603 C 0.74462 0.32241 0.30221 0.0
N604 N 0.72557 0.37045 0.2082 0.0
N605 N 0.77451 0.30343 0.2613 0.0
H606 H 0.72416 0.30754 0.38783 0.0
H607 H 0.748 0.29643 0.38273 0.0
H608 H 0.78843 0.30166 0.23029 0.0
H609 H 0.76876 0.28985 0.28522 0.0
H610 H 0.72894 0.38137 0.16147 0.0
H611 H 0.71078 0.37134 0.23164 0.0
H612 H 0.75992 0.38682 0.16759 0.0
H613 H 0.7825 0.37402 0.14913 0.0
C614 C 0.9318 0.48867 0.48579 0.0
C615 C 0.91478 0.48137 0.53288 0.0
C616 C 0.89786 0.51418 0.51362 0.0
C617 C 0.91403 0.52066 0.45938 0.0
N618 N 0.94519 0.51334 0.38389 0.0
N619 N 0.88033 0.48594 0.58108 0.0
C620 C 0.93059 0.50762 0.44208 0.0
C621 C 0.89747 0.49383 0.54446 0.0
N622 N 0.94955 0.478 0.48692 0.0
N623 N 0.88294 0.52754 0.53619 0.0
H624 H 0.87939 0.47108 0.60371 0.0
H625 H 0.86653 0.49353 0.58267 0.0
H626 H 0.88216 0.54224 0.51141 0.0
H627 H 0.87209 0.52453 0.58365 0.0
H628 H 0.96308 0.48347 0.46136 0.0
H629 H 0.95134 0.46454 0.52157 0.0
H630 H 0.95642 0.5036 0.3613 0.0
H631 H 0.9452 0.52737 0.3527 0.0
C632 C 0.26592 0.32287 0.23 0.0
C633 C 0.27374 0.34023 0.27332 0.0
C634 C 0.2414 0.35788 0.25178 0.0
C635 C 0.23415 0.34106 0.2035 0.0
N636 N 0.24007 0.30875 0.13529 0.0
N637 N 0.2704 0.37542 0.31292 0.0
C638 C 0.24663 0.32393 0.189 0.0
C639 C 0.26186 0.35806 0.281 0.0
N640 N 0.27647 0.30505 0.23189 0.0
N641 N 0.22856 0.37347 0.27144 0.0
H642 H 0.28537 0.3762 0.33419 0.0
H643 H 0.26324 0.38946 0.31163 0.0
H644 H 0.21371 0.37418 0.24845 0.0
H645 H 0.23214 0.38501 0.31505 0.0
H646 H 0.27059 0.2913 0.21036 0.0
H647 H 0.29053 0.30351 0.26198 0.0
H648 H 0.24925 0.2969 0.11435 0.0
H649 H 0.22584 0.30883 0.10575 0.0
C650 C 0.43023 0.50781 0.06852 0.0
C651 C 0.41381 0.52082 0.04831 0.0
C652 C 0.39763 0.49359 0.96432 0.0
C653 C 0.41497 0.48124 0.97747 0.0
N654 N 0.44938 0.47793 0.02866 0.0
N655 N 0.38296 0.52725 0.96902 0.0
C656 C 0.43167 0.48866 0.02646 0.0
C657 C 0.39786 0.51406 0.99354 0.0
N658 N 0.44452 0.51378 0.12764 0.0
N659 N 0.38056 0.48547 0.92793 0.0
H660 H 0.3819 0.54199 0.99313 0.0
H661 H 0.37236 0.52402 0.92075 0.0
H662 H 0.3796 0.47044 0.90756 0.0
H663 H 0.36676 0.49304 0.92512 0.0
H664 H 0.45555 0.50411 0.15249 0.0
H665 H 0.44449 0.528 0.15724 0.0
H666 H 0.46279 0.48358 0.05479 0.0
H667 H 0.45135 0.46412 0.99689 0.0
C668 C 0.25893 0.64825 0.70625 0.0
C669 C 0.27094 0.666 0.71466 0.0
C670 C 0.24381 0.68243 0.79817 0.0
C671 C 0.23125 0.66533 0.78405 0.0
N672 N 0.2256 0.63289 0.7164 0.0
N673 N 0.27359 0.70127 0.75436 0.0
C674 C 0.23843 0.64853 0.7353 0.0
C675 C 0.26307 0.68343 0.75709 0.0
N676 N 0.26739 0.63083 0.67472 0.0
N677 N 0.23733 0.69775 0.85121 0.0
H678 H 0.28756 0.7028 0.72352 0.0
H679 H 0.2677 0.71506 0.7754 0.0
H680 H 0.22301 0.69788 0.87952 0.0
H681 H 0.24659 0.70951 0.87246 0.0
H682 H 0.26014 0.61684 0.67583 0.0
H683 H 0.28237 0.62993 0.65374 0.0
H684 H 0.22906 0.62141 0.67233 0.0
H685 H 0.21091 0.632 0.74106 0.0
C686 C 0.10828 0.4932 0.51756 0.0
C687 C 0.08959 0.48321 0.5334 0.0
C688 C 0.07119 0.51162 0.46777 0.0
C689 C 0.08968 0.52232 0.45865 0.0
N690 N 0.12553 0.5248 0.48506 0.0
N691 N 0.05313 0.48443 0.53977 0.0
C692 C 0.10818 0.51353 0.48639 0.0
C693 C 0.07099 0.49285 0.5129 0.0
N694 N 0.12609 0.48298 0.52875 0.0
N695 N 0.05391 0.51915 0.43098 0.0
H696 H 0.05242 0.47103 0.57562 0.0
H697 H 0.0392 0.49169 0.53436 0.0
H698 H 0.05356 0.53273 0.39629 0.0
H699 H 0.04038 0.51109 0.42763 0.0
H700 H 0.14008 0.48864 0.50921 0.0
H701 H 0.12677 0.46812 0.55157 0.0
H702 H 0.13905 0.52012 0.51355 0.0
H703 H 0.12607 0.53955 0.46071 0.0
C704 C 0.13953 0.11604 0.94404 0.0
C705 C 0.14374 0.1366 0.92318 0.0
C706 C 0.1251 0.13297 0.78571 0.0
C707 C 0.11934 0.11296 0.81014 0.0
N708 N 0.11834 0.08658 0.91849 0.0
N709 N 0.13881 0.16549 0.82967 0.0
C710 C 0.12597 0.10472 0.8906 0.0
C711 C 0.13595 0.14532 0.84574 0.0
N712 N 0.1483 0.10733 0.01551 0.0
N713 N 0.12112 0.13989 0.70344 0.0
H714 H 0.14788 0.17474 0.86858 0.0
H715 H 0.13124 0.17337 0.78077 0.0
H716 H 0.11338 0.13151 0.65664 0.0
H717 H 0.12708 0.15328 0.6784 0.0
H718 H 0.14784 0.09185 0.02824 0.0
H719 H 0.15728 0.11529 0.05955 0.0
H720 H 0.12072 0.08075 0.98066 0.0
H721 H 0.10801 0.07809 0.88236 0.0
C722 C 0.13364 0.86013 0.1399 0.0
C723 C 0.14 0.86867 0.05975 0.0
C724 C 0.1201 0.89932 0.09054 0.0
C725 C 0.11516 0.8915 0.17393 0.0
N726 N 0.12116 0.86635 0.28568 0.0
N727 N 0.14189 0.89759 0.96375 0.0
C728 C 0.12291 0.87236 0.2007 0.0
C729 C 0.1341 0.88868 0.0368 0.0
N730 N 0.13786 0.84031 0.15819 0.0
N731 N 0.11067 0.91641 0.06083 0.0
H732 H 0.15166 0.89017 0.92113 0.0
H733 H 0.13999 0.91286 0.94896 0.0
H734 H 0.09998 0.92435 0.0974 0.0
H735 H 0.11193 0.92166 0.9971 0.0
H736 H 0.13149 0.83255 0.21051 0.0
H737 H 0.14667 0.83118 0.11771 0.0
H738 H 0.1284 0.85363 0.31087 0.0
H739 H 0.11424 0.87508 0.33371 0.0
C740 C 0.36347 0.89074 0.30206 0.0
C741 C 0.3837 0.89613 0.32394 0.0
C742 C 0.38041 0.87836 0.46377 0.0
C743 C 0.36083 0.87145 0.43873 0.0
N744 N 0.33457 0.86892 0.33046 0.0
N745 N 0.4122 0.89389 0.42142 0.0
C746 C 0.35247 0.87726 0.35728 0.0
C747 C 0.39237 0.88957 0.40359 0.0
N748 N 0.35486 0.89828 0.22779 0.0
N749 N 0.38726 0.87499 0.54665 0.0
H750 H 0.42102 0.90341 0.38269 0.0
H751 H 0.4203 0.88721 0.47201 0.0
H752 H 0.37921 0.86677 0.59303 0.0
H753 H 0.40017 0.88175 0.57244 0.0
H754 H 0.33953 0.89696 0.21318 0.0
H755 H 0.36273 0.90703 0.18258 0.0
H756 H 0.32866 0.87063 0.26805 0.0
H757 H 0.32624 0.85883 0.36851 0.0
C758 C 0.3656 0.11726 0.70192 0.0
C759 C 0.38611 0.11288 0.68104 0.0
C760 C 0.38266 0.13142 0.54327 0.0
C761 C 0.36261 0.13714 0.56716 0.0
N762 N 0.3362 0.13842 0.67526 0.0
N763 N 0.41511 0.11776 0.58815 0.0
C764 C 0.35434 0.13071 0.64788 0.0
C765 C 0.39493 0.12063 0.60373 0.0
N766 N 0.3569 0.10871 0.77396 0.0
N767 N 0.38969 0.13535 0.46111 0.0
H768 H 0.42433 0.10879 0.62758 0.0
H769 H 0.42305 0.12528 0.53924 0.0
H770 H 0.38138 0.14308 0.41404 0.0
H771 H 0.4031 0.12938 0.43645 0.0
H772 H 0.34144 0.10926 0.78688 0.0
H773 H 0.36487 0.09989 0.81854 0.0
H774 H 0.33031 0.13617 0.73742 0.0
H775 H 0.32776 0.1487 0.63864 0.0
C776 C 0.85214 0.87516 0.14317 0.0
C777 C 0.86032 0.86913 0.0617 0.0
C778 C 0.89221 0.88666 0.09646 0.0
C779 C 0.88354 0.8938 0.17513 0.0
N780 N 0.85455 0.89695 0.27006 0.0
N781 N 0.88682 0.87215 0.95351 0.0
C782 C 0.86322 0.88883 0.19706 0.0
C783 C 0.88003 0.87564 0.03642 0.0
N784 N 0.83435 0.86685 0.17153 0.0
N785 N 0.91222 0.89026 0.07936 0.0
H786 H 0.87856 0.86425 0.90682 0.0
H787 H 0.8999 0.87864 0.92801 0.0
H788 H 0.92129 0.89945 0.11853 0.0
H789 H 0.92017 0.88319 0.02928 0.0
H790 H 0.82866 0.86879 0.23422 0.0
H791 H 0.82605 0.85643 0.13506 0.0
H792 H 0.83916 0.89593 0.28398 0.0
H793 H 0.86241 0.90596 0.31436 0.0
C794 C 0.86502 0.14165 0.84528 0.0
C795 C 0.8657 0.13699 0.93533 0.0
C796 C 0.89112 0.11055 0.9073 0.0
C797 C 0.8892 0.11408 0.8166 0.0
N798 N 0.87234 0.13104 0.69747 0.0
N799 N 0.87722 0.11538 0.05203 0.0
C800 C 0.87565 0.12916 0.78505 0.0
C801 C 0.8782 0.12102 0.96641 0.0
N802 N 0.85477 0.15846 0.81762 0.0
N803 N 0.90583 0.09773 0.93711 0.0
H804 H 0.86812 0.12273 0.09752 0.0
H805 H 0.88414 0.10244 0.07681 0.0
H806 H 0.91553 0.08981 0.89569 0.0
H807 H 0.90959 0.0962 0.00265 0.0
H808 H 0.85562 0.16408 0.75436 0.0
H809 H 0.84664 0.16783 0.85973 0.0
H810 H 0.86092 0.13998 0.67087 0.0
H811 H 0.87997 0.12248 0.65094 0.0
C812 C 0.61002 0.13266 0.65141 0.0
C813 C 0.61752 0.11413 0.68552 0.0
C814 C 0.64829 0.11837 0.59782 0.0
C815 C 0.64201 0.13819 0.57363 0.0
N816 N 0.61877 0.16591 0.59727 0.0
N817 N 0.64672 0.0926 0.70909 0.0
C818 C 0.62341 0.14586 0.60632 0.0
C819 C 0.6375 0.10787 0.66399 0.0
N820 N 0.58996 0.1374 0.65874 0.0
N821 N 0.6638 0.10896 0.55509 0.0
H822 H 0.64008 0.08529 0.76201 0.0
H823 H 0.66193 0.08891 0.70043 0.0
H824 H 0.67139 0.11531 0.50228 0.0
H825 H 0.6675 0.09381 0.56568 0.0
H826 H 0.58351 0.14991 0.62806 0.0
H827 H 0.57936 0.12764 0.68653 0.0
H828 H 0.60619 0.17253 0.62677 0.0
H829 H 0.62866 0.17636 0.5693 0.0
C830 C 0.63627 0.86165 0.35801 0.0
C831 C 0.6422 0.86993 0.4392 0.0
C832 C 0.62622 0.90235 0.40051 0.0
C833 C 0.61861 0.89344 0.32288 0.0
N834 N 0.61475 0.86387 0.23083 0.0
N835 N 0.64058 0.89706 0.54428 0.0
C836 C 0.6231 0.87285 0.30268 0.0
C837 C 0.63675 0.89007 0.46198 0.0
N838 N 0.64394 0.84336 0.33219 0.0
N839 N 0.6232 0.92252 0.41608 0.0
H840 H 0.64816 0.88858 0.59131 0.0
H841 H 0.63488 0.91063 0.56856 0.0
H842 H 0.61431 0.93171 0.37625 0.0
H843 H 0.63046 0.93046 0.46567 0.0
H844 H 0.64216 0.83746 0.26975 0.0
H845 H 0.65377 0.83483 0.37073 0.0
H846 H 0.61522 0.84834 0.21938 0.0
H847 H 0.60631 0.87163 0.18431 0.0
C848 C 0.64023 0.64039 0.34485 0.0
C849 C 0.63794 0.6372 0.4356 0.0
C850 C 0.61121 0.61206 0.40756 0.0
C851 C 0.6147 0.61404 0.31689 0.0
N852 N 0.63437 0.62794 0.19848 0.0
N853 N 0.62326 0.6182 0.55433 0.0
C854 C 0.62968 0.62767 0.28526 0.0
C855 C 0.62392 0.62258 0.4673 0.0
N856 N 0.65191 0.65609 0.31564 0.0
N857 N 0.59525 0.6007 0.43647 0.0
H858 H 0.63204 0.6257 0.60046 0.0
H859 H 0.61517 0.60609 0.58034 0.0
H860 H 0.58571 0.5927 0.39461 0.0
H861 H 0.59041 0.60048 0.50103 0.0
H862 H 0.65238 0.66072 0.25083 0.0
H863 H 0.65992 0.66566 0.35735 0.0
H864 H 0.64669 0.63574 0.17274 0.0
H865 H 0.62694 0.61906 0.15248 0.0
C866 C 0.62403 0.37221 0.70058 0.0
C867 C 0.61833 0.39238 0.67818 0.0
C868 C 0.63562 0.38877 0.5372 0.0
C869 C 0.64256 0.36927 0.56255 0.0
N870 N 0.64635 0.34371 0.67298 0.0
N871 N 0.6205 0.42077 0.5796 0.0
C872 C 0.63752 0.36132 0.64543 0.0
C873 C 0.62483 0.40098 0.59811 0.0
N874 N 0.61653 0.36332 0.77436 0.0
N875 N 0.63826 0.39516 0.45314 0.0
H876 H 0.61126 0.42977 0.61875 0.0
H877 H 0.627 0.42865 0.52792 0.0
H878 H 0.64584 0.38665 0.40614 0.0
H879 H 0.63148 0.40808 0.42757 0.0
H880 H 0.61794 0.34794 0.78779 0.0
H881 H 0.60785 0.37093 0.82052 0.0
H882 H 0.64525 0.33824 0.73642 0.0
H883 H 0.65639 0.3354 0.63452 0.0
C884 C 0.87927 0.37188 0.79095 0.0
C885 C 0.88672 0.39113 0.81786 0.0
C886 C 0.86724 0.38829 0.95368 0.0
C887 C 0.86171 0.36816 0.93086 0.0
N888 N 0.86435 0.33977 0.83276 0.0
N889 N 0.89025 0.41643 0.93 0.0
C890 C 0.86839 0.35963 0.85114 0.0
C891 C 0.88126 0.39908 0.90046 0.0
N892 N 0.8815 0.36574 0.70633 0.0
N893 N 0.85914 0.39714 0.02626 0.0
H894 H 0.90086 0.42452 0.89367 0.0
H895 H 0.88865 0.42184 0.99336 0.0
H896 H 0.84939 0.38961 0.06857 0.0
H897 H 0.86078 0.41245 0.04097 0.0
H898 H 0.87447 0.35294 0.68074 0.0
H899 H 0.88867 0.37442 0.6588 0.0
H900 H 0.87101 0.33198 0.78112 0.0
H901 H 0.85534 0.33063 0.87241 0.0
C902 C 0.89245 0.61595 0.09569 0.0
C903 C 0.88361 0.60882 0.17407 0.0
C904 C 0.85213 0.62714 0.14008 0.0
C905 C 0.86059 0.63334 0.05937 0.0
N906 N 0.88747 0.63067 0.9529 0.0
N907 N 0.85448 0.60566 0.26813 0.0
C908 C 0.88042 0.62699 0.03525 0.0
C909 C 0.8632 0.61368 0.19501 0.0
N910 N 0.91248 0.61231 0.07923 0.0
N911 N 0.83402 0.63508 0.16659 0.0
H912 H 0.86238 0.59693 0.31329 0.0
H913 H 0.83908 0.60658 0.28169 0.0
H914 H 0.82566 0.64521 0.12894 0.0
H915 H 0.82799 0.63305 0.22863 0.0
H916 H 0.92058 0.61943 0.02975 0.0
H917 H 0.92144 0.60297 0.11819 0.0
H918 H 0.90065 0.62429 0.92784 0.0
H919 H 0.87936 0.63869 0.9061 0.0
C920 C 0.36191 0.36376 0.65829 0.0
C921 C 0.35654 0.37201 0.57619 0.0
C922 C 0.3757 0.40297 0.61004 0.0
C923 C 0.38069 0.39484 0.69281 0.0
N924 N 0.37341 0.37046 0.80535 0.0
N925 N 0.35419 0.40129 0.48225 0.0
C926 C 0.37233 0.37605 0.71973 0.0
C927 C 0.362 0.39226 0.55498 0.0
N928 N 0.35707 0.34414 0.67767 0.0
N929 N 0.3849 0.42033 0.58191 0.0
H930 H 0.34463 0.39388 0.43872 0.0
H931 H 0.35591 0.41664 0.46852 0.0
H932 H 0.39506 0.42854 0.6201 0.0
H933 H 0.38376 0.42572 0.51834 0.0
H934 H 0.36281 0.33649 0.73165 0.0
H935 H 0.34811 0.33511 0.63729 0.0
H936 H 0.36602 0.35785 0.83087 0.0
H937 H 0.37982 0.37971 0.85297 0.0
C938 C 0.35248 0.62894 0.35928 0.0
C939 C 0.36118 0.63539 0.43926 0.0
C940 C 0.39199 0.61583 0.40659 0.0
C941 C 0.38395 0.61082 0.32382 0.0
N942 N 0.35811 0.61535 0.21444 0.0
N943 N 0.39022 0.63689 0.53545 0.0
C944 C 0.36454 0.61797 0.29844 0.0
C945 C 0.38126 0.62947 0.46168 0.0
N946 N 0.33275 0.63348 0.34088 0.0
N947 N 0.40951 0.60683 0.43411 0.0
H948 H 0.3827 0.64569 0.58152 0.0
H949 H 0.40558 0.63531 0.54898 0.0
H950 H 0.4177 0.59668 0.39572 0.0
H951 H 0.41503 0.60794 0.49748 0.0
H952 H 0.32478 0.62705 0.28925 0.0
H953 H 0.32386 0.64281 0.3801 0.0
H954 H 0.34526 0.62227 0.18885 0.0
H955 H 0.36651 0.60764 0.16748 0.0
C956 C 0.14704 0.63089 0.13664 0.0
C957 C 0.13935 0.63566 0.05284 0.0
C958 C 0.10818 0.61677 0.0858 0.0
C959 C 0.11657 0.6107 0.16664 0.0
N960 N 0.14557 0.60878 0.26226 0.0
N961 N 0.11469 0.62903 0.93982 0.0
C962 C 0.13654 0.61668 0.18972 0.0
C963 C 0.12045 0.62753 0.02519 0.0
N964 N 0.16375 0.64076 0.16768 0.0
N965 N 0.08847 0.61227 0.06678 0.0
H966 H 0.12357 0.63588 0.89213 0.0
H967 H 0.10211 0.62162 0.9142 0.0
H968 H 0.07936 0.60343 0.10727 0.0
H969 H 0.08079 0.61839 0.01368 0.0
H970 H 0.16875 0.63957 0.23183 0.0
H971 H 0.17151 0.65174 0.13209 0.0
H972 H 0.16082 0.61089 0.27699 0.0
H973 H 0.1384 0.5986 0.30376 0.0
C974 C 0.13627 0.39857 0.84242 0.0
C975 C 0.11644 0.39209 0.81955 0.0
C976 C 0.12228 0.36039 0.89893 0.0
C977 C 0.14086 0.36811 0.9316 0.0
N978 N 0.16242 0.39742 0.95209 0.0
N979 N 0.08892 0.36871 0.84501 0.0
C980 C 0.14701 0.38802 0.90851 0.0
C981 C 0.10894 0.37353 0.85341 0.0
N982 N 0.14546 0.41404 0.79845 0.0
N983 N 0.11765 0.34033 0.90812 0.0
H984 H 0.07839 0.37843 0.81642 0.0
H985 H 0.08241 0.35619 0.87541 0.0
H986 H 0.12749 0.32991 0.93658 0.0
H987 H 0.10511 0.33367 0.87849 0.0
H988 H 0.16061 0.41787 0.80797 0.0
H989 H 0.13889 0.42147 0.7457 0.0
H990 H 0.16603 0.41262 0.94247 0.0
H991 H 0.16997 0.39093 0.0047 0.0
C992 C 0.16127 0.2646 0.0268 0.0
C993 C 0.17042 0.27509 0.09731 0.0
C994 C 0.17737 0.24292 0.17095 0.0
C995 C 0.16942 0.23229 0.0981 0.0
N996 N 0.15618 0.23258 0.9517 0.0
N997 N 0.19178 0.2742 0.22476 0.0
C998 C 0.16222 0.24302 0.02413 0.0
C999 C 0.17973 0.26425 0.16621 0.0
N1000 N 0.15088 0.2752 0.96471 0.0
N1001 N 0.18259 0.23275 0.24524 0.0
H1002 H 0.19455 0.28974 0.22184 0.0
H1003 H 0.20079 0.26682 0.27051 0.0
H1004 H 0.18201 0.21705 0.25112 0.0
H1005 H 0.18607 0.24 0.30364 0.0
H1006 H 0.14204 0.2684 0.9168 0.0
H1007 H 0.14984 0.29096 0.96484 0.0
H1008 H 0.15291 0.23948 0.89236 0.0
H1009 H 0.15561 0.21681 0.94918 0.0
C1010 C 0.98936 0.91488 0.26943 0.0
C1011 C 0.97884 0.92012 0.34699 0.0
C1012 C 0.01111 0.92677 0.42118 0.0
C1013 C 0.02164 0.9199 0.34612 0.0
N1014 N 0.02134 0.90554 0.20191 0.0
N1015 N 0.97937 0.93006 0.49867 0.0
C1016 C 0.01092 0.91362 0.27066 0.0
C1017 C 0.98964 0.92572 0.42346 0.0
N1018 N 0.97872 0.91097 0.19484 0.0
N1019 N 0.02162 0.93526 0.48887 0.0
H1020 H 0.96369 0.93157 0.50193 0.0
H1021 H 0.98627 0.93125 0.55941 0.0
H1022 H 0.03736 0.93615 0.49079 0.0
H1023 H 0.01484 0.94296 0.54032 0.0
H1024 H 0.98539 0.90936 0.13379 0.0
H1025 H 0.96296 0.91044 0.19272 0.0
H1026 H 0.01448 0.89866 0.14856 0.0
H1027 H 0.03709 0.90439 0.20079 0.0
C1028 C 0.35186 0.76333 0.59596 0.0
C1029 C 0.33326 0.77405 0.59803 0.0
C1030 C 0.31455 0.74193 0.58988 0.0
C1031 C 0.33308 0.73119 0.59837 0.0
N1032 N 0.36947 0.7313 0.61188 0.0
N1033 N 0.29677 0.77382 0.60623 0.0
C1034 C 0.35177 0.74181 0.60215 0.0
C1035 C 0.31455 0.76345 0.59627 0.0
N1036 N 0.36957 0.77374 0.58435 0.0
N1037 N 0.29686 0.73162 0.57649 0.0
H1038 H 0.29597 0.78955 0.61032 0.0
H1039 H 0.28287 0.76686 0.61723 0.0
H1040 H 0.29583 0.71588 0.57653 0.0
H1041 H 0.28333 0.73861 0.55912 0.0
H1042 H 0.38349 0.76682 0.57338 0.0
H1043 H 0.37014 0.78945 0.57782 0.0
H1044 H 0.38326 0.7381 0.62673 0.0
H1045 H 0.37028 0.71554 0.60893 0.0
C1046 C 0.49168 0.07085 0.9025 0.0
C1047 C 0.48111 0.08396 0.84501 0.0
C1048 C 0.5133 0.09736 0.78942 0.0
C1049 C 0.52383 0.08413 0.84641 0.0
N1050 N 0.52365 0.05557 0.94425 0.0
N1051 N 0.48121 0.10729 0.72441 0.0
C1052 C 0.51317 0.07009 0.89934 0.0
C1053 C 0.49175 0.09641 0.78516 0.0
N1054 N 0.48114 0.05926 0.96091 0.0
N1055 N 0.5239 0.11137 0.7422 0.0
H1056 H 0.46543 0.10742 0.72156 0.0
H1057 H 0.48797 0.11511 0.67327 0.0
H1058 H 0.53968 0.11219 0.74284 0.0
H1059 H 0.51719 0.12294 0.70644 0.0
H1060 H 0.48785 0.0514 0.01206 0.0
H1061 H 0.46538 0.0582 0.96115 0.0
H1062 H 0.51684 0.04345 0.97615 0.0
H1063 H 0.5394 0.05463 0.94406 0.0
C1064 C 0.14923 0.76373 0.91335 0.0
C1065 C 0.16799 0.77422 0.91217 0.0
C1066 C 0.18592 0.74209 0.93334 0.0
C1067 C 0.16758 0.73136 0.91944 0.0
N1068 N 0.13148 0.73179 0.89607 0.0
N1069 N 0.20447 0.77284 0.90369 0.0
C1070 C 0.14912 0.74216 0.9094 0.0
C1071 C 0.18643 0.7633 0.91849 0.0
N1072 N 0.13157 0.77436 0.92137 0.0
N1073 N 0.20295 0.73217 0.96014 0.0
H1074 H 0.20551 0.78808 0.88686 0.0
H1075 H 0.21819 0.76518 0.89813 0.0
H1076 H 0.20331 0.71675 0.97342 0.0
H1077 H 0.21615 0.73966 0.97881 0.0
H1078 H 0.11752 0.76757 0.93098 0.0
H1079 H 0.13115 0.79011 0.92665 0.0
H1080 H 0.11803 0.7387 0.87696 0.0
H1081 H 0.13048 0.71606 0.90079 0.0
C1082 C 0.49079 0.90405 0.17624 0.0
C1083 C 0.48027 0.92272 0.171 0.0
C1084 C 0.51254 0.94124 0.17384 0.0
C1085 C 0.52305 0.9225 0.16838 0.0
N1086 N 0.52264 0.88598 0.16365 0.0
N1087 N 0.48067 0.95915 0.15906 0.0
C1088 C 0.51229 0.90387 0.16953 0.0
C1089 C 0.491 0.94137 0.1697 0.0
N1090 N 0.48019 0.88658 0.19085 0.0
N1091 N 0.52311 0.95896 0.1819 0.0
H1092 H 0.46493 0.96005 0.15803 0.0
H1093 H 0.48758 0.97296 0.14551 0.0
H1094 H 0.53884 0.95981 0.17921 0.0
H1095 H 0.51642 0.97279 0.19691 0.0
H1096 H 0.48691 0.87266 0.20385 0.0
H1097 H 0.46447 0.88629 0.19764 0.0
H1098 H 0.51575 0.87205 0.15252 0.0
H1099 H 0.53839 0.88509 0.1663 0.0
C1100 C 0.35097 0.24157 0.42478 0.0
C1101 C 0.33254 0.23128 0.40766 0.0
C1102 C 0.31428 0.26365 0.40759 0.0
C1103 C 0.33301 0.27404 0.41437 0.0
N1104 N 0.36941 0.27338 0.42454 0.0
N1105 N 0.29719 0.23245 0.36882 0.0
C1106 C 0.35144 0.26312 0.4217 0.0
C1107 C 0.31426 0.24227 0.39629 0.0
N1108 N 0.36785 0.23072 0.44661 0.0
N1109 N 0.29649 0.27422 0.41081 0.0
H1110 H 0.29681 0.21694 0.35641 0.0
H1111 H 0.28396 0.23983 0.35023 0.0
H1112 H 0.29584 0.28994 0.41588 0.0
H1113 H 0.28236 0.26732 0.41553 0.0
H1114 H 0.38125 0.23729 0.46844 0.0
H1115 H 0.36798 0.21493 0.44992 0.0
H1116 H 0.38348 0.26639 0.41893 0.0
H1117 H 0.37028 0.28913 0.42817 0.0
C1118 C 0.99185 0.06937 0.59028 0.0
C1119 C 0.98154 0.08203 0.65052 0.0
C1120 C 0.01395 0.09348 0.71181 0.0
C1121 C 0.02426 0.0816 0.64862 0.0
N1122 N 0.02375 0.05854 0.52672 0.0
N1123 N 0.98184 0.10379 0.77627 0.0
C1124 C 0.01339 0.06955 0.58784 0.0
C1125 C 0.99234 0.09335 0.71389 0.0
N1126 N 0.98095 0.05653 0.53817 0.0
N1127 N 0.02488 0.10566 0.76657 0.0
H1128 H 0.96607 0.10449 0.77761 0.0
H1129 H 0.98847 0.11097 0.82938 0.0
H1130 H 0.04066 0.10598 0.76708 0.0
H1131 H 0.01857 0.11618 0.80899 0.0
H1132 H 0.98729 0.04534 0.49908 0.0
H1133 H 0.96518 0.056 0.53802 0.0
H1134 H 0.01704 0.05136 0.47379 0.0
H1135 H 0.03947 0.05712 0.52659 0.0
C1136 C 0.8509 0.74077 0.90419 0.0
C1137 C 0.83233 0.73 0.90125 0.0
C1138 C 0.81353 0.76202 0.91143 0.0
C1139 C 0.83204 0.77284 0.90381 0.0
N1140 N 0.86841 0.7729 0.88966 0.0
N1141 N 0.79585 0.73017 0.89184 0.0
C1142 C 0.85075 0.7623 0.89917 0.0
C1143 C 0.81359 0.74054 0.90327 0.0
N1144 N 0.86863 0.7304 0.9155 0.0
N1145 N 0.79582 0.77222 0.92565 0.0
H1146 H 0.79509 0.71447 0.88591 0.0
H1147 H 0.78195 0.73716 0.88117 0.0
H1148 H 0.79478 0.78795 0.92713 0.0
H1149 H 0.7823 0.7651 0.94231 0.0
H1150 H 0.88251 0.73735 0.92708 0.0
H1151 H 0.86925 0.71467 0.92123 0.0
H1152 H 0.88221 0.76618 0.87438 0.0
H1153 H 0.86916 0.78866 0.893 0.0
C1154 C 0.68222 0.24098 0.33501 0.0
C1155 C 0.6716 0.23038 0.40132 0.0
C1156 C 0.66058 0.26263 0.46559 0.0
C1157 C 0.67166 0.27317 0.40055 0.0
N1158 N 0.69675 0.27275 0.28649 0.0
N1159 N 0.65338 0.23058 0.53732 0.0
C1160 C 0.68353 0.26244 0.3389 0.0
C1161 C 0.66172 0.24106 0.46937 0.0
N1162 N 0.69092 0.23057 0.26763 0.0
N1163 N 0.64824 0.27317 0.52091 0.0
H1164 H 0.65319 0.2148 0.54017 0.0
H1165 H 0.64785 0.23744 0.59357 0.0
H1166 H 0.64716 0.28893 0.5203 0.0
H1167 H 0.63805 0.26635 0.56349 0.0
H1168 H 0.69655 0.2375 0.21173 0.0
H1169 H 0.69149 0.21481 0.26472 0.0
H1170 H 0.70749 0.26572 0.24709 0.0
H1171 H 0.69839 0.28846 0.28826 0.0
C1172 C 0.81578 0.26203 0.06799 0.0
C1173 C 0.83428 0.273 0.07126 0.0
C1174 C 0.85337 0.24109 0.07212 0.0
C1175 C 0.83488 0.23013 0.06823 0.0
N1176 N 0.79882 0.23019 0.04042 0.0
N1177 N 0.87053 0.27339 0.05519 0.0
C1178 C 0.81622 0.24061 0.05825 0.0
C1179 C 0.85305 0.26263 0.06709 0.0
N1180 N 0.79777 0.27183 0.08049 0.0
N1181 N 0.87125 0.23087 0.08104 0.0
H1182 H 0.87073 0.28913 0.04898 0.0
H1183 H 0.88454 0.26675 0.0433 0.0
H1184 H 0.8723 0.21514 0.07678 0.0
H1185 H 0.88493 0.23788 0.09601 0.0
H1186 H 0.7841 0.26434 0.09082 0.0
H1187 H 0.79652 0.28745 0.0881 0.0
H1188 H 0.78534 0.23722 0.02246 0.0
H1189 H 0.79807 0.2145 0.03583 0.0
C1190 C 0.68628 0.74089 0.57506 0.0
C1191 C 0.66787 0.72992 0.58227 0.0
C1192 C 0.64891 0.76189 0.58537 0.0
C1193 C 0.66733 0.77274 0.57524 0.0
N1194 N 0.70264 0.7722 0.53405 0.0
N1195 N 0.63144 0.72963 0.57381 0.0
C1196 C 0.68569 0.76212 0.56077 0.0
C1197 C 0.64907 0.74033 0.58143 0.0
N1198 N 0.70438 0.73136 0.58845 0.0
N1199 N 0.63125 0.7722 0.59899 0.0
H1200 H 0.63107 0.71388 0.56856 0.0
H1201 H 0.61736 0.73636 0.56447 0.0
H1202 H 0.63022 0.78793 0.59439 0.0
H1203 H 0.61782 0.76525 0.6182 0.0
H1204 H 0.71811 0.73904 0.59347 0.0
H1205 H 0.70553 0.71607 0.60428 0.0
H1206 H 0.71586 0.76485 0.51492 0.0
H1207 H 0.70286 0.78767 0.52146 0.0
C1208 C 0.51229 0.44042 0.81876 0.0
C1209 C 0.52303 0.42181 0.82405 0.0
C1210 C 0.49091 0.40309 0.81717 0.0
C1211 C 0.48023 0.42163 0.82473 0.0
N1212 N 0.48046 0.458 0.84008 0.0
N1213 N 0.52296 0.38529 0.82716 0.0
C1214 C 0.4908 0.44035 0.82601 0.0
C1215 C 0.51243 0.40309 0.82263 0.0
N1216 N 0.52257 0.45821 0.80776 0.0
N1217 N 0.48042 0.38557 0.80202 0.0
H1218 H 0.53871 0.38457 0.82334 0.0
H1219 H 0.51622 0.37127 0.83808 0.0
H1220 H 0.46469 0.38518 0.79612 0.0
H1221 H 0.48724 0.37177 0.78759 0.0
H1222 H 0.51553 0.47192 0.79351 0.0
H1223 H 0.53829 0.45917 0.80593 0.0
H1224 H 0.48746 0.47177 0.85359 0.0
H1225 H 0.46474 0.45875 0.84478 0.0
C1226 C 0.98995 0.59255 0.2678 0.0
C1227 C 0.97983 0.58101 0.33262 0.0
C1228 C 0.01236 0.57118 0.39661 0.0
C1229 C 0.02254 0.58215 0.33023 0.0
N1230 N 0.02167 0.60046 0.19469 0.0
N1231 N 0.98115 0.55553 0.44503 0.0
C1232 C 0.01151 0.5919 0.263 0.0
C1233 C 0.99098 0.56921 0.39309 0.0
N1234 N 0.97904 0.60485 0.21372 0.0
N1235 N 0.02308 0.56302 0.4643 0.0
H1236 H 0.96551 0.55342 0.44349 0.0
H1237 H 0.98859 0.54489 0.4835 0.0
H1238 H 0.03883 0.5635 0.46814 0.0
H1239 H 0.01634 0.55699 0.51987 0.0
H1240 H 0.98556 0.61532 0.17151 0.0
H1241 H 0.96327 0.6056 0.21511 0.0
H1242 H 0.01456 0.60603 0.13913 0.0
H1243 H 0.03744 0.60066 0.19075 0.0
C1244 C 0.99156 0.42511 0.56923 0.0
C1245 C 0.9811 0.41847 0.64488 0.0
C1246 C 0.0135 0.41129 0.71719 0.0
C1247 C 0.02391 0.41904 0.64341 0.0
N1248 N 0.02297 0.4373 0.50718 0.0
N1249 N 0.98164 0.40768 0.79488 0.0
C1250 C 0.01298 0.42696 0.57141 0.0
C1251 C 0.99195 0.4124 0.72033 0.0
N1252 N 0.98106 0.42967 0.49493 0.0
N1253 N 0.02418 0.40203 0.7823 0.0
H1254 H 0.96587 0.40731 0.79819 0.0
H1255 H 0.98862 0.40537 0.85486 0.0
H1256 H 0.03992 0.40083 0.78183 0.0
H1257 H 0.01746 0.39416 0.83343 0.0
H1258 H 0.98795 0.43195 0.43469 0.0
H1259 H 0.96531 0.42998 0.49154 0.0
H1260 H 0.01568 0.44555 0.45864 0.0
H1261 H 0.03861 0.43935 0.50657 0.0
C1262 C 0.49021 0.5683 0.1045 0.0
C1263 C 0.47957 0.58107 0.16304 0.0
C1264 C 0.51171 0.59223 0.22761 0.0
C1265 C 0.52227 0.58146 0.16182 0.0
N1266 N 0.52201 0.5599 0.03473 0.0
N1267 N 0.47963 0.6061 0.2773 0.0
C1268 C 0.51163 0.56963 0.09957 0.0
C1269 C 0.49015 0.59312 0.22465 0.0
N1270 N 0.47982 0.55437 0.05588 0.0
N1271 N 0.52232 0.60159 0.29266 0.0
H1272 H 0.46387 0.60696 0.27745 0.0
H1273 H 0.48645 0.61694 0.31688 0.0
H1274 H 0.5381 0.60172 0.29499 0.0
H1275 H 0.51559 0.60799 0.34747 0.0
H1276 H 0.48677 0.54309 0.01916 0.0
H1277 H 0.46411 0.55284 0.05827 0.0
H1278 H 0.51506 0.55319 0.98111 0.0
H1279 H 0.53777 0.55946 0.03154 0.0
C1280 C 0.14978 0.13103 0.38767 0.0
C1281 C 0.14032 0.13731 0.30942 0.0
C1282 C 0.10947 0.11891 0.34875 0.0
C1283 C 0.11828 0.11411 0.43048 0.0
N1284 N 0.14561 0.11811 0.53404 0.0
N1285 N 0.11072 0.13936 0.21771 0.0
C1286 C 0.13816 0.12074 0.45161 0.0
C1287 C 0.11997 0.13199 0.29087 0.0
N1288 N 0.16992 0.13479 0.40068 0.0
N1289 N 0.09163 0.11003 0.32437 0.0
H1290 H 0.11823 0.14802 0.17098 0.0
H1291 H 0.09525 0.13804 0.20597 0.0
H1292 H 0.08377 0.09985 0.36378 0.0
H1293 H 0.08552 0.1112 0.26206 0.0
H1294 H 0.17829 0.12837 0.4511 0.0
H1295 H 0.17871 0.14329 0.3577 0.0
H1296 H 0.15891 0.12482 0.55626 0.0
H1297 H 0.13777 0.11063 0.58329 0.0
C1298 C 0.11057 0.87073 0.5812 0.0
C1299 C 0.11709 0.89035 0.55587 0.0
C1300 C 0.14848 0.88539 0.63704 0.0
C1301 C 0.14057 0.86728 0.67334 0.0
N1302 N 0.11133 0.84567 0.6954 0.0
N1303 N 0.14024 0.91827 0.57868 0.0
C1304 C 0.12083 0.8607 0.64986 0.0
C1305 C 0.13548 0.89828 0.58919 0.0
N1306 N 0.09524 0.86118 0.53773 0.0
N1307 N 0.16856 0.88997 0.64502 0.0
H1308 H 0.13055 0.92865 0.54901 0.0
H1309 H 0.15271 0.92499 0.60867 0.0
H1310 H 0.17891 0.88024 0.67447 0.0
H1311 H 0.17527 0.90217 0.61306 0.0
H1312 H 0.09134 0.84613 0.54945 0.0
H1313 H 0.08806 0.86735 0.48343 0.0
H1314 H 0.09622 0.84181 0.68493 0.0
H1315 H 0.11757 0.83873 0.75007 0.0
C1316 C 0.38522 0.89795 0.85557 0.0
C1317 C 0.38886 0.88972 0.93923 0.0
C1318 C 0.37126 0.85844 0.89871 0.0
C1319 C 0.36609 0.86737 0.81751 0.0
N1320 N 0.36602 0.89649 0.72158 0.0
N1321 N 0.38332 0.86362 0.04642 0.0
C1322 C 0.3724 0.8874 0.79685 0.0
C1323 C 0.3815 0.87028 0.96233 0.0
N1324 N 0.39467 0.91549 0.83114 0.0
N1325 N 0.36616 0.83875 0.91557 0.0
H1326 H 0.39072 0.87185 0.0949 0.0
H1327 H 0.37621 0.85069 0.07025 0.0
H1328 H 0.35719 0.83003 0.87413 0.0
H1329 H 0.3717 0.83062 0.96855 0.0
H1330 H 0.39454 0.92111 0.76777 0.0
H1331 H 0.40424 0.9236 0.87249 0.0
H1332 H 0.36796 0.91184 0.70859 0.0
H1333 H 0.35764 0.88911 0.67367 0.0
C1334 C 0.37944 0.13463 0.04198 0.0
C1335 C 0.38608 0.11481 0.06332 0.0
C1336 C 0.37041 0.11742 0.20735 0.0
C1337 C 0.36264 0.13676 0.18406 0.0
N1338 N 0.35632 0.16212 0.07428 0.0
N1339 N 0.38585 0.086 0.15984 0.0
C1340 C 0.36631 0.145 0.10014 0.0
C1341 C 0.38088 0.10578 0.14397 0.0
N1342 N 0.3856 0.14349 0.96589 0.0
N1343 N 0.36869 0.11057 0.29117 0.0
H1344 H 0.3946 0.07731 0.11739 0.0
H1345 H 0.38023 0.07775 0.21236 0.0
H1346 H 0.36105 0.11841 0.34001 0.0
H1347 H 0.37622 0.09785 0.31466 0.0
H1348 H 0.3833 0.15872 0.95145 0.0
H1349 H 0.3942 0.13596 0.919 0.0
H1350 H 0.35663 0.1677 0.01086 0.0
H1351 H 0.34609 0.16982 0.11405 0.0
C1352 C 0.87691 0.87037 0.53902 0.0
C1353 C 0.88421 0.88984 0.56219 0.0
C1354 C 0.86879 0.88714 0.7068 0.0
C1355 C 0.86158 0.86752 0.68406 0.0
N1356 N 0.85562 0.84165 0.57611 0.0
N1357 N 0.88966 0.91612 0.66832 0.0
C1358 C 0.86495 0.85934 0.59972 0.0
C1359 C 0.88071 0.89814 0.64594 0.0
N1360 N 0.88166 0.8624 0.45921 0.0
N1361 N 0.86395 0.89537 0.78601 0.0
H1362 H 0.89831 0.92467 0.62496 0.0
H1363 H 0.88975 0.92212 0.73096 0.0
H1364 H 0.8563 0.88751 0.83475 0.0
H1365 H 0.86657 0.91038 0.803 0.0
H1366 H 0.8789 0.84748 0.44116 0.0
H1367 H 0.88944 0.87048 0.41135 0.0
H1368 H 0.85568 0.83574 0.51332 0.0
H1369 H 0.84636 0.83337 0.61807 0.0
C1370 C 0.8834 0.14159 0.33807 0.0
C1371 C 0.86322 0.13602 0.31702 0.0
C1372 C 0.86724 0.10512 0.40298 0.0
C1373 C 0.8861 0.11232 0.43469 0.0
N1374 N 0.90884 0.14093 0.4504 0.0
N1375 N 0.83426 0.1149 0.35028 0.0
C1376 C 0.89329 0.13159 0.40765 0.0
C1377 C 0.85459 0.11849 0.35558 0.0
N1378 N 0.89366 0.15558 0.28957 0.0
N1379 N 0.86167 0.08537 0.41446 0.0
H1380 H 0.82414 0.12503 0.32173 0.0
H1381 H 0.82721 0.1031 0.38374 0.0
H1382 H 0.8711 0.07461 0.44313 0.0
H1383 H 0.84876 0.07919 0.38584 0.0
H1384 H 0.90898 0.15868 0.29921 0.0
H1385 H 0.8878 0.16216 0.23329 0.0
H1386 H 0.91329 0.15574 0.43647 0.0
H1387 H 0.91553 0.13508 0.50647 0.0
C1388 C 0.64965 0.13344 0.0983 0.0
C1389 C 0.64427 0.1327 0.18754 0.0
C1390 C 0.6175 0.10812 0.1559 0.0
C1391 C 0.6215 0.1105 0.0658 0.0
N1392 N 0.63967 0.12695 0.94897 0.0
N1393 N 0.62206 0.12116 0.30216 0.0
C1394 C 0.63721 0.12347 0.03622 0.0
C1395 C 0.62797 0.12046 0.21677 0.0
N1396 N 0.66694 0.14325 0.07334 0.0
N1397 N 0.6042 0.09356 0.1833 0.0
H1398 H 0.62966 0.12961 0.34927 0.0
H1399 H 0.60883 0.11451 0.32538 0.0
H1400 H 0.59633 0.08416 0.1404 0.0
H1401 H 0.60222 0.08958 0.24837 0.0
H1402 H 0.67292 0.14248 0.01066 0.0
H1403 H 0.67632 0.15085 0.11725 0.0
H1404 H 0.64929 0.13798 0.92383 0.0
H1405 H 0.63094 0.1199 0.9012 0.0
C1406 C 0.61492 0.86815 0.80538 0.0
C1407 C 0.63509 0.86223 0.82439 0.0
C1408 C 0.63286 0.87806 0.96835 0.0
C1409 C 0.61348 0.88577 0.94589 0.0
N1410 N 0.58692 0.8905 0.83997 0.0
N1411 N 0.66404 0.8623 0.92016 0.0
C1412 C 0.60458 0.88124 0.864 0.0
C1413 C 0.64427 0.86739 0.90488 0.0
N1414 N 0.60576 0.86149 0.73074 0.0
N1415 N 0.64005 0.8803 0.05143 0.0
H1416 H 0.67247 0.85314 0.87835 0.0
H1417 H 0.67247 0.86798 0.97198 0.0
H1418 H 0.63234 0.8882 0.09987 0.0
H1419 H 0.65289 0.87296 0.07489 0.0
H1420 H 0.59039 0.8633 0.71797 0.0
H1421 H 0.61318 0.85288 0.68361 0.0
H1422 H 0.58082 0.88969 0.77753 0.0
H1423 H 0.57904 0.90046 0.88033 0.0
C1424 C 0.61169 0.63206 0.91306 0.0
C1425 C 0.61724 0.61184 0.93341 0.0
C1426 C 0.64817 0.61598 0.848 0.0
C1427 C 0.64105 0.63494 0.81702 0.0
N1428 N 0.61249 0.65778 0.80197 0.0
N1429 N 0.63839 0.58293 0.90026 0.0
C1430 C 0.62178 0.64212 0.8442 0.0
C1431 C 0.6348 0.60327 0.89505 0.0
N1432 N 0.59754 0.64213 0.96145 0.0
N1433 N 0.66786 0.61035 0.83601 0.0
H1434 H 0.62827 0.57283 0.92899 0.0
H1435 H 0.65017 0.57587 0.86677 0.0
H1436 H 0.67857 0.61976 0.80715 0.0
H1437 H 0.67404 0.59739 0.86423 0.0
H1438 H 0.59445 0.65748 0.95264 0.0
H1439 H 0.59076 0.63602 0.01682 0.0
H1440 H 0.59769 0.66221 0.81589 0.0
H1441 H 0.61836 0.6646 0.74624 0.0
C1442 C 0.61708 0.37056 0.19893 0.0
C1443 C 0.6371 0.36443 0.17808 0.0
C1444 C 0.63412 0.3797 0.03331 0.0
C1445 C 0.61477 0.38735 0.05679 0.0
N1446 N 0.58883 0.39266 0.16504 0.0
N1447 N 0.6656 0.36427 0.07982 0.0
C1448 C 0.60638 0.3833 0.14012 0.0
C1449 C 0.64589 0.36934 0.09652 0.0
N1450 N 0.60841 0.36442 0.27545 0.0
N1451 N 0.64094 0.38165 0.9495 0.0
H1452 H 0.6743 0.35535 0.12154 0.0
H1453 H 0.67376 0.36979 0.02689 0.0
H1454 H 0.63302 0.38938 0.90119 0.0
H1455 H 0.65369 0.37428 0.92546 0.0
H1456 H 0.59313 0.36631 0.28986 0.0
H1457 H 0.61616 0.35623 0.32296 0.0
H1458 H 0.58309 0.39221 0.22815 0.0
H1459 H 0.58073 0.40239 0.12449 0.0
C1460 C 0.89368 0.36983 0.40579 0.0
C1461 C 0.88644 0.38897 0.43411 0.0
C1462 C 0.85489 0.38311 0.35508 0.0
C1463 C 0.86343 0.36565 0.31571 0.0
N1464 N 0.89341 0.34544 0.28878 0.0
N1465 N 0.862 0.41598 0.41639 0.0
C1466 C 0.88353 0.35979 0.33678 0.0
C1467 C 0.86756 0.39628 0.40326 0.0
N1468 N 0.90959 0.36068 0.44684 0.0
N1469 N 0.83457 0.3868 0.34968 0.0
H1470 H 0.87141 0.42661 0.44617 0.0
H1471 H 0.8491 0.42229 0.38828 0.0
H1472 H 0.82444 0.37683 0.32013 0.0
H1473 H 0.82753 0.3985 0.38384 0.0
H1474 H 0.91408 0.3459 0.43293 0.0
H1475 H 0.91674 0.3668 0.50135 0.0
H1476 H 0.90872 0.34216 0.29749 0.0
H1477 H 0.88717 0.33852 0.234 0.0
C1478 C 0.87222 0.61691 0.70218 0.0
C1479 C 0.86519 0.63662 0.68028 0.0
C1480 C 0.87967 0.63335 0.53387 0.0
C1481 C 0.88779 0.6143 0.55805 0.0
N1482 N 0.89494 0.5892 0.66758 0.0
N1483 N 0.86361 0.66462 0.5792 0.0
C1484 C 0.88491 0.60639 0.64284 0.0
C1485 C 0.86948 0.64522 0.59749 0.0
N1486 N 0.86663 0.60809 0.7792 0.0
N1487 N 0.88074 0.63958 0.44892 0.0
H1488 H 0.85464 0.67329 0.62085 0.0
H1489 H 0.86849 0.67261 0.52462 0.0
H1490 H 0.88809 0.6313 0.40044 0.0
H1491 H 0.87307 0.65212 0.42461 0.0
H1492 H 0.86913 0.59289 0.79367 0.0
H1493 H 0.85834 0.6155 0.82728 0.0
H1494 H 0.89539 0.58389 0.73141 0.0
H1495 H 0.90435 0.58106 0.62566 0.0
C1496 C 0.37608 0.35488 0.11427 0.0
C1497 C 0.3718 0.36345 0.19699 0.0
C1498 C 0.39039 0.39418 0.15821 0.0
C1499 C 0.39484 0.38556 0.07584 0.0
N1500 N 0.39685 0.3559 0.98421 0.0
N1501 N 0.37998 0.3881 0.30724 0.0
C1502 C 0.38939 0.36525 0.05689 0.0
C1503 C 0.38047 0.38221 0.22187 0.0
N1504 N 0.36652 0.33752 0.08836 0.0
N1505 N 0.39555 0.41383 0.17544 0.0
H1506 H 0.37384 0.37901 0.35613 0.0
H1507 H 0.38754 0.40079 0.33105 0.0
H1508 H 0.40414 0.42264 0.13284 0.0
H1509 H 0.39045 0.4217 0.23003 0.0
H1510 H 0.36724 0.3319 0.02502 0.0
H1511 H 0.35649 0.32956 0.12805 0.0
H1512 H 0.39497 0.34051 0.97168 0.0
H1513 H 0.40644 0.36308 0.94002 0.0
C1514 C 0.38263 0.63576 0.96071 0.0
C1515 C 0.38866 0.61571 0.93959 0.0
C1516 C 0.37359 0.61893 0.79453 0.0
C1517 C 0.36606 0.63833 0.8182 0.0
N1518 N 0.3608 0.66422 0.92676 0.0
N1519 N 0.38873 0.58728 0.84085 0.0
C1520 C 0.37006 0.64661 0.90178 0.0
C1521 C 0.38378 0.60702 0.85776 0.0
N1522 N 0.38873 0.64432 0.03756 0.0
N1523 N 0.37169 0.61222 0.71054 0.0
H1524 H 0.39749 0.57847 0.88273 0.0
H1525 H 0.38325 0.57921 0.78755 0.0
H1526 H 0.3641 0.62028 0.66222 0.0
H1527 H 0.37897 0.59942 0.68641 0.0
H1528 H 0.38692 0.6596 0.05222 0.0
H1529 H 0.39677 0.63645 0.08518 0.0
H1530 H 0.36121 0.66991 0.98998 0.0
H1531 H 0.35122 0.67245 0.88606 0.0
C1532 C 0.1471 0.6213 0.63391 0.0
C1533 C 0.13821 0.63829 0.67562 0.0
C1534 C 0.10744 0.63319 0.58975 0.0
C1535 C 0.11528 0.61451 0.55844 0.0
N1536 N 0.14072 0.58832 0.57251 0.0
N1537 N 0.10766 0.65704 0.70898 0.0
C1538 C 0.13458 0.6078 0.58689 0.0
C1539 C 0.11771 0.64333 0.65822 0.0
N1540 N 0.16757 0.61841 0.63595 0.0
N1541 N 0.09085 0.64187 0.55196 0.0
H1542 H 0.11412 0.66402 0.76313 0.0
H1543 H 0.09216 0.65966 0.7031 0.0
H1544 H 0.08352 0.63579 0.49787 0.0
H1545 H 0.08585 0.65637 0.56815 0.0
H1546 H 0.17477 0.60709 0.60013 0.0
H1547 H 0.17753 0.62875 0.66429 0.0
H1548 H 0.15405 0.58245 0.59863 0.0
H1549 H 0.13143 0.57738 0.54425 0.0
C1550 C 0.1332 0.38902 0.28469 0.0
C1551 C 0.14603 0.37315 0.31394 0.0
C1552 C 0.13543 0.37896 0.46465 0.0
C1553 C 0.12325 0.39533 0.43574 0.0
N1554 N 0.11333 0.41861 0.32284 0.0
N1555 N 0.16255 0.35544 0.43137 0.0
C1556 C 0.12299 0.40118 0.34703 0.0
C1557 C 0.14807 0.3688 0.40392 0.0
N1558 N 0.12997 0.39181 0.19745 0.0
N1559 N 0.13441 0.37272 0.54951 0.0
H1560 H 0.17221 0.34787 0.38856 0.0
H1561 H 0.16623 0.35316 0.49658 0.0
H1562 H 0.1258 0.38014 0.59659 0.0
H1563 H 0.14099 0.3594 0.57222 0.0
H1564 H 0.11904 0.40156 0.17247 0.0
H1565 H 0.13711 0.38325 0.14937 0.0
H1566 H 0.11444 0.42492 0.26084 0.0
H1567 H 0.10554 0.42778 0.36696 0.0
loop_
_geom_bond_atom_site_label_1
_geom_bond_atom_site_label_2
_geom_bond_distance
_geom_bond_site_symmetry_2
_ccdc_geom_bond_type
In0 O1 2.294 . S
In0 O2 2.326 . S
In0 O6 2.266 . S
In0 O7 2.326 . S
In0 O8 2.266 . S
In0 O9 2.326 . S
In0 O11 2.294 . S
In0 O12 2.326 . S
O1 In0 2.294 . S
O1 C10 1.241 . S
O2 In0 2.326 . S
O2 C10 1.261 . S
C3 O6 1.252 . S
C3 O7 1.260 . S
C4 O11 1.240 . S
C4 O12 1.252 . S
C5 O8 1.252 . S
C5 O9 1.260 . S
O6 In0 2.266 . S
O6 C3 1.252 . S
O7 In0 2.326 . S
O7 C3 1.260 . S
O8 In0 2.266 . S
O8 C5 1.252 . S
O9 In0 2.326 . S
O9 C5 1.260 . S
C10 O1 1.241 . S
C10 O2 1.261 . S
O11 In0 2.294 . S
O11 C4 1.240 . S
O12 In0 2.326 . S
O12 C4 1.252 . S
In13 O14 2.294 . S
In13 O15 2.326 . S
In13 O19 2.266 . S
In13 O20 2.326 . S
In13 O21 2.266 . S
In13 O22 2.326 . S
In13 O24 2.294 . S
In13 O25 2.326 . S
O14 In13 2.294 . S
O14 C23 1.240 . S
O15 In13 2.326 . S
O15 C23 1.252 . S
C16 O19 1.252 . S
C16 O20 1.260 . S
C17 O24 1.240 . S
C17 O25 1.252 . S
C18 O21 1.252 . S
C18 O22 1.260 . S
O19 In13 2.266 . S
O19 C16 1.252 . S
O20 In13 2.326 . S
O20 C16 1.260 . S
O21 In13 2.266 . S
O21 C18 1.252 . S
O22 In13 2.326 . S
O22 C18 1.260 . S
C23 O14 1.240 . S
C23 O15 1.252 . S
O24 In13 2.294 . S
O24 C17 1.240 . S
O25 In13 2.326 . S
O25 C17 1.252 . S
In26 O27 2.294 . S
In26 O28 2.326 . S
In26 O32 2.266 . S
In26 O33 2.326 . S
In26 O34 2.266 . S
In26 O35 2.326 . S
In26 O37 2.294 . S
In26 O38 2.326 . S
O27 In26 2.294 . S
O27 C36 1.240 . S
O28 In26 2.326 . S
O28 C36 1.252 . S
C29 O32 1.252 . S
C29 O33 1.260 . S
C30 O37 1.240 . S
C30 O38 1.252 . S
C31 O34 1.252 . S
C31 O35 1.260 . S
O32 In26 2.266 . S
O32 C29 1.252 . S
O33 In26 2.326 . S
O33 C29 1.260 . S
O34 In26 2.266 . S
O34 C31 1.252 . S
O35 In26 2.326 . S
O35 C31 1.260 . S
C36 O27 1.240 . S
C36 O28 1.252 . S
O37 In26 2.294 . S
O37 C30 1.240 . S
O38 In26 2.326 . S
O38 C30 1.252 . S
In39 O40 2.294 . S
In39 O41 2.326 . S
In39 O45 2.266 . S
In39 O46 2.326 . S
In39 O47 2.266 . S
In39 O48 2.326 . S
In39 O50 2.294 . S
In39 O51 2.326 . S
O40 In39 2.294 . S
O40 C49 1.240 . S
O41 In39 2.326 . S
O41 C49 1.252 . S
C42 O45 1.252 . S
C42 O46 1.260 . S
C43 O50 1.240 . S
C43 O51 1.252 . S
C44 O47 1.252 . S
C44 O48 1.260 . S
O45 In39 2.266 . S
O45 C42 1.252 . S
O46 In39 2.326 . S
O46 C42 1.260 . S
O47 In39 2.266 . S
O47 C44 1.252 . S
O48 In39 2.326 . S
O48 C44 1.260 . S
C49 O40 1.240 . S
C49 O41 1.252 . S
O50 In39 2.294 . S
O50 C43 1.240 . S
O51 In39 2.326 . S
O51 C43 1.252 . S
In52 O53 2.294 . S
In52 O54 2.326 . S
In52 O58 2.266 . S
In52 O59 2.326 . S
In52 O60 2.266 . S
In52 O61 2.326 . S
In52 O63 2.294 . S
In52 O64 2.326 . S
O53 In52 2.294 . S
O53 C62 1.240 . S
O54 In52 2.326 . S
O54 C62 1.252 . S
C55 O58 1.252 . S
C55 O59 1.260 . S
C56 O63 1.241 . S
C56 O64 1.261 . S
C57 O60 1.252 . S
C57 O61 1.260 . S
O58 In52 2.266 . S
O58 C55 1.252 . S
O59 In52 2.326 . S
O59 C55 1.260 . S
O60 In52 2.266 . S
O60 C57 1.252 . S
O61 In52 2.326 . S
O61 C57 1.260 . S
C62 O53 1.240 . S
C62 O54 1.252 . S
O63 In52 2.294 . S
O63 C56 1.241 . S
O64 In52 2.326 . S
O64 C56 1.261 . S
In65 O66 2.294 . S
In65 O67 2.326 . S
In65 O71 2.266 . S
In65 O72 2.326 . S
In65 O73 2.266 . S
In65 O74 2.326 . S
In65 O76 2.294 . S
In65 O77 2.326 . S
O66 In65 2.294 . S
O66 C75 1.240 . S
O67 In65 2.326 . S
O67 C75 1.252 . S
C68 O71 1.252 . S
C68 O72 1.260 . S
C69 O76 1.240 . S
C69 O77 1.252 . S
C70 O73 1.252 . S
C70 O74 1.260 . S
O71 In65 2.266 . S
O71 C68 1.252 . S
O72 In65 2.326 . S
O72 C68 1.260 . S
O73 In65 2.266 . S
O73 C70 1.252 . S
O74 In65 2.326 . S
O74 C70 1.260 . S
C75 O66 1.240 . S
C75 O67 1.252 . S
O76 In65 2.294 . S
O76 C69 1.240 . S
O77 In65 2.326 . S
O77 C69 1.252 . S
In78 O79 2.294 . S
In78 O80 2.326 . S
In78 O84 2.266 . S
In78 O85 2.326 . S
In78 O86 2.266 . S
In78 O87 2.326 . S
In78 O89 2.294 . S
In78 O90 2.326 . S
O79 In78 2.294 . S
O79 C88 1.240 . S
O80 In78 2.326 . S
O80 C88 1.252 . S
C81 O84 1.252 . S
C81 O85 1.260 . S
C82 O89 1.240 . S
C82 O90 1.252 . S
C83 O86 1.252 . S
C83 O87 1.260 . S
O84 In78 2.266 . S
O84 C81 1.252 . S
O85 In78 2.326 . S
O85 C81 1.260 . S
O86 In78 2.266 . S
O86 C83 1.252 . S
O87 In78 2.326 . S
O87 C83 1.260 . S
C88 O79 1.240 . S
C88 O80 1.252 . S
O89 In78 2.294 . S
O89 C82 1.240 . S
O90 In78 2.326 . S
O90 C82 1.252 . S
In91 O92 2.294 . S
In91 O93 2.326 . S
In91 O97 2.266 . S
In91 O98 2.326 . S
In91 O99 2.266 . S
In91 O100 2.326 . S
In91 O102 2.294 . S
In91 O103 2.326 . S
O92 In91 2.294 . S
O92 C101 1.240 . S
O93 In91 2.326 . S
O93 C101 1.252 . S
C94 O97 1.252 . S
C94 O98 1.260 . S
C95 O102 1.240 . S
C95 O103 1.252 . S
C96 O99 1.252 . S
C96 O100 1.260 . S
O97 In91 2.266 . S
O97 C94 1.252 . S
O98 In91 2.326 . S
O98 C94 1.260 . S
O99 In91 2.266 . S
O99 C96 1.252 . S
O100 In91 2.326 . S
O100 C96 1.260 . S
C101 O92 1.240 . S
C101 O93 1.252 . S
O102 In91 2.294 . S
O102 C95 1.240 . S
O103 In91 2.326 . S
O103 C95 1.252 . S
In104 O105 2.294 . S
In104 O106 2.326 . S
In104 O110 2.266 . S
In104 O111 2.326 . S
In104 O112 2.266 . S
In104 O113 2.326 . S
In104 O115 2.294 . S
In104 O116 2.326 . S
O105 In104 2.294 . S
O105 C114 1.241 . S
O106 In104 2.326 . S
O106 C114 1.261 . S
C107 O110 1.252 . S
C107 O111 1.260 . S
C108 O115 1.240 . S
C108 O116 1.252 . S
C109 O112 1.252 . S
C109 O113 1.260 . S
O110 In104 2.266 . S
O110 C107 1.252 . S
O111 In104 2.326 . S
O111 C107 1.260 . S
O112 In104 2.266 . S
O112 C109 1.252 . S
O113 In104 2.326 . S
O113 C109 1.260 . S
C114 O105 1.241 . S
C114 O106 1.261 . S
O115 In104 2.294 . S
O115 C108 1.240 . S
O116 In104 2.326 . S
O116 C108 1.252 . S
In117 O118 2.294 . S
In117 O119 2.326 . S
In117 O123 2.266 . S
In117 O124 2.326 . S
In117 O125 2.266 . S
In117 O126 2.326 . S
In117 O128 2.294 . S
In117 O129 2.326 . S
O118 In117 2.294 . S
O118 C127 1.240 . S
O119 In117 2.326 . S
O119 C127 1.252 . S
C120 O123 1.252 . S
C120 O124 1.260 . S
C121 O128 1.240 . S
C121 O129 1.252 . S
C122 O125 1.252 . S
C122 O126 1.260 . S
O123 In117 2.266 . S
O123 C120 1.252 . S
O124 In117 2.326 . S
O124 C120 1.260 . S
O125 In117 2.266 . S
O125 C122 1.252 . S
O126 In117 2.326 . S
O126 C122 1.260 . S
C127 O118 1.240 . S
C127 O119 1.252 . S
O128 In117 2.294 . S
O128 C121 1.240 . S
O129 In117 2.326 . S
O129 C121 1.252 . S
In130 O131 2.294 . S
In130 O132 2.326 . S
In130 O136 2.266 . S
In130 O137 2.326 . S
In130 O138 2.266 . S
In130 O139 2.326 . S
In130 O141 2.294 . S
In130 O142 2.326 . S
O131 In130 2.294 . S
O131 C140 1.240 . S
O132 In130 2.326 . S
O132 C140 1.252 . S
C133 O136 1.252 . S
C133 O137 1.260 . S
C134 O141 1.240 . S
C134 O142 1.252 . S
C135 O138 1.252 . S
C135 O139 1.260 . S
O136 In130 2.266 . S
O136 C133 1.252 . S
O137 In130 2.326 . S
O137 C133 1.260 . S
O138 In130 2.266 . S
O138 C135 1.252 . S
O139 In130 2.326 . S
O139 C135 1.260 . S
C140 O131 1.240 . S
C140 O132 1.252 . S
O141 In130 2.294 . S
O141 C134 1.240 . S
O142 In130 2.326 . S
O142 C134 1.252 . S
In143 O144 2.294 . S
In143 O145 2.326 . S
In143 O149 2.266 . S
In143 O150 2.326 . S
In143 O151 2.266 . S
In143 O152 2.326 . S
In143 O154 2.294 . S
In143 O155 2.326 . S
O144 In143 2.294 . S
O144 C153 1.240 . S
O145 In143 2.326 . S
O145 C153 1.252 . S
C146 O149 1.252 . S
C146 O150 1.260 . S
C147 O154 1.240 . S
C147 O155 1.252 . S
C148 O151 1.252 . S
C148 O152 1.260 . S
O149 In143 2.266 . S
O149 C146 1.252 . S
O150 In143 2.326 . S
O150 C146 1.260 . S
O151 In143 2.266 . S
O151 C148 1.252 . S
O152 In143 2.326 . S
O152 C148 1.260 . S
C153 O144 1.240 . S
C153 O145 1.252 . S
O154 In143 2.294 . S
O154 C147 1.240 . S
O155 In143 2.326 . S
O155 C147 1.252 . S
In156 O157 2.294 . S
In156 O158 2.326 . S
In156 O162 2.266 . S
In156 O163 2.326 . S
In156 O164 2.266 . S
In156 O165 2.326 . S
In156 O167 2.294 . S
In156 O168 2.326 . S
O157 In156 2.294 . S
O157 C166 1.240 . S
O158 In156 2.326 . S
O158 C166 1.252 . S
C159 O162 1.252 . S
C159 O163 1.260 . S
C160 O167 1.241 . S
C160 O168 1.261 . S
C161 O164 1.252 . S
C161 O165 1.260 . S
O162 In156 2.266 . S
O162 C159 1.252 . S
O163 In156 2.326 . S
O163 C159 1.260 . S
O164 In156 2.266 . S
O164 C161 1.252 . S
O165 In156 2.326 . S
O165 C161 1.260 . S
C166 O157 1.240 . S
C166 O158 1.252 . S
O167 In156 2.294 . S
O167 C160 1.241 . S
O168 In156 2.326 . S
O168 C160 1.261 . S
In169 O170 2.294 . S
In169 O171 2.326 . S
In169 O175 2.266 . S
In169 O176 2.326 . S
In169 O177 2.266 . S
In169 O178 2.326 . S
In169 O180 2.294 . S
In169 O181 2.326 . S
O170 In169 2.294 . S
O170 C179 1.240 . S
O171 In169 2.326 . S
O171 C179 1.252 . S
C172 O175 1.252 . S
C172 O176 1.260 . S
C173 O180 1.240 . S
C173 O181 1.252 . S
C174 O177 1.252 . S
C174 O178 1.260 . S
O175 In169 2.266 . S
O175 C172 1.252 . S
O176 In169 2.326 . S
O176 C172 1.260 . S
O177 In169 2.266 . S
O177 C174 1.252 . S
O178 In169 2.326 . S
O178 C174 1.260 . S
C179 O170 1.240 . S
C179 O171 1.252 . S
O180 In169 2.294 . S
O180 C173 1.240 . S
O181 In169 2.326 . S
O181 C173 1.252 . S
In182 O183 2.294 . S
In182 O184 2.326 . S
In182 O188 2.266 . S
In182 O189 2.326 . S
In182 O190 2.266 . S
In182 O191 2.326 . S
In182 O193 2.294 . S
In182 O194 2.326 . S
O183 In182 2.294 . S
O183 C192 1.240 . S
O184 In182 2.326 . S
O184 C192 1.252 . S
C185 O188 1.252 . S
C185 O189 1.260 . S
C186 O193 1.240 . S
C186 O194 1.252 . S
C187 O190 1.252 . S
C187 O191 1.260 . S
O188 In182 2.266 . S
O188 C185 1.252 . S
O189 In182 2.326 . S
O189 C185 1.260 . S
O190 In182 2.266 . S
O190 C187 1.252 . S
O191 In182 2.326 . S
O191 C187 1.260 . S
C192 O183 1.240 . S
C192 O184 1.252 . S
O193 In182 2.294 . S
O193 C186 1.240 . S
O194 In182 2.326 . S
O194 C186 1.252 . S
In195 O196 2.294 . S
In195 O197 2.326 . S
In195 O201 2.266 . S
In195 O202 2.326 . S
In195 O203 2.266 . S
In195 O204 2.326 . S
In195 O206 2.294 . S
In195 O207 2.326 . S
O196 In195 2.294 . S
O196 C205 1.240 . S
O197 In195 2.326 . S
O197 C205 1.252 . S
C198 O201 1.252 . S
C198 O202 1.260 . S
C199 O206 1.240 . S
C199 O207 1.252 . S
C200 O203 1.252 . S
C200 O204 1.260 . S
O201 In195 2.266 . S
O201 C198 1.252 . S
O202 In195 2.326 . S
O202 C198 1.260 . S
O203 In195 2.266 . S
O203 C200 1.252 . S
O204 In195 2.326 . S
O204 C200 1.260 . S
C205 O196 1.240 . S
C205 O197 1.252 . S
O206 In195 2.294 . S
O206 C199 1.240 . S
O207 In195 2.326 . S
O207 C199 1.252 . S
In208 O209 2.294 . S
In208 O210 2.326 . S
In208 O214 2.266 . S
In208 O215 2.326 . S
In208 O216 2.266 . S
In208 O217 2.326 . S
In208 O219 2.294 . S
In208 O220 2.326 . S
O209 In208 2.294 . S
O209 C218 1.240 . S
O210 In208 2.326 . S
O210 C218 1.252 . S
C211 O214 1.252 . S
C211 O215 1.260 . S
C212 O219 1.240 . S
C212 O220 1.252 . S
C213 O216 1.252 . S
C213 O217 1.260 . S
O214 In208 2.266 . S
O214 C211 1.252 . S
O215 In208 2.326 . S
O215 C211 1.260 . S
O216 In208 2.266 . S
O216 C213 1.252 . S
O217 In208 2.326 . S
O217 C213 1.260 . S
C218 O209 1.240 . S
C218 O210 1.252 . S
O219 In208 2.294 . S
O219 C212 1.240 . S
O220 In208 2.326 . S
O220 C212 1.252 . S
In221 O222 2.294 . S
In221 O223 2.326 . S
In221 O227 2.266 . S
In221 O228 2.326 . S
In221 O229 2.266 . S
In221 O230 2.326 . S
In221 O232 2.294 . S
In221 O233 2.326 . S
O222 In221 2.294 . S
O222 C231 1.240 . S
O223 In221 2.326 . S
O223 C231 1.252 . S
C224 O227 1.252 . S
C224 O228 1.260 . S
C225 O232 1.240 . S
C225 O233 1.252 . S
C226 O229 1.252 . S
C226 O230 1.260 . S
O227 In221 2.266 . S
O227 C224 1.252 . S
O228 In221 2.326 . S
O228 C224 1.260 . S
O229 In221 2.266 . S
O229 C226 1.252 . S
O230 In221 2.326 . S
O230 C226 1.260 . S
C231 O222 1.240 . S
C231 O223 1.252 . S
O232 In221 2.294 . S
O232 C225 1.240 . S
O233 In221 2.326 . S
O233 C225 1.252 . S
In234 O235 2.294 . S
In234 O236 2.326 . S
In234 O240 2.266 . S
In234 O241 2.326 . S
In234 O242 2.266 . S
In234 O243 2.326 . S
In234 O245 2.294 . S
In234 O246 2.326 . S
O235 In234 2.294 . S
O235 C244 1.240 . S
O236 In234 2.326 . S
O236 C244 1.252 . S
C237 O240 1.252 . S
C237 O241 1.260 . S
C238 O245 1.241 . S
C238 O246 1.261 . S
C239 O242 1.252 . S
C239 O243 1.260 . S
O240 In234 2.266 . S
O240 C237 1.252 . S
O241 In234 2.326 . S
O241 C237 1.260 . S
O242 In234 2.266 . S
O242 C239 1.252 . S
O243 In234 2.326 . S
O243 C239 1.260 . S
C244 O235 1.240 . S
C244 O236 1.252 . S
O245 In234 2.294 . S
O245 C238 1.241 . S
O246 In234 2.326 . S
O246 C238 1.261 . S
In247 O248 2.294 . S
In247 O249 2.326 . S
In247 O253 2.266 . S
In247 O254 2.326 . S
In247 O255 2.266 . S
In247 O256 2.326 . S
In247 O258 2.294 . S
In247 O259 2.326 . S
O248 In247 2.294 . S
O248 C257 1.240 . S
O249 In247 2.326 . S
O249 C257 1.252 . S
C250 O253 1.252 . S
C250 O254 1.260 . S
C251 O258 1.240 . S
C251 O259 1.252 . S
C252 O255 1.252 . S
C252 O256 1.260 . S
O253 In247 2.266 . S
O253 C250 1.252 . S
O254 In247 2.326 . S
O254 C250 1.260 . S
O255 In247 2.266 . S
O255 C252 1.252 . S
O256 In247 2.326 . S
O256 C252 1.260 . S
C257 O248 1.240 . S
C257 O249 1.252 . S
O258 In247 2.294 . S
O258 C251 1.240 . S
O259 In247 2.326 . S
O259 C251 1.252 . S
In260 O261 2.294 . S
In260 O262 2.326 . S
In260 O266 2.266 . S
In260 O267 2.326 . S
In260 O268 2.266 . S
In260 O269 2.326 . S
In260 O271 2.294 . S
In260 O272 2.326 . S
O261 In260 2.294 . S
O261 C270 1.240 . S
O262 In260 2.326 . S
O262 C270 1.252 . S
C263 O266 1.252 . S
C263 O267 1.260 . S
C264 O271 1.240 . S
C264 O272 1.252 . S
C265 O268 1.252 . S
C265 O269 1.260 . S
O266 In260 2.266 . S
O266 C263 1.252 . S
O267 In260 2.326 . S
O267 C263 1.260 . S
O268 In260 2.266 . S
O268 C265 1.252 . S
O269 In260 2.326 . S
O269 C265 1.260 . S
C270 O261 1.240 . S
C270 O262 1.252 . S
O271 In260 2.294 . S
O271 C264 1.240 . S
O272 In260 2.326 . S
O272 C264 1.252 . S
In273 O274 2.294 . S
In273 O275 2.326 . S
In273 O279 2.266 . S
In273 O280 2.326 . S
In273 O281 2.266 . S
In273 O282 2.326 . S
In273 O284 2.294 . S
In273 O285 2.326 . S
O274 In273 2.294 . S
O274 C283 1.240 . S
O275 In273 2.326 . S
O275 C283 1.252 . S
C276 O279 1.252 . S
C276 O280 1.260 . S
C277 O284 1.240 . S
C277 O285 1.252 . S
C278 O281 1.252 . S
C278 O282 1.260 . S
O279 In273 2.266 . S
O279 C276 1.252 . S
O280 In273 2.326 . S
O280 C276 1.260 . S
O281 In273 2.266 . S
O281 C278 1.252 . S
O282 In273 2.326 . S
O282 C278 1.260 . S
C283 O274 1.240 . S
C283 O275 1.252 . S
O284 In273 2.294 . S
O284 C277 1.240 . S
O285 In273 2.326 . S
O285 C277 1.252 . S
In286 O287 2.294 . S
In286 O288 2.326 . S
In286 O292 2.266 . S
In286 O293 2.326 . S
In286 O294 2.266 . S
In286 O295 2.326 . S
In286 O297 2.294 . S
In286 O298 2.326 . S
O287 In286 2.294 . S
O287 C296 1.240 . S
O288 In286 2.326 . S
O288 C296 1.252 . S
C289 O292 1.252 . S
C289 O293 1.260 . S
C290 O297 1.241 . S
C290 O298 1.261 . S
C291 O294 1.252 . S
C291 O295 1.260 . S
O292 In286 2.266 . S
O292 C289 1.252 . S
O293 In286 2.326 . S
O293 C289 1.260 . S
O294 In286 2.266 . S
O294 C291 1.252 . S
O295 In286 2.326 . S
O295 C291 1.260 . S
C296 O287 1.240 . S
C296 O288 1.252 . S
O297 In286 2.294 . S
O297 C290 1.241 . S
O298 In286 2.326 . S
O298 C290 1.261 . S
In299 O300 2.294 . S
In299 O301 2.326 . S
In299 O305 2.266 . S
In299 O306 2.326 . S
In299 O307 2.266 . S
In299 O308 2.326 . S
In299 O310 2.294 . S
In299 O311 2.326 . S
O300 In299 2.294 . S
O300 C309 1.240 . S
O301 In299 2.326 . S
O301 C309 1.252 . S
C302 O305 1.252 . S
C302 O306 1.260 . S
C303 O310 1.240 . S
C303 O311 1.252 . S
C304 O307 1.252 . S
C304 O308 1.260 . S
O305 In299 2.266 . S
O305 C302 1.252 . S
O306 In299 2.326 . S
O306 C302 1.260 . S
O307 In299 2.266 . S
O307 C304 1.252 . S
O308 In299 2.326 . S
O308 C304 1.260 . S
C309 O300 1.240 . S
C309 O301 1.252 . S
O310 In299 2.294 . S
O310 C303 1.240 . S
O311 In299 2.326 . S
O311 C303 1.252 . S
In312 O313 2.294 . S
In312 O314 2.326 . S
In312 O318 2.266 . S
In312 O319 2.326 . S
In312 O320 2.266 . S
In312 O321 2.326 . S
In312 O323 2.294 . S
In312 O324 2.326 . S
O313 In312 2.294 . S
O313 C322 1.240 . S
O314 In312 2.326 . S
O314 C322 1.252 . S
C315 O318 1.252 . S
C315 O319 1.260 . S
C316 O323 1.240 . S
C316 O324 1.252 . S
C317 O320 1.252 . S
C317 O321 1.260 . S
O318 In312 2.266 . S
O318 C315 1.252 . S
O319 In312 2.326 . S
O319 C315 1.260 . S
O320 In312 2.266 . S
O320 C317 1.252 . S
O321 In312 2.326 . S
O321 C317 1.260 . S
C322 O313 1.240 . S
C322 O314 1.252 . S
O323 In312 2.294 . S
O323 C316 1.240 . S
O324 In312 2.326 . S
O324 C316 1.252 . S
In325 O326 2.294 . S
In325 O327 2.326 . S
In325 O331 2.266 . S
In325 O332 2.326 . S
In325 O333 2.266 . S
In325 O334 2.326 . S
In325 O336 2.294 . S
In325 O337 2.326 . S
O326 In325 2.294 . S
O326 C335 1.240 . S
O327 In325 2.326 . S
O327 C335 1.252 . S
C328 O331 1.252 . S
C328 O332 1.260 . S
C329 O336 1.240 . S
C329 O337 1.252 . S
C330 O333 1.252 . S
C330 O334 1.260 . S
O331 In325 2.266 . S
O331 C328 1.252 . S
O332 In325 2.326 . S
O332 C328 1.260 . S
O333 In325 2.266 . S
O333 C330 1.252 . S
O334 In325 2.326 . S
O334 C330 1.260 . S
C335 O326 1.240 . S
C335 O327 1.252 . S
O336 In325 2.294 . S
O336 C329 1.240 . S
O337 In325 2.326 . S
O337 C329 1.252 . S
In338 O339 2.294 . S
In338 O340 2.326 . S
In338 O344 2.266 . S
In338 O345 2.326 . S
In338 O346 2.266 . S
In338 O347 2.326 . S
In338 O349 2.294 . S
In338 O350 2.326 . S
O339 In338 2.294 . S
O339 C348 1.241 . S
O340 In338 2.326 . S
O340 C348 1.261 . S
C341 O344 1.252 . S
C341 O345 1.260 . S
C342 O349 1.240 . S
C342 O350 1.252 . S
C343 O346 1.252 . S
C343 O347 1.260 . S
O344 In338 2.266 . S
O344 C341 1.252 . S
O345 In338 2.326 . S
O345 C341 1.260 . S
O346 In338 2.266 . S
O346 C343 1.252 . S
O347 In338 2.326 . S
O347 C343 1.260 . S
C348 O339 1.241 . S
C348 O340 1.261 . S
O349 In338 2.294 . S
O349 C342 1.240 . S
O350 In338 2.326 . S
O350 C342 1.252 . S
In351 O352 2.294 . S
In351 O353 2.326 . S
In351 O357 2.266 . S
In351 O358 2.326 . S
In351 O359 2.266 . S
In351 O360 2.326 . S
In351 O362 2.294 . S
In351 O363 2.326 . S
O352 In351 2.294 . S
O352 C361 1.240 . S
O353 In351 2.326 . S
O353 C361 1.252 . S
C354 O357 1.252 . S
C354 O358 1.260 . S
C355 O362 1.240 . S
C355 O363 1.252 . S
C356 O359 1.252 . S
C356 O360 1.260 . S
O357 In351 2.266 . S
O357 C354 1.252 . S
O358 In351 2.326 . S
O358 C354 1.260 . S
O359 In351 2.266 . S
O359 C356 1.252 . S
O360 In351 2.326 . S
O360 C356 1.260 . S
C361 O352 1.240 . S
C361 O353 1.252 . S
O362 In351 2.294 . S
O362 C355 1.240 . S
O363 In351 2.326 . S
O363 C355 1.252 . S
In364 O365 2.294 . S
In364 O366 2.326 . S
In364 O370 2.266 . S
In364 O371 2.326 . S
In364 O372 2.266 . S
In364 O373 2.326 . S
In364 O375 2.294 . S
In364 O376 2.326 . S
O365 In364 2.294 . S
O365 C374 1.240 . S
O366 In364 2.326 . S
O366 C374 1.252 . S
C367 O370 1.252 . S
C367 O371 1.260 . S
C368 O375 1.240 . S
C368 O376 1.252 . S
C369 O372 1.252 . S
C369 O373 1.260 . S
O370 In364 2.266 . S
O370 C367 1.252 . S
O371 In364 2.326 . S
O371 C367 1.260 . S
O372 In364 2.266 . S
O372 C369 1.252 . S
O373 In364 2.326 . S
O373 C369 1.260 . S
C374 O365 1.240 . S
C374 O366 1.252 . S
O375 In364 2.294 . S
O375 C368 1.240 . S
O376 In364 2.326 . S
O376 C368 1.252 . S
In377 O378 2.294 . S
In377 O379 2.326 . S
In377 O383 2.266 . S
In377 O384 2.326 . S
In377 O385 2.266 . S
In377 O386 2.326 . S
In377 O388 2.294 . S
In377 O389 2.326 . S
O378 In377 2.294 . S
O378 C387 1.240 . S
O379 In377 2.326 . S
O379 C387 1.252 . S
C380 O383 1.252 . S
C380 O384 1.260 . S
C381 O388 1.240 . S
C381 O389 1.252 . S
C382 O385 1.252 . S
C382 O386 1.260 . S
O383 In377 2.266 . S
O383 C380 1.252 . S
O384 In377 2.326 . S
O384 C380 1.260 . S
O385 In377 2.266 . S
O385 C382 1.252 . S
O386 In377 2.326 . S
O386 C382 1.260 . S
C387 O378 1.240 . S
C387 O379 1.252 . S
O388 In377 2.294 . S
O388 C381 1.240 . S
O389 In377 2.326 . S
O389 C381 1.252 . S
In390 O391 2.294 . S
In390 O392 2.326 . S
In390 O396 2.266 . S
In390 O397 2.326 . S
In390 O398 2.266 . S
In390 O399 2.326 . S
In390 O401 2.294 . S
In390 O402 2.326 . S
O391 In390 2.294 . S
O391 C400 1.240 . S
O392 In390 2.326 . S
O392 C400 1.252 . S
C393 O396 1.252 . S
C393 O397 1.260 . S
C394 O401 1.241 . S
C394 O402 1.261 . S
C395 O398 1.252 . S
C395 O399 1.260 . S
O396 In390 2.266 . S
O396 C393 1.252 . S
O397 In390 2.326 . S
O397 C393 1.260 . S
O398 In390 2.266 . S
O398 C395 1.252 . S
O399 In390 2.326 . S
O399 C395 1.260 . S
C400 O391 1.240 . S
C400 O392 1.252 . S
O401 In390 2.294 . S
O401 C394 1.241 . S
O402 In390 2.326 . S
O402 C394 1.261 . S
In403 O404 2.294 . S
In403 O405 2.326 . S
In403 O409 2.266 . S
In403 O410 2.326 . S
In403 O411 2.266 . S
In403 O412 2.326 . S
In403 O414 2.294 . S
In403 O415 2.326 . S
O404 In403 2.294 . S
O404 C413 1.240 . S
O405 In403 2.326 . S
O405 C413 1.252 . S
C406 O409 1.252 . S
C406 O410 1.260 . S
C407 O414 1.240 . S
C407 O415 1.252 . S
C408 O411 1.252 . S
C408 O412 1.260 . S
O409 In403 2.266 . S
O409 C406 1.252 . S
O410 In403 2.326 . S
O410 C406 1.260 . S
O411 In403 2.266 . S
O411 C408 1.252 . S
O412 In403 2.326 . S
O412 C408 1.260 . S
C413 O404 1.240 . S
C413 O405 1.252 . S
O414 In403 2.294 . S
O414 C407 1.240 . S
O415 In403 2.326 . S
O415 C407 1.252 . S
C416 C417 1.363 . S
C416 C422 1.379 . S
C416 N424 1.356 . S
C417 C416 1.363 . S
C417 C423 1.363 . S
C418 C419 1.363 . S
C418 C423 1.379 . S
C418 N425 1.356 . S
C419 C418 1.363 . S
C419 C422 1.363 . S
N420 C422 1.356 . S
N420 H432 0.984 . S
N420 H433 0.985 . S
N421 C423 1.356 . S
N421 H426 0.984 . S
N421 H427 0.985 . S
C422 C416 1.379 . S
C422 C419 1.363 . S
C422 N420 1.356 . S
C423 C417 1.363 . S
C423 C418 1.379 . S
C423 N421 1.356 . S
N424 C416 1.356 . S
N424 H430 0.984 . S
N424 H431 0.984 . S
N425 C418 1.356 . S
N425 H428 0.984 . S
N425 H429 0.985 . S
H426 N421 0.984 . S
H427 N421 0.985 . S
H428 N425 0.984 . S
H429 N425 0.985 . S
H430 N424 0.984 . S
H431 N424 0.984 . S
H432 N420 0.984 . S
H433 N420 0.985 . S
C434 C435 1.363 . S
C434 C440 1.379 1_565 S
C434 N442 1.356 . S
C435 C434 1.363 . S
C435 C441 1.363 . S
C436 C437 1.363 . S
C436 C441 1.379 1_545 S
C436 N443 1.356 . S
C437 C436 1.363 . S
C437 C440 1.363 . S
N438 C440 1.356 . S
N438 H450 0.984 . S
N438 H451 0.985 . S
N439 C441 1.356 . S
N439 H444 0.984 . S
N439 H445 0.985 . S
C440 C434 1.379 1_545 S
C440 C437 1.363 . S
C440 N438 1.356 . S
C441 C435 1.363 . S
C441 C436 1.379 1_565 S
C441 N439 1.356 . S
N442 C434 1.356 . S
N442 H448 0.984 . S
N442 H449 0.984 . S
N443 C436 1.356 . S
N443 H446 0.984 . S
N443 H447 0.985 . S
H444 N439 0.984 . S
H445 N439 0.985 . S
H446 N443 0.984 . S
H447 N443 0.985 . S
H448 N442 0.984 . S
H449 N442 0.984 . S
H450 N438 0.984 . S
H451 N438 0.985 . S
C452 C453 1.363 . S
C452 C458 1.379 . S
C452 N460 1.356 . S
C453 C452 1.363 . S
C453 C459 1.363 . S
C454 C455 1.363 . S
C454 C459 1.379 . S
C454 N461 1.356 . S
C455 C454 1.363 . S
C455 C458 1.363 . S
N456 C458 1.356 . S
N456 H468 0.984 . S
N456 H469 0.985 . S
N457 C459 1.356 . S
N457 H462 0.984 . S
N457 H463 0.985 . S
C458 C452 1.379 . S
C458 C455 1.363 . S
C458 N456 1.356 . S
C459 C453 1.363 . S
C459 C454 1.379 . S
C459 N457 1.356 . S
N460 C452 1.356 . S
N460 H466 0.984 . S
N460 H467 0.984 . S
N461 C454 1.356 . S
N461 H464 0.984 . S
N461 H465 0.985 . S
H462 N457 0.984 . S
H463 N457 0.985 . S
H464 N461 0.984 . S
H465 N461 0.985 . S
H466 N460 0.984 . S
H467 N460 0.984 . S
H468 N456 0.984 . S
H469 N456 0.985 . S
C470 C471 1.363 1_554 S
C470 C476 1.379 1_545 S
C470 N478 1.356 . S
C471 C470 1.363 1_556 S
C471 C477 1.363 . S
C472 C473 1.363 1_556 S
C472 C477 1.379 1_565 S
C472 N479 1.356 . S
C473 C472 1.363 1_554 S
C473 C476 1.363 . S
N474 C476 1.356 . S
N474 H486 0.984 . S
N474 H487 0.985 . S
N475 C477 1.356 . S
N475 H480 0.984 . S
N475 H481 0.985 . S
C476 C470 1.379 1_565 S
C476 C473 1.363 . S
C476 N474 1.356 . S
C477 C471 1.363 . S
C477 C472 1.379 1_545 S
C477 N475 1.356 . S
N478 C470 1.356 . S
N478 H484 0.984 . S
N478 H485 0.984 . S
N479 C472 1.356 . S
N479 H482 0.984 . S
N479 H483 0.985 . S
H480 N475 0.984 . S
H481 N475 0.985 . S
H482 N479 0.984 . S
H483 N479 0.985 . S
H484 N478 0.984 . S
H485 N478 0.984 . S
H486 N474 0.984 . S
H487 N474 0.985 . S
C488 C489 1.363 . S
C488 C494 1.379 . S
C488 N496 1.356 . S
C489 C488 1.363 . S
C489 C495 1.363 . S
C490 C491 1.363 . S
C490 C495 1.379 . S
C490 N497 1.356 . S
C491 C490 1.363 . S
C491 C494 1.363 . S
N492 C494 1.356 . S
N492 H504 0.984 . S
N492 H505 0.985 . S
N493 C495 1.356 . S
N493 H498 0.984 . S
N493 H499 0.985 . S
C494 C488 1.379 . S
C494 C491 1.363 . S
C494 N492 1.356 . S
C495 C489 1.363 . S
C495 C490 1.379 . S
C495 N493 1.356 . S
N496 C488 1.356 . S
N496 H502 0.984 . S
N496 H503 0.984 . S
N497 C490 1.356 . S
N497 H500 0.984 . S
N497 H501 0.985 . S
H498 N493 0.984 . S
H499 N493 0.985 . S
H500 N497 0.984 . S
H501 N497 0.985 . S
H502 N496 0.984 . S
H503 N496 0.984 . S
H504 N492 0.984 . S
H505 N492 0.985 . S
C506 C507 1.363 . S
C506 C512 1.379 1_565 S
C506 N514 1.356 . S
C507 C506 1.363 . S
C507 C513 1.363 . S
C508 C509 1.363 . S
C508 C513 1.379 1_545 S
C508 N515 1.356 . S
C509 C508 1.363 . S
C509 C512 1.363 . S
N510 C512 1.356 . S
N510 H522 0.984 . S
N510 H523 0.985 . S
N511 C513 1.356 . S
N511 H516 0.984 . S
N511 H517 0.985 . S
C512 C506 1.379 1_545 S
C512 C509 1.363 . S
C512 N510 1.356 . S
C513 C507 1.363 . S
C513 C508 1.379 1_565 S
C513 N511 1.356 . S
N514 C506 1.356 . S
N514 H520 0.984 . S
N514 H521 0.984 . S
N515 C508 1.356 . S
N515 H518 0.984 . S
N515 H519 0.985 . S
H516 N511 0.984 . S
H517 N511 0.985 . S
H518 N515 0.984 . S
H519 N515 0.985 . S
H520 N514 0.984 . S
H521 N514 0.984 . S
H522 N510 0.984 . S
H523 N510 0.985 . S
C524 C525 1.363 . S
C524 C530 1.379 . S
C524 N532 1.356 . S
C525 C524 1.363 . S
C525 C531 1.363 . S
C526 C527 1.363 . S
C526 C531 1.379 . S
C526 N533 1.356 . S
C527 C526 1.363 . S
C527 C530 1.363 . S
N528 C530 1.356 . S
N528 H540 0.984 . S
N528 H541 0.985 . S
N529 C531 1.356 . S
N529 H534 0.984 . S
N529 H535 0.985 . S
C530 C524 1.379 . S
C530 C527 1.363 . S
C530 N528 1.356 . S
C531 C525 1.363 . S
C531 C526 1.379 . S
C531 N529 1.356 . S
N532 C524 1.356 . S
N532 H538 0.984 . S
N532 H539 0.984 . S
N533 C526 1.356 . S
N533 H536 0.984 . S
N533 H537 0.985 . S
H534 N529 0.984 . S
H535 N529 0.985 . S
H536 N533 0.984 . S
H537 N533 0.985 . S
H538 N532 0.984 . S
H539 N532 0.984 . S
H540 N528 0.984 . S
H541 N528 0.985 . S
C542 C543 1.363 1_554 S
C542 C548 1.379 1_545 S
C542 N550 1.356 . S
C543 C542 1.363 1_556 S
C543 C549 1.363 . S
C544 C545 1.363 1_556 S
C544 C549 1.379 1_565 S
C544 N551 1.356 . S
C545 C544 1.363 1_554 S
C545 C548 1.363 . S
N546 C548 1.356 . S
N546 H558 0.984 . S
N546 H559 0.985 . S
N547 C549 1.356 . S
N547 H552 0.984 . S
N547 H553 0.985 . S
C548 C542 1.379 1_565 S
C548 C545 1.363 . S
C548 N546 1.356 . S
C549 C543 1.363 . S
C549 C544 1.379 1_545 S
C549 N547 1.356 . S
N550 C542 1.356 . S
N550 H556 0.984 . S
N550 H557 0.984 . S
N551 C544 1.356 . S
N551 H554 0.984 . S
N551 H555 0.985 . S
H552 N547 0.984 . S
H553 N547 0.985 . S
H554 N551 0.984 . S
H555 N551 0.985 . S
H556 N550 0.984 . S
H557 N550 0.984 . S
H558 N546 0.984 . S
H559 N546 0.985 . S
C560 C561 1.363 . S
C560 C566 1.379 . S
C560 N568 1.356 . S
C561 C560 1.363 . S
C561 C567 1.363 . S
C562 C563 1.363 . S
C562 C567 1.379 . S
C562 N569 1.356 . S
C563 C562 1.363 . S
C563 C566 1.363 . S
N564 C566 1.356 . S
N564 H576 0.984 . S
N564 H577 0.985 . S
N565 C567 1.356 . S
N565 H570 0.984 . S
N565 H571 0.985 . S
C566 C560 1.379 . S
C566 C563 1.363 . S
C566 N564 1.356 . S
C567 C561 1.363 . S
C567 C562 1.379 . S
C567 N565 1.356 . S
N568 C560 1.356 . S
N568 H574 0.984 . S
N568 H575 0.984 . S
N569 C562 1.356 . S
N569 H572 0.984 . S
N569 H573 0.985 . S
H570 N565 0.984 . S
H571 N565 0.985 . S
H572 N569 0.984 . S
H573 N569 0.985 . S
H574 N568 0.984 . S
H575 N568 0.984 . S
H576 N564 0.984 . S
H577 N564 0.985 . S
C578 C579 1.363 1_554 S
C578 C584 1.379 . S
C578 N586 1.356 . S
C579 C578 1.363 1_556 S
C579 C585 1.363 . S
C580 C581 1.363 1_556 S
C580 C585 1.379 . S
C580 N587 1.356 . S
C581 C580 1.363 1_554 S
C581 C584 1.363 . S
N582 C584 1.356 . S
N582 H594 0.984 . S
N582 H595 0.985 . S
N583 C585 1.356 . S
N583 H588 0.984 . S
N583 H589 0.985 . S
C584 C578 1.379 . S
C584 C581 1.363 . S
C584 N582 1.356 . S
C585 C579 1.363 . S
C585 C580 1.379 . S
C585 N583 1.356 . S
N586 C578 1.356 . S
N586 H592 0.984 . S
N586 H593 0.984 . S
N587 C580 1.356 . S
N587 H590 0.984 . S
N587 H591 0.985 . S
H588 N583 0.984 . S
H589 N583 0.985 . S
H590 N587 0.984 . S
H591 N587 0.985 . S
H592 N586 0.984 . S
H593 N586 0.984 . S
H594 N582 0.984 . S
H595 N582 0.985 . S
C596 C597 1.363 . S
C596 C602 1.379 . S
C596 N604 1.356 . S
C597 C596 1.363 . S
C597 C603 1.363 . S
C598 C599 1.363 . S
C598 C603 1.379 . S
C598 N605 1.356 . S
C599 C598 1.363 . S
C599 C602 1.363 . S
N600 C602 1.356 . S
N600 H612 0.984 . S
N600 H613 0.985 . S
N601 C603 1.356 . S
N601 H606 0.984 . S
N601 H607 0.985 . S
C602 C596 1.379 . S
C602 C599 1.363 . S
C602 N600 1.356 . S
C603 C597 1.363 . S
C603 C598 1.379 . S
C603 N601 1.356 . S
N604 C596 1.356 . S
N604 H610 0.984 . S
N604 H611 0.984 . S
N605 C598 1.356 . S
N605 H608 0.984 . S
N605 H609 0.985 . S
H606 N601 0.984 . S
H607 N601 0.985 . S
H608 N605 0.984 . S
H609 N605 0.985 . S
H610 N604 0.984 . S
H611 N604 0.984 . S
H612 N600 0.984 . S
H613 N600 0.985 . S
C614 C615 1.363 . S
C614 C620 1.379 . S
C614 N622 1.356 . S
C615 C614 1.363 . S
C615 C621 1.363 . S
C616 C617 1.363 . S
C616 C621 1.379 . S
C616 N623 1.356 . S
C617 C616 1.363 . S
C617 C620 1.363 . S
N618 C620 1.356 . S
N618 H630 0.984 . S
N618 H631 0.985 . S
N619 C621 1.356 . S
N619 H624 0.984 . S
N619 H625 0.985 . S
C620 C614 1.379 . S
C620 C617 1.363 . S
C620 N618 1.356 . S
C621 C615 1.363 . S
C621 C616 1.379 . S
C621 N619 1.356 . S
N622 C614 1.356 . S
N622 H628 0.984 . S
N622 H629 0.984 . S
N623 C616 1.356 . S
N623 H626 0.984 . S
N623 H627 0.985 . S
H624 N619 0.984 . S
H625 N619 0.985 . S
H626 N623 0.984 . S
H627 N623 0.985 . S
H628 N622 0.984 . S
H629 N622 0.984 . S
H630 N618 0.984 . S
H631 N618 0.985 . S
C632 C633 1.363 . S
C632 C638 1.379 . S
C632 N640 1.356 . S
C633 C632 1.363 . S
C633 C639 1.363 . S
C634 C635 1.363 . S
C634 C639 1.379 . S
C634 N641 1.356 . S
C635 C634 1.363 . S
C635 C638 1.363 . S
N636 C638 1.356 . S
N636 H648 0.984 . S
N636 H649 0.985 . S
N637 C639 1.356 . S
N637 H642 0.984 . S
N637 H643 0.985 . S
C638 C632 1.379 . S
C638 C635 1.363 . S
C638 N636 1.356 . S
C639 C633 1.363 . S
C639 C634 1.379 . S
C639 N637 1.356 . S
N640 C632 1.356 . S
N640 H646 0.984 . S
N640 H647 0.984 . S
N641 C634 1.356 . S
N641 H644 0.984 . S
N641 H645 0.985 . S
H642 N637 0.984 . S
H643 N637 0.985 . S
H644 N641 0.984 . S
H645 N641 0.985 . S
H646 N640 0.984 . S
H647 N640 0.984 . S
H648 N636 0.984 . S
H649 N636 0.985 . S
C650 C651 1.363 . S
C650 C656 1.379 . S
C650 N658 1.356 . S
C651 C650 1.363 . S
C651 C657 1.363 1_554 S
C652 C653 1.363 . S
C652 C657 1.379 . S
C652 N659 1.356 . S
C653 C652 1.363 . S
C653 C656 1.363 1_556 S
N654 C656 1.356 . S
N654 H666 0.984 . S
N654 H667 0.985 . S
N655 C657 1.356 . S
N655 H660 0.984 . S
N655 H661 0.985 . S
C656 C650 1.379 . S
C656 C653 1.363 1_554 S
C656 N654 1.356 . S
C657 C651 1.363 1_556 S
C657 C652 1.379 . S
C657 N655 1.356 . S
N658 C650 1.356 . S
N658 H664 0.984 . S
N658 H665 0.984 . S
N659 C652 1.356 . S
N659 H662 0.984 . S
N659 H663 0.985 . S
H660 N655 0.984 . S
H661 N655 0.985 . S
H662 N659 0.984 . S
H663 N659 0.985 . S
H664 N658 0.984 . S
H665 N658 0.984 . S
H666 N654 0.984 . S
H667 N654 0.985 . S
C668 C669 1.363 . S
C668 C674 1.379 . S
C668 N676 1.356 . S
C669 C668 1.363 . S
C669 C675 1.363 . S
C670 C671 1.363 . S
C670 C675 1.379 . S
C670 N677 1.356 . S
C671 C670 1.363 . S
C671 C674 1.363 . S
N672 C674 1.356 . S
N672 H684 0.984 . S
N672 H685 0.985 . S
N673 C675 1.356 . S
N673 H678 0.984 . S
N673 H679 0.985 . S
C674 C668 1.379 . S
C674 C671 1.363 . S
C674 N672 1.356 . S
C675 C669 1.363 . S
C675 C670 1.379 . S
C675 N673 1.356 . S
N676 C668 1.356 . S
N676 H682 0.984 . S
N676 H683 0.984 . S
N677 C670 1.356 . S
N677 H680 0.984 . S
N677 H681 0.985 . S
H678 N673 0.984 . S
H679 N673 0.985 . S
H680 N677 0.984 . S
H681 N677 0.985 . S
H682 N676 0.984 . S
H683 N676 0.984 . S
H684 N672 0.984 . S
H685 N672 0.985 . S
C686 C687 1.363 . S
C686 C692 1.379 . S
C686 N694 1.356 . S
C687 C686 1.363 . S
C687 C693 1.363 . S
C688 C689 1.363 . S
C688 C693 1.379 . S
C688 N695 1.356 . S
C689 C688 1.363 . S
C689 C692 1.363 . S
N690 C692 1.356 . S
N690 H702 0.984 . S
N690 H703 0.985 . S
N691 C693 1.356 . S
N691 H696 0.984 . S
N691 H697 0.985 . S
C692 C686 1.379 . S
C692 C689 1.363 . S
C692 N690 1.356 . S
C693 C687 1.363 . S
C693 C688 1.379 . S
C693 N691 1.356 . S
N694 C686 1.356 . S
N694 H700 0.984 . S
N694 H701 0.984 . S
N695 C688 1.356 . S
N695 H698 0.984 . S
N695 H699 0.985 . S
H696 N691 0.984 . S
H697 N691 0.985 . S
H698 N695 0.984 . S
H699 N695 0.985 . S
H700 N694 0.984 . S
H701 N694 0.984 . S
H702 N690 0.984 . S
H703 N690 0.985 . S
C704 C705 1.363 . S
C704 C710 1.379 . S
C704 N712 1.356 1_556 S
C705 C704 1.363 . S
C705 C711 1.363 . S
C706 C707 1.363 . S
C706 C711 1.379 . S
C706 N713 1.356 . S
C707 C706 1.363 . S
C707 C710 1.363 . S
N708 C710 1.356 . S
N708 H720 0.984 . S
N708 H721 0.985 . S
N709 C711 1.356 . S
N709 H714 0.984 . S
N709 H715 0.985 . S
C710 C704 1.379 . S
C710 C707 1.363 . S
C710 N708 1.356 . S
C711 C705 1.363 . S
C711 C706 1.379 . S
C711 N709 1.356 . S
N712 C704 1.356 1_554 S
N712 H718 0.984 . S
N712 H719 0.984 . S
N713 C706 1.356 . S
N713 H716 0.984 . S
N713 H717 0.985 . S
H714 N709 0.984 . S
H715 N709 0.985 . S
H716 N713 0.984 . S
H717 N713 0.985 . S
H718 N712 0.984 . S
H719 N712 0.984 . S
H720 N708 0.984 . S
H721 N708 0.985 . S
C722 C723 1.363 . S
C722 C728 1.379 . S
C722 N730 1.356 . S
C723 C722 1.363 . S
C723 C729 1.363 . S
C724 C725 1.363 . S
C724 C729 1.379 . S
C724 N731 1.356 . S
C725 C724 1.363 . S
C725 C728 1.363 . S
N726 C728 1.356 . S
N726 H738 0.984 . S
N726 H739 0.985 . S
N727 C729 1.356 1_556 S
N727 H732 0.984 . S
N727 H733 0.985 . S
C728 C722 1.379 . S
C728 C725 1.363 . S
C728 N726 1.356 . S
C729 C723 1.363 . S
C729 C724 1.379 . S
C729 N727 1.356 1_554 S
N730 C722 1.356 . S
N730 H736 0.984 . S
N730 H737 0.984 . S
N731 C724 1.356 . S
N731 H734 0.984 . S
N731 H735 0.985 . S
H732 N727 0.984 . S
H733 N727 0.985 . S
H734 N731 0.984 . S
H735 N731 0.985 . S
H736 N730 0.984 . S
H737 N730 0.984 . S
H738 N726 0.984 . S
H739 N726 0.985 . S
C740 C741 1.363 . S
C740 C746 1.379 . S
C740 N748 1.356 . S
C741 C740 1.363 . S
C741 C747 1.363 . S
C742 C743 1.363 . S
C742 C747 1.379 . S
C742 N749 1.356 . S
C743 C742 1.363 . S
C743 C746 1.363 . S
N744 C746 1.356 . S
N744 H756 0.984 . S
N744 H757 0.985 . S
N745 C747 1.356 . S
N745 H750 0.984 . S
N745 H751 0.985 . S
C746 C740 1.379 . S
C746 C743 1.363 . S
C746 N744 1.356 . S
C747 C741 1.363 . S
C747 C742 1.379 . S
C747 N745 1.356 . S
N748 C740 1.356 . S
N748 H754 0.984 . S
N748 H755 0.984 . S
N749 C742 1.356 . S
N749 H752 0.984 . S
N749 H753 0.985 . S
H750 N745 0.984 . S
H751 N745 0.985 . S
H752 N749 0.984 . S
H753 N749 0.985 . S
H754 N748 0.984 . S
H755 N748 0.984 . S
H756 N744 0.984 . S
H757 N744 0.985 . S
C758 C759 1.363 . S
C758 C764 1.379 . S
C758 N766 1.356 . S
C759 C758 1.363 . S
C759 C765 1.363 . S
C760 C761 1.363 . S
C760 C765 1.379 . S
C760 N767 1.356 . S
C761 C760 1.363 . S
C761 C764 1.363 . S
N762 C764 1.356 . S
N762 H774 0.984 . S
N762 H775 0.985 . S
N763 C765 1.356 . S
N763 H768 0.984 . S
N763 H769 0.985 . S
C764 C758 1.379 . S
C764 C761 1.363 . S
C764 N762 1.356 . S
C765 C759 1.363 . S
C765 C760 1.379 . S
C765 N763 1.356 . S
N766 C758 1.356 . S
N766 H772 0.984 . S
N766 H773 0.984 . S
N767 C760 1.356 . S
N767 H770 0.984 . S
N767 H771 0.985 . S
H768 N763 0.984 . S
H769 N763 0.985 . S
H770 N767 0.984 . S
H771 N767 0.985 . S
H772 N766 0.984 . S
H773 N766 0.984 . S
H774 N762 0.984 . S
H775 N762 0.985 . S
C776 C777 1.363 . S
C776 C782 1.379 . S
C776 N784 1.356 . S
C777 C776 1.363 . S
C777 C783 1.363 . S
C778 C779 1.363 . S
C778 C783 1.379 . S
C778 N785 1.356 . S
C779 C778 1.363 . S
C779 C782 1.363 . S
N780 C782 1.356 . S
N780 H792 0.984 . S
N780 H793 0.985 . S
N781 C783 1.356 1_556 S
N781 H786 0.984 . S
N781 H787 0.985 . S
C782 C776 1.379 . S
C782 C779 1.363 . S
C782 N780 1.356 . S
C783 C777 1.363 . S
C783 C778 1.379 . S
C783 N781 1.356 1_554 S
N784 C776 1.356 . S
N784 H790 0.984 . S
N784 H791 0.984 . S
N785 C778 1.356 . S
N785 H788 0.984 . S
N785 H789 0.985 . S
H786 N781 0.984 . S
H787 N781 0.985 . S
H788 N785 0.984 . S
H789 N785 0.985 . S
H790 N784 0.984 . S
H791 N784 0.984 . S
H792 N780 0.984 . S
H793 N780 0.985 . S
C794 C795 1.363 . S
C794 C800 1.379 . S
C794 N802 1.356 . S
C795 C794 1.363 . S
C795 C801 1.363 . S
C796 C797 1.363 . S
C796 C801 1.379 . S
C796 N803 1.356 . S
C797 C796 1.363 . S
C797 C800 1.363 . S
N798 C800 1.356 . S
N798 H810 0.984 . S
N798 H811 0.985 . S
N799 C801 1.356 1_554 S
N799 H804 0.984 . S
N799 H805 0.985 . S
C800 C794 1.379 . S
C800 C797 1.363 . S
C800 N798 1.356 . S
C801 C795 1.363 . S
C801 C796 1.379 . S
C801 N799 1.356 1_556 S
N802 C794 1.356 . S
N802 H808 0.984 . S
N802 H809 0.984 . S
N803 C796 1.356 . S
N803 H806 0.984 . S
N803 H807 0.985 . S
H804 N799 0.984 . S
H805 N799 0.985 . S
H806 N803 0.984 . S
H807 N803 0.985 . S
H808 N802 0.984 . S
H809 N802 0.984 . S
H810 N798 0.984 . S
H811 N798 0.985 . S
C812 C813 1.363 . S
C812 C818 1.379 . S
C812 N820 1.356 . S
C813 C812 1.363 . S
C813 C819 1.363 . S
C814 C815 1.363 . S
C814 C819 1.379 . S
C814 N821 1.356 . S
C815 C814 1.363 . S
C815 C818 1.363 . S
N816 C818 1.356 . S
N816 H828 0.984 . S
N816 H829 0.985 . S
N817 C819 1.356 . S
N817 H822 0.984 . S
N817 H823 0.985 . S
C818 C812 1.379 . S
C818 C815 1.363 . S
C818 N816 1.356 . S
C819 C813 1.363 . S
C819 C814 1.379 . S
C819 N817 1.356 . S
N820 C812 1.356 . S
N820 H826 0.984 . S
N820 H827 0.984 . S
N821 C814 1.356 . S
N821 H824 0.984 . S
N821 H825 0.985 . S
H822 N817 0.984 . S
H823 N817 0.985 . S
H824 N821 0.984 . S
H825 N821 0.985 . S
H826 N820 0.984 . S
H827 N820 0.984 . S
H828 N816 0.984 . S
H829 N816 0.985 . S
C830 C831 1.363 . S
C830 C836 1.379 . S
C830 N838 1.356 . S
C831 C830 1.363 . S
C831 C837 1.363 . S
C832 C833 1.363 . S
C832 C837 1.379 . S
C832 N839 1.356 . S
C833 C832 1.363 . S
C833 C836 1.363 . S
N834 C836 1.356 . S
N834 H846 0.984 . S
N834 H847 0.985 . S
N835 C837 1.356 . S
N835 H840 0.984 . S
N835 H841 0.985 . S
C836 C830 1.379 . S
C836 C833 1.363 . S
C836 N834 1.356 . S
C837 C831 1.363 . S
C837 C832 1.379 . S
C837 N835 1.356 . S
N838 C830 1.356 . S
N838 H844 0.984 . S
N838 H845 0.984 . S
N839 C832 1.356 . S
N839 H842 0.984 . S
N839 H843 0.985 . S
H840 N835 0.984 . S
H841 N835 0.985 . S
H842 N839 0.984 . S
H843 N839 0.985 . S
H844 N838 0.984 . S
H845 N838 0.984 . S
H846 N834 0.984 . S
H847 N834 0.985 . S
C848 C849 1.363 . S
C848 C854 1.379 . S
C848 N856 1.356 . S
C849 C848 1.363 . S
C849 C855 1.363 . S
C850 C851 1.363 . S
C850 C855 1.379 . S
C850 N857 1.356 . S
C851 C850 1.363 . S
C851 C854 1.363 . S
N852 C854 1.356 . S
N852 H864 0.984 . S
N852 H865 0.985 . S
N853 C855 1.356 . S
N853 H858 0.984 . S
N853 H859 0.985 . S
C854 C848 1.379 . S
C854 C851 1.363 . S
C854 N852 1.356 . S
C855 C849 1.363 . S
C855 C850 1.379 . S
C855 N853 1.356 . S
N856 C848 1.356 . S
N856 H862 0.984 . S
N856 H863 0.984 . S
N857 C850 1.356 . S
N857 H860 0.984 . S
N857 H861 0.985 . S
H858 N853 0.984 . S
H859 N853 0.985 . S
H860 N857 0.984 . S
H861 N857 0.985 . S
H862 N856 0.984 . S
H863 N856 0.984 . S
H864 N852 0.984 . S
H865 N852 0.985 . S
C866 C867 1.363 . S
C866 C872 1.379 . S
C866 N874 1.356 . S
C867 C866 1.363 . S
C867 C873 1.363 . S
C868 C869 1.363 . S
C868 C873 1.379 . S
C868 N875 1.356 . S
C869 C868 1.363 . S
C869 C872 1.363 . S
N870 C872 1.356 . S
N870 H882 0.984 . S
N870 H883 0.985 . S
N871 C873 1.356 . S
N871 H876 0.984 . S
N871 H877 0.985 . S
C872 C866 1.379 . S
C872 C869 1.363 . S
C872 N870 1.356 . S
C873 C867 1.363 . S
C873 C868 1.379 . S
C873 N871 1.356 . S
N874 C866 1.356 . S
N874 H880 0.984 . S
N874 H881 0.984 . S
N875 C868 1.356 . S
N875 H878 0.984 . S
N875 H879 0.985 . S
H876 N871 0.984 . S
H877 N871 0.985 . S
H878 N875 0.984 . S
H879 N875 0.985 . S
H880 N874 0.984 . S
H881 N874 0.984 . S
H882 N870 0.984 . S
H883 N870 0.985 . S
C884 C885 1.363 . S
C884 C890 1.379 . S
C884 N892 1.356 . S
C885 C884 1.363 . S
C885 C891 1.363 . S
C886 C887 1.363 . S
C886 C891 1.379 . S
C886 N893 1.356 1_556 S
C887 C886 1.363 . S
C887 C890 1.363 . S
N888 C890 1.356 . S
N888 H900 0.984 . S
N888 H901 0.985 . S
N889 C891 1.356 . S
N889 H894 0.984 . S
N889 H895 0.985 . S
C890 C884 1.379 . S
C890 C887 1.363 . S
C890 N888 1.356 . S
C891 C885 1.363 . S
C891 C886 1.379 . S
C891 N889 1.356 . S
N892 C884 1.356 . S
N892 H898 0.984 . S
N892 H899 0.984 . S
N893 C886 1.356 1_554 S
N893 H896 0.984 . S
N893 H897 0.985 . S
H894 N889 0.984 . S
H895 N889 0.985 . S
H896 N893 0.984 . S
H897 N893 0.985 . S
H898 N892 0.984 . S
H899 N892 0.984 . S
H900 N888 0.984 . S
H901 N888 0.985 . S
C902 C903 1.363 . S
C902 C908 1.379 . S
C902 N910 1.356 . S
C903 C902 1.363 . S
C903 C909 1.363 . S
C904 C905 1.363 . S
C904 C909 1.379 . S
C904 N911 1.356 . S
C905 C904 1.363 . S
C905 C908 1.363 . S
N906 C908 1.356 1_556 S
N906 H918 0.984 . S
N906 H919 0.985 . S
N907 C909 1.356 . S
N907 H912 0.984 . S
N907 H913 0.985 . S
C908 C902 1.379 . S
C908 C905 1.363 . S
C908 N906 1.356 1_554 S
C909 C903 1.363 . S
C909 C904 1.379 . S
C909 N907 1.356 . S
N910 C902 1.356 . S
N910 H916 0.984 . S
N910 H917 0.984 . S
N911 C904 1.356 . S
N911 H914 0.984 . S
N911 H915 0.985 . S
H912 N907 0.984 . S
H913 N907 0.985 . S
H914 N911 0.984 . S
H915 N911 0.985 . S
H916 N910 0.984 . S
H917 N910 0.984 . S
H918 N906 0.984 . S
H919 N906 0.985 . S
C920 C921 1.363 . S
C920 C926 1.379 . S
C920 N928 1.356 . S
C921 C920 1.363 . S
C921 C927 1.363 . S
C922 C923 1.363 . S
C922 C927 1.379 . S
C922 N929 1.356 . S
C923 C922 1.363 . S
C923 C926 1.363 . S
N924 C926 1.356 . S
N924 H936 0.984 . S
N924 H937 0.985 . S
N925 C927 1.356 . S
N925 H930 0.984 . S
N925 H931 0.985 . S
C926 C920 1.379 . S
C926 C923 1.363 . S
C926 N924 1.356 . S
C927 C921 1.363 . S
C927 C922 1.379 . S
C927 N925 1.356 . S
N928 C920 1.356 . S
N928 H934 0.984 . S
N928 H935 0.984 . S
N929 C922 1.356 . S
N929 H932 0.984 . S
N929 H933 0.985 . S
H930 N925 0.984 . S
H931 N925 0.985 . S
H932 N929 0.984 . S
H933 N929 0.985 . S
H934 N928 0.984 . S
H935 N928 0.984 . S
H936 N924 0.984 . S
H937 N924 0.985 . S
C938 C939 1.363 . S
C938 C944 1.379 . S
C938 N946 1.356 . S
C939 C938 1.363 . S
C939 C945 1.363 . S
C940 C941 1.363 . S
C940 C945 1.379 . S
C940 N947 1.356 . S
C941 C940 1.363 . S
C941 C944 1.363 . S
N942 C944 1.356 . S
N942 H954 0.984 . S
N942 H955 0.985 . S
N943 C945 1.356 . S
N943 H948 0.984 . S
N943 H949 0.985 . S
C944 C938 1.379 . S
C944 C941 1.363 . S
C944 N942 1.356 . S
C945 C939 1.363 . S
C945 C940 1.379 . S
C945 N943 1.356 . S
N946 C938 1.356 . S
N946 H952 0.984 . S
N946 H953 0.984 . S
N947 C940 1.356 . S
N947 H950 0.984 . S
N947 H951 0.985 . S
H948 N943 0.984 . S
H949 N943 0.985 . S
H950 N947 0.984 . S
H951 N947 0.985 . S
H952 N946 0.984 . S
H953 N946 0.984 . S
H954 N942 0.984 . S
H955 N942 0.985 . S
C956 C957 1.363 . S
C956 C962 1.379 . S
C956 N964 1.356 . S
C957 C956 1.363 . S
C957 C963 1.363 . S
C958 C959 1.363 . S
C958 C963 1.379 . S
C958 N965 1.356 . S
C959 C958 1.363 . S
C959 C962 1.363 . S
N960 C962 1.356 . S
N960 H972 0.984 . S
N960 H973 0.985 . S
N961 C963 1.356 1_556 S
N961 H966 0.984 . S
N961 H967 0.985 . S
C962 C956 1.379 . S
C962 C959 1.363 . S
C962 N960 1.356 . S
C963 C957 1.363 . S
C963 C958 1.379 . S
C963 N961 1.356 1_554 S
N964 C956 1.356 . S
N964 H970 0.984 . S
N964 H971 0.984 . S
N965 C958 1.356 . S
N965 H968 0.984 . S
N965 H969 0.985 . S
H966 N961 0.984 . S
H967 N961 0.985 . S
H968 N965 0.984 . S
H969 N965 0.985 . S
H970 N964 0.984 . S
H971 N964 0.984 . S
H972 N960 0.984 . S
H973 N960 0.985 . S
C974 C975 1.363 . S
C974 C980 1.379 . S
C974 N982 1.356 . S
C975 C974 1.363 . S
C975 C981 1.363 . S
C976 C977 1.363 . S
C976 C981 1.379 . S
C976 N983 1.356 . S
C977 C976 1.363 . S
C977 C980 1.363 . S
N978 C980 1.356 . S
N978 H990 0.984 . S
N978 H991 0.985 . S
N979 C981 1.356 . S
N979 H984 0.984 . S
N979 H985 0.985 . S
C980 C974 1.379 . S
C980 C977 1.363 . S
C980 N978 1.356 . S
C981 C975 1.363 . S
C981 C976 1.379 . S
C981 N979 1.356 . S
N982 C974 1.356 . S
N982 H988 0.984 . S
N982 H989 0.984 . S
N983 C976 1.356 . S
N983 H986 0.984 . S
N983 H987 0.985 . S
H984 N979 0.984 . S
H985 N979 0.985 . S
H986 N983 0.984 . S
H987 N983 0.985 . S
H988 N982 0.984 . S
H989 N982 0.984 . S
H990 N978 0.984 . S
H991 N978 0.985 . S
C992 C993 1.363 . S
C992 C998 1.379 . S
C992 N1000 1.356 1_554 S
C993 C992 1.363 . S
C993 C999 1.363 . S
C994 C995 1.363 . S
C994 C999 1.379 . S
C994 N1001 1.356 . S
C995 C994 1.363 . S
C995 C998 1.363 . S
N996 C998 1.356 1_556 S
N996 H1008 0.984 . S
N996 H1009 0.987 . S
N997 C999 1.356 . S
N997 H1002 0.984 . S
N997 H1003 0.985 . S
C998 C992 1.379 . S
C998 C995 1.363 . S
C998 N996 1.356 1_554 S
C999 C993 1.363 . S
C999 C994 1.379 . S
C999 N997 1.356 . S
N1000 C992 1.356 1_556 S
N1000 H1006 0.984 . S
N1000 H1007 0.987 . S
N1001 C994 1.356 . S
N1001 H1004 0.984 . S
N1001 H1005 0.985 . S
H1002 N997 0.984 . S
H1003 N997 0.985 . S
H1004 N1001 0.984 . S
H1005 N1001 0.985 . S
H1006 N1000 0.984 . S
H1007 N1000 0.987 . S
H1008 N996 0.984 . S
H1009 N996 0.987 . S
C1010 C1011 1.363 . S
C1010 C1016 1.379 1_655 S
C1010 N1018 1.356 . S
C1011 C1010 1.363 . S
C1011 C1017 1.363 . S
C1012 C1013 1.363 . S
C1012 C1017 1.379 1_455 S
C1012 N1019 1.356 . S
C1013 C1012 1.363 . S
C1013 C1016 1.363 . S
N1014 C1016 1.356 . S
N1014 H1026 0.984 . S
N1014 H1027 0.985 . S
N1015 C1017 1.356 . S
N1015 H1020 0.984 . S
N1015 H1021 0.985 . S
C1016 C1010 1.379 1_455 S
C1016 C1013 1.363 . S
C1016 N1014 1.356 . S
C1017 C1011 1.363 . S
C1017 C1012 1.379 1_655 S
C1017 N1015 1.356 . S
N1018 C1010 1.356 . S
N1018 H1024 0.984 . S
N1018 H1025 0.984 . S
N1019 C1012 1.356 . S
N1019 H1022 0.984 . S
N1019 H1023 0.985 . S
H1020 N1015 0.984 . S
H1021 N1015 0.985 . S
H1022 N1019 0.984 . S
H1023 N1019 0.985 . S
H1024 N1018 0.984 . S
H1025 N1018 0.984 . S
H1026 N1014 0.984 . S
H1027 N1014 0.985 . S
C1028 C1029 1.363 . S
C1028 C1034 1.379 . S
C1028 N1036 1.356 . S
C1029 C1028 1.363 . S
C1029 C1035 1.363 . S
C1030 C1031 1.363 . S
C1030 C1035 1.379 . S
C1030 N1037 1.356 . S
C1031 C1030 1.363 . S
C1031 C1034 1.363 . S
N1032 C1034 1.356 . S
N1032 H1044 0.984 . S
N1032 H1045 0.985 . S
N1033 C1035 1.356 . S
N1033 H1038 0.984 . S
N1033 H1039 0.985 . S
C1034 C1028 1.379 . S
C1034 C1031 1.363 . S
C1034 N1032 1.356 . S
C1035 C1029 1.363 . S
C1035 C1030 1.379 . S
C1035 N1033 1.356 . S
N1036 C1028 1.356 . S
N1036 H1042 0.984 . S
N1036 H1043 0.984 . S
N1037 C1030 1.356 . S
N1037 H1040 0.984 . S
N1037 H1041 0.985 . S
H1038 N1033 0.984 . S
H1039 N1033 0.985 . S
H1040 N1037 0.984 . S
H1041 N1037 0.985 . S
H1042 N1036 0.984 . S
H1043 N1036 0.984 . S
H1044 N1032 0.984 . S
H1045 N1032 0.985 . S
C1046 C1047 1.363 . S
C1046 C1052 1.379 . S
C1046 N1054 1.356 . S
C1047 C1046 1.363 . S
C1047 C1053 1.363 . S
C1048 C1049 1.363 . S
C1048 C1053 1.379 . S
C1048 N1055 1.356 . S
C1049 C1048 1.363 . S
C1049 C1052 1.363 . S
N1050 C1052 1.356 . S
N1050 H1062 0.984 . S
N1050 H1063 0.985 . S
N1051 C1053 1.356 . S
N1051 H1056 0.984 . S
N1051 H1057 0.985 . S
C1052 C1046 1.379 . S
C1052 C1049 1.363 . S
C1052 N1050 1.356 . S
C1053 C1047 1.363 . S
C1053 C1048 1.379 . S
C1053 N1051 1.356 . S
N1054 C1046 1.356 . S
N1054 H1060 0.984 . S
N1054 H1061 0.984 . S
N1055 C1048 1.356 . S
N1055 H1058 0.984 . S
N1055 H1059 0.985 . S
H1056 N1051 0.984 . S
H1057 N1051 0.985 . S
H1058 N1055 0.984 . S
H1059 N1055 0.985 . S
H1060 N1054 0.984 . S
H1061 N1054 0.984 . S
H1062 N1050 0.984 . S
H1063 N1050 0.985 . S
C1064 C1065 1.363 . S
C1064 C1070 1.379 . S
C1064 N1072 1.356 . S
C1065 C1064 1.363 . S
C1065 C1071 1.363 . S
C1066 C1067 1.363 . S
C1066 C1071 1.379 . S
C1066 N1073 1.356 1_556 S
C1067 C1066 1.363 . S
C1067 C1070 1.363 . S
N1068 C1070 1.356 . S
N1068 H1080 0.984 . S
N1068 H1081 0.985 . S
N1069 C1071 1.356 1_554 S
N1069 H1074 0.987 . S
N1069 H1075 0.985 . S
C1070 C1064 1.379 . S
C1070 C1067 1.363 . S
C1070 N1068 1.356 . S
C1071 C1065 1.363 . S
C1071 C1066 1.379 . S
C1071 N1069 1.356 1_556 S
N1072 C1064 1.356 . S
N1072 H1078 0.984 . S
N1072 H1079 0.984 . S
N1073 C1066 1.356 1_554 S
N1073 H1076 0.987 . S
N1073 H1077 0.985 . S
H1074 N1069 0.987 . S
H1075 N1069 0.985 . S
H1076 N1073 0.987 . S
H1077 N1073 0.985 . S
H1078 N1072 0.984 . S
H1079 N1072 0.984 . S
H1080 N1068 0.984 . S
H1081 N1068 0.985 . S
C1082 C1083 1.363 . S
C1082 C1088 1.379 . S
C1082 N1090 1.356 . S
C1083 C1082 1.363 . S
C1083 C1089 1.363 . S
C1084 C1085 1.363 . S
C1084 C1089 1.379 . S
C1084 N1091 1.356 . S
C1085 C1084 1.363 . S
C1085 C1088 1.363 . S
N1086 C1088 1.356 . S
N1086 H1098 0.984 . S
N1086 H1099 0.985 . S
N1087 C1089 1.356 . S
N1087 H1092 0.984 . S
N1087 H1093 0.985 . S
C1088 C1082 1.379 . S
C1088 C1085 1.363 . S
C1088 N1086 1.356 . S
C1089 C1083 1.363 . S
C1089 C1084 1.379 . S
C1089 N1087 1.356 . S
N1090 C1082 1.356 . S
N1090 H1096 0.984 . S
N1090 H1097 0.984 . S
N1091 C1084 1.356 . S
N1091 H1094 0.984 . S
N1091 H1095 0.985 . S
H1092 N1087 0.984 . S
H1093 N1087 0.985 . S
H1094 N1091 0.984 . S
H1095 N1091 0.985 . S
H1096 N1090 0.984 . S
H1097 N1090 0.984 . S
H1098 N1086 0.984 . S
H1099 N1086 0.985 . S
C1100 C1101 1.363 . S
C1100 C1106 1.379 . S
C1100 N1108 1.356 . S
C1101 C1100 1.363 . S
C1101 C1107 1.363 . S
C1102 C1103 1.363 . S
C1102 C1107 1.379 . S
C1102 N1109 1.356 . S
C1103 C1102 1.363 . S
C1103 C1106 1.363 . S
N1104 C1106 1.356 . S
N1104 H1116 0.984 . S
N1104 H1117 0.985 . S
N1105 C1107 1.356 . S
N1105 H1110 0.984 . S
N1105 H1111 0.985 . S
C1106 C1100 1.379 . S
C1106 C1103 1.363 . S
C1106 N1104 1.356 . S
C1107 C1101 1.363 . S
C1107 C1102 1.379 . S
C1107 N1105 1.356 . S
N1108 C1100 1.356 . S
N1108 H1114 0.984 . S
N1108 H1115 0.984 . S
N1109 C1102 1.356 . S
N1109 H1112 0.984 . S
N1109 H1113 0.985 . S
H1110 N1105 0.984 . S
H1111 N1105 0.985 . S
H1112 N1109 0.984 . S
H1113 N1109 0.985 . S
H1114 N1108 0.984 . S
H1115 N1108 0.984 . S
H1116 N1104 0.984 . S
H1117 N1104 0.985 . S
C1118 C1119 1.363 . S
C1118 C1124 1.379 1_655 S
C1118 N1126 1.356 . S
C1119 C1118 1.363 . S
C1119 C1125 1.363 . S
C1120 C1121 1.363 . S
C1120 C1125 1.379 1_455 S
C1120 N1127 1.356 . S
C1121 C1120 1.363 . S
C1121 C1124 1.363 . S
N1122 C1124 1.356 . S
N1122 H1134 0.984 . S
N1122 H1135 0.985 . S
N1123 C1125 1.356 . S
N1123 H1128 0.984 . S
N1123 H1129 0.985 . S
C1124 C1118 1.379 1_455 S
C1124 C1121 1.363 . S
C1124 N1122 1.356 . S
C1125 C1119 1.363 . S
C1125 C1120 1.379 1_655 S
C1125 N1123 1.356 . S
N1126 C1118 1.356 . S
N1126 H1132 0.984 . S
N1126 H1133 0.984 . S
N1127 C1120 1.356 . S
N1127 H1130 0.984 . S
N1127 H1131 0.985 . S
H1128 N1123 0.984 . S
H1129 N1123 0.985 . S
H1130 N1127 0.984 . S
H1131 N1127 0.985 . S
H1132 N1126 0.984 . S
H1133 N1126 0.984 . S
H1134 N1122 0.984 . S
H1135 N1122 0.985 . S
C1136 C1137 1.363 . S
C1136 C1142 1.379 . S
C1136 N1144 1.356 . S
C1137 C1136 1.363 . S
C1137 C1143 1.363 . S
C1138 C1139 1.363 . S
C1138 C1143 1.379 . S
C1138 N1145 1.356 1_556 S
C1139 C1138 1.363 . S
C1139 C1142 1.363 . S
N1140 C1142 1.356 . S
N1140 H1152 0.984 . S
N1140 H1153 0.985 . S
N1141 C1143 1.356 1_554 S
N1141 H1146 0.987 . S
N1141 H1147 0.985 . S
C1142 C1136 1.379 . S
C1142 C1139 1.363 . S
C1142 N1140 1.356 . S
C1143 C1137 1.363 . S
C1143 C1138 1.379 . S
C1143 N1141 1.356 1_556 S
N1144 C1136 1.356 . S
N1144 H1150 0.984 . S
N1144 H1151 0.984 . S
N1145 C1138 1.356 1_554 S
N1145 H1148 0.987 . S
N1145 H1149 0.985 . S
H1146 N1141 0.987 . S
H1147 N1141 0.985 . S
H1148 N1145 0.987 . S
H1149 N1145 0.985 . S
H1150 N1144 0.984 . S
H1151 N1144 0.984 . S
H1152 N1140 0.984 . S
H1153 N1140 0.985 . S
C1154 C1155 1.363 . S
C1154 C1160 1.379 . S
C1154 N1162 1.356 . S
C1155 C1154 1.363 . S
C1155 C1161 1.363 . S
C1156 C1157 1.363 . S
C1156 C1161 1.379 . S
C1156 N1163 1.356 . S
C1157 C1156 1.363 . S
C1157 C1160 1.363 . S
N1158 C1160 1.356 . S
N1158 H1170 0.984 . S
N1158 H1171 0.985 . S
N1159 C1161 1.356 . S
N1159 H1164 0.984 . S
N1159 H1165 0.985 . S
C1160 C1154 1.379 . S
C1160 C1157 1.363 . S
C1160 N1158 1.356 . S
C1161 C1155 1.363 . S
C1161 C1156 1.379 . S
C1161 N1159 1.356 . S
N1162 C1154 1.356 . S
N1162 H1168 0.984 . S
N1162 H1169 0.984 . S
N1163 C1156 1.356 . S
N1163 H1166 0.984 . S
N1163 H1167 0.985 . S
H1164 N1159 0.984 . S
H1165 N1159 0.985 . S
H1166 N1163 0.984 . S
H1167 N1163 0.985 . S
H1168 N1162 0.984 . S
H1169 N1162 0.984 . S
H1170 N1158 0.984 . S
H1171 N1158 0.985 . S
C1172 C1173 1.363 . S
C1172 C1178 1.379 . S
C1172 N1180 1.356 1_554 S
C1173 C1172 1.363 . S
C1173 C1179 1.363 . S
C1174 C1175 1.363 . S
C1174 C1179 1.379 . S
C1174 N1181 1.356 . S
C1175 C1174 1.363 . S
C1175 C1178 1.363 . S
N1176 C1178 1.356 1_556 S
N1176 H1188 0.984 . S
N1176 H1189 0.987 . S
N1177 C1179 1.356 . S
N1177 H1182 0.984 . S
N1177 H1183 0.985 . S
C1178 C1172 1.379 . S
C1178 C1175 1.363 . S
C1178 N1176 1.356 1_554 S
C1179 C1173 1.363 . S
C1179 C1174 1.379 . S
C1179 N1177 1.356 . S
N1180 C1172 1.356 1_556 S
N1180 H1186 0.984 . S
N1180 H1187 0.987 . S
N1181 C1174 1.356 . S
N1181 H1184 0.984 . S
N1181 H1185 0.985 . S
H1182 N1177 0.984 . S
H1183 N1177 0.985 . S
H1184 N1181 0.984 . S
H1185 N1181 0.985 . S
H1186 N1180 0.984 . S
H1187 N1180 0.987 . S
H1188 N1176 0.984 . S
H1189 N1176 0.987 . S
C1190 C1191 1.363 . S
C1190 C1196 1.379 . S
C1190 N1198 1.356 . S
C1191 C1190 1.363 . S
C1191 C1197 1.363 . S
C1192 C1193 1.363 . S
C1192 C1197 1.379 . S
C1192 N1199 1.356 . S
C1193 C1192 1.363 . S
C1193 C1196 1.363 . S
N1194 C1196 1.356 . S
N1194 H1206 0.984 . S
N1194 H1207 0.985 . S
N1195 C1197 1.356 . S
N1195 H1200 0.984 . S
N1195 H1201 0.985 . S
C1196 C1190 1.379 . S
C1196 C1193 1.363 . S
C1196 N1194 1.356 . S
C1197 C1191 1.363 . S
C1197 C1192 1.379 . S
C1197 N1195 1.356 . S
N1198 C1190 1.356 . S
N1198 H1204 0.984 . S
N1198 H1205 0.984 . S
N1199 C1192 1.356 . S
N1199 H1202 0.984 . S
N1199 H1203 0.985 . S
H1200 N1195 0.984 . S
H1201 N1195 0.985 . S
H1202 N1199 0.984 . S
H1203 N1199 0.985 . S
H1204 N1198 0.984 . S
H1205 N1198 0.984 . S
H1206 N1194 0.984 . S
H1207 N1194 0.985 . S
C1208 C1209 1.363 . S
C1208 C1214 1.379 . S
C1208 N1216 1.356 . S
C1209 C1208 1.363 . S
C1209 C1215 1.363 . S
C1210 C1211 1.363 . S
C1210 C1215 1.379 . S
C1210 N1217 1.356 . S
C1211 C1210 1.363 . S
C1211 C1214 1.363 . S
N1212 C1214 1.356 . S
N1212 H1224 0.984 . S
N1212 H1225 0.985 . S
N1213 C1215 1.356 . S
N1213 H1218 0.984 . S
N1213 H1219 0.985 . S
C1214 C1208 1.379 . S
C1214 C1211 1.363 . S
C1214 N1212 1.356 . S
C1215 C1209 1.363 . S
C1215 C1210 1.379 . S
C1215 N1213 1.356 . S
N1216 C1208 1.356 . S
N1216 H1222 0.984 . S
N1216 H1223 0.984 . S
N1217 C1210 1.356 . S
N1217 H1220 0.984 . S
N1217 H1221 0.985 . S
H1218 N1213 0.984 . S
H1219 N1213 0.985 . S
H1220 N1217 0.984 . S
H1221 N1217 0.985 . S
H1222 N1216 0.984 . S
H1223 N1216 0.984 . S
H1224 N1212 0.984 . S
H1225 N1212 0.985 . S
C1226 C1227 1.363 . S
C1226 C1232 1.379 1_655 S
C1226 N1234 1.356 . S
C1227 C1226 1.363 . S
C1227 C1233 1.363 . S
C1228 C1229 1.363 . S
C1228 C1233 1.379 1_455 S
C1228 N1235 1.356 . S
C1229 C1228 1.363 . S
C1229 C1232 1.363 . S
N1230 C1232 1.356 . S
N1230 H1242 0.984 . S
N1230 H1243 0.985 . S
N1231 C1233 1.356 . S
N1231 H1236 0.984 . S
N1231 H1237 0.985 . S
C1232 C1226 1.379 1_455 S
C1232 C1229 1.363 . S
C1232 N1230 1.356 . S
C1233 C1227 1.363 . S
C1233 C1228 1.379 1_655 S
C1233 N1231 1.356 . S
N1234 C1226 1.356 . S
N1234 H1240 0.984 . S
N1234 H1241 0.984 . S
N1235 C1228 1.356 . S
N1235 H1238 0.984 . S
N1235 H1239 0.985 . S
H1236 N1231 0.984 . S
H1237 N1231 0.985 . S
H1238 N1235 0.984 . S
H1239 N1235 0.985 . S
H1240 N1234 0.984 . S
H1241 N1234 0.984 . S
H1242 N1230 0.984 . S
H1243 N1230 0.985 . S
C1244 C1245 1.363 . S
C1244 C1250 1.379 1_655 S
C1244 N1252 1.356 . S
C1245 C1244 1.363 . S
C1245 C1251 1.363 . S
C1246 C1247 1.363 . S
C1246 C1251 1.379 1_455 S
C1246 N1253 1.356 . S
C1247 C1246 1.363 . S
C1247 C1250 1.363 . S
N1248 C1250 1.356 . S
N1248 H1260 0.984 . S
N1248 H1261 0.985 . S
N1249 C1251 1.356 . S
N1249 H1254 0.984 . S
N1249 H1255 0.985 . S
C1250 C1244 1.379 1_455 S
C1250 C1247 1.363 . S
C1250 N1248 1.356 . S
C1251 C1245 1.363 . S
C1251 C1246 1.379 1_655 S
C1251 N1249 1.356 . S
N1252 C1244 1.356 . S
N1252 H1258 0.984 . S
N1252 H1259 0.984 . S
N1253 C1246 1.356 . S
N1253 H1256 0.984 . S
N1253 H1257 0.985 . S
H1254 N1249 0.984 . S
H1255 N1249 0.985 . S
H1256 N1253 0.984 . S
H1257 N1253 0.985 . S
H1258 N1252 0.984 . S
H1259 N1252 0.984 . S
H1260 N1248 0.984 . S
H1261 N1248 0.985 . S
C1262 C1263 1.363 . S
C1262 C1268 1.379 . S
C1262 N1270 1.356 . S
C1263 C1262 1.363 . S
C1263 C1269 1.363 . S
C1264 C1265 1.363 . S
C1264 C1269 1.379 . S
C1264 N1271 1.356 . S
C1265 C1264 1.363 . S
C1265 C1268 1.363 . S
N1266 C1268 1.356 . S
N1266 H1278 0.984 1_554 S
N1266 H1279 0.985 . S
N1267 C1269 1.356 . S
N1267 H1272 0.984 . S
N1267 H1273 0.985 . S
C1268 C1262 1.379 . S
C1268 C1265 1.363 . S
C1268 N1266 1.356 . S
C1269 C1263 1.363 . S
C1269 C1264 1.379 . S
C1269 N1267 1.356 . S
N1270 C1262 1.356 . S
N1270 H1276 0.984 1_554 S
N1270 H1277 0.984 . S
N1271 C1264 1.356 . S
N1271 H1274 0.984 . S
N1271 H1275 0.985 . S
H1272 N1267 0.984 . S
H1273 N1267 0.985 . S
H1274 N1271 0.984 . S
H1275 N1271 0.985 . S
H1276 N1270 0.984 1_556 S
H1277 N1270 0.984 . S
H1278 N1266 0.984 1_556 S
H1279 N1266 0.985 . S
C1280 C1281 1.363 . S
C1280 C1286 1.379 . S
C1280 N1288 1.356 . S
C1281 C1280 1.363 . S
C1281 C1287 1.363 . S
C1282 C1283 1.363 . S
C1282 C1287 1.379 . S
C1282 N1289 1.356 . S
C1283 C1282 1.363 . S
C1283 C1286 1.363 . S
N1284 C1286 1.356 . S
N1284 H1296 0.984 . S
N1284 H1297 0.985 . S
N1285 C1287 1.356 . S
N1285 H1290 0.984 . S
N1285 H1291 0.985 . S
C1286 C1280 1.379 . S
C1286 C1283 1.363 . S
C1286 N1284 1.356 . S
C1287 C1281 1.363 . S
C1287 C1282 1.379 . S
C1287 N1285 1.356 . S
N1288 C1280 1.356 . S
N1288 H1294 0.984 . S
N1288 H1295 0.984 . S
N1289 C1282 1.356 . S
N1289 H1292 0.984 . S
N1289 H1293 0.985 . S
H1290 N1285 0.984 . S
H1291 N1285 0.985 . S
H1292 N1289 0.984 . S
H1293 N1289 0.985 . S
H1294 N1288 0.984 . S
H1295 N1288 0.984 . S
H1296 N1284 0.984 . S
H1297 N1284 0.985 . S
C1298 C1299 1.363 . S
C1298 C1304 1.379 . S
C1298 N1306 1.356 . S
C1299 C1298 1.363 . S
C1299 C1305 1.363 . S
C1300 C1301 1.363 . S
C1300 C1305 1.379 . S
C1300 N1307 1.356 . S
C1301 C1300 1.363 . S
C1301 C1304 1.363 . S
N1302 C1304 1.356 . S
N1302 H1314 0.984 . S
N1302 H1315 0.985 . S
N1303 C1305 1.356 . S
N1303 H1308 0.984 . S
N1303 H1309 0.985 . S
C1304 C1298 1.379 . S
C1304 C1301 1.363 . S
C1304 N1302 1.356 . S
C1305 C1299 1.363 . S
C1305 C1300 1.379 . S
C1305 N1303 1.356 . S
N1306 C1298 1.356 . S
N1306 H1312 0.984 . S
N1306 H1313 0.984 . S
N1307 C1300 1.356 . S
N1307 H1310 0.984 . S
N1307 H1311 0.985 . S
H1308 N1303 0.984 . S
H1309 N1303 0.985 . S
H1310 N1307 0.984 . S
H1311 N1307 0.985 . S
H1312 N1306 0.984 . S
H1313 N1306 0.984 . S
H1314 N1302 0.984 . S
H1315 N1302 0.985 . S
C1316 C1317 1.363 . S
C1316 C1322 1.379 . S
C1316 N1324 1.356 . S
C1317 C1316 1.363 . S
C1317 C1323 1.363 . S
C1318 C1319 1.363 . S
C1318 C1323 1.379 . S
C1318 N1325 1.356 . S
C1319 C1318 1.363 . S
C1319 C1322 1.363 . S
N1320 C1322 1.356 . S
N1320 H1332 0.984 . S
N1320 H1333 0.985 . S
N1321 C1323 1.356 . S
N1321 H1326 0.984 1_556 S
N1321 H1327 0.985 1_556 S
C1322 C1316 1.379 . S
C1322 C1319 1.363 . S
C1322 N1320 1.356 . S
C1323 C1317 1.363 . S
C1323 C1318 1.379 . S
C1323 N1321 1.356 . S
N1324 C1316 1.356 . S
N1324 H1330 0.984 . S
N1324 H1331 0.984 . S
N1325 C1318 1.356 . S
N1325 H1328 0.984 . S
N1325 H1329 0.985 . S
H1326 N1321 0.984 1_554 S
H1327 N1321 0.985 1_554 S
H1328 N1325 0.984 . S
H1329 N1325 0.985 . S
H1330 N1324 0.984 . S
H1331 N1324 0.984 . S
H1332 N1320 0.984 . S
H1333 N1320 0.985 . S
C1334 C1335 1.363 . S
C1334 C1340 1.379 . S
C1334 N1342 1.356 1_554 S
C1335 C1334 1.363 . S
C1335 C1341 1.363 . S
C1336 C1337 1.363 . S
C1336 C1341 1.379 . S
C1336 N1343 1.356 . S
C1337 C1336 1.363 . S
C1337 C1340 1.363 . S
N1338 C1340 1.356 . S
N1338 H1350 0.984 . S
N1338 H1351 0.985 . S
N1339 C1341 1.356 . S
N1339 H1344 0.984 . S
N1339 H1345 0.985 . S
C1340 C1334 1.379 . S
C1340 C1337 1.363 . S
C1340 N1338 1.356 . S
C1341 C1335 1.363 . S
C1341 C1336 1.379 . S
C1341 N1339 1.356 . S
N1342 C1334 1.356 1_556 S
N1342 H1348 0.984 . S
N1342 H1349 0.984 . S
N1343 C1336 1.356 . S
N1343 H1346 0.984 . S
N1343 H1347 0.985 . S
H1344 N1339 0.984 . S
H1345 N1339 0.985 . S
H1346 N1343 0.984 . S
H1347 N1343 0.985 . S
H1348 N1342 0.984 . S
H1349 N1342 0.984 . S
H1350 N1338 0.984 . S
H1351 N1338 0.985 . S
C1352 C1353 1.363 . S
C1352 C1358 1.379 . S
C1352 N1360 1.356 . S
C1353 C1352 1.363 . S
C1353 C1359 1.363 . S
C1354 C1355 1.363 . S
C1354 C1359 1.379 . S
C1354 N1361 1.356 . S
C1355 C1354 1.363 . S
C1355 C1358 1.363 . S
N1356 C1358 1.356 . S
N1356 H1368 0.984 . S
N1356 H1369 0.985 . S
N1357 C1359 1.356 . S
N1357 H1362 0.984 . S
N1357 H1363 0.985 . S
C1358 C1352 1.379 . S
C1358 C1355 1.363 . S
C1358 N1356 1.356 . S
C1359 C1353 1.363 . S
C1359 C1354 1.379 . S
C1359 N1357 1.356 . S
N1360 C1352 1.356 . S
N1360 H1366 0.984 . S
N1360 H1367 0.984 . S
N1361 C1354 1.356 . S
N1361 H1364 0.984 . S
N1361 H1365 0.985 . S
H1362 N1357 0.984 . S
H1363 N1357 0.985 . S
H1364 N1361 0.984 . S
H1365 N1361 0.985 . S
H1366 N1360 0.984 . S
H1367 N1360 0.984 . S
H1368 N1356 0.984 . S
H1369 N1356 0.985 . S
C1370 C1371 1.363 . S
C1370 C1376 1.379 . S
C1370 N1378 1.356 . S
C1371 C1370 1.363 . S
C1371 C1377 1.363 . S
C1372 C1373 1.363 . S
C1372 C1377 1.379 . S
C1372 N1379 1.356 . S
C1373 C1372 1.363 . S
C1373 C1376 1.363 . S
N1374 C1376 1.356 . S
N1374 H1386 0.984 . S
N1374 H1387 0.985 . S
N1375 C1377 1.356 . S
N1375 H1380 0.984 . S
N1375 H1381 0.985 . S
C1376 C1370 1.379 . S
C1376 C1373 1.363 . S
C1376 N1374 1.356 . S
C1377 C1371 1.363 . S
C1377 C1372 1.379 . S
C1377 N1375 1.356 . S
N1378 C1370 1.356 . S
N1378 H1384 0.984 . S
N1378 H1385 0.984 . S
N1379 C1372 1.356 . S
N1379 H1382 0.984 . S
N1379 H1383 0.985 . S
H1380 N1375 0.984 . S
H1381 N1375 0.985 . S
H1382 N1379 0.984 . S
H1383 N1379 0.985 . S
H1384 N1378 0.984 . S
H1385 N1378 0.984 . S
H1386 N1374 0.984 . S
H1387 N1374 0.985 . S
C1388 C1389 1.363 . S
C1388 C1394 1.379 . S
C1388 N1396 1.356 . S
C1389 C1388 1.363 . S
C1389 C1395 1.363 . S
C1390 C1391 1.363 . S
C1390 C1395 1.379 . S
C1390 N1397 1.356 . S
C1391 C1390 1.363 . S
C1391 C1394 1.363 . S
N1392 C1394 1.356 1_556 S
N1392 H1404 0.984 . S
N1392 H1405 0.985 . S
N1393 C1395 1.356 . S
N1393 H1398 0.984 . S
N1393 H1399 0.985 . S
C1394 C1388 1.379 . S
C1394 C1391 1.363 . S
C1394 N1392 1.356 1_554 S
C1395 C1389 1.363 . S
C1395 C1390 1.379 . S
C1395 N1393 1.356 . S
N1396 C1388 1.356 . S
N1396 H1402 0.984 . S
N1396 H1403 0.984 . S
N1397 C1390 1.356 . S
N1397 H1400 0.984 . S
N1397 H1401 0.985 . S
H1398 N1393 0.984 . S
H1399 N1393 0.985 . S
H1400 N1397 0.984 . S
H1401 N1397 0.985 . S
H1402 N1396 0.984 . S
H1403 N1396 0.984 . S
H1404 N1392 0.984 . S
H1405 N1392 0.985 . S
C1406 C1407 1.363 . S
C1406 C1412 1.379 . S
C1406 N1414 1.356 . S
C1407 C1406 1.363 . S
C1407 C1413 1.363 . S
C1408 C1409 1.363 . S
C1408 C1413 1.379 . S
C1408 N1415 1.356 1_556 S
C1409 C1408 1.363 . S
C1409 C1412 1.363 . S
N1410 C1412 1.356 . S
N1410 H1422 0.984 . S
N1410 H1423 0.985 . S
N1411 C1413 1.356 . S
N1411 H1416 0.984 . S
N1411 H1417 0.985 . S
C1412 C1406 1.379 . S
C1412 C1409 1.363 . S
C1412 N1410 1.356 . S
C1413 C1407 1.363 . S
C1413 C1408 1.379 . S
C1413 N1411 1.356 . S
N1414 C1406 1.356 . S
N1414 H1420 0.984 . S
N1414 H1421 0.984 . S
N1415 C1408 1.356 1_554 S
N1415 H1418 0.984 . S
N1415 H1419 0.985 . S
H1416 N1411 0.984 . S
H1417 N1411 0.985 . S
H1418 N1415 0.984 . S
H1419 N1415 0.985 . S
H1420 N1414 0.984 . S
H1421 N1414 0.984 . S
H1422 N1410 0.984 . S
H1423 N1410 0.985 . S
C1424 C1425 1.363 . S
C1424 C1430 1.379 . S
C1424 N1432 1.356 . S
C1425 C1424 1.363 . S
C1425 C1431 1.363 . S
C1426 C1427 1.363 . S
C1426 C1431 1.379 . S
C1426 N1433 1.356 . S
C1427 C1426 1.363 . S
C1427 C1430 1.363 . S
N1428 C1430 1.356 . S
N1428 H1440 0.984 . S
N1428 H1441 0.985 . S
N1429 C1431 1.356 . S
N1429 H1434 0.984 1_556 S
N1429 H1435 0.985 . S
C1430 C1424 1.379 . S
C1430 C1427 1.363 . S
C1430 N1428 1.356 . S
C1431 C1425 1.363 . S
C1431 C1426 1.379 . S
C1431 N1429 1.356 . S
N1432 C1424 1.356 . S
N1432 H1438 0.984 . S
N1432 H1439 0.984 . S
N1433 C1426 1.356 . S
N1433 H1436 0.984 . S
N1433 H1437 0.985 . S
H1434 N1429 0.984 1_554 S
H1435 N1429 0.985 . S
H1436 N1433 0.984 . S
H1437 N1433 0.985 . S
H1438 N1432 0.984 . S
H1439 N1432 0.984 . S
H1440 N1428 0.984 . S
H1441 N1428 0.985 . S
C1442 C1443 1.363 . S
C1442 C1448 1.379 . S
C1442 N1450 1.356 . S
C1443 C1442 1.363 . S
C1443 C1449 1.363 . S
C1444 C1445 1.363 . S
C1444 C1449 1.379 . S
C1444 N1451 1.356 1_554 S
C1445 C1444 1.363 . S
C1445 C1448 1.363 . S
N1446 C1448 1.356 . S
N1446 H1458 0.984 . S
N1446 H1459 0.985 . S
N1447 C1449 1.356 . S
N1447 H1452 0.984 . S
N1447 H1453 0.985 . S
C1448 C1442 1.379 . S
C1448 C1445 1.363 . S
C1448 N1446 1.356 . S
C1449 C1443 1.363 . S
C1449 C1444 1.379 . S
C1449 N1447 1.356 . S
N1450 C1442 1.356 . S
N1450 H1456 0.984 . S
N1450 H1457 0.984 . S
N1451 C1444 1.356 1_556 S
N1451 H1454 0.984 . S
N1451 H1455 0.985 . S
H1452 N1447 0.984 . S
H1453 N1447 0.985 . S
H1454 N1451 0.984 . S
H1455 N1451 0.985 . S
H1456 N1450 0.984 . S
H1457 N1450 0.984 . S
H1458 N1446 0.984 . S
H1459 N1446 0.985 . S
C1460 C1461 1.363 . S
C1460 C1466 1.379 . S
C1460 N1468 1.356 . S
C1461 C1460 1.363 . S
C1461 C1467 1.363 . S
C1462 C1463 1.363 . S
C1462 C1467 1.379 . S
C1462 N1469 1.356 . S
C1463 C1462 1.363 . S
C1463 C1466 1.363 . S
N1464 C1466 1.356 . S
N1464 H1476 0.984 . S
N1464 H1477 0.985 . S
N1465 C1467 1.356 . S
N1465 H1470 0.984 . S
N1465 H1471 0.985 . S
C1466 C1460 1.379 . S
C1466 C1463 1.363 . S
C1466 N1464 1.356 . S
C1467 C1461 1.363 . S
C1467 C1462 1.379 . S
C1467 N1465 1.356 . S
N1468 C1460 1.356 . S
N1468 H1474 0.984 . S
N1468 H1475 0.984 . S
N1469 C1462 1.356 . S
N1469 H1472 0.984 . S
N1469 H1473 0.985 . S
H1470 N1465 0.984 . S
H1471 N1465 0.985 . S
H1472 N1469 0.984 . S
H1473 N1469 0.985 . S
H1474 N1468 0.984 . S
H1475 N1468 0.984 . S
H1476 N1464 0.984 . S
H1477 N1464 0.985 . S
C1478 C1479 1.363 . S
C1478 C1484 1.379 . S
C1478 N1486 1.356 . S
C1479 C1478 1.363 . S
C1479 C1485 1.363 . S
C1480 C1481 1.363 . S
C1480 C1485 1.379 . S
C1480 N1487 1.356 . S
C1481 C1480 1.363 . S
C1481 C1484 1.363 . S
N1482 C1484 1.356 . S
N1482 H1494 0.984 . S
N1482 H1495 0.985 . S
N1483 C1485 1.356 . S
N1483 H1488 0.984 . S
N1483 H1489 0.985 . S
C1484 C1478 1.379 . S
C1484 C1481 1.363 . S
C1484 N1482 1.356 . S
C1485 C1479 1.363 . S
C1485 C1480 1.379 . S
C1485 N1483 1.356 . S
N1486 C1478 1.356 . S
N1486 H1492 0.984 . S
N1486 H1493 0.984 . S
N1487 C1480 1.356 . S
N1487 H1490 0.984 . S
N1487 H1491 0.985 . S
H1488 N1483 0.984 . S
H1489 N1483 0.985 . S
H1490 N1487 0.984 . S
H1491 N1487 0.985 . S
H1492 N1486 0.984 . S
H1493 N1486 0.984 . S
H1494 N1482 0.984 . S
H1495 N1482 0.985 . S
C1496 C1497 1.363 . S
C1496 C1502 1.379 . S
C1496 N1504 1.356 . S
C1497 C1496 1.363 . S
C1497 C1503 1.363 . S
C1498 C1499 1.363 . S
C1498 C1503 1.379 . S
C1498 N1505 1.356 . S
C1499 C1498 1.363 . S
C1499 C1502 1.363 . S
N1500 C1502 1.356 1_556 S
N1500 H1512 0.984 . S
N1500 H1513 0.985 . S
N1501 C1503 1.356 . S
N1501 H1506 0.984 . S
N1501 H1507 0.985 . S
C1502 C1496 1.379 . S
C1502 C1499 1.363 . S
C1502 N1500 1.356 1_554 S
C1503 C1497 1.363 . S
C1503 C1498 1.379 . S
C1503 N1501 1.356 . S
N1504 C1496 1.356 . S
N1504 H1510 0.984 . S
N1504 H1511 0.984 . S
N1505 C1498 1.356 . S
N1505 H1508 0.984 . S
N1505 H1509 0.985 . S
H1506 N1501 0.984 . S
H1507 N1501 0.985 . S
H1508 N1505 0.984 . S
H1509 N1505 0.985 . S
H1510 N1504 0.984 . S
H1511 N1504 0.984 . S
H1512 N1500 0.984 . S
H1513 N1500 0.985 . S
C1514 C1515 1.363 . S
C1514 C1520 1.379 . S
C1514 N1522 1.356 1_556 S
C1515 C1514 1.363 . S
C1515 C1521 1.363 . S
C1516 C1517 1.363 . S
C1516 C1521 1.379 . S
C1516 N1523 1.356 . S
C1517 C1516 1.363 . S
C1517 C1520 1.363 . S
N1518 C1520 1.356 . S
N1518 H1530 0.984 . S
N1518 H1531 0.985 . S
N1519 C1521 1.356 . S
N1519 H1524 0.984 . S
N1519 H1525 0.985 . S
C1520 C1514 1.379 . S
C1520 C1517 1.363 . S
C1520 N1518 1.356 . S
C1521 C1515 1.363 . S
C1521 C1516 1.379 . S
C1521 N1519 1.356 . S
N1522 C1514 1.356 1_554 S
N1522 H1528 0.984 . S
N1522 H1529 0.984 . S
N1523 C1516 1.356 . S
N1523 H1526 0.984 . S
N1523 H1527 0.985 . S
H1524 N1519 0.984 . S
H1525 N1519 0.985 . S
H1526 N1523 0.984 . S
H1527 N1523 0.985 . S
H1528 N1522 0.984 . S
H1529 N1522 0.984 . S
H1530 N1518 0.984 . S
H1531 N1518 0.985 . S
C1532 C1533 1.363 . S
C1532 C1538 1.379 . S
C1532 N1540 1.356 . S
C1533 C1532 1.363 . S
C1533 C1539 1.363 . S
C1534 C1535 1.363 . S
C1534 C1539 1.379 . S
C1534 N1541 1.356 . S
C1535 C1534 1.363 . S
C1535 C1538 1.363 . S
N1536 C1538 1.356 . S
N1536 H1548 0.984 . S
N1536 H1549 0.985 . S
N1537 C1539 1.356 . S
N1537 H1542 0.984 . S
N1537 H1543 0.985 . S
C1538 C1532 1.379 . S
C1538 C1535 1.363 . S
C1538 N1536 1.356 . S
C1539 C1533 1.363 . S
C1539 C1534 1.379 . S
C1539 N1537 1.356 . S
N1540 C1532 1.356 . S
N1540 H1546 0.984 . S
N1540 H1547 0.984 . S
N1541 C1534 1.356 . S
N1541 H1544 0.984 . S
N1541 H1545 0.985 . S
H1542 N1537 0.984 . S
H1543 N1537 0.985 . S
H1544 N1541 0.984 . S
H1545 N1541 0.985 . S
H1546 N1540 0.984 . S
H1547 N1540 0.984 . S
H1548 N1536 0.984 . S
H1549 N1536 0.985 . S
C1550 C1551 1.363 . S
C1550 C1556 1.379 . S
C1550 N1558 1.356 . S
C1551 C1550 1.363 . S
C1551 C1557 1.363 . S
C1552 C1553 1.363 . S
C1552 C1557 1.379 . S
C1552 N1559 1.356 . S
C1553 C1552 1.363 . S
C1553 C1556 1.363 . S
N1554 C1556 1.356 . S
N1554 H1566 0.984 . S
N1554 H1567 0.985 . S
N1555 C1557 1.356 . S
N1555 H1560 0.984 . S
N1555 H1561 0.985 . S
C1556 C1550 1.379 . S
C1556 C1553 1.363 . S
C1556 N1554 1.356 . S
C1557 C1551 1.363 . S
C1557 C1552 1.379 . S
C1557 N1555 1.356 . S
N1558 C1550 1.356 . S
N1558 H1564 0.984 . S
N1558 H1565 0.984 . S
N1559 C1552 1.356 . S
N1559 H1562 0.984 . S
N1559 H1563 0.985 . S
H1560 N1555 0.984 . S
H1561 N1555 0.985 . S
H1562 N1559 0.984 . S
H1563 N1559 0.985 . S
H1564 N1558 0.984 . S
H1565 N1558 0.984 . S
H1566 N1554 0.984 . S
H1567 N1554 0.985 . S
C417 C81 1.544 . S
C419 C3 1.544 . S
C435 C16 1.544 . S
C437 C94 1.544 . S
C453 C57 1.544 . S
C455 C29 1.544 . S
C471 C42 1.544 . S
C473 C70 1.544 . S
C489 C107 1.544 . S
C491 C187 1.544 . S
C507 C200 1.544 . S
C509 C122 1.544 . S
C525 C133 1.544 . S
C527 C161 1.544 . S
C543 C172 1.544 . S
C545 C146 1.544 . S
C561 C211 1.544 . S
C563 C291 1.544 . S
C579 C226 1.544 . S
C581 C304 1.544 . S
C597 C265 1.544 . S
C599 C239 1.544 . S
C615 C276 1.544 . S
C617 C250 1.544 . S
C633 C315 1.544 . S
C635 C395 1.544 . S
C651 C328 1.544 . S
C653 C408 1.544 . S
C669 C367 1.544 . S
C671 C341 1.544 . S
C687 C354 1.544 . S
C689 C380 1.544 . S
C705 C10 1.569 1_556 S
C707 C101 1.579 . S
C723 C56 1.569 1_554 S
C725 C23 1.579 . S
C741 C69 1.579 . S
C743 C36 1.579 . S
C759 C49 1.579 . S
C761 C88 1.579 . S
C777 C114 1.569 1_554 S
C779 C199 1.579 . S
C795 C160 1.569 1_556 S
C797 C121 1.579 . S
C813 C179 1.579 . S
C815 C140 1.579 . S
C831 C186 1.579 . S
C833 C153 1.579 . S
C849 C218 1.579 . S
C851 C303 1.579 . S
C867 C225 1.579 . S
C869 C264 1.579 . S
C885 C283 1.579 . S
C887 C238 1.569 1_556 S
C903 C257 1.579 . S
C905 C290 1.569 1_554 S
C921 C322 1.579 . S
C923 C407 1.579 . S
C939 C374 1.579 . S
C941 C335 1.579 . S
C957 C348 1.569 1_554 S
C959 C387 1.579 . S
C975 C361 1.579 . S
C977 C394 1.569 1_556 S
C993 C393 1.552 . S
C995 C5 1.552 . S
C1011 C198 1.552 . S
C1013 C18 1.552 . S
C1029 C31 1.552 . S
C1031 C369 1.552 . S
C1047 C44 1.552 . S
C1049 C174 1.552 . S
C1065 C55 1.552 . S
C1067 C343 1.552 . S
C1083 C68 1.552 . S
C1085 C148 1.552 . S
C1101 C83 1.552 . S
C1103 C317 1.552 . S
C1119 C120 1.552 . S
C1121 C96 1.552 . S
C1137 C289 1.552 . S
C1139 C109 1.552 . S
C1155 C135 1.552 . S
C1157 C263 1.552 . S
C1173 C237 1.552 . S
C1175 C159 1.552 . S
C1191 C213 1.552 . S
C1193 C185 1.552 . S
C1209 C224 1.552 . S
C1211 C406 1.552 . S
C1227 C252 1.552 . S
C1229 C382 1.552 . S
C1245 C278 1.552 . S
C1247 C356 1.552 . S
C1263 C330 1.552 . S
C1265 C302 1.552 . S
C1281 C4 1.467 . S
C1283 C95 1.467 . S
C1299 C17 1.467 . S
C1301 C62 1.467 . S
C1317 C75 1.467 1_556 S
C1319 C30 1.467 . S
C1335 C43 1.467 1_554 S
C1337 C82 1.467 . S
C1353 C205 1.467 . S
C1355 C108 1.467 . S
C1371 C166 1.467 . S
C1373 C127 1.467 . S
C1389 C134 1.467 . S
C1391 C173 1.467 1_554 S
C1407 C192 1.467 . S
C1409 C147 1.467 1_556 S
C1425 C309 1.467 1_556 S
C1427 C212 1.467 . S
C1443 C270 1.467 . S
C1445 C231 1.467 1_554 S
C1461 C277 1.467 . S
C1463 C244 1.467 . S
C1479 C296 1.467 . S
C1481 C251 1.467 . S
C1497 C316 1.467 . S
C1499 C413 1.467 1_554 S
C1515 C329 1.467 1_556 S
C1517 C368 1.467 . S
C1533 C342 1.467 . S
C1535 C381 1.467 . S
C1551 C400 1.467 . S
C1553 C355 1.467 . S
