# Generated by pormake.
# Topology zfg, (5)-cn, num edge types: 1
# Building blocks:
#     Node 0, Type 0, BuildingBlock: XOMCOT_clean_sbu_0, # of connection points: 5
#     Node 1, Type 0, BuildingBlock: XOMCOT_clean_sbu_0, # of connection points: 5
#     Node 2, Type 0, BuildingBlock: XOMCOT_clean_sbu_0, # of connection points: 5
#     Node 3, Type 0, BuildingBlock: XOMCOT_clean_sbu_0, # of connection points: 5
#     Node 4, Type 0, BuildingBlock: XOMCOT_clean_sbu_0, # of connection points: 5
#     Node 5, Type 0, BuildingBlock: XOMCOT_clean_sbu_0, # of connection points: 5
#     Node 6, Type 0, BuildingBlock: XOMCOT_clean_sbu_0, # of connection points: 5
#     Node 7, Type 0, BuildingBlock: XOMCOT_clean_sbu_0, # of connection points: 5
#     Node 8, Type 0, BuildingBlock: XOMCOT_clean_sbu_0, # of connection points: 5
#     Node 9, Type 0, BuildingBlock: XOMCOT_clean_sbu_0, # of connection points: 5
#     Node 10, Type 0, BuildingBlock: XOMCOT_clean_sbu_0, # of connection points: 5
#     Node 11, Type 0, BuildingBlock: XOMCOT_clean_sbu_0, # of connection points: 5
#     Node 12, Type 0, BuildingBlock: XOMCOT_clean_sbu_0, # of connection points: 5
#     Node 13, Type 0, BuildingBlock: XOMCOT_clean_sbu_0, # of connection points: 5
#     Node 14, Type 0, BuildingBlock: XOMCOT_clean_sbu_0, # of connection points: 5
#     Node 15, Type 0, BuildingBlock: XOMCOT_clean_sbu_0, # of connection points: 5
#     Edge 16, Type (0, 0), BuildingBlock: EZIPEK_clean_linker_0, # of connection points: 2
#     Edge 17, Type (0, 0), BuildingBlock: EZIPEK_clean_linker_0, # of connection points: 2
#     Edge 18, Type (0, 0), BuildingBlock: EZIPEK_clean_linker_0, # of connection points: 2
#     Edge 19, Type (0, 0), BuildingBlock: EZIPEK_clean_linker_0, # of connection points: 2
#     Edge 20, Type (0, 0), BuildingBlock: EZIPEK_clean_linker_0, # of connection points: 2
#     Edge 21, Type (0, 0), BuildingBlock: EZIPEK_clean_linker_0, # of connection points: 2
#     Edge 22, Type (0, 0), BuildingBlock: EZIPEK_clean_linker_0, # of connection points: 2
#     Edge 23, Type (0, 0), BuildingBlock: EZIPEK_clean_linker_0, # of connection points: 2
#     Edge 24, Type (0, 0), BuildingBlock: EZIPEK_clean_linker_0, # of connection points: 2
#     Edge 25, Type (0, 0), BuildingBlock: EZIPEK_clean_linker_0, # of connection points: 2
#     Edge 26, Type (0, 0), BuildingBlock: EZIPEK_clean_linker_0, # of connection points: 2
#     Edge 27, Type (0, 0), BuildingBlock: EZIPEK_clean_linker_0, # of connection points: 2
#     Edge 28, Type (0, 0), BuildingBlock: EZIPEK_clean_linker_0, # of connection points: 2
#     Edge 29, Type (0, 0), BuildingBlock: EZIPEK_clean_linker_0, # of connection points: 2
#     Edge 30, Type (0, 0), BuildingBlock: EZIPEK_clean_linker_0, # of connection points: 2
#     Edge 31, Type (0, 0), BuildingBlock: EZIPEK_clean_linker_0, # of connection points: 2
#     Edge 32, Type (0, 0), BuildingBlock: EZIPEK_clean_linker_0, # of connection points: 2
#     Edge 33, Type (0, 0), BuildingBlock: EZIPEK_clean_linker_0, # of connection points: 2
#     Edge 34, Type (0, 0), BuildingBlock: EZIPEK_clean_linker_0, # of connection points: 2
#     Edge 35, Type (0, 0), BuildingBlock: EZIPEK_clean_linker_0, # of connection points: 2
#     Edge 36, Type (0, 0), BuildingBlock: EZIPEK_clean_linker_0, # of connection points: 2
#     Edge 37, Type (0, 0), BuildingBlock: EZIPEK_clean_linker_0, # of connection points: 2
#     Edge 38, Type (0, 0), BuildingBlock: EZIPEK_clean_linker_0, # of connection points: 2
#     Edge 39, Type (0, 0), BuildingBlock: EZIPEK_clean_linker_0, # of connection points: 2
#     Edge 40, Type (0, 0), BuildingBlock: EZIPEK_clean_linker_0, # of connection points: 2
#     Edge 41, Type (0, 0), BuildingBlock: EZIPEK_clean_linker_0, # of connection points: 2
#     Edge 42, Type (0, 0), BuildingBlock: EZIPEK_clean_linker_0, # of connection points: 2
#     Edge 43, Type (0, 0), BuildingBlock: EZIPEK_clean_linker_0, # of connection points: 2
#     Edge 44, Type (0, 0), BuildingBlock: EZIPEK_clean_linker_0, # of connection points: 2
#     Edge 45, Type (0, 0), BuildingBlock: EZIPEK_clean_linker_0, # of connection points: 2
#     Edge 46, Type (0, 0), BuildingBlock: EZIPEK_clean_linker_0, # of connection points: 2
#     Edge 47, Type (0, 0), BuildingBlock: EZIPEK_clean_linker_0, # of connection points: 2
#     Edge 48, Type (0, 0), BuildingBlock: EZIPEK_clean_linker_0, # of connection points: 2
#     Edge 49, Type (0, 0), BuildingBlock: EZIPEK_clean_linker_0, # of connection points: 2
#     Edge 50, Type (0, 0), BuildingBlock: EZIPEK_clean_linker_0, # of connection points: 2
#     Edge 51, Type (0, 0), BuildingBlock: EZIPEK_clean_linker_0, # of connection points: 2
#     Edge 52, Type (0, 0), BuildingBlock: EZIPEK_clean_linker_0, # of connection points: 2
#     Edge 53, Type (0, 0), BuildingBlock: EZIPEK_clean_linker_0, # of connection points: 2
#     Edge 54, Type (0, 0), BuildingBlock: EZIPEK_clean_linker_0, # of connection points: 2
#     Edge 55, Type (0, 0), BuildingBlock: EZIPEK_clean_linker_0, # of connection points: 2
# Relax obj value: 0.142
# Max RMSD: 0.172
# Mean RMSD: 0.172
data_MOF--net-zfg--node1-XOMCOT_clean_sbu_0--edge1-EZIPEK_clean_linker_0
_symmetry_space_group_name_H-M    P1
_symmetry_Int_Tables_number       1
_symmetry_cell_setting            triclinic
loop_
_symmetry_equiv_pos_as_xyz
'x, y, z'
_cell_length_a     32.129757
_cell_length_b     32.086141
_cell_length_c     39.433772
_cell_angle_alpha  89.877472
_cell_angle_beta   90.16223
_cell_angle_gamma 90.240295
loop_
_atom_site_label
_atom_site_type_symbol
_atom_site_fract_x
_atom_site_fract_y
_atom_site_fract_z
_atom_type_partial_charge
Co0 Co 0.09966 0.31658 0.13482 0.0
C1 C 0.14298 0.23344 0.14891 0.0
C2 C 0.1834 0.2867 0.1472 0.0
C3 C 0.20717 0.25217 0.15375 0.0
N4 N 0.14305 0.27536 0.14387 0.0
N5 N 0.18176 0.21885 0.15494 0.0
H6 H 0.11595 0.21353 0.14845 0.0
H7 H 0.19493 0.31831 0.14533 0.0
C8 C 0.11816 0.32436 0.20854 0.0
O9 O 0.10733 0.28504 0.21189 0.0
N10 N 0.05896 0.35955 0.12628 0.0
C11 C 0.02177 0.35568 0.11068 0.0
C12 C 1.00389 0.3946 0.10821 0.0
C13 C 0.06364 0.40063 0.13257 0.0
N14 N 0.03041 0.42267 0.12186 0.0
C15 C 0.04551 0.24646 0.13329 0.0
C16 C 0.98813 0.27503 0.17963 0.0
C17 C 0.97782 0.24071 0.15918 0.0
C18 C 1.00758 0.2257 0.1367 0.0
C19 C 0.02704 0.29479 0.17574 0.0
N20 N 0.05513 0.28074 0.15238 0.0
H21 H 0.06597 0.23649 0.11326 0.0
H22 H 0.03301 0.32342 0.18933 0.0
H23 H 1.00917 0.32681 0.10094 0.0
H24 H 0.0913 0.41429 0.14375 0.0
O25 O 0.09553 0.29895 0.08832 0.0
O26 O 0.13916 0.3475 0.10654 0.0
O27 O 0.11335 0.34285 0.18007 0.0
C28 C 0.12441 0.32583 0.08126 0.0
H29 H 0.24063 0.25136 0.15703 0.0
H30 H 0.97455 0.40206 0.09614 0.0
H31 H 0.96534 0.28809 0.19673 0.0
H32 H 1.00035 0.19986 0.12 0.0
Co33 Co 0.71465 0.09222 0.11788 0.0
C34 C 0.79845 0.13518 0.1332 0.0
C35 C 0.74419 0.17256 0.14083 0.0
C36 C 0.77851 0.19627 0.14867 0.0
N37 N 0.75619 0.1341 0.1311 0.0
N38 N 0.81247 0.17279 0.14397 0.0
H39 H 0.81901 0.10997 0.127 0.0
H40 H 0.7122 0.18274 0.14224 0.0
C41 C 0.70303 0.10164 0.1921 0.0
O42 O 0.74238 0.09157 0.1958 0.0
N43 N 0.67101 0.05329 0.10549 0.0
C44 C 0.67363 0.01848 0.08651 0.0
C45 C 0.63428 1.00111 0.08364 0.0
C46 C 0.63041 0.05692 0.11358 0.0
N47 N 0.60742 0.02549 0.10066 0.0
C48 C 0.78393 0.03692 0.11728 0.0
C49 C 0.75212 0.97833 0.16172 0.0
C50 C 0.78916 0.96966 0.14446 0.0
C51 C 0.80554 0.9999 0.12268 0.0
C52 C 0.73182 1.01637 0.15608 0.0
N53 N 0.74803 0.0455 0.13432 0.0
H54 H 0.79486 0.0575 0.09754 0.0
H55 H 0.70176 0.02119 0.16754 0.0
H56 H 0.70205 1.0066 0.07562 0.0
H57 H 0.61781 0.08213 0.12853 0.0
O58 O 0.73432 0.09226 0.07183 0.0
O59 O 0.6862 0.13491 0.09167 0.0
O60 O 0.68634 0.10138 0.16273 0.0
C61 C 0.70787 0.12186 0.06595 0.0
H62 H 0.77868 0.22847 0.15683 0.0
H63 H 0.62598 0.97287 0.07022 0.0
H64 H 0.73792 0.95504 0.17796 0.0
H65 H 0.83334 0.99366 0.10808 0.0
Co66 Co 0.94118 0.70577 0.1295 0.0
C67 C 0.89808 0.78972 0.13953 0.0
C68 C 0.85747 0.73661 0.14126 0.0
C69 C 0.83376 0.77183 0.14489 0.0
N70 N 0.8979 0.74742 0.13754 0.0
N71 N 0.85931 0.80502 0.14402 0.0
H72 H 0.92513 0.80944 0.13753 0.0
H73 H 0.84579 0.70496 0.14112 0.0
C74 C 0.92342 0.70011 0.20344 0.0
O75 O 0.93146 0.7402 0.20562 0.0
N76 N 0.98213 0.66272 0.12178 0.0
C77 C 0.01996 0.6668 0.10742 0.0
C78 C 0.03837 0.62806 0.106 0.0
C79 C 0.97764 0.62163 0.12833 0.0
N80 N 1.01153 0.59979 0.11889 0.0
C81 C 0.99609 0.77551 0.12587 0.0
C82 C 0.05162 0.74944 0.17502 0.0
C83 C 0.06261 0.78283 0.15382 0.0
C84 C 0.03378 0.79665 0.12981 0.0
C85 C 1.01302 0.72942 0.17059 0.0
N86 N 0.98577 0.74229 0.14599 0.0
H87 H 0.97637 0.78438 0.1049 0.0
H88 H 1.00678 0.70142 0.1849 0.0
H89 H 0.03294 0.69576 0.09813 0.0
H90 H 0.94983 0.60783 0.13908 0.0
O91 O 0.94395 0.7216 0.08242 0.0
O92 O 0.90127 0.67339 0.10289 0.0
O93 O 0.92885 0.6809 0.17548 0.0
C94 C 0.91509 0.69413 0.0768 0.0
H95 H 0.80027 0.77313 0.14755 0.0
H96 H 0.0685 0.6209 0.09532 0.0
H97 H 0.07368 0.73733 0.19333 0.0
H98 H 0.04161 0.82179 0.11255 0.0
Co99 Co 0.32539 0.93586 0.13446 0.0
C100 C 0.24291 0.88907 0.14114 0.0
C101 C 0.29738 0.85107 0.14549 0.0
C102 C 0.26303 0.826 0.14989 0.0
N103 N 0.28512 0.89069 0.1399 0.0
N104 N 0.22898 0.84995 0.14721 0.0
H105 H 0.2223 0.91514 0.13796 0.0
H106 H 0.32947 0.84108 0.14654 0.0
C107 C 0.37678 0.93426 0.19903 0.0
O108 O 0.38881 0.97291 0.19465 0.0
N109 N 0.36868 0.97873 0.12939 0.0
C110 C 0.36585 0.0207 0.13084 0.0
C111 C 0.40488 0.038 0.12603 0.0
C112 C 0.40961 0.97134 0.12338 0.0
N113 N 0.4322 1.00685 0.12143 0.0
C114 C 0.25469 0.98843 0.13364 0.0
C115 C 0.27322 0.03677 0.18931 0.0
C116 C 0.24367 0.05102 0.16572 0.0
C117 C 0.23243 0.02479 0.13913 0.0
C118 C 0.29362 0.99858 0.18371 0.0
N119 N 0.28654 0.97635 0.15461 0.0
H120 H 0.24742 0.97138 0.11088 0.0
H121 H 0.31699 0.9893 0.20151 0.0
H122 H 0.33768 0.03782 0.13487 0.0
H123 H 0.42275 0.94059 0.12055 0.0
O124 O 0.30817 0.94476 0.08837 0.0
O125 O 0.35731 0.90061 0.10303 0.0
O126 O 0.35038 0.91703 0.17916 0.0
C127 C 0.33589 0.91835 0.07886 0.0
H128 H 0.2629 0.79272 0.15448 0.0
H129 H 0.41264 0.07086 0.12588 0.0
H130 H 0.28221 0.05603 0.21065 0.0
H131 H 0.20927 0.03437 0.12069 0.0
Co132 Co 0.60739 0.20891 0.37399 0.0
C133 C 0.65715 0.28865 0.37143 0.0
C134 C 0.65312 0.26045 0.32252 0.0
C135 C 0.67548 0.29666 0.31944 0.0
N136 N 0.64166 0.25458 0.35523 0.0
N137 N 0.67797 0.31429 0.3501 0.0
H138 H 0.65135 0.296 0.39766 0.0
H139 H 0.64567 0.24104 0.3014 0.0
C140 C 0.60739 0.17387 0.30147 0.0
O141 O 0.58034 0.20105 0.28998 0.0
N142 N 0.57409 0.16349 0.39244 0.0
C143 C 0.54264 0.16678 0.41488 0.0
C144 C 0.52615 0.12765 0.42072 0.0
C145 C 0.57667 0.12238 0.38525 0.0
N146 N 0.54758 0.09999 0.40205 0.0
C147 C 0.55158 0.27654 0.36515 0.0
C148 C 0.48424 0.23108 0.34173 0.0
C149 C 0.47847 0.27262 0.3516 0.0
C150 C 0.51293 0.29574 0.36227 0.0
C151 C 0.52384 0.21302 0.34464 0.0
N152 N 0.55685 0.23553 0.35697 0.0
H153 H 0.57642 0.29405 0.37675 0.0
H154 H 0.5273 0.18024 0.33909 0.0
H155 H 0.53197 0.19574 0.42575 0.0
H156 H 0.599 0.10904 0.36795 0.0
O157 O 0.60834 0.23411 0.41848 0.0
O158 O 0.65457 0.18866 0.39971 0.0
O159 O 0.61796 0.17376 0.33257 0.0
C160 C 0.64057 0.21081 0.42475 0.0
H161 H 0.68808 0.30974 0.29628 0.0
H162 H 0.50027 0.12003 0.43715 0.0
H163 H 0.45797 0.21216 0.33382 0.0
H164 H 0.50935 0.32766 0.37068 0.0
Co165 Co 0.83576 0.59488 0.38743 0.0
C166 C 0.75079 0.63593 0.37832 0.0
C167 C 0.80316 0.67666 0.37145 0.0
C168 C 0.76753 0.69944 0.36677 0.0
N169 N 0.79305 0.63671 0.37858 0.0
N170 N 0.73474 0.67384 0.37108 0.0
H171 H 0.73162 0.60907 0.38333 0.0
H172 H 0.83463 0.68847 0.36949 0.0
C173 C 0.84014 0.61186 0.31329 0.0
O174 O 0.80069 0.60119 0.31127 0.0
N175 N 0.87989 0.55545 0.39589 0.0
C176 C 0.87708 0.51818 0.41161 0.0
C177 C 0.91639 0.50128 0.41393 0.0
C178 C 0.9207 0.56101 0.38918 0.0
N179 N 0.94357 0.52831 0.39984 0.0
C180 C 0.76787 0.53804 0.39163 0.0
C181 C 0.79289 0.48428 0.34115 0.0
C182 C 0.75906 0.47325 0.36175 0.0
C183 C 0.7463 0.50082 0.38687 0.0
C184 C 0.81371 0.5222 0.34674 0.0
N185 N 0.80073 0.549 0.37147 0.0
H186 H 0.75916 0.5571 0.41291 0.0
H187 H 0.84168 0.52877 0.33257 0.0
H188 H 0.84859 0.50462 0.42125 0.0
H189 H 0.93353 0.58877 0.37749 0.0
O190 O 0.81996 0.59192 0.43429 0.0
O191 O 0.8664 0.63642 0.41373 0.0
O192 O 0.85993 0.60761 0.34125 0.0
C193 C 0.84604 0.62202 0.43981 0.0
H194 H 0.76569 0.73238 0.36099 0.0
H195 H 0.92465 0.47198 0.42578 0.0
H196 H 0.80409 0.46303 0.32196 0.0
H197 H 0.72085 0.4928 0.40367 0.0
Co198 Co 0.44675 0.81683 0.3832 0.0
C199 C 0.40476 0.73235 0.37881 0.0
C200 C 0.36614 0.78343 0.36328 0.0
C201 C 0.34406 0.74705 0.35881 0.0
N202 N 0.40416 0.77448 0.37588 0.0
N203 N 0.36838 0.71511 0.36838 0.0
H204 H 0.4308 0.71445 0.38808 0.0
H205 H 0.35537 0.81449 0.35729 0.0
C206 C 0.45655 0.85882 0.31487 0.0
O207 O 0.49506 0.87001 0.32138 0.0
N208 N 0.48828 0.86074 0.38997 0.0
C209 C 0.52877 0.85621 0.39814 0.0
C210 C 0.5472 0.89496 0.40028 0.0
C211 C 0.48246 0.90253 0.38811 0.0
N212 N 0.51801 0.92408 0.39419 0.0
C213 C 0.50438 0.75162 0.3979 0.0
C214 C 0.54942 0.75492 0.33848 0.0
C215 C 0.56557 0.73278 0.36618 0.0
C216 C 0.54147 0.72943 0.39547 0.0
C217 C 0.51138 0.77593 0.34169 0.0
N218 N 0.49071 0.77659 0.37199 0.0
H219 H 0.48777 0.74997 0.42155 0.0
H220 H 0.49987 0.79244 0.32005 0.0
H221 H 0.54391 0.82697 0.40288 0.0
H222 H 0.45296 0.91697 0.38218 0.0
O223 O 0.44527 0.80771 0.43153 0.0
O224 O 0.4051 0.85258 0.40434 0.0
O225 O 0.43667 0.83464 0.33485 0.0
C226 C 0.41648 0.8358 0.43293 0.0
H227 H 0.31261 0.74412 0.34916 0.0
H228 H 0.57935 0.90141 0.4068 0.0
H229 H 0.56683 0.75735 0.31507 0.0
H230 H 0.55259 0.71193 0.41718 0.0
Co231 Co 0.22162 0.43005 0.38803 0.0
C232 C 0.30194 0.38295 0.37299 0.0
C233 C 0.24943 0.34358 0.38328 0.0
C234 C 0.28329 0.31864 0.37756 0.0
N235 N 0.2608 0.38412 0.3809 0.0
N236 N 0.31608 0.34337 0.37097 0.0
H237 H 0.32144 0.40976 0.36836 0.0
H238 H 0.21833 0.33245 0.38855 0.0
C239 C 0.21236 0.40926 0.31459 0.0
O240 O 0.25272 0.41437 0.3112 0.0
N241 N 0.1811 0.47359 0.395 0.0
C242 C 0.18729 0.51148 0.40884 0.0
C243 C 0.14961 0.53182 0.4105 0.0
C244 C 0.13979 0.47091 0.3891 0.0
N245 N 0.11985 0.50601 0.39842 0.0
C246 C 0.29452 0.48053 0.38936 0.0
C247 C 0.26904 0.53795 0.34143 0.0
C248 C 0.30302 0.5477 0.36245 0.0
C249 C 0.31667 0.51776 0.38566 0.0
C250 C 0.24796 0.49978 0.34561 0.0
N251 N 0.26019 0.47192 0.36997 0.0
H252 H 0.30354 0.45968 0.4096 0.0
H253 H 0.21953 0.49455 0.33155 0.0
H254 H 0.21689 0.52295 0.41794 0.0
H255 H 0.12443 0.44341 0.37919 0.0
O256 O 0.2384 0.4342 0.43492 0.0
O257 O 0.18765 0.39339 0.41612 0.0
O258 O 0.19483 0.41703 0.34286 0.0
C259 C 0.20935 0.40729 0.44167 0.0
H260 H 0.28395 0.28492 0.37825 0.0
H261 H 0.14412 0.5624 0.42107 0.0
H262 H 0.25724 0.56073 0.32356 0.0
H263 H 0.34249 0.52441 0.40256 0.0
Co264 Co 0.93501 0.71806 0.88248 0.0
C265 C 0.88869 0.79923 0.86766 0.0
C266 C 0.84868 0.74749 0.87895 0.0
C267 C 0.8243 0.78188 0.8732 0.0
N268 N 0.88932 0.75801 0.87594 0.0
N269 N 0.8494 0.81423 0.86593 0.0
H270 H 0.91573 0.81815 0.86245 0.0
H271 H 0.83706 0.71664 0.88468 0.0
C272 C 0.91255 0.71086 0.8093 0.0
O273 O 0.91813 0.75125 0.80609 0.0
N274 N 0.97865 0.67718 0.88914 0.0
C275 C 1.01746 0.68415 0.90094 0.0
C276 C 0.03726 0.64652 0.9051 0.0
C277 C 0.97497 0.63529 0.88712 0.0
N278 N 1.01029 0.61582 0.89694 0.0
C279 C 0.98568 0.79091 0.88498 0.0
C280 C 0.0424 0.76671 0.8364 0.0
C281 C 0.05263 0.79993 0.85806 0.0
C282 C 0.02287 0.81314 0.88145 0.0
C283 C 1.00412 0.74579 0.8402 0.0
N284 N 0.97677 0.75718 0.86504 0.0
H285 H 0.96506 0.79933 0.90541 0.0
H286 H 0.99849 0.71793 0.82554 0.0
H287 H 0.0299 0.71434 0.90746 0.0
H288 H 0.94651 0.61931 0.88005 0.0
O289 O 0.9392 0.73291 0.92974 0.0
O290 O 0.89832 0.68303 0.90945 0.0
O291 O 0.92164 0.69259 0.83708 0.0
C292 C 0.91253 0.70324 0.9356 0.0
H293 H 0.79067 0.78317 0.8743 0.0
H294 H 0.06827 0.64185 0.9152 0.0
H295 H 0.06487 0.75536 0.81825 0.0
H296 H 0.02972 0.8385 0.8987 0.0
Co297 Co 0.31967 0.94717 0.87939 0.0
C298 C 0.2359 0.90356 0.8707 0.0
C299 C 0.28862 0.86287 0.86903 0.0
C300 C 0.25325 0.83932 0.86428 0.0
N301 N 0.27808 0.9032 0.87323 0.0
N302 N 0.22027 0.86492 0.86526 0.0
H303 H 0.21658 0.9308 0.87261 0.0
H304 H 0.32018 0.85131 0.86913 0.0
C305 C 0.32881 0.92445 0.80572 0.0
O306 O 0.28822 0.92521 0.80178 0.0
N307 N 0.36318 0.9888 0.88409 0.0
C308 C 0.36062 0.0301 0.89038 0.0
C309 C 0.40053 0.04631 0.89228 0.0
C310 C 0.40429 0.98072 0.88165 0.0
N311 N 0.42762 1.0151 0.88682 0.0
C312 C 0.2515 1.00211 0.88407 0.0
C313 C 0.26991 0.05311 0.82974 0.0
C314 C 0.24071 0.0665 0.8538 0.0
C315 C 0.23103 0.03992 0.88067 0.0
C316 C 0.29064 1.01493 0.83455 0.0
N317 N 0.28193 0.99015 0.86195 0.0
H318 H 0.24393 0.98336 0.90591 0.0
H319 H 0.31541 1.00706 0.81758 0.0
H320 H 0.33208 0.04701 0.89457 0.0
H321 H 0.41694 0.95008 0.87687 0.0
O322 O 0.3048 0.95301 0.92649 0.0
O323 O 0.35251 0.90938 0.90839 0.0
O324 O 0.34521 0.93308 0.83429 0.0
C325 C 0.33232 0.92519 0.93391 0.0
H326 H 0.25169 0.8059 0.86073 0.0
H327 H 0.40906 0.07825 0.89784 0.0
H328 H 0.27801 0.07284 0.80842 0.0
H329 H 0.20839 0.04886 0.89961 0.0
Co330 Co 0.09127 0.32879 0.88888 0.0
C331 C 0.14875 0.25463 0.87686 0.0
C332 C 0.10481 0.2652 0.83694 0.0
C333 C 0.12739 0.2307 0.82886 0.0
N334 N 0.11783 0.28079 0.86701 0.0
N335 N 0.1546 0.22353 0.85406 0.0
H336 H 0.16622 0.25765 0.90007 0.0
H337 H 0.07891 0.27653 0.82234 0.0
C338 C 0.08688 0.36513 0.81661 0.0
O339 O 0.05332 0.34433 0.80808 0.0
N340 N 0.06446 0.37702 0.90902 0.0
C341 C 0.03559 0.37634 0.93381 0.0
C342 C 0.0208 0.41619 0.93849 0.0
C343 C 0.06711 0.41734 0.89915 0.0
N344 N 0.04061 0.44176 0.91666 0.0
C345 C 0.02987 0.26664 0.88482 0.0
C346 C 0.96514 0.31385 0.85954 0.0
C347 C 0.95832 0.27183 0.8678 0.0
C348 C 0.99105 0.24832 0.88078 0.0
C349 C 1.0048 0.33127 0.86441 0.0
N350 N 0.03702 0.30713 0.87564 0.0
H351 H 0.05439 0.24821 0.89604 0.0
H352 H 1.00954 0.36403 0.85935 0.0
H353 H 0.02485 0.34853 0.94668 0.0
H354 H 0.08696 0.42858 0.87896 0.0
O355 O 0.09206 0.30242 0.93282 0.0
O356 O 0.1421 0.3433 0.91311 0.0
O357 O 0.10288 0.36217 0.8462 0.0
C358 C 0.12652 0.32243 0.93857 0.0
H359 H 0.12231 0.21057 0.80722 0.0
H360 H 0.99666 0.4256 0.95593 0.0
H361 H 0.94 0.33298 0.84998 0.0
H362 H 0.9865 0.21601 0.88798 0.0
Co363 Co 0.70785 0.10102 0.8706 0.0
C364 C 0.78501 0.15443 0.86934 0.0
C365 C 0.74502 0.16773 0.82741 0.0
C366 C 0.77854 0.19397 0.82552 0.0
N367 N 0.74877 0.14218 0.85461 0.0
N368 N 0.80347 0.1856 0.85185 0.0
H369 H 0.79777 0.14122 0.89234 0.0
H370 H 0.71984 0.16872 0.80982 0.0
C371 C 0.67604 0.1062 0.79749 0.0
O372 O 0.71032 0.09 0.78527 0.0
N373 N 0.6663 0.06181 0.88611 0.0
C374 C 0.67169 0.0253 0.90251 0.0
C375 C 0.63336 1.00612 0.90592 0.0
C376 C 0.62506 0.06493 0.88057 0.0
N377 N 0.60431 0.03136 0.89223 0.0
C378 C 0.77959 0.05013 0.86192 0.0
C379 C 0.73966 0.98346 0.83165 0.0
C380 C 0.77974 0.9778 0.84509 0.0
C381 C 0.80035 1.01221 0.8589 0.0
C382 C 0.72009 0.02243 0.83467 0.0
N383 N 0.73949 0.05485 0.85095 0.0
H384 H 0.79468 0.07421 0.87628 0.0
H385 H 0.68793 0.02523 0.82686 0.0
H386 H 0.7014 1.01317 0.9107 0.0
H387 H 0.61039 0.09116 0.86812 0.0
O388 O 0.73283 0.10036 0.91531 0.0
O389 O 0.68274 0.14329 0.89904 0.0
O390 O 0.67181 0.11077 0.82932 0.0
C391 C 0.70651 0.12941 0.92331 0.0
H392 H 0.78428 0.21753 0.80638 0.0
H393 H 0.62715 0.97625 0.91772 0.0
H394 H 0.7226 0.95734 0.82108 0.0
H395 H 0.8311 1.00886 0.86989 0.0
Co396 Co 0.43251 0.82815 0.62466 0.0
C397 C 0.38799 0.74508 0.63371 0.0
C398 C 0.34895 0.79889 0.63788 0.0
C399 C 0.3248 0.76418 0.64322 0.0
N400 N 0.38852 0.78725 0.63153 0.0
N401 N 0.34935 0.7306 0.64064 0.0
H402 H 0.41459 0.7251 0.63062 0.0
H403 H 0.33837 0.8308 0.63901 0.0
C404 C 0.43306 0.87481 0.69248 0.0
O405 O 0.47047 0.89042 0.68804 0.0
N406 N 0.47446 0.8711 0.61809 0.0
C407 C 0.51418 0.86636 0.60786 0.0
C408 C 0.53161 0.90522 0.60256 0.0
C409 C 0.46795 0.9127 0.61802 0.0
N410 N 0.50241 0.9341 0.60902 0.0
C411 C 0.48695 0.75871 0.61831 0.0
C412 C 0.5379 0.77508 0.67313 0.0
C413 C 0.55112 0.74627 0.64873 0.0
C414 C 0.52411 0.73675 0.62202 0.0
C415 C 0.49967 0.79576 0.66889 0.0
N416 N 0.47552 0.78909 0.64075 0.0
H417 H 0.46833 0.75241 0.5961 0.0
H418 H 0.49123 0.81852 0.6874 0.0
H419 H 0.52899 0.83684 0.60325 0.0
H420 H 0.43837 0.92702 0.62381 0.0
O421 O 0.43608 0.81471 0.57722 0.0
O422 O 0.39341 0.86187 0.59833 0.0
O423 O 0.41738 0.84929 0.67117 0.0
C424 C 0.40752 0.84232 0.57189 0.0
H425 H 0.29183 0.76347 0.64876 0.0
H426 H 0.5628 0.91181 0.59367 0.0
H427 H 0.55781 0.78296 0.69439 0.0
H428 H 0.53299 0.71441 0.60282 0.0
Co429 Co 0.20675 0.44128 0.63347 0.0
C430 C 0.28482 0.38981 0.63391 0.0
C431 C 0.26154 0.39873 0.68404 0.0
C432 C 0.29741 0.376 0.68628 0.0
N433 N 0.25267 0.40702 0.65113 0.0
N434 N 0.312 0.3705 0.65483 0.0
H435 H 0.29005 0.39375 0.60708 0.0
H436 H 0.2447 0.40932 0.7057 0.0
C437 C 0.17522 0.44549 0.70688 0.0
O438 O 0.2034 0.4728 0.71641 0.0
N439 N 0.16106 0.47469 0.61625 0.0
C440 C 0.16369 0.50731 0.59471 0.0
C441 C 0.12452 0.52397 0.59043 0.0
C442 C 0.12033 0.4714 0.62426 0.0
N443 N 0.09745 0.50127 0.60896 0.0
C444 C 0.27617 0.49584 0.64005 0.0
C445 C 0.23388 0.56428 0.66439 0.0
C446 C 0.27552 0.56865 0.65454 0.0
C447 C 0.29701 0.53373 0.64318 0.0
C448 C 0.21414 0.52544 0.66116 0.0
N449 N 0.23521 0.49176 0.64878 0.0
H450 H 0.29246 0.4706 0.62813 0.0
H451 H 0.18137 0.52301 0.66704 0.0
H452 H 0.19227 0.51875 0.58356 0.0
H453 H 0.10761 0.44799 0.64114 0.0
O454 O 0.22952 0.43953 0.58823 0.0
O455 O 0.18429 0.39379 0.60905 0.0
O456 O 0.17396 0.432 0.67651 0.0
C457 C 0.20563 0.40724 0.58321 0.0
H458 H 0.31272 0.36579 0.70933 0.0
H459 H 0.11643 0.5507 0.575 0.0
H460 H 0.21626 0.59104 0.67275 0.0
H461 H 0.32895 0.53641 0.63466 0.0
Co462 Co 0.59263 0.21473 0.61523 0.0
C463 C 0.6351 0.29829 0.62969 0.0
C464 C 0.66877 0.24463 0.64673 0.0
C465 C 0.69159 0.27947 0.65489 0.0
N466 N 0.63301 0.25604 0.63126 0.0
N467 N 0.67042 0.31306 0.64421 0.0
H468 H 0.61249 0.31819 0.61776 0.0
H469 H 0.67787 0.21274 0.65155 0.0
C470 C 0.59745 0.2 0.68983 0.0
O471 O 0.58518 0.23865 0.69402 0.0
N472 N 0.55426 0.17201 0.60003 0.0
C473 C 0.5193 0.17681 0.58143 0.0
C474 C 0.50029 0.13839 0.5778 0.0
C475 C 0.55644 0.13093 0.60705 0.0
N476 N 0.52391 0.10976 0.59378 0.0
C477 C 0.53645 0.28319 0.61199 0.0
C478 C 0.47736 0.25178 0.656 0.0
C479 C 0.46911 0.28879 0.63835 0.0
C480 C 0.49915 0.3045 0.61622 0.0
C481 C 0.51516 0.23116 0.65081 0.0
N482 N 0.54489 0.2476 0.6298 0.0
H483 H 0.55735 0.29414 0.5926 0.0
H484 H 0.51964 0.20099 0.66245 0.0
H485 H 0.50806 0.20624 0.57169 0.0
H486 H 0.58119 0.11677 0.62169 0.0
O487 O 0.59613 0.23587 0.56962 0.0
O488 O 0.63718 0.187 0.59105 0.0
O489 O 0.59909 0.18473 0.65999 0.0
C490 C 0.62616 0.20958 0.56507 0.0
H491 H 0.72184 0.28021 0.66704 0.0
H492 H 0.47141 0.13188 0.5646 0.0
H493 H 0.45418 0.2382 0.67262 0.0
H494 H 0.49318 0.33234 0.60141 0.0
Co495 Co 0.81778 0.59952 0.6319 0.0
C496 C 0.73432 0.64364 0.63989 0.0
C497 C 0.78751 0.68399 0.64306 0.0
C498 C 0.75231 0.70776 0.64673 0.0
N499 N 0.77662 0.64366 0.63863 0.0
N500 N 0.719 0.68238 0.64487 0.0
H501 H 0.71466 0.61658 0.63739 0.0
H502 H 0.81918 0.69549 0.64381 0.0
C503 C 0.82139 0.6189 0.7057 0.0
O504 O 0.78126 0.6113 0.70762 0.0
N505 N 0.85982 0.55723 0.6253 0.0
C506 C 0.85431 0.51913 0.61164 0.0
C507 C 0.89243 0.49998 0.60896 0.0
C508 C 0.90129 0.56122 0.63002 0.0
N509 N 0.92191 0.52672 0.62009 0.0
C510 C 0.7478 0.54534 0.62543 0.0
C511 C 0.76899 0.49073 0.67683 0.0
C512 C 0.73758 0.4794 0.65382 0.0
C513 C 0.72625 0.5077 0.62856 0.0
C514 C 0.78981 0.52905 0.67291 0.0
N515 N 0.77941 0.55579 0.64716 0.0
H516 H 0.7407 0.56491 0.60391 0.0
H517 H 0.81659 0.53536 0.68869 0.0
H518 H 0.82488 0.50683 0.60287 0.0
H519 H 0.91622 0.58935 0.63917 0.0
O520 O 0.80482 0.5974 0.58421 0.0
O521 O 0.85262 0.63874 0.60706 0.0
O522 O 0.84106 0.61149 0.67833 0.0
C523 C 0.83383 0.62521 0.57997 0.0
H524 H 0.75112 0.74118 0.65029 0.0
H525 H 0.8984 0.46974 0.59792 0.0
H526 H 0.7792 0.46901 0.69616 0.0
H527 H 0.7027 0.49959 0.60998 0.0
C528 C 0.14104 0.36521 0.99093 0.0
C529 C 0.14205 0.32587 0.97416 0.0
C530 C 0.15085 0.29162 0.02937 0.0
C531 C 0.1399 0.32905 0.04587 0.0
N532 N 0.12447 0.40237 0.04274 0.0
N533 N 0.14726 0.25089 0.97814 0.0
C534 C 0.13598 0.36641 0.02689 0.0
C535 C 0.14753 0.28893 0.99359 0.0
N536 N 0.14369 0.40138 0.9727 0.0
N537 N 0.16414 0.25845 0.04819 0.0
H538 H 0.14603 0.24737 0.952 0.0
H539 H 0.1456 0.22278 0.99134 0.0
H540 H 0.16713 0.26011 0.07448 0.0
H541 H 0.17625 0.23136 0.03763 0.0
H542 H 0.14689 0.43061 0.98385 0.0
H543 H 0.14706 0.40233 0.94652 0.0
H544 H 0.11567 0.42928 0.02982 0.0
H545 H 0.12125 0.40471 0.06893 0.0
C546 C 0.73676 0.1567 0.9773 0.0
C547 C 0.70143 0.14206 0.9594 0.0
C548 C 0.6644 0.13263 0.01343 0.0
C549 C 0.70276 0.1381 0.03089 0.0
N550 N 0.77458 0.15985 0.03056 0.0
N551 N 0.62953 0.1198 0.95983 0.0
C552 C 0.73857 0.15204 0.01312 0.0
C553 C 0.66424 0.13218 0.97726 0.0
N554 N 0.76796 0.17605 0.95985 0.0
N555 N 0.62837 0.12703 0.03125 0.0
H556 H 0.62698 0.12152 0.93361 0.0
H557 H 0.60333 0.10678 0.97117 0.0
H558 H 0.62722 0.12553 0.05757 0.0
H559 H 0.59889 0.1274 0.02028 0.0
H560 H 0.79362 0.19022 0.97121 0.0
H561 H 0.76544 0.18194 0.93395 0.0
H562 H 0.80323 0.16506 0.01902 0.0
H563 H 0.77591 0.15982 0.057 0.0
C564 C 0.88127 0.72601 0.9903 0.0
C565 C 0.89941 0.69383 0.97079 0.0
C566 C 0.9131 0.6534 0.0225 0.0
C567 C 0.89947 0.68785 0.04183 0.0
N568 N 0.85568 0.74782 0.0452 0.0
N569 N 0.92075 0.62197 0.96678 0.0
C570 C 0.87864 0.72126 0.02596 0.0
C571 C 0.91098 0.65557 0.98639 0.0
N572 N 0.86794 0.76171 0.97481 0.0
N573 N 0.92963 0.61965 0.03872 0.0
H574 H 0.91909 0.62257 0.94046 0.0
H575 H 0.92721 0.59243 0.97625 0.0
H576 H 0.92989 0.61686 0.06506 0.0
H577 H 0.94336 0.59465 0.02641 0.0
H578 H 0.85941 0.78846 0.98793 0.0
H579 H 0.86684 0.76503 0.94852 0.0
H580 H 0.83631 0.77062 0.03506 0.0
H581 H 0.85256 0.7436 0.07129 0.0
C582 C 0.35504 0.95474 0.98905 0.0
C583 C 0.34401 0.91886 0.97019 0.0
C584 C 0.34125 0.87835 0.02341 0.0
C585 C 0.34614 0.91597 0.04207 0.0
N586 N 0.35627 0.99075 0.04204 0.0
N587 N 0.32631 0.84602 0.96866 0.0
C588 C 0.35316 0.95413 0.02464 0.0
C589 C 0.33786 0.88017 0.9871 0.0
N590 N 0.3681 0.98989 0.97275 0.0
N591 N 0.33862 0.84132 0.04043 0.0
H592 H 0.32426 0.84656 0.94226 0.0
H593 H 0.31701 0.81781 0.97932 0.0
H594 H 0.33962 0.83944 0.06681 0.0
H595 H 0.33825 0.81238 0.02859 0.0
H596 H 0.38148 1.01557 0.98474 0.0
H597 H 0.37023 0.99136 0.94672 0.0
H598 H 0.35242 0.02004 0.03105 0.0
H599 H 0.36104 0.99207 0.0679 0.0
C600 C 0.64755 0.16702 0.47717 0.0
C601 C 0.65524 0.20523 0.46024 0.0
C602 C 0.66131 0.24111 0.51472 0.0
C603 C 0.64491 0.20508 0.53098 0.0
N604 N 0.62329 0.13287 0.5282 0.0
N605 N 0.68625 0.2729 0.46235 0.0
C606 C 0.63957 0.16734 0.51261 0.0
C607 C 0.66738 0.24068 0.47898 0.0
N608 N 0.64835 0.13045 0.45957 0.0
N609 N 0.66966 0.27593 0.53351 0.0
H610 H 0.69474 0.27017 0.43694 0.0
H611 H 0.69728 0.29989 0.47388 0.0
H612 H 0.6677 0.27601 0.5599 0.0
H613 H 0.67801 0.30468 0.52333 0.0
H614 H 0.64821 0.10134 0.47129 0.0
H615 H 0.65435 0.1289 0.4337 0.0
H616 H 0.61288 0.10664 0.51513 0.0
H617 H 0.61796 0.13105 0.55416 0.0
C618 C 0.81296 0.65453 0.49003 0.0
C619 C 0.84961 0.63939 0.47445 0.0
C620 C 0.8826 0.63061 0.53008 0.0
C621 C 0.84385 0.64029 0.54541 0.0
N622 N 0.77824 0.67538 0.54188 0.0
N623 N 0.9228 0.6247 0.47797 0.0
C624 C 0.81105 0.65706 0.52586 0.0
C625 C 0.88589 0.63186 0.494 0.0
N626 N 0.77938 0.66455 0.4704 0.0
N627 N 0.91521 0.61808 0.54986 0.0
H628 H 0.9256 0.62502 0.45165 0.0
H629 H 0.95122 0.62144 0.49035 0.0
H630 H 0.91421 0.61858 0.57622 0.0
H631 H 0.9432 0.60684 0.54049 0.0
H632 H 0.74984 0.67057 0.47991 0.0
H633 H 0.78116 0.6657 0.44405 0.0
H634 H 0.75441 0.69109 0.5294 0.0
H635 H 0.77708 0.67814 0.56822 0.0
C636 C 0.40399 0.88548 0.51904 0.0
C637 C 0.39204 0.84911 0.53692 0.0
C638 C 0.37576 0.81428 0.48331 0.0
C639 C 0.39745 0.84623 0.46601 0.0
N640 N 0.42678 0.91532 0.46555 0.0
N641 N 0.35911 0.78184 0.53732 0.0
C642 C 0.40896 0.88334 0.48321 0.0
C643 C 0.37479 0.81468 0.51931 0.0
N644 N 0.41085 0.92162 0.53639 0.0
N645 N 0.35649 0.78365 0.46502 0.0
H646 H 0.35549 0.78313 0.56358 0.0
H647 H 0.35028 0.75353 0.52662 0.0
H648 H 0.35637 0.78385 0.43855 0.0
H649 H 0.33781 0.76051 0.47558 0.0
H650 H 0.41631 0.95023 0.52471 0.0
H651 H 0.40707 0.92365 0.56257 0.0
H652 H 0.4412 0.9409 0.47684 0.0
H653 H 0.42743 0.91571 0.43919 0.0
C654 C 0.23352 0.37291 0.53145 0.0
C655 C 0.1995 0.39093 0.54834 0.0
C656 C 0.16467 0.40398 0.494 0.0
C657 C 0.20229 0.39356 0.47716 0.0
N658 N 0.27081 0.36328 0.47868 0.0
N659 N 0.12675 0.40796 0.54721 0.0
C660 C 0.23602 0.37592 0.49556 0.0
C661 C 0.16296 0.40126 0.53006 0.0
N662 N 0.26203 0.35107 0.54993 0.0
N663 N 0.13187 0.41952 0.47588 0.0
H664 H 0.12472 0.40586 0.57349 0.0
H665 H 0.09788 0.41112 0.53553 0.0
H666 H 0.13149 0.42112 0.44953 0.0
H667 H 0.10538 0.43222 0.48678 0.0
H668 H 0.28696 0.33496 0.53957 0.0
H669 H 0.2573 0.34504 0.57564 0.0
H670 H 0.29845 0.35476 0.49058 0.0
H671 H 0.27229 0.36236 0.45229 0.0
C672 C 0.20051 0.11035 0.18959 0.0
C673 C 0.22877 0.0951 0.16493 0.0
C674 C 0.22009 0.15929 0.13179 0.0
C675 C 0.19511 0.17611 0.15775 0.0
N676 N 0.1657 0.1707 0.2135 0.0
N677 N 0.27208 0.10911 0.11605 0.0
C678 C 0.18638 0.15244 0.1873 0.0
C679 C 0.24048 0.12081 0.13706 0.0
N680 N 0.18612 0.0843 0.2144 0.0
N681 N 0.22319 0.17966 0.10147 0.0
H682 H 0.2881 0.08126 0.11884 0.0
H683 H 0.28505 0.12875 0.09782 0.0
H684 H 0.20809 0.20769 0.09671 0.0
H685 H 0.23712 0.16684 0.08009 0.0
H686 H 0.1623 0.09223 0.231 0.0
H687 H 0.19598 0.05351 0.21684 0.0
H688 H 0.16198 0.15677 0.23718 0.0
H689 H 0.15482 0.20124 0.21223 0.0
C690 C 0.87861 0.17714 0.17639 0.0
C691 C 0.85486 0.18741 0.14724 0.0
C692 C 0.90892 0.23677 0.12916 0.0
C693 C 0.93436 0.22416 0.15687 0.0
N694 N 0.94581 0.17918 0.20494 0.0
N695 N 0.84925 0.22163 0.09332 0.0
C696 C 0.91985 0.19342 0.18003 0.0
C697 C 0.87066 0.21572 0.12289 0.0
N698 N 0.86101 0.15295 0.20105 0.0
N699 N 0.92083 0.26978 0.10942 0.0
H700 H 0.82111 0.20658 0.08823 0.0
H701 H 0.86089 0.2384 0.07278 0.0
H702 H 0.94843 0.28625 0.11342 0.0
H703 H 0.90183 0.28327 0.09104 0.0
H704 H 0.87468 0.14761 0.22461 0.0
H705 H 0.83116 0.14035 0.19865 0.0
H706 H 0.93886 0.15382 0.22046 0.0
H707 H 0.97564 0.19129 0.20878 0.0
C708 C 0.80541 0.90214 0.11547 0.0
C709 C 0.80786 0.92717 0.1451 0.0
C710 C 0.84589 0.87117 0.17431 0.0
C711 C 0.84603 0.8479 0.14386 0.0
N712 N 0.83446 0.84455 0.08392 0.0
N713 N 0.83543 0.93834 0.20131 0.0
C714 C 0.82837 0.86455 0.11396 0.0
C715 C 0.82954 0.91248 0.17422 0.0
N716 N 0.77974 0.91339 0.08931 0.0
N717 N 0.86043 0.85317 0.20338 0.0
H718 H 0.82369 0.96858 0.20208 0.0
H719 H 0.85437 0.93098 0.22191 0.0
H720 H 0.8735 0.82344 0.20367 0.0
H721 H 0.85734 0.86648 0.22729 0.0
H722 H 0.7736 0.89424 0.06858 0.0
H723 H 0.7613 0.94006 0.08978 0.0
H724 H 0.82567 0.85679 0.0605 0.0
H725 H 0.85247 0.81773 0.08235 0.0
C726 C 0.17099 0.81052 0.12171 0.0
C727 C 0.18651 0.83533 0.14852 0.0
C728 C 0.12004 0.82773 0.17865 0.0
C729 C 0.10592 0.79984 0.15312 0.0
N730 N 0.12084 0.75868 0.10344 0.0
N731 N 0.17895 0.86361 0.20445 0.0
C732 C 0.13224 0.78957 0.12547 0.0
C733 C 0.16181 0.84298 0.17755 0.0
N734 N 0.19305 0.80801 0.09223 0.0
N735 N 0.09324 0.84045 0.20335 0.0
H736 H 0.20933 0.87521 0.2041 0.0
H737 H 0.16431 0.86663 0.22783 0.0
H738 H 0.06272 0.82945 0.20512 0.0
H739 H 0.1002 0.86398 0.22063 0.0
H740 H 0.18164 0.79392 0.07031 0.0
H741 H 0.22132 0.82354 0.08875 0.0
H742 H 0.14053 0.74688 0.08489 0.0
H743 H 0.09306 0.74203 0.10564 0.0
C744 C 0.69751 0.42928 0.34496 0.0
C745 C 0.7382 0.43191 0.35898 0.0
C746 C 0.73777 0.35642 0.36945 0.0
C747 C 0.69658 0.35427 0.35687 0.0
N748 N 0.63433 0.38815 0.33802 0.0
N749 N 0.79441 0.39977 0.39012 0.0
C750 C 0.67556 0.39072 0.34631 0.0
C751 C 0.75764 0.39594 0.37284 0.0
N752 N 0.6805 0.46334 0.32938 0.0
N753 N 0.75827 0.32036 0.377 0.0
H754 H 0.81008 0.42809 0.39293 0.0
H755 H 0.80791 0.37556 0.40384 0.0
H756 H 0.74393 0.29117 0.37553 0.0
H757 H 0.78991 0.31905 0.38263 0.0
H758 H 0.6527 0.46252 0.31578 0.0
H759 H 0.69581 0.49201 0.32779 0.0
H760 H 0.61573 0.41393 0.33304 0.0
H761 H 0.61781 0.36009 0.33896 0.0
C762 C 0.62148 0.68322 0.34562 0.0
C763 C 0.60928 0.7171 0.36646 0.0
C764 C 0.67791 0.71679 0.39372 0.0
C765 C 0.69161 0.68623 0.37056 0.0
N766 N 0.67889 0.64501 0.32072 0.0
N767 N 0.62958 0.77234 0.40474 0.0
C768 C 0.66401 0.67055 0.34548 0.0
C769 C 0.63856 0.73561 0.38898 0.0
N770 N 0.59236 0.66251 0.32673 0.0
N771 N 0.70223 0.72713 0.4209 0.0
H772 H 0.60182 0.78819 0.40085 0.0
H773 H 0.65138 0.78933 0.41868 0.0
H774 H 0.73105 0.71348 0.42536 0.0
H775 H 0.69201 0.74594 0.44068 0.0
H776 H 0.5986 0.63504 0.3137 0.0
H777 H 0.56104 0.67094 0.32629 0.0
H778 H 0.66137 0.63583 0.29974 0.0
H779 H 0.70997 0.63589 0.31966 0.0
C780 C 0.31071 0.61723 0.39142 0.0
C781 C 0.32096 0.5908 0.36375 0.0
C782 C 0.36461 0.6466 0.33962 0.0
C783 C 0.35608 0.67179 0.36821 0.0
N784 N 0.32725 0.67953 0.42374 0.0
N785 N 0.36199 0.5778 0.31387 0.0
C786 C 0.33105 0.65645 0.39488 0.0
C787 C 0.34921 0.60479 0.33846 0.0
N788 N 0.28018 0.60558 0.41362 0.0
N789 N 0.38643 0.66333 0.3132 0.0
H790 H 0.35087 0.54729 0.3121 0.0
H791 H 0.38558 0.58458 0.29666 0.0
H792 H 0.39888 0.69341 0.314 0.0
H793 H 0.39017 0.64857 0.28994 0.0
H794 H 0.26814 0.62518 0.43213 0.0
H795 H 0.26421 0.57738 0.4118 0.0
H796 H 0.313 0.6687 0.44575 0.0
H797 H 0.34174 0.70845 0.42656 0.0
C798 C 0.37435 0.32567 0.33265 0.0
C799 C 0.35811 0.32913 0.36588 0.0
C800 C 0.41843 0.29186 0.38881 0.0
C801 C 0.43607 0.29052 0.35582 0.0
N802 N 0.43387 0.3103 0.29689 0.0
N803 N 0.36691 0.32253 0.42602 0.0
C804 C 0.41486 0.30862 0.32782 0.0
C805 C 0.38094 0.31425 0.39408 0.0
N806 N 0.35031 0.33759 0.30576 0.0
N807 N 0.43693 0.27065 0.4149 0.0
H808 H 0.33968 0.33921 0.43037 0.0
H809 H 0.38386 0.31631 0.44798 0.0
H810 H 0.4644 0.25381 0.4121 0.0
H811 H 0.4234 0.26678 0.43866 0.0
H812 H 0.35801 0.33193 0.28058 0.0
H813 H 0.32119 0.35126 0.30887 0.0
H814 H 0.42209 0.32675 0.27624 0.0
H815 H 0.46301 0.29722 0.29241 0.0
C816 C 0.81992 0.87925 0.88838 0.0
C817 C 0.8358 0.85663 0.86058 0.0
C818 C 0.81737 0.91442 0.82228 0.0
C819 C 0.79796 0.93529 0.84972 0.0
N820 N 0.77509 0.93465 0.90801 0.0
N821 N 0.84674 0.84993 0.80068 0.0
C822 C 0.79776 0.91689 0.88258 0.0
C823 C 0.8339 0.87358 0.82738 0.0
N824 N 0.827 0.86489 0.92051 0.0
N825 N 0.82086 0.93407 0.79163 0.0
H826 H 0.86005 0.82063 0.80397 0.0
H827 H 0.84212 0.85814 0.77541 0.0
H828 H 0.80845 0.96354 0.78699 0.0
H829 H 0.83828 0.92253 0.77155 0.0
H830 H 0.82002 0.88174 0.94228 0.0
H831 H 0.84355 0.83759 0.92532 0.0
H832 H 0.77008 0.92048 0.93143 0.0
H833 H 0.75812 0.96199 0.9048 0.0
C834 C 0.16017 0.83038 0.89197 0.0
C835 C 0.1772 0.85198 0.86399 0.0
C836 C 0.11142 0.84298 0.83274 0.0
C837 C 0.09586 0.81763 0.85952 0.0
N838 N 0.10871 0.78122 0.91225 0.0
N839 N 0.17191 0.87529 0.80631 0.0
C840 C 0.12112 0.80981 0.88857 0.0
C841 C 0.15352 0.85745 0.83396 0.0
N842 N 0.18125 0.83029 0.92209 0.0
N843 N 0.08564 0.85417 0.80668 0.0
H844 H 0.20244 0.8865 0.80685 0.0
H845 H 0.15811 0.8764 0.78242 0.0
H846 H 0.05478 0.84411 0.80502 0.0
H847 H 0.09374 0.87586 0.78815 0.0
H848 H 0.16876 0.81885 0.94462 0.0
H849 H 0.20987 0.84533 0.92521 0.0
H850 H 0.12773 0.77089 0.93194 0.0
H851 H 0.0808 0.7648 0.91052 0.0
C852 C 0.24277 0.14575 0.85626 0.0
C853 C 0.21976 0.10802 0.85205 0.0
C854 C 0.1549 0.14709 0.85814 0.0
C855 C 0.17742 0.18509 0.85774 0.0
N856 N 0.24249 0.22133 0.85168 0.0
N857 N 0.1535 0.07461 0.84165 0.0
C858 C 0.22137 0.18467 0.85554 0.0
C859 C 0.17563 0.10928 0.85083 0.0
N860 N 0.28461 0.14448 0.8624 0.0
N861 N 0.11363 0.14724 0.8663 0.0
H862 H 0.16772 0.0467 0.83479 0.0
H863 H 0.12148 0.07488 0.83739 0.0
H864 H 0.09809 0.17445 0.87316 0.0
H865 H 0.09624 0.12011 0.86989 0.0
H866 H 0.30204 0.17069 0.86902 0.0
H867 H 0.30134 0.11678 0.86378 0.0
H868 H 0.27419 0.2229 0.84629 0.0
H869 H 0.22752 0.25012 0.8514 0.0
C870 C 0.87713 0.19436 0.83773 0.0
C871 C 0.84279 0.20543 0.85803 0.0
C872 C 0.88407 0.25996 0.88559 0.0
C873 C 0.91733 0.25136 0.86304 0.0
N874 N 0.94344 0.21522 0.81393 0.0
N875 N 0.81029 0.25222 0.89717 0.0
C876 C 0.91328 0.21984 0.83802 0.0
C877 C 0.84535 0.2392 0.88091 0.0
N878 N 0.87504 0.15903 0.81854 0.0
N879 N 0.88991 0.28677 0.91208 0.0
H880 H 0.78157 0.23741 0.89404 0.0
H881 H 0.80895 0.27934 0.91157 0.0
H882 H 0.9178 0.3027 0.91629 0.0
H883 H 0.86822 0.29082 0.93136 0.0
H884 H 0.90036 0.14676 0.80557 0.0
H885 H 0.84867 0.13993 0.81802 0.0
H886 H 0.94047 0.19545 0.79315 0.0
H887 H 0.97003 0.23396 0.81297 0.0
C888 C 0.32029 0.66715 0.61498 0.0
C889 C 0.33543 0.68816 0.64397 0.0
C890 C 0.31379 0.6297 0.68014 0.0
C891 C 0.29529 0.61038 0.65143 0.0
N892 N 0.27602 0.61256 0.59222 0.0
N893 N 0.34465 0.69243 0.70422 0.0
C894 C 0.29733 0.62956 0.61896 0.0
C895 C 0.33177 0.67014 0.67662 0.0
N896 N 0.32832 0.68332 0.58361 0.0
N897 N 0.31488 0.60897 0.71045 0.0
H898 H 0.3594 0.72135 0.70199 0.0
H899 H 0.33899 0.68347 0.72917 0.0
H900 H 0.30122 0.57972 0.71393 0.0
H901 H 0.3314 0.6194 0.73154 0.0
H902 H 0.32185 0.66787 0.56101 0.0
H903 H 0.34486 0.71101 0.58032 0.0
H904 H 0.27267 0.62721 0.56881 0.0
H905 H 0.25873 0.58507 0.59409 0.0
C906 C 0.38846 0.37229 0.65708 0.0
C907 C 0.35143 0.35195 0.64673 0.0
C908 C 0.39193 0.29221 0.62708 0.0
C909 C 0.42838 0.31034 0.64144 0.0
N910 N 0.46069 0.36544 0.67389 0.0
N911 N 0.31638 0.29124 0.62531 0.0
C912 C 0.42653 0.34995 0.65736 0.0
C913 C 0.35275 0.3116 0.63245 0.0
N914 N 0.38701 0.41334 0.66607 0.0
N915 N 0.39493 0.25726 0.6075 0.0
H916 H 0.28732 0.30494 0.62878 0.0
H917 H 0.31488 0.25999 0.61832 0.0
H918 H 0.4231 0.24234 0.60276 0.0
H919 H 0.37012 0.24508 0.59359 0.0
H920 H 0.41339 0.43135 0.67091 0.0
H921 H 0.35943 0.4304 0.6655 0.0
H922 H 0.46004 0.39212 0.68886 0.0
H923 H 0.489 0.3497 0.67509 0.0
C924 C 0.71877 0.36778 0.62463 0.0
C925 C 0.68528 0.35552 0.64567 0.0
C926 C 0.68491 0.42493 0.67194 0.0
C927 C 0.72053 0.43608 0.65263 0.0
N928 N 0.77544 0.41615 0.6144 0.0
N929 N 0.63943 0.36938 0.69217 0.0
C930 C 0.73861 0.4069 0.63002 0.0
C931 C 0.66902 0.38337 0.67006 0.0
N932 N 0.73082 0.34217 0.59887 0.0
N933 N 0.66592 0.45429 0.69153 0.0
H934 H 0.62722 0.33923 0.69104 0.0
H935 H 0.62905 0.38644 0.71288 0.0
H936 H 0.67755 0.48453 0.69421 0.0
H937 H 0.63743 0.44958 0.70347 0.0
H938 H 0.75195 0.35085 0.58016 0.0
H939 H 0.71691 0.31326 0.59455 0.0
H940 H 0.79249 0.39468 0.60045 0.0
H941 H 0.79098 0.4444 0.61775 0.0
C942 C 0.60803 0.7004 0.6736 0.0
C943 C 0.59458 0.72939 0.64857 0.0
C944 C 0.66097 0.7209 0.61862 0.0
C945 C 0.67601 0.69556 0.64529 0.0
N946 N 0.66655 0.66548 0.70056 0.0
N947 N 0.61202 0.77366 0.60097 0.0
C948 C 0.6502 0.68635 0.67346 0.0
C949 C 0.62213 0.74138 0.62206 0.0
N950 N 0.58029 0.68538 0.69683 0.0
N951 N 0.68359 0.72449 0.5895 0.0
H952 H 0.58452 0.79045 0.60321 0.0
H953 H 0.63269 0.78653 0.5835 0.0
H954 H 0.71179 0.70913 0.58613 0.0
H955 H 0.67251 0.73905 0.56765 0.0
H956 H 0.58704 0.66114 0.71354 0.0
H957 H 0.54932 0.69494 0.69763 0.0
H958 H 0.65088 0.66146 0.72342 0.0
H959 H 0.69721 0.65493 0.70101 0.0
C960 C 0.19925 0.34715 0.27727 0.0
C961 C 0.188 0.38805 0.28732 0.0
C962 C 0.12747 0.38504 0.24883 0.0
C963 C 0.14119 0.34581 0.23651 0.0
N964 N 0.19456 0.29274 0.23545 0.0
N965 N 0.14414 0.44818 0.28015 0.0
C966 C 0.17817 0.32771 0.24984 0.0
C967 C 0.15273 0.4076 0.27247 0.0
N968 N 0.22899 0.32577 0.29494 0.0
N969 N 0.08953 0.39999 0.23893 0.0
H970 H 0.16183 0.46551 0.29732 0.0
H971 H 0.12165 0.46577 0.26766 0.0
H972 H 0.07001 0.38409 0.22216 0.0
H973 H 0.07569 0.42621 0.24946 0.0
H974 H 0.23441 0.29401 0.29191 0.0
H975 H 0.24587 0.33864 0.31482 0.0
H976 H 0.22442 0.28193 0.24071 0.0
H977 H 0.18001 0.27609 0.21624 0.0
C978 C 0.63745 0.10304 0.22762 0.0
C979 C 0.67889 0.11705 0.22167 0.0
C980 C 0.67655 0.15716 0.27427 0.0
C981 C 0.63287 0.14976 0.27682 0.0
N982 N 0.57123 0.11577 0.25517 0.0
N983 N 0.73337 0.16665 0.23543 0.0
C984 C 0.61311 0.12285 0.25311 0.0
C985 C 0.69728 0.1465 0.24394 0.0
N986 N 0.62196 0.06969 0.21009 0.0
N987 N 0.69903 0.17382 0.30046 0.0
H988 H 0.74887 0.16212 0.21262 0.0
H989 H 0.7452 0.19172 0.24926 0.0
H990 H 0.687 0.18099 0.32409 0.0
H991 H 0.73143 0.17575 0.30008 0.0
H992 H 0.59341 0.05572 0.21547 0.0
H993 H 0.63943 0.05318 0.19247 0.0
H994 H 0.55423 0.10063 0.2363 0.0
H995 H 0.55309 0.12677 0.27513 0.0
C996 C 0.89866 0.61778 0.27092 0.0
C997 C 0.86067 0.63332 0.28416 0.0
C998 C 0.86338 0.69182 0.24375 0.0
C999 C 0.90285 0.67801 0.2322 0.0
N1000 N 0.96085 0.63106 0.23761 0.0
N1001 N 0.80912 0.68811 0.28575 0.0
C1002 C 0.92121 0.64175 0.2465 0.0
C1003 C 0.84356 0.67097 0.27114 0.0
N1004 N 0.91235 0.57928 0.28073 0.0
N1005 N 0.84361 0.72394 0.22762 0.0
H1006 H 0.79102 0.673 0.30374 0.0
H1007 H 0.7996 0.71866 0.28147 0.0
H1008 H 0.85747 0.74228 0.2091 0.0
H1009 H 0.81227 0.73091 0.231 0.0
H1010 H 0.93735 0.56406 0.26958 0.0
H1011 H 0.89648 0.56069 0.29817 0.0
H1012 H 0.97787 0.60774 0.2496 0.0
H1013 H 0.97827 0.64786 0.21997 0.0
C1014 C 0.45372 0.87223 0.25205 0.0
C1015 C 0.435 0.87545 0.28447 0.0
C1016 C 0.37378 0.90842 0.25868 0.0
C1017 C 0.39501 0.91039 0.22738 0.0
N1018 N 0.45673 0.89784 0.19431 0.0
N1019 N 0.38041 0.90409 0.31959 0.0
C1020 C 0.43546 0.89334 0.22406 0.0
C1021 C 0.39568 0.89524 0.28808 0.0
N1022 N 0.48788 0.84759 0.24763 0.0
N1023 N 0.33274 0.9192 0.26038 0.0
H1024 H 0.3962 0.89716 0.34198 0.0
H1025 H 0.35412 0.92231 0.32353 0.0
H1026 H 0.31583 0.92919 0.23929 0.0
H1027 H 0.31452 0.91433 0.28185 0.0
H1028 H 0.50028 0.84069 0.22393 0.0
H1029 H 0.50152 0.83065 0.26727 0.0
H1030 H 0.48822 0.89096 0.19176 0.0
H1031 H 0.44352 0.91097 0.17266 0.0
C1032 C 0.84891 0.70015 0.77295 0.0
C1033 C 0.88948 0.6872 0.78267 0.0
C1034 C 0.88196 0.62535 0.74632 0.0
C1035 C 0.84348 0.64094 0.73379 0.0
N1036 N 0.79406 0.69776 0.73125 0.0
N1037 N 0.94708 0.64017 0.77544 0.0
C1038 C 0.82791 0.67948 0.7461 0.0
C1039 C 0.90666 0.65042 0.76854 0.0
N1040 N 0.82928 0.73111 0.79037 0.0
N1041 N 0.89421 0.58594 0.73793 0.0
H1042 H 0.96615 0.65792 0.79131 0.0
H1043 H 0.96285 0.61626 0.76322 0.0
H1044 H 0.87651 0.56636 0.72245 0.0
H1045 H 0.91978 0.57115 0.7488 0.0
H1046 H 0.79781 0.73798 0.78739 0.0
H1047 H 0.84313 0.74741 0.81011 0.0
H1048 H 0.78531 0.72843 0.73597 0.0
H1049 H 0.77651 0.68401 0.71216 0.0
C1050 C 0.40454 0.9299 0.73151 0.0
C1051 C 0.4078 0.88724 0.72243 0.0
C1052 C 0.35585 0.86958 0.76588 0.0
C1053 C 0.35625 0.91156 0.77726 0.0
N1054 N 0.39035 0.97899 0.77618 0.0
N1055 N 0.39375 0.81527 0.7368 0.0
C1056 C 0.38366 0.94084 0.76187 0.0
C1057 C 0.38535 0.85665 0.74118 0.0
N1058 N 0.41896 0.96039 0.71026 0.0
N1059 N 0.32771 0.84179 0.77884 0.0
H1060 H 0.41693 0.80451 0.72062 0.0
H1061 H 0.3811 0.79184 0.75197 0.0
H1062 H 0.30703 0.84922 0.79818 0.0
H1063 H 0.32288 0.81222 0.76866 0.0
H1064 H 0.41369 0.992 0.71437 0.0
H1065 H 0.43163 0.95423 0.68652 0.0
H1066 H 0.41308 0.99965 0.76749 0.0
H1067 H 0.37677 0.98816 0.79883 0.0
C1068 C 0.09714 0.42743 0.77838 0.0
C1069 C 0.11012 0.38755 0.78976 0.0
C1070 C 0.1576 0.38243 0.74187 0.0
C1071 C 0.14948 0.4246 0.73314 0.0
N1072 N 0.1132 0.48873 0.74448 0.0
N1073 N 0.16165 0.33308 0.78775 0.0
C1074 C 0.11981 0.44769 0.75195 0.0
C1075 C 0.14311 0.36691 0.77322 0.0
N1076 N 0.06305 0.44561 0.79258 0.0
N1077 N 0.1779 0.35643 0.72016 0.0
H1078 H 0.15403 0.32256 0.81187 0.0
H1079 H 0.18828 0.3192 0.77789 0.0
H1080 H 0.18637 0.36477 0.69569 0.0
H1081 H 0.18121 0.32461 0.72477 0.0
H1082 H 0.04944 0.47273 0.78329 0.0
H1083 H 0.04675 0.43182 0.8125 0.0
H1084 H 0.09524 0.50837 0.75944 0.0
H1085 H 0.12751 0.50378 0.72411 0.0
C1086 C 0.6072 0.13105 0.72086 0.0
C1087 C 0.61271 0.17514 0.71947 0.0
C1088 C 0.64215 0.17238 0.77653 0.0
C1089 C 0.64702 0.12847 0.77403 0.0
N1090 N 0.63277 0.06529 0.74308 0.0
N1091 N 0.64804 0.2352 0.7439 0.0
C1092 C 0.62929 0.10754 0.74579 0.0
C1093 C 0.63347 0.19527 0.74676 0.0
N1094 N 0.57935 0.11186 0.69982 0.0
N1095 N 0.64525 0.19278 0.80678 0.0
H1096 H 0.64773 0.25202 0.72131 0.0
H1097 H 0.66598 0.24923 0.76283 0.0
H1098 H 0.64846 0.17781 0.83002 0.0
H1099 H 0.63923 0.22459 0.80896 0.0
H1100 H 0.572 0.08027 0.70152 0.0
H1101 H 0.55978 0.1285 0.6837 0.0
H1102 H 0.62441 0.049 0.72125 0.0
H1103 H 0.64571 0.0469 0.76223 0.0
C1104 C 0.01928 0.53402 0.1514 0.0
C1105 C 1.0167 0.55508 0.11982 0.0
C1106 C 0.02737 0.48894 0.08998 0.0
C1107 C 0.02625 0.46743 0.12135 0.0
N1108 N 1.01616 0.46793 0.18166 0.0
N1109 N 1.01161 0.55209 0.05899 0.0
C1110 C 0.02091 0.4896 0.15207 0.0
C1111 C 0.01902 0.53238 0.08907 0.0
N1112 N 0.02155 0.55672 0.18061 0.0
N1113 N 0.03805 0.46802 0.06119 0.0
H1114 H 1.00605 0.58397 0.05728 0.0
H1115 H 1.00729 0.53625 0.03623 0.0
H1116 H 0.04489 0.43629 0.06109 0.0
H1117 H 0.04375 0.48267 0.03808 0.0
H1118 H 0.02721 0.54372 0.20438 0.0
H1119 H 0.02112 0.58923 0.18067 0.0
H1120 H 1.0083 0.48173 0.20462 0.0
H1121 H 1.017 0.43545 0.18266 0.0
C1122 C 0.49172 0.02243 0.08347 0.0
C1123 C 0.47655 1.0108 0.11589 0.0
C1124 C 0.54837 1.00424 0.13676 0.0
C1125 C 0.56333 0.01897 0.10521 0.0
N1126 N 0.55013 0.04716 0.04984 0.0
N1127 N 0.48969 0.99759 0.17491 0.0
C1128 C 0.5352 0.02933 0.07883 0.0
C1129 C 0.50475 1.00343 0.14296 0.0
N1130 N 0.46446 0.02595 0.05703 0.0
N1131 N 0.57608 0.99031 0.16048 0.0
H1132 H 0.45803 0.99849 0.18012 0.0
H1133 H 0.50837 0.99576 0.19647 0.0
H1134 H 0.60816 0.99063 0.15641 0.0
H1135 H 0.56734 0.97547 0.18288 0.0
H1136 H 0.47361 0.03021 0.03195 0.0
H1137 H 0.43252 0.02171 0.06002 0.0
H1138 H 0.53114 0.06027 0.03128 0.0
H1139 H 0.58187 0.05159 0.04558 0.0
C1140 C 0.55024 0.02961 0.42763 0.0
C1141 C 0.53989 0.05569 0.39992 0.0
C1142 C 0.51679 0.9946 0.36749 0.0
C1143 C 0.52369 0.96885 0.39632 0.0
N1144 N 0.53989 0.96308 0.45574 0.0
N1145 N 0.50747 0.06475 0.34549 0.0
C1146 C 0.53858 0.98676 0.42695 0.0
C1147 C 0.52143 0.03863 0.3704 0.0
N1148 N 0.57208 0.04581 0.45426 0.0
N1149 N 0.5079 0.97681 0.33693 0.0
H1150 H 0.51049 0.09707 0.34705 0.0
H1151 H 0.48994 0.05473 0.32478 0.0
H1152 H 0.50566 0.94474 0.33381 0.0
H1153 H 0.5066 0.9934 0.31424 0.0
H1154 H 0.5855 0.02764 0.47324 0.0
H1155 H 0.57961 0.07737 0.45583 0.0
H1156 H 0.54876 0.9746 0.47932 0.0
H1157 H 0.52849 0.93262 0.45667 0.0
C1158 C 1.01118 0.52753 0.4297 0.0
C1159 C 0.98824 0.5244 0.39912 0.0
C1160 C 0.05308 0.51398 0.36754 0.0
C1161 C 0.07545 0.51282 0.39858 0.0
N1162 N 0.07517 0.51195 0.45964 0.0
N1163 N 0.98574 0.51033 0.33936 0.0
C1164 C 0.05434 0.51803 0.42982 0.0
C1165 C 1.0088 0.51654 0.36806 0.0
N1166 N 0.99173 0.54073 0.45846 0.0
N1167 N 0.07443 0.51403 0.33764 0.0
H1168 H 0.95333 0.51208 0.33919 0.0
H1169 H 0.99831 0.50052 0.31643 0.0
H1170 H 0.10686 0.51309 0.33667 0.0
H1171 H 0.06046 0.51851 0.31407 0.0
H1172 H 1.00759 0.54843 0.48065 0.0
H1173 H 0.96007 0.54767 0.4591 0.0
H1174 H 0.06067 0.51144 0.4832 0.0
H1175 H 0.10645 0.50368 0.46072 0.0
C1176 C 0.02849 0.55643 0.93448 0.0
C1177 C 1.01645 0.57161 0.90206 0.0
C1178 C 1.01487 0.49988 0.88082 0.0
C1179 C 0.03263 0.48563 0.91165 0.0
N1180 N 0.06246 0.50125 0.96614 0.0
N1181 N 1.00516 0.5583 0.84264 0.0
C1182 C 0.04123 0.51424 0.93805 0.0
C1183 C 1.01148 0.54344 0.8747 0.0
N1184 N 0.02584 0.58181 0.96212 0.0
N1185 N 0.99947 0.47176 0.8581 0.0
H1186 H 1.00395 0.59006 0.83712 0.0
H1187 H 1.0052 0.53927 0.82126 0.0
H1188 H 0.99998 0.43974 0.86263 0.0
H1189 H 0.98268 0.48035 0.83657 0.0
H1190 H 0.0316 0.5717 0.98677 0.0
H1191 H 1.01351 0.61178 0.96085 0.0
H1192 H 0.07322 0.52157 0.98481 0.0
H1193 H 0.07267 0.47064 0.96915 0.0
C1194 C 0.53681 0.02232 0.9212 0.0
C1195 C 0.55995 0.02486 0.89078 0.0
C1196 C 0.49519 0.02267 0.85762 0.0
C1197 C 0.47242 1.01747 0.88799 0.0
N1198 N 0.47177 1.00332 0.94778 0.0
N1199 N 0.56259 0.01988 0.82997 0.0
C1200 C 0.49337 1.0146 0.91954 0.0
C1201 C 0.53949 0.02293 0.85887 0.0
N1202 N 0.55602 0.02921 0.95162 0.0
N1203 N 0.47423 0.02806 0.82779 0.0
H1204 H 0.59502 0.01854 0.83036 0.0
H1205 H 0.54977 1.01496 0.80603 0.0
H1206 H 0.44179 0.02742 0.82641 0.0
H1207 H 0.48862 0.03597 0.80503 0.0
H1208 H 0.53998 0.03203 0.97438 0.0
H1209 H 0.58768 0.03577 0.95381 0.0
H1210 H 0.48569 0.99645 0.971 0.0
H1211 H 0.44017 0.99678 0.94681 0.0
C1212 C 0.50805 0.99622 0.57203 0.0
C1213 C 0.50642 0.9786 0.60496 0.0
C1214 C 0.50826 0.04852 0.62964 0.0
C1215 C 0.51571 0.0657 0.59713 0.0
N1216 N 0.52704 0.05588 0.53743 0.0
N1217 N 0.51126 0.98708 0.66534 0.0
C1218 C 0.51648 0.03957 0.56823 0.0
C1219 C 0.50813 1.00456 0.63389 0.0
N1220 N 0.50059 0.97157 0.54452 0.0
N1221 N 0.4996 0.07435 0.6561 0.0
H1222 H 0.51262 0.95493 0.66891 0.0
H1223 H 0.51637 1.00436 0.68731 0.0
H1224 H 0.49762 0.10661 0.65312 0.0
H1225 H 0.49031 0.06364 0.67987 0.0
H1226 H 0.49554 0.98347 0.52028 0.0
H1227 H 0.49543 0.93955 0.54656 0.0
H1228 H 0.53128 0.03779 0.51589 0.0
H1229 H 0.53467 0.08721 0.534 0.0
C1230 C 0.99167 0.52183 0.64692 0.0
C1231 C 0.96641 0.52144 0.61739 0.0
C1232 C 0.02733 0.50394 0.58296 0.0
C1233 C 0.05318 0.50797 0.61192 0.0
N1234 N 0.06141 0.52836 0.67022 0.0
N1235 N 0.96148 0.52082 0.55643 0.0
C1236 C 0.03573 0.51903 0.64364 0.0
C1237 C 0.98463 0.51488 0.58512 0.0
N1238 N 0.97339 0.52334 0.6781 0.0
N1239 N 0.04333 0.48824 0.55365 0.0
H1240 H 0.93061 0.53061 0.557 0.0
H1241 H 0.97398 0.52017 0.53212 0.0
H1242 H 0.0745 0.47996 0.55123 0.0
H1243 H 0.02499 0.47987 0.53291 0.0
H1244 H 0.98978 0.51972 0.70073 0.0
H1245 H 0.9412 0.52456 0.68124 0.0
H1246 H 0.05085 0.54028 0.69317 0.0
H1247 H 0.09375 0.52784 0.66817 0.0
loop_
_geom_bond_atom_site_label_1
_geom_bond_atom_site_label_2
_geom_bond_distance
_geom_bond_site_symmetry_2
_ccdc_geom_bond_type
Co0 N4 2.148 . S
Co0 N10 2.128 . S
Co0 N20 2.194 . S
Co0 O25 2.351 . S
Co0 O26 2.155 . S
Co0 O27 2.096 . S
C1 N4 1.301 . S
C1 N5 1.328 . S
C1 H6 0.930 . S
C2 C3 1.333 . S
C2 N4 1.317 . S
C2 H7 0.930 . S
C3 C2 1.333 . S
C3 N5 1.350 . S
C3 H29 0.931 . S
N4 Co0 2.148 . S
N4 C1 1.301 . S
N4 C2 1.317 . S
N5 C1 1.328 . S
N5 C3 1.350 . S
H6 C1 0.930 . S
H7 C2 0.930 . S
C8 O9 1.224 . S
C8 O27 1.247 . S
O9 C8 1.224 . S
N10 Co0 2.128 . S
N10 C11 1.355 . S
N10 C13 1.311 . S
C11 N10 1.355 . S
C11 C12 1.363 1_455 S
C11 H23 0.929 . S
C12 C11 1.363 1_655 S
C12 N14 1.375 1_655 S
C12 H30 0.931 . S
C13 N10 1.311 . S
C13 N14 1.347 . S
C13 H24 0.929 . S
N14 C12 1.375 1_455 S
N14 C13 1.347 . S
C15 C18 1.365 1_455 S
C15 N20 1.328 . S
C15 H21 0.929 . S
C16 C17 1.362 . S
C16 C19 1.378 1_655 S
C16 H31 0.929 . S
C17 C16 1.362 . S
C17 C18 1.366 . S
C18 C15 1.365 1_655 S
C18 C17 1.366 . S
C18 H32 0.930 . S
C19 C16 1.378 1_455 S
C19 N20 1.315 . S
C19 H22 0.930 . S
N20 Co0 2.194 . S
N20 C15 1.328 . S
N20 C19 1.315 . S
H21 C15 0.929 . S
H22 C19 0.930 . S
H23 C11 0.929 . S
H24 C13 0.929 . S
O25 Co0 2.351 . S
O25 C28 1.244 . S
O26 Co0 2.155 . S
O26 C28 1.240 . S
O27 Co0 2.096 . S
O27 C8 1.247 . S
C28 O25 1.244 . S
C28 O26 1.240 . S
H29 C3 0.931 . S
H30 C12 0.931 . S
H31 C16 0.929 . S
H32 C18 0.930 . S
Co33 N37 2.148 . S
Co33 N43 2.128 . S
Co33 N53 2.194 . S
Co33 O58 2.351 . S
Co33 O59 2.155 . S
Co33 O60 2.096 . S
C34 N37 1.301 . S
C34 N38 1.328 . S
C34 H39 0.930 . S
C35 C36 1.333 . S
C35 N37 1.317 . S
C35 H40 0.930 . S
C36 C35 1.333 . S
C36 N38 1.350 . S
C36 H62 0.931 . S
N37 Co33 2.148 . S
N37 C34 1.301 . S
N37 C35 1.317 . S
N38 C34 1.328 . S
N38 C36 1.350 . S
H39 C34 0.930 . S
H40 C35 0.930 . S
C41 O42 1.224 . S
C41 O60 1.247 . S
O42 C41 1.224 . S
N43 Co33 2.128 . S
N43 C44 1.355 . S
N43 C46 1.311 . S
C44 N43 1.355 . S
C44 C45 1.363 1_545 S
C44 H56 0.929 . S
C45 C44 1.363 1_565 S
C45 N47 1.375 1_565 S
C45 H63 0.931 . S
C46 N43 1.311 . S
C46 N47 1.347 . S
C46 H57 0.929 . S
N47 C45 1.375 1_545 S
N47 C46 1.347 . S
C48 C51 1.365 1_545 S
C48 N53 1.328 . S
C48 H54 0.929 . S
C49 C50 1.362 . S
C49 C52 1.378 1_565 S
C49 H64 0.929 . S
C50 C49 1.362 . S
C50 C51 1.366 . S
C51 C48 1.365 1_565 S
C51 C50 1.366 . S
C51 H65 0.930 . S
C52 C49 1.378 1_545 S
C52 N53 1.315 . S
C52 H55 0.930 . S
N53 Co33 2.194 . S
N53 C48 1.328 . S
N53 C52 1.315 . S
H54 C48 0.929 . S
H55 C52 0.930 . S
H56 C44 0.929 . S
H57 C46 0.929 . S
O58 Co33 2.351 . S
O58 C61 1.244 . S
O59 Co33 2.155 . S
O59 C61 1.240 . S
O60 Co33 2.096 . S
O60 C41 1.247 . S
C61 O58 1.244 . S
C61 O59 1.240 . S
H62 C36 0.931 . S
H63 C45 0.931 . S
H64 C49 0.929 . S
H65 C51 0.930 . S
Co66 N70 2.148 . S
Co66 N76 2.128 . S
Co66 N86 2.194 . S
Co66 O91 2.351 . S
Co66 O92 2.155 . S
Co66 O93 2.096 . S
C67 N70 1.301 . S
C67 N71 1.328 . S
C67 H72 0.930 . S
C68 C69 1.333 . S
C68 N70 1.317 . S
C68 H73 0.930 . S
C69 C68 1.333 . S
C69 N71 1.350 . S
C69 H95 0.931 . S
N70 Co66 2.148 . S
N70 C67 1.301 . S
N70 C68 1.317 . S
N71 C67 1.328 . S
N71 C69 1.350 . S
H72 C67 0.930 . S
H73 C68 0.930 . S
C74 O75 1.224 . S
C74 O93 1.247 . S
O75 C74 1.224 . S
N76 Co66 2.128 . S
N76 C77 1.355 . S
N76 C79 1.311 . S
C77 N76 1.355 . S
C77 C78 1.363 1_655 S
C77 H89 0.929 . S
C78 C77 1.363 1_455 S
C78 N80 1.375 1_455 S
C78 H96 0.931 . S
C79 N76 1.311 . S
C79 N80 1.347 . S
C79 H90 0.929 . S
N80 C78 1.375 1_655 S
N80 C79 1.347 . S
C81 C84 1.365 1_655 S
C81 N86 1.328 . S
C81 H87 0.929 . S
C82 C83 1.362 . S
C82 C85 1.378 1_455 S
C82 H97 0.929 . S
C83 C82 1.362 . S
C83 C84 1.366 . S
C84 C81 1.365 1_455 S
C84 C83 1.366 . S
C84 H98 0.930 . S
C85 C82 1.378 1_655 S
C85 N86 1.315 . S
C85 H88 0.930 . S
N86 Co66 2.194 . S
N86 C81 1.328 . S
N86 C85 1.315 . S
H87 C81 0.929 . S
H88 C85 0.930 . S
H89 C77 0.929 . S
H90 C79 0.929 . S
O91 Co66 2.351 . S
O91 C94 1.244 . S
O92 Co66 2.155 . S
O92 C94 1.240 . S
O93 Co66 2.096 . S
O93 C74 1.247 . S
C94 O91 1.244 . S
C94 O92 1.240 . S
H95 C69 0.931 . S
H96 C78 0.931 . S
H97 C82 0.929 . S
H98 C84 0.930 . S
Co99 N103 2.148 . S
Co99 N109 2.128 . S
Co99 N119 2.194 . S
Co99 O124 2.351 . S
Co99 O125 2.155 . S
Co99 O126 2.096 . S
C100 N103 1.301 . S
C100 N104 1.328 . S
C100 H105 0.930 . S
C101 C102 1.333 . S
C101 N103 1.317 . S
C101 H106 0.930 . S
C102 C101 1.333 . S
C102 N104 1.350 . S
C102 H128 0.931 . S
N103 Co99 2.148 . S
N103 C100 1.301 . S
N103 C101 1.317 . S
N104 C100 1.328 . S
N104 C102 1.350 . S
H105 C100 0.930 . S
H106 C101 0.930 . S
C107 O108 1.224 . S
C107 O126 1.247 . S
O108 C107 1.224 . S
N109 Co99 2.128 . S
N109 C110 1.355 . S
N109 C112 1.311 . S
C110 N109 1.355 . S
C110 C111 1.363 1_565 S
C110 H122 0.929 . S
C111 C110 1.363 1_545 S
C111 N113 1.375 1_545 S
C111 H129 0.931 . S
C112 N109 1.311 . S
C112 N113 1.347 . S
C112 H123 0.929 . S
N113 C111 1.375 1_565 S
N113 C112 1.347 . S
C114 C117 1.365 1_565 S
C114 N119 1.328 . S
C114 H120 0.929 . S
C115 C116 1.362 . S
C115 C118 1.378 1_545 S
C115 H130 0.929 . S
C116 C115 1.362 . S
C116 C117 1.366 . S
C117 C114 1.365 1_545 S
C117 C116 1.366 . S
C117 H131 0.930 . S
C118 C115 1.378 1_565 S
C118 N119 1.315 . S
C118 H121 0.930 . S
N119 Co99 2.194 . S
N119 C114 1.328 . S
N119 C118 1.315 . S
H120 C114 0.929 . S
H121 C118 0.930 . S
H122 C110 0.929 . S
H123 C112 0.929 . S
O124 Co99 2.351 . S
O124 C127 1.244 . S
O125 Co99 2.155 . S
O125 C127 1.240 . S
O126 Co99 2.096 . S
O126 C107 1.247 . S
C127 O124 1.244 . S
C127 O125 1.240 . S
H128 C102 0.931 . S
H129 C111 0.931 . S
H130 C115 0.929 . S
H131 C117 0.930 . S
Co132 N136 2.148 . S
Co132 N142 2.128 . S
Co132 N152 2.194 . S
Co132 O157 2.351 . S
Co132 O158 2.155 . S
Co132 O159 2.096 . S
C133 N136 1.301 . S
C133 N137 1.328 . S
C133 H138 0.930 . S
C134 C135 1.333 . S
C134 N136 1.317 . S
C134 H139 0.930 . S
C135 C134 1.333 . S
C135 N137 1.350 . S
C135 H161 0.931 . S
N136 Co132 2.148 . S
N136 C133 1.301 . S
N136 C134 1.317 . S
N137 C133 1.328 . S
N137 C135 1.350 . S
H138 C133 0.930 . S
H139 C134 0.930 . S
C140 O141 1.224 . S
C140 O159 1.247 . S
O141 C140 1.224 . S
N142 Co132 2.128 . S
N142 C143 1.355 . S
N142 C145 1.311 . S
C143 N142 1.355 . S
C143 C144 1.363 . S
C143 H155 0.929 . S
C144 C143 1.363 . S
C144 N146 1.375 . S
C144 H162 0.931 . S
C145 N142 1.311 . S
C145 N146 1.347 . S
C145 H156 0.929 . S
N146 C144 1.375 . S
N146 C145 1.347 . S
C147 C150 1.365 . S
C147 N152 1.328 . S
C147 H153 0.929 . S
C148 C149 1.362 . S
C148 C151 1.378 . S
C148 H163 0.929 . S
C149 C148 1.362 . S
C149 C150 1.366 . S
C150 C147 1.365 . S
C150 C149 1.366 . S
C150 H164 0.930 . S
C151 C148 1.378 . S
C151 N152 1.315 . S
C151 H154 0.930 . S
N152 Co132 2.194 . S
N152 C147 1.328 . S
N152 C151 1.315 . S
H153 C147 0.929 . S
H154 C151 0.930 . S
H155 C143 0.929 . S
H156 C145 0.929 . S
O157 Co132 2.351 . S
O157 C160 1.244 . S
O158 Co132 2.155 . S
O158 C160 1.240 . S
O159 Co132 2.096 . S
O159 C140 1.247 . S
C160 O157 1.244 . S
C160 O158 1.240 . S
H161 C135 0.931 . S
H162 C144 0.931 . S
H163 C148 0.929 . S
H164 C150 0.930 . S
Co165 N169 2.148 . S
Co165 N175 2.128 . S
Co165 N185 2.194 . S
Co165 O190 2.351 . S
Co165 O191 2.155 . S
Co165 O192 2.096 . S
C166 N169 1.301 . S
C166 N170 1.328 . S
C166 H171 0.930 . S
C167 C168 1.333 . S
C167 N169 1.317 . S
C167 H172 0.930 . S
C168 C167 1.333 . S
C168 N170 1.350 . S
C168 H194 0.931 . S
N169 Co165 2.148 . S
N169 C166 1.301 . S
N169 C167 1.317 . S
N170 C166 1.328 . S
N170 C168 1.350 . S
H171 C166 0.930 . S
H172 C167 0.930 . S
C173 O174 1.224 . S
C173 O192 1.247 . S
O174 C173 1.224 . S
N175 Co165 2.128 . S
N175 C176 1.355 . S
N175 C178 1.311 . S
C176 N175 1.355 . S
C176 C177 1.363 . S
C176 H188 0.929 . S
C177 C176 1.363 . S
C177 N179 1.375 . S
C177 H195 0.931 . S
C178 N175 1.311 . S
C178 N179 1.347 . S
C178 H189 0.929 . S
N179 C177 1.375 . S
N179 C178 1.347 . S
C180 C183 1.365 . S
C180 N185 1.328 . S
C180 H186 0.929 . S
C181 C182 1.362 . S
C181 C184 1.378 . S
C181 H196 0.929 . S
C182 C181 1.362 . S
C182 C183 1.366 . S
C183 C180 1.365 . S
C183 C182 1.366 . S
C183 H197 0.930 . S
C184 C181 1.378 . S
C184 N185 1.315 . S
C184 H187 0.930 . S
N185 Co165 2.194 . S
N185 C180 1.328 . S
N185 C184 1.315 . S
H186 C180 0.929 . S
H187 C184 0.930 . S
H188 C176 0.929 . S
H189 C178 0.929 . S
O190 Co165 2.351 . S
O190 C193 1.244 . S
O191 Co165 2.155 . S
O191 C193 1.240 . S
O192 Co165 2.096 . S
O192 C173 1.247 . S
C193 O190 1.244 . S
C193 O191 1.240 . S
H194 C168 0.931 . S
H195 C177 0.931 . S
H196 C181 0.929 . S
H197 C183 0.930 . S
Co198 N202 2.148 . S
Co198 N208 2.128 . S
Co198 N218 2.194 . S
Co198 O223 2.351 . S
Co198 O224 2.155 . S
Co198 O225 2.096 . S
C199 N202 1.301 . S
C199 N203 1.328 . S
C199 H204 0.930 . S
C200 C201 1.333 . S
C200 N202 1.317 . S
C200 H205 0.930 . S
C201 C200 1.333 . S
C201 N203 1.350 . S
C201 H227 0.931 . S
N202 Co198 2.148 . S
N202 C199 1.301 . S
N202 C200 1.317 . S
N203 C199 1.328 . S
N203 C201 1.350 . S
H204 C199 0.930 . S
H205 C200 0.930 . S
C206 O207 1.224 . S
C206 O225 1.247 . S
O207 C206 1.224 . S
N208 Co198 2.128 . S
N208 C209 1.355 . S
N208 C211 1.311 . S
C209 N208 1.355 . S
C209 C210 1.363 . S
C209 H221 0.929 . S
C210 C209 1.363 . S
C210 N212 1.375 . S
C210 H228 0.931 . S
C211 N208 1.311 . S
C211 N212 1.347 . S
C211 H222 0.929 . S
N212 C210 1.375 . S
N212 C211 1.347 . S
C213 C216 1.365 . S
C213 N218 1.328 . S
C213 H219 0.929 . S
C214 C215 1.362 . S
C214 C217 1.378 . S
C214 H229 0.929 . S
C215 C214 1.362 . S
C215 C216 1.366 . S
C216 C213 1.365 . S
C216 C215 1.366 . S
C216 H230 0.930 . S
C217 C214 1.378 . S
C217 N218 1.315 . S
C217 H220 0.930 . S
N218 Co198 2.194 . S
N218 C213 1.328 . S
N218 C217 1.315 . S
H219 C213 0.929 . S
H220 C217 0.930 . S
H221 C209 0.929 . S
H222 C211 0.929 . S
O223 Co198 2.351 . S
O223 C226 1.244 . S
O224 Co198 2.155 . S
O224 C226 1.240 . S
O225 Co198 2.096 . S
O225 C206 1.247 . S
C226 O223 1.244 . S
C226 O224 1.240 . S
H227 C201 0.931 . S
H228 C210 0.931 . S
H229 C214 0.929 . S
H230 C216 0.930 . S
Co231 N235 2.148 . S
Co231 N241 2.128 . S
Co231 N251 2.194 . S
Co231 O256 2.351 . S
Co231 O257 2.155 . S
Co231 O258 2.096 . S
C232 N235 1.301 . S
C232 N236 1.328 . S
C232 H237 0.930 . S
C233 C234 1.333 . S
C233 N235 1.317 . S
C233 H238 0.930 . S
C234 C233 1.333 . S
C234 N236 1.350 . S
C234 H260 0.931 . S
N235 Co231 2.148 . S
N235 C232 1.301 . S
N235 C233 1.317 . S
N236 C232 1.328 . S
N236 C234 1.350 . S
H237 C232 0.930 . S
H238 C233 0.930 . S
C239 O240 1.224 . S
C239 O258 1.247 . S
O240 C239 1.224 . S
N241 Co231 2.128 . S
N241 C242 1.355 . S
N241 C244 1.311 . S
C242 N241 1.355 . S
C242 C243 1.363 . S
C242 H254 0.929 . S
C243 C242 1.363 . S
C243 N245 1.375 . S
C243 H261 0.931 . S
C244 N241 1.311 . S
C244 N245 1.347 . S
C244 H255 0.929 . S
N245 C243 1.375 . S
N245 C244 1.347 . S
C246 C249 1.365 . S
C246 N251 1.328 . S
C246 H252 0.929 . S
C247 C248 1.362 . S
C247 C250 1.378 . S
C247 H262 0.929 . S
C248 C247 1.362 . S
C248 C249 1.366 . S
C249 C246 1.365 . S
C249 C248 1.366 . S
C249 H263 0.930 . S
C250 C247 1.378 . S
C250 N251 1.315 . S
C250 H253 0.930 . S
N251 Co231 2.194 . S
N251 C246 1.328 . S
N251 C250 1.315 . S
H252 C246 0.929 . S
H253 C250 0.930 . S
H254 C242 0.929 . S
H255 C244 0.929 . S
O256 Co231 2.351 . S
O256 C259 1.244 . S
O257 Co231 2.155 . S
O257 C259 1.240 . S
O258 Co231 2.096 . S
O258 C239 1.247 . S
C259 O256 1.244 . S
C259 O257 1.240 . S
H260 C234 0.931 . S
H261 C243 0.931 . S
H262 C247 0.929 . S
H263 C249 0.930 . S
Co264 N268 2.148 . S
Co264 N274 2.128 . S
Co264 N284 2.194 . S
Co264 O289 2.351 . S
Co264 O290 2.155 . S
Co264 O291 2.096 . S
C265 N268 1.301 . S
C265 N269 1.328 . S
C265 H270 0.930 . S
C266 C267 1.333 . S
C266 N268 1.317 . S
C266 H271 0.930 . S
C267 C266 1.333 . S
C267 N269 1.350 . S
C267 H293 0.931 . S
N268 Co264 2.148 . S
N268 C265 1.301 . S
N268 C266 1.317 . S
N269 C265 1.328 . S
N269 C267 1.350 . S
H270 C265 0.930 . S
H271 C266 0.930 . S
C272 O273 1.224 . S
C272 O291 1.247 . S
O273 C272 1.224 . S
N274 Co264 2.128 . S
N274 C275 1.355 . S
N274 C277 1.311 . S
C275 N274 1.355 . S
C275 C276 1.363 1_655 S
C275 H287 0.929 . S
C276 C275 1.363 1_455 S
C276 N278 1.375 1_455 S
C276 H294 0.931 . S
C277 N274 1.311 . S
C277 N278 1.347 . S
C277 H288 0.929 . S
N278 C276 1.375 1_655 S
N278 C277 1.347 . S
C279 C282 1.365 1_655 S
C279 N284 1.328 . S
C279 H285 0.929 . S
C280 C281 1.362 . S
C280 C283 1.378 1_455 S
C280 H295 0.929 . S
C281 C280 1.362 . S
C281 C282 1.366 . S
C282 C279 1.365 1_455 S
C282 C281 1.366 . S
C282 H296 0.930 . S
C283 C280 1.378 1_655 S
C283 N284 1.315 . S
C283 H286 0.930 . S
N284 Co264 2.194 . S
N284 C279 1.328 . S
N284 C283 1.315 . S
H285 C279 0.929 . S
H286 C283 0.930 . S
H287 C275 0.929 . S
H288 C277 0.929 . S
O289 Co264 2.351 . S
O289 C292 1.244 . S
O290 Co264 2.155 . S
O290 C292 1.240 . S
O291 Co264 2.096 . S
O291 C272 1.247 . S
C292 O289 1.244 . S
C292 O290 1.240 . S
H293 C267 0.931 . S
H294 C276 0.931 . S
H295 C280 0.929 . S
H296 C282 0.930 . S
Co297 N301 2.148 . S
Co297 N307 2.128 . S
Co297 N317 2.194 . S
Co297 O322 2.351 . S
Co297 O323 2.155 . S
Co297 O324 2.096 . S
C298 N301 1.301 . S
C298 N302 1.328 . S
C298 H303 0.930 . S
C299 C300 1.333 . S
C299 N301 1.317 . S
C299 H304 0.930 . S
C300 C299 1.333 . S
C300 N302 1.350 . S
C300 H326 0.931 . S
N301 Co297 2.148 . S
N301 C298 1.301 . S
N301 C299 1.317 . S
N302 C298 1.328 . S
N302 C300 1.350 . S
H303 C298 0.930 . S
H304 C299 0.930 . S
C305 O306 1.224 . S
C305 O324 1.247 . S
O306 C305 1.224 . S
N307 Co297 2.128 . S
N307 C308 1.355 . S
N307 C310 1.311 . S
C308 N307 1.355 . S
C308 C309 1.363 1_565 S
C308 H320 0.929 . S
C309 C308 1.363 1_545 S
C309 N311 1.375 1_545 S
C309 H327 0.931 . S
C310 N307 1.311 . S
C310 N311 1.347 . S
C310 H321 0.929 . S
N311 C309 1.375 1_565 S
N311 C310 1.347 . S
C312 C315 1.365 1_565 S
C312 N317 1.328 . S
C312 H318 0.929 . S
C313 C314 1.362 . S
C313 C316 1.378 1_545 S
C313 H328 0.929 . S
C314 C313 1.362 . S
C314 C315 1.366 . S
C315 C312 1.365 1_545 S
C315 C314 1.366 . S
C315 H329 0.930 . S
C316 C313 1.378 1_565 S
C316 N317 1.315 . S
C316 H319 0.930 . S
N317 Co297 2.194 . S
N317 C312 1.328 . S
N317 C316 1.315 . S
H318 C312 0.929 . S
H319 C316 0.930 . S
H320 C308 0.929 . S
H321 C310 0.929 . S
O322 Co297 2.351 . S
O322 C325 1.244 . S
O323 Co297 2.155 . S
O323 C325 1.240 . S
O324 Co297 2.096 . S
O324 C305 1.247 . S
C325 O322 1.244 . S
C325 O323 1.240 . S
H326 C300 0.931 . S
H327 C309 0.931 . S
H328 C313 0.929 . S
H329 C315 0.930 . S
Co330 N334 2.148 . S
Co330 N340 2.128 . S
Co330 N350 2.194 . S
Co330 O355 2.351 . S
Co330 O356 2.155 . S
Co330 O357 2.096 . S
C331 N334 1.301 . S
C331 N335 1.328 . S
C331 H336 0.930 . S
C332 C333 1.333 . S
C332 N334 1.317 . S
C332 H337 0.930 . S
C333 C332 1.333 . S
C333 N335 1.350 . S
C333 H359 0.931 . S
N334 Co330 2.148 . S
N334 C331 1.301 . S
N334 C332 1.317 . S
N335 C331 1.328 . S
N335 C333 1.350 . S
H336 C331 0.930 . S
H337 C332 0.930 . S
C338 O339 1.224 . S
C338 O357 1.247 . S
O339 C338 1.224 . S
N340 Co330 2.128 . S
N340 C341 1.355 . S
N340 C343 1.311 . S
C341 N340 1.355 . S
C341 C342 1.363 1_455 S
C341 H353 0.929 . S
C342 C341 1.363 1_655 S
C342 N344 1.375 1_655 S
C342 H360 0.931 . S
C343 N340 1.311 . S
C343 N344 1.347 . S
C343 H354 0.929 . S
N344 C342 1.375 1_455 S
N344 C343 1.347 . S
C345 C348 1.365 1_455 S
C345 N350 1.328 . S
C345 H351 0.929 . S
C346 C347 1.362 . S
C346 C349 1.378 1_655 S
C346 H361 0.929 . S
C347 C346 1.362 . S
C347 C348 1.366 . S
C348 C345 1.365 1_655 S
C348 C347 1.366 . S
C348 H362 0.930 . S
C349 C346 1.378 1_455 S
C349 N350 1.315 . S
C349 H352 0.930 . S
N350 Co330 2.194 . S
N350 C345 1.328 . S
N350 C349 1.315 . S
H351 C345 0.929 . S
H352 C349 0.930 . S
H353 C341 0.929 . S
H354 C343 0.929 . S
O355 Co330 2.351 . S
O355 C358 1.244 . S
O356 Co330 2.155 . S
O356 C358 1.240 . S
O357 Co330 2.096 . S
O357 C338 1.247 . S
C358 O355 1.244 . S
C358 O356 1.240 . S
H359 C333 0.931 . S
H360 C342 0.931 . S
H361 C346 0.929 . S
H362 C348 0.930 . S
Co363 N367 2.148 . S
Co363 N373 2.128 . S
Co363 N383 2.194 . S
Co363 O388 2.351 . S
Co363 O389 2.155 . S
Co363 O390 2.096 . S
C364 N367 1.301 . S
C364 N368 1.328 . S
C364 H369 0.930 . S
C365 C366 1.333 . S
C365 N367 1.317 . S
C365 H370 0.930 . S
C366 C365 1.333 . S
C366 N368 1.350 . S
C366 H392 0.931 . S
N367 Co363 2.148 . S
N367 C364 1.301 . S
N367 C365 1.317 . S
N368 C364 1.328 . S
N368 C366 1.350 . S
H369 C364 0.930 . S
H370 C365 0.930 . S
C371 O372 1.224 . S
C371 O390 1.247 . S
O372 C371 1.224 . S
N373 Co363 2.128 . S
N373 C374 1.355 . S
N373 C376 1.311 . S
C374 N373 1.355 . S
C374 C375 1.363 1_545 S
C374 H386 0.929 . S
C375 C374 1.363 1_565 S
C375 N377 1.375 1_565 S
C375 H393 0.931 . S
C376 N373 1.311 . S
C376 N377 1.347 . S
C376 H387 0.929 . S
N377 C375 1.375 1_545 S
N377 C376 1.347 . S
C378 C381 1.365 1_545 S
C378 N383 1.328 . S
C378 H384 0.929 . S
C379 C380 1.362 . S
C379 C382 1.378 1_565 S
C379 H394 0.929 . S
C380 C379 1.362 . S
C380 C381 1.366 . S
C381 C378 1.365 1_565 S
C381 C380 1.366 . S
C381 H395 0.930 . S
C382 C379 1.378 1_545 S
C382 N383 1.315 . S
C382 H385 0.930 . S
N383 Co363 2.194 . S
N383 C378 1.328 . S
N383 C382 1.315 . S
H384 C378 0.929 . S
H385 C382 0.930 . S
H386 C374 0.929 . S
H387 C376 0.929 . S
O388 Co363 2.351 . S
O388 C391 1.244 . S
O389 Co363 2.155 . S
O389 C391 1.240 . S
O390 Co363 2.096 . S
O390 C371 1.247 . S
C391 O388 1.244 . S
C391 O389 1.240 . S
H392 C366 0.931 . S
H393 C375 0.931 . S
H394 C379 0.929 . S
H395 C381 0.930 . S
Co396 N400 2.148 . S
Co396 N406 2.128 . S
Co396 N416 2.194 . S
Co396 O421 2.351 . S
Co396 O422 2.155 . S
Co396 O423 2.096 . S
C397 N400 1.301 . S
C397 N401 1.328 . S
C397 H402 0.930 . S
C398 C399 1.333 . S
C398 N400 1.317 . S
C398 H403 0.930 . S
C399 C398 1.333 . S
C399 N401 1.350 . S
C399 H425 0.931 . S
N400 Co396 2.148 . S
N400 C397 1.301 . S
N400 C398 1.317 . S
N401 C397 1.328 . S
N401 C399 1.350 . S
H402 C397 0.930 . S
H403 C398 0.930 . S
C404 O405 1.224 . S
C404 O423 1.247 . S
O405 C404 1.224 . S
N406 Co396 2.128 . S
N406 C407 1.355 . S
N406 C409 1.311 . S
C407 N406 1.355 . S
C407 C408 1.363 . S
C407 H419 0.929 . S
C408 C407 1.363 . S
C408 N410 1.375 . S
C408 H426 0.931 . S
C409 N406 1.311 . S
C409 N410 1.347 . S
C409 H420 0.929 . S
N410 C408 1.375 . S
N410 C409 1.347 . S
C411 C414 1.365 . S
C411 N416 1.328 . S
C411 H417 0.929 . S
C412 C413 1.362 . S
C412 C415 1.378 . S
C412 H427 0.929 . S
C413 C412 1.362 . S
C413 C414 1.366 . S
C414 C411 1.365 . S
C414 C413 1.366 . S
C414 H428 0.930 . S
C415 C412 1.378 . S
C415 N416 1.315 . S
C415 H418 0.930 . S
N416 Co396 2.194 . S
N416 C411 1.328 . S
N416 C415 1.315 . S
H417 C411 0.929 . S
H418 C415 0.930 . S
H419 C407 0.929 . S
H420 C409 0.929 . S
O421 Co396 2.351 . S
O421 C424 1.244 . S
O422 Co396 2.155 . S
O422 C424 1.240 . S
O423 Co396 2.096 . S
O423 C404 1.247 . S
C424 O421 1.244 . S
C424 O422 1.240 . S
H425 C399 0.931 . S
H426 C408 0.931 . S
H427 C412 0.929 . S
H428 C414 0.930 . S
Co429 N433 2.148 . S
Co429 N439 2.128 . S
Co429 N449 2.194 . S
Co429 O454 2.351 . S
Co429 O455 2.155 . S
Co429 O456 2.096 . S
C430 N433 1.301 . S
C430 N434 1.328 . S
C430 H435 0.930 . S
C431 C432 1.333 . S
C431 N433 1.317 . S
C431 H436 0.930 . S
C432 C431 1.333 . S
C432 N434 1.350 . S
C432 H458 0.931 . S
N433 Co429 2.148 . S
N433 C430 1.301 . S
N433 C431 1.317 . S
N434 C430 1.328 . S
N434 C432 1.350 . S
H435 C430 0.930 . S
H436 C431 0.930 . S
C437 O438 1.224 . S
C437 O456 1.247 . S
O438 C437 1.224 . S
N439 Co429 2.128 . S
N439 C440 1.355 . S
N439 C442 1.311 . S
C440 N439 1.355 . S
C440 C441 1.363 . S
C440 H452 0.929 . S
C441 C440 1.363 . S
C441 N443 1.375 . S
C441 H459 0.931 . S
C442 N439 1.311 . S
C442 N443 1.347 . S
C442 H453 0.929 . S
N443 C441 1.375 . S
N443 C442 1.347 . S
C444 C447 1.365 . S
C444 N449 1.328 . S
C444 H450 0.929 . S
C445 C446 1.362 . S
C445 C448 1.378 . S
C445 H460 0.929 . S
C446 C445 1.362 . S
C446 C447 1.366 . S
C447 C444 1.365 . S
C447 C446 1.366 . S
C447 H461 0.930 . S
C448 C445 1.378 . S
C448 N449 1.315 . S
C448 H451 0.930 . S
N449 Co429 2.194 . S
N449 C444 1.328 . S
N449 C448 1.315 . S
H450 C444 0.929 . S
H451 C448 0.930 . S
H452 C440 0.929 . S
H453 C442 0.929 . S
O454 Co429 2.351 . S
O454 C457 1.244 . S
O455 Co429 2.155 . S
O455 C457 1.240 . S
O456 Co429 2.096 . S
O456 C437 1.247 . S
C457 O454 1.244 . S
C457 O455 1.240 . S
H458 C432 0.931 . S
H459 C441 0.931 . S
H460 C445 0.929 . S
H461 C447 0.930 . S
Co462 N466 2.148 . S
Co462 N472 2.128 . S
Co462 N482 2.194 . S
Co462 O487 2.351 . S
Co462 O488 2.155 . S
Co462 O489 2.096 . S
C463 N466 1.301 . S
C463 N467 1.328 . S
C463 H468 0.930 . S
C464 C465 1.333 . S
C464 N466 1.317 . S
C464 H469 0.930 . S
C465 C464 1.333 . S
C465 N467 1.350 . S
C465 H491 0.931 . S
N466 Co462 2.148 . S
N466 C463 1.301 . S
N466 C464 1.317 . S
N467 C463 1.328 . S
N467 C465 1.350 . S
H468 C463 0.930 . S
H469 C464 0.930 . S
C470 O471 1.224 . S
C470 O489 1.247 . S
O471 C470 1.224 . S
N472 Co462 2.128 . S
N472 C473 1.355 . S
N472 C475 1.311 . S
C473 N472 1.355 . S
C473 C474 1.363 . S
C473 H485 0.929 . S
C474 C473 1.363 . S
C474 N476 1.375 . S
C474 H492 0.931 . S
C475 N472 1.311 . S
C475 N476 1.347 . S
C475 H486 0.929 . S
N476 C474 1.375 . S
N476 C475 1.347 . S
C477 C480 1.365 . S
C477 N482 1.328 . S
C477 H483 0.929 . S
C478 C479 1.362 . S
C478 C481 1.378 . S
C478 H493 0.929 . S
C479 C478 1.362 . S
C479 C480 1.366 . S
C480 C477 1.365 . S
C480 C479 1.366 . S
C480 H494 0.930 . S
C481 C478 1.378 . S
C481 N482 1.315 . S
C481 H484 0.930 . S
N482 Co462 2.194 . S
N482 C477 1.328 . S
N482 C481 1.315 . S
H483 C477 0.929 . S
H484 C481 0.930 . S
H485 C473 0.929 . S
H486 C475 0.929 . S
O487 Co462 2.351 . S
O487 C490 1.244 . S
O488 Co462 2.155 . S
O488 C490 1.240 . S
O489 Co462 2.096 . S
O489 C470 1.247 . S
C490 O487 1.244 . S
C490 O488 1.240 . S
H491 C465 0.931 . S
H492 C474 0.931 . S
H493 C478 0.929 . S
H494 C480 0.930 . S
Co495 N499 2.148 . S
Co495 N505 2.128 . S
Co495 N515 2.194 . S
Co495 O520 2.351 . S
Co495 O521 2.155 . S
Co495 O522 2.096 . S
C496 N499 1.301 . S
C496 N500 1.328 . S
C496 H501 0.930 . S
C497 C498 1.333 . S
C497 N499 1.317 . S
C497 H502 0.930 . S
C498 C497 1.333 . S
C498 N500 1.350 . S
C498 H524 0.931 . S
N499 Co495 2.148 . S
N499 C496 1.301 . S
N499 C497 1.317 . S
N500 C496 1.328 . S
N500 C498 1.350 . S
H501 C496 0.930 . S
H502 C497 0.930 . S
C503 O504 1.224 . S
C503 O522 1.247 . S
O504 C503 1.224 . S
N505 Co495 2.128 . S
N505 C506 1.355 . S
N505 C508 1.311 . S
C506 N505 1.355 . S
C506 C507 1.363 . S
C506 H518 0.929 . S
C507 C506 1.363 . S
C507 N509 1.375 . S
C507 H525 0.931 . S
C508 N505 1.311 . S
C508 N509 1.347 . S
C508 H519 0.929 . S
N509 C507 1.375 . S
N509 C508 1.347 . S
C510 C513 1.365 . S
C510 N515 1.328 . S
C510 H516 0.929 . S
C511 C512 1.362 . S
C511 C514 1.378 . S
C511 H526 0.929 . S
C512 C511 1.362 . S
C512 C513 1.366 . S
C513 C510 1.365 . S
C513 C512 1.366 . S
C513 H527 0.930 . S
C514 C511 1.378 . S
C514 N515 1.315 . S
C514 H517 0.930 . S
N515 Co495 2.194 . S
N515 C510 1.328 . S
N515 C514 1.315 . S
H516 C510 0.929 . S
H517 C514 0.930 . S
H518 C506 0.929 . S
H519 C508 0.929 . S
O520 Co495 2.351 . S
O520 C523 1.244 . S
O521 Co495 2.155 . S
O521 C523 1.240 . S
O522 Co495 2.096 . S
O522 C503 1.247 . S
C523 O520 1.244 . S
C523 O521 1.240 . S
H524 C498 0.931 . S
H525 C507 0.931 . S
H526 C511 0.929 . S
H527 C513 0.930 . S
C528 C529 1.363 . S
C528 C534 1.379 1_556 S
C528 N536 1.356 . S
C529 C528 1.363 . S
C529 C535 1.363 . S
C530 C531 1.363 . S
C530 C535 1.379 1_554 S
C530 N537 1.356 . S
C531 C530 1.363 . S
C531 C534 1.363 . S
N532 C534 1.356 . S
N532 H544 0.984 . S
N532 H545 0.985 . S
N533 C535 1.356 . S
N533 H538 0.984 . S
N533 H539 0.985 . S
C534 C528 1.379 1_554 S
C534 C531 1.363 . S
C534 N532 1.356 . S
C535 C529 1.363 . S
C535 C530 1.379 1_556 S
C535 N533 1.356 . S
N536 C528 1.356 . S
N536 H542 0.984 . S
N536 H543 0.984 . S
N537 C530 1.356 . S
N537 H540 0.984 . S
N537 H541 0.985 . S
H538 N533 0.984 . S
H539 N533 0.985 . S
H540 N537 0.984 . S
H541 N537 0.985 . S
H542 N536 0.984 . S
H543 N536 0.984 . S
H544 N532 0.984 . S
H545 N532 0.985 . S
C546 C547 1.363 . S
C546 C552 1.379 1_556 S
C546 N554 1.356 . S
C547 C546 1.363 . S
C547 C553 1.363 . S
C548 C549 1.363 . S
C548 C553 1.379 1_554 S
C548 N555 1.356 . S
C549 C548 1.363 . S
C549 C552 1.363 . S
N550 C552 1.356 . S
N550 H562 0.984 . S
N550 H563 0.985 . S
N551 C553 1.356 . S
N551 H556 0.984 . S
N551 H557 0.985 . S
C552 C546 1.379 1_554 S
C552 C549 1.363 . S
C552 N550 1.356 . S
C553 C547 1.363 . S
C553 C548 1.379 1_556 S
C553 N551 1.356 . S
N554 C546 1.356 . S
N554 H560 0.984 . S
N554 H561 0.984 . S
N555 C548 1.356 . S
N555 H558 0.984 . S
N555 H559 0.985 . S
H556 N551 0.984 . S
H557 N551 0.985 . S
H558 N555 0.984 . S
H559 N555 0.985 . S
H560 N554 0.984 . S
H561 N554 0.984 . S
H562 N550 0.984 . S
H563 N550 0.985 . S
C564 C565 1.363 . S
C564 C570 1.379 1_556 S
C564 N572 1.356 . S
C565 C564 1.363 . S
C565 C571 1.363 . S
C566 C567 1.363 . S
C566 C571 1.379 1_554 S
C566 N573 1.356 . S
C567 C566 1.363 . S
C567 C570 1.363 . S
N568 C570 1.356 . S
N568 H580 0.984 . S
N568 H581 0.985 . S
N569 C571 1.356 . S
N569 H574 0.984 . S
N569 H575 0.985 . S
C570 C564 1.379 1_554 S
C570 C567 1.363 . S
C570 N568 1.356 . S
C571 C565 1.363 . S
C571 C566 1.379 1_556 S
C571 N569 1.356 . S
N572 C564 1.356 . S
N572 H578 0.984 . S
N572 H579 0.984 . S
N573 C566 1.356 . S
N573 H576 0.984 . S
N573 H577 0.985 . S
H574 N569 0.984 . S
H575 N569 0.985 . S
H576 N573 0.984 . S
H577 N573 0.985 . S
H578 N572 0.984 . S
H579 N572 0.984 . S
H580 N568 0.984 . S
H581 N568 0.985 . S
C582 C583 1.363 . S
C582 C588 1.379 1_556 S
C582 N590 1.356 . S
C583 C582 1.363 . S
C583 C589 1.363 . S
C584 C585 1.363 . S
C584 C589 1.379 1_554 S
C584 N591 1.356 . S
C585 C584 1.363 . S
C585 C588 1.363 . S
N586 C588 1.356 . S
N586 H598 0.984 . S
N586 H599 0.985 . S
N587 C589 1.356 . S
N587 H592 0.984 . S
N587 H593 0.985 . S
C588 C582 1.379 1_554 S
C588 C585 1.363 . S
C588 N586 1.356 . S
C589 C583 1.363 . S
C589 C584 1.379 1_556 S
C589 N587 1.356 . S
N590 C582 1.356 . S
N590 H596 0.984 . S
N590 H597 0.984 . S
N591 C584 1.356 . S
N591 H594 0.984 . S
N591 H595 0.985 . S
H592 N587 0.984 . S
H593 N587 0.985 . S
H594 N591 0.984 . S
H595 N591 0.985 . S
H596 N590 0.984 . S
H597 N590 0.984 . S
H598 N586 0.984 . S
H599 N586 0.985 . S
C600 C601 1.363 . S
C600 C606 1.379 . S
C600 N608 1.356 . S
C601 C600 1.363 . S
C601 C607 1.363 . S
C602 C603 1.363 . S
C602 C607 1.379 . S
C602 N609 1.356 . S
C603 C602 1.363 . S
C603 C606 1.363 . S
N604 C606 1.356 . S
N604 H616 0.984 . S
N604 H617 0.985 . S
N605 C607 1.356 . S
N605 H610 0.984 . S
N605 H611 0.985 . S
C606 C600 1.379 . S
C606 C603 1.363 . S
C606 N604 1.356 . S
C607 C601 1.363 . S
C607 C602 1.379 . S
C607 N605 1.356 . S
N608 C600 1.356 . S
N608 H614 0.984 . S
N608 H615 0.984 . S
N609 C602 1.356 . S
N609 H612 0.984 . S
N609 H613 0.985 . S
H610 N605 0.984 . S
H611 N605 0.985 . S
H612 N609 0.984 . S
H613 N609 0.985 . S
H614 N608 0.984 . S
H615 N608 0.984 . S
H616 N604 0.984 . S
H617 N604 0.985 . S
C618 C619 1.363 . S
C618 C624 1.379 . S
C618 N626 1.356 . S
C619 C618 1.363 . S
C619 C625 1.363 . S
C620 C621 1.363 . S
C620 C625 1.379 . S
C620 N627 1.356 . S
C621 C620 1.363 . S
C621 C624 1.363 . S
N622 C624 1.356 . S
N622 H634 0.984 . S
N622 H635 0.985 . S
N623 C625 1.356 . S
N623 H628 0.984 . S
N623 H629 0.985 . S
C624 C618 1.379 . S
C624 C621 1.363 . S
C624 N622 1.356 . S
C625 C619 1.363 . S
C625 C620 1.379 . S
C625 N623 1.356 . S
N626 C618 1.356 . S
N626 H632 0.984 . S
N626 H633 0.984 . S
N627 C620 1.356 . S
N627 H630 0.984 . S
N627 H631 0.985 . S
H628 N623 0.984 . S
H629 N623 0.985 . S
H630 N627 0.984 . S
H631 N627 0.985 . S
H632 N626 0.984 . S
H633 N626 0.984 . S
H634 N622 0.984 . S
H635 N622 0.985 . S
C636 C637 1.363 . S
C636 C642 1.379 . S
C636 N644 1.356 . S
C637 C636 1.363 . S
C637 C643 1.363 . S
C638 C639 1.363 . S
C638 C643 1.379 . S
C638 N645 1.356 . S
C639 C638 1.363 . S
C639 C642 1.363 . S
N640 C642 1.356 . S
N640 H652 0.984 . S
N640 H653 0.985 . S
N641 C643 1.356 . S
N641 H646 0.984 . S
N641 H647 0.985 . S
C642 C636 1.379 . S
C642 C639 1.363 . S
C642 N640 1.356 . S
C643 C637 1.363 . S
C643 C638 1.379 . S
C643 N641 1.356 . S
N644 C636 1.356 . S
N644 H650 0.984 . S
N644 H651 0.984 . S
N645 C638 1.356 . S
N645 H648 0.984 . S
N645 H649 0.985 . S
H646 N641 0.984 . S
H647 N641 0.985 . S
H648 N645 0.984 . S
H649 N645 0.985 . S
H650 N644 0.984 . S
H651 N644 0.984 . S
H652 N640 0.984 . S
H653 N640 0.985 . S
C654 C655 1.363 . S
C654 C660 1.379 . S
C654 N662 1.356 . S
C655 C654 1.363 . S
C655 C661 1.363 . S
C656 C657 1.363 . S
C656 C661 1.379 . S
C656 N663 1.356 . S
C657 C656 1.363 . S
C657 C660 1.363 . S
N658 C660 1.356 . S
N658 H670 0.984 . S
N658 H671 0.985 . S
N659 C661 1.356 . S
N659 H664 0.984 . S
N659 H665 0.985 . S
C660 C654 1.379 . S
C660 C657 1.363 . S
C660 N658 1.356 . S
C661 C655 1.363 . S
C661 C656 1.379 . S
C661 N659 1.356 . S
N662 C654 1.356 . S
N662 H668 0.984 . S
N662 H669 0.984 . S
N663 C656 1.356 . S
N663 H666 0.984 . S
N663 H667 0.985 . S
H664 N659 0.984 . S
H665 N659 0.985 . S
H666 N663 0.984 . S
H667 N663 0.985 . S
H668 N662 0.984 . S
H669 N662 0.984 . S
H670 N658 0.984 . S
H671 N658 0.985 . S
C672 C673 1.363 . S
C672 C678 1.379 . S
C672 N680 1.356 . S
C673 C672 1.363 . S
C673 C679 1.363 . S
C674 C675 1.363 . S
C674 C679 1.379 . S
C674 N681 1.356 . S
C675 C674 1.363 . S
C675 C678 1.363 . S
N676 C678 1.356 . S
N676 H688 0.984 . S
N676 H689 0.985 . S
N677 C679 1.356 . S
N677 H682 0.984 . S
N677 H683 0.985 . S
C678 C672 1.379 . S
C678 C675 1.363 . S
C678 N676 1.356 . S
C679 C673 1.363 . S
C679 C674 1.379 . S
C679 N677 1.356 . S
N680 C672 1.356 . S
N680 H686 0.984 . S
N680 H687 0.984 . S
N681 C674 1.356 . S
N681 H684 0.984 . S
N681 H685 0.985 . S
H682 N677 0.984 . S
H683 N677 0.985 . S
H684 N681 0.984 . S
H685 N681 0.985 . S
H686 N680 0.984 . S
H687 N680 0.984 . S
H688 N676 0.984 . S
H689 N676 0.985 . S
C690 C691 1.363 . S
C690 C696 1.379 . S
C690 N698 1.356 . S
C691 C690 1.363 . S
C691 C697 1.363 . S
C692 C693 1.363 . S
C692 C697 1.379 . S
C692 N699 1.356 . S
C693 C692 1.363 . S
C693 C696 1.363 . S
N694 C696 1.356 . S
N694 H706 0.984 . S
N694 H707 0.985 . S
N695 C697 1.356 . S
N695 H700 0.984 . S
N695 H701 0.985 . S
C696 C690 1.379 . S
C696 C693 1.363 . S
C696 N694 1.356 . S
C697 C691 1.363 . S
C697 C692 1.379 . S
C697 N695 1.356 . S
N698 C690 1.356 . S
N698 H704 0.984 . S
N698 H705 0.984 . S
N699 C692 1.356 . S
N699 H702 0.984 . S
N699 H703 0.985 . S
H700 N695 0.984 . S
H701 N695 0.985 . S
H702 N699 0.984 . S
H703 N699 0.985 . S
H704 N698 0.984 . S
H705 N698 0.984 . S
H706 N694 0.984 . S
H707 N694 0.985 . S
C708 C709 1.363 . S
C708 C714 1.379 . S
C708 N716 1.356 . S
C709 C708 1.363 . S
C709 C715 1.363 . S
C710 C711 1.363 . S
C710 C715 1.379 . S
C710 N717 1.356 . S
C711 C710 1.363 . S
C711 C714 1.363 . S
N712 C714 1.356 . S
N712 H724 0.984 . S
N712 H725 0.985 . S
N713 C715 1.356 . S
N713 H718 0.984 . S
N713 H719 0.985 . S
C714 C708 1.379 . S
C714 C711 1.363 . S
C714 N712 1.356 . S
C715 C709 1.363 . S
C715 C710 1.379 . S
C715 N713 1.356 . S
N716 C708 1.356 . S
N716 H722 0.984 . S
N716 H723 0.984 . S
N717 C710 1.356 . S
N717 H720 0.984 . S
N717 H721 0.985 . S
H718 N713 0.984 . S
H719 N713 0.985 . S
H720 N717 0.984 . S
H721 N717 0.985 . S
H722 N716 0.984 . S
H723 N716 0.984 . S
H724 N712 0.984 . S
H725 N712 0.985 . S
C726 C727 1.363 . S
C726 C732 1.379 . S
C726 N734 1.356 . S
C727 C726 1.363 . S
C727 C733 1.363 . S
C728 C729 1.363 . S
C728 C733 1.379 . S
C728 N735 1.356 . S
C729 C728 1.363 . S
C729 C732 1.363 . S
N730 C732 1.356 . S
N730 H742 0.984 . S
N730 H743 0.985 . S
N731 C733 1.356 . S
N731 H736 0.984 . S
N731 H737 0.985 . S
C732 C726 1.379 . S
C732 C729 1.363 . S
C732 N730 1.356 . S
C733 C727 1.363 . S
C733 C728 1.379 . S
C733 N731 1.356 . S
N734 C726 1.356 . S
N734 H740 0.984 . S
N734 H741 0.984 . S
N735 C728 1.356 . S
N735 H738 0.984 . S
N735 H739 0.985 . S
H736 N731 0.984 . S
H737 N731 0.985 . S
H738 N735 0.984 . S
H739 N735 0.985 . S
H740 N734 0.984 . S
H741 N734 0.984 . S
H742 N730 0.984 . S
H743 N730 0.985 . S
C744 C745 1.363 . S
C744 C750 1.379 . S
C744 N752 1.356 . S
C745 C744 1.363 . S
C745 C751 1.363 . S
C746 C747 1.363 . S
C746 C751 1.379 . S
C746 N753 1.356 . S
C747 C746 1.363 . S
C747 C750 1.363 . S
N748 C750 1.356 . S
N748 H760 0.984 . S
N748 H761 0.985 . S
N749 C751 1.356 . S
N749 H754 0.984 . S
N749 H755 0.985 . S
C750 C744 1.379 . S
C750 C747 1.363 . S
C750 N748 1.356 . S
C751 C745 1.363 . S
C751 C746 1.379 . S
C751 N749 1.356 . S
N752 C744 1.356 . S
N752 H758 0.984 . S
N752 H759 0.984 . S
N753 C746 1.356 . S
N753 H756 0.984 . S
N753 H757 0.985 . S
H754 N749 0.984 . S
H755 N749 0.985 . S
H756 N753 0.984 . S
H757 N753 0.985 . S
H758 N752 0.984 . S
H759 N752 0.984 . S
H760 N748 0.984 . S
H761 N748 0.985 . S
C762 C763 1.363 . S
C762 C768 1.379 . S
C762 N770 1.356 . S
C763 C762 1.363 . S
C763 C769 1.363 . S
C764 C765 1.363 . S
C764 C769 1.379 . S
C764 N771 1.356 . S
C765 C764 1.363 . S
C765 C768 1.363 . S
N766 C768 1.356 . S
N766 H778 0.984 . S
N766 H779 0.985 . S
N767 C769 1.356 . S
N767 H772 0.984 . S
N767 H773 0.985 . S
C768 C762 1.379 . S
C768 C765 1.363 . S
C768 N766 1.356 . S
C769 C763 1.363 . S
C769 C764 1.379 . S
C769 N767 1.356 . S
N770 C762 1.356 . S
N770 H776 0.984 . S
N770 H777 0.984 . S
N771 C764 1.356 . S
N771 H774 0.984 . S
N771 H775 0.985 . S
H772 N767 0.984 . S
H773 N767 0.985 . S
H774 N771 0.984 . S
H775 N771 0.985 . S
H776 N770 0.984 . S
H777 N770 0.984 . S
H778 N766 0.984 . S
H779 N766 0.985 . S
C780 C781 1.363 . S
C780 C786 1.379 . S
C780 N788 1.356 . S
C781 C780 1.363 . S
C781 C787 1.363 . S
C782 C783 1.363 . S
C782 C787 1.379 . S
C782 N789 1.356 . S
C783 C782 1.363 . S
C783 C786 1.363 . S
N784 C786 1.356 . S
N784 H796 0.984 . S
N784 H797 0.985 . S
N785 C787 1.356 . S
N785 H790 0.984 . S
N785 H791 0.985 . S
C786 C780 1.379 . S
C786 C783 1.363 . S
C786 N784 1.356 . S
C787 C781 1.363 . S
C787 C782 1.379 . S
C787 N785 1.356 . S
N788 C780 1.356 . S
N788 H794 0.984 . S
N788 H795 0.984 . S
N789 C782 1.356 . S
N789 H792 0.984 . S
N789 H793 0.985 . S
H790 N785 0.984 . S
H791 N785 0.985 . S
H792 N789 0.984 . S
H793 N789 0.985 . S
H794 N788 0.984 . S
H795 N788 0.984 . S
H796 N784 0.984 . S
H797 N784 0.985 . S
C798 C799 1.363 . S
C798 C804 1.379 . S
C798 N806 1.356 . S
C799 C798 1.363 . S
C799 C805 1.363 . S
C800 C801 1.363 . S
C800 C805 1.379 . S
C800 N807 1.356 . S
C801 C800 1.363 . S
C801 C804 1.363 . S
N802 C804 1.356 . S
N802 H814 0.984 . S
N802 H815 0.985 . S
N803 C805 1.356 . S
N803 H808 0.984 . S
N803 H809 0.985 . S
C804 C798 1.379 . S
C804 C801 1.363 . S
C804 N802 1.356 . S
C805 C799 1.363 . S
C805 C800 1.379 . S
C805 N803 1.356 . S
N806 C798 1.356 . S
N806 H812 0.984 . S
N806 H813 0.984 . S
N807 C800 1.356 . S
N807 H810 0.984 . S
N807 H811 0.985 . S
H808 N803 0.984 . S
H809 N803 0.985 . S
H810 N807 0.984 . S
H811 N807 0.985 . S
H812 N806 0.984 . S
H813 N806 0.984 . S
H814 N802 0.984 . S
H815 N802 0.985 . S
C816 C817 1.363 . S
C816 C822 1.379 . S
C816 N824 1.356 . S
C817 C816 1.363 . S
C817 C823 1.363 . S
C818 C819 1.363 . S
C818 C823 1.379 . S
C818 N825 1.356 . S
C819 C818 1.363 . S
C819 C822 1.363 . S
N820 C822 1.356 . S
N820 H832 0.984 . S
N820 H833 0.985 . S
N821 C823 1.356 . S
N821 H826 0.984 . S
N821 H827 0.985 . S
C822 C816 1.379 . S
C822 C819 1.363 . S
C822 N820 1.356 . S
C823 C817 1.363 . S
C823 C818 1.379 . S
C823 N821 1.356 . S
N824 C816 1.356 . S
N824 H830 0.984 . S
N824 H831 0.984 . S
N825 C818 1.356 . S
N825 H828 0.984 . S
N825 H829 0.985 . S
H826 N821 0.984 . S
H827 N821 0.985 . S
H828 N825 0.984 . S
H829 N825 0.985 . S
H830 N824 0.984 . S
H831 N824 0.984 . S
H832 N820 0.984 . S
H833 N820 0.985 . S
C834 C835 1.363 . S
C834 C840 1.379 . S
C834 N842 1.356 . S
C835 C834 1.363 . S
C835 C841 1.363 . S
C836 C837 1.363 . S
C836 C841 1.379 . S
C836 N843 1.356 . S
C837 C836 1.363 . S
C837 C840 1.363 . S
N838 C840 1.356 . S
N838 H850 0.984 . S
N838 H851 0.985 . S
N839 C841 1.356 . S
N839 H844 0.984 . S
N839 H845 0.985 . S
C840 C834 1.379 . S
C840 C837 1.363 . S
C840 N838 1.356 . S
C841 C835 1.363 . S
C841 C836 1.379 . S
C841 N839 1.356 . S
N842 C834 1.356 . S
N842 H848 0.984 . S
N842 H849 0.984 . S
N843 C836 1.356 . S
N843 H846 0.984 . S
N843 H847 0.985 . S
H844 N839 0.984 . S
H845 N839 0.985 . S
H846 N843 0.984 . S
H847 N843 0.985 . S
H848 N842 0.984 . S
H849 N842 0.984 . S
H850 N838 0.984 . S
H851 N838 0.985 . S
C852 C853 1.363 . S
C852 C858 1.379 . S
C852 N860 1.356 . S
C853 C852 1.363 . S
C853 C859 1.363 . S
C854 C855 1.363 . S
C854 C859 1.379 . S
C854 N861 1.356 . S
C855 C854 1.363 . S
C855 C858 1.363 . S
N856 C858 1.356 . S
N856 H868 0.984 . S
N856 H869 0.985 . S
N857 C859 1.356 . S
N857 H862 0.984 . S
N857 H863 0.985 . S
C858 C852 1.379 . S
C858 C855 1.363 . S
C858 N856 1.356 . S
C859 C853 1.363 . S
C859 C854 1.379 . S
C859 N857 1.356 . S
N860 C852 1.356 . S
N860 H866 0.984 . S
N860 H867 0.984 . S
N861 C854 1.356 . S
N861 H864 0.984 . S
N861 H865 0.985 . S
H862 N857 0.984 . S
H863 N857 0.985 . S
H864 N861 0.984 . S
H865 N861 0.985 . S
H866 N860 0.984 . S
H867 N860 0.984 . S
H868 N856 0.984 . S
H869 N856 0.985 . S
C870 C871 1.363 . S
C870 C876 1.379 . S
C870 N878 1.356 . S
C871 C870 1.363 . S
C871 C877 1.363 . S
C872 C873 1.363 . S
C872 C877 1.379 . S
C872 N879 1.356 . S
C873 C872 1.363 . S
C873 C876 1.363 . S
N874 C876 1.356 . S
N874 H886 0.984 . S
N874 H887 0.985 . S
N875 C877 1.356 . S
N875 H880 0.984 . S
N875 H881 0.985 . S
C876 C870 1.379 . S
C876 C873 1.363 . S
C876 N874 1.356 . S
C877 C871 1.363 . S
C877 C872 1.379 . S
C877 N875 1.356 . S
N878 C870 1.356 . S
N878 H884 0.984 . S
N878 H885 0.984 . S
N879 C872 1.356 . S
N879 H882 0.984 . S
N879 H883 0.985 . S
H880 N875 0.984 . S
H881 N875 0.985 . S
H882 N879 0.984 . S
H883 N879 0.985 . S
H884 N878 0.984 . S
H885 N878 0.984 . S
H886 N874 0.984 . S
H887 N874 0.985 . S
C888 C889 1.363 . S
C888 C894 1.379 . S
C888 N896 1.356 . S
C889 C888 1.363 . S
C889 C895 1.363 . S
C890 C891 1.363 . S
C890 C895 1.379 . S
C890 N897 1.356 . S
C891 C890 1.363 . S
C891 C894 1.363 . S
N892 C894 1.356 . S
N892 H904 0.984 . S
N892 H905 0.985 . S
N893 C895 1.356 . S
N893 H898 0.984 . S
N893 H899 0.985 . S
C894 C888 1.379 . S
C894 C891 1.363 . S
C894 N892 1.356 . S
C895 C889 1.363 . S
C895 C890 1.379 . S
C895 N893 1.356 . S
N896 C888 1.356 . S
N896 H902 0.984 . S
N896 H903 0.984 . S
N897 C890 1.356 . S
N897 H900 0.984 . S
N897 H901 0.985 . S
H898 N893 0.984 . S
H899 N893 0.985 . S
H900 N897 0.984 . S
H901 N897 0.985 . S
H902 N896 0.984 . S
H903 N896 0.984 . S
H904 N892 0.984 . S
H905 N892 0.985 . S
C906 C907 1.363 . S
C906 C912 1.379 . S
C906 N914 1.356 . S
C907 C906 1.363 . S
C907 C913 1.363 . S
C908 C909 1.363 . S
C908 C913 1.379 . S
C908 N915 1.356 . S
C909 C908 1.363 . S
C909 C912 1.363 . S
N910 C912 1.356 . S
N910 H922 0.984 . S
N910 H923 0.985 . S
N911 C913 1.356 . S
N911 H916 0.984 . S
N911 H917 0.985 . S
C912 C906 1.379 . S
C912 C909 1.363 . S
C912 N910 1.356 . S
C913 C907 1.363 . S
C913 C908 1.379 . S
C913 N911 1.356 . S
N914 C906 1.356 . S
N914 H920 0.984 . S
N914 H921 0.984 . S
N915 C908 1.356 . S
N915 H918 0.984 . S
N915 H919 0.985 . S
H916 N911 0.984 . S
H917 N911 0.985 . S
H918 N915 0.984 . S
H919 N915 0.985 . S
H920 N914 0.984 . S
H921 N914 0.984 . S
H922 N910 0.984 . S
H923 N910 0.985 . S
C924 C925 1.363 . S
C924 C930 1.379 . S
C924 N932 1.356 . S
C925 C924 1.363 . S
C925 C931 1.363 . S
C926 C927 1.363 . S
C926 C931 1.379 . S
C926 N933 1.356 . S
C927 C926 1.363 . S
C927 C930 1.363 . S
N928 C930 1.356 . S
N928 H940 0.984 . S
N928 H941 0.985 . S
N929 C931 1.356 . S
N929 H934 0.984 . S
N929 H935 0.985 . S
C930 C924 1.379 . S
C930 C927 1.363 . S
C930 N928 1.356 . S
C931 C925 1.363 . S
C931 C926 1.379 . S
C931 N929 1.356 . S
N932 C924 1.356 . S
N932 H938 0.984 . S
N932 H939 0.984 . S
N933 C926 1.356 . S
N933 H936 0.984 . S
N933 H937 0.985 . S
H934 N929 0.984 . S
H935 N929 0.985 . S
H936 N933 0.984 . S
H937 N933 0.985 . S
H938 N932 0.984 . S
H939 N932 0.984 . S
H940 N928 0.984 . S
H941 N928 0.985 . S
C942 C943 1.363 . S
C942 C948 1.379 . S
C942 N950 1.356 . S
C943 C942 1.363 . S
C943 C949 1.363 . S
C944 C945 1.363 . S
C944 C949 1.379 . S
C944 N951 1.356 . S
C945 C944 1.363 . S
C945 C948 1.363 . S
N946 C948 1.356 . S
N946 H958 0.984 . S
N946 H959 0.985 . S
N947 C949 1.356 . S
N947 H952 0.984 . S
N947 H953 0.985 . S
C948 C942 1.379 . S
C948 C945 1.363 . S
C948 N946 1.356 . S
C949 C943 1.363 . S
C949 C944 1.379 . S
C949 N947 1.356 . S
N950 C942 1.356 . S
N950 H956 0.984 . S
N950 H957 0.984 . S
N951 C944 1.356 . S
N951 H954 0.984 . S
N951 H955 0.985 . S
H952 N947 0.984 . S
H953 N947 0.985 . S
H954 N951 0.984 . S
H955 N951 0.985 . S
H956 N950 0.984 . S
H957 N950 0.984 . S
H958 N946 0.984 . S
H959 N946 0.985 . S
C960 C961 1.363 . S
C960 C966 1.379 . S
C960 N968 1.356 . S
C961 C960 1.363 . S
C961 C967 1.363 . S
C962 C963 1.363 . S
C962 C967 1.379 . S
C962 N969 1.356 . S
C963 C962 1.363 . S
C963 C966 1.363 . S
N964 C966 1.356 . S
N964 H976 0.984 . S
N964 H977 0.985 . S
N965 C967 1.356 . S
N965 H970 0.984 . S
N965 H971 0.985 . S
C966 C960 1.379 . S
C966 C963 1.363 . S
C966 N964 1.356 . S
C967 C961 1.363 . S
C967 C962 1.379 . S
C967 N965 1.356 . S
N968 C960 1.356 . S
N968 H974 0.984 . S
N968 H975 0.984 . S
N969 C962 1.356 . S
N969 H972 0.984 . S
N969 H973 0.985 . S
H970 N965 0.984 . S
H971 N965 0.985 . S
H972 N969 0.984 . S
H973 N969 0.985 . S
H974 N968 0.984 . S
H975 N968 0.984 . S
H976 N964 0.984 . S
H977 N964 0.985 . S
C978 C979 1.363 . S
C978 C984 1.379 . S
C978 N986 1.356 . S
C979 C978 1.363 . S
C979 C985 1.363 . S
C980 C981 1.363 . S
C980 C985 1.379 . S
C980 N987 1.356 . S
C981 C980 1.363 . S
C981 C984 1.363 . S
N982 C984 1.356 . S
N982 H994 0.984 . S
N982 H995 0.985 . S
N983 C985 1.356 . S
N983 H988 0.984 . S
N983 H989 0.985 . S
C984 C978 1.379 . S
C984 C981 1.363 . S
C984 N982 1.356 . S
C985 C979 1.363 . S
C985 C980 1.379 . S
C985 N983 1.356 . S
N986 C978 1.356 . S
N986 H992 0.984 . S
N986 H993 0.984 . S
N987 C980 1.356 . S
N987 H990 0.984 . S
N987 H991 0.985 . S
H988 N983 0.984 . S
H989 N983 0.985 . S
H990 N987 0.984 . S
H991 N987 0.985 . S
H992 N986 0.984 . S
H993 N986 0.984 . S
H994 N982 0.984 . S
H995 N982 0.985 . S
C996 C997 1.363 . S
C996 C1002 1.379 . S
C996 N1004 1.356 . S
C997 C996 1.363 . S
C997 C1003 1.363 . S
C998 C999 1.363 . S
C998 C1003 1.379 . S
C998 N1005 1.356 . S
C999 C998 1.363 . S
C999 C1002 1.363 . S
N1000 C1002 1.356 . S
N1000 H1012 0.984 . S
N1000 H1013 0.985 . S
N1001 C1003 1.356 . S
N1001 H1006 0.984 . S
N1001 H1007 0.985 . S
C1002 C996 1.379 . S
C1002 C999 1.363 . S
C1002 N1000 1.356 . S
C1003 C997 1.363 . S
C1003 C998 1.379 . S
C1003 N1001 1.356 . S
N1004 C996 1.356 . S
N1004 H1010 0.984 . S
N1004 H1011 0.984 . S
N1005 C998 1.356 . S
N1005 H1008 0.984 . S
N1005 H1009 0.985 . S
H1006 N1001 0.984 . S
H1007 N1001 0.985 . S
H1008 N1005 0.984 . S
H1009 N1005 0.985 . S
H1010 N1004 0.984 . S
H1011 N1004 0.984 . S
H1012 N1000 0.984 . S
H1013 N1000 0.985 . S
C1014 C1015 1.363 . S
C1014 C1020 1.379 . S
C1014 N1022 1.356 . S
C1015 C1014 1.363 . S
C1015 C1021 1.363 . S
C1016 C1017 1.363 . S
C1016 C1021 1.379 . S
C1016 N1023 1.356 . S
C1017 C1016 1.363 . S
C1017 C1020 1.363 . S
N1018 C1020 1.356 . S
N1018 H1030 0.984 . S
N1018 H1031 0.985 . S
N1019 C1021 1.356 . S
N1019 H1024 0.984 . S
N1019 H1025 0.985 . S
C1020 C1014 1.379 . S
C1020 C1017 1.363 . S
C1020 N1018 1.356 . S
C1021 C1015 1.363 . S
C1021 C1016 1.379 . S
C1021 N1019 1.356 . S
N1022 C1014 1.356 . S
N1022 H1028 0.984 . S
N1022 H1029 0.984 . S
N1023 C1016 1.356 . S
N1023 H1026 0.984 . S
N1023 H1027 0.985 . S
H1024 N1019 0.984 . S
H1025 N1019 0.985 . S
H1026 N1023 0.984 . S
H1027 N1023 0.985 . S
H1028 N1022 0.984 . S
H1029 N1022 0.984 . S
H1030 N1018 0.984 . S
H1031 N1018 0.985 . S
C1032 C1033 1.363 . S
C1032 C1038 1.379 . S
C1032 N1040 1.356 . S
C1033 C1032 1.363 . S
C1033 C1039 1.363 . S
C1034 C1035 1.363 . S
C1034 C1039 1.379 . S
C1034 N1041 1.356 . S
C1035 C1034 1.363 . S
C1035 C1038 1.363 . S
N1036 C1038 1.356 . S
N1036 H1048 0.984 . S
N1036 H1049 0.985 . S
N1037 C1039 1.356 . S
N1037 H1042 0.984 . S
N1037 H1043 0.985 . S
C1038 C1032 1.379 . S
C1038 C1035 1.363 . S
C1038 N1036 1.356 . S
C1039 C1033 1.363 . S
C1039 C1034 1.379 . S
C1039 N1037 1.356 . S
N1040 C1032 1.356 . S
N1040 H1046 0.984 . S
N1040 H1047 0.984 . S
N1041 C1034 1.356 . S
N1041 H1044 0.984 . S
N1041 H1045 0.985 . S
H1042 N1037 0.984 . S
H1043 N1037 0.985 . S
H1044 N1041 0.984 . S
H1045 N1041 0.985 . S
H1046 N1040 0.984 . S
H1047 N1040 0.984 . S
H1048 N1036 0.984 . S
H1049 N1036 0.985 . S
C1050 C1051 1.363 . S
C1050 C1056 1.379 . S
C1050 N1058 1.356 . S
C1051 C1050 1.363 . S
C1051 C1057 1.363 . S
C1052 C1053 1.363 . S
C1052 C1057 1.379 . S
C1052 N1059 1.356 . S
C1053 C1052 1.363 . S
C1053 C1056 1.363 . S
N1054 C1056 1.356 . S
N1054 H1066 0.984 . S
N1054 H1067 0.985 . S
N1055 C1057 1.356 . S
N1055 H1060 0.984 . S
N1055 H1061 0.985 . S
C1056 C1050 1.379 . S
C1056 C1053 1.363 . S
C1056 N1054 1.356 . S
C1057 C1051 1.363 . S
C1057 C1052 1.379 . S
C1057 N1055 1.356 . S
N1058 C1050 1.356 . S
N1058 H1064 0.984 . S
N1058 H1065 0.984 . S
N1059 C1052 1.356 . S
N1059 H1062 0.984 . S
N1059 H1063 0.985 . S
H1060 N1055 0.984 . S
H1061 N1055 0.985 . S
H1062 N1059 0.984 . S
H1063 N1059 0.985 . S
H1064 N1058 0.984 . S
H1065 N1058 0.984 . S
H1066 N1054 0.984 . S
H1067 N1054 0.985 . S
C1068 C1069 1.363 . S
C1068 C1074 1.379 . S
C1068 N1076 1.356 . S
C1069 C1068 1.363 . S
C1069 C1075 1.363 . S
C1070 C1071 1.363 . S
C1070 C1075 1.379 . S
C1070 N1077 1.356 . S
C1071 C1070 1.363 . S
C1071 C1074 1.363 . S
N1072 C1074 1.356 . S
N1072 H1084 0.984 . S
N1072 H1085 0.985 . S
N1073 C1075 1.356 . S
N1073 H1078 0.984 . S
N1073 H1079 0.985 . S
C1074 C1068 1.379 . S
C1074 C1071 1.363 . S
C1074 N1072 1.356 . S
C1075 C1069 1.363 . S
C1075 C1070 1.379 . S
C1075 N1073 1.356 . S
N1076 C1068 1.356 . S
N1076 H1082 0.984 . S
N1076 H1083 0.984 . S
N1077 C1070 1.356 . S
N1077 H1080 0.984 . S
N1077 H1081 0.985 . S
H1078 N1073 0.984 . S
H1079 N1073 0.985 . S
H1080 N1077 0.984 . S
H1081 N1077 0.985 . S
H1082 N1076 0.984 . S
H1083 N1076 0.984 . S
H1084 N1072 0.984 . S
H1085 N1072 0.985 . S
C1086 C1087 1.363 . S
C1086 C1092 1.379 . S
C1086 N1094 1.356 . S
C1087 C1086 1.363 . S
C1087 C1093 1.363 . S
C1088 C1089 1.363 . S
C1088 C1093 1.379 . S
C1088 N1095 1.356 . S
C1089 C1088 1.363 . S
C1089 C1092 1.363 . S
N1090 C1092 1.356 . S
N1090 H1102 0.984 . S
N1090 H1103 0.985 . S
N1091 C1093 1.356 . S
N1091 H1096 0.984 . S
N1091 H1097 0.985 . S
C1092 C1086 1.379 . S
C1092 C1089 1.363 . S
C1092 N1090 1.356 . S
C1093 C1087 1.363 . S
C1093 C1088 1.379 . S
C1093 N1091 1.356 . S
N1094 C1086 1.356 . S
N1094 H1100 0.984 . S
N1094 H1101 0.984 . S
N1095 C1088 1.356 . S
N1095 H1098 0.984 . S
N1095 H1099 0.985 . S
H1096 N1091 0.984 . S
H1097 N1091 0.985 . S
H1098 N1095 0.984 . S
H1099 N1095 0.985 . S
H1100 N1094 0.984 . S
H1101 N1094 0.984 . S
H1102 N1090 0.984 . S
H1103 N1090 0.985 . S
C1104 C1105 1.363 1_455 S
C1104 C1110 1.379 . S
C1104 N1112 1.356 . S
C1105 C1104 1.363 1_655 S
C1105 C1111 1.363 . S
C1106 C1107 1.363 1_655 S
C1106 C1111 1.379 . S
C1106 N1113 1.356 . S
C1107 C1106 1.363 1_455 S
C1107 C1110 1.363 . S
N1108 C1110 1.356 . S
N1108 H1120 0.984 . S
N1108 H1121 0.985 . S
N1109 C1111 1.356 . S
N1109 H1114 0.984 . S
N1109 H1115 0.985 . S
C1110 C1104 1.379 . S
C1110 C1107 1.363 . S
C1110 N1108 1.356 . S
C1111 C1105 1.363 . S
C1111 C1106 1.379 . S
C1111 N1109 1.356 . S
N1112 C1104 1.356 . S
N1112 H1118 0.984 . S
N1112 H1119 0.984 . S
N1113 C1106 1.356 . S
N1113 H1116 0.984 . S
N1113 H1117 0.985 . S
H1114 N1109 0.984 . S
H1115 N1109 0.985 . S
H1116 N1113 0.984 . S
H1117 N1113 0.985 . S
H1118 N1112 0.984 . S
H1119 N1112 0.984 . S
H1120 N1108 0.984 . S
H1121 N1108 0.985 . S
C1122 C1123 1.363 . S
C1122 C1128 1.379 . S
C1122 N1130 1.356 . S
C1123 C1122 1.363 . S
C1123 C1129 1.363 1_565 S
C1124 C1125 1.363 . S
C1124 C1129 1.379 . S
C1124 N1131 1.356 . S
C1125 C1124 1.363 . S
C1125 C1128 1.363 1_545 S
N1126 C1128 1.356 . S
N1126 H1138 0.984 . S
N1126 H1139 0.985 . S
N1127 C1129 1.356 . S
N1127 H1132 0.984 . S
N1127 H1133 0.985 . S
C1128 C1122 1.379 . S
C1128 C1125 1.363 1_565 S
C1128 N1126 1.356 . S
C1129 C1123 1.363 1_545 S
C1129 C1124 1.379 . S
C1129 N1127 1.356 . S
N1130 C1122 1.356 . S
N1130 H1136 0.984 . S
N1130 H1137 0.984 . S
N1131 C1124 1.356 . S
N1131 H1134 0.984 . S
N1131 H1135 0.985 . S
H1132 N1127 0.984 . S
H1133 N1127 0.985 . S
H1134 N1131 0.984 . S
H1135 N1131 0.985 . S
H1136 N1130 0.984 . S
H1137 N1130 0.984 . S
H1138 N1126 0.984 . S
H1139 N1126 0.985 . S
C1140 C1141 1.363 . S
C1140 C1146 1.379 1_545 S
C1140 N1148 1.356 . S
C1141 C1140 1.363 . S
C1141 C1147 1.363 . S
C1142 C1143 1.363 . S
C1142 C1147 1.379 1_565 S
C1142 N1149 1.356 . S
C1143 C1142 1.363 . S
C1143 C1146 1.363 . S
N1144 C1146 1.356 . S
N1144 H1156 0.984 . S
N1144 H1157 0.985 . S
N1145 C1147 1.356 . S
N1145 H1150 0.984 . S
N1145 H1151 0.985 . S
C1146 C1140 1.379 1_565 S
C1146 C1143 1.363 . S
C1146 N1144 1.356 . S
C1147 C1141 1.363 . S
C1147 C1142 1.379 1_545 S
C1147 N1145 1.356 . S
N1148 C1140 1.356 . S
N1148 H1154 0.984 . S
N1148 H1155 0.984 . S
N1149 C1142 1.356 . S
N1149 H1152 0.984 . S
N1149 H1153 0.985 . S
H1150 N1145 0.984 . S
H1151 N1145 0.985 . S
H1152 N1149 0.984 . S
H1153 N1149 0.985 . S
H1154 N1148 0.984 . S
H1155 N1148 0.984 . S
H1156 N1144 0.984 . S
H1157 N1144 0.985 . S
C1158 C1159 1.363 . S
C1158 C1164 1.379 1_655 S
C1158 N1166 1.356 . S
C1159 C1158 1.363 . S
C1159 C1165 1.363 . S
C1160 C1161 1.363 . S
C1160 C1165 1.379 1_455 S
C1160 N1167 1.356 . S
C1161 C1160 1.363 . S
C1161 C1164 1.363 . S
N1162 C1164 1.356 . S
N1162 H1174 0.984 . S
N1162 H1175 0.985 . S
N1163 C1165 1.356 . S
N1163 H1168 0.984 . S
N1163 H1169 0.985 . S
C1164 C1158 1.379 1_455 S
C1164 C1161 1.363 . S
C1164 N1162 1.356 . S
C1165 C1159 1.363 . S
C1165 C1160 1.379 1_655 S
C1165 N1163 1.356 . S
N1166 C1158 1.356 . S
N1166 H1172 0.984 . S
N1166 H1173 0.984 . S
N1167 C1160 1.356 . S
N1167 H1170 0.984 . S
N1167 H1171 0.985 . S
H1168 N1163 0.984 . S
H1169 N1163 0.985 . S
H1170 N1167 0.984 . S
H1171 N1167 0.985 . S
H1172 N1166 0.984 . S
H1173 N1166 0.984 . S
H1174 N1162 0.984 . S
H1175 N1162 0.985 . S
C1176 C1177 1.363 1_455 S
C1176 C1182 1.379 . S
C1176 N1184 1.356 . S
C1177 C1176 1.363 1_655 S
C1177 C1183 1.363 . S
C1178 C1179 1.363 1_655 S
C1178 C1183 1.379 . S
C1178 N1185 1.356 . S
C1179 C1178 1.363 1_455 S
C1179 C1182 1.363 . S
N1180 C1182 1.356 . S
N1180 H1192 0.984 . S
N1180 H1193 0.985 . S
N1181 C1183 1.356 . S
N1181 H1186 0.984 . S
N1181 H1187 0.985 . S
C1182 C1176 1.379 . S
C1182 C1179 1.363 . S
C1182 N1180 1.356 . S
C1183 C1177 1.363 . S
C1183 C1178 1.379 . S
C1183 N1181 1.356 . S
N1184 C1176 1.356 . S
N1184 H1190 0.984 . S
N1184 H1191 0.984 . S
N1185 C1178 1.356 . S
N1185 H1188 0.984 . S
N1185 H1189 0.985 . S
H1186 N1181 0.984 . S
H1187 N1181 0.985 . S
H1188 N1185 0.984 . S
H1189 N1185 0.985 . S
H1190 N1184 0.984 . S
H1191 N1184 0.984 . S
H1192 N1180 0.984 . S
H1193 N1180 0.985 . S
C1194 C1195 1.363 1_565 S
C1194 C1200 1.379 . S
C1194 N1202 1.356 . S
C1195 C1194 1.363 1_545 S
C1195 C1201 1.363 . S
C1196 C1197 1.363 1_545 S
C1196 C1201 1.379 . S
C1196 N1203 1.356 . S
C1197 C1196 1.363 1_565 S
C1197 C1200 1.363 . S
N1198 C1200 1.356 . S
N1198 H1210 0.984 . S
N1198 H1211 0.985 . S
N1199 C1201 1.356 . S
N1199 H1204 0.984 . S
N1199 H1205 0.985 . S
C1200 C1194 1.379 . S
C1200 C1197 1.363 . S
C1200 N1198 1.356 . S
C1201 C1195 1.363 . S
C1201 C1196 1.379 . S
C1201 N1199 1.356 . S
N1202 C1194 1.356 . S
N1202 H1208 0.984 . S
N1202 H1209 0.984 . S
N1203 C1196 1.356 . S
N1203 H1206 0.984 . S
N1203 H1207 0.985 . S
H1204 N1199 0.984 . S
H1205 N1199 0.985 . S
H1206 N1203 0.984 . S
H1207 N1203 0.985 . S
H1208 N1202 0.984 . S
H1209 N1202 0.984 . S
H1210 N1198 0.984 . S
H1211 N1198 0.985 . S
C1212 C1213 1.363 . S
C1212 C1218 1.379 1_565 S
C1212 N1220 1.356 . S
C1213 C1212 1.363 . S
C1213 C1219 1.363 . S
C1214 C1215 1.363 . S
C1214 C1219 1.379 1_545 S
C1214 N1221 1.356 . S
C1215 C1214 1.363 . S
C1215 C1218 1.363 . S
N1216 C1218 1.356 . S
N1216 H1228 0.984 . S
N1216 H1229 0.985 . S
N1217 C1219 1.356 . S
N1217 H1222 0.984 . S
N1217 H1223 0.985 . S
C1218 C1212 1.379 1_545 S
C1218 C1215 1.363 . S
C1218 N1216 1.356 . S
C1219 C1213 1.363 . S
C1219 C1214 1.379 1_565 S
C1219 N1217 1.356 . S
N1220 C1212 1.356 . S
N1220 H1226 0.984 . S
N1220 H1227 0.984 . S
N1221 C1214 1.356 . S
N1221 H1224 0.984 . S
N1221 H1225 0.985 . S
H1222 N1217 0.984 . S
H1223 N1217 0.985 . S
H1224 N1221 0.984 . S
H1225 N1221 0.985 . S
H1226 N1220 0.984 . S
H1227 N1220 0.984 . S
H1228 N1216 0.984 . S
H1229 N1216 0.985 . S
C1230 C1231 1.363 . S
C1230 C1236 1.379 1_655 S
C1230 N1238 1.356 . S
C1231 C1230 1.363 . S
C1231 C1237 1.363 . S
C1232 C1233 1.363 . S
C1232 C1237 1.379 1_455 S
C1232 N1239 1.356 . S
C1233 C1232 1.363 . S
C1233 C1236 1.363 . S
N1234 C1236 1.356 . S
N1234 H1246 0.984 . S
N1234 H1247 0.985 . S
N1235 C1237 1.356 . S
N1235 H1240 0.984 . S
N1235 H1241 0.985 . S
C1236 C1230 1.379 1_455 S
C1236 C1233 1.363 . S
C1236 N1234 1.356 . S
C1237 C1231 1.363 . S
C1237 C1232 1.379 1_655 S
C1237 N1235 1.356 . S
N1238 C1230 1.356 . S
N1238 H1244 0.984 . S
N1238 H1245 0.984 . S
N1239 C1232 1.356 . S
N1239 H1242 0.984 . S
N1239 H1243 0.985 . S
H1240 N1235 0.984 . S
H1241 N1235 0.985 . S
H1242 N1239 0.984 . S
H1243 N1239 0.985 . S
H1244 N1238 0.984 . S
H1245 N1238 0.984 . S
H1246 N1234 0.984 . S
H1247 N1234 0.985 . S
C529 C358 1.462 . S
C531 C28 1.462 . S
C547 C391 1.462 . S
C549 C61 1.462 . S
C565 C292 1.462 . S
C567 C94 1.462 . S
C583 C325 1.462 . S
C585 C127 1.462 . S
C601 C160 1.462 . S
C603 C490 1.462 . S
C619 C193 1.462 . S
C621 C523 1.462 . S
C637 C424 1.462 . S
C639 C226 1.462 . S
C655 C457 1.462 . S
C657 C259 1.462 . S
C673 C116 1.584 . S
C675 N5 1.531 . S
C691 N38 1.531 . S
C693 C17 1.584 . S
C709 C50 1.584 . S
C711 N71 1.531 . S
C727 N104 1.531 . S
C729 C83 1.584 . S
C745 C182 1.584 . S
C747 N137 1.531 . S
C763 C215 1.584 . S
C765 N170 1.531 . S
C781 C248 1.584 . S
C783 N203 1.531 . S
C799 N236 1.531 . S
C801 C149 1.584 . S
C817 N269 1.531 . S
C819 C380 1.584 . S
C835 N302 1.531 . S
C837 C281 1.584 . S
C853 C314 1.584 . S
C855 N335 1.531 . S
C871 N368 1.531 . S
C873 C347 1.584 . S
C889 N401 1.531 . S
C891 C446 1.584 . S
C907 N434 1.531 . S
C909 C479 1.584 . S
C925 N467 1.531 . S
C927 C512 1.584 . S
C943 C413 1.584 . S
C945 N500 1.531 . S
C961 C239 1.072 . S
C963 C8 1.072 . S
C979 C41 1.072 . S
C981 C140 1.072 . S
C997 C173 1.072 . S
C999 C74 1.072 . S
C1015 C206 1.072 . S
C1017 C107 1.072 . S
C1033 C272 1.072 . S
C1035 C503 1.072 . S
C1051 C404 1.072 . S
C1053 C305 1.072 . S
C1069 C338 1.072 . S
C1071 C437 1.072 . S
C1087 C470 1.072 . S
C1089 C371 1.072 . S
C1105 N80 1.570 . S
C1107 N14 1.570 . S
C1123 N113 1.570 . S
C1125 N47 1.570 . S
C1141 N146 1.570 . S
C1143 N212 1.570 . S
C1159 N179 1.570 . S
C1161 N245 1.570 . S
C1177 N278 1.570 . S
C1179 N344 1.570 . S
C1195 N377 1.570 . S
C1197 N311 1.570 . S
C1213 N410 1.570 . S
C1215 N476 1.570 . S
C1231 N509 1.570 . S
C1233 N443 1.570 . S
