# Generated by pormake.
# Topology wlb, (5)-cn, num edge types: 1
# Building blocks:
#     Node 0, Type 0, BuildingBlock: XOMCOT_clean_sbu_0, # of connection points: 5
#     Node 1, Type 0, BuildingBlock: XOMCOT_clean_sbu_0, # of connection points: 5
#     Node 2, Type 0, BuildingBlock: XOMCOT_clean_sbu_0, # of connection points: 5
#     Node 3, Type 0, BuildingBlock: XOMCOT_clean_sbu_0, # of connection points: 5
#     Node 4, Type 0, BuildingBlock: XOMCOT_clean_sbu_0, # of connection points: 5
#     Node 5, Type 0, BuildingBlock: XOMCOT_clean_sbu_0, # of connection points: 5
#     Node 6, Type 0, BuildingBlock: XOMCOT_clean_sbu_0, # of connection points: 5
#     Node 7, Type 0, BuildingBlock: XOMCOT_clean_sbu_0, # of connection points: 5
#     Node 8, Type 0, BuildingBlock: XOMCOT_clean_sbu_0, # of connection points: 5
#     Node 9, Type 0, BuildingBlock: XOMCOT_clean_sbu_0, # of connection points: 5
#     Node 10, Type 0, BuildingBlock: XOMCOT_clean_sbu_0, # of connection points: 5
#     Node 11, Type 0, BuildingBlock: XOMCOT_clean_sbu_0, # of connection points: 5
#     Node 12, Type 0, BuildingBlock: XOMCOT_clean_sbu_0, # of connection points: 5
#     Node 13, Type 0, BuildingBlock: XOMCOT_clean_sbu_0, # of connection points: 5
#     Node 14, Type 0, BuildingBlock: XOMCOT_clean_sbu_0, # of connection points: 5
#     Node 15, Type 0, BuildingBlock: XOMCOT_clean_sbu_0, # of connection points: 5
#     Node 16, Type 0, BuildingBlock: XOMCOT_clean_sbu_0, # of connection points: 5
#     Node 17, Type 0, BuildingBlock: XOMCOT_clean_sbu_0, # of connection points: 5
#     Edge 18, Type (0, 0), BuildingBlock: XIVTED_clean_linker_0, # of connection points: 2
#     Edge 19, Type (0, 0), BuildingBlock: XIVTED_clean_linker_0, # of connection points: 2
#     Edge 20, Type (0, 0), BuildingBlock: XIVTED_clean_linker_0, # of connection points: 2
#     Edge 21, Type (0, 0), BuildingBlock: XIVTED_clean_linker_0, # of connection points: 2
#     Edge 22, Type (0, 0), BuildingBlock: XIVTED_clean_linker_0, # of connection points: 2
#     Edge 23, Type (0, 0), BuildingBlock: XIVTED_clean_linker_0, # of connection points: 2
#     Edge 24, Type (0, 0), BuildingBlock: XIVTED_clean_linker_0, # of connection points: 2
#     Edge 25, Type (0, 0), BuildingBlock: XIVTED_clean_linker_0, # of connection points: 2
#     Edge 26, Type (0, 0), BuildingBlock: XIVTED_clean_linker_0, # of connection points: 2
#     Edge 27, Type (0, 0), BuildingBlock: XIVTED_clean_linker_0, # of connection points: 2
#     Edge 28, Type (0, 0), BuildingBlock: XIVTED_clean_linker_0, # of connection points: 2
#     Edge 29, Type (0, 0), BuildingBlock: XIVTED_clean_linker_0, # of connection points: 2
#     Edge 30, Type (0, 0), BuildingBlock: XIVTED_clean_linker_0, # of connection points: 2
#     Edge 31, Type (0, 0), BuildingBlock: XIVTED_clean_linker_0, # of connection points: 2
#     Edge 32, Type (0, 0), BuildingBlock: XIVTED_clean_linker_0, # of connection points: 2
#     Edge 33, Type (0, 0), BuildingBlock: XIVTED_clean_linker_0, # of connection points: 2
#     Edge 34, Type (0, 0), BuildingBlock: XIVTED_clean_linker_0, # of connection points: 2
#     Edge 35, Type (0, 0), BuildingBlock: XIVTED_clean_linker_0, # of connection points: 2
#     Edge 36, Type (0, 0), BuildingBlock: XIVTED_clean_linker_0, # of connection points: 2
#     Edge 37, Type (0, 0), BuildingBlock: XIVTED_clean_linker_0, # of connection points: 2
#     Edge 38, Type (0, 0), BuildingBlock: XIVTED_clean_linker_0, # of connection points: 2
#     Edge 39, Type (0, 0), BuildingBlock: XIVTED_clean_linker_0, # of connection points: 2
#     Edge 40, Type (0, 0), BuildingBlock: XIVTED_clean_linker_0, # of connection points: 2
#     Edge 41, Type (0, 0), BuildingBlock: XIVTED_clean_linker_0, # of connection points: 2
#     Edge 42, Type (0, 0), BuildingBlock: XIVTED_clean_linker_0, # of connection points: 2
#     Edge 43, Type (0, 0), BuildingBlock: XIVTED_clean_linker_0, # of connection points: 2
#     Edge 44, Type (0, 0), BuildingBlock: XIVTED_clean_linker_0, # of connection points: 2
#     Edge 45, Type (0, 0), BuildingBlock: XIVTED_clean_linker_0, # of connection points: 2
#     Edge 46, Type (0, 0), BuildingBlock: XIVTED_clean_linker_0, # of connection points: 2
#     Edge 47, Type (0, 0), BuildingBlock: XIVTED_clean_linker_0, # of connection points: 2
#     Edge 48, Type (0, 0), BuildingBlock: XIVTED_clean_linker_0, # of connection points: 2
#     Edge 49, Type (0, 0), BuildingBlock: XIVTED_clean_linker_0, # of connection points: 2
#     Edge 50, Type (0, 0), BuildingBlock: XIVTED_clean_linker_0, # of connection points: 2
#     Edge 51, Type (0, 0), BuildingBlock: XIVTED_clean_linker_0, # of connection points: 2
#     Edge 52, Type (0, 0), BuildingBlock: XIVTED_clean_linker_0, # of connection points: 2
#     Edge 53, Type (0, 0), BuildingBlock: XIVTED_clean_linker_0, # of connection points: 2
#     Edge 54, Type (0, 0), BuildingBlock: XIVTED_clean_linker_0, # of connection points: 2
#     Edge 55, Type (0, 0), BuildingBlock: XIVTED_clean_linker_0, # of connection points: 2
#     Edge 56, Type (0, 0), BuildingBlock: XIVTED_clean_linker_0, # of connection points: 2
#     Edge 57, Type (0, 0), BuildingBlock: XIVTED_clean_linker_0, # of connection points: 2
#     Edge 58, Type (0, 0), BuildingBlock: XIVTED_clean_linker_0, # of connection points: 2
#     Edge 59, Type (0, 0), BuildingBlock: XIVTED_clean_linker_0, # of connection points: 2
#     Edge 60, Type (0, 0), BuildingBlock: XIVTED_clean_linker_0, # of connection points: 2
#     Edge 61, Type (0, 0), BuildingBlock: XIVTED_clean_linker_0, # of connection points: 2
#     Edge 62, Type (0, 0), BuildingBlock: XIVTED_clean_linker_0, # of connection points: 2
# Relax obj value: 0.326
# Max RMSD: 0.198
# Mean RMSD: 0.198
data_MOF--net-wlb--node1-XOMCOT_clean_sbu_0--edge1-XIVTED_clean_linker_0
_symmetry_space_group_name_H-M    P1
_symmetry_Int_Tables_number       1
_symmetry_cell_setting            triclinic
loop_
_symmetry_equiv_pos_as_xyz
'x, y, z'
_cell_length_a     52.702838
_cell_length_b     52.670539
_cell_length_c     40.094939
_cell_angle_alpha  90.008498
_cell_angle_beta   89.992319
_cell_angle_gamma 120.11875
loop_
_atom_site_label
_atom_site_type_symbol
_atom_site_fract_x
_atom_site_fract_y
_atom_site_fract_z
_atom_type_partial_charge
Co0 Co 0.05452 0.20232 0.23688 0.0
C1 C 0.02005 0.23153 0.21791 0.0
C2 C 0.01006 0.2128 0.26688 0.0
C3 C 0.99226 0.22436 0.26028 0.0
N4 N 0.02723 0.21689 0.2401 0.0
N5 N 0.99847 0.23586 0.22934 0.0
H6 H 0.02994 0.23893 0.19386 0.0
H7 H 0.00982 0.20126 0.28929 0.0
C8 C 0.99483 0.14997 0.23447 0.0
O9 O 0.98867 0.16567 0.21412 0.0
N10 N 0.08171 0.18805 0.23511 0.0
C11 C 0.10814 0.20103 0.22008 0.0
C12 C 0.11976 0.18282 0.2228 0.0
C13 C 0.07754 0.16224 0.24672 0.0
N14 N 0.10037 0.15842 0.23938 0.0
C15 C 0.06008 0.21975 0.168 0.0
C16 C 0.03129 0.16398 0.14109 0.0
C17 C 0.03838 0.18802 0.12028 0.0
C18 C 0.05408 0.21628 0.13389 0.0
C19 C 0.03755 0.16855 0.17517 0.0
N20 N 0.04917 0.196 0.18871 0.0
H21 H 0.07235 0.24172 0.17796 0.0
H22 H 0.03248 0.14982 0.19063 0.0
H23 H 0.11787 0.22184 0.20713 0.0
H24 H 0.05805 0.14633 0.2598 0.0
O25 O 0.08662 0.24218 0.23634 0.0
O26 O 0.06703 0.21625 0.28221 0.0
O27 O 0.02081 0.161 0.24646 0.0
C28 C 0.08608 0.24117 0.26867 0.0
H29 H 0.97534 0.22335 0.27647 0.0
H30 H 0.14021 0.1866 0.21206 0.0
H31 H 0.02019 0.14179 0.13141 0.0
H32 H 0.06139 0.23555 0.11837 0.0
Co33 Co 0.80156 0.84713 0.23872 0.0
C34 C 0.77116 0.78212 0.22511 0.0
C35 C 0.7945 0.79421 0.27148 0.0
C36 C 0.7824 0.76441 0.26719 0.0
N37 N 0.78811 0.80552 0.24468 0.0
N38 N 0.76772 0.75697 0.23807 0.0
H39 H 0.7619 0.78298 0.20157 0.0
H40 H 0.80778 0.80698 0.29235 0.0
C41 C 0.85438 0.84125 0.23875 0.0
O42 O 0.83949 0.81915 0.21829 0.0
N43 N 0.81434 0.8884 0.23375 0.0
C44 C 0.79856 0.89877 0.21868 0.0
C45 C 0.8149 0.92877 0.21754 0.0
C46 C 0.84036 0.9124 0.24143 0.0
N47 N 0.84134 0.93749 0.23152 0.0
C48 C 0.78409 0.83187 0.17027 0.0
C49 C 0.83969 0.8621 0.14309 0.0
C50 C 0.81589 0.84473 0.12221 0.0
C51 C 0.78769 0.8301 0.13604 0.0
C52 C 0.83507 0.86298 0.17725 0.0
N53 N 0.80779 0.84611 0.19086 0.0
H54 H 0.76211 0.82157 0.1802 0.0
H55 H 0.85358 0.87736 0.19262 0.0
H56 H 0.7768 0.88544 0.20846 0.0
H57 H 0.85845 0.91149 0.25294 0.0
O58 O 0.76123 0.83772 0.23775 0.0
O59 O 0.78789 0.84744 0.28366 0.0
O60 O 0.84314 0.85649 0.24914 0.0
C61 C 0.76266 0.84007 0.27 0.0
H62 H 0.78435 0.7494 0.28401 0.0
H63 H 0.80769 0.94298 0.20699 0.0
H64 H 0.86177 0.87457 0.13327 0.0
H65 H 0.76854 0.81767 0.12048 0.0
Co66 Co 0.1497 0.94752 0.23346 0.0
C67 C 0.21245 0.98294 0.2184 0.0
C68 C 0.20006 0.00299 0.25691 0.0
C69 C 0.2291 0.02165 0.2489 0.0
N70 N 0.18969 0.97898 0.23742 0.0
N71 N 0.23671 0.0089 0.22475 0.0
H72 H 0.21079 0.96788 0.19899 0.0
H73 H 0.1872 0.00709 0.27483 0.0
C74 C 0.11605 0.97901 0.2296 0.0
O75 O 0.10148 0.96172 0.20452 0.0
N76 N 0.10926 0.91536 0.23075 0.0
C77 C 0.09866 0.88928 0.21509 0.0
C78 C 0.06889 0.87283 0.22054 0.0
C79 C 0.08599 0.91334 0.24737 0.0
N80 N 0.06093 0.88822 0.24051 0.0
C81 C 0.14755 0.93678 0.16212 0.0
C82 C 0.16398 0.99348 0.14332 0.0
C83 C 0.15879 0.97279 0.11843 0.0
C84 C 0.15057 0.94409 0.12819 0.0
C85 C 0.16073 0.98527 0.17675 0.0
N86 N 0.15139 0.9569 0.18598 0.0
H87 H 0.14347 0.91535 0.16903 0.0
H88 H 0.1664 0.00213 0.19531 0.0
H89 H 0.11145 0.88201 0.2014 0.0
H90 H 0.08727 0.92988 0.26436 0.0
O91 O 0.16349 0.91983 0.23151 0.0
O92 O 0.15189 0.93464 0.27793 0.0
O93 O 0.13579 0.97601 0.24467 0.0
C94 C 0.16153 0.91877 0.26389 0.0
H95 H 0.24336 0.04311 0.25953 0.0
H96 H 0.0542 0.85145 0.20999 0.0
H97 H 0.17069 0.016 0.13713 0.0
H98 H 0.14753 0.92768 0.10987 0.0
Co99 Co 0.20063 0.05125 0.76074 0.0
C100 C 0.22815 0.01527 0.77899 0.0
C101 C 0.21129 0.00715 0.72916 0.0
C102 C 0.22257 0.98904 0.73561 0.0
N103 N 0.21441 0.02334 0.75659 0.0
N104 N 0.23291 0.99409 0.76709 0.0
H105 H 0.23475 0.0244 0.8035 0.0
H106 H 0.20074 0.00787 0.70634 0.0
C107 C 0.14763 0.99186 0.75853 0.0
O108 O 0.16192 0.98373 0.77864 0.0
N109 N 0.18749 0.07938 0.76416 0.0
C110 C 0.20079 0.10421 0.78239 0.0
C111 C 0.18293 0.11623 0.78353 0.0
C112 C 0.16179 0.07671 0.75414 0.0
N113 N 0.15848 0.09893 0.76583 0.0
C114 C 0.21669 0.05526 0.83001 0.0
C115 C 0.16046 0.02542 0.85545 0.0
C116 C 0.18413 0.03329 0.87714 0.0
C117 C 0.21261 0.04932 0.86414 0.0
C118 C 0.16561 0.03181 0.82146 0.0
N119 N 0.19338 0.04427 0.80866 0.0
H120 H 0.23882 0.06769 0.82059 0.0
H121 H 0.14711 0.02671 0.80564 0.0
H122 H 0.22129 0.11212 0.79559 0.0
H123 H 0.14503 0.05804 0.74061 0.0
O124 O 0.24095 0.08269 0.76221 0.0
O125 O 0.21508 0.06482 0.71594 0.0
O126 O 0.15932 0.01874 0.74933 0.0
C127 C 0.2401 0.08299 0.72984 0.0
H128 H 0.22232 0.97282 0.71883 0.0
H129 H 0.18697 0.13548 0.79753 0.0
H130 H 0.13813 0.01456 0.86465 0.0
H131 H 0.23168 0.05654 0.87994 0.0
Co132 Co 0.94915 0.15149 0.76567 0.0
C133 C 0.98744 0.21382 0.7813 0.0
C134 C 0.00288 0.20162 0.73801 0.0
C135 C 0.02213 0.23083 0.74501 0.0
N136 N 0.98135 0.1911 0.76099 0.0
N137 N 0.01243 0.23826 0.77242 0.0
H138 H 0.97406 0.21228 0.80254 0.0
H139 H 0.00476 0.18881 0.71809 0.0
C140 C 0.97907 0.11666 0.77287 0.0
O141 O 0.96114 0.10365 0.79802 0.0
N142 N 0.91606 0.11147 0.76917 0.0
C143 C 0.89045 0.10194 0.78552 0.0
C144 C 0.87393 0.07187 0.78277 0.0
C145 C 0.91342 0.08718 0.75435 0.0
N146 N 0.8886 0.06263 0.76343 0.0
C147 C 0.93839 0.15098 0.83694 0.0
C148 C 0.99417 0.16478 0.85649 0.0
C149 C 0.97331 0.15972 0.88104 0.0
C150 C 0.94526 0.15339 0.87096 0.0
C151 C 0.98649 0.16249 0.82295 0.0
N152 N 0.95836 0.15387 0.81335 0.0
H153 H 0.91739 0.1479 0.82977 0.0
H154 H 0.00346 0.16799 0.80458 0.0
H155 H 0.88373 0.11557 0.79835 0.0
H156 H 0.92998 0.08712 0.7385 0.0
O157 O 0.92249 0.16652 0.76676 0.0
O158 O 0.9364 0.15335 0.72085 0.0
O159 O 0.97682 0.13599 0.75571 0.0
C160 C 0.92119 0.16395 0.73445 0.0
H161 H 0.04219 0.24517 0.7317 0.0
H162 H 0.85303 0.0578 0.79471 0.0
H163 H 0.01652 0.17116 0.8631 0.0
H164 H 0.92877 0.15035 0.88915 0.0
Co165 Co 0.84969 0.80537 0.76337 0.0
C166 C 0.78701 0.77718 0.78005 0.0
C167 C 0.79863 0.80983 0.74189 0.0
C168 C 0.76968 0.79908 0.75051 0.0
N169 N 0.80945 0.7963 0.76076 0.0
N170 N 0.76253 0.77861 0.77447 0.0
H171 H 0.78907 0.76374 0.79909 0.0
H172 H 0.81113 0.82698 0.72396 0.0
C173 C 0.88131 0.87039 0.77002 0.0
O174 O 0.8959 0.86709 0.79462 0.0
N175 N 0.89039 0.81418 0.76475 0.0
C176 C 0.90063 0.79711 0.77692 0.0
C177 C 0.93036 0.81064 0.77144 0.0
C178 C 0.91399 0.83695 0.7501 0.0
N179 N 0.9388 0.83588 0.75484 0.0
C180 C 0.85485 0.79667 0.8337 0.0
C181 C 0.83617 0.83423 0.85607 0.0
C182 C 0.8435 0.81926 0.87946 0.0
C183 C 0.85264 0.80002 0.86794 0.0
C184 C 0.83839 0.82999 0.82213 0.0
N185 N 0.84889 0.81238 0.81115 0.0
H186 H 0.86028 0.78057 0.82552 0.0
H187 H 0.83122 0.84067 0.80461 0.0
H188 H 0.88752 0.77576 0.78814 0.0
H189 H 0.91311 0.85379 0.73561 0.0
O190 O 0.83627 0.76407 0.7653 0.0
O191 O 0.84648 0.78993 0.71859 0.0
O192 O 0.86293 0.84804 0.75308 0.0
C193 C 0.83743 0.76455 0.73294 0.0
H194 H 0.75516 0.80611 0.74039 0.0
H195 H 0.94466 0.80262 0.77949 0.0
H196 H 0.82794 0.84845 0.8639 0.0
H197 H 0.85786 0.78749 0.88523 0.0
Co198 Co 0.71659 0.53667 0.57314 0.0
C199 C 0.68277 0.56711 0.55766 0.0
C200 C 0.66918 0.54275 0.60332 0.0
C201 C 0.65166 0.55483 0.59777 0.0
N202 N 0.6881 0.54967 0.57759 0.0
N203 N 0.66045 0.57016 0.56913 0.0
H204 H 0.69424 0.57715 0.53496 0.0
H205 H 0.6677 0.52911 0.62424 0.0
C206 C 0.65804 0.48316 0.57339 0.0
O207 O 0.65074 0.49741 0.55214 0.0
N208 N 0.74528 0.52432 0.56979 0.0
C209 C 0.77042 0.53841 0.55229 0.0
C210 C 0.78497 0.52299 0.55491 0.0
C211 C 0.74464 0.5003 0.58265 0.0
N212 N 0.7688 0.49906 0.57397 0.0
C213 C 0.71896 0.55267 0.50406 0.0
C214 C 0.69259 0.49647 0.47842 0.0
C215 C 0.69821 0.51979 0.45709 0.0
C216 C 0.71259 0.54832 0.47007 0.0
C217 C 0.69918 0.50188 0.51234 0.0
N218 N 0.70973 0.52942 0.52528 0.0
H219 H 0.73106 0.57487 0.51332 0.0
H220 H 0.69543 0.48374 0.52816 0.0
H221 H 0.77746 0.55829 0.53806 0.0
H222 H 0.72699 0.48414 0.59793 0.0
O223 O 0.7474 0.57715 0.57142 0.0
O224 O 0.73002 0.55148 0.61792 0.0
O225 O 0.68448 0.49501 0.5842 0.0
C226 C 0.74778 0.57656 0.60377 0.0
H227 H 0.63383 0.55247 0.61336 0.0
H228 H 0.80547 0.52852 0.54283 0.0
H229 H 0.68253 0.47415 0.46922 0.0
H230 H 0.71893 0.56715 0.45409 0.0
Co231 Co 0.46727 0.18767 0.56742 0.0
C232 C 0.44154 0.12537 0.5496 0.0
C233 C 0.4683 0.13611 0.59355 0.0
C234 C 0.45759 0.10693 0.58607 0.0
N235 N 0.4583 0.14754 0.57054 0.0
N236 N 0.44093 0.10032 0.55832 0.0
H237 H 0.43028 0.12768 0.52827 0.0
H238 H 0.48272 0.14826 0.61398 0.0
C239 C 0.53266 0.22076 0.56464 0.0
O240 O 0.53053 0.23601 0.53994 0.0
N241 N 0.47609 0.22832 0.56565 0.0
C242 C 0.46085 0.23929 0.55032 0.0
C243 C 0.47445 0.26902 0.55619 0.0
C244 C 0.49756 0.25138 0.58247 0.0
N245 N 0.4978 0.27663 0.57607 0.0
C246 C 0.45851 0.19058 0.49663 0.0
C247 C 0.49927 0.17545 0.47616 0.0
C248 C 0.48317 0.1805 0.45198 0.0
C249 C 0.46235 0.18789 0.46257 0.0
C250 C 0.49454 0.1781 0.50988 0.0
N251 N 0.4753 0.1869 0.5199 0.0
H252 H 0.44106 0.19427 0.50414 0.0
H253 H 0.5058 0.17212 0.52799 0.0
H254 H 0.44075 0.22678 0.53652 0.0
H255 H 0.51278 0.24983 0.59924 0.0
O256 O 0.42588 0.17418 0.56485 0.0
O257 O 0.45143 0.18467 0.6118 0.0
O258 O 0.50952 0.2009 0.57915 0.0
C259 C 0.42617 0.17548 0.59724 0.0
H260 H 0.46241 0.09201 0.59947 0.0
H261 H 0.46798 0.28394 0.54595 0.0
H262 H 0.51464 0.16842 0.46916 0.0
H263 H 0.44887 0.19123 0.44474 0.0
Co264 Co 0.8194 0.287 0.56907 0.0
C265 C 0.88294 0.32194 0.54871 0.0
C266 C 0.87463 0.33269 0.59748 0.0
C267 C 0.904 0.35031 0.59058 0.0
N268 N 0.86126 0.31513 0.57105 0.0
N269 N 0.90909 0.3436 0.5598 0.0
H270 H 0.88024 0.31147 0.525 0.0
H271 H 0.86356 0.33311 0.62002 0.0
C272 C 0.82556 0.34619 0.56823 0.0
O273 O 0.84702 0.35347 0.54685 0.0
N274 N 0.77792 0.25906 0.56851 0.0
C275 C 0.76444 0.23266 0.55337 0.0
C276 C 0.73454 0.22083 0.55635 0.0
C277 C 0.75623 0.26296 0.58048 0.0
N278 N 0.7295 0.24005 0.5732 0.0
C279 C 0.82998 0.28198 0.4994 0.0
C280 C 0.79968 0.30798 0.47456 0.0
C281 C 0.81627 0.30154 0.45231 0.0
C282 C 0.83078 0.28741 0.46518 0.0
C283 C 0.80007 0.30271 0.50866 0.0
N284 N 0.81714 0.29214 0.52104 0.0
H285 H 0.84065 0.27043 0.50861 0.0
H286 H 0.78654 0.30722 0.52502 0.0
H287 H 0.77552 0.22319 0.53999 0.0
H288 H 0.75982 0.28241 0.59362 0.0
O289 O 0.82806 0.2554 0.56841 0.0
O290 O 0.822 0.2753 0.61419 0.0
O291 O 0.8112 0.31994 0.57951 0.0
C292 C 0.82815 0.25648 0.60081 0.0
H293 H 0.92012 0.36725 0.60662 0.0
H294 H 0.71784 0.20042 0.54546 0.0
H295 H 0.78642 0.31702 0.46586 0.0
H296 H 0.84337 0.2812 0.44931 0.0
Co297 Co 0.86722 0.38204 0.09601 0.0
C298 C 0.89523 0.34676 0.11587 0.0
C299 C 0.87627 0.3362 0.06705 0.0
C300 C 0.88785 0.31846 0.07393 0.0
N301 N 0.88049 0.35368 0.09358 0.0
N302 N 0.89953 0.32506 0.10477 0.0
H303 H 0.90316 0.35725 0.13954 0.0
H304 H 0.8649 0.33594 0.04448 0.0
C305 C 0.81348 0.32302 0.09585 0.0
O306 O 0.82748 0.31515 0.11676 0.0
N307 N 0.85417 0.41027 0.09709 0.0
C308 C 0.86727 0.43645 0.11271 0.0
C309 C 0.84935 0.44844 0.11022 0.0
C310 C 0.82864 0.40666 0.0853 0.0
N311 N 0.82502 0.42953 0.0932 0.0
C312 C 0.88266 0.38641 0.16559 0.0
C313 C 0.82622 0.35908 0.19054 0.0
C314 C 0.84945 0.36531 0.21222 0.0
C315 C 0.87808 0.38008 0.19962 0.0
C316 C 0.83183 0.36527 0.15652 0.0
N317 N 0.85957 0.37636 0.144 0.0
H318 H 0.90491 0.3984 0.15644 0.0
H319 H 0.81368 0.36077 0.14035 0.0
H320 H 0.88779 0.44561 0.12615 0.0
H321 H 0.81265 0.38742 0.07192 0.0
O322 O 0.90765 0.41331 0.09732 0.0
O323 O 0.88215 0.39435 0.05106 0.0
O324 O 0.82581 0.34947 0.08507 0.0
C325 C 0.90711 0.41274 0.06493 0.0
H326 H 0.88705 0.30155 0.05788 0.0
H327 H 0.85317 0.4687 0.12161 0.0
H328 H 0.80385 0.34873 0.19959 0.0
H329 H 0.89674 0.38654 0.21591 0.0
Co330 Co 0.61533 0.48183 0.10104 0.0
C331 C 0.65034 0.54431 0.11871 0.0
C332 C 0.67072 0.53313 0.0794 0.0
C333 C 0.68918 0.56198 0.08833 0.0
N334 N 0.64662 0.52209 0.09878 0.0
N335 N 0.67626 0.56886 0.11299 0.0
H336 H 0.63511 0.54208 0.13818 0.0
H337 H 0.67498 0.52085 0.06083 0.0
C338 C 0.64759 0.4488 0.10411 0.0
O339 O 0.63 0.43334 0.1286 0.0
N340 N 0.58341 0.44112 0.10209 0.0
C341 C 0.55702 0.42993 0.11711 0.0
C342 C 0.54107 0.4002 0.11119 0.0
C343 C 0.5821 0.41819 0.08533 0.0
N344 N 0.55709 0.39279 0.09155 0.0
C345 C 0.60273 0.47785 0.17175 0.0
C346 C 0.6585 0.49276 0.19264 0.0
C347 C 0.63697 0.48683 0.21666 0.0
C348 C 0.60886 0.47968 0.20589 0.0
C349 C 0.65153 0.49098 0.15889 0.0
N350 N 0.62353 0.48215 0.14863 0.0
H351 H 0.58163 0.47422 0.16411 0.0
H352 H 0.669 0.49742 0.14098 0.0
H353 H 0.54923 0.44229 0.13082 0.0
H354 H 0.59909 0.41993 0.06879 0.0
O355 O 0.58732 0.49514 0.10323 0.0
O356 O 0.60322 0.48522 0.05651 0.0
O357 O 0.64444 0.46871 0.08967 0.0
C358 C 0.58683 0.49412 0.07081 0.0
H359 H 0.71061 0.57664 0.07788 0.0
H360 H 0.51962 0.38514 0.12129 0.0
H361 H 0.68086 0.49969 0.19984 0.0
H362 H 0.59179 0.4758 0.22366 0.0
Co363 Co 0.51318 0.13216 0.09477 0.0
C364 C 0.44852 0.10227 0.10967 0.0
C365 C 0.46 0.1253 0.06309 0.0
C366 C 0.43033 0.11351 0.06804 0.0
N367 N 0.47161 0.11893 0.08963 0.0
N368 N 0.42329 0.09903 0.09728 0.0
H369 H 0.44965 0.09308 0.13315 0.0
H370 H 0.4725 0.13839 0.04198 0.0
C371 C 0.50774 0.18534 0.09461 0.0
O372 O 0.48587 0.17076 0.11542 0.0
N373 N 0.55433 0.14481 0.09877 0.0
C374 C 0.56526 0.1308 0.11657 0.0
C375 C 0.59527 0.14611 0.11397 0.0
C376 C 0.57786 0.1687 0.08576 0.0
N377 N 0.60322 0.1699 0.09463 0.0
C378 C 0.49876 0.11551 0.16367 0.0
C379 C 0.52908 0.17147 0.18994 0.0
C380 C 0.51156 0.14798 0.21119 0.0
C381 C 0.497 0.11957 0.19782 0.0
C382 C 0.52998 0.16636 0.15589 0.0
N383 N 0.51294 0.13893 0.14269 0.0
H384 H 0.48839 0.09339 0.15409 0.0
H385 H 0.54438 0.18464 0.14022 0.0
H386 H 0.55228 0.11096 0.13083 0.0
H387 H 0.5765 0.1847 0.0701 0.0
O388 O 0.50365 0.09169 0.09596 0.0
O389 O 0.51261 0.11799 0.04987 0.0
O390 O 0.5227 0.17383 0.08409 0.0
C391 C 0.50524 0.09277 0.06363 0.0
H392 H 0.41516 0.11554 0.05159 0.0
H393 H 0.61019 0.14053 0.12609 0.0
H394 H 0.54155 0.1937 0.19935 0.0
H395 H 0.48451 0.10062 0.21365 0.0
Co396 Co 0.38192 0.86573 0.90157 0.0
C397 C 0.34627 0.89334 0.88144 0.0
C398 C 0.33567 0.87437 0.93026 0.0
C399 C 0.31767 0.88562 0.92312 0.0
N400 N 0.35335 0.87881 0.9039 0.0
N401 N 0.32429 0.89732 0.89228 0.0
H402 H 0.35674 0.90121 0.85775 0.0
H403 H 0.33539 0.86302 0.95286 0.0
C404 C 0.32318 0.81237 0.90042 0.0
O405 O 0.31637 0.8266 0.87863 0.0
N406 N 0.41057 0.8532 0.9003 0.0
C407 C 0.43652 0.8674 0.88437 0.0
C408 C 0.45072 0.85174 0.88824 0.0
C409 C 0.40911 0.82889 0.91346 0.0
N410 N 0.43352 0.82756 0.9065 0.0
C411 C 0.38724 0.88196 0.83228 0.0
C412 C 0.36166 0.82589 0.80651 0.0
C413 C 0.36839 0.84929 0.78468 0.0
C414 C 0.38227 0.87778 0.79801 0.0
C415 C 0.36656 0.83111 0.84072 0.0
N416 N 0.37685 0.85863 0.85353 0.0
H417 H 0.39856 0.90411 0.84183 0.0
H418 H 0.362 0.81288 0.85681 0.0
H419 H 0.44437 0.88751 0.87036 0.0
H420 H 0.3907 0.81259 0.92775 0.0
O421 O 0.41294 0.90627 0.90087 0.0
O422 O 0.39381 0.88022 0.94676 0.0
O423 O 0.34939 0.82416 0.91191 0.0
C424 C 0.41225 0.90535 0.93323 0.0
H425 H 0.30054 0.88451 0.93901 0.0
H426 H 0.47175 0.85729 0.87756 0.0
H427 H 0.35272 0.80368 0.79735 0.0
H428 H 0.38863 0.89682 0.78244 0.0
Co429 Co 0.13457 0.51609 0.90169 0.0
C430 C 0.10948 0.45376 0.88494 0.0
C431 C 0.13674 0.4651 0.92852 0.0
C432 C 0.12625 0.43588 0.92122 0.0
N433 N 0.12631 0.47617 0.90557 0.0
N434 N 0.10936 0.42897 0.89364 0.0
H435 H 0.09795 0.45574 0.86366 0.0
H436 H 0.15136 0.47753 0.94869 0.0
C437 C 0.19931 0.54999 0.89475 0.0
O438 O 0.19454 0.56351 0.87007 0.0
N439 N 0.1424 0.55643 0.89922 0.0
C440 C 0.12591 0.56643 0.88491 0.0
C441 C 0.13917 0.59627 0.88984 0.0
C442 C 0.16426 0.58016 0.91473 0.0
N443 N 0.16355 0.60494 0.90825 0.0
C444 C 0.12617 0.51944 0.83043 0.0
C445 C 0.16527 0.50182 0.81083 0.0
C446 C 0.15041 0.50815 0.78626 0.0
C447 C 0.13049 0.51692 0.79641 0.0
C448 C 0.16031 0.50459 0.84436 0.0
N449 N 0.14187 0.5145 0.85403 0.0
H450 H 0.10935 0.52417 0.83758 0.0
H451 H 0.17117 0.49833 0.8627 0.0
H452 H 0.10519 0.55315 0.87248 0.0
H453 H 0.18043 0.57942 0.93063 0.0
O454 O 0.09301 0.50171 0.89985 0.0
O455 O 0.11922 0.51352 0.94638 0.0
O456 O 0.17761 0.53074 0.91194 0.0
C457 C 0.09366 0.50356 0.9322 0.0
H458 H 0.13142 0.42114 0.93449 0.0
H459 H 0.13168 0.6105 0.87998 0.0
H460 H 0.18068 0.49472 0.8043 0.0
H461 H 0.11763 0.52089 0.77828 0.0
Co462 Co 0.48599 0.61671 0.90455 0.0
C463 C 0.55067 0.65233 0.88942 0.0
C464 C 0.53899 0.66406 0.93571 0.0
C465 C 0.56861 0.68233 0.93064 0.0
N466 N 0.5275 0.64572 0.90941 0.0
N467 N 0.57579 0.67478 0.90156 0.0
H468 H 0.5497 0.64177 0.86616 0.0
H469 H 0.52644 0.66464 0.95675 0.0
C470 C 0.48997 0.6748 0.90481 0.0
O471 O 0.51219 0.68302 0.88429 0.0
N472 N 0.44493 0.58766 0.90085 0.0
C473 C 0.43379 0.5634 0.88169 0.0
C474 C 0.40374 0.5505 0.88132 0.0
C475 C 0.42156 0.58908 0.91224 0.0
N476 N 0.39613 0.56668 0.90046 0.0
C477 C 0.50062 0.61522 0.83552 0.0
C478 C 0.46914 0.6397 0.80975 0.0
C479 C 0.48745 0.63497 0.78852 0.0
C480 C 0.50262 0.62171 0.80152 0.0
C481 C 0.46829 0.63339 0.84369 0.0
N482 N 0.48589 0.62363 0.85667 0.0
H483 H 0.5113 0.60375 0.84487 0.0
H484 H 0.45351 0.63655 0.85946 0.0
H485 H 0.44671 0.55648 0.8675 0.0
H486 H 0.42311 0.60705 0.92691 0.0
O487 O 0.49594 0.58614 0.90333 0.0
O488 O 0.48688 0.60347 0.9494 0.0
O489 O 0.47578 0.64826 0.9153 0.0
C490 C 0.49437 0.58575 0.93569 0.0
H491 H 0.58365 0.69987 0.94689 0.0
H492 H 0.38869 0.53141 0.86695 0.0
H493 H 0.45619 0.6489 0.8004 0.0
H494 H 0.51582 0.61632 0.78552 0.0
Co495 Co 0.53851 0.72196 0.43467 0.0
C496 C 0.56848 0.68764 0.45017 0.0
C497 C 0.54344 0.6737 0.40502 0.0
C498 C 0.55524 0.65593 0.41057 0.0
N499 N 0.55094 0.693 0.43046 0.0
N500 N 0.57101 0.66495 0.43888 0.0
H501 H 0.57898 0.69937 0.47259 0.0
H502 H 0.52959 0.67215 0.38429 0.0
C503 C 0.4844 0.66395 0.43481 0.0
O504 O 0.49825 0.65625 0.45618 0.0
N505 N 0.5266 0.75095 0.43757 0.0
C506 C 0.54037 0.77609 0.45514 0.0
C507 C 0.52522 0.79085 0.45134 0.0
C508 C 0.50316 0.75054 0.42345 0.0
N509 N 0.50186 0.77477 0.43147 0.0
C510 C 0.55428 0.72404 0.50385 0.0
C511 C 0.49825 0.69969 0.52939 0.0
C512 C 0.52122 0.70467 0.55104 0.0
C513 C 0.54974 0.71794 0.5379 0.0
C514 C 0.50381 0.70575 0.4954 0.0
N515 N 0.5312 0.71539 0.48256 0.0
H516 H 0.57649 0.73554 0.49462 0.0
H517 H 0.48594 0.70258 0.47946 0.0
H518 H 0.55985 0.78301 0.47005 0.0
H519 H 0.48749 0.73302 0.40764 0.0
O520 O 0.57908 0.7525 0.43621 0.0
O521 O 0.55313 0.73498 0.38986 0.0
O522 O 0.49676 0.69032 0.42376 0.0
C523 C 0.57825 0.75276 0.40385 0.0
H524 H 0.55237 0.63777 0.39522 0.0
H525 H 0.53053 0.81144 0.46307 0.0
H526 H 0.47612 0.6913 0.53853 0.0
H527 H 0.5685 0.72313 0.55347 0.0
Co528 Co 0.28727 0.8206 0.42921 0.0
C529 C 0.32331 0.8847 0.44718 0.0
C530 C 0.33221 0.87516 0.3981 0.0
C531 C 0.34989 0.90479 0.40383 0.0
N532 N 0.31571 0.86241 0.42544 0.0
N533 N 0.34433 0.91063 0.43482 0.0
H534 H 0.31386 0.88265 0.47141 0.0
H535 H 0.33178 0.86355 0.37566 0.0
C536 C 0.34592 0.82621 0.42905 0.0
O537 O 0.35353 0.84821 0.44973 0.0
N538 N 0.25876 0.77932 0.43183 0.0
C539 C 0.23329 0.76765 0.44875 0.0
C540 C 0.2189 0.73769 0.4451 0.0
C541 C 0.25975 0.75634 0.4183 0.0
N542 N 0.23551 0.7306 0.426 0.0
C543 C 0.28399 0.83337 0.49856 0.0
C544 C 0.30945 0.80264 0.52384 0.0
C545 C 0.30362 0.81994 0.54545 0.0
C546 C 0.28992 0.83477 0.53268 0.0
C547 C 0.30373 0.80244 0.48981 0.0
N548 N 0.29344 0.8197 0.47715 0.0
H549 H 0.27252 0.84408 0.48921 0.0
H550 H 0.30773 0.78838 0.47373 0.0
H551 H 0.22586 0.78006 0.46311 0.0
H552 H 0.27763 0.75836 0.40308 0.0
O553 O 0.25615 0.82986 0.43001 0.0
O554 O 0.27462 0.82186 0.3842 0.0
O555 O 0.31943 0.8114 0.41859 0.0
C556 C 0.25633 0.82869 0.39762 0.0
H557 H 0.36605 0.92063 0.38685 0.0
H558 H 0.19811 0.72222 0.45634 0.0
H559 H 0.31903 0.78996 0.53299 0.0
H560 H 0.28384 0.84728 0.54892 0.0
Co561 Co 0.18654 0.46846 0.42828 0.0
C562 C 0.12281 0.44097 0.44574 0.0
C563 C 0.13218 0.45812 0.39604 0.0
C564 C 0.10265 0.44656 0.40193 0.0
N565 N 0.14493 0.45499 0.42372 0.0
N566 N 0.09694 0.43601 0.43333 0.0
H567 H 0.12503 0.43415 0.47024 0.0
H568 H 0.14375 0.46872 0.37335 0.0
C569 C 0.18122 0.52186 0.42477 0.0
O570 O 0.1585 0.50788 0.44463 0.0
N571 N 0.2277 0.48134 0.43189 0.0
C572 C 0.23919 0.46783 0.44961 0.0
C573 C 0.2692 0.48385 0.44699 0.0
C574 C 0.2508 0.50555 0.41888 0.0
N575 N 0.27648 0.50755 0.42773 0.0
C576 C 0.17411 0.45318 0.4975 0.0
C577 C 0.20152 0.50961 0.52251 0.0
C578 C 0.18567 0.48608 0.5444 0.0
C579 C 0.17259 0.4575 0.53157 0.0
C580 C 0.20245 0.50421 0.48852 0.0
N581 N 0.18677 0.47636 0.47597 0.0
H582 H 0.16409 0.43094 0.48833 0.0
H583 H 0.21602 0.52256 0.47254 0.0
H584 H 0.22663 0.44797 0.46398 0.0
H585 H 0.24893 0.52134 0.40337 0.0
O586 O 0.17715 0.4281 0.43088 0.0
O587 O 0.18556 0.45309 0.38389 0.0
O588 O 0.19609 0.50979 0.41601 0.0
C589 C 0.17845 0.42831 0.39856 0.0
H590 H 0.08683 0.44664 0.38479 0.0
H591 H 0.28454 0.47892 0.45921 0.0
H592 H 0.21336 0.53199 0.53159 0.0
H593 H 0.1606 0.43853 0.54751 0.0
H594 H 0.90111 0.31981 0.17191 0.0
H595 H 0.9921 0.23613 0.16218 0.0
H596 H 0.92798 0.29837 0.07944 0.0
H597 H 0.97059 0.26318 0.25451 0.0
H598 H 0.96734 0.25733 0.13151 0.0
H599 H 0.92489 0.29758 0.20257 0.0
C600 C 0.91222 0.31062 0.15802 0.0
C601 C 0.91285 0.31125 0.12301 0.0
C602 C 0.96806 0.25869 0.15848 0.0
C603 C 0.93978 0.28532 0.15804 0.0
C604 C 0.98242 0.24678 0.17604 0.0
C605 C 0.98371 0.24816 0.21103 0.0
C606 C 0.95482 0.27205 0.17596 0.0
C607 C 0.97 0.2615 0.22761 0.0
C608 C 0.92564 0.29774 0.17557 0.0
C609 C 0.92686 0.29825 0.10638 0.0
N610 N 0.95618 0.27301 0.20991 0.0
N611 N 0.93988 0.28589 0.12406 0.0
H612 H 0.64775 0.59569 0.13697 0.0
H613 H 0.78562 0.71704 0.23792 0.0
H614 H 0.73285 0.60302 0.1317 0.0
H615 H 0.71751 0.7326 0.20214 0.0
H616 H 0.76259 0.67009 0.20789 0.0
H617 H 0.66932 0.64146 0.1694 0.0
C618 C 0.67094 0.60696 0.14274 0.0
C619 C 0.68864 0.59581 0.13156 0.0
C620 C 0.75266 0.68377 0.20675 0.0
C621 C 0.71325 0.64757 0.16883 0.0
C622 C 0.76562 0.71035 0.22405 0.0
C623 C 0.7534 0.7286 0.22238 0.0
C624 C 0.72702 0.6752 0.1882 0.0
C625 C 0.72767 0.71917 0.20375 0.0
C626 C 0.68322 0.63302 0.16106 0.0
C627 C 0.7186 0.61118 0.13952 0.0
N628 N 0.71521 0.69301 0.18747 0.0
N629 N 0.72995 0.6362 0.1579 0.0
H630 H 0.38388 0.11757 0.09859 0.0
H631 H 0.26407 0.98064 0.2019 0.0
H632 H 0.39929 0.04913 0.13367 0.0
H633 H 0.27083 0.06558 0.20615 0.0
H634 H 0.30961 0.00212 0.16924 0.0
H635 H 0.33762 0.0952 0.12991 0.0
C636 C 0.37729 0.09764 0.11259 0.0
C637 C 0.39528 0.0851 0.11367 0.0
C638 C 0.30115 0.01604 0.17745 0.0
C639 C 0.34273 0.05953 0.14935 0.0
C640 C 0.27523 0.00381 0.19592 0.0
C641 C 0.26393 0.02147 0.20678 0.0
C642 C 0.31544 0.04597 0.16924 0.0
C643 C 0.27912 0.05138 0.19856 0.0
C644 C 0.35112 0.08507 0.13064 0.0
C645 C 0.38604 0.0595 0.13249 0.0
N646 N 0.30403 0.06269 0.18001 0.0
N647 N 0.36029 0.04743 0.14951 0.0
H648 H 0.2314 0.98577 0.83403 0.0
H649 H 0.32003 0.8996 0.82496 0.0
H650 H 0.26166 0.96757 0.74192 0.0
H651 H 0.29588 0.92425 0.91719 0.0
H652 H 0.29704 0.92253 0.79406 0.0
H653 H 0.25306 0.96147 0.86469 0.0
C654 C 0.24282 0.97688 0.82021 0.0
C655 C 0.24502 0.97906 0.78529 0.0
C656 C 0.29678 0.92296 0.82105 0.0
C657 C 0.26952 0.95068 0.82038 0.0
C658 C 0.3101 0.91003 0.83877 0.0
C659 C 0.31019 0.91026 0.87381 0.0
C660 C 0.28334 0.93619 0.83842 0.0
C661 C 0.29622 0.92342 0.89025 0.0
C662 C 0.25502 0.9628 0.83778 0.0
C663 C 0.25935 0.96632 0.76876 0.0
N664 N 0.28344 0.93593 0.87241 0.0
N665 N 0.27115 0.95275 0.78647 0.0
H666 H 0.10092 0.42122 0.82691 0.0
H667 H 0.01188 0.2463 0.83907 0.0
H668 H 0.08696 0.37429 0.91945 0.0
H669 H 0.04584 0.29278 0.74643 0.0
H670 H 0.0359 0.29306 0.86891 0.0
H671 H 0.07748 0.37448 0.79691 0.0
C672 C 0.09272 0.40104 0.84093 0.0
C673 C 0.09571 0.40158 0.87576 0.0
C674 C 0.03814 0.29306 0.84206 0.0
C675 C 0.06902 0.34805 0.84158 0.0
C676 C 0.02424 0.2664 0.82499 0.0
C677 C 0.02673 0.26571 0.79018 0.0
C678 C 0.05443 0.31931 0.8242 0.0
C679 C 0.04351 0.29237 0.77326 0.0
C680 C 0.07957 0.37439 0.82377 0.0
C681 C 0.08522 0.37482 0.89261 0.0
N682 N 0.05659 0.31813 0.79041 0.0
N683 N 0.07218 0.34911 0.87538 0.0
H684 H 0.60037 0.64936 0.8654 0.0
H685 H 0.72783 0.8003 0.7933 0.0
H686 H 0.61456 0.73307 0.89962 0.0
H687 H 0.7359 0.72289 0.7977 0.0
H688 H 0.68246 0.77474 0.82593 0.0
H689 H 0.64677 0.67472 0.83441 0.0
C690 C 0.61336 0.67308 0.86641 0.0
C691 C 0.60379 0.68922 0.88507 0.0
C692 C 0.69419 0.76338 0.81976 0.0
C693 C 0.65638 0.71827 0.8495 0.0
C694 C 0.71987 0.77783 0.80093 0.0
C695 C 0.73547 0.76358 0.79279 0.0
C696 C 0.68379 0.7343 0.82996 0.0
C697 C 0.72451 0.73461 0.80367 0.0
C698 C 0.63979 0.68749 0.84889 0.0
C699 C 0.62139 0.71988 0.88579 0.0
N700 N 0.69917 0.7208 0.82151 0.0
N701 N 0.64673 0.73347 0.86795 0.0
H702 H 0.60261 0.55053 0.56174 0.0
H703 H 0.62384 0.69279 0.46893 0.0
H704 H 0.68852 0.62227 0.5374 0.0
H705 H 0.55023 0.60706 0.44811 0.0
H706 H 0.64626 0.66986 0.50187 0.0
H707 H 0.58067 0.57381 0.52846 0.0
C708 C 0.61675 0.57138 0.54972 0.0
C709 C 0.6473 0.58465 0.55219 0.0
C710 C 0.62529 0.65609 0.48989 0.0
C711 C 0.62264 0.61119 0.51441 0.0
C712 C 0.61257 0.66912 0.47123 0.0
C713 C 0.58535 0.65166 0.4558 0.0
C714 C 0.61027 0.6255 0.49376 0.0
C715 C 0.57144 0.62111 0.45938 0.0
C716 C 0.60432 0.58444 0.53054 0.0
C717 C 0.66485 0.61142 0.53585 0.0
N718 N 0.58391 0.60893 0.47836 0.0
N719 N 0.65226 0.62397 0.51776 0.0
H720 H 0.36851 0.96509 0.40752 0.0
H721 H 0.42063 0.04598 0.58431 0.0
H722 H 0.35303 0.91965 0.50144 0.0
H723 H 0.42906 0.09169 0.49201 0.0
H724 H 0.39737 0.99954 0.55389 0.0
H725 H 0.39248 0.01191 0.43752 0.0
C726 C 0.37023 0.96496 0.43441 0.0
C727 C 0.35858 0.9384 0.45199 0.0
C728 C 0.40424 0.01972 0.54027 0.0
C729 C 0.38585 0.9918 0.4865 0.0
C730 C 0.41766 0.04625 0.55763 0.0
C731 C 0.42674 0.07276 0.54073 0.0
C732 C 0.4 0.01965 0.50567 0.0
C733 C 0.42202 0.07176 0.50615 0.0
C734 C 0.38377 0.99167 0.45155 0.0
C735 C 0.36121 0.93953 0.48689 0.0
N736 N 0.40904 0.04565 0.48975 0.0
N737 N 0.37458 0.96575 0.50295 0.0
H738 H 0.04209 0.40694 0.40679 0.0
H739 H 0.96411 0.37147 0.58569 0.0
H740 H 0.0888 0.4362 0.50012 0.0
H741 H 0.91661 0.34765 0.49254 0.0
H742 H 0.01011 0.395 0.55456 0.0
H743 H 0.99574 0.38481 0.43754 0.0
C744 C 0.04262 0.40881 0.43369 0.0
C745 C 0.0694 0.42322 0.45087 0.0
C746 C 0.98961 0.38461 0.54093 0.0
C747 C 0.01654 0.39781 0.48625 0.0
C748 C 0.96333 0.37127 0.55872 0.0
C749 C 0.93642 0.35742 0.54177 0.0
C750 C 0.98902 0.38412 0.50589 0.0
C751 C 0.93679 0.35756 0.50672 0.0
C752 C 0.01617 0.39608 0.45125 0.0
C753 C 0.06876 0.42478 0.48582 0.0
N754 N 0.96266 0.37068 0.48995 0.0
N755 N 0.04279 0.4122 0.50231 0.0
H756 H 0.15788 0.37332 0.4239 0.0
H757 H 0.12519 0.2956 0.24521 0.0
H758 H 0.17818 0.42056 0.33072 0.0
H759 H 0.08815 0.24837 0.33685 0.0
H760 H 0.15117 0.34117 0.27685 0.0
H761 H 0.13875 0.32736 0.393 0.0
C762 C 0.15861 0.37409 0.3969 0.0
C763 C 0.16956 0.40087 0.37984 0.0
C764 C 0.13754 0.32084 0.2901 0.0
C765 C 0.14758 0.34817 0.34432 0.0
C766 C 0.12275 0.29474 0.27208 0.0
C767 C 0.10431 0.26809 0.2884 0.0
C768 C 0.13403 0.32042 0.32481 0.0
C769 C 0.10208 0.2684 0.32325 0.0
C770 C 0.14757 0.34778 0.3793 0.0
C771 C 0.1699 0.40044 0.34487 0.0
N772 N 0.11666 0.29419 0.3403 0.0
N773 N 0.15896 0.37449 0.32826 0.0
H774 H 0.63372 0.78806 0.42749 0.0
H775 H 0.70776 0.82265 0.24668 0.0
H776 H 0.58462 0.75754 0.33579 0.0
H777 H 0.75676 0.83942 0.3382 0.0
H778 H 0.66287 0.80522 0.27905 0.0
H779 H 0.67906 0.8133 0.39524 0.0
C780 C 0.63243 0.78691 0.40052 0.0
C781 C 0.60532 0.77052 0.38429 0.0
C782 C 0.68344 0.81288 0.2921 0.0
C783 C 0.65726 0.79933 0.34722 0.0
C784 C 0.70914 0.82293 0.27364 0.0
C785 C 0.73607 0.83235 0.28978 0.0
C786 C 0.68456 0.81225 0.32703 0.0
C787 C 0.73647 0.83227 0.32476 0.0
C788 C 0.65837 0.80127 0.38214 0.0
C789 C 0.60503 0.76985 0.34932 0.0
N790 N 0.71106 0.82221 0.34223 0.0
N791 N 0.63063 0.78392 0.33195 0.0
H792 H 0.15939 0.91153 0.3317 0.0
H793 H 0.25289 0.82984 0.32946 0.0
H794 H 0.18657 0.88741 0.24132 0.0
H795 H 0.21941 0.84754 0.41936 0.0
H796 H 0.22669 0.84857 0.29655 0.0
H797 H 0.17923 0.88611 0.36414 0.0
C798 C 0.16934 0.9007 0.31866 0.0
C799 C 0.17144 0.9017 0.28376 0.0
C800 C 0.22487 0.84813 0.32347 0.0
C801 C 0.19438 0.8727 0.32073 0.0
C802 C 0.23979 0.83739 0.34227 0.0
C803 C 0.23843 0.83723 0.37721 0.0
C804 C 0.20859 0.85896 0.33974 0.0
C805 C 0.22114 0.84732 0.39247 0.0
C806 C 0.18068 0.88619 0.33719 0.0
C807 C 0.18453 0.88725 0.26819 0.0
N808 N 0.20709 0.85795 0.37367 0.0
N809 N 0.19567 0.87353 0.28678 0.0
H810 H 0.37048 0.15222 0.57282 0.0
H811 H 0.29529 0.1202 0.7532 0.0
H812 H 0.41917 0.17569 0.6651 0.0
H813 H 0.24664 0.08629 0.66172 0.0
H814 H 0.34061 0.14565 0.72094 0.0
H815 H 0.32493 0.13286 0.60458 0.0
C816 C 0.37163 0.15349 0.59979 0.0
C817 C 0.39871 0.16549 0.61634 0.0
C818 C 0.32002 0.13282 0.70787 0.0
C819 C 0.34651 0.14328 0.6529 0.0
C820 C 0.29408 0.11835 0.72627 0.0
C821 C 0.26709 0.10097 0.71014 0.0
C822 C 0.31908 0.12998 0.67301 0.0
C823 C 0.26693 0.09941 0.67519 0.0
C824 C 0.34557 0.14237 0.61791 0.0
C825 C 0.3988 0.16656 0.65131 0.0
N826 N 0.29254 0.1136 0.65781 0.0
N827 N 0.3731 0.1555 0.66843 0.0
H828 H 0.83103 0.25426 0.66895 0.0
H829 H 0.91403 0.16182 0.66644 0.0
H830 H 0.84724 0.2197 0.57897 0.0
H831 H 0.89014 0.18936 0.75671 0.0
H832 H 0.88834 0.18145 0.63394 0.0
H833 H 0.85102 0.22909 0.70162 0.0
C834 C 0.83853 0.24115 0.65608 0.0
C835 C 0.83751 0.23914 0.62116 0.0
C836 C 0.88856 0.18303 0.66088 0.0
C837 C 0.86075 0.21048 0.6584 0.0
C838 C 0.90323 0.17182 0.67944 0.0
C839 C 0.90432 0.17403 0.71434 0.0
C840 C 0.87501 0.19669 0.67733 0.0
C841 C 0.88993 0.18721 0.72985 0.0
C842 C 0.85 0.22681 0.67474 0.0
C843 C 0.8476 0.22187 0.60583 0.0
N844 N 0.87604 0.19817 0.71126 0.0
N845 N 0.85897 0.20839 0.62451 0.0
H846 H 0.81578 0.70939 0.75796 0.0
H847 H 0.78393 0.63155 0.57934 0.0
H848 H 0.83657 0.75686 0.6649 0.0
H849 H 0.75112 0.58421 0.6718 0.0
H850 H 0.80851 0.67751 0.61054 0.0
H851 H 0.7971 0.66359 0.72704 0.0
C852 C 0.81658 0.71023 0.73096 0.0
C853 C 0.82766 0.73705 0.71397 0.0
C854 C 0.79612 0.65709 0.62406 0.0
C855 C 0.8062 0.68444 0.67835 0.0
C856 C 0.78215 0.63077 0.60628 0.0
C857 C 0.76532 0.60394 0.623 0.0
C858 C 0.79336 0.65669 0.65888 0.0
C859 C 0.76382 0.60435 0.6579 0.0
C860 C 0.80584 0.68399 0.71333 0.0
C861 C 0.82816 0.7367 0.679 0.0
N862 N 0.77754 0.63033 0.67468 0.0
N863 N 0.81749 0.71078 0.66233 0.0
H864 H 0.96247 0.44945 0.08835 0.0
H865 H 0.03786 0.47968 0.90813 0.0
H866 H 0.91404 0.41501 0.99686 0.0
H867 H 0.0868 0.50398 0.00024 0.0
H868 H 0.9924 0.46038 0.93994 0.0
H869 H 0.00799 0.47407 0.05624 0.0
C870 C 0.96135 0.44729 0.06145 0.0
C871 C 0.93435 0.43005 0.04528 0.0
C872 C 0.01305 0.47003 0.95324 0.0
C873 C 0.98656 0.45814 0.00832 0.0
C874 C 0.03909 0.48113 0.93509 0.0
C875 C 0.06624 0.49341 0.95154 0.0
C876 C 0.01404 0.47121 0.98823 0.0
C877 C 0.06638 0.49466 0.98652 0.0
C878 C 0.98741 0.46129 0.04314 0.0
C879 C 0.93432 0.42805 0.01038 0.0
N880 N 0.04068 0.48363 0.00369 0.0
N881 N 0.96002 0.44182 0.99309 0.0
H882 H 0.51329 0.54923 0.91293 0.0
H883 H 0.55389 0.51699 0.09449 0.0
H884 H 0.49644 0.58215 0.00385 0.0
H885 H 0.58047 0.49395 0.0029 0.0
H886 H 0.52788 0.53609 0.06203 0.0
H887 H 0.53279 0.52387 0.94583 0.0
C888 C 0.51342 0.5509 0.93987 0.0
C889 C 0.50334 0.56796 0.95567 0.0
C890 C 0.53927 0.52673 0.04901 0.0
C891 C 0.52585 0.53907 0.99352 0.0
C892 C 0.5541 0.51576 0.06753 0.0
C893 C 0.56951 0.50398 0.05136 0.0
C894 C 0.53977 0.52588 0.01403 0.0
C895 C 0.56898 0.50294 0.01639 0.0
C896 C 0.52466 0.53647 0.95863 0.0
C897 C 0.50403 0.56929 0.99063 0.0
N898 N 0.55444 0.51385 0.9989 0.0
N899 N 0.51526 0.55516 0.00838 0.0
H900 H 0.50496 0.08692 0.99547 0.0
H901 H 0.41571 0.9113 0.00143 0.0
H902 H 0.48447 0.03704 0.08676 0.0
H903 H 0.44844 0.961 0.9104 0.0
H904 H 0.44171 0.95708 0.03326 0.0
H905 H 0.48544 0.04111 0.96375 0.0
C906 C 0.49665 0.06639 0.00884 0.0
C907 C 0.49629 0.06583 0.04381 0.0
C908 C 0.44341 0.95794 0.00633 0.0
C909 C 0.47359 0.01326 0.00773 0.0
C910 C 0.42858 0.93179 0.98816 0.0
C911 C 0.42983 0.93231 0.95321 0.0
C912 C 0.45941 0.98485 0.98941 0.0
C913 C 0.44681 0.95953 0.93732 0.0
C914 C 0.48546 0.04022 0.99073 0.0
C915 C 0.48517 0.03855 0.05982 0.0
N916 N 0.46072 0.98468 0.95549 0.0
N917 N 0.47407 0.01339 0.04169 0.0
H918 H 0.01424 0.2157 0.08644 0.0
H919 H 0.00383 0.13726 0.91227 0.0
H920 H 0.04005 0.15042 0.07391 0.0
H921 H 0.96156 0.18792 0.93103 0.0
H922 H 0.01945 0.14364 0.97059 0.0
H923 H 0.99738 0.208 0.02861 0.0
C924 C 0.01657 0.19989 0.07141 0.0
C925 C 0.02871 0.18377 0.08495 0.0
C926 C 0.00663 0.15324 0.96202 0.0
C927 C 0.00919 0.17465 0.01879 0.0
C928 C 0.99782 0.14971 0.92872 0.0
C929 C 0.98142 0.16213 0.9168 0.0
C930 C 0.99927 0.16958 0.98354 0.0
C931 C 0.97395 0.17777 0.93926 0.0
C932 C 0.00671 0.19533 0.03849 0.0
C933 C 0.03068 0.16319 0.06452 0.0
N934 N 0.9831 0.18121 0.9715 0.0
N935 N 0.02114 0.15931 0.0324 0.0
H936 H 0.8187 0.77637 0.92704 0.0
H937 H 0.85093 0.88793 0.07791 0.0
H938 H 0.86092 0.8702 0.91395 0.0
H939 H 0.79123 0.7946 0.08495 0.0
H940 H 0.85861 0.88191 0.01886 0.0
H941 H 0.81245 0.78267 0.98634 0.0
C942 C 0.82686 0.79832 0.93673 0.0
C943 C 0.84036 0.82281 0.9156 0.0
C944 C 0.84378 0.86277 0.03333 0.0
C945 C 0.8331 0.83018 0.98329 0.0
C946 C 0.83951 0.86618 0.06702 0.0
C947 C 0.82038 0.84172 0.08628 0.0
C948 C 0.82906 0.83468 0.01892 0.0
C949 C 0.80591 0.81407 0.07088 0.0
C950 C 0.82309 0.80189 0.9705 0.0
C951 C 0.85016 0.85073 0.92936 0.0
N952 N 0.81064 0.81128 0.03814 0.0
N953 N 0.84641 0.85367 0.96237 0.0
H954 H 0.14179 0.98114 0.90388 0.0
H955 H 0.20213 0.0238 0.09068 0.0
H956 H 0.21533 0.06509 0.93193 0.0
H957 H 0.12508 0.9418 0.06465 0.0
H958 H 0.20759 0.03881 0.03241 0.0
H959 H 0.13526 0.96614 0.96237 0.0
C960 C 0.15641 0.99655 0.92235 0.0
C961 C 0.17918 0.02445 0.91287 0.0
C962 C 0.18946 0.01753 0.03938 0.0
C963 C 0.17209 0.00717 0.97993 0.0
C964 C 0.18623 0.00898 0.07274 0.0
C965 C 0.16294 0.98156 0.0827 0.0
C966 C 0.16932 0.99855 0.0156 0.0
C967 C 0.14347 0.96304 0.0581 0.0
C968 C 0.15278 0.98786 0.95574 0.0
C969 C 0.19774 0.04324 0.93791 0.0
N970 N 0.14705 0.9719 0.02571 0.0
N971 N 0.1938 0.03424 0.97022 0.0
H972 H 0.66877 0.46656 0.24955 0.0
H973 H 0.67188 0.54448 0.42173 0.0
H974 H 0.62258 0.51383 0.26543 0.0
H975 H 0.70278 0.48291 0.41205 0.0
H976 H 0.65588 0.53543 0.36362 0.0
H977 H 0.6833 0.47384 0.3083 0.0
C978 C 0.66165 0.47843 0.26545 0.0
C979 C 0.64447 0.48964 0.25262 0.0
C980 C 0.66611 0.52384 0.37419 0.0
C981 C 0.66104 0.49811 0.31978 0.0
C982 C 0.67546 0.52918 0.40727 0.0
C983 C 0.68879 0.51452 0.42169 0.0
C984 C 0.6703 0.50385 0.3552 0.0
C985 C 0.69242 0.49454 0.40198 0.0
C986 C 0.66984 0.48248 0.29898 0.0
C987 C 0.63559 0.50458 0.27437 0.0
N988 N 0.68335 0.48989 0.36967 0.0
N989 N 0.64414 0.50855 0.30683 0.0
H990 H 0.4407 0.15227 0.40449 0.0
H991 H 0.55411 0.18449 0.25548 0.0
H992 H 0.53462 0.19949 0.41786 0.0
H993 H 0.46121 0.12318 0.24812 0.0
H994 H 0.54736 0.19327 0.31393 0.0
H995 H 0.44772 0.14468 0.34582 0.0
C996 C 0.46281 0.16126 0.39499 0.0
C997 C 0.48712 0.17657 0.41607 0.0
C998 C 0.52847 0.17784 0.29953 0.0
C999 C 0.49532 0.16775 0.34901 0.0
C1000 C 0.53229 0.17293 0.26615 0.0
C1001 C 0.50818 0.15303 0.24693 0.0
C1002 C 0.5003 0.16297 0.31371 0.0
C1003 C 0.48045 0.13843 0.26213 0.0
C1004 C 0.4668 0.15673 0.36157 0.0
C1005 C 0.51527 0.18734 0.40253 0.0
N1006 N 0.47725 0.14377 0.29456 0.0
N1007 N 0.5186 0.18279 0.36985 0.0
H1008 H 0.8691 0.33346 0.24539 0.0
H1009 H 0.81517 0.34885 0.42438 0.0
H1010 H 0.81713 0.37499 0.25889 0.0
H1011 H 0.82365 0.27395 0.39739 0.0
H1012 H 0.82146 0.36344 0.36588 0.0
H1013 H 0.85934 0.31675 0.3035 0.0
C1014 C 0.85576 0.33918 0.26072 0.0
C1015 C 0.84394 0.35567 0.24749 0.0
C1016 C 0.82179 0.34375 0.37289 0.0
C1017 C 0.83289 0.33683 0.31381 0.0
C1018 C 0.81798 0.33518 0.40633 0.0
C1019 C 0.81885 0.30999 0.4163 0.0
C1020 C 0.82715 0.32746 0.34917 0.0
C1021 C 0.82342 0.29385 0.39141 0.0
C1022 C 0.85005 0.32948 0.29371 0.0
C1023 C 0.82655 0.36224 0.26822 0.0
N1024 N 0.82767 0.30301 0.35913 0.0
N1025 N 0.82176 0.35303 0.30052 0.0
H1026 H 0.39739 0.88482 0.73073 0.0
H1027 H 0.2916 0.77652 0.59092 0.0
H1028 H 0.32097 0.80169 0.75571 0.0
H1029 H 0.33629 0.87063 0.58004 0.0
H1030 H 0.30819 0.78282 0.64922 0.0
H1031 H 0.38134 0.87738 0.67271 0.0
C1032 C 0.37722 0.86504 0.72425 0.0
C1033 C 0.36041 0.84402 0.74859 0.0
C1034 C 0.31426 0.80204 0.63402 0.0
C1035 C 0.34248 0.83511 0.68173 0.0
C1036 C 0.30489 0.79846 0.60088 0.0
C1037 C 0.31249 0.82311 0.58089 0.0
C1038 C 0.33189 0.83044 0.64688 0.0
C1039 C 0.32973 0.8511 0.59484 0.0
C1040 C 0.3682 0.8608 0.691 0.0
C1041 C 0.33496 0.8184 0.73803 0.0
N1042 N 0.33906 0.85403 0.62693 0.0
N1043 N 0.3268 0.81466 0.70542 0.0
H1044 H 0.17671 0.52864 0.57193 0.0
H1045 H 0.15662 0.46458 0.75705 0.0
H1046 H 0.18697 0.45488 0.59859 0.0
H1047 H 0.15493 0.54373 0.73372 0.0
H1048 H 0.16666 0.46031 0.69866 0.0
H1049 H 0.16842 0.53465 0.6307 0.0
C1050 C 0.17753 0.51389 0.59015 0.0
C1051 C 0.18243 0.49113 0.58022 0.0
C1052 C 0.16415 0.47866 0.70625 0.0
C1053 C 0.17246 0.49759 0.64748 0.0
C1054 C 0.15853 0.48119 0.73967 0.0
C1055 C 0.15518 0.50471 0.75041 0.0
C1056 C 0.16636 0.49973 0.68319 0.0
C1057 C 0.15716 0.52513 0.72652 0.0
C1058 C 0.17257 0.51721 0.62367 0.0
C1059 C 0.18279 0.47242 0.60493 0.0
N1060 N 0.16269 0.52221 0.69403 0.0
N1061 N 0.17778 0.47602 0.63733 0.0
H1062 H 0.44493 0.6238 0.74205 0.0
H1063 H 0.55664 0.73152 0.60566 0.0
H1064 H 0.53876 0.66822 0.75531 0.0
H1065 H 0.47263 0.65732 0.57853 0.0
H1066 H 0.54811 0.7142 0.66321 0.0
H1067 H 0.45241 0.64146 0.68415 0.0
C1068 C 0.46707 0.63726 0.73271 0.0
C1069 C 0.49129 0.64449 0.75328 0.0
C1070 C 0.53158 0.7018 0.64457 0.0
C1071 C 0.49994 0.66505 0.68769 0.0
C1072 C 0.53645 0.71156 0.61159 0.0
C1073 C 0.51548 0.69577 0.58682 0.0
C1074 C 0.50535 0.67635 0.65311 0.0
C1075 C 0.48934 0.67053 0.59662 0.0
C1076 C 0.4713 0.64723 0.69978 0.0
C1077 C 0.51953 0.66194 0.74007 0.0
N1078 N 0.485 0.66164 0.62898 0.0
N1079 N 0.5231 0.67183 0.70817 0.0
H1080 H 0.0678 0.98372 0.21697 0.0
H1081 H 0.14927 0.15497 0.25019 0.0
H1082 H 0.15431 0.03066 0.26041 0.0
H1083 H 0.05537 0.10225 0.23934 0.0
H1084 H 0.15205 0.10997 0.25367 0.0
H1085 H 0.06282 0.02701 0.22487 0.0
C1086 C 0.08564 0.00308 0.22846 0.0
C1087 C 0.11156 0.00373 0.23788 0.0
C1088 C 0.13081 0.10828 0.25094 0.0
C1089 C 0.1062 0.0534 0.24659 0.0
C1090 C 0.12926 0.13391 0.24876 0.0
C1091 C 0.10209 0.13229 0.24433 0.0
C1092 C 0.10505 0.08088 0.24811 0.0
C1093 C 0.07674 0.10448 0.24299 0.0
C1094 C 0.08276 0.02774 0.23305 0.0
C1095 C 0.13393 0.02927 0.25286 0.0
N1096 N 0.07887 0.07987 0.24446 0.0
N1097 N 0.1309 0.05329 0.25634 0.0
H1098 H 0.93764 0.12336 0.2165 0.0
H1099 H 0.8886 0.96043 0.27394 0.0
H1100 H 0.00067 0.10491 0.26267 0.0
H1101 H 0.84994 0.9834 0.1929 0.0
H1102 H 0.92741 0.01243 0.27792 0.0
H1103 H 0.90163 0.07152 0.21767 0.0
C1104 C 0.94395 0.10842 0.22709 0.0
C1105 C 0.97244 0.1186 0.23913 0.0
C1106 C 0.91032 0.00584 0.25934 0.0
C1107 C 0.93086 0.05859 0.24043 0.0
C1108 C 0.88822 0.9762 0.25696 0.0
C1109 C 0.86545 0.96741 0.23348 0.0
C1110 C 0.90934 0.02667 0.23832 0.0
C1111 C 0.86624 0.98894 0.21214 0.0
C1112 C 0.9233 0.07868 0.22763 0.0
C1113 C 0.97899 0.09799 0.253 0.0
N1114 N 0.88755 0.01738 0.21528 0.0
N1115 N 0.95833 0.06881 0.25315 0.0
H1116 H 0.90097 0.89458 0.25854 0.0
H1117 H 0.01311 0.83399 0.24675 0.0
H1118 H 0.87629 0.80454 0.23885 0.0
H1119 H 0.04125 0.92619 0.25288 0.0
H1120 H 0.96242 0.82242 0.25358 0.0
H1121 H 0.95207 0.90623 0.26616 0.0
C1122 C 0.90623 0.87724 0.25633 0.0
C1123 C 0.88452 0.84866 0.24764 0.0
C1124 C 0.97968 0.84521 0.25375 0.0
C1125 C 0.94252 0.86168 0.25628 0.0
C1126 C 0.00864 0.85179 0.24976 0.0
C1127 C 0.03146 0.88107 0.24887 0.0
C1128 C 0.97335 0.86806 0.25664 0.0
C1129 C 0.02439 0.90328 0.25356 0.0
C1130 C 0.93534 0.88388 0.26053 0.0
C1131 C 0.89244 0.82698 0.24501 0.0
N1132 N 0.99592 0.89633 0.25686 0.0
N1133 N 0.92074 0.83396 0.24912 0.0
H1134 H 0.01557 0.12976 0.71827 0.0
H1135 H 0.13427 0.1113 0.81775 0.0
H1136 H 1.00029 0.09335 0.81762 0.0
H1137 H 0.12315 0.09091 0.71284 0.0
H1138 H 0.08955 0.11448 0.81721 0.0
H1139 H 0.05927 0.12417 0.71431 0.0
C1140 C 0.02126 0.12045 0.73907 0.0
C1141 C 0.00426 0.11197 0.76829 0.0
C1142 C 0.09689 0.10933 0.79427 0.0
C1143 C 0.0541 0.10622 0.76416 0.0
C1144 C 0.12243 0.10772 0.79454 0.0
C1145 C 0.13228 0.10092 0.76528 0.0
C1146 C 0.08135 0.10471 0.76438 0.0
C1147 C 0.11602 0.09609 0.73587 0.0
C1148 C 0.04604 0.11722 0.73674 0.0
C1149 C 0.01259 0.10006 0.79454 0.0
N1150 N 0.09136 0.09836 0.73602 0.0
N1151 N 0.03708 0.09791 0.792 0.0
H1152 H 0.8997 0.03789 0.71004 0.0
H1153 H 0.89534 0.91171 0.81779 0.0
H1154 H 0.8662 0.02044 0.81058 0.0
H1155 H 0.86893 0.89339 0.71462 0.0
H1156 H 0.89417 0.95729 0.81377 0.0
H1157 H 0.89634 0.98945 0.70893 0.0
C1158 C 0.89127 0.02369 0.73162 0.0
C1159 C 0.88309 0.03305 0.76039 0.0
C1160 C 0.88871 0.94333 0.79198 0.0
C1161 C 0.87999 0.97851 0.75959 0.0
C1162 C 0.88963 0.91745 0.79412 0.0
C1163 C 0.88233 0.8988 0.76642 0.0
C1164 C 0.88105 0.95106 0.76176 0.0
C1165 C 0.87471 0.90723 0.73652 0.0
C1166 C 0.88933 0.99619 0.73094 0.0
C1167 C 0.87238 0.01395 0.78778 0.0
N1168 N 0.87452 0.933 0.73483 0.0
N1169 N 0.87161 0.98782 0.7869 0.0
H1170 H 0.10211 1.00087 0.74098 0.0
H1171 H 0.98543 0.82839 0.74391 0.0
H1172 H 0.12371 0.93282 0.75629 0.0
H1173 H 0.96024 0.89464 0.74809 0.0
H1174 H 0.03652 0.86691 0.73795 0.0
H1175 H 0.0504 0.96275 0.73326 0.0
C1176 C 0.09605 0.97796 0.74218 0.0
C1177 C 0.11711 0.96995 0.7496 0.0
C1178 C 0.01982 0.87307 0.7399 0.0
C1179 C 0.05835 0.92646 0.74082 0.0
C1180 C 0.99061 0.85103 0.74341 0.0
C1181 C 0.96848 0.85823 0.74698 0.0
C1182 C 0.02715 0.90266 0.74008 0.0
C1183 C 0.97652 0.88803 0.74535 0.0
C1184 C 0.06658 0.95625 0.73795 0.0
C1185 C 0.10812 0.93998 0.75104 0.0
N1186 N 0.00524 0.90918 0.74237 0.0
N1187 N 0.07948 0.91941 0.74685 0.0
H1188 H 0.86069 0.40521 0.56814 0.0
H1189 H 0.7309 0.4406 0.58323 0.0
H1190 H 0.77142 0.33746 0.58723 0.0
H1191 H 0.82282 0.50599 0.58139 0.0
H1192 H 0.74427 0.40225 0.5885 0.0
H1193 H 0.84658 0.44219 0.57624 0.0
C1194 C 0.83808 0.39814 0.57429 0.0
C1195 C 0.81716 0.36826 0.57679 0.0
C1196 C 0.76146 0.42503 0.58733 0.0
C1197 C 0.8006 0.41062 0.58575 0.0
C1198 C 0.75384 0.44691 0.58447 0.0
C1199 C 0.77581 0.47649 0.58132 0.0
C1200 C 0.79121 0.43292 0.58702 0.0
C1201 C 0.80519 0.48345 0.58293 0.0
C1202 C 0.83 0.41929 0.579 0.0
C1203 C 0.78822 0.36033 0.58513 0.0
N1204 N 0.81199 0.46187 0.58536 0.0
N1205 N 0.78066 0.38142 0.58888 0.0
H1206 H 0.66498 0.43674 0.59311 0.0
H1207 H 0.49173 0.32443 0.58371 0.0
H1208 H 0.59942 0.46119 0.57468 0.0
H1209 H 0.5556 0.29614 0.58761 0.0
H1210 H 0.53114 0.37509 0.5906 0.0
H1211 H 0.62546 0.38556 0.60117 0.0
C1212 C 0.64232 0.43142 0.59132 0.0
C1213 C 0.63539 0.45307 0.58283 0.0
C1214 C 0.53658 0.35781 0.59026 0.0
C1215 C 0.59036 0.395 0.59196 0.0
C1216 C 0.51403 0.32887 0.58625 0.0
C1217 C 0.52035 0.30602 0.58468 0.0
C1218 C 0.5658 0.36413 0.59248 0.0
C1219 C 0.54968 0.31304 0.58879 0.0
C1220 C 0.61982 0.40226 0.59575 0.0
C1221 C 0.60574 0.44508 0.58069 0.0
N1222 N 0.57138 0.34151 0.59211 0.0
N1223 N 0.5844 0.41675 0.58503 0.0
H1224 H 0.71863 0.28518 0.57436 0.0
H1225 H 0.54509 0.18153 0.59467 0.0
H1226 H 0.67666 0.19099 0.58282 0.0
H1227 H 0.58618 0.26886 0.55316 0.0
H1228 H 0.59376 0.18686 0.60209 0.0
H1229 H 0.67068 0.28153 0.57836 0.0
C1230 C 0.69936 0.26375 0.57758 0.0
C1231 C 0.70161 0.2383 0.57814 0.0
C1232 C 0.59206 0.20491 0.59165 0.0
C1233 C 0.64663 0.23398 0.58247 0.0
C1234 C 0.56437 0.20197 0.58761 0.0
C1235 C 0.56167 0.22473 0.57305 0.0
C1236 C 0.61713 0.23093 0.58147 0.0
C1237 C 0.5873 0.25068 0.56416 0.0
C1238 C 0.67198 0.26167 0.5796 0.0
C1239 C 0.67582 0.21108 0.58187 0.0
N1240 N 0.61396 0.25305 0.56845 0.0
N1241 N 0.64934 0.2096 0.58383 0.0
H1242 H 0.76889 0.38444 0.0922 0.0
H1243 H 0.69936 0.48821 0.07427 0.0
H1244 H 0.82141 0.47869 0.08467 0.0
H1245 H 0.65295 0.40071 0.11536 0.0
H1246 H 0.74263 0.48292 0.06641 0.0
H1247 H 0.7246 0.38814 0.08899 0.0
C1248 C 0.77111 0.4059 0.08934 0.0
C1249 C 0.79888 0.43135 0.08879 0.0
C1250 C 0.72286 0.46483 0.07687 0.0
C1251 C 0.74826 0.43572 0.08538 0.0
C1252 C 0.69814 0.46774 0.08116 0.0
C1253 C 0.67266 0.44491 0.0957 0.0
C1254 C 0.72186 0.43877 0.08678 0.0
C1255 C 0.67229 0.41894 0.10438 0.0
C1256 C 0.74582 0.408 0.08778 0.0
C1257 C 0.80041 0.45861 0.08557 0.0
N1258 N 0.69655 0.41659 0.09984 0.0
N1259 N 0.77542 0.46011 0.08404 0.0
H1260 H 0.47039 0.20629 0.09115 0.0
H1261 H 0.59594 0.37404 0.07989 0.0
H1262 H 0.56151 0.23268 0.07735 0.0
H1263 H 0.50339 0.34429 0.08466 0.0
H1264 H 0.58427 0.32313 0.07307 0.0
H1265 H 0.48233 0.25683 0.08308 0.0
C1266 C 0.49298 0.2228 0.08613 0.0
C1267 C 0.51506 0.21538 0.08527 0.0
C1268 C 0.56652 0.32779 0.07517 0.0
C1269 C 0.52907 0.27368 0.07637 0.0
C1270 C 0.57315 0.3569 0.07886 0.0
C1271 C 0.55057 0.36347 0.08317 0.0
C1272 C 0.53712 0.30508 0.07586 0.0
C1273 C 0.52149 0.34025 0.08205 0.0
C1274 C 0.4998 0.25171 0.08147 0.0
C1275 C 0.54386 0.23756 0.07824 0.0
N1276 N 0.51564 0.31216 0.07879 0.0
N1277 N 0.55015 0.26588 0.07453 0.0
H1278 H 0.76882 0.33315 0.07736 0.0
H1279 H 0.64931 0.1617 0.08568 0.0
H1280 H 0.78781 0.26379 0.09653 0.0
H1281 H 0.62502 0.2286 0.08557 0.0
H1282 H 0.70054 0.19949 0.07946 0.0
H1283 H 0.71661 0.29593 0.07072 0.0
C1284 C 0.76209 0.31013 0.07964 0.0
C1285 C 0.7826 0.30151 0.08774 0.0
C1286 C 0.68409 0.20604 0.0806 0.0
C1287 C 0.72327 0.25906 0.08017 0.0
C1288 C 0.65481 0.18442 0.08424 0.0
C1289 C 0.63293 0.19204 0.08672 0.0
C1290 C 0.69183 0.23573 0.07962 0.0
C1291 C 0.64125 0.22182 0.08382 0.0
C1292 C 0.73233 0.28895 0.07603 0.0
C1293 C 0.77272 0.27144 0.09064 0.0
N1294 N 0.67015 0.24269 0.08082 0.0
N1295 N 0.74386 0.25141 0.08696 0.0
H1296 H 0.39493 0.76897 0.91325 0.0
H1297 H 0.52509 0.73352 0.90964 0.0
H1298 H 0.48683 0.83404 0.91837 0.0
H1299 H 0.43466 0.66526 0.91936 0.0
H1300 H 0.51059 0.77024 0.91718 0.0
H1301 H 0.40771 0.7303 0.92004 0.0
C1302 C 0.41771 0.77512 0.91635 0.0
C1303 C 0.43992 0.80472 0.91471 0.0
C1304 C 0.4938 0.74729 0.91803 0.0
C1305 C 0.45467 0.76082 0.9222 0.0
C1306 C 0.50211 0.72629 0.91366 0.0
C1307 C 0.48101 0.69637 0.91363 0.0
C1308 C 0.464 0.73846 0.92182 0.0
C1309 C 0.45159 0.68818 0.91927 0.0
C1310 C 0.425 0.75307 0.92008 0.0
C1311 C 0.46908 0.81149 0.91871 0.0
N1312 N 0.44383 0.70918 0.92266 0.0
N1313 N 0.47558 0.78977 0.92197 0.0
H1314 H 0.32999 0.76666 0.92326 0.0
H1315 H 0.15704 0.65274 0.91359 0.0
H1316 H 0.26437 0.78955 0.89812 0.0
H1317 H 0.22171 0.62552 0.91901 0.0
H1318 H 0.19619 0.70374 0.91834 0.0
H1319 H 0.29063 0.71554 0.93199 0.0
C1320 C 0.30734 0.76102 0.92006 0.0
C1321 C 0.3004 0.78224 0.90961 0.0
C1322 C 0.20183 0.6866 0.91878 0.0
C1323 C 0.25553 0.72421 0.91957 0.0
C1324 C 0.17944 0.65745 0.91598 0.0
C1325 C 0.18602 0.63474 0.91548 0.0
C1326 C 0.23116 0.69328 0.92099 0.0
C1327 C 0.21552 0.64223 0.91941 0.0
C1328 C 0.28494 0.73189 0.92488 0.0
C1329 C 0.27074 0.77381 0.90571 0.0
N1330 N 0.23703 0.67087 0.92165 0.0
N1331 N 0.24948 0.74552 0.91055 0.0
H1332 H 0.24321 0.57307 0.84921 0.0
H1333 H 0.37002 0.57444 0.95483 0.0
H1334 H 0.22313 0.53591 0.94828 0.0
H1335 H 0.35751 0.55281 0.85023 0.0
H1336 H 0.32121 0.5704 0.95638 0.0
H1337 H 0.29113 0.57707 0.85277 0.0
C1338 C 0.24896 0.56603 0.87195 0.0
C1339 C 0.22905 0.55406 0.89851 0.0
C1340 C 0.32922 0.56637 0.93325 0.0
C1341 C 0.28419 0.55881 0.90264 0.0
C1342 C 0.35695 0.5688 0.93232 0.0
C1343 C 0.36755 0.56375 0.9024 0.0
C1344 C 0.31267 0.55977 0.90382 0.0
C1345 C 0.34994 0.5565 0.87384 0.0
C1346 C 0.27629 0.56817 0.8738 0.0
C1347 C 0.23782 0.54516 0.92721 0.0
N1348 N 0.32354 0.55506 0.87516 0.0
N1349 N 0.26494 0.54783 0.92864 0.0
H1350 H 0.33716 0.7718 0.41122 0.0
H1351 H 0.50923 0.82874 0.42184 0.0
H1352 H 0.4048 0.8616 0.42808 0.0
H1353 H 0.44376 0.7368 0.42091 0.0
H1354 H 0.47084 0.84097 0.4136 0.0
H1355 H 0.37544 0.7584 0.40457 0.0
C1356 C 0.36003 0.78872 0.41296 0.0
C1357 C 0.36791 0.81777 0.42057 0.0
C1358 C 0.46476 0.81807 0.41497 0.0
C1359 C 0.41149 0.80274 0.41302 0.0
C1360 C 0.48671 0.81111 0.41978 0.0
C1361 C 0.47961 0.78176 0.42262 0.0
C1362 C 0.43532 0.79553 0.41325 0.0
C1363 C 0.45012 0.75972 0.41891 0.0
C1364 C 0.38181 0.78107 0.40933 0.0
C1365 C 0.39777 0.83886 0.4227 0.0
N1366 N 0.42893 0.76706 0.41484 0.0
N1367 N 0.41839 0.83091 0.41912 0.0
H1368 H 0.23689 0.56741 0.41046 0.0
H1369 H 0.18188 0.68423 0.41394 0.0
H1370 H 0.14677 0.54613 0.41963 0.0
H1371 H 0.27344 0.71009 0.4183 0.0
H1372 H 0.16945 0.63344 0.40612 0.0
H1373 H 0.25148 0.61952 0.40378 0.0
C1374 C 0.22017 0.57364 0.41045 0.0
C1375 C 0.19062 0.55255 0.41591 0.0
C1376 C 0.19232 0.65014 0.40856 0.0
C1377 C 0.20702 0.61169 0.40838 0.0
C1378 C 0.19939 0.67915 0.41311 0.0
C1379 C 0.22866 0.70129 0.41731 0.0
C1380 C 0.21465 0.64296 0.40849 0.0
C1381 C 0.25058 0.6936 0.41522 0.0
C1382 C 0.2285 0.60332 0.40684 0.0
C1383 C 0.16984 0.56172 0.4159 0.0
N1384 N 0.24311 0.66495 0.41139 0.0
N1385 N 0.17844 0.59052 0.41239 0.0
H1386 H 0.46234 0.60549 0.43036 0.0
H1387 H 0.29548 0.56563 0.41846 0.0
H1388 H 0.43815 0.6719 0.41762 0.0
H1389 H 0.3245 0.50229 0.42015 0.0
H1390 H 0.3468 0.60506 0.41273 0.0
H1391 H 0.41164 0.56771 0.42131 0.0
C1392 C 0.44626 0.61209 0.42539 0.0
C1393 C 0.45431 0.64179 0.42506 0.0
C1394 C 0.34185 0.58249 0.41396 0.0
C1395 C 0.39582 0.59849 0.41511 0.0
C1396 C 0.31259 0.56 0.41709 0.0
C1397 C 0.30582 0.53069 0.42031 0.0
C1398 C 0.36432 0.5755 0.41401 0.0
C1399 C 0.32879 0.52461 0.41853 0.0
C1400 C 0.41725 0.59049 0.42015 0.0
C1401 C 0.43271 0.64916 0.41808 0.0
N1402 N 0.35693 0.54678 0.41578 0.0
N1403 N 0.40424 0.62758 0.41386 0.0
loop_
_geom_bond_atom_site_label_1
_geom_bond_atom_site_label_2
_geom_bond_distance
_geom_bond_site_symmetry_2
_ccdc_geom_bond_type
Co0 N4 2.148 1_455 S
Co0 N10 2.128 . S
Co0 N20 2.194 . S
Co0 O25 2.351 . S
Co0 O26 2.155 . S
Co0 O27 2.096 1_455 S
C1 N4 1.301 . S
C1 N5 1.328 . S
C1 H6 0.930 1_655 S
C2 C3 1.333 . S
C2 N4 1.317 . S
C2 H7 0.930 . S
C3 C2 1.333 . S
C3 N5 1.350 . S
C3 H29 0.931 . S
N4 Co0 2.148 1_655 S
N4 C1 1.301 . S
N4 C2 1.317 . S
N5 C1 1.328 . S
N5 C3 1.350 . S
H6 C1 0.930 1_455 S
H7 C2 0.930 . S
C8 O9 1.224 . S
C8 O27 1.247 . S
O9 C8 1.224 . S
N10 Co0 2.128 . S
N10 C11 1.355 . S
N10 C13 1.311 . S
C11 N10 1.355 . S
C11 C12 1.363 . S
C11 H23 0.929 . S
C12 C11 1.363 . S
C12 N14 1.375 . S
C12 H30 0.931 . S
C13 N10 1.311 . S
C13 N14 1.347 . S
C13 H24 0.929 . S
N14 C12 1.375 . S
N14 C13 1.347 . S
C15 C18 1.365 . S
C15 N20 1.328 . S
C15 H21 0.929 . S
C16 C17 1.362 . S
C16 C19 1.378 . S
C16 H31 0.929 . S
C17 C16 1.362 . S
C17 C18 1.366 . S
C18 C15 1.365 . S
C18 C17 1.366 . S
C18 H32 0.930 . S
C19 C16 1.378 . S
C19 N20 1.315 . S
C19 H22 0.934 . S
N20 Co0 2.194 . S
N20 C15 1.328 . S
N20 C19 1.315 . S
H21 C15 0.929 . S
H22 C19 0.934 . S
H23 C11 0.929 . S
H24 C13 0.929 . S
O25 Co0 2.351 . S
O25 C28 1.244 . S
O26 Co0 2.155 . S
O26 C28 1.240 . S
O27 Co0 2.096 1_655 S
O27 C8 1.247 . S
C28 O25 1.244 . S
C28 O26 1.240 . S
H29 C3 0.931 . S
H30 C12 0.931 . S
H31 C16 0.929 . S
H32 C18 0.930 . S
Co33 N37 2.148 . S
Co33 N43 2.128 . S
Co33 N53 2.194 . S
Co33 O58 2.351 . S
Co33 O59 2.155 . S
Co33 O60 2.096 . S
C34 N37 1.301 . S
C34 N38 1.328 . S
C34 H39 0.930 . S
C35 C36 1.333 . S
C35 N37 1.317 . S
C35 H40 0.930 . S
C36 C35 1.333 . S
C36 N38 1.350 . S
C36 H62 0.931 . S
N37 Co33 2.148 . S
N37 C34 1.301 . S
N37 C35 1.317 . S
N38 C34 1.328 . S
N38 C36 1.350 . S
H39 C34 0.930 . S
H40 C35 0.930 . S
C41 O42 1.224 . S
C41 O60 1.247 . S
O42 C41 1.224 . S
N43 Co33 2.128 . S
N43 C44 1.355 . S
N43 C46 1.311 . S
C44 N43 1.355 . S
C44 C45 1.363 . S
C44 H56 0.929 . S
C45 C44 1.363 . S
C45 N47 1.375 . S
C45 H63 0.931 . S
C46 N43 1.311 . S
C46 N47 1.347 . S
C46 H57 0.929 . S
N47 C45 1.375 . S
N47 C46 1.347 . S
C48 C51 1.365 . S
C48 N53 1.328 . S
C48 H54 0.929 . S
C49 C50 1.362 . S
C49 C52 1.378 . S
C49 H64 0.929 . S
C50 C49 1.362 . S
C50 C51 1.366 . S
C51 C48 1.365 . S
C51 C50 1.366 . S
C51 H65 0.930 . S
C52 C49 1.378 . S
C52 N53 1.315 . S
C52 H55 0.930 . S
N53 Co33 2.194 . S
N53 C48 1.328 . S
N53 C52 1.315 . S
H54 C48 0.929 . S
H55 C52 0.930 . S
H56 C44 0.929 . S
H57 C46 0.929 . S
O58 Co33 2.351 . S
O58 C61 1.244 . S
O59 Co33 2.155 . S
O59 C61 1.240 . S
O60 Co33 2.096 . S
O60 C41 1.247 . S
C61 O58 1.244 . S
C61 O59 1.240 . S
H62 C36 0.931 . S
H63 C45 0.931 . S
H64 C49 0.929 . S
H65 C51 0.930 . S
Co66 N70 2.148 1_565 S
Co66 N76 2.128 . S
Co66 N86 2.194 . S
Co66 O91 2.351 . S
Co66 O92 2.155 . S
Co66 O93 2.096 1_565 S
C67 N70 1.301 . S
C67 N71 1.328 . S
C67 H72 0.930 1_545 S
C68 C69 1.333 . S
C68 N70 1.317 . S
C68 H73 0.930 . S
C69 C68 1.333 . S
C69 N71 1.350 . S
C69 H95 0.931 . S
N70 Co66 2.148 1_545 S
N70 C67 1.301 . S
N70 C68 1.317 . S
N71 C67 1.328 . S
N71 C69 1.350 . S
H72 C67 0.930 1_565 S
H73 C68 0.930 . S
C74 O75 1.224 . S
C74 O93 1.247 . S
O75 C74 1.224 . S
N76 Co66 2.128 . S
N76 C77 1.355 . S
N76 C79 1.311 . S
C77 N76 1.355 . S
C77 C78 1.363 . S
C77 H89 0.929 . S
C78 C77 1.363 . S
C78 N80 1.375 . S
C78 H96 0.931 . S
C79 N76 1.311 . S
C79 N80 1.347 . S
C79 H90 0.929 . S
N80 C78 1.375 . S
N80 C79 1.347 . S
C81 C84 1.365 . S
C81 N86 1.328 . S
C81 H87 0.929 . S
C82 C83 1.362 . S
C82 C85 1.378 . S
C82 H97 0.929 . S
C83 C82 1.362 . S
C83 C84 1.366 . S
C84 C81 1.365 . S
C84 C83 1.366 . S
C84 H98 0.930 . S
C85 C82 1.378 . S
C85 N86 1.315 . S
C85 H88 0.946 . S
N86 Co66 2.194 . S
N86 C81 1.328 . S
N86 C85 1.315 . S
H87 C81 0.929 . S
H88 C85 0.946 . S
H89 C77 0.929 . S
H90 C79 0.929 . S
O91 Co66 2.351 . S
O91 C94 1.244 . S
O92 Co66 2.155 . S
O92 C94 1.240 . S
O93 Co66 2.096 1_545 S
O93 C74 1.247 . S
C94 O91 1.244 . S
C94 O92 1.240 . S
H95 C69 0.931 . S
H96 C78 0.931 . S
H97 C82 0.929 . S
H98 C84 0.930 . S
Co99 N103 2.148 1_545 S
Co99 N109 2.128 . S
Co99 N119 2.194 . S
Co99 O124 2.351 . S
Co99 O125 2.155 . S
Co99 O126 2.096 1_545 S
C100 N103 1.301 . S
C100 N104 1.328 . S
C100 H105 0.930 1_565 S
C101 C102 1.333 . S
C101 N103 1.317 . S
C101 H106 0.930 . S
C102 C101 1.333 . S
C102 N104 1.350 . S
C102 H128 0.931 . S
N103 Co99 2.148 1_565 S
N103 C100 1.301 . S
N103 C101 1.317 . S
N104 C100 1.328 . S
N104 C102 1.350 . S
H105 C100 0.930 1_545 S
H106 C101 0.930 . S
C107 O108 1.224 . S
C107 O126 1.247 . S
O108 C107 1.224 . S
N109 Co99 2.128 . S
N109 C110 1.355 . S
N109 C112 1.311 . S
C110 N109 1.355 . S
C110 C111 1.363 . S
C110 H122 0.929 . S
C111 C110 1.363 . S
C111 N113 1.375 . S
C111 H129 0.931 . S
C112 N109 1.311 . S
C112 N113 1.347 . S
C112 H123 0.929 . S
N113 C111 1.375 . S
N113 C112 1.347 . S
C114 C117 1.365 . S
C114 N119 1.328 . S
C114 H120 0.929 . S
C115 C116 1.362 . S
C115 C118 1.378 . S
C115 H130 0.929 . S
C116 C115 1.362 . S
C116 C117 1.366 . S
C117 C114 1.365 . S
C117 C116 1.366 . S
C117 H131 0.930 . S
C118 C115 1.378 . S
C118 N119 1.315 . S
C118 H121 0.934 . S
N119 Co99 2.194 . S
N119 C114 1.328 . S
N119 C118 1.315 . S
H120 C114 0.929 . S
H121 C118 0.934 . S
H122 C110 0.929 . S
H123 C112 0.929 . S
O124 Co99 2.351 . S
O124 C127 1.244 . S
O125 Co99 2.155 . S
O125 C127 1.240 . S
O126 Co99 2.096 1_565 S
O126 C107 1.247 . S
C127 O124 1.244 . S
C127 O125 1.240 . S
H128 C102 0.931 . S
H129 C111 0.931 . S
H130 C115 0.929 . S
H131 C117 0.930 . S
Co132 N136 2.148 1_655 S
Co132 N142 2.128 . S
Co132 N152 2.194 . S
Co132 O157 2.351 . S
Co132 O158 2.155 . S
Co132 O159 2.096 1_655 S
C133 N136 1.301 . S
C133 N137 1.328 . S
C133 H138 0.930 1_455 S
C134 C135 1.333 . S
C134 N136 1.317 . S
C134 H139 0.930 . S
C135 C134 1.333 . S
C135 N137 1.350 . S
C135 H161 0.931 . S
N136 Co132 2.148 1_455 S
N136 C133 1.301 . S
N136 C134 1.317 . S
N137 C133 1.328 . S
N137 C135 1.350 . S
H138 C133 0.930 1_655 S
H139 C134 0.930 . S
C140 O141 1.224 . S
C140 O159 1.247 . S
O141 C140 1.224 . S
N142 Co132 2.128 . S
N142 C143 1.355 . S
N142 C145 1.311 . S
C143 N142 1.355 . S
C143 C144 1.363 . S
C143 H155 0.929 . S
C144 C143 1.363 . S
C144 N146 1.375 . S
C144 H162 0.931 . S
C145 N142 1.311 . S
C145 N146 1.347 . S
C145 H156 0.929 . S
N146 C144 1.375 . S
N146 C145 1.347 . S
C147 C150 1.365 . S
C147 N152 1.328 . S
C147 H153 0.929 . S
C148 C149 1.362 . S
C148 C151 1.378 . S
C148 H163 0.929 . S
C149 C148 1.362 . S
C149 C150 1.366 . S
C150 C147 1.365 . S
C150 C149 1.366 . S
C150 H164 0.930 . S
C151 C148 1.378 . S
C151 N152 1.315 . S
C151 H154 0.946 . S
N152 Co132 2.194 . S
N152 C147 1.328 . S
N152 C151 1.315 . S
H153 C147 0.929 . S
H154 C151 0.946 . S
H155 C143 0.929 . S
H156 C145 0.929 . S
O157 Co132 2.351 . S
O157 C160 1.244 . S
O158 Co132 2.155 . S
O158 C160 1.240 . S
O159 Co132 2.096 1_455 S
O159 C140 1.247 . S
C160 O157 1.244 . S
C160 O158 1.240 . S
H161 C135 0.931 . S
H162 C144 0.931 . S
H163 C148 0.929 . S
H164 C150 0.930 . S
Co165 N169 2.148 . S
Co165 N175 2.128 . S
Co165 N185 2.194 . S
Co165 O190 2.351 . S
Co165 O191 2.155 . S
Co165 O192 2.096 . S
C166 N169 1.301 . S
C166 N170 1.328 . S
C166 H171 0.930 . S
C167 C168 1.333 . S
C167 N169 1.317 . S
C167 H172 0.930 . S
C168 C167 1.333 . S
C168 N170 1.350 . S
C168 H194 0.931 . S
N169 Co165 2.148 . S
N169 C166 1.301 . S
N169 C167 1.317 . S
N170 C166 1.328 . S
N170 C168 1.350 . S
H171 C166 0.930 . S
H172 C167 0.930 . S
C173 O174 1.224 . S
C173 O192 1.247 . S
O174 C173 1.224 . S
N175 Co165 2.128 . S
N175 C176 1.355 . S
N175 C178 1.311 . S
C176 N175 1.355 . S
C176 C177 1.363 . S
C176 H188 0.929 . S
C177 C176 1.363 . S
C177 N179 1.375 . S
C177 H195 0.931 . S
C178 N175 1.311 . S
C178 N179 1.347 . S
C178 H189 0.929 . S
N179 C177 1.375 . S
N179 C178 1.347 . S
C180 C183 1.365 . S
C180 N185 1.328 . S
C180 H186 0.929 . S
C181 C182 1.362 . S
C181 C184 1.378 . S
C181 H196 0.929 . S
C182 C181 1.362 . S
C182 C183 1.366 . S
C183 C180 1.365 . S
C183 C182 1.366 . S
C183 H197 0.930 . S
C184 C181 1.378 . S
C184 N185 1.315 . S
C184 H187 0.930 . S
N185 Co165 2.194 . S
N185 C180 1.328 . S
N185 C184 1.315 . S
H186 C180 0.929 . S
H187 C184 0.930 . S
H188 C176 0.929 . S
H189 C178 0.929 . S
O190 Co165 2.351 . S
O190 C193 1.244 . S
O191 Co165 2.155 . S
O191 C193 1.240 . S
O192 Co165 2.096 . S
O192 C173 1.247 . S
C193 O190 1.244 . S
C193 O191 1.240 . S
H194 C168 0.931 . S
H195 C177 0.931 . S
H196 C181 0.929 . S
H197 C183 0.930 . S
Co198 N202 2.148 . S
Co198 N208 2.128 . S
Co198 N218 2.194 . S
Co198 O223 2.351 . S
Co198 O224 2.155 . S
Co198 O225 2.096 . S
C199 N202 1.301 . S
C199 N203 1.328 . S
C199 H204 0.930 . S
C200 C201 1.333 . S
C200 N202 1.317 . S
C200 H205 0.930 . S
C201 C200 1.333 . S
C201 N203 1.350 . S
C201 H227 0.931 . S
N202 Co198 2.148 . S
N202 C199 1.301 . S
N202 C200 1.317 . S
N203 C199 1.328 . S
N203 C201 1.350 . S
H204 C199 0.930 . S
H205 C200 0.930 . S
C206 O207 1.224 . S
C206 O225 1.247 . S
O207 C206 1.224 . S
N208 Co198 2.128 . S
N208 C209 1.355 . S
N208 C211 1.311 . S
C209 N208 1.355 . S
C209 C210 1.363 . S
C209 H221 0.929 . S
C210 C209 1.363 . S
C210 N212 1.375 . S
C210 H228 0.931 . S
C211 N208 1.311 . S
C211 N212 1.347 . S
C211 H222 0.929 . S
N212 C210 1.375 . S
N212 C211 1.347 . S
C213 C216 1.365 . S
C213 N218 1.328 . S
C213 H219 0.929 . S
C214 C215 1.362 . S
C214 C217 1.378 . S
C214 H229 0.929 . S
C215 C214 1.362 . S
C215 C216 1.366 . S
C216 C213 1.365 . S
C216 C215 1.366 . S
C216 H230 0.930 . S
C217 C214 1.378 . S
C217 N218 1.315 . S
C217 H220 0.930 . S
N218 Co198 2.194 . S
N218 C213 1.328 . S
N218 C217 1.315 . S
H219 C213 0.929 . S
H220 C217 0.930 . S
H221 C209 0.929 . S
H222 C211 0.929 . S
O223 Co198 2.351 . S
O223 C226 1.244 . S
O224 Co198 2.155 . S
O224 C226 1.240 . S
O225 Co198 2.096 . S
O225 C206 1.247 . S
C226 O223 1.244 . S
C226 O224 1.240 . S
H227 C201 0.931 . S
H228 C210 0.931 . S
H229 C214 0.929 . S
H230 C216 0.930 . S
Co231 N235 2.148 . S
Co231 N241 2.128 . S
Co231 N251 2.194 . S
Co231 O256 2.351 . S
Co231 O257 2.155 . S
Co231 O258 2.096 . S
C232 N235 1.301 . S
C232 N236 1.328 . S
C232 H237 0.930 . S
C233 C234 1.333 . S
C233 N235 1.317 . S
C233 H238 0.930 . S
C234 C233 1.333 . S
C234 N236 1.350 . S
C234 H260 0.931 . S
N235 Co231 2.148 . S
N235 C232 1.301 . S
N235 C233 1.317 . S
N236 C232 1.328 . S
N236 C234 1.350 . S
H237 C232 0.930 . S
H238 C233 0.930 . S
C239 O240 1.224 . S
C239 O258 1.247 . S
O240 C239 1.224 . S
N241 Co231 2.128 . S
N241 C242 1.355 . S
N241 C244 1.311 . S
C242 N241 1.355 . S
C242 C243 1.363 . S
C242 H254 0.929 . S
C243 C242 1.363 . S
C243 N245 1.375 . S
C243 H261 0.931 . S
C244 N241 1.311 . S
C244 N245 1.347 . S
C244 H255 0.929 . S
N245 C243 1.375 . S
N245 C244 1.347 . S
C246 C249 1.365 . S
C246 N251 1.328 . S
C246 H252 0.929 . S
C247 C248 1.362 . S
C247 C250 1.378 . S
C247 H262 0.929 . S
C248 C247 1.362 . S
C248 C249 1.366 . S
C249 C246 1.365 . S
C249 C248 1.366 . S
C249 H263 0.930 . S
C250 C247 1.378 . S
C250 N251 1.315 . S
C250 H253 0.930 . S
N251 Co231 2.194 . S
N251 C246 1.328 . S
N251 C250 1.315 . S
H252 C246 0.929 . S
H253 C250 0.930 . S
H254 C242 0.929 . S
H255 C244 0.929 . S
O256 Co231 2.351 . S
O256 C259 1.244 . S
O257 Co231 2.155 . S
O257 C259 1.240 . S
O258 Co231 2.096 . S
O258 C239 1.247 . S
C259 O256 1.244 . S
C259 O257 1.240 . S
H260 C234 0.931 . S
H261 C243 0.931 . S
H262 C247 0.929 . S
H263 C249 0.930 . S
Co264 N268 2.148 . S
Co264 N274 2.128 . S
Co264 N284 2.194 . S
Co264 O289 2.351 . S
Co264 O290 2.155 . S
Co264 O291 2.096 . S
C265 N268 1.301 . S
C265 N269 1.328 . S
C265 H270 0.930 . S
C266 C267 1.333 . S
C266 N268 1.317 . S
C266 H271 0.930 . S
C267 C266 1.333 . S
C267 N269 1.350 . S
C267 H293 0.931 . S
N268 Co264 2.148 . S
N268 C265 1.301 . S
N268 C266 1.317 . S
N269 C265 1.328 . S
N269 C267 1.350 . S
H270 C265 0.930 . S
H271 C266 0.930 . S
C272 O273 1.224 . S
C272 O291 1.247 . S
O273 C272 1.224 . S
N274 Co264 2.128 . S
N274 C275 1.355 . S
N274 C277 1.311 . S
C275 N274 1.355 . S
C275 C276 1.363 . S
C275 H287 0.929 . S
C276 C275 1.363 . S
C276 N278 1.375 . S
C276 H294 0.931 . S
C277 N274 1.311 . S
C277 N278 1.347 . S
C277 H288 0.929 . S
N278 C276 1.375 . S
N278 C277 1.347 . S
C279 C282 1.365 . S
C279 N284 1.328 . S
C279 H285 0.929 . S
C280 C281 1.362 . S
C280 C283 1.378 . S
C280 H295 0.929 . S
C281 C280 1.362 . S
C281 C282 1.366 . S
C282 C279 1.365 . S
C282 C281 1.366 . S
C282 H296 0.930 . S
C283 C280 1.378 . S
C283 N284 1.315 . S
C283 H286 0.930 . S
N284 Co264 2.194 . S
N284 C279 1.328 . S
N284 C283 1.315 . S
H285 C279 0.929 . S
H286 C283 0.930 . S
H287 C275 0.929 . S
H288 C277 0.929 . S
O289 Co264 2.351 . S
O289 C292 1.244 . S
O290 Co264 2.155 . S
O290 C292 1.240 . S
O291 Co264 2.096 . S
O291 C272 1.247 . S
C292 O289 1.244 . S
C292 O290 1.240 . S
H293 C267 0.931 . S
H294 C276 0.931 . S
H295 C280 0.929 . S
H296 C282 0.930 . S
Co297 N301 2.148 . S
Co297 N307 2.128 . S
Co297 N317 2.194 . S
Co297 O322 2.351 . S
Co297 O323 2.155 . S
Co297 O324 2.096 . S
C298 N301 1.301 . S
C298 N302 1.328 . S
C298 H303 0.930 . S
C299 C300 1.333 . S
C299 N301 1.317 . S
C299 H304 0.930 . S
C300 C299 1.333 . S
C300 N302 1.350 . S
C300 H326 0.931 . S
N301 Co297 2.148 . S
N301 C298 1.301 . S
N301 C299 1.317 . S
N302 C298 1.328 . S
N302 C300 1.350 . S
H303 C298 0.930 . S
H304 C299 0.930 . S
C305 O306 1.224 . S
C305 O324 1.247 . S
O306 C305 1.224 . S
N307 Co297 2.128 . S
N307 C308 1.355 . S
N307 C310 1.311 . S
C308 N307 1.355 . S
C308 C309 1.363 . S
C308 H320 0.929 . S
C309 C308 1.363 . S
C309 N311 1.375 . S
C309 H327 0.931 . S
C310 N307 1.311 . S
C310 N311 1.347 . S
C310 H321 0.929 . S
N311 C309 1.375 . S
N311 C310 1.347 . S
C312 C315 1.365 . S
C312 N317 1.328 . S
C312 H318 0.929 . S
C313 C314 1.362 . S
C313 C316 1.378 . S
C313 H328 0.929 . S
C314 C313 1.362 . S
C314 C315 1.366 . S
C315 C312 1.365 . S
C315 C314 1.366 . S
C315 H329 0.930 . S
C316 C313 1.378 . S
C316 N317 1.315 . S
C316 H319 0.930 . S
N317 Co297 2.194 . S
N317 C312 1.328 . S
N317 C316 1.315 . S
H318 C312 0.929 . S
H319 C316 0.930 . S
H320 C308 0.929 . S
H321 C310 0.929 . S
O322 Co297 2.351 . S
O322 C325 1.244 . S
O323 Co297 2.155 . S
O323 C325 1.240 . S
O324 Co297 2.096 . S
O324 C305 1.247 . S
C325 O322 1.244 . S
C325 O323 1.240 . S
H326 C300 0.931 . S
H327 C309 0.931 . S
H328 C313 0.929 . S
H329 C315 0.930 . S
Co330 N334 2.148 . S
Co330 N340 2.128 . S
Co330 N350 2.194 . S
Co330 O355 2.351 . S
Co330 O356 2.155 . S
Co330 O357 2.096 . S
C331 N334 1.301 . S
C331 N335 1.328 . S
C331 H336 0.930 . S
C332 C333 1.333 . S
C332 N334 1.317 . S
C332 H337 0.930 . S
C333 C332 1.333 . S
C333 N335 1.350 . S
C333 H359 0.931 . S
N334 Co330 2.148 . S
N334 C331 1.301 . S
N334 C332 1.317 . S
N335 C331 1.328 . S
N335 C333 1.350 . S
H336 C331 0.930 . S
H337 C332 0.930 . S
C338 O339 1.224 . S
C338 O357 1.247 . S
O339 C338 1.224 . S
N340 Co330 2.128 . S
N340 C341 1.355 . S
N340 C343 1.311 . S
C341 N340 1.355 . S
C341 C342 1.363 . S
C341 H353 0.929 . S
C342 C341 1.363 . S
C342 N344 1.375 . S
C342 H360 0.931 . S
C343 N340 1.311 . S
C343 N344 1.347 . S
C343 H354 0.929 . S
N344 C342 1.375 . S
N344 C343 1.347 . S
C345 C348 1.365 . S
C345 N350 1.328 . S
C345 H351 0.929 . S
C346 C347 1.362 . S
C346 C349 1.378 . S
C346 H361 0.929 . S
C347 C346 1.362 . S
C347 C348 1.366 . S
C348 C345 1.365 . S
C348 C347 1.366 . S
C348 H362 0.930 . S
C349 C346 1.378 . S
C349 N350 1.315 . S
C349 H352 0.930 . S
N350 Co330 2.194 . S
N350 C345 1.328 . S
N350 C349 1.315 . S
H351 C345 0.929 . S
H352 C349 0.930 . S
H353 C341 0.929 . S
H354 C343 0.929 . S
O355 Co330 2.351 . S
O355 C358 1.244 . S
O356 Co330 2.155 . S
O356 C358 1.240 . S
O357 Co330 2.096 . S
O357 C338 1.247 . S
C358 O355 1.244 . S
C358 O356 1.240 . S
H359 C333 0.931 . S
H360 C342 0.931 . S
H361 C346 0.929 . S
H362 C348 0.930 . S
Co363 N367 2.148 . S
Co363 N373 2.128 . S
Co363 N383 2.194 . S
Co363 O388 2.351 . S
Co363 O389 2.155 . S
Co363 O390 2.096 . S
C364 N367 1.301 . S
C364 N368 1.328 . S
C364 H369 0.930 . S
C365 C366 1.333 . S
C365 N367 1.317 . S
C365 H370 0.930 . S
C366 C365 1.333 . S
C366 N368 1.350 . S
C366 H392 0.931 . S
N367 Co363 2.148 . S
N367 C364 1.301 . S
N367 C365 1.317 . S
N368 C364 1.328 . S
N368 C366 1.350 . S
H369 C364 0.930 . S
H370 C365 0.930 . S
C371 O372 1.224 . S
C371 O390 1.247 . S
O372 C371 1.224 . S
N373 Co363 2.128 . S
N373 C374 1.355 . S
N373 C376 1.311 . S
C374 N373 1.355 . S
C374 C375 1.363 . S
C374 H386 0.929 . S
C375 C374 1.363 . S
C375 N377 1.375 . S
C375 H393 0.931 . S
C376 N373 1.311 . S
C376 N377 1.347 . S
C376 H387 0.929 . S
N377 C375 1.375 . S
N377 C376 1.347 . S
C378 C381 1.365 . S
C378 N383 1.328 . S
C378 H384 0.929 . S
C379 C380 1.362 . S
C379 C382 1.378 . S
C379 H394 0.929 . S
C380 C379 1.362 . S
C380 C381 1.366 . S
C381 C378 1.365 . S
C381 C380 1.366 . S
C381 H395 0.930 . S
C382 C379 1.378 . S
C382 N383 1.315 . S
C382 H385 0.930 . S
N383 Co363 2.194 . S
N383 C378 1.328 . S
N383 C382 1.315 . S
H384 C378 0.929 . S
H385 C382 0.930 . S
H386 C374 0.929 . S
H387 C376 0.929 . S
O388 Co363 2.351 . S
O388 C391 1.244 . S
O389 Co363 2.155 . S
O389 C391 1.240 . S
O390 Co363 2.096 . S
O390 C371 1.247 . S
C391 O388 1.244 . S
C391 O389 1.240 . S
H392 C366 0.931 . S
H393 C375 0.931 . S
H394 C379 0.929 . S
H395 C381 0.930 . S
Co396 N400 2.148 . S
Co396 N406 2.128 . S
Co396 N416 2.194 . S
Co396 O421 2.351 . S
Co396 O422 2.155 . S
Co396 O423 2.096 . S
C397 N400 1.301 . S
C397 N401 1.328 . S
C397 H402 0.930 . S
C398 C399 1.333 . S
C398 N400 1.317 . S
C398 H403 0.930 . S
C399 C398 1.333 . S
C399 N401 1.350 . S
C399 H425 0.931 . S
N400 Co396 2.148 . S
N400 C397 1.301 . S
N400 C398 1.317 . S
N401 C397 1.328 . S
N401 C399 1.350 . S
H402 C397 0.930 . S
H403 C398 0.930 . S
C404 O405 1.224 . S
C404 O423 1.247 . S
O405 C404 1.224 . S
N406 Co396 2.128 . S
N406 C407 1.355 . S
N406 C409 1.311 . S
C407 N406 1.355 . S
C407 C408 1.363 . S
C407 H419 0.929 . S
C408 C407 1.363 . S
C408 N410 1.375 . S
C408 H426 0.931 . S
C409 N406 1.311 . S
C409 N410 1.347 . S
C409 H420 0.929 . S
N410 C408 1.375 . S
N410 C409 1.347 . S
C411 C414 1.365 . S
C411 N416 1.328 . S
C411 H417 0.929 . S
C412 C413 1.362 . S
C412 C415 1.378 . S
C412 H427 0.929 . S
C413 C412 1.362 . S
C413 C414 1.366 . S
C414 C411 1.365 . S
C414 C413 1.366 . S
C414 H428 0.930 . S
C415 C412 1.378 . S
C415 N416 1.315 . S
C415 H418 0.930 . S
N416 Co396 2.194 . S
N416 C411 1.328 . S
N416 C415 1.315 . S
H417 C411 0.929 . S
H418 C415 0.930 . S
H419 C407 0.929 . S
H420 C409 0.929 . S
O421 Co396 2.351 . S
O421 C424 1.244 . S
O422 Co396 2.155 . S
O422 C424 1.240 . S
O423 Co396 2.096 . S
O423 C404 1.247 . S
C424 O421 1.244 . S
C424 O422 1.240 . S
H425 C399 0.931 . S
H426 C408 0.931 . S
H427 C412 0.929 . S
H428 C414 0.930 . S
Co429 N433 2.148 . S
Co429 N439 2.128 . S
Co429 N449 2.194 . S
Co429 O454 2.351 . S
Co429 O455 2.155 . S
Co429 O456 2.096 . S
C430 N433 1.301 . S
C430 N434 1.328 . S
C430 H435 0.930 . S
C431 C432 1.333 . S
C431 N433 1.317 . S
C431 H436 0.930 . S
C432 C431 1.333 . S
C432 N434 1.350 . S
C432 H458 0.931 . S
N433 Co429 2.148 . S
N433 C430 1.301 . S
N433 C431 1.317 . S
N434 C430 1.328 . S
N434 C432 1.350 . S
H435 C430 0.930 . S
H436 C431 0.930 . S
C437 O438 1.224 . S
C437 O456 1.247 . S
O438 C437 1.224 . S
N439 Co429 2.128 . S
N439 C440 1.355 . S
N439 C442 1.311 . S
C440 N439 1.355 . S
C440 C441 1.363 . S
C440 H452 0.929 . S
C441 C440 1.363 . S
C441 N443 1.375 . S
C441 H459 0.931 . S
C442 N439 1.311 . S
C442 N443 1.347 . S
C442 H453 0.929 . S
N443 C441 1.375 . S
N443 C442 1.347 . S
C444 C447 1.365 . S
C444 N449 1.328 . S
C444 H450 0.929 . S
C445 C446 1.362 . S
C445 C448 1.378 . S
C445 H460 0.929 . S
C446 C445 1.362 . S
C446 C447 1.366 . S
C447 C444 1.365 . S
C447 C446 1.366 . S
C447 H461 0.930 . S
C448 C445 1.378 . S
C448 N449 1.315 . S
C448 H451 0.930 . S
N449 Co429 2.194 . S
N449 C444 1.328 . S
N449 C448 1.315 . S
H450 C444 0.929 . S
H451 C448 0.930 . S
H452 C440 0.929 . S
H453 C442 0.929 . S
O454 Co429 2.351 . S
O454 C457 1.244 . S
O455 Co429 2.155 . S
O455 C457 1.240 . S
O456 Co429 2.096 . S
O456 C437 1.247 . S
C457 O454 1.244 . S
C457 O455 1.240 . S
H458 C432 0.931 . S
H459 C441 0.931 . S
H460 C445 0.929 . S
H461 C447 0.930 . S
Co462 N466 2.148 . S
Co462 N472 2.128 . S
Co462 N482 2.194 . S
Co462 O487 2.351 . S
Co462 O488 2.155 . S
Co462 O489 2.096 . S
C463 N466 1.301 . S
C463 N467 1.328 . S
C463 H468 0.930 . S
C464 C465 1.333 . S
C464 N466 1.317 . S
C464 H469 0.930 . S
C465 C464 1.333 . S
C465 N467 1.350 . S
C465 H491 0.931 . S
N466 Co462 2.148 . S
N466 C463 1.301 . S
N466 C464 1.317 . S
N467 C463 1.328 . S
N467 C465 1.350 . S
H468 C463 0.930 . S
H469 C464 0.930 . S
C470 O471 1.224 . S
C470 O489 1.247 . S
O471 C470 1.224 . S
N472 Co462 2.128 . S
N472 C473 1.355 . S
N472 C475 1.311 . S
C473 N472 1.355 . S
C473 C474 1.363 . S
C473 H485 0.929 . S
C474 C473 1.363 . S
C474 N476 1.375 . S
C474 H492 0.931 . S
C475 N472 1.311 . S
C475 N476 1.347 . S
C475 H486 0.929 . S
N476 C474 1.375 . S
N476 C475 1.347 . S
C477 C480 1.365 . S
C477 N482 1.328 . S
C477 H483 0.929 . S
C478 C479 1.362 . S
C478 C481 1.378 . S
C478 H493 0.929 . S
C479 C478 1.362 . S
C479 C480 1.366 . S
C480 C477 1.365 . S
C480 C479 1.366 . S
C480 H494 0.930 . S
C481 C478 1.378 . S
C481 N482 1.315 . S
C481 H484 0.930 . S
N482 Co462 2.194 . S
N482 C477 1.328 . S
N482 C481 1.315 . S
H483 C477 0.929 . S
H484 C481 0.930 . S
H485 C473 0.929 . S
H486 C475 0.929 . S
O487 Co462 2.351 . S
O487 C490 1.244 . S
O488 Co462 2.155 . S
O488 C490 1.240 . S
O489 Co462 2.096 . S
O489 C470 1.247 . S
C490 O487 1.244 . S
C490 O488 1.240 . S
H491 C465 0.931 . S
H492 C474 0.931 . S
H493 C478 0.929 . S
H494 C480 0.930 . S
Co495 N499 2.148 . S
Co495 N505 2.128 . S
Co495 N515 2.194 . S
Co495 O520 2.351 . S
Co495 O521 2.155 . S
Co495 O522 2.096 . S
C496 N499 1.301 . S
C496 N500 1.328 . S
C496 H501 0.930 . S
C497 C498 1.333 . S
C497 N499 1.317 . S
C497 H502 0.930 . S
C498 C497 1.333 . S
C498 N500 1.350 . S
C498 H524 0.931 . S
N499 Co495 2.148 . S
N499 C496 1.301 . S
N499 C497 1.317 . S
N500 C496 1.328 . S
N500 C498 1.350 . S
H501 C496 0.930 . S
H502 C497 0.930 . S
C503 O504 1.224 . S
C503 O522 1.247 . S
O504 C503 1.224 . S
N505 Co495 2.128 . S
N505 C506 1.355 . S
N505 C508 1.311 . S
C506 N505 1.355 . S
C506 C507 1.363 . S
C506 H518 0.929 . S
C507 C506 1.363 . S
C507 N509 1.375 . S
C507 H525 0.931 . S
C508 N505 1.311 . S
C508 N509 1.347 . S
C508 H519 0.929 . S
N509 C507 1.375 . S
N509 C508 1.347 . S
C510 C513 1.365 . S
C510 N515 1.328 . S
C510 H516 0.929 . S
C511 C512 1.362 . S
C511 C514 1.378 . S
C511 H526 0.929 . S
C512 C511 1.362 . S
C512 C513 1.366 . S
C513 C510 1.365 . S
C513 C512 1.366 . S
C513 H527 0.930 . S
C514 C511 1.378 . S
C514 N515 1.315 . S
C514 H517 0.930 . S
N515 Co495 2.194 . S
N515 C510 1.328 . S
N515 C514 1.315 . S
H516 C510 0.929 . S
H517 C514 0.930 . S
H518 C506 0.929 . S
H519 C508 0.929 . S
O520 Co495 2.351 . S
O520 C523 1.244 . S
O521 Co495 2.155 . S
O521 C523 1.240 . S
O522 Co495 2.096 . S
O522 C503 1.247 . S
C523 O520 1.244 . S
C523 O521 1.240 . S
H524 C498 0.931 . S
H525 C507 0.931 . S
H526 C511 0.929 . S
H527 C513 0.930 . S
Co528 N532 2.148 . S
Co528 N538 2.128 . S
Co528 N548 2.194 . S
Co528 O553 2.351 . S
Co528 O554 2.155 . S
Co528 O555 2.096 . S
C529 N532 1.301 . S
C529 N533 1.328 . S
C529 H534 0.930 . S
C530 C531 1.333 . S
C530 N532 1.317 . S
C530 H535 0.930 . S
C531 C530 1.333 . S
C531 N533 1.350 . S
C531 H557 0.931 . S
N532 Co528 2.148 . S
N532 C529 1.301 . S
N532 C530 1.317 . S
N533 C529 1.328 . S
N533 C531 1.350 . S
H534 C529 0.930 . S
H535 C530 0.930 . S
C536 O537 1.224 . S
C536 O555 1.247 . S
O537 C536 1.224 . S
N538 Co528 2.128 . S
N538 C539 1.355 . S
N538 C541 1.311 . S
C539 N538 1.355 . S
C539 C540 1.363 . S
C539 H551 0.929 . S
C540 C539 1.363 . S
C540 N542 1.375 . S
C540 H558 0.931 . S
C541 N538 1.311 . S
C541 N542 1.347 . S
C541 H552 0.929 . S
N542 C540 1.375 . S
N542 C541 1.347 . S
C543 C546 1.365 . S
C543 N548 1.328 . S
C543 H549 0.929 . S
C544 C545 1.362 . S
C544 C547 1.378 . S
C544 H559 0.929 . S
C545 C544 1.362 . S
C545 C546 1.366 . S
C546 C543 1.365 . S
C546 C545 1.366 . S
C546 H560 0.930 . S
C547 C544 1.378 . S
C547 N548 1.315 . S
C547 H550 0.930 . S
N548 Co528 2.194 . S
N548 C543 1.328 . S
N548 C547 1.315 . S
H549 C543 0.929 . S
H550 C547 0.930 . S
H551 C539 0.929 . S
H552 C541 0.929 . S
O553 Co528 2.351 . S
O553 C556 1.244 . S
O554 Co528 2.155 . S
O554 C556 1.240 . S
O555 Co528 2.096 . S
O555 C536 1.247 . S
C556 O553 1.244 . S
C556 O554 1.240 . S
H557 C531 0.931 . S
H558 C540 0.931 . S
H559 C544 0.929 . S
H560 C546 0.930 . S
Co561 N565 2.148 . S
Co561 N571 2.128 . S
Co561 N581 2.194 . S
Co561 O586 2.351 . S
Co561 O587 2.155 . S
Co561 O588 2.096 . S
C562 N565 1.301 . S
C562 N566 1.328 . S
C562 H567 0.930 . S
C563 C564 1.333 . S
C563 N565 1.317 . S
C563 H568 0.930 . S
C564 C563 1.333 . S
C564 N566 1.350 . S
C564 H590 0.931 . S
N565 Co561 2.148 . S
N565 C562 1.301 . S
N565 C563 1.317 . S
N566 C562 1.328 . S
N566 C564 1.350 . S
H567 C562 0.930 . S
H568 C563 0.930 . S
C569 O570 1.224 . S
C569 O588 1.247 . S
O570 C569 1.224 . S
N571 Co561 2.128 . S
N571 C572 1.355 . S
N571 C574 1.311 . S
C572 N571 1.355 . S
C572 C573 1.363 . S
C572 H584 0.929 . S
C573 C572 1.363 . S
C573 N575 1.375 . S
C573 H591 0.931 . S
C574 N571 1.311 . S
C574 N575 1.347 . S
C574 H585 0.929 . S
N575 C573 1.375 . S
N575 C574 1.347 . S
C576 C579 1.365 . S
C576 N581 1.328 . S
C576 H582 0.929 . S
C577 C578 1.362 . S
C577 C580 1.378 . S
C577 H592 0.929 . S
C578 C577 1.362 . S
C578 C579 1.366 . S
C579 C576 1.365 . S
C579 C578 1.366 . S
C579 H593 0.930 . S
C580 C577 1.378 . S
C580 N581 1.315 . S
C580 H583 0.930 . S
N581 Co561 2.194 . S
N581 C576 1.328 . S
N581 C580 1.315 . S
H582 C576 0.929 . S
H583 C580 0.930 . S
H584 C572 0.929 . S
H585 C574 0.929 . S
O586 Co561 2.351 . S
O586 C589 1.244 . S
O587 Co561 2.155 . S
O587 C589 1.240 . S
O588 Co561 2.096 . S
O588 C569 1.247 . S
C589 O586 1.244 . S
C589 O587 1.240 . S
H590 C564 0.931 . S
H591 C573 0.931 . S
H592 C577 0.929 . S
H593 C579 0.930 . S
H594 C600 0.930 . S
H595 C604 0.930 . S
H596 C609 0.929 . S
H597 C607 0.929 . S
H598 C602 0.929 . S
H599 C608 0.929 . S
C600 H594 0.930 . S
C600 C601 1.367 . S
C600 C608 1.378 . S
C601 C600 1.367 . S
C601 C609 1.433 . S
C602 H598 0.929 . S
C602 C604 1.378 . S
C602 C606 1.350 . S
C603 C606 1.463 . S
C603 C608 1.350 . S
C603 N611 1.427 . S
C604 H595 0.930 . S
C604 C602 1.378 . S
C604 C605 1.367 . S
C605 C604 1.367 . S
C605 C607 1.433 . S
C606 C602 1.350 . S
C606 C603 1.463 . S
C606 N610 1.427 . S
C607 H597 0.929 . S
C607 C605 1.433 . S
C607 N610 1.384 . S
C608 H599 0.929 . S
C608 C600 1.378 . S
C608 C603 1.350 . S
C609 H596 0.929 . S
C609 C601 1.433 . S
C609 N611 1.384 . S
N610 C606 1.427 . S
N610 C607 1.384 . S
N611 C603 1.427 . S
N611 C609 1.384 . S
H612 C618 0.930 . S
H613 C622 0.930 . S
H614 C627 0.929 . S
H615 C625 0.929 . S
H616 C620 0.929 . S
H617 C626 0.929 . S
C618 H612 0.930 . S
C618 C619 1.367 . S
C618 C626 1.378 . S
C619 C618 1.367 . S
C619 C627 1.433 . S
C620 H616 0.929 . S
C620 C622 1.378 . S
C620 C624 1.350 . S
C621 C624 1.463 . S
C621 C626 1.350 . S
C621 N629 1.427 . S
C622 H613 0.930 . S
C622 C620 1.378 . S
C622 C623 1.367 . S
C623 C622 1.367 . S
C623 C625 1.433 . S
C624 C620 1.350 . S
C624 C621 1.463 . S
C624 N628 1.427 . S
C625 H615 0.929 . S
C625 C623 1.433 . S
C625 N628 1.384 . S
C626 H617 0.929 . S
C626 C618 1.378 . S
C626 C621 1.350 . S
C627 H614 0.929 . S
C627 C619 1.433 . S
C627 N629 1.384 . S
N628 C624 1.427 . S
N628 C625 1.384 . S
N629 C621 1.427 . S
N629 C627 1.384 . S
H630 C636 0.930 . S
H631 C640 0.930 . S
H632 C645 0.929 . S
H633 C643 0.929 . S
H634 C638 0.929 . S
H635 C644 0.929 . S
C636 H630 0.930 . S
C636 C637 1.367 . S
C636 C644 1.378 . S
C637 C636 1.367 . S
C637 C645 1.433 . S
C638 H634 0.929 . S
C638 C640 1.378 . S
C638 C642 1.350 . S
C639 C642 1.463 . S
C639 C644 1.350 . S
C639 N647 1.427 . S
C640 H631 0.930 . S
C640 C638 1.378 . S
C640 C641 1.367 . S
C641 C640 1.367 . S
C641 C643 1.433 . S
C642 C638 1.350 . S
C642 C639 1.463 . S
C642 N646 1.427 . S
C643 H633 0.929 . S
C643 C641 1.433 . S
C643 N646 1.384 . S
C644 H635 0.929 . S
C644 C636 1.378 . S
C644 C639 1.350 . S
C645 H632 0.929 . S
C645 C637 1.433 . S
C645 N647 1.384 . S
N646 C642 1.427 . S
N646 C643 1.384 . S
N647 C639 1.427 . S
N647 C645 1.384 . S
H648 C654 0.930 . S
H649 C658 0.930 . S
H650 C663 0.929 . S
H651 C661 0.929 . S
H652 C656 0.929 . S
H653 C662 0.929 . S
C654 H648 0.930 . S
C654 C655 1.367 . S
C654 C662 1.378 . S
C655 C654 1.367 . S
C655 C663 1.433 . S
C656 H652 0.929 . S
C656 C658 1.378 . S
C656 C660 1.350 . S
C657 C660 1.463 . S
C657 C662 1.350 . S
C657 N665 1.427 . S
C658 H649 0.930 . S
C658 C656 1.378 . S
C658 C659 1.367 . S
C659 C658 1.367 . S
C659 C661 1.433 . S
C660 C656 1.350 . S
C660 C657 1.463 . S
C660 N664 1.427 . S
C661 H651 0.929 . S
C661 C659 1.433 . S
C661 N664 1.384 . S
C662 H653 0.929 . S
C662 C654 1.378 . S
C662 C657 1.350 . S
C663 H650 0.929 . S
C663 C655 1.433 . S
C663 N665 1.384 . S
N664 C660 1.427 . S
N664 C661 1.384 . S
N665 C657 1.427 . S
N665 C663 1.384 . S
H666 C672 0.930 . S
H667 C676 0.930 . S
H668 C681 0.929 . S
H669 C679 0.929 . S
H670 C674 0.929 . S
H671 C680 0.929 . S
C672 H666 0.930 . S
C672 C673 1.367 . S
C672 C680 1.378 . S
C673 C672 1.367 . S
C673 C681 1.433 . S
C674 H670 0.929 . S
C674 C676 1.378 . S
C674 C678 1.350 . S
C675 C678 1.463 . S
C675 C680 1.350 . S
C675 N683 1.427 . S
C676 H667 0.930 . S
C676 C674 1.378 . S
C676 C677 1.367 . S
C677 C676 1.367 . S
C677 C679 1.433 . S
C678 C674 1.350 . S
C678 C675 1.463 . S
C678 N682 1.427 . S
C679 H669 0.929 . S
C679 C677 1.433 . S
C679 N682 1.384 . S
C680 H671 0.929 . S
C680 C672 1.378 . S
C680 C675 1.350 . S
C681 H668 0.929 . S
C681 C673 1.433 . S
C681 N683 1.384 . S
N682 C678 1.427 . S
N682 C679 1.384 . S
N683 C675 1.427 . S
N683 C681 1.384 . S
H684 C690 0.930 . S
H685 C694 0.930 . S
H686 C699 0.929 . S
H687 C697 0.929 . S
H688 C692 0.929 . S
H689 C698 0.929 . S
C690 H684 0.930 . S
C690 C691 1.367 . S
C690 C698 1.378 . S
C691 C690 1.367 . S
C691 C699 1.433 . S
C692 H688 0.929 . S
C692 C694 1.378 . S
C692 C696 1.350 . S
C693 C696 1.463 . S
C693 C698 1.350 . S
C693 N701 1.427 . S
C694 H685 0.930 . S
C694 C692 1.378 . S
C694 C695 1.367 . S
C695 C694 1.367 . S
C695 C697 1.433 . S
C696 C692 1.350 . S
C696 C693 1.463 . S
C696 N700 1.427 . S
C697 H687 0.929 . S
C697 C695 1.433 . S
C697 N700 1.384 . S
C698 H689 0.929 . S
C698 C690 1.378 . S
C698 C693 1.350 . S
C699 H686 0.929 . S
C699 C691 1.433 . S
C699 N701 1.384 . S
N700 C696 1.427 . S
N700 C697 1.384 . S
N701 C693 1.427 . S
N701 C699 1.384 . S
H702 C708 0.930 . S
H703 C712 0.930 . S
H704 C717 0.929 . S
H705 C715 0.929 . S
H706 C710 0.929 . S
H707 C716 0.929 . S
C708 H702 0.930 . S
C708 C709 1.367 . S
C708 C716 1.378 . S
C709 C708 1.367 . S
C709 C717 1.433 . S
C710 H706 0.929 . S
C710 C712 1.378 . S
C710 C714 1.350 . S
C711 C714 1.463 . S
C711 C716 1.350 . S
C711 N719 1.427 . S
C712 H703 0.930 . S
C712 C710 1.378 . S
C712 C713 1.367 . S
C713 C712 1.367 . S
C713 C715 1.433 . S
C714 C710 1.350 . S
C714 C711 1.463 . S
C714 N718 1.427 . S
C715 H705 0.929 . S
C715 C713 1.433 . S
C715 N718 1.384 . S
C716 H707 0.929 . S
C716 C708 1.378 . S
C716 C711 1.350 . S
C717 H704 0.929 . S
C717 C709 1.433 . S
C717 N719 1.384 . S
N718 C714 1.427 . S
N718 C715 1.384 . S
N719 C711 1.427 . S
N719 C717 1.384 . S
H720 C726 0.930 . S
H721 C730 0.930 . S
H722 C735 0.929 . S
H723 C733 0.929 . S
H724 C728 0.929 1_565 S
H725 C734 0.929 1_545 S
C726 H720 0.930 . S
C726 C727 1.367 . S
C726 C734 1.378 . S
C727 C726 1.367 . S
C727 C735 1.433 . S
C728 H724 0.929 1_545 S
C728 C730 1.378 . S
C728 C732 1.350 . S
C729 C732 1.463 1_565 S
C729 C734 1.350 . S
C729 N737 1.427 . S
C730 H721 0.930 . S
C730 C728 1.378 . S
C730 C731 1.367 . S
C731 C730 1.367 . S
C731 C733 1.433 . S
C732 C728 1.350 . S
C732 C729 1.463 1_545 S
C732 N736 1.427 . S
C733 H723 0.929 . S
C733 C731 1.433 . S
C733 N736 1.384 . S
C734 H725 0.929 1_565 S
C734 C726 1.378 . S
C734 C729 1.350 . S
C735 H722 0.929 . S
C735 C727 1.433 . S
C735 N737 1.384 . S
N736 C732 1.427 . S
N736 C733 1.384 . S
N737 C729 1.427 . S
N737 C735 1.384 . S
H738 C744 0.930 . S
H739 C748 0.930 . S
H740 C753 0.929 . S
H741 C751 0.929 . S
H742 C746 0.929 1_455 S
H743 C752 0.929 1_655 S
C744 H738 0.930 . S
C744 C745 1.367 . S
C744 C752 1.378 . S
C745 C744 1.367 . S
C745 C753 1.433 . S
C746 H742 0.929 1_655 S
C746 C748 1.378 . S
C746 C750 1.350 . S
C747 C750 1.463 1_455 S
C747 C752 1.350 . S
C747 N755 1.427 . S
C748 H739 0.930 . S
C748 C746 1.378 . S
C748 C749 1.367 . S
C749 C748 1.367 . S
C749 C751 1.433 . S
C750 C746 1.350 . S
C750 C747 1.463 1_655 S
C750 N754 1.427 . S
C751 H741 0.929 . S
C751 C749 1.433 . S
C751 N754 1.384 . S
C752 H743 0.929 1_455 S
C752 C744 1.378 . S
C752 C747 1.350 . S
C753 H740 0.929 . S
C753 C745 1.433 . S
C753 N755 1.384 . S
N754 C750 1.427 . S
N754 C751 1.384 . S
N755 C747 1.427 . S
N755 C753 1.384 . S
H756 C762 0.930 . S
H757 C766 0.930 . S
H758 C771 0.929 . S
H759 C769 0.929 . S
H760 C764 0.929 . S
H761 C770 0.929 . S
C762 H756 0.930 . S
C762 C763 1.367 . S
C762 C770 1.378 . S
C763 C762 1.367 . S
C763 C771 1.433 . S
C764 H760 0.929 . S
C764 C766 1.378 . S
C764 C768 1.350 . S
C765 C768 1.463 . S
C765 C770 1.350 . S
C765 N773 1.427 . S
C766 H757 0.930 . S
C766 C764 1.378 . S
C766 C767 1.367 . S
C767 C766 1.367 . S
C767 C769 1.433 . S
C768 C764 1.350 . S
C768 C765 1.463 . S
C768 N772 1.427 . S
C769 H759 0.929 . S
C769 C767 1.433 . S
C769 N772 1.384 . S
C770 H761 0.929 . S
C770 C762 1.378 . S
C770 C765 1.350 . S
C771 H758 0.929 . S
C771 C763 1.433 . S
C771 N773 1.384 . S
N772 C768 1.427 . S
N772 C769 1.384 . S
N773 C765 1.427 . S
N773 C771 1.384 . S
H774 C780 0.930 . S
H775 C784 0.930 . S
H776 C789 0.929 . S
H777 C787 0.929 . S
H778 C782 0.929 . S
H779 C788 0.929 . S
C780 H774 0.930 . S
C780 C781 1.367 . S
C780 C788 1.378 . S
C781 C780 1.367 . S
C781 C789 1.433 . S
C782 H778 0.929 . S
C782 C784 1.378 . S
C782 C786 1.350 . S
C783 C786 1.463 . S
C783 C788 1.350 . S
C783 N791 1.427 . S
C784 H775 0.930 . S
C784 C782 1.378 . S
C784 C785 1.367 . S
C785 C784 1.367 . S
C785 C787 1.433 . S
C786 C782 1.350 . S
C786 C783 1.463 . S
C786 N790 1.427 . S
C787 H777 0.929 . S
C787 C785 1.433 . S
C787 N790 1.384 . S
C788 H779 0.929 . S
C788 C780 1.378 . S
C788 C783 1.350 . S
C789 H776 0.929 . S
C789 C781 1.433 . S
C789 N791 1.384 . S
N790 C786 1.427 . S
N790 C787 1.384 . S
N791 C783 1.427 . S
N791 C789 1.384 . S
H792 C798 0.930 . S
H793 C802 0.930 . S
H794 C807 0.929 . S
H795 C805 0.929 . S
H796 C800 0.929 . S
H797 C806 0.929 . S
C798 H792 0.930 . S
C798 C799 1.367 . S
C798 C806 1.378 . S
C799 C798 1.367 . S
C799 C807 1.433 . S
C800 H796 0.929 . S
C800 C802 1.378 . S
C800 C804 1.350 . S
C801 C804 1.463 . S
C801 C806 1.350 . S
C801 N809 1.427 . S
C802 H793 0.930 . S
C802 C800 1.378 . S
C802 C803 1.367 . S
C803 C802 1.367 . S
C803 C805 1.433 . S
C804 C800 1.350 . S
C804 C801 1.463 . S
C804 N808 1.427 . S
C805 H795 0.929 . S
C805 C803 1.433 . S
C805 N808 1.384 . S
C806 H797 0.929 . S
C806 C798 1.378 . S
C806 C801 1.350 . S
C807 H794 0.929 . S
C807 C799 1.433 . S
C807 N809 1.384 . S
N808 C804 1.427 . S
N808 C805 1.384 . S
N809 C801 1.427 . S
N809 C807 1.384 . S
H810 C816 0.930 . S
H811 C820 0.930 . S
H812 C825 0.929 . S
H813 C823 0.929 . S
H814 C818 0.929 . S
H815 C824 0.929 . S
C816 H810 0.930 . S
C816 C817 1.367 . S
C816 C824 1.378 . S
C817 C816 1.367 . S
C817 C825 1.433 . S
C818 H814 0.929 . S
C818 C820 1.378 . S
C818 C822 1.350 . S
C819 C822 1.463 . S
C819 C824 1.350 . S
C819 N827 1.427 . S
C820 H811 0.930 . S
C820 C818 1.378 . S
C820 C821 1.367 . S
C821 C820 1.367 . S
C821 C823 1.433 . S
C822 C818 1.350 . S
C822 C819 1.463 . S
C822 N826 1.427 . S
C823 H813 0.929 . S
C823 C821 1.433 . S
C823 N826 1.384 . S
C824 H815 0.929 . S
C824 C816 1.378 . S
C824 C819 1.350 . S
C825 H812 0.929 . S
C825 C817 1.433 . S
C825 N827 1.384 . S
N826 C822 1.427 . S
N826 C823 1.384 . S
N827 C819 1.427 . S
N827 C825 1.384 . S
H828 C834 0.930 . S
H829 C838 0.930 . S
H830 C843 0.929 . S
H831 C841 0.929 . S
H832 C836 0.929 . S
H833 C842 0.929 . S
C834 H828 0.930 . S
C834 C835 1.367 . S
C834 C842 1.378 . S
C835 C834 1.367 . S
C835 C843 1.433 . S
C836 H832 0.929 . S
C836 C838 1.378 . S
C836 C840 1.350 . S
C837 C840 1.463 . S
C837 C842 1.350 . S
C837 N845 1.427 . S
C838 H829 0.930 . S
C838 C836 1.378 . S
C838 C839 1.367 . S
C839 C838 1.367 . S
C839 C841 1.433 . S
C840 C836 1.350 . S
C840 C837 1.463 . S
C840 N844 1.427 . S
C841 H831 0.929 . S
C841 C839 1.433 . S
C841 N844 1.384 . S
C842 H833 0.929 . S
C842 C834 1.378 . S
C842 C837 1.350 . S
C843 H830 0.929 . S
C843 C835 1.433 . S
C843 N845 1.384 . S
N844 C840 1.427 . S
N844 C841 1.384 . S
N845 C837 1.427 . S
N845 C843 1.384 . S
H846 C852 0.930 . S
H847 C856 0.930 . S
H848 C861 0.929 . S
H849 C859 0.929 . S
H850 C854 0.929 . S
H851 C860 0.929 . S
C852 H846 0.930 . S
C852 C853 1.367 . S
C852 C860 1.378 . S
C853 C852 1.367 . S
C853 C861 1.433 . S
C854 H850 0.929 . S
C854 C856 1.378 . S
C854 C858 1.350 . S
C855 C858 1.463 . S
C855 C860 1.350 . S
C855 N863 1.427 . S
C856 H847 0.930 . S
C856 C854 1.378 . S
C856 C857 1.367 . S
C857 C856 1.367 . S
C857 C859 1.433 . S
C858 C854 1.350 . S
C858 C855 1.463 . S
C858 N862 1.427 . S
C859 H849 0.929 . S
C859 C857 1.433 . S
C859 N862 1.384 . S
C860 H851 0.929 . S
C860 C852 1.378 . S
C860 C855 1.350 . S
C861 H848 0.929 . S
C861 C853 1.433 . S
C861 N863 1.384 . S
N862 C858 1.427 . S
N862 C859 1.384 . S
N863 C855 1.427 . S
N863 C861 1.384 . S
H864 C870 0.930 . S
H865 C874 0.930 . S
H866 C879 0.929 . S
H867 C877 0.929 . S
H868 C872 0.929 . S
H869 C878 0.929 . S
C870 H864 0.930 . S
C870 C871 1.367 . S
C870 C878 1.378 . S
C871 C870 1.367 . S
C871 C879 1.433 . S
C872 H868 0.929 . S
C872 C874 1.378 . S
C872 C876 1.350 . S
C873 C876 1.463 1_654 S
C873 C878 1.350 . S
C873 N881 1.427 . S
C874 H865 0.930 . S
C874 C872 1.378 . S
C874 C875 1.367 . S
C875 C874 1.367 . S
C875 C877 1.433 . S
C876 C872 1.350 . S
C876 C873 1.463 1_456 S
C876 N880 1.427 . S
C877 H867 0.929 . S
C877 C875 1.433 . S
C877 N880 1.384 . S
C878 H869 0.929 . S
C878 C870 1.378 . S
C878 C873 1.350 . S
C879 H866 0.929 . S
C879 C871 1.433 . S
C879 N881 1.384 . S
N880 C876 1.427 . S
N880 C877 1.384 . S
N881 C873 1.427 . S
N881 C879 1.384 . S
H882 C888 0.930 . S
H883 C892 0.930 . S
H884 C897 0.929 . S
H885 C895 0.929 . S
H886 C890 0.929 . S
H887 C896 0.929 . S
C888 H882 0.930 . S
C888 C889 1.367 . S
C888 C896 1.378 . S
C889 C888 1.367 . S
C889 C897 1.433 . S
C890 H886 0.929 . S
C890 C892 1.378 . S
C890 C894 1.350 . S
C891 C894 1.463 1_556 S
C891 C896 1.350 . S
C891 N899 1.427 . S
C892 H883 0.930 . S
C892 C890 1.378 . S
C892 C893 1.367 . S
C893 C892 1.367 . S
C893 C895 1.433 . S
C894 C890 1.350 . S
C894 C891 1.463 1_554 S
C894 N898 1.427 . S
C895 H885 0.929 . S
C895 C893 1.433 . S
C895 N898 1.384 . S
C896 H887 0.929 . S
C896 C888 1.378 . S
C896 C891 1.350 . S
C897 H884 0.929 . S
C897 C889 1.433 . S
C897 N899 1.384 . S
N898 C894 1.427 . S
N898 C895 1.384 . S
N899 C891 1.427 . S
N899 C897 1.384 . S
H900 C906 0.930 . S
H901 C910 0.930 . S
H902 C915 0.929 . S
H903 C913 0.929 . S
H904 C908 0.929 . S
H905 C914 0.929 . S
C906 H900 0.930 . S
C906 C907 1.367 . S
C906 C914 1.378 1_554 S
C907 C906 1.367 . S
C907 C915 1.433 . S
C908 H904 0.929 . S
C908 C910 1.378 1_554 S
C908 C912 1.350 1_554 S
C909 C912 1.463 1_544 S
C909 C914 1.350 1_554 S
C909 N917 1.427 . S
C910 H901 0.930 . S
C910 C908 1.378 1_556 S
C910 C911 1.367 . S
C911 C910 1.367 . S
C911 C913 1.433 . S
C912 C908 1.350 1_556 S
C912 C909 1.463 1_566 S
C912 N916 1.427 . S
C913 H903 0.929 . S
C913 C911 1.433 . S
C913 N916 1.384 . S
C914 H905 0.929 . S
C914 C906 1.378 1_556 S
C914 C909 1.350 1_556 S
C915 H902 0.929 . S
C915 C907 1.433 . S
C915 N917 1.384 . S
N916 C912 1.427 . S
N916 C913 1.384 . S
N917 C909 1.427 . S
N917 C915 1.384 . S
H918 C924 0.930 . S
H919 C928 0.930 . S
H920 C933 0.929 . S
H921 C931 0.929 . S
H922 C926 0.929 . S
H923 C932 0.929 . S
C924 H918 0.930 . S
C924 C925 1.367 . S
C924 C932 1.378 . S
C925 C924 1.367 . S
C925 C933 1.433 . S
C926 H922 0.929 . S
C926 C928 1.378 . S
C926 C930 1.350 . S
C927 C930 1.463 1_454 S
C927 C932 1.350 . S
C927 N935 1.427 . S
C928 H919 0.930 . S
C928 C926 1.378 . S
C928 C929 1.367 . S
C929 C928 1.367 . S
C929 C931 1.433 . S
C930 C926 1.350 . S
C930 C927 1.463 1_656 S
C930 N934 1.427 . S
C931 H921 0.929 . S
C931 C929 1.433 . S
C931 N934 1.384 . S
C932 H923 0.929 . S
C932 C924 1.378 . S
C932 C927 1.350 . S
C933 H920 0.929 . S
C933 C925 1.433 . S
C933 N935 1.384 . S
N934 C930 1.427 . S
N934 C931 1.384 . S
N935 C927 1.427 . S
N935 C933 1.384 . S
H936 C942 0.930 . S
H937 C946 0.930 . S
H938 C951 0.929 . S
H939 C949 0.929 . S
H940 C944 0.929 . S
H941 C950 0.929 . S
C942 H936 0.930 . S
C942 C943 1.367 . S
C942 C950 1.378 . S
C943 C942 1.367 . S
C943 C951 1.433 . S
C944 H940 0.929 . S
C944 C946 1.378 . S
C944 C948 1.350 . S
C945 C948 1.463 1_556 S
C945 C950 1.350 . S
C945 N953 1.427 . S
C946 H937 0.930 . S
C946 C944 1.378 . S
C946 C947 1.367 . S
C947 C946 1.367 . S
C947 C949 1.433 . S
C948 C944 1.350 . S
C948 C945 1.463 1_554 S
C948 N952 1.427 . S
C949 H939 0.929 . S
C949 C947 1.433 . S
C949 N952 1.384 . S
C950 H941 0.929 . S
C950 C942 1.378 . S
C950 C945 1.350 . S
C951 H938 0.929 . S
C951 C943 1.433 . S
C951 N953 1.384 . S
N952 C948 1.427 . S
N952 C949 1.384 . S
N953 C945 1.427 . S
N953 C951 1.384 . S
H954 C960 0.941 . S
H955 C964 0.941 . S
H956 C969 0.929 . S
H957 C967 0.929 . S
H958 C962 0.929 . S
H959 C968 0.929 . S
C960 H954 0.941 . S
C960 C961 1.367 . S
C960 C968 1.378 1_545 S
C961 C960 1.367 . S
C961 C969 1.433 . S
C962 H958 0.929 . S
C962 C964 1.378 1_545 S
C962 C966 1.350 1_545 S
C963 C966 1.463 1_546 S
C963 C968 1.350 1_545 S
C963 N971 1.427 . S
C964 H955 0.941 . S
C964 C962 1.378 1_565 S
C964 C965 1.367 . S
C965 C964 1.367 . S
C965 C967 1.433 . S
C966 C962 1.350 1_565 S
C966 C963 1.463 1_564 S
C966 N970 1.427 . S
C967 H957 0.929 . S
C967 C965 1.433 . S
C967 N970 1.384 . S
C968 H959 0.929 . S
C968 C960 1.378 1_565 S
C968 C963 1.350 1_565 S
C969 H956 0.929 . S
C969 C961 1.433 . S
C969 N971 1.384 . S
N970 C966 1.427 . S
N970 C967 1.384 . S
N971 C963 1.427 . S
N971 C969 1.384 . S
H972 C978 0.930 . S
H973 C982 0.930 . S
H974 C987 0.929 . S
H975 C985 0.929 . S
H976 C980 0.929 . S
H977 C986 0.929 . S
C978 H972 0.930 . S
C978 C979 1.367 . S
C978 C986 1.378 . S
C979 C978 1.367 . S
C979 C987 1.433 . S
C980 H976 0.929 . S
C980 C982 1.378 . S
C980 C984 1.350 . S
C981 C984 1.463 . S
C981 C986 1.350 . S
C981 N989 1.427 . S
C982 H973 0.930 . S
C982 C980 1.378 . S
C982 C983 1.367 . S
C983 C982 1.367 . S
C983 C985 1.433 . S
C984 C980 1.350 . S
C984 C981 1.463 . S
C984 N988 1.427 . S
C985 H975 0.929 . S
C985 C983 1.433 . S
C985 N988 1.384 . S
C986 H977 0.929 . S
C986 C978 1.378 . S
C986 C981 1.350 . S
C987 H974 0.929 . S
C987 C979 1.433 . S
C987 N989 1.384 . S
N988 C984 1.427 . S
N988 C985 1.384 . S
N989 C981 1.427 . S
N989 C987 1.384 . S
H990 C996 0.930 . S
H991 C1000 0.930 . S
H992 C1005 0.929 . S
H993 C1003 0.929 . S
H994 C998 0.929 . S
H995 C1004 0.929 . S
C996 H990 0.930 . S
C996 C997 1.367 . S
C996 C1004 1.378 . S
C997 C996 1.367 . S
C997 C1005 1.433 . S
C998 H994 0.929 . S
C998 C1000 1.378 . S
C998 C1002 1.350 . S
C999 C1002 1.463 . S
C999 C1004 1.350 . S
C999 N1007 1.427 . S
C1000 H991 0.930 . S
C1000 C998 1.378 . S
C1000 C1001 1.367 . S
C1001 C1000 1.367 . S
C1001 C1003 1.433 . S
C1002 C998 1.350 . S
C1002 C999 1.463 . S
C1002 N1006 1.427 . S
C1003 H993 0.929 . S
C1003 C1001 1.433 . S
C1003 N1006 1.384 . S
C1004 H995 0.929 . S
C1004 C996 1.378 . S
C1004 C999 1.350 . S
C1005 H992 0.929 . S
C1005 C997 1.433 . S
C1005 N1007 1.384 . S
N1006 C1002 1.427 . S
N1006 C1003 1.384 . S
N1007 C999 1.427 . S
N1007 C1005 1.384 . S
H1008 C1014 0.930 . S
H1009 C1018 0.930 . S
H1010 C1023 0.929 . S
H1011 C1021 0.929 . S
H1012 C1016 0.929 . S
H1013 C1022 0.929 . S
C1014 H1008 0.930 . S
C1014 C1015 1.367 . S
C1014 C1022 1.378 . S
C1015 C1014 1.367 . S
C1015 C1023 1.433 . S
C1016 H1012 0.929 . S
C1016 C1018 1.378 . S
C1016 C1020 1.350 . S
C1017 C1020 1.463 . S
C1017 C1022 1.350 . S
C1017 N1025 1.427 . S
C1018 H1009 0.930 . S
C1018 C1016 1.378 . S
C1018 C1019 1.367 . S
C1019 C1018 1.367 . S
C1019 C1021 1.433 . S
C1020 C1016 1.350 . S
C1020 C1017 1.463 . S
C1020 N1024 1.427 . S
C1021 H1011 0.929 . S
C1021 C1019 1.433 . S
C1021 N1024 1.384 . S
C1022 H1013 0.929 . S
C1022 C1014 1.378 . S
C1022 C1017 1.350 . S
C1023 H1010 0.929 . S
C1023 C1015 1.433 . S
C1023 N1025 1.384 . S
N1024 C1020 1.427 . S
N1024 C1021 1.384 . S
N1025 C1017 1.427 . S
N1025 C1023 1.384 . S
H1026 C1032 0.930 . S
H1027 C1036 0.930 . S
H1028 C1041 0.929 . S
H1029 C1039 0.929 . S
H1030 C1034 0.929 . S
H1031 C1040 0.929 . S
C1032 H1026 0.930 . S
C1032 C1033 1.367 . S
C1032 C1040 1.378 . S
C1033 C1032 1.367 . S
C1033 C1041 1.433 . S
C1034 H1030 0.929 . S
C1034 C1036 1.378 . S
C1034 C1038 1.350 . S
C1035 C1038 1.463 . S
C1035 C1040 1.350 . S
C1035 N1043 1.427 . S
C1036 H1027 0.930 . S
C1036 C1034 1.378 . S
C1036 C1037 1.367 . S
C1037 C1036 1.367 . S
C1037 C1039 1.433 . S
C1038 C1034 1.350 . S
C1038 C1035 1.463 . S
C1038 N1042 1.427 . S
C1039 H1029 0.929 . S
C1039 C1037 1.433 . S
C1039 N1042 1.384 . S
C1040 H1031 0.929 . S
C1040 C1032 1.378 . S
C1040 C1035 1.350 . S
C1041 H1028 0.929 . S
C1041 C1033 1.433 . S
C1041 N1043 1.384 . S
N1042 C1038 1.427 . S
N1042 C1039 1.384 . S
N1043 C1035 1.427 . S
N1043 C1041 1.384 . S
H1044 C1050 0.930 . S
H1045 C1054 0.930 . S
H1046 C1059 0.929 . S
H1047 C1057 0.929 . S
H1048 C1052 0.929 . S
H1049 C1058 0.929 . S
C1050 H1044 0.930 . S
C1050 C1051 1.367 . S
C1050 C1058 1.378 . S
C1051 C1050 1.367 . S
C1051 C1059 1.433 . S
C1052 H1048 0.929 . S
C1052 C1054 1.378 . S
C1052 C1056 1.350 . S
C1053 C1056 1.463 . S
C1053 C1058 1.350 . S
C1053 N1061 1.427 . S
C1054 H1045 0.930 . S
C1054 C1052 1.378 . S
C1054 C1055 1.367 . S
C1055 C1054 1.367 . S
C1055 C1057 1.433 . S
C1056 C1052 1.350 . S
C1056 C1053 1.463 . S
C1056 N1060 1.427 . S
C1057 H1047 0.929 . S
C1057 C1055 1.433 . S
C1057 N1060 1.384 . S
C1058 H1049 0.929 . S
C1058 C1050 1.378 . S
C1058 C1053 1.350 . S
C1059 H1046 0.929 . S
C1059 C1051 1.433 . S
C1059 N1061 1.384 . S
N1060 C1056 1.427 . S
N1060 C1057 1.384 . S
N1061 C1053 1.427 . S
N1061 C1059 1.384 . S
H1062 C1068 0.930 . S
H1063 C1072 0.930 . S
H1064 C1077 0.929 . S
H1065 C1075 0.929 . S
H1066 C1070 0.929 . S
H1067 C1076 0.929 . S
C1068 H1062 0.930 . S
C1068 C1069 1.367 . S
C1068 C1076 1.378 . S
C1069 C1068 1.367 . S
C1069 C1077 1.433 . S
C1070 H1066 0.929 . S
C1070 C1072 1.378 . S
C1070 C1074 1.350 . S
C1071 C1074 1.463 . S
C1071 C1076 1.350 . S
C1071 N1079 1.427 . S
C1072 H1063 0.930 . S
C1072 C1070 1.378 . S
C1072 C1073 1.367 . S
C1073 C1072 1.367 . S
C1073 C1075 1.433 . S
C1074 C1070 1.350 . S
C1074 C1071 1.463 . S
C1074 N1078 1.427 . S
C1075 H1065 0.929 . S
C1075 C1073 1.433 . S
C1075 N1078 1.384 . S
C1076 H1067 0.929 . S
C1076 C1068 1.378 . S
C1076 C1071 1.350 . S
C1077 H1064 0.929 . S
C1077 C1069 1.433 . S
C1077 N1079 1.384 . S
N1078 C1074 1.427 . S
N1078 C1075 1.384 . S
N1079 C1071 1.427 . S
N1079 C1077 1.384 . S
H1080 C1086 0.930 . S
H1081 C1090 0.930 . S
H1082 C1095 0.929 . S
H1083 C1093 0.929 . S
H1084 C1088 0.929 . S
H1085 C1094 0.929 . S
C1086 H1080 0.930 . S
C1086 C1087 1.367 . S
C1086 C1094 1.378 . S
C1087 C1086 1.367 . S
C1087 C1095 1.433 . S
C1088 H1084 0.929 . S
C1088 C1090 1.378 . S
C1088 C1092 1.350 . S
C1089 C1092 1.463 . S
C1089 C1094 1.350 . S
C1089 N1097 1.427 . S
C1090 H1081 0.930 . S
C1090 C1088 1.378 . S
C1090 C1091 1.367 . S
C1091 C1090 1.367 . S
C1091 C1093 1.433 . S
C1092 C1088 1.350 . S
C1092 C1089 1.463 . S
C1092 N1096 1.427 . S
C1093 H1083 0.929 . S
C1093 C1091 1.433 . S
C1093 N1096 1.384 . S
C1094 H1085 0.929 . S
C1094 C1086 1.378 . S
C1094 C1089 1.350 . S
C1095 H1082 0.929 . S
C1095 C1087 1.433 . S
C1095 N1097 1.384 . S
N1096 C1092 1.427 . S
N1096 C1093 1.384 . S
N1097 C1089 1.427 . S
N1097 C1095 1.384 . S
H1098 C1104 0.930 . S
H1099 C1108 0.930 . S
H1100 C1113 0.929 . S
H1101 C1111 0.929 . S
H1102 C1106 0.929 1_545 S
H1103 C1112 0.929 . S
C1104 H1098 0.930 . S
C1104 C1105 1.367 . S
C1104 C1112 1.378 . S
C1105 C1104 1.367 . S
C1105 C1113 1.433 . S
C1106 H1102 0.929 1_565 S
C1106 C1108 1.378 . S
C1106 C1110 1.350 1_565 S
C1107 C1110 1.463 . S
C1107 C1112 1.350 . S
C1107 N1115 1.427 . S
C1108 H1099 0.930 . S
C1108 C1106 1.378 . S
C1108 C1109 1.367 . S
C1109 C1108 1.367 . S
C1109 C1111 1.433 . S
C1110 C1106 1.350 1_545 S
C1110 C1107 1.463 . S
C1110 N1114 1.427 1_545 S
C1111 H1101 0.929 . S
C1111 C1109 1.433 . S
C1111 N1114 1.384 . S
C1112 H1103 0.929 . S
C1112 C1104 1.378 . S
C1112 C1107 1.350 . S
C1113 H1100 0.929 . S
C1113 C1105 1.433 . S
C1113 N1115 1.384 . S
N1114 C1110 1.427 1_565 S
N1114 C1111 1.384 . S
N1115 C1107 1.427 . S
N1115 C1113 1.384 . S
H1116 C1122 0.930 . S
H1117 C1126 0.930 . S
H1118 C1131 0.929 . S
H1119 C1129 0.929 . S
H1120 C1124 0.929 . S
H1121 C1130 0.929 . S
C1122 H1116 0.930 . S
C1122 C1123 1.367 . S
C1122 C1130 1.378 . S
C1123 C1122 1.367 . S
C1123 C1131 1.433 . S
C1124 H1120 0.929 . S
C1124 C1126 1.378 1_655 S
C1124 C1128 1.350 . S
C1125 C1128 1.463 . S
C1125 C1130 1.350 . S
C1125 N1133 1.427 . S
C1126 H1117 0.930 . S
C1126 C1124 1.378 1_455 S
C1126 C1127 1.367 . S
C1127 C1126 1.367 . S
C1127 C1129 1.433 . S
C1128 C1124 1.350 . S
C1128 C1125 1.463 . S
C1128 N1132 1.427 1_655 S
C1129 H1119 0.929 . S
C1129 C1127 1.433 . S
C1129 N1132 1.384 . S
C1130 H1121 0.929 . S
C1130 C1122 1.378 . S
C1130 C1125 1.350 . S
C1131 H1118 0.929 . S
C1131 C1123 1.433 . S
C1131 N1133 1.384 . S
N1132 C1128 1.427 1_455 S
N1132 C1129 1.384 . S
N1133 C1125 1.427 . S
N1133 C1131 1.384 . S
H1134 C1140 0.930 . S
H1135 C1144 0.930 . S
H1136 C1149 0.929 . S
H1137 C1147 0.929 . S
H1138 C1142 0.929 . S
H1139 C1148 0.929 . S
C1140 H1134 0.930 . S
C1140 C1141 1.367 . S
C1140 C1148 1.378 . S
C1141 C1140 1.367 . S
C1141 C1149 1.433 . S
C1142 H1138 0.929 . S
C1142 C1144 1.378 . S
C1142 C1146 1.350 . S
C1143 C1146 1.463 . S
C1143 C1148 1.350 . S
C1143 N1151 1.427 . S
C1144 H1135 0.930 . S
C1144 C1142 1.378 . S
C1144 C1145 1.367 . S
C1145 C1144 1.367 . S
C1145 C1147 1.433 . S
C1146 C1142 1.350 . S
C1146 C1143 1.463 . S
C1146 N1150 1.427 . S
C1147 H1137 0.929 . S
C1147 C1145 1.433 . S
C1147 N1150 1.384 . S
C1148 H1139 0.929 . S
C1148 C1140 1.378 . S
C1148 C1143 1.350 . S
C1149 H1136 0.929 . S
C1149 C1141 1.433 . S
C1149 N1151 1.384 . S
N1150 C1146 1.427 . S
N1150 C1147 1.384 . S
N1151 C1143 1.427 . S
N1151 C1149 1.384 . S
H1152 C1158 0.930 . S
H1153 C1162 0.930 . S
H1154 C1167 0.929 . S
H1155 C1165 0.929 . S
H1156 C1160 0.929 . S
H1157 C1166 0.929 1_565 S
C1158 H1152 0.930 . S
C1158 C1159 1.367 . S
C1158 C1166 1.378 . S
C1159 C1158 1.367 . S
C1159 C1167 1.433 . S
C1160 H1156 0.929 . S
C1160 C1162 1.378 . S
C1160 C1164 1.350 . S
C1161 C1164 1.463 . S
C1161 C1166 1.350 1_565 S
C1161 N1169 1.427 . S
C1162 H1153 0.930 . S
C1162 C1160 1.378 . S
C1162 C1163 1.367 . S
C1163 C1162 1.367 . S
C1163 C1165 1.433 . S
C1164 C1160 1.350 . S
C1164 C1161 1.463 . S
C1164 N1168 1.427 . S
C1165 H1155 0.929 . S
C1165 C1163 1.433 . S
C1165 N1168 1.384 . S
C1166 H1157 0.929 1_545 S
C1166 C1158 1.378 . S
C1166 C1161 1.350 1_545 S
C1167 H1154 0.929 . S
C1167 C1159 1.433 . S
C1167 N1169 1.384 1_545 S
N1168 C1164 1.427 . S
N1168 C1165 1.384 . S
N1169 C1161 1.427 . S
N1169 C1167 1.384 1_565 S
H1170 C1176 0.930 . S
H1171 C1180 0.930 . S
H1172 C1185 0.929 . S
H1173 C1183 0.929 . S
H1174 C1178 0.958 . S
H1175 C1184 0.929 . S
C1176 H1170 0.930 . S
C1176 C1177 1.367 . S
C1176 C1184 1.378 . S
C1177 C1176 1.367 . S
C1177 C1185 1.433 . S
C1178 H1174 0.958 . S
C1178 C1180 1.351 1_455 S
C1178 C1182 1.348 . S
C1179 C1182 1.463 . S
C1179 C1184 1.350 . S
C1179 N1187 1.427 . S
C1180 H1171 0.930 . S
C1180 C1178 1.351 1_655 S
C1180 C1181 1.367 . S
C1181 C1180 1.367 . S
C1181 C1183 1.433 . S
C1182 C1178 1.348 . S
C1182 C1179 1.463 . S
C1182 N1186 1.427 1_455 S
C1183 H1173 0.929 . S
C1183 C1181 1.433 . S
C1183 N1186 1.384 . S
C1184 H1175 0.929 . S
C1184 C1176 1.378 . S
C1184 C1179 1.350 . S
C1185 H1172 0.929 . S
C1185 C1177 1.433 . S
C1185 N1187 1.384 . S
N1186 C1182 1.427 1_655 S
N1186 C1183 1.384 . S
N1187 C1179 1.427 . S
N1187 C1185 1.384 . S
H1188 C1194 0.930 . S
H1189 C1198 0.930 . S
H1190 C1203 0.929 . S
H1191 C1201 0.929 . S
H1192 C1196 0.929 . S
H1193 C1202 0.929 . S
C1194 H1188 0.930 . S
C1194 C1195 1.367 . S
C1194 C1202 1.378 . S
C1195 C1194 1.367 . S
C1195 C1203 1.433 . S
C1196 H1192 0.929 . S
C1196 C1198 1.378 . S
C1196 C1200 1.350 . S
C1197 C1200 1.463 . S
C1197 C1202 1.350 . S
C1197 N1205 1.427 . S
C1198 H1189 0.930 . S
C1198 C1196 1.378 . S
C1198 C1199 1.367 . S
C1199 C1198 1.367 . S
C1199 C1201 1.433 . S
C1200 C1196 1.350 . S
C1200 C1197 1.463 . S
C1200 N1204 1.427 . S
C1201 H1191 0.929 . S
C1201 C1199 1.433 . S
C1201 N1204 1.384 . S
C1202 H1193 0.929 . S
C1202 C1194 1.378 . S
C1202 C1197 1.350 . S
C1203 H1190 0.929 . S
C1203 C1195 1.433 . S
C1203 N1205 1.384 . S
N1204 C1200 1.427 . S
N1204 C1201 1.384 . S
N1205 C1197 1.427 . S
N1205 C1203 1.384 . S
H1206 C1212 0.930 . S
H1207 C1216 0.930 . S
H1208 C1221 0.929 . S
H1209 C1219 0.929 . S
H1210 C1214 0.929 . S
H1211 C1220 0.929 . S
C1212 H1206 0.930 . S
C1212 C1213 1.367 . S
C1212 C1220 1.378 . S
C1213 C1212 1.367 . S
C1213 C1221 1.433 . S
C1214 H1210 0.929 . S
C1214 C1216 1.378 . S
C1214 C1218 1.350 . S
C1215 C1218 1.463 . S
C1215 C1220 1.350 . S
C1215 N1223 1.427 . S
C1216 H1207 0.930 . S
C1216 C1214 1.378 . S
C1216 C1217 1.367 . S
C1217 C1216 1.367 . S
C1217 C1219 1.433 . S
C1218 C1214 1.350 . S
C1218 C1215 1.463 . S
C1218 N1222 1.427 . S
C1219 H1209 0.929 . S
C1219 C1217 1.433 . S
C1219 N1222 1.384 . S
C1220 H1211 0.929 . S
C1220 C1212 1.378 . S
C1220 C1215 1.350 . S
C1221 H1208 0.929 . S
C1221 C1213 1.433 . S
C1221 N1223 1.384 . S
N1222 C1218 1.427 . S
N1222 C1219 1.384 . S
N1223 C1215 1.427 . S
N1223 C1221 1.384 . S
H1224 C1230 0.930 . S
H1225 C1234 0.930 . S
H1226 C1239 0.929 . S
H1227 C1237 0.929 . S
H1228 C1232 0.929 . S
H1229 C1238 0.929 . S
C1230 H1224 0.930 . S
C1230 C1231 1.367 . S
C1230 C1238 1.378 . S
C1231 C1230 1.367 . S
C1231 C1239 1.433 . S
C1232 H1228 0.929 . S
C1232 C1234 1.378 . S
C1232 C1236 1.350 . S
C1233 C1236 1.463 . S
C1233 C1238 1.350 . S
C1233 N1241 1.427 . S
C1234 H1225 0.930 . S
C1234 C1232 1.378 . S
C1234 C1235 1.367 . S
C1235 C1234 1.367 . S
C1235 C1237 1.433 . S
C1236 C1232 1.350 . S
C1236 C1233 1.463 . S
C1236 N1240 1.427 . S
C1237 H1227 0.929 . S
C1237 C1235 1.433 . S
C1237 N1240 1.384 . S
C1238 H1229 0.929 . S
C1238 C1230 1.378 . S
C1238 C1233 1.350 . S
C1239 H1226 0.929 . S
C1239 C1231 1.433 . S
C1239 N1241 1.384 . S
N1240 C1236 1.427 . S
N1240 C1237 1.384 . S
N1241 C1233 1.427 . S
N1241 C1239 1.384 . S
H1242 C1248 0.930 . S
H1243 C1252 0.930 . S
H1244 C1257 0.929 . S
H1245 C1255 0.929 . S
H1246 C1250 0.929 . S
H1247 C1256 0.929 . S
C1248 H1242 0.930 . S
C1248 C1249 1.367 . S
C1248 C1256 1.378 . S
C1249 C1248 1.367 . S
C1249 C1257 1.433 . S
C1250 H1246 0.929 . S
C1250 C1252 1.378 . S
C1250 C1254 1.350 . S
C1251 C1254 1.463 . S
C1251 C1256 1.350 . S
C1251 N1259 1.427 . S
C1252 H1243 0.930 . S
C1252 C1250 1.378 . S
C1252 C1253 1.367 . S
C1253 C1252 1.367 . S
C1253 C1255 1.433 . S
C1254 C1250 1.350 . S
C1254 C1251 1.463 . S
C1254 N1258 1.427 . S
C1255 H1245 0.929 . S
C1255 C1253 1.433 . S
C1255 N1258 1.384 . S
C1256 H1247 0.929 . S
C1256 C1248 1.378 . S
C1256 C1251 1.350 . S
C1257 H1244 0.929 . S
C1257 C1249 1.433 . S
C1257 N1259 1.384 . S
N1258 C1254 1.427 . S
N1258 C1255 1.384 . S
N1259 C1251 1.427 . S
N1259 C1257 1.384 . S
H1260 C1266 0.930 . S
H1261 C1270 0.930 . S
H1262 C1275 0.929 . S
H1263 C1273 0.929 . S
H1264 C1268 0.929 . S
H1265 C1274 0.929 . S
C1266 H1260 0.930 . S
C1266 C1267 1.367 . S
C1266 C1274 1.378 . S
C1267 C1266 1.367 . S
C1267 C1275 1.433 . S
C1268 H1264 0.929 . S
C1268 C1270 1.378 . S
C1268 C1272 1.350 . S
C1269 C1272 1.463 . S
C1269 C1274 1.350 . S
C1269 N1277 1.427 . S
C1270 H1261 0.930 . S
C1270 C1268 1.378 . S
C1270 C1271 1.367 . S
C1271 C1270 1.367 . S
C1271 C1273 1.433 . S
C1272 C1268 1.350 . S
C1272 C1269 1.463 . S
C1272 N1276 1.427 . S
C1273 H1263 0.929 . S
C1273 C1271 1.433 . S
C1273 N1276 1.384 . S
C1274 H1265 0.929 . S
C1274 C1266 1.378 . S
C1274 C1269 1.350 . S
C1275 H1262 0.929 . S
C1275 C1267 1.433 . S
C1275 N1277 1.384 . S
N1276 C1272 1.427 . S
N1276 C1273 1.384 . S
N1277 C1269 1.427 . S
N1277 C1275 1.384 . S
H1278 C1284 0.930 . S
H1279 C1288 0.930 . S
H1280 C1293 0.929 . S
H1281 C1291 0.929 . S
H1282 C1286 0.929 . S
H1283 C1292 0.929 . S
C1284 H1278 0.930 . S
C1284 C1285 1.367 . S
C1284 C1292 1.378 . S
C1285 C1284 1.367 . S
C1285 C1293 1.433 . S
C1286 H1282 0.929 . S
C1286 C1288 1.378 . S
C1286 C1290 1.350 . S
C1287 C1290 1.463 . S
C1287 C1292 1.350 . S
C1287 N1295 1.427 . S
C1288 H1279 0.930 . S
C1288 C1286 1.378 . S
C1288 C1289 1.367 . S
C1289 C1288 1.367 . S
C1289 C1291 1.433 . S
C1290 C1286 1.350 . S
C1290 C1287 1.463 . S
C1290 N1294 1.427 . S
C1291 H1281 0.929 . S
C1291 C1289 1.433 . S
C1291 N1294 1.384 . S
C1292 H1283 0.929 . S
C1292 C1284 1.378 . S
C1292 C1287 1.350 . S
C1293 H1280 0.929 . S
C1293 C1285 1.433 . S
C1293 N1295 1.384 . S
N1294 C1290 1.427 . S
N1294 C1291 1.384 . S
N1295 C1287 1.427 . S
N1295 C1293 1.384 . S
H1296 C1302 0.930 . S
H1297 C1306 0.930 . S
H1298 C1311 0.929 . S
H1299 C1309 0.929 . S
H1300 C1304 0.929 . S
H1301 C1310 0.929 . S
C1302 H1296 0.930 . S
C1302 C1303 1.367 . S
C1302 C1310 1.378 . S
C1303 C1302 1.367 . S
C1303 C1311 1.433 . S
C1304 H1300 0.929 . S
C1304 C1306 1.378 . S
C1304 C1308 1.350 . S
C1305 C1308 1.463 . S
C1305 C1310 1.350 . S
C1305 N1313 1.427 . S
C1306 H1297 0.930 . S
C1306 C1304 1.378 . S
C1306 C1307 1.367 . S
C1307 C1306 1.367 . S
C1307 C1309 1.433 . S
C1308 C1304 1.350 . S
C1308 C1305 1.463 . S
C1308 N1312 1.427 . S
C1309 H1299 0.929 . S
C1309 C1307 1.433 . S
C1309 N1312 1.384 . S
C1310 H1301 0.929 . S
C1310 C1302 1.378 . S
C1310 C1305 1.350 . S
C1311 H1298 0.929 . S
C1311 C1303 1.433 . S
C1311 N1313 1.384 . S
N1312 C1308 1.427 . S
N1312 C1309 1.384 . S
N1313 C1305 1.427 . S
N1313 C1311 1.384 . S
H1314 C1320 0.930 . S
H1315 C1324 0.930 . S
H1316 C1329 0.929 . S
H1317 C1327 0.929 . S
H1318 C1322 0.929 . S
H1319 C1328 0.929 . S
C1320 H1314 0.930 . S
C1320 C1321 1.367 . S
C1320 C1328 1.378 . S
C1321 C1320 1.367 . S
C1321 C1329 1.433 . S
C1322 H1318 0.929 . S
C1322 C1324 1.378 . S
C1322 C1326 1.350 . S
C1323 C1326 1.463 . S
C1323 C1328 1.350 . S
C1323 N1331 1.427 . S
C1324 H1315 0.930 . S
C1324 C1322 1.378 . S
C1324 C1325 1.367 . S
C1325 C1324 1.367 . S
C1325 C1327 1.433 . S
C1326 C1322 1.350 . S
C1326 C1323 1.463 . S
C1326 N1330 1.427 . S
C1327 H1317 0.929 . S
C1327 C1325 1.433 . S
C1327 N1330 1.384 . S
C1328 H1319 0.929 . S
C1328 C1320 1.378 . S
C1328 C1323 1.350 . S
C1329 H1316 0.929 . S
C1329 C1321 1.433 . S
C1329 N1331 1.384 . S
N1330 C1326 1.427 . S
N1330 C1327 1.384 . S
N1331 C1323 1.427 . S
N1331 C1329 1.384 . S
H1332 C1338 0.930 . S
H1333 C1342 0.930 . S
H1334 C1347 0.929 . S
H1335 C1345 0.929 . S
H1336 C1340 0.929 . S
H1337 C1346 0.929 . S
C1338 H1332 0.930 . S
C1338 C1339 1.367 . S
C1338 C1346 1.378 . S
C1339 C1338 1.367 . S
C1339 C1347 1.433 . S
C1340 H1336 0.929 . S
C1340 C1342 1.378 . S
C1340 C1344 1.350 . S
C1341 C1344 1.463 . S
C1341 C1346 1.350 . S
C1341 N1349 1.427 . S
C1342 H1333 0.930 . S
C1342 C1340 1.378 . S
C1342 C1343 1.367 . S
C1343 C1342 1.367 . S
C1343 C1345 1.433 . S
C1344 C1340 1.350 . S
C1344 C1341 1.463 . S
C1344 N1348 1.427 . S
C1345 H1335 0.929 . S
C1345 C1343 1.433 . S
C1345 N1348 1.384 . S
C1346 H1337 0.929 . S
C1346 C1338 1.378 . S
C1346 C1341 1.350 . S
C1347 H1334 0.929 . S
C1347 C1339 1.433 . S
C1347 N1349 1.384 . S
N1348 C1344 1.427 . S
N1348 C1345 1.384 . S
N1349 C1341 1.427 . S
N1349 C1347 1.384 . S
H1350 C1356 0.930 . S
H1351 C1360 0.930 . S
H1352 C1365 0.929 . S
H1353 C1363 0.929 . S
H1354 C1358 0.929 . S
H1355 C1364 0.929 . S
C1356 H1350 0.930 . S
C1356 C1357 1.367 . S
C1356 C1364 1.378 . S
C1357 C1356 1.367 . S
C1357 C1365 1.433 . S
C1358 H1354 0.929 . S
C1358 C1360 1.378 . S
C1358 C1362 1.350 . S
C1359 C1362 1.463 . S
C1359 C1364 1.350 . S
C1359 N1367 1.427 . S
C1360 H1351 0.930 . S
C1360 C1358 1.378 . S
C1360 C1361 1.367 . S
C1361 C1360 1.367 . S
C1361 C1363 1.433 . S
C1362 C1358 1.350 . S
C1362 C1359 1.463 . S
C1362 N1366 1.427 . S
C1363 H1353 0.929 . S
C1363 C1361 1.433 . S
C1363 N1366 1.384 . S
C1364 H1355 0.929 . S
C1364 C1356 1.378 . S
C1364 C1359 1.350 . S
C1365 H1352 0.929 . S
C1365 C1357 1.433 . S
C1365 N1367 1.384 . S
N1366 C1362 1.427 . S
N1366 C1363 1.384 . S
N1367 C1359 1.427 . S
N1367 C1365 1.384 . S
H1368 C1374 0.930 . S
H1369 C1378 0.930 . S
H1370 C1383 0.929 . S
H1371 C1381 0.929 . S
H1372 C1376 0.929 . S
H1373 C1382 0.929 . S
C1374 H1368 0.930 . S
C1374 C1375 1.367 . S
C1374 C1382 1.378 . S
C1375 C1374 1.367 . S
C1375 C1383 1.433 . S
C1376 H1372 0.929 . S
C1376 C1378 1.378 . S
C1376 C1380 1.350 . S
C1377 C1380 1.463 . S
C1377 C1382 1.350 . S
C1377 N1385 1.427 . S
C1378 H1369 0.930 . S
C1378 C1376 1.378 . S
C1378 C1379 1.367 . S
C1379 C1378 1.367 . S
C1379 C1381 1.433 . S
C1380 C1376 1.350 . S
C1380 C1377 1.463 . S
C1380 N1384 1.427 . S
C1381 H1371 0.929 . S
C1381 C1379 1.433 . S
C1381 N1384 1.384 . S
C1382 H1373 0.929 . S
C1382 C1374 1.378 . S
C1382 C1377 1.350 . S
C1383 H1370 0.929 . S
C1383 C1375 1.433 . S
C1383 N1385 1.384 . S
N1384 C1380 1.427 . S
N1384 C1381 1.384 . S
N1385 C1377 1.427 . S
N1385 C1383 1.384 . S
H1386 C1392 0.930 . S
H1387 C1396 0.930 . S
H1388 C1401 0.929 . S
H1389 C1399 0.929 . S
H1390 C1394 0.929 . S
H1391 C1400 0.929 . S
C1392 H1386 0.930 . S
C1392 C1393 1.367 . S
C1392 C1400 1.378 . S
C1393 C1392 1.367 . S
C1393 C1401 1.433 . S
C1394 H1390 0.929 . S
C1394 C1396 1.378 . S
C1394 C1398 1.350 . S
C1395 C1398 1.463 . S
C1395 C1400 1.350 . S
C1395 N1403 1.427 . S
C1396 H1387 0.930 . S
C1396 C1394 1.378 . S
C1396 C1397 1.367 . S
C1397 C1396 1.367 . S
C1397 C1399 1.433 . S
C1398 C1394 1.350 . S
C1398 C1395 1.463 . S
C1398 N1402 1.427 . S
C1399 H1389 0.929 . S
C1399 C1397 1.433 . S
C1399 N1402 1.384 . S
C1400 H1391 0.929 . S
C1400 C1392 1.378 . S
C1400 C1395 1.350 . S
C1401 H1388 0.929 . S
C1401 C1393 1.433 . S
C1401 N1403 1.384 . S
N1402 C1398 1.427 . S
N1402 C1399 1.384 . S
N1403 C1395 1.427 . S
N1403 C1401 1.384 . S
C601 N302 0.875 . S
C605 N5 0.866 . S
C619 N335 0.890 . S
C623 N38 0.877 . S
C637 N368 0.876 . S
C641 N71 0.890 . S
C655 N104 0.873 . S
C659 N401 0.865 . S
C673 N434 0.865 . S
C677 N137 0.872 . S
C691 N467 0.875 . S
C695 N170 0.866 . S
C709 N203 0.869 . S
C713 N500 0.883 . S
C727 N533 0.891 . S
C731 N236 0.888 . S
C745 N566 0.884 . S
C749 N269 0.892 . S
C763 C589 1.865 . S
C767 C28 1.866 . S
C781 C523 1.865 . S
C785 C61 1.865 . S
C799 C94 1.866 . S
C803 C556 1.868 . S
C817 C259 1.865 . S
C821 C127 1.867 . S
C835 C292 1.866 . S
C839 C160 1.868 . S
C853 C193 1.865 . S
C857 C226 1.865 . S
C871 C325 1.868 . S
C875 C457 1.865 . S
C889 C490 1.867 . S
C893 C358 1.865 . S
C907 C391 1.868 . S
C911 C424 1.866 . S
C925 C17 1.335 . S
C929 C149 1.336 . S
C943 C182 1.334 . S
C947 C50 1.335 . S
C961 C116 1.326 . S
C965 C83 1.327 . S
C979 C347 1.335 . S
C983 C215 1.335 . S
C997 C248 1.336 . S
C1001 C380 1.337 . S
C1015 C314 1.325 . S
C1019 C281 1.325 . S
C1033 C413 1.343 . S
C1037 C545 1.343 . S
C1051 C578 1.325 . S
C1055 C446 1.326 . S
C1069 C479 1.341 . S
C1073 C512 1.341 . S
C1087 C74 1.151 . S
C1091 N14 1.167 . S
C1105 C8 1.136 . S
C1109 N47 1.172 . S
C1123 C41 1.141 . S
C1127 N80 1.168 . S
C1141 C140 1.152 . S
C1145 N113 1.167 . S
C1159 N146 1.174 . S
C1163 C173 1.140 . S
C1177 C107 1.139 . S
C1181 N179 1.169 . S
C1195 C272 1.151 . S
C1199 N212 1.172 . S
C1213 C206 1.137 . S
C1217 N245 1.170 . S
C1231 N278 1.174 . S
C1235 C239 1.144 . S
C1249 N311 1.174 . S
C1253 C338 1.146 . S
C1267 C371 1.153 . S
C1271 N344 1.170 . S
C1285 C305 1.137 . S
C1289 N377 1.170 . S
C1303 N410 1.173 . S
C1307 C470 1.148 . S
C1321 C404 1.154 . S
C1325 N443 1.168 . S
C1339 C437 1.137 . S
C1343 N476 1.173 . S
C1357 C536 1.140 . S
C1361 N509 1.169 . S
C1375 C569 1.137 . S
C1379 N542 1.170 . S
C1393 C503 1.149 . S
C1397 N575 1.173 . S
