# Generated by pormake.
# Topology ghw, (5)-cn, num edge types: 1
# Building blocks:
#     Node 0, Type 0, BuildingBlock: XOMCOT_clean_sbu_1, # of connection points: 5
#     Node 1, Type 0, BuildingBlock: XOMCOT_clean_sbu_1, # of connection points: 5
#     Node 2, Type 0, BuildingBlock: XOMCOT_clean_sbu_1, # of connection points: 5
#     Node 3, Type 0, BuildingBlock: XOMCOT_clean_sbu_1, # of connection points: 5
#     Node 4, Type 0, BuildingBlock: XOMCOT_clean_sbu_1, # of connection points: 5
#     Node 5, Type 0, BuildingBlock: XOMCOT_clean_sbu_1, # of connection points: 5
#     Node 6, Type 0, BuildingBlock: XOMCOT_clean_sbu_1, # of connection points: 5
#     Node 7, Type 0, BuildingBlock: XOMCOT_clean_sbu_1, # of connection points: 5
#     Node 8, Type 0, BuildingBlock: XOMCOT_clean_sbu_1, # of connection points: 5
#     Node 9, Type 0, BuildingBlock: XOMCOT_clean_sbu_1, # of connection points: 5
#     Node 10, Type 0, BuildingBlock: XOMCOT_clean_sbu_1, # of connection points: 5
#     Node 11, Type 0, BuildingBlock: XOMCOT_clean_sbu_1, # of connection points: 5
#     Node 12, Type 0, BuildingBlock: XOMCOT_clean_sbu_1, # of connection points: 5
#     Node 13, Type 0, BuildingBlock: XOMCOT_clean_sbu_1, # of connection points: 5
#     Node 14, Type 0, BuildingBlock: XOMCOT_clean_sbu_1, # of connection points: 5
#     Node 15, Type 0, BuildingBlock: XOMCOT_clean_sbu_1, # of connection points: 5
#     Edge 16, Type (0, 0), BuildingBlock: MIFKUJ_clean_linker_0, # of connection points: 2
#     Edge 17, Type (0, 0), BuildingBlock: MIFKUJ_clean_linker_0, # of connection points: 2
#     Edge 18, Type (0, 0), BuildingBlock: MIFKUJ_clean_linker_0, # of connection points: 2
#     Edge 19, Type (0, 0), BuildingBlock: MIFKUJ_clean_linker_0, # of connection points: 2
#     Edge 20, Type (0, 0), BuildingBlock: MIFKUJ_clean_linker_0, # of connection points: 2
#     Edge 21, Type (0, 0), BuildingBlock: MIFKUJ_clean_linker_0, # of connection points: 2
#     Edge 22, Type (0, 0), BuildingBlock: MIFKUJ_clean_linker_0, # of connection points: 2
#     Edge 23, Type (0, 0), BuildingBlock: MIFKUJ_clean_linker_0, # of connection points: 2
#     Edge 24, Type (0, 0), BuildingBlock: MIFKUJ_clean_linker_0, # of connection points: 2
#     Edge 25, Type (0, 0), BuildingBlock: MIFKUJ_clean_linker_0, # of connection points: 2
#     Edge 26, Type (0, 0), BuildingBlock: MIFKUJ_clean_linker_0, # of connection points: 2
#     Edge 27, Type (0, 0), BuildingBlock: MIFKUJ_clean_linker_0, # of connection points: 2
#     Edge 28, Type (0, 0), BuildingBlock: MIFKUJ_clean_linker_0, # of connection points: 2
#     Edge 29, Type (0, 0), BuildingBlock: MIFKUJ_clean_linker_0, # of connection points: 2
#     Edge 30, Type (0, 0), BuildingBlock: MIFKUJ_clean_linker_0, # of connection points: 2
#     Edge 31, Type (0, 0), BuildingBlock: MIFKUJ_clean_linker_0, # of connection points: 2
#     Edge 32, Type (0, 0), BuildingBlock: MIFKUJ_clean_linker_0, # of connection points: 2
#     Edge 33, Type (0, 0), BuildingBlock: MIFKUJ_clean_linker_0, # of connection points: 2
#     Edge 34, Type (0, 0), BuildingBlock: MIFKUJ_clean_linker_0, # of connection points: 2
#     Edge 35, Type (0, 0), BuildingBlock: MIFKUJ_clean_linker_0, # of connection points: 2
#     Edge 36, Type (0, 0), BuildingBlock: MIFKUJ_clean_linker_0, # of connection points: 2
#     Edge 37, Type (0, 0), BuildingBlock: MIFKUJ_clean_linker_0, # of connection points: 2
#     Edge 38, Type (0, 0), BuildingBlock: MIFKUJ_clean_linker_0, # of connection points: 2
#     Edge 39, Type (0, 0), BuildingBlock: MIFKUJ_clean_linker_0, # of connection points: 2
#     Edge 40, Type (0, 0), BuildingBlock: MIFKUJ_clean_linker_0, # of connection points: 2
#     Edge 41, Type (0, 0), BuildingBlock: MIFKUJ_clean_linker_0, # of connection points: 2
#     Edge 42, Type (0, 0), BuildingBlock: MIFKUJ_clean_linker_0, # of connection points: 2
#     Edge 43, Type (0, 0), BuildingBlock: MIFKUJ_clean_linker_0, # of connection points: 2
#     Edge 44, Type (0, 0), BuildingBlock: MIFKUJ_clean_linker_0, # of connection points: 2
#     Edge 45, Type (0, 0), BuildingBlock: MIFKUJ_clean_linker_0, # of connection points: 2
#     Edge 46, Type (0, 0), BuildingBlock: MIFKUJ_clean_linker_0, # of connection points: 2
#     Edge 47, Type (0, 0), BuildingBlock: MIFKUJ_clean_linker_0, # of connection points: 2
#     Edge 48, Type (0, 0), BuildingBlock: MIFKUJ_clean_linker_0, # of connection points: 2
#     Edge 49, Type (0, 0), BuildingBlock: MIFKUJ_clean_linker_0, # of connection points: 2
#     Edge 50, Type (0, 0), BuildingBlock: MIFKUJ_clean_linker_0, # of connection points: 2
#     Edge 51, Type (0, 0), BuildingBlock: MIFKUJ_clean_linker_0, # of connection points: 2
#     Edge 52, Type (0, 0), BuildingBlock: MIFKUJ_clean_linker_0, # of connection points: 2
#     Edge 53, Type (0, 0), BuildingBlock: MIFKUJ_clean_linker_0, # of connection points: 2
#     Edge 54, Type (0, 0), BuildingBlock: MIFKUJ_clean_linker_0, # of connection points: 2
#     Edge 55, Type (0, 0), BuildingBlock: MIFKUJ_clean_linker_0, # of connection points: 2
# Relax obj value: 0.197
# Max RMSD: 0.207
# Mean RMSD: 0.207
data_MOF--net-ghw--node1-XOMCOT_clean_sbu_1--edge1-MIFKUJ_clean_linker_0
_symmetry_space_group_name_H-M    P1
_symmetry_Int_Tables_number       1
_symmetry_cell_setting            triclinic
loop_
_symmetry_equiv_pos_as_xyz
'x, y, z'
_cell_length_a     41.335895
_cell_length_b     55.573171
_cell_length_c     43.540001
_cell_angle_alpha  89.87796
_cell_angle_beta   92.667196
_cell_angle_gamma 90.074043
loop_
_atom_site_label
_atom_site_type_symbol
_atom_site_fract_x
_atom_site_fract_y
_atom_site_fract_z
_atom_type_partial_charge
C0 C 0.14896 0.08235 0.35943 0.0
C1 C 0.17768 0.07003 0.3573 0.0
N2 N 0.19982 0.07988 0.37723 0.0
N3 N 0.15307 0.10005 0.38037 0.0
C4 C 0.18407 0.09774 0.39129 0.0
H5 H 0.12709 0.07958 0.34528 0.0
Co6 Co 0.12344 0.12467 0.38712 0.0
C7 C 0.17607 0.16155 0.40484 0.0
O8 O 0.17619 0.17013 0.37681 0.0
N9 N 0.09373 0.14963 0.39473 0.0
C10 C 0.07062 0.18583 0.3961 0.0
C11 C 0.09858 0.17355 0.391 0.0
C12 C 0.0625 0.14799 0.40254 0.0
N13 N 0.0481 0.16971 0.40347 0.0
O14 O 0.11076 0.1079 0.42411 0.0
H15 H 0.12021 0.18173 0.38299 0.0
H16 H 0.04977 0.13125 0.40565 0.0
O17 O 0.15713 0.14402 0.41119 0.0
C18 C 0.08834 0.09296 0.41582 0.0
O19 O 0.07893 0.09227 0.38658 0.0
N20 N 0.13213 0.13833 0.3477 0.0
C21 C 0.13642 0.15279 0.2861 0.0
C22 C 0.16402 0.14514 0.3034 0.0
C23 C 0.16126 0.13752 0.33389 0.0
C24 C 0.10487 0.14417 0.33026 0.0
C25 C 0.10655 0.15202 0.29994 0.0
H26 H 0.18279 0.13129 0.34643 0.0
H27 H 0.0812 0.14206 0.3394 0.0
H28 H 0.19576 0.11012 0.40738 0.0
H29 H 0.18226 0.05565 0.34135 0.0
H30 H 0.0667 0.20499 0.39337 0.0
H31 H 0.18755 0.14493 0.29346 0.0
H32 H 0.08433 0.1565 0.28704 0.0
C33 C 0.09726 0.11002 0.89341 0.0
C34 C 0.06704 0.10135 0.89958 0.0
N35 N 0.04539 0.11146 0.87947 0.0
N36 N 0.09446 0.12587 0.86993 0.0
C37 C 0.06257 0.12611 0.86163 0.0
H38 H 0.11964 0.10609 0.9063 0.0
Co39 Co 0.12772 0.14564 0.85758 0.0
C40 C 0.09722 0.19101 0.83689 0.0
O41 O 0.12 0.20154 0.85413 0.0
N42 N 0.16178 0.16552 0.84421 0.0
C43 C 0.1918 0.18534 0.81115 0.0
C44 C 0.1648 0.1713 0.81426 0.0
C45 C 0.18745 0.17644 0.85879 0.0
N46 N 0.20587 0.18863 0.83925 0.0
O47 O 0.13266 0.12545 0.82171 0.0
H48 H 0.14828 0.1656 0.79568 0.0
H49 H 0.1935 0.17518 0.88307 0.0
O50 O 0.09612 0.16789 0.8359 0.0
C51 C 0.15617 0.11155 0.83009 0.0
O52 O 0.16882 0.11397 0.85817 0.0
N53 N 0.12566 0.16196 0.89538 0.0
C54 C 0.12473 0.17144 0.95853 0.0
C55 C 0.09869 0.17841 0.93849 0.0
C56 C 0.09938 0.17313 0.90695 0.0
C57 C 0.15065 0.15483 0.91473 0.0
C58 C 0.1513 0.16014 0.9459 0.0
H59 H 0.07797 0.17652 0.89243 0.0
H60 H 0.1697 0.14377 0.90614 0.0
H61 H 0.05172 0.13792 0.84427 0.0
H62 H 0.06121 0.08926 0.91807 0.0
H63 H 0.20052 0.19244 0.78989 0.0
H64 H 0.07719 0.18648 0.94731 0.0
H65 H 0.17205 0.15442 0.96016 0.0
C66 C 0.84847 0.92223 0.60864 0.0
C67 C 0.8187 0.93202 0.61412 0.0
N68 N 0.79738 0.91388 0.61674 0.0
N69 N 0.84586 0.89806 0.60745 0.0
C70 C 0.81436 0.89353 0.61237 0.0
H71 H 0.87079 0.93212 0.6065 0.0
Co72 Co 0.88017 0.87677 0.60327 0.0
C73 C 0.85016 0.83009 0.58402 0.0
O74 O 0.87046 0.81987 0.60419 0.0
N75 N 0.91538 0.85564 0.59858 0.0
C76 C 0.9502 0.83158 0.5762 0.0
C77 C 0.92163 0.84402 0.57231 0.0
C78 C 0.94116 0.85056 0.61773 0.0
N79 N 0.96265 0.83575 0.60486 0.0
O80 O 0.89144 0.89313 0.56529 0.0
H81 H 0.90655 0.84487 0.55135 0.0
H82 H 0.94516 0.85866 0.64002 0.0
O83 O 0.8506 0.85313 0.58083 0.0
C84 C 0.91658 0.90611 0.57165 0.0
O85 O 0.92902 0.90567 0.59997 0.0
N86 N 0.8722 0.86402 0.64277 0.0
C87 C 0.86951 0.85336 0.70556 0.0
C88 C 0.84662 0.84363 0.68416 0.0
C89 C 0.84813 0.84942 0.65282 0.0
C90 C 0.89279 0.875 0.66371 0.0
C91 C 0.89246 0.86953 0.69492 0.0
H92 H 0.82951 0.84247 0.6371 0.0
H93 H 0.90984 0.88821 0.65597 0.0
H94 H 0.80401 0.87568 0.61302 0.0
H95 H 0.81341 0.95092 0.61715 0.0
H96 H 0.96113 0.82082 0.55883 0.0
H97 H 0.82779 0.83167 0.69155 0.0
H98 H 0.90966 0.87834 0.71072 0.0
C99 C 0.89213 0.92618 0.09919 0.0
C100 C 0.92099 0.93755 0.09437 0.0
N101 N 0.94305 0.9298 0.11589 0.0
N102 N 0.8961 0.91117 0.12343 0.0
C103 C 0.92724 0.91404 0.13347 0.0
H104 H 0.86996 0.92793 0.08516 0.0
Co105 Co 0.86466 0.88989 0.13614 0.0
C106 C 0.90349 0.84637 0.15153 0.0
O107 O 0.88431 0.83496 0.13151 0.0
N108 N 0.83206 0.86952 0.14993 0.0
C109 C 0.80182 0.84465 0.17693 0.0
C110 C 0.83282 0.85183 0.17145 0.0
C111 C 0.80021 0.87383 0.14457 0.0
N112 N 0.78147 0.85865 0.16002 0.0
O113 O 0.8594 0.90917 0.17269 0.0
H114 H 0.85402 0.84546 0.18431 0.0
H115 H 0.79087 0.88828 0.13001 0.0
O116 O 0.89853 0.86883 0.15671 0.0
C117 C 0.84056 0.92659 0.1647 0.0
O118 O 0.83055 0.92812 0.13566 0.0
N119 N 0.86726 0.8731 0.09766 0.0
C120 C 0.86923 0.85928 0.03545 0.0
C121 C 0.89787 0.86259 0.05372 0.0
C122 C 0.89636 0.86923 0.08465 0.0
C123 C 0.83931 0.86948 0.08034 0.0
C124 C 0.83973 0.86187 0.04985 0.0
H125 H 0.9188 0.87247 0.09772 0.0
H126 H 0.81621 0.87366 0.08913 0.0
H127 H 0.93862 0.90381 0.15217 0.0
H128 H 0.9256 0.95011 0.07603 0.0
H129 H 0.79473 0.83114 0.19327 0.0
H130 H 0.92145 0.86127 0.0441 0.0
H131 H 0.81675 0.85894 0.03752 0.0
C132 C 0.14372 0.61306 0.85995 0.0
C133 C 0.17266 0.60094 0.85934 0.0
N134 N 0.19307 0.61014 0.88137 0.0
N135 N 0.14585 0.62991 0.88217 0.0
C136 C 0.17596 0.6274 0.89519 0.0
H137 H 0.12305 0.61068 0.84409 0.0
Co138 Co 0.11437 0.65298 0.88948 0.0
C139 C 0.16327 0.69195 0.90797 0.0
O140 O 0.16155 0.70112 0.8802 0.0
N141 N 0.08253 0.67586 0.89777 0.0
C142 C 0.05486 0.70964 0.90447 0.0
C143 C 0.08456 0.70015 0.89856 0.0
C144 C 0.05131 0.67111 0.90334 0.0
N145 N 0.03404 0.6913 0.9075 0.0
O146 O 0.10275 0.63484 0.92581 0.0
H147 H 0.10565 0.71065 0.89396 0.0
H148 H 0.04096 0.65324 0.90294 0.0
O149 O 0.14636 0.67328 0.91423 0.0
C150 C 0.08457 0.61748 0.91607 0.0
O151 O 0.07766 0.6162 0.88634 0.0
N152 N 0.12244 0.66808 0.85062 0.0
C153 C 0.12706 0.681 0.78832 0.0
C154 C 0.1546 0.67407 0.80625 0.0
C155 C 0.15176 0.66749 0.83709 0.0
C156 C 0.09543 0.6744 0.83313 0.0
C157 C 0.09733 0.68158 0.80254 0.0
H158 H 0.17331 0.66166 0.84995 0.0
H159 H 0.07165 0.6729 0.84213 0.0
H160 H 0.18558 0.63867 0.91364 0.0
H161 H 0.17878 0.58749 0.84264 0.0
H162 H 0.04892 0.72856 0.90584 0.0
H163 H 0.17806 0.6727 0.79634 0.0
H164 H 0.07525 0.68683 0.78997 0.0
C165 C 0.11355 0.60919 0.39665 0.0
C166 C 0.08427 0.598 0.40014 0.0
N167 N 0.0624 0.60768 0.37977 0.0
N168 N 0.11016 0.62584 0.37422 0.0
C169 C 0.07882 0.62444 0.36423 0.0
H170 H 0.13575 0.60586 0.41011 0.0
Co171 Co 0.14273 0.64632 0.36263 0.0
C172 C 0.10924 0.69054 0.34127 0.0
O173 O 0.13031 0.70197 0.35951 0.0
N174 N 0.17626 0.66652 0.34994 0.0
C175 C 0.20632 0.68787 0.31841 0.0
C176 C 0.1766 0.67761 0.32219 0.0
C177 C 0.20687 0.66916 0.36169 0.0
N178 N 0.22519 0.68242 0.34328 0.0
O179 O 0.15041 0.62594 0.32749 0.0
H180 H 0.1572 0.67692 0.30469 0.0
H181 H 0.21668 0.65997 0.38186 0.0
O182 O 0.11064 0.66745 0.33944 0.0
C183 C 0.17283 0.61178 0.33789 0.0
O184 O 0.18269 0.61424 0.36686 0.0
N185 N 0.1381 0.66345 0.39992 0.0
C186 C 0.13489 0.67992 0.46064 0.0
C187 C 0.10837 0.68259 0.43949 0.0
C188 C 0.11018 0.67369 0.40947 0.0
C189 C 0.16313 0.65949 0.42078 0.0
C190 C 0.1624 0.66799 0.45083 0.0
H191 H 0.08873 0.67433 0.39434 0.0
H192 H 0.18293 0.64811 0.41487 0.0
H193 H 0.06817 0.63558 0.34606 0.0
H194 H 0.07927 0.5844 0.41711 0.0
H195 H 0.21436 0.69665 0.29789 0.0
H196 H 0.08617 0.69098 0.4462 0.0
H197 H 0.18264 0.664 0.46669 0.0
C198 C 0.84402 0.44169 0.13385 0.0
C199 C 0.81252 0.44791 0.13904 0.0
N200 N 0.79286 0.43056 0.12724 0.0
N201 N 0.84426 0.42055 0.11877 0.0
C202 C 0.81272 0.41428 0.11495 0.0
H203 H 0.86541 0.45152 0.1417 0.0
Co204 Co 0.88117 0.40289 0.11079 0.0
C205 C 0.85706 0.35609 0.08688 0.0
O206 O 0.87894 0.34596 0.10557 0.0
N207 N 0.91861 0.38524 0.10209 0.0
C208 C 0.95275 0.36424 0.0744 0.0
C209 C 0.92505 0.37788 0.07339 0.0
C210 C 0.94352 0.37646 0.11998 0.0
N211 N 0.9642 0.36344 0.10373 0.0
O212 O 0.88853 0.42302 0.0751 0.0
H213 H 0.91001 0.38173 0.05298 0.0
H214 H 0.94659 0.37898 0.14448 0.0
O215 O 0.85468 0.37914 0.08619 0.0
C216 C 0.90791 0.43968 0.0847 0.0
O217 O 0.91775 0.43934 0.11383 0.0
N218 N 0.87609 0.3864 0.14837 0.0
C219 C 0.87104 0.37353 0.21037 0.0
C220 C 0.84891 0.36461 0.18761 0.0
C221 C 0.85147 0.37163 0.15677 0.0
C222 C 0.89685 0.39581 0.17038 0.0
C223 C 0.89549 0.3891 0.20111 0.0
H224 H 0.83272 0.3661 0.1402 0.0
H225 H 0.91445 0.40912 0.16403 0.0
H226 H 0.80447 0.39744 0.10495 0.0
H227 H 0.80482 0.46377 0.15109 0.0
H228 H 0.96382 0.35579 0.05513 0.0
H229 H 0.82886 0.35328 0.19373 0.0
H230 H 0.9132 0.39657 0.21754 0.0
C231 C 0.90885 0.44046 0.61323 0.0
C232 C 0.94069 0.44714 0.61076 0.0
N233 N 0.95948 0.43045 0.62521 0.0
N234 N 0.90765 0.41962 0.62898 0.0
C235 C 0.93888 0.41398 0.6361 0.0
H236 H 0.88788 0.44981 0.60341 0.0
Co237 Co 0.86987 0.40262 0.63454 0.0
C238 C 0.88979 0.35469 0.65958 0.0
O239 O 0.8671 0.34503 0.64137 0.0
N240 N 0.83102 0.38604 0.64044 0.0
C241 C 0.79058 0.36912 0.66471 0.0
C242 C 0.82147 0.37811 0.66797 0.0
C243 C 0.80517 0.3821 0.62098 0.0
N244 N 0.78043 0.37167 0.63508 0.0
O245 O 0.86183 0.42142 0.67091 0.0
H246 H 0.83591 0.37926 0.68928 0.0
H247 H 0.80344 0.3879 0.59734 0.0
O248 O 0.89416 0.37758 0.65907 0.0
C249 C 0.8402 0.43713 0.66355 0.0
O250 O 0.82951 0.43842 0.63471 0.0
N251 N 0.87569 0.38696 0.59669 0.0
C252 C 0.87501 0.37038 0.53606 0.0
C253 C 0.89631 0.36031 0.55869 0.0
C254 C 0.89664 0.36916 0.58898 0.0
C255 C 0.85762 0.39845 0.57422 0.0
C256 C 0.85624 0.39014 0.54408 0.0
H257 H 0.9139 0.36182 0.60582 0.0
H258 H 0.84342 0.41399 0.58002 0.0
H259 H 0.94658 0.39764 0.64781 0.0
H260 H 0.94938 0.46291 0.59902 0.0
H261 H 0.77654 0.36165 0.68281 0.0
H262 H 0.91223 0.34565 0.55314 0.0
H263 H 0.8407 0.39929 0.52708 0.0
C264 C 0.6475 0.11137 0.86849 0.0
C265 C 0.67875 0.10467 0.86314 0.0
N266 N 0.69907 0.11792 0.88138 0.0
N267 N 0.64799 0.12874 0.89005 0.0
C268 C 0.67976 0.13223 0.89762 0.0
H269 H 0.62583 0.10469 0.8565 0.0
Co270 Co 0.61175 0.14603 0.90137 0.0
C271 C 0.63716 0.19283 0.92316 0.0
O272 O 0.61369 0.20266 0.90606 0.0
N273 N 0.57508 0.16334 0.91371 0.0
C274 C 0.54251 0.18062 0.94647 0.0
C275 C 0.57077 0.1682 0.94363 0.0
C276 C 0.54879 0.1732 0.89882 0.0
N277 N 0.52853 0.18389 0.91821 0.0
O278 O 0.6079 0.12556 0.93713 0.0
H279 H 0.58736 0.1631 0.96246 0.0
H280 H 0.5445 0.17282 0.87429 0.0
O281 O 0.63985 0.16982 0.92399 0.0
C282 C 0.59036 0.10765 0.92826 0.0
O283 O 0.58129 0.10629 0.899 0.0
N284 N 0.61329 0.16285 0.86384 0.0
C285 C 0.61525 0.17472 0.80156 0.0
C286 C 0.64024 0.182 0.82244 0.0
C287 C 0.63893 0.17572 0.85361 0.0
C288 C 0.58978 0.15481 0.84339 0.0
C289 C 0.58966 0.16118 0.81245 0.0
H290 H 0.65949 0.17985 0.86891 0.0
H291 H 0.57165 0.14236 0.85096 0.0
H292 H 0.68874 0.14586 0.91353 0.0
H293 H 0.68591 0.09136 0.84668 0.0
H294 H 0.53295 0.18631 0.96796 0.0
H295 H 0.66105 0.19168 0.81456 0.0
H296 H 0.57075 0.15426 0.79681 0.0
C297 C 0.59622 0.08747 0.39926 0.0
C298 C 0.56599 0.07772 0.4024 0.0
N299 N 0.54489 0.08959 0.38341 0.0
N300 N 0.59418 0.10554 0.37855 0.0
C301 C 0.56258 0.10627 0.36903 0.0
H302 H 0.61808 0.08248 0.41232 0.0
Co303 Co 0.62847 0.12617 0.37123 0.0
C304 C 0.59843 0.17258 0.3534 0.0
O305 O 0.61925 0.18225 0.37353 0.0
N306 N 0.66374 0.14667 0.36317 0.0
C307 C 0.69592 0.17027 0.33653 0.0
C308 C 0.66731 0.15769 0.33583 0.0
C309 C 0.6913 0.1522 0.37964 0.0
N310 N 0.71112 0.16681 0.3642 0.0
O311 O 0.63706 0.10875 0.33391 0.0
H312 H 0.65027 0.15641 0.31629 0.0
H313 H 0.69781 0.14476 0.40185 0.0
O314 O 0.5986 0.14965 0.34943 0.0
C315 C 0.65669 0.09201 0.34268 0.0
O316 O 0.66529 0.09073 0.37207 0.0
N317 N 0.62239 0.14013 0.41016 0.0
C318 C 0.61634 0.14987 0.473 0.0
C319 C 0.59141 0.15588 0.45115 0.0
C320 C 0.59474 0.15059 0.41991 0.0
C321 C 0.64563 0.13283 0.43129 0.0
C322 C 0.64395 0.13849 0.46227 0.0
H323 H 0.57437 0.15374 0.40397 0.0
H324 H 0.66493 0.1213 0.42433 0.0
H325 H 0.55233 0.1196 0.35327 0.0
H326 H 0.55981 0.06344 0.41805 0.0
H327 H 0.70487 0.18077 0.31779 0.0
H328 H 0.56888 0.1636 0.45808 0.0
H329 H 0.66404 0.13324 0.4776 0.0
C330 C 0.33548 0.94799 0.1528 0.0
C331 C 0.30672 0.96008 0.15551 0.0
N332 N 0.28572 0.95233 0.13308 0.0
N333 N 0.33233 0.93246 0.12908 0.0
C334 C 0.302 0.93588 0.11715 0.0
H335 H 0.35669 0.94933 0.16822 0.0
Co336 Co 0.36229 0.90916 0.11904 0.0
C337 C 0.31684 0.86837 0.10463 0.0
O338 O 0.33099 0.85621 0.12739 0.0
N339 N 0.39318 0.88643 0.1079 0.0
C340 C 0.42124 0.85721 0.08642 0.0
C341 C 0.39094 0.86662 0.08984 0.0
C342 C 0.42529 0.88939 0.1134 0.0
N343 N 0.44277 0.8716 0.10136 0.0
O344 O 0.37119 0.9269 0.08199 0.0
H345 H 0.36926 0.85975 0.07833 0.0
H346 H 0.43566 0.90435 0.12633 0.0
O347 O 0.32734 0.88942 0.09782 0.0
C348 C 0.39075 0.94381 0.09032 0.0
O349 O 0.39931 0.94565 0.11967 0.0
N350 N 0.35659 0.89404 0.15815 0.0
C351 C 0.35275 0.88206 0.22048 0.0
C352 C 0.32457 0.8863 0.20216 0.0
C353 C 0.32698 0.89219 0.17101 0.0
C354 C 0.38405 0.8902 0.17618 0.0
C355 C 0.38265 0.88361 0.20697 0.0
H356 H 0.30503 0.89617 0.15751 0.0
H357 H 0.40751 0.89378 0.16777 0.0
H358 H 0.29115 0.92524 0.09862 0.0
H359 H 0.30121 0.97272 0.17341 0.0
H360 H 0.42703 0.84142 0.07323 0.0
H361 H 0.30099 0.88567 0.212 0.0
H362 H 0.40502 0.88136 0.22067 0.0
C363 C 0.40743 0.94197 0.66412 0.0
C364 C 0.43929 0.94915 0.66788 0.0
N365 N 0.45821 0.92946 0.66677 0.0
N366 N 0.40633 0.9179 0.66056 0.0
C367 C 0.43761 0.91077 0.66248 0.0
H368 H 0.38654 0.95367 0.66243 0.0
Co369 Co 0.37016 0.89984 0.64826 0.0
C370 C 0.38568 0.84886 0.66794 0.0
O371 O 0.36652 0.84029 0.64565 0.0
N372 N 0.33313 0.88177 0.63531 0.0
C373 C 0.29408 0.86436 0.60634 0.0
C374 C 0.32206 0.87751 0.60612 0.0
C375 C 0.31083 0.87125 0.65288 0.0
N376 N 0.28698 0.86034 0.63574 0.0
O377 O 0.34798 0.9108 0.68407 0.0
H378 H 0.33294 0.88376 0.58556 0.0
H379 H 0.31217 0.8715 0.67775 0.0
O380 O 0.38909 0.8717 0.67095 0.0
C381 C 0.3266 0.92631 0.6752 0.0
O382 O 0.32322 0.9313 0.64571 0.0
N383 N 0.39007 0.89271 0.61152 0.0
C384 C 0.4024 0.88938 0.54899 0.0
C385 C 0.41251 0.87108 0.56984 0.0
C386 C 0.40612 0.87309 0.60118 0.0
C387 C 0.38339 0.91162 0.59239 0.0
C388 C 0.38866 0.91019 0.56118 0.0
H389 H 0.41337 0.85867 0.61654 0.0
H390 H 0.37112 0.92719 0.60109 0.0
H391 H 0.44527 0.89245 0.65856 0.0
H392 H 0.44792 0.96748 0.6702 0.0
H393 H 0.2794 0.859 0.58627 0.0
H394 H 0.42447 0.85506 0.56205 0.0
H395 H 0.37984 0.92484 0.54674 0.0
C396 C 0.67044 0.56061 0.38697 0.0
C397 C 0.70212 0.55395 0.38329 0.0
N398 N 0.72095 0.57353 0.38781 0.0
N399 N 0.66945 0.58419 0.3941 0.0
C400 C 0.7006 0.59151 0.39445 0.0
H401 H 0.64949 0.54908 0.38379 0.0
Co402 Co 0.6328 0.60285 0.39892 0.0
C403 C 0.65758 0.65151 0.41621 0.0
O404 O 0.63558 0.66019 0.39642 0.0
N405 N 0.59579 0.62152 0.40453 0.0
C406 C 0.56174 0.64534 0.42839 0.0
C407 C 0.5892 0.63158 0.43182 0.0
C408 C 0.57124 0.62875 0.38514 0.0
N409 N 0.55066 0.64348 0.39903 0.0
O410 O 0.62469 0.5862 0.43734 0.0
H411 H 0.60397 0.62952 0.45281 0.0
H412 H 0.56839 0.62385 0.36121 0.0
O413 O 0.65968 0.62861 0.42012 0.0
C414 C 0.60485 0.56916 0.43008 0.0
O415 O 0.59523 0.56698 0.40103 0.0
N416 N 0.6382 0.61571 0.35897 0.0
C417 C 0.64038 0.62492 0.29562 0.0
C418 C 0.66227 0.63617 0.31676 0.0
C419 C 0.66131 0.63087 0.34832 0.0
C420 C 0.61809 0.60378 0.33852 0.0
C421 C 0.61822 0.60844 0.30706 0.0
H422 H 0.67977 0.63846 0.36373 0.0
H423 H 0.60148 0.59047 0.34682 0.0
H424 H 0.70831 0.60979 0.39907 0.0
H425 H 0.71048 0.53633 0.37671 0.0
H426 H 0.55054 0.65567 0.44607 0.0
H427 H 0.68065 0.64832 0.30892 0.0
H428 H 0.60091 0.59916 0.29186 0.0
C429 C 0.58905 0.58953 0.87527 0.0
C430 C 0.55885 0.57941 0.87803 0.0
N431 N 0.5364 0.59648 0.87156 0.0
N432 N 0.58555 0.61283 0.8672 0.0
C433 C 0.55327 0.61652 0.86519 0.0
H434 H 0.6121 0.58059 0.87921 0.0
Co435 Co 0.61856 0.63478 0.86194 0.0
C436 C 0.58607 0.6812 0.84683 0.0
O437 O 0.60639 0.69113 0.8672 0.0
N438 N 0.6521 0.65691 0.85566 0.0
C439 C 0.68351 0.68186 0.83027 0.0
C440 C 0.65561 0.66851 0.82868 0.0
C441 C 0.67864 0.6632 0.87307 0.0
N442 N 0.69799 0.67845 0.85822 0.0
O443 O 0.62759 0.61996 0.82287 0.0
H444 H 0.63919 0.66689 0.80871 0.0
H445 H 0.685 0.65568 0.89538 0.0
O446 O 0.58736 0.65837 0.84235 0.0
C447 C 0.6531 0.6072 0.82796 0.0
O448 O 0.66631 0.60666 0.85598 0.0
N449 N 0.61294 0.64593 0.90235 0.0
C450 C 0.613 0.65256 0.96617 0.0
C451 C 0.58767 0.66174 0.94684 0.0
C452 C 0.58784 0.65792 0.91486 0.0
C453 C 0.63613 0.63548 0.92118 0.0
C454 C 0.63712 0.639 0.95281 0.0
H455 H 0.56744 0.66401 0.90054 0.0
H456 H 0.65397 0.6239 0.91147 0.0
H457 H 0.54225 0.63379 0.86014 0.0
H458 H 0.55385 0.56095 0.88422 0.0
H459 H 0.69288 0.69264 0.81194 0.0
H460 H 0.56789 0.67159 0.95633 0.0
H461 H 0.65621 0.63048 0.96683 0.0
C462 C 0.35461 0.40686 0.66381 0.0
C463 C 0.32532 0.41812 0.66685 0.0
N464 N 0.3046 0.41014 0.64435 0.0
N465 N 0.35217 0.39159 0.63976 0.0
C466 C 0.32156 0.39434 0.628 0.0
H467 H 0.37573 0.40851 0.67929 0.0
Co468 Co 0.38338 0.36888 0.63006 0.0
C469 C 0.33592 0.32901 0.61216 0.0
O470 O 0.34182 0.31793 0.6384 0.0
N471 N 0.41474 0.34599 0.61942 0.0
C472 C 0.44248 0.31221 0.61225 0.0
C473 C 0.41573 0.32201 0.62497 0.0
C474 C 0.44129 0.35017 0.60325 0.0
N475 N 0.45831 0.32998 0.59836 0.0
O476 O 0.39289 0.3878 0.59362 0.0
H477 H 0.39908 0.31216 0.63853 0.0
H478 H 0.44894 0.36781 0.59607 0.0
O479 O 0.35024 0.34896 0.60639 0.0
C480 C 0.41068 0.40566 0.60247 0.0
O481 O 0.41831 0.40767 0.63199 0.0
N482 N 0.37741 0.35333 0.66869 0.0
C483 C 0.37563 0.34116 0.73136 0.0
C484 C 0.34694 0.34534 0.71356 0.0
C485 C 0.34836 0.35167 0.68248 0.0
C486 C 0.40546 0.34966 0.6859 0.0
C487 C 0.4051 0.34291 0.71677 0.0
H488 H 0.32604 0.35594 0.66974 0.0
H489 H 0.4286 0.35296 0.6761 0.0
H490 H 0.3111 0.38372 0.60924 0.0
H491 H 0.31931 0.43045 0.68494 0.0
H492 H 0.45009 0.29359 0.61371 0.0
H493 H 0.32359 0.34493 0.72382 0.0
H494 H 0.42798 0.33987 0.72928 0.0
C495 C 0.39625 0.41897 0.12044 0.0
C496 C 0.42679 0.42731 0.11497 0.0
N497 N 0.44794 0.41659 0.13508 0.0
N498 N 0.39819 0.40295 0.14372 0.0
C499 C 0.42998 0.40203 0.1524 0.0
H500 H 0.37414 0.42358 0.10752 0.0
Co501 Co 0.36354 0.38462 0.15603 0.0
C502 C 0.39143 0.33958 0.18106 0.0
O503 O 0.36848 0.32886 0.16422 0.0
N504 N 0.32804 0.36646 0.16932 0.0
C505 C 0.29617 0.34864 0.20249 0.0
C506 C 0.32431 0.36133 0.19933 0.0
C507 C 0.30142 0.35688 0.15478 0.0
N508 N 0.28177 0.34587 0.1744 0.0
O509 O 0.35746 0.40674 0.18994 0.0
H510 H 0.34102 0.36667 0.21793 0.0
H511 H 0.29609 0.35789 0.13039 0.0
O512 O 0.39321 0.36271 0.18086 0.0
C513 C 0.33606 0.42152 0.17901 0.0
O514 O 0.32556 0.41844 0.15032 0.0
N515 N 0.36706 0.36612 0.11983 0.0
C516 C 0.37005 0.34894 0.05957 0.0
C517 C 0.39535 0.3444 0.08147 0.0
C518 C 0.39365 0.35349 0.11141 0.0
C519 C 0.34347 0.37189 0.09817 0.0
C520 C 0.34391 0.36292 0.06833 0.0
H521 H 0.41436 0.35131 0.1272 0.0
H522 H 0.3247 0.38445 0.10376 0.0
H523 H 0.44006 0.39006 0.16996 0.0
H524 H 0.43304 0.43992 0.0972 0.0
H525 H 0.28654 0.34272 0.22393 0.0
H526 H 0.41658 0.33442 0.07532 0.0
H527 H 0.32471 0.36797 0.0518 0.0
H528 H 0.2373 0.06502 0.33135 0.0
H529 H 0.29634 0.06295 0.33272 0.0
H530 H 0.29995 0.08355 0.42832 0.0
H531 H 0.24082 0.08591 0.42689 0.0
H532 H 0.33927 0.11026 0.39963 0.0
H533 H 0.32031 0.02605 0.403 0.0
H534 H 0.29938 0.98589 0.38857 0.0
H535 H 0.34537 0.99056 0.30236 0.0
H536 H 0.36604 0.03098 0.31596 0.0
H537 H 0.50671 0.08113 0.4308 0.0
H538 H 0.4476 0.07716 0.42858 0.0
H539 H 0.44545 0.08771 0.33039 0.0
H540 H 0.50481 0.09226 0.33263 0.0
H541 H 0.40672 0.04459 0.35981 0.0
H542 H 0.42325 0.13125 0.35887 0.0
H543 H 0.44823 0.16875 0.3788 0.0
H544 H 0.40876 0.15586 0.46685 0.0
H545 H 0.38399 0.11804 0.44756 0.0
C546 C 0.25059 0.06856 0.35286 0.0
C547 C 0.23433 0.0757 0.37902 0.0
C548 C 0.28444 0.06737 0.35362 0.0
C549 C 0.30275 0.07301 0.38065 0.0
C550 C 0.28645 0.07925 0.40712 0.0
C551 C 0.25265 0.08061 0.4063 0.0
C552 C 0.33875 0.07438 0.3807 0.0
C553 C 0.35388 0.0957 0.39123 0.0
C554 C 0.35807 0.05561 0.36926 0.0
C555 C 0.34437 0.03176 0.36036 0.0
C556 C 0.32554 0.01871 0.38075 0.0
C557 C 0.31381 0.99585 0.37276 0.0
C558 C 0.32095 0.98572 0.34452 0.0
C559 C 0.33976 0.99846 0.32418 0.0
C560 C 0.35146 0.02137 0.33201 0.0
C561 C 0.49364 0.08244 0.40873 0.0
C562 C 0.51023 0.08692 0.38184 0.0
C563 C 0.45995 0.08023 0.40751 0.0
C564 C 0.44231 0.08208 0.37933 0.0
C565 C 0.45877 0.08617 0.35232 0.0
C566 C 0.4925 0.08889 0.35363 0.0
C567 C 0.40657 0.08033 0.37847 0.0
C568 C 0.39172 0.05903 0.36794 0.0
C569 C 0.38749 0.09885 0.39034 0.0
C570 C 0.40209 0.12169 0.40187 0.0
C571 C 0.42018 0.13629 0.38257 0.0
C572 C 0.43424 0.15762 0.39373 0.0
C573 C 0.43017 0.16465 0.4241 0.0
C574 C 0.41194 0.15038 0.44335 0.0
C575 C 0.39787 0.129 0.43231 0.0
H576 H 0.44107 0.18117 0.4327 0.0
H577 H 0.31201 0.96795 0.33846 0.0
H578 H 0.01028 0.15303 0.44746 0.0
H579 H 0.95178 0.15953 0.45064 0.0
H580 H 0.95163 0.20193 0.36729 0.0
H581 H 0.01019 0.19675 0.3656 0.0
H582 H 0.91068 0.22039 0.40067 0.0
H583 H 0.93175 0.13904 0.37032 0.0
H584 H 0.95523 0.09833 0.37493 0.0
H585 H 0.90658 0.08685 0.45873 0.0
H586 H 0.88318 0.12766 0.45486 0.0
H587 H 0.75821 0.18485 0.32866 0.0
H588 H 0.81412 0.19344 0.34482 0.0
H589 H 0.79415 0.17488 0.43817 0.0
H590 H 0.73768 0.1673 0.42276 0.0
H591 H 0.84343 0.14688 0.40838 0.0
H592 H 0.81309 0.22877 0.42706 0.0
H593 H 0.78883 0.26821 0.41411 0.0
H594 H 0.85455 0.27729 0.34147 0.0
H595 H 0.87881 0.23769 0.35353 0.0
C596 C 0.99755 0.16395 0.43018 0.0
C597 C 0.01431 0.17432 0.40624 0.0
C598 C 0.96425 0.1676 0.43186 0.0
C599 C 0.94708 0.1808 0.40881 0.0
C600 C 0.96421 0.19174 0.3854 0.0
C601 C 0.99759 0.1887 0.38431 0.0
C602 C 0.91117 0.18196 0.40765 0.0
C603 C 0.89598 0.20431 0.40227 0.0
C604 C 0.89189 0.161 0.41004 0.0
C605 C 0.90604 0.1365 0.4125 0.0
C606 C 0.92627 0.1279 0.38985 0.0
C607 C 0.93954 0.10481 0.39232 0.0
C608 C 0.93244 0.09004 0.41713 0.0
C609 C 0.91209 0.09834 0.43955 0.0
C610 C 0.89883 0.12144 0.43725 0.0
C611 C 0.76519 0.18316 0.35279 0.0
C612 C 0.74323 0.17475 0.37419 0.0
C613 C 0.7973 0.18817 0.36197 0.0
C614 C 0.80813 0.18475 0.39263 0.0
C615 C 0.78612 0.17759 0.41437 0.0
C616 C 0.75388 0.17294 0.40534 0.0
C617 C 0.84314 0.18516 0.40085 0.0
C618 C 0.85814 0.16303 0.40746 0.0
C619 C 0.86217 0.20616 0.39832 0.0
C620 C 0.8475 0.23003 0.39098 0.0
C621 C 0.82209 0.23899 0.40804 0.0
C622 C 0.80835 0.26141 0.40087 0.0
C623 C 0.81992 0.27514 0.37678 0.0
C624 C 0.84541 0.26654 0.35994 0.0
C625 C 0.8592 0.24412 0.36699 0.0
H626 H 0.8094 0.29255 0.37139 0.0
H627 H 0.94257 0.07212 0.41889 0.0
H628 H 0.494 0.18343 0.86299 0.0
H629 H 0.43967 0.19867 0.85247 0.0
H630 H 0.43666 0.22428 0.94557 0.0
H631 H 0.49159 0.21029 0.95624 0.0
H632 H 0.3867 0.19545 0.9305 0.0
H633 H 0.43761 0.26193 0.88837 0.0
H634 H 0.47383 0.28601 0.85725 0.0
H635 H 0.42283 0.26225 0.77468 0.0
H636 H 0.38714 0.23712 0.80514 0.0
H637 H 0.22221 0.21365 0.89085 0.0
H638 H 0.27653 0.22791 0.90691 0.0
H639 H 0.31252 0.20344 0.82092 0.0
H640 H 0.2583 0.1898 0.80461 0.0
H641 H 0.34475 0.24328 0.84098 0.0
H642 H 0.31064 0.16611 0.88523 0.0
H643 H 0.2742 0.14167 0.91607 0.0
H644 H 0.29468 0.18715 0.99421 0.0
H645 H 0.33093 0.21204 0.96366 0.0
C646 C 0.48245 0.1928 0.8812 0.0
C647 C 0.49754 0.19509 0.91075 0.0
C648 C 0.4512 0.20161 0.87501 0.0
C649 C 0.43426 0.21279 0.8982 0.0
C650 C 0.44948 0.21592 0.9273 0.0
C651 C 0.4809 0.20751 0.93342 0.0
C652 C 0.39946 0.21845 0.89301 0.0
C653 C 0.37758 0.20642 0.91135 0.0
C654 C 0.38764 0.23271 0.86793 0.0
C655 C 0.40965 0.24741 0.84924 0.0
C656 C 0.43439 0.26142 0.86357 0.0
C657 C 0.45491 0.27528 0.84599 0.0
C658 C 0.45064 0.27566 0.814 0.0
C659 C 0.42607 0.26197 0.79949 0.0
C660 C 0.40574 0.24784 0.81693 0.0
C661 C 0.24168 0.21174 0.87524 0.0
C662 C 0.23628 0.20026 0.84674 0.0
C663 C 0.27259 0.21998 0.88434 0.0
C664 C 0.29867 0.2163 0.86535 0.0
C665 C 0.29276 0.20649 0.83594 0.0
C666 C 0.26179 0.19861 0.82667 0.0
C667 C 0.33257 0.21916 0.87736 0.0
C668 C 0.35416 0.23284 0.86047 0.0
C669 C 0.34439 0.20631 0.90363 0.0
C670 C 0.32316 0.19105 0.92211 0.0
C671 C 0.30726 0.17092 0.90896 0.0
C672 C 0.28664 0.15701 0.92637 0.0
C673 C 0.28205 0.1629 0.95705 0.0
C674 C 0.29819 0.18265 0.97042 0.0
C675 C 0.31877 0.19666 0.95308 0.0
H676 H 0.26604 0.15213 0.97049 0.0
H677 H 0.46635 0.28659 0.80045 0.0
H678 H 0.00329 0.10377 0.83149 0.0
H679 H 0.94395 0.10369 0.83233 0.0
H680 H 0.95052 0.11827 0.92983 0.0
H681 H 0.00972 0.11666 0.9291 0.0
H682 H 0.90337 0.08937 0.9192 0.0
H683 H 0.93834 0.16173 0.87033 0.0
H684 H 0.96802 0.18378 0.8313 0.0
H685 H 0.90502 0.15426 0.75981 0.0
H686 H 0.87615 0.13087 0.79817 0.0
H687 H 0.74086 0.13036 0.92871 0.0
H688 H 0.8001 0.13026 0.92893 0.0
H689 H 0.7959 0.10585 0.83488 0.0
H690 H 0.73683 0.10634 0.83429 0.0
H691 H 0.84143 0.14128 0.84466 0.0
H692 H 0.81114 0.06645 0.89253 0.0
H693 H 0.7839 0.04171 0.93071 0.0
H694 H 0.83773 0.07756 1.00393 0.0
H695 H 0.865 0.10274 0.96616 0.0
C696 C 0.99183 0.10667 0.85303 0.0
C697 C 0.01076 0.11025 0.8802 0.0
C698 C 0.95803 0.1068 0.85355 0.0
C699 C 0.94261 0.11161 0.88103 0.0
C700 C 0.9617 0.1146 0.90833 0.0
C701 C 0.99546 0.11371 0.90794 0.0
C702 C 0.90674 0.11416 0.88132 0.0
C703 C 0.88998 0.10102 0.90315 0.0
C704 C 0.88901 0.12913 0.86012 0.0
C705 C 0.90526 0.14428 0.83719 0.0
C706 C 0.93095 0.15975 0.84628 0.0
C707 C 0.94781 0.17235 0.82424 0.0
C708 C 0.93841 0.1704 0.79311 0.0
C709 C 0.91229 0.15572 0.78393 0.0
C710 C 0.89581 0.14265 0.80581 0.0
C711 C 0.75252 0.12516 0.90801 0.0
C712 C 0.73402 0.11813 0.88158 0.0
C713 C 0.7864 0.12501 0.9082 0.0
C714 C 0.80244 0.11786 0.88198 0.0
C715 C 0.78406 0.11138 0.85539 0.0
C716 C 0.75024 0.11141 0.85521 0.0
C717 C 0.83835 0.11642 0.88239 0.0
C718 C 0.85504 0.12982 0.86078 0.0
C719 C 0.85609 0.10185 0.90385 0.0
C720 C 0.83987 0.08662 0.92655 0.0
C721 C 0.81699 0.06917 0.91678 0.0
C722 C 0.80158 0.05505 0.93835 0.0
C723 C 0.80902 0.0581 0.96973 0.0
C724 C 0.83196 0.07524 0.97962 0.0
C725 C 0.84742 0.08942 0.95815 0.0
H726 H 0.79705 0.04716 0.98639 0.0
H727 H 0.95128 0.18035 0.7761 0.0
H728 H 0.76528 0.88439 0.65427 0.0
H729 H 0.70883 0.88795 0.66841 0.0
H730 H 0.69764 0.9512 0.6112 0.0
H731 H 0.75454 0.94817 0.59814 0.0
H732 H 0.66719 0.95727 0.66283 0.0
H733 H 0.67316 0.89253 0.58823 0.0
H734 H 0.69693 0.85434 0.57166 0.0
H735 H 0.66127 0.8186 0.65087 0.0
H736 H 0.63824 0.85682 0.66847 0.0
H737 H 0.49684 0.96213 0.6405 0.0
H738 H 0.55543 0.95982 0.63617 0.0
H739 H 0.55722 0.89307 0.68716 0.0
H740 H 0.49821 0.89494 0.69029 0.0
H741 H 0.59349 0.88801 0.64265 0.0
H742 H 0.58605 0.94977 0.71765 0.0
H743 H 0.56764 0.98762 0.74052 0.0
H744 H 0.60749 0.02788 0.66694 0.0
H745 H 0.6257 0.99022 0.64333 0.0
C746 C 0.75067 0.89898 0.64466 0.0
C747 C 0.76409 0.91584 0.6248 0.0
C748 C 0.71844 0.90104 0.65277 0.0
C749 C 0.69866 0.91958 0.6404 0.0
C750 C 0.7123 0.93671 0.62102 0.0
C751 C 0.74474 0.93494 0.61345 0.0
C752 C 0.66355 0.92075 0.64671 0.0
C753 C 0.65096 0.94224 0.65811 0.0
C754 C 0.64253 0.90085 0.64161 0.0
C755 C 0.65424 0.87758 0.62979 0.0
C756 C 0.67039 0.87653 0.6021 0.0
C757 C 0.68384 0.85488 0.5926 0.0
C758 C 0.68068 0.83405 0.61025 0.0
C759 C 0.66378 0.83477 0.63728 0.0
C760 C 0.65057 0.85643 0.64706 0.0
C761 C 0.50982 0.94714 0.65112 0.0
C762 C 0.49302 0.92878 0.6659 0.0
C763 C 0.54339 0.94585 0.64875 0.0
C764 C 0.56109 0.92649 0.66182 0.0
C765 C 0.54428 0.90823 0.67688 0.0
C766 C 0.51058 0.90929 0.67872 0.0
C767 C 0.59681 0.92472 0.6585 0.0
C768 C 0.60957 0.9031 0.64756 0.0
C769 C 0.61805 0.94441 0.66452 0.0
C770 C 0.60698 0.96712 0.67856 0.0
C771 C 0.59065 0.96667 0.70619 0.0
C772 C 0.58029 0.9881 0.71931 0.0
C773 C 0.58632 1.01013 0.70514 0.0
C774 C 0.60279 1.01079 0.67785 0.0
C775 C 0.61315 0.98941 0.6646 0.0
H776 H 0.57828 0.0267 0.71534 0.0
H777 H 0.69132 0.81733 0.603 0.0
H778 H 0.98454 0.8379 0.66495 0.0
H779 H 0.04025 0.83271 0.68455 0.0
H780 H 0.06813 0.81096 0.59463 0.0
H781 H 0.01304 0.81693 0.57436 0.0
H782 H 0.10159 0.78577 0.64589 0.0
H783 H 0.07385 0.86649 0.60825 0.0
H784 H 0.04061 0.90334 0.60748 0.0
H785 H 0.06367 0.91398 0.70369 0.0
H786 H 0.09663 0.87691 0.7051 0.0
H787 H 0.25275 0.82541 0.60608 0.0
H788 H 0.19846 0.81223 0.61653 0.0
H789 H 0.20127 0.85475 0.69949 0.0
H790 H 0.25534 0.86928 0.6879 0.0
H791 H 0.15091 0.86591 0.66682 0.0
H792 H 0.1894 0.78936 0.70139 0.0
H793 H 0.22325 0.75284 0.70078 0.0
H794 H 0.18228 0.73463 0.61144 0.0
H795 H 0.14786 0.77085 0.61173 0.0
C796 C 0.00231 0.83195 0.6492 0.0
C797 C 0.99413 0.82867 0.61769 0.0
C798 C 0.03412 0.82864 0.66065 0.0
C799 C 0.05823 0.82166 0.64094 0.0
C800 C 0.04975 0.81628 0.61021 0.0
C801 C 0.01807 0.81986 0.59862 0.0
C802 C 0.09281 0.82371 0.65076 0.0
C803 C 0.11251 0.8032 0.65077 0.0
C804 C 0.10675 0.84639 0.65779 0.0
C805 C 0.0873 0.8688 0.65688 0.0
C806 C 0.07159 0.87659 0.62929 0.0
C807 C 0.05284 0.89751 0.62872 0.0
C808 C 0.04994 0.91095 0.65555 0.0
C809 C 0.06587 0.90351 0.68296 0.0
C810 C 0.08457 0.88255 0.68366 0.0
C811 C 0.24202 0.83176 0.62676 0.0
C812 C 0.25808 0.8488 0.64578 0.0
C813 C 0.21108 0.82379 0.6331 0.0
C814 C 0.19568 0.83225 0.65902 0.0
C815 C 0.21266 0.8479 0.67939 0.0
C816 C 0.24364 0.85611 0.67283 0.0
C817 C 0.16038 0.82798 0.66153 0.0
C818 C 0.14025 0.84821 0.66344 0.0
C819 C 0.14617 0.80501 0.65647 0.0
C820 C 0.16605 0.78279 0.65659 0.0
C821 C 0.18755 0.77752 0.68166 0.0
C822 C 0.20677 0.75685 0.68141 0.0
C823 C 0.20484 0.7414 0.65612 0.0
C824 C 0.18352 0.74648 0.63113 0.0
C825 C 0.16399 0.76698 0.63141 0.0
H826 H 0.21991 0.72551 0.6559 0.0
H827 H 0.03542 0.92715 0.65507 0.0
H828 H 0.74396 0.81906 0.1611 0.0
H829 H 0.6847 0.8177 0.15423 0.0
H830 H 0.682 0.89523 0.14935 0.0
H831 H 0.74111 0.89663 0.15613 0.0
H832 H 0.63365 0.87394 0.18583 0.0
H833 H 0.67969 0.86708 0.08574 0.0
H834 H 0.71472 0.84862 0.04801 0.0
H835 H 0.66445 0.78143 0.05645 0.0
H836 H 0.62944 0.79942 0.09465 0.0
H837 H 0.48841 0.90616 0.10903 0.0
H838 H 0.54594 0.90007 0.12168 0.0
H839 H 0.53255 0.8232 0.11541 0.0
H840 H 0.47474 0.82916 0.10305 0.0
H841 H 0.58793 0.83902 0.08825 0.0
H842 H 0.53753 0.84703 0.18386 0.0
H843 H 0.50202 0.86556 0.22111 0.0
H844 H 0.55984 0.92981 0.22182 0.0
H845 H 0.59541 0.91182 0.18414 0.0
C846 C 0.73056 0.83576 0.15904 0.0
C847 C 0.74684 0.85793 0.15883 0.0
C848 C 0.69691 0.83496 0.15503 0.0
C849 C 0.67928 0.85636 0.15112 0.0
C850 C 0.69538 0.87857 0.15232 0.0
C851 C 0.729 0.87934 0.15592 0.0
C852 C 0.64421 0.85573 0.14387 0.0
C853 C 0.62357 0.86641 0.16449 0.0
C854 C 0.6313 0.8453 0.11636 0.0
C855 C 0.65225 0.8345 0.09334 0.0
C856 C 0.67633 0.8483 0.07979 0.0
C857 C 0.69613 0.83794 0.05827 0.0
C858 C 0.69189 0.81384 0.04992 0.0
C859 C 0.66776 0.80008 0.063 0.0
C860 C 0.64793 0.81035 0.08458 0.0
C861 C 0.49769 0.88797 0.11039 0.0
C862 C 0.47707 0.86812 0.10547 0.0
C863 C 0.5305 0.88452 0.11753 0.0
C864 C 0.54317 0.86118 0.12002 0.0
C865 C 0.52304 0.84133 0.11371 0.0
C866 C 0.49013 0.84478 0.10653 0.0
C867 C 0.57736 0.85768 0.12993 0.0
C868 C 0.59787 0.84621 0.10984 0.0
C869 C 0.59012 0.8673 0.15801 0.0
C870 C 0.56901 0.87813 0.18097 0.0
C871 C 0.54255 0.86518 0.19178 0.0
C872 C 0.52242 0.87557 0.21299 0.0
C873 C 0.52863 0.89886 0.22378 0.0
C874 C 0.55505 0.91177 0.21343 0.0
C875 C 0.57522 0.90148 0.19216 0.0
H876 H 0.51301 0.90688 0.24021 0.0
H877 H 0.70723 0.80585 0.03324 0.0
H878 H 0.98252 0.93243 0.16705 0.0
H879 H 0.04115 0.93977 0.1693 0.0
H880 H 0.03931 0.94562 0.07044 0.0
H881 H 0.98087 0.93828 0.06808 0.0
H882 H 0.08825 0.91476 0.09609 0.0
H883 H 0.04639 0.99482 0.10909 0.0
H884 H 0.01359 0.02589 0.13331 0.0
H885 H 0.06536 0.0139 0.21977 0.0
H886 H 0.09818 0.98249 0.19615 0.0
H887 H 0.24803 0.95384 0.08089 0.0
H888 H 0.18875 0.95409 0.07705 0.0
H889 H 0.18654 0.95887 0.17585 0.0
H890 H 0.24571 0.95911 0.17966 0.0
H891 H 0.13913 0.98496 0.14963 0.0
H892 H 0.17988 0.9048 0.1389 0.0
H893 H 0.21324 0.87316 0.1165 0.0
H894 H 0.16364 0.8835 0.02864 0.0
H895 H 0.13035 0.91552 0.05039 0.0
C896 C 0.99468 0.93532 0.14586 0.0
C897 C 0.97718 0.93493 0.11742 0.0
C898 C 0.02804 0.93961 0.14717 0.0
C899 C 0.04439 0.94334 0.12002 0.0
C900 C 0.02702 0.94284 0.09161 0.0
C901 C 0.99366 0.93886 0.09033 0.0
C902 C 0.07978 0.94733 0.12118 0.0
C903 C 0.09941 0.93027 0.1074 0.0
C904 C 0.09419 0.96723 0.13669 0.0
C905 C 0.07451 0.98612 0.15092 0.0
C906 C 0.05058 0.99865 0.13333 0.0
C907 C 0.03203 0.01636 0.14694 0.0
C908 C 0.03732 0.02182 0.17808 0.0
C909 C 0.06125 1.00962 0.19566 0.0
C910 C 0.07985 0.99188 0.18217 0.0
C911 C 0.2348 0.95532 0.10169 0.0
C912 C 0.25137 0.95628 0.13055 0.0
C913 C 0.20102 0.95539 0.09951 0.0
C914 C 0.18327 0.95594 0.12623 0.0
C915 C 0.19977 0.95835 0.15496 0.0
C916 C 0.23357 0.95857 0.15711 0.0
C917 C 0.14771 0.95244 0.12441 0.0
C918 C 0.12803 0.9695 0.13818 0.0
C919 C 0.13324 0.93233 0.10923 0.0
C920 C 0.15283 0.91275 0.09621 0.0
C921 C 0.17622 0.90044 0.11476 0.0
C922 C 0.19512 0.88243 0.10218 0.0
C923 C 0.19063 0.87637 0.07115 0.0
C924 C 0.16713 0.88824 0.05266 0.0
C925 C 0.14823 0.90632 0.0651 0.0
H926 H 0.20529 0.86245 0.06143 0.0
H927 H 0.02294 0.03555 0.18856 0.0
H928 H 0.23973 0.64041 0.90467 0.0
H929 H 0.29804 0.63398 0.90592 0.0
H930 H 0.28318 0.56307 0.86776 0.0
H931 H 0.22456 0.56917 0.8669 0.0
H932 H 0.34031 0.60136 0.93228 0.0
H933 H 0.34029 0.5555 0.81344 0.0
H934 H 0.30647 0.55373 0.76524 0.0
H935 H 0.26895 0.62411 0.78293 0.0
H936 H 0.30285 0.62642 0.83098 0.0
H937 H 0.50219 0.56563 0.90611 0.0
H938 H 0.44324 0.56389 0.90926 0.0
H939 H 0.43307 0.62127 0.84263 0.0
H940 H 0.49167 0.62256 0.83866 0.0
H941 H 0.38821 0.58769 0.83135 0.0
H942 H 0.42977 0.63252 0.91906 0.0
H943 H 0.46398 0.63907 0.96624 0.0
H944 H 0.41891 0.57895 0.00934 0.0
H945 H 0.38474 0.57183 0.96222 0.0
C946 C 0.24865 0.6232 0.89722 0.0
C947 C 0.22731 0.60536 0.88543 0.0
C948 C 0.2821 0.61959 0.89788 0.0
C949 C 0.29492 0.59818 0.8866 0.0
C950 C 0.27375 0.57988 0.87618 0.0
C951 C 0.24027 0.58343 0.87559 0.0
C952 C 0.33035 0.59578 0.88383 0.0
C953 C 0.3508 0.59814 0.91028 0.0
C954 C 0.34402 0.59206 0.85501 0.0
C955 C 0.32381 0.59098 0.82597 0.0
C956 C 0.32488 0.57061 0.80698 0.0
C957 C 0.3057 0.56952 0.7797 0.0
C958 C 0.28549 0.58876 0.77109 0.0
C959 C 0.28451 0.60918 0.78969 0.0
C960 C 0.30367 0.61037 0.81696 0.0
C961 C 0.48737 0.57761 0.89181 0.0
C962 C 0.50168 0.5944 0.87235 0.0
C963 C 0.45371 0.57673 0.89381 0.0
C964 C 0.43379 0.59265 0.87645 0.0
C965 C 0.44796 0.60886 0.85631 0.0
C966 C 0.48152 0.60975 0.8543 0.0
C967 C 0.39826 0.59312 0.87985 0.0
C968 C 0.37775 0.59045 0.85346 0.0
C969 C 0.38461 0.59715 0.90862 0.0
C970 C 0.40497 0.60148 0.93702 0.0
C971 C 0.42734 0.62059 0.93852 0.0
C972 C 0.44669 0.62442 0.96526 0.0
C973 C 0.44369 0.60939 0.99074 0.0
C974 C 0.42125 0.59054 0.98957 0.0
C975 C 0.40188 0.58661 0.96286 0.0
H976 H 0.4587 0.61238 0.01142 0.0
H977 H 0.27065 0.58787 0.74997 0.0
H978 H 0.74842 0.6873 0.82243 0.0
H979 H 0.80457 0.69373 0.83994 0.0
H980 H 0.77697 0.69216 0.93421 0.0
H981 H 0.72025 0.68615 0.91682 0.0
H982 H 0.82853 0.72751 0.91807 0.0
H983 H 0.79982 0.64302 0.91245 0.0
H984 H 0.77336 0.60874 0.88545 0.0
H985 H 0.83693 0.61711 0.81094 0.0
H986 H 0.86343 0.65169 0.83727 0.0
H987 H 0.99668 0.6598 0.93718 0.0
H988 H 0.93757 0.66069 0.93922 0.0
H989 H 0.93508 0.72676 0.88682 0.0
H990 H 0.99393 0.72611 0.88525 0.0
H991 H 0.89614 0.65728 0.89208 0.0
H992 H 0.87092 0.75925 0.89944 0.0
H993 H 0.8956 0.79538 0.92318 0.0
H994 H 0.93941 0.75225 0.99573 0.0
H995 H 0.91496 0.71573 0.9723 0.0
C996 C 0.75402 0.68903 0.84684 0.0
C997 C 0.73001 0.68589 0.8683 0.0
C998 C 0.78613 0.69261 0.85679 0.0
C999 C 0.79468 0.69308 0.88828 0.0
C1000 C 0.77061 0.69174 0.9098 0.0
C1001 C 0.7384 0.68808 0.89985 0.0
C1002 C 0.82905 0.69206 0.89838 0.0
C1003 C 0.84342 0.71214 0.91275 0.0
C1004 C 0.848 0.67176 0.89172 0.0
C1005 C 0.83347 0.65004 0.87675 0.0
C1006 C 0.80813 0.63756 0.89029 0.0
C1007 C 0.7931 0.61811 0.87509 0.0
C1008 C 0.80336 0.61085 0.84644 0.0
C1009 C 0.82897 0.6228 0.83312 0.0
C1010 C 0.84404 0.6423 0.84819 0.0
C1011 C 0.98343 0.67461 0.92644 0.0
C1012 C -0.00023 0.69286 0.91104 0.0
C1013 C 0.94978 0.67517 0.9277 0.0
C1014 C 0.93198 0.69393 0.91349 0.0
C1015 C 0.94836 0.71244 0.89865 0.0
C1016 C 0.98199 0.71202 0.89767 0.0
C1017 C 0.89621 0.69301 0.91143 0.0
C1018 C 0.88141 0.6725 0.89828 0.0
C1019 C 0.87692 0.7129 0.9194 0.0
C1020 C 0.89118 0.73476 0.93407 0.0
C1021 C 0.88563 0.75748 0.92058 0.0
C1022 C 0.89965 0.77804 0.93396 0.0
C1023 C 0.91902 0.77616 0.96104 0.0
C1024 C 0.92443 0.75368 0.97475 0.0
C1025 C 0.91058 0.73303 0.96137 0.0
H1026 H 0.92991 0.79208 0.97139 0.0
H1027 H 0.79143 0.59601 0.83451 0.0
H1028 H 0.50549 0.62188 0.36255 0.0
H1029 H 0.45348 0.63869 0.34477 0.0
H1030 H 0.48004 0.70689 0.38643 0.0
H1031 H 0.5314 0.68928 0.40589 0.0
H1032 H 0.42506 0.69751 0.40225 0.0
H1033 H 0.46642 0.69923 0.30399 0.0
H1034 H 0.49472 0.68658 0.2583 0.0
H1035 H 0.42771 0.62809 0.24409 0.0
H1036 H 0.39905 0.64032 0.28992 0.0
H1037 H 0.25966 0.7233 0.34047 0.0
H1038 H 0.31931 0.72669 0.34328 0.0
H1039 H 0.3267 0.64948 0.35175 0.0
H1040 H 0.26748 0.64627 0.34999 0.0
H1041 H 0.36653 0.67673 0.30381 0.0
H1042 H 0.33471 0.67462 0.41242 0.0
H1043 H 0.30628 0.69205 0.45567 0.0
H1044 H 0.35801 0.75846 0.4457 0.0
H1045 H 0.38616 0.74157 0.40188 0.0
C1046 C 0.5003 0.64056 0.36734 0.0
C1047 C 0.52201 0.65433 0.38561 0.0
C1048 C 0.47077 0.6503 0.35693 0.0
C1049 C 0.46293 0.67427 0.36374 0.0
C1050 C 0.48547 0.68838 0.38085 0.0
C1051 C 0.51467 0.67838 0.39199 0.0
C1052 C 0.42972 0.68327 0.35646 0.0
C1053 C 0.41267 0.69361 0.38031 0.0
C1054 C 0.41328 0.67849 0.32784 0.0
C1055 C 0.43065 0.67068 0.3005 0.0
C1056 C 0.45784 0.68356 0.29127 0.0
C1057 C 0.47393 0.67647 0.26528 0.0
C1058 C 0.46308 0.65649 0.24827 0.0
C1059 C 0.43608 0.64357 0.25725 0.0
C1060 C 0.41983 0.65063 0.2832 0.0
C1061 C 0.27431 0.70723 0.34313 0.0
C1062 C 0.25958 0.6846 0.3455 0.0
C1063 C 0.30804 0.70913 0.3446 0.0
C1064 C 0.32701 0.68831 0.34765 0.0
C1065 C 0.31221 0.66568 0.34938 0.0
C1066 C 0.27865 0.66386 0.34866 0.0
C1067 C 0.36244 0.68968 0.34993 0.0
C1068 C 0.37962 0.68135 0.32517 0.0
C1069 C 0.37915 0.69695 0.3773 0.0
C1070 C 0.36212 0.70698 0.40359 0.0
C1071 C 0.33967 0.69304 0.41917 0.0
C1072 C 0.32365 0.70281 0.44383 0.0
C1073 C 0.33017 0.72641 0.45331 0.0
C1074 C 0.35281 0.74025 0.43821 0.0
C1075 C 0.36878 0.7306 0.41346 0.0
H1076 H 0.31779 0.73393 0.47243 0.0
H1077 H 0.47551 0.65105 0.2281 0.0
H1078 H 0.76578 0.53875 0.39905 0.0
H1079 H 0.82449 0.54238 0.39466 0.0
H1080 H 0.81262 0.61612 0.36514 0.0
H1081 H 0.75405 0.61247 0.36895 0.0
H1082 H 0.85549 0.59085 0.33036 0.0
H1083 H 0.83533 0.60458 0.43672 0.0
H1084 H 0.81407 0.5947 0.48721 0.0
H1085 H 0.87387 0.53159 0.49308 0.0
H1086 H 0.89507 0.54087 0.44233 0.0
H1087 H 0.01417 0.6376 0.35922 0.0
H1088 H 0.95615 0.62924 0.35706 0.0
H1089 H 0.97474 0.55769 0.39217 0.0
H1090 H 0.03289 0.56585 0.39414 0.0
H1091 H 0.92854 0.57949 0.4229 0.0
H1092 H 0.95161 0.56719 0.31782 0.0
H1093 H 0.97232 0.57684 0.26707 0.0
H1094 H 0.90665 0.63648 0.25788 0.0
H1095 H 0.88627 0.6277 0.30901 0.0
C1096 C 0.7757 0.55563 0.39136 0.0
C1097 C 0.75536 0.57538 0.38462 0.0
C1098 C 0.80919 0.55773 0.38901 0.0
C1099 C 0.82284 0.57958 0.37979 0.0
C1100 C 0.80253 0.59912 0.37234 0.0
C1101 C 0.76912 0.59708 0.37485 0.0
C1102 C 0.85836 0.58236 0.37865 0.0
C1103 C 0.87152 0.58861 0.35061 0.0
C1104 C 0.87916 0.57884 0.40499 0.0
C1105 C 0.86653 0.57329 0.43557 0.0
C1106 C 0.84374 0.58848 0.44865 0.0
C1107 C 0.83173 0.58301 0.47733 0.0
C1108 C 0.84256 0.56251 0.49331 0.0
C1109 C 0.86547 0.54745 0.48065 0.0
C1110 C 0.87749 0.55281 0.45193 0.0
C1111 C 0.00603 0.61994 0.36597 0.0
C1112 C 0.02824 0.60239 0.37689 0.0
C1113 C 0.9728 0.61521 0.36479 0.0
C1114 C 0.96114 0.59279 0.37429 0.0
C1115 C 0.98324 0.57514 0.38482 0.0
C1116 C 0.01645 0.57986 0.38603 0.0
C1117 C 0.92585 0.58812 0.37456 0.0
C1118 C 0.91265 0.58157 0.40252 0.0
C1119 C 0.90506 0.59136 0.34811 0.0
C1120 C 0.91765 0.59693 0.31748 0.0
C1121 C 0.94189 0.58258 0.30519 0.0
C1122 C 0.95358 0.58789 0.27633 0.0
C1123 C 0.94095 0.60736 0.25933 0.0
C1124 C 0.91657 0.6215 0.27114 0.0
C1125 C 0.90496 0.61639 0.30009 0.0
H1126 H 0.94997 0.61141 0.23696 0.0
H1127 H 0.83326 0.55831 0.51553 0.0
H1128 H 0.48907 0.41488 0.18522 0.0
H1129 H 0.54852 0.41744 0.18602 0.0
H1130 H 0.54471 0.42406 0.08728 0.0
H1131 H 0.48546 0.42196 0.08637 0.0
H1132 H 0.59068 0.3838 0.13379 0.0
H1133 H 0.56509 0.46747 0.09648 0.0
H1134 H 0.53619 0.50589 0.1024 0.0
H1135 H 0.57484 0.51171 0.19537 0.0
H1136 H 0.60359 0.4731 0.19004 0.0
H1137 H 0.75034 0.40713 0.08844 0.0
H1138 H 0.69174 0.40389 0.09276 0.0
H1139 H 0.69814 0.44605 0.17581 0.0
H1140 H 0.75663 0.44952 0.17158 0.0
H1141 H 0.64995 0.46142 0.14122 0.0
H1142 H 0.68633 0.38466 0.17528 0.0
H1143 H 0.71339 0.34519 0.17533 0.0
H1144 H 0.65358 0.32348 0.09699 0.0
H1145 H 0.62694 0.36314 0.09571 0.0
C1146 C 0.50098 0.41694 0.16375 0.0
C1147 C 0.48271 0.41839 0.13576 0.0
C1148 C 0.53481 0.41846 0.16424 0.0
C1149 C 0.55077 0.42113 0.13672 0.0
C1150 C 0.53267 0.42228 0.10875 0.0
C1151 C 0.4989 0.42117 0.10829 0.0
C1152 C 0.58648 0.42221 0.13701 0.0
C1153 C 0.60384 0.4007 0.135 0.0
C1154 C 0.6033 0.44423 0.13983 0.0
C1155 C 0.58604 0.46731 0.14301 0.0
C1156 C 0.56708 0.47682 0.11828 0.0
C1157 C 0.55083 0.49865 0.12149 0.0
C1158 C 0.55357 0.51119 0.14929 0.0
C1159 C 0.57266 0.50195 0.17389 0.0
C1160 C 0.58893 0.4801 0.17078 0.0
C1161 C 0.73933 0.41556 0.10775 0.0
C1162 C 0.75824 0.42866 0.12961 0.0
C1163 C 0.70582 0.41363 0.11022 0.0
C1164 C 0.69053 0.42447 0.13477 0.0
C1165 C 0.70934 0.43756 0.15661 0.0
C1166 C 0.74281 0.43963 0.15407 0.0
C1167 C 0.6548 0.42288 0.13706 0.0
C1168 C 0.63721 0.44434 0.13983 0.0
C1169 C 0.63787 0.40065 0.13531 0.0
C1170 C 0.65484 0.37707 0.13521 0.0
C1171 C 0.67928 0.37165 0.15773 0.0
C1172 C 0.69451 0.3492 0.15802 0.0
C1173 C 0.68521 0.33184 0.13618 0.0
C1174 C 0.6607 0.33692 0.11395 0.0
C1175 C 0.64566 0.35945 0.11332 0.0
H1176 H 0.69699 0.31445 0.13647 0.0
H1177 H 0.541 0.5281 0.15173 0.0
H1178 H 0.25134 0.31132 0.20652 0.0
H1179 H 0.19555 0.29724 0.19749 0.0
H1180 H 0.1854 0.34312 0.11754 0.0
H1181 H 0.24052 0.35725 0.12648 0.0
H1182 H 0.14345 0.32221 0.20063 0.0
H1183 H 0.13444 0.32236 0.06421 0.0
H1184 H 0.16625 0.30632 0.02239 0.0
H1185 H 0.21349 0.25655 0.08519 0.0
H1186 H 0.18133 0.2717 0.12719 0.0
H1187 H 0.00892 0.38144 0.14396 0.0
H1188 H 0.06028 0.36298 0.16049 0.0
H1189 H 0.0352 0.29961 0.10709 0.0
H1190 H 0.98449 0.31903 0.08903 0.0
H1191 H 0.0917 0.30849 0.0971 0.0
H1192 H 0.04285 0.29905 0.19011 0.0
H1193 H 0.00996 0.30821 0.23439 0.0
H1194 H 0.07656 0.36414 0.26265 0.0
H1195 H 0.1096 0.35562 0.21831 0.0
C1196 C 0.23726 0.31821 0.18687 0.0
C1197 C 0.25036 0.33552 0.16732 0.0
C1198 C 0.20549 0.31002 0.18163 0.0
C1199 C 0.1864 0.31889 0.15665 0.0
C1200 C 0.19988 0.3355 0.13652 0.0
C1201 C 0.23151 0.34366 0.14172 0.0
C1202 C 0.1513 0.31355 0.15336 0.0
C1203 C 0.13201 0.31882 0.17814 0.0
C1204 C 0.13634 0.30764 0.1245 0.0
C1205 C 0.15544 0.29827 0.09898 0.0
C1206 C 0.15133 0.30781 0.06909 0.0
C1207 C 0.16946 0.29886 0.04531 0.0
C1208 C 0.19183 0.28039 0.0511 0.0
C1209 C 0.1961 0.2708 0.08068 0.0
C1210 C 0.17793 0.27958 0.10449 0.0
C1211 C 0.0143 0.36345 0.13617 0.0
C1212 C 0.99305 0.35161 0.11527 0.0
C1213 C 0.04348 0.35274 0.14585 0.0
C1214 C 0.05147 0.32957 0.13566 0.0
C1215 C 0.02965 0.31743 0.11537 0.0
C1216 C 0.00079 0.32848 0.10504 0.0
C1217 C 0.08408 0.31952 0.1437 0.0
C1218 C 0.10286 0.31114 0.11985 0.0
C1219 C 0.09837 0.32141 0.17381 0.0
C1220 C 0.07875 0.32665 0.20079 0.0
C1221 C 0.05043 0.31338 0.20568 0.0
C1222 C 0.03175 0.31846 0.23081 0.0
C1223 C 0.04117 0.33673 0.25133 0.0
C1224 C 0.06932 0.34995 0.24677 0.0
C1225 C 0.0881 0.34495 0.22167 0.0
H1226 H 0.02665 0.34065 0.27076 0.0
H1227 H 0.20587 0.27351 0.03268 0.0
H1228 H 0.50814 0.3014 0.6169 0.0
H1229 H 0.56426 0.30624 0.60334 0.0
H1230 H 0.53538 0.36035 0.53632 0.0
H1231 H 0.47902 0.356 0.55061 0.0
H1232 H 0.60516 0.30672 0.55625 0.0
H1233 H 0.58674 0.40676 0.54689 0.0
H1234 H 0.54574 0.43773 0.55607 0.0
H1235 H 0.51303 0.39732 0.63293 0.0
H1236 H 0.55422 0.3662 0.62432 0.0
H1237 H 0.76526 0.35963 0.57589 0.0
H1238 H 0.71096 0.35216 0.55284 0.0
H1239 H 0.67007 0.36415 0.64089 0.0
H1240 H 0.72391 0.37224 0.66378 0.0
H1241 H 0.63697 0.3881 0.59354 0.0
H1242 H 0.67544 0.30432 0.61665 0.0
H1243 H 0.71627 0.27231 0.61159 0.0
H1244 H 0.70924 0.27995 0.51333 0.0
H1245 H 0.66832 0.31197 0.51792 0.0
C1246 C 0.51358 0.31374 0.59856 0.0
C1247 C 0.48949 0.32877 0.58531 0.0
C1248 C 0.54566 0.3164 0.59067 0.0
C1249 C 0.55402 0.33398 0.56925 0.0
C1250 C 0.52944 0.34695 0.55327 0.0
C1251 C 0.49737 0.34458 0.56156 0.0
C1252 C 0.58816 0.34181 0.56885 0.0
C1253 C 0.61218 0.32465 0.56371 0.0
C1254 C 0.59735 0.36525 0.5786 0.0
C1255 C 0.5733 0.38414 0.58479 0.0
C1256 C 0.5709 0.40459 0.56584 0.0
C1257 C 0.54761 0.42216 0.57094 0.0
C1258 C 0.52674 0.41953 0.59509 0.0
C1259 C 0.52921 0.39934 0.61425 0.0
C1260 C 0.55255 0.38175 0.6093 0.0
C1261 C 0.74463 0.36082 0.59023 0.0
C1262 C 0.7488 0.36648 0.62166 0.0
C1263 C 0.71373 0.35642 0.57708 0.0
C1264 C 0.68664 0.35763 0.5952 0.0
C1265 C 0.69076 0.36325 0.62652 0.0
C1266 C 0.72154 0.3676 0.63966 0.0
C1267 C 0.65376 0.35269 0.58215 0.0
C1268 C 0.63007 0.37046 0.58478 0.0
C1269 C 0.64492 0.32982 0.57045 0.0
C1270 C 0.66904 0.31046 0.56762 0.0
C1271 C 0.68268 0.29913 0.594 0.0
C1272 C 0.70581 0.28103 0.59122 0.0
C1273 C 0.71544 0.27417 0.56216 0.0
C1274 C 0.70184 0.28533 0.53582 0.0
C1275 C 0.67865 0.30341 0.53848 0.0
H1276 H 0.73333 0.26014 0.56005 0.0
H1277 H 0.50872 0.43314 0.59902 0.0
H1278 H -0.00015 0.44452 0.58151 0.0
H1279 H 0.05917 0.44224 0.5841 0.0
H1280 H 0.0572 0.41227 0.67542 0.0
H1281 H 0.99777 0.4142 0.67275 0.0
H1282 H 0.10344 0.45302 0.66528 0.0
H1283 H 0.06777 0.37595 0.62413 0.0
H1284 H 0.03725 0.35029 0.5868 0.0
H1285 H 0.0911 0.37957 0.51346 0.0
H1286 H 0.12132 0.40591 0.55022 0.0
H1287 H 0.26383 0.41301 0.69071 0.0
H1288 H 0.2051 0.41772 0.68639 0.0
H1289 H 0.20886 0.42155 0.58754 0.0
H1290 H 0.26773 0.41559 0.59198 0.0
H1291 H 0.16082 0.39568 0.5997 0.0
H1292 H 0.19544 0.47269 0.63544 0.0
H1293 H 0.2247 0.50228 0.66849 0.0
H1294 H 0.1731 0.4782 0.74621 0.0
H1295 H 0.14382 0.44823 0.71371 0.0
C1296 C 0.01211 0.43761 0.60219 0.0
C1297 C 0.9943 0.42955 0.62696 0.0
C1298 C 0.0459 0.43624 0.60359 0.0
C1299 C 0.06242 0.42709 0.62993 0.0
C1300 C 0.04478 0.41941 0.65492 0.0
C1301 C 0.01095 0.42038 0.65331 0.0
C1302 C 0.09814 0.42517 0.63121 0.0
C1303 C 0.1161 0.44031 0.65126 0.0
C1304 C 0.11444 0.40925 0.61194 0.0
C1305 C 0.09657 0.39311 0.58992 0.0
C1306 C 0.07288 0.37711 0.60001 0.0
C1307 C 0.05566 0.36241 0.57896 0.0
C1308 C 0.06222 0.36331 0.54779 0.0
C1309 C 0.08602 0.3789 0.53761 0.0
C1310 C 0.10318 0.39374 0.55854 0.0
C1311 C 0.25211 0.41515 0.66811 0.0
C1312 C 0.27024 0.41423 0.64167 0.0
C1313 C 0.21852 0.41791 0.66562 0.0
C1314 C 0.20242 0.42054 0.63665 0.0
C1315 C 0.22062 0.41963 0.61017 0.0
C1316 C 0.2542 0.41632 0.61266 0.0
C1317 C 0.16657 0.42347 0.63407 0.0
C1318 C 0.14843 0.40852 0.61373 0.0
C1319 C 0.1501 0.44005 0.65251 0.0
C1320 C 0.16764 0.45806 0.67217 0.0
C1321 C 0.1905 0.47358 0.65962 0.0
C1322 C 0.20706 0.49044 0.67825 0.0
C1323 C 0.20082 0.49208 0.70944 0.0
C1324 C 0.17794 0.47689 0.72205 0.0
C1325 C 0.16132 0.45998 0.70353 0.0
H1326 H 0.21367 0.50514 0.72383 0.0
H1327 H 0.04889 0.3519 0.53153 0.0
H1328 H 0.10518 0.19036 0.25679 0.0
H1329 H 0.10341 0.20002 0.2019 0.0
H1330 H 0.1689 0.14142 0.18616 0.0
H1331 H 0.1709 0.13176 0.24105 0.0
H1332 H 0.18354 0.17952 0.15175 0.0
H1333 H 0.08637 0.13548 0.1734 0.0
H1334 H 0.03586 0.12783 0.19983 0.0
H1335 H 0.99751 0.19551 0.16739 0.0
H1336 H 0.04801 0.2037 0.14108 0.0
H1337 H 0.14642 0.13922 1.00226 0.0
H1338 H 0.14861 0.14369 0.05779 0.0
H1339 H 0.10086 0.2124 0.04876 0.0
H1340 H 0.09982 0.20863 0.99237 0.0
H1341 H 0.0764 0.17707 0.09537 0.0
H1342 H 0.17236 0.21745 0.06684 0.0
H1343 H 0.22237 0.22248 0.03881 0.0
H1344 H 0.26288 0.15958 0.08316 0.0
H1345 H 0.21284 0.1539 0.11105 0.0
C1346 C 0.11932 0.17959 0.24165 0.0
C1347 C 0.13798 0.16015 0.25328 0.0
C1348 C 0.11828 0.18514 0.21027 0.0
C1349 C 0.1356 0.17122 0.18977 0.0
C1350 C 0.15531 0.15244 0.2015 0.0
C1351 C 0.1565 0.14695 0.23293 0.0
C1352 C 0.13212 0.1754 0.15598 0.0
C1353 C 0.16012 0.17893 0.13946 0.0
C1354 C 0.10147 0.17526 0.1399 0.0
C1355 C 0.07109 0.17033 0.1556 0.0
C1356 C 0.06726 0.14881 0.1721 0.0
C1357 C 0.03862 0.14437 0.18703 0.0
C1358 C 0.01353 0.16121 0.18537 0.0
C1359 C 0.01699 0.18251 0.1687 0.0
C1360 C 0.0456 0.18706 0.15377 0.0
C1361 C 0.13683 0.15556 0.01182 0.0
C1362 C 0.12364 0.17386 0.99262 0.0
C1363 C 0.13788 0.15795 0.04368 0.0
C1364 C 0.12531 0.17849 0.05733 0.0
C1365 C 0.11084 0.19644 0.03856 0.0
C1366 C 0.11017 0.19421 0.0064 0.0
C1367 C 0.12782 0.18074 0.09128 0.0
C1368 C 0.09971 0.17826 0.1078 0.0
C1369 C 0.15836 0.18167 0.10734 0.0
C1370 C 0.18871 0.18516 0.0909 0.0
C1371 C 0.19181 0.20456 0.07043 0.0
C1372 C 0.22019 0.20755 0.05458 0.0
C1373 C 0.24577 0.19134 0.05916 0.0
C1374 C 0.24304 0.17213 0.07964 0.0
C1375 C 0.21468 0.16903 0.0955 0.0
H1376 H 0.26774 0.1937 0.04691 0.0
H1377 H 0.99138 0.15774 0.19694 0.0
H1378 H 0.91704 0.83739 1.00241 0.0
H1379 H 0.91899 0.83324 0.94677 0.0
H1380 H 0.82425 0.86493 0.93509 0.0
H1381 H 0.82316 0.87165 0.99 0.0
H1382 H 0.83432 0.81983 0.90073 0.0
H1383 H 0.88226 0.89873 0.92088 0.0
H1384 H 0.92204 0.92602 0.94656 0.0
H1385 H -9e-05 0.88563 0.91002 0.0
H1386 H 0.96055 0.85788 0.88448 0.0
H1387 H 0.81757 0.8526 0.74263 0.0
H1388 H 0.8187 0.84818 0.79866 0.0
H1389 H 0.92203 0.83688 0.79997 0.0
H1390 H 0.92102 0.8418 0.74415 0.0
H1391 H 0.91061 0.86793 0.84087 0.0
H1392 H 0.86695 0.7908 0.818 0.0
H1393 H 0.83072 0.75995 0.79459 0.0
H1394 H 0.74952 0.79185 0.83705 0.0
H1395 H 0.78521 0.82307 0.86046 0.0
C1396 C 0.8967 0.84388 0.98824 0.0
C1397 C 0.86986 0.85482 1.00143 0.0
C1398 C 0.89773 0.84112 0.95632 0.0
C1399 C 0.87154 0.84841 0.93688 0.0
C1400 C 0.84451 0.85881 0.94975 0.0
C1401 C 0.84387 0.86236 0.98147 0.0
C1402 C 0.87259 0.8461 0.90297 0.0
C1403 C 0.85073 0.83048 0.88748 0.0
C1404 C 0.89489 0.85929 0.88596 0.0
C1405 C 0.91849 0.8761 0.90107 0.0
C1406 C 0.90787 0.89556 0.91854 0.0
C1407 C 0.93034 0.91113 0.93303 0.0
C1408 C 0.96348 0.90752 0.93 0.0
C1409 C 0.97423 0.88838 0.91239 0.0
C1410 C 0.95186 0.87274 0.89789 0.0
C1411 C 0.8404 0.84871 0.75484 0.0
C1412 C 0.86923 0.84769 0.73899 0.0
C1413 C 0.84105 0.84613 0.78692 0.0
C1414 C 0.87047 0.84209 0.80374 0.0
C1415 C 0.89905 0.84014 0.78769 0.0
C1416 C 0.89845 0.84295 0.75575 0.0
C1417 C 0.87189 0.8418 0.83809 0.0
C1418 C 0.89424 0.85702 0.85383 0.0
C1419 C 0.85047 0.82781 0.85534 0.0
C1420 C 0.82872 0.80944 0.84071 0.0
C1421 C 0.84131 0.7914 0.82208 0.0
C1422 C 0.82089 0.77379 0.80888 0.0
C1423 C 0.78783 0.77397 0.81427 0.0
C1424 C 0.77513 0.79175 0.83287 0.0
C1425 C 0.79545 0.80939 0.84613 0.0
H1426 H 0.77207 0.7603 0.80408 0.0
H1427 H 0.98084 0.91959 0.94123 0.0
H1428 H 0.08327 0.67687 0.4982 0.0
H1429 H 0.08329 0.68441 0.5535 0.0
H1430 H 0.18327 0.70656 0.55321 0.0
H1431 H 0.18329 0.69962 0.49781 0.0
H1432 H 0.17443 0.67267 0.59613 0.0
H1433 H 0.12608 0.74643 0.56594 0.0
H1434 H 0.08811 0.77511 0.54054 0.0
H1435 H 0.00963 0.74458 0.5888 0.0
H1436 H 0.04703 0.71544 0.61423 0.0
H1437 H 0.1768 0.70194 0.75732 0.0
H1438 H 0.18009 0.70754 0.70179 0.0
H1439 H 0.08428 0.67782 0.68737 0.0
H1440 H 0.08132 0.67085 0.74229 0.0
H1441 H 0.09534 0.72053 0.65255 0.0
H1442 H 0.14546 0.64371 0.67808 0.0
H1443 H 0.18549 0.61768 0.70557 0.0
H1444 H 0.26294 0.6568 0.66592 0.0
H1445 H 0.22335 0.68326 0.63847 0.0
C1446 C 0.10503 0.68396 0.50967 0.0
C1447 C 0.13336 0.68743 0.49347 0.0
C1448 C 0.10503 0.68819 0.54138 0.0
C1449 C 0.13332 0.69599 0.55756 0.0
C1450 C 0.16123 0.70038 0.54127 0.0
C1451 C 0.1612 0.69631 0.50959 0.0
C1452 C 0.13455 0.69759 0.5917 0.0
C1453 C 0.15743 0.68347 0.60841 0.0
C1454 C 0.11224 0.71153 0.60782 0.0
C1455 C 0.08939 0.72852 0.59179 0.0
C1456 C 0.10066 0.74558 0.57087 0.0
C1457 C 0.07924 0.76199 0.55653 0.0
C1458 C 0.04645 0.76159 0.56294 0.0
C1459 C 0.03503 0.74482 0.58379 0.0
C1460 C 0.05635 0.72836 0.5982 0.0
C1461 C 0.15646 0.69643 0.74241 0.0
C1462 C 0.12874 0.68596 0.75463 0.0
C1463 C 0.15829 0.69989 0.71064 0.0
C1464 C 0.13234 0.69322 0.69048 0.0
C1465 C 0.10443 0.68336 0.70256 0.0
C1466 C 0.10276 0.67953 0.73414 0.0
C1467 C 0.13459 0.6952 0.65664 0.0
C1468 C 0.11239 0.70994 0.64008 0.0
C1469 C 0.15767 0.682 0.64062 0.0
C1470 C 0.18144 0.66581 0.65673 0.0
C1471 C 0.17103 0.64695 0.6755 0.0
C1472 C 0.19365 0.63206 0.691 0.0
C1473 C 0.22675 0.63568 0.68765 0.0
C1474 C 0.2373 0.65409 0.66862 0.0
C1475 C 0.21478 0.66905 0.6531 0.0
H1476 H 0.24422 0.62414 0.69969 0.0
H1477 H 0.02992 0.77433 0.55183 0.0
H1478 H 0.81979 0.36081 0.50188 0.0
H1479 H 0.81423 0.35231 0.44691 0.0
H1480 H 0.91823 0.35121 0.44219 0.0
H1481 H 0.92389 0.35959 0.49755 0.0
H1482 H 0.83109 0.38168 0.40484 0.0
H1483 H 0.93765 0.3158 0.37653 0.0
H1484 H 0.96414 0.27955 0.3985 0.0
H1485 H 0.88183 0.2659 0.45254 0.0
H1486 H 0.85461 0.30181 0.43067 0.0
H1487 H 0.8817 0.40413 0.25898 0.0
H1488 H 0.87868 0.39571 0.31339 0.0
H1489 H 0.84777 0.32309 0.29302 0.0
H1490 H 0.85268 0.33102 0.23786 0.0
H1491 H 0.88866 0.32274 0.3418 0.0
H1492 H 0.79307 0.36556 0.31475 0.0
H1493 H 0.75897 0.39747 0.29083 0.0
H1494 H 0.80792 0.45047 0.34764 0.0
H1495 H 0.84267 0.41893 0.3716 0.0
C1496 C 0.8415 0.35839 0.48922 0.0
C1497 C 0.87229 0.36119 0.50395 0.0
C1498 C 0.83829 0.35349 0.45779 0.0
C1499 C 0.86576 0.35126 0.44024 0.0
C1500 C 0.89663 0.35262 0.45522 0.0
C1501 C 0.89987 0.35744 0.48687 0.0
C1502 C 0.862 0.35046 0.40602 0.0
C1503 C 0.84364 0.36868 0.39117 0.0
C1504 C 0.87742 0.33304 0.38799 0.0
C1505 C 0.89417 0.31178 0.40211 0.0
C1506 C 0.92515 0.3051 0.3931 0.0
C1507 C 0.94032 0.28458 0.40555 0.0
C1508 C 0.92475 0.2705 0.42702 0.0
C1509 C 0.89399 0.27693 0.43611 0.0
C1510 C 0.87874 0.29745 0.42378 0.0
C1511 C 0.87477 0.38618 0.26583 0.0
C1512 C 0.86774 0.3682 0.24378 0.0
C1513 C 0.87259 0.38149 0.29714 0.0
C1514 C 0.8625 0.35887 0.30745 0.0
C1515 C 0.8555 0.34073 0.28566 0.0
C1516 C 0.858 0.34537 0.2541 0.0
C1517 C 0.85923 0.35467 0.34103 0.0
C1518 C 0.87608 0.33556 0.35568 0.0
C1519 C 0.8416 0.37078 0.35904 0.0
C1520 C 0.82061 0.38986 0.34486 0.0
C1521 C 0.7967 0.38404 0.32202 0.0
C1522 C 0.77724 0.40206 0.30846 0.0
C1523 C 0.7813 0.42598 0.31768 0.0
C1524 C 0.8048 0.43193 0.34052 0.0
C1525 C 0.82436 0.41397 0.35413 0.0
H1526 H 0.76621 0.43991 0.30715 0.0
H1527 H 0.93649 0.25458 0.43654 0.0
H1528 H 0.58122 0.185 0.5021 0.0
H1529 H 0.57704 0.19138 0.55711 0.0
H1530 H 0.64267 0.13227 0.57586 0.0
H1531 H 0.6434 0.12368 0.52169 0.0
H1532 H 0.60282 0.12999 0.61523 0.0
H1533 H 0.6629 0.19821 0.57776 0.0
H1534 H 0.66912 0.23295 0.54316 0.0
H1535 H 0.58596 0.2666 0.58004 0.0
H1536 H 0.5789 0.23188 0.61449 0.0
H1537 H 0.6635 0.16065 0.76519 0.0
H1538 H 0.6619 0.15976 0.70875 0.0
H1539 H 0.56933 0.19555 0.70584 0.0
H1540 H 0.57046 0.19589 0.76232 0.0
H1541 H 0.61883 0.2115 0.65967 0.0
H1542 H 0.56255 0.14228 0.69934 0.0
H1543 H 0.55751 0.10634 0.73207 0.0
H1544 H 0.63887 0.07407 0.69027 0.0
H1545 H 0.64486 0.1101 0.65776 0.0
C1546 C 0.59429 0.173 0.51782 0.0
C1547 C 0.61327 0.15409 0.50681 0.0
C1548 C 0.59237 0.177 0.54949 0.0
C1549 C 0.61038 0.16284 0.57098 0.0
C1550 C 0.62872 0.14371 0.56004 0.0
C1551 C 0.62968 0.13914 0.52862 0.0
C1552 C 0.61036 0.16752 0.60482 0.0
C1553 C 0.60679 0.14783 0.62474 0.0
C1554 C 0.61472 0.19084 0.6177 0.0
C1555 C 0.62015 0.21233 0.5984 0.0
C1556 C 0.64596 0.21304 0.57849 0.0
C1557 C 0.6496 0.2327 0.55888 0.0
C1558 C 0.62784 0.25189 0.5593 0.0
C1559 C 0.60273 0.25168 0.57969 0.0
C1560 C 0.59889 0.23202 0.59926 0.0
C1561 C 0.64325 0.16887 0.75246 0.0
C1562 C 0.61716 0.17843 0.76799 0.0
C1563 C 0.64227 0.16825 0.7203 0.0
C1564 C 0.61544 0.17752 0.70321 0.0
C1565 C 0.59027 0.18839 0.71865 0.0
C1566 C 0.59093 0.18857 0.75081 0.0
C1567 C 0.61239 0.1739 0.66948 0.0
C1568 C 0.61511 0.19374 0.64982 0.0
C1569 C 0.60795 0.15068 0.65678 0.0
C1570 C 0.60442 0.12904 0.67641 0.0
C1571 C 0.57963 0.12767 0.6974 0.0
C1572 C 0.57656 0.10725 0.71587 0.0
C1573 C 0.59793 0.08797 0.71333 0.0
C1574 C 0.62239 0.08906 0.69228 0.0
C1575 C 0.62565 0.10948 0.67384 0.0
H1576 H 0.59548 0.07217 0.72761 0.0
H1577 H 0.63034 0.26687 0.54372 0.0
H1578 H 0.32583 0.91172 0.26186 0.0
H1579 H 0.33365 0.91024 0.31812 0.0
H1580 H 0.38653 0.84381 0.31124 0.0
H1581 H 0.37947 0.84554 0.25495 0.0
H1582 H 0.3352 0.85035 0.36287 0.0
H1583 H 0.43291 0.88493 0.31743 0.0
H1584 H 0.45761 0.91442 0.28308 0.0
H1585 H 0.41342 0.9723 0.3311 0.0
H1586 H 0.38822 0.9431 0.36551 0.0
H1587 H 0.40041 0.84727 0.51479 0.0
H1588 H 0.39457 0.84322 0.45927 0.0
H1589 H 0.39589 0.92056 0.44975 0.0
H1590 H 0.40697 0.92459 0.50435 0.0
H1591 H 0.41901 0.90704 0.4044 0.0
H1592 H 0.32243 0.87978 0.44965 0.0
H1593 H 0.28814 0.85549 0.48274 0.0
H1594 H 0.31555 0.79126 0.43595 0.0
H1595 H 0.35058 0.8151 0.40299 0.0
C1596 C 0.33834 0.89649 0.27245 0.0
C1597 C 0.35193 0.87867 0.25419 0.0
C1598 C 0.34291 0.89572 0.30449 0.0
C1599 C 0.36067 0.87692 0.31871 0.0
C1600 C 0.37262 0.85838 0.30064 0.0
C1601 C 0.36861 0.85938 0.26858 0.0
C1602 C 0.36945 0.87782 0.35206 0.0
C1603 C 0.35374 0.8625 0.37215 0.0
C1604 C 0.39268 0.89435 0.36402 0.0
C1605 C 0.40862 0.91185 0.34391 0.0
C1606 C 0.4284 0.90394 0.32056 0.0
C1607 C 0.4425 0.9206 0.30111 0.0
C1608 C 0.43708 0.94522 0.3049 0.0
C1609 C 0.41764 0.95323 0.32822 0.0
C1610 C 0.4035 0.93664 0.34773 0.0
C1611 C 0.40059 0.86346 0.50098 0.0
C1612 C 0.40326 0.88636 0.51475 0.0
C1613 C 0.39637 0.86111 0.46899 0.0
C1614 C 0.39313 0.88158 0.44998 0.0
C1615 C 0.39769 0.90433 0.46353 0.0
C1616 C 0.40341 0.90664 0.49523 0.0
C1617 C 0.38452 0.87961 0.41625 0.0
C1618 C 0.40037 0.89474 0.39573 0.0
C1619 C 0.3602 0.86365 0.40414 0.0
C1620 C 0.33944 0.8492 0.42412 0.0
C1621 C 0.32139 0.86045 0.44661 0.0
C1622 C 0.30183 0.84676 0.46534 0.0
C1623 C 0.29982 0.82183 0.46155 0.0
C1624 C 0.3173 0.81055 0.43897 0.0
C1625 C 0.33702 0.82414 0.42027 0.0
H1626 H 0.28461 0.81127 0.47603 0.0
H1627 H 0.44797 0.95808 0.28979 0.0
H1628 H 0.66536 0.66435 1.00357 0.0
H1629 H 0.67005 0.66293 0.05967 0.0
H1630 H 0.56844 0.64582 0.06236 0.0
H1631 H 0.56358 0.64723 0.00593 0.0
H1632 H 0.58803 0.67606 0.10967 0.0
H1633 H 0.62287 0.60145 0.0672 0.0
H1634 H 0.65454 0.57568 0.03373 0.0
H1635 H 0.74291 0.60127 0.07811 0.0
H1636 H 0.71174 0.6275 0.11154 0.0
H1637 H 0.63278 0.59239 0.24862 0.0
H1638 H 0.62829 0.60028 0.19352 0.0
H1639 H 0.64567 0.67577 0.21022 0.0
H1640 H 0.64896 0.6681 0.26578 0.0
H1641 H 0.66724 0.61656 0.15297 0.0
H1642 H 0.60204 0.7087 0.15396 0.0
H1643 H 0.56686 0.73169 0.1875 0.0
H1644 H 0.53296 0.66577 0.22649 0.0
H1645 H 0.567 0.64247 0.1926 0.0
C1646 C 0.64389 0.66053 0.01609 0.0
C1647 C 0.61417 0.6556 1.00024 0.0
C1648 C 0.64662 0.65972 0.04819 0.0
C1649 C 0.61976 0.65381 0.06528 0.0
C1650 C 0.58955 0.65035 0.04968 0.0
C1651 C 0.58676 0.65122 0.01742 0.0
C1652 C 0.62386 0.64965 0.09909 0.0
C1653 C 0.60545 0.66314 0.11916 0.0
C1654 C 0.64618 0.63249 0.11156 0.0
C1655 C 0.66498 0.61661 0.09166 0.0
C1656 C 0.64906 0.60172 0.06966 0.0
C1657 C 0.66692 0.58701 0.05072 0.0
C1658 C 0.70072 0.58688 0.05374 0.0
C1659 C 0.71672 0.60142 0.07576 0.0
C1660 C 0.69898 0.6162 0.09473 0.0
C1661 C 0.63543 0.61074 0.24069 0.0
C1662 C 0.64074 0.62966 0.26181 0.0
C1663 C 0.63317 0.61519 0.20905 0.0
C1664 C 0.63618 0.63867 0.19755 0.0
C1665 C 0.64273 0.65753 0.21846 0.0
C1666 C 0.64492 0.65309 0.25025 0.0
C1667 C 0.63173 0.64319 0.16376 0.0
C1668 C 0.65005 0.6297 0.14361 0.0
C1669 C 0.60888 0.66 0.15126 0.0
C1670 C 0.58742 0.67387 0.17102 0.0
C1671 C 0.58687 0.69914 0.16954 0.0
C1672 C 0.56705 0.71223 0.18859 0.0
C1673 C 0.54765 0.70024 0.20916 0.0
C1674 C 0.54786 0.67511 0.21055 0.0
C1675 C 0.5674 0.66194 0.19141 0.0
H1676 H 0.53247 0.71042 0.22399 0.0
H1677 H 0.71451 0.57548 0.03905 0.0
H1678 H 0.33061 0.31605 0.7638 0.0
H1679 H 0.32856 0.31171 0.8197 0.0
H1680 H 0.41759 0.35173 0.83171 0.0
H1681 H 0.41931 0.35702 0.77635 0.0
H1682 H 0.41563 0.31084 0.8691 0.0
H1683 H 0.34898 0.37964 0.84107 0.0
H1684 H 0.30391 0.40012 0.81265 0.0
H1685 H 0.23599 0.35165 0.85176 0.0
H1686 H 0.28077 0.33065 0.88008 0.0
H1687 H 0.42111 0.35317 0.02211 0.0
H1688 H 0.42124 0.34553 0.96685 0.0
H1689 H 0.32277 0.31973 0.96801 0.0
H1690 H 0.32235 0.32798 0.02318 0.0
H1691 H 0.32629 0.34897 0.92322 0.0
H1692 H 0.38948 0.28232 0.95608 0.0
H1693 H 0.43283 0.25927 0.98339 0.0
H1694 H 0.50446 0.29743 0.93409 0.0
H1695 H 0.46164 0.32142 0.90733 0.0
C1696 C 0.34969 0.32406 0.77828 0.0
C1697 C 0.37511 0.33692 0.76529 0.0
C1698 C 0.34855 0.32143 0.81025 0.0
C1699 C 0.37284 0.33152 0.82985 0.0
C1700 C 0.39868 0.3437 0.817 0.0
C1701 C 0.39968 0.34656 0.78518 0.0
C1702 C 0.371 0.33031 0.86383 0.0
C1703 C 0.39615 0.31904 0.88108 0.0
C1704 C 0.34513 0.3407 0.87925 0.0
C1705 C 0.31823 0.35341 0.8624 0.0
C1706 C 0.32446 0.37322 0.8434 0.0
C1707 C 0.29897 0.38494 0.82735 0.0
C1708 C 0.26711 0.37714 0.83032 0.0
C1709 C 0.26068 0.35764 0.84943 0.0
C1710 C 0.2861 0.34583 0.8655 0.0
C1711 C 0.39975 0.34538 0.0107 0.0
C1712 C 0.37172 0.34117 0.027 0.0
C1713 C 0.39982 0.34098 0.97904 0.0
C1714 C 0.37207 0.33186 0.96309 0.0
C1715 C 0.34445 0.32685 0.97963 0.0
C1716 C 0.34424 0.33152 0.01119 0.0
C1717 C 0.37112 0.32924 0.92893 0.0
C1718 C 0.3455 0.34002 0.91153 0.0
C1719 C 0.39628 0.31787 0.91334 0.0
C1720 C 0.42228 0.30391 0.92995 0.0
C1721 C 0.41449 0.28609 0.95139 0.0
C1722 C 0.43899 0.27285 0.96678 0.0
C1723 C 0.47138 0.27688 0.96048 0.0
C1724 C 0.47936 0.29434 0.93898 0.0
C1725 C 0.45498 0.30786 0.9238 0.0
H1726 H 0.49028 0.26643 0.97222 0.0
H1727 H 0.24741 0.38624 0.81789 0.0
H1728 H 0.2842 0.30116 0.62342 0.0
H1729 H 0.25557 0.27348 0.58832 0.0
H1730 H 0.3116 0.29919 0.51381 0.0
H1731 H 0.34011 0.32755 0.54911 0.0
H1732 H 0.24949 0.28904 0.49412 0.0
H1733 H 0.33338 0.24798 0.55276 0.0
H1734 H 0.36403 0.23532 0.59997 0.0
H1735 H 0.27932 0.20029 0.63215 0.0
H1736 H 0.24801 0.21307 0.58531 0.0
H1737 H 0.22868 0.18955 0.39694 0.0
H1738 H 0.25408 0.21801 0.43301 0.0
H1739 H 0.19167 0.19383 0.50347 0.0
H1740 H 0.1658 0.16496 0.46707 0.0
H1741 H 0.25581 0.20316 0.52559 0.0
H1742 H 0.17241 0.2437 0.4655 0.0
H1743 H 0.1428 0.25604 0.41759 0.0
H1744 H 0.2279 0.29172 0.38737 0.0
H1745 H 0.2582 0.27925 0.43491 0.0
C1746 C 0.29002 0.3013 0.5994 0.0
C1747 C 0.31456 0.31644 0.58905 0.0
C1748 C 0.27376 0.28531 0.57939 0.0
C1749 C 0.28201 0.28368 0.54857 0.0
C1750 C 0.30499 0.29994 0.53757 0.0
C1751 C 0.32115 0.31624 0.55767 0.0
C1752 C 0.26782 0.26416 0.52861 0.0
C1753 C 0.25125 0.27026 0.50084 0.0
C1754 C 0.26944 0.23959 0.53759 0.0
C1755 C 0.28828 0.23167 0.56565 0.0
C1756 C 0.32123 0.23772 0.57 0.0
C1757 C 0.33873 0.2305 0.59668 0.0
C1758 C 0.32361 0.21706 0.61908 0.0
C1759 C 0.29099 0.21074 0.6148 0.0
C1760 C 0.27336 0.21794 0.58817 0.0
C1761 C 0.22054 0.18997 0.42023 0.0
C1762 C 0.19494 0.1751 0.42903 0.0
C1763 C 0.23506 0.20638 0.44081 0.0
C1764 C 0.22431 0.20851 0.47074 0.0
C1765 C 0.20018 0.19263 0.48037 0.0
C1766 C 0.18553 0.17606 0.45963 0.0
C1767 C 0.23751 0.22806 0.49115 0.0
C1768 C 0.25395 0.22195 0.51896 0.0
C1769 C 0.2359 0.2526 0.48214 0.0
C1770 C 0.21765 0.26036 0.45367 0.0
C1771 C 0.18489 0.25403 0.44855 0.0
C1772 C 0.16797 0.26106 0.42147 0.0
C1773 C 0.18348 0.27461 0.39942 0.0
C1774 C 0.21593 0.2812 0.40446 0.0
C1775 C 0.23298 0.27417 0.43148 0.0
H1776 H 0.17034 0.28004 0.37847 0.0
H1777 H 0.3372 0.21149 0.63973 0.0
H1778 H 0.88867 0.93683 0.52774 0.0
H1779 H 0.9165 0.96926 0.50063 0.0
H1780 H 0.00834 0.94423 0.5395 0.0
H1781 H 0.98069 0.91259 0.5669 0.0
H1782 H 0.00516 0.98994 0.54828 0.0
H1783 H 0.98231 0.93896 0.46014 0.0
H1784 H 0.94798 0.91606 0.42268 0.0
H1785 H 0.89598 0.98046 0.39723 0.0
H1786 H 0.92968 1.00369 0.4349 0.0
H1787 H 0.11293 0.0626 0.46145 0.0
H1788 H 0.08292 0.03097 0.48774 0.0
H1789 H 0.99364 0.05656 0.44404 0.0
H1790 H 0.02362 0.08726 0.41705 0.0
H1791 H 0.99393 1.01137 0.43783 0.0
H1792 H 0.01521 0.06252 0.52488 0.0
H1793 H 0.04855 0.08638 0.56211 0.0
H1794 H 0.10167 0.02299 0.58977 0.0
H1795 H 0.06888 0.99879 0.55242 0.0
C1796 C 0.91485 0.93788 0.52966 0.0
C1797 C 0.93248 0.92203 0.54929 0.0
C1798 C 0.93083 0.95653 0.5143 0.0
C1799 C 0.96476 0.95944 0.51797 0.0
C1800 C 0.98226 0.94273 0.53637 0.0
C1801 C 0.96639 0.92443 0.55185 0.0
C1802 C 0.98221 0.98048 0.50449 0.0
C1803 C 0.00295 0.99438 0.524 0.0
C1804 C 0.97877 0.98703 0.47302 0.0
C1805 C 0.95828 0.973 0.45062 0.0
C1806 C 0.96334 0.94819 0.44679 0.0
C1807 C 0.94403 0.93516 0.42547 0.0
C1808 C 0.91974 0.94678 0.40766 0.0
C1809 C 0.91474 0.97147 0.4111 0.0
C1810 C 0.93394 0.98457 0.43243 0.0
C1811 C 0.08681 0.06183 0.45822 0.0
C1812 C 0.07063 0.07756 0.43742 0.0
C1813 C 0.06957 0.04365 0.47315 0.0
C1814 C 0.03571 0.04116 0.46802 0.0
C1815 C 0.0196 0.05774 0.44832 0.0
C1816 C 0.03679 0.07551 0.4331 0.0
C1817 C 0.01711 0.02071 0.48158 0.0
C1818 C 0.99612 1.00696 0.46211 0.0
C1819 C 0.02008 0.0144 0.51314 0.0
C1820 C 0.0398 0.02889 0.53563 0.0
C1821 C 0.03416 0.0537 0.53874 0.0
C1822 C 0.05293 0.06728 0.55989 0.0
C1823 C 0.07727 0.05622 0.57823 0.0
C1824 C 0.08283 0.03154 0.57551 0.0
C1825 C 0.06414 0.01788 0.55438 0.0
H1826 H 0.09177 0.06676 0.59459 0.0
H1827 H 0.90486 0.93668 0.39113 0.0
H1828 H 0.26249 0.93424 0.66685 0.0
H1829 H 0.22955 0.9631 0.69379 0.0
H1830 H 0.31089 0.97865 0.75631 0.0
H1831 H 0.34372 0.94891 0.72978 0.0
H1832 H 0.25615 0.98094 0.786 0.0
H1833 H 0.29154 0.01396 0.69097 0.0
H1834 H 0.29805 0.01496 0.63496 0.0
H1835 H 0.19473 0.0149 0.61914 0.0
H1836 H 0.18761 0.01356 0.67507 0.0
H1837 H 0.21803 0.09636 0.83385 0.0
H1838 H 0.24235 0.06296 0.8075 0.0
H1839 H 0.15286 0.05125 0.75474 0.0
H1840 H 0.12808 0.08543 0.78126 0.0
H1841 H 0.20696 0.0453 0.71985 0.0
H1842 H 0.17208 0.01541 0.81582 0.0
H1843 H 0.16655 0.01542 0.87196 0.0
H1844 H 0.26981 1.01041 0.88618 0.0
H1845 H 0.27601 1.01073 0.83011 0.0
C1846 C 0.27309 0.94337 0.68687 0.0
C1847 C 0.30564 0.93932 0.69628 0.0
C1848 C 0.25433 0.96008 0.70207 0.0
C1849 C 0.2679 0.97372 0.72655 0.0
C1850 C 0.29985 0.96855 0.73732 0.0
C1851 C 0.31858 0.95143 0.72233 0.0
C1852 C 0.24934 0.99412 0.73966 0.0
C1853 C 0.2457 0.9951 0.77152 0.0
C1854 C 0.23481 1.01242 0.72081 0.0
C1855 C 0.23905 0.01341 0.68719 0.0
C1856 C 0.27021 0.014 0.67554 0.0
C1857 C 0.27401 0.01465 0.64381 0.0
C1858 C 0.24682 0.01493 0.6235 0.0
C1859 C 0.21577 0.01464 0.63489 0.0
C1860 C 0.21184 0.01395 0.6666 0.0
C1861 C 0.20341 0.08687 0.81647 0.0
C1862 C 0.17093 0.09342 0.80992 0.0
C1863 C 0.21741 0.06763 0.80149 0.0
C1864 C 0.19928 0.05406 0.77972 0.0
C1865 C 0.16727 0.06129 0.77173 0.0
C1866 C 0.15315 0.08086 0.78675 0.0
C1867 C 0.2141 0.0322 0.76617 0.0
C1868 C 0.21711 0.03098 0.73426 0.0
C1869 C 0.22816 0.01372 0.78497 0.0
C1870 C 0.22451 0.01325 0.81873 0.0
C1871 C 0.19363 0.01446 0.83091 0.0
C1872 C 0.19037 0.01439 0.86273 0.0
C1873 C 0.21782 1.01296 0.88263 0.0
C1874 C 0.24858 1.01153 0.87074 0.0
C1875 C 0.25197 1.01162 0.83894 0.0
H1876 H 0.21525 1.01292 0.90725 0.0
H1877 H 0.24981 0.01543 0.59895 0.0
H1878 H 0.94648 0.36535 0.69308 0.0
H1879 H 0.98085 0.33739 0.72384 0.0
H1880 H 0.91444 0.2795 0.70119 0.0
H1881 H 0.8802 0.30709 0.67082 0.0
H1882 H 0.93277 0.27848 0.76133 0.0
H1883 H 0.9859 0.28559 0.66512 0.0
H1884 H 0.01294 0.30665 0.62345 0.0
H1885 H 0.08526 0.33366 0.6885 0.0
H1886 H 0.05843 0.31302 0.73064 0.0
H1887 H 0.03853 0.17893 0.807 0.0
H1888 H 0.00124 0.20628 0.77808 0.0
H1889 H 0.06625 0.26556 0.79777 0.0
H1890 H 0.10314 0.23881 0.82614 0.0
H1891 H 0.04785 0.2655 0.73882 0.0
H1892 H -0.00199 0.25812 0.83461 0.0
H1893 H 0.97085 0.24018 0.87831 0.0
H1894 H 0.892 0.21711 0.81773 0.0
H1895 H 0.91926 0.23409 0.77341 0.0
C1896 C 0.93918 0.3467 0.69478 0.0
C1897 C 0.91061 0.33851 0.67933 0.0
C1898 C 0.95892 0.33068 0.71224 0.0
C1899 C 0.95041 0.30621 0.71465 0.0
C1900 C 0.9216 0.29822 0.69973 0.0
C1901 C 0.90206 0.31409 0.68222 0.0
C1902 C 0.97134 0.28873 0.73249 0.0
C1903 C 0.95783 0.27534 0.75615 0.0
C1904 C 0.00428 0.28511 0.72631 0.0
C1905 C 0.01999 0.29793 0.70106 0.0
C1906 C 0.00737 0.29622 0.67059 0.0
C1907 C 0.0227 0.30804 0.64688 0.0
C1908 C 0.05079 0.32146 0.65335 0.0
C1909 C 0.06351 0.32324 0.68354 0.0
C1910 C 0.04827 0.31148 0.70733 0.0
C1911 C 0.04481 0.19778 0.80506 0.0
C1912 C 0.07391 0.2066 0.81889 0.0
C1913 C 0.02339 0.21343 0.78872 0.0
C1914 C 0.03084 0.23807 0.78579 0.0
C1915 C 0.05989 0.2467 0.79956 0.0
C1916 C 0.08099 0.23127 0.81593 0.0
C1917 C 0.00931 0.25506 0.76776 0.0
C1918 C 0.02273 0.26841 0.74398 0.0
C1919 C 0.97637 0.2588 0.77414 0.0
C1920 C 0.96101 0.24708 0.80051 0.0
C1921 C 0.97524 0.24877 0.83043 0.0
C1922 C 0.95973 0.23886 0.85538 0.0
C1923 C 0.9297 0.22755 0.85082 0.0
C1924 C 0.91521 0.22597 0.82126 0.0
C1925 C 0.93081 0.23557 0.79618 0.0
H1926 H 0.91769 0.21995 0.87017 0.0
H1927 H 0.06285 0.33035 0.63496 0.0
H1928 H 0.81911 0.83791 0.52701 0.0
H1929 H 0.78702 0.80861 0.49617 0.0
H1930 H 0.79689 0.75713 0.57027 0.0
H1931 H 0.82955 0.78576 0.6004 0.0
H1932 H 0.81058 0.73613 0.51853 0.0
H1933 H 0.70442 0.77891 0.54554 0.0
H1934 H 0.67053 0.81534 0.54824 0.0
H1935 H 0.70236 0.83872 0.46061 0.0
H1936 H 0.73501 0.80172 0.45666 0.0
H1937 H 0.69426 0.64582 0.47063 0.0
H1938 H 0.7278 0.67649 0.49756 0.0
H1939 H 0.70662 0.72652 0.42341 0.0
H1940 H 0.6725 0.69655 0.39736 0.0
H1941 H 0.70014 0.74921 0.47248 0.0
H1942 H 0.78344 0.69761 0.43822 0.0
H1943 H 0.81394 0.65997 0.43177 0.0
H1944 H 0.83003 0.65419 0.52963 0.0
H1945 H 0.79919 0.69159 0.53673 0.0
C1946 C 0.81393 0.82048 0.53684 0.0
C1947 C 0.82708 0.8142 0.56613 0.0
C1948 C 0.79537 0.80372 0.51925 0.0
C1949 C 0.78909 0.78052 0.53086 0.0
C1950 C 0.80136 0.77472 0.56055 0.0
C1951 C 0.82009 0.79123 0.57784 0.0
C1952 C 0.77159 0.76159 0.51195 0.0
C1953 C 0.7863 0.73895 0.50865 0.0
C1954 C 0.74038 0.7652 0.49807 0.0
C1955 C 0.72261 0.78798 0.50116 0.0
C1956 C 0.70441 0.79199 0.52705 0.0
C1957 C 0.6853 0.81263 0.52872 0.0
C1958 C 0.6848 0.82959 0.50495 0.0
C1959 C 0.70298 0.8257 0.47914 0.0
C1960 C 0.72154 0.8048 0.47704 0.0
C1961 C 0.69705 0.6633 0.46004 0.0
C1962 C 0.68045 0.66874 0.43196 0.0
C1963 C 0.71636 0.68086 0.47538 0.0
C1964 C 0.72002 0.70402 0.46259 0.0
C1965 C 0.70414 0.70903 0.43409 0.0
C1966 C 0.68458 0.69175 0.41912 0.0
C1967 C 0.73896 0.72353 0.47916 0.0
C1968 C 0.7245 0.74628 0.48211 0.0
C1969 C 0.77069 0.72004 0.49219 0.0
C1970 C 0.78874 0.6973 0.48801 0.0
C1971 C 0.7932 0.68819 0.45839 0.0
C1972 C 0.8106 0.66692 0.45461 0.0
C1973 C 0.82389 0.65471 0.48028 0.0
C1974 C 0.8197 0.66367 0.50978 0.0
C1975 C 0.80228 0.68491 0.51369 0.0
H1976 H 0.83759 0.63839 0.47733 0.0
H1977 H 0.6701 0.84561 0.50639 0.0
H1978 H 0.67056 0.09693 0.2812 0.0
H1979 H 0.70251 0.06894 0.25094 0.0
H1980 H 0.70752 0.01928 0.32731 0.0
H1981 H 0.67656 0.04708 0.3574 0.0
H1982 H 0.76502 0.0239 0.30725 0.0
H1983 H 0.65981 1.00903 0.25969 0.0
H1984 H 0.60793 0.0195 0.23273 0.0
H1985 H 0.65888 0.04776 0.15684 0.0
H1986 H 0.71111 0.03773 0.18354 0.0
H1987 H 0.82756 0.92114 0.22623 0.0
H1988 H 0.79693 0.9493 0.25748 0.0
H1989 H 0.79359 1.0003 0.18256 0.0
H1990 H 0.82336 0.97237 0.15153 0.0
H1991 H 0.73533 0.99477 0.20222 0.0
H1992 H 0.84103 1.00861 0.2505 0.0
H1993 H 0.89231 0.99746 0.27807 0.0
H1994 H 0.83967 0.97007 0.35338 0.0
H1995 H 0.78801 0.98074 0.32604 0.0
C1996 C 0.67797 0.07982 0.29119 0.0
C1997 C 0.67105 0.07427 0.3217 0.0
C1998 C 0.69634 0.06382 0.27396 0.0
C1999 C 0.70769 0.04188 0.28682 0.0
C2000 C 0.69954 0.03609 0.31685 0.0
C2001 C 0.68159 0.05202 0.33401 0.0
C2002 C 0.72898 0.02516 0.26985 0.0
C2003 C 0.75828 0.01733 0.2844 0.0
C2004 C 0.72072 0.01677 0.23983 0.0
C2005 C 0.68937 0.02287 0.22377 0.0
C2006 C 0.65996 0.01766 0.23737 0.0
C2007 C 0.63049 0.02348 0.22211 0.0
C2008 C 0.63011 0.03435 0.19314 0.0
C2009 C 0.65921 0.03938 0.17932 0.0
C2010 C 0.68875 0.03362 0.19449 0.0
C2011 C 0.82093 0.9386 0.21683 0.0
C2012 C 0.82787 0.9445 0.18642 0.0
C2013 C 0.8033 0.95469 0.23462 0.0
C2014 C 0.79267 0.97701 0.22238 0.0
C2015 C 0.80106 0.98319 0.19253 0.0
C2016 C 0.81832 0.96719 0.17484 0.0
C2017 C 0.77142 0.99359 0.23956 0.0
C2018 C 0.74209 1.00136 0.22506 0.0
C2019 C 0.77959 1.0018 0.2697 0.0
C2020 C 0.81063 0.99523 0.28606 0.0
C2021 C 0.84036 1.0 0.27281 0.0
C2022 C 0.86951 0.99381 0.28842 0.0
C2023 C 0.86924 0.983 0.31742 0.0
C2024 C 0.83983 0.9784 0.33089 0.0
C2025 C 0.81062 0.98452 0.31535 0.0
H2026 H 0.89183 0.97824 0.32949 0.0
H2027 H 0.60727 0.03884 0.18136 0.0
H2028 H 0.93987 0.85942 0.20395 0.0
H2029 H 0.97487 0.83309 0.23658 0.0
H2030 H 0.95514 0.77406 0.17433 0.0
H2031 H 0.9205 0.7999 0.14203 0.0
H2032 H 0.94857 0.75984 0.23254 0.0
H2033 H 0.02761 0.80331 0.17622 0.0
H2034 H 0.05476 0.83969 0.15748 0.0
H2035 H 0.07935 0.86084 0.25046 0.0
H2036 H 0.05195 0.82474 0.26976 0.0
H2037 H 0.07079 0.67712 0.29035 0.0
H2038 H 0.03576 0.70349 0.2578 0.0
H2039 H 0.05946 0.76334 0.31769 0.0
H2040 H 0.09447 0.73752 0.3496 0.0
H2041 H 0.06383 0.77722 0.26067 0.0
H2042 H 0.98512 0.73443 0.31745 0.0
H2043 H 0.95797 0.69834 0.33698 0.0
H2044 H 0.93238 0.6764 0.2445 0.0
H2045 H 0.95978 0.7122 0.22441 0.0
C2046 C 0.9433 0.84091 0.19711 0.0
C2047 C 0.92721 0.83182 0.17041 0.0
C2048 C 0.96327 0.82585 0.21577 0.0
C2049 C 0.96759 0.80149 0.20798 0.0
C2050 C 0.95203 0.79265 0.18104 0.0
C2051 C 0.93225 0.80758 0.16249 0.0
C2052 C 0.98787 0.78491 0.22779 0.0
C2053 C 0.97388 0.76354 0.23843 0.0
C2054 C 0.02073 0.78985 0.23601 0.0
C2055 C 0.03743 0.81146 0.22444 0.0
C2056 C 0.0386 0.81582 0.19267 0.0
C2057 C 0.05406 0.83637 0.18195 0.0
C2058 C 0.06869 0.8526 0.20277 0.0
C2059 C 0.06797 0.84827 0.23436 0.0
C2060 C 0.05249 0.82776 0.2452 0.0
C2061 C 0.06823 0.69584 0.29665 0.0
C2062 C 0.08559 0.70518 0.32249 0.0
C2063 C 0.04822 0.71093 0.27806 0.0
C2064 C 0.04493 0.73552 0.28523 0.0
C2065 C 0.06174 0.74458 0.31141 0.0
C2066 C 0.08173 0.72967 0.32975 0.0
C2067 C 0.02454 0.75213 0.2655 0.0
C2068 C 0.03851 0.77351 0.25484 0.0
C2069 C 0.99162 0.74726 0.2574 0.0
C2070 C 0.97478 0.72587 0.26942 0.0
C2071 C 0.97389 0.72182 0.30128 0.0
C2072 C 0.95843 0.70143 0.31246 0.0
C2073 C 0.94353 0.68505 0.29201 0.0
C2074 C 0.94397 0.68907 0.26034 0.0
C2075 C 0.95944 0.70942 0.24903 0.0
H2076 H 0.93157 0.6693 0.30076 0.0
H2077 H 0.08064 0.86851 0.19442 0.0
H2078 H 0.26935 0.83872 0.12249 0.0
H2079 H 0.23847 0.80969 0.09086 0.0
H2080 H 0.28193 0.83749 0.00983 0.0
H2081 H 0.31185 0.86739 0.04152 0.0
H2082 H 0.22265 0.8235 0.99509 0.0
H2083 H 0.31271 0.78701 0.05108 0.0
H2084 H 0.34649 0.77642 0.0973 0.0
H2085 H 0.26631 0.73877 0.13444 0.0
H2086 H 0.23191 0.74943 0.08859 0.0
H2087 H 0.21326 0.72243 0.90007 0.0
H2088 H 0.23542 0.75247 0.93586 0.0
H2089 H 0.17507 0.72528 0.00626 0.0
H2090 H 0.15249 0.69483 0.97013 0.0
H2091 H 0.23888 0.73863 0.02817 0.0
H2092 H 0.15043 0.77328 0.96798 0.0
H2093 H 0.11951 0.78307 0.91979 0.0
H2094 H 0.20021 0.82353 0.88845 0.0
H2095 H 0.23183 0.81365 0.93625 0.0
C2096 C 0.27164 0.83905 0.0978 0.0
C2097 C 0.29308 0.85522 0.08445 0.0
C2098 C 0.25424 0.82226 0.07975 0.0
C2099 C 0.25865 0.82073 0.04802 0.0
C2100 C 0.27828 0.83808 0.03429 0.0
C2101 C 0.29526 0.85528 0.05236 0.0
C2102 C 0.24456 0.80018 0.02968 0.0
C2103 C 0.22648 0.80497 1.00226 0.0
C2104 C 0.24894 0.77585 0.03912 0.0
C2105 C 0.26966 0.76922 0.06656 0.0
C2106 C 0.30223 0.77659 0.06919 0.0
C2107 C 0.32149 0.77057 0.09531 0.0
C2108 C 0.30853 0.75698 0.11883 0.0
C2109 C 0.27631 0.74933 0.11623 0.0
C2110 C 0.25692 0.75534 0.09017 0.0
C2111 C 0.20499 0.72251 0.92332 0.0
C2112 C 0.18088 0.70633 0.93216 0.0
C2113 C 0.21761 0.73982 0.94373 0.0
C2114 C 0.20638 0.74155 0.97353 0.0
C2115 C 0.1839 0.72441 0.98326 0.0
C2116 C 0.17116 0.70692 0.96269 0.0
C2117 C 0.21726 0.76201 0.99361 0.0
C2118 C 0.2348 0.75718 0.02126 0.0
C2119 C 0.21275 0.78627 0.98418 0.0
C2120 C 0.19358 0.79258 0.95563 0.0
C2121 C 0.16166 0.78414 0.95074 0.0
C2122 C 0.144 0.78972 0.92349 0.0
C2123 C 0.1579 0.80388 0.90105 0.0
C2124 C 0.18948 0.81255 0.90585 0.0
C2125 C 0.20727 0.80699 0.93303 0.0
H2126 H 0.1442 0.80816 0.87997 0.0
H2127 H 0.32348 0.75234 0.13904 0.0
H2128 H 0.07132 0.62017 0.97811 0.0
H2129 H 0.04018 0.59082 0.00746 0.0
H2130 H 0.03282 0.54443 0.92814 0.0
H2131 H 0.06315 0.57338 0.89909 0.0
H2132 H 0.97557 0.54832 0.95094 0.0
H2133 H 0.08355 0.53196 0.99241 0.0
H2134 H 0.1362 0.54204 0.01819 0.0
H2135 H 0.08804 0.56495 0.09836 0.0
H2136 H 0.03505 0.55528 0.07288 0.0
H2137 H 0.91809 0.43945 0.02204 0.0
H2138 H 0.94706 0.4703 0.99315 0.0
H2139 H 0.95543 0.51448 0.07449 0.0
H2140 H 0.92743 0.48389 0.10315 0.0
H2141 H 0.01155 0.51248 0.05106 0.0
H2142 H 0.90366 0.52824 0.01039 0.0
H2143 H 0.85077 0.5189 0.98461 0.0
H2144 H 0.89809 0.49779 0.9032 0.0
H2145 H 0.95133 0.50671 0.92865 0.0
C2146 C 0.06347 0.60353 0.96721 0.0
C2147 C 0.06968 0.59922 0.93622 0.0
C2148 C 0.04557 0.58676 0.98393 0.0
C2149 C 0.03388 0.56531 0.97002 0.0
C2150 C 0.04108 0.56084 0.93941 0.0
C2151 C 0.05865 0.57747 0.92283 0.0
C2152 C 0.01355 0.54756 0.98656 0.0
C2153 C 0.98364 0.54032 0.97271 0.0
C2154 C 0.02351 0.53736 0.01528 0.0
C2155 C 0.05533 0.54315 0.03061 0.0
C2156 C 0.08418 0.53933 0.01544 0.0
C2157 C 0.11408 0.54493 0.03001 0.0
C2158 C 0.11546 0.55419 0.05986 0.0
C2159 C 0.08694 0.55781 0.07522 0.0
C2160 C 0.05696 0.55226 0.06073 0.0
C2161 C 0.92559 0.45596 0.03348 0.0
C2162 C 0.92052 0.45914 0.06492 0.0
C2163 C 0.94224 0.47361 0.017 0.0
C2164 C 0.9537 0.49485 0.0316 0.0
C2165 C 0.94733 0.49828 0.06264 0.0
C2166 C 0.9311 0.48072 0.07901 0.0
C2167 C 0.97353 0.51318 0.01543 0.0
C2168 C 0.00338 0.52051 0.02933 0.0
C2169 C 0.96346 0.5235 0.98679 0.0
C2170 C 0.93151 0.51789 0.97155 0.0
C2171 C 0.90281 0.52139 0.98709 0.0
C2172 C 0.87276 0.51622 0.97251 0.0
C2173 C 0.87107 0.50769 0.94231 0.0
C2174 C 0.89944 0.50435 0.92661 0.0
C2175 C 0.92956 0.50948 0.94109 0.0
H2176 H 0.84778 0.50374 0.93105 0.0
H2177 H 0.13864 0.55851 0.0711 0.0
H2178 H 0.22448 0.58456 0.35622 0.0
H2179 H 0.252 0.55367 0.32847 0.0
H2180 H 0.1872 0.56518 0.24936 0.0
H2181 H 0.15865 0.5966 0.27765 0.0
H2182 H 0.19673 0.51691 0.26176 0.0
H2183 H 0.26483 0.5853 0.24997 0.0
H2184 H 0.29649 0.62082 0.26719 0.0
H2185 H 0.35908 0.57578 0.32379 0.0
H2186 H 0.32743 0.54001 0.30737 0.0
H2187 H 0.28814 0.4517 0.159 0.0
H2188 H 0.26213 0.48368 0.18621 0.0
H2189 H 0.32341 0.46927 0.26693 0.0
H2190 H 0.35021 0.43655 0.23935 0.0
H2191 H 0.31607 0.51925 0.25345 0.0
H2192 H 0.24719 0.45108 0.26591 0.0
H2193 H 0.21505 0.4157 0.24905 0.0
H2194 H 0.15392 0.46072 0.19096 0.0
H2195 H 0.18602 0.49634 0.2071 0.0
C2196 C 0.21582 0.58075 0.33288 0.0
C2197 C 0.18916 0.59326 0.31923 0.0
C2198 C 0.23191 0.56302 0.31692 0.0
C2199 C 0.22216 0.55722 0.28661 0.0
C2200 C 0.19535 0.56943 0.27273 0.0
C2201 C 0.17908 0.58743 0.28884 0.0
C2202 C 0.2399 0.53799 0.27022 0.0
C2203 C 0.22273 0.51766 0.25945 0.0
C2204 C 0.27408 0.53851 0.26804 0.0
C2205 C 0.29355 0.55996 0.27761 0.0
C2206 C 0.2852 0.58297 0.26626 0.0
C2207 C 0.30317 0.60316 0.27587 0.0
C2208 C 0.32974 0.60057 0.29663 0.0
C2209 C 0.33847 0.57777 0.30774 0.0
C2210 C 0.32053 0.55752 0.29826 0.0
C2211 C 0.29638 0.45512 0.18256 0.0
C2212 C 0.32138 0.44129 0.19695 0.0
C2213 C 0.28123 0.47353 0.19816 0.0
C2214 C 0.29039 0.47881 0.22877 0.0
C2215 C 0.3158 0.46547 0.2433 0.0
C2216 C 0.33105 0.44674 0.22758 0.0
C2217 C 0.27287 0.4982 0.24504 0.0
C2218 C 0.29008 0.51855 0.25576 0.0
C2219 C 0.23871 0.49774 0.24715 0.0
C2220 C 0.21921 0.47637 0.23752 0.0
C2221 C 0.22705 0.45342 0.24935 0.0
C2222 C 0.20881 0.43332 0.23995 0.0
C2223 C 0.1825 0.43595 0.2189 0.0
C2224 C 0.17433 0.4587 0.20725 0.0
C2225 C 0.19252 0.47886 0.21653 0.0
H2226 H 0.1684 0.42037 0.21166 0.0
H2227 H 0.34359 0.61623 0.30406 0.0
H2228 H 0.81715 0.36767 0.0363 0.0
H2229 H 0.78129 0.34035 0.00615 0.0
H2230 H 0.80969 0.28173 0.06666 0.0
H2231 H 0.84613 0.30844 0.09579 0.0
H2232 H 0.80742 0.26628 0.01014 0.0
H2233 H 0.7385 0.31733 0.06987 0.0
H2234 H 0.71712 0.3569 0.0844 0.0
H2235 H 0.6774 0.36732 0.99252 0.0
H2236 H 0.70038 0.32861 0.97684 0.0
H2237 H 0.68201 0.18172 0.97008 0.0
H2238 H 0.71962 0.20946 0.99736 0.0
H2239 H 0.68449 0.26777 0.93933 0.0
H2240 H 0.64634 0.24058 0.91314 0.0
H2241 H 0.6904 0.28389 0.99353 0.0
H2242 H 0.76004 0.23807 0.93119 0.0
H2243 H 0.78452 0.20127 0.91086 0.0
H2244 H 0.82248 0.18294 1.00134 0.0
H2245 H 0.7978 0.21945 0.02231 0.0
C2246 C 0.8157 0.34895 0.04309 0.0
C2247 C 0.83451 0.3403 0.06849 0.0
C2248 C 0.79515 0.33332 0.02589 0.0
C2249 C 0.79239 0.3089 0.03427 0.0
C2250 C 0.81133 0.30037 0.05955 0.0
C2251 C 0.83213 0.31579 0.07632 0.0
C2252 C 0.76962 0.29206 0.01738 0.0
C2253 C 0.78175 0.27007 0.00679 0.0
C2254 C 0.73621 0.29716 0.01212 0.0
C2255 C 0.72152 0.3201 0.02207 0.0
C2256 C 0.72549 0.32814 0.05266 0.0
C2257 C 0.71317 0.35047 0.06108 0.0
C2258 C 0.69571 0.36451 0.03945 0.0
C2259 C 0.69089 0.35641 0.00926 0.0
C2260 C 0.7038 0.33436 1.00053 0.0
C2261 C 0.6824 0.20045 0.96318 0.0
C2262 C 0.66107 0.20889 0.93949 0.0
C2263 C 0.70402 0.21632 0.97869 0.0
C2264 C 0.70525 0.24083 0.97032 0.0
C2265 C 0.68405 0.24909 0.94649 0.0
C2266 C 0.66222 0.23341 0.93141 0.0
C2267 C 0.72818 0.2581 0.98632 0.0
C2268 C 0.71607 0.28011 0.99684 0.0
C2269 C 0.7617 0.25327 0.99095 0.0
C2270 C 0.77679 0.23138 0.97837 0.0
C2271 C 0.77342 0.22611 0.94679 0.0
C2272 C 0.78734 0.20531 0.93515 0.0
C2273 C 0.80498 0.18975 0.95481 0.0
C2274 C 0.80877 0.19499 0.98615 0.0
C2275 C 0.79483 0.21574 0.99793 0.0
H2276 H 0.81579 0.17369 0.94575 0.0
H2277 H 0.68591 0.38168 0.04601 0.0
H2278 H 0.77677 0.4344 0.67427 0.0
H2279 H 0.74451 0.46306 0.70237 0.0
H2280 H 0.83144 0.50207 0.72969 0.0
H2281 H 0.86396 0.47266 0.70223 0.0
H2282 H 0.7907 0.5026 0.77498 0.0
H2283 H 0.77971 0.51948 0.66634 0.0
H2284 H 0.76722 0.51004 0.61172 0.0
H2285 H 0.66988 0.49111 0.63249 0.0
H2286 H 0.68185 0.50029 0.68726 0.0
H2287 H 0.71619 0.61007 0.81585 0.0
H2288 H 0.74766 0.58143 0.78707 0.0
H2289 H 0.65992 0.54331 0.76004 0.0
H2290 H 0.62813 0.57274 0.78822 0.0
H2291 H 0.70054 0.54194 0.71476 0.0
H2292 H 0.71046 0.52644 0.82285 0.0
H2293 H 0.72245 0.53564 0.87756 0.0
H2294 H 0.82146 0.5507 0.85865 0.0
H2295 H 0.8099 0.54221 0.80366 0.0
C2296 C 0.78905 0.44874 0.68702 0.0
C2297 C 0.82285 0.45121 0.68639 0.0
C2298 C 0.77055 0.46533 0.70273 0.0
C2299 C 0.7853 0.48525 0.71748 0.0
C2300 C 0.81937 0.487 0.71833 0.0
C2301 C 0.83801 0.4701 0.70287 0.0
C2302 C 0.76506 0.50459 0.73093 0.0
C2303 C 0.77132 0.51144 0.76165 0.0
C2304 C 0.73903 0.51578 0.71391 0.0
C2305 C 0.73177 0.51038 0.68094 0.0
C2306 C 0.75569 0.51319 0.65927 0.0
C2307 C 0.74869 0.50792 0.62828 0.0
C2308 C 0.71777 0.49998 0.61864 0.0
C2309 C 0.69379 0.49731 0.63997 0.0
C2310 C 0.70066 0.50257 0.67098 0.0
C2311 C 0.7035 0.59601 0.80293 0.0
C2312 C 0.66969 0.59374 0.80399 0.0
C2313 C 0.72158 0.57942 0.78682 0.0
C2314 C 0.70641 0.55967 0.77209 0.0
C2315 C 0.67231 0.55825 0.77141 0.0
C2316 C 0.65407 0.57517 0.78725 0.0
C2317 C 0.72631 0.54008 0.75878 0.0
C2318 C 0.71996 0.53315 0.7281 0.0
C2319 C 0.7522 0.52876 0.7759 0.0
C2320 C 0.7592 0.53392 0.80901 0.0
C2321 C 0.73472 0.53194 0.83028 0.0
C2322 C 0.74145 0.53703 0.86136 0.0
C2323 C 0.77268 0.54381 0.87156 0.0
C2324 C 0.79728 0.54545 0.85072 0.0
C2325 C 0.79063 0.54056 0.81957 0.0
H2326 H 0.77784 0.54775 0.89563 0.0
H2327 H 0.71239 0.49591 0.59464 0.0
H2328 H 0.40304 0.99065 0.10116 0.0
H2329 H 0.43646 0.01791 0.07233 0.0
H2330 H 0.44685 0.96346 1.00305 0.0
H2331 H 0.41301 0.93579 0.03231 0.0
H2332 H 0.50551 0.98279 0.02254 0.0
H2333 H 0.40331 0.01399 0.98659 0.0
H2334 H 0.34783 0.02953 0.99055 0.0
H2335 H 0.38429 0.089 0.04467 0.0
H2336 H 0.43998 0.07363 0.04142 0.0
H2337 H 0.57966 0.06064 0.91648 0.0
H2338 H 0.54665 0.03258 0.94466 0.0
H2339 H 0.53499 0.08598 0.01501 0.0
H2340 H 0.56837 0.11439 0.98649 0.0
H2341 H 0.47678 0.06687 0.99424 0.0
H2342 H 0.57904 0.03532 0.03042 0.0
H2343 H 0.63445 0.01969 0.02624 0.0
H2344 H 0.59772 0.96078 0.97126 0.0
H2345 H 0.5421 0.97625 0.97474 0.0
C2346 C 0.41177 0.98463 0.07939 0.0
C2347 C 0.40516 0.96114 0.06887 0.0
C2348 C 0.43092 1.00029 0.06289 0.0
C2349 C 0.4442 0.99289 0.03538 0.0
C2350 C 0.43683 0.96963 0.02418 0.0
C2351 C 0.4172 0.95392 0.04067 0.0
C2352 C 0.4673 1.0091 0.01981 0.0
C2353 C 0.49902 1.00103 0.0158 0.0
C2354 C 0.4593 0.03321 0.01194 0.0
C2355 C 0.42582 0.04253 0.01397 0.0
C2356 C 0.39949 0.03027 0.99956 0.0
C2357 C 0.368 0.03907 1.00163 0.0
C2358 C 0.36253 0.06021 0.01791 0.0
C2359 C 0.38856 0.07262 0.03209 0.0
C2360 C 0.4201 0.06388 0.03011 0.0
C2361 C 0.57083 0.06622 0.9384 0.0
C2362 C 0.57688 0.08965 0.94942 0.0
C2363 C 0.55188 0.05012 0.95451 0.0
C2364 C 0.53828 0.05703 0.98207 0.0
C2365 C 0.54525 0.08018 0.99382 0.0
C2366 C 0.56465 0.09631 0.97775 0.0
C2367 C 0.51502 0.04059 0.99706 0.0
C2368 C 0.48326 0.04863 1.00095 0.0
C2369 C 0.52298 0.01644 1.00476 0.0
C2370 C 0.55641 1.00708 1.0026 0.0
C2371 C 0.5828 0.01915 0.01721 0.0
C2372 C 0.61424 1.01029 0.01501 0.0
C2373 C 0.61961 0.98929 0.99843 0.0
C2374 C 0.59353 0.97707 0.98407 0.0
C2375 C 0.56203 0.98586 0.98617 0.0
H2376 H 0.64397 0.98246 0.99677 0.0
H2377 H 0.33813 0.067 0.01948 0.0
H2378 H 0.4051 0.29295 0.1694 0.0
H2379 H 0.44064 0.26568 0.19857 0.0
H2380 H 0.46764 0.32293 0.26142 0.0
H2381 H 0.43223 0.35089 0.23139 0.0
H2382 H 0.51935 0.29562 0.24976 0.0
H2383 H 0.41165 0.27886 0.27988 0.0
H2384 H 0.35355 0.26957 0.27165 0.0
H2385 H 0.37701 0.2036 0.22665 0.0
H2386 H 0.43527 0.21266 0.23421 0.0
H2387 H 0.58632 0.21958 0.36543 0.0
H2388 H 0.55186 0.24763 0.3363 0.0
H2389 H 0.52432 0.1914 0.27215 0.0
H2390 H 0.5587 0.16271 0.30193 0.0
H2391 H 0.47286 0.21851 0.28504 0.0
H2392 H 0.58061 0.23542 0.25482 0.0
H2393 H 0.63869 0.24477 0.26307 0.0
H2394 H 0.61508 0.3105 0.30855 0.0
H2395 H 0.55684 0.30137 0.30096 0.0
C2396 C 0.41857 0.29991 0.18941 0.0
C2397 C 0.41541 0.32411 0.1983 0.0
C2398 C 0.43887 0.28416 0.20619 0.0
C2399 C 0.45622 0.29194 0.23279 0.0
C2400 C 0.45424 0.31638 0.24116 0.0
C2401 C 0.43404 0.33236 0.22401 0.0
C2402 C 0.47599 0.2743 0.25166 0.0
C2403 C 0.50903 0.27895 0.2579 0.0
C2404 C 0.46287 0.25216 0.26168 0.0
C2405 C 0.42784 0.24654 0.25741 0.0
C2406 C 0.40442 0.26244 0.26806 0.0
C2407 C 0.37146 0.25721 0.26354 0.0
C2408 C 0.36159 0.23603 0.24859 0.0
C2409 C 0.38468 0.22 0.23821 0.0
C2410 C 0.41768 0.22517 0.24264 0.0
C2411 C 0.57299 0.21301 0.34514 0.0
C2412 C 0.57562 0.18884 0.33588 0.0
C2413 C 0.55333 0.22922 0.32836 0.0
C2414 C 0.536 0.22191 0.30152 0.0
C2415 C 0.53767 0.19758 0.29263 0.0
C2416 C 0.55732 0.18118 0.30965 0.0
C2417 C 0.51623 0.23979 0.28306 0.0
C2418 C 0.48317 0.23518 0.27693 0.0
C2419 C 0.52933 0.26197 0.27318 0.0
C2420 C 0.56435 0.2676 0.27754 0.0
C2421 C 0.5878 0.25179 0.26676 0.0
C2422 C 0.62076 0.25706 0.27129 0.0
C2423 C 0.63057 0.27819 0.28638 0.0
C2424 C 0.60745 0.29413 0.29689 0.0
C2425 C 0.57446 0.28893 0.29245 0.0
H2426 H 0.6561 0.28224 0.28988 0.0
H2427 H 0.33606 0.23202 0.24509 0.0
H2428 H 0.38398 0.79976 0.66601 0.0
H2429 H 0.41658 0.77117 0.6964 0.0
H2430 H 0.46412 0.82976 0.74518 0.0
H2431 H 0.43183 0.85875 0.71413 0.0
H2432 H 0.50736 0.79709 0.73016 0.0
H2433 H 0.40565 0.79369 0.77831 0.0
H2434 H 0.34646 0.78914 0.78062 0.0
H2435 H 0.35239 0.71752 0.74452 0.0
H2436 H 0.41159 0.72176 0.74159 0.0
H2437 H 0.58011 0.72982 0.85156 0.0
H2438 H 0.54519 0.75681 0.82119 0.0
H2439 H 0.50514 0.6965 0.77018 0.0
H2440 H 0.54027 0.66895 0.80099 0.0
H2441 H 0.45801 0.72912 0.78546 0.0
H2442 H 0.56022 0.73254 0.73843 0.0
H2443 H 0.61943 0.73728 0.73684 0.0
H2444 H 0.61245 0.80925 0.77156 0.0
H2445 H 0.55322 0.80481 0.77383 0.0
C2446 C 0.40124 0.8067 0.68327 0.0
C2447 C 0.40509 0.83167 0.68764 0.0
C2448 C 0.41982 0.79022 0.70082 0.0
C2449 C 0.44258 0.79816 0.72353 0.0
C2450 C 0.44665 0.8231 0.72792 0.0
C2451 C 0.42806 0.83969 0.71023 0.0
C2452 C 0.46259 0.78039 0.74201 0.0
C2453 C 0.49648 0.78247 0.74262 0.0
C2454 C 0.44862 0.76078 0.75762 0.0
C2455 C 0.41303 0.75814 0.75945 0.0
C2456 C 0.39431 0.77704 0.77064 0.0
C2457 C 0.36076 0.77451 0.7721 0.0
C2458 C 0.34567 0.75308 0.76265 0.0
C2459 C 0.36411 0.73412 0.7518 0.0
C2460 C 0.39766 0.73657 0.75026 0.0
C2461 C 0.5639 0.7221 0.83396 0.0
C2462 C 0.56327 0.69709 0.82865 0.0
C2463 C 0.54396 0.73769 0.81647 0.0
C2464 C 0.52285 0.72884 0.79298 0.0
C2465 C 0.52137 0.70381 0.78806 0.0
C2466 C 0.5415 0.68807 0.80564 0.0
C2467 C 0.50269 0.74595 0.77371 0.0
C2468 C 0.46882 0.74374 0.77294 0.0
C2469 C 0.51666 0.76549 0.75802 0.0
C2470 C 0.55229 0.76826 0.75656 0.0
C2471 C 0.57133 0.74931 0.74596 0.0
C2472 C 0.6049 0.75195 0.7449 0.0
C2473 C 0.6197 0.77353 0.75415 0.0
C2474 C 0.60095 0.79254 0.76443 0.0
C2475 C 0.56738 0.78997 0.76558 0.0
H2476 H 0.64569 0.77554 0.75331 0.0
H2477 H 0.31969 0.75115 0.7638 0.0
H2478 H 0.58546 0.57689 0.48943 0.0
H2479 H 0.55307 0.54916 0.5199 0.0
H2480 H 0.5612 0.49462 0.45031 0.0
H2481 H 0.59256 0.52221 0.41993 0.0
H2482 H 0.50125 0.49796 0.46274 0.0
H2483 H 0.59991 0.49041 0.52446 0.0
H2484 H 0.64728 0.50446 0.55606 0.0
H2485 H 0.58433 0.53619 0.62038 0.0
H2486 H 0.53656 0.52253 0.589 0.0
H2487 H 0.43408 0.39795 0.54468 0.0
H2488 H 0.46788 0.4258 0.51585 0.0
H2489 H 0.456 0.48025 0.58486 0.0
H2490 H 0.42318 0.45252 0.61372 0.0
H2491 H 0.5171 0.47769 0.57327 0.0
H2492 H 0.41855 0.48373 0.51106 0.0
H2493 H 0.37187 0.46865 0.47936 0.0
H2494 H 0.43629 0.43812 0.41544 0.0
H2495 H 0.48339 0.45276 0.44698 0.0
C2496 C 0.58103 0.55876 0.48117 0.0
C2497 C 0.59162 0.55174 0.45231 0.0
C2498 C 0.56237 0.54289 0.4985 0.0
C2499 C 0.55435 0.51965 0.48744 0.0
C2500 C 0.56653 0.51241 0.45936 0.0
C2501 C 0.58473 0.52821 0.44206 0.0
C2502 C 0.53178 0.50324 0.5037 0.0
C2503 C 0.50513 0.49326 0.48683 0.0
C2504 C 0.53602 0.4974 0.53532 0.0
C2505 C 0.56467 0.50572 0.55417 0.0
C2506 C 0.59617 0.50057 0.5452 0.0
C2507 C 0.62309 0.50841 0.5631 0.0
C2508 C 0.61881 0.52131 0.59012 0.0
C2509 C 0.5876 0.52626 0.59939 0.0
C2510 C 0.5606 0.51845 0.58158 0.0
C2511 C 0.43801 0.41607 0.55316 0.0
C2512 C 0.42566 0.42309 0.58132 0.0
C2513 C 0.45749 0.432 0.53679 0.0
C2514 C 0.46462 0.45532 0.54806 0.0
C2515 C 0.45121 0.46245 0.57562 0.0
C2516 C 0.43216 0.44657 0.59202 0.0
C2517 C 0.48697 0.47209 0.53215 0.0
C2518 C 0.51337 0.48231 0.54914 0.0
C2519 C 0.48275 0.47792 0.50056 0.0
C2520 C 0.45449 0.46913 0.48155 0.0
C2521 C 0.42276 0.47364 0.49037 0.0
C2522 C 0.39623 0.4652 0.47241 0.0
C2523 C 0.40112 0.45238 0.44545 0.0
C2524 C 0.43255 0.44802 0.43635 0.0
C2525 C 0.45917 0.4564 0.45425 0.0
H2526 H 0.38054 0.44587 0.43157 0.0
H2527 H 0.63967 0.52744 0.6039 0.0
loop_
_geom_bond_atom_site_label_1
_geom_bond_atom_site_label_2
_geom_bond_distance
_geom_bond_site_symmetry_2
_ccdc_geom_bond_type
C0 C1 1.351 . S
C0 N3 1.368 . S
C0 H5 0.931 . S
C1 C0 1.351 . S
C1 N2 1.373 . S
C1 H29 0.930 . S
N2 C1 1.373 . S
N2 C4 1.340 . S
N3 C0 1.368 . S
N3 C4 1.321 . S
N3 Co6 2.135 . S
C4 N2 1.340 . S
C4 N3 1.321 . S
C4 H28 0.930 . S
H5 C0 0.931 . S
Co6 N3 2.135 . S
Co6 N9 2.121 . S
Co6 O14 2.055 . S
Co6 O17 2.039 . S
Co6 N20 2.140 . S
C7 O8 1.227 . S
C7 O17 1.265 . S
O8 C7 1.227 . S
N9 Co6 2.121 . S
N9 C11 1.375 . S
N9 C12 1.313 . S
C10 C11 1.338 . S
C10 N13 1.377 . S
C10 H30 0.930 . S
C11 N9 1.375 . S
C11 C10 1.338 . S
C11 H15 0.931 . S
C12 N9 1.313 . S
C12 N13 1.344 . S
C12 H16 0.930 . S
N13 C10 1.377 . S
N13 C12 1.344 . S
O14 Co6 2.055 . S
O14 C18 1.253 . S
H15 C11 0.931 . S
H16 C12 0.930 . S
O17 Co6 2.039 . S
O17 C7 1.265 . S
C18 O14 1.253 . S
C18 O19 1.227 . S
O19 C18 1.227 . S
N20 Co6 2.140 . S
N20 C23 1.346 . S
N20 C24 1.345 . S
C21 C22 1.387 . S
C21 C25 1.391 . S
C22 C21 1.387 . S
C22 C23 1.369 . S
C22 H31 0.929 . S
C23 N20 1.346 . S
C23 C22 1.369 . S
C23 H26 0.928 . S
C24 N20 1.345 . S
C24 C25 1.371 . S
C24 H27 0.931 . S
C25 C21 1.391 . S
C25 C24 1.371 . S
C25 H32 0.930 . S
H26 C23 0.928 . S
H27 C24 0.931 . S
H28 C4 0.930 . S
H29 C1 0.930 . S
H30 C10 0.930 . S
H31 C22 0.929 . S
H32 C25 0.930 . S
C33 C34 1.351 . S
C33 N36 1.368 . S
C33 H38 0.931 . S
C34 C33 1.351 . S
C34 N35 1.373 . S
C34 H62 0.930 . S
N35 C34 1.373 . S
N35 C37 1.340 . S
N36 C33 1.368 . S
N36 C37 1.321 . S
N36 Co39 2.135 . S
C37 N35 1.340 . S
C37 N36 1.321 . S
C37 H61 0.930 . S
H38 C33 0.931 . S
Co39 N36 2.135 . S
Co39 N42 2.121 . S
Co39 O47 2.055 . S
Co39 O50 2.039 . S
Co39 N53 2.140 . S
C40 O41 1.227 . S
C40 O50 1.265 . S
O41 C40 1.227 . S
N42 Co39 2.121 . S
N42 C44 1.375 . S
N42 C45 1.313 . S
C43 C44 1.338 . S
C43 N46 1.377 . S
C43 H63 0.930 . S
C44 N42 1.375 . S
C44 C43 1.338 . S
C44 H48 0.931 . S
C45 N42 1.313 . S
C45 N46 1.344 . S
C45 H49 0.930 . S
N46 C43 1.377 . S
N46 C45 1.344 . S
O47 Co39 2.055 . S
O47 C51 1.253 . S
H48 C44 0.931 . S
H49 C45 0.930 . S
O50 Co39 2.039 . S
O50 C40 1.265 . S
C51 O47 1.253 . S
C51 O52 1.227 . S
O52 C51 1.227 . S
N53 Co39 2.140 . S
N53 C56 1.346 . S
N53 C57 1.345 . S
C54 C55 1.387 . S
C54 C58 1.391 . S
C55 C54 1.387 . S
C55 C56 1.369 . S
C55 H64 0.929 . S
C56 N53 1.346 . S
C56 C55 1.369 . S
C56 H59 0.928 . S
C57 N53 1.345 . S
C57 C58 1.371 . S
C57 H60 0.931 . S
C58 C54 1.391 . S
C58 C57 1.371 . S
C58 H65 0.930 . S
H59 C56 0.928 . S
H60 C57 0.931 . S
H61 C37 0.930 . S
H62 C34 0.930 . S
H63 C43 0.930 . S
H64 C55 0.929 . S
H65 C58 0.930 . S
C66 C67 1.351 . S
C66 N69 1.368 . S
C66 H71 0.931 . S
C67 C66 1.351 . S
C67 N68 1.373 . S
C67 H95 0.930 . S
N68 C67 1.373 . S
N68 C70 1.340 . S
N69 C66 1.368 . S
N69 C70 1.321 . S
N69 Co72 2.135 . S
C70 N68 1.340 . S
C70 N69 1.321 . S
C70 H94 0.930 . S
H71 C66 0.931 . S
Co72 N69 2.135 . S
Co72 N75 2.121 . S
Co72 O80 2.055 . S
Co72 O83 2.039 . S
Co72 N86 2.140 . S
C73 O74 1.227 . S
C73 O83 1.265 . S
O74 C73 1.227 . S
N75 Co72 2.121 . S
N75 C77 1.375 . S
N75 C78 1.313 . S
C76 C77 1.338 . S
C76 N79 1.377 . S
C76 H96 0.930 . S
C77 N75 1.375 . S
C77 C76 1.338 . S
C77 H81 0.931 . S
C78 N75 1.313 . S
C78 N79 1.344 . S
C78 H82 0.930 . S
N79 C76 1.377 . S
N79 C78 1.344 . S
O80 Co72 2.055 . S
O80 C84 1.253 . S
H81 C77 0.931 . S
H82 C78 0.930 . S
O83 Co72 2.039 . S
O83 C73 1.265 . S
C84 O80 1.253 . S
C84 O85 1.227 . S
O85 C84 1.227 . S
N86 Co72 2.140 . S
N86 C89 1.346 . S
N86 C90 1.345 . S
C87 C88 1.387 . S
C87 C91 1.391 . S
C88 C87 1.387 . S
C88 C89 1.369 . S
C88 H97 0.929 . S
C89 N86 1.346 . S
C89 C88 1.369 . S
C89 H92 0.928 . S
C90 N86 1.345 . S
C90 C91 1.371 . S
C90 H93 0.931 . S
C91 C87 1.391 . S
C91 C90 1.371 . S
C91 H98 0.930 . S
H92 C89 0.928 . S
H93 C90 0.931 . S
H94 C70 0.930 . S
H95 C67 0.930 . S
H96 C76 0.930 . S
H97 C88 0.929 . S
H98 C91 0.930 . S
C99 C100 1.351 . S
C99 N102 1.368 . S
C99 H104 0.931 . S
C100 C99 1.351 . S
C100 N101 1.373 . S
C100 H128 0.930 . S
N101 C100 1.373 . S
N101 C103 1.340 . S
N102 C99 1.368 . S
N102 C103 1.321 . S
N102 Co105 2.135 . S
C103 N101 1.340 . S
C103 N102 1.321 . S
C103 H127 0.930 . S
H104 C99 0.931 . S
Co105 N102 2.135 . S
Co105 N108 2.121 . S
Co105 O113 2.055 . S
Co105 O116 2.039 . S
Co105 N119 2.140 . S
C106 O107 1.227 . S
C106 O116 1.265 . S
O107 C106 1.227 . S
N108 Co105 2.121 . S
N108 C110 1.375 . S
N108 C111 1.313 . S
C109 C110 1.338 . S
C109 N112 1.377 . S
C109 H129 0.930 . S
C110 N108 1.375 . S
C110 C109 1.338 . S
C110 H114 0.931 . S
C111 N108 1.313 . S
C111 N112 1.344 . S
C111 H115 0.930 . S
N112 C109 1.377 . S
N112 C111 1.344 . S
O113 Co105 2.055 . S
O113 C117 1.253 . S
H114 C110 0.931 . S
H115 C111 0.930 . S
O116 Co105 2.039 . S
O116 C106 1.265 . S
C117 O113 1.253 . S
C117 O118 1.227 . S
O118 C117 1.227 . S
N119 Co105 2.140 . S
N119 C122 1.346 . S
N119 C123 1.345 . S
C120 C121 1.387 . S
C120 C124 1.391 . S
C121 C120 1.387 . S
C121 C122 1.369 . S
C121 H130 0.929 . S
C122 N119 1.346 . S
C122 C121 1.369 . S
C122 H125 0.928 . S
C123 N119 1.345 . S
C123 C124 1.371 . S
C123 H126 0.931 . S
C124 C120 1.391 . S
C124 C123 1.371 . S
C124 H131 0.930 . S
H125 C122 0.928 . S
H126 C123 0.931 . S
H127 C103 0.930 . S
H128 C100 0.930 . S
H129 C109 0.930 . S
H130 C121 0.929 . S
H131 C124 0.930 . S
C132 C133 1.351 . S
C132 N135 1.368 . S
C132 H137 0.931 . S
C133 C132 1.351 . S
C133 N134 1.373 . S
C133 H161 0.930 . S
N134 C133 1.373 . S
N134 C136 1.340 . S
N135 C132 1.368 . S
N135 C136 1.321 . S
N135 Co138 2.135 . S
C136 N134 1.340 . S
C136 N135 1.321 . S
C136 H160 0.930 . S
H137 C132 0.931 . S
Co138 N135 2.135 . S
Co138 N141 2.121 . S
Co138 O146 2.055 . S
Co138 O149 2.039 . S
Co138 N152 2.140 . S
C139 O140 1.227 . S
C139 O149 1.265 . S
O140 C139 1.227 . S
N141 Co138 2.121 . S
N141 C143 1.375 . S
N141 C144 1.313 . S
C142 C143 1.338 . S
C142 N145 1.377 . S
C142 H162 0.930 . S
C143 N141 1.375 . S
C143 C142 1.338 . S
C143 H147 0.931 . S
C144 N141 1.313 . S
C144 N145 1.344 . S
C144 H148 0.930 . S
N145 C142 1.377 . S
N145 C144 1.344 . S
O146 Co138 2.055 . S
O146 C150 1.253 . S
H147 C143 0.931 . S
H148 C144 0.930 . S
O149 Co138 2.039 . S
O149 C139 1.265 . S
C150 O146 1.253 . S
C150 O151 1.227 . S
O151 C150 1.227 . S
N152 Co138 2.140 . S
N152 C155 1.346 . S
N152 C156 1.345 . S
C153 C154 1.387 . S
C153 C157 1.391 . S
C154 C153 1.387 . S
C154 C155 1.369 . S
C154 H163 0.929 . S
C155 N152 1.346 . S
C155 C154 1.369 . S
C155 H158 0.928 . S
C156 N152 1.345 . S
C156 C157 1.371 . S
C156 H159 0.931 . S
C157 C153 1.391 . S
C157 C156 1.371 . S
C157 H164 0.930 . S
H158 C155 0.928 . S
H159 C156 0.931 . S
H160 C136 0.930 . S
H161 C133 0.930 . S
H162 C142 0.930 . S
H163 C154 0.929 . S
H164 C157 0.930 . S
C165 C166 1.351 . S
C165 N168 1.368 . S
C165 H170 0.931 . S
C166 C165 1.351 . S
C166 N167 1.373 . S
C166 H194 0.930 . S
N167 C166 1.373 . S
N167 C169 1.340 . S
N168 C165 1.368 . S
N168 C169 1.321 . S
N168 Co171 2.135 . S
C169 N167 1.340 . S
C169 N168 1.321 . S
C169 H193 0.930 . S
H170 C165 0.931 . S
Co171 N168 2.135 . S
Co171 N174 2.121 . S
Co171 O179 2.055 . S
Co171 O182 2.039 . S
Co171 N185 2.140 . S
C172 O173 1.227 . S
C172 O182 1.265 . S
O173 C172 1.227 . S
N174 Co171 2.121 . S
N174 C176 1.375 . S
N174 C177 1.313 . S
C175 C176 1.338 . S
C175 N178 1.377 . S
C175 H195 0.930 . S
C176 N174 1.375 . S
C176 C175 1.338 . S
C176 H180 0.931 . S
C177 N174 1.313 . S
C177 N178 1.344 . S
C177 H181 0.930 . S
N178 C175 1.377 . S
N178 C177 1.344 . S
O179 Co171 2.055 . S
O179 C183 1.253 . S
H180 C176 0.931 . S
H181 C177 0.930 . S
O182 Co171 2.039 . S
O182 C172 1.265 . S
C183 O179 1.253 . S
C183 O184 1.227 . S
O184 C183 1.227 . S
N185 Co171 2.140 . S
N185 C188 1.346 . S
N185 C189 1.345 . S
C186 C187 1.387 . S
C186 C190 1.391 . S
C187 C186 1.387 . S
C187 C188 1.369 . S
C187 H196 0.929 . S
C188 N185 1.346 . S
C188 C187 1.369 . S
C188 H191 0.928 . S
C189 N185 1.345 . S
C189 C190 1.371 . S
C189 H192 0.931 . S
C190 C186 1.391 . S
C190 C189 1.371 . S
C190 H197 0.930 . S
H191 C188 0.928 . S
H192 C189 0.931 . S
H193 C169 0.930 . S
H194 C166 0.930 . S
H195 C175 0.930 . S
H196 C187 0.929 . S
H197 C190 0.930 . S
C198 C199 1.351 . S
C198 N201 1.368 . S
C198 H203 0.931 . S
C199 C198 1.351 . S
C199 N200 1.373 . S
C199 H227 0.930 . S
N200 C199 1.373 . S
N200 C202 1.340 . S
N201 C198 1.368 . S
N201 C202 1.321 . S
N201 Co204 2.135 . S
C202 N200 1.340 . S
C202 N201 1.321 . S
C202 H226 0.930 . S
H203 C198 0.931 . S
Co204 N201 2.135 . S
Co204 N207 2.121 . S
Co204 O212 2.055 . S
Co204 O215 2.039 . S
Co204 N218 2.140 . S
C205 O206 1.227 . S
C205 O215 1.265 . S
O206 C205 1.227 . S
N207 Co204 2.121 . S
N207 C209 1.375 . S
N207 C210 1.313 . S
C208 C209 1.338 . S
C208 N211 1.377 . S
C208 H228 0.930 . S
C209 N207 1.375 . S
C209 C208 1.338 . S
C209 H213 0.931 . S
C210 N207 1.313 . S
C210 N211 1.344 . S
C210 H214 0.930 . S
N211 C208 1.377 . S
N211 C210 1.344 . S
O212 Co204 2.055 . S
O212 C216 1.253 . S
H213 C209 0.931 . S
H214 C210 0.930 . S
O215 Co204 2.039 . S
O215 C205 1.265 . S
C216 O212 1.253 . S
C216 O217 1.227 . S
O217 C216 1.227 . S
N218 Co204 2.140 . S
N218 C221 1.346 . S
N218 C222 1.345 . S
C219 C220 1.387 . S
C219 C223 1.391 . S
C220 C219 1.387 . S
C220 C221 1.369 . S
C220 H229 0.929 . S
C221 N218 1.346 . S
C221 C220 1.369 . S
C221 H224 0.928 . S
C222 N218 1.345 . S
C222 C223 1.371 . S
C222 H225 0.931 . S
C223 C219 1.391 . S
C223 C222 1.371 . S
C223 H230 0.930 . S
H224 C221 0.928 . S
H225 C222 0.931 . S
H226 C202 0.930 . S
H227 C199 0.930 . S
H228 C208 0.930 . S
H229 C220 0.929 . S
H230 C223 0.930 . S
C231 C232 1.351 . S
C231 N234 1.368 . S
C231 H236 0.931 . S
C232 C231 1.351 . S
C232 N233 1.373 . S
C232 H260 0.930 . S
N233 C232 1.373 . S
N233 C235 1.340 . S
N234 C231 1.368 . S
N234 C235 1.321 . S
N234 Co237 2.135 . S
C235 N233 1.340 . S
C235 N234 1.321 . S
C235 H259 0.930 . S
H236 C231 0.931 . S
Co237 N234 2.135 . S
Co237 N240 2.121 . S
Co237 O245 2.055 . S
Co237 O248 2.039 . S
Co237 N251 2.140 . S
C238 O239 1.227 . S
C238 O248 1.265 . S
O239 C238 1.227 . S
N240 Co237 2.121 . S
N240 C242 1.375 . S
N240 C243 1.313 . S
C241 C242 1.338 . S
C241 N244 1.377 . S
C241 H261 0.930 . S
C242 N240 1.375 . S
C242 C241 1.338 . S
C242 H246 0.931 . S
C243 N240 1.313 . S
C243 N244 1.344 . S
C243 H247 0.930 . S
N244 C241 1.377 . S
N244 C243 1.344 . S
O245 Co237 2.055 . S
O245 C249 1.253 . S
H246 C242 0.931 . S
H247 C243 0.930 . S
O248 Co237 2.039 . S
O248 C238 1.265 . S
C249 O245 1.253 . S
C249 O250 1.227 . S
O250 C249 1.227 . S
N251 Co237 2.140 . S
N251 C254 1.346 . S
N251 C255 1.345 . S
C252 C253 1.387 . S
C252 C256 1.391 . S
C253 C252 1.387 . S
C253 C254 1.369 . S
C253 H262 0.929 . S
C254 N251 1.346 . S
C254 C253 1.369 . S
C254 H257 0.928 . S
C255 N251 1.345 . S
C255 C256 1.371 . S
C255 H258 0.931 . S
C256 C252 1.391 . S
C256 C255 1.371 . S
C256 H263 0.930 . S
H257 C254 0.928 . S
H258 C255 0.931 . S
H259 C235 0.930 . S
H260 C232 0.930 . S
H261 C241 0.930 . S
H262 C253 0.929 . S
H263 C256 0.930 . S
C264 C265 1.351 . S
C264 N267 1.368 . S
C264 H269 0.931 . S
C265 C264 1.351 . S
C265 N266 1.373 . S
C265 H293 0.930 . S
N266 C265 1.373 . S
N266 C268 1.340 . S
N267 C264 1.368 . S
N267 C268 1.321 . S
N267 Co270 2.135 . S
C268 N266 1.340 . S
C268 N267 1.321 . S
C268 H292 0.930 . S
H269 C264 0.931 . S
Co270 N267 2.135 . S
Co270 N273 2.121 . S
Co270 O278 2.055 . S
Co270 O281 2.039 . S
Co270 N284 2.140 . S
C271 O272 1.227 . S
C271 O281 1.265 . S
O272 C271 1.227 . S
N273 Co270 2.121 . S
N273 C275 1.375 . S
N273 C276 1.313 . S
C274 C275 1.338 . S
C274 N277 1.377 . S
C274 H294 0.930 . S
C275 N273 1.375 . S
C275 C274 1.338 . S
C275 H279 0.931 . S
C276 N273 1.313 . S
C276 N277 1.344 . S
C276 H280 0.930 . S
N277 C274 1.377 . S
N277 C276 1.344 . S
O278 Co270 2.055 . S
O278 C282 1.253 . S
H279 C275 0.931 . S
H280 C276 0.930 . S
O281 Co270 2.039 . S
O281 C271 1.265 . S
C282 O278 1.253 . S
C282 O283 1.227 . S
O283 C282 1.227 . S
N284 Co270 2.140 . S
N284 C287 1.346 . S
N284 C288 1.345 . S
C285 C286 1.387 . S
C285 C289 1.391 . S
C286 C285 1.387 . S
C286 C287 1.369 . S
C286 H295 0.929 . S
C287 N284 1.346 . S
C287 C286 1.369 . S
C287 H290 0.928 . S
C288 N284 1.345 . S
C288 C289 1.371 . S
C288 H291 0.931 . S
C289 C285 1.391 . S
C289 C288 1.371 . S
C289 H296 0.930 . S
H290 C287 0.928 . S
H291 C288 0.931 . S
H292 C268 0.930 . S
H293 C265 0.930 . S
H294 C274 0.930 . S
H295 C286 0.929 . S
H296 C289 0.930 . S
C297 C298 1.351 . S
C297 N300 1.368 . S
C297 H302 0.931 . S
C298 C297 1.351 . S
C298 N299 1.373 . S
C298 H326 0.930 . S
N299 C298 1.373 . S
N299 C301 1.340 . S
N300 C297 1.368 . S
N300 C301 1.321 . S
N300 Co303 2.135 . S
C301 N299 1.340 . S
C301 N300 1.321 . S
C301 H325 0.930 . S
H302 C297 0.931 . S
Co303 N300 2.135 . S
Co303 N306 2.121 . S
Co303 O311 2.055 . S
Co303 O314 2.039 . S
Co303 N317 2.140 . S
C304 O305 1.227 . S
C304 O314 1.265 . S
O305 C304 1.227 . S
N306 Co303 2.121 . S
N306 C308 1.375 . S
N306 C309 1.313 . S
C307 C308 1.338 . S
C307 N310 1.377 . S
C307 H327 0.930 . S
C308 N306 1.375 . S
C308 C307 1.338 . S
C308 H312 0.931 . S
C309 N306 1.313 . S
C309 N310 1.344 . S
C309 H313 0.930 . S
N310 C307 1.377 . S
N310 C309 1.344 . S
O311 Co303 2.055 . S
O311 C315 1.253 . S
H312 C308 0.931 . S
H313 C309 0.930 . S
O314 Co303 2.039 . S
O314 C304 1.265 . S
C315 O311 1.253 . S
C315 O316 1.227 . S
O316 C315 1.227 . S
N317 Co303 2.140 . S
N317 C320 1.346 . S
N317 C321 1.345 . S
C318 C319 1.387 . S
C318 C322 1.391 . S
C319 C318 1.387 . S
C319 C320 1.369 . S
C319 H328 0.929 . S
C320 N317 1.346 . S
C320 C319 1.369 . S
C320 H323 0.928 . S
C321 N317 1.345 . S
C321 C322 1.371 . S
C321 H324 0.931 . S
C322 C318 1.391 . S
C322 C321 1.371 . S
C322 H329 0.930 . S
H323 C320 0.928 . S
H324 C321 0.931 . S
H325 C301 0.930 . S
H326 C298 0.930 . S
H327 C307 0.930 . S
H328 C319 0.929 . S
H329 C322 0.930 . S
C330 C331 1.351 . S
C330 N333 1.368 . S
C330 H335 0.931 . S
C331 C330 1.351 . S
C331 N332 1.373 . S
C331 H359 0.930 . S
N332 C331 1.373 . S
N332 C334 1.340 . S
N333 C330 1.368 . S
N333 C334 1.321 . S
N333 Co336 2.135 . S
C334 N332 1.340 . S
C334 N333 1.321 . S
C334 H358 0.930 . S
H335 C330 0.931 . S
Co336 N333 2.135 . S
Co336 N339 2.121 . S
Co336 O344 2.055 . S
Co336 O347 2.039 . S
Co336 N350 2.140 . S
C337 O338 1.227 . S
C337 O347 1.265 . S
O338 C337 1.227 . S
N339 Co336 2.121 . S
N339 C341 1.375 . S
N339 C342 1.313 . S
C340 C341 1.338 . S
C340 N343 1.377 . S
C340 H360 0.930 . S
C341 N339 1.375 . S
C341 C340 1.338 . S
C341 H345 0.931 . S
C342 N339 1.313 . S
C342 N343 1.344 . S
C342 H346 0.930 . S
N343 C340 1.377 . S
N343 C342 1.344 . S
O344 Co336 2.055 . S
O344 C348 1.253 . S
H345 C341 0.931 . S
H346 C342 0.930 . S
O347 Co336 2.039 . S
O347 C337 1.265 . S
C348 O344 1.253 . S
C348 O349 1.227 . S
O349 C348 1.227 . S
N350 Co336 2.140 . S
N350 C353 1.346 . S
N350 C354 1.345 . S
C351 C352 1.387 . S
C351 C355 1.391 . S
C352 C351 1.387 . S
C352 C353 1.369 . S
C352 H361 0.929 . S
C353 N350 1.346 . S
C353 C352 1.369 . S
C353 H356 0.928 . S
C354 N350 1.345 . S
C354 C355 1.371 . S
C354 H357 0.931 . S
C355 C351 1.391 . S
C355 C354 1.371 . S
C355 H362 0.930 . S
H356 C353 0.928 . S
H357 C354 0.931 . S
H358 C334 0.930 . S
H359 C331 0.930 . S
H360 C340 0.930 . S
H361 C352 0.929 . S
H362 C355 0.930 . S
C363 C364 1.351 . S
C363 N366 1.368 . S
C363 H368 0.931 . S
C364 C363 1.351 . S
C364 N365 1.373 . S
C364 H392 0.930 . S
N365 C364 1.373 . S
N365 C367 1.340 . S
N366 C363 1.368 . S
N366 C367 1.321 . S
N366 Co369 2.135 . S
C367 N365 1.340 . S
C367 N366 1.321 . S
C367 H391 0.930 . S
H368 C363 0.931 . S
Co369 N366 2.135 . S
Co369 N372 2.121 . S
Co369 O377 2.055 . S
Co369 O380 2.039 . S
Co369 N383 2.140 . S
C370 O371 1.227 . S
C370 O380 1.265 . S
O371 C370 1.227 . S
N372 Co369 2.121 . S
N372 C374 1.375 . S
N372 C375 1.313 . S
C373 C374 1.338 . S
C373 N376 1.377 . S
C373 H393 0.930 . S
C374 N372 1.375 . S
C374 C373 1.338 . S
C374 H378 0.931 . S
C375 N372 1.313 . S
C375 N376 1.344 . S
C375 H379 0.930 . S
N376 C373 1.377 . S
N376 C375 1.344 . S
O377 Co369 2.055 . S
O377 C381 1.253 . S
H378 C374 0.931 . S
H379 C375 0.930 . S
O380 Co369 2.039 . S
O380 C370 1.265 . S
C381 O377 1.253 . S
C381 O382 1.227 . S
O382 C381 1.227 . S
N383 Co369 2.140 . S
N383 C386 1.346 . S
N383 C387 1.345 . S
C384 C385 1.387 . S
C384 C388 1.391 . S
C385 C384 1.387 . S
C385 C386 1.369 . S
C385 H394 0.929 . S
C386 N383 1.346 . S
C386 C385 1.369 . S
C386 H389 0.928 . S
C387 N383 1.345 . S
C387 C388 1.371 . S
C387 H390 0.931 . S
C388 C384 1.391 . S
C388 C387 1.371 . S
C388 H395 0.930 . S
H389 C386 0.928 . S
H390 C387 0.931 . S
H391 C367 0.930 . S
H392 C364 0.930 . S
H393 C373 0.930 . S
H394 C385 0.929 . S
H395 C388 0.930 . S
C396 C397 1.351 . S
C396 N399 1.368 . S
C396 H401 0.931 . S
C397 C396 1.351 . S
C397 N398 1.373 . S
C397 H425 0.930 . S
N398 C397 1.373 . S
N398 C400 1.340 . S
N399 C396 1.368 . S
N399 C400 1.321 . S
N399 Co402 2.135 . S
C400 N398 1.340 . S
C400 N399 1.321 . S
C400 H424 0.930 . S
H401 C396 0.931 . S
Co402 N399 2.135 . S
Co402 N405 2.121 . S
Co402 O410 2.055 . S
Co402 O413 2.039 . S
Co402 N416 2.140 . S
C403 O404 1.227 . S
C403 O413 1.265 . S
O404 C403 1.227 . S
N405 Co402 2.121 . S
N405 C407 1.375 . S
N405 C408 1.313 . S
C406 C407 1.338 . S
C406 N409 1.377 . S
C406 H426 0.930 . S
C407 N405 1.375 . S
C407 C406 1.338 . S
C407 H411 0.931 . S
C408 N405 1.313 . S
C408 N409 1.344 . S
C408 H412 0.930 . S
N409 C406 1.377 . S
N409 C408 1.344 . S
O410 Co402 2.055 . S
O410 C414 1.253 . S
H411 C407 0.931 . S
H412 C408 0.930 . S
O413 Co402 2.039 . S
O413 C403 1.265 . S
C414 O410 1.253 . S
C414 O415 1.227 . S
O415 C414 1.227 . S
N416 Co402 2.140 . S
N416 C419 1.346 . S
N416 C420 1.345 . S
C417 C418 1.387 . S
C417 C421 1.391 . S
C418 C417 1.387 . S
C418 C419 1.369 . S
C418 H427 0.929 . S
C419 N416 1.346 . S
C419 C418 1.369 . S
C419 H422 0.928 . S
C420 N416 1.345 . S
C420 C421 1.371 . S
C420 H423 0.931 . S
C421 C417 1.391 . S
C421 C420 1.371 . S
C421 H428 0.930 . S
H422 C419 0.928 . S
H423 C420 0.931 . S
H424 C400 0.930 . S
H425 C397 0.930 . S
H426 C406 0.930 . S
H427 C418 0.929 . S
H428 C421 0.930 . S
C429 C430 1.351 . S
C429 N432 1.368 . S
C429 H434 0.931 . S
C430 C429 1.351 . S
C430 N431 1.373 . S
C430 H458 0.930 . S
N431 C430 1.373 . S
N431 C433 1.340 . S
N432 C429 1.368 . S
N432 C433 1.321 . S
N432 Co435 2.135 . S
C433 N431 1.340 . S
C433 N432 1.321 . S
C433 H457 0.930 . S
H434 C429 0.931 . S
Co435 N432 2.135 . S
Co435 N438 2.121 . S
Co435 O443 2.055 . S
Co435 O446 2.039 . S
Co435 N449 2.140 . S
C436 O437 1.227 . S
C436 O446 1.265 . S
O437 C436 1.227 . S
N438 Co435 2.121 . S
N438 C440 1.375 . S
N438 C441 1.313 . S
C439 C440 1.338 . S
C439 N442 1.377 . S
C439 H459 0.930 . S
C440 N438 1.375 . S
C440 C439 1.338 . S
C440 H444 0.931 . S
C441 N438 1.313 . S
C441 N442 1.344 . S
C441 H445 0.930 . S
N442 C439 1.377 . S
N442 C441 1.344 . S
O443 Co435 2.055 . S
O443 C447 1.253 . S
H444 C440 0.931 . S
H445 C441 0.930 . S
O446 Co435 2.039 . S
O446 C436 1.265 . S
C447 O443 1.253 . S
C447 O448 1.227 . S
O448 C447 1.227 . S
N449 Co435 2.140 . S
N449 C452 1.346 . S
N449 C453 1.345 . S
C450 C451 1.387 . S
C450 C454 1.391 . S
C451 C450 1.387 . S
C451 C452 1.369 . S
C451 H460 0.929 . S
C452 N449 1.346 . S
C452 C451 1.369 . S
C452 H455 0.928 . S
C453 N449 1.345 . S
C453 C454 1.371 . S
C453 H456 0.931 . S
C454 C450 1.391 . S
C454 C453 1.371 . S
C454 H461 0.930 . S
H455 C452 0.928 . S
H456 C453 0.931 . S
H457 C433 0.930 . S
H458 C430 0.930 . S
H459 C439 0.930 . S
H460 C451 0.929 . S
H461 C454 0.930 . S
C462 C463 1.351 . S
C462 N465 1.368 . S
C462 H467 0.931 . S
C463 C462 1.351 . S
C463 N464 1.373 . S
C463 H491 0.930 . S
N464 C463 1.373 . S
N464 C466 1.340 . S
N465 C462 1.368 . S
N465 C466 1.321 . S
N465 Co468 2.135 . S
C466 N464 1.340 . S
C466 N465 1.321 . S
C466 H490 0.930 . S
H467 C462 0.931 . S
Co468 N465 2.135 . S
Co468 N471 2.121 . S
Co468 O476 2.055 . S
Co468 O479 2.039 . S
Co468 N482 2.140 . S
C469 O470 1.227 . S
C469 O479 1.265 . S
O470 C469 1.227 . S
N471 Co468 2.121 . S
N471 C473 1.375 . S
N471 C474 1.313 . S
C472 C473 1.338 . S
C472 N475 1.377 . S
C472 H492 0.930 . S
C473 N471 1.375 . S
C473 C472 1.338 . S
C473 H477 0.931 . S
C474 N471 1.313 . S
C474 N475 1.344 . S
C474 H478 0.930 . S
N475 C472 1.377 . S
N475 C474 1.344 . S
O476 Co468 2.055 . S
O476 C480 1.253 . S
H477 C473 0.931 . S
H478 C474 0.930 . S
O479 Co468 2.039 . S
O479 C469 1.265 . S
C480 O476 1.253 . S
C480 O481 1.227 . S
O481 C480 1.227 . S
N482 Co468 2.140 . S
N482 C485 1.346 . S
N482 C486 1.345 . S
C483 C484 1.387 . S
C483 C487 1.391 . S
C484 C483 1.387 . S
C484 C485 1.369 . S
C484 H493 0.929 . S
C485 N482 1.346 . S
C485 C484 1.369 . S
C485 H488 0.928 . S
C486 N482 1.345 . S
C486 C487 1.371 . S
C486 H489 0.931 . S
C487 C483 1.391 . S
C487 C486 1.371 . S
C487 H494 0.930 . S
H488 C485 0.928 . S
H489 C486 0.931 . S
H490 C466 0.930 . S
H491 C463 0.930 . S
H492 C472 0.930 . S
H493 C484 0.929 . S
H494 C487 0.930 . S
C495 C496 1.351 . S
C495 N498 1.368 . S
C495 H500 0.931 . S
C496 C495 1.351 . S
C496 N497 1.373 . S
C496 H524 0.930 . S
N497 C496 1.373 . S
N497 C499 1.340 . S
N498 C495 1.368 . S
N498 C499 1.321 . S
N498 Co501 2.135 . S
C499 N497 1.340 . S
C499 N498 1.321 . S
C499 H523 0.930 . S
H500 C495 0.931 . S
Co501 N498 2.135 . S
Co501 N504 2.121 . S
Co501 O509 2.055 . S
Co501 O512 2.039 . S
Co501 N515 2.140 . S
C502 O503 1.227 . S
C502 O512 1.265 . S
O503 C502 1.227 . S
N504 Co501 2.121 . S
N504 C506 1.375 . S
N504 C507 1.313 . S
C505 C506 1.338 . S
C505 N508 1.377 . S
C505 H525 0.930 . S
C506 N504 1.375 . S
C506 C505 1.338 . S
C506 H510 0.931 . S
C507 N504 1.313 . S
C507 N508 1.344 . S
C507 H511 0.930 . S
N508 C505 1.377 . S
N508 C507 1.344 . S
O509 Co501 2.055 . S
O509 C513 1.253 . S
H510 C506 0.931 . S
H511 C507 0.930 . S
O512 Co501 2.039 . S
O512 C502 1.265 . S
C513 O509 1.253 . S
C513 O514 1.227 . S
O514 C513 1.227 . S
N515 Co501 2.140 . S
N515 C518 1.346 . S
N515 C519 1.345 . S
C516 C517 1.387 . S
C516 C520 1.391 . S
C517 C516 1.387 . S
C517 C518 1.369 . S
C517 H526 0.929 . S
C518 N515 1.346 . S
C518 C517 1.369 . S
C518 H521 0.928 . S
C519 N515 1.345 . S
C519 C520 1.371 . S
C519 H522 0.931 . S
C520 C516 1.391 . S
C520 C519 1.371 . S
C520 H527 0.930 . S
H521 C518 0.928 . S
H522 C519 0.931 . S
H523 C499 0.930 . S
H524 C496 0.930 . S
H525 C505 0.930 . S
H526 C517 0.929 . S
H527 C520 0.930 . S
H528 C546 0.951 . S
H529 C548 0.951 . S
H530 C550 0.950 . S
H531 C551 0.950 . S
H532 C553 0.950 . S
H533 C556 0.950 . S
H534 C557 0.950 . S
H535 C559 0.950 . S
H536 C560 0.950 . S
H537 C561 0.951 . S
H538 C563 0.951 . S
H539 C565 0.950 . S
H540 C566 0.950 . S
H541 C568 0.950 . S
H542 C571 0.950 . S
H543 C572 0.950 . S
H544 C574 0.950 . S
H545 C575 0.950 . S
C546 H528 0.951 . S
C546 C547 1.366 . S
C546 C548 1.388 . S
C547 C546 1.366 . S
C547 C551 1.385 . S
C548 H529 0.951 . S
C548 C546 1.388 . S
C548 C549 1.366 . S
C549 C548 1.366 . S
C549 C550 1.414 . S
C549 C552 1.499 . S
C550 H530 0.950 . S
C550 C549 1.414 . S
C550 C551 1.374 . S
C551 H531 0.950 . S
C551 C547 1.385 . S
C551 C550 1.374 . S
C552 C549 1.499 . S
C552 C553 1.373 . S
C552 C554 1.389 . S
C553 H532 0.950 . S
C553 C552 1.373 . S
C553 C569 1.377 . S
C554 C552 1.389 . S
C554 C555 1.524 . S
C554 C568 1.377 . S
C555 C554 1.524 . S
C555 C556 1.397 . S
C555 C560 1.363 . S
C556 H533 0.950 . S
C556 C555 1.397 . S
C556 C557 1.334 . S
C557 H534 0.950 . S
C557 C556 1.334 . S
C557 C558 1.287 . S
C558 C557 1.287 . S
C558 C559 1.524 . S
C558 H577 0.913 . S
C559 H535 0.950 . S
C559 C558 1.524 . S
C559 C560 1.415 . S
C560 H536 0.950 . S
C560 C555 1.363 . S
C560 C559 1.415 . S
C561 H537 0.951 . S
C561 C562 1.366 . S
C561 C563 1.388 . S
C562 C561 1.366 . S
C562 C566 1.385 . S
C563 H538 0.951 . S
C563 C561 1.388 . S
C563 C564 1.366 . S
C564 C563 1.366 . S
C564 C565 1.414 . S
C564 C567 1.499 . S
C565 H539 0.950 . S
C565 C564 1.414 . S
C565 C566 1.374 . S
C566 H540 0.950 . S
C566 C562 1.385 . S
C566 C565 1.374 . S
C567 C564 1.499 . S
C567 C568 1.373 . S
C567 C569 1.389 . S
C568 H541 0.950 . S
C568 C554 1.377 . S
C568 C567 1.373 . S
C569 C553 1.377 . S
C569 C567 1.389 . S
C569 C570 1.524 . S
C570 C569 1.524 . S
C570 C571 1.397 . S
C570 C575 1.363 . S
C571 H542 0.950 . S
C571 C570 1.397 . S
C571 C572 1.334 . S
C572 H543 0.950 . S
C572 C571 1.334 . S
C572 C573 1.287 . S
C573 C572 1.287 . S
C573 C574 1.524 . S
C573 H576 0.999 . S
C574 H544 0.950 . S
C574 C573 1.524 . S
C574 C575 1.415 . S
C575 H545 0.950 . S
C575 C570 1.363 . S
C575 C574 1.415 . S
H576 C573 0.999 . S
H577 C558 0.913 . S
H578 C596 0.951 1_455 S
H579 C598 0.951 . S
H580 C600 0.950 . S
H581 C601 0.950 1_455 S
H582 C603 0.950 . S
H583 C606 0.950 . S
H584 C607 0.950 . S
H585 C609 0.950 . S
H586 C610 0.950 . S
H587 C611 0.951 . S
H588 C613 0.951 . S
H589 C615 0.950 . S
H590 C616 0.950 . S
H591 C618 0.950 . S
H592 C621 0.950 . S
H593 C622 0.950 . S
H594 C624 0.950 . S
H595 C625 0.950 . S
C596 H578 0.951 1_655 S
C596 C597 1.366 1_655 S
C596 C598 1.388 . S
C597 C596 1.366 1_455 S
C597 C601 1.385 1_455 S
C598 H579 0.951 . S
C598 C596 1.388 . S
C598 C599 1.366 . S
C599 C598 1.366 . S
C599 C600 1.414 . S
C599 C602 1.499 . S
C600 H580 0.950 . S
C600 C599 1.414 . S
C600 C601 1.374 . S
C601 H581 0.950 1_655 S
C601 C597 1.385 1_655 S
C601 C600 1.374 . S
C602 C599 1.499 . S
C602 C603 1.373 . S
C602 C604 1.389 . S
C603 H582 0.950 . S
C603 C602 1.373 . S
C603 C619 1.377 . S
C604 C602 1.389 . S
C604 C605 1.524 . S
C604 C618 1.377 . S
C605 C604 1.524 . S
C605 C606 1.397 . S
C605 C610 1.363 . S
C606 H583 0.950 . S
C606 C605 1.397 . S
C606 C607 1.334 . S
C607 H584 0.950 . S
C607 C606 1.334 . S
C607 C608 1.287 . S
C608 C607 1.287 . S
C608 C609 1.524 . S
C608 H627 0.913 . S
C609 H585 0.950 . S
C609 C608 1.524 . S
C609 C610 1.415 . S
C610 H586 0.950 . S
C610 C605 1.363 . S
C610 C609 1.415 . S
C611 H587 0.951 . S
C611 C612 1.366 . S
C611 C613 1.388 . S
C612 C611 1.366 . S
C612 C616 1.385 . S
C613 H588 0.951 . S
C613 C611 1.388 . S
C613 C614 1.366 . S
C614 C613 1.366 . S
C614 C615 1.414 . S
C614 C617 1.499 . S
C615 H589 0.950 . S
C615 C614 1.414 . S
C615 C616 1.374 . S
C616 H590 0.950 . S
C616 C612 1.385 . S
C616 C615 1.374 . S
C617 C614 1.499 . S
C617 C618 1.373 . S
C617 C619 1.389 . S
C618 H591 0.950 . S
C618 C604 1.377 . S
C618 C617 1.373 . S
C619 C603 1.377 . S
C619 C617 1.389 . S
C619 C620 1.524 . S
C620 C619 1.524 . S
C620 C621 1.397 . S
C620 C625 1.363 . S
C621 H592 0.950 . S
C621 C620 1.397 . S
C621 C622 1.334 . S
C622 H593 0.950 . S
C622 C621 1.334 . S
C622 C623 1.287 . S
C623 C622 1.287 . S
C623 C624 1.524 . S
C623 H626 0.999 . S
C624 H594 0.950 . S
C624 C623 1.524 . S
C624 C625 1.415 . S
C625 H595 0.950 . S
C625 C620 1.363 . S
C625 C624 1.415 . S
H626 C623 0.999 . S
H627 C608 0.913 . S
H628 C646 0.951 . S
H629 C648 0.951 . S
H630 C650 0.950 . S
H631 C651 0.950 . S
H632 C653 0.950 . S
H633 C656 0.950 . S
H634 C657 0.950 . S
H635 C659 0.950 . S
H636 C660 0.950 . S
H637 C661 0.951 . S
H638 C663 0.951 . S
H639 C665 0.950 . S
H640 C666 0.950 . S
H641 C668 0.950 . S
H642 C671 0.950 . S
H643 C672 0.950 . S
H644 C674 0.987 . S
H645 C675 0.950 . S
C646 H628 0.951 . S
C646 C647 1.366 . S
C646 C648 1.388 . S
C647 C646 1.366 . S
C647 C651 1.385 . S
C648 H629 0.951 . S
C648 C646 1.388 . S
C648 C649 1.366 . S
C649 C648 1.366 . S
C649 C650 1.414 . S
C649 C652 1.499 . S
C650 H630 0.950 . S
C650 C649 1.414 . S
C650 C651 1.374 . S
C651 H631 0.950 . S
C651 C647 1.385 . S
C651 C650 1.374 . S
C652 C649 1.499 . S
C652 C653 1.373 . S
C652 C654 1.389 . S
C653 H632 0.950 . S
C653 C652 1.373 . S
C653 C669 1.377 . S
C654 C652 1.389 . S
C654 C655 1.524 . S
C654 C668 1.377 . S
C655 C654 1.524 . S
C655 C656 1.397 . S
C655 C660 1.363 . S
C656 H633 0.950 . S
C656 C655 1.397 . S
C656 C657 1.334 . S
C657 H634 0.950 . S
C657 C656 1.334 . S
C657 C658 1.287 . S
C658 C657 1.287 . S
C658 C659 1.524 . S
C658 H677 0.913 . S
C659 H635 0.950 . S
C659 C658 1.524 . S
C659 C660 1.415 . S
C660 H636 0.950 . S
C660 C655 1.363 . S
C660 C659 1.415 . S
C661 H637 0.951 . S
C661 C662 1.366 . S
C661 C663 1.388 . S
C662 C661 1.366 . S
C662 C666 1.385 . S
C663 H638 0.951 . S
C663 C661 1.388 . S
C663 C664 1.366 . S
C664 C663 1.366 . S
C664 C665 1.414 . S
C664 C667 1.499 . S
C665 H639 0.950 . S
C665 C664 1.414 . S
C665 C666 1.374 . S
C666 H640 0.950 . S
C666 C662 1.385 . S
C666 C665 1.374 . S
C667 C664 1.499 . S
C667 C668 1.373 . S
C667 C669 1.389 . S
C668 H641 0.950 . S
C668 C654 1.377 . S
C668 C667 1.373 . S
C669 C653 1.377 . S
C669 C667 1.389 . S
C669 C670 1.524 . S
C670 C669 1.524 . S
C670 C671 1.397 . S
C670 C675 1.363 . S
C671 H642 0.950 . S
C671 C670 1.397 . S
C671 C672 1.334 . S
C672 H643 0.950 . S
C672 C671 1.334 . S
C672 C673 1.287 . S
C673 C672 1.287 . S
C673 C674 1.524 . S
C673 H676 0.999 . S
C674 H644 0.987 . S
C674 C673 1.524 . S
C674 C675 1.415 . S
C675 H645 0.950 . S
C675 C670 1.363 . S
C675 C674 1.415 . S
H676 C673 0.999 . S
H677 C658 0.913 . S
H678 C696 0.951 . S
H679 C698 0.951 . S
H680 C700 0.950 . S
H681 C701 0.941 1_455 S
H682 C703 0.950 . S
H683 C706 0.950 . S
H684 C707 0.950 . S
H685 C709 0.950 . S
H686 C710 0.950 . S
H687 C711 0.951 . S
H688 C713 0.951 . S
H689 C715 0.950 . S
H690 C716 0.950 . S
H691 C718 0.950 . S
H692 C721 0.950 . S
H693 C722 0.950 . S
H694 C724 0.950 . S
H695 C725 0.950 . S
C696 H678 0.951 . S
C696 C697 1.366 1_655 S
C696 C698 1.388 . S
C697 C696 1.366 1_455 S
C697 C701 1.379 1_455 S
C698 H679 0.951 . S
C698 C696 1.388 . S
C698 C699 1.366 . S
C699 C698 1.366 . S
C699 C700 1.414 . S
C699 C702 1.499 . S
C700 H680 0.950 . S
C700 C699 1.414 . S
C700 C701 1.388 . S
C701 H681 0.941 1_655 S
C701 C697 1.379 1_655 S
C701 C700 1.388 . S
C702 C699 1.499 . S
C702 C703 1.373 . S
C702 C704 1.389 . S
C703 H682 0.950 . S
C703 C702 1.373 . S
C703 C719 1.377 . S
C704 C702 1.389 . S
C704 C705 1.524 . S
C704 C718 1.377 . S
C705 C704 1.524 . S
C705 C706 1.397 . S
C705 C710 1.363 . S
C706 H683 0.950 . S
C706 C705 1.397 . S
C706 C707 1.334 . S
C707 H684 0.950 . S
C707 C706 1.334 . S
C707 C708 1.287 . S
C708 C707 1.287 . S
C708 C709 1.524 . S
C708 H727 0.913 . S
C709 H685 0.950 . S
C709 C708 1.524 . S
C709 C710 1.415 . S
C710 H686 0.950 . S
C710 C705 1.363 . S
C710 C709 1.415 . S
C711 H687 0.951 . S
C711 C712 1.366 . S
C711 C713 1.388 . S
C712 C711 1.366 . S
C712 C716 1.385 . S
C713 H688 0.951 . S
C713 C711 1.388 . S
C713 C714 1.366 . S
C714 C713 1.366 . S
C714 C715 1.414 . S
C714 C717 1.499 . S
C715 H689 0.950 . S
C715 C714 1.414 . S
C715 C716 1.374 . S
C716 H690 0.950 . S
C716 C712 1.385 . S
C716 C715 1.374 . S
C717 C714 1.499 . S
C717 C718 1.373 . S
C717 C719 1.389 . S
C718 H691 0.950 . S
C718 C704 1.377 . S
C718 C717 1.373 . S
C719 C703 1.377 . S
C719 C717 1.389 . S
C719 C720 1.524 . S
C720 C719 1.524 . S
C720 C721 1.397 . S
C720 C725 1.363 . S
C721 H692 0.950 . S
C721 C720 1.397 . S
C721 C722 1.334 . S
C722 H693 0.950 . S
C722 C721 1.334 . S
C722 C723 1.287 . S
C723 C722 1.287 . S
C723 C724 1.524 . S
C723 H726 0.999 . S
C724 H694 0.950 . S
C724 C723 1.524 . S
C724 C725 1.415 . S
C725 H695 0.950 . S
C725 C720 1.363 . S
C725 C724 1.415 . S
H726 C723 0.999 . S
H727 C708 0.913 . S
H728 C746 0.951 . S
H729 C748 0.951 . S
H730 C750 0.950 . S
H731 C751 0.950 . S
H732 C753 0.950 . S
H733 C756 0.950 . S
H734 C757 0.950 . S
H735 C759 0.950 . S
H736 C760 0.950 . S
H737 C761 0.951 . S
H738 C763 0.951 . S
H739 C765 0.950 . S
H740 C766 0.950 . S
H741 C768 0.950 . S
H742 C771 0.950 . S
H743 C772 0.950 . S
H744 C774 0.950 . S
H745 C775 0.950 . S
C746 H728 0.951 . S
C746 C747 1.366 . S
C746 C748 1.388 . S
C747 C746 1.366 . S
C747 C751 1.385 . S
C748 H729 0.951 . S
C748 C746 1.388 . S
C748 C749 1.366 . S
C749 C748 1.366 . S
C749 C750 1.414 . S
C749 C752 1.499 . S
C750 H730 0.950 . S
C750 C749 1.414 . S
C750 C751 1.374 . S
C751 H731 0.950 . S
C751 C747 1.385 . S
C751 C750 1.374 . S
C752 C749 1.499 . S
C752 C753 1.373 . S
C752 C754 1.389 . S
C753 H732 0.950 . S
C753 C752 1.373 . S
C753 C769 1.377 . S
C754 C752 1.389 . S
C754 C755 1.524 . S
C754 C768 1.377 . S
C755 C754 1.524 . S
C755 C756 1.397 . S
C755 C760 1.363 . S
C756 H733 0.950 . S
C756 C755 1.397 . S
C756 C757 1.334 . S
C757 H734 0.950 . S
C757 C756 1.334 . S
C757 C758 1.287 . S
C758 C757 1.287 . S
C758 C759 1.524 . S
C758 H777 0.913 . S
C759 H735 0.950 . S
C759 C758 1.524 . S
C759 C760 1.415 . S
C760 H736 0.950 . S
C760 C755 1.363 . S
C760 C759 1.415 . S
C761 H737 0.951 . S
C761 C762 1.366 . S
C761 C763 1.388 . S
C762 C761 1.366 . S
C762 C766 1.385 . S
C763 H738 0.951 . S
C763 C761 1.388 . S
C763 C764 1.366 . S
C764 C763 1.366 . S
C764 C765 1.414 . S
C764 C767 1.499 . S
C765 H739 0.950 . S
C765 C764 1.414 . S
C765 C766 1.374 . S
C766 H740 0.950 . S
C766 C762 1.385 . S
C766 C765 1.374 . S
C767 C764 1.499 . S
C767 C768 1.373 . S
C767 C769 1.389 . S
C768 H741 0.950 . S
C768 C754 1.377 . S
C768 C767 1.373 . S
C769 C753 1.377 . S
C769 C767 1.389 . S
C769 C770 1.524 . S
C770 C769 1.524 . S
C770 C771 1.397 . S
C770 C775 1.363 . S
C771 H742 0.950 . S
C771 C770 1.397 . S
C771 C772 1.334 . S
C772 H743 0.950 . S
C772 C771 1.334 . S
C772 C773 1.287 . S
C773 C772 1.287 . S
C773 C774 1.524 . S
C773 H776 0.999 . S
C774 H744 0.950 . S
C774 C773 1.524 . S
C774 C775 1.415 . S
C775 H745 0.950 . S
C775 C770 1.363 . S
C775 C774 1.415 . S
H776 C773 0.999 . S
H777 C758 0.913 . S
H778 C796 0.951 1_655 S
H779 C798 0.951 . S
H780 C800 0.950 . S
H781 C801 0.950 1_655 S
H782 C803 0.950 . S
H783 C806 0.950 . S
H784 C807 0.950 . S
H785 C809 0.950 . S
H786 C810 0.950 . S
H787 C811 0.951 . S
H788 C813 0.951 . S
H789 C815 0.950 . S
H790 C816 0.950 . S
H791 C818 0.950 . S
H792 C821 0.950 . S
H793 C822 0.950 . S
H794 C824 0.950 . S
H795 C825 0.950 . S
C796 H778 0.951 1_455 S
C796 C797 1.366 1_455 S
C796 C798 1.388 . S
C797 C796 1.366 1_655 S
C797 C801 1.385 1_655 S
C798 H779 0.951 . S
C798 C796 1.388 . S
C798 C799 1.366 . S
C799 C798 1.366 . S
C799 C800 1.414 . S
C799 C802 1.499 . S
C800 H780 0.950 . S
C800 C799 1.414 . S
C800 C801 1.374 . S
C801 H781 0.950 1_455 S
C801 C797 1.385 1_455 S
C801 C800 1.374 . S
C802 C799 1.499 . S
C802 C803 1.373 . S
C802 C804 1.389 . S
C803 H782 0.950 . S
C803 C802 1.373 . S
C803 C819 1.377 . S
C804 C802 1.389 . S
C804 C805 1.524 . S
C804 C818 1.377 . S
C805 C804 1.524 . S
C805 C806 1.397 . S
C805 C810 1.363 . S
C806 H783 0.950 . S
C806 C805 1.397 . S
C806 C807 1.334 . S
C807 H784 0.950 . S
C807 C806 1.334 . S
C807 C808 1.287 . S
C808 C807 1.287 . S
C808 C809 1.524 . S
C808 H827 0.913 . S
C809 H785 0.950 . S
C809 C808 1.524 . S
C809 C810 1.415 . S
C810 H786 0.950 . S
C810 C805 1.363 . S
C810 C809 1.415 . S
C811 H787 0.951 . S
C811 C812 1.366 . S
C811 C813 1.388 . S
C812 C811 1.366 . S
C812 C816 1.385 . S
C813 H788 0.951 . S
C813 C811 1.388 . S
C813 C814 1.366 . S
C814 C813 1.366 . S
C814 C815 1.414 . S
C814 C817 1.499 . S
C815 H789 0.950 . S
C815 C814 1.414 . S
C815 C816 1.374 . S
C816 H790 0.950 . S
C816 C812 1.385 . S
C816 C815 1.374 . S
C817 C814 1.499 . S
C817 C818 1.373 . S
C817 C819 1.389 . S
C818 H791 0.950 . S
C818 C804 1.377 . S
C818 C817 1.373 . S
C819 C803 1.377 . S
C819 C817 1.389 . S
C819 C820 1.524 . S
C820 C819 1.524 . S
C820 C821 1.397 . S
C820 C825 1.363 . S
C821 H792 0.950 . S
C821 C820 1.397 . S
C821 C822 1.334 . S
C822 H793 0.950 . S
C822 C821 1.334 . S
C822 C823 1.287 . S
C823 C822 1.287 . S
C823 C824 1.524 . S
C823 H826 0.999 . S
C824 H794 0.950 . S
C824 C823 1.524 . S
C824 C825 1.415 . S
C825 H795 0.950 . S
C825 C820 1.363 . S
C825 C824 1.415 . S
H826 C823 0.999 . S
H827 C808 0.913 . S
H828 C846 0.951 . S
H829 C848 0.951 . S
H830 C850 0.950 . S
H831 C851 0.950 . S
H832 C853 0.950 . S
H833 C856 0.950 . S
H834 C857 0.950 . S
H835 C859 0.950 . S
H836 C860 0.950 . S
H837 C861 0.951 . S
H838 C863 0.951 . S
H839 C865 0.950 . S
H840 C866 0.950 . S
H841 C868 0.950 . S
H842 C871 0.950 . S
H843 C872 0.950 . S
H844 C874 0.950 . S
H845 C875 0.950 . S
C846 H828 0.951 . S
C846 C847 1.366 . S
C846 C848 1.388 . S
C847 C846 1.366 . S
C847 C851 1.385 . S
C848 H829 0.951 . S
C848 C846 1.388 . S
C848 C849 1.366 . S
C849 C848 1.366 . S
C849 C850 1.414 . S
C849 C852 1.499 . S
C850 H830 0.950 . S
C850 C849 1.414 . S
C850 C851 1.374 . S
C851 H831 0.950 . S
C851 C847 1.385 . S
C851 C850 1.374 . S
C852 C849 1.499 . S
C852 C853 1.373 . S
C852 C854 1.389 . S
C853 H832 0.950 . S
C853 C852 1.373 . S
C853 C869 1.377 . S
C854 C852 1.389 . S
C854 C855 1.524 . S
C854 C868 1.377 . S
C855 C854 1.524 . S
C855 C856 1.397 . S
C855 C860 1.363 . S
C856 H833 0.950 . S
C856 C855 1.397 . S
C856 C857 1.334 . S
C857 H834 0.950 . S
C857 C856 1.334 . S
C857 C858 1.287 . S
C858 C857 1.287 . S
C858 C859 1.524 . S
C858 H877 0.913 . S
C859 H835 0.950 . S
C859 C858 1.524 . S
C859 C860 1.415 . S
C860 H836 0.950 . S
C860 C855 1.363 . S
C860 C859 1.415 . S
C861 H837 0.951 . S
C861 C862 1.366 . S
C861 C863 1.388 . S
C862 C861 1.366 . S
C862 C866 1.385 . S
C863 H838 0.951 . S
C863 C861 1.388 . S
C863 C864 1.366 . S
C864 C863 1.366 . S
C864 C865 1.414 . S
C864 C867 1.499 . S
C865 H839 0.950 . S
C865 C864 1.414 . S
C865 C866 1.374 . S
C866 H840 0.950 . S
C866 C862 1.385 . S
C866 C865 1.374 . S
C867 C864 1.499 . S
C867 C868 1.373 . S
C867 C869 1.389 . S
C868 H841 0.950 . S
C868 C854 1.377 . S
C868 C867 1.373 . S
C869 C853 1.377 . S
C869 C867 1.389 . S
C869 C870 1.524 . S
C870 C869 1.524 . S
C870 C871 1.397 . S
C870 C875 1.363 . S
C871 H842 0.950 . S
C871 C870 1.397 . S
C871 C872 1.334 . S
C872 H843 0.950 . S
C872 C871 1.334 . S
C872 C873 1.287 . S
C873 C872 1.287 . S
C873 C874 1.524 . S
C873 H876 0.999 . S
C874 H844 0.950 . S
C874 C873 1.524 . S
C874 C875 1.415 . S
C875 H845 0.950 . S
C875 C870 1.363 . S
C875 C874 1.415 . S
H876 C873 0.999 . S
H877 C858 0.913 . S
H878 C896 0.961 . S
H879 C898 0.951 . S
H880 C900 0.950 . S
H881 C901 0.929 1_655 S
H882 C903 0.950 . S
H883 C906 0.950 . S
H884 C907 0.950 . S
H885 C909 0.950 . S
H886 C910 0.950 . S
H887 C911 0.951 . S
H888 C913 0.951 . S
H889 C915 0.950 . S
H890 C916 0.950 . S
H891 C918 0.950 . S
H892 C921 0.950 . S
H893 C922 0.950 . S
H894 C924 0.950 . S
H895 C925 0.950 . S
C896 H878 0.961 . S
C896 C897 1.366 1_455 S
C896 C898 1.388 . S
C897 C896 1.366 1_655 S
C897 C901 1.370 1_655 S
C898 H879 0.951 . S
C898 C896 1.388 . S
C898 C899 1.366 . S
C899 C898 1.366 . S
C899 C900 1.414 . S
C899 C902 1.499 . S
C900 H880 0.950 . S
C900 C899 1.414 . S
C900 C901 1.410 . S
C901 H881 0.929 1_455 S
C901 C897 1.370 1_455 S
C901 C900 1.410 . S
C902 C899 1.499 . S
C902 C903 1.373 . S
C902 C904 1.389 . S
C903 H882 0.950 . S
C903 C902 1.373 . S
C903 C919 1.377 . S
C904 C902 1.389 . S
C904 C905 1.524 . S
C904 C918 1.377 . S
C905 C904 1.524 . S
C905 C906 1.397 . S
C905 C910 1.363 . S
C906 H883 0.950 . S
C906 C905 1.397 . S
C906 C907 1.334 . S
C907 H884 0.950 . S
C907 C906 1.334 . S
C907 C908 1.287 . S
C908 C907 1.287 . S
C908 C909 1.524 . S
C908 H927 0.913 . S
C909 H885 0.950 . S
C909 C908 1.524 . S
C909 C910 1.415 . S
C910 H886 0.950 . S
C910 C905 1.363 . S
C910 C909 1.415 . S
C911 H887 0.951 . S
C911 C912 1.366 . S
C911 C913 1.388 . S
C912 C911 1.366 . S
C912 C916 1.385 . S
C913 H888 0.951 . S
C913 C911 1.388 . S
C913 C914 1.366 . S
C914 C913 1.366 . S
C914 C915 1.414 . S
C914 C917 1.499 . S
C915 H889 0.950 . S
C915 C914 1.414 . S
C915 C916 1.374 . S
C916 H890 0.950 . S
C916 C912 1.385 . S
C916 C915 1.374 . S
C917 C914 1.499 . S
C917 C918 1.373 . S
C917 C919 1.389 . S
C918 H891 0.950 . S
C918 C904 1.377 . S
C918 C917 1.373 . S
C919 C903 1.377 . S
C919 C917 1.389 . S
C919 C920 1.524 . S
C920 C919 1.524 . S
C920 C921 1.397 . S
C920 C925 1.363 . S
C921 H892 0.950 . S
C921 C920 1.397 . S
C921 C922 1.334 . S
C922 H893 0.950 . S
C922 C921 1.334 . S
C922 C923 1.287 . S
C923 C922 1.287 . S
C923 C924 1.524 . S
C923 H926 0.999 . S
C924 H894 0.950 . S
C924 C923 1.524 . S
C924 C925 1.415 . S
C925 H895 0.950 . S
C925 C920 1.363 . S
C925 C924 1.415 . S
H926 C923 0.999 . S
H927 C908 0.913 . S
H928 C946 0.951 . S
H929 C948 0.951 . S
H930 C950 0.950 . S
H931 C951 0.950 . S
H932 C953 0.950 . S
H933 C956 0.950 . S
H934 C957 0.950 . S
H935 C959 0.950 . S
H936 C960 0.950 . S
H937 C961 0.951 . S
H938 C963 0.951 . S
H939 C965 0.950 . S
H940 C966 0.950 . S
H941 C968 0.950 . S
H942 C971 0.950 . S
H943 C972 0.950 . S
H944 C974 0.950 1_554 S
H945 C975 0.950 . S
C946 H928 0.951 . S
C946 C947 1.366 . S
C946 C948 1.388 . S
C947 C946 1.366 . S
C947 C951 1.385 . S
C948 H929 0.951 . S
C948 C946 1.388 . S
C948 C949 1.366 . S
C949 C948 1.366 . S
C949 C950 1.414 . S
C949 C952 1.499 . S
C950 H930 0.950 . S
C950 C949 1.414 . S
C950 C951 1.374 . S
C951 H931 0.950 . S
C951 C947 1.385 . S
C951 C950 1.374 . S
C952 C949 1.499 . S
C952 C953 1.373 . S
C952 C954 1.389 . S
C953 H932 0.950 . S
C953 C952 1.373 . S
C953 C969 1.377 . S
C954 C952 1.389 . S
C954 C955 1.524 . S
C954 C968 1.377 . S
C955 C954 1.524 . S
C955 C956 1.397 . S
C955 C960 1.363 . S
C956 H933 0.950 . S
C956 C955 1.397 . S
C956 C957 1.334 . S
C957 H934 0.950 . S
C957 C956 1.334 . S
C957 C958 1.287 . S
C958 C957 1.287 . S
C958 C959 1.524 . S
C958 H977 0.913 . S
C959 H935 0.950 . S
C959 C958 1.524 . S
C959 C960 1.415 . S
C960 H936 0.950 . S
C960 C955 1.363 . S
C960 C959 1.415 . S
C961 H937 0.951 . S
C961 C962 1.366 . S
C961 C963 1.388 . S
C962 C961 1.366 . S
C962 C966 1.385 . S
C963 H938 0.951 . S
C963 C961 1.388 . S
C963 C964 1.366 . S
C964 C963 1.366 . S
C964 C965 1.414 . S
C964 C967 1.499 . S
C965 H939 0.950 . S
C965 C964 1.414 . S
C965 C966 1.374 . S
C966 H940 0.950 . S
C966 C962 1.385 . S
C966 C965 1.374 . S
C967 C964 1.499 . S
C967 C968 1.373 . S
C967 C969 1.389 . S
C968 H941 0.950 . S
C968 C954 1.377 . S
C968 C967 1.373 . S
C969 C953 1.377 . S
C969 C967 1.389 . S
C969 C970 1.524 . S
C970 C969 1.524 . S
C970 C971 1.397 . S
C970 C975 1.363 . S
C971 H942 0.950 . S
C971 C970 1.397 . S
C971 C972 1.334 . S
C972 H943 0.950 . S
C972 C971 1.334 . S
C972 C973 1.287 . S
C973 C972 1.287 . S
C973 C974 1.524 . S
C973 H976 0.999 . S
C974 H944 0.950 1_556 S
C974 C973 1.524 . S
C974 C975 1.415 . S
C975 H945 0.950 . S
C975 C970 1.363 . S
C975 C974 1.415 . S
H976 C973 0.999 . S
H977 C958 0.913 . S
H978 C996 0.951 . S
H979 C998 0.951 . S
H980 C1000 0.950 . S
H981 C1001 0.950 . S
H982 C1003 0.950 . S
H983 C1006 0.950 . S
H984 C1007 0.950 . S
H985 C1009 0.950 . S
H986 C1010 0.950 . S
H987 C1011 0.951 1_455 S
H988 C1013 0.951 . S
H989 C1015 0.950 . S
H990 C1016 0.950 1_455 S
H991 C1018 0.950 . S
H992 C1021 0.950 . S
H993 C1022 0.950 . S
H994 C1024 0.950 . S
H995 C1025 0.950 . S
C996 H978 0.951 . S
C996 C997 1.366 . S
C996 C998 1.388 . S
C997 C996 1.366 . S
C997 C1001 1.385 . S
C998 H979 0.951 . S
C998 C996 1.388 . S
C998 C999 1.366 . S
C999 C998 1.366 . S
C999 C1000 1.414 . S
C999 C1002 1.499 . S
C1000 H980 0.950 . S
C1000 C999 1.414 . S
C1000 C1001 1.374 . S
C1001 H981 0.950 . S
C1001 C997 1.385 . S
C1001 C1000 1.374 . S
C1002 C999 1.499 . S
C1002 C1003 1.373 . S
C1002 C1004 1.389 . S
C1003 H982 0.950 . S
C1003 C1002 1.373 . S
C1003 C1019 1.377 . S
C1004 C1002 1.389 . S
C1004 C1005 1.524 . S
C1004 C1018 1.377 . S
C1005 C1004 1.524 . S
C1005 C1006 1.397 . S
C1005 C1010 1.363 . S
C1006 H983 0.950 . S
C1006 C1005 1.397 . S
C1006 C1007 1.334 . S
C1007 H984 0.950 . S
C1007 C1006 1.334 . S
C1007 C1008 1.287 . S
C1008 C1007 1.287 . S
C1008 C1009 1.524 . S
C1008 H1027 0.913 . S
C1009 H985 0.950 . S
C1009 C1008 1.524 . S
C1009 C1010 1.415 . S
C1010 H986 0.950 . S
C1010 C1005 1.363 . S
C1010 C1009 1.415 . S
C1011 H987 0.951 1_655 S
C1011 C1012 1.366 1_655 S
C1011 C1013 1.388 . S
C1012 C1011 1.366 1_455 S
C1012 C1016 1.385 1_455 S
C1013 H988 0.951 . S
C1013 C1011 1.388 . S
C1013 C1014 1.366 . S
C1014 C1013 1.366 . S
C1014 C1015 1.414 . S
C1014 C1017 1.499 . S
C1015 H989 0.950 . S
C1015 C1014 1.414 . S
C1015 C1016 1.374 . S
C1016 H990 0.950 1_655 S
C1016 C1012 1.385 1_655 S
C1016 C1015 1.374 . S
C1017 C1014 1.499 . S
C1017 C1018 1.373 . S
C1017 C1019 1.389 . S
C1018 H991 0.950 . S
C1018 C1004 1.377 . S
C1018 C1017 1.373 . S
C1019 C1003 1.377 . S
C1019 C1017 1.389 . S
C1019 C1020 1.524 . S
C1020 C1019 1.524 . S
C1020 C1021 1.397 . S
C1020 C1025 1.363 . S
C1021 H992 0.950 . S
C1021 C1020 1.397 . S
C1021 C1022 1.334 . S
C1022 H993 0.950 . S
C1022 C1021 1.334 . S
C1022 C1023 1.287 . S
C1023 C1022 1.287 . S
C1023 C1024 1.524 . S
C1023 H1026 0.999 . S
C1024 H994 0.950 . S
C1024 C1023 1.524 . S
C1024 C1025 1.415 . S
C1025 H995 0.950 . S
C1025 C1020 1.363 . S
C1025 C1024 1.415 . S
H1026 C1023 0.999 . S
H1027 C1008 0.913 . S
H1028 C1046 0.951 . S
H1029 C1048 0.951 . S
H1030 C1050 0.950 . S
H1031 C1051 0.950 . S
H1032 C1053 0.950 . S
H1033 C1056 0.950 . S
H1034 C1057 0.950 . S
H1035 C1059 0.950 . S
H1036 C1060 0.950 . S
H1037 C1061 0.951 . S
H1038 C1063 0.951 . S
H1039 C1065 0.950 . S
H1040 C1066 0.950 . S
H1041 C1068 0.950 . S
H1042 C1071 0.950 . S
H1043 C1072 0.950 . S
H1044 C1074 0.950 . S
H1045 C1075 0.950 . S
C1046 H1028 0.951 . S
C1046 C1047 1.366 . S
C1046 C1048 1.388 . S
C1047 C1046 1.366 . S
C1047 C1051 1.385 . S
C1048 H1029 0.951 . S
C1048 C1046 1.388 . S
C1048 C1049 1.366 . S
C1049 C1048 1.366 . S
C1049 C1050 1.414 . S
C1049 C1052 1.499 . S
C1050 H1030 0.950 . S
C1050 C1049 1.414 . S
C1050 C1051 1.374 . S
C1051 H1031 0.950 . S
C1051 C1047 1.385 . S
C1051 C1050 1.374 . S
C1052 C1049 1.499 . S
C1052 C1053 1.373 . S
C1052 C1054 1.389 . S
C1053 H1032 0.950 . S
C1053 C1052 1.373 . S
C1053 C1069 1.377 . S
C1054 C1052 1.389 . S
C1054 C1055 1.524 . S
C1054 C1068 1.377 . S
C1055 C1054 1.524 . S
C1055 C1056 1.397 . S
C1055 C1060 1.363 . S
C1056 H1033 0.950 . S
C1056 C1055 1.397 . S
C1056 C1057 1.334 . S
C1057 H1034 0.950 . S
C1057 C1056 1.334 . S
C1057 C1058 1.287 . S
C1058 C1057 1.287 . S
C1058 C1059 1.524 . S
C1058 H1077 0.913 . S
C1059 H1035 0.950 . S
C1059 C1058 1.524 . S
C1059 C1060 1.415 . S
C1060 H1036 0.950 . S
C1060 C1055 1.363 . S
C1060 C1059 1.415 . S
C1061 H1037 0.951 . S
C1061 C1062 1.366 . S
C1061 C1063 1.388 . S
C1062 C1061 1.366 . S
C1062 C1066 1.385 . S
C1063 H1038 0.951 . S
C1063 C1061 1.388 . S
C1063 C1064 1.366 . S
C1064 C1063 1.366 . S
C1064 C1065 1.414 . S
C1064 C1067 1.499 . S
C1065 H1039 0.950 . S
C1065 C1064 1.414 . S
C1065 C1066 1.374 . S
C1066 H1040 0.950 . S
C1066 C1062 1.385 . S
C1066 C1065 1.374 . S
C1067 C1064 1.499 . S
C1067 C1068 1.373 . S
C1067 C1069 1.389 . S
C1068 H1041 0.950 . S
C1068 C1054 1.377 . S
C1068 C1067 1.373 . S
C1069 C1053 1.377 . S
C1069 C1067 1.389 . S
C1069 C1070 1.524 . S
C1070 C1069 1.524 . S
C1070 C1071 1.397 . S
C1070 C1075 1.363 . S
C1071 H1042 0.950 . S
C1071 C1070 1.397 . S
C1071 C1072 1.334 . S
C1072 H1043 0.950 . S
C1072 C1071 1.334 . S
C1072 C1073 1.287 . S
C1073 C1072 1.287 . S
C1073 C1074 1.524 . S
C1073 H1076 0.999 . S
C1074 H1044 0.950 . S
C1074 C1073 1.524 . S
C1074 C1075 1.415 . S
C1075 H1045 0.950 . S
C1075 C1070 1.363 . S
C1075 C1074 1.415 . S
H1076 C1073 0.999 . S
H1077 C1058 0.913 . S
H1078 C1096 0.951 . S
H1079 C1098 0.951 . S
H1080 C1100 0.950 . S
H1081 C1101 0.950 . S
H1082 C1103 0.950 . S
H1083 C1106 0.950 . S
H1084 C1107 0.950 . S
H1085 C1109 0.950 . S
H1086 C1110 0.950 . S
H1087 C1111 0.951 1_455 S
H1088 C1113 0.951 . S
H1089 C1115 0.950 . S
H1090 C1116 0.950 1_455 S
H1091 C1118 0.950 . S
H1092 C1121 0.950 . S
H1093 C1122 0.950 . S
H1094 C1124 0.950 . S
H1095 C1125 0.950 . S
C1096 H1078 0.951 . S
C1096 C1097 1.366 . S
C1096 C1098 1.388 . S
C1097 C1096 1.366 . S
C1097 C1101 1.385 . S
C1098 H1079 0.951 . S
C1098 C1096 1.388 . S
C1098 C1099 1.366 . S
C1099 C1098 1.366 . S
C1099 C1100 1.414 . S
C1099 C1102 1.499 . S
C1100 H1080 0.950 . S
C1100 C1099 1.414 . S
C1100 C1101 1.374 . S
C1101 H1081 0.950 . S
C1101 C1097 1.385 . S
C1101 C1100 1.374 . S
C1102 C1099 1.499 . S
C1102 C1103 1.373 . S
C1102 C1104 1.389 . S
C1103 H1082 0.950 . S
C1103 C1102 1.373 . S
C1103 C1119 1.377 . S
C1104 C1102 1.389 . S
C1104 C1105 1.524 . S
C1104 C1118 1.377 . S
C1105 C1104 1.524 . S
C1105 C1106 1.397 . S
C1105 C1110 1.363 . S
C1106 H1083 0.950 . S
C1106 C1105 1.397 . S
C1106 C1107 1.334 . S
C1107 H1084 0.950 . S
C1107 C1106 1.334 . S
C1107 C1108 1.287 . S
C1108 C1107 1.287 . S
C1108 C1109 1.524 . S
C1108 H1127 0.913 . S
C1109 H1085 0.950 . S
C1109 C1108 1.524 . S
C1109 C1110 1.415 . S
C1110 H1086 0.950 . S
C1110 C1105 1.363 . S
C1110 C1109 1.415 . S
C1111 H1087 0.951 1_655 S
C1111 C1112 1.366 1_655 S
C1111 C1113 1.388 . S
C1112 C1111 1.366 1_455 S
C1112 C1116 1.385 1_455 S
C1113 H1088 0.951 . S
C1113 C1111 1.388 . S
C1113 C1114 1.366 . S
C1114 C1113 1.366 . S
C1114 C1115 1.414 . S
C1114 C1117 1.499 . S
C1115 H1089 0.950 . S
C1115 C1114 1.414 . S
C1115 C1116 1.374 . S
C1116 H1090 0.950 1_655 S
C1116 C1112 1.385 1_655 S
C1116 C1115 1.374 . S
C1117 C1114 1.499 . S
C1117 C1118 1.373 . S
C1117 C1119 1.389 . S
C1118 H1091 0.950 . S
C1118 C1104 1.377 . S
C1118 C1117 1.373 . S
C1119 C1103 1.377 . S
C1119 C1117 1.389 . S
C1119 C1120 1.524 . S
C1120 C1119 1.524 . S
C1120 C1121 1.397 . S
C1120 C1125 1.363 . S
C1121 H1092 0.950 . S
C1121 C1120 1.397 . S
C1121 C1122 1.334 . S
C1122 H1093 0.950 . S
C1122 C1121 1.334 . S
C1122 C1123 1.287 . S
C1123 C1122 1.287 . S
C1123 C1124 1.524 . S
C1123 H1126 0.999 . S
C1124 H1094 0.950 . S
C1124 C1123 1.524 . S
C1124 C1125 1.415 . S
C1125 H1095 0.950 . S
C1125 C1120 1.363 . S
C1125 C1124 1.415 . S
H1126 C1123 0.999 . S
H1127 C1108 0.913 . S
H1128 C1146 0.951 . S
H1129 C1148 0.951 . S
H1130 C1150 0.950 . S
H1131 C1151 0.950 . S
H1132 C1153 0.950 . S
H1133 C1156 0.950 . S
H1134 C1157 0.950 . S
H1135 C1159 0.950 . S
H1136 C1160 0.950 . S
H1137 C1161 0.951 . S
H1138 C1163 0.951 . S
H1139 C1165 0.950 . S
H1140 C1166 0.950 . S
H1141 C1168 0.950 . S
H1142 C1171 0.950 . S
H1143 C1172 0.950 . S
H1144 C1174 0.950 . S
H1145 C1175 0.950 . S
C1146 H1128 0.951 . S
C1146 C1147 1.366 . S
C1146 C1148 1.388 . S
C1147 C1146 1.366 . S
C1147 C1151 1.385 . S
C1148 H1129 0.951 . S
C1148 C1146 1.388 . S
C1148 C1149 1.366 . S
C1149 C1148 1.366 . S
C1149 C1150 1.414 . S
C1149 C1152 1.499 . S
C1150 H1130 0.950 . S
C1150 C1149 1.414 . S
C1150 C1151 1.374 . S
C1151 H1131 0.950 . S
C1151 C1147 1.385 . S
C1151 C1150 1.374 . S
C1152 C1149 1.499 . S
C1152 C1153 1.373 . S
C1152 C1154 1.389 . S
C1153 H1132 0.950 . S
C1153 C1152 1.373 . S
C1153 C1169 1.377 . S
C1154 C1152 1.389 . S
C1154 C1155 1.524 . S
C1154 C1168 1.377 . S
C1155 C1154 1.524 . S
C1155 C1156 1.397 . S
C1155 C1160 1.363 . S
C1156 H1133 0.950 . S
C1156 C1155 1.397 . S
C1156 C1157 1.334 . S
C1157 H1134 0.950 . S
C1157 C1156 1.334 . S
C1157 C1158 1.287 . S
C1158 C1157 1.287 . S
C1158 C1159 1.524 . S
C1158 H1177 0.913 . S
C1159 H1135 0.950 . S
C1159 C1158 1.524 . S
C1159 C1160 1.415 . S
C1160 H1136 0.950 . S
C1160 C1155 1.363 . S
C1160 C1159 1.415 . S
C1161 H1137 0.951 . S
C1161 C1162 1.366 . S
C1161 C1163 1.388 . S
C1162 C1161 1.366 . S
C1162 C1166 1.385 . S
C1163 H1138 0.951 . S
C1163 C1161 1.388 . S
C1163 C1164 1.366 . S
C1164 C1163 1.366 . S
C1164 C1165 1.414 . S
C1164 C1167 1.499 . S
C1165 H1139 0.950 . S
C1165 C1164 1.414 . S
C1165 C1166 1.374 . S
C1166 H1140 0.950 . S
C1166 C1162 1.385 . S
C1166 C1165 1.374 . S
C1167 C1164 1.499 . S
C1167 C1168 1.373 . S
C1167 C1169 1.389 . S
C1168 H1141 0.950 . S
C1168 C1154 1.377 . S
C1168 C1167 1.373 . S
C1169 C1153 1.377 . S
C1169 C1167 1.389 . S
C1169 C1170 1.524 . S
C1170 C1169 1.524 . S
C1170 C1171 1.397 . S
C1170 C1175 1.363 . S
C1171 H1142 0.950 . S
C1171 C1170 1.397 . S
C1171 C1172 1.334 . S
C1172 H1143 0.950 . S
C1172 C1171 1.334 . S
C1172 C1173 1.287 . S
C1173 C1172 1.287 . S
C1173 C1174 1.524 . S
C1173 H1176 0.999 . S
C1174 H1144 0.950 . S
C1174 C1173 1.524 . S
C1174 C1175 1.415 . S
C1175 H1145 0.950 . S
C1175 C1170 1.363 . S
C1175 C1174 1.415 . S
H1176 C1173 0.999 . S
H1177 C1158 0.913 . S
H1178 C1196 0.951 . S
H1179 C1198 0.951 . S
H1180 C1200 0.950 . S
H1181 C1201 0.950 . S
H1182 C1203 0.950 . S
H1183 C1206 0.950 . S
H1184 C1207 0.950 . S
H1185 C1209 0.950 . S
H1186 C1210 0.950 . S
H1187 C1211 0.951 1_655 S
H1188 C1213 0.951 . S
H1189 C1215 0.950 . S
H1190 C1216 0.950 1_655 S
H1191 C1218 0.950 . S
H1192 C1221 0.950 . S
H1193 C1222 0.950 . S
H1194 C1224 0.950 . S
H1195 C1225 0.950 . S
C1196 H1178 0.951 . S
C1196 C1197 1.366 . S
C1196 C1198 1.388 . S
C1197 C1196 1.366 . S
C1197 C1201 1.385 . S
C1198 H1179 0.951 . S
C1198 C1196 1.388 . S
C1198 C1199 1.366 . S
C1199 C1198 1.366 . S
C1199 C1200 1.414 . S
C1199 C1202 1.499 . S
C1200 H1180 0.950 . S
C1200 C1199 1.414 . S
C1200 C1201 1.374 . S
C1201 H1181 0.950 . S
C1201 C1197 1.385 . S
C1201 C1200 1.374 . S
C1202 C1199 1.499 . S
C1202 C1203 1.373 . S
C1202 C1204 1.389 . S
C1203 H1182 0.950 . S
C1203 C1202 1.373 . S
C1203 C1219 1.377 . S
C1204 C1202 1.389 . S
C1204 C1205 1.524 . S
C1204 C1218 1.377 . S
C1205 C1204 1.524 . S
C1205 C1206 1.397 . S
C1205 C1210 1.363 . S
C1206 H1183 0.950 . S
C1206 C1205 1.397 . S
C1206 C1207 1.334 . S
C1207 H1184 0.950 . S
C1207 C1206 1.334 . S
C1207 C1208 1.287 . S
C1208 C1207 1.287 . S
C1208 C1209 1.524 . S
C1208 H1227 0.913 . S
C1209 H1185 0.950 . S
C1209 C1208 1.524 . S
C1209 C1210 1.415 . S
C1210 H1186 0.950 . S
C1210 C1205 1.363 . S
C1210 C1209 1.415 . S
C1211 H1187 0.951 1_455 S
C1211 C1212 1.366 1_455 S
C1211 C1213 1.388 . S
C1212 C1211 1.366 1_655 S
C1212 C1216 1.385 1_655 S
C1213 H1188 0.951 . S
C1213 C1211 1.388 . S
C1213 C1214 1.366 . S
C1214 C1213 1.366 . S
C1214 C1215 1.414 . S
C1214 C1217 1.499 . S
C1215 H1189 0.950 . S
C1215 C1214 1.414 . S
C1215 C1216 1.374 . S
C1216 H1190 0.950 1_455 S
C1216 C1212 1.385 1_455 S
C1216 C1215 1.374 . S
C1217 C1214 1.499 . S
C1217 C1218 1.373 . S
C1217 C1219 1.389 . S
C1218 H1191 0.950 . S
C1218 C1204 1.377 . S
C1218 C1217 1.373 . S
C1219 C1203 1.377 . S
C1219 C1217 1.389 . S
C1219 C1220 1.524 . S
C1220 C1219 1.524 . S
C1220 C1221 1.397 . S
C1220 C1225 1.363 . S
C1221 H1192 0.950 . S
C1221 C1220 1.397 . S
C1221 C1222 1.334 . S
C1222 H1193 0.950 . S
C1222 C1221 1.334 . S
C1222 C1223 1.287 . S
C1223 C1222 1.287 . S
C1223 C1224 1.524 . S
C1223 H1226 0.999 . S
C1224 H1194 0.950 . S
C1224 C1223 1.524 . S
C1224 C1225 1.415 . S
C1225 H1195 0.950 . S
C1225 C1220 1.363 . S
C1225 C1224 1.415 . S
H1226 C1223 0.999 . S
H1227 C1208 0.913 . S
H1228 C1246 0.951 . S
H1229 C1248 0.951 . S
H1230 C1250 0.950 . S
H1231 C1251 0.950 . S
H1232 C1253 0.950 . S
H1233 C1256 0.950 . S
H1234 C1257 0.950 . S
H1235 C1259 0.950 . S
H1236 C1260 0.950 . S
H1237 C1261 0.951 . S
H1238 C1263 0.951 . S
H1239 C1265 0.950 . S
H1240 C1266 0.950 . S
H1241 C1268 0.950 . S
H1242 C1271 0.950 . S
H1243 C1272 0.950 . S
H1244 C1274 0.950 . S
H1245 C1275 0.950 . S
C1246 H1228 0.951 . S
C1246 C1247 1.366 . S
C1246 C1248 1.388 . S
C1247 C1246 1.366 . S
C1247 C1251 1.385 . S
C1248 H1229 0.951 . S
C1248 C1246 1.388 . S
C1248 C1249 1.366 . S
C1249 C1248 1.366 . S
C1249 C1250 1.414 . S
C1249 C1252 1.499 . S
C1250 H1230 0.950 . S
C1250 C1249 1.414 . S
C1250 C1251 1.374 . S
C1251 H1231 0.950 . S
C1251 C1247 1.385 . S
C1251 C1250 1.374 . S
C1252 C1249 1.499 . S
C1252 C1253 1.373 . S
C1252 C1254 1.389 . S
C1253 H1232 0.950 . S
C1253 C1252 1.373 . S
C1253 C1269 1.377 . S
C1254 C1252 1.389 . S
C1254 C1255 1.524 . S
C1254 C1268 1.377 . S
C1255 C1254 1.524 . S
C1255 C1256 1.397 . S
C1255 C1260 1.363 . S
C1256 H1233 0.950 . S
C1256 C1255 1.397 . S
C1256 C1257 1.334 . S
C1257 H1234 0.950 . S
C1257 C1256 1.334 . S
C1257 C1258 1.287 . S
C1258 C1257 1.287 . S
C1258 C1259 1.524 . S
C1258 H1277 0.913 . S
C1259 H1235 0.950 . S
C1259 C1258 1.524 . S
C1259 C1260 1.415 . S
C1260 H1236 0.950 . S
C1260 C1255 1.363 . S
C1260 C1259 1.415 . S
C1261 H1237 0.951 . S
C1261 C1262 1.366 . S
C1261 C1263 1.388 . S
C1262 C1261 1.366 . S
C1262 C1266 1.385 . S
C1263 H1238 0.951 . S
C1263 C1261 1.388 . S
C1263 C1264 1.366 . S
C1264 C1263 1.366 . S
C1264 C1265 1.414 . S
C1264 C1267 1.499 . S
C1265 H1239 0.950 . S
C1265 C1264 1.414 . S
C1265 C1266 1.374 . S
C1266 H1240 0.950 . S
C1266 C1262 1.385 . S
C1266 C1265 1.374 . S
C1267 C1264 1.499 . S
C1267 C1268 1.373 . S
C1267 C1269 1.389 . S
C1268 H1241 0.950 . S
C1268 C1254 1.377 . S
C1268 C1267 1.373 . S
C1269 C1253 1.377 . S
C1269 C1267 1.389 . S
C1269 C1270 1.524 . S
C1270 C1269 1.524 . S
C1270 C1271 1.397 . S
C1270 C1275 1.363 . S
C1271 H1242 0.950 . S
C1271 C1270 1.397 . S
C1271 C1272 1.334 . S
C1272 H1243 0.950 . S
C1272 C1271 1.334 . S
C1272 C1273 1.287 . S
C1273 C1272 1.287 . S
C1273 C1274 1.524 . S
C1273 H1276 0.999 . S
C1274 H1244 0.950 . S
C1274 C1273 1.524 . S
C1274 C1275 1.415 . S
C1275 H1245 0.950 . S
C1275 C1270 1.363 . S
C1275 C1274 1.415 . S
H1276 C1273 0.999 . S
H1277 C1258 0.913 . S
H1278 C1296 0.951 1_655 S
H1279 C1298 0.951 . S
H1280 C1300 0.950 . S
H1281 C1301 0.950 1_655 S
H1282 C1303 0.950 . S
H1283 C1306 0.950 . S
H1284 C1307 0.950 . S
H1285 C1309 0.950 . S
H1286 C1310 0.950 . S
H1287 C1311 0.951 . S
H1288 C1313 0.951 . S
H1289 C1315 0.950 . S
H1290 C1316 0.950 . S
H1291 C1318 0.950 . S
H1292 C1321 0.950 . S
H1293 C1322 0.950 . S
H1294 C1324 0.950 . S
H1295 C1325 0.950 . S
C1296 H1278 0.951 1_455 S
C1296 C1297 1.366 1_455 S
C1296 C1298 1.388 . S
C1297 C1296 1.366 1_655 S
C1297 C1301 1.385 1_655 S
C1298 H1279 0.951 . S
C1298 C1296 1.388 . S
C1298 C1299 1.366 . S
C1299 C1298 1.366 . S
C1299 C1300 1.414 . S
C1299 C1302 1.499 . S
C1300 H1280 0.950 . S
C1300 C1299 1.414 . S
C1300 C1301 1.374 . S
C1301 H1281 0.950 1_455 S
C1301 C1297 1.385 1_455 S
C1301 C1300 1.374 . S
C1302 C1299 1.499 . S
C1302 C1303 1.373 . S
C1302 C1304 1.389 . S
C1303 H1282 0.950 . S
C1303 C1302 1.373 . S
C1303 C1319 1.377 . S
C1304 C1302 1.389 . S
C1304 C1305 1.524 . S
C1304 C1318 1.377 . S
C1305 C1304 1.524 . S
C1305 C1306 1.397 . S
C1305 C1310 1.363 . S
C1306 H1283 0.950 . S
C1306 C1305 1.397 . S
C1306 C1307 1.334 . S
C1307 H1284 0.950 . S
C1307 C1306 1.334 . S
C1307 C1308 1.287 . S
C1308 C1307 1.287 . S
C1308 C1309 1.524 . S
C1308 H1327 0.913 . S
C1309 H1285 0.950 . S
C1309 C1308 1.524 . S
C1309 C1310 1.415 . S
C1310 H1286 0.950 . S
C1310 C1305 1.363 . S
C1310 C1309 1.415 . S
C1311 H1287 0.951 . S
C1311 C1312 1.366 . S
C1311 C1313 1.388 . S
C1312 C1311 1.366 . S
C1312 C1316 1.385 . S
C1313 H1288 0.951 . S
C1313 C1311 1.388 . S
C1313 C1314 1.366 . S
C1314 C1313 1.366 . S
C1314 C1315 1.414 . S
C1314 C1317 1.499 . S
C1315 H1289 0.950 . S
C1315 C1314 1.414 . S
C1315 C1316 1.374 . S
C1316 H1290 0.950 . S
C1316 C1312 1.385 . S
C1316 C1315 1.374 . S
C1317 C1314 1.499 . S
C1317 C1318 1.373 . S
C1317 C1319 1.389 . S
C1318 H1291 0.950 . S
C1318 C1304 1.377 . S
C1318 C1317 1.373 . S
C1319 C1303 1.377 . S
C1319 C1317 1.389 . S
C1319 C1320 1.524 . S
C1320 C1319 1.524 . S
C1320 C1321 1.397 . S
C1320 C1325 1.363 . S
C1321 H1292 0.950 . S
C1321 C1320 1.397 . S
C1321 C1322 1.334 . S
C1322 H1293 0.950 . S
C1322 C1321 1.334 . S
C1322 C1323 1.287 . S
C1323 C1322 1.287 . S
C1323 C1324 1.524 . S
C1323 H1326 0.999 . S
C1324 H1294 0.950 . S
C1324 C1323 1.524 . S
C1324 C1325 1.415 . S
C1325 H1295 0.950 . S
C1325 C1320 1.363 . S
C1325 C1324 1.415 . S
H1326 C1323 0.999 . S
H1327 C1308 0.913 . S
H1328 C1346 0.951 . S
H1329 C1348 0.951 . S
H1330 C1350 0.950 . S
H1331 C1351 0.950 . S
H1332 C1353 0.950 . S
H1333 C1356 0.950 . S
H1334 C1357 0.950 . S
H1335 C1359 0.950 1_655 S
H1336 C1360 0.950 . S
H1337 C1361 0.951 . S
H1338 C1363 0.951 . S
H1339 C1365 0.950 . S
H1340 C1366 0.931 1_556 S
H1341 C1368 0.950 . S
H1342 C1371 0.950 . S
H1343 C1372 0.950 . S
H1344 C1374 0.950 . S
H1345 C1375 0.950 . S
C1346 H1328 0.951 . S
C1346 C1347 1.366 . S
C1346 C1348 1.388 . S
C1347 C1346 1.366 . S
C1347 C1351 1.385 . S
C1348 H1329 0.951 . S
C1348 C1346 1.388 . S
C1348 C1349 1.366 . S
C1349 C1348 1.366 . S
C1349 C1350 1.414 . S
C1349 C1352 1.499 . S
C1350 H1330 0.950 . S
C1350 C1349 1.414 . S
C1350 C1351 1.374 . S
C1351 H1331 0.950 . S
C1351 C1347 1.385 . S
C1351 C1350 1.374 . S
C1352 C1349 1.499 . S
C1352 C1353 1.373 . S
C1352 C1354 1.389 . S
C1353 H1332 0.950 . S
C1353 C1352 1.373 . S
C1353 C1369 1.377 . S
C1354 C1352 1.389 . S
C1354 C1355 1.524 . S
C1354 C1368 1.377 . S
C1355 C1354 1.524 . S
C1355 C1356 1.397 . S
C1355 C1360 1.363 . S
C1356 H1333 0.950 . S
C1356 C1355 1.397 . S
C1356 C1357 1.334 . S
C1357 H1334 0.950 . S
C1357 C1356 1.334 . S
C1357 C1358 1.287 . S
C1358 C1357 1.287 . S
C1358 C1359 1.524 . S
C1358 H1377 0.913 1_455 S
C1359 H1335 0.950 1_455 S
C1359 C1358 1.524 . S
C1359 C1360 1.415 . S
C1360 H1336 0.950 . S
C1360 C1355 1.363 . S
C1360 C1359 1.415 . S
C1361 H1337 0.951 . S
C1361 C1362 1.366 1_554 S
C1361 C1363 1.388 . S
C1362 C1361 1.366 1_556 S
C1362 C1366 1.385 1_556 S
C1363 H1338 0.951 . S
C1363 C1361 1.388 . S
C1363 C1364 1.366 . S
C1364 C1363 1.366 . S
C1364 C1365 1.414 . S
C1364 C1367 1.499 . S
C1365 H1339 0.950 . S
C1365 C1364 1.414 . S
C1365 C1366 1.374 . S
C1366 H1340 0.931 1_554 S
C1366 C1362 1.385 1_554 S
C1366 C1365 1.374 . S
C1367 C1364 1.499 . S
C1367 C1368 1.373 . S
C1367 C1369 1.389 . S
C1368 H1341 0.950 . S
C1368 C1354 1.377 . S
C1368 C1367 1.373 . S
C1369 C1353 1.377 . S
C1369 C1367 1.389 . S
C1369 C1370 1.524 . S
C1370 C1369 1.524 . S
C1370 C1371 1.397 . S
C1370 C1375 1.363 . S
C1371 H1342 0.950 . S
C1371 C1370 1.397 . S
C1371 C1372 1.334 . S
C1372 H1343 0.950 . S
C1372 C1371 1.334 . S
C1372 C1373 1.287 . S
C1373 C1372 1.287 . S
C1373 C1374 1.524 . S
C1373 H1376 0.999 . S
C1374 H1344 0.950 . S
C1374 C1373 1.524 . S
C1374 C1375 1.415 . S
C1375 H1345 0.950 . S
C1375 C1370 1.363 . S
C1375 C1374 1.415 . S
H1376 C1373 0.999 . S
H1377 C1358 0.913 1_655 S
H1378 C1396 0.949 . S
H1379 C1398 0.951 . S
H1380 C1400 0.950 . S
H1381 C1401 0.950 . S
H1382 C1403 0.950 . S
H1383 C1406 0.950 . S
H1384 C1407 0.950 . S
H1385 C1409 0.950 1_455 S
H1386 C1410 0.950 . S
H1387 C1411 0.951 . S
H1388 C1413 0.951 . S
H1389 C1415 0.950 . S
H1390 C1416 0.950 . S
H1391 C1418 0.950 . S
H1392 C1421 0.950 . S
H1393 C1422 0.950 . S
H1394 C1424 0.950 . S
H1395 C1425 0.950 . S
C1396 H1378 0.949 . S
C1396 C1397 1.366 1_556 S
C1396 C1398 1.388 . S
C1397 C1396 1.366 1_554 S
C1397 C1401 1.385 1_554 S
C1398 H1379 0.951 . S
C1398 C1396 1.388 . S
C1398 C1399 1.366 . S
C1399 C1398 1.366 . S
C1399 C1400 1.414 . S
C1399 C1402 1.499 . S
C1400 H1380 0.950 . S
C1400 C1399 1.414 . S
C1400 C1401 1.374 . S
C1401 H1381 0.950 . S
C1401 C1397 1.385 1_556 S
C1401 C1400 1.374 . S
C1402 C1399 1.499 . S
C1402 C1403 1.373 . S
C1402 C1404 1.389 . S
C1403 H1382 0.950 . S
C1403 C1402 1.373 . S
C1403 C1419 1.377 . S
C1404 C1402 1.389 . S
C1404 C1405 1.524 . S
C1404 C1418 1.377 . S
C1405 C1404 1.524 . S
C1405 C1406 1.397 . S
C1405 C1410 1.363 . S
C1406 H1383 0.950 . S
C1406 C1405 1.397 . S
C1406 C1407 1.334 . S
C1407 H1384 0.950 . S
C1407 C1406 1.334 . S
C1407 C1408 1.287 . S
C1408 C1407 1.287 . S
C1408 C1409 1.524 . S
C1408 H1427 0.913 1_655 S
C1409 H1385 0.950 1_655 S
C1409 C1408 1.524 . S
C1409 C1410 1.415 . S
C1410 H1386 0.950 . S
C1410 C1405 1.363 . S
C1410 C1409 1.415 . S
C1411 H1387 0.951 . S
C1411 C1412 1.366 . S
C1411 C1413 1.388 . S
C1412 C1411 1.366 . S
C1412 C1416 1.385 . S
C1413 H1388 0.951 . S
C1413 C1411 1.388 . S
C1413 C1414 1.366 . S
C1414 C1413 1.366 . S
C1414 C1415 1.414 . S
C1414 C1417 1.499 . S
C1415 H1389 0.950 . S
C1415 C1414 1.414 . S
C1415 C1416 1.374 . S
C1416 H1390 0.950 . S
C1416 C1412 1.385 . S
C1416 C1415 1.374 . S
C1417 C1414 1.499 . S
C1417 C1418 1.373 . S
C1417 C1419 1.389 . S
C1418 H1391 0.950 . S
C1418 C1404 1.377 . S
C1418 C1417 1.373 . S
C1419 C1403 1.377 . S
C1419 C1417 1.389 . S
C1419 C1420 1.524 . S
C1420 C1419 1.524 . S
C1420 C1421 1.397 . S
C1420 C1425 1.363 . S
C1421 H1392 0.950 . S
C1421 C1420 1.397 . S
C1421 C1422 1.334 . S
C1422 H1393 0.950 . S
C1422 C1421 1.334 . S
C1422 C1423 1.287 . S
C1423 C1422 1.287 . S
C1423 C1424 1.524 . S
C1423 H1426 0.999 . S
C1424 H1394 0.950 . S
C1424 C1423 1.524 . S
C1424 C1425 1.415 . S
C1425 H1395 0.950 . S
C1425 C1420 1.363 . S
C1425 C1424 1.415 . S
H1426 C1423 0.999 . S
H1427 C1408 0.913 1_455 S
H1428 C1446 0.951 . S
H1429 C1448 0.951 . S
H1430 C1450 0.950 . S
H1431 C1451 0.950 . S
H1432 C1453 0.950 . S
H1433 C1456 0.950 . S
H1434 C1457 0.950 . S
H1435 C1459 0.950 1_655 S
H1436 C1460 0.950 . S
H1437 C1461 0.951 . S
H1438 C1463 0.951 . S
H1439 C1465 0.950 . S
H1440 C1466 0.950 . S
H1441 C1468 0.950 . S
H1442 C1471 0.950 . S
H1443 C1472 0.950 . S
H1444 C1474 0.950 . S
H1445 C1475 0.950 . S
C1446 H1428 0.951 . S
C1446 C1447 1.366 . S
C1446 C1448 1.388 . S
C1447 C1446 1.366 . S
C1447 C1451 1.385 . S
C1448 H1429 0.951 . S
C1448 C1446 1.388 . S
C1448 C1449 1.366 . S
C1449 C1448 1.366 . S
C1449 C1450 1.414 . S
C1449 C1452 1.499 . S
C1450 H1430 0.950 . S
C1450 C1449 1.414 . S
C1450 C1451 1.374 . S
C1451 H1431 0.950 . S
C1451 C1447 1.385 . S
C1451 C1450 1.374 . S
C1452 C1449 1.499 . S
C1452 C1453 1.373 . S
C1452 C1454 1.389 . S
C1453 H1432 0.950 . S
C1453 C1452 1.373 . S
C1453 C1469 1.377 . S
C1454 C1452 1.389 . S
C1454 C1455 1.524 . S
C1454 C1468 1.377 . S
C1455 C1454 1.524 . S
C1455 C1456 1.397 . S
C1455 C1460 1.363 . S
C1456 H1433 0.950 . S
C1456 C1455 1.397 . S
C1456 C1457 1.334 . S
C1457 H1434 0.950 . S
C1457 C1456 1.334 . S
C1457 C1458 1.287 . S
C1458 C1457 1.287 . S
C1458 C1459 1.524 . S
C1458 H1477 0.913 1_455 S
C1459 H1435 0.950 1_455 S
C1459 C1458 1.524 . S
C1459 C1460 1.415 . S
C1460 H1436 0.950 . S
C1460 C1455 1.363 . S
C1460 C1459 1.415 . S
C1461 H1437 0.951 . S
C1461 C1462 1.366 . S
C1461 C1463 1.388 . S
C1462 C1461 1.366 . S
C1462 C1466 1.385 . S
C1463 H1438 0.951 . S
C1463 C1461 1.388 . S
C1463 C1464 1.366 . S
C1464 C1463 1.366 . S
C1464 C1465 1.414 . S
C1464 C1467 1.499 . S
C1465 H1439 0.950 . S
C1465 C1464 1.414 . S
C1465 C1466 1.374 . S
C1466 H1440 0.950 . S
C1466 C1462 1.385 . S
C1466 C1465 1.374 . S
C1467 C1464 1.499 . S
C1467 C1468 1.373 . S
C1467 C1469 1.389 . S
C1468 H1441 0.950 . S
C1468 C1454 1.377 . S
C1468 C1467 1.373 . S
C1469 C1453 1.377 . S
C1469 C1467 1.389 . S
C1469 C1470 1.524 . S
C1470 C1469 1.524 . S
C1470 C1471 1.397 . S
C1470 C1475 1.363 . S
C1471 H1442 0.950 . S
C1471 C1470 1.397 . S
C1471 C1472 1.334 . S
C1472 H1443 0.950 . S
C1472 C1471 1.334 . S
C1472 C1473 1.287 . S
C1473 C1472 1.287 . S
C1473 C1474 1.524 . S
C1473 H1476 0.999 . S
C1474 H1444 0.950 . S
C1474 C1473 1.524 . S
C1474 C1475 1.415 . S
C1475 H1445 0.950 . S
C1475 C1470 1.363 . S
C1475 C1474 1.415 . S
H1476 C1473 0.999 . S
H1477 C1458 0.913 1_655 S
H1478 C1496 0.951 . S
H1479 C1498 0.951 . S
H1480 C1500 0.950 . S
H1481 C1501 0.950 . S
H1482 C1503 0.950 . S
H1483 C1506 0.950 . S
H1484 C1507 0.950 . S
H1485 C1509 0.950 . S
H1486 C1510 0.950 . S
H1487 C1511 0.951 . S
H1488 C1513 0.951 . S
H1489 C1515 0.950 . S
H1490 C1516 0.950 . S
H1491 C1518 0.950 . S
H1492 C1521 0.950 . S
H1493 C1522 0.950 . S
H1494 C1524 0.950 . S
H1495 C1525 0.950 . S
C1496 H1478 0.951 . S
C1496 C1497 1.366 . S
C1496 C1498 1.388 . S
C1497 C1496 1.366 . S
C1497 C1501 1.385 . S
C1498 H1479 0.951 . S
C1498 C1496 1.388 . S
C1498 C1499 1.366 . S
C1499 C1498 1.366 . S
C1499 C1500 1.414 . S
C1499 C1502 1.499 . S
C1500 H1480 0.950 . S
C1500 C1499 1.414 . S
C1500 C1501 1.374 . S
C1501 H1481 0.950 . S
C1501 C1497 1.385 . S
C1501 C1500 1.374 . S
C1502 C1499 1.499 . S
C1502 C1503 1.373 . S
C1502 C1504 1.389 . S
C1503 H1482 0.950 . S
C1503 C1502 1.373 . S
C1503 C1519 1.377 . S
C1504 C1502 1.389 . S
C1504 C1505 1.524 . S
C1504 C1518 1.377 . S
C1505 C1504 1.524 . S
C1505 C1506 1.397 . S
C1505 C1510 1.363 . S
C1506 H1483 0.950 . S
C1506 C1505 1.397 . S
C1506 C1507 1.334 . S
C1507 H1484 0.950 . S
C1507 C1506 1.334 . S
C1507 C1508 1.287 . S
C1508 C1507 1.287 . S
C1508 C1509 1.524 . S
C1508 H1527 0.913 . S
C1509 H1485 0.950 . S
C1509 C1508 1.524 . S
C1509 C1510 1.415 . S
C1510 H1486 0.950 . S
C1510 C1505 1.363 . S
C1510 C1509 1.415 . S
C1511 H1487 0.951 . S
C1511 C1512 1.366 . S
C1511 C1513 1.388 . S
C1512 C1511 1.366 . S
C1512 C1516 1.385 . S
C1513 H1488 0.951 . S
C1513 C1511 1.388 . S
C1513 C1514 1.366 . S
C1514 C1513 1.366 . S
C1514 C1515 1.414 . S
C1514 C1517 1.499 . S
C1515 H1489 0.950 . S
C1515 C1514 1.414 . S
C1515 C1516 1.374 . S
C1516 H1490 0.950 . S
C1516 C1512 1.385 . S
C1516 C1515 1.374 . S
C1517 C1514 1.499 . S
C1517 C1518 1.373 . S
C1517 C1519 1.389 . S
C1518 H1491 0.950 . S
C1518 C1504 1.377 . S
C1518 C1517 1.373 . S
C1519 C1503 1.377 . S
C1519 C1517 1.389 . S
C1519 C1520 1.524 . S
C1520 C1519 1.524 . S
C1520 C1521 1.397 . S
C1520 C1525 1.363 . S
C1521 H1492 0.950 . S
C1521 C1520 1.397 . S
C1521 C1522 1.334 . S
C1522 H1493 0.950 . S
C1522 C1521 1.334 . S
C1522 C1523 1.287 . S
C1523 C1522 1.287 . S
C1523 C1524 1.524 . S
C1523 H1526 0.999 . S
C1524 H1494 0.950 . S
C1524 C1523 1.524 . S
C1524 C1525 1.415 . S
C1525 H1495 0.950 . S
C1525 C1520 1.363 . S
C1525 C1524 1.415 . S
H1526 C1523 0.999 . S
H1527 C1508 0.913 . S
H1528 C1546 0.951 . S
H1529 C1548 0.951 . S
H1530 C1550 0.950 . S
H1531 C1551 0.950 . S
H1532 C1553 0.950 . S
H1533 C1556 0.950 . S
H1534 C1557 0.950 . S
H1535 C1559 0.950 . S
H1536 C1560 0.950 . S
H1537 C1561 0.951 . S
H1538 C1563 0.951 . S
H1539 C1565 0.950 . S
H1540 C1566 0.950 . S
H1541 C1568 0.950 . S
H1542 C1571 0.950 . S
H1543 C1572 0.950 . S
H1544 C1574 0.950 . S
H1545 C1575 0.950 . S
C1546 H1528 0.951 . S
C1546 C1547 1.366 . S
C1546 C1548 1.388 . S
C1547 C1546 1.366 . S
C1547 C1551 1.385 . S
C1548 H1529 0.951 . S
C1548 C1546 1.388 . S
C1548 C1549 1.366 . S
C1549 C1548 1.366 . S
C1549 C1550 1.414 . S
C1549 C1552 1.499 . S
C1550 H1530 0.950 . S
C1550 C1549 1.414 . S
C1550 C1551 1.374 . S
C1551 H1531 0.950 . S
C1551 C1547 1.385 . S
C1551 C1550 1.374 . S
C1552 C1549 1.499 . S
C1552 C1553 1.373 . S
C1552 C1554 1.389 . S
C1553 H1532 0.950 . S
C1553 C1552 1.373 . S
C1553 C1569 1.377 . S
C1554 C1552 1.389 . S
C1554 C1555 1.524 . S
C1554 C1568 1.377 . S
C1555 C1554 1.524 . S
C1555 C1556 1.397 . S
C1555 C1560 1.363 . S
C1556 H1533 0.950 . S
C1556 C1555 1.397 . S
C1556 C1557 1.334 . S
C1557 H1534 0.950 . S
C1557 C1556 1.334 . S
C1557 C1558 1.287 . S
C1558 C1557 1.287 . S
C1558 C1559 1.524 . S
C1558 H1577 0.913 . S
C1559 H1535 0.950 . S
C1559 C1558 1.524 . S
C1559 C1560 1.415 . S
C1560 H1536 0.950 . S
C1560 C1555 1.363 . S
C1560 C1559 1.415 . S
C1561 H1537 0.951 . S
C1561 C1562 1.366 . S
C1561 C1563 1.388 . S
C1562 C1561 1.366 . S
C1562 C1566 1.385 . S
C1563 H1538 0.951 . S
C1563 C1561 1.388 . S
C1563 C1564 1.366 . S
C1564 C1563 1.366 . S
C1564 C1565 1.414 . S
C1564 C1567 1.499 . S
C1565 H1539 0.950 . S
C1565 C1564 1.414 . S
C1565 C1566 1.374 . S
C1566 H1540 0.950 . S
C1566 C1562 1.385 . S
C1566 C1565 1.374 . S
C1567 C1564 1.499 . S
C1567 C1568 1.373 . S
C1567 C1569 1.389 . S
C1568 H1541 0.950 . S
C1568 C1554 1.377 . S
C1568 C1567 1.373 . S
C1569 C1553 1.377 . S
C1569 C1567 1.389 . S
C1569 C1570 1.524 . S
C1570 C1569 1.524 . S
C1570 C1571 1.397 . S
C1570 C1575 1.363 . S
C1571 H1542 0.950 . S
C1571 C1570 1.397 . S
C1571 C1572 1.334 . S
C1572 H1543 0.950 . S
C1572 C1571 1.334 . S
C1572 C1573 1.287 . S
C1573 C1572 1.287 . S
C1573 C1574 1.524 . S
C1573 H1576 0.999 . S
C1574 H1544 0.950 . S
C1574 C1573 1.524 . S
C1574 C1575 1.415 . S
C1575 H1545 0.950 . S
C1575 C1570 1.363 . S
C1575 C1574 1.415 . S
H1576 C1573 0.999 . S
H1577 C1558 0.913 . S
H1578 C1596 0.951 . S
H1579 C1598 0.951 . S
H1580 C1600 0.950 . S
H1581 C1601 0.950 . S
H1582 C1603 0.950 . S
H1583 C1606 0.950 . S
H1584 C1607 0.950 . S
H1585 C1609 0.950 . S
H1586 C1610 0.950 . S
H1587 C1611 0.951 . S
H1588 C1613 0.951 . S
H1589 C1615 0.950 . S
H1590 C1616 0.950 . S
H1591 C1618 0.950 . S
H1592 C1621 0.950 . S
H1593 C1622 0.950 . S
H1594 C1624 0.950 . S
H1595 C1625 0.950 . S
C1596 H1578 0.951 . S
C1596 C1597 1.366 . S
C1596 C1598 1.388 . S
C1597 C1596 1.366 . S
C1597 C1601 1.385 . S
C1598 H1579 0.951 . S
C1598 C1596 1.388 . S
C1598 C1599 1.366 . S
C1599 C1598 1.366 . S
C1599 C1600 1.414 . S
C1599 C1602 1.499 . S
C1600 H1580 0.950 . S
C1600 C1599 1.414 . S
C1600 C1601 1.374 . S
C1601 H1581 0.950 . S
C1601 C1597 1.385 . S
C1601 C1600 1.374 . S
C1602 C1599 1.499 . S
C1602 C1603 1.373 . S
C1602 C1604 1.389 . S
C1603 H1582 0.950 . S
C1603 C1602 1.373 . S
C1603 C1619 1.377 . S
C1604 C1602 1.389 . S
C1604 C1605 1.524 . S
C1604 C1618 1.377 . S
C1605 C1604 1.524 . S
C1605 C1606 1.397 . S
C1605 C1610 1.363 . S
C1606 H1583 0.950 . S
C1606 C1605 1.397 . S
C1606 C1607 1.334 . S
C1607 H1584 0.950 . S
C1607 C1606 1.334 . S
C1607 C1608 1.287 . S
C1608 C1607 1.287 . S
C1608 C1609 1.524 . S
C1608 H1627 0.913 . S
C1609 H1585 0.950 . S
C1609 C1608 1.524 . S
C1609 C1610 1.415 . S
C1610 H1586 0.950 . S
C1610 C1605 1.363 . S
C1610 C1609 1.415 . S
C1611 H1587 0.951 . S
C1611 C1612 1.366 . S
C1611 C1613 1.388 . S
C1612 C1611 1.366 . S
C1612 C1616 1.385 . S
C1613 H1588 0.951 . S
C1613 C1611 1.388 . S
C1613 C1614 1.366 . S
C1614 C1613 1.366 . S
C1614 C1615 1.414 . S
C1614 C1617 1.499 . S
C1615 H1589 0.950 . S
C1615 C1614 1.414 . S
C1615 C1616 1.374 . S
C1616 H1590 0.950 . S
C1616 C1612 1.385 . S
C1616 C1615 1.374 . S
C1617 C1614 1.499 . S
C1617 C1618 1.373 . S
C1617 C1619 1.389 . S
C1618 H1591 0.950 . S
C1618 C1604 1.377 . S
C1618 C1617 1.373 . S
C1619 C1603 1.377 . S
C1619 C1617 1.389 . S
C1619 C1620 1.524 . S
C1620 C1619 1.524 . S
C1620 C1621 1.397 . S
C1620 C1625 1.363 . S
C1621 H1592 0.950 . S
C1621 C1620 1.397 . S
C1621 C1622 1.334 . S
C1622 H1593 0.950 . S
C1622 C1621 1.334 . S
C1622 C1623 1.287 . S
C1623 C1622 1.287 . S
C1623 C1624 1.524 . S
C1623 H1626 0.999 . S
C1624 H1594 0.950 . S
C1624 C1623 1.524 . S
C1624 C1625 1.415 . S
C1625 H1595 0.950 . S
C1625 C1620 1.363 . S
C1625 C1624 1.415 . S
H1626 C1623 0.999 . S
H1627 C1608 0.913 . S
H1628 C1646 0.951 . S
H1629 C1648 0.951 . S
H1630 C1650 0.950 . S
H1631 C1651 0.937 1_556 S
H1632 C1653 0.950 . S
H1633 C1656 0.950 . S
H1634 C1657 0.950 . S
H1635 C1659 0.950 . S
H1636 C1660 0.950 . S
H1637 C1661 0.951 . S
H1638 C1663 0.951 . S
H1639 C1665 0.950 . S
H1640 C1666 0.950 . S
H1641 C1668 0.950 . S
H1642 C1671 0.950 . S
H1643 C1672 0.950 . S
H1644 C1674 0.950 . S
H1645 C1675 0.950 . S
C1646 H1628 0.951 . S
C1646 C1647 1.366 1_554 S
C1646 C1648 1.388 . S
C1647 C1646 1.366 1_556 S
C1647 C1651 1.385 1_556 S
C1648 H1629 0.951 . S
C1648 C1646 1.388 . S
C1648 C1649 1.366 . S
C1649 C1648 1.366 . S
C1649 C1650 1.414 . S
C1649 C1652 1.499 . S
C1650 H1630 0.950 . S
C1650 C1649 1.414 . S
C1650 C1651 1.374 . S
C1651 H1631 0.937 1_554 S
C1651 C1647 1.385 1_554 S
C1651 C1650 1.374 . S
C1652 C1649 1.499 . S
C1652 C1653 1.373 . S
C1652 C1654 1.389 . S
C1653 H1632 0.950 . S
C1653 C1652 1.373 . S
C1653 C1669 1.377 . S
C1654 C1652 1.389 . S
C1654 C1655 1.524 . S
C1654 C1668 1.377 . S
C1655 C1654 1.524 . S
C1655 C1656 1.397 . S
C1655 C1660 1.363 . S
C1656 H1633 0.950 . S
C1656 C1655 1.397 . S
C1656 C1657 1.334 . S
C1657 H1634 0.950 . S
C1657 C1656 1.334 . S
C1657 C1658 1.287 . S
C1658 C1657 1.287 . S
C1658 C1659 1.524 . S
C1658 H1677 0.913 . S
C1659 H1635 0.950 . S
C1659 C1658 1.524 . S
C1659 C1660 1.415 . S
C1660 H1636 0.950 . S
C1660 C1655 1.363 . S
C1660 C1659 1.415 . S
C1661 H1637 0.951 . S
C1661 C1662 1.366 . S
C1661 C1663 1.388 . S
C1662 C1661 1.366 . S
C1662 C1666 1.385 . S
C1663 H1638 0.951 . S
C1663 C1661 1.388 . S
C1663 C1664 1.366 . S
C1664 C1663 1.366 . S
C1664 C1665 1.414 . S
C1664 C1667 1.499 . S
C1665 H1639 0.950 . S
C1665 C1664 1.414 . S
C1665 C1666 1.374 . S
C1666 H1640 0.950 . S
C1666 C1662 1.385 . S
C1666 C1665 1.374 . S
C1667 C1664 1.499 . S
C1667 C1668 1.373 . S
C1667 C1669 1.389 . S
C1668 H1641 0.950 . S
C1668 C1654 1.377 . S
C1668 C1667 1.373 . S
C1669 C1653 1.377 . S
C1669 C1667 1.389 . S
C1669 C1670 1.524 . S
C1670 C1669 1.524 . S
C1670 C1671 1.397 . S
C1670 C1675 1.363 . S
C1671 H1642 0.950 . S
C1671 C1670 1.397 . S
C1671 C1672 1.334 . S
C1672 H1643 0.950 . S
C1672 C1671 1.334 . S
C1672 C1673 1.287 . S
C1673 C1672 1.287 . S
C1673 C1674 1.524 . S
C1673 H1676 0.999 . S
C1674 H1644 0.950 . S
C1674 C1673 1.524 . S
C1674 C1675 1.415 . S
C1675 H1645 0.950 . S
C1675 C1670 1.363 . S
C1675 C1674 1.415 . S
H1676 C1673 0.999 . S
H1677 C1658 0.913 . S
H1678 C1696 0.951 . S
H1679 C1698 0.951 . S
H1680 C1700 0.950 . S
H1681 C1701 0.950 . S
H1682 C1703 0.950 . S
H1683 C1706 0.950 . S
H1684 C1707 0.950 . S
H1685 C1709 0.950 . S
H1686 C1710 0.950 . S
H1687 C1711 0.936 1_554 S
H1688 C1713 0.951 . S
H1689 C1715 0.950 . S
H1690 C1716 0.950 . S
H1691 C1718 0.950 . S
H1692 C1721 0.950 . S
H1693 C1722 0.950 . S
H1694 C1724 0.950 . S
H1695 C1725 0.950 . S
C1696 H1678 0.951 . S
C1696 C1697 1.366 . S
C1696 C1698 1.388 . S
C1697 C1696 1.366 . S
C1697 C1701 1.385 . S
C1698 H1679 0.951 . S
C1698 C1696 1.388 . S
C1698 C1699 1.366 . S
C1699 C1698 1.366 . S
C1699 C1700 1.414 . S
C1699 C1702 1.499 . S
C1700 H1680 0.950 . S
C1700 C1699 1.414 . S
C1700 C1701 1.374 . S
C1701 H1681 0.950 . S
C1701 C1697 1.385 . S
C1701 C1700 1.374 . S
C1702 C1699 1.499 . S
C1702 C1703 1.373 . S
C1702 C1704 1.389 . S
C1703 H1682 0.950 . S
C1703 C1702 1.373 . S
C1703 C1719 1.377 . S
C1704 C1702 1.389 . S
C1704 C1705 1.524 . S
C1704 C1718 1.377 . S
C1705 C1704 1.524 . S
C1705 C1706 1.397 . S
C1705 C1710 1.363 . S
C1706 H1683 0.950 . S
C1706 C1705 1.397 . S
C1706 C1707 1.334 . S
C1707 H1684 0.950 . S
C1707 C1706 1.334 . S
C1707 C1708 1.287 . S
C1708 C1707 1.287 . S
C1708 C1709 1.524 . S
C1708 H1727 0.913 . S
C1709 H1685 0.950 . S
C1709 C1708 1.524 . S
C1709 C1710 1.415 . S
C1710 H1686 0.950 . S
C1710 C1705 1.363 . S
C1710 C1709 1.415 . S
C1711 H1687 0.936 1_556 S
C1711 C1712 1.366 1_556 S
C1711 C1713 1.388 . S
C1712 C1711 1.366 1_554 S
C1712 C1716 1.385 1_554 S
C1713 H1688 0.951 . S
C1713 C1711 1.388 . S
C1713 C1714 1.366 . S
C1714 C1713 1.366 . S
C1714 C1715 1.414 . S
C1714 C1717 1.499 . S
C1715 H1689 0.950 . S
C1715 C1714 1.414 . S
C1715 C1716 1.374 . S
C1716 H1690 0.950 . S
C1716 C1712 1.385 1_556 S
C1716 C1715 1.374 . S
C1717 C1714 1.499 . S
C1717 C1718 1.373 . S
C1717 C1719 1.389 . S
C1718 H1691 0.950 . S
C1718 C1704 1.377 . S
C1718 C1717 1.373 . S
C1719 C1703 1.377 . S
C1719 C1717 1.389 . S
C1719 C1720 1.524 . S
C1720 C1719 1.524 . S
C1720 C1721 1.397 . S
C1720 C1725 1.363 . S
C1721 H1692 0.950 . S
C1721 C1720 1.397 . S
C1721 C1722 1.334 . S
C1722 H1693 0.950 . S
C1722 C1721 1.334 . S
C1722 C1723 1.287 . S
C1723 C1722 1.287 . S
C1723 C1724 1.524 . S
C1723 H1726 0.999 . S
C1724 H1694 0.950 . S
C1724 C1723 1.524 . S
C1724 C1725 1.415 . S
C1725 H1695 0.950 . S
C1725 C1720 1.363 . S
C1725 C1724 1.415 . S
H1726 C1723 0.999 . S
H1727 C1708 0.913 . S
H1728 C1746 0.951 . S
H1729 C1748 0.951 . S
H1730 C1750 0.950 . S
H1731 C1751 0.950 . S
H1732 C1753 0.950 . S
H1733 C1756 0.950 . S
H1734 C1757 0.950 . S
H1735 C1759 0.950 . S
H1736 C1760 0.950 . S
H1737 C1761 0.951 . S
H1738 C1763 0.951 . S
H1739 C1765 0.950 . S
H1740 C1766 0.950 . S
H1741 C1768 0.950 . S
H1742 C1771 0.950 . S
H1743 C1772 0.950 . S
H1744 C1774 0.950 . S
H1745 C1775 0.950 . S
C1746 H1728 0.951 . S
C1746 C1747 1.366 . S
C1746 C1748 1.388 . S
C1747 C1746 1.366 . S
C1747 C1751 1.385 . S
C1748 H1729 0.951 . S
C1748 C1746 1.388 . S
C1748 C1749 1.366 . S
C1749 C1748 1.366 . S
C1749 C1750 1.414 . S
C1749 C1752 1.499 . S
C1750 H1730 0.950 . S
C1750 C1749 1.414 . S
C1750 C1751 1.374 . S
C1751 H1731 0.950 . S
C1751 C1747 1.385 . S
C1751 C1750 1.374 . S
C1752 C1749 1.499 . S
C1752 C1753 1.373 . S
C1752 C1754 1.389 . S
C1753 H1732 0.950 . S
C1753 C1752 1.373 . S
C1753 C1769 1.377 . S
C1754 C1752 1.389 . S
C1754 C1755 1.524 . S
C1754 C1768 1.377 . S
C1755 C1754 1.524 . S
C1755 C1756 1.397 . S
C1755 C1760 1.363 . S
C1756 H1733 0.950 . S
C1756 C1755 1.397 . S
C1756 C1757 1.334 . S
C1757 H1734 0.950 . S
C1757 C1756 1.334 . S
C1757 C1758 1.287 . S
C1758 C1757 1.287 . S
C1758 C1759 1.524 . S
C1758 H1777 0.913 . S
C1759 H1735 0.950 . S
C1759 C1758 1.524 . S
C1759 C1760 1.415 . S
C1760 H1736 0.950 . S
C1760 C1755 1.363 . S
C1760 C1759 1.415 . S
C1761 H1737 0.951 . S
C1761 C1762 1.366 . S
C1761 C1763 1.388 . S
C1762 C1761 1.366 . S
C1762 C1766 1.385 . S
C1763 H1738 0.951 . S
C1763 C1761 1.388 . S
C1763 C1764 1.366 . S
C1764 C1763 1.366 . S
C1764 C1765 1.414 . S
C1764 C1767 1.499 . S
C1765 H1739 0.950 . S
C1765 C1764 1.414 . S
C1765 C1766 1.374 . S
C1766 H1740 0.950 . S
C1766 C1762 1.385 . S
C1766 C1765 1.374 . S
C1767 C1764 1.499 . S
C1767 C1768 1.373 . S
C1767 C1769 1.389 . S
C1768 H1741 0.950 . S
C1768 C1754 1.377 . S
C1768 C1767 1.373 . S
C1769 C1753 1.377 . S
C1769 C1767 1.389 . S
C1769 C1770 1.524 . S
C1770 C1769 1.524 . S
C1770 C1771 1.397 . S
C1770 C1775 1.363 . S
C1771 H1742 0.950 . S
C1771 C1770 1.397 . S
C1771 C1772 1.334 . S
C1772 H1743 0.950 . S
C1772 C1771 1.334 . S
C1772 C1773 1.287 . S
C1773 C1772 1.287 . S
C1773 C1774 1.524 . S
C1773 H1776 0.999 . S
C1774 H1744 0.950 . S
C1774 C1773 1.524 . S
C1774 C1775 1.415 . S
C1775 H1745 0.950 . S
C1775 C1770 1.363 . S
C1775 C1774 1.415 . S
H1776 C1773 0.999 . S
H1777 C1758 0.913 . S
H1778 C1796 0.951 . S
H1779 C1798 0.951 . S
H1780 C1800 0.950 . S
H1781 C1801 0.950 . S
H1782 C1803 0.950 . S
H1783 C1806 0.950 . S
H1784 C1807 0.950 . S
H1785 C1809 0.950 . S
H1786 C1810 0.950 . S
H1787 C1811 0.951 . S
H1788 C1813 0.951 . S
H1789 C1815 0.950 . S
H1790 C1816 0.950 . S
H1791 C1818 0.950 . S
H1792 C1821 0.950 . S
H1793 C1822 0.950 . S
H1794 C1824 0.950 . S
H1795 C1825 0.950 . S
C1796 H1778 0.951 . S
C1796 C1797 1.366 . S
C1796 C1798 1.388 . S
C1797 C1796 1.366 . S
C1797 C1801 1.385 . S
C1798 H1779 0.951 . S
C1798 C1796 1.388 . S
C1798 C1799 1.366 . S
C1799 C1798 1.366 . S
C1799 C1800 1.414 . S
C1799 C1802 1.499 . S
C1800 H1780 0.950 . S
C1800 C1799 1.414 . S
C1800 C1801 1.374 . S
C1801 H1781 0.950 . S
C1801 C1797 1.385 . S
C1801 C1800 1.374 . S
C1802 C1799 1.499 . S
C1802 C1803 1.364 1_665 S
C1802 C1804 1.389 . S
C1803 H1782 0.950 . S
C1803 C1802 1.364 1_445 S
C1803 C1819 1.386 . S
C1804 C1802 1.389 . S
C1804 C1805 1.524 . S
C1804 C1818 1.386 . S
C1805 C1804 1.524 . S
C1805 C1806 1.397 . S
C1805 C1810 1.363 . S
C1806 H1783 0.950 . S
C1806 C1805 1.397 . S
C1806 C1807 1.334 . S
C1807 H1784 0.950 . S
C1807 C1806 1.334 . S
C1807 C1808 1.287 . S
C1808 C1807 1.287 . S
C1808 C1809 1.524 . S
C1808 H1827 0.913 . S
C1809 H1785 0.950 . S
C1809 C1808 1.524 . S
C1809 C1810 1.415 . S
C1810 H1786 0.950 . S
C1810 C1805 1.363 . S
C1810 C1809 1.415 . S
C1811 H1787 0.951 . S
C1811 C1812 1.366 . S
C1811 C1813 1.388 . S
C1812 C1811 1.366 . S
C1812 C1816 1.385 . S
C1813 H1788 0.951 . S
C1813 C1811 1.388 . S
C1813 C1814 1.366 . S
C1814 C1813 1.366 . S
C1814 C1815 1.414 . S
C1814 C1817 1.499 . S
C1815 H1789 0.950 . S
C1815 C1814 1.414 . S
C1815 C1816 1.374 . S
C1816 H1790 0.950 . S
C1816 C1812 1.385 . S
C1816 C1815 1.374 . S
C1817 C1814 1.499 . S
C1817 C1818 1.364 1_445 S
C1817 C1819 1.389 . S
C1818 H1791 0.950 . S
C1818 C1804 1.386 . S
C1818 C1817 1.364 1_665 S
C1819 C1803 1.386 . S
C1819 C1817 1.389 . S
C1819 C1820 1.524 . S
C1820 C1819 1.524 . S
C1820 C1821 1.397 . S
C1820 C1825 1.363 . S
C1821 H1792 0.950 . S
C1821 C1820 1.397 . S
C1821 C1822 1.334 . S
C1822 H1793 0.950 . S
C1822 C1821 1.334 . S
C1822 C1823 1.287 . S
C1823 C1822 1.287 . S
C1823 C1824 1.524 . S
C1823 H1826 0.999 . S
C1824 H1794 0.950 . S
C1824 C1823 1.524 . S
C1824 C1825 1.415 . S
C1825 H1795 0.950 . S
C1825 C1820 1.363 . S
C1825 C1824 1.415 . S
H1826 C1823 0.999 . S
H1827 C1808 0.913 . S
H1828 C1846 0.951 . S
H1829 C1848 0.951 . S
H1830 C1850 0.950 . S
H1831 C1851 0.950 . S
H1832 C1853 0.950 . S
H1833 C1856 0.950 . S
H1834 C1857 0.950 . S
H1835 C1859 0.950 . S
H1836 C1860 0.950 . S
H1837 C1861 0.951 . S
H1838 C1863 0.951 . S
H1839 C1865 0.950 . S
H1840 C1866 0.950 . S
H1841 C1868 0.950 . S
H1842 C1871 0.950 . S
H1843 C1872 0.950 . S
H1844 C1874 0.950 . S
H1845 C1875 0.950 . S
C1846 H1828 0.951 . S
C1846 C1847 1.366 . S
C1846 C1848 1.388 . S
C1847 C1846 1.366 . S
C1847 C1851 1.385 . S
C1848 H1829 0.951 . S
C1848 C1846 1.388 . S
C1848 C1849 1.366 . S
C1849 C1848 1.366 . S
C1849 C1850 1.414 . S
C1849 C1852 1.499 . S
C1850 H1830 0.950 . S
C1850 C1849 1.414 . S
C1850 C1851 1.374 . S
C1851 H1831 0.950 . S
C1851 C1847 1.385 . S
C1851 C1850 1.374 . S
C1852 C1849 1.499 . S
C1852 C1853 1.373 . S
C1852 C1854 1.389 . S
C1853 H1832 0.950 . S
C1853 C1852 1.373 . S
C1853 C1869 1.377 1_565 S
C1854 C1852 1.389 . S
C1854 C1855 1.524 . S
C1854 C1868 1.377 1_565 S
C1855 C1854 1.524 . S
C1855 C1856 1.397 1_565 S
C1855 C1860 1.363 . S
C1856 H1833 0.950 . S
C1856 C1855 1.397 1_545 S
C1856 C1857 1.334 . S
C1857 H1834 0.950 . S
C1857 C1856 1.334 . S
C1857 C1858 1.287 1_545 S
C1858 C1857 1.287 1_565 S
C1858 C1859 1.524 . S
C1858 H1877 0.913 . S
C1859 H1835 0.950 . S
C1859 C1858 1.524 . S
C1859 C1860 1.415 . S
C1860 H1836 0.950 . S
C1860 C1855 1.363 . S
C1860 C1859 1.415 . S
C1861 H1837 0.951 . S
C1861 C1862 1.366 . S
C1861 C1863 1.388 . S
C1862 C1861 1.366 . S
C1862 C1866 1.385 . S
C1863 H1838 0.951 . S
C1863 C1861 1.388 . S
C1863 C1864 1.366 . S
C1864 C1863 1.366 . S
C1864 C1865 1.414 . S
C1864 C1867 1.499 . S
C1865 H1839 0.950 . S
C1865 C1864 1.414 . S
C1865 C1866 1.374 . S
C1866 H1840 0.950 . S
C1866 C1862 1.385 . S
C1866 C1865 1.374 . S
C1867 C1864 1.499 . S
C1867 C1868 1.373 . S
C1867 C1869 1.389 . S
C1868 H1841 0.950 . S
C1868 C1854 1.377 1_545 S
C1868 C1867 1.373 . S
C1869 C1853 1.377 1_545 S
C1869 C1867 1.389 . S
C1869 C1870 1.524 . S
C1870 C1869 1.524 . S
C1870 C1871 1.397 1_545 S
C1870 C1875 1.363 . S
C1871 H1842 0.950 . S
C1871 C1870 1.397 1_565 S
C1871 C1872 1.334 . S
C1872 H1843 0.950 . S
C1872 C1871 1.334 . S
C1872 C1873 1.287 1_565 S
C1873 C1872 1.287 1_545 S
C1873 C1874 1.524 . S
C1873 H1876 0.999 . S
C1874 H1844 0.950 . S
C1874 C1873 1.524 . S
C1874 C1875 1.415 . S
C1875 H1845 0.950 . S
C1875 C1870 1.363 . S
C1875 C1874 1.415 . S
H1876 C1873 0.999 . S
H1877 C1858 0.913 . S
H1878 C1896 0.951 . S
H1879 C1898 0.951 . S
H1880 C1900 0.950 . S
H1881 C1901 0.950 . S
H1882 C1903 0.950 . S
H1883 C1906 0.950 . S
H1884 C1907 0.950 . S
H1885 C1909 0.950 . S
H1886 C1910 0.950 . S
H1887 C1911 0.951 . S
H1888 C1913 0.951 . S
H1889 C1915 0.950 . S
H1890 C1916 0.950 . S
H1891 C1918 0.950 . S
H1892 C1921 0.950 . S
H1893 C1922 0.950 . S
H1894 C1924 0.950 . S
H1895 C1925 0.950 . S
C1896 H1878 0.951 . S
C1896 C1897 1.366 . S
C1896 C1898 1.388 . S
C1897 C1896 1.366 . S
C1897 C1901 1.385 . S
C1898 H1879 0.951 . S
C1898 C1896 1.388 . S
C1898 C1899 1.366 . S
C1899 C1898 1.366 . S
C1899 C1900 1.414 . S
C1899 C1902 1.499 . S
C1900 H1880 0.950 . S
C1900 C1899 1.414 . S
C1900 C1901 1.374 . S
C1901 H1881 0.950 . S
C1901 C1897 1.385 . S
C1901 C1900 1.374 . S
C1902 C1899 1.499 . S
C1902 C1903 1.373 . S
C1902 C1904 1.389 1_655 S
C1903 H1882 0.950 . S
C1903 C1902 1.373 . S
C1903 C1919 1.377 . S
C1904 C1902 1.389 1_455 S
C1904 C1905 1.524 . S
C1904 C1918 1.377 . S
C1905 C1904 1.524 . S
C1905 C1906 1.397 . S
C1905 C1910 1.363 . S
C1906 H1883 0.950 . S
C1906 C1905 1.397 . S
C1906 C1907 1.334 . S
C1907 H1884 0.950 . S
C1907 C1906 1.334 . S
C1907 C1908 1.287 . S
C1908 C1907 1.287 . S
C1908 C1909 1.524 . S
C1908 H1927 0.913 . S
C1909 H1885 0.950 . S
C1909 C1908 1.524 . S
C1909 C1910 1.415 . S
C1910 H1886 0.950 . S
C1910 C1905 1.363 . S
C1910 C1909 1.415 . S
C1911 H1887 0.951 . S
C1911 C1912 1.366 . S
C1911 C1913 1.388 . S
C1912 C1911 1.366 . S
C1912 C1916 1.385 . S
C1913 H1888 0.951 . S
C1913 C1911 1.388 . S
C1913 C1914 1.366 . S
C1914 C1913 1.366 . S
C1914 C1915 1.414 . S
C1914 C1917 1.499 . S
C1915 H1889 0.950 . S
C1915 C1914 1.414 . S
C1915 C1916 1.374 . S
C1916 H1890 0.950 . S
C1916 C1912 1.385 . S
C1916 C1915 1.374 . S
C1917 C1914 1.499 . S
C1917 C1918 1.373 . S
C1917 C1919 1.389 1_455 S
C1918 H1891 0.950 . S
C1918 C1904 1.377 . S
C1918 C1917 1.373 . S
C1919 C1903 1.377 . S
C1919 C1917 1.389 1_655 S
C1919 C1920 1.524 . S
C1920 C1919 1.524 . S
C1920 C1921 1.397 . S
C1920 C1925 1.363 . S
C1921 H1892 0.950 . S
C1921 C1920 1.397 . S
C1921 C1922 1.334 . S
C1922 H1893 0.950 . S
C1922 C1921 1.334 . S
C1922 C1923 1.287 . S
C1923 C1922 1.287 . S
C1923 C1924 1.524 . S
C1923 H1926 0.999 . S
C1924 H1894 0.950 . S
C1924 C1923 1.524 . S
C1924 C1925 1.415 . S
C1925 H1895 0.950 . S
C1925 C1920 1.363 . S
C1925 C1924 1.415 . S
H1926 C1923 0.999 . S
H1927 C1908 0.913 . S
H1928 C1946 0.951 . S
H1929 C1948 0.951 . S
H1930 C1950 0.950 . S
H1931 C1951 0.950 . S
H1932 C1953 0.950 . S
H1933 C1956 0.950 . S
H1934 C1957 0.950 . S
H1935 C1959 0.950 . S
H1936 C1960 0.950 . S
H1937 C1961 0.951 . S
H1938 C1963 0.951 . S
H1939 C1965 0.950 . S
H1940 C1966 0.950 . S
H1941 C1968 0.950 . S
H1942 C1971 0.950 . S
H1943 C1972 0.950 . S
H1944 C1974 0.950 . S
H1945 C1975 0.950 . S
C1946 H1928 0.951 . S
C1946 C1947 1.366 . S
C1946 C1948 1.388 . S
C1947 C1946 1.366 . S
C1947 C1951 1.385 . S
C1948 H1929 0.951 . S
C1948 C1946 1.388 . S
C1948 C1949 1.366 . S
C1949 C1948 1.366 . S
C1949 C1950 1.414 . S
C1949 C1952 1.499 . S
C1950 H1930 0.950 . S
C1950 C1949 1.414 . S
C1950 C1951 1.374 . S
C1951 H1931 0.950 . S
C1951 C1947 1.385 . S
C1951 C1950 1.374 . S
C1952 C1949 1.499 . S
C1952 C1953 1.373 . S
C1952 C1954 1.389 . S
C1953 H1932 0.950 . S
C1953 C1952 1.373 . S
C1953 C1969 1.377 . S
C1954 C1952 1.389 . S
C1954 C1955 1.524 . S
C1954 C1968 1.377 . S
C1955 C1954 1.524 . S
C1955 C1956 1.397 . S
C1955 C1960 1.363 . S
C1956 H1933 0.950 . S
C1956 C1955 1.397 . S
C1956 C1957 1.334 . S
C1957 H1934 0.950 . S
C1957 C1956 1.334 . S
C1957 C1958 1.287 . S
C1958 C1957 1.287 . S
C1958 C1959 1.524 . S
C1958 H1977 0.913 . S
C1959 H1935 0.950 . S
C1959 C1958 1.524 . S
C1959 C1960 1.415 . S
C1960 H1936 0.950 . S
C1960 C1955 1.363 . S
C1960 C1959 1.415 . S
C1961 H1937 0.951 . S
C1961 C1962 1.366 . S
C1961 C1963 1.388 . S
C1962 C1961 1.366 . S
C1962 C1966 1.385 . S
C1963 H1938 0.951 . S
C1963 C1961 1.388 . S
C1963 C1964 1.366 . S
C1964 C1963 1.366 . S
C1964 C1965 1.414 . S
C1964 C1967 1.499 . S
C1965 H1939 0.950 . S
C1965 C1964 1.414 . S
C1965 C1966 1.374 . S
C1966 H1940 0.950 . S
C1966 C1962 1.385 . S
C1966 C1965 1.374 . S
C1967 C1964 1.499 . S
C1967 C1968 1.373 . S
C1967 C1969 1.389 . S
C1968 H1941 0.950 . S
C1968 C1954 1.377 . S
C1968 C1967 1.373 . S
C1969 C1953 1.377 . S
C1969 C1967 1.389 . S
C1969 C1970 1.524 . S
C1970 C1969 1.524 . S
C1970 C1971 1.397 . S
C1970 C1975 1.363 . S
C1971 H1942 0.950 . S
C1971 C1970 1.397 . S
C1971 C1972 1.334 . S
C1972 H1943 0.950 . S
C1972 C1971 1.334 . S
C1972 C1973 1.287 . S
C1973 C1972 1.287 . S
C1973 C1974 1.524 . S
C1973 H1976 0.999 . S
C1974 H1944 0.950 . S
C1974 C1973 1.524 . S
C1974 C1975 1.415 . S
C1975 H1945 0.950 . S
C1975 C1970 1.363 . S
C1975 C1974 1.415 . S
H1976 C1973 0.999 . S
H1977 C1958 0.913 . S
H1978 C1996 0.951 . S
H1979 C1998 0.951 . S
H1980 C2000 0.950 . S
H1981 C2001 0.950 . S
H1982 C2003 0.950 . S
H1983 C2006 0.947 1_565 S
H1984 C2007 0.950 . S
H1985 C2009 0.950 . S
H1986 C2010 0.950 . S
H1987 C2011 0.951 . S
H1988 C2013 0.951 . S
H1989 C2015 0.950 . S
H1990 C2016 0.950 . S
H1991 C2018 0.950 . S
H1992 C2021 0.947 1_545 S
H1993 C2022 0.950 . S
H1994 C2024 0.950 . S
H1995 C2025 0.950 . S
C1996 H1978 0.951 . S
C1996 C1997 1.366 . S
C1996 C1998 1.388 . S
C1997 C1996 1.366 . S
C1997 C2001 1.385 . S
C1998 H1979 0.951 . S
C1998 C1996 1.388 . S
C1998 C1999 1.366 . S
C1999 C1998 1.366 . S
C1999 C2000 1.414 . S
C1999 C2002 1.499 . S
C2000 H1980 0.950 . S
C2000 C1999 1.414 . S
C2000 C2001 1.374 . S
C2001 H1981 0.950 . S
C2001 C1997 1.385 . S
C2001 C2000 1.374 . S
C2002 C1999 1.499 . S
C2002 C2003 1.373 . S
C2002 C2004 1.389 . S
C2003 H1982 0.950 . S
C2003 C2002 1.373 . S
C2003 C2019 1.377 1_545 S
C2004 C2002 1.389 . S
C2004 C2005 1.524 . S
C2004 C2018 1.377 1_545 S
C2005 C2004 1.524 . S
C2005 C2006 1.397 . S
C2005 C2010 1.363 . S
C2006 H1983 0.947 1_545 S
C2006 C2005 1.397 . S
C2006 C2007 1.334 . S
C2007 H1984 0.950 . S
C2007 C2006 1.334 . S
C2007 C2008 1.287 . S
C2008 C2007 1.287 . S
C2008 C2009 1.524 . S
C2008 H2027 0.913 . S
C2009 H1985 0.950 . S
C2009 C2008 1.524 . S
C2009 C2010 1.415 . S
C2010 H1986 0.950 . S
C2010 C2005 1.363 . S
C2010 C2009 1.415 . S
C2011 H1987 0.951 . S
C2011 C2012 1.366 . S
C2011 C2013 1.388 . S
C2012 C2011 1.366 . S
C2012 C2016 1.385 . S
C2013 H1988 0.951 . S
C2013 C2011 1.388 . S
C2013 C2014 1.366 . S
C2014 C2013 1.366 . S
C2014 C2015 1.414 . S
C2014 C2017 1.499 . S
C2015 H1989 0.950 . S
C2015 C2014 1.414 . S
C2015 C2016 1.374 . S
C2016 H1990 0.950 . S
C2016 C2012 1.385 . S
C2016 C2015 1.374 . S
C2017 C2014 1.499 . S
C2017 C2018 1.373 . S
C2017 C2019 1.389 . S
C2018 H1991 0.950 . S
C2018 C2004 1.377 1_565 S
C2018 C2017 1.373 . S
C2019 C2003 1.377 1_565 S
C2019 C2017 1.389 . S
C2019 C2020 1.524 . S
C2020 C2019 1.524 . S
C2020 C2021 1.397 . S
C2020 C2025 1.363 . S
C2021 H1992 0.947 1_565 S
C2021 C2020 1.397 . S
C2021 C2022 1.334 . S
C2022 H1993 0.950 . S
C2022 C2021 1.334 . S
C2022 C2023 1.287 . S
C2023 C2022 1.287 . S
C2023 C2024 1.524 . S
C2023 H2026 0.999 . S
C2024 H1994 0.950 . S
C2024 C2023 1.524 . S
C2024 C2025 1.415 . S
C2025 H1995 0.950 . S
C2025 C2020 1.363 . S
C2025 C2024 1.415 . S
H2026 C2023 0.999 . S
H2027 C2008 0.913 . S
H2028 C2046 0.951 . S
H2029 C2048 0.951 . S
H2030 C2050 0.950 . S
H2031 C2051 0.950 . S
H2032 C2053 0.950 . S
H2033 C2056 0.950 . S
H2034 C2057 0.950 . S
H2035 C2059 0.950 . S
H2036 C2060 0.950 . S
H2037 C2061 0.951 . S
H2038 C2063 0.951 . S
H2039 C2065 0.950 . S
H2040 C2066 0.950 . S
H2041 C2068 0.950 . S
H2042 C2071 0.950 . S
H2043 C2072 0.950 . S
H2044 C2074 0.950 . S
H2045 C2075 0.950 . S
C2046 H2028 0.951 . S
C2046 C2047 1.366 . S
C2046 C2048 1.388 . S
C2047 C2046 1.366 . S
C2047 C2051 1.385 . S
C2048 H2029 0.951 . S
C2048 C2046 1.388 . S
C2048 C2049 1.366 . S
C2049 C2048 1.366 . S
C2049 C2050 1.414 . S
C2049 C2052 1.499 . S
C2050 H2030 0.950 . S
C2050 C2049 1.414 . S
C2050 C2051 1.374 . S
C2051 H2031 0.950 . S
C2051 C2047 1.385 . S
C2051 C2050 1.374 . S
C2052 C2049 1.499 . S
C2052 C2053 1.373 . S
C2052 C2054 1.389 1_655 S
C2053 H2032 0.950 . S
C2053 C2052 1.373 . S
C2053 C2069 1.377 . S
C2054 C2052 1.389 1_455 S
C2054 C2055 1.524 . S
C2054 C2068 1.377 . S
C2055 C2054 1.524 . S
C2055 C2056 1.397 . S
C2055 C2060 1.363 . S
C2056 H2033 0.950 . S
C2056 C2055 1.397 . S
C2056 C2057 1.334 . S
C2057 H2034 0.950 . S
C2057 C2056 1.334 . S
C2057 C2058 1.287 . S
C2058 C2057 1.287 . S
C2058 C2059 1.524 . S
C2058 H2077 0.913 . S
C2059 H2035 0.950 . S
C2059 C2058 1.524 . S
C2059 C2060 1.415 . S
C2060 H2036 0.950 . S
C2060 C2055 1.363 . S
C2060 C2059 1.415 . S
C2061 H2037 0.951 . S
C2061 C2062 1.366 . S
C2061 C2063 1.388 . S
C2062 C2061 1.366 . S
C2062 C2066 1.385 . S
C2063 H2038 0.951 . S
C2063 C2061 1.388 . S
C2063 C2064 1.366 . S
C2064 C2063 1.366 . S
C2064 C2065 1.414 . S
C2064 C2067 1.499 . S
C2065 H2039 0.950 . S
C2065 C2064 1.414 . S
C2065 C2066 1.374 . S
C2066 H2040 0.950 . S
C2066 C2062 1.385 . S
C2066 C2065 1.374 . S
C2067 C2064 1.499 . S
C2067 C2068 1.373 . S
C2067 C2069 1.389 1_455 S
C2068 H2041 0.950 . S
C2068 C2054 1.377 . S
C2068 C2067 1.373 . S
C2069 C2053 1.377 . S
C2069 C2067 1.389 1_655 S
C2069 C2070 1.524 . S
C2070 C2069 1.524 . S
C2070 C2071 1.397 . S
C2070 C2075 1.363 . S
C2071 H2042 0.950 . S
C2071 C2070 1.397 . S
C2071 C2072 1.334 . S
C2072 H2043 0.950 . S
C2072 C2071 1.334 . S
C2072 C2073 1.287 . S
C2073 C2072 1.287 . S
C2073 C2074 1.524 . S
C2073 H2076 0.999 . S
C2074 H2044 0.950 . S
C2074 C2073 1.524 . S
C2074 C2075 1.415 . S
C2075 H2045 0.950 . S
C2075 C2070 1.363 . S
C2075 C2074 1.415 . S
H2076 C2073 0.999 . S
H2077 C2058 0.913 . S
H2078 C2096 0.951 . S
H2079 C2098 0.951 . S
H2080 C2100 0.950 . S
H2081 C2101 0.950 . S
H2082 C2103 0.950 . S
H2083 C2106 0.950 . S
H2084 C2107 0.950 . S
H2085 C2109 0.950 . S
H2086 C2110 0.950 . S
H2087 C2111 0.951 . S
H2088 C2113 0.951 . S
H2089 C2115 0.950 . S
H2090 C2116 0.950 . S
H2091 C2118 0.950 . S
H2092 C2121 0.950 . S
H2093 C2122 0.950 . S
H2094 C2124 0.950 . S
H2095 C2125 0.950 . S
C2096 H2078 0.951 . S
C2096 C2097 1.366 . S
C2096 C2098 1.388 . S
C2097 C2096 1.366 . S
C2097 C2101 1.385 . S
C2098 H2079 0.951 . S
C2098 C2096 1.388 . S
C2098 C2099 1.366 . S
C2099 C2098 1.366 . S
C2099 C2100 1.414 . S
C2099 C2102 1.499 . S
C2100 H2080 0.950 . S
C2100 C2099 1.414 . S
C2100 C2101 1.374 . S
C2101 H2081 0.950 . S
C2101 C2097 1.385 . S
C2101 C2100 1.374 . S
C2102 C2099 1.499 . S
C2102 C2103 1.373 1_554 S
C2102 C2104 1.389 . S
C2103 H2082 0.950 . S
C2103 C2102 1.373 1_556 S
C2103 C2119 1.377 . S
C2104 C2102 1.389 . S
C2104 C2105 1.524 . S
C2104 C2118 1.377 . S
C2105 C2104 1.524 . S
C2105 C2106 1.397 . S
C2105 C2110 1.363 . S
C2106 H2083 0.950 . S
C2106 C2105 1.397 . S
C2106 C2107 1.334 . S
C2107 H2084 0.950 . S
C2107 C2106 1.334 . S
C2107 C2108 1.287 . S
C2108 C2107 1.287 . S
C2108 C2109 1.524 . S
C2108 H2127 0.913 . S
C2109 H2085 0.950 . S
C2109 C2108 1.524 . S
C2109 C2110 1.415 . S
C2110 H2086 0.950 . S
C2110 C2105 1.363 . S
C2110 C2109 1.415 . S
C2111 H2087 0.951 . S
C2111 C2112 1.366 . S
C2111 C2113 1.388 . S
C2112 C2111 1.366 . S
C2112 C2116 1.385 . S
C2113 H2088 0.951 . S
C2113 C2111 1.388 . S
C2113 C2114 1.366 . S
C2114 C2113 1.366 . S
C2114 C2115 1.414 . S
C2114 C2117 1.499 . S
C2115 H2089 0.950 . S
C2115 C2114 1.414 . S
C2115 C2116 1.374 . S
C2116 H2090 0.950 . S
C2116 C2112 1.385 . S
C2116 C2115 1.374 . S
C2117 C2114 1.499 . S
C2117 C2118 1.373 1_556 S
C2117 C2119 1.389 . S
C2118 H2091 0.950 . S
C2118 C2104 1.377 . S
C2118 C2117 1.373 1_554 S
C2119 C2103 1.377 . S
C2119 C2117 1.389 . S
C2119 C2120 1.524 . S
C2120 C2119 1.524 . S
C2120 C2121 1.397 . S
C2120 C2125 1.363 . S
C2121 H2092 0.950 . S
C2121 C2120 1.397 . S
C2121 C2122 1.334 . S
C2122 H2093 0.950 . S
C2122 C2121 1.334 . S
C2122 C2123 1.287 . S
C2123 C2122 1.287 . S
C2123 C2124 1.524 . S
C2123 H2126 0.999 . S
C2124 H2094 0.950 . S
C2124 C2123 1.524 . S
C2124 C2125 1.415 . S
C2125 H2095 0.950 . S
C2125 C2120 1.363 . S
C2125 C2124 1.415 . S
H2126 C2123 0.999 . S
H2127 C2108 0.913 . S
H2128 C2146 0.951 . S
H2129 C2148 0.951 . S
H2130 C2150 0.950 . S
H2131 C2151 0.950 . S
H2132 C2153 0.950 . S
H2133 C2156 0.950 . S
H2134 C2157 0.950 . S
H2135 C2159 0.950 1_655 S
H2136 C2160 0.950 . S
H2137 C2161 0.951 . S
H2138 C2163 0.951 . S
H2139 C2165 0.950 . S
H2140 C2166 0.950 . S
H2141 C2168 0.950 . S
H2142 C2171 0.950 . S
H2143 C2172 0.950 . S
H2144 C2174 0.950 1_455 S
H2145 C2175 0.950 . S
C2146 H2128 0.951 . S
C2146 C2147 1.366 . S
C2146 C2148 1.388 . S
C2147 C2146 1.366 . S
C2147 C2151 1.385 . S
C2148 H2129 0.951 . S
C2148 C2146 1.388 . S
C2148 C2149 1.366 . S
C2149 C2148 1.366 . S
C2149 C2150 1.414 . S
C2149 C2152 1.499 . S
C2150 H2130 0.950 . S
C2150 C2149 1.414 . S
C2150 C2151 1.374 . S
C2151 H2131 0.950 . S
C2151 C2147 1.385 . S
C2151 C2150 1.374 . S
C2152 C2149 1.499 . S
C2152 C2153 1.373 . S
C2152 C2154 1.389 1_556 S
C2153 H2132 0.950 . S
C2153 C2152 1.373 . S
C2153 C2169 1.377 1_455 S
C2154 C2152 1.389 1_554 S
C2154 C2155 1.524 . S
C2154 C2168 1.377 1_455 S
C2155 C2154 1.524 . S
C2155 C2156 1.397 . S
C2155 C2160 1.363 1_455 S
C2156 H2133 0.950 . S
C2156 C2155 1.397 . S
C2156 C2157 1.334 . S
C2157 H2134 0.950 . S
C2157 C2156 1.334 . S
C2157 C2158 1.287 . S
C2158 C2157 1.287 . S
C2158 C2159 1.524 . S
C2158 H2177 0.913 . S
C2159 H2135 0.950 1_455 S
C2159 C2158 1.524 . S
C2159 C2160 1.415 1_455 S
C2160 H2136 0.950 . S
C2160 C2155 1.363 1_655 S
C2160 C2159 1.415 1_655 S
C2161 H2137 0.951 . S
C2161 C2162 1.366 . S
C2161 C2163 1.388 . S
C2162 C2161 1.366 . S
C2162 C2166 1.385 . S
C2163 H2138 0.951 . S
C2163 C2161 1.388 . S
C2163 C2164 1.366 . S
C2164 C2163 1.366 . S
C2164 C2165 1.414 . S
C2164 C2167 1.499 . S
C2165 H2139 0.950 . S
C2165 C2164 1.414 . S
C2165 C2166 1.374 . S
C2166 H2140 0.950 . S
C2166 C2162 1.385 . S
C2166 C2165 1.374 . S
C2167 C2164 1.499 . S
C2167 C2168 1.373 . S
C2167 C2169 1.389 1_554 S
C2168 H2141 0.950 . S
C2168 C2154 1.377 1_655 S
C2168 C2167 1.373 . S
C2169 C2153 1.377 1_655 S
C2169 C2167 1.389 1_556 S
C2169 C2170 1.524 . S
C2170 C2169 1.524 . S
C2170 C2171 1.397 . S
C2170 C2175 1.363 1_655 S
C2171 H2142 0.950 . S
C2171 C2170 1.397 . S
C2171 C2172 1.334 . S
C2172 H2143 0.950 . S
C2172 C2171 1.334 . S
C2172 C2173 1.287 . S
C2173 C2172 1.287 . S
C2173 C2174 1.524 . S
C2173 H2176 0.999 . S
C2174 H2144 0.950 1_655 S
C2174 C2173 1.524 . S
C2174 C2175 1.415 1_655 S
C2175 H2145 0.950 . S
C2175 C2170 1.363 1_455 S
C2175 C2174 1.415 1_455 S
H2176 C2173 0.999 . S
H2177 C2158 0.913 . S
H2178 C2196 0.951 . S
H2179 C2198 0.951 . S
H2180 C2200 0.950 . S
H2181 C2201 0.950 . S
H2182 C2203 0.950 . S
H2183 C2206 0.950 . S
H2184 C2207 0.950 . S
H2185 C2209 0.950 . S
H2186 C2210 0.950 . S
H2187 C2211 0.951 . S
H2188 C2213 0.951 . S
H2189 C2215 0.950 . S
H2190 C2216 0.950 . S
H2191 C2218 0.950 . S
H2192 C2221 0.950 . S
H2193 C2222 0.950 . S
H2194 C2224 0.950 . S
H2195 C2225 0.950 . S
C2196 H2178 0.951 . S
C2196 C2197 1.366 . S
C2196 C2198 1.388 . S
C2197 C2196 1.366 . S
C2197 C2201 1.385 . S
C2198 H2179 0.951 . S
C2198 C2196 1.388 . S
C2198 C2199 1.366 . S
C2199 C2198 1.366 . S
C2199 C2200 1.414 . S
C2199 C2202 1.499 . S
C2200 H2180 0.950 . S
C2200 C2199 1.414 . S
C2200 C2201 1.374 . S
C2201 H2181 0.950 . S
C2201 C2197 1.385 . S
C2201 C2200 1.374 . S
C2202 C2199 1.499 . S
C2202 C2203 1.373 . S
C2202 C2204 1.389 . S
C2203 H2182 0.950 . S
C2203 C2202 1.373 . S
C2203 C2219 1.377 . S
C2204 C2202 1.389 . S
C2204 C2205 1.524 . S
C2204 C2218 1.377 . S
C2205 C2204 1.524 . S
C2205 C2206 1.397 . S
C2205 C2210 1.363 . S
C2206 H2183 0.950 . S
C2206 C2205 1.397 . S
C2206 C2207 1.334 . S
C2207 H2184 0.950 . S
C2207 C2206 1.334 . S
C2207 C2208 1.287 . S
C2208 C2207 1.287 . S
C2208 C2209 1.524 . S
C2208 H2227 0.913 . S
C2209 H2185 0.950 . S
C2209 C2208 1.524 . S
C2209 C2210 1.415 . S
C2210 H2186 0.950 . S
C2210 C2205 1.363 . S
C2210 C2209 1.415 . S
C2211 H2187 0.951 . S
C2211 C2212 1.366 . S
C2211 C2213 1.388 . S
C2212 C2211 1.366 . S
C2212 C2216 1.385 . S
C2213 H2188 0.951 . S
C2213 C2211 1.388 . S
C2213 C2214 1.366 . S
C2214 C2213 1.366 . S
C2214 C2215 1.414 . S
C2214 C2217 1.499 . S
C2215 H2189 0.950 . S
C2215 C2214 1.414 . S
C2215 C2216 1.374 . S
C2216 H2190 0.950 . S
C2216 C2212 1.385 . S
C2216 C2215 1.374 . S
C2217 C2214 1.499 . S
C2217 C2218 1.373 . S
C2217 C2219 1.389 . S
C2218 H2191 0.950 . S
C2218 C2204 1.377 . S
C2218 C2217 1.373 . S
C2219 C2203 1.377 . S
C2219 C2217 1.389 . S
C2219 C2220 1.524 . S
C2220 C2219 1.524 . S
C2220 C2221 1.397 . S
C2220 C2225 1.363 . S
C2221 H2192 0.950 . S
C2221 C2220 1.397 . S
C2221 C2222 1.334 . S
C2222 H2193 0.950 . S
C2222 C2221 1.334 . S
C2222 C2223 1.287 . S
C2223 C2222 1.287 . S
C2223 C2224 1.524 . S
C2223 H2226 0.999 . S
C2224 H2194 0.950 . S
C2224 C2223 1.524 . S
C2224 C2225 1.415 . S
C2225 H2195 0.950 . S
C2225 C2220 1.363 . S
C2225 C2224 1.415 . S
H2226 C2223 0.999 . S
H2227 C2208 0.913 . S
H2228 C2246 0.951 . S
H2229 C2248 0.951 . S
H2230 C2250 0.950 . S
H2231 C2251 0.950 . S
H2232 C2253 0.950 . S
H2233 C2256 0.950 . S
H2234 C2257 0.950 . S
H2235 C2259 0.950 . S
H2236 C2260 0.950 . S
H2237 C2261 0.951 . S
H2238 C2263 0.951 . S
H2239 C2265 0.950 . S
H2240 C2266 0.950 . S
H2241 C2268 0.950 . S
H2242 C2271 0.950 . S
H2243 C2272 0.950 . S
H2244 C2274 0.950 . S
H2245 C2275 0.950 . S
C2246 H2228 0.951 . S
C2246 C2247 1.366 . S
C2246 C2248 1.388 . S
C2247 C2246 1.366 . S
C2247 C2251 1.385 . S
C2248 H2229 0.951 . S
C2248 C2246 1.388 . S
C2248 C2249 1.366 . S
C2249 C2248 1.366 . S
C2249 C2250 1.414 . S
C2249 C2252 1.499 . S
C2250 H2230 0.950 . S
C2250 C2249 1.414 . S
C2250 C2251 1.374 . S
C2251 H2231 0.950 . S
C2251 C2247 1.385 . S
C2251 C2250 1.374 . S
C2252 C2249 1.499 . S
C2252 C2253 1.373 . S
C2252 C2254 1.389 1_554 S
C2253 H2232 0.950 . S
C2253 C2252 1.373 . S
C2253 C2269 1.377 . S
C2254 C2252 1.389 1_556 S
C2254 C2255 1.524 . S
C2254 C2268 1.377 . S
C2255 C2254 1.524 . S
C2255 C2256 1.397 1_556 S
C2255 C2260 1.363 . S
C2256 H2233 0.950 . S
C2256 C2255 1.397 1_554 S
C2256 C2257 1.334 . S
C2257 H2234 0.950 . S
C2257 C2256 1.334 . S
C2257 C2258 1.287 1_554 S
C2258 C2257 1.287 1_556 S
C2258 C2259 1.524 . S
C2258 H2277 0.913 . S
C2259 H2235 0.950 . S
C2259 C2258 1.524 . S
C2259 C2260 1.415 . S
C2260 H2236 0.950 . S
C2260 C2255 1.363 . S
C2260 C2259 1.415 . S
C2261 H2237 0.951 . S
C2261 C2262 1.366 . S
C2261 C2263 1.388 . S
C2262 C2261 1.366 . S
C2262 C2266 1.385 . S
C2263 H2238 0.951 . S
C2263 C2261 1.388 . S
C2263 C2264 1.366 . S
C2264 C2263 1.366 . S
C2264 C2265 1.414 . S
C2264 C2267 1.499 . S
C2265 H2239 0.950 . S
C2265 C2264 1.414 . S
C2265 C2266 1.374 . S
C2266 H2240 0.950 . S
C2266 C2262 1.385 . S
C2266 C2265 1.374 . S
C2267 C2264 1.499 . S
C2267 C2268 1.373 . S
C2267 C2269 1.389 1_556 S
C2268 H2241 0.950 . S
C2268 C2254 1.377 . S
C2268 C2267 1.373 . S
C2269 C2253 1.377 . S
C2269 C2267 1.389 1_554 S
C2269 C2270 1.524 . S
C2270 C2269 1.524 . S
C2270 C2271 1.397 1_554 S
C2270 C2275 1.363 . S
C2271 H2242 0.950 . S
C2271 C2270 1.397 1_556 S
C2271 C2272 1.334 . S
C2272 H2243 0.950 . S
C2272 C2271 1.334 . S
C2272 C2273 1.287 1_556 S
C2273 C2272 1.287 1_554 S
C2273 C2274 1.524 . S
C2273 H2276 0.999 . S
C2274 H2244 0.950 . S
C2274 C2273 1.524 . S
C2274 C2275 1.415 . S
C2275 H2245 0.950 . S
C2275 C2270 1.363 . S
C2275 C2274 1.415 . S
H2276 C2273 0.999 . S
H2277 C2258 0.913 . S
H2278 C2296 0.951 . S
H2279 C2298 0.951 . S
H2280 C2300 0.950 . S
H2281 C2301 0.950 . S
H2282 C2303 0.950 . S
H2283 C2306 0.950 . S
H2284 C2307 0.950 . S
H2285 C2309 0.950 . S
H2286 C2310 0.950 . S
H2287 C2311 0.951 . S
H2288 C2313 0.951 . S
H2289 C2315 0.950 . S
H2290 C2316 0.950 . S
H2291 C2318 0.950 . S
H2292 C2321 0.950 . S
H2293 C2322 0.950 . S
H2294 C2324 0.950 . S
H2295 C2325 0.950 . S
C2296 H2278 0.951 . S
C2296 C2297 1.366 . S
C2296 C2298 1.388 . S
C2297 C2296 1.366 . S
C2297 C2301 1.385 . S
C2298 H2279 0.951 . S
C2298 C2296 1.388 . S
C2298 C2299 1.366 . S
C2299 C2298 1.366 . S
C2299 C2300 1.414 . S
C2299 C2302 1.499 . S
C2300 H2280 0.950 . S
C2300 C2299 1.414 . S
C2300 C2301 1.374 . S
C2301 H2281 0.950 . S
C2301 C2297 1.385 . S
C2301 C2300 1.374 . S
C2302 C2299 1.499 . S
C2302 C2303 1.373 . S
C2302 C2304 1.389 . S
C2303 H2282 0.950 . S
C2303 C2302 1.373 . S
C2303 C2319 1.377 . S
C2304 C2302 1.389 . S
C2304 C2305 1.524 . S
C2304 C2318 1.377 . S
C2305 C2304 1.524 . S
C2305 C2306 1.397 . S
C2305 C2310 1.363 . S
C2306 H2283 0.950 . S
C2306 C2305 1.397 . S
C2306 C2307 1.334 . S
C2307 H2284 0.950 . S
C2307 C2306 1.334 . S
C2307 C2308 1.287 . S
C2308 C2307 1.287 . S
C2308 C2309 1.524 . S
C2308 H2327 0.913 . S
C2309 H2285 0.950 . S
C2309 C2308 1.524 . S
C2309 C2310 1.415 . S
C2310 H2286 0.950 . S
C2310 C2305 1.363 . S
C2310 C2309 1.415 . S
C2311 H2287 0.951 . S
C2311 C2312 1.366 . S
C2311 C2313 1.388 . S
C2312 C2311 1.366 . S
C2312 C2316 1.385 . S
C2313 H2288 0.951 . S
C2313 C2311 1.388 . S
C2313 C2314 1.366 . S
C2314 C2313 1.366 . S
C2314 C2315 1.414 . S
C2314 C2317 1.499 . S
C2315 H2289 0.950 . S
C2315 C2314 1.414 . S
C2315 C2316 1.374 . S
C2316 H2290 0.950 . S
C2316 C2312 1.385 . S
C2316 C2315 1.374 . S
C2317 C2314 1.499 . S
C2317 C2318 1.373 . S
C2317 C2319 1.389 . S
C2318 H2291 0.950 . S
C2318 C2304 1.377 . S
C2318 C2317 1.373 . S
C2319 C2303 1.377 . S
C2319 C2317 1.389 . S
C2319 C2320 1.524 . S
C2320 C2319 1.524 . S
C2320 C2321 1.397 . S
C2320 C2325 1.363 . S
C2321 H2292 0.950 . S
C2321 C2320 1.397 . S
C2321 C2322 1.334 . S
C2322 H2293 0.950 . S
C2322 C2321 1.334 . S
C2322 C2323 1.287 . S
C2323 C2322 1.287 . S
C2323 C2324 1.524 . S
C2323 H2326 0.999 . S
C2324 H2294 0.950 . S
C2324 C2323 1.524 . S
C2324 C2325 1.415 . S
C2325 H2295 0.950 . S
C2325 C2320 1.363 . S
C2325 C2324 1.415 . S
H2326 C2323 0.999 . S
H2327 C2308 0.913 . S
H2328 C2346 0.951 . S
H2329 C2348 0.951 . S
H2330 C2350 0.950 . S
H2331 C2351 0.950 . S
H2332 C2353 0.950 . S
H2333 C2356 0.950 . S
H2334 C2357 0.950 . S
H2335 C2359 0.928 1_545 S
H2336 C2360 0.950 . S
H2337 C2361 0.951 . S
H2338 C2363 0.951 . S
H2339 C2365 0.950 . S
H2340 C2366 0.950 . S
H2341 C2368 0.950 . S
H2342 C2371 0.950 . S
H2343 C2372 0.950 . S
H2344 C2374 0.928 1_565 S
H2345 C2375 0.950 . S
C2346 H2328 0.951 . S
C2346 C2347 1.366 . S
C2346 C2348 1.388 . S
C2347 C2346 1.366 . S
C2347 C2351 1.385 . S
C2348 H2329 0.951 . S
C2348 C2346 1.388 . S
C2348 C2349 1.366 . S
C2349 C2348 1.366 . S
C2349 C2350 1.414 . S
C2349 C2352 1.499 . S
C2350 H2330 0.950 . S
C2350 C2349 1.414 . S
C2350 C2351 1.374 . S
C2351 H2331 0.950 . S
C2351 C2347 1.385 . S
C2351 C2350 1.374 . S
C2352 C2349 1.499 . S
C2352 C2353 1.373 . S
C2352 C2354 1.389 1_554 S
C2353 H2332 0.950 . S
C2353 C2352 1.373 . S
C2353 C2369 1.377 1_565 S
C2354 C2352 1.389 1_556 S
C2354 C2355 1.524 . S
C2354 C2368 1.377 1_565 S
C2355 C2354 1.524 . S
C2355 C2356 1.397 . S
C2355 C2360 1.363 1_565 S
C2356 H2333 0.950 . S
C2356 C2355 1.397 . S
C2356 C2357 1.334 . S
C2357 H2334 0.950 . S
C2357 C2356 1.334 . S
C2357 C2358 1.287 . S
C2358 C2357 1.287 . S
C2358 C2359 1.557 . S
C2358 H2377 0.913 . S
C2359 H2335 0.928 1_565 S
C2359 C2358 1.557 . S
C2359 C2360 1.407 1_565 S
C2360 H2336 0.950 . S
C2360 C2355 1.363 1_545 S
C2360 C2359 1.407 1_545 S
C2361 H2337 0.951 . S
C2361 C2362 1.366 . S
C2361 C2363 1.388 . S
C2362 C2361 1.366 . S
C2362 C2366 1.385 . S
C2363 H2338 0.951 . S
C2363 C2361 1.388 . S
C2363 C2364 1.366 . S
C2364 C2363 1.366 . S
C2364 C2365 1.414 . S
C2364 C2367 1.499 . S
C2365 H2339 0.950 . S
C2365 C2364 1.414 . S
C2365 C2366 1.374 . S
C2366 H2340 0.950 . S
C2366 C2362 1.385 . S
C2366 C2365 1.374 . S
C2367 C2364 1.499 . S
C2367 C2368 1.373 . S
C2367 C2369 1.389 1_556 S
C2368 H2341 0.950 . S
C2368 C2354 1.377 1_545 S
C2368 C2367 1.373 . S
C2369 C2353 1.377 1_545 S
C2369 C2367 1.389 1_554 S
C2369 C2370 1.524 . S
C2370 C2369 1.524 . S
C2370 C2371 1.397 . S
C2370 C2375 1.363 1_545 S
C2371 H2342 0.950 . S
C2371 C2370 1.397 . S
C2371 C2372 1.334 . S
C2372 H2343 0.950 . S
C2372 C2371 1.334 . S
C2372 C2373 1.287 . S
C2373 C2372 1.287 . S
C2373 C2374 1.557 . S
C2373 H2376 0.999 . S
C2374 H2344 0.928 1_545 S
C2374 C2373 1.557 . S
C2374 C2375 1.407 1_545 S
C2375 H2345 0.950 . S
C2375 C2370 1.363 1_565 S
C2375 C2374 1.407 1_565 S
H2376 C2373 0.999 . S
H2377 C2358 0.913 . S
H2378 C2396 0.951 . S
H2379 C2398 0.951 . S
H2380 C2400 0.950 . S
H2381 C2401 0.950 . S
H2382 C2403 0.950 . S
H2383 C2406 0.950 . S
H2384 C2407 0.950 . S
H2385 C2409 0.950 . S
H2386 C2410 0.950 . S
H2387 C2411 0.951 . S
H2388 C2413 0.951 . S
H2389 C2415 0.950 . S
H2390 C2416 0.950 . S
H2391 C2418 0.950 . S
H2392 C2421 0.950 . S
H2393 C2422 0.950 . S
H2394 C2424 0.950 . S
H2395 C2425 0.950 . S
C2396 H2378 0.951 . S
C2396 C2397 1.366 . S
C2396 C2398 1.388 . S
C2397 C2396 1.366 . S
C2397 C2401 1.385 . S
C2398 H2379 0.951 . S
C2398 C2396 1.388 . S
C2398 C2399 1.366 . S
C2399 C2398 1.366 . S
C2399 C2400 1.414 . S
C2399 C2402 1.499 . S
C2400 H2380 0.950 . S
C2400 C2399 1.414 . S
C2400 C2401 1.374 . S
C2401 H2381 0.950 . S
C2401 C2397 1.385 . S
C2401 C2400 1.374 . S
C2402 C2399 1.499 . S
C2402 C2403 1.373 . S
C2402 C2404 1.389 . S
C2403 H2382 0.950 . S
C2403 C2402 1.373 . S
C2403 C2419 1.377 . S
C2404 C2402 1.389 . S
C2404 C2405 1.524 . S
C2404 C2418 1.377 . S
C2405 C2404 1.524 . S
C2405 C2406 1.397 . S
C2405 C2410 1.363 . S
C2406 H2383 0.950 . S
C2406 C2405 1.397 . S
C2406 C2407 1.334 . S
C2407 H2384 0.950 . S
C2407 C2406 1.334 . S
C2407 C2408 1.287 . S
C2408 C2407 1.287 . S
C2408 C2409 1.524 . S
C2408 H2427 0.913 . S
C2409 H2385 0.950 . S
C2409 C2408 1.524 . S
C2409 C2410 1.415 . S
C2410 H2386 0.950 . S
C2410 C2405 1.363 . S
C2410 C2409 1.415 . S
C2411 H2387 0.951 . S
C2411 C2412 1.366 . S
C2411 C2413 1.388 . S
C2412 C2411 1.366 . S
C2412 C2416 1.385 . S
C2413 H2388 0.951 . S
C2413 C2411 1.388 . S
C2413 C2414 1.366 . S
C2414 C2413 1.366 . S
C2414 C2415 1.414 . S
C2414 C2417 1.499 . S
C2415 H2389 0.950 . S
C2415 C2414 1.414 . S
C2415 C2416 1.374 . S
C2416 H2390 0.950 . S
C2416 C2412 1.385 . S
C2416 C2415 1.374 . S
C2417 C2414 1.499 . S
C2417 C2418 1.373 . S
C2417 C2419 1.389 . S
C2418 H2391 0.950 . S
C2418 C2404 1.377 . S
C2418 C2417 1.373 . S
C2419 C2403 1.377 . S
C2419 C2417 1.389 . S
C2419 C2420 1.524 . S
C2420 C2419 1.524 . S
C2420 C2421 1.397 . S
C2420 C2425 1.363 . S
C2421 H2392 0.950 . S
C2421 C2420 1.397 . S
C2421 C2422 1.334 . S
C2422 H2393 0.950 . S
C2422 C2421 1.334 . S
C2422 C2423 1.287 . S
C2423 C2422 1.287 . S
C2423 C2424 1.524 . S
C2423 H2426 0.999 . S
C2424 H2394 0.950 . S
C2424 C2423 1.524 . S
C2424 C2425 1.415 . S
C2425 H2395 0.950 . S
C2425 C2420 1.363 . S
C2425 C2424 1.415 . S
H2426 C2423 0.999 . S
H2427 C2408 0.913 . S
H2428 C2446 0.951 . S
H2429 C2448 0.951 . S
H2430 C2450 0.950 . S
H2431 C2451 0.950 . S
H2432 C2453 0.950 . S
H2433 C2456 0.950 . S
H2434 C2457 0.950 . S
H2435 C2459 0.950 . S
H2436 C2460 0.950 . S
H2437 C2461 0.951 . S
H2438 C2463 0.951 . S
H2439 C2465 0.950 . S
H2440 C2466 0.950 . S
H2441 C2468 0.950 . S
H2442 C2471 0.950 . S
H2443 C2472 0.950 . S
H2444 C2474 0.950 . S
H2445 C2475 0.950 . S
C2446 H2428 0.951 . S
C2446 C2447 1.366 . S
C2446 C2448 1.388 . S
C2447 C2446 1.366 . S
C2447 C2451 1.385 . S
C2448 H2429 0.951 . S
C2448 C2446 1.388 . S
C2448 C2449 1.366 . S
C2449 C2448 1.366 . S
C2449 C2450 1.414 . S
C2449 C2452 1.499 . S
C2450 H2430 0.950 . S
C2450 C2449 1.414 . S
C2450 C2451 1.374 . S
C2451 H2431 0.950 . S
C2451 C2447 1.385 . S
C2451 C2450 1.374 . S
C2452 C2449 1.499 . S
C2452 C2453 1.373 . S
C2452 C2454 1.389 . S
C2453 H2432 0.950 . S
C2453 C2452 1.373 . S
C2453 C2469 1.377 . S
C2454 C2452 1.389 . S
C2454 C2455 1.524 . S
C2454 C2468 1.377 . S
C2455 C2454 1.524 . S
C2455 C2456 1.397 . S
C2455 C2460 1.363 . S
C2456 H2433 0.950 . S
C2456 C2455 1.397 . S
C2456 C2457 1.334 . S
C2457 H2434 0.950 . S
C2457 C2456 1.334 . S
C2457 C2458 1.287 . S
C2458 C2457 1.287 . S
C2458 C2459 1.524 . S
C2458 H2477 0.913 . S
C2459 H2435 0.950 . S
C2459 C2458 1.524 . S
C2459 C2460 1.415 . S
C2460 H2436 0.950 . S
C2460 C2455 1.363 . S
C2460 C2459 1.415 . S
C2461 H2437 0.951 . S
C2461 C2462 1.366 . S
C2461 C2463 1.388 . S
C2462 C2461 1.366 . S
C2462 C2466 1.385 . S
C2463 H2438 0.951 . S
C2463 C2461 1.388 . S
C2463 C2464 1.366 . S
C2464 C2463 1.366 . S
C2464 C2465 1.414 . S
C2464 C2467 1.499 . S
C2465 H2439 0.950 . S
C2465 C2464 1.414 . S
C2465 C2466 1.374 . S
C2466 H2440 0.950 . S
C2466 C2462 1.385 . S
C2466 C2465 1.374 . S
C2467 C2464 1.499 . S
C2467 C2468 1.373 . S
C2467 C2469 1.389 . S
C2468 H2441 0.950 . S
C2468 C2454 1.377 . S
C2468 C2467 1.373 . S
C2469 C2453 1.377 . S
C2469 C2467 1.389 . S
C2469 C2470 1.524 . S
C2470 C2469 1.524 . S
C2470 C2471 1.397 . S
C2470 C2475 1.363 . S
C2471 H2442 0.950 . S
C2471 C2470 1.397 . S
C2471 C2472 1.334 . S
C2472 H2443 0.950 . S
C2472 C2471 1.334 . S
C2472 C2473 1.287 . S
C2473 C2472 1.287 . S
C2473 C2474 1.524 . S
C2473 H2476 0.999 . S
C2474 H2444 0.950 . S
C2474 C2473 1.524 . S
C2474 C2475 1.415 . S
C2475 H2445 0.950 . S
C2475 C2470 1.363 . S
C2475 C2474 1.415 . S
H2476 C2473 0.999 . S
H2477 C2458 0.913 . S
H2478 C2496 0.951 . S
H2479 C2498 0.951 . S
H2480 C2500 0.950 . S
H2481 C2501 0.950 . S
H2482 C2503 0.950 . S
H2483 C2506 0.950 . S
H2484 C2507 0.950 . S
H2485 C2509 0.950 . S
H2486 C2510 0.950 . S
H2487 C2511 0.951 . S
H2488 C2513 0.951 . S
H2489 C2515 0.950 . S
H2490 C2516 0.950 . S
H2491 C2518 0.950 . S
H2492 C2521 0.950 . S
H2493 C2522 0.950 . S
H2494 C2524 0.950 . S
H2495 C2525 0.950 . S
C2496 H2478 0.951 . S
C2496 C2497 1.366 . S
C2496 C2498 1.388 . S
C2497 C2496 1.366 . S
C2497 C2501 1.385 . S
C2498 H2479 0.951 . S
C2498 C2496 1.388 . S
C2498 C2499 1.366 . S
C2499 C2498 1.366 . S
C2499 C2500 1.414 . S
C2499 C2502 1.499 . S
C2500 H2480 0.950 . S
C2500 C2499 1.414 . S
C2500 C2501 1.374 . S
C2501 H2481 0.950 . S
C2501 C2497 1.385 . S
C2501 C2500 1.374 . S
C2502 C2499 1.499 . S
C2502 C2503 1.373 . S
C2502 C2504 1.389 . S
C2503 H2482 0.950 . S
C2503 C2502 1.373 . S
C2503 C2519 1.377 . S
C2504 C2502 1.389 . S
C2504 C2505 1.524 . S
C2504 C2518 1.377 . S
C2505 C2504 1.524 . S
C2505 C2506 1.397 . S
C2505 C2510 1.363 . S
C2506 H2483 0.950 . S
C2506 C2505 1.397 . S
C2506 C2507 1.334 . S
C2507 H2484 0.950 . S
C2507 C2506 1.334 . S
C2507 C2508 1.287 . S
C2508 C2507 1.287 . S
C2508 C2509 1.524 . S
C2508 H2527 0.913 . S
C2509 H2485 0.950 . S
C2509 C2508 1.524 . S
C2509 C2510 1.415 . S
C2510 H2486 0.950 . S
C2510 C2505 1.363 . S
C2510 C2509 1.415 . S
C2511 H2487 0.951 . S
C2511 C2512 1.366 . S
C2511 C2513 1.388 . S
C2512 C2511 1.366 . S
C2512 C2516 1.385 . S
C2513 H2488 0.951 . S
C2513 C2511 1.388 . S
C2513 C2514 1.366 . S
C2514 C2513 1.366 . S
C2514 C2515 1.414 . S
C2514 C2517 1.499 . S
C2515 H2489 0.950 . S
C2515 C2514 1.414 . S
C2515 C2516 1.374 . S
C2516 H2490 0.950 . S
C2516 C2512 1.385 . S
C2516 C2515 1.374 . S
C2517 C2514 1.499 . S
C2517 C2518 1.373 . S
C2517 C2519 1.389 . S
C2518 H2491 0.950 . S
C2518 C2504 1.377 . S
C2518 C2517 1.373 . S
C2519 C2503 1.377 . S
C2519 C2517 1.389 . S
C2519 C2520 1.524 . S
C2520 C2519 1.524 . S
C2520 C2521 1.397 . S
C2520 C2525 1.363 . S
C2521 H2492 0.950 . S
C2521 C2520 1.397 . S
C2521 C2522 1.334 . S
C2522 H2493 0.950 . S
C2522 C2521 1.334 . S
C2522 C2523 1.287 . S
C2523 C2522 1.287 . S
C2523 C2524 1.524 . S
C2523 H2526 0.999 . S
C2524 H2494 0.950 . S
C2524 C2523 1.524 . S
C2524 C2525 1.415 . S
C2525 H2495 0.950 . S
C2525 C2520 1.363 . S
C2525 C2524 1.415 . S
H2526 C2523 0.999 . S
H2527 C2508 0.913 . S
C547 N2 0.551 . S
C562 N299 0.549 . S
C597 N13 0.499 . S
C612 N310 0.501 . S
C647 N277 0.501 . S
C662 N46 0.500 . S
C697 N35 0.549 . S
C712 N266 0.551 . S
C747 N68 0.549 . S
C762 N365 0.551 . S
C797 N79 0.499 . S
C812 N376 0.499 . S
C847 N112 0.499 . S
C862 N343 0.501 . S
C897 N101 0.551 . S
C912 N332 0.549 . S
C947 N134 0.551 . S
C962 N431 0.550 . S
C997 N442 0.499 . S
C1012 N145 0.500 . S
C1047 N409 0.500 . S
C1062 N178 0.500 . S
C1097 N398 0.550 . S
C1112 N167 0.550 . S
C1147 N497 0.551 . S
C1162 N200 0.549 . S
C1197 N508 0.500 . S
C1212 N211 0.501 . S
C1247 N475 0.500 . S
C1262 N244 0.501 . S
C1297 N233 0.550 . S
C1312 N464 0.551 . S
C1347 C21 1.032 . S
C1362 C54 1.032 . S
C1397 C120 1.032 . S
C1412 C87 1.032 . S
C1447 C186 1.032 . S
C1462 C153 1.032 . S
C1497 C252 1.032 . S
C1512 C219 1.032 . S
C1547 C318 1.032 . S
C1562 C285 1.032 . S
C1597 C351 1.032 . S
C1612 C384 1.032 . S
C1647 C450 1.032 . S
C1662 C417 1.032 . S
C1697 C483 1.032 . S
C1712 C516 1.032 . S
C1747 C469 1.833 . S
C1762 C7 1.833 . S
C1797 C84 1.867 . S
C1812 C18 1.867 . S
C1847 C381 1.867 . S
C1862 C51 1.867 . S
C1897 C238 1.834 . S
C1912 C40 1.834 . S
C1947 C73 1.834 . S
C1962 C403 1.834 . S
C1997 C315 1.867 . S
C2012 C117 1.867 . S
C2047 C106 1.834 . S
C2062 C172 1.834 . S
C2097 C337 1.834 . S
C2112 C139 1.834 . S
C2147 C150 1.867 . S
C2162 C216 1.867 . S
C2197 C183 1.867 . S
C2212 C513 1.867 . S
C2247 C205 1.834 . S
C2262 C271 1.834 . S
C2297 C249 1.867 . S
C2312 C447 1.867 . S
C2347 C348 1.867 . S
C2362 C282 1.867 . S
C2397 C502 1.833 . S
C2412 C304 1.833 . S
C2447 C370 1.834 . S
C2462 C436 1.834 . S
C2497 C414 1.867 . S
C2512 C480 1.867 . S
