# Generated by pormake.
# Topology lcy-e, (6)-cn, num edge types: 1
# Building blocks:
#     Node 0, Type 0, BuildingBlock: KUMJIN_clean_sbu_0, # of connection points: 6
#     Node 1, Type 0, BuildingBlock: KUMJIN_clean_sbu_0, # of connection points: 6
#     Node 2, Type 0, BuildingBlock: KUMJIN_clean_sbu_0, # of connection points: 6
#     Node 3, Type 0, BuildingBlock: KUMJIN_clean_sbu_0, # of connection points: 6
#     Node 4, Type 0, BuildingBlock: KUMJIN_clean_sbu_0, # of connection points: 6
#     Node 5, Type 0, BuildingBlock: KUMJIN_clean_sbu_0, # of connection points: 6
#     Node 6, Type 0, BuildingBlock: KUMJIN_clean_sbu_0, # of connection points: 6
#     Node 7, Type 0, BuildingBlock: KUMJIN_clean_sbu_0, # of connection points: 6
#     Node 8, Type 0, BuildingBlock: KUMJIN_clean_sbu_0, # of connection points: 6
#     Node 9, Type 0, BuildingBlock: KUMJIN_clean_sbu_0, # of connection points: 6
#     Node 10, Type 0, BuildingBlock: KUMJIN_clean_sbu_0, # of connection points: 6
#     Node 11, Type 0, BuildingBlock: KUMJIN_clean_sbu_0, # of connection points: 6
#     Edge 12, Type (0, 0), BuildingBlock: XUDNAN_clean_linker_2, # of connection points: 2
#     Edge 13, Type (0, 0), BuildingBlock: XUDNAN_clean_linker_2, # of connection points: 2
#     Edge 14, Type (0, 0), BuildingBlock: XUDNAN_clean_linker_2, # of connection points: 2
#     Edge 15, Type (0, 0), BuildingBlock: XUDNAN_clean_linker_2, # of connection points: 2
#     Edge 16, Type (0, 0), BuildingBlock: XUDNAN_clean_linker_2, # of connection points: 2
#     Edge 17, Type (0, 0), BuildingBlock: XUDNAN_clean_linker_2, # of connection points: 2
#     Edge 18, Type (0, 0), BuildingBlock: XUDNAN_clean_linker_2, # of connection points: 2
#     Edge 19, Type (0, 0), BuildingBlock: XUDNAN_clean_linker_2, # of connection points: 2
#     Edge 20, Type (0, 0), BuildingBlock: XUDNAN_clean_linker_2, # of connection points: 2
#     Edge 21, Type (0, 0), BuildingBlock: XUDNAN_clean_linker_2, # of connection points: 2
#     Edge 22, Type (0, 0), BuildingBlock: XUDNAN_clean_linker_2, # of connection points: 2
#     Edge 23, Type (0, 0), BuildingBlock: XUDNAN_clean_linker_2, # of connection points: 2
#     Edge 24, Type (0, 0), BuildingBlock: XUDNAN_clean_linker_2, # of connection points: 2
#     Edge 25, Type (0, 0), BuildingBlock: XUDNAN_clean_linker_2, # of connection points: 2
#     Edge 26, Type (0, 0), BuildingBlock: XUDNAN_clean_linker_2, # of connection points: 2
#     Edge 27, Type (0, 0), BuildingBlock: XUDNAN_clean_linker_2, # of connection points: 2
#     Edge 28, Type (0, 0), BuildingBlock: XUDNAN_clean_linker_2, # of connection points: 2
#     Edge 29, Type (0, 0), BuildingBlock: XUDNAN_clean_linker_2, # of connection points: 2
#     Edge 30, Type (0, 0), BuildingBlock: XUDNAN_clean_linker_2, # of connection points: 2
#     Edge 31, Type (0, 0), BuildingBlock: XUDNAN_clean_linker_2, # of connection points: 2
#     Edge 32, Type (0, 0), BuildingBlock: XUDNAN_clean_linker_2, # of connection points: 2
#     Edge 33, Type (0, 0), BuildingBlock: XUDNAN_clean_linker_2, # of connection points: 2
#     Edge 34, Type (0, 0), BuildingBlock: XUDNAN_clean_linker_2, # of connection points: 2
#     Edge 35, Type (0, 0), BuildingBlock: XUDNAN_clean_linker_2, # of connection points: 2
#     Edge 36, Type (0, 0), BuildingBlock: XUDNAN_clean_linker_2, # of connection points: 2
#     Edge 37, Type (0, 0), BuildingBlock: XUDNAN_clean_linker_2, # of connection points: 2
#     Edge 38, Type (0, 0), BuildingBlock: XUDNAN_clean_linker_2, # of connection points: 2
#     Edge 39, Type (0, 0), BuildingBlock: XUDNAN_clean_linker_2, # of connection points: 2
#     Edge 40, Type (0, 0), BuildingBlock: XUDNAN_clean_linker_2, # of connection points: 2
#     Edge 41, Type (0, 0), BuildingBlock: XUDNAN_clean_linker_2, # of connection points: 2
#     Edge 42, Type (0, 0), BuildingBlock: XUDNAN_clean_linker_2, # of connection points: 2
#     Edge 43, Type (0, 0), BuildingBlock: XUDNAN_clean_linker_2, # of connection points: 2
#     Edge 44, Type (0, 0), BuildingBlock: XUDNAN_clean_linker_2, # of connection points: 2
#     Edge 45, Type (0, 0), BuildingBlock: XUDNAN_clean_linker_2, # of connection points: 2
#     Edge 46, Type (0, 0), BuildingBlock: XUDNAN_clean_linker_2, # of connection points: 2
#     Edge 47, Type (0, 0), BuildingBlock: XUDNAN_clean_linker_2, # of connection points: 2
# Relax obj value: 0.109
# Max RMSD: 0.285
# Mean RMSD: 0.284
data_MOF--net-lcy-e--node1-KUMJIN_clean_sbu_0--edge1-XUDNAN_clean_linker_2
_symmetry_space_group_name_H-M    P1
_symmetry_Int_Tables_number       1
_symmetry_cell_setting            triclinic
loop_
_symmetry_equiv_pos_as_xyz
'x, y, z'
_cell_length_a     43.569478
_cell_length_b     43.680229
_cell_length_c     43.843351
_cell_angle_alpha  89.975327
_cell_angle_beta   90.128409
_cell_angle_gamma 90.29364
loop_
_atom_site_label
_atom_site_type_symbol
_atom_site_fract_x
_atom_site_fract_y
_atom_site_fract_z
_atom_type_partial_charge
Eu0 Eu 0.14628 0.20955 0.53517 0.0
C1 C 0.05615 0.2571 0.44377 0.0
C2 C 0.05623 0.21781 0.40462 0.0
C3 C 1.01042 0.24785 0.41299 0.0
C4 C 0.07139 0.23414 0.4281 0.0
C5 C 0.02555 0.26436 0.43601 0.0
C6 C 0.02553 0.22429 0.39771 0.0
C7 C 0.02831 0.30719 0.47051 0.0
N8 N 0.07203 0.27434 0.46427 0.0
C9 C 0.05896 0.30014 0.47632 0.0
C10 C 0.0114 0.28903 0.45048 0.0
Eu11 Eu 0.12477 0.262 0.47085 0.0
N12 N 0.10176 0.22981 0.43361 0.0
C13 C 0.11841 0.21044 0.41559 0.0
C14 C 0.07285 0.19672 0.38739 0.0
C15 C 0.10416 0.19334 0.39265 0.0
H16 H 0.07224 0.31611 0.48985 0.0
H17 H 0.11743 0.17765 0.37894 0.0
H18 H 0.0136 0.21195 0.37979 0.0
H19 H 0.01808 0.32726 0.48069 0.0
H20 H 0.1427 0.2076 0.41861 0.0
H21 H 0.124 0.26566 0.64515 0.0
H22 H 0.06196 0.18371 0.3693 0.0
H23 H 0.20792 0.16299 0.52826 0.0
H24 H 0.11123 0.23445 0.6004 0.0
H25 H 0.26238 0.16205 0.54393 0.0
H26 H 0.98699 0.25324 0.40672 0.0
H27 H 0.17792 0.2804 0.65531 0.0
H28 H 0.23365 0.27433 0.64198 0.0
H29 H 0.98787 0.29508 0.4453 0.0
H30 H 0.27254 0.2463 0.61269 0.0
N31 N 0.15677 0.23494 0.58237 0.0
C32 C 0.13458 0.24215 0.60325 0.0
C33 C 0.17229 0.26741 0.635 0.0
C34 C 0.1953 0.25675 0.6156 0.0
C35 C 0.14184 0.2592 0.62931 0.0
C36 C 0.18668 0.2399 0.58942 0.0
H37 H 0.28343 0.20295 0.57674 0.0
N38 N 0.19846 0.20486 0.55114 0.0
C39 C 0.24786 0.18067 0.55098 0.0
C40 C 0.20845 0.22456 0.57284 0.0
C41 C 0.21698 0.18127 0.54231 0.0
C42 C 0.25956 0.20367 0.56979 0.0
C43 C 0.23947 0.22517 0.58216 0.0
O44 O 0.15146 0.16148 0.54901 0.0
O45 O 0.11353 0.21853 0.49628 0.0
O46 O 0.10347 0.28045 0.51416 0.0
O47 O 0.10476 0.23867 0.54737 0.0
O48 O 0.13347 0.1755 0.49839 0.0
O49 O 0.11138 0.18619 0.5627 0.0
O50 O 0.11947 0.30579 0.44735 0.0
O51 O 0.15357 0.25575 0.51291 0.0
O52 O 0.18326 0.20541 0.49854 0.0
O53 O 0.16633 0.23466 0.45727 0.0
O54 O 0.15416 0.2983 0.49214 0.0
O55 O 0.15473 0.27417 0.43293 0.0
C56 C 0.113 0.19193 0.48494 0.0
C57 C 0.12738 0.14573 0.59498 0.0
C58 C 0.11587 0.10233 0.62881 0.0
C59 C 0.11621 0.11558 0.59934 0.0
C60 C 0.12681 0.11968 0.65358 0.0
C61 C 0.13911 0.16194 0.62003 0.0
C62 C 0.13851 0.14912 0.64914 0.0
C63 C 0.09574 0.26653 0.53976 0.0
C64 C 0.12613 0.16042 0.56457 0.0
C65 C 0.24869 0.24491 0.60576 0.0
C66 C 0.22654 0.26075 0.62251 0.0
C67 C 0.16583 0.28253 0.51401 0.0
C68 C 0.13328 0.30589 0.39525 0.0
C69 C 0.15157 0.32585 0.37788 0.0
C70 C 0.14476 0.33092 0.34686 0.0
C71 C 0.11966 0.31554 0.33352 0.0
C72 C 0.10814 0.29126 0.38153 0.0
C73 C 0.10152 0.29583 0.35082 0.0
C74 C 0.18609 0.21601 0.47037 0.0
C75 C 0.14087 0.3 0.42739 0.0
H76 H 0.10758 0.10265 0.58001 0.0
H77 H 0.12716 0.1101 0.67638 0.0
H78 H 0.1488 0.1845 0.61717 0.0
H79 H 0.14739 0.16199 0.66834 0.0
H80 H 0.17105 0.33725 0.38841 0.0
H81 H 0.11353 0.31933 0.30987 0.0
H82 H 0.09345 0.27652 0.39449 0.0
H83 H 0.08204 0.28434 0.34049 0.0
Eu84 Eu 1.00293 0.87467 0.73532 0.0
C85 C 0.0888 0.96322 0.78948 0.0
C86 C 0.13037 0.9641 0.75268 0.0
C87 C 0.11844 0.00998 0.78124 0.0
C88 C 0.10652 0.9482 0.76786 0.0
C89 C 0.09521 0.99414 0.7968 0.0
C90 C 0.13584 0.99505 0.75913 0.0
C91 C 0.05915 0.99045 0.83821 0.0
N92 N 0.06764 0.94697 0.80559 0.0
C93 C 0.05435 0.95973 0.83094 0.0
C94 C 0.0793 1.00791 0.82075 0.0
Eu95 Eu 0.06123 0.89462 0.79126 0.0
N96 N 0.1019 0.91777 0.76302 0.0
C97 C 0.12165 0.90179 0.74471 0.0
C98 C 0.14901 0.94817 0.73231 0.0
C99 C 0.1449 0.91681 0.72866 0.0
H100 H 0.03987 0.94623 0.84584 0.0
H101 H 0.15976 0.90407 0.71358 0.0
H102 H 0.154 1.00752 0.74762 0.0
H103 H 0.04782 1.00045 0.85773 0.0
H104 H 0.1197 0.87749 0.74156 0.0
H105 H 0.9061 0.85108 0.8115 0.0
H106 H 0.16731 0.95969 0.72006 0.0
H107 H 0.0169 0.83721 0.67038 0.0
H108 H 0.94228 0.8838 0.78329 0.0
H109 H 1.00704 0.78622 0.64793 0.0
H110 H 0.1235 0.03371 0.78653 0.0
H111 H 0.90557 0.79513 0.80294 0.0
H112 H 0.92298 0.75069 0.77108 0.0
H113 H 0.08351 0.0316 0.82686 0.0
H114 H 0.95031 0.7328 0.72544 0.0
N115 N 0.96421 0.84656 0.76097 0.0
C116 C 0.94291 0.85942 0.77973 0.0
C117 C 0.92194 0.80935 0.79082 0.0
C118 C 0.94122 0.79688 0.76863 0.0
C119 C 0.92205 0.84094 0.79561 0.0
C120 C 0.96216 0.81642 0.7536 0.0
H121 H 0.98029 0.74641 0.67829 0.0
N122 N 0.99538 0.82643 0.71248 0.0
C123 C 0.99925 0.79127 0.6708 0.0
C124 C 0.97794 0.80612 0.72823 0.0
C125 C 1.00461 0.82015 0.6834 0.0
C126 C 0.9842 0.76888 0.68804 0.0
C127 C 0.97264 0.77639 0.71685 0.0
O128 O 0.99024 0.9144 0.70761 0.0
O129 O 0.04258 0.90601 0.74499 0.0
O130 O 0.01677 0.92191 0.80311 0.0
O131 O 0.98353 0.91338 0.76211 0.0
O132 O 0.04331 0.88269 0.70394 0.0
O133 O 0.96428 0.87309 0.703 0.0
O134 O 0.07347 0.89762 0.83991 0.0
O135 O 0.01428 0.87321 0.78583 0.0
O136 O 0.0389 0.83744 0.73203 0.0
O137 O 0.07853 0.85414 0.76377 0.0
O138 O 0.04569 0.84897 0.81016 0.0
O139 O 0.10186 0.87178 0.80901 0.0
C140 C 0.05628 0.90416 0.71965 0.0
C141 C 0.97105 0.90311 0.65873 0.0
C142 C 0.9475 0.91562 0.60964 0.0
C143 C 0.9455 0.9128 0.64167 0.0
C144 C 0.97528 0.90815 0.59514 0.0
C145 C 0.99859 0.89652 0.64362 0.0
C146 C 1.00061 0.89889 0.61207 0.0
C147 C 0.99164 0.9284 0.78683 0.0
C148 C 0.96913 0.9003 0.69218 0.0
C149 C 0.95411 0.75598 0.73345 0.0
C150 C 0.93854 0.76618 0.75944 0.0
C151 C 0.01728 0.84972 0.80269 0.0
C152 C 0.12748 0.89428 0.85052 0.0
C153 C 0.14899 0.87424 0.86408 0.0
C154 C 0.17758 0.88545 0.87483 0.0
C155 C 0.18413 0.91686 0.8718 0.0
C156 C 0.13474 0.92548 0.84816 0.0
C157 C 0.16286 0.93663 0.85865 0.0
C158 C 0.06656 0.83456 0.74405 0.0
C159 C 0.09886 0.8821 0.83668 0.0
H160 H 0.92439 0.91848 0.65336 0.0
H161 H 0.97747 0.90907 0.57056 0.0
H162 H 0.01867 0.88949 0.65597 0.0
H163 H 0.0219 0.89342 0.60067 0.0
H164 H 0.14376 0.85001 0.86569 0.0
H165 H 0.20558 0.92633 0.88014 0.0
H166 H 0.11884 0.94133 0.83811 0.0
H167 H 0.16818 0.96078 0.8566 0.0
Eu168 Eu 0.40075 0.74747 0.97794 0.0
C169 C 0.31385 0.83064 0.04071 0.0
C170 C 0.30961 0.87172 1.00368 0.0
C171 C 0.26511 0.85678 0.03339 0.0
C172 C 0.32722 0.84888 0.01831 0.0
C173 C 0.28288 0.83518 0.04904 0.0
C174 C 0.27845 0.87502 1.0108 0.0
C175 C 0.28997 0.79944 0.09036 0.0
N176 N 0.33134 0.80973 0.05556 0.0
C177 C 0.32048 0.79589 0.0815 0.0
C178 C 0.27087 0.81866 0.07364 0.0
Eu179 Eu 0.38227 0.80377 0.0373 0.0
N180 N 0.35738 0.84493 1.01126 0.0
C181 C 0.37143 0.86448 0.99108 0.0
C182 C 0.32386 0.89103 0.98259 0.0
C183 C 0.35491 0.88748 0.9764 0.0
H184 H 0.33512 0.78122 0.09502 0.0
H185 H 0.36621 0.90252 0.96027 0.0
H186 H 0.26459 0.89209 0.99937 0.0
H187 H 0.28128 0.78748 0.11019 0.0
H188 H 0.3953 0.86291 0.98554 0.0
H189 H 0.4434 0.65082 0.04348 0.0
H190 H 0.31124 0.90915 0.97144 0.0
H191 H 0.43126 0.78127 0.91607 0.0
H192 H 0.40437 0.6867 0.02374 0.0
H193 H 0.48088 0.78271 0.88864 0.0
H194 H 0.24121 0.86018 0.0392 0.0
H195 H 0.49653 0.65312 0.02359 0.0
H196 H 0.534 0.67595 0.98613 0.0
H197 H 0.24723 0.82152 0.08065 0.0
H198 H 0.54405 0.71149 0.94364 0.0
N199 N 0.43578 0.71061 0.99546 0.0
C200 C 0.42775 0.68848 0.01586 0.0
C201 C 0.47962 0.66926 0.01538 0.0
C202 C 0.48703 0.69062 0.99268 0.0
C203 C 0.44968 0.66788 0.02668 0.0
C204 C 0.46423 0.7112 0.98296 0.0
H205 H 0.52427 0.75117 0.90687 0.0
N206 N 0.44706 0.75014 0.94988 0.0
C207 C 0.47816 0.76832 0.90856 0.0
C208 C 0.46997 0.73124 0.95913 0.0
C209 C 0.45016 0.76746 0.92405 0.0
C210 C 0.50261 0.75048 0.91895 0.0
C211 C 0.49855 0.73126 0.94423 0.0
O212 O 0.37811 0.74058 0.93373 0.0
O213 O 0.36781 0.78309 0.99329 0.0
O214 O 0.35305 0.76001 0.04669 0.0
O215 O 0.36435 0.72605 1.00695 0.0
O216 O 0.38152 0.78602 0.94858 0.0
O217 O 0.38714 0.7016 0.96205 0.0
O218 O 0.3876 0.80619 0.08664 0.0
O219 O 0.40358 0.7575 0.02907 0.0
O220 O 0.44052 0.77995 0.98308 0.0
O221 O 0.41996 0.82291 1.00651 0.0
O222 O 0.42979 0.78903 0.05183 0.0
O223 O 0.39668 0.84723 0.05911 0.0
C224 C 0.36285 0.79686 0.96858 0.0
C225 C 0.38679 0.69386 0.90824 0.0
C226 C 0.37511 0.66587 0.86083 0.0
C227 C 0.36519 0.68052 0.88793 0.0
C228 C 0.40678 0.66482 0.8547 0.0
C229 C 0.41812 0.69191 0.90146 0.0
C230 C 0.42799 0.67766 0.87486 0.0
C231 C 0.34849 0.73409 0.03117 0.0
C232 C 0.37684 0.71091 0.93572 0.0
C233 C 0.52179 0.71164 0.9546 0.0
C234 C 0.51607 0.69142 0.97882 0.0
C235 C 0.42789 0.76045 0.04506 0.0
C236 C 0.40364 0.85186 0.11487 0.0
C237 C 0.41179 0.88346 0.1154 0.0
C238 C 0.42033 0.89779 0.14329 0.0
C239 C 0.41985 0.88026 0.17021 0.0
C240 C 0.40372 0.83534 0.14236 0.0
C241 C 0.41166 0.84945 0.16968 0.0
C242 C 0.44163 0.80896 0.99078 0.0
C243 C 0.39595 0.835 0.08629 0.0
H244 H 0.3409 0.6819 0.89297 0.0
H245 H 0.4153 0.6534 0.83452 0.0
H246 H 0.43507 0.70139 0.91671 0.0
H247 H 0.45228 0.67642 0.8699 0.0
H248 H 0.41208 0.89655 0.09441 0.0
H249 H 0.42558 0.89051 0.192 0.0
H250 H 0.39778 0.81123 0.14283 0.0
H251 H 0.41152 0.83638 0.19066 0.0
Eu252 Eu 0.52596 0.15141 0.22024 0.0
C253 C 0.45353 0.05799 0.27872 0.0
C254 C 0.40835 0.05619 0.24613 0.0
C255 C 0.42597 1.00991 0.27099 0.0
C256 C 0.43269 0.07285 0.25973 0.0
C257 C 0.44991 0.0264 0.28486 0.0
C258 C 0.40552 0.02465 0.25137 0.0
C259 C 0.49133 0.03015 0.32125 0.0
N260 N 0.47615 0.07451 0.29255 0.0
C261 C 0.49343 0.06145 0.31522 0.0
C262 C 0.46981 0.01241 0.30562 0.0
Eu263 Eu 0.47711 0.1276 0.28081 0.0
N264 N 0.43577 0.1035 0.25486 0.0
C265 C 0.414 0.11896 0.23854 0.0
C266 C 0.38709 0.07179 0.22804 0.0
C267 C 0.38975 0.10336 0.22455 0.0
H268 H 0.50908 0.07511 0.32881 0.0
H269 H 0.37291 0.1158 0.21133 0.0
H270 H 0.38713 0.01157 0.24088 0.0
H271 H 0.50588 0.01986 0.33842 0.0
H272 H 0.41446 0.14335 0.23652 0.0
H273 H 0.5912 0.24067 0.27874 0.0
H274 H 0.36819 0.05976 0.2172 0.0
H275 H 0.49204 0.15494 0.15126 0.0
H276 H 0.57619 0.18771 0.26568 0.0
H277 H 0.47383 0.19453 0.11507 0.0
H278 H 0.42274 0.98576 0.2757 0.0
H279 H 0.56868 0.28404 0.25022 0.0
H280 H 0.53623 0.30201 0.2063 0.0
H281 H 0.46794 0.98818 0.31062 0.0
H282 H 0.50482 0.28935 0.16129 0.0
N283 N 0.54364 0.20108 0.23227 0.0
C284 C 0.56575 0.20649 0.25368 0.0
C285 C 0.56161 0.26084 0.24485 0.0
C286 C 0.54105 0.2549 0.22096 0.0
C287 C 0.57445 0.23645 0.26094 0.0
C288 C 0.53242 0.22431 0.21507 0.0
H289 H 0.48138 0.2494 0.12712 0.0
N290 N 0.50819 0.18739 0.18383 0.0
C291 C 0.485 0.20122 0.13612 0.0
C292 C 0.5144 0.21728 0.18991 0.0
C293 C 0.4954 0.17893 0.15648 0.0
C294 C 0.48923 0.23217 0.14307 0.0
C295 C 0.50479 0.24051 0.16981 0.0
O296 O 0.54002 0.12748 0.17876 0.0
O297 O 0.4854 0.12056 0.23109 0.0
O298 O 0.52542 0.10304 0.28495 0.0
O299 O 0.55745 0.13307 0.25534 0.0
O300 O 0.52328 0.10069 0.2109 0.0
O301 O 0.57253 0.15656 0.20227 0.0
O302 O 0.47709 0.12585 0.33068 0.0
O303 O 0.51949 0.15509 0.272 0.0
O304 O 0.47796 0.16895 0.21225 0.0
O305 O 0.45604 0.17052 0.26003 0.0
O306 O 0.48635 0.1761 0.29684 0.0
O307 O 0.43415 0.13455 0.30578 0.0
C308 C 0.49602 0.09571 0.22062 0.0
C309 C 0.57827 0.15073 0.14869 0.0
C310 C 0.6034 0.1412 0.09974 0.0
C311 C 0.59366 0.13086 0.12866 0.0
C312 C 0.59698 0.17152 0.09108 0.0
C313 C 0.5729 0.18105 0.13977 0.0
C314 C 0.58188 0.19123 0.111 0.0
C315 C 0.55339 0.10997 0.27416 0.0
C316 C 0.56745 0.13935 0.17845 0.0
C317 C 0.51218 0.27113 0.17635 0.0
C318 C 0.53009 0.27834 0.20198 0.0
C319 C 0.51479 0.17803 0.28939 0.0
C320 C 0.43096 0.1337 0.36142 0.0
C321 C 0.40018 0.14386 0.36281 0.0
C322 C 0.38514 0.14672 0.39124 0.0
C323 C 0.40159 0.13952 0.41798 0.0
C324 C 0.44637 0.12632 0.38853 0.0
C325 C 0.43175 0.12923 0.41654 0.0
C326 C 0.45903 0.18108 0.23203 0.0
C327 C 0.44768 0.13149 0.33217 0.0
H328 H 0.59798 0.10744 0.13558 0.0
H329 H 0.60447 0.18035 0.06923 0.0
H330 H 0.56195 0.19695 0.15503 0.0
H331 H 0.57748 0.21464 0.10426 0.0
H332 H 0.38806 0.14943 0.34195 0.0
H333 H 0.39138 0.14231 0.44028 0.0
H334 H 0.46991 0.11848 0.38816 0.0
H335 H 0.44398 0.12377 0.43734 0.0
Eu336 Eu 0.6356 0.24239 0.54505 0.0
C337 C 0.72675 0.31925 0.4725 0.0
C338 C 0.74447 0.35483 0.5113 0.0
C339 C 0.77927 0.33831 0.47141 0.0
C340 C 0.72138 0.33571 0.49904 0.0
C341 C 0.75548 0.32122 0.45789 0.0
C342 C 0.77376 0.35512 0.49803 0.0
C343 C 0.73381 0.29304 0.41549 0.0
N344 N 0.70312 0.30357 0.45953 0.0
C345 C 0.70563 0.29212 0.43062 0.0
C346 C 0.75902 0.30713 0.42944 0.0
Eu347 Eu 0.65772 0.30076 0.48871 0.0
N348 N 0.69284 0.33509 0.51138 0.0
C349 C 0.68475 0.35566 0.53338 0.0
C350 C 0.73702 0.37416 0.53561 0.0
C351 C 0.70682 0.37518 0.54612 0.0
H352 H 0.68621 0.28128 0.41966 0.0
H353 H 0.70054 0.39083 0.56415 0.0
H354 H 0.79195 0.36924 0.50748 0.0
H355 H 0.73603 0.28299 0.39305 0.0
H356 H 0.66153 0.35661 0.54174 0.0
H357 H 0.59784 0.13657 0.48993 0.0
H358 H 0.75411 0.38924 0.54559 0.0
H359 H 0.60694 0.27568 0.60712 0.0
H360 H 0.63455 0.17664 0.50483 0.0
H361 H 0.56166 0.27101 0.6406 0.0
H362 H 0.80164 0.33972 0.46074 0.0
H363 H 0.54562 0.13613 0.51195 0.0
H364 H 0.50905 0.15762 0.55047 0.0
H365 H 0.78076 0.30808 0.41752 0.0
H366 H 0.49986 0.19327 0.59288 0.0
N367 N 0.60233 0.20173 0.53112 0.0
C368 C 0.61133 0.1781 0.51294 0.0
C369 C 0.56136 0.15456 0.5176 0.0
C370 C 0.55348 0.17691 0.53899 0.0
C371 C 0.59075 0.15475 0.50509 0.0
C372 C 0.57483 0.20044 0.54549 0.0
H373 H 0.52035 0.23401 0.62789 0.0
N374 N 0.59129 0.24178 0.57585 0.0
C375 C 0.56346 0.25687 0.62043 0.0
C376 C 0.5694 0.22071 0.56904 0.0
C377 C 0.58902 0.25948 0.60143 0.0
C378 C 0.54014 0.23604 0.6131 0.0
C379 C 0.54285 0.21772 0.58711 0.0
O380 O 0.65068 0.232 0.59193 0.0
O381 O 0.67027 0.27799 0.5323 0.0
O382 O 0.68804 0.25834 0.47878 0.0
O383 O 0.66614 0.22054 0.51012 0.0
O384 O 0.65625 0.27865 0.5767 0.0
O385 O 0.66314 0.202 0.5549 0.0
O386 O 0.61761 0.31921 0.46441 0.0
O387 O 0.62537 0.26173 0.49739 0.0
O388 O 0.59631 0.2757 0.54031 0.0
O389 O 0.62493 0.3181 0.52601 0.0
O390 O 0.6416 0.26877 0.45261 0.0
O391 O 0.65845 0.34649 0.46798 0.0
C392 C 0.67559 0.2902 0.55778 0.0
C393 C 0.65901 0.17936 0.60431 0.0
C394 C 0.66946 0.15127 0.65188 0.0
C395 C 0.67147 0.17837 0.63421 0.0
C396 C 0.65447 0.12561 0.63943 0.0
C397 C 0.64364 0.15343 0.59292 0.0
C398 C 0.64147 0.12682 0.61037 0.0
C399 C 0.68561 0.22949 0.48884 0.0
C400 C 0.66393 0.20646 0.58434 0.0
C401 C 0.52063 0.1956 0.57953 0.0
C402 C 0.52585 0.17534 0.55536 0.0
C403 C 0.62474 0.25143 0.46978 0.0
C404 C 0.62595 0.35706 0.42603 0.0
C405 C 0.61629 0.38764 0.42142 0.0
C406 C 0.6119 0.3994 0.39158 0.0
C407 C 0.61774 0.37994 0.36668 0.0
C408 C 0.6315 0.33839 0.4007 0.0
C409 C 0.62741 0.34982 0.37126 0.0
C410 C 0.59916 0.30556 0.53645 0.0
C411 C 0.6307 0.34506 0.45727 0.0
H412 H 0.68326 0.19827 0.64336 0.0
H413 H 0.65227 0.10466 0.65252 0.0
H414 H 0.63367 0.15348 0.57029 0.0
H415 H 0.62975 0.10692 0.60123 0.0
H416 H 0.612 0.40208 0.44104 0.0
H417 H 0.61545 0.38816 0.34349 0.0
H418 H 0.63909 0.31501 0.4037 0.0
H419 H 0.63195 0.33529 0.35181 0.0
Eu420 Eu 0.97485 0.40182 0.74234 0.0
C421 C 0.02469 0.3121 0.83812 0.0
C422 C 0.9851 0.31416 0.87688 0.0
C423 C 0.01827 0.26984 0.87383 0.0
C424 C 1.00083 0.32769 0.85209 0.0
C425 C 0.0337 0.28306 0.84904 0.0
C426 C 0.99387 0.28522 0.88752 0.0
C427 C 0.07493 0.28331 0.81242 0.0
N428 N 0.04035 0.32596 0.81517 0.0
C429 C 0.06605 0.31253 0.80322 0.0
C430 C 0.05857 0.2684 0.83533 0.0
Eu431 Eu 0.026 0.37691 0.80334 0.0
N432 N 0.99363 0.35635 0.8423 0.0
C433 C 0.97142 0.37275 0.85716 0.0
C434 C 0.96158 0.33043 0.89101 0.0
C435 C 0.95485 0.3599 0.88119 0.0
H436 H 0.0802 0.32468 0.78693 0.0
H437 H 0.93684 0.37284 0.89214 0.0
H438 H 0.9821 0.27463 0.90658 0.0
H439 H 0.0949 0.27267 0.80242 0.0
H440 H 0.96496 0.39535 0.85017 0.0
H441 H 0.04233 0.43765 0.64413 0.0
H442 H 0.94884 0.32066 0.90988 0.0
H443 H 0.91268 0.43569 0.77298 0.0
H444 H 0.02332 0.40189 0.68312 0.0
H445 H 0.88644 0.4855 0.77074 0.0
H446 H 0.02494 0.24761 0.8825 0.0
H447 H 0.02374 0.49109 0.64308 0.0
H448 H 0.98733 0.53051 0.66345 0.0
H449 H 0.0659 0.24598 0.84291 0.0
H450 H 0.94447 0.54334 0.69751 0.0
N451 N 0.99466 0.43467 0.70452 0.0
C452 C 0.01517 0.42514 0.68318 0.0
C453 C 0.01531 0.47545 0.66036 0.0
C454 C 0.99284 0.48455 0.68119 0.0
C455 C 0.02594 0.44538 0.66092 0.0
C456 C 0.98253 0.46321 0.70307 0.0
H457 H 0.90637 0.52654 0.73719 0.0
N458 N 0.94781 0.44872 0.74177 0.0
C459 C 0.90673 0.48163 0.75711 0.0
C460 C 0.95826 0.47043 0.72211 0.0
C461 C 0.92166 0.45342 0.75831 0.0
C462 C 0.91808 0.50474 0.73816 0.0
C463 C 0.94385 0.49916 0.72 0.0
O464 O 0.92926 0.38227 0.73362 0.0
O465 O 0.9829 0.36599 0.77839 0.0
O466 O 0.03558 0.34577 0.76216 0.0
O467 O 1.00679 0.36694 0.72239 0.0
O468 O 0.9407 0.38741 0.77844 0.0
O469 O 0.96099 0.38638 0.69642 0.0
O470 O 0.06411 0.36921 0.83478 0.0
O471 O 0.02243 0.40967 0.76396 0.0
O472 O 0.98156 0.44223 0.77323 0.0
O473 O 0.99795 0.41897 0.81797 0.0
O474 O 0.0635 0.38676 0.76981 0.0
O475 O 0.04493 0.41439 0.83136 0.0
C476 C 0.95657 0.3656 0.79015 0.0
C477 C 0.90723 0.3889 0.68497 0.0
C478 C 0.85968 0.37813 0.65632 0.0
C479 C 0.88603 0.36767 0.67222 0.0
C480 C 0.8551 0.40981 0.65338 0.0
C481 C 0.90213 0.42029 0.68092 0.0
C482 C 0.87624 0.43062 0.66539 0.0
C483 C 0.02643 0.34686 0.73327 0.0
C484 C 0.93317 0.37864 0.70447 0.0
C485 C 0.95506 0.52102 0.69929 0.0
C486 C 0.97951 0.51373 0.67993 0.0
C487 C 0.04977 0.40722 0.7534 0.0
C488 C 0.09472 0.40965 0.85394 0.0
C489 C 0.10059 0.41628 0.88487 0.0
C490 C 0.13006 0.42578 0.89462 0.0
C491 C 0.15322 0.42912 0.87243 0.0
C492 C 0.11824 0.41282 0.8325 0.0
C493 C 0.14723 0.42293 0.8417 0.0
C494 C 0.98641 0.44259 0.80284 0.0
C495 C 0.06464 0.39696 0.84526 0.0
H496 H 0.88963 0.34332 0.67519 0.0
H497 H 0.83531 0.41852 0.64121 0.0
H498 H 0.91799 0.43692 0.69 0.0
H499 H 0.87252 0.45496 0.66269 0.0
H500 H 0.08219 0.41365 0.90127 0.0
H501 H 0.17636 0.43567 0.87876 0.0
H502 H 0.11436 0.4069 0.80884 0.0
H503 H 0.16538 0.42531 0.82504 0.0
Eu504 Eu 0.89308 0.78813 0.05245 0.0
C505 C 0.79721 0.70591 0.99263 0.0
C506 C 0.78845 0.66826 0.03223 0.0
C507 C 0.7465 0.6833 0.99899 0.0
C508 C 0.808 0.68909 0.01706 0.0
C509 C 0.76652 0.7026 0.98281 0.0
C510 C 0.75748 0.66607 0.0236 0.0
C511 C 0.77871 0.73439 0.93938 0.0
N512 N 0.81723 0.72388 0.97715 0.0
C513 C 0.80897 0.73646 0.94977 0.0
C514 C 0.7572 0.71784 0.9563 0.0
Eu515 Eu 0.86756 0.72831 0.99729 0.0
N516 N 0.83797 0.69201 0.0251 0.0
C517 C 0.85039 0.67286 0.04651 0.0
C518 C 0.80075 0.64972 0.05514 0.0
C519 C 0.83194 0.65175 0.06202 0.0
H520 H 0.8258 0.74849 0.93612 0.0
H521 H 0.84182 0.63709 0.07932 0.0
H522 H 0.74201 0.65057 0.03535 0.0
H523 H 0.7721 0.74526 0.91819 0.0
H524 H 0.87442 0.67369 0.05212 0.0
H525 H 0.93846 0.89077 0.99754 0.0
H526 H 0.7865 0.63328 0.0671 0.0
H527 H 0.92327 0.74637 0.10946 0.0
H528 H 0.89873 0.85362 0.01245 0.0
H529 H 0.97276 0.74106 0.13641 0.0
H530 H 0.72276 0.68075 0.99202 0.0
H531 H 0.99116 0.88606 0.01815 0.0
H532 H 0.02768 0.85909 0.05348 0.0
H533 H 0.7338 0.71596 0.94806 0.0
H534 H 0.0368 0.81887 0.09176 0.0
N535 N 0.92901 0.82633 0.03898 0.0
C536 C 0.9218 0.8505 0.02069 0.0
C537 C 0.97385 0.86929 0.02434 0.0
C538 C 0.98049 0.84569 0.0449 0.0
C539 C 0.94419 0.872 0.0126 0.0
C540 C 0.95715 0.82448 0.05215 0.0
H541 H 0.0164 0.77495 0.12304 0.0
N542 N 0.93889 0.78266 0.08095 0.0
C543 C 0.97009 0.75834 0.11891 0.0
C544 C 0.96219 0.80216 0.074 0.0
C545 C 0.94205 0.76151 0.10372 0.0
C546 C 0.99468 0.77747 0.11124 0.0
C547 C 0.99083 0.79994 0.08877 0.0
O548 O 0.88005 0.80011 0.09936 0.0
O549 O 0.85677 0.75329 0.04048 0.0
O550 O 0.8433 0.77366 0.9841 0.0
O551 O 0.86377 0.81104 0.01698 0.0
O552 O 0.87244 0.75274 0.08469 0.0
O553 O 0.86832 0.83025 0.06192 0.0
O554 O 0.86776 0.70305 0.95412 0.0
O555 O 0.89699 0.76916 1.00506 0.0
O556 O 0.93228 0.75699 0.04096 0.0
O557 O 0.90445 0.71276 0.03161 0.0
O558 O 0.89453 0.75285 0.96083 0.0
O559 O 0.901 0.69208 0.9889 0.0
C560 C 0.85228 0.74156 0.06632 0.0
C561 C 0.87497 0.85325 0.11077 0.0
C562 C 0.86713 0.88206 0.15814 0.0
C563 C 0.86332 0.85504 0.14079 0.0
C564 C 0.88307 0.90691 0.14528 0.0
C565 C 0.89131 0.8783 0.0988 0.0
C566 C 0.89527 0.90489 0.11597 0.0
C567 C 0.84581 0.80246 0.99416 0.0
C568 C 0.86808 0.82625 0.09145 0.0
C569 C 0.01454 0.82031 0.08082 0.0
C570 C 1.00937 0.84316 0.05896 0.0
C571 C 0.90754 0.77287 0.97816 0.0
C572 C 0.88479 0.6517 0.95689 0.0
C573 C 0.90406 0.63519 0.93709 0.0
C574 C 0.89946 0.60342 0.93253 0.0
C575 C 0.87544 0.58868 0.94825 0.0
C576 C 0.86086 0.63635 0.97185 0.0
C577 C 0.85638 0.60505 0.96773 0.0
C578 C 0.93036 0.72703 0.03885 0.0
C579 C 0.88985 0.68472 0.96228 0.0
H580 H 0.85074 0.83583 0.15031 0.0
H581 H 0.8866 0.92779 0.15818 0.0
H582 H 0.90063 0.87759 0.07597 0.0
H583 H 0.90773 0.92413 0.10644 0.0
H584 H 0.92259 0.64699 0.92546 0.0
H585 H 0.87078 0.56454 0.9449 0.0
H586 H 0.84543 0.64849 0.98658 0.0
H587 H 0.8378 0.59348 0.97944 0.0
Eu588 Eu 0.49458 0.63847 0.29822 0.0
C589 C 0.57266 0.5459 0.2251 0.0
C590 C 0.61257 0.53164 0.26075 0.0
C591 C 0.5969 0.49606 0.22102 0.0
C592 C 0.59029 0.55259 0.25046 0.0
C593 C 0.57607 0.51772 0.2098 0.0
C594 C 0.61549 0.50322 0.24613 0.0
C595 C 0.54285 0.53681 0.17003 0.0
N596 N 0.55471 0.56825 0.21345 0.0
C597 C 0.54133 0.56476 0.18539 0.0
C598 C 0.55997 0.51297 0.18253 0.0
Eu599 Eu 0.55259 0.6151 0.24053 0.0
N600 N 0.58839 0.58104 0.26263 0.0
C601 C 0.60963 0.59076 0.28351 0.0
C602 C 0.63253 0.5406 0.28416 0.0
C603 C 0.63139 0.57049 0.29522 0.0
H604 H 0.52901 0.5836 0.17515 0.0
H605 H 0.64744 0.57805 0.31256 0.0
H606 H 0.63249 0.48686 0.2537 0.0
H607 H 0.53134 0.53389 0.14832 0.0
H608 H 0.60952 0.61395 0.29187 0.0
H609 H 0.3966 0.6873 0.23834 0.0
H610 H 0.64976 0.52507 0.2929 0.0
H611 H 0.53035 0.66456 0.3613 0.0
H612 H 0.43181 0.64654 0.25479 0.0
H613 H 0.53071 0.71046 0.39371 0.0
H614 H 0.59984 0.47428 0.2096 0.0
H615 H 0.40085 0.73894 0.2612 0.0
H616 H 0.42477 0.77294 0.30102 0.0
H617 H 0.56183 0.49156 0.17022 0.0
H618 H 0.46014 0.77865 0.34453 0.0
N619 N 0.45831 0.67563 0.28343 0.0
C620 C 0.43496 0.66932 0.26365 0.0
C621 C 0.41702 0.72134 0.26771 0.0
C622 C 0.43917 0.72678 0.29027 0.0
C623 C 0.41453 0.69225 0.25477 0.0
C624 C 0.45981 0.70314 0.29771 0.0
H625 H 0.49804 0.75461 0.38048 0.0
N626 N 0.49872 0.68287 0.32902 0.0
C627 C 0.51656 0.70977 0.37341 0.0
C628 C 0.48018 0.70669 0.3217 0.0
C629 C 0.51637 0.68379 0.35484 0.0
C630 C 0.49814 0.73466 0.3658 0.0
C631 C 0.47983 0.73348 0.33957 0.0
O632 O 0.48674 0.61388 0.34125 0.0
O633 O 0.52997 0.60256 0.28509 0.0
O634 O 0.50766 0.58899 0.22951 0.0
O635 O 0.47114 0.60833 0.26361 0.0
O636 O 0.53215 0.62045 0.32872 0.0
O637 O 0.44835 0.62361 0.31238 0.0
O638 O 0.57497 0.6231 0.19647 0.0
O639 O 0.51149 0.64385 0.24986 0.0
O640 O 0.52838 0.67737 0.29225 0.0
O641 O 0.57031 0.64901 0.27656 0.0
O642 O 0.52792 0.64358 0.20565 0.0
O643 O 0.59252 0.64568 0.23647 0.0
C644 C 0.54333 0.60015 0.31072 0.0
C645 C 0.43978 0.62295 0.36616 0.0
C646 C 0.41356 0.61272 0.41517 0.0
C647 C 0.42801 0.60195 0.38809 0.0
C648 C 0.41266 0.64468 0.41995 0.0
C649 C 0.43656 0.65437 0.37134 0.0
C650 C 0.42354 0.66511 0.39811 0.0
C651 C 0.47922 0.59072 0.24053 0.0
C652 C 0.45705 0.61281 0.33874 0.0
C653 C 0.46038 0.75767 0.33136 0.0
C654 C 0.44027 0.75442 0.30658 0.0
C655 C 0.50756 0.6553 0.22319 0.0
C656 C 0.62848 0.63305 0.19806 0.0
C657 C 0.64698 0.65425 0.18183 0.0
C658 C 0.6774 0.64653 0.17332 0.0
C659 C 0.68853 0.61735 0.1812 0.0
C660 C 0.6405 0.60427 0.20528 0.0
C661 C 0.67027 0.59656 0.19707 0.0
C662 C 0.5581 0.67448 0.28749 0.0
C663 C 0.59671 0.64049 0.20751 0.0
H664 H 0.42991 0.57761 0.3839 0.0
H665 H 0.40368 0.65431 0.44081 0.0
H666 H 0.44449 0.67075 0.3548 0.0
H667 H 0.42205 0.68952 0.40209 0.0
H668 H 0.63787 0.67658 0.17613 0.0
H669 H 0.71131 0.61019 0.17454 0.0
H670 H 0.62679 0.58753 0.21701 0.0
H671 H 0.67915 0.57417 0.20278 0.0
Eu672 Eu 0.2158 0.52659 0.1453 0.0
C673 C 0.26681 0.43655 0.05712 0.0
C674 C 0.22841 0.39605 0.05739 0.0
C675 C 0.25764 0.40612 1.01143 0.0
C676 C 0.24439 0.41986 0.07253 0.0
C677 C 0.27394 0.42937 0.02653 0.0
C678 C 0.23487 0.38961 0.02675 0.0
C679 C 0.3153 0.46622 0.02871 0.0
N680 N 0.28254 0.45884 0.07218 0.0
C681 C 0.30786 0.47213 0.05906 0.0
C682 C 0.29793 0.44511 0.01218 0.0
Eu683 Eu 0.26855 0.46642 0.12387 0.0
N684 N 0.23802 0.42684 0.1021 0.0
C685 C 0.21623 0.41049 0.1177 0.0
C686 C 0.20635 0.37924 0.07344 0.0
C687 C 0.20033 0.38645 0.10374 0.0
H688 H 0.32217 0.48787 0.07188 0.0
H689 H 0.18301 0.37384 0.11627 0.0
H690 H 0.22259 0.37162 0.01478 0.0
H691 H 0.33468 0.47767 0.01822 0.0
H692 H 0.20995 0.41606 0.14063 0.0
H693 H 0.28973 0.60868 0.20484 0.0
H694 H 0.19367 0.36083 0.06257 0.0
H695 H 0.1483 0.49574 0.16726 0.0
H696 H 0.27051 0.58008 0.16059 0.0
H697 H 0.1169 0.49225 0.21421 0.0
H698 H 0.26276 0.40044 0.98794 0.0
H699 H 0.26441 0.603 0.25495 0.0
H700 H 0.2215 0.58067 0.2859 0.0
H701 H 0.3039 0.44034 0.98869 0.0
H702 H 0.17454 0.54933 0.28844 0.0
N703 N 0.23523 0.55704 0.18539 0.0
C704 C 0.25922 0.57703 0.18222 0.0
C705 C 0.2559 0.59011 0.23556 0.0
C706 C 0.23025 0.57087 0.23829 0.0
C707 C 0.27021 0.59346 0.20732 0.0
C708 C 0.22023 0.55436 0.21245 0.0
H709 H 0.13529 0.5166 0.26184 0.0
N710 N 0.18439 0.52072 0.18881 0.0
C711 C 0.1386 0.50442 0.21453 0.0
C712 C 0.19389 0.53619 0.2141 0.0
C713 C 0.15628 0.50648 0.18807 0.0
C714 C 0.14909 0.51821 0.24137 0.0
C715 C 0.17671 0.53478 0.24128 0.0
O716 O 0.17028 0.53587 0.12663 0.0
O717 O 0.2199 0.48146 0.11984 0.0
O718 O 0.27462 0.50933 0.09218 0.0
O719 O 0.25303 0.54972 0.11913 0.0
O720 O 0.20148 0.51867 0.09673 0.0
O721 O 0.20021 0.57378 0.13902 0.0
O722 O 0.3184 0.46363 0.12522 0.0
O723 O 0.26529 0.51248 0.14607 0.0
O724 O 0.21216 0.48761 0.17924 0.0
O725 O 0.24437 0.44756 0.16516 0.0
O726 O 0.28616 0.47952 0.17084 0.0
O727 O 0.29091 0.42266 0.13547 0.0
C728 C 0.20867 0.49047 0.09471 0.0
C729 C 0.14612 0.58218 0.13982 0.0
C730 C 0.0987 0.61014 0.12926 0.0
C731 C 0.12564 0.59569 0.11891 0.0
C732 C 0.09246 0.61053 0.1607 0.0
C733 C 0.13976 0.58374 0.17108 0.0
C734 C 0.11294 0.59752 0.18141 0.0
C735 C 0.26843 0.53903 0.09568 0.0
C736 C 0.17322 0.56555 0.12858 0.0
C737 C 0.18724 0.55043 0.26725 0.0
C738 C 0.21399 0.5683 0.26579 0.0
C739 C 0.28159 0.5085 0.1696 0.0
C740 C 0.34711 0.41785 0.13871 0.0
C741 C 0.34721 0.38732 0.1496 0.0
C742 C 0.37523 0.37297 0.15721 0.0
C743 C 0.40286 0.38917 0.15321 0.0
C744 C 0.37522 0.43327 0.13485 0.0
C745 C 0.40281 0.41898 0.14197 0.0
C746 C 0.22425 0.46036 0.18349 0.0
C747 C 0.31824 0.43492 0.13347 0.0
H748 H 0.13054 0.59477 0.09469 0.0
H749 H 0.07215 0.62173 0.16938 0.0
H750 H 0.15545 0.57445 0.18758 0.0
H751 H 0.10815 0.59839 0.2056 0.0
H752 H 0.32575 0.37513 0.15293 0.0
H753 H 0.42467 0.37857 0.15847 0.0
H754 H 0.37596 0.45668 0.1267 0.0
H755 H 0.42429 0.43115 0.13896 0.0
Eu756 Eu 0.78376 0.06315 0.89124 0.0
C757 C 0.69557 1.00304 0.80331 0.0
C758 C 0.65652 0.04178 0.79568 0.0
C759 C 0.66683 1.00501 0.75561 0.0
C760 C 0.67944 0.02822 0.81405 0.0
C761 C 0.68896 0.99097 0.77409 0.0
C762 C 0.65057 0.03024 0.76644 0.0
C763 C 0.72233 0.94856 0.78524 0.0
N764 N 0.71519 0.9884 0.82244 0.0
C765 C 0.72716 0.96055 0.81434 0.0
C766 C 0.70345 0.96405 0.76485 0.0
Eu767 Eu 0.72181 0.01071 0.8716 0.0
N768 N 0.68398 0.03766 0.84329 0.0
C769 C 0.6652 0.05937 0.85576 0.0
C770 C 0.63905 0.0656 0.80773 0.0
C771 C 0.64313 0.07413 0.83803 0.0
H772 H 0.74089 0.94758 0.8303 0.0
H773 H 0.62905 0.09189 0.84789 0.0
H774 H 0.63304 0.04039 0.75213 0.0
H775 H 0.73269 0.92704 0.77881 0.0
H776 H 0.66701 0.06609 0.87926 0.0
H777 H 0.87234 0.98582 0.93294 0.0
H778 H 0.62153 0.07675 0.79418 0.0
H779 H 0.75462 0.12606 0.92402 0.0
H780 H 0.83667 1.008 0.89506 0.0
H781 H 0.7569 0.15292 0.97351 0.0
H782 H 0.66154 0.99605 0.73316 0.0
H783 H 0.87587 1.00783 0.98462 0.0
H784 H 0.8592 0.04823 0.02183 0.0
H785 H 0.6991 0.9543 0.74252 0.0
H786 H 0.82802 0.09375 0.03286 0.0
N787 N 0.81972 0.04174 0.92542 0.0
C788 C 0.83806 0.01782 0.91756 0.0
C789 C 0.86021 0.0177 0.96813 0.0
C790 C 0.84223 0.04304 0.97561 0.0
C791 C 0.85833 1.00523 0.93889 0.0
C792 C 0.82208 0.05482 0.95338 0.0
H793 H 0.78985 0.13298 0.01498 0.0
N794 N 0.78558 0.09103 0.93755 0.0
C795 C 0.77041 0.13252 0.96991 0.0
C796 C 0.8047 0.08045 0.95957 0.0
C797 C 0.76923 0.1173 0.94189 0.0
C798 C 0.78903 0.12118 0.99326 0.0
C799 C 0.80669 0.09499 0.98818 0.0
O800 O 0.79672 0.1092 0.87556 0.0
O801 O 0.74577 0.05365 0.85761 0.0
O802 O 0.76528 0.99605 0.84425 0.0
O803 O 0.80327 0.03235 0.85542 0.0
O804 O 0.7477 0.09708 0.8754 0.0
O805 O 0.82813 0.0715 0.87006 0.0
O806 O 0.70479 0.96344 0.87493 0.0
O807 O 0.76859 0.01362 0.89265 0.0
O808 O 0.7528 0.05706 0.93164 0.0
O809 O 0.70739 0.04697 0.90639 0.0
O810 O 0.73691 0.99023 0.91664 0.0
O811 O 0.68101 1.00007 0.89818 0.0
C812 C 0.73424 0.07997 0.85559 0.0
C813 C 0.84997 0.12111 0.87465 0.0
C814 C 0.87924 0.16798 0.86499 0.0
C815 C 0.85283 0.14987 0.86031 0.0
C816 C 0.90249 0.15726 0.8844 0.0
C817 C 0.87314 0.11121 0.89462 0.0
C818 C 0.89926 0.12921 0.89935 0.0
C819 C 0.79313 1.00836 0.84027 0.0
C820 C 0.82395 0.10085 0.86687 0.0
C821 C 0.82626 0.08301 1.01066 0.0
C822 C 0.84399 0.05707 1.00438 0.0
C823 C 0.76564 0.99639 0.91574 0.0
C824 C 0.65083 0.95843 0.88215 0.0
C825 C 0.63359 0.94073 0.90283 0.0
C826 C 0.6036 0.931 0.89524 0.0
C827 C 0.5913 0.93909 0.86669 0.0
C828 C 0.63806 0.96598 0.8538 0.0
C829 C 0.6085 0.95637 0.84613 0.0
C830 C 0.72274 0.05543 0.93103 0.0
C831 C 0.68092 0.97102 0.89124 0.0
H832 H 0.83493 0.15782 0.84506 0.0
H833 H 0.92291 0.17093 0.88848 0.0
H834 H 0.87133 0.08934 0.90616 0.0
H835 H 0.91717 0.12131 0.91453 0.0
H836 H 0.64321 0.93511 0.92496 0.0
H837 H 0.56852 0.93159 0.86003 0.0
H838 H 0.6507 0.97957 0.83771 0.0
H839 H 0.59887 0.96242 0.82418 0.0
Eu840 Eu 0.75096 0.9653 0.39607 0.0
C841 C 0.85446 0.01152 0.31993 0.0
C842 C 0.89179 0.9712 0.32785 0.0
C843 C 0.89243 1.00033 0.28081 0.0
C844 C 0.86696 0.98894 0.33857 0.0
C845 C 0.8675 0.01763 0.29104 0.0
C846 C 0.90424 0.97692 0.29895 0.0
C847 C 0.83166 0.059 0.28471 0.0
N848 N 0.83033 0.02818 0.33015 0.0
C849 C 0.81989 0.05262 0.31357 0.0
C850 C 0.85546 0.04132 0.27329 0.0
Eu851 Eu 0.81405 0.01795 0.38059 0.0
N852 N 0.8549 0.98402 0.36682 0.0
C853 C 0.8667 0.96127 0.38498 0.0
C854 C 0.90365 0.94817 0.34646 0.0
C855 C 0.89101 0.94318 0.37508 0.0
H856 H 0.80289 0.06798 0.32268 0.0
H857 H 0.89979 0.92512 0.38954 0.0
H858 H 0.92328 0.96352 0.29051 0.0
H859 H 0.82281 0.07802 0.27159 0.0
H860 H 0.85728 0.95548 0.40678 0.0
H861 H 0.66489 0.04796 0.43194 0.0
H862 H 0.92251 0.93401 0.33888 0.0
H863 H 0.76988 0.89839 0.42751 0.0
H864 H 0.70126 0.02365 0.39651 0.0
H865 H 0.75991 0.8693 0.47497 0.0
H866 H 0.90261 1.00473 0.2587 0.0
H867 H 0.65665 0.02591 0.48331 0.0
H868 H 0.66719 0.98339 0.52064 0.0
H869 H 0.86479 0.04651 0.25098 0.0
H870 H 0.69259 0.93447 0.53214 0.0
N871 N 0.71461 0.98912 0.42799 0.0
C872 C 0.69801 0.01392 0.41891 0.0
C873 C 0.67283 0.01528 0.46791 0.0
C874 C 0.68847 0.98863 0.47629 0.0
C875 C 0.67733 0.02774 0.43891 0.0
C876 C 0.70948 0.97591 0.45551 0.0
H877 H 0.72678 0.89145 0.51502 0.0
N878 N 0.74339 0.93673 0.44119 0.0
C879 C 0.74979 0.89164 0.47173 0.0
C880 C 0.72394 0.94859 0.46214 0.0
C881 C 0.75541 0.90812 0.44495 0.0
C882 C 0.73108 0.90424 0.49428 0.0
C883 C 0.71759 0.9329 0.4895 0.0
O884 O 0.73949 0.92068 0.3758 0.0
O885 O 0.78966 0.97614 0.3641 0.0
O886 O 0.77341 0.03133 0.34916 0.0
O887 O 0.73433 0.99606 0.35913 0.0
O888 O 0.78766 0.93205 0.38121 0.0
O889 O 0.70593 0.95663 0.37587 0.0
O890 O 0.81823 0.06784 0.37939 0.0
O891 O 0.76644 0.01479 0.39923 0.0
O892 O 0.78188 0.96426 0.4375 0.0
O893 O 0.82565 0.99223 0.42394 0.0
O894 O 0.79803 0.03541 0.42657 0.0
O895 O 0.85691 0.04015 0.39557 0.0
C896 C 0.80111 0.94981 0.36194 0.0
C897 C 0.68742 0.90574 0.37934 0.0
C898 C 0.65719 0.85936 0.3696 0.0
C899 C 0.68109 0.87965 0.36138 0.0
C900 C 0.64025 0.86524 0.3962 0.0
C901 C 0.67035 0.91084 0.40596 0.0
C902 C 0.64696 0.89066 0.4143 0.0
C903 C 0.74543 0.01974 0.34419 0.0
C904 C 0.71122 0.92794 0.36991 0.0
C905 C 0.69754 0.94599 0.51081 0.0
C906 C 0.68309 0.97386 0.50426 0.0
C907 C 0.76899 0.03111 0.42312 0.0
C908 C 0.864 0.0959 0.39605 0.0
C909 C 0.89446 0.09522 0.40741 0.0
C910 C 0.91013 0.12279 0.41449 0.0
C911 C 0.89509 0.15077 0.40957 0.0
C912 C 0.84979 0.12429 0.39142 0.0
C913 C 0.86527 0.15145 0.39809 0.0
C914 C 0.81003 0.97426 0.44274 0.0
C915 C 0.84607 0.06749 0.39051 0.0
H916 H 0.69422 0.87554 0.34082 0.0
H917 H 0.62199 0.84989 0.40324 0.0
H918 H 0.67483 0.93061 0.42016 0.0
H919 H 0.63386 0.89483 0.43481 0.0
H920 H 0.90569 0.07347 0.41127 0.0
H921 H 0.90662 0.17232 0.41415 0.0
H922 H 0.82647 0.12558 0.38291 0.0
H923 H 0.85404 0.17319 0.3944 0.0
Eu924 Eu 0.30422 0.49053 0.6484 0.0
C925 C 0.24562 0.58729 0.56443 0.0
C926 C 0.27543 0.63274 0.57666 0.0
C927 C 0.2436 0.6318 0.53112 0.0
C928 C 0.26492 0.6031 0.58421 0.0
C929 C 0.23529 0.60133 0.53735 0.0
C930 C 0.26387 0.64737 0.55058 0.0
C931 C 0.20998 0.55389 0.52404 0.0
N932 N 0.23784 0.5579 0.5712 0.0
C933 C 0.21995 0.5412 0.55156 0.0
C934 C 0.2174 0.58417 0.51703 0.0
Eu935 Eu 0.24621 0.54511 0.62289 0.0
N936 N 0.27635 0.58802 0.60877 0.0
C937 C 0.30014 0.60022 0.62524 0.0
C938 C 0.29845 0.64613 0.59463 0.0
C939 C 0.3114 0.62945 0.61851 0.0
H940 H 0.21166 0.51869 0.55735 0.0
H941 H 0.33002 0.63911 0.63182 0.0
H942 H 0.27136 0.6703 0.54464 0.0
H943 H 0.19571 0.54059 0.50868 0.0
H944 H 0.31092 0.5876 0.64339 0.0
H945 H 0.24252 0.4026 0.7122 0.0
H946 H 0.30732 0.66873 0.5894 0.0
H947 H 0.36777 0.53037 0.66763 0.0
H948 H 0.25559 0.43412 0.66765 0.0
H949 H 0.40227 0.53658 0.71184 0.0
H950 H 0.2356 0.64305 0.51058 0.0
H951 H 0.27268 0.4079 0.75983 0.0
H952 H 0.31703 0.43233 0.78752 0.0
H953 H 0.20924 0.59406 0.49586 0.0
H954 H 0.36072 0.46829 0.78724 0.0
N955 N 0.29129 0.45849 0.68989 0.0
C956 C 0.2684 0.43719 0.68829 0.0
C957 C 0.27823 0.42209 0.74032 0.0
C958 C 0.30272 0.44292 0.74136 0.0
C959 C 0.26116 0.41903 0.71352 0.0
C960 C 0.30884 0.46097 0.71538 0.0
H961 H 0.39268 0.5072 0.75915 0.0
N962 N 0.33849 0.49819 0.68983 0.0
C963 C 0.38295 0.52096 0.71312 0.0
C964 C 0.33349 0.48106 0.71522 0.0
C965 C 0.36333 0.51737 0.68809 0.0
C966 C 0.37746 0.50432 0.73977 0.0
C967 C 0.3526 0.48393 0.74102 0.0
O968 O 0.34868 0.47922 0.62825 0.0
O969 O 0.28931 0.52103 0.60889 0.0
O970 O 0.23476 0.49794 0.60003 0.0
O971 O 0.26862 0.46326 0.62307 0.0
O972 O 0.33333 0.52603 0.62369 0.0
O973 O 0.31448 0.44383 0.63357 0.0
O974 O 0.19896 0.55693 0.61292 0.0
O975 O 0.25558 0.50689 0.65489 0.0
O976 O 0.30026 0.52502 0.68641 0.0
O977 O 0.26862 0.56342 0.66691 0.0
O978 O 0.21089 0.52271 0.65162 0.0
O979 O 0.22506 0.58434 0.6465 0.0
C980 C 0.31459 0.53399 0.60245 0.0
C981 C 0.36697 0.42887 0.63466 0.0
C982 C 0.41448 0.40103 0.62349 0.0
C983 C 0.39159 0.42216 0.61478 0.0
C984 C 0.41252 0.38732 0.65249 0.0
C985 C 0.36587 0.41499 0.66348 0.0
C986 C 0.38852 0.39437 0.67227 0.0
C987 C 0.24567 0.46962 0.60454 0.0
C988 C 0.34254 0.45024 0.62522 0.0
C989 C 0.34635 0.46636 0.76713 0.0
C990 C 0.32144 0.44593 0.76731 0.0
C991 C 0.22824 0.50372 0.66568 0.0
C992 C 0.1712 0.59857 0.63698 0.0
C993 C 0.17198 0.62718 0.65225 0.0
C994 C 0.14457 0.64398 0.65645 0.0
C995 C 0.1167 0.63118 0.64605 0.0
C996 C 0.14299 0.58699 0.62648 0.0
C997 C 0.11602 0.60312 0.63112 0.0
C998 C 0.28698 0.55194 0.68819 0.0
C999 C 0.19899 0.5798 0.63224 0.0
H1000 H 0.39261 0.43291 0.59252 0.0
H1001 H 0.42987 0.37137 0.66013 0.0
H1002 H 0.34741 0.41998 0.67916 0.0
H1003 H 0.38747 0.38374 0.69455 0.0
H1004 H 0.19364 0.63646 0.66029 0.0
H1005 H 0.09511 0.64278 0.64968 0.0
H1006 H 0.14162 0.56508 0.61497 0.0
H1007 H 0.09438 0.59373 0.62322 0.0
H1008 H 0.213 0.32019 0.50226 0.0
H1009 H 0.15208 0.29133 0.5737 0.0
H1010 H 0.16856 0.33444 0.60555 0.0
H1011 H 0.27299 0.36172 0.54743 0.0
H1012 H 0.27432 0.39312 0.52076 0.0
H1013 H 0.26513 0.35507 0.50758 0.0
H1014 H 0.21468 0.37552 0.48389 0.0
H1015 H 0.22338 0.41348 0.49755 0.0
H1016 H 0.18765 0.39529 0.50784 0.0
H1017 H 0.19117 0.38165 0.6284 0.0
H1018 H 0.21339 0.43129 0.63977 0.0
H1019 H 0.24729 0.44021 0.54795 0.0
C1020 C 0.20489 0.3218 0.52555 0.0
C1021 C 0.18378 0.29971 0.53715 0.0
C1022 C 0.17109 0.30488 0.56616 0.0
C1023 C 0.17954 0.33037 0.58381 0.0
C1024 C 0.19942 0.35198 0.57118 0.0
C1025 C 0.21158 0.34837 0.54247 0.0
C1026 C 0.22788 0.37761 0.53214 0.0
C1027 C 0.26212 0.37152 0.52665 0.0
C1028 C 0.21247 0.39126 0.50366 0.0
C1029 C 0.22313 0.39815 0.55971 0.0
C1030 C 0.20709 0.3824 0.58198 0.0
C1031 C 0.20214 0.39483 0.61053 0.0
C1032 C 0.21386 0.42397 0.61657 0.0
C1033 C 0.22867 0.44187 0.594 0.0
C1034 C 0.23383 0.42837 0.56505 0.0
H1035 H 0.83052 0.96307 0.86069 0.0
H1036 H 0.8135 0.02298 0.78401 0.0
H1037 H 0.86574 0.01255 0.76465 0.0
H1038 H 0.90361 0.98443 0.87593 0.0
H1039 H 0.91951 0.94731 0.88439 0.0
H1040 H 0.87927 0.95409 0.89022 0.0
H1041 H 0.86351 0.90973 0.85574 0.0
H1042 H 0.90335 0.90061 0.85033 0.0
H1043 H 0.87907 0.90704 0.81776 0.0
H1044 H 0.92113 0.99915 0.75634 0.0
H1045 H 0.97283 0.97659 0.75433 0.0
H1046 H 0.95531 0.92942 0.83963 0.0
C1047 C 0.83695 0.97244 0.83887 0.0
C1048 C 0.81729 0.99265 0.823 0.0
C1049 C 0.82765 1.0063 0.79565 0.0
C1050 C 0.85749 1.00096 0.78487 0.0
C1051 C 0.87676 0.98204 0.80188 0.0
C1052 C 0.86669 0.96741 0.82793 0.0
C1053 C 0.89225 0.94883 0.84243 0.0
C1054 C 0.89907 0.95937 0.87519 0.0
C1055 C 0.88407 0.91453 0.8415 0.0
C1056 C 0.91867 0.95636 0.82115 0.0
C1057 C 0.90908 0.97531 0.79778 0.0
C1058 C 0.92887 0.98434 0.77456 0.0
C1059 C 0.95848 0.97193 0.77398 0.0
C1060 C 0.96832 0.95092 0.79658 0.0
C1061 C 0.94866 0.94467 0.82151 0.0
H1062 H 0.34794 0.70057 0.08481 0.0
H1063 H 0.30167 0.7124 0.99802 0.0
H1064 H 0.27851 0.66097 1.00295 0.0
H1065 H 0.36782 0.62138 0.06963 0.0
H1066 H 0.36416 0.60993 0.10901 0.0
H1067 H 0.37493 0.6484 0.09949 0.0
H1068 H 0.32886 0.66852 0.13213 0.0
H1069 H 0.31852 0.62956 0.14095 0.0
H1070 H 0.29075 0.6546 0.12358 0.0
H1071 H 0.26535 0.60565 0.01422 0.0
H1072 H 0.25478 0.55461 0.03711 0.0
H1073 H 0.31114 0.57903 0.11486 0.0
C1074 C 0.3324 0.69268 0.06724 0.0
C1075 C 0.32642 0.71055 0.04107 0.0
C1076 C 0.30589 0.69928 0.01859 0.0
C1077 C 0.29314 0.66988 0.02087 0.0
C1078 C 0.30138 0.65188 0.04569 0.0
C1079 C 0.32016 0.66295 0.06875 0.0
C1080 C 0.32636 0.63835 0.09231 0.0
C1081 C 0.36032 0.62898 0.09263 0.0
C1082 C 0.31545 0.64834 0.12412 0.0
C1083 C 0.30724 0.61247 0.07951 0.0
C1084 C 0.29376 0.62022 0.05213 0.0
C1085 C 0.27588 0.5993 0.03567 0.0
C1086 C 0.27055 0.57019 0.0484 0.0
C1087 C 0.28316 0.56258 0.07708 0.0
C1088 C 0.30228 0.58375 0.09232 0.0
H1089 H 0.57279 0.05172 0.29243 0.0
H1090 H 0.59937 0.14767 0.29055 0.0
H1091 H 0.65177 0.13454 0.30443 0.0
H1092 H 0.62401 0.03395 0.35935 0.0
H1093 H 0.6329 0.9963 0.34522 0.0
H1094 H 0.59622 0.01324 0.33677 0.0
H1095 H 0.60613 1.00525 0.27899 0.0
H1096 H 0.64307 0.98884 0.28729 0.0
H1097 H 0.6403 0.02129 0.26203 0.0
H1098 H 0.70267 0.11177 0.31254 0.0
H1099 H 0.7475 0.08029 0.32622 0.0
H1100 H 0.68914 0.99923 0.32553 0.0
C1101 C 0.58948 0.06986 0.29582 0.0
C1102 C 0.58194 0.10065 0.28988 0.0
C1103 C 0.60455 0.12382 0.29441 0.0
C1104 C 0.63458 0.11668 0.30228 0.0
C1105 C 0.64186 0.08619 0.30623 0.0
C1106 C 0.61996 0.06314 0.30421 0.0
C1107 C 0.63447 0.03232 0.31043 0.0
C1108 C 0.62112 0.01811 0.33968 0.0
C1109 C 0.63076 0.01065 0.28304 0.0
C1110 C 0.66778 0.04186 0.31482 0.0
C1111 C 0.6715 0.07303 0.31222 0.0
C1112 C 0.70014 0.08724 0.31508 0.0
C1113 C 0.72559 0.06914 0.32246 0.0
C1114 C 0.72197 0.03734 0.32733 0.0
C1115 C 0.69283 0.02353 0.32214 0.0
H1116 H 0.70313 0.17526 0.5143 0.0
H1117 H 0.70242 0.22454 0.42839 0.0
H1118 H 0.72002 0.17762 0.40201 0.0
H1119 H 0.7706 0.12991 0.49988 0.0
H1120 H 0.75555 0.09642 0.5188 0.0
H1121 H 0.74351 0.13396 0.53062 0.0
H1122 H 0.68673 0.11813 0.52204 0.0
H1123 H 0.69859 0.08064 0.50974 0.0
H1124 H 0.67491 0.10382 0.48526 0.0
H1125 H 0.73583 0.12478 0.38507 0.0
H1126 H 0.75536 0.07289 0.37931 0.0
H1127 H 0.74591 0.05675 0.47608 0.0
C1128 C 0.70714 0.17642 0.48997 0.0
C1129 C 0.70177 0.20387 0.47344 0.0
C1130 C 0.70707 0.20418 0.44164 0.0
C1131 C 0.7166 0.17744 0.42645 0.0
C1132 C 0.72075 0.15061 0.44339 0.0
C1133 C 0.71664 0.15004 0.47454 0.0
C1134 C 0.72312 0.11842 0.48758 0.0
C1135 C 0.74979 0.11976 0.51058 0.0
C1136 C 0.69411 0.10444 0.50202 0.0
C1137 C 0.73202 0.10119 0.45891 0.0
C1138 C 0.72988 0.12014 0.43367 0.0
C1139 C 0.73716 0.10975 0.40467 0.0
C1140 C 0.74771 0.0797 0.40145 0.0
C1141 C 0.75096 0.05985 0.42682 0.0
C1142 C 0.74284 0.07091 0.45604 0.0
H1143 H 0.07321 0.41838 0.6961 0.0
H1144 H 0.07812 0.44895 0.7897 0.0
H1145 H 0.13019 0.46974 0.78009 0.0
H1146 H 0.14245 0.39924 0.67916 0.0
H1147 H 0.1478 0.41828 0.64301 0.0
H1148 H 0.10983 0.40826 0.65522 0.0
H1149 H 0.09043 0.46327 0.65157 0.0
H1150 H 0.12711 0.47368 0.63602 0.0
H1151 H 0.11231 0.49382 0.66868 0.0
H1152 H 0.18701 0.48013 0.75984 0.0
H1153 H 0.23215 0.49545 0.72838 0.0
H1154 H 0.18181 0.46944 0.64756 0.0
C1155 C 0.0835 0.43182 0.714 0.0
C1156 C 0.07053 0.43261 0.74351 0.0
C1157 C 0.08702 0.4485 0.76667 0.0
C1158 C 0.11699 0.45992 0.76154 0.0
C1159 C 0.12965 0.45711 0.73247 0.0
C1160 C 0.11226 0.44551 0.70865 0.0
C1161 C 0.12954 0.44773 0.67885 0.0
C1162 C 0.13262 0.41643 0.66323 0.0
C1163 C 0.11395 0.47101 0.65755 0.0
C1164 C 0.16028 0.45962 0.68994 0.0
C1165 C 0.16043 0.46476 0.72092 0.0
C1166 C 0.18686 0.47619 0.73547 0.0
C1167 C 0.21282 0.48421 0.71753 0.0
C1168 C 0.2121 0.48117 0.68535 0.0
C1169 C 0.18511 0.4687 0.67204 0.0
H1170 H 0.79398 0.97636 0.96831 0.0
H1171 H 0.77489 0.95117 0.87474 0.0
H1172 H 0.79494 0.89985 0.88375 0.0
H1173 H 0.86468 0.92797 0.97702 0.0
H1174 H 0.85516 0.91751 0.01565 0.0
H1175 H 0.84367 0.9542 1.00075 0.0
H1176 H 0.78716 0.94214 0.01464 0.0
H1177 H 0.79828 0.90534 0.02936 0.0
H1178 H 0.76933 0.90778 1.00004 0.0
H1179 H 0.81126 0.84885 0.90414 0.0
H1180 H 0.82736 0.80356 0.93393 0.0
H1181 H 0.83435 0.86037 0.0149 0.0
C1182 C 0.79541 0.96041 0.94947 0.0
C1183 C 0.78473 0.96871 0.92016 0.0
C1184 C 0.78492 0.94641 0.89668 0.0
C1185 C 0.79581 0.91677 0.90176 0.0
C1186 C 0.80589 0.90919 0.93083 0.0
C1187 C 0.80617 0.93041 0.95428 0.0
C1188 C 0.81633 0.91554 0.98388 0.0
C1189 C 0.84677 0.92963 0.99498 0.0
C1190 C 0.79127 0.91785 1.00842 0.0
C1191 C 0.82057 0.88265 0.9735 0.0
C1192 C 0.81459 0.87947 0.94278 0.0
C1193 C 0.8162 0.85106 0.92824 0.0
C1194 C 0.82488 0.8253 0.94543 0.0
C1195 C 0.83176 0.82811 0.97685 0.0
C1196 C 0.82917 0.85725 0.99093 0.0
H1197 H 0.42405 0.57329 0.26459 0.0
H1198 H 0.47464 0.57632 0.17952 0.0
H1199 H 0.42801 0.55951 0.15181 0.0
H1200 H 0.37918 0.50605 0.24747 0.0
H1201 H 0.34524 0.52004 0.2662 0.0
H1202 H 0.38261 0.53232 0.27901 0.0
H1203 H 0.36653 0.58896 0.27164 0.0
H1204 H 0.3292 0.57681 0.25839 0.0
H1205 H 0.35263 0.60141 0.23493 0.0
H1206 H 0.3753 0.54394 0.13341 0.0
H1207 H 0.32298 0.52408 0.12615 0.0
H1208 H 0.30637 0.5301 0.2233 0.0
C1209 C 0.42552 0.56999 0.24016 0.0
C1210 C 0.45328 0.5757 0.22427 0.0
C1211 C 0.45403 0.57132 0.19231 0.0
C1212 C 0.42746 0.56227 0.17633 0.0
C1213 C 0.40036 0.55756 0.19268 0.0
C1214 C 0.39933 0.56082 0.22395 0.0
C1215 C 0.36757 0.55354 0.23627 0.0
C1216 C 0.36872 0.52637 0.25855 0.0
C1217 C 0.35315 0.58187 0.2512 0.0
C1218 C 0.35088 0.54517 0.20708 0.0
C1219 C 0.37009 0.54829 0.18216 0.0
C1220 C 0.36007 0.54168 0.15275 0.0
C1221 C 0.33003 0.53079 0.14882 0.0
C1222 C 0.31009 0.52663 0.174 0.0
C1223 C 0.32075 0.53397 0.20354 0.0
H1224 H 0.5236 0.23269 0.32095 0.0
H1225 H 0.54552 0.13657 0.32473 0.0
H1226 H 0.57487 0.144 0.3711 0.0
H1227 H 0.59346 0.26291 0.35906 0.0
H1228 H 0.57255 0.2904 0.38139 0.0
H1229 H 0.55811 0.27862 0.34465 0.0
H1230 H 0.50662 0.26287 0.36989 0.0
H1231 H 0.52122 0.27399 0.40679 0.0
H1232 H 0.50679 0.23569 0.40085 0.0
H1233 H 0.60585 0.16315 0.41555 0.0
H1234 H 0.63102 0.19152 0.45677 0.0
H1235 H 0.57593 0.2707 0.4371 0.0
C1236 C 0.53557 0.21351 0.33102 0.0
C1237 C 0.53519 0.18442 0.31646 0.0
C1238 C 0.54892 0.1596 0.33215 0.0
C1239 C 0.56475 0.16349 0.35968 0.0
C1240 C 0.56507 0.19224 0.37306 0.0
C1241 C 0.55038 0.21679 0.35969 0.0
C1242 C 0.55199 0.24447 0.38081 0.0
C1243 C 0.5701 0.27065 0.36558 0.0
C1244 C 0.51972 0.25487 0.39013 0.0
C1245 C 0.5695 0.23133 0.40802 0.0
C1246 C 0.57745 0.20134 0.40253 0.0
C1247 C 0.59796 0.18585 0.4214 0.0
C1248 C 0.6112 0.20163 0.44606 0.0
C1249 C 0.6021 0.23169 0.45378 0.0
C1250 C 0.58074 0.24657 0.43417 0.0
H1251 H 0.05141 0.25001 0.58151 0.0
H1252 H 0.11063 0.32509 0.5539 0.0
H1253 H 0.10479 0.34871 0.60465 0.0
H1254 H 0.99785 0.30302 0.6221 0.0
H1255 H 0.98812 0.27458 0.65033 0.0
H1256 H 0.99818 0.26296 0.61223 0.0
H1257 H 0.04064 0.22797 0.63462 0.0
H1258 H 0.03125 0.24019 0.67272 0.0
H1259 H 0.06989 0.24447 0.65875 0.0
H1260 H 0.10194 0.35627 0.6616 0.0
H1261 H 0.08117 0.3663 0.71295 0.0
H1262 H 0.01253 0.29549 0.69937 0.0
C1263 C 0.06226 0.27194 0.58587 0.0
C1264 C 0.08254 0.28515 0.56442 0.0
C1265 C 0.09571 0.3142 0.57044 0.0
C1266 C 0.09286 0.32758 0.59929 0.0
C1267 C 0.07485 0.31264 0.6209 0.0
C1268 C 0.05797 0.28676 0.61386 0.0
C1269 C 0.03724 0.27771 0.64017 0.0
C1270 C 1.00333 0.2797 0.63065 0.0
C1271 C 0.04524 0.24568 0.65226 0.0
C1272 C 0.04567 0.3022 0.66326 0.0
C1273 C 0.06862 0.321 0.65208 0.0
C1274 C 0.08276 0.3431 0.6701 0.0
C1275 C 0.07116 0.34819 0.69936 0.0
C1276 C 0.04503 0.33202 0.70978 0.0
C1277 C 0.03264 0.30806 0.69191 0.0
H1278 H 0.01601 0.79818 0.839 0.0
H1279 H 0.97441 0.88648 0.82746 0.0
H1280 H 0.94613 0.88029 0.87572 0.0
H1281 H 0.95088 0.75961 0.87439 0.0
H1282 H 0.97445 0.73843 0.90075 0.0
H1283 H 0.9897 0.74981 0.86432 0.0
H1284 H 0.03501 0.77699 0.8918 0.0
H1285 H 0.01949 0.76628 0.92839 0.0
H1286 H 0.02711 0.80599 0.91992 0.0
H1287 H 0.91807 0.8614 0.92241 0.0
H1288 H 0.89514 0.83258 0.96477 0.0
H1289 H 0.96151 0.76063 0.95246 0.0
C1290 C 1.00012 0.81573 0.84616 0.0
C1291 C 0.99604 0.84253 0.82841 0.0
C1292 C 0.97655 0.86554 0.83975 0.0
C1293 C 0.96062 0.86216 0.8673 0.0
C1294 C 0.96507 0.83563 0.88415 0.0
C1295 C 0.9845 0.81284 0.87416 0.0
C1296 C 0.98619 0.78719 0.89745 0.0
C1297 C 0.97461 0.75697 0.88341 0.0
C1298 C 0.01891 0.78393 0.91013 0.0
C1299 C 0.96438 0.79899 0.92179 0.0
C1300 C 0.95224 0.82689 0.91349 0.0
C1301 C 0.92852 0.8403 0.93004 0.0
C1302 C 0.91612 0.82419 0.95493 0.0
C1303 C 0.9283 0.7957 0.96424 0.0
C1304 C 0.95335 0.78354 0.94766 0.0
H1305 H 0.51587 0.71117 0.19878 0.0
H1306 H 0.44974 0.63774 0.2068 0.0
H1307 H 0.42076 0.65846 0.16351 0.0
H1308 H 0.46433 0.77232 0.16524 0.0
H1309 H 0.49374 0.78446 0.13899 0.0
H1310 H 0.50422 0.76932 0.17582 0.0
H1311 H 0.53842 0.72903 0.14913 0.0
H1312 H 0.52738 0.74344 0.11225 0.0
H1313 H 0.52149 0.7036 0.12134 0.0
H1314 H 0.40098 0.68604 0.11703 0.0
H1315 H 0.39432 0.71247 0.06764 0.0
H1316 H 0.4775 0.76399 0.08418 0.0
C1317 C 0.49395 0.70091 0.1929 0.0
C1318 C 0.48348 0.67441 0.20872 0.0
C1319 C 0.45665 0.65964 0.19768 0.0
C1320 C 0.44043 0.67091 0.17228 0.0
C1321 C 0.45207 0.69635 0.1568 0.0
C1322 C 0.47836 0.71111 0.16658 0.0
C1323 C 0.48879 0.73471 0.14303 0.0
C1324 C 0.48771 0.76713 0.15657 0.0
C1325 C 0.52093 0.72723 0.13074 0.0
C1326 C 0.46455 0.73055 0.11834 0.0
C1327 C 0.44335 0.70876 0.12712 0.0
C1328 C 0.41812 0.70183 0.10894 0.0
C1329 C 0.41449 0.71709 0.08094 0.0
C1330 C 0.43579 0.73945 0.07102 0.0
C1331 C 0.46129 0.74614 0.09027 0.0
H1332 H 0.16455 0.32395 0.28813 0.0
H1333 H 0.16442 0.38818 0.36363 0.0
H1334 H 0.18786 0.42756 0.33039 0.0
H1335 H 0.23649 0.34996 0.25296 0.0
H1336 H 0.22192 0.34454 0.21482 0.0
H1337 H 0.20814 0.32068 0.24547 0.0
H1338 H 0.15222 0.3364 0.23272 0.0
H1339 H 0.16585 0.36046 0.20224 0.0
H1340 H 0.14233 0.37642 0.23197 0.0
H1341 H 0.20621 0.46115 0.28781 0.0
H1342 H 0.22196 0.4857 0.23962 0.0
H1343 H 0.20959 0.39966 0.19183 0.0
C1344 C 0.16979 0.34619 0.29778 0.0
C1345 C 0.16264 0.35308 0.32842 0.0
C1346 C 0.17005 0.38234 0.34031 0.0
C1347 C 0.18317 0.40488 0.32157 0.0
C1348 C 0.18891 0.3976 0.29117 0.0
C1349 C 0.18282 0.36887 0.27944 0.0
C1350 C 0.18989 0.36728 0.2457 0.0
C1351 C 0.21565 0.34425 0.23937 0.0
C1352 C 0.16084 0.3597 0.22707 0.0
C1353 C 0.20051 0.39978 0.24011 0.0
C1354 C 0.1997 0.4169 0.26664 0.0
C1355 C 0.2071 0.44791 0.26697 0.0
C1356 C 0.21557 0.46175 0.23945 0.0
C1357 C 0.21633 0.44468 0.21205 0.0
C1358 C 0.2092 0.41321 0.21247 0.0
H1359 H 0.94872 0.95222 0.55884 0.0
H1360 H 0.88621 0.90159 0.61742 0.0
H1361 H 0.84337 0.91408 0.5826 0.0
H1362 H 0.89574 0.01141 0.53391 0.0
H1363 H 0.91062 0.01166 0.49558 0.0
H1364 H 0.93535 1.00191 0.52707 0.0
H1365 H 0.94856 0.95049 0.50069 0.0
H1366 H 0.92373 0.96001 0.46926 0.0
H1367 H 0.91795 0.92474 0.48987 0.0
H1368 H 0.80813 0.92945 0.53957 0.0
H1369 H 0.7833 0.9464 0.49214 0.0
H1370 H 0.87015 0.98299 0.45994 0.0
C1371 C 0.92605 0.94373 0.56451 0.0
C1372 C 0.92094 0.92575 0.59087 0.0
C1373 C 0.89072 0.91571 0.59761 0.0
C1374 C 0.86627 0.92252 0.57786 0.0
C1375 C 0.87246 0.93934 0.55152 0.0
C1376 C 0.90162 0.94986 0.54489 0.0
C1377 C 0.90272 0.96581 0.51426 0.0
C1378 C 0.91163 0.99971 0.51794 0.0
C1379 C 0.92453 0.94927 0.49223 0.0
C1380 C 0.86964 0.96229 0.50442 0.0
C1381 C 0.85249 0.94724 0.52634 0.0
C1382 C 0.82139 0.94116 0.52224 0.0
C1383 C 0.80752 0.95059 0.49499 0.0
C1384 C 0.82477 0.96545 0.47189 0.0
C1385 C 0.85623 0.97159 0.47698 0.0
H1386 H 0.32476 0.6017 0.69706 0.0
H1387 H 0.26338 0.53936 0.74388 0.0
H1388 H 0.27565 0.56458 0.79307 0.0
H1389 H 0.3824 0.60103 0.75429 0.0
H1390 H 0.39315 0.64067 0.74965 0.0
H1391 H 0.37724 0.61968 0.71797 0.0
H1392 H 0.33462 0.66039 0.7119 0.0
H1393 H 0.35036 0.68159 0.7436 0.0
H1394 H 0.3107 0.66965 0.74407 0.0
H1395 H 0.29612 0.59615 0.83772 0.0
H1396 H 0.32641 0.62768 0.87402 0.0
H1397 H 0.37549 0.66844 0.79811 0.0
C1398 C 0.31331 0.594 0.71759 0.0
C1399 C 0.29227 0.56931 0.71668 0.0
C1400 C 0.27886 0.55882 0.74413 0.0
C1401 C 0.28577 0.57297 0.77214 0.0
C1402 C 0.30652 0.59741 0.7724 0.0
C1403 C 0.3203 0.60766 0.74584 0.0
C1404 C 0.34353 0.63274 0.75262 0.0
C1405 C 0.376 0.62294 0.74307 0.0
C1406 C 0.33424 0.66288 0.73712 0.0
C1407 C 0.34076 0.63498 0.78706 0.0
C1408 C 0.31907 0.61467 0.79807 0.0
C1409 C 0.31307 0.61222 0.82929 0.0
C1410 C 0.33022 0.63041 0.84977 0.0
C1411 C 0.3534 0.65055 0.83905 0.0
C1412 C 0.35807 0.65318 0.80714 0.0
H1413 H 0.59769 0.13484 0.03754 0.0
H1414 H 0.65102 0.10342 0.11509 0.0
H1415 H 0.68557 0.07573 0.08018 0.0
H1416 H 0.60535 0.06529 0.99118 0.0
H1417 H 0.6084 0.08647 0.95601 0.0
H1418 H 0.58652 0.10175 0.9873 0.0
H1419 H 0.61926 0.15148 0.98571 0.0
H1420 H 0.6413 0.13627 0.95456 0.0
H1421 H 0.66044 0.14894 0.98883 0.0
H1422 H 0.71774 0.05702 0.03689 0.0
H1423 H 0.74245 0.04342 0.98825 0.0
H1424 H 0.66728 0.08484 0.9383 0.0
C1425 C 0.61644 0.12185 0.04721 0.0
C1426 C 0.62167 0.12135 0.07909 0.0
C1427 C 0.64633 0.10388 0.09083 0.0
C1428 C 0.66621 0.08826 0.07115 0.0
C1429 C 0.66091 0.09002 0.03982 0.0
C1430 C 0.63638 0.10597 0.02791 0.0
C1431 C 0.63634 0.10494 0.99331 0.0
C1432 C 0.60743 0.08864 0.98124 0.0
C1433 C 0.63953 0.13733 0.97982 0.0
C1434 C 0.66488 0.08614 0.98757 0.0
C1435 C 0.67883 0.07805 0.01477 0.0
C1436 C 0.70669 0.06265 0.0155 0.0
C1437 C 0.72058 0.05512 0.98775 0.0
C1438 C 0.70646 0.06262 0.9596 0.0
C1439 C 0.67813 0.07816 0.95952 0.0
H1440 H 0.70893 0.10846 0.67568 0.0
H1441 H 0.65576 0.18825 0.70028 0.0
H1442 H 0.66697 0.17853 0.75486 0.0
H1443 H 0.68656 0.06212 0.72919 0.0
H1444 H 0.72143 0.04358 0.74192 0.0
H1445 H 0.71818 0.05799 0.70357 0.0
H1446 H 0.76322 0.09434 0.70653 0.0
H1447 H 0.77198 0.07795 0.74326 0.0
H1448 H 0.76811 0.11884 0.73926 0.0
H1449 H 0.68056 0.15785 0.80675 0.0
H1450 H 0.69862 0.13017 0.85248 0.0
H1451 H 0.74235 0.06263 0.7949 0.0
C1452 C 0.70041 0.12438 0.69256 0.0
C1453 C 0.68151 0.14922 0.68374 0.0
C1454 C 0.67054 0.16936 0.70646 0.0
C1455 C 0.67667 0.16387 0.73752 0.0
C1456 C 0.69437 0.13849 0.74551 0.0
C1457 C 0.7069 0.11961 0.72363 0.0
C1458 C 0.72453 0.09347 0.73836 0.0
C1459 C 0.71194 0.06237 0.72774 0.0
C1460 C 0.75901 0.09633 0.73145 0.0
C1461 C 0.71824 0.0994 0.77199 0.0
C1462 C 0.70141 0.12596 0.7755 0.0
C1463 C 0.69374 0.13707 0.80425 0.0
C1464 C 0.70401 0.12115 0.83012 0.0
C1465 C 0.72127 0.09395 0.82734 0.0
C1466 C 0.72845 0.0829 0.79777 0.0
H1467 H 0.22168 0.49955 0.03524 0.0
H1468 H 0.16596 0.44461 0.09589 0.0
H1469 H 0.14045 0.42034 0.05135 0.0
H1470 H 0.16047 0.516 0.98543 0.0
H1471 H 0.18336 0.51669 0.95125 0.0
H1472 H 0.20059 0.52618 0.98742 0.0
H1473 H 0.24183 0.48313 0.98077 0.0
H1474 H 0.22532 0.47631 0.94364 0.0
H1475 H 0.22893 0.44526 0.97024 0.0
H1476 H 0.12023 0.40328 0.99924 0.0
H1477 H 0.10607 0.396 0.9452 0.0
H1478 H 0.17063 0.46767 0.91966 0.0
C1479 C 0.2049 0.48155 0.03898 0.0
C1480 C 0.19728 0.47216 0.06883 0.0
C1481 C 0.17363 0.45033 0.07311 0.0
C1482 C 0.15872 0.43686 0.04794 0.0
C1483 C 0.16702 0.44637 0.01868 0.0
C1484 C 0.18944 0.46842 0.01415 0.0
C1485 C 0.19185 0.47715 0.9808 0.0
C1486 C 0.18357 0.51101 0.97596 0.0
C1487 C 0.22391 0.47005 0.96817 0.0
C1488 C 0.16774 0.45617 0.96712 0.0
C1489 C 0.15373 0.43848 0.98923 0.0
C1490 C 0.13103 0.41713 0.98178 0.0
C1491 C 0.1229 0.41339 0.95091 0.0
C1492 C 0.13719 0.43114 0.92771 0.0
C1493 C 0.15956 0.45315 0.93638 0.0
H1494 H 0.79643 0.97028 0.30205 0.0
H1495 H 0.83555 0.89883 0.3585 0.0
H1496 H 0.85438 0.87247 0.31247 0.0
H1497 H 0.77044 0.91832 0.24335 0.0
H1498 H 0.77772 0.94406 0.21203 0.0
H1499 H 0.76862 0.95914 0.24917 0.0
H1500 H 0.81953 0.99088 0.2502 0.0
H1501 H 0.82612 0.97728 0.21206 0.0
H1502 H 0.85498 0.97166 0.24071 0.0
H1503 H 0.86766 0.85265 0.26053 0.0
H1504 H 0.87883 0.8436 0.20591 0.0
H1505 H 0.83079 0.92704 0.18244 0.0
C1506 C 0.80956 0.94945 0.30465 0.0
C1507 C 0.81512 0.93683 0.33394 0.0
C1508 C 0.83143 0.90902 0.33634 0.0
C1509 C 0.8421 0.89383 0.31032 0.0
C1510 C 0.83583 0.9064 0.2818 0.0
C1511 C 0.82012 0.93369 0.27869 0.0
C1512 C 0.81531 0.94126 0.24513 0.0
C1513 C 0.78098 0.94065 0.23695 0.0
C1514 C 0.82988 0.97216 0.23661 0.0
C1515 C 0.83212 0.91487 0.23015 0.0
C1516 C 0.84313 0.89465 0.25171 0.0
C1517 C 0.85927 0.86841 0.24343 0.0
C1518 C 0.86534 0.86332 0.21237 0.0
C1519 C 0.85577 0.88463 0.19003 0.0
C1520 C 0.83842 0.91039 0.1991 0.0
H1521 H 0.31272 0.58329 0.56221 0.0
H1522 H 0.34971 0.4924 0.57117 0.0
H1523 H 0.37877 0.5002 0.52332 0.0
H1524 H 0.30242 0.57709 0.47597 0.0
H1525 H 0.30821 0.61795 0.47331 0.0
H1526 H 0.29058 0.60146 0.50659 0.0
H1527 H 0.33221 0.63037 0.5389 0.0
H1528 H 0.35108 0.64385 0.50508 0.0
H1529 H 0.37203 0.6215 0.53265 0.0
H1530 H 0.40841 0.52229 0.47512 0.0
H1531 H 0.43006 0.55318 0.43266 0.0
H1532 H 0.36395 0.62451 0.45223 0.0
C1533 C 0.32473 0.5641 0.55356 0.0
C1534 C 0.3273 0.53681 0.57058 0.0
C1535 C 0.34665 0.51354 0.55874 0.0
C1536 C 0.36334 0.51776 0.53138 0.0
C1537 C 0.35993 0.54516 0.51528 0.0
C1538 C 0.34019 0.56745 0.52568 0.0
C1539 C 0.33992 0.59483 0.5045 0.0
C1540 C 0.30842 0.59806 0.48912 0.0
C1541 C 0.34938 0.62436 0.5213 0.0
C1542 C 0.36377 0.58542 0.48146 0.0
C1543 C 0.3753 0.55675 0.48772 0.0
C1544 C 0.39894 0.54455 0.46991 0.0
C1545 C 0.41102 0.56226 0.44556 0.0
C1546 C 0.39935 0.59186 0.4389 0.0
C1547 C 0.37459 0.60267 0.45681 0.0
H1548 H 0.22782 0.16913 0.48014 0.0
H1549 H 0.20716 0.24404 0.41846 0.0
H1550 H 0.25345 0.23228 0.38879 0.0
H1551 H 0.30791 0.18142 0.48208 0.0
H1552 H 0.31882 0.14164 0.48241 0.0
H1553 H 0.28278 0.15289 0.49835 0.0
H1554 H 0.25228 0.11651 0.4641 0.0
H1555 H 0.28786 0.10298 0.4483 0.0
H1556 H 0.25825 0.11738 0.42342 0.0
H1557 H 0.30479 0.21431 0.36752 0.0
H1558 H 0.35587 0.19181 0.35761 0.0
H1559 H 0.34101 0.12727 0.43149 0.0
C1560 C 0.23297 0.18324 0.46061 0.0
C1561 C 0.21368 0.20773 0.45207 0.0
C1562 C 0.2213 0.22507 0.42569 0.0
C1563 C 0.24768 0.21861 0.40857 0.0
C1564 C 0.26631 0.19452 0.41783 0.0
C1565 C 0.25921 0.17705 0.44318 0.0
C1566 C 0.28338 0.15286 0.44869 0.0
C1567 C 0.2992 0.15756 0.47972 0.0
C1568 C 0.26961 0.12051 0.44595 0.0
C1569 C 0.30525 0.15966 0.42278 0.0
C1570 C 0.29517 0.18377 0.40516 0.0
C1571 C 0.31273 0.19517 0.38104 0.0
C1572 C 0.34168 0.18209 0.37543 0.0
C1573 C 0.35281 0.15785 0.3939 0.0
C1574 C 0.33364 0.14607 0.41719 0.0
H1575 H 0.07575 0.08107 0.67232 0.0
H1576 H 0.13441 0.0507 0.59871 0.0
H1577 H 0.12528 0.9968 0.61395 0.0
H1578 H 0.09895 0.03304 0.72549 0.0
H1579 H 0.0632 0.02192 0.74354 0.0
H1580 H 0.06686 0.05852 0.72501 0.0
H1581 H 0.023 0.04967 0.688 0.0
H1582 H 0.0148 0.01438 0.70777 0.0
H1583 H 0.02038 0.01427 0.66703 0.0
H1584 H 0.11249 0.94644 0.63948 0.0
H1585 H 0.09455 0.90303 0.67112 0.0
H1586 H 0.04532 0.96599 0.72941 0.0
C1587 C 0.08609 0.063 0.65898 0.0
C1588 C 0.10581 0.07008 0.63428 0.0
C1589 C 0.11899 0.04583 0.61746 0.0
C1590 C 0.11406 0.01516 0.6261 0.0
C1591 C 0.09543 1.00904 0.65129 0.0
C1592 C 0.08098 0.03226 0.66698 0.0
C1593 C 0.06272 0.01963 0.6937 0.0
C1594 C 0.07358 0.03405 0.7238 0.0
C1595 C 0.02818 0.02479 0.68882 0.0
C1596 C 0.07054 0.98578 0.6917 0.0
C1597 C 0.08892 0.98016 0.66664 0.0
C1598 C 0.09818 0.9506 0.65916 0.0
C1599 C 0.08799 0.92608 0.67732 0.0
C1600 C 0.06924 0.93111 0.70311 0.0
C1601 C 0.06042 0.96147 0.71036 0.0
H1602 H 0.23972 0.88372 0.86482 0.0
H1603 H 0.16793 0.8423 0.9196 0.0
H1604 H 0.20738 0.81482 0.94974 0.0
H1605 H 0.29114 0.817 0.86438 0.0
H1606 H 0.32506 0.84076 0.86607 0.0
H1607 H 0.29082 0.85475 0.84776 0.0
H1608 H 0.29331 0.90191 0.88226 0.0
H1609 H 0.32581 0.88802 0.90356 0.0
H1610 H 0.29062 0.89758 0.92292 0.0
H1611 H 0.25563 0.79459 0.97611 0.0
H1612 H 0.30762 0.78012 0.99349 0.0
H1613 H 0.34766 0.83513 0.9214 0.0
C1614 C 0.23223 0.86856 0.88292 0.0
C1615 C 0.20067 0.86527 0.88993 0.0
C1616 C 0.19189 0.84502 0.91365 0.0
C1617 C 0.21419 0.8295 0.93102 0.0
C1618 C 0.24516 0.83415 0.92414 0.0
C1619 C 0.2541 0.85276 0.90024 0.0
C1620 C 0.28878 0.85437 0.89767 0.0
C1621 C 0.29958 0.84091 0.86716 0.0
C1622 C 0.30036 0.88741 0.90187 0.0
C1623 C 0.29814 0.83416 0.92417 0.0
C1624 C 0.27267 0.82267 0.93918 0.0
C1625 C 0.27564 0.80343 0.9644 0.0
C1626 C 0.30529 0.79548 0.97423 0.0
C1627 C 0.33171 0.807 0.95913 0.0
C1628 C 0.32791 0.82634 0.9336 0.0
H1629 H 0.50904 0.03521 0.225 0.0
H1630 H 0.44537 0.09842 0.18333 0.0
H1631 H 0.41985 0.05518 0.15638 0.0
H1632 H 0.51842 0.98938 0.15844 0.0
H1633 H 0.52212 0.95378 0.17887 0.0
H1634 H 0.53371 0.98917 0.19669 0.0
H1635 H 0.49593 0.97988 0.24271 0.0
H1636 H 0.48815 0.9433 0.2253 0.0
H1637 H 0.45699 0.96852 0.234 0.0
H1638 H 0.40152 1.00327 0.13361 0.0
H1639 H 0.3913 0.94895 0.1198 0.0
H1640 H 0.46972 0.92139 0.174 0.0
C1641 C 0.48928 0.03977 0.2107 0.0
C1642 C 0.4782 0.06991 0.20732 0.0
C1643 C 0.45324 0.07529 0.18733 0.0
C1644 C 0.4389 0.05088 0.17164 0.0
C1645 C 0.45028 0.02128 0.17563 0.0
C1646 C 0.47494 0.01575 0.19477 0.0
C1647 C 0.48392 0.98229 0.19414 0.0
C1648 C 0.51648 0.97845 0.18127 0.0
C1649 C 0.4811 0.9677 0.22595 0.0
C1650 C 0.46 0.96956 0.17238 0.0
C1651 C 0.44084 0.99227 0.16167 0.0
C1652 C 0.41651 0.9854 0.14188 0.0
C1653 C 0.411 0.9545 0.13388 0.0
C1654 C 0.42962 0.9308 0.14581 0.0
C1655 C 0.45496 0.93887 0.16451 0.0
H1656 H 0.79739 0.37666 0.66484 0.0
H1657 H 0.87016 0.3333 0.61375 0.0
H1658 H 0.83123 0.30563 0.58264 0.0
H1659 H 0.745 0.30989 0.66538 0.0
H1660 H 0.71137 0.33353 0.66207 0.0
H1661 H 0.74514 0.34803 0.68107 0.0
H1662 H 0.74517 0.39459 0.64487 0.0
H1663 H 0.71219 0.38005 0.62461 0.0
H1664 H 0.74711 0.38869 0.60429 0.0
H1665 H 0.78323 0.28686 0.55357 0.0
H1666 H 0.73143 0.27347 0.53405 0.0
H1667 H 0.69031 0.32697 0.60624 0.0
C1668 C 0.80512 0.36079 0.64755 0.0
C1669 C 0.83686 0.357 0.6418 0.0
C1670 C 0.84604 0.33623 0.61881 0.0
C1671 C 0.82403 0.32066 0.60086 0.0
C1672 C 0.79288 0.3257 0.60649 0.0
C1673 C 0.78351 0.34475 0.62981 0.0
C1674 C 0.74876 0.34645 0.63129 0.0
C1675 C 0.73687 0.33371 0.66176 0.0
C1676 C 0.73765 0.37939 0.62594 0.0
C1677 C 0.73988 0.32571 0.60496 0.0
C1678 C 0.76562 0.31418 0.59066 0.0
C1679 C 0.76302 0.29549 0.56493 0.0
C1680 C 0.73349 0.28812 0.55388 0.0
C1681 C 0.70683 0.29936 0.56851 0.0
C1682 C 0.71026 0.31808 0.5946 0.0
H1683 H 0.97117 0.45017 0.86367 0.0
H1684 H 0.98277 0.49983 0.77866 0.0
H1685 H 0.96532 0.5471 0.80349 0.0
H1686 H 0.90244 0.4874 0.88556 0.0
H1687 H 0.91139 0.48824 0.9257 0.0
H1688 H 0.92698 0.45858 0.90191 0.0
H1689 H 0.98196 0.47351 0.91922 0.0
H1690 H 0.96655 0.50331 0.94304 0.0
H1691 H 0.99503 0.51247 0.91466 0.0
H1692 H 0.94473 0.58889 0.83688 0.0
H1693 H 0.91944 0.62102 0.8757 0.0
H1694 H 0.92143 0.54478 0.93923 0.0
C1695 C 0.97055 0.47108 0.85045 0.0
C1696 C 0.97839 0.4712 0.81918 0.0
C1697 C 0.97673 0.49904 0.80259 0.0
C1698 C 0.96699 0.52613 0.81653 0.0
C1699 C 0.95906 0.52523 0.84723 0.0
C1700 C 0.96064 0.49844 0.86401 0.0
C1701 C 0.94905 0.50344 0.89621 0.0
C1702 C 0.92079 0.48322 0.90271 0.0
C1703 C 0.97468 0.49785 0.91967 0.0
C1704 C 0.94054 0.53706 0.89474 0.0
C1705 C 0.94675 0.54927 0.86638 0.0
C1706 C 0.93995 0.57964 0.85929 0.0
C1707 C 0.92579 0.59782 0.88158 0.0
C1708 C 0.91834 0.58552 0.91056 0.0
C1709 C 0.92653 0.55487 0.91724 0.0
H1710 H 0.84075 0.70748 0.11712 0.0
H1711 H 0.79504 0.75412 0.04275 0.0
H1712 H 0.74454 0.7373 0.06296 0.0
H1713 H 0.79011 0.64192 0.12198 0.0
H1714 H 0.79297 0.64054 0.16286 0.0
H1715 H 0.82417 0.65609 0.14078 0.0
H1716 H 0.8204 0.70591 0.17351 0.0
H1717 H 0.78819 0.69027 0.19411 0.0
H1718 H 0.7846 0.72642 0.17461 0.0
H1719 H 0.69847 0.71324 0.09157 0.0
H1720 H 0.66254 0.68425 0.12475 0.0
H1721 H 0.7392 0.65625 0.18136 0.0
C1722 C 0.82008 0.7141 0.10509 0.0
C1723 C 0.82182 0.73135 0.07792 0.0
C1724 C 0.79425 0.74022 0.0632 0.0
C1725 C 0.76546 0.7309 0.07462 0.0
C1726 C 0.76458 0.71326 0.10118 0.0
C1727 C 0.79126 0.70511 0.11624 0.0
C1728 C 0.78433 0.68636 0.14447 0.0
C1729 C 0.79877 0.65436 0.14236 0.0
C1730 C 0.79501 0.70326 0.17338 0.0
C1731 C 0.74965 0.68465 0.14276 0.0
C1732 C 0.7385 0.70034 0.11776 0.0
C1733 C 0.70706 0.70105 0.11129 0.0
C1734 C 0.68673 0.68471 0.13043 0.0
C1735 C 0.6979 0.66774 0.15567 0.0
C1736 C 0.72978 0.66858 0.1621 0.0
H1737 H 0.57192 0.42139 0.34762 0.0
H1738 H 0.63077 0.45158 0.42185 0.0
H1739 H 0.61967 0.50541 0.40858 0.0
H1740 H 0.59452 0.47468 0.29617 0.0
H1741 H 0.55815 0.48374 0.27826 0.0
H1742 H 0.56448 0.4465 0.29475 0.0
H1743 H 0.51965 0.4498 0.33149 0.0
H1744 H 0.50924 0.48555 0.31383 0.0
H1745 H 0.51467 0.48354 0.35457 0.0
H1746 H 0.60385 0.55594 0.38604 0.0
H1747 H 0.58279 0.59984 0.35771 0.0
H1748 H 0.53552 0.53784 0.29608 0.0
C1749 C 0.58235 0.43927 0.36129 0.0
C1750 C 0.60243 0.43197 0.3858 0.0
C1751 C 0.61516 0.45629 0.4032 0.0
C1752 C 0.60911 0.48704 0.39567 0.0
C1753 C 0.59002 0.49329 0.37082 0.0
C1754 C 0.57637 0.4701 0.35424 0.0
C1755 C 0.55731 0.48304 0.32814 0.0
C1756 C 0.56929 0.47136 0.29742 0.0
C1757 C 0.52318 0.47501 0.33227 0.0
C1758 C 0.56295 0.51726 0.33206 0.0
C1759 C 0.58164 0.52251 0.35713 0.0
C1760 C 0.58933 0.55205 0.36635 0.0
C1761 C 0.57728 0.57688 0.35004 0.0
C1762 C 0.55803 0.57243 0.3243 0.0
C1763 C 0.55083 0.54205 0.31513 0.0
H1764 H 0.4045 0.35271 0.20847 0.0
H1765 H 0.35113 0.32119 0.13101 0.0
H1766 H 0.36345 0.26747 0.14443 0.0
H1767 H 0.46322 0.30358 0.20059 0.0
H1768 H 0.47076 0.29505 0.24018 0.0
H1769 H 0.45392 0.33107 0.22956 0.0
H1770 H 0.40665 0.32267 0.2632 0.0
H1771 H 0.42344 0.28753 0.27671 0.0
H1772 H 0.38531 0.28729 0.26062 0.0
H1773 H 0.38864 0.21834 0.16144 0.0
H1774 H 0.41954 0.1768 0.1844 0.0
H1775 H 0.45439 0.23987 0.25243 0.0
C1776 C 0.39463 0.3344 0.1949 0.0
C1777 C 0.37674 0.341 0.16877 0.0
C1778 C 0.36452 0.31657 0.15132 0.0
C1779 C 0.37158 0.28604 0.15869 0.0
C1780 C 0.39036 0.2804 0.18392 0.0
C1781 C 0.4011 0.30389 0.2022 0.0
C1782 C 0.42222 0.29196 0.22701 0.0
C1783 C 0.45446 0.30622 0.22419 0.0
C1784 C 0.40858 0.2977 0.25877 0.0
C1785 C 0.42236 0.25811 0.21943 0.0
C1786 C 0.4039 0.25193 0.19442 0.0
C1787 C 0.40236 0.22276 0.18157 0.0
C1788 C 0.41989 0.19932 0.19474 0.0
C1789 C 0.43822 0.20503 0.22078 0.0
C1790 C 0.43943 0.23475 0.23331 0.0
H1791 H 0.9729 0.3042 0.78576 0.0
H1792 H 0.90429 0.36538 0.82273 0.0
H1793 H 0.87502 0.32111 0.84227 0.0
H1794 H 0.91677 0.24658 0.76177 0.0
H1795 H 0.94095 0.21427 0.77005 0.0
H1796 H 0.95792 0.25038 0.75918 0.0
H1797 H 0.99033 0.25274 0.81 0.0
H1798 H 0.97531 0.21491 0.81683 0.0
H1799 H 0.97045 0.2439 0.84525 0.0
H1800 H 0.85317 0.2709 0.85841 0.0
H1801 H 0.84247 0.21731 0.87362 0.0
H1802 H 0.92422 0.18786 0.82607 0.0
C1803 C 0.95191 0.30815 0.7983 0.0
C1804 C 0.941 0.33827 0.8032 0.0
C1805 C 0.91307 0.34254 0.81896 0.0
C1806 C 0.89626 0.31754 0.83008 0.0
C1807 C 0.90729 0.28821 0.8247 0.0
C1808 C 0.9345 0.28324 0.80929 0.0
C1809 C 0.94039 0.2491 0.80593 0.0
C1810 C 0.93891 0.23953 0.77223 0.0
C1811 C 0.97104 0.23972 0.82035 0.0
C1812 C 0.91346 0.23601 0.82367 0.0
C1813 C 0.8942 0.25897 0.83353 0.0
C1814 C 0.86806 0.25269 0.8508 0.0
C1815 C 0.86207 0.22225 0.85924 0.0
C1816 C 0.88251 0.19866 0.85096 0.0
C1817 C 0.90817 0.20557 0.83247 0.0
H1818 H 0.03576 0.60692 0.12696 0.0
H1819 H 0.11425 0.65074 0.08431 0.0
H1820 H 0.07926 0.68335 0.05411 0.0
H1821 H 0.98541 0.60798 0.05912 0.0
H1822 H 0.95153 0.61549 0.08137 0.0
H1823 H 0.98276 0.59408 0.09776 0.0
H1824 H 0.98572 0.63267 0.14264 0.0
H1825 H 0.95465 0.65421 0.1263 0.0
H1826 H 0.9907 0.67287 0.13459 0.0
H1827 H 0.03624 0.71573 0.03419 0.0
H1828 H 0.98777 0.74156 0.02067 0.0
H1829 H 0.93659 0.67474 0.07341 0.0
C1830 C 0.04554 0.62305 0.11088 0.0
C1831 C 0.07773 0.62634 0.10795 0.0
C1832 C 0.08969 0.64763 0.08666 0.0
C1833 C 0.06999 0.66637 0.06957 0.0
C1834 C 0.03839 0.66316 0.07368 0.0
C1835 C 0.0262 0.64165 0.09338 0.0
C1836 C 0.99142 0.64337 0.0941 0.0
C1837 C 0.97692 0.61344 0.08238 0.0
C1838 C 0.97996 0.65125 0.12632 0.0
C1839 C 0.98593 0.66953 0.07207 0.0
C1840 C 0.01341 0.6808 0.06082 0.0
C1841 C 0.01457 0.70659 0.04218 0.0
C1842 C 0.98696 0.72111 0.03467 0.0
C1843 C 0.95853 0.70957 0.04533 0.0
C1844 C 0.95798 0.68333 0.06412 0.0
H1845 H 0.60071 0.84168 0.34901 0.0
H1846 H 0.69619 0.81453 0.34936 0.0
H1847 H 0.68166 0.76483 0.32587 0.0
H1848 H 0.56708 0.77058 0.36898 0.0
H1849 H 0.5349 0.77785 0.34396 0.0
H1850 H 0.55601 0.80926 0.35975 0.0
H1851 H 0.56144 0.82745 0.3027 0.0
H1852 H 0.54289 0.7931 0.28906 0.0
H1853 H 0.5808 0.803 0.27585 0.0
H1854 H 0.65552 0.71613 0.30695 0.0
H1855 H 0.62099 0.67392 0.2915 0.0
H1856 H 0.54239 0.73332 0.30402 0.0
C1857 C 0.6186 0.82542 0.3437 0.0
C1858 C 0.64954 0.8318 0.35112 0.0
C1859 C 0.67238 0.81014 0.34365 0.0
C1860 C 0.66429 0.78182 0.33047 0.0
C1861 C 0.63333 0.7758 0.3245 0.0
C1862 C 0.61095 0.79728 0.33038 0.0
C1863 C 0.57929 0.78511 0.3226 0.0
C1864 C 0.55816 0.78567 0.35059 0.0
C1865 C 0.56529 0.80325 0.29596 0.0
C1866 C 0.58702 0.75272 0.31301 0.0
C1867 C 0.61837 0.74796 0.31373 0.0
C1868 C 0.63097 0.71973 0.30608 0.0
C1869 C 0.61111 0.69582 0.29737 0.0
C1870 C 0.57886 0.70009 0.2966 0.0
C1871 C 0.56684 0.72908 0.30452 0.0
H1872 H 0.54414 0.2887 0.56305 0.0
H1873 H 0.59408 0.36805 0.52957 0.0
H1874 H 0.55048 0.40109 0.54399 0.0
H1875 H 0.46865 0.31143 0.54053 0.0
H1876 H 0.45045 0.297 0.57455 0.0
H1877 H 0.48509 0.27949 0.56075 0.0
H1878 H 0.50963 0.28828 0.61309 0.0
H1879 H 0.47644 0.3071 0.62757 0.0
H1880 H 0.51323 0.32625 0.62856 0.0
H1881 H 0.5008 0.42597 0.56414 0.0
H1882 H 0.45256 0.43973 0.59083 0.0
H1883 H 0.43639 0.34391 0.61098 0.0
C1884 C 0.54621 0.31302 0.55892 0.0
C1885 C 0.57293 0.32566 0.54535 0.0
C1886 C 0.57408 0.35769 0.54005 0.0
C1887 C 0.54931 0.37668 0.54809 0.0
C1888 C 0.52344 0.36345 0.56158 0.0
C1889 C 0.52193 0.33233 0.5672 0.0
C1890 C 0.49218 0.32383 0.58307 0.0
C1891 C 0.47295 0.30163 0.56355 0.0
C1892 C 0.49827 0.31066 0.61499 0.0
C1893 C 0.47711 0.35483 0.58543 0.0
C1894 C 0.4953 0.37753 0.5729 0.0
C1895 C 0.48643 0.40824 0.57391 0.0
C1896 C 0.45889 0.41587 0.58897 0.0
C1897 C 0.44073 0.39293 0.60315 0.0
C1898 C 0.44979 0.36202 0.60051 0.0
H1899 H 0.11101 0.6934 0.63896 0.0
H1900 H 0.17534 0.66395 0.70844 0.0
H1901 H 0.16561 0.71191 0.73727 0.0
H1902 H 0.1233 0.77597 0.64289 0.0
H1903 H 0.0829 0.78351 0.63832 0.0
H1904 H 0.09943 0.74981 0.62148 0.0
H1905 H 0.05999 0.71534 0.6503 0.0
H1906 H 0.04353 0.74915 0.66624 0.0
H1907 H 0.05648 0.71915 0.69112 0.0
H1908 H 0.14437 0.76235 0.76041 0.0
H1909 H 0.11446 0.8081 0.7752 0.0
H1910 H 0.06205 0.8007 0.69142 0.0
C1911 C 0.12347 0.69708 0.66005 0.0
C1912 C 0.14379 0.67471 0.67148 0.0
C1913 C 0.15983 0.6808 0.69902 0.0
C1914 C 0.15427 0.70792 0.71563 0.0
C1915 C 0.13268 0.72868 0.70435 0.0
C1916 C 0.11776 0.72345 0.67701 0.0
C1917 C 0.0933 0.74706 0.67098 0.0
C1918 C 0.10016 0.76516 0.64168 0.0
C1919 C 0.06146 0.73173 0.66962 0.0
C1920 C 0.09674 0.76691 0.69901 0.0
C1921 C 0.11967 0.7562 0.71802 0.0
C1922 C 0.12649 0.77086 0.74553 0.0
C1923 C 0.10939 0.7969 0.75372 0.0
C1924 C 0.08548 0.80787 0.73469 0.0
C1925 C 0.0795 0.79266 0.70688 0.0
H1926 H 0.44779 0.86691 0.96684 0.0
H1927 H 0.49938 0.78712 0.99507 0.0
H1928 H 0.54738 0.81179 0.97784 0.0
H1929 H 0.4895 0.87831 0.89865 0.0
H1930 H 0.48794 0.91952 0.8998 0.0
H1931 H 0.45807 0.89715 0.91748 0.0
H1932 H 0.46784 0.92504 0.96877 0.0
H1933 H 0.49781 0.94754 0.95128 0.0
H1934 H 0.50591 0.92532 0.98498 0.0
H1935 H 0.5896 0.84437 0.95625 0.0
H1936 H 0.62217 0.88024 0.92678 0.0
H1937 H 0.54301 0.93787 0.91045 0.0
C1938 C 0.46931 0.8551 0.97014 0.0
C1939 C 0.47008 0.82548 0.9829 0.0
C1940 C 0.49847 0.81006 0.9857 0.0
C1941 C 0.52584 0.82389 0.97606 0.0
C1942 C 0.5244 0.85307 0.96339 0.0
C1943 C 0.49686 0.86839 0.96009 0.0
C1944 C 0.50137 0.89827 0.94309 0.0
C1945 C 0.48314 0.89829 0.91297 0.0
C1946 C 0.49272 0.92567 0.96324 0.0
C1947 C 0.53564 0.89729 0.93737 0.0
C1948 C 0.54857 0.87124 0.94963 0.0
C1949 C 0.57978 0.86494 0.94664 0.0
C1950 C 0.59814 0.8855 0.93004 0.0
C1951 C 0.58511 0.91175 0.9163 0.0
C1952 C 0.55356 0.91789 0.92059 0.0
H1953 H 0.93374 0.15713 0.46146 0.0
H1954 H 0.95964 0.09087 0.39269 0.0
H1955 H 0.01441 0.09966 0.40531 0.0
H1956 H 0.98229 0.20824 0.44706 0.0
H1957 H 0.99794 0.22172 0.48295 0.0
H1958 H 0.95973 0.20597 0.48086 0.0
H1959 H 0.96603 0.16186 0.51664 0.0
H1960 H 1.00243 0.17876 0.527 0.0
H1961 H 1.00038 0.1391 0.51576 0.0
H1962 H 0.06641 0.11773 0.42382 0.0
H1963 H 0.1117 0.14471 0.44508 0.0
H1964 H 0.05192 0.20349 0.49758 0.0
C1965 C 0.95091 0.14387 0.44958 0.0
C1966 C 0.94239 0.12332 0.42601 0.0
C1967 C 0.96555 0.10646 0.41101 0.0
C1968 C 0.99673 0.11141 0.41798 0.0
C1969 C 1.00434 0.13292 0.44036 0.0
C1970 C 0.98205 0.14837 0.45643 0.0
C1971 C 0.99624 0.17176 0.47795 0.0
C1972 C 0.98346 0.2039 0.47187 0.0
C1973 C 0.99097 0.16229 0.51132 0.0
C1974 C 0.02995 0.16889 0.46959 0.0
C1975 C 0.03416 0.14532 0.44895 0.0
C1976 C 0.06336 0.13642 0.43969 0.0
C1977 C 0.08893 0.15188 0.45181 0.0
C1978 C 0.08526 0.17689 0.47191 0.0
C1979 C 0.05532 0.18526 0.48121 0.0
loop_
_geom_bond_atom_site_label_1
_geom_bond_atom_site_label_2
_geom_bond_distance
_geom_bond_site_symmetry_2
_ccdc_geom_bond_type
Eu0 N31 2.657 . S
Eu0 N38 2.609 . S
Eu0 O44 2.558 . S
Eu0 O45 2.612 . S
Eu0 O47 2.339 . S
Eu0 O48 2.563 . S
Eu0 O49 2.419 . S
Eu0 O51 2.380 . S
Eu0 O52 2.432 . S
Eu0 C64 2.848 . S
C1 C4 1.429 . S
C1 C5 1.411 . S
C1 N8 1.377 . S
C2 C4 1.420 . S
C2 C6 1.423 . S
C2 C14 1.392 . S
C3 C5 1.420 1_655 S
C3 C6 1.351 1_655 S
C3 H26 0.931 . S
C4 C1 1.429 . S
C4 C2 1.420 . S
C4 N12 1.362 . S
C5 C1 1.411 . S
C5 C3 1.420 1_455 S
C5 C10 1.395 1_455 S
C6 C2 1.423 . S
C6 C3 1.351 1_455 S
C6 H18 0.930 . S
C7 C9 1.400 . S
C7 C10 1.386 1_455 S
C7 H19 0.930 . S
N8 C1 1.377 . S
N8 C9 1.321 . S
N8 Eu11 2.609 . S
C9 C7 1.400 . S
C9 N8 1.321 . S
C9 H16 0.930 . S
C10 C5 1.395 1_655 S
C10 C7 1.386 1_655 S
C10 H29 0.930 . S
Eu11 N8 2.609 . S
Eu11 N12 2.657 . S
Eu11 O45 2.380 . S
Eu11 O46 2.432 . S
Eu11 O50 2.558 . S
Eu11 O51 2.612 . S
Eu11 O53 2.339 . S
Eu11 O54 2.563 . S
Eu11 O55 2.419 . S
Eu11 C75 2.848 . S
N12 C4 1.362 . S
N12 Eu11 2.657 . S
N12 C13 1.334 . S
C13 N12 1.334 . S
C13 C15 1.413 . S
C13 H20 0.929 . S
C14 C2 1.392 . S
C14 C15 1.367 . S
C14 H22 0.930 . S
C15 C13 1.413 . S
C15 C14 1.367 . S
C15 H17 0.930 . S
H16 C9 0.930 . S
H17 C15 0.930 . S
H18 C6 0.930 . S
H19 C7 0.930 . S
H20 C13 0.929 . S
H21 C35 0.930 . S
H22 C14 0.930 . S
H23 C41 0.930 . S
H24 C32 0.929 . S
H25 C39 0.930 . S
H26 C3 0.931 . S
H27 C33 0.930 . S
H28 C66 0.930 . S
H29 C10 0.930 . S
H30 C65 0.931 . S
N31 Eu0 2.657 . S
N31 C32 1.334 . S
N31 C36 1.362 . S
C32 H24 0.929 . S
C32 N31 1.334 . S
C32 C35 1.413 . S
C33 H27 0.930 . S
C33 C34 1.392 . S
C33 C35 1.367 . S
C34 C33 1.392 . S
C34 C36 1.420 . S
C34 C66 1.423 . S
C35 H21 0.930 . S
C35 C32 1.413 . S
C35 C33 1.367 . S
C36 N31 1.362 . S
C36 C34 1.420 . S
C36 C40 1.429 . S
H37 C42 0.930 . S
N38 Eu0 2.609 . S
N38 C40 1.377 . S
N38 C41 1.321 . S
C39 H25 0.930 . S
C39 C41 1.400 . S
C39 C42 1.386 . S
C40 C36 1.429 . S
C40 N38 1.377 . S
C40 C43 1.411 . S
C41 H23 0.930 . S
C41 N38 1.321 . S
C41 C39 1.400 . S
C42 H37 0.930 . S
C42 C39 1.386 . S
C42 C43 1.395 . S
C43 C40 1.411 . S
C43 C42 1.395 . S
C43 C65 1.420 . S
O44 Eu0 2.558 . S
O44 C64 1.257 . S
O45 Eu0 2.612 . S
O45 Eu11 2.380 . S
O45 C56 1.276 . S
O46 Eu11 2.432 . S
O46 C63 1.264 . S
O47 Eu0 2.339 . S
O47 C63 1.254 . S
O48 Eu0 2.563 . S
O48 C56 1.235 . S
O49 Eu0 2.419 . S
O49 C64 1.249 . S
O50 Eu11 2.558 . S
O50 C75 1.257 . S
O51 Eu0 2.380 . S
O51 Eu11 2.612 . S
O51 C67 1.276 . S
O52 Eu0 2.432 . S
O52 C74 1.264 . S
O53 Eu11 2.339 . S
O53 C74 1.254 . S
O54 Eu11 2.563 . S
O54 C67 1.235 . S
O55 Eu11 2.419 . S
O55 C75 1.249 . S
C56 O45 1.276 . S
C56 O48 1.235 . S
C57 C59 1.393 . S
C57 C61 1.395 . S
C57 C64 1.492 . S
C58 C59 1.392 . S
C58 C60 1.386 . S
C59 C57 1.393 . S
C59 C58 1.392 . S
C59 H76 0.930 . S
C60 C58 1.386 . S
C60 C62 1.395 . S
C60 H77 0.930 . S
C61 C57 1.395 . S
C61 C62 1.379 . S
C61 H78 0.930 . S
C62 C60 1.395 . S
C62 C61 1.379 . S
C62 H79 0.930 . S
C63 O46 1.264 . S
C63 O47 1.254 . S
C64 Eu0 2.848 . S
C64 O44 1.257 . S
C64 O49 1.249 . S
C64 C57 1.492 . S
C65 H30 0.931 . S
C65 C43 1.420 . S
C65 C66 1.351 . S
C66 H28 0.930 . S
C66 C34 1.423 . S
C66 C65 1.351 . S
C67 O51 1.276 . S
C67 O54 1.235 . S
C68 C69 1.393 . S
C68 C72 1.395 . S
C68 C75 1.492 . S
C69 C68 1.393 . S
C69 C70 1.392 . S
C69 H80 0.930 . S
C70 C69 1.392 . S
C70 C71 1.386 . S
C71 C70 1.386 . S
C71 C73 1.395 . S
C71 H81 0.930 . S
C72 C68 1.395 . S
C72 C73 1.379 . S
C72 H82 0.930 . S
C73 C71 1.395 . S
C73 C72 1.379 . S
C73 H83 0.930 . S
C74 O52 1.264 . S
C74 O53 1.254 . S
C75 Eu11 2.848 . S
C75 O50 1.257 . S
C75 O55 1.249 . S
C75 C68 1.492 . S
H76 C59 0.930 . S
H77 C60 0.930 . S
H78 C61 0.930 . S
H79 C62 0.930 . S
H80 C69 0.930 . S
H81 C71 0.930 . S
H82 C72 0.930 . S
H83 C73 0.930 . S
Eu84 N115 2.657 . S
Eu84 N122 2.609 . S
Eu84 O128 2.558 . S
Eu84 O129 2.612 1_655 S
Eu84 O131 2.339 . S
Eu84 O132 2.563 1_655 S
Eu84 O133 2.419 . S
Eu84 O135 2.380 1_655 S
Eu84 O136 2.432 1_655 S
Eu84 C148 2.848 . S
C85 C88 1.429 . S
C85 C89 1.411 . S
C85 N92 1.377 . S
C86 C88 1.420 . S
C86 C90 1.423 . S
C86 C98 1.392 . S
C87 C89 1.403 1_545 S
C87 C90 1.333 1_545 S
C87 H110 0.967 . S
C88 C85 1.429 . S
C88 C86 1.420 . S
C88 N96 1.362 . S
C89 C85 1.411 . S
C89 C87 1.403 1_565 S
C89 C94 1.388 1_565 S
C90 C86 1.423 . S
C90 C87 1.333 1_565 S
C90 H102 0.930 . S
C91 C93 1.400 . S
C91 C94 1.379 1_565 S
C91 H103 0.930 . S
N92 C85 1.377 . S
N92 C93 1.321 . S
N92 Eu95 2.609 . S
C93 C91 1.400 . S
C93 N92 1.321 . S
C93 H100 0.930 . S
C94 C89 1.388 1_545 S
C94 C91 1.379 1_545 S
C94 H113 0.944 . S
Eu95 N92 2.609 . S
Eu95 N96 2.657 . S
Eu95 O129 2.380 . S
Eu95 O130 2.432 1_455 S
Eu95 O134 2.558 . S
Eu95 O135 2.612 . S
Eu95 O137 2.339 . S
Eu95 O138 2.563 . S
Eu95 O139 2.419 . S
Eu95 C159 2.848 . S
N96 C88 1.362 . S
N96 Eu95 2.657 . S
N96 C97 1.334 . S
C97 N96 1.334 . S
C97 C99 1.413 . S
C97 H104 0.929 . S
C98 C86 1.392 . S
C98 C99 1.367 . S
C98 H106 0.930 . S
C99 C97 1.413 . S
C99 C98 1.367 . S
C99 H101 0.930 . S
H100 C93 0.930 . S
H101 C99 0.930 . S
H102 C90 0.930 . S
H103 C91 0.930 . S
H104 C97 0.929 . S
H105 C119 0.930 . S
H106 C98 0.930 . S
H107 C125 0.919 1_455 S
H108 C116 0.929 . S
H109 C123 0.930 . S
H110 C87 0.967 . S
H111 C117 0.930 . S
H112 C150 0.930 . S
H113 C94 0.944 . S
H114 C149 0.931 . S
N115 Eu84 2.657 . S
N115 C116 1.334 . S
N115 C120 1.362 . S
C116 H108 0.929 . S
C116 N115 1.334 . S
C116 C119 1.413 . S
C117 H111 0.930 . S
C117 C118 1.392 . S
C117 C119 1.367 . S
C118 C117 1.392 . S
C118 C120 1.420 . S
C118 C150 1.423 . S
C119 H105 0.930 . S
C119 C116 1.413 . S
C119 C117 1.367 . S
C120 N115 1.362 . S
C120 C118 1.420 . S
C120 C124 1.429 . S
H121 C126 0.930 . S
N122 Eu84 2.609 . S
N122 C124 1.377 . S
N122 C125 1.321 . S
C123 H109 0.930 . S
C123 C125 1.400 . S
C123 C126 1.386 . S
C124 C120 1.429 . S
C124 N122 1.377 . S
C124 C127 1.411 . S
C125 H107 0.919 1_655 S
C125 N122 1.321 . S
C125 C123 1.400 . S
C126 H121 0.930 . S
C126 C123 1.386 . S
C126 C127 1.395 . S
C127 C124 1.411 . S
C127 C126 1.395 . S
C127 C149 1.420 . S
O128 Eu84 2.558 . S
O128 C148 1.257 . S
O129 Eu84 2.612 1_455 S
O129 Eu95 2.380 . S
O129 C140 1.276 . S
O130 Eu95 2.432 1_655 S
O130 C147 1.264 . S
O131 Eu84 2.339 . S
O131 C147 1.254 . S
O132 Eu84 2.563 1_455 S
O132 C140 1.235 . S
O133 Eu84 2.419 . S
O133 C148 1.249 . S
O134 Eu95 2.558 . S
O134 C159 1.257 . S
O135 Eu84 2.380 1_455 S
O135 Eu95 2.612 . S
O135 C151 1.276 . S
O136 Eu84 2.432 1_455 S
O136 C158 1.264 . S
O137 Eu95 2.339 . S
O137 C158 1.254 . S
O138 Eu95 2.563 . S
O138 C151 1.235 . S
O139 Eu95 2.419 . S
O139 C159 1.249 . S
C140 O129 1.276 . S
C140 O132 1.235 . S
C141 C143 1.393 . S
C141 C145 1.395 . S
C141 C148 1.492 . S
C142 C143 1.392 . S
C142 C144 1.386 . S
C143 C141 1.393 . S
C143 C142 1.392 . S
C143 H160 0.930 . S
C144 C142 1.386 . S
C144 C146 1.395 . S
C144 H161 0.930 . S
C145 C141 1.395 . S
C145 C146 1.379 . S
C145 H162 0.930 . S
C146 C144 1.395 . S
C146 C145 1.379 . S
C146 H163 0.930 . S
C147 O130 1.264 . S
C147 O131 1.254 . S
C148 Eu84 2.848 . S
C148 O128 1.257 . S
C148 O133 1.249 . S
C148 C141 1.492 . S
C149 H114 0.931 . S
C149 C127 1.420 . S
C149 C150 1.351 . S
C150 H112 0.930 . S
C150 C118 1.423 . S
C150 C149 1.351 . S
C151 O135 1.276 . S
C151 O138 1.235 . S
C152 C153 1.393 . S
C152 C156 1.395 . S
C152 C159 1.492 . S
C153 C152 1.393 . S
C153 C154 1.392 . S
C153 H164 0.930 . S
C154 C153 1.392 . S
C154 C155 1.386 . S
C155 C154 1.386 . S
C155 C157 1.395 . S
C155 H165 0.930 . S
C156 C152 1.395 . S
C156 C157 1.379 . S
C156 H166 0.930 . S
C157 C155 1.395 . S
C157 C156 1.379 . S
C157 H167 0.930 . S
C158 O136 1.264 . S
C158 O137 1.254 . S
C159 Eu95 2.848 . S
C159 O134 1.257 . S
C159 O139 1.249 . S
C159 C152 1.492 . S
H160 C143 0.930 . S
H161 C144 0.930 . S
H162 C145 0.930 . S
H163 C146 0.930 . S
H164 C153 0.930 . S
H165 C155 0.930 . S
H166 C156 0.930 . S
H167 C157 0.930 . S
Eu168 N199 2.657 . S
Eu168 N206 2.609 . S
Eu168 O212 2.558 . S
Eu168 O213 2.612 . S
Eu168 O215 2.339 . S
Eu168 O216 2.563 . S
Eu168 O217 2.419 . S
Eu168 O219 2.380 1_556 S
Eu168 O220 2.432 . S
Eu168 C232 2.848 . S
C169 C172 1.429 1_554 S
C169 C173 1.411 . S
C169 N176 1.377 . S
C170 C172 1.420 . S
C170 C174 1.423 . S
C170 C182 1.392 . S
C171 C173 1.420 . S
C171 C174 1.351 1_554 S
C171 H194 0.931 . S
C172 C169 1.429 1_556 S
C172 C170 1.420 . S
C172 N180 1.362 . S
C173 C169 1.411 . S
C173 C171 1.420 . S
C173 C178 1.395 . S
C174 C170 1.423 . S
C174 C171 1.351 1_556 S
C174 H186 0.930 . S
C175 C177 1.400 . S
C175 C178 1.386 . S
C175 H187 0.930 . S
N176 C169 1.377 . S
N176 C177 1.321 . S
N176 Eu179 2.609 . S
C177 C175 1.400 . S
C177 N176 1.321 . S
C177 H184 0.930 . S
C178 C173 1.395 . S
C178 C175 1.386 . S
C178 H197 0.930 . S
Eu179 N176 2.609 . S
Eu179 N180 2.657 1_554 S
Eu179 O213 2.380 1_554 S
Eu179 O214 2.432 . S
Eu179 O218 2.558 . S
Eu179 O219 2.612 . S
Eu179 O221 2.339 1_554 S
Eu179 O222 2.563 . S
Eu179 O223 2.419 . S
Eu179 C243 2.848 . S
N180 C172 1.362 . S
N180 Eu179 2.657 1_556 S
N180 C181 1.334 . S
C181 N180 1.334 . S
C181 C183 1.413 . S
C181 H188 0.929 . S
C182 C170 1.392 . S
C182 C183 1.367 . S
C182 H190 0.930 . S
C183 C181 1.413 . S
C183 C182 1.367 . S
C183 H185 0.930 . S
H184 C177 0.930 . S
H185 C183 0.930 . S
H186 C174 0.930 . S
H187 C175 0.930 . S
H188 C181 0.929 . S
H189 C203 0.930 . S
H190 C182 0.930 . S
H191 C209 0.930 . S
H192 C200 0.929 . S
H193 C207 0.930 . S
H194 C171 0.931 . S
H195 C201 0.930 . S
H196 C234 0.930 1_554 S
H197 C178 0.930 . S
H198 C233 0.931 . S
N199 Eu168 2.657 . S
N199 C200 1.334 1_556 S
N199 C204 1.362 . S
C200 H192 0.929 . S
C200 N199 1.334 1_554 S
C200 C203 1.413 . S
C201 H195 0.930 . S
C201 C202 1.392 . S
C201 C203 1.367 . S
C202 C201 1.392 . S
C202 C204 1.420 1_554 S
C202 C234 1.423 1_554 S
C203 H189 0.930 . S
C203 C200 1.413 . S
C203 C201 1.367 . S
C204 N199 1.362 . S
C204 C202 1.420 1_556 S
C204 C208 1.429 . S
H205 C210 0.930 . S
N206 Eu168 2.609 . S
N206 C208 1.377 . S
N206 C209 1.321 . S
C207 H193 0.930 . S
C207 C209 1.400 . S
C207 C210 1.386 . S
C208 C204 1.429 . S
C208 N206 1.377 . S
C208 C211 1.411 . S
C209 H191 0.930 . S
C209 N206 1.321 . S
C209 C207 1.400 . S
C210 H205 0.930 . S
C210 C207 1.386 . S
C210 C211 1.395 . S
C211 C208 1.411 . S
C211 C210 1.395 . S
C211 C233 1.420 . S
O212 Eu168 2.558 . S
O212 C232 1.257 . S
O213 Eu168 2.612 . S
O213 Eu179 2.380 1_556 S
O213 C224 1.276 . S
O214 Eu179 2.432 . S
O214 C231 1.264 . S
O215 Eu168 2.339 . S
O215 C231 1.254 1_556 S
O216 Eu168 2.563 . S
O216 C224 1.235 . S
O217 Eu168 2.419 . S
O217 C232 1.249 . S
O218 Eu179 2.558 . S
O218 C243 1.257 . S
O219 Eu168 2.380 1_554 S
O219 Eu179 2.612 . S
O219 C235 1.276 . S
O220 Eu168 2.432 . S
O220 C242 1.264 . S
O221 Eu179 2.339 1_556 S
O221 C242 1.254 . S
O222 Eu179 2.563 . S
O222 C235 1.235 . S
O223 Eu179 2.419 . S
O223 C243 1.249 . S
C224 O213 1.276 . S
C224 O216 1.235 . S
C225 C227 1.393 . S
C225 C229 1.395 . S
C225 C232 1.492 . S
C226 C227 1.392 . S
C226 C228 1.386 . S
C227 C225 1.393 . S
C227 C226 1.392 . S
C227 H244 0.930 . S
C228 C226 1.386 . S
C228 C230 1.395 . S
C228 H245 0.930 . S
C229 C225 1.395 . S
C229 C230 1.379 . S
C229 H246 0.930 . S
C230 C228 1.395 . S
C230 C229 1.379 . S
C230 H247 0.930 . S
C231 O214 1.264 . S
C231 O215 1.254 1_554 S
C232 Eu168 2.848 . S
C232 O212 1.257 . S
C232 O217 1.249 . S
C232 C225 1.492 . S
C233 H198 0.931 . S
C233 C211 1.420 . S
C233 C234 1.351 . S
C234 H196 0.930 1_556 S
C234 C202 1.423 1_556 S
C234 C233 1.351 . S
C235 O219 1.276 . S
C235 O222 1.235 . S
C236 C237 1.393 . S
C236 C240 1.395 . S
C236 C243 1.492 . S
C237 C236 1.393 . S
C237 C238 1.392 . S
C237 H248 0.930 . S
C238 C237 1.392 . S
C238 C239 1.386 . S
C239 C238 1.386 . S
C239 C241 1.395 . S
C239 H249 0.930 . S
C240 C236 1.395 . S
C240 C241 1.379 . S
C240 H250 0.930 . S
C241 C239 1.395 . S
C241 C240 1.379 . S
C241 H251 0.930 . S
C242 O220 1.264 . S
C242 O221 1.254 . S
C243 Eu179 2.848 . S
C243 O218 1.257 . S
C243 O223 1.249 . S
C243 C236 1.492 . S
H244 C227 0.930 . S
H245 C228 0.930 . S
H246 C229 0.930 . S
H247 C230 0.930 . S
H248 C237 0.930 . S
H249 C239 0.930 . S
H250 C240 0.930 . S
H251 C241 0.930 . S
Eu252 N283 2.657 . S
Eu252 N290 2.609 . S
Eu252 O296 2.558 . S
Eu252 O297 2.612 . S
Eu252 O299 2.339 . S
Eu252 O300 2.563 . S
Eu252 O301 2.419 . S
Eu252 O303 2.380 . S
Eu252 O304 2.432 . S
Eu252 C316 2.848 . S
C253 C256 1.429 . S
C253 C257 1.411 . S
C253 N260 1.377 . S
C254 C256 1.420 . S
C254 C258 1.423 . S
C254 C266 1.392 . S
C255 C257 1.420 1_565 S
C255 C258 1.351 1_565 S
C255 H278 0.931 . S
C256 C253 1.429 . S
C256 C254 1.420 . S
C256 N264 1.362 . S
C257 C253 1.411 . S
C257 C255 1.420 1_545 S
C257 C262 1.395 1_545 S
C258 C254 1.423 . S
C258 C255 1.351 1_545 S
C258 H270 0.930 . S
C259 C261 1.400 . S
C259 C262 1.386 1_545 S
C259 H271 0.930 . S
N260 C253 1.377 . S
N260 C261 1.321 . S
N260 Eu263 2.609 . S
C261 C259 1.400 . S
C261 N260 1.321 . S
C261 H268 0.930 . S
C262 C257 1.395 1_565 S
C262 C259 1.386 1_565 S
C262 H281 0.930 . S
Eu263 N260 2.609 . S
Eu263 N264 2.657 . S
Eu263 O297 2.380 . S
Eu263 O298 2.432 . S
Eu263 O302 2.558 . S
Eu263 O303 2.612 . S
Eu263 O305 2.339 . S
Eu263 O306 2.563 . S
Eu263 O307 2.419 . S
Eu263 C327 2.848 . S
N264 C256 1.362 . S
N264 Eu263 2.657 . S
N264 C265 1.334 . S
C265 N264 1.334 . S
C265 C267 1.413 . S
C265 H272 0.929 . S
C266 C254 1.392 . S
C266 C267 1.367 . S
C266 H274 0.930 . S
C267 C265 1.413 . S
C267 C266 1.367 . S
C267 H269 0.930 . S
H268 C261 0.930 . S
H269 C267 0.930 . S
H270 C258 0.930 . S
H271 C259 0.930 . S
H272 C265 0.929 . S
H273 C287 0.930 . S
H274 C266 0.930 . S
H275 C293 0.930 . S
H276 C284 0.929 . S
H277 C291 0.930 . S
H278 C255 0.931 . S
H279 C285 0.930 . S
H280 C318 0.930 . S
H281 C262 0.930 . S
H282 C317 0.931 . S
N283 Eu252 2.657 . S
N283 C284 1.334 . S
N283 C288 1.362 . S
C284 H276 0.929 . S
C284 N283 1.334 . S
C284 C287 1.413 . S
C285 H279 0.930 . S
C285 C286 1.392 . S
C285 C287 1.367 . S
C286 C285 1.392 . S
C286 C288 1.420 . S
C286 C318 1.423 . S
C287 H273 0.930 . S
C287 C284 1.413 . S
C287 C285 1.367 . S
C288 N283 1.362 . S
C288 C286 1.420 . S
C288 C292 1.429 . S
H289 C294 0.930 . S
N290 Eu252 2.609 . S
N290 C292 1.377 . S
N290 C293 1.321 . S
C291 H277 0.930 . S
C291 C293 1.400 . S
C291 C294 1.386 . S
C292 C288 1.429 . S
C292 N290 1.377 . S
C292 C295 1.411 . S
C293 H275 0.930 . S
C293 N290 1.321 . S
C293 C291 1.400 . S
C294 H289 0.930 . S
C294 C291 1.386 . S
C294 C295 1.395 . S
C295 C292 1.411 . S
C295 C294 1.395 . S
C295 C317 1.420 . S
O296 Eu252 2.558 . S
O296 C316 1.257 . S
O297 Eu252 2.612 . S
O297 Eu263 2.380 . S
O297 C308 1.276 . S
O298 Eu263 2.432 . S
O298 C315 1.264 . S
O299 Eu252 2.339 . S
O299 C315 1.254 . S
O300 Eu252 2.563 . S
O300 C308 1.235 . S
O301 Eu252 2.419 . S
O301 C316 1.249 . S
O302 Eu263 2.558 . S
O302 C327 1.257 . S
O303 Eu252 2.380 . S
O303 Eu263 2.612 . S
O303 C319 1.276 . S
O304 Eu252 2.432 . S
O304 C326 1.264 . S
O305 Eu263 2.339 . S
O305 C326 1.254 . S
O306 Eu263 2.563 . S
O306 C319 1.235 . S
O307 Eu263 2.419 . S
O307 C327 1.249 . S
C308 O297 1.276 . S
C308 O300 1.235 . S
C309 C311 1.393 . S
C309 C313 1.395 . S
C309 C316 1.492 . S
C310 C311 1.392 . S
C310 C312 1.386 . S
C311 C309 1.393 . S
C311 C310 1.392 . S
C311 H328 0.930 . S
C312 C310 1.386 . S
C312 C314 1.395 . S
C312 H329 0.930 . S
C313 C309 1.395 . S
C313 C314 1.379 . S
C313 H330 0.930 . S
C314 C312 1.395 . S
C314 C313 1.379 . S
C314 H331 0.930 . S
C315 O298 1.264 . S
C315 O299 1.254 . S
C316 Eu252 2.848 . S
C316 O296 1.257 . S
C316 O301 1.249 . S
C316 C309 1.492 . S
C317 H282 0.931 . S
C317 C295 1.420 . S
C317 C318 1.351 . S
C318 H280 0.930 . S
C318 C286 1.423 . S
C318 C317 1.351 . S
C319 O303 1.276 . S
C319 O306 1.235 . S
C320 C321 1.393 . S
C320 C324 1.395 . S
C320 C327 1.492 . S
C321 C320 1.393 . S
C321 C322 1.392 . S
C321 H332 0.930 . S
C322 C321 1.392 . S
C322 C323 1.386 . S
C323 C322 1.386 . S
C323 C325 1.395 . S
C323 H333 0.930 . S
C324 C320 1.395 . S
C324 C325 1.379 . S
C324 H334 0.930 . S
C325 C323 1.395 . S
C325 C324 1.379 . S
C325 H335 0.930 . S
C326 O304 1.264 . S
C326 O305 1.254 . S
C327 Eu263 2.848 . S
C327 O302 1.257 . S
C327 O307 1.249 . S
C327 C320 1.492 . S
H328 C311 0.930 . S
H329 C312 0.930 . S
H330 C313 0.930 . S
H331 C314 0.930 . S
H332 C321 0.930 . S
H333 C323 0.930 . S
H334 C324 0.930 . S
H335 C325 0.930 . S
Eu336 N367 2.657 . S
Eu336 N374 2.609 . S
Eu336 O380 2.558 . S
Eu336 O381 2.612 . S
Eu336 O383 2.339 . S
Eu336 O384 2.563 . S
Eu336 O385 2.419 . S
Eu336 O387 2.380 . S
Eu336 O388 2.432 . S
Eu336 C400 2.848 . S
C337 C340 1.429 . S
C337 C341 1.411 . S
C337 N344 1.377 . S
C338 C340 1.420 . S
C338 C342 1.423 . S
C338 C350 1.392 . S
C339 C341 1.420 . S
C339 C342 1.351 . S
C339 H362 0.931 . S
C340 C337 1.429 . S
C340 C338 1.420 . S
C340 N348 1.362 . S
C341 C337 1.411 . S
C341 C339 1.420 . S
C341 C346 1.395 . S
C342 C338 1.423 . S
C342 C339 1.351 . S
C342 H354 0.930 . S
C343 C345 1.400 . S
C343 C346 1.386 . S
C343 H355 0.930 . S
N344 C337 1.377 . S
N344 C345 1.321 . S
N344 Eu347 2.609 . S
C345 C343 1.400 . S
C345 N344 1.321 . S
C345 H352 0.930 . S
C346 C341 1.395 . S
C346 C343 1.386 . S
C346 H365 0.930 . S
Eu347 N344 2.609 . S
Eu347 N348 2.657 . S
Eu347 O381 2.380 . S
Eu347 O382 2.432 . S
Eu347 O386 2.558 . S
Eu347 O387 2.612 . S
Eu347 O389 2.339 . S
Eu347 O390 2.563 . S
Eu347 O391 2.419 . S
Eu347 C411 2.848 . S
N348 C340 1.362 . S
N348 Eu347 2.657 . S
N348 C349 1.334 . S
C349 N348 1.334 . S
C349 C351 1.413 . S
C349 H356 0.929 . S
C350 C338 1.392 . S
C350 C351 1.367 . S
C350 H358 0.930 . S
C351 C349 1.413 . S
C351 C350 1.367 . S
C351 H353 0.930 . S
H352 C345 0.930 . S
H353 C351 0.930 . S
H354 C342 0.930 . S
H355 C343 0.930 . S
H356 C349 0.929 . S
H357 C371 0.930 . S
H358 C350 0.930 . S
H359 C377 0.930 . S
H360 C368 0.929 . S
H361 C375 0.930 . S
H362 C339 0.931 . S
H363 C369 0.930 . S
H364 C402 0.930 . S
H365 C346 0.930 . S
H366 C401 0.931 . S
N367 Eu336 2.657 . S
N367 C368 1.334 . S
N367 C372 1.362 . S
C368 H360 0.929 . S
C368 N367 1.334 . S
C368 C371 1.413 . S
C369 H363 0.930 . S
C369 C370 1.392 . S
C369 C371 1.367 . S
C370 C369 1.392 . S
C370 C372 1.420 . S
C370 C402 1.423 . S
C371 H357 0.930 . S
C371 C368 1.413 . S
C371 C369 1.367 . S
C372 N367 1.362 . S
C372 C370 1.420 . S
C372 C376 1.429 . S
H373 C378 0.930 . S
N374 Eu336 2.609 . S
N374 C376 1.377 . S
N374 C377 1.321 . S
C375 H361 0.930 . S
C375 C377 1.400 . S
C375 C378 1.386 . S
C376 C372 1.429 . S
C376 N374 1.377 . S
C376 C379 1.411 . S
C377 H359 0.930 . S
C377 N374 1.321 . S
C377 C375 1.400 . S
C378 H373 0.930 . S
C378 C375 1.386 . S
C378 C379 1.395 . S
C379 C376 1.411 . S
C379 C378 1.395 . S
C379 C401 1.420 . S
O380 Eu336 2.558 . S
O380 C400 1.257 . S
O381 Eu336 2.612 . S
O381 Eu347 2.380 . S
O381 C392 1.276 . S
O382 Eu347 2.432 . S
O382 C399 1.264 . S
O383 Eu336 2.339 . S
O383 C399 1.254 . S
O384 Eu336 2.563 . S
O384 C392 1.235 . S
O385 Eu336 2.419 . S
O385 C400 1.249 . S
O386 Eu347 2.558 . S
O386 C411 1.257 . S
O387 Eu336 2.380 . S
O387 Eu347 2.612 . S
O387 C403 1.276 . S
O388 Eu336 2.432 . S
O388 C410 1.264 . S
O389 Eu347 2.339 . S
O389 C410 1.254 . S
O390 Eu347 2.563 . S
O390 C403 1.235 . S
O391 Eu347 2.419 . S
O391 C411 1.249 . S
C392 O381 1.276 . S
C392 O384 1.235 . S
C393 C395 1.393 . S
C393 C397 1.395 . S
C393 C400 1.492 . S
C394 C395 1.392 . S
C394 C396 1.386 . S
C395 C393 1.393 . S
C395 C394 1.392 . S
C395 H412 0.930 . S
C396 C394 1.386 . S
C396 C398 1.395 . S
C396 H413 0.930 . S
C397 C393 1.395 . S
C397 C398 1.379 . S
C397 H414 0.930 . S
C398 C396 1.395 . S
C398 C397 1.379 . S
C398 H415 0.930 . S
C399 O382 1.264 . S
C399 O383 1.254 . S
C400 Eu336 2.848 . S
C400 O380 1.257 . S
C400 O385 1.249 . S
C400 C393 1.492 . S
C401 H366 0.931 . S
C401 C379 1.420 . S
C401 C402 1.351 . S
C402 H364 0.930 . S
C402 C370 1.423 . S
C402 C401 1.351 . S
C403 O387 1.276 . S
C403 O390 1.235 . S
C404 C405 1.393 . S
C404 C408 1.395 . S
C404 C411 1.492 . S
C405 C404 1.393 . S
C405 C406 1.392 . S
C405 H416 0.930 . S
C406 C405 1.392 . S
C406 C407 1.386 . S
C407 C406 1.386 . S
C407 C409 1.395 . S
C407 H417 0.930 . S
C408 C404 1.395 . S
C408 C409 1.379 . S
C408 H418 0.930 . S
C409 C407 1.395 . S
C409 C408 1.379 . S
C409 H419 0.930 . S
C410 O388 1.264 . S
C410 O389 1.254 . S
C411 Eu347 2.848 . S
C411 O386 1.257 . S
C411 O391 1.249 . S
C411 C404 1.492 . S
H412 C395 0.930 . S
H413 C396 0.930 . S
H414 C397 0.930 . S
H415 C398 0.930 . S
H416 C405 0.930 . S
H417 C407 0.930 . S
H418 C408 0.930 . S
H419 C409 0.930 . S
Eu420 N451 2.657 . S
Eu420 N458 2.609 . S
Eu420 O464 2.558 . S
Eu420 O465 2.612 . S
Eu420 O467 2.339 . S
Eu420 O468 2.563 . S
Eu420 O469 2.419 . S
Eu420 O471 2.380 1_655 S
Eu420 O472 2.432 . S
Eu420 C484 2.848 . S
C421 C424 1.429 1_455 S
C421 C425 1.411 . S
C421 N428 1.377 . S
C422 C424 1.420 . S
C422 C426 1.423 . S
C422 C434 1.392 . S
C423 C425 1.420 . S
C423 C426 1.351 1_455 S
C423 H446 0.931 . S
C424 C421 1.429 1_655 S
C424 C422 1.420 . S
C424 N432 1.362 . S
C425 C421 1.411 . S
C425 C423 1.420 . S
C425 C430 1.395 . S
C426 C422 1.423 . S
C426 C423 1.351 1_655 S
C426 H438 0.930 . S
C427 C429 1.400 . S
C427 C430 1.386 . S
C427 H439 0.930 . S
N428 C421 1.377 . S
N428 C429 1.321 . S
N428 Eu431 2.609 . S
C429 C427 1.400 . S
C429 N428 1.321 . S
C429 H436 0.930 . S
C430 C425 1.395 . S
C430 C427 1.386 . S
C430 H449 0.930 . S
Eu431 N428 2.609 . S
Eu431 N432 2.657 1_455 S
Eu431 O465 2.380 1_455 S
Eu431 O466 2.432 . S
Eu431 O470 2.558 . S
Eu431 O471 2.612 . S
Eu431 O473 2.339 1_455 S
Eu431 O474 2.563 . S
Eu431 O475 2.419 . S
Eu431 C495 2.848 . S
N432 C424 1.362 . S
N432 Eu431 2.657 1_655 S
N432 C433 1.334 . S
C433 N432 1.334 . S
C433 C435 1.413 . S
C433 H440 0.929 . S
C434 C422 1.392 . S
C434 C435 1.367 . S
C434 H442 0.930 . S
C435 C433 1.413 . S
C435 C434 1.367 . S
C435 H437 0.930 . S
H436 C429 0.930 . S
H437 C435 0.930 . S
H438 C426 0.930 . S
H439 C427 0.930 . S
H440 C433 0.929 . S
H441 C455 0.930 . S
H442 C434 0.930 . S
H443 C461 0.930 . S
H444 C452 0.929 . S
H445 C459 0.930 . S
H446 C423 0.931 . S
H447 C453 0.930 . S
H448 C486 0.930 1_455 S
H449 C430 0.930 . S
H450 C485 0.931 . S
N451 Eu420 2.657 . S
N451 C452 1.334 1_655 S
N451 C456 1.362 . S
C452 H444 0.929 . S
C452 N451 1.334 1_455 S
C452 C455 1.413 . S
C453 H447 0.930 . S
C453 C454 1.392 . S
C453 C455 1.367 . S
C454 C453 1.392 . S
C454 C456 1.420 1_455 S
C454 C486 1.423 1_455 S
C455 H441 0.930 . S
C455 C452 1.413 . S
C455 C453 1.367 . S
C456 N451 1.362 . S
C456 C454 1.420 1_655 S
C456 C460 1.429 . S
H457 C462 0.930 . S
N458 Eu420 2.609 . S
N458 C460 1.377 . S
N458 C461 1.321 . S
C459 H445 0.930 . S
C459 C461 1.400 . S
C459 C462 1.386 . S
C460 C456 1.429 . S
C460 N458 1.377 . S
C460 C463 1.411 . S
C461 H443 0.930 . S
C461 N458 1.321 . S
C461 C459 1.400 . S
C462 H457 0.930 . S
C462 C459 1.386 . S
C462 C463 1.395 . S
C463 C460 1.411 . S
C463 C462 1.395 . S
C463 C485 1.420 . S
O464 Eu420 2.558 . S
O464 C484 1.257 . S
O465 Eu420 2.612 . S
O465 Eu431 2.380 1_655 S
O465 C476 1.276 . S
O466 Eu431 2.432 . S
O466 C483 1.264 . S
O467 Eu420 2.339 . S
O467 C483 1.254 1_655 S
O468 Eu420 2.563 . S
O468 C476 1.235 . S
O469 Eu420 2.419 . S
O469 C484 1.249 . S
O470 Eu431 2.558 . S
O470 C495 1.257 . S
O471 Eu420 2.380 1_455 S
O471 Eu431 2.612 . S
O471 C487 1.276 . S
O472 Eu420 2.432 . S
O472 C494 1.264 . S
O473 Eu431 2.339 1_655 S
O473 C494 1.254 . S
O474 Eu431 2.563 . S
O474 C487 1.235 . S
O475 Eu431 2.419 . S
O475 C495 1.249 . S
C476 O465 1.276 . S
C476 O468 1.235 . S
C477 C479 1.393 . S
C477 C481 1.395 . S
C477 C484 1.492 . S
C478 C479 1.392 . S
C478 C480 1.386 . S
C479 C477 1.393 . S
C479 C478 1.392 . S
C479 H496 0.930 . S
C480 C478 1.386 . S
C480 C482 1.395 . S
C480 H497 0.930 . S
C481 C477 1.395 . S
C481 C482 1.379 . S
C481 H498 0.930 . S
C482 C480 1.395 . S
C482 C481 1.379 . S
C482 H499 0.930 . S
C483 O466 1.264 . S
C483 O467 1.254 1_455 S
C484 Eu420 2.848 . S
C484 O464 1.257 . S
C484 O469 1.249 . S
C484 C477 1.492 . S
C485 H450 0.931 . S
C485 C463 1.420 . S
C485 C486 1.351 . S
C486 H448 0.930 1_655 S
C486 C454 1.423 1_655 S
C486 C485 1.351 . S
C487 O471 1.276 . S
C487 O474 1.235 . S
C488 C489 1.393 . S
C488 C492 1.395 . S
C488 C495 1.492 . S
C489 C488 1.393 . S
C489 C490 1.392 . S
C489 H500 0.930 . S
C490 C489 1.392 . S
C490 C491 1.386 . S
C491 C490 1.386 . S
C491 C493 1.395 . S
C491 H501 0.930 . S
C492 C488 1.395 . S
C492 C493 1.379 . S
C492 H502 0.930 . S
C493 C491 1.395 . S
C493 C492 1.379 . S
C493 H503 0.930 . S
C494 O472 1.264 . S
C494 O473 1.254 . S
C495 Eu431 2.848 . S
C495 O470 1.257 . S
C495 O475 1.249 . S
C495 C488 1.492 . S
H496 C479 0.930 . S
H497 C480 0.930 . S
H498 C481 0.930 . S
H499 C482 0.930 . S
H500 C489 0.930 . S
H501 C491 0.930 . S
H502 C492 0.930 . S
H503 C493 0.930 . S
Eu504 N535 2.657 . S
Eu504 N542 2.609 . S
Eu504 O548 2.558 . S
Eu504 O549 2.612 . S
Eu504 O551 2.339 . S
Eu504 O552 2.563 . S
Eu504 O553 2.419 . S
Eu504 O555 2.380 1_554 S
Eu504 O556 2.432 . S
Eu504 C568 2.848 . S
C505 C508 1.429 1_556 S
C505 C509 1.411 . S
C505 N512 1.377 . S
C506 C508 1.420 . S
C506 C510 1.423 . S
C506 C518 1.392 . S
C507 C509 1.420 . S
C507 C510 1.351 1_556 S
C507 H530 0.931 . S
C508 C505 1.429 1_554 S
C508 C506 1.420 . S
C508 N516 1.362 . S
C509 C505 1.411 . S
C509 C507 1.420 . S
C509 C514 1.395 . S
C510 C506 1.423 . S
C510 C507 1.351 1_554 S
C510 H522 0.930 . S
C511 C513 1.400 . S
C511 C514 1.386 . S
C511 H523 0.930 . S
N512 C505 1.377 . S
N512 C513 1.321 . S
N512 Eu515 2.609 . S
C513 C511 1.400 . S
C513 N512 1.321 . S
C513 H520 0.930 . S
C514 C509 1.395 . S
C514 C511 1.386 . S
C514 H533 0.930 . S
Eu515 N512 2.609 . S
Eu515 N516 2.657 1_556 S
Eu515 O549 2.380 1_556 S
Eu515 O550 2.432 . S
Eu515 O554 2.558 . S
Eu515 O555 2.612 . S
Eu515 O557 2.339 1_556 S
Eu515 O558 2.563 . S
Eu515 O559 2.419 . S
Eu515 C579 2.848 . S
N516 C508 1.362 . S
N516 Eu515 2.657 1_554 S
N516 C517 1.334 . S
C517 N516 1.334 . S
C517 C519 1.413 . S
C517 H524 0.929 . S
C518 C506 1.392 . S
C518 C519 1.367 . S
C518 H526 0.930 . S
C519 C517 1.413 . S
C519 C518 1.367 . S
C519 H521 0.930 . S
H520 C513 0.930 . S
H521 C519 0.930 . S
H522 C510 0.930 . S
H523 C511 0.930 . S
H524 C517 0.929 . S
H525 C539 0.930 . S
H526 C518 0.930 . S
H527 C545 0.930 . S
H528 C536 0.929 . S
H529 C543 0.930 . S
H530 C507 0.931 . S
H531 C537 0.930 . S
H532 C570 0.930 1_556 S
H533 C514 0.930 . S
H534 C569 0.931 . S
N535 Eu504 2.657 . S
N535 C536 1.334 1_554 S
N535 C540 1.362 . S
C536 H528 0.929 . S
C536 N535 1.334 1_556 S
C536 C539 1.413 . S
C537 H531 0.930 . S
C537 C538 1.392 . S
C537 C539 1.367 . S
C538 C537 1.392 . S
C538 C540 1.420 1_556 S
C538 C570 1.423 1_556 S
C539 H525 0.930 . S
C539 C536 1.413 . S
C539 C537 1.367 . S
C540 N535 1.362 . S
C540 C538 1.420 1_554 S
C540 C544 1.429 . S
H541 C546 0.930 . S
N542 Eu504 2.609 . S
N542 C544 1.377 . S
N542 C545 1.321 . S
C543 H529 0.930 . S
C543 C545 1.400 . S
C543 C546 1.386 1_655 S
C544 C540 1.429 . S
C544 N542 1.377 . S
C544 C547 1.411 . S
C545 H527 0.930 . S
C545 N542 1.321 . S
C545 C543 1.400 . S
C546 H541 0.930 . S
C546 C543 1.386 1_455 S
C546 C547 1.395 1_455 S
C547 C544 1.411 . S
C547 C546 1.395 1_655 S
C547 C569 1.420 1_655 S
O548 Eu504 2.558 . S
O548 C568 1.257 . S
O549 Eu504 2.612 . S
O549 Eu515 2.380 1_554 S
O549 C560 1.276 . S
O550 Eu515 2.432 . S
O550 C567 1.264 . S
O551 Eu504 2.339 . S
O551 C567 1.254 1_554 S
O552 Eu504 2.563 . S
O552 C560 1.235 . S
O553 Eu504 2.419 . S
O553 C568 1.249 . S
O554 Eu515 2.558 . S
O554 C579 1.257 . S
O555 Eu504 2.380 1_556 S
O555 Eu515 2.612 . S
O555 C571 1.276 . S
O556 Eu504 2.432 . S
O556 C578 1.264 . S
O557 Eu515 2.339 1_554 S
O557 C578 1.254 . S
O558 Eu515 2.563 . S
O558 C571 1.235 . S
O559 Eu515 2.419 . S
O559 C579 1.249 . S
C560 O549 1.276 . S
C560 O552 1.235 . S
C561 C563 1.393 . S
C561 C565 1.395 . S
C561 C568 1.492 . S
C562 C563 1.392 . S
C562 C564 1.386 . S
C563 C561 1.393 . S
C563 C562 1.392 . S
C563 H580 0.930 . S
C564 C562 1.386 . S
C564 C566 1.395 . S
C564 H581 0.930 . S
C565 C561 1.395 . S
C565 C566 1.379 . S
C565 H582 0.930 . S
C566 C564 1.395 . S
C566 C565 1.379 . S
C566 H583 0.930 . S
C567 O550 1.264 . S
C567 O551 1.254 1_556 S
C568 Eu504 2.848 . S
C568 O548 1.257 . S
C568 O553 1.249 . S
C568 C561 1.492 . S
C569 H534 0.931 . S
C569 C547 1.420 1_455 S
C569 C570 1.351 1_455 S
C570 H532 0.930 1_554 S
C570 C538 1.423 1_554 S
C570 C569 1.351 1_655 S
C571 O555 1.276 . S
C571 O558 1.235 . S
C572 C573 1.393 . S
C572 C576 1.395 . S
C572 C579 1.492 . S
C573 C572 1.393 . S
C573 C574 1.392 . S
C573 H584 0.930 . S
C574 C573 1.392 . S
C574 C575 1.386 . S
C575 C574 1.386 . S
C575 C577 1.395 . S
C575 H585 0.930 . S
C576 C572 1.395 . S
C576 C577 1.379 . S
C576 H586 0.930 . S
C577 C575 1.395 . S
C577 C576 1.379 . S
C577 H587 0.930 . S
C578 O556 1.264 . S
C578 O557 1.254 . S
C579 Eu515 2.848 . S
C579 O554 1.257 . S
C579 O559 1.249 . S
C579 C572 1.492 . S
H580 C563 0.930 . S
H581 C564 0.930 . S
H582 C565 0.930 . S
H583 C566 0.930 . S
H584 C573 0.930 . S
H585 C575 0.930 . S
H586 C576 0.930 . S
H587 C577 0.930 . S
Eu588 N619 2.657 . S
Eu588 N626 2.609 . S
Eu588 O632 2.558 . S
Eu588 O633 2.612 . S
Eu588 O635 2.339 . S
Eu588 O636 2.563 . S
Eu588 O637 2.419 . S
Eu588 O639 2.380 . S
Eu588 O640 2.432 . S
Eu588 C652 2.848 . S
C589 C592 1.429 . S
C589 C593 1.411 . S
C589 N596 1.377 . S
C590 C592 1.420 . S
C590 C594 1.423 . S
C590 C602 1.392 . S
C591 C593 1.420 . S
C591 C594 1.351 . S
C591 H614 0.931 . S
C592 C589 1.429 . S
C592 C590 1.420 . S
C592 N600 1.362 . S
C593 C589 1.411 . S
C593 C591 1.420 . S
C593 C598 1.395 . S
C594 C590 1.423 . S
C594 C591 1.351 . S
C594 H606 0.930 . S
C595 C597 1.400 . S
C595 C598 1.386 . S
C595 H607 0.930 . S
N596 C589 1.377 . S
N596 C597 1.321 . S
N596 Eu599 2.609 . S
C597 C595 1.400 . S
C597 N596 1.321 . S
C597 H604 0.930 . S
C598 C593 1.395 . S
C598 C595 1.386 . S
C598 H617 0.930 . S
Eu599 N596 2.609 . S
Eu599 N600 2.657 . S
Eu599 O633 2.380 . S
Eu599 O634 2.432 . S
Eu599 O638 2.558 . S
Eu599 O639 2.612 . S
Eu599 O641 2.339 . S
Eu599 O642 2.563 . S
Eu599 O643 2.419 . S
Eu599 C663 2.848 . S
N600 C592 1.362 . S
N600 Eu599 2.657 . S
N600 C601 1.334 . S
C601 N600 1.334 . S
C601 C603 1.413 . S
C601 H608 0.929 . S
C602 C590 1.392 . S
C602 C603 1.367 . S
C602 H610 0.930 . S
C603 C601 1.413 . S
C603 C602 1.367 . S
C603 H605 0.930 . S
H604 C597 0.930 . S
H605 C603 0.930 . S
H606 C594 0.930 . S
H607 C595 0.930 . S
H608 C601 0.929 . S
H609 C623 0.930 . S
H610 C602 0.930 . S
H611 C629 0.930 . S
H612 C620 0.929 . S
H613 C627 0.930 . S
H614 C591 0.931 . S
H615 C621 0.930 . S
H616 C654 0.930 . S
H617 C598 0.930 . S
H618 C653 0.931 . S
N619 Eu588 2.657 . S
N619 C620 1.334 . S
N619 C624 1.362 . S
C620 H612 0.929 . S
C620 N619 1.334 . S
C620 C623 1.413 . S
C621 H615 0.930 . S
C621 C622 1.392 . S
C621 C623 1.367 . S
C622 C621 1.392 . S
C622 C624 1.420 . S
C622 C654 1.423 . S
C623 H609 0.930 . S
C623 C620 1.413 . S
C623 C621 1.367 . S
C624 N619 1.362 . S
C624 C622 1.420 . S
C624 C628 1.429 . S
H625 C630 0.930 . S
N626 Eu588 2.609 . S
N626 C628 1.377 . S
N626 C629 1.321 . S
C627 H613 0.930 . S
C627 C629 1.400 . S
C627 C630 1.386 . S
C628 C624 1.429 . S
C628 N626 1.377 . S
C628 C631 1.411 . S
C629 H611 0.930 . S
C629 N626 1.321 . S
C629 C627 1.400 . S
C630 H625 0.930 . S
C630 C627 1.386 . S
C630 C631 1.395 . S
C631 C628 1.411 . S
C631 C630 1.395 . S
C631 C653 1.420 . S
O632 Eu588 2.558 . S
O632 C652 1.257 . S
O633 Eu588 2.612 . S
O633 Eu599 2.380 . S
O633 C644 1.276 . S
O634 Eu599 2.432 . S
O634 C651 1.264 . S
O635 Eu588 2.339 . S
O635 C651 1.254 . S
O636 Eu588 2.563 . S
O636 C644 1.235 . S
O637 Eu588 2.419 . S
O637 C652 1.249 . S
O638 Eu599 2.558 . S
O638 C663 1.257 . S
O639 Eu588 2.380 . S
O639 Eu599 2.612 . S
O639 C655 1.276 . S
O640 Eu588 2.432 . S
O640 C662 1.264 . S
O641 Eu599 2.339 . S
O641 C662 1.254 . S
O642 Eu599 2.563 . S
O642 C655 1.235 . S
O643 Eu599 2.419 . S
O643 C663 1.249 . S
C644 O633 1.276 . S
C644 O636 1.235 . S
C645 C647 1.393 . S
C645 C649 1.395 . S
C645 C652 1.492 . S
C646 C647 1.392 . S
C646 C648 1.386 . S
C647 C645 1.393 . S
C647 C646 1.392 . S
C647 H664 0.930 . S
C648 C646 1.386 . S
C648 C650 1.395 . S
C648 H665 0.930 . S
C649 C645 1.395 . S
C649 C650 1.379 . S
C649 H666 0.930 . S
C650 C648 1.395 . S
C650 C649 1.379 . S
C650 H667 0.930 . S
C651 O634 1.264 . S
C651 O635 1.254 . S
C652 Eu588 2.848 . S
C652 O632 1.257 . S
C652 O637 1.249 . S
C652 C645 1.492 . S
C653 H618 0.931 . S
C653 C631 1.420 . S
C653 C654 1.351 . S
C654 H616 0.930 . S
C654 C622 1.423 . S
C654 C653 1.351 . S
C655 O639 1.276 . S
C655 O642 1.235 . S
C656 C657 1.393 . S
C656 C660 1.395 . S
C656 C663 1.492 . S
C657 C656 1.393 . S
C657 C658 1.392 . S
C657 H668 0.930 . S
C658 C657 1.392 . S
C658 C659 1.386 . S
C659 C658 1.386 . S
C659 C661 1.395 . S
C659 H669 0.930 . S
C660 C656 1.395 . S
C660 C661 1.379 . S
C660 H670 0.930 . S
C661 C659 1.395 . S
C661 C660 1.379 . S
C661 H671 0.930 . S
C662 O640 1.264 . S
C662 O641 1.254 . S
C663 Eu599 2.848 . S
C663 O638 1.257 . S
C663 O643 1.249 . S
C663 C656 1.492 . S
H664 C647 0.930 . S
H665 C648 0.930 . S
H666 C649 0.930 . S
H667 C650 0.930 . S
H668 C657 0.930 . S
H669 C659 0.930 . S
H670 C660 0.930 . S
H671 C661 0.930 . S
Eu672 N703 2.657 . S
Eu672 N710 2.609 . S
Eu672 O716 2.558 . S
Eu672 O717 2.612 . S
Eu672 O719 2.339 . S
Eu672 O720 2.563 . S
Eu672 O721 2.419 . S
Eu672 O723 2.380 . S
Eu672 O724 2.432 . S
Eu672 C736 2.848 . S
C673 C676 1.429 . S
C673 C677 1.411 . S
C673 N680 1.377 . S
C674 C676 1.420 . S
C674 C678 1.423 . S
C674 C686 1.392 . S
C675 C677 1.420 1_556 S
C675 C678 1.351 1_556 S
C675 H698 0.931 . S
C676 C673 1.429 . S
C676 C674 1.420 . S
C676 N684 1.362 . S
C677 C673 1.411 . S
C677 C675 1.420 1_554 S
C677 C682 1.395 1_554 S
C678 C674 1.423 . S
C678 C675 1.351 1_554 S
C678 H690 0.930 . S
C679 C681 1.400 . S
C679 C682 1.386 1_554 S
C679 H691 0.930 . S
N680 C673 1.377 . S
N680 C681 1.321 . S
N680 Eu683 2.609 . S
C681 C679 1.400 . S
C681 N680 1.321 . S
C681 H688 0.930 . S
C682 C677 1.395 1_556 S
C682 C679 1.386 1_556 S
C682 H701 0.930 . S
Eu683 N680 2.609 . S
Eu683 N684 2.657 . S
Eu683 O717 2.380 . S
Eu683 O718 2.432 . S
Eu683 O722 2.558 . S
Eu683 O723 2.612 . S
Eu683 O725 2.339 . S
Eu683 O726 2.563 . S
Eu683 O727 2.419 . S
Eu683 C747 2.848 . S
N684 C676 1.362 . S
N684 Eu683 2.657 . S
N684 C685 1.334 . S
C685 N684 1.334 . S
C685 C687 1.413 . S
C685 H692 0.929 . S
C686 C674 1.392 . S
C686 C687 1.367 . S
C686 H694 0.930 . S
C687 C685 1.413 . S
C687 C686 1.367 . S
C687 H689 0.930 . S
H688 C681 0.930 . S
H689 C687 0.930 . S
H690 C678 0.930 . S
H691 C679 0.930 . S
H692 C685 0.929 . S
H693 C707 0.930 . S
H694 C686 0.930 . S
H695 C713 0.930 . S
H696 C704 0.929 . S
H697 C711 0.930 . S
H698 C675 0.931 . S
H699 C705 0.930 . S
H700 C738 0.930 . S
H701 C682 0.930 . S
H702 C737 0.931 . S
N703 Eu672 2.657 . S
N703 C704 1.334 . S
N703 C708 1.362 . S
C704 H696 0.929 . S
C704 N703 1.334 . S
C704 C707 1.413 . S
C705 H699 0.930 . S
C705 C706 1.392 . S
C705 C707 1.367 . S
C706 C705 1.392 . S
C706 C708 1.420 . S
C706 C738 1.423 . S
C707 H693 0.930 . S
C707 C704 1.413 . S
C707 C705 1.367 . S
C708 N703 1.362 . S
C708 C706 1.420 . S
C708 C712 1.429 . S
H709 C714 0.930 . S
N710 Eu672 2.609 . S
N710 C712 1.377 . S
N710 C713 1.321 . S
C711 H697 0.930 . S
C711 C713 1.400 . S
C711 C714 1.386 . S
C712 C708 1.429 . S
C712 N710 1.377 . S
C712 C715 1.411 . S
C713 H695 0.930 . S
C713 N710 1.321 . S
C713 C711 1.400 . S
C714 H709 0.930 . S
C714 C711 1.386 . S
C714 C715 1.395 . S
C715 C712 1.411 . S
C715 C714 1.395 . S
C715 C737 1.420 . S
O716 Eu672 2.558 . S
O716 C736 1.257 . S
O717 Eu672 2.612 . S
O717 Eu683 2.380 . S
O717 C728 1.276 . S
O718 Eu683 2.432 . S
O718 C735 1.264 . S
O719 Eu672 2.339 . S
O719 C735 1.254 . S
O720 Eu672 2.563 . S
O720 C728 1.235 . S
O721 Eu672 2.419 . S
O721 C736 1.249 . S
O722 Eu683 2.558 . S
O722 C747 1.257 . S
O723 Eu672 2.380 . S
O723 Eu683 2.612 . S
O723 C739 1.276 . S
O724 Eu672 2.432 . S
O724 C746 1.264 . S
O725 Eu683 2.339 . S
O725 C746 1.254 . S
O726 Eu683 2.563 . S
O726 C739 1.235 . S
O727 Eu683 2.419 . S
O727 C747 1.249 . S
C728 O717 1.276 . S
C728 O720 1.235 . S
C729 C731 1.393 . S
C729 C733 1.395 . S
C729 C736 1.492 . S
C730 C731 1.392 . S
C730 C732 1.386 . S
C731 C729 1.393 . S
C731 C730 1.392 . S
C731 H748 0.930 . S
C732 C730 1.386 . S
C732 C734 1.395 . S
C732 H749 0.930 . S
C733 C729 1.395 . S
C733 C734 1.379 . S
C733 H750 0.930 . S
C734 C732 1.395 . S
C734 C733 1.379 . S
C734 H751 0.930 . S
C735 O718 1.264 . S
C735 O719 1.254 . S
C736 Eu672 2.848 . S
C736 O716 1.257 . S
C736 O721 1.249 . S
C736 C729 1.492 . S
C737 H702 0.931 . S
C737 C715 1.420 . S
C737 C738 1.351 . S
C738 H700 0.930 . S
C738 C706 1.423 . S
C738 C737 1.351 . S
C739 O723 1.276 . S
C739 O726 1.235 . S
C740 C741 1.393 . S
C740 C744 1.395 . S
C740 C747 1.492 . S
C741 C740 1.393 . S
C741 C742 1.392 . S
C741 H752 0.930 . S
C742 C741 1.392 . S
C742 C743 1.386 . S
C743 C742 1.386 . S
C743 C745 1.395 . S
C743 H753 0.930 . S
C744 C740 1.395 . S
C744 C745 1.379 . S
C744 H754 0.930 . S
C745 C743 1.395 . S
C745 C744 1.379 . S
C745 H755 0.930 . S
C746 O724 1.264 . S
C746 O725 1.254 . S
C747 Eu683 2.848 . S
C747 O722 1.257 . S
C747 O727 1.249 . S
C747 C740 1.492 . S
H748 C731 0.930 . S
H749 C732 0.930 . S
H750 C733 0.930 . S
H751 C734 0.930 . S
H752 C741 0.930 . S
H753 C743 0.930 . S
H754 C744 0.930 . S
H755 C745 0.930 . S
Eu756 N787 2.657 . S
Eu756 N794 2.609 . S
Eu756 O800 2.558 . S
Eu756 O801 2.612 . S
Eu756 O803 2.339 . S
Eu756 O804 2.563 . S
Eu756 O805 2.419 . S
Eu756 O807 2.380 1_545 S
Eu756 O808 2.432 . S
Eu756 C820 2.848 . S
C757 C760 1.429 1_565 S
C757 C761 1.411 . S
C757 N764 1.377 . S
C758 C760 1.420 . S
C758 C762 1.423 . S
C758 C770 1.392 . S
C759 C761 1.420 . S
C759 C762 1.351 1_565 S
C759 H782 0.931 . S
C760 C757 1.429 1_545 S
C760 C758 1.420 . S
C760 N768 1.362 . S
C761 C757 1.411 . S
C761 C759 1.420 . S
C761 C766 1.395 . S
C762 C758 1.423 . S
C762 C759 1.351 1_545 S
C762 H774 0.930 . S
C763 C765 1.400 . S
C763 C766 1.386 . S
C763 H775 0.930 . S
N764 C757 1.377 . S
N764 C765 1.321 . S
N764 Eu767 2.609 . S
C765 C763 1.400 . S
C765 N764 1.321 . S
C765 H772 0.930 . S
C766 C761 1.395 . S
C766 C763 1.386 . S
C766 H785 0.930 . S
Eu767 N764 2.609 . S
Eu767 N768 2.657 1_565 S
Eu767 O801 2.380 1_565 S
Eu767 O802 2.432 . S
Eu767 O806 2.558 . S
Eu767 O807 2.612 . S
Eu767 O809 2.339 1_565 S
Eu767 O810 2.563 . S
Eu767 O811 2.419 . S
Eu767 C831 2.848 . S
N768 C760 1.362 . S
N768 Eu767 2.657 1_545 S
N768 C769 1.334 . S
C769 N768 1.334 . S
C769 C771 1.413 . S
C769 H776 0.929 . S
C770 C758 1.392 . S
C770 C771 1.367 . S
C770 H778 0.930 . S
C771 C769 1.413 . S
C771 C770 1.367 . S
C771 H773 0.930 . S
H772 C765 0.930 . S
H773 C771 0.930 . S
H774 C762 0.930 . S
H775 C763 0.930 . S
H776 C769 0.929 . S
H777 C791 0.930 . S
H778 C770 0.930 . S
H779 C797 0.930 . S
H780 C788 0.929 . S
H781 C795 0.930 . S
H782 C759 0.931 . S
H783 C789 0.930 . S
H784 C822 0.923 1_565 S
H785 C766 0.930 . S
H786 C821 0.931 . S
N787 Eu756 2.657 . S
N787 C788 1.334 1_545 S
N787 C792 1.362 . S
C788 H780 0.929 . S
C788 N787 1.334 1_565 S
C788 C791 1.413 . S
C789 H783 0.930 . S
C789 C790 1.392 1_565 S
C789 C791 1.367 . S
C790 C789 1.392 1_545 S
C790 C792 1.420 . S
C790 C822 1.423 . S
C791 H777 0.930 . S
C791 C788 1.413 . S
C791 C789 1.367 . S
C792 N787 1.362 . S
C792 C790 1.420 . S
C792 C796 1.429 . S
H793 C798 0.930 . S
N794 Eu756 2.609 . S
N794 C796 1.377 . S
N794 C797 1.321 . S
C795 H781 0.930 . S
C795 C797 1.400 . S
C795 C798 1.386 1_556 S
C796 C792 1.429 . S
C796 N794 1.377 . S
C796 C799 1.411 . S
C797 H779 0.930 . S
C797 N794 1.321 . S
C797 C795 1.400 . S
C798 H793 0.930 . S
C798 C795 1.386 1_554 S
C798 C799 1.395 1_554 S
C799 C796 1.411 . S
C799 C798 1.395 1_556 S
C799 C821 1.420 1_556 S
O800 Eu756 2.558 . S
O800 C820 1.257 . S
O801 Eu756 2.612 . S
O801 Eu767 2.380 1_545 S
O801 C812 1.276 . S
O802 Eu767 2.432 . S
O802 C819 1.264 . S
O803 Eu756 2.339 . S
O803 C819 1.254 1_545 S
O804 Eu756 2.563 . S
O804 C812 1.235 . S
O805 Eu756 2.419 . S
O805 C820 1.249 . S
O806 Eu767 2.558 . S
O806 C831 1.257 . S
O807 Eu756 2.380 1_565 S
O807 Eu767 2.612 . S
O807 C823 1.276 . S
O808 Eu756 2.432 . S
O808 C830 1.264 . S
O809 Eu767 2.339 1_545 S
O809 C830 1.254 . S
O810 Eu767 2.563 . S
O810 C823 1.235 . S
O811 Eu767 2.419 . S
O811 C831 1.249 . S
C812 O801 1.276 . S
C812 O804 1.235 . S
C813 C815 1.393 . S
C813 C817 1.395 . S
C813 C820 1.492 . S
C814 C815 1.392 . S
C814 C816 1.386 . S
C815 C813 1.393 . S
C815 C814 1.392 . S
C815 H832 0.930 . S
C816 C814 1.386 . S
C816 C818 1.395 . S
C816 H833 0.930 . S
C817 C813 1.395 . S
C817 C818 1.379 . S
C817 H834 0.930 . S
C818 C816 1.395 . S
C818 C817 1.379 . S
C818 H835 0.930 . S
C819 O802 1.264 . S
C819 O803 1.254 1_565 S
C820 Eu756 2.848 . S
C820 O800 1.257 . S
C820 O805 1.249 . S
C820 C813 1.492 . S
C821 H786 0.931 . S
C821 C799 1.420 1_554 S
C821 C822 1.351 1_554 S
C822 H784 0.923 1_545 S
C822 C790 1.423 . S
C822 C821 1.351 1_556 S
C823 O807 1.276 . S
C823 O810 1.235 . S
C824 C825 1.393 . S
C824 C828 1.395 . S
C824 C831 1.492 . S
C825 C824 1.393 . S
C825 C826 1.392 . S
C825 H836 0.930 . S
C826 C825 1.392 . S
C826 C827 1.386 . S
C827 C826 1.386 . S
C827 C829 1.395 . S
C827 H837 0.930 . S
C828 C824 1.395 . S
C828 C829 1.379 . S
C828 H838 0.930 . S
C829 C827 1.395 . S
C829 C828 1.379 . S
C829 H839 0.930 . S
C830 O808 1.264 . S
C830 O809 1.254 . S
C831 Eu767 2.848 . S
C831 O806 1.257 . S
C831 O811 1.249 . S
C831 C824 1.492 . S
H832 C815 0.930 . S
H833 C816 0.930 . S
H834 C817 0.930 . S
H835 C818 0.930 . S
H836 C825 0.930 . S
H837 C827 0.930 . S
H838 C828 0.930 . S
H839 C829 0.930 . S
Eu840 N871 2.657 . S
Eu840 N878 2.609 . S
Eu840 O884 2.558 . S
Eu840 O885 2.612 . S
Eu840 O887 2.339 . S
Eu840 O888 2.563 . S
Eu840 O889 2.419 . S
Eu840 O891 2.380 1_565 S
Eu840 O892 2.432 . S
Eu840 C904 2.848 . S
C841 C844 1.429 1_545 S
C841 C845 1.411 . S
C841 N848 1.377 . S
C842 C844 1.420 . S
C842 C846 1.423 . S
C842 C854 1.392 . S
C843 C845 1.420 . S
C843 C846 1.351 1_545 S
C843 H866 0.931 . S
C844 C841 1.429 1_565 S
C844 C842 1.420 . S
C844 N852 1.362 . S
C845 C841 1.411 . S
C845 C843 1.420 . S
C845 C850 1.395 . S
C846 C842 1.423 . S
C846 C843 1.351 1_565 S
C846 H858 0.930 . S
C847 C849 1.400 . S
C847 C850 1.386 . S
C847 H859 0.930 . S
N848 C841 1.377 . S
N848 C849 1.321 . S
N848 Eu851 2.609 . S
C849 C847 1.400 . S
C849 N848 1.321 . S
C849 H856 0.930 . S
C850 C845 1.395 . S
C850 C847 1.386 . S
C850 H869 0.930 . S
Eu851 N848 2.609 . S
Eu851 N852 2.657 1_545 S
Eu851 O885 2.380 1_545 S
Eu851 O886 2.432 . S
Eu851 O890 2.558 . S
Eu851 O891 2.612 . S
Eu851 O893 2.339 1_545 S
Eu851 O894 2.563 . S
Eu851 O895 2.419 . S
Eu851 C915 2.848 . S
N852 C844 1.362 . S
N852 Eu851 2.657 1_565 S
N852 C853 1.334 . S
C853 N852 1.334 . S
C853 C855 1.413 . S
C853 H860 0.929 . S
C854 C842 1.392 . S
C854 C855 1.367 . S
C854 H862 0.930 . S
C855 C853 1.413 . S
C855 C854 1.367 . S
C855 H857 0.930 . S
H856 C849 0.930 . S
H857 C855 0.930 . S
H858 C846 0.930 . S
H859 C847 0.930 . S
H860 C853 0.929 . S
H861 C875 0.930 . S
H862 C854 0.930 . S
H863 C881 0.930 . S
H864 C872 0.929 . S
H865 C879 0.930 . S
H866 C843 0.931 . S
H867 C873 0.930 . S
H868 C906 0.930 1_545 S
H869 C850 0.930 . S
H870 C905 0.931 . S
N871 Eu840 2.657 . S
N871 C872 1.334 1_565 S
N871 C876 1.362 . S
C872 H864 0.929 . S
C872 N871 1.334 1_545 S
C872 C875 1.413 . S
C873 H867 0.930 . S
C873 C874 1.369 1_545 S
C873 C875 1.367 . S
C874 C873 1.369 1_565 S
C874 C876 1.436 . S
C874 C906 1.431 . S
C875 H861 0.930 . S
C875 C872 1.413 . S
C875 C873 1.367 . S
C876 N871 1.362 . S
C876 C874 1.436 . S
C876 C880 1.429 . S
H877 C882 0.930 . S
N878 Eu840 2.609 . S
N878 C880 1.377 . S
N878 C881 1.321 . S
C879 H865 0.930 . S
C879 C881 1.400 . S
C879 C882 1.386 . S
C880 C876 1.429 . S
C880 N878 1.377 . S
C880 C883 1.411 . S
C881 H863 0.930 . S
C881 N878 1.321 . S
C881 C879 1.400 . S
C882 H877 0.930 . S
C882 C879 1.386 . S
C882 C883 1.395 . S
C883 C880 1.411 . S
C883 C882 1.395 . S
C883 C905 1.420 . S
O884 Eu840 2.558 . S
O884 C904 1.257 . S
O885 Eu840 2.612 . S
O885 Eu851 2.380 1_565 S
O885 C896 1.276 . S
O886 Eu851 2.432 . S
O886 C903 1.264 . S
O887 Eu840 2.339 . S
O887 C903 1.254 1_565 S
O888 Eu840 2.563 . S
O888 C896 1.235 . S
O889 Eu840 2.419 . S
O889 C904 1.249 . S
O890 Eu851 2.558 . S
O890 C915 1.257 . S
O891 Eu840 2.380 1_545 S
O891 Eu851 2.612 . S
O891 C907 1.276 . S
O892 Eu840 2.432 . S
O892 C914 1.264 . S
O893 Eu851 2.339 1_565 S
O893 C914 1.254 . S
O894 Eu851 2.563 . S
O894 C907 1.235 . S
O895 Eu851 2.419 . S
O895 C915 1.249 . S
C896 O885 1.276 . S
C896 O888 1.235 . S
C897 C899 1.393 . S
C897 C901 1.395 . S
C897 C904 1.492 . S
C898 C899 1.392 . S
C898 C900 1.386 . S
C899 C897 1.393 . S
C899 C898 1.392 . S
C899 H916 0.930 . S
C900 C898 1.386 . S
C900 C902 1.395 . S
C900 H917 0.930 . S
C901 C897 1.395 . S
C901 C902 1.379 . S
C901 H918 0.930 . S
C902 C900 1.395 . S
C902 C901 1.379 . S
C902 H919 0.930 . S
C903 O886 1.264 . S
C903 O887 1.254 1_545 S
C904 Eu840 2.848 . S
C904 O884 1.257 . S
C904 O889 1.249 . S
C904 C897 1.492 . S
C905 H870 0.931 . S
C905 C883 1.420 . S
C905 C906 1.351 . S
C906 H868 0.930 1_565 S
C906 C874 1.431 . S
C906 C905 1.351 . S
C907 O891 1.276 . S
C907 O894 1.235 . S
C908 C909 1.393 . S
C908 C912 1.395 . S
C908 C915 1.492 . S
C909 C908 1.393 . S
C909 C910 1.392 . S
C909 H920 0.930 . S
C910 C909 1.392 . S
C910 C911 1.386 . S
C911 C910 1.386 . S
C911 C913 1.395 . S
C911 H921 0.930 . S
C912 C908 1.395 . S
C912 C913 1.379 . S
C912 H922 0.930 . S
C913 C911 1.395 . S
C913 C912 1.379 . S
C913 H923 0.930 . S
C914 O892 1.264 . S
C914 O893 1.254 . S
C915 Eu851 2.848 . S
C915 O890 1.257 . S
C915 O895 1.249 . S
C915 C908 1.492 . S
H916 C899 0.930 . S
H917 C900 0.930 . S
H918 C901 0.930 . S
H919 C902 0.930 . S
H920 C909 0.930 . S
H921 C911 0.930 . S
H922 C912 0.930 . S
H923 C913 0.930 . S
Eu924 N955 2.657 . S
Eu924 N962 2.609 . S
Eu924 O968 2.558 . S
Eu924 O969 2.612 . S
Eu924 O971 2.339 . S
Eu924 O972 2.563 . S
Eu924 O973 2.419 . S
Eu924 O975 2.380 . S
Eu924 O976 2.432 . S
Eu924 C988 2.848 . S
C925 C928 1.429 . S
C925 C929 1.411 . S
C925 N932 1.377 . S
C926 C928 1.420 . S
C926 C930 1.423 . S
C926 C938 1.392 . S
C927 C929 1.420 . S
C927 C930 1.351 . S
C927 H950 0.931 . S
C928 C925 1.429 . S
C928 C926 1.420 . S
C928 N936 1.362 . S
C929 C925 1.411 . S
C929 C927 1.420 . S
C929 C934 1.395 . S
C930 C926 1.423 . S
C930 C927 1.351 . S
C930 H942 0.930 . S
C931 C933 1.400 . S
C931 C934 1.386 . S
C931 H943 0.930 . S
N932 C925 1.377 . S
N932 C933 1.321 . S
N932 Eu935 2.609 . S
C933 C931 1.400 . S
C933 N932 1.321 . S
C933 H940 0.930 . S
C934 C929 1.395 . S
C934 C931 1.386 . S
C934 H953 0.930 . S
Eu935 N932 2.609 . S
Eu935 N936 2.657 . S
Eu935 O969 2.380 . S
Eu935 O970 2.432 . S
Eu935 O974 2.558 . S
Eu935 O975 2.612 . S
Eu935 O977 2.339 . S
Eu935 O978 2.563 . S
Eu935 O979 2.419 . S
Eu935 C999 2.848 . S
N936 C928 1.362 . S
N936 Eu935 2.657 . S
N936 C937 1.334 . S
C937 N936 1.334 . S
C937 C939 1.413 . S
C937 H944 0.929 . S
C938 C926 1.392 . S
C938 C939 1.367 . S
C938 H946 0.930 . S
C939 C937 1.413 . S
C939 C938 1.367 . S
C939 H941 0.930 . S
H940 C933 0.930 . S
H941 C939 0.930 . S
H942 C930 0.930 . S
H943 C931 0.930 . S
H944 C937 0.929 . S
H945 C959 0.930 . S
H946 C938 0.930 . S
H947 C965 0.930 . S
H948 C956 0.929 . S
H949 C963 0.930 . S
H950 C927 0.931 . S
H951 C957 0.930 . S
H952 C990 0.930 . S
H953 C934 0.930 . S
H954 C989 0.931 . S
N955 Eu924 2.657 . S
N955 C956 1.334 . S
N955 C960 1.362 . S
C956 H948 0.929 . S
C956 N955 1.334 . S
C956 C959 1.413 . S
C957 H951 0.930 . S
C957 C958 1.392 . S
C957 C959 1.367 . S
C958 C957 1.392 . S
C958 C960 1.420 . S
C958 C990 1.423 . S
C959 H945 0.930 . S
C959 C956 1.413 . S
C959 C957 1.367 . S
C960 N955 1.362 . S
C960 C958 1.420 . S
C960 C964 1.429 . S
H961 C966 0.930 . S
N962 Eu924 2.609 . S
N962 C964 1.377 . S
N962 C965 1.321 . S
C963 H949 0.930 . S
C963 C965 1.400 . S
C963 C966 1.386 . S
C964 C960 1.429 . S
C964 N962 1.377 . S
C964 C967 1.411 . S
C965 H947 0.930 . S
C965 N962 1.321 . S
C965 C963 1.400 . S
C966 H961 0.930 . S
C966 C963 1.386 . S
C966 C967 1.395 . S
C967 C964 1.411 . S
C967 C966 1.395 . S
C967 C989 1.420 . S
O968 Eu924 2.558 . S
O968 C988 1.257 . S
O969 Eu924 2.612 . S
O969 Eu935 2.380 . S
O969 C980 1.276 . S
O970 Eu935 2.432 . S
O970 C987 1.264 . S
O971 Eu924 2.339 . S
O971 C987 1.254 . S
O972 Eu924 2.563 . S
O972 C980 1.235 . S
O973 Eu924 2.419 . S
O973 C988 1.249 . S
O974 Eu935 2.558 . S
O974 C999 1.257 . S
O975 Eu924 2.380 . S
O975 Eu935 2.612 . S
O975 C991 1.276 . S
O976 Eu924 2.432 . S
O976 C998 1.264 . S
O977 Eu935 2.339 . S
O977 C998 1.254 . S
O978 Eu935 2.563 . S
O978 C991 1.235 . S
O979 Eu935 2.419 . S
O979 C999 1.249 . S
C980 O969 1.276 . S
C980 O972 1.235 . S
C981 C983 1.393 . S
C981 C985 1.395 . S
C981 C988 1.492 . S
C982 C983 1.392 . S
C982 C984 1.386 . S
C983 C981 1.393 . S
C983 C982 1.392 . S
C983 H1000 0.930 . S
C984 C982 1.386 . S
C984 C986 1.395 . S
C984 H1001 0.930 . S
C985 C981 1.395 . S
C985 C986 1.379 . S
C985 H1002 0.930 . S
C986 C984 1.395 . S
C986 C985 1.379 . S
C986 H1003 0.930 . S
C987 O970 1.264 . S
C987 O971 1.254 . S
C988 Eu924 2.848 . S
C988 O968 1.257 . S
C988 O973 1.249 . S
C988 C981 1.492 . S
C989 H954 0.931 . S
C989 C967 1.420 . S
C989 C990 1.351 . S
C990 H952 0.930 . S
C990 C958 1.423 . S
C990 C989 1.351 . S
C991 O975 1.276 . S
C991 O978 1.235 . S
C992 C993 1.393 . S
C992 C996 1.395 . S
C992 C999 1.492 . S
C993 C992 1.393 . S
C993 C994 1.392 . S
C993 H1004 0.930 . S
C994 C993 1.392 . S
C994 C995 1.386 . S
C995 C994 1.386 . S
C995 C997 1.395 . S
C995 H1005 0.930 . S
C996 C992 1.395 . S
C996 C997 1.379 . S
C996 H1006 0.930 . S
C997 C995 1.395 . S
C997 C996 1.379 . S
C997 H1007 0.930 . S
C998 O976 1.264 . S
C998 O977 1.254 . S
C999 Eu935 2.848 . S
C999 O974 1.257 . S
C999 O979 1.249 . S
C999 C992 1.492 . S
H1000 C983 0.930 . S
H1001 C984 0.930 . S
H1002 C985 0.930 . S
H1003 C986 0.930 . S
H1004 C993 0.930 . S
H1005 C995 0.930 . S
H1006 C996 0.930 . S
H1007 C997 0.930 . S
H1008 C1020 0.930 . S
H1009 C1022 0.930 . S
H1010 C1023 0.930 . S
H1011 C1027 0.959 . S
H1012 C1027 0.959 . S
H1013 C1027 0.961 . S
H1014 C1028 0.960 . S
H1015 C1028 0.961 . S
H1016 C1028 0.959 . S
H1017 C1031 0.929 . S
H1018 C1032 0.931 . S
H1019 C1034 0.930 . S
C1020 H1008 0.930 . S
C1020 C1021 1.399 . S
C1020 C1025 1.399 . S
C1021 C1020 1.399 . S
C1021 C1022 1.376 . S
C1022 H1009 0.930 . S
C1022 C1021 1.376 . S
C1022 C1023 1.388 . S
C1023 H1010 0.930 . S
C1023 C1022 1.388 . S
C1023 C1024 1.390 . S
C1024 C1023 1.390 . S
C1024 C1025 1.394 . S
C1024 C1030 1.465 . S
C1025 C1020 1.399 . S
C1025 C1024 1.394 . S
C1025 C1026 1.516 . S
C1026 C1025 1.516 . S
C1026 C1027 1.502 . S
C1026 C1028 1.561 . S
C1026 C1029 1.526 . S
C1027 H1011 0.959 . S
C1027 H1012 0.959 . S
C1027 H1013 0.961 . S
C1027 C1026 1.502 . S
C1028 H1014 0.960 . S
C1028 H1015 0.961 . S
C1028 H1016 0.959 . S
C1028 C1026 1.561 . S
C1029 C1026 1.526 . S
C1029 C1030 1.396 . S
C1029 C1034 1.390 . S
C1030 C1024 1.465 . S
C1030 C1029 1.396 . S
C1030 C1031 1.399 . S
C1031 H1017 0.929 . S
C1031 C1030 1.399 . S
C1031 C1032 1.385 . S
C1032 H1018 0.931 . S
C1032 C1031 1.385 . S
C1032 C1033 1.389 . S
C1033 C1032 1.389 . S
C1033 C1034 1.387 . S
C1034 H1019 0.930 . S
C1034 C1029 1.390 . S
C1034 C1033 1.387 . S
H1035 C1047 0.930 . S
H1036 C1049 0.930 1_545 S
H1037 C1050 0.930 . S
H1038 C1054 0.959 . S
H1039 C1054 0.959 . S
H1040 C1054 0.961 . S
H1041 C1055 0.960 . S
H1042 C1055 0.961 . S
H1043 C1055 0.959 . S
H1044 C1058 0.929 . S
H1045 C1059 0.931 . S
H1046 C1061 0.930 . S
C1047 H1035 0.930 . S
C1047 C1048 1.399 . S
C1047 C1052 1.399 . S
C1048 C1047 1.399 . S
C1048 C1049 1.376 . S
C1049 H1036 0.930 1_565 S
C1049 C1048 1.376 . S
C1049 C1050 1.388 . S
C1050 H1037 0.930 . S
C1050 C1049 1.388 . S
C1050 C1051 1.390 . S
C1051 C1050 1.390 . S
C1051 C1052 1.394 . S
C1051 C1057 1.465 . S
C1052 C1047 1.399 . S
C1052 C1051 1.394 . S
C1052 C1053 1.516 . S
C1053 C1052 1.516 . S
C1053 C1054 1.502 . S
C1053 C1055 1.561 . S
C1053 C1056 1.526 . S
C1054 H1038 0.959 . S
C1054 H1039 0.959 . S
C1054 H1040 0.961 . S
C1054 C1053 1.502 . S
C1055 H1041 0.960 . S
C1055 H1042 0.961 . S
C1055 H1043 0.959 . S
C1055 C1053 1.561 . S
C1056 C1053 1.526 . S
C1056 C1057 1.396 . S
C1056 C1061 1.390 . S
C1057 C1051 1.465 . S
C1057 C1056 1.396 . S
C1057 C1058 1.399 . S
C1058 H1044 0.929 . S
C1058 C1057 1.399 . S
C1058 C1059 1.385 . S
C1059 H1045 0.931 . S
C1059 C1058 1.385 . S
C1059 C1060 1.389 . S
C1060 C1059 1.389 . S
C1060 C1061 1.387 . S
C1061 H1046 0.930 . S
C1061 C1056 1.390 . S
C1061 C1060 1.387 . S
H1062 C1074 0.930 . S
H1063 C1076 0.930 . S
H1064 C1077 0.930 . S
H1065 C1081 0.959 . S
H1066 C1081 0.959 . S
H1067 C1081 0.961 . S
H1068 C1082 0.960 . S
H1069 C1082 0.961 . S
H1070 C1082 0.959 . S
H1071 C1085 0.929 1_556 S
H1072 C1086 0.931 . S
H1073 C1088 0.930 . S
C1074 H1062 0.930 . S
C1074 C1075 1.399 . S
C1074 C1079 1.399 . S
C1075 C1074 1.399 . S
C1075 C1076 1.376 1_554 S
C1076 H1063 0.930 . S
C1076 C1075 1.376 1_556 S
C1076 C1077 1.388 . S
C1077 H1064 0.930 . S
C1077 C1076 1.388 . S
C1077 C1078 1.390 1_556 S
C1078 C1077 1.390 1_554 S
C1078 C1079 1.394 . S
C1078 C1084 1.465 . S
C1079 C1074 1.399 . S
C1079 C1078 1.394 . S
C1079 C1080 1.516 . S
C1080 C1079 1.516 . S
C1080 C1081 1.502 . S
C1080 C1082 1.561 . S
C1080 C1083 1.526 . S
C1081 H1065 0.959 . S
C1081 H1066 0.959 . S
C1081 H1067 0.961 . S
C1081 C1080 1.502 . S
C1082 H1068 0.960 . S
C1082 H1069 0.961 . S
C1082 H1070 0.959 . S
C1082 C1080 1.561 . S
C1083 C1080 1.526 . S
C1083 C1084 1.396 . S
C1083 C1088 1.390 . S
C1084 C1078 1.465 . S
C1084 C1083 1.396 . S
C1084 C1085 1.399 . S
C1085 H1071 0.929 1_554 S
C1085 C1084 1.399 . S
C1085 C1086 1.385 . S
C1086 H1072 0.931 . S
C1086 C1085 1.385 . S
C1086 C1087 1.389 . S
C1087 C1086 1.389 . S
C1087 C1088 1.387 . S
C1088 H1073 0.930 . S
C1088 C1083 1.390 . S
C1088 C1087 1.387 . S
H1089 C1101 0.930 . S
H1090 C1103 0.930 . S
H1091 C1104 0.930 . S
H1092 C1108 0.959 . S
H1093 C1108 0.959 . S
H1094 C1108 0.961 . S
H1095 C1109 0.960 . S
H1096 C1109 0.961 . S
H1097 C1109 0.974 . S
H1098 C1112 0.929 . S
H1099 C1113 0.931 . S
H1100 C1115 0.930 1_565 S
C1101 H1089 0.930 . S
C1101 C1102 1.399 . S
C1101 C1106 1.399 . S
C1102 C1101 1.399 . S
C1102 C1103 1.376 . S
C1103 H1090 0.930 . S
C1103 C1102 1.376 . S
C1103 C1104 1.388 . S
C1104 H1091 0.930 . S
C1104 C1103 1.388 . S
C1104 C1105 1.390 . S
C1105 C1104 1.390 . S
C1105 C1106 1.394 . S
C1105 C1111 1.465 . S
C1106 C1101 1.399 . S
C1106 C1105 1.394 . S
C1106 C1107 1.516 . S
C1107 C1106 1.516 . S
C1107 C1108 1.502 1_545 S
C1107 C1109 1.561 1_545 S
C1107 C1110 1.526 . S
C1108 H1092 0.959 . S
C1108 H1093 0.959 . S
C1108 H1094 0.961 . S
C1108 C1107 1.502 1_565 S
C1109 H1095 0.960 . S
C1109 H1096 0.961 . S
C1109 H1097 0.974 . S
C1109 C1107 1.561 1_565 S
C1110 C1107 1.526 . S
C1110 C1111 1.396 . S
C1110 C1115 1.390 . S
C1111 C1105 1.465 . S
C1111 C1110 1.396 . S
C1111 C1112 1.399 . S
C1112 H1098 0.929 . S
C1112 C1111 1.399 . S
C1112 C1113 1.385 . S
C1113 H1099 0.931 . S
C1113 C1112 1.385 . S
C1113 C1114 1.389 . S
C1114 C1113 1.389 . S
C1114 C1115 1.387 . S
C1115 H1100 0.930 1_545 S
C1115 C1110 1.390 . S
C1115 C1114 1.387 . S
H1116 C1128 0.930 . S
H1117 C1130 0.930 . S
H1118 C1131 0.930 . S
H1119 C1135 0.959 . S
H1120 C1135 0.959 . S
H1121 C1135 0.961 . S
H1122 C1136 0.960 . S
H1123 C1136 0.961 . S
H1124 C1136 0.959 . S
H1125 C1139 0.929 . S
H1126 C1140 0.931 . S
H1127 C1142 0.930 . S
C1128 H1116 0.930 . S
C1128 C1129 1.399 . S
C1128 C1133 1.399 . S
C1129 C1128 1.399 . S
C1129 C1130 1.376 . S
C1130 H1117 0.930 . S
C1130 C1129 1.376 . S
C1130 C1131 1.388 . S
C1131 H1118 0.930 . S
C1131 C1130 1.388 . S
C1131 C1132 1.390 . S
C1132 C1131 1.390 . S
C1132 C1133 1.394 . S
C1132 C1138 1.465 . S
C1133 C1128 1.399 . S
C1133 C1132 1.394 . S
C1133 C1134 1.516 . S
C1134 C1133 1.516 . S
C1134 C1135 1.502 . S
C1134 C1136 1.561 . S
C1134 C1137 1.526 . S
C1135 H1119 0.959 . S
C1135 H1120 0.959 . S
C1135 H1121 0.961 . S
C1135 C1134 1.502 . S
C1136 H1122 0.960 . S
C1136 H1123 0.961 . S
C1136 H1124 0.959 . S
C1136 C1134 1.561 . S
C1137 C1134 1.526 . S
C1137 C1138 1.396 . S
C1137 C1142 1.390 . S
C1138 C1132 1.465 . S
C1138 C1137 1.396 . S
C1138 C1139 1.399 . S
C1139 H1125 0.929 . S
C1139 C1138 1.399 . S
C1139 C1140 1.385 . S
C1140 H1126 0.931 . S
C1140 C1139 1.385 . S
C1140 C1141 1.389 . S
C1141 C1140 1.389 . S
C1141 C1142 1.387 . S
C1142 H1127 0.930 . S
C1142 C1137 1.390 . S
C1142 C1141 1.387 . S
H1143 C1155 0.930 . S
H1144 C1157 0.930 . S
H1145 C1158 0.930 . S
H1146 C1162 0.959 . S
H1147 C1162 0.959 . S
H1148 C1162 0.961 . S
H1149 C1163 0.960 . S
H1150 C1163 0.961 . S
H1151 C1163 0.959 . S
H1152 C1166 0.929 . S
H1153 C1167 0.931 . S
H1154 C1169 0.930 . S
C1155 H1143 0.930 . S
C1155 C1156 1.399 . S
C1155 C1160 1.399 . S
C1156 C1155 1.399 . S
C1156 C1157 1.376 . S
C1157 H1144 0.930 . S
C1157 C1156 1.376 . S
C1157 C1158 1.388 . S
C1158 H1145 0.930 . S
C1158 C1157 1.388 . S
C1158 C1159 1.390 . S
C1159 C1158 1.390 . S
C1159 C1160 1.394 . S
C1159 C1165 1.465 . S
C1160 C1155 1.399 . S
C1160 C1159 1.394 . S
C1160 C1161 1.516 . S
C1161 C1160 1.516 . S
C1161 C1162 1.502 . S
C1161 C1163 1.561 . S
C1161 C1164 1.526 . S
C1162 H1146 0.959 . S
C1162 H1147 0.959 . S
C1162 H1148 0.961 . S
C1162 C1161 1.502 . S
C1163 H1149 0.960 . S
C1163 H1150 0.961 . S
C1163 H1151 0.959 . S
C1163 C1161 1.561 . S
C1164 C1161 1.526 . S
C1164 C1165 1.396 . S
C1164 C1169 1.390 . S
C1165 C1159 1.465 . S
C1165 C1164 1.396 . S
C1165 C1166 1.399 . S
C1166 H1152 0.929 . S
C1166 C1165 1.399 . S
C1166 C1167 1.385 . S
C1167 H1153 0.931 . S
C1167 C1166 1.385 . S
C1167 C1168 1.389 . S
C1168 C1167 1.389 . S
C1168 C1169 1.387 . S
C1169 H1154 0.930 . S
C1169 C1164 1.390 . S
C1169 C1168 1.387 . S
H1170 C1182 0.930 . S
H1171 C1184 0.930 . S
H1172 C1185 0.930 . S
H1173 C1189 0.959 1_556 S
H1174 C1189 0.959 . S
H1175 C1189 0.961 . S
H1176 C1190 0.960 . S
H1177 C1190 0.961 . S
H1178 C1190 0.959 . S
H1179 C1193 0.929 . S
H1180 C1194 0.931 . S
H1181 C1196 0.930 1_554 S
C1182 H1170 0.930 . S
C1182 C1183 1.399 . S
C1182 C1187 1.399 . S
C1183 C1182 1.399 . S
C1183 C1184 1.376 . S
C1184 H1171 0.930 . S
C1184 C1183 1.376 . S
C1184 C1185 1.388 . S
C1185 H1172 0.930 . S
C1185 C1184 1.388 . S
C1185 C1186 1.390 . S
C1186 C1185 1.390 . S
C1186 C1187 1.394 . S
C1186 C1192 1.465 . S
C1187 C1182 1.399 . S
C1187 C1186 1.394 . S
C1187 C1188 1.516 . S
C1188 C1187 1.516 . S
C1188 C1189 1.502 1_556 S
C1188 C1190 1.561 1_556 S
C1188 C1191 1.526 . S
C1189 H1173 0.959 1_554 S
C1189 H1174 0.959 . S
C1189 H1175 0.961 . S
C1189 C1188 1.502 1_554 S
C1190 H1176 0.960 . S
C1190 H1177 0.961 . S
C1190 H1178 0.959 . S
C1190 C1188 1.561 1_554 S
C1191 C1188 1.526 . S
C1191 C1192 1.396 . S
C1191 C1196 1.390 . S
C1192 C1186 1.465 . S
C1192 C1191 1.396 . S
C1192 C1193 1.399 . S
C1193 H1179 0.929 . S
C1193 C1192 1.399 . S
C1193 C1194 1.385 . S
C1194 H1180 0.931 . S
C1194 C1193 1.385 . S
C1194 C1195 1.389 . S
C1195 C1194 1.389 . S
C1195 C1196 1.387 . S
C1196 H1181 0.930 1_556 S
C1196 C1191 1.390 . S
C1196 C1195 1.387 . S
H1197 C1209 0.930 . S
H1198 C1211 0.930 . S
H1199 C1212 0.930 . S
H1200 C1216 0.959 . S
H1201 C1216 0.959 . S
H1202 C1216 0.961 . S
H1203 C1217 0.960 . S
H1204 C1217 0.961 . S
H1205 C1217 0.959 . S
H1206 C1220 0.929 . S
H1207 C1221 0.931 . S
H1208 C1223 0.930 . S
C1209 H1197 0.930 . S
C1209 C1210 1.399 . S
C1209 C1214 1.399 . S
C1210 C1209 1.399 . S
C1210 C1211 1.376 . S
C1211 H1198 0.930 . S
C1211 C1210 1.376 . S
C1211 C1212 1.388 . S
C1212 H1199 0.930 . S
C1212 C1211 1.388 . S
C1212 C1213 1.390 . S
C1213 C1212 1.390 . S
C1213 C1214 1.394 . S
C1213 C1219 1.465 . S
C1214 C1209 1.399 . S
C1214 C1213 1.394 . S
C1214 C1215 1.516 . S
C1215 C1214 1.516 . S
C1215 C1216 1.502 . S
C1215 C1217 1.561 . S
C1215 C1218 1.526 . S
C1216 H1200 0.959 . S
C1216 H1201 0.959 . S
C1216 H1202 0.961 . S
C1216 C1215 1.502 . S
C1217 H1203 0.960 . S
C1217 H1204 0.961 . S
C1217 H1205 0.959 . S
C1217 C1215 1.561 . S
C1218 C1215 1.526 . S
C1218 C1219 1.396 . S
C1218 C1223 1.390 . S
C1219 C1213 1.465 . S
C1219 C1218 1.396 . S
C1219 C1220 1.399 . S
C1220 H1206 0.929 . S
C1220 C1219 1.399 . S
C1220 C1221 1.385 . S
C1221 H1207 0.931 . S
C1221 C1220 1.385 . S
C1221 C1222 1.389 . S
C1222 C1221 1.389 . S
C1222 C1223 1.387 . S
C1223 H1208 0.930 . S
C1223 C1218 1.390 . S
C1223 C1222 1.387 . S
H1224 C1236 0.930 . S
H1225 C1238 0.930 . S
H1226 C1239 0.930 . S
H1227 C1243 0.959 . S
H1228 C1243 0.959 . S
H1229 C1243 0.961 . S
H1230 C1244 0.960 . S
H1231 C1244 0.961 . S
H1232 C1244 0.959 . S
H1233 C1247 0.929 . S
H1234 C1248 0.931 . S
H1235 C1250 0.930 . S
C1236 H1224 0.930 . S
C1236 C1237 1.399 . S
C1236 C1241 1.399 . S
C1237 C1236 1.399 . S
C1237 C1238 1.376 . S
C1238 H1225 0.930 . S
C1238 C1237 1.376 . S
C1238 C1239 1.388 . S
C1239 H1226 0.930 . S
C1239 C1238 1.388 . S
C1239 C1240 1.390 . S
C1240 C1239 1.390 . S
C1240 C1241 1.394 . S
C1240 C1246 1.465 . S
C1241 C1236 1.399 . S
C1241 C1240 1.394 . S
C1241 C1242 1.516 . S
C1242 C1241 1.516 . S
C1242 C1243 1.502 . S
C1242 C1244 1.561 . S
C1242 C1245 1.526 . S
C1243 H1227 0.959 . S
C1243 H1228 0.959 . S
C1243 H1229 0.961 . S
C1243 C1242 1.502 . S
C1244 H1230 0.960 . S
C1244 H1231 0.961 . S
C1244 H1232 0.959 . S
C1244 C1242 1.561 . S
C1245 C1242 1.526 . S
C1245 C1246 1.396 . S
C1245 C1250 1.390 . S
C1246 C1240 1.465 . S
C1246 C1245 1.396 . S
C1246 C1247 1.399 . S
C1247 H1233 0.929 . S
C1247 C1246 1.399 . S
C1247 C1248 1.385 . S
C1248 H1234 0.931 . S
C1248 C1247 1.385 . S
C1248 C1249 1.389 . S
C1249 C1248 1.389 . S
C1249 C1250 1.387 . S
C1250 H1235 0.930 . S
C1250 C1245 1.390 . S
C1250 C1249 1.387 . S
H1251 C1263 0.930 . S
H1252 C1265 0.930 . S
H1253 C1266 0.930 . S
H1254 C1270 0.959 . S
H1255 C1270 0.959 . S
H1256 C1270 0.961 . S
H1257 C1271 0.960 . S
H1258 C1271 0.961 . S
H1259 C1271 0.959 . S
H1260 C1274 0.929 . S
H1261 C1275 0.931 . S
H1262 C1277 0.930 1_655 S
C1263 H1251 0.930 . S
C1263 C1264 1.399 . S
C1263 C1268 1.399 . S
C1264 C1263 1.399 . S
C1264 C1265 1.376 . S
C1265 H1252 0.930 . S
C1265 C1264 1.376 . S
C1265 C1266 1.388 . S
C1266 H1253 0.930 . S
C1266 C1265 1.388 . S
C1266 C1267 1.390 . S
C1267 C1266 1.390 . S
C1267 C1268 1.394 . S
C1267 C1273 1.465 . S
C1268 C1263 1.399 . S
C1268 C1267 1.394 . S
C1268 C1269 1.516 . S
C1269 C1268 1.516 . S
C1269 C1270 1.502 1_455 S
C1269 C1271 1.561 . S
C1269 C1272 1.526 . S
C1270 H1254 0.959 . S
C1270 H1255 0.959 . S
C1270 H1256 0.961 . S
C1270 C1269 1.502 1_655 S
C1271 H1257 0.960 . S
C1271 H1258 0.961 . S
C1271 H1259 0.959 . S
C1271 C1269 1.561 . S
C1272 C1269 1.526 . S
C1272 C1273 1.396 . S
C1272 C1277 1.390 . S
C1273 C1267 1.465 . S
C1273 C1272 1.396 . S
C1273 C1274 1.399 . S
C1274 H1260 0.929 . S
C1274 C1273 1.399 . S
C1274 C1275 1.385 . S
C1275 H1261 0.931 . S
C1275 C1274 1.385 . S
C1275 C1276 1.389 . S
C1276 C1275 1.389 . S
C1276 C1277 1.387 . S
C1277 H1262 0.930 1_455 S
C1277 C1272 1.390 . S
C1277 C1276 1.387 . S
H1278 C1290 0.930 . S
H1279 C1292 0.930 . S
H1280 C1293 0.930 . S
H1281 C1297 0.959 . S
H1282 C1297 0.959 . S
H1283 C1297 0.961 . S
H1284 C1298 0.960 . S
H1285 C1298 0.961 . S
H1286 C1298 0.959 . S
H1287 C1301 0.929 . S
H1288 C1302 0.931 . S
H1289 C1304 0.930 . S
C1290 H1278 0.930 . S
C1290 C1291 1.399 . S
C1290 C1295 1.399 . S
C1291 C1290 1.399 . S
C1291 C1292 1.376 . S
C1292 H1279 0.930 . S
C1292 C1291 1.376 . S
C1292 C1293 1.388 . S
C1293 H1280 0.930 . S
C1293 C1292 1.388 . S
C1293 C1294 1.390 . S
C1294 C1293 1.390 . S
C1294 C1295 1.394 . S
C1294 C1300 1.465 . S
C1295 C1290 1.399 . S
C1295 C1294 1.394 . S
C1295 C1296 1.516 . S
C1296 C1295 1.516 . S
C1296 C1297 1.502 . S
C1296 C1298 1.561 1_655 S
C1296 C1299 1.526 . S
C1297 H1281 0.959 . S
C1297 H1282 0.959 . S
C1297 H1283 0.961 . S
C1297 C1296 1.502 . S
C1298 H1284 0.960 . S
C1298 H1285 0.961 . S
C1298 H1286 0.959 . S
C1298 C1296 1.561 1_455 S
C1299 C1296 1.526 . S
C1299 C1300 1.396 . S
C1299 C1304 1.390 . S
C1300 C1294 1.465 . S
C1300 C1299 1.396 . S
C1300 C1301 1.399 . S
C1301 H1287 0.929 . S
C1301 C1300 1.399 . S
C1301 C1302 1.385 . S
C1302 H1288 0.931 . S
C1302 C1301 1.385 . S
C1302 C1303 1.389 . S
C1303 C1302 1.389 . S
C1303 C1304 1.387 . S
C1304 H1289 0.930 . S
C1304 C1299 1.390 . S
C1304 C1303 1.387 . S
H1305 C1317 0.930 . S
H1306 C1319 0.930 . S
H1307 C1320 0.930 . S
H1308 C1324 0.959 . S
H1309 C1324 0.959 . S
H1310 C1324 0.961 . S
H1311 C1325 0.960 . S
H1312 C1325 0.961 . S
H1313 C1325 0.959 . S
H1314 C1328 0.929 . S
H1315 C1329 0.931 . S
H1316 C1331 0.930 . S
C1317 H1305 0.930 . S
C1317 C1318 1.399 . S
C1317 C1322 1.399 . S
C1318 C1317 1.399 . S
C1318 C1319 1.376 . S
C1319 H1306 0.930 . S
C1319 C1318 1.376 . S
C1319 C1320 1.388 . S
C1320 H1307 0.930 . S
C1320 C1319 1.388 . S
C1320 C1321 1.390 . S
C1321 C1320 1.390 . S
C1321 C1322 1.394 . S
C1321 C1327 1.465 . S
C1322 C1317 1.399 . S
C1322 C1321 1.394 . S
C1322 C1323 1.516 . S
C1323 C1322 1.516 . S
C1323 C1324 1.502 . S
C1323 C1325 1.561 . S
C1323 C1326 1.526 . S
C1324 H1308 0.959 . S
C1324 H1309 0.959 . S
C1324 H1310 0.961 . S
C1324 C1323 1.502 . S
C1325 H1311 0.960 . S
C1325 H1312 0.961 . S
C1325 H1313 0.959 . S
C1325 C1323 1.561 . S
C1326 C1323 1.526 . S
C1326 C1327 1.396 . S
C1326 C1331 1.390 . S
C1327 C1321 1.465 . S
C1327 C1326 1.396 . S
C1327 C1328 1.399 . S
C1328 H1314 0.929 . S
C1328 C1327 1.399 . S
C1328 C1329 1.385 . S
C1329 H1315 0.931 . S
C1329 C1328 1.385 . S
C1329 C1330 1.389 . S
C1330 C1329 1.389 . S
C1330 C1331 1.387 . S
C1331 H1316 0.930 . S
C1331 C1326 1.390 . S
C1331 C1330 1.387 . S
H1332 C1344 0.930 . S
H1333 C1346 0.930 . S
H1334 C1347 0.930 . S
H1335 C1351 0.959 . S
H1336 C1351 0.959 . S
H1337 C1351 0.961 . S
H1338 C1352 0.960 . S
H1339 C1352 0.961 . S
H1340 C1352 0.959 . S
H1341 C1355 0.929 . S
H1342 C1356 0.931 . S
H1343 C1358 0.930 . S
C1344 H1332 0.930 . S
C1344 C1345 1.399 . S
C1344 C1349 1.399 . S
C1345 C1344 1.399 . S
C1345 C1346 1.376 . S
C1346 H1333 0.930 . S
C1346 C1345 1.376 . S
C1346 C1347 1.388 . S
C1347 H1334 0.930 . S
C1347 C1346 1.388 . S
C1347 C1348 1.390 . S
C1348 C1347 1.390 . S
C1348 C1349 1.394 . S
C1348 C1354 1.465 . S
C1349 C1344 1.399 . S
C1349 C1348 1.394 . S
C1349 C1350 1.516 . S
C1350 C1349 1.516 . S
C1350 C1351 1.502 . S
C1350 C1352 1.561 . S
C1350 C1353 1.526 . S
C1351 H1335 0.959 . S
C1351 H1336 0.959 . S
C1351 H1337 0.961 . S
C1351 C1350 1.502 . S
C1352 H1338 0.960 . S
C1352 H1339 0.961 . S
C1352 H1340 0.959 . S
C1352 C1350 1.561 . S
C1353 C1350 1.526 . S
C1353 C1354 1.396 . S
C1353 C1358 1.390 . S
C1354 C1348 1.465 . S
C1354 C1353 1.396 . S
C1354 C1355 1.399 . S
C1355 H1341 0.929 . S
C1355 C1354 1.399 . S
C1355 C1356 1.385 . S
C1356 H1342 0.931 . S
C1356 C1355 1.385 . S
C1356 C1357 1.389 . S
C1357 C1356 1.389 . S
C1357 C1358 1.387 . S
C1358 H1343 0.930 . S
C1358 C1353 1.390 . S
C1358 C1357 1.387 . S
H1359 C1371 0.930 . S
H1360 C1373 0.930 . S
H1361 C1374 0.930 . S
H1362 C1378 0.959 . S
H1363 C1378 0.959 . S
H1364 C1378 0.961 . S
H1365 C1379 0.960 . S
H1366 C1379 0.961 . S
H1367 C1379 0.959 . S
H1368 C1382 0.929 . S
H1369 C1383 0.931 . S
H1370 C1385 0.930 . S
C1371 H1359 0.930 . S
C1371 C1372 1.399 . S
C1371 C1376 1.399 . S
C1372 C1371 1.399 . S
C1372 C1373 1.376 . S
C1373 H1360 0.930 . S
C1373 C1372 1.376 . S
C1373 C1374 1.388 . S
C1374 H1361 0.930 . S
C1374 C1373 1.388 . S
C1374 C1375 1.390 . S
C1375 C1374 1.390 . S
C1375 C1376 1.394 . S
C1375 C1381 1.465 . S
C1376 C1371 1.399 . S
C1376 C1375 1.394 . S
C1376 C1377 1.516 . S
C1377 C1376 1.516 . S
C1377 C1378 1.502 1_565 S
C1377 C1379 1.561 . S
C1377 C1380 1.526 . S
C1378 H1362 0.959 . S
C1378 H1363 0.959 . S
C1378 H1364 0.961 . S
C1378 C1377 1.502 1_545 S
C1379 H1365 0.960 . S
C1379 H1366 0.961 . S
C1379 H1367 0.959 . S
C1379 C1377 1.561 . S
C1380 C1377 1.526 . S
C1380 C1381 1.396 . S
C1380 C1385 1.390 . S
C1381 C1375 1.465 . S
C1381 C1380 1.396 . S
C1381 C1382 1.399 . S
C1382 H1368 0.929 . S
C1382 C1381 1.399 . S
C1382 C1383 1.385 . S
C1383 H1369 0.931 . S
C1383 C1382 1.385 . S
C1383 C1384 1.389 . S
C1384 C1383 1.389 . S
C1384 C1385 1.387 . S
C1385 H1370 0.930 . S
C1385 C1380 1.390 . S
C1385 C1384 1.387 . S
H1386 C1398 0.930 . S
H1387 C1400 0.930 . S
H1388 C1401 0.930 . S
H1389 C1405 0.959 . S
H1390 C1405 0.959 . S
H1391 C1405 0.961 . S
H1392 C1406 0.960 . S
H1393 C1406 0.961 . S
H1394 C1406 0.959 . S
H1395 C1409 0.929 . S
H1396 C1410 0.931 . S
H1397 C1412 0.930 . S
C1398 H1386 0.930 . S
C1398 C1399 1.399 . S
C1398 C1403 1.399 . S
C1399 C1398 1.399 . S
C1399 C1400 1.376 . S
C1400 H1387 0.930 . S
C1400 C1399 1.376 . S
C1400 C1401 1.388 . S
C1401 H1388 0.930 . S
C1401 C1400 1.388 . S
C1401 C1402 1.390 . S
C1402 C1401 1.390 . S
C1402 C1403 1.394 . S
C1402 C1408 1.465 . S
C1403 C1398 1.399 . S
C1403 C1402 1.394 . S
C1403 C1404 1.516 . S
C1404 C1403 1.516 . S
C1404 C1405 1.502 . S
C1404 C1406 1.561 . S
C1404 C1407 1.526 . S
C1405 H1389 0.959 . S
C1405 H1390 0.959 . S
C1405 H1391 0.961 . S
C1405 C1404 1.502 . S
C1406 H1392 0.960 . S
C1406 H1393 0.961 . S
C1406 H1394 0.959 . S
C1406 C1404 1.561 . S
C1407 C1404 1.526 . S
C1407 C1408 1.396 . S
C1407 C1412 1.390 . S
C1408 C1402 1.465 . S
C1408 C1407 1.396 . S
C1408 C1409 1.399 . S
C1409 H1395 0.929 . S
C1409 C1408 1.399 . S
C1409 C1410 1.385 . S
C1410 H1396 0.931 . S
C1410 C1409 1.385 . S
C1410 C1411 1.389 . S
C1411 C1410 1.389 . S
C1411 C1412 1.387 . S
C1412 H1397 0.930 . S
C1412 C1407 1.390 . S
C1412 C1411 1.387 . S
H1413 C1425 0.930 . S
H1414 C1427 0.930 . S
H1415 C1428 0.930 . S
H1416 C1432 0.959 . S
H1417 C1432 0.959 . S
H1418 C1432 0.961 1_554 S
H1419 C1433 0.960 . S
H1420 C1433 0.961 1_556 S
H1421 C1433 0.959 . S
H1422 C1436 0.924 1_565 S
H1423 C1437 0.931 1_565 S
H1424 C1439 0.930 . S
C1425 H1413 0.930 . S
C1425 C1426 1.399 . S
C1425 C1430 1.399 . S
C1426 C1425 1.399 . S
C1426 C1427 1.376 . S
C1427 H1414 0.930 . S
C1427 C1426 1.376 . S
C1427 C1428 1.388 . S
C1428 H1415 0.930 . S
C1428 C1427 1.388 . S
C1428 C1429 1.390 . S
C1429 C1428 1.390 . S
C1429 C1430 1.394 . S
C1429 C1435 1.465 . S
C1430 C1425 1.399 . S
C1430 C1429 1.394 . S
C1430 C1431 1.516 . S
C1431 C1430 1.516 . S
C1431 C1432 1.502 1_554 S
C1431 C1433 1.561 . S
C1431 C1434 1.526 1_554 S
C1432 H1416 0.959 . S
C1432 H1417 0.959 . S
C1432 H1418 0.961 1_556 S
C1432 C1431 1.502 1_556 S
C1433 H1419 0.960 . S
C1433 H1420 0.961 1_554 S
C1433 H1421 0.959 . S
C1433 C1431 1.561 . S
C1434 C1431 1.526 1_556 S
C1434 C1435 1.396 1_556 S
C1434 C1439 1.390 . S
C1435 C1429 1.465 . S
C1435 C1434 1.396 1_554 S
C1435 C1436 1.399 . S
C1436 H1422 0.924 1_545 S
C1436 C1435 1.399 . S
C1436 C1437 1.385 1_554 S
C1437 H1423 0.931 1_545 S
C1437 C1436 1.385 1_556 S
C1437 C1438 1.389 . S
C1438 C1437 1.389 . S
C1438 C1439 1.387 . S
C1439 H1424 0.930 . S
C1439 C1434 1.390 . S
C1439 C1438 1.387 . S
H1440 C1452 0.930 . S
H1441 C1454 0.930 . S
H1442 C1455 0.930 . S
H1443 C1459 0.959 . S
H1444 C1459 0.959 . S
H1445 C1459 0.961 . S
H1446 C1460 0.960 . S
H1447 C1460 0.961 . S
H1448 C1460 0.959 . S
H1449 C1463 0.929 . S
H1450 C1464 0.931 . S
H1451 C1466 0.930 . S
C1452 H1440 0.930 . S
C1452 C1453 1.399 . S
C1452 C1457 1.399 . S
C1453 C1452 1.399 . S
C1453 C1454 1.376 . S
C1454 H1441 0.930 . S
C1454 C1453 1.376 . S
C1454 C1455 1.388 . S
C1455 H1442 0.930 . S
C1455 C1454 1.388 . S
C1455 C1456 1.390 . S
C1456 C1455 1.390 . S
C1456 C1457 1.394 . S
C1456 C1462 1.465 . S
C1457 C1452 1.399 . S
C1457 C1456 1.394 . S
C1457 C1458 1.516 . S
C1458 C1457 1.516 . S
C1458 C1459 1.502 . S
C1458 C1460 1.561 . S
C1458 C1461 1.526 . S
C1459 H1443 0.959 . S
C1459 H1444 0.959 . S
C1459 H1445 0.961 . S
C1459 C1458 1.502 . S
C1460 H1446 0.960 . S
C1460 H1447 0.961 . S
C1460 H1448 0.959 . S
C1460 C1458 1.561 . S
C1461 C1458 1.526 . S
C1461 C1462 1.396 . S
C1461 C1466 1.390 . S
C1462 C1456 1.465 . S
C1462 C1461 1.396 . S
C1462 C1463 1.399 . S
C1463 H1449 0.929 . S
C1463 C1462 1.399 . S
C1463 C1464 1.385 . S
C1464 H1450 0.931 . S
C1464 C1463 1.385 . S
C1464 C1465 1.389 . S
C1465 C1464 1.389 . S
C1465 C1466 1.387 . S
C1466 H1451 0.930 . S
C1466 C1461 1.390 . S
C1466 C1465 1.387 . S
H1467 C1479 0.930 . S
H1468 C1481 0.930 . S
H1469 C1482 0.930 . S
H1470 C1486 0.959 . S
H1471 C1486 0.959 . S
H1472 C1486 0.961 . S
H1473 C1487 0.960 . S
H1474 C1487 0.961 . S
H1475 C1487 0.959 . S
H1476 C1490 0.929 . S
H1477 C1491 0.931 . S
H1478 C1493 0.930 . S
C1479 H1467 0.930 . S
C1479 C1480 1.399 . S
C1479 C1484 1.399 . S
C1480 C1479 1.399 . S
C1480 C1481 1.376 . S
C1481 H1468 0.930 . S
C1481 C1480 1.376 . S
C1481 C1482 1.388 . S
C1482 H1469 0.930 . S
C1482 C1481 1.388 . S
C1482 C1483 1.390 1_554 S
C1483 C1482 1.390 1_556 S
C1483 C1484 1.394 1_556 S
C1483 C1489 1.465 . S
C1484 C1479 1.399 . S
C1484 C1483 1.394 1_554 S
C1484 C1485 1.516 1_554 S
C1485 C1484 1.516 1_556 S
C1485 C1486 1.502 . S
C1485 C1487 1.561 . S
C1485 C1488 1.526 . S
C1486 H1470 0.959 . S
C1486 H1471 0.959 . S
C1486 H1472 0.961 . S
C1486 C1485 1.502 . S
C1487 H1473 0.960 . S
C1487 H1474 0.961 . S
C1487 H1475 0.959 . S
C1487 C1485 1.561 . S
C1488 C1485 1.526 . S
C1488 C1489 1.396 . S
C1488 C1493 1.390 . S
C1489 C1483 1.465 . S
C1489 C1488 1.396 . S
C1489 C1490 1.399 . S
C1490 H1476 0.929 . S
C1490 C1489 1.399 . S
C1490 C1491 1.385 . S
C1491 H1477 0.931 . S
C1491 C1490 1.385 . S
C1491 C1492 1.389 . S
C1492 C1491 1.389 . S
C1492 C1493 1.387 . S
C1493 H1478 0.930 . S
C1493 C1488 1.390 . S
C1493 C1492 1.387 . S
H1494 C1506 0.930 . S
H1495 C1508 0.930 . S
H1496 C1509 0.930 . S
H1497 C1513 0.959 . S
H1498 C1513 0.959 . S
H1499 C1513 0.961 . S
H1500 C1514 0.960 . S
H1501 C1514 0.961 . S
H1502 C1514 0.959 . S
H1503 C1517 0.929 . S
H1504 C1518 0.931 . S
H1505 C1520 0.930 . S
C1506 H1494 0.930 . S
C1506 C1507 1.399 . S
C1506 C1511 1.399 . S
C1507 C1506 1.399 . S
C1507 C1508 1.376 . S
C1508 H1495 0.930 . S
C1508 C1507 1.376 . S
C1508 C1509 1.388 . S
C1509 H1496 0.930 . S
C1509 C1508 1.388 . S
C1509 C1510 1.390 . S
C1510 C1509 1.390 . S
C1510 C1511 1.394 . S
C1510 C1516 1.465 . S
C1511 C1506 1.399 . S
C1511 C1510 1.394 . S
C1511 C1512 1.516 . S
C1512 C1511 1.516 . S
C1512 C1513 1.502 . S
C1512 C1514 1.561 . S
C1512 C1515 1.526 . S
C1513 H1497 0.959 . S
C1513 H1498 0.959 . S
C1513 H1499 0.961 . S
C1513 C1512 1.502 . S
C1514 H1500 0.960 . S
C1514 H1501 0.961 . S
C1514 H1502 0.959 . S
C1514 C1512 1.561 . S
C1515 C1512 1.526 . S
C1515 C1516 1.396 . S
C1515 C1520 1.390 . S
C1516 C1510 1.465 . S
C1516 C1515 1.396 . S
C1516 C1517 1.399 . S
C1517 H1503 0.929 . S
C1517 C1516 1.399 . S
C1517 C1518 1.385 . S
C1518 H1504 0.931 . S
C1518 C1517 1.385 . S
C1518 C1519 1.389 . S
C1519 C1518 1.389 . S
C1519 C1520 1.387 . S
C1520 H1505 0.930 . S
C1520 C1515 1.390 . S
C1520 C1519 1.387 . S
H1521 C1533 0.930 . S
H1522 C1535 0.930 . S
H1523 C1536 0.930 . S
H1524 C1540 0.959 . S
H1525 C1540 0.959 . S
H1526 C1540 0.961 . S
H1527 C1541 0.960 . S
H1528 C1541 0.961 . S
H1529 C1541 0.959 . S
H1530 C1544 0.929 . S
H1531 C1545 0.931 . S
H1532 C1547 0.930 . S
C1533 H1521 0.930 . S
C1533 C1534 1.399 . S
C1533 C1538 1.399 . S
C1534 C1533 1.399 . S
C1534 C1535 1.376 . S
C1535 H1522 0.930 . S
C1535 C1534 1.376 . S
C1535 C1536 1.388 . S
C1536 H1523 0.930 . S
C1536 C1535 1.388 . S
C1536 C1537 1.390 . S
C1537 C1536 1.390 . S
C1537 C1538 1.394 . S
C1537 C1543 1.465 . S
C1538 C1533 1.399 . S
C1538 C1537 1.394 . S
C1538 C1539 1.516 . S
C1539 C1538 1.516 . S
C1539 C1540 1.502 . S
C1539 C1541 1.561 . S
C1539 C1542 1.526 . S
C1540 H1524 0.959 . S
C1540 H1525 0.959 . S
C1540 H1526 0.961 . S
C1540 C1539 1.502 . S
C1541 H1527 0.960 . S
C1541 H1528 0.961 . S
C1541 H1529 0.959 . S
C1541 C1539 1.561 . S
C1542 C1539 1.526 . S
C1542 C1543 1.396 . S
C1542 C1547 1.390 . S
C1543 C1537 1.465 . S
C1543 C1542 1.396 . S
C1543 C1544 1.399 . S
C1544 H1530 0.929 . S
C1544 C1543 1.399 . S
C1544 C1545 1.385 . S
C1545 H1531 0.931 . S
C1545 C1544 1.385 . S
C1545 C1546 1.389 . S
C1546 C1545 1.389 . S
C1546 C1547 1.387 . S
C1547 H1532 0.930 . S
C1547 C1542 1.390 . S
C1547 C1546 1.387 . S
H1548 C1560 0.930 . S
H1549 C1562 0.930 . S
H1550 C1563 0.930 . S
H1551 C1567 0.959 . S
H1552 C1567 0.959 . S
H1553 C1567 0.961 . S
H1554 C1568 0.960 . S
H1555 C1568 0.961 . S
H1556 C1568 0.959 . S
H1557 C1571 0.929 . S
H1558 C1572 0.931 . S
H1559 C1574 0.930 . S
C1560 H1548 0.930 . S
C1560 C1561 1.399 . S
C1560 C1565 1.399 . S
C1561 C1560 1.399 . S
C1561 C1562 1.376 . S
C1562 H1549 0.930 . S
C1562 C1561 1.376 . S
C1562 C1563 1.388 . S
C1563 H1550 0.930 . S
C1563 C1562 1.388 . S
C1563 C1564 1.390 . S
C1564 C1563 1.390 . S
C1564 C1565 1.394 . S
C1564 C1570 1.465 . S
C1565 C1560 1.399 . S
C1565 C1564 1.394 . S
C1565 C1566 1.516 . S
C1566 C1565 1.516 . S
C1566 C1567 1.502 . S
C1566 C1568 1.561 . S
C1566 C1569 1.526 . S
C1567 H1551 0.959 . S
C1567 H1552 0.959 . S
C1567 H1553 0.961 . S
C1567 C1566 1.502 . S
C1568 H1554 0.960 . S
C1568 H1555 0.961 . S
C1568 H1556 0.959 . S
C1568 C1566 1.561 . S
C1569 C1566 1.526 . S
C1569 C1570 1.396 . S
C1569 C1574 1.390 . S
C1570 C1564 1.465 . S
C1570 C1569 1.396 . S
C1570 C1571 1.399 . S
C1571 H1557 0.929 . S
C1571 C1570 1.399 . S
C1571 C1572 1.385 . S
C1572 H1558 0.931 . S
C1572 C1571 1.385 . S
C1572 C1573 1.389 . S
C1573 C1572 1.389 . S
C1573 C1574 1.387 . S
C1574 H1559 0.930 . S
C1574 C1569 1.390 . S
C1574 C1573 1.387 . S
H1575 C1587 0.930 . S
H1576 C1589 0.930 . S
H1577 C1590 0.930 . S
H1578 C1594 0.959 . S
H1579 C1594 0.959 . S
H1580 C1594 0.961 . S
H1581 C1595 0.960 . S
H1582 C1595 0.961 . S
H1583 C1595 0.959 . S
H1584 C1598 0.929 . S
H1585 C1599 0.931 . S
H1586 C1601 0.930 . S
C1587 H1575 0.930 . S
C1587 C1588 1.399 . S
C1587 C1592 1.399 . S
C1588 C1587 1.399 . S
C1588 C1589 1.376 . S
C1589 H1576 0.930 . S
C1589 C1588 1.376 . S
C1589 C1590 1.388 . S
C1590 H1577 0.930 . S
C1590 C1589 1.388 . S
C1590 C1591 1.390 . S
C1591 C1590 1.390 . S
C1591 C1592 1.394 . S
C1591 C1597 1.465 1_545 S
C1592 C1587 1.399 . S
C1592 C1591 1.394 . S
C1592 C1593 1.516 . S
C1593 C1592 1.516 . S
C1593 C1594 1.502 . S
C1593 C1595 1.561 . S
C1593 C1596 1.526 1_545 S
C1594 H1578 0.959 . S
C1594 H1579 0.959 . S
C1594 H1580 0.961 . S
C1594 C1593 1.502 . S
C1595 H1581 0.960 . S
C1595 H1582 0.961 . S
C1595 H1583 0.959 . S
C1595 C1593 1.561 . S
C1596 C1593 1.526 1_565 S
C1596 C1597 1.396 . S
C1596 C1601 1.390 . S
C1597 C1591 1.465 1_565 S
C1597 C1596 1.396 . S
C1597 C1598 1.399 . S
C1598 H1584 0.929 . S
C1598 C1597 1.399 . S
C1598 C1599 1.385 . S
C1599 H1585 0.931 . S
C1599 C1598 1.385 . S
C1599 C1600 1.389 . S
C1600 C1599 1.389 . S
C1600 C1601 1.387 . S
C1601 H1586 0.930 . S
C1601 C1596 1.390 . S
C1601 C1600 1.387 . S
H1602 C1614 0.930 . S
H1603 C1616 0.930 . S
H1604 C1617 0.930 . S
H1605 C1621 0.959 . S
H1606 C1621 0.959 . S
H1607 C1621 0.961 . S
H1608 C1622 0.960 . S
H1609 C1622 0.961 . S
H1610 C1622 0.959 . S
H1611 C1625 0.929 . S
H1612 C1626 0.931 . S
H1613 C1628 0.930 . S
C1614 H1602 0.930 . S
C1614 C1615 1.399 . S
C1614 C1619 1.399 . S
C1615 C1614 1.399 . S
C1615 C1616 1.376 . S
C1616 H1603 0.930 . S
C1616 C1615 1.376 . S
C1616 C1617 1.388 . S
C1617 H1604 0.930 . S
C1617 C1616 1.388 . S
C1617 C1618 1.390 . S
C1618 C1617 1.390 . S
C1618 C1619 1.394 . S
C1618 C1624 1.465 . S
C1619 C1614 1.399 . S
C1619 C1618 1.394 . S
C1619 C1620 1.516 . S
C1620 C1619 1.516 . S
C1620 C1621 1.502 . S
C1620 C1622 1.561 . S
C1620 C1623 1.526 . S
C1621 H1605 0.959 . S
C1621 H1606 0.959 . S
C1621 H1607 0.961 . S
C1621 C1620 1.502 . S
C1622 H1608 0.960 . S
C1622 H1609 0.961 . S
C1622 H1610 0.959 . S
C1622 C1620 1.561 . S
C1623 C1620 1.526 . S
C1623 C1624 1.396 . S
C1623 C1628 1.390 . S
C1624 C1618 1.465 . S
C1624 C1623 1.396 . S
C1624 C1625 1.399 . S
C1625 H1611 0.929 . S
C1625 C1624 1.399 . S
C1625 C1626 1.385 . S
C1626 H1612 0.931 . S
C1626 C1625 1.385 . S
C1626 C1627 1.389 . S
C1627 C1626 1.389 . S
C1627 C1628 1.387 . S
C1628 H1613 0.930 . S
C1628 C1623 1.390 . S
C1628 C1627 1.387 . S
H1629 C1641 0.930 . S
H1630 C1643 0.930 . S
H1631 C1644 0.930 . S
H1632 C1648 0.959 . S
H1633 C1648 0.959 . S
H1634 C1648 0.961 . S
H1635 C1649 0.960 . S
H1636 C1649 0.961 . S
H1637 C1649 0.959 . S
H1638 C1652 0.929 . S
H1639 C1653 0.931 . S
H1640 C1655 0.930 . S
C1641 H1629 0.930 . S
C1641 C1642 1.399 . S
C1641 C1646 1.382 1_545 S
C1642 C1641 1.399 . S
C1642 C1643 1.376 . S
C1643 H1630 0.930 . S
C1643 C1642 1.376 . S
C1643 C1644 1.388 . S
C1644 H1631 0.930 . S
C1644 C1643 1.388 . S
C1644 C1645 1.389 1_545 S
C1645 C1644 1.389 1_565 S
C1645 C1646 1.393 . S
C1645 C1651 1.466 . S
C1646 C1641 1.382 1_565 S
C1646 C1645 1.393 . S
C1646 C1647 1.535 . S
C1647 C1646 1.535 . S
C1647 C1648 1.502 . S
C1647 C1649 1.561 . S
C1647 C1650 1.526 . S
C1648 H1632 0.959 . S
C1648 H1633 0.959 . S
C1648 H1634 0.961 . S
C1648 C1647 1.502 . S
C1649 H1635 0.960 . S
C1649 H1636 0.961 . S
C1649 H1637 0.959 . S
C1649 C1647 1.561 . S
C1650 C1647 1.526 . S
C1650 C1651 1.396 . S
C1650 C1655 1.390 . S
C1651 C1645 1.466 . S
C1651 C1650 1.396 . S
C1651 C1652 1.399 . S
C1652 H1638 0.929 . S
C1652 C1651 1.399 . S
C1652 C1653 1.385 . S
C1653 H1639 0.931 . S
C1653 C1652 1.385 . S
C1653 C1654 1.389 . S
C1654 C1653 1.389 . S
C1654 C1655 1.387 . S
C1655 H1640 0.930 . S
C1655 C1650 1.390 . S
C1655 C1654 1.387 . S
H1656 C1668 0.930 . S
H1657 C1670 0.930 . S
H1658 C1671 0.930 . S
H1659 C1675 0.959 . S
H1660 C1675 0.959 . S
H1661 C1675 0.961 . S
H1662 C1676 0.960 . S
H1663 C1676 0.961 . S
H1664 C1676 0.959 . S
H1665 C1679 0.929 . S
H1666 C1680 0.931 . S
H1667 C1682 0.930 . S
C1668 H1656 0.930 . S
C1668 C1669 1.399 . S
C1668 C1673 1.399 . S
C1669 C1668 1.399 . S
C1669 C1670 1.376 . S
C1670 H1657 0.930 . S
C1670 C1669 1.376 . S
C1670 C1671 1.388 . S
C1671 H1658 0.930 . S
C1671 C1670 1.388 . S
C1671 C1672 1.390 . S
C1672 C1671 1.390 . S
C1672 C1673 1.394 . S
C1672 C1678 1.465 . S
C1673 C1668 1.399 . S
C1673 C1672 1.394 . S
C1673 C1674 1.516 . S
C1674 C1673 1.516 . S
C1674 C1675 1.502 . S
C1674 C1676 1.561 . S
C1674 C1677 1.526 . S
C1675 H1659 0.959 . S
C1675 H1660 0.959 . S
C1675 H1661 0.961 . S
C1675 C1674 1.502 . S
C1676 H1662 0.960 . S
C1676 H1663 0.961 . S
C1676 H1664 0.959 . S
C1676 C1674 1.561 . S
C1677 C1674 1.526 . S
C1677 C1678 1.396 . S
C1677 C1682 1.390 . S
C1678 C1672 1.465 . S
C1678 C1677 1.396 . S
C1678 C1679 1.399 . S
C1679 H1665 0.929 . S
C1679 C1678 1.399 . S
C1679 C1680 1.385 . S
C1680 H1666 0.931 . S
C1680 C1679 1.385 . S
C1680 C1681 1.389 . S
C1681 C1680 1.389 . S
C1681 C1682 1.387 . S
C1682 H1667 0.930 . S
C1682 C1677 1.390 . S
C1682 C1681 1.387 . S
H1683 C1695 0.930 . S
H1684 C1697 0.930 . S
H1685 C1698 0.930 . S
H1686 C1702 0.959 . S
H1687 C1702 0.959 . S
H1688 C1702 0.961 . S
H1689 C1703 0.960 1_455 S
H1690 C1703 0.961 . S
H1691 C1703 0.959 1_455 S
H1692 C1706 0.929 . S
H1693 C1707 0.931 . S
H1694 C1709 0.930 . S
C1695 H1683 0.930 . S
C1695 C1696 1.399 . S
C1695 C1700 1.399 . S
C1696 C1695 1.399 . S
C1696 C1697 1.376 . S
C1697 H1684 0.930 . S
C1697 C1696 1.376 . S
C1697 C1698 1.388 . S
C1698 H1685 0.930 . S
C1698 C1697 1.388 . S
C1698 C1699 1.390 . S
C1699 C1698 1.390 . S
C1699 C1700 1.394 . S
C1699 C1705 1.465 . S
C1700 C1695 1.399 . S
C1700 C1699 1.394 . S
C1700 C1701 1.516 . S
C1701 C1700 1.516 . S
C1701 C1702 1.502 . S
C1701 C1703 1.561 . S
C1701 C1704 1.526 . S
C1702 H1686 0.959 . S
C1702 H1687 0.959 . S
C1702 H1688 0.961 . S
C1702 C1701 1.502 . S
C1703 H1689 0.960 1_655 S
C1703 H1690 0.961 . S
C1703 H1691 0.959 1_655 S
C1703 C1701 1.561 . S
C1704 C1701 1.526 . S
C1704 C1705 1.396 . S
C1704 C1709 1.390 . S
C1705 C1699 1.465 . S
C1705 C1704 1.396 . S
C1705 C1706 1.399 . S
C1706 H1692 0.929 . S
C1706 C1705 1.399 . S
C1706 C1707 1.385 . S
C1707 H1693 0.931 . S
C1707 C1706 1.385 . S
C1707 C1708 1.389 . S
C1708 C1707 1.389 . S
C1708 C1709 1.387 . S
C1709 H1694 0.930 . S
C1709 C1704 1.390 . S
C1709 C1708 1.387 . S
H1710 C1722 0.930 . S
H1711 C1724 0.930 . S
H1712 C1725 0.930 . S
H1713 C1729 0.959 . S
H1714 C1729 0.959 . S
H1715 C1729 0.961 . S
H1716 C1730 0.960 . S
H1717 C1730 0.961 . S
H1718 C1730 0.959 . S
H1719 C1733 0.929 . S
H1720 C1734 0.931 . S
H1721 C1736 0.930 . S
C1722 H1710 0.930 . S
C1722 C1723 1.399 . S
C1722 C1727 1.399 . S
C1723 C1722 1.399 . S
C1723 C1724 1.376 . S
C1724 H1711 0.930 . S
C1724 C1723 1.376 . S
C1724 C1725 1.388 . S
C1725 H1712 0.930 . S
C1725 C1724 1.388 . S
C1725 C1726 1.390 . S
C1726 C1725 1.390 . S
C1726 C1727 1.394 . S
C1726 C1732 1.465 . S
C1727 C1722 1.399 . S
C1727 C1726 1.394 . S
C1727 C1728 1.516 . S
C1728 C1727 1.516 . S
C1728 C1729 1.502 . S
C1728 C1730 1.561 . S
C1728 C1731 1.526 . S
C1729 H1713 0.959 . S
C1729 H1714 0.959 . S
C1729 H1715 0.961 . S
C1729 C1728 1.502 . S
C1730 H1716 0.960 . S
C1730 H1717 0.961 . S
C1730 H1718 0.959 . S
C1730 C1728 1.561 . S
C1731 C1728 1.526 . S
C1731 C1732 1.396 . S
C1731 C1736 1.390 . S
C1732 C1726 1.465 . S
C1732 C1731 1.396 . S
C1732 C1733 1.399 . S
C1733 H1719 0.929 . S
C1733 C1732 1.399 . S
C1733 C1734 1.385 . S
C1734 H1720 0.931 . S
C1734 C1733 1.385 . S
C1734 C1735 1.389 . S
C1735 C1734 1.389 . S
C1735 C1736 1.387 . S
C1736 H1721 0.930 . S
C1736 C1731 1.390 . S
C1736 C1735 1.387 . S
H1737 C1749 0.930 . S
H1738 C1751 0.930 . S
H1739 C1752 0.930 . S
H1740 C1756 0.959 . S
H1741 C1756 0.959 . S
H1742 C1756 0.961 . S
H1743 C1757 0.960 . S
H1744 C1757 0.961 . S
H1745 C1757 0.959 . S
H1746 C1760 0.929 . S
H1747 C1761 0.931 . S
H1748 C1763 0.930 . S
C1749 H1737 0.930 . S
C1749 C1750 1.399 . S
C1749 C1754 1.399 . S
C1750 C1749 1.399 . S
C1750 C1751 1.376 . S
C1751 H1738 0.930 . S
C1751 C1750 1.376 . S
C1751 C1752 1.388 . S
C1752 H1739 0.930 . S
C1752 C1751 1.388 . S
C1752 C1753 1.390 . S
C1753 C1752 1.390 . S
C1753 C1754 1.394 . S
C1753 C1759 1.465 . S
C1754 C1749 1.399 . S
C1754 C1753 1.394 . S
C1754 C1755 1.516 . S
C1755 C1754 1.516 . S
C1755 C1756 1.502 . S
C1755 C1757 1.561 . S
C1755 C1758 1.526 . S
C1756 H1740 0.959 . S
C1756 H1741 0.959 . S
C1756 H1742 0.961 . S
C1756 C1755 1.502 . S
C1757 H1743 0.960 . S
C1757 H1744 0.961 . S
C1757 H1745 0.959 . S
C1757 C1755 1.561 . S
C1758 C1755 1.526 . S
C1758 C1759 1.396 . S
C1758 C1763 1.390 . S
C1759 C1753 1.465 . S
C1759 C1758 1.396 . S
C1759 C1760 1.399 . S
C1760 H1746 0.929 . S
C1760 C1759 1.399 . S
C1760 C1761 1.385 . S
C1761 H1747 0.931 . S
C1761 C1760 1.385 . S
C1761 C1762 1.389 . S
C1762 C1761 1.389 . S
C1762 C1763 1.387 . S
C1763 H1748 0.930 . S
C1763 C1758 1.390 . S
C1763 C1762 1.387 . S
H1764 C1776 0.930 . S
H1765 C1778 0.930 . S
H1766 C1779 0.930 . S
H1767 C1783 0.959 . S
H1768 C1783 0.959 . S
H1769 C1783 0.961 . S
H1770 C1784 0.960 . S
H1771 C1784 0.961 . S
H1772 C1784 0.959 . S
H1773 C1787 0.929 . S
H1774 C1788 0.931 . S
H1775 C1790 0.930 . S
C1776 H1764 0.930 . S
C1776 C1777 1.399 . S
C1776 C1781 1.399 . S
C1777 C1776 1.399 . S
C1777 C1778 1.376 . S
C1778 H1765 0.930 . S
C1778 C1777 1.376 . S
C1778 C1779 1.388 . S
C1779 H1766 0.930 . S
C1779 C1778 1.388 . S
C1779 C1780 1.390 . S
C1780 C1779 1.390 . S
C1780 C1781 1.394 . S
C1780 C1786 1.465 . S
C1781 C1776 1.399 . S
C1781 C1780 1.394 . S
C1781 C1782 1.516 . S
C1782 C1781 1.516 . S
C1782 C1783 1.502 . S
C1782 C1784 1.561 . S
C1782 C1785 1.526 . S
C1783 H1767 0.959 . S
C1783 H1768 0.959 . S
C1783 H1769 0.961 . S
C1783 C1782 1.502 . S
C1784 H1770 0.960 . S
C1784 H1771 0.961 . S
C1784 H1772 0.959 . S
C1784 C1782 1.561 . S
C1785 C1782 1.526 . S
C1785 C1786 1.396 . S
C1785 C1790 1.390 . S
C1786 C1780 1.465 . S
C1786 C1785 1.396 . S
C1786 C1787 1.399 . S
C1787 H1773 0.929 . S
C1787 C1786 1.399 . S
C1787 C1788 1.385 . S
C1788 H1774 0.931 . S
C1788 C1787 1.385 . S
C1788 C1789 1.389 . S
C1789 C1788 1.389 . S
C1789 C1790 1.387 . S
C1790 H1775 0.930 . S
C1790 C1785 1.390 . S
C1790 C1789 1.387 . S
H1791 C1803 0.930 . S
H1792 C1805 0.930 . S
H1793 C1806 0.930 . S
H1794 C1810 0.959 . S
H1795 C1810 0.959 . S
H1796 C1810 0.961 . S
H1797 C1811 0.960 . S
H1798 C1811 0.961 . S
H1799 C1811 0.959 . S
H1800 C1814 0.929 . S
H1801 C1815 0.931 . S
H1802 C1817 0.930 . S
C1803 H1791 0.930 . S
C1803 C1804 1.399 . S
C1803 C1808 1.399 . S
C1804 C1803 1.399 . S
C1804 C1805 1.376 . S
C1805 H1792 0.930 . S
C1805 C1804 1.376 . S
C1805 C1806 1.388 . S
C1806 H1793 0.930 . S
C1806 C1805 1.388 . S
C1806 C1807 1.390 . S
C1807 C1806 1.390 . S
C1807 C1808 1.394 . S
C1807 C1813 1.465 . S
C1808 C1803 1.399 . S
C1808 C1807 1.394 . S
C1808 C1809 1.516 . S
C1809 C1808 1.516 . S
C1809 C1810 1.502 . S
C1809 C1811 1.561 . S
C1809 C1812 1.526 . S
C1810 H1794 0.959 . S
C1810 H1795 0.959 . S
C1810 H1796 0.961 . S
C1810 C1809 1.502 . S
C1811 H1797 0.960 . S
C1811 H1798 0.961 . S
C1811 H1799 0.959 . S
C1811 C1809 1.561 . S
C1812 C1809 1.526 . S
C1812 C1813 1.396 . S
C1812 C1817 1.390 . S
C1813 C1807 1.465 . S
C1813 C1812 1.396 . S
C1813 C1814 1.399 . S
C1814 H1800 0.929 . S
C1814 C1813 1.399 . S
C1814 C1815 1.385 . S
C1815 H1801 0.931 . S
C1815 C1814 1.385 . S
C1815 C1816 1.389 . S
C1816 C1815 1.389 . S
C1816 C1817 1.387 . S
C1817 H1802 0.930 . S
C1817 C1812 1.390 . S
C1817 C1816 1.387 . S
H1818 C1830 0.930 . S
H1819 C1832 0.930 . S
H1820 C1833 0.930 . S
H1821 C1837 0.959 . S
H1822 C1837 0.959 1_655 S
H1823 C1837 0.961 . S
H1824 C1838 0.960 1_455 S
H1825 C1838 0.961 . S
H1826 C1838 0.959 . S
H1827 C1841 0.929 1_455 S
H1828 C1842 0.931 . S
H1829 C1844 0.930 . S
C1830 H1818 0.930 . S
C1830 C1831 1.399 . S
C1830 C1835 1.399 . S
C1831 C1830 1.399 . S
C1831 C1832 1.376 . S
C1832 H1819 0.930 . S
C1832 C1831 1.376 . S
C1832 C1833 1.388 . S
C1833 H1820 0.930 . S
C1833 C1832 1.388 . S
C1833 C1834 1.390 . S
C1834 C1833 1.390 . S
C1834 C1835 1.394 . S
C1834 C1840 1.465 . S
C1835 C1830 1.399 . S
C1835 C1834 1.394 . S
C1835 C1836 1.516 . S
C1836 C1835 1.516 . S
C1836 C1837 1.502 . S
C1836 C1838 1.561 1_455 S
C1836 C1839 1.526 1_455 S
C1837 H1821 0.959 . S
C1837 H1822 0.959 1_455 S
C1837 H1823 0.961 . S
C1837 C1836 1.502 . S
C1838 H1824 0.960 1_655 S
C1838 H1825 0.961 . S
C1838 H1826 0.959 . S
C1838 C1836 1.561 1_655 S
C1839 C1836 1.526 1_655 S
C1839 C1840 1.396 1_655 S
C1839 C1844 1.390 . S
C1840 C1834 1.465 . S
C1840 C1839 1.396 1_455 S
C1840 C1841 1.399 1_455 S
C1841 H1827 0.929 1_655 S
C1841 C1840 1.399 1_655 S
C1841 C1842 1.385 . S
C1842 H1828 0.931 . S
C1842 C1841 1.385 . S
C1842 C1843 1.389 . S
C1843 C1842 1.389 . S
C1843 C1844 1.387 . S
C1844 H1829 0.930 . S
C1844 C1839 1.390 . S
C1844 C1843 1.387 . S
H1845 C1857 0.930 . S
H1846 C1859 0.930 . S
H1847 C1860 0.930 . S
H1848 C1864 0.959 . S
H1849 C1864 0.959 . S
H1850 C1864 0.961 . S
H1851 C1865 0.960 . S
H1852 C1865 0.961 . S
H1853 C1865 0.959 . S
H1854 C1868 0.929 . S
H1855 C1869 0.931 . S
H1856 C1871 0.930 . S
C1857 H1845 0.930 . S
C1857 C1858 1.399 . S
C1857 C1862 1.399 . S
C1858 C1857 1.399 . S
C1858 C1859 1.376 . S
C1859 H1846 0.930 . S
C1859 C1858 1.376 . S
C1859 C1860 1.388 . S
C1860 H1847 0.930 . S
C1860 C1859 1.388 . S
C1860 C1861 1.390 . S
C1861 C1860 1.390 . S
C1861 C1862 1.394 . S
C1861 C1867 1.465 . S
C1862 C1857 1.399 . S
C1862 C1861 1.394 . S
C1862 C1863 1.516 . S
C1863 C1862 1.516 . S
C1863 C1864 1.502 . S
C1863 C1865 1.561 . S
C1863 C1866 1.526 . S
C1864 H1848 0.959 . S
C1864 H1849 0.959 . S
C1864 H1850 0.961 . S
C1864 C1863 1.502 . S
C1865 H1851 0.960 . S
C1865 H1852 0.961 . S
C1865 H1853 0.959 . S
C1865 C1863 1.561 . S
C1866 C1863 1.526 . S
C1866 C1867 1.396 . S
C1866 C1871 1.390 . S
C1867 C1861 1.465 . S
C1867 C1866 1.396 . S
C1867 C1868 1.399 . S
C1868 H1854 0.929 . S
C1868 C1867 1.399 . S
C1868 C1869 1.385 . S
C1869 H1855 0.931 . S
C1869 C1868 1.385 . S
C1869 C1870 1.389 . S
C1870 C1869 1.389 . S
C1870 C1871 1.387 . S
C1871 H1856 0.930 . S
C1871 C1866 1.390 . S
C1871 C1870 1.387 . S
H1872 C1884 0.930 . S
H1873 C1886 0.930 . S
H1874 C1887 0.930 . S
H1875 C1891 0.959 . S
H1876 C1891 0.959 . S
H1877 C1891 0.961 . S
H1878 C1892 0.960 . S
H1879 C1892 0.961 . S
H1880 C1892 0.959 . S
H1881 C1895 0.929 . S
H1882 C1896 0.931 . S
H1883 C1898 0.930 . S
C1884 H1872 0.930 . S
C1884 C1885 1.399 . S
C1884 C1889 1.399 . S
C1885 C1884 1.399 . S
C1885 C1886 1.376 . S
C1886 H1873 0.930 . S
C1886 C1885 1.376 . S
C1886 C1887 1.388 . S
C1887 H1874 0.930 . S
C1887 C1886 1.388 . S
C1887 C1888 1.390 . S
C1888 C1887 1.390 . S
C1888 C1889 1.394 . S
C1888 C1894 1.465 . S
C1889 C1884 1.399 . S
C1889 C1888 1.394 . S
C1889 C1890 1.516 . S
C1890 C1889 1.516 . S
C1890 C1891 1.502 . S
C1890 C1892 1.561 . S
C1890 C1893 1.526 . S
C1891 H1875 0.959 . S
C1891 H1876 0.959 . S
C1891 H1877 0.961 . S
C1891 C1890 1.502 . S
C1892 H1878 0.960 . S
C1892 H1879 0.961 . S
C1892 H1880 0.959 . S
C1892 C1890 1.561 . S
C1893 C1890 1.526 . S
C1893 C1894 1.396 . S
C1893 C1898 1.390 . S
C1894 C1888 1.465 . S
C1894 C1893 1.396 . S
C1894 C1895 1.399 . S
C1895 H1881 0.929 . S
C1895 C1894 1.399 . S
C1895 C1896 1.385 . S
C1896 H1882 0.931 . S
C1896 C1895 1.385 . S
C1896 C1897 1.389 . S
C1897 C1896 1.389 . S
C1897 C1898 1.387 . S
C1898 H1883 0.930 . S
C1898 C1893 1.390 . S
C1898 C1897 1.387 . S
H1899 C1911 0.930 . S
H1900 C1913 0.930 . S
H1901 C1914 0.930 . S
H1902 C1918 0.959 . S
H1903 C1918 0.959 . S
H1904 C1918 0.961 . S
H1905 C1919 0.960 . S
H1906 C1919 0.961 . S
H1907 C1919 0.959 . S
H1908 C1922 0.929 . S
H1909 C1923 0.931 . S
H1910 C1925 0.930 . S
C1911 H1899 0.930 . S
C1911 C1912 1.399 . S
C1911 C1916 1.399 . S
C1912 C1911 1.399 . S
C1912 C1913 1.376 . S
C1913 H1900 0.930 . S
C1913 C1912 1.376 . S
C1913 C1914 1.388 . S
C1914 H1901 0.930 . S
C1914 C1913 1.388 . S
C1914 C1915 1.390 . S
C1915 C1914 1.390 . S
C1915 C1916 1.394 . S
C1915 C1921 1.465 . S
C1916 C1911 1.399 . S
C1916 C1915 1.394 . S
C1916 C1917 1.516 . S
C1917 C1916 1.516 . S
C1917 C1918 1.502 . S
C1917 C1919 1.561 . S
C1917 C1920 1.526 . S
C1918 H1902 0.959 . S
C1918 H1903 0.959 . S
C1918 H1904 0.961 . S
C1918 C1917 1.502 . S
C1919 H1905 0.960 . S
C1919 H1906 0.961 . S
C1919 H1907 0.959 . S
C1919 C1917 1.561 . S
C1920 C1917 1.526 . S
C1920 C1921 1.396 . S
C1920 C1925 1.390 . S
C1921 C1915 1.465 . S
C1921 C1920 1.396 . S
C1921 C1922 1.399 . S
C1922 H1908 0.929 . S
C1922 C1921 1.399 . S
C1922 C1923 1.385 . S
C1923 H1909 0.931 . S
C1923 C1922 1.385 . S
C1923 C1924 1.389 . S
C1924 C1923 1.389 . S
C1924 C1925 1.387 . S
C1925 H1910 0.930 . S
C1925 C1920 1.390 . S
C1925 C1924 1.387 . S
H1926 C1938 0.930 . S
H1927 C1940 0.930 . S
H1928 C1941 0.930 . S
H1929 C1945 0.959 . S
H1930 C1945 0.959 . S
H1931 C1945 0.961 . S
H1932 C1946 0.960 . S
H1933 C1946 0.961 . S
H1934 C1946 0.959 . S
H1935 C1949 0.929 . S
H1936 C1950 0.931 . S
H1937 C1952 0.930 . S
C1938 H1926 0.930 . S
C1938 C1939 1.399 . S
C1938 C1943 1.399 . S
C1939 C1938 1.399 . S
C1939 C1940 1.376 . S
C1940 H1927 0.930 . S
C1940 C1939 1.376 . S
C1940 C1941 1.388 . S
C1941 H1928 0.930 . S
C1941 C1940 1.388 . S
C1941 C1942 1.390 . S
C1942 C1941 1.390 . S
C1942 C1943 1.394 . S
C1942 C1948 1.465 . S
C1943 C1938 1.399 . S
C1943 C1942 1.394 . S
C1943 C1944 1.516 . S
C1944 C1943 1.516 . S
C1944 C1945 1.502 . S
C1944 C1946 1.561 1_556 S
C1944 C1947 1.526 . S
C1945 H1929 0.959 . S
C1945 H1930 0.959 . S
C1945 H1931 0.961 . S
C1945 C1944 1.502 . S
C1946 H1932 0.960 . S
C1946 H1933 0.961 . S
C1946 H1934 0.959 . S
C1946 C1944 1.561 1_554 S
C1947 C1944 1.526 . S
C1947 C1948 1.396 . S
C1947 C1952 1.390 . S
C1948 C1942 1.465 . S
C1948 C1947 1.396 . S
C1948 C1949 1.399 . S
C1949 H1935 0.929 . S
C1949 C1948 1.399 . S
C1949 C1950 1.385 . S
C1950 H1936 0.931 . S
C1950 C1949 1.385 . S
C1950 C1951 1.389 . S
C1951 C1950 1.389 . S
C1951 C1952 1.387 . S
C1952 H1937 0.930 . S
C1952 C1947 1.390 . S
C1952 C1951 1.387 . S
H1953 C1965 0.930 . S
H1954 C1967 0.930 . S
H1955 C1968 0.930 . S
H1956 C1972 0.959 . S
H1957 C1972 0.959 . S
H1958 C1972 0.961 . S
H1959 C1973 0.960 . S
H1960 C1973 0.961 . S
H1961 C1973 0.959 . S
H1962 C1976 0.929 . S
H1963 C1977 0.931 . S
H1964 C1979 0.930 . S
C1965 H1953 0.930 . S
C1965 C1966 1.399 . S
C1965 C1970 1.399 . S
C1966 C1965 1.399 . S
C1966 C1967 1.376 . S
C1967 H1954 0.930 . S
C1967 C1966 1.376 . S
C1967 C1968 1.388 . S
C1968 H1955 0.930 . S
C1968 C1967 1.388 . S
C1968 C1969 1.390 . S
C1969 C1968 1.390 . S
C1969 C1970 1.394 . S
C1969 C1975 1.465 1_655 S
C1970 C1965 1.399 . S
C1970 C1969 1.394 . S
C1970 C1971 1.516 . S
C1971 C1970 1.516 . S
C1971 C1972 1.502 . S
C1971 C1973 1.561 . S
C1971 C1974 1.531 . S
C1972 H1956 0.959 . S
C1972 H1957 0.959 . S
C1972 H1958 0.961 . S
C1972 C1971 1.502 . S
C1973 H1959 0.960 . S
C1973 H1960 0.961 . S
C1973 H1961 0.959 . S
C1973 C1971 1.561 . S
C1974 C1971 1.531 . S
C1974 C1975 1.395 1_655 S
C1974 C1979 1.385 1_655 S
C1975 C1969 1.465 1_455 S
C1975 C1974 1.395 1_455 S
C1975 C1976 1.399 . S
C1976 H1962 0.929 . S
C1976 C1975 1.399 . S
C1976 C1977 1.385 . S
C1977 H1963 0.931 . S
C1977 C1976 1.385 . S
C1977 C1978 1.389 . S
C1978 C1977 1.389 . S
C1978 C1979 1.387 . S
C1979 H1964 0.930 . S
C1979 C1974 1.385 1_455 S
C1979 C1978 1.387 . S
C1021 C67 1.545 . S
C1033 C987 1.549 . S
C1048 C819 1.605 . S
C1060 C147 1.600 . S
C1075 C231 1.544 . S
C1087 C735 1.543 . S
C1102 C315 1.495 . S
C1114 C903 1.515 . S
C1129 C399 1.612 . S
C1141 C907 1.573 . S
C1156 C487 1.659 . S
C1168 C991 1.681 . S
C1183 C823 1.516 . S
C1195 C567 1.623 . S
C1210 C651 1.550 . S
C1222 C739 1.480 . S
C1237 C319 1.593 . S
C1249 C403 1.687 . S
C1264 C63 1.495 . S
C1276 C483 1.516 . S
C1291 C151 1.583 1_655 S
C1303 C571 1.668 . S
C1318 C655 1.630 . S
C1330 C235 1.604 . S
C1345 C70 1.604 . S
C1357 C746 1.754 . S
C1372 C142 1.351 . S
C1384 C914 1.592 . S
C1399 C998 1.690 . S
C1411 C226 1.517 . S
C1426 C310 1.553 . S
C1438 C830 1.732 . S
C1453 C394 1.520 . S
C1465 C812 1.677 . S
C1480 C728 1.871 . S
C1492 C490 1.664 . S
C1507 C896 1.796 . S
C1519 C562 1.509 . S
C1534 C980 1.737 . S
C1546 C646 1.557 . S
C1561 C74 1.794 . S
C1573 C322 1.687 . S
C1588 C58 1.577 . S
C1600 C140 1.797 . S
C1615 C154 1.761 . S
C1627 C224 1.881 . S
C1642 C308 1.868 . S
C1654 C238 1.662 . S
C1669 C478 1.458 . S
C1681 C392 1.704 . S
C1696 C494 1.639 . S
C1708 C574 1.517 . S
C1723 C560 1.712 . S
C1735 C658 1.643 . S
C1750 C406 1.655 . S
C1762 C644 1.741 . S
C1777 C742 1.549 . S
C1789 C326 1.690 . S
C1804 C476 1.727 . S
C1816 C814 1.507 . S
C1831 C730 1.464 . S
C1843 C578 1.683 . S
C1858 C898 1.353 . S
C1870 C662 1.606 . S
C1885 C410 1.619 . S
C1897 C982 1.398 . S
C1912 C994 1.558 . S
C1924 C158 1.645 . S
C1939 C242 1.622 . S
C1951 C826 1.489 . S
C1966 C910 1.610 . S
C1978 C56 1.750 . S
