# Generated by pormake.
# Topology sne, (6)-cn, num edge types: 1
# Building blocks:
#     Node 0, Type 0, BuildingBlock: OJICUG_clean_sbu_0, # of connection points: 6
#     Node 1, Type 0, BuildingBlock: OJICUG_clean_sbu_0, # of connection points: 6
#     Node 2, Type 0, BuildingBlock: OJICUG_clean_sbu_0, # of connection points: 6
#     Node 3, Type 0, BuildingBlock: OJICUG_clean_sbu_0, # of connection points: 6
#     Node 4, Type 0, BuildingBlock: OJICUG_clean_sbu_0, # of connection points: 6
#     Node 5, Type 0, BuildingBlock: OJICUG_clean_sbu_0, # of connection points: 6
#     Node 6, Type 0, BuildingBlock: OJICUG_clean_sbu_0, # of connection points: 6
#     Node 7, Type 0, BuildingBlock: OJICUG_clean_sbu_0, # of connection points: 6
#     Edge 8, Type (0, 0), BuildingBlock: OJICUG_clean_linker_0, # of connection points: 2
#     Edge 9, Type (0, 0), BuildingBlock: OJICUG_clean_linker_0, # of connection points: 2
#     Edge 10, Type (0, 0), BuildingBlock: OJICUG_clean_linker_0, # of connection points: 2
#     Edge 11, Type (0, 0), BuildingBlock: OJICUG_clean_linker_0, # of connection points: 2
#     Edge 12, Type (0, 0), BuildingBlock: OJICUG_clean_linker_0, # of connection points: 2
#     Edge 13, Type (0, 0), BuildingBlock: OJICUG_clean_linker_0, # of connection points: 2
#     Edge 14, Type (0, 0), BuildingBlock: OJICUG_clean_linker_0, # of connection points: 2
#     Edge 15, Type (0, 0), BuildingBlock: OJICUG_clean_linker_0, # of connection points: 2
#     Edge 16, Type (0, 0), BuildingBlock: OJICUG_clean_linker_0, # of connection points: 2
#     Edge 17, Type (0, 0), BuildingBlock: OJICUG_clean_linker_0, # of connection points: 2
#     Edge 18, Type (0, 0), BuildingBlock: OJICUG_clean_linker_0, # of connection points: 2
#     Edge 19, Type (0, 0), BuildingBlock: OJICUG_clean_linker_0, # of connection points: 2
#     Edge 20, Type (0, 0), BuildingBlock: OJICUG_clean_linker_0, # of connection points: 2
#     Edge 21, Type (0, 0), BuildingBlock: OJICUG_clean_linker_0, # of connection points: 2
#     Edge 22, Type (0, 0), BuildingBlock: OJICUG_clean_linker_0, # of connection points: 2
#     Edge 23, Type (0, 0), BuildingBlock: OJICUG_clean_linker_0, # of connection points: 2
#     Edge 24, Type (0, 0), BuildingBlock: OJICUG_clean_linker_0, # of connection points: 2
#     Edge 25, Type (0, 0), BuildingBlock: OJICUG_clean_linker_0, # of connection points: 2
#     Edge 26, Type (0, 0), BuildingBlock: OJICUG_clean_linker_0, # of connection points: 2
#     Edge 27, Type (0, 0), BuildingBlock: OJICUG_clean_linker_0, # of connection points: 2
#     Edge 28, Type (0, 0), BuildingBlock: OJICUG_clean_linker_0, # of connection points: 2
#     Edge 29, Type (0, 0), BuildingBlock: OJICUG_clean_linker_0, # of connection points: 2
#     Edge 30, Type (0, 0), BuildingBlock: OJICUG_clean_linker_0, # of connection points: 2
#     Edge 31, Type (0, 0), BuildingBlock: OJICUG_clean_linker_0, # of connection points: 2
# Relax obj value: 0.189
# Max RMSD: 0.224
# Mean RMSD: 0.224
data_MOF--net-sne--node1-OJICUG_clean_sbu_0--edge1-OJICUG_clean_linker_0
_symmetry_space_group_name_H-M    P1
_symmetry_Int_Tables_number       1
_symmetry_cell_setting            triclinic
loop_
_symmetry_equiv_pos_as_xyz
'x, y, z'
_cell_length_a     26.524702
_cell_length_b     26.570011
_cell_length_c     21.61243
_cell_angle_alpha  89.995915
_cell_angle_beta   90.025627
_cell_angle_gamma 90.073305
loop_
_atom_site_label
_atom_site_type_symbol
_atom_site_fract_x
_atom_site_fract_y
_atom_site_fract_z
_atom_type_partial_charge
Sc0 Sc 0.29839 0.10342 0.40093 0.0
Sc1 Sc 0.18431 0.10103 0.32502 0.0
Sc2 Sc 0.23973 0.21716 0.36128 0.0
O3 O 0.2408 0.14127 0.36241 0.0
C4 C 0.29391 0.19962 0.48929 0.0
C5 C 0.21585 0.03471 0.44357 0.0
C6 C 0.12931 0.18239 0.40453 0.0
C7 C 0.26894 0.03439 0.28386 0.0
C8 C 0.3509 0.18488 0.31868 0.0
C9 C 0.18539 0.19594 0.23436 0.0
O10 O 0.31146 0.15684 0.47464 0.0
O11 O 0.19213 0.04098 0.39281 0.0
O12 O 0.1622 0.2171 0.39598 0.0
O13 O 0.29258 0.04208 0.33439 0.0
O14 O 0.31713 0.21881 0.32614 0.0
O15 O 0.16917 0.15288 0.25019 0.0
O16 O 0.3483 0.14088 0.3411 0.0
O17 O 0.23411 0.06301 0.26515 0.0
O18 O 0.21438 0.22196 0.26805 0.0
O19 O 0.24975 0.0647 0.46171 0.0
O20 O 0.26472 0.22434 0.45447 0.0
O21 O 0.13331 0.13787 0.38402 0.0
Sc22 Sc 0.10605 0.79914 0.65205 0.0
Sc23 Sc 0.10416 0.68437 0.5777 0.0
Sc24 Sc 0.22027 0.73827 0.61783 0.0
O25 O 0.14416 0.74055 0.61607 0.0
C26 C 0.19135 0.84927 0.573 0.0
C27 C 0.0402 0.77 0.53203 0.0
C28 C 0.20129 0.68372 0.49045 0.0
C29 C 0.03452 0.71767 0.69264 0.0
C30 C 0.19983 0.79349 0.74463 0.0
C31 C 0.18267 0.62903 0.66121 0.0
O32 O 0.14674 0.84775 0.59381 0.0
O33 O 0.06831 0.73403 0.5157 0.0
O34 O 0.22712 0.7122 0.525 0.0
O35 O 0.06348 0.75233 0.71117 0.0
O36 O 0.22534 0.76421 0.71082 0.0
O37 O 0.13875 0.63336 0.6387 0.0
O38 O 0.15736 0.81114 0.72847 0.0
O39 O 0.04253 0.69309 0.64297 0.0
O40 O 0.21807 0.66132 0.65365 0.0
O41 O 0.04695 0.7943 0.58226 0.0
O42 O 0.22445 0.81497 0.58173 0.0
O43 O 0.15761 0.66825 0.50502 0.0
Sc44 Sc 0.74334 0.75805 0.36211 0.0
Sc45 Sc 0.79697 0.87394 0.32072 0.0
Sc46 Sc 0.68258 0.87193 0.39604 0.0
O47 O 0.74102 0.83394 0.35977 0.0
C48 C 0.6319 0.78695 0.3176 0.0
C49 C 0.79662 0.77672 0.23381 0.0
C50 C 0.71123 0.93802 0.27619 0.0
C51 C 0.85324 0.79579 0.40387 0.0
C52 C 0.68789 0.77828 0.48856 0.0
C53 C 0.76395 0.94324 0.4361 0.0
O54 O 0.66608 0.75379 0.327 0.0
O55 O 0.8124 0.82037 0.24787 0.0
O56 O 0.68749 0.93132 0.32683 0.0
O57 O 0.82075 0.76046 0.397 0.0
O58 O 0.66988 0.82039 0.47192 0.0
O59 O 0.78825 0.93564 0.38606 0.0
O60 O 0.71802 0.75317 0.45541 0.0
O61 O 0.84868 0.83955 0.38121 0.0
O62 O 0.73017 0.91351 0.45524 0.0
O63 O 0.76858 0.75105 0.26905 0.0
O64 O 0.63376 0.83174 0.3376 0.0
O65 O 0.74681 0.90969 0.25911 0.0
Sc66 Sc 0.8703 0.18125 0.64217 0.0
Sc67 Sc 0.87371 0.29599 0.56783 0.0
Sc68 Sc 0.75681 0.24194 0.60522 0.0
O69 O 0.83294 0.23985 0.60523 0.0
C70 C 0.78725 0.13129 0.55996 0.0
C71 C 0.94001 0.2109 0.52596 0.0
C72 C 0.77849 0.29531 0.47742 0.0
C73 C 0.93955 0.26333 0.68665 0.0
C74 C 0.77453 0.18564 0.73165 0.0
C75 C 0.79298 0.35165 0.64836 0.0
O76 O 0.83168 0.13307 0.5814 0.0
O77 O 0.91213 0.24649 0.50794 0.0
O78 O 0.75168 0.26803 0.5123 0.0
O79 O 0.91035 0.22827 0.70348 0.0
O80 O 0.75002 0.21603 0.69817 0.0
O81 O 0.83703 0.34753 0.62629 0.0
O82 O 0.81693 0.16771 0.71584 0.0
O83 O 0.9331 0.28805 0.63665 0.0
O84 O 0.758 0.31887 0.64111 0.0
O85 O 0.93168 0.18675 0.57587 0.0
O86 O 0.75366 0.1651 0.56901 0.0
O87 O 0.82223 0.31044 0.49237 0.0
Sc88 Sc 0.23519 0.25721 0.86162 0.0
Sc89 Sc 0.291 0.37311 0.82529 0.0
Sc90 Sc 0.17674 0.37133 0.90104 0.0
O91 O 0.23437 0.33319 0.8628 0.0
C92 C 0.12428 0.28972 0.81873 0.0
C93 C 0.28947 0.27831 0.73452 0.0
C94 C 0.20644 0.44008 0.78399 0.0
C95 C 0.34563 0.29151 0.90496 0.0
C96 C 0.18086 0.27508 -0.01052 0.0
C97 C 0.26004 0.43964 0.94397 0.0
O98 O 0.15801 0.25576 0.82604 0.0
O99 O 0.30551 0.32147 0.75017 0.0
O100 O 0.18254 0.43246 0.83431 0.0
O101 O 0.31252 0.25696 0.89684 0.0
O102 O 0.16375 0.31809 0.97499 0.0
O103 O 0.28399 0.43289 0.8935 0.0
O104 O 0.20977 0.25012 0.9546 0.0
O105 O 0.34195 0.33588 0.88392 0.0
O106 O 0.2251 0.41065 0.96166 0.0
O107 O 0.26084 0.25216 0.7685 0.0
O108 O 0.12686 0.33365 0.84135 0.0
O109 O 0.24135 0.41148 0.76562 0.0
Sc110 Sc 0.37367 0.67673 0.15315 0.0
Sc111 Sc 0.37419 0.79134 0.07856 0.0
Sc112 Sc 0.25876 0.73561 0.11764 0.0
O113 O 0.33485 0.73454 0.11655 0.0
C114 C 0.28969 0.62471 0.07375 0.0
C115 C 0.43955 0.70674 0.03347 0.0
C116 C 0.27746 0.79047 -0.00948 0.0
C117 C 0.44392 0.759 0.19384 0.0
C118 C 0.27936 0.68109 0.24487 0.0
C119 C 0.29446 0.84548 0.16132 0.0
O120 O 0.33421 0.62713 0.09484 0.0
O121 O 0.41095 0.74223 0.01676 0.0
O122 O 0.25206 0.76123 0.02459 0.0
O123 O 0.41486 0.72453 0.21257 0.0
O124 O 0.25363 0.70999 0.21076 0.0
O125 O 0.33866 0.84168 0.13956 0.0
O126 O 0.32212 0.66397 0.22909 0.0
O127 O 0.43591 0.78327 0.14393 0.0
O128 O 0.2595 0.8128 0.15309 0.0
O129 O 0.433 0.68248 0.08379 0.0
O130 O 0.25606 0.65859 0.08208 0.0
O131 O 0.32067 0.8069 0.00568 0.0
Sc132 Sc 0.79599 0.60387 0.89651 0.0
Sc133 Sc 0.68141 0.60284 0.82124 0.0
Sc134 Sc 0.73612 0.71831 0.86228 0.0
O135 O 0.73778 0.64235 0.86021 0.0
C136 C 0.79158 0.69775 -0.01123 0.0
C137 C 0.71375 0.53329 0.93681 0.0
C138 C 0.62606 0.68161 0.90446 0.0
C139 C 0.76665 0.53797 0.77676 0.0
C140 C 0.84728 0.68849 0.81782 0.0
C141 C 0.68256 0.69982 0.73397 0.0
O142 O 0.80897 0.6553 0.97244 0.0
O143 O 0.68936 0.54128 0.8869 0.0
O144 O 0.65885 0.71665 0.89764 0.0
O145 O 0.79066 0.54458 0.82725 0.0
O146 O 0.81325 0.72185 0.82685 0.0
O147 O 0.66659 0.65627 0.74808 0.0
O148 O 0.84514 0.6438 0.83818 0.0
O149 O 0.73115 0.56645 0.75982 0.0
O150 O 0.71061 0.72545 0.76927 0.0
O151 O 0.74828 0.56232 0.95564 0.0
O152 O 0.76185 0.72317 0.9554 0.0
O153 O 0.6301 0.6379 0.88153 0.0
Sc154 Sc 0.60456 0.29439 0.14253 0.0
Sc155 Sc 0.60186 0.17962 0.06821 0.0
Sc156 Sc 0.71839 0.23455 0.10526 0.0
O157 O 0.64227 0.23607 0.10549 0.0
C158 C 0.68715 0.34526 0.06054 0.0
C159 C 0.53495 0.26421 0.02645 0.0
C160 C 0.69685 0.18117 0.97747 0.0
C161 C 0.53585 0.21187 0.18706 0.0
C162 C 0.70052 0.29051 0.23179 0.0
C163 C 0.68319 0.12444 0.14831 0.0
O164 O 0.64268 0.343 0.08177 0.0
O165 O 0.56309 0.22888 0.00835 0.0
O166 O 0.72345 0.20884 0.01217 0.0
O167 O 0.56491 0.24705 0.20391 0.0
O168 O 0.7251 0.26019 0.19831 0.0
O169 O 0.63896 0.12835 0.12667 0.0
O170 O 0.65803 0.30829 0.21602 0.0
O171 O 0.54242 0.18718 0.13706 0.0
O172 O 0.71792 0.15744 0.14077 0.0
O173 O 0.54314 0.2884 0.07636 0.0
O174 O 0.72094 0.31161 0.06954 0.0
O175 O 0.65337 0.16548 -0.00732 0.0
C176 C 0.31899 0.95744 0.26201 0.0
C177 C 0.27564 0.98622 0.25175 0.0
H178 H 0.35817 0.88934 0.24178 0.0
C179 C 0.23643 0.96654 0.21485 0.0
H180 H 0.34938 0.97139 0.29083 0.0
C181 C 0.2409 0.91904 0.18801 0.0
C182 C 0.28493 0.89115 0.19696 0.0
H183 H 0.20203 0.98757 0.20721 0.0
H184 H 0.21094 0.90501 0.15857 0.0
C185 C 0.32373 0.91044 0.23447 0.0
C186 C 0.95666 0.6684 0.71229 0.0
C187 C 0.98638 0.71074 0.72493 0.0
H188 H 0.88824 0.6292 0.73126 0.0
C189 C 0.96781 0.7484 0.76484 0.0
H190 H 0.96966 0.63917 0.68122 0.0
C191 C 0.9206 0.74316 0.79256 0.0
C192 C 0.89196 0.69996 0.7812 0.0
H193 H -0.01039 0.782 0.77447 0.0
H194 H 0.90748 0.77164 0.8246 0.0
C195 C 0.90997 0.66298 0.7404 0.0
C196 C 0.65918 0.01261 0.2497 0.0
C197 C 0.7036 0.98502 0.24185 0.0
H198 H 0.61858 0.07922 0.22651 0.0
C199 C 0.74291 0.00504 0.20544 0.0
H200 H 0.62865 -0.00164 0.27804 0.0
C201 C 0.73767 0.05191 0.17712 0.0
C202 C 0.69276 0.07876 0.18402 0.0
H203 H 0.77808 0.98491 0.19961 0.0
H204 H 0.76791 0.06636 0.14846 0.0
C205 C 0.65368 0.05893 0.22066 0.0
C206 C 0.06133 0.31873 0.74316 0.0
C207 C 0.07963 0.27993 0.78121 0.0
H208 H 0.00215 0.34419 0.68399 0.0
C209 C 0.05185 0.2356 0.7882 0.0
H210 H 0.08243 0.35338 0.73729 0.0
C211 C 0.0053 0.23082 0.75873 0.0
C212 C 0.98661 0.27005 0.72126 0.0
H213 H 0.06519 0.20562 0.81797 0.0
H214 H 0.98426 0.1962 0.76481 0.0
C215 C 0.01534 0.31373 0.71312 0.0
C216 C 0.31653 0.56179 -0.00286 0.0
C217 C 0.2788 0.58005 0.03682 0.0
H218 H 0.34052 0.50258 0.93732 0.0
C219 C 0.2348 0.55209 0.04609 0.0
H220 H 0.35093 0.583 -0.01045 0.0
C221 C 0.22933 0.50544 0.0172 0.0
C222 C 0.26753 0.48679 0.97807 0.0
H223 H 0.20568 0.56537 0.07719 0.0
H224 H 0.19501 0.48426 0.02506 0.0
C225 C 0.31085 0.5157 0.96773 0.0
C226 C 0.55342 0.73521 0.9351 0.0
C227 C 0.58039 0.6903 0.94061 0.0
H228 H 0.48631 0.77497 0.95891 0.0
C229 C 0.56072 0.65056 0.97623 0.0
H230 H 0.56776 0.76597 0.90727 0.0
C231 C 0.5144 0.65542 0.00561 0.0
C232 C 0.48665 0.69983 -0.00096 0.0
H233 H 0.58114 0.61545 0.98101 0.0
H234 H 0.50023 0.62439 0.03314 0.0
C235 C 0.50655 0.7398 0.9637 0.0
C236 C 0.74091 0.41914 0.03542 0.0
C237 C 0.69807 0.38998 0.02381 0.0
H238 H 0.77875 0.48872 0.01815 0.0
C239 C 0.66071 0.40773 0.98323 0.0
H240 H 0.76964 0.40627 0.06736 0.0
C241 C 0.66542 0.45466 0.9556 0.0
C242 C 0.70737 0.48488 0.9686 0.0
H243 H 0.62716 0.38562 0.974 0.0
H244 H 0.63594 0.46745 0.92466 0.0
C245 C 0.7454 0.46656 0.00825 0.0
C246 C 0.46681 0.23255 0.9571 0.0
C247 C 0.48682 0.27135 -0.00572 0.0
H248 H 0.40483 0.2078 0.90087 0.0
C249 C 0.45829 0.31474 0.00498 0.0
H250 H 0.48767 0.19814 0.94908 0.0
C251 C 0.41114 0.31985 0.97781 0.0
C252 C 0.39149 0.28145 0.94009 0.0
H253 H 0.47248 0.34486 0.03399 0.0
H254 H 0.3902 0.35429 -0.01441 0.0
C255 C 0.41916 0.23743 0.93052 0.0
C256 C 0.81821 0.46316 0.7498 0.0
C257 C 0.77388 0.49097 0.74236 0.0
H258 H 0.85835 0.39641 0.72609 0.0
C259 C 0.73424 0.4712 0.70624 0.0
H260 H 0.84898 0.47723 0.77793 0.0
C261 C 0.73908 0.42437 0.67777 0.0
C262 C 0.7839 0.39732 0.68423 0.0
H263 H 0.69914 0.4915 0.70073 0.0
H264 H 0.70859 0.41011 0.64934 0.0
C265 C 0.82331 0.41688 0.72059 0.0
C266 C 0.46018 0.16119 0.21345 0.0
C267 C 0.48875 0.20499 0.22159 0.0
H268 H 0.39321 0.12131 0.23748 0.0
C269 C 0.46984 0.24417 0.25896 0.0
H270 H 0.47353 0.13076 0.18441 0.0
C271 C 0.42326 0.23925 0.2883 0.0
C272 C 0.39563 0.19481 0.28132 0.0
H273 H 0.49074 0.27888 0.26503 0.0
H274 H 0.40976 0.26921 0.31796 0.0
C275 C 0.41416 0.15604 0.24337 0.0
C276 C 0.15193 0.5637 0.73299 0.0
C277 C 0.19142 0.58318 0.69675 0.0
H278 H 0.12547 0.5026 0.78858 0.0
C279 C 0.23572 0.55549 0.68914 0.0
H280 H 0.11728 0.58467 0.73928 0.0
C281 C 0.23984 0.50802 0.71606 0.0
C282 C 0.20002 0.48818 0.75175 0.0
H283 H 0.26623 0.56969 0.66072 0.0
H284 H 0.2745 0.48718 0.70949 0.0
C285 C 0.15634 0.51671 0.76068 0.0
C286 C 0.55738 0.73336 0.2947 0.0
C287 C 0.58736 0.77516 0.28094 0.0
H288 H 0.48708 0.6962 0.27902 0.0
C289 C 0.57041 0.81123 0.23827 0.0
H290 H 0.56965 0.70571 0.32833 0.0
C291 C 0.52342 0.8064 0.21069 0.0
C292 C 0.49236 0.76555 0.22571 0.0
H293 H 0.59316 0.844 0.22745 0.0
H294 H 0.51128 0.83495 0.17816 0.0
C295 C 0.50991 0.7287 0.26745 0.0
C296 C 0.81291 0.07106 0.47998 0.0
C297 C 0.7763 0.08706 0.52255 0.0
H298 H 0.83826 0.01253 0.42006 0.0
C299 C 0.73515 0.05614 0.53616 0.0
H300 H 0.84524 0.09454 0.4694 0.0
C301 C 0.73174 0.00863 0.50902 0.0
C302 C 0.76921 -0.00805 0.46752 0.0
H303 H 0.70714 0.06765 0.56976 0.0
H304 H 0.69977 0.98505 0.52059 0.0
C305 C 0.8093 0.024 0.45244 0.0
C306 C 0.06324 0.15416 0.47684 0.0
C307 C 0.08326 0.19252 0.43933 0.0
H308 H 0.00172 0.12958 0.53297 0.0
C309 C 0.05594 0.23681 0.42996 0.0
H310 H 0.08388 0.11953 0.48452 0.0
C311 C 0.00835 0.24204 0.45658 0.0
C312 C 0.98803 0.20334 0.49364 0.0
H313 H 0.07054 0.26644 0.40052 0.0
H314 H 0.98782 0.27667 0.44873 0.0
C315 C 0.01616 0.15963 0.50407 0.0
C316 C 0.24244 0.92529 0.55031 0.0
C317 C 0.2027 0.89306 0.5351 0.0
H318 H 0.27689 -0.00322 0.53436 0.0
C319 C 0.16749 0.90723 0.48985 0.0
H320 H 0.26922 0.91521 0.58608 0.0
C321 C 0.17123 0.95367 0.46082 0.0
C322 C 0.21004 0.98694 0.47703 0.0
H323 H 0.13619 0.88272 0.47814 0.0
H324 H 0.14345 0.96361 0.42616 0.0
C325 C 0.24598 0.9722 0.52162 0.0
C326 C 0.96593 0.82202 0.5036 0.0
C327 C -0.00679 0.77728 0.49744 0.0
H328 H 0.89941 0.86238 0.47898 0.0
C329 C 0.97284 0.73728 0.46256 0.0
H330 H 0.98048 0.85309 0.53077 0.0
C331 C 0.92589 0.74208 0.43419 0.0
C332 C 0.89929 0.78722 0.43944 0.0
H333 H -0.00729 0.70188 0.45805 0.0
H334 H 0.91115 0.71121 0.40685 0.0
C335 C 0.91951 0.82708 0.47441 0.0
C336 C 0.17088 0.20246 0.06147 0.0
C337 C 0.17112 0.25479 0.0517 0.0
H338 H 0.17387 0.14258 0.12777 0.0
C339 C 0.16879 0.28727 0.10275 0.0
H340 H 0.17239 0.17667 0.02269 0.0
C341 C 0.17065 0.26781 0.16268 0.0
C342 C 0.17362 0.21558 0.17239 0.0
H343 H 0.16913 0.32773 0.09644 0.0
H344 H 0.17189 0.29367 0.20142 0.0
C345 C 0.17151 0.18297 0.12145 0.0
C346 C 0.20515 0.80237 0.91813 0.0
C347 C 0.25749 0.80169 0.92846 0.0
H348 H 0.14564 0.80183 0.85102 0.0
C349 C 0.29039 0.80564 0.87789 0.0
H350 H 0.17903 0.79965 0.95651 0.0
C351 C 0.27132 0.80589 0.8177 0.0
C352 C 0.21908 0.8035 0.80727 0.0
H353 H 0.33087 0.80504 0.8846 0.0
H354 H 0.29749 0.80582 0.77921 0.0
C355 C 0.18605 0.8039 0.85793 0.0
C356 C 0.8075 0.78922 0.12043 0.0
C357 C 0.80637 0.75665 0.17148 0.0
H358 H 0.80324 0.79568 0.02184 0.0
C359 C 0.80749 0.70435 0.16159 0.0
H360 H 0.80643 0.82965 0.12679 0.0
C361 C 0.80658 0.68491 0.10157 0.0
C362 C 0.80329 0.71753 0.05072 0.0
H363 H 0.80686 0.67848 0.20034 0.0
H364 H 0.80497 0.64449 0.09518 0.0
C365 C 0.80536 0.76979 0.0605 0.0
C366 C 0.70201 0.1748 0.80385 0.0
C367 C 0.75434 0.17428 0.79355 0.0
H368 H 0.64254 0.1758 0.87089 0.0
C369 C 0.78712 0.16863 0.84402 0.0
H370 H 0.67596 0.17879 0.76554 0.0
C371 C 0.76805 0.16787 0.9042 0.0
C372 C 0.71588 0.17144 0.91467 0.0
H373 H 0.8276 0.16825 0.8373 0.0
H374 H 0.79422 0.16663 0.94269 0.0
C375 C 0.68288 0.17276 0.86398 0.0
C376 C 0.67451 0.70634 0.56055 0.0
C377 C 0.67633 0.75858 0.55058 0.0
H378 H 0.67345 0.64664 0.62707 0.0
C379 C 0.67283 0.79132 0.60129 0.0
H380 H 0.67682 0.68037 0.522 0.0
C381 C 0.67184 0.77202 0.6614 0.0
C382 C 0.67307 0.71975 0.67149 0.0
H383 H 0.67428 0.83172 0.59474 0.0
H384 H 0.67228 0.79799 0.70006 0.0
C385 C 0.67225 0.68706 0.62055 0.0
C386 C 0.70722 0.30876 0.40422 0.0
C387 C 0.7594 0.3051 0.41465 0.0
H388 H 0.64759 0.30829 0.3374 0.0
C389 C 0.79234 0.30363 0.36394 0.0
H390 H 0.68111 0.31012 0.44273 0.0
C391 C 0.77313 0.30149 0.30385 0.0
C392 C 0.72079 0.30203 0.29361 0.0
H393 H 0.83268 0.30053 0.37082 0.0
H394 H 0.79913 0.29738 0.26553 0.0
C395 C 0.68808 0.30787 0.34407 0.0
C396 C 0.30283 0.29149 0.62157 0.0
C397 C 0.30096 0.25877 0.67243 0.0
H398 H 0.30179 0.298 0.52282 0.0
C399 C 0.30406 0.20658 0.66256 0.0
H400 H 0.30035 0.33185 0.62801 0.0
C401 C 0.30593 0.18725 0.60256 0.0
C402 C 0.30347 0.21984 0.55159 0.0
H403 H 0.303 0.18062 0.70122 0.0
H404 H 0.30576 0.14681 0.59612 0.0
C405 C 0.30345 0.27213 0.56152 0.0
C406 C 0.20768 0.6687 0.31761 0.0
C407 C 0.25996 0.67094 0.30739 0.0
H408 H 0.14801 0.66962 0.38424 0.0
C409 C 0.29288 0.67016 0.35818 0.0
H410 H 0.18158 0.66901 0.27903 0.0
C411 C 0.27368 0.67153 0.41831 0.0
C412 C 0.22132 0.67246 0.42845 0.0
H413 H 0.33332 0.67207 0.35144 0.0
H414 H 0.29975 0.67397 0.4568 0.0
C415 C 0.1885 0.66883 0.37772 0.0
loop_
_geom_bond_atom_site_label_1
_geom_bond_atom_site_label_2
_geom_bond_distance
_geom_bond_site_symmetry_2
_ccdc_geom_bond_type
Sc0 O3 2.025 . S
Sc0 O10 2.105 . S
Sc0 O13 2.105 . S
Sc0 O16 2.105 . S
Sc0 O19 2.105 . S
Sc1 O3 2.025 . S
Sc1 O11 2.105 . S
Sc1 O15 2.105 . S
Sc1 O17 2.105 . S
Sc1 O21 2.105 . S
Sc2 O3 2.025 . S
Sc2 O12 2.105 . S
Sc2 O14 2.105 . S
Sc2 O18 2.105 . S
Sc2 O20 2.105 . S
O3 Sc0 2.025 . S
O3 Sc1 2.025 . S
O3 Sc2 2.025 . S
C4 O10 1.268 . S
C4 O20 1.268 . S
C5 O11 1.268 . S
C5 O19 1.268 . S
C6 O12 1.268 . S
C6 O21 1.268 . S
C7 O13 1.268 . S
C7 O17 1.268 . S
C8 O14 1.268 . S
C8 O16 1.268 . S
C9 O15 1.268 . S
C9 O18 1.268 . S
O10 Sc0 2.105 . S
O10 C4 1.268 . S
O11 Sc1 2.105 . S
O11 C5 1.268 . S
O12 Sc2 2.105 . S
O12 C6 1.268 . S
O13 Sc0 2.105 . S
O13 C7 1.268 . S
O14 Sc2 2.105 . S
O14 C8 1.268 . S
O15 Sc1 2.105 . S
O15 C9 1.268 . S
O16 Sc0 2.105 . S
O16 C8 1.268 . S
O17 Sc1 2.105 . S
O17 C7 1.268 . S
O18 Sc2 2.105 . S
O18 C9 1.268 . S
O19 Sc0 2.105 . S
O19 C5 1.268 . S
O20 Sc2 2.105 . S
O20 C4 1.268 . S
O21 Sc1 2.105 . S
O21 C6 1.268 . S
Sc22 O25 2.025 . S
Sc22 O32 2.105 . S
Sc22 O35 2.105 . S
Sc22 O38 2.105 . S
Sc22 O41 2.105 . S
Sc23 O25 2.025 . S
Sc23 O33 2.105 . S
Sc23 O37 2.105 . S
Sc23 O39 2.105 . S
Sc23 O43 2.105 . S
Sc24 O25 2.025 . S
Sc24 O34 2.105 . S
Sc24 O36 2.105 . S
Sc24 O40 2.105 . S
Sc24 O42 2.105 . S
O25 Sc22 2.025 . S
O25 Sc23 2.025 . S
O25 Sc24 2.025 . S
C26 O32 1.268 . S
C26 O42 1.268 . S
C27 O33 1.268 . S
C27 O41 1.268 . S
C28 O34 1.268 . S
C28 O43 1.268 . S
C29 O35 1.268 . S
C29 O39 1.268 . S
C30 O36 1.268 . S
C30 O38 1.268 . S
C31 O37 1.268 . S
C31 O40 1.268 . S
O32 Sc22 2.105 . S
O32 C26 1.268 . S
O33 Sc23 2.105 . S
O33 C27 1.268 . S
O34 Sc24 2.105 . S
O34 C28 1.268 . S
O35 Sc22 2.105 . S
O35 C29 1.268 . S
O36 Sc24 2.105 . S
O36 C30 1.268 . S
O37 Sc23 2.105 . S
O37 C31 1.268 . S
O38 Sc22 2.105 . S
O38 C30 1.268 . S
O39 Sc23 2.105 . S
O39 C29 1.268 . S
O40 Sc24 2.105 . S
O40 C31 1.268 . S
O41 Sc22 2.105 . S
O41 C27 1.268 . S
O42 Sc24 2.105 . S
O42 C26 1.268 . S
O43 Sc23 2.105 . S
O43 C28 1.268 . S
Sc44 O47 2.025 . S
Sc44 O54 2.105 . S
Sc44 O57 2.105 . S
Sc44 O60 2.105 . S
Sc44 O63 2.105 . S
Sc45 O47 2.025 . S
Sc45 O55 2.105 . S
Sc45 O59 2.105 . S
Sc45 O61 2.105 . S
Sc45 O65 2.105 . S
Sc46 O47 2.025 . S
Sc46 O56 2.105 . S
Sc46 O58 2.105 . S
Sc46 O62 2.105 . S
Sc46 O64 2.105 . S
O47 Sc44 2.025 . S
O47 Sc45 2.025 . S
O47 Sc46 2.025 . S
C48 O54 1.268 . S
C48 O64 1.268 . S
C49 O55 1.268 . S
C49 O63 1.268 . S
C50 O56 1.268 . S
C50 O65 1.268 . S
C51 O57 1.268 . S
C51 O61 1.268 . S
C52 O58 1.268 . S
C52 O60 1.268 . S
C53 O59 1.268 . S
C53 O62 1.268 . S
O54 Sc44 2.105 . S
O54 C48 1.268 . S
O55 Sc45 2.105 . S
O55 C49 1.268 . S
O56 Sc46 2.105 . S
O56 C50 1.268 . S
O57 Sc44 2.105 . S
O57 C51 1.268 . S
O58 Sc46 2.105 . S
O58 C52 1.268 . S
O59 Sc45 2.105 . S
O59 C53 1.268 . S
O60 Sc44 2.105 . S
O60 C52 1.268 . S
O61 Sc45 2.105 . S
O61 C51 1.268 . S
O62 Sc46 2.105 . S
O62 C53 1.268 . S
O63 Sc44 2.105 . S
O63 C49 1.268 . S
O64 Sc46 2.105 . S
O64 C48 1.268 . S
O65 Sc45 2.105 . S
O65 C50 1.268 . S
Sc66 O69 2.025 . S
Sc66 O76 2.105 . S
Sc66 O79 2.105 . S
Sc66 O82 2.105 . S
Sc66 O85 2.105 . S
Sc67 O69 2.025 . S
Sc67 O77 2.105 . S
Sc67 O81 2.105 . S
Sc67 O83 2.105 . S
Sc67 O87 2.105 . S
Sc68 O69 2.025 . S
Sc68 O78 2.105 . S
Sc68 O80 2.105 . S
Sc68 O84 2.105 . S
Sc68 O86 2.105 . S
O69 Sc66 2.025 . S
O69 Sc67 2.025 . S
O69 Sc68 2.025 . S
C70 O76 1.268 . S
C70 O86 1.268 . S
C71 O77 1.268 . S
C71 O85 1.268 . S
C72 O78 1.268 . S
C72 O87 1.268 . S
C73 O79 1.268 . S
C73 O83 1.268 . S
C74 O80 1.268 . S
C74 O82 1.268 . S
C75 O81 1.268 . S
C75 O84 1.268 . S
O76 Sc66 2.105 . S
O76 C70 1.268 . S
O77 Sc67 2.105 . S
O77 C71 1.268 . S
O78 Sc68 2.105 . S
O78 C72 1.268 . S
O79 Sc66 2.105 . S
O79 C73 1.268 . S
O80 Sc68 2.105 . S
O80 C74 1.268 . S
O81 Sc67 2.105 . S
O81 C75 1.268 . S
O82 Sc66 2.105 . S
O82 C74 1.268 . S
O83 Sc67 2.105 . S
O83 C73 1.268 . S
O84 Sc68 2.105 . S
O84 C75 1.268 . S
O85 Sc66 2.105 . S
O85 C71 1.268 . S
O86 Sc68 2.105 . S
O86 C70 1.268 . S
O87 Sc67 2.105 . S
O87 C72 1.268 . S
Sc88 O91 2.025 . S
Sc88 O98 2.105 . S
Sc88 O101 2.105 . S
Sc88 O104 2.105 . S
Sc88 O107 2.105 . S
Sc89 O91 2.025 . S
Sc89 O99 2.105 . S
Sc89 O103 2.105 . S
Sc89 O105 2.105 . S
Sc89 O109 2.105 . S
Sc90 O91 2.025 . S
Sc90 O100 2.105 . S
Sc90 O102 2.116 . S
Sc90 O106 2.105 . S
Sc90 O108 2.105 . S
O91 Sc88 2.025 . S
O91 Sc89 2.025 . S
O91 Sc90 2.025 . S
C92 O98 1.268 . S
C92 O108 1.268 . S
C93 O99 1.268 . S
C93 O107 1.268 . S
C94 O100 1.268 . S
C94 O109 1.268 . S
C95 O101 1.268 . S
C95 O105 1.268 . S
C96 O102 1.265 1_554 S
C96 O104 1.268 1_554 S
C97 O103 1.268 . S
C97 O106 1.268 . S
O98 Sc88 2.105 . S
O98 C92 1.268 . S
O99 Sc89 2.105 . S
O99 C93 1.268 . S
O100 Sc90 2.105 . S
O100 C94 1.268 . S
O101 Sc88 2.105 . S
O101 C95 1.268 . S
O102 Sc90 2.116 . S
O102 C96 1.265 1_556 S
O103 Sc89 2.105 . S
O103 C97 1.268 . S
O104 Sc88 2.105 . S
O104 C96 1.268 1_556 S
O105 Sc89 2.105 . S
O105 C95 1.268 . S
O106 Sc90 2.105 . S
O106 C97 1.268 . S
O107 Sc88 2.105 . S
O107 C93 1.268 . S
O108 Sc90 2.105 . S
O108 C92 1.268 . S
O109 Sc89 2.105 . S
O109 C94 1.268 . S
Sc110 O113 2.025 . S
Sc110 O120 2.105 . S
Sc110 O123 2.105 . S
Sc110 O126 2.105 . S
Sc110 O129 2.105 . S
Sc111 O113 2.025 . S
Sc111 O121 2.105 . S
Sc111 O125 2.105 . S
Sc111 O127 2.105 . S
Sc111 O131 2.116 . S
Sc112 O113 2.025 . S
Sc112 O122 2.105 . S
Sc112 O124 2.105 . S
Sc112 O128 2.105 . S
Sc112 O130 2.105 . S
O113 Sc110 2.025 . S
O113 Sc111 2.025 . S
O113 Sc112 2.025 . S
C114 O120 1.268 . S
C114 O130 1.268 . S
C115 O121 1.268 . S
C115 O129 1.268 . S
C116 O122 1.268 1_556 S
C116 O131 1.265 1_556 S
C117 O123 1.268 . S
C117 O127 1.268 . S
C118 O124 1.268 . S
C118 O126 1.268 . S
C119 O125 1.268 . S
C119 O128 1.268 . S
O120 Sc110 2.105 . S
O120 C114 1.268 . S
O121 Sc111 2.105 . S
O121 C115 1.268 . S
O122 Sc112 2.105 . S
O122 C116 1.268 1_554 S
O123 Sc110 2.105 . S
O123 C117 1.268 . S
O124 Sc112 2.105 . S
O124 C118 1.268 . S
O125 Sc111 2.105 . S
O125 C119 1.268 . S
O126 Sc110 2.105 . S
O126 C118 1.268 . S
O127 Sc111 2.105 . S
O127 C117 1.268 . S
O128 Sc112 2.105 . S
O128 C119 1.268 . S
O129 Sc110 2.105 . S
O129 C115 1.268 . S
O130 Sc112 2.105 . S
O130 C114 1.268 . S
O131 Sc111 2.116 . S
O131 C116 1.265 1_554 S
Sc132 O135 2.025 . S
Sc132 O142 2.116 . S
Sc132 O145 2.105 . S
Sc132 O148 2.105 . S
Sc132 O151 2.105 . S
Sc133 O135 2.025 . S
Sc133 O143 2.105 . S
Sc133 O147 2.105 . S
Sc133 O149 2.105 . S
Sc133 O153 2.105 . S
Sc134 O135 2.025 . S
Sc134 O144 2.105 . S
Sc134 O146 2.105 . S
Sc134 O150 2.105 . S
Sc134 O152 2.105 . S
O135 Sc132 2.025 . S
O135 Sc133 2.025 . S
O135 Sc134 2.025 . S
C136 O142 1.265 1_554 S
C136 O152 1.268 1_554 S
C137 O143 1.268 . S
C137 O151 1.268 . S
C138 O144 1.268 . S
C138 O153 1.268 . S
C139 O145 1.268 . S
C139 O149 1.268 . S
C140 O146 1.268 . S
C140 O148 1.268 . S
C141 O147 1.268 . S
C141 O150 1.268 . S
O142 Sc132 2.116 . S
O142 C136 1.265 1_556 S
O143 Sc133 2.105 . S
O143 C137 1.268 . S
O144 Sc134 2.105 . S
O144 C138 1.268 . S
O145 Sc132 2.105 . S
O145 C139 1.268 . S
O146 Sc134 2.105 . S
O146 C140 1.268 . S
O147 Sc133 2.105 . S
O147 C141 1.268 . S
O148 Sc132 2.105 . S
O148 C140 1.268 . S
O149 Sc133 2.105 . S
O149 C139 1.268 . S
O150 Sc134 2.105 . S
O150 C141 1.268 . S
O151 Sc132 2.105 . S
O151 C137 1.268 . S
O152 Sc134 2.105 . S
O152 C136 1.268 1_556 S
O153 Sc133 2.105 . S
O153 C138 1.268 . S
Sc154 O157 2.025 . S
Sc154 O164 2.105 . S
Sc154 O167 2.105 . S
Sc154 O170 2.105 . S
Sc154 O173 2.105 . S
Sc155 O157 2.025 . S
Sc155 O165 2.105 . S
Sc155 O169 2.105 . S
Sc155 O171 2.105 . S
Sc155 O175 2.116 . S
Sc156 O157 2.025 . S
Sc156 O166 2.105 . S
Sc156 O168 2.105 . S
Sc156 O172 2.105 . S
Sc156 O174 2.105 . S
O157 Sc154 2.025 . S
O157 Sc155 2.025 . S
O157 Sc156 2.025 . S
C158 O164 1.268 . S
C158 O174 1.268 . S
C159 O165 1.268 . S
C159 O173 1.268 . S
C160 O166 1.268 1_556 S
C160 O175 1.265 1_556 S
C161 O167 1.268 . S
C161 O171 1.268 . S
C162 O168 1.268 . S
C162 O170 1.268 . S
C163 O169 1.268 . S
C163 O172 1.268 . S
O164 Sc154 2.105 . S
O164 C158 1.268 . S
O165 Sc155 2.105 . S
O165 C159 1.268 . S
O166 Sc156 2.105 . S
O166 C160 1.268 1_554 S
O167 Sc154 2.105 . S
O167 C161 1.268 . S
O168 Sc156 2.105 . S
O168 C162 1.268 . S
O169 Sc155 2.105 . S
O169 C163 1.268 . S
O170 Sc154 2.105 . S
O170 C162 1.268 . S
O171 Sc155 2.105 . S
O171 C161 1.268 . S
O172 Sc156 2.105 . S
O172 C163 1.268 . S
O173 Sc154 2.105 . S
O173 C159 1.268 . S
O174 Sc156 2.105 . S
O174 C158 1.268 . S
O175 Sc155 2.116 . S
O175 C160 1.265 1_554 S
C176 C177 1.377 1_565 S
C176 H180 0.950 . S
C176 C185 1.390 . S
C177 C176 1.377 1_545 S
C177 C179 1.379 1_545 S
H178 C185 0.950 . S
C179 C177 1.379 1_565 S
C179 C181 1.390 . S
C179 H183 0.950 . S
H180 C176 0.950 . S
C181 C179 1.390 . S
C181 C182 1.387 . S
C181 H184 0.950 . S
C182 C181 1.387 . S
C182 C185 1.387 . S
H183 C179 0.950 . S
H184 C181 0.950 . S
C185 C176 1.390 . S
C185 H178 0.950 . S
C185 C182 1.387 . S
C186 C187 1.381 1_655 S
C186 H190 0.950 . S
C186 C195 1.390 . S
C187 C186 1.381 1_455 S
C187 C189 1.381 1_455 S
H188 C195 0.950 . S
C189 C187 1.381 1_655 S
C189 C191 1.390 . S
C189 H193 0.950 . S
H190 C186 0.950 . S
C191 C189 1.390 . S
C191 C192 1.387 . S
C191 H194 0.950 . S
C192 C191 1.387 . S
C192 C195 1.387 . S
H193 C189 0.950 . S
H194 C191 0.950 . S
C195 C186 1.390 . S
C195 H188 0.950 . S
C195 C192 1.387 . S
C196 C197 1.378 1_545 S
C196 H200 0.950 . S
C196 C205 1.390 . S
C197 C196 1.378 1_565 S
C197 C199 1.379 1_565 S
H198 C205 0.950 . S
C199 C197 1.379 1_545 S
C199 C201 1.390 . S
C199 H203 0.950 . S
H200 C196 0.950 . S
C201 C199 1.390 . S
C201 C202 1.387 . S
C201 H204 0.950 . S
C202 C201 1.387 . S
C202 C205 1.387 . S
H203 C199 0.950 . S
H204 C201 0.950 . S
C205 C196 1.390 . S
C205 H198 0.950 . S
C205 C202 1.387 . S
C206 C207 1.387 . S
C206 H210 0.950 . S
C206 C215 1.390 . S
C207 C206 1.387 . S
C207 C209 1.387 . S
H208 C215 0.950 . S
C209 C207 1.387 . S
C209 C211 1.390 . S
C209 H213 0.950 . S
H210 C206 0.950 . S
C211 C209 1.390 . S
C211 C212 1.380 1_455 S
C211 H214 0.950 . S
C212 C211 1.380 1_655 S
C212 C215 1.381 1_655 S
H213 C209 0.950 . S
H214 C211 0.950 . S
C215 C206 1.390 . S
C215 H208 0.950 . S
C215 C212 1.381 1_455 S
C216 C217 1.387 . S
C216 H220 0.950 . S
C216 C225 1.390 1_554 S
C217 C216 1.387 . S
C217 C219 1.387 . S
H218 C225 0.950 . S
C219 C217 1.387 . S
C219 C221 1.390 . S
C219 H223 0.950 . S
H220 C216 0.950 . S
C221 C219 1.390 . S
C221 C222 1.387 1_554 S
C221 H224 0.950 . S
C222 C221 1.387 1_556 S
C222 C225 1.387 . S
H223 C219 0.950 . S
H224 C221 0.950 . S
C225 C216 1.390 1_556 S
C225 H218 0.950 . S
C225 C222 1.387 . S
C226 C227 1.387 . S
C226 H230 0.950 . S
C226 C235 1.390 . S
C227 C226 1.387 . S
C227 C229 1.387 . S
H228 C235 0.950 . S
C229 C227 1.387 . S
C229 C231 1.390 . S
C229 H233 0.950 . S
H230 C226 0.950 . S
C231 C229 1.390 . S
C231 C232 1.387 1_556 S
C231 H234 0.950 1_556 S
C232 C231 1.387 1_554 S
C232 C235 1.387 1_554 S
H233 C229 0.950 . S
H234 C231 0.950 1_554 S
C235 C226 1.390 . S
C235 H228 0.950 . S
C235 C232 1.387 1_556 S
C236 C237 1.387 . S
C236 H240 0.950 . S
C236 C245 1.390 . S
C237 C236 1.387 . S
C237 C239 1.387 . S
H238 C245 0.950 1_556 S
C239 C237 1.387 . S
C239 C241 1.390 . S
C239 H243 0.950 . S
H240 C236 0.950 . S
C241 C239 1.390 . S
C241 C242 1.387 1_554 S
C241 H244 0.950 . S
C242 C241 1.387 1_556 S
C242 C245 1.387 1_556 S
H243 C239 0.950 . S
H244 C241 0.950 . S
C245 C236 1.390 . S
C245 H238 0.950 1_554 S
C245 C242 1.387 1_554 S
C246 C247 1.387 1_556 S
C246 H250 0.950 . S
C246 C255 1.390 . S
C247 C246 1.387 1_554 S
C247 C249 1.387 1_554 S
H248 C255 0.950 . S
C249 C247 1.387 1_556 S
C249 C251 1.390 . S
C249 H253 0.950 . S
H250 C246 0.950 . S
C251 C249 1.390 . S
C251 C252 1.387 . S
C251 H254 0.950 . S
C252 C251 1.387 . S
C252 C255 1.387 . S
H253 C249 0.950 . S
H254 C251 0.950 . S
C255 C246 1.390 . S
C255 H248 0.950 . S
C255 C252 1.387 . S
C256 C257 1.387 . S
C256 H260 0.950 . S
C256 C265 1.390 . S
C257 C256 1.387 . S
C257 C259 1.387 . S
H258 C265 0.950 . S
C259 C257 1.387 . S
C259 C261 1.390 . S
C259 H263 0.950 . S
H260 C256 0.950 . S
C261 C259 1.390 . S
C261 C262 1.387 . S
C261 H264 0.950 . S
C262 C261 1.387 . S
C262 C265 1.387 . S
H263 C259 0.950 . S
H264 C261 0.950 . S
C265 C256 1.390 . S
C265 H258 0.950 . S
C265 C262 1.387 . S
C266 C267 1.387 . S
C266 H270 0.950 . S
C266 C275 1.390 . S
C267 C266 1.387 . S
C267 C269 1.387 . S
H268 C275 0.950 . S
C269 C267 1.387 . S
C269 C271 1.390 . S
C269 H273 0.950 . S
H270 C266 0.950 . S
C271 C269 1.390 . S
C271 C272 1.387 . S
C271 H274 0.950 . S
C272 C271 1.387 . S
C272 C275 1.387 . S
H273 C269 0.950 . S
H274 C271 0.950 . S
C275 C266 1.390 . S
C275 H268 0.950 . S
C275 C272 1.387 . S
C276 C277 1.387 . S
C276 H280 0.950 . S
C276 C285 1.390 . S
C277 C276 1.387 . S
C277 C279 1.387 . S
H278 C285 0.950 . S
C279 C277 1.387 . S
C279 C281 1.390 . S
C279 H283 0.950 . S
H280 C276 0.950 . S
C281 C279 1.390 . S
C281 C282 1.387 . S
C281 H284 0.950 . S
C282 C281 1.387 . S
C282 C285 1.387 . S
H283 C279 0.950 . S
H284 C281 0.950 . S
C285 C276 1.390 . S
C285 H278 0.950 . S
C285 C282 1.387 . S
C286 C287 1.387 . S
C286 H290 0.950 . S
C286 C295 1.390 . S
C287 C286 1.387 . S
C287 C289 1.387 . S
H288 C295 0.950 . S
C289 C287 1.387 . S
C289 C291 1.390 . S
C289 H293 0.950 . S
H290 C286 0.950 . S
C291 C289 1.390 . S
C291 C292 1.387 . S
C291 H294 0.950 . S
C292 C291 1.387 . S
C292 C295 1.387 . S
H293 C289 0.950 . S
H294 C291 0.950 . S
C295 C286 1.390 . S
C295 H288 0.950 . S
C295 C292 1.387 . S
C296 C297 1.387 . S
C296 H300 0.950 . S
C296 C305 1.390 . S
C297 C296 1.387 . S
C297 C299 1.387 . S
H298 C305 0.961 . S
C299 C297 1.387 . S
C299 C301 1.390 . S
C299 H303 0.950 . S
H300 C296 0.950 . S
C301 C299 1.390 . S
C301 C302 1.377 1_545 S
C301 H304 0.950 . S
C302 C301 1.377 1_565 S
C302 C305 1.379 1_565 S
H303 C299 0.950 . S
H304 C301 0.950 . S
C305 C296 1.390 . S
C305 H298 0.961 . S
C305 C302 1.379 1_545 S
C306 C307 1.387 . S
C306 H310 0.950 . S
C306 C315 1.390 . S
C307 C306 1.387 . S
C307 C309 1.387 . S
H308 C315 0.952 . S
C309 C307 1.387 . S
C309 C311 1.390 . S
C309 H313 0.950 . S
H310 C306 0.950 . S
C311 C309 1.390 . S
C311 C312 1.379 1_455 S
C311 H314 0.950 . S
C312 C311 1.379 1_655 S
C312 C315 1.382 1_655 S
H313 C309 0.950 . S
H314 C311 0.950 . S
C315 C306 1.390 . S
C315 H308 0.952 . S
C315 C312 1.382 1_455 S
C316 C317 1.387 . S
C316 H320 0.950 . S
C316 C325 1.390 . S
C317 C316 1.387 . S
C317 C319 1.387 . S
H318 C325 0.950 1_545 S
C319 C317 1.387 . S
C319 C321 1.390 . S
C319 H323 0.950 . S
H320 C316 0.950 . S
C321 C319 1.390 . S
C321 C322 1.371 1_565 S
C321 H324 0.950 . S
C322 C321 1.371 1_545 S
C322 C325 1.386 1_545 S
H323 C319 0.950 . S
H324 C321 0.950 . S
C325 C316 1.390 . S
C325 H318 0.950 1_565 S
C325 C322 1.386 1_565 S
C326 C327 1.381 1_655 S
C326 H330 0.950 . S
C326 C335 1.390 . S
C327 C326 1.381 1_455 S
C327 C329 1.381 1_455 S
H328 C335 0.950 . S
C329 C327 1.381 1_655 S
C329 C331 1.390 . S
C329 H333 0.950 . S
H330 C326 0.950 . S
C331 C329 1.390 . S
C331 C332 1.387 . S
C331 H334 0.950 . S
C332 C331 1.387 . S
C332 C335 1.387 . S
H333 C329 0.950 . S
H334 C331 0.950 . S
C335 C326 1.390 . S
C335 H328 0.950 . S
C335 C332 1.387 . S
C336 C337 1.387 . S
C336 H340 0.950 . S
C336 C345 1.390 . S
C337 C336 1.387 . S
C337 C339 1.387 . S
H338 C345 0.950 . S
C339 C337 1.387 . S
C339 C341 1.390 . S
C339 H343 0.950 . S
H340 C336 0.950 . S
C341 C339 1.390 . S
C341 C342 1.387 . S
C341 H344 0.950 . S
C342 C341 1.387 . S
C342 C345 1.387 . S
H343 C339 0.950 . S
H344 C341 0.950 . S
C345 C336 1.390 . S
C345 H338 0.950 . S
C345 C342 1.387 . S
C346 C347 1.387 . S
C346 H350 0.950 . S
C346 C355 1.390 . S
C347 C346 1.387 . S
C347 C349 1.387 . S
H348 C355 0.950 . S
C349 C347 1.387 . S
C349 C351 1.390 . S
C349 H353 0.950 . S
H350 C346 0.950 . S
C351 C349 1.390 . S
C351 C352 1.387 . S
C351 H354 0.950 . S
C352 C351 1.387 . S
C352 C355 1.387 . S
H353 C349 0.950 . S
H354 C351 0.950 . S
C355 C346 1.390 . S
C355 H348 0.950 . S
C355 C352 1.387 . S
C356 C357 1.387 . S
C356 H360 0.950 . S
C356 C365 1.390 . S
C357 C356 1.387 . S
C357 C359 1.387 . S
H358 C365 0.950 . S
C359 C357 1.387 . S
C359 C361 1.390 . S
C359 H363 0.950 . S
H360 C356 0.950 . S
C361 C359 1.390 . S
C361 C362 1.387 . S
C361 H364 0.950 . S
C362 C361 1.387 . S
C362 C365 1.387 . S
H363 C359 0.950 . S
H364 C361 0.950 . S
C365 C356 1.390 . S
C365 H358 0.950 . S
C365 C362 1.387 . S
C366 C367 1.387 . S
C366 H370 0.950 . S
C366 C375 1.390 . S
C367 C366 1.387 . S
C367 C369 1.387 . S
H368 C375 0.950 . S
C369 C367 1.387 . S
C369 C371 1.390 . S
C369 H373 0.950 . S
H370 C366 0.950 . S
C371 C369 1.390 . S
C371 C372 1.387 . S
C371 H374 0.950 . S
C372 C371 1.387 . S
C372 C375 1.387 . S
H373 C369 0.950 . S
H374 C371 0.950 . S
C375 C366 1.390 . S
C375 H368 0.950 . S
C375 C372 1.387 . S
C376 C377 1.387 . S
C376 H380 0.950 . S
C376 C385 1.390 . S
C377 C376 1.387 . S
C377 C379 1.387 . S
H378 C385 0.950 . S
C379 C377 1.387 . S
C379 C381 1.390 . S
C379 H383 0.950 . S
H380 C376 0.950 . S
C381 C379 1.390 . S
C381 C382 1.387 . S
C381 H384 0.950 . S
C382 C381 1.387 . S
C382 C385 1.387 . S
H383 C379 0.950 . S
H384 C381 0.950 . S
C385 C376 1.390 . S
C385 H378 0.950 . S
C385 C382 1.387 . S
C386 C387 1.387 . S
C386 H390 0.950 . S
C386 C395 1.390 . S
C387 C386 1.387 . S
C387 C389 1.387 . S
H388 C395 0.950 . S
C389 C387 1.387 . S
C389 C391 1.390 . S
C389 H393 0.950 . S
H390 C386 0.950 . S
C391 C389 1.390 . S
C391 C392 1.387 . S
C391 H394 0.950 . S
C392 C391 1.387 . S
C392 C395 1.387 . S
H393 C389 0.950 . S
H394 C391 0.950 . S
C395 C386 1.390 . S
C395 H388 0.950 . S
C395 C392 1.387 . S
C396 C397 1.387 . S
C396 H400 0.950 . S
C396 C405 1.390 . S
C397 C396 1.387 . S
C397 C399 1.387 . S
H398 C405 0.950 . S
C399 C397 1.387 . S
C399 C401 1.390 . S
C399 H403 0.950 . S
H400 C396 0.950 . S
C401 C399 1.390 . S
C401 C402 1.387 . S
C401 H404 0.950 . S
C402 C401 1.387 . S
C402 C405 1.387 . S
H403 C399 0.950 . S
H404 C401 0.950 . S
C405 C396 1.390 . S
C405 H398 0.950 . S
C405 C402 1.387 . S
C406 C407 1.387 . S
C406 H410 0.950 . S
C406 C415 1.390 . S
C407 C406 1.387 . S
C407 C409 1.387 . S
H408 C415 0.950 . S
C409 C407 1.387 . S
C409 C411 1.390 . S
C409 H413 0.950 . S
H410 C406 0.950 . S
C411 C409 1.390 . S
C411 C412 1.387 . S
C411 H414 0.950 . S
C412 C411 1.387 . S
C412 C415 1.387 . S
H413 C409 0.950 . S
H414 C411 0.950 . S
C415 C406 1.390 . S
C415 H408 0.950 . S
C415 C412 1.387 . S
C177 C7 1.281 . S
C182 C119 1.317 . S
C187 C29 1.273 . S
C192 C140 1.316 . S
C197 C50 1.280 . S
C202 C163 1.317 . S
C207 C92 1.316 . S
C212 C73 1.273 . S
C217 C114 1.317 . S
C222 C97 1.263 . S
C227 C138 1.317 . S
C232 C115 1.265 . S
C237 C158 1.316 . S
C242 C137 1.262 . S
C247 C159 1.265 . S
C252 C95 1.317 . S
C257 C139 1.266 . S
C262 C75 1.317 . S
C267 C161 1.262 . S
C272 C8 1.316 . S
C277 C31 1.317 . S
C282 C94 1.265 . S
C287 C48 1.317 . S
C292 C117 1.265 . S
C297 C70 1.317 . S
C302 C53 1.280 . S
C307 C6 1.316 . S
C312 C71 1.274 . S
C317 C26 1.316 . S
C322 C5 1.278 . S
C327 C27 1.273 . S
C332 C51 1.316 . S
C337 C96 1.492 . S
C342 C9 1.492 . S
C347 C116 1.495 . S
C352 C30 1.495 . S
C357 C49 1.495 . S
C362 C136 1.495 . S
C367 C74 1.492 . S
C372 C160 1.492 . S
C377 C52 1.495 . S
C382 C141 1.495 . S
C387 C72 1.492 . S
C392 C162 1.492 . S
C397 C93 1.495 . S
C402 C4 1.495 . S
C407 C118 1.492 . S
C412 C28 1.492 . S
