# Generated by pormake.
# Topology wkj, (6)-cn, num edge types: 1
# Building blocks:
#     Node 0, Type 0, BuildingBlock: VOLQOD_clean_sbu_1, # of connection points: 6
#     Node 1, Type 0, BuildingBlock: VOLQOD_clean_sbu_1, # of connection points: 6
#     Node 2, Type 0, BuildingBlock: VOLQOD_clean_sbu_1, # of connection points: 6
#     Node 3, Type 0, BuildingBlock: VOLQOD_clean_sbu_1, # of connection points: 6
#     Node 4, Type 0, BuildingBlock: VOLQOD_clean_sbu_1, # of connection points: 6
#     Node 5, Type 0, BuildingBlock: VOLQOD_clean_sbu_1, # of connection points: 6
#     Node 6, Type 0, BuildingBlock: VOLQOD_clean_sbu_1, # of connection points: 6
#     Node 7, Type 0, BuildingBlock: VOLQOD_clean_sbu_1, # of connection points: 6
#     Node 8, Type 0, BuildingBlock: VOLQOD_clean_sbu_1, # of connection points: 6
#     Node 9, Type 0, BuildingBlock: VOLQOD_clean_sbu_1, # of connection points: 6
#     Node 10, Type 0, BuildingBlock: VOLQOD_clean_sbu_1, # of connection points: 6
#     Node 11, Type 0, BuildingBlock: VOLQOD_clean_sbu_1, # of connection points: 6
#     Edge 12, Type (0, 0), BuildingBlock: EZIPEK_clean_linker_0, # of connection points: 2
#     Edge 13, Type (0, 0), BuildingBlock: EZIPEK_clean_linker_0, # of connection points: 2
#     Edge 14, Type (0, 0), BuildingBlock: EZIPEK_clean_linker_0, # of connection points: 2
#     Edge 15, Type (0, 0), BuildingBlock: EZIPEK_clean_linker_0, # of connection points: 2
#     Edge 16, Type (0, 0), BuildingBlock: EZIPEK_clean_linker_0, # of connection points: 2
#     Edge 17, Type (0, 0), BuildingBlock: EZIPEK_clean_linker_0, # of connection points: 2
#     Edge 18, Type (0, 0), BuildingBlock: EZIPEK_clean_linker_0, # of connection points: 2
#     Edge 19, Type (0, 0), BuildingBlock: EZIPEK_clean_linker_0, # of connection points: 2
#     Edge 20, Type (0, 0), BuildingBlock: EZIPEK_clean_linker_0, # of connection points: 2
#     Edge 21, Type (0, 0), BuildingBlock: EZIPEK_clean_linker_0, # of connection points: 2
#     Edge 22, Type (0, 0), BuildingBlock: EZIPEK_clean_linker_0, # of connection points: 2
#     Edge 23, Type (0, 0), BuildingBlock: EZIPEK_clean_linker_0, # of connection points: 2
#     Edge 24, Type (0, 0), BuildingBlock: EZIPEK_clean_linker_0, # of connection points: 2
#     Edge 25, Type (0, 0), BuildingBlock: EZIPEK_clean_linker_0, # of connection points: 2
#     Edge 26, Type (0, 0), BuildingBlock: EZIPEK_clean_linker_0, # of connection points: 2
#     Edge 27, Type (0, 0), BuildingBlock: EZIPEK_clean_linker_0, # of connection points: 2
#     Edge 28, Type (0, 0), BuildingBlock: EZIPEK_clean_linker_0, # of connection points: 2
#     Edge 29, Type (0, 0), BuildingBlock: EZIPEK_clean_linker_0, # of connection points: 2
#     Edge 30, Type (0, 0), BuildingBlock: EZIPEK_clean_linker_0, # of connection points: 2
#     Edge 31, Type (0, 0), BuildingBlock: EZIPEK_clean_linker_0, # of connection points: 2
#     Edge 32, Type (0, 0), BuildingBlock: EZIPEK_clean_linker_0, # of connection points: 2
#     Edge 33, Type (0, 0), BuildingBlock: EZIPEK_clean_linker_0, # of connection points: 2
#     Edge 34, Type (0, 0), BuildingBlock: EZIPEK_clean_linker_0, # of connection points: 2
#     Edge 35, Type (0, 0), BuildingBlock: EZIPEK_clean_linker_0, # of connection points: 2
#     Edge 36, Type (0, 0), BuildingBlock: EZIPEK_clean_linker_0, # of connection points: 2
#     Edge 37, Type (0, 0), BuildingBlock: EZIPEK_clean_linker_0, # of connection points: 2
#     Edge 38, Type (0, 0), BuildingBlock: EZIPEK_clean_linker_0, # of connection points: 2
#     Edge 39, Type (0, 0), BuildingBlock: EZIPEK_clean_linker_0, # of connection points: 2
#     Edge 40, Type (0, 0), BuildingBlock: EZIPEK_clean_linker_0, # of connection points: 2
#     Edge 41, Type (0, 0), BuildingBlock: EZIPEK_clean_linker_0, # of connection points: 2
#     Edge 42, Type (0, 0), BuildingBlock: EZIPEK_clean_linker_0, # of connection points: 2
#     Edge 43, Type (0, 0), BuildingBlock: EZIPEK_clean_linker_0, # of connection points: 2
#     Edge 44, Type (0, 0), BuildingBlock: EZIPEK_clean_linker_0, # of connection points: 2
#     Edge 45, Type (0, 0), BuildingBlock: EZIPEK_clean_linker_0, # of connection points: 2
#     Edge 46, Type (0, 0), BuildingBlock: EZIPEK_clean_linker_0, # of connection points: 2
#     Edge 47, Type (0, 0), BuildingBlock: EZIPEK_clean_linker_0, # of connection points: 2
# Relax obj value: 0.767
# Max RMSD: 0.282
# Mean RMSD: 0.282
data_MOF--net-wkj--node1-VOLQOD_clean_sbu_1--edge1-EZIPEK_clean_linker_0
_symmetry_space_group_name_H-M    P1
_symmetry_Int_Tables_number       1
_symmetry_cell_setting            triclinic
loop_
_symmetry_equiv_pos_as_xyz
'x, y, z'
_cell_length_a     43.7836
_cell_length_b     43.548245
_cell_length_c     18.335569
_cell_angle_alpha  89.911837
_cell_angle_beta   90.079296
_cell_angle_gamma 120.25521
loop_
_atom_site_label
_atom_site_type_symbol
_atom_site_fract_x
_atom_site_fract_y
_atom_site_fract_z
_atom_type_partial_charge
O0 O 0.42663 0.05232 0.31018 0.0
Zn1 Zn 0.46273 0.0737 0.22929 0.0
O2 O 0.49377 0.12425 0.24249 0.0
Zn3 Zn 0.54373 0.13955 0.24267 0.0
Zn4 Zn 0.48373 0.13813 0.33545 0.0
Zn5 Zn 0.48963 0.14806 0.15885 0.0
O6 O 0.57363 0.17061 0.16189 0.0
O7 O 0.52999 0.16132 0.08847 0.0
O8 O 0.49241 0.05103 0.22655 0.0
O9 O 0.54653 0.09833 0.21898 0.0
O10 O 0.56613 0.15088 0.34077 0.0
O11 O 0.52076 0.14205 0.40987 0.0
O12 O 0.48004 0.18228 0.31655 0.0
O13 O 0.43531 0.06309 0.13448 0.0
O14 O 0.4864 0.18824 0.19538 0.0
O15 O 0.44546 0.1164 0.10067 0.0
C16 C 0.41761 0.06574 0.36167 0.0
C17 C 0.56136 0.16734 0.09777 0.0
C18 C 0.55178 0.14642 0.40297 0.0
C19 C 0.5257 0.06523 0.21849 0.0
C20 C 0.48157 0.19847 0.25708 0.0
C21 C 0.42938 0.08281 0.09229 0.0
O22 O 0.43665 0.09881 0.37611 0.0
O23 O 0.356 0.39439 0.64851 0.0
Zn24 Zn 0.35372 0.41518 0.55048 0.0
O25 O 0.33003 0.44107 0.56122 0.0
Zn26 Zn 0.35938 0.49156 0.55511 0.0
Zn27 Zn 0.30642 0.4299 0.65311 0.0
Zn28 Zn 0.30459 0.43502 0.47462 0.0
O29 O 0.34049 0.5173 0.49815 0.0
O30 O 0.32845 0.47926 0.40989 0.0
O31 O 0.40018 0.44937 0.50963 0.0
O32 O 0.39999 0.49995 0.49729 0.0
O33 O 0.3766 0.5128 0.6521 0.0
O34 O 0.33722 0.47048 0.72504 0.0
O35 O 0.25712 0.42219 0.63154 0.0
O36 O 0.33069 0.37674 0.47327 0.0
O37 O 0.26027 0.42743 0.50935 0.0
O38 O 0.29467 0.39146 0.41961 0.0
C39 C 0.33221 0.38111 0.69794 0.0
C40 C 0.33852 0.511 0.43028 0.0
C41 C 0.36495 0.5009 0.71545 0.0
C42 C 0.41344 0.48076 0.48402 0.0
C43 C 0.24385 0.42217 0.56914 0.0
C44 C 0.30794 0.37151 0.42402 0.0
O45 O 0.30598 0.38639 0.69687 0.0
O46 O 0.92618 0.38966 0.01833 0.0
Zn47 Zn 0.90418 0.38605 0.9202 0.0
O48 O 0.8558 0.35081 0.91825 0.0
Zn49 Zn 0.82278 0.36819 0.91034 0.0
Zn50 Zn 0.84579 0.32279 1.00509 0.0
Zn51 Zn 0.84739 0.32794 0.82676 0.0
O52 O 0.78824 0.34986 0.82672 0.0
O53 O 0.8281 0.34941 0.75557 0.0
O54 O 0.90568 0.43011 0.89215 0.0
O55 O 0.84994 0.41801 0.88256 0.0
O56 O 0.80265 0.36859 1.00609 0.0
O57 O 0.82099 0.33977 0.07607 0.0
O58 O 0.8172 0.27105 0.96978 0.0
O59 O 0.93219 0.377 0.84495 0.0
O60 O 0.81674 0.27777 0.84794 0.0
O61 O 0.89046 0.3336 0.78024 0.0
C62 C 0.91958 0.36542 0.06509 0.0
C63 C 0.80264 0.35518 0.76425 0.0
C64 C 0.80583 0.35819 0.06894 0.0
C65 C 0.88278 0.43897 0.87676 0.0
C66 C 0.80829 0.2585 0.90494 0.0
C67 C 0.9229 0.35467 0.79297 0.0
O68 O 0.8915 0.33487 0.06066 0.0
O69 O 0.57749 0.90158 0.3328 0.0
Zn70 Zn 0.55054 0.89318 0.24163 0.0
O71 O 0.49952 0.86762 0.25173 0.0
Zn72 Zn 0.47664 0.89352 0.2625 0.0
Zn73 Zn 0.49252 0.83998 0.3358 0.0
Zn74 Zn 0.49032 0.84898 0.15597 0.0
O75 O 0.43908 0.88025 0.18476 0.0
O76 O 0.44437 0.84209 0.11327 0.0
O77 O 0.56245 0.94091 0.21312 0.0
O78 O 0.51445 0.94332 0.24631 0.0
O79 O 0.45214 0.88304 0.35969 0.0
O80 O 0.44694 0.83068 0.38776 0.0
O81 O 0.49575 0.79855 0.29239 0.0
O82 O 0.56964 0.87721 0.16046 0.0
O83 O 0.49135 0.80508 0.17106 0.0
O84 O 0.53216 0.88244 0.09004 0.0
C85 C 0.56505 0.89428 0.39678 0.0
C86 C 0.42844 0.85867 0.13115 0.0
C87 C 0.43841 0.85455 0.39758 0.0
C88 C 0.54616 0.95763 0.2226 0.0
C89 C 0.49511 0.78912 0.22569 0.0
C90 C 0.56328 0.88786 0.10112 0.0
O91 O 0.53246 0.8716 0.40766 0.0
O92 O 0.62614 0.57572 0.68299 0.0
Zn93 Zn 0.61331 0.54883 0.592 0.0
O94 O 0.60144 0.5009 0.6052 0.0
Zn95 Zn 0.55438 0.46988 0.62951 0.0
Zn96 Zn 0.63241 0.50304 0.67967 0.0
Zn97 Zn 0.60664 0.49144 0.50646 0.0
O98 O 0.53329 0.42529 0.56665 0.0
O99 O 0.56998 0.44117 0.47345 0.0
O100 O 0.57024 0.54535 0.55551 0.0
O101 O 0.52854 0.49582 0.60858 0.0
O102 O 0.55221 0.45382 0.73158 0.0
O103 O 0.60532 0.45857 0.74372 0.0
O104 O 0.67532 0.51004 0.62112 0.0
O105 O 0.64757 0.57371 0.51146 0.0
O106 O 0.65393 0.49871 0.50629 0.0
O107 O 0.60906 0.53074 0.44064 0.0
C108 C 0.63799 0.57107 0.74256 0.0
C109 C 0.54203 0.41779 0.50594 0.0
C110 C 0.57325 0.44622 0.76443 0.0
C111 C 0.53819 0.52321 0.5684 0.0
C112 C 0.67873 0.50734 0.55216 0.0
C113 C 0.63136 0.56367 0.45095 0.0
O114 O 0.64285 0.54462 0.74932 0.0
O115 O 0.01956 0.65171 0.98262 0.0
Zn116 Zn 0.03813 0.64106 0.89625 0.0
O117 O 0.07956 0.6378 0.9125 0.0
Zn118 Zn 0.07011 0.59079 0.93079 0.0
Zn119 Zn 0.10104 0.66738 0.9971 0.0
Zn120 Zn 0.10169 0.65236 0.81796 0.0
O121 O 0.09609 0.5765 0.86041 0.0
O122 O 0.1199 0.62021 0.77949 0.0
O123 O 0.00073 0.59435 0.87271 0.0
O124 O 0.01799 0.55783 0.91795 0.0
O125 O 0.08764 0.58755 0.02901 0.0
O126 O 0.12281 0.64418 0.06156 0.0
O127 O 0.13672 0.71543 0.9513 0.0
O128 O 0.0398 0.67101 0.81348 0.0
O129 O 0.13826 0.70203 0.83299 0.0
O130 O 0.06665 0.65132 0.74289 0.0
C131 C 0.0312 0.66251 0.046 0.0
C132 C 0.11408 0.59005 0.80278 0.0
C133 C 0.1113 0.6109 0.07033 0.0
C134 C -0.00516 0.56372 0.8894 0.0
C135 C 0.14825 0.72403 0.88569 0.0
C136 C 0.04359 0.66069 0.7514 0.0
O137 O 0.06258 0.66958 0.06193 0.0
O138 O 0.93925 0.6101 0.33135 0.0
Zn139 Zn 0.92405 0.58458 0.42363 0.0
O140 O 0.88205 0.539 0.41735 0.0
Zn141 Zn 0.89024 0.49918 0.41928 0.0
Zn142 Zn 0.85968 0.53983 0.32686 0.0
Zn143 Zn 0.85856 0.53844 0.50633 0.0
O144 O 0.86402 0.46544 0.50496 0.0
O145 O 0.83626 0.49065 0.5564 0.0
O146 O 0.96193 0.57671 0.44826 0.0
O147 O 0.9424 0.519 0.4303 0.0
O148 O 0.872 0.47001 0.32657 0.0
O149 O 0.83899 0.49066 0.28012 0.0
O150 O 0.81885 0.54675 0.3557 0.0
O151 O 0.92511 0.61688 0.50054 0.0
O152 O 0.82096 0.54702 0.47787 0.0
O153 O 0.89258 0.57485 0.57869 0.0
C154 C 0.9264 0.60609 0.26804 0.0
C155 C 0.84268 0.46525 0.55273 0.0
C156 C 0.84842 0.46724 0.28176 0.0
C157 C 0.96684 0.55058 0.4448 0.0
C158 C 0.80709 0.54875 0.41826 0.0
C159 C 0.91916 0.60534 0.5654 0.0
O160 O 0.89569 0.5793 0.25524 0.0
O161 O 0.37203 0.98072 0.64028 0.0
Zn162 Zn 0.37352 0.96356 0.74112 0.0
O163 O 0.33564 0.9165 0.75515 0.0
Zn164 Zn 0.35037 0.88253 0.77639 0.0
Zn165 Zn 0.30947 0.90033 0.66678 0.0
Zn166 Zn 0.31066 0.91419 0.8422 0.0
O167 O 0.32994 0.85189 0.86451 0.0
O168 O 0.32678 0.89402 0.92394 0.0
O169 O 0.41867 0.96476 0.76186 0.0
O170 O 0.39756 0.91116 0.8115 0.0
O171 O 0.35599 0.859 0.68801 0.0
O172 O 0.33205 0.87758 0.60496 0.0
O173 O 0.26017 0.86414 0.70365 0.0
O174 O 0.37055 -0.00398 0.8152 0.0
O175 O 0.26093 0.87953 0.82114 0.0
O176 O 0.32188 0.9626 0.87854 0.0
C177 C 0.34679 0.97123 0.59479 0.0
C178 C 0.33309 0.8685 0.92363 0.0
C179 C 0.34948 0.86231 0.62179 0.0
C180 C 0.42261 0.94211 0.79837 0.0
C181 C 0.24577 0.85918 0.76686 0.0
C182 C 0.34878 -0.00709 0.86483 0.0
O183 O 0.31691 0.94269 0.6039 0.0
O184 O 0.37547 0.3445 1.0011 0.0
Zn185 Zn 0.38136 0.33659 0.10654 0.0
O186 O 0.40938 0.31499 0.11702 0.0
Zn187 Zn 0.45732 0.34737 0.14337 0.0
Zn188 Zn 0.40879 0.29472 0.02124 0.0
Zn189 Zn 0.38971 0.28314 0.19839 0.0
O190 O 0.47675 0.33414 0.22795 0.0
O191 O 0.42612 0.29627 0.28127 0.0
O192 O 0.40399 0.38058 0.16531 0.0
O193 O 0.45639 0.38682 0.18763 0.0
O194 O 0.48978 0.36497 0.05856 0.0
O195 O 0.45572 0.329 0.9701 0.0
O196 O 0.40583 0.24698 0.04655 0.0
O197 O 0.33369 0.30874 0.1534 0.0
O198 O 0.37259 0.23939 0.14151 0.0
O199 O 0.34893 0.2854 0.24274 0.0
C200 C 0.36734 0.32277 0.94814 0.0
C201 C 0.45936 0.31828 0.28479 0.0
C202 C 0.48481 0.35553 0.99203 0.0
C203 C 0.4335 0.3958 0.19849 0.0
C204 C 0.39613 0.23502 0.11133 0.0
C205 C 0.32754 0.29407 0.21592 0.0
O206 O 0.37132 0.2956 0.9535 0.0
O207 O 0.01951 0.43987 0.34203 0.0
Zn208 Zn 0.04494 0.46418 0.43652 0.0
O209 O 0.09151 0.47134 0.43448 0.0
Zn210 Zn 0.12916 0.52093 0.4447 0.0
Zn211 Zn 0.1 0.45545 0.3437 0.0
Zn212 Zn 0.09618 0.44517 0.51241 0.0
O213 O 0.1607 0.52879 0.53034 0.0
O214 O 0.12777 0.47898 0.59128 0.0
O215 O 0.05125 0.5126 0.45028 0.0
O216 O 0.10864 0.54983 0.47174 0.0
O217 O 0.15151 0.54374 0.34864 0.0
O218 O 0.11889 0.49799 0.27602 0.0
O219 O 0.13544 0.43952 0.36898 0.0
O220 O 0.01665 0.43354 0.52383 0.0
O221 O 0.10996 0.41284 0.47301 0.0
O222 O 0.0518 0.41413 0.56314 0.0
C223 C 0.02473 0.42091 0.296 0.0
C224 C 0.14834 0.51263 0.5906 0.0
C225 C 0.13874 0.53135 0.28593 0.0
C226 C 0.07716 0.54323 0.46713 0.0
C227 C 0.13361 0.42128 0.42531 0.0
C228 C 0.02319 0.41452 0.56696 0.0
O229 O 0.05305 0.4191 0.29731 0.0
O230 O 0.61645 0.98707 0.66887 0.0
Zn231 Zn 0.61994 0.00519 0.76762 0.0
O232 O 0.63782 0.0544 0.76491 0.0
Zn233 Zn 0.6043 0.06863 0.76667 0.0
Zn234 Zn 0.66539 0.07514 0.68062 0.0
Zn235 Zn 0.6538 0.06609 0.86343 0.0
O236 O 0.62016 0.11373 0.82142 0.0
O237 O 0.63042 0.09065 0.91845 0.0
O238 O 0.57438 0.9845 0.81683 0.0
O239 O 0.56574 0.03061 0.82145 0.0
O240 O 0.59008 0.07633 0.66965 0.0
O241 O 0.64323 0.0995 0.61891 0.0
O242 O 0.71216 0.11247 0.72753 0.0
O243 O 0.64677 -0.01008 0.83036 0.0
O244 O 0.70343 0.10207 0.8487 0.0
O245 O 0.64628 0.0224 0.921 0.0
C246 C 0.63681 0.00114 0.61459 0.0
C247 C 0.62197 0.11215 0.89005 0.0
C248 C 0.61162 0.09413 0.61916 0.0
C249 C 0.55747 -0.00087 0.83978 0.0
C250 C 0.72223 0.11991 0.79444 0.0
C251 C 0.64682 -0.00506 0.89845 0.0
O252 O 0.66127 0.03409 0.61429 0.0
O253 O 0.55881 0.57976 0.01046 0.0
Zn254 Zn 0.54235 0.58283 0.11032 0.0
O255 O 0.51763 0.60707 0.10825 0.0
Zn256 Zn 0.46839 0.57793 0.1122 0.0
Zn257 Zn 0.52936 0.63394 0.02228 0.0
Zn258 Zn 0.52287 0.62676 0.20282 0.0
O259 O 0.44504 0.60053 0.16533 0.0
O260 O 0.47575 0.6009 0.26035 0.0
O261 O 0.51217 0.53873 0.16418 0.0
O262 O 0.46147 0.53845 0.17528 0.0
O263 O 0.44734 0.56267 0.01441 0.0
O264 O 0.48841 0.60756 0.94857 0.0
O265 O 0.5342 0.68055 0.05732 0.0
O266 O 0.58475 0.60711 0.17403 0.0
O267 O 0.53081 0.67385 0.17957 0.0
O268 O 0.56432 0.62854 0.25759 0.0
C269 C 0.57625 0.60716 0.97032 0.0
C270 C 0.44676 0.59621 0.23328 0.0
C271 C 0.45841 0.57891 0.95408 0.0
C272 C 0.48205 0.52723 0.19392 0.0
C273 C 0.53345 0.6914 0.12201 0.0
C274 C 0.58805 0.62185 0.23557 0.0
O275 O 0.57297 0.63466 0.97798 0.0
C276 C 0.43231 0.20879 0.27347 0.0
C277 C 0.46784 0.2231 0.25284 0.0
C278 C 0.45897 0.25621 0.15556 0.0
C279 C 0.42166 0.2327 0.16162 0.0
N280 N 0.37308 0.18403 0.22704 0.0
N281 N 0.51723 0.26506 0.18205 0.0
C282 C 0.40828 0.20864 0.22167 0.0
C283 C 0.48195 0.24897 0.19712 0.0
N284 N 0.42144 0.19396 0.3408 0.0
N285 N 0.4725 0.28603 0.11334 0.0
H286 H 0.53438 0.2611 0.21523 0.0
H287 H 0.52888 0.28072 0.13607 0.0
H288 H 0.45681 0.29476 0.08921 0.0
H289 H 0.49934 0.30487 0.1109 0.0
H290 H 0.39589 0.18476 0.36015 0.0
H291 H 0.43936 0.19518 0.3799 0.0
H292 H 0.36298 0.16418 0.26672 0.0
H293 H 0.35452 0.18086 0.18768 0.0
C294 C 0.18422 0.386 0.523 0.0
C295 C 0.20866 0.4172 0.56048 0.0
C296 C 0.18929 0.45229 0.49284 0.0
C297 C 0.16466 0.42121 0.45428 0.0
N298 N 0.13529 0.35779 0.43763 0.0
N299 N 0.2272 0.47632 0.59922 0.0
C300 C 0.16113 0.38774 0.47097 0.0
C301 C 0.20827 0.44902 0.55182 0.0
N302 N 0.18499 0.35542 0.53473 0.0
N303 N 0.19467 0.48492 0.47286 0.0
H304 H 0.24135 0.47372 0.64236 0.0
H305 H 0.22607 0.49964 0.60022 0.0
H306 H 0.1817 0.48875 0.42926 0.0
H307 H 0.2144 0.50868 0.49514 0.0
H308 H 0.17096 0.3324 0.50389 0.0
H309 H 0.2009 0.35381 0.57536 0.0
H310 H 0.12864 0.33209 0.45258 0.0
H311 H 0.1197 0.35885 0.39567 0.0
C312 C 0.80095 0.19909 0.87966 0.0
C313 C 0.7855 0.22046 0.89197 0.0
C314 C 0.7333 0.17956 0.82265 0.0
C315 C 0.74756 0.15677 0.81388 0.0
N316 N 0.79216 0.14175 0.84165 0.0
N317 N 0.73483 0.22794 0.89081 0.0
C318 C 0.78064 0.16561 0.84478 0.0
C319 C 0.75084 0.20951 0.86852 0.0
N320 N 0.83534 0.21143 0.89913 0.0
N321 N 0.70289 0.17249 0.7872 0.0
H322 H 0.74726 0.2498 0.92572 0.0
H323 H 0.70837 0.2197 0.881 0.0
H324 H 0.68866 0.15056 0.75346 0.0
H325 H 0.69324 0.18999 0.78596 0.0
H326 H 0.84947 0.19907 0.88428 0.0
H327 H 0.85019 0.23512 0.92789 0.0
H328 H 0.81418 0.14487 0.86993 0.0
H329 H 0.77851 0.11788 0.81291 0.0
C330 C 0.49067 0.71182 0.12947 0.0
C331 C 0.52652 0.7205 0.13341 0.0
C332 C 0.54148 0.77344 0.20516 0.0
C333 C 0.505 0.76272 0.20708 0.0
N334 N 0.44429 0.71997 0.18129 0.0
N335 N 0.58579 0.75731 0.17805 0.0
C336 C 0.47941 0.73136 0.17202 0.0
C337 C 0.55193 0.75084 0.17185 0.0
N338 N 0.46737 0.68465 0.0856 0.0
N339 N 0.56617 0.80578 0.23263 0.0
H340 H 0.59463 0.74242 0.14993 0.0
H341 H 0.60456 0.77626 0.21301 0.0
H342 H 0.55958 0.82249 0.26047 0.0
H343 H 0.59326 0.81697 0.22458 0.0
H344 H 0.4417 0.67908 0.07535 0.0
H345 H 0.47454 0.66944 0.05393 0.0
H346 H 0.42395 0.69551 0.16311 0.0
H347 H 0.43549 0.73374 0.21344 0.0
C348 C 0.73794 0.55658 0.51502 0.0
C349 C 0.71331 0.51948 0.51909 0.0
C350 C 0.74371 0.50872 0.41986 0.0
C351 C 0.77184 0.54408 0.42639 0.0
N352 N 0.79628 0.60266 0.47632 0.0
N353 N 0.69417 0.45956 0.4806 0.0
C354 C 0.76876 0.5685 0.47202 0.0
C355 C 0.7166 0.49533 0.47275 0.0
N356 N 0.73134 0.5804 0.54977 0.0
N357 N 0.74344 0.48787 0.36402 0.0
H358 H 0.6744 0.44894 0.52031 0.0
H359 H 0.69726 0.44048 0.45275 0.0
H360 H 0.76259 0.49762 0.32319 0.0
H361 H 0.72228 0.4625 0.35353 0.0
H362 H 0.74643 0.60777 0.5418 0.0
H363 H 0.70941 0.57287 0.58307 0.0
H364 H 0.79797 0.62086 0.51522 0.0
H365 H 0.81819 0.6121 0.44185 0.0
C366 C 0.22991 0.79874 0.80588 0.0
C367 C 0.21837 0.82312 0.78793 0.0
C368 C 0.16096 0.78377 0.84426 0.0
C369 C 0.17361 0.76092 0.86637 0.0
N370 N 0.22132 0.74932 0.88168 0.0
N371 N 0.1752 0.84163 0.79705 0.0
C372 C 0.20852 0.76931 0.85122 0.0
C373 C 0.1845 0.81646 0.80927 0.0
N374 N 0.26132 0.80364 0.77966 0.0
N375 N 0.12619 0.77358 0.8545 0.0
H376 H 0.19123 0.8649 0.7678 0.0
H377 H 0.15255 0.84026 0.8186 0.0
H378 H 0.10868 0.75053 0.88284 0.0
H379 H 0.11431 0.78694 0.83199 0.0
H380 H 0.26905 0.78468 0.7842 0.0
H381 H 0.27876 0.82533 0.74811 0.0
H382 H 0.24769 0.75594 0.87895 0.0
H383 H 0.20611 0.72778 0.91604 0.0
C384 C 0.63005 0.15714 0.98703 0.0
C385 C 0.60799 0.13049 0.93624 0.0
C386 C 0.55608 0.12813 0.9911 0.0
C387 C 0.57797 0.15712 0.03803 0.0
N388 N 0.63675 0.20449 0.0674 0.0
N389 N 0.55092 0.09986 0.87542 0.0
C390 C 0.61535 0.17328 0.03201 0.0
C391 C 0.57152 0.11967 0.93247 0.0
N392 N 0.66494 0.16708 0.9923 0.0
N393 N 0.5211 0.10579 1.00672 0.0
H394 H 0.55968 0.09027 0.83333 0.0
H395 H 0.52533 0.09513 0.86727 0.0
H396 H 0.51021 0.10403 0.05807 0.0
H397 H 0.5038 0.08514 0.97293 0.0
H398 H 0.68148 0.1836 0.0334 0.0
H399 H 0.67686 0.15716 0.95777 0.0
H400 H 0.66405 0.21907 0.06024 0.0
H401 H 0.62678 0.21769 0.0979 0.0
C402 C 0.41392 0.5949 0.34718 0.0
C403 C 0.41378 0.58 0.27819 0.0
C404 C 0.35303 0.53193 0.30165 0.0
C405 C 0.35747 0.54083 0.37627 0.0
N406 N 0.3858 0.58769 0.4653 0.0
N407 N 0.38175 0.53262 0.1896 0.0
C408 C 0.38586 0.57475 0.39761 0.0
C409 C 0.38256 0.54866 0.25423 0.0
N410 N 0.44041 0.6286 0.36322 0.0
N411 N 0.32038 0.50716 0.27662 0.0
H412 H 0.40277 0.54191 0.15339 0.0
H413 H 0.36105 0.5076 0.17497 0.0
H414 H 0.29836 0.4956 0.31098 0.0
H415 H 0.31451 0.50152 0.22145 0.0
H416 H 0.44159 0.64225 0.41057 0.0
H417 H 0.46031 0.64422 0.32606 0.0
H418 H 0.40771 0.60911 0.48926 0.0
H419 H 0.36284 0.57778 0.4964 0.0
C420 C 0.79998 0.37158 0.63353 0.0
C421 C 0.79898 0.3785 0.70884 0.0
C422 C 0.82401 0.44181 0.68163 0.0
C423 C 0.82529 0.43513 0.60612 0.0
N424 N 0.801 0.39175 0.50981 0.0
N425 N 0.79378 0.41745 0.79567 0.0
C426 C 0.80921 0.39935 0.58175 0.0
C427 C 0.80545 0.41264 0.73009 0.0
N428 N 0.79227 0.3385 0.61159 0.0
N429 N 0.84224 0.47565 0.70851 0.0
H430 H 0.77742 0.39644 0.82988 0.0
H431 H 0.79612 0.44158 0.81102 0.0
H432 H 0.85884 0.49771 0.67678 0.0
H433 H 0.84405 0.48129 0.76407 0.0
H434 H 0.79658 0.33291 0.55861 0.0
H435 H 0.7827 0.31704 0.64764 0.0
H436 H 0.78705 0.36593 0.48942 0.0
H437 H 0.8041 0.41124 0.47264 0.0
C438 C 0.34528 0.83261 0.01643 0.0
C439 C 0.35507 0.86598 0.98345 0.0
C440 C 0.41346 0.89193 0.04175 0.0
C441 C 0.40282 0.8598 0.07942 0.0
N442 N 0.35755 0.80032 0.10988 0.0
N443 N 0.39707 0.92983 0.9796 0.0
C444 C 0.36839 0.83022 0.06872 0.0
C445 C 0.38845 0.89634 1.00106 0.0
N446 N 0.31391 0.80327 0.9978 0.0
N447 N 0.44838 0.91778 0.04046 0.0
H448 H 0.3831 0.93593 0.94229 0.0
H449 H 0.41786 0.95244 1.00351 0.0
H450 H 0.46812 0.91553 0.06753 0.0
H451 H 0.45826 0.93961 1.00566 0.0
H452 H 0.30687 0.77749 0.013 0.0
H453 H 0.29533 0.80461 0.96431 0.0
H454 H 0.33172 0.77899 0.11039 0.0
H455 H 0.3741 0.79786 0.14749 0.0
C456 C 0.46152 0.3492 0.40367 0.0
C457 C 0.47653 0.33426 0.35644 0.0
C458 C 0.53279 0.36691 0.42375 0.0
C459 C 0.51803 0.38291 0.46822 0.0
N460 N 0.46344 0.37354 0.5228 0.0
N461 N 0.52292 0.32124 0.33511 0.0
C462 C 0.48081 0.36882 0.46598 0.0
C463 C 0.51111 0.34066 0.37115 0.0
N464 N 0.43033 0.34768 0.38664 0.0
N465 N 0.56755 0.37678 0.43218 0.0
H466 H 0.50703 0.3015 0.29803 0.0
H467 H 0.54669 0.32224 0.34642 0.0
H468 H 0.58268 0.39222 0.47606 0.0
H469 H 0.58146 0.37007 0.39575 0.0
H470 H 0.42023 0.36091 0.41643 0.0
H471 H 0.41603 0.33668 0.33909 0.0
H472 H 0.43598 0.36142 0.52486 0.0
H473 H 0.47521 0.3843 0.57269 0.0
C474 C 0.16048 0.58205 0.73526 0.0
C475 C 0.12467 0.5684 0.7572 0.0
C476 C 0.10569 0.52181 0.66531 0.0
C477 C 0.14134 0.53246 0.64857 0.0
N478 N 0.20323 0.57072 0.67375 0.0
N479 N 0.06479 0.51754 0.75707 0.0
C480 C 0.16902 0.5621 0.68538 0.0
C481 C 0.09798 0.53553 0.72783 0.0
N482 N 0.18625 0.61387 0.76232 0.0
N483 N 0.07901 0.50098 0.61802 0.0
H484 H 0.05698 0.52553 0.80317 0.0
H485 H 0.04579 0.4922 0.73965 0.0
H486 H 0.08333 0.49323 0.56725 0.0
H487 H 0.05298 0.49505 0.62514 0.0
H488 H 0.21207 0.62723 0.74266 0.0
H489 H 0.18133 0.62764 0.80278 0.0
H490 H 0.22451 0.58992 0.70368 0.0
H491 H 0.20998 0.55667 0.6374 0.0
C492 C 0.34598 0.01758 0.98855 0.0
C493 C 0.35991 0.02337 0.91691 0.0
C494 C 0.41417 0.0761 0.95791 0.0
C495 C 0.40349 0.06603 0.03162 0.0
N496 N 0.35735 0.03061 0.11791 0.0
N497 N 0.39634 0.06845 0.83066 0.0
C498 C 0.36856 0.03801 0.04715 0.0
C499 C 0.39057 0.05615 0.90073 0.0
N500 N 0.31079 -0.00556 0.99931 0.0
N501 N 0.44767 0.10273 0.9419 0.0
H502 H 0.37792 0.05493 0.78937 0.0
H503 H 0.41667 0.09359 0.81561 0.0
H504 H 0.46614 0.11838 0.98116 0.0
H505 H 0.45811 0.10774 0.88935 0.0
H506 H 0.29818 -0.00994 0.04946 0.0
H507 H 0.29326 0.9831 0.95577 0.0
H508 H 0.33419 0.00794 0.13409 0.0
H509 H 0.37192 0.04696 0.16127 0.0
C510 C 0.30067 0.28875 0.34051 0.0
C511 C 0.30232 0.29752 0.26569 0.0
C512 C 0.29308 0.34671 0.29396 0.0
C513 C 0.29806 0.3424 0.36972 0.0
N514 N 0.28982 0.30045 0.46467 0.0
N515 N 0.2762 0.3174 0.17617 0.0
C516 C 0.29633 0.31034 0.39305 0.0
C517 C 0.28998 0.32041 0.24428 0.0
N518 N 0.30375 0.26025 0.36058 0.0
N519 N 0.29433 0.37666 0.26735 0.0
H520 H 0.27273 0.29709 0.14082 0.0
H521 H 0.26446 0.3319 0.15908 0.0
H522 H 0.29839 0.39828 0.29843 0.0
H523 H 0.2947 0.38165 0.21164 0.0
H524 H 0.30721 0.25467 0.41416 0.0
H525 H 0.30269 0.24209 0.3221 0.0
H526 H 0.28639 0.27657 0.48481 0.0
H527 H 0.28431 0.31475 0.50287 0.0
C528 C 0.01012 0.39991 0.70001 0.0
C529 C -0.00167 0.39358 0.626 0.0
C530 C 0.9401 0.34629 0.66619 0.0
C531 C 0.94993 0.35815 0.73898 0.0
N532 N -0.00293 0.38015 0.82592 0.0
N533 N 0.95312 0.35862 0.53755 0.0
C534 C -0.01402 0.38003 0.7562 0.0
C535 C 0.96361 0.36596 0.60869 0.0
N536 N 0.04359 0.42625 0.7173 0.0
N537 N 0.90993 0.31471 0.65289 0.0
H538 H 0.97049 0.37031 0.49404 0.0
H539 H 0.92695 0.34213 0.52165 0.0
H540 H 0.89535 0.2972 0.69476 0.0
H541 H 0.90227 0.30339 0.60133 0.0
H542 H 0.05184 0.43501 0.77036 0.0
H543 H 0.06277 0.4413 0.67883 0.0
H544 H 0.0235 0.39312 0.84178 0.0
H545 H -0.02029 0.36332 0.86588 0.0
C546 C 0.62202 0.94456 0.07751 0.0
C547 C 0.59282 0.91195 0.05142 0.0
C548 C 0.61605 0.92915 0.92723 0.0
C549 C 0.63775 0.96485 0.95069 0.0
N550 N 0.66837 0.00497 0.04917 0.0
N551 N 0.56367 0.87223 0.95049 0.0
C552 C 0.64316 0.97187 0.02644 0.0
C553 C 0.59044 0.90392 0.97595 0.0
N554 N 0.62988 0.94969 0.15028 0.0
N555 N 0.62116 0.91881 0.86029 0.0
H556 H 0.54611 0.85184 0.98485 0.0
H557 H 0.55801 0.86698 0.89515 0.0
H558 H 0.64297 0.93517 0.82793 0.0
H559 H 0.60735 0.89257 0.84223 0.0
H560 H 0.65257 0.9714 0.17121 0.0
H561 H 0.61581 0.93115 0.19056 0.0
H562 H 0.67032 0.01429 0.10219 0.0
H563 H 0.68725 0.0235 0.01348 0.0
C564 C 0.62211 0.61484 0.4173 0.0
C565 C 0.63339 0.59034 0.39755 0.0
C566 C 0.63498 0.60694 0.2694 0.0
C567 C 0.61502 0.62319 0.28799 0.0
N568 N 0.60948 0.66049 0.37629 0.0
N569 N 0.65574 0.56704 0.30613 0.0
C570 C 0.61488 0.6329 0.36125 0.0
C571 C 0.64199 0.58808 0.32393 0.0
N572 N 0.61593 0.61915 0.48853 0.0
N573 N 0.64869 0.61139 0.20086 0.0
H574 H 0.66335 0.55485 0.3455 0.0
H575 H 0.6585 0.56076 0.25269 0.0
H576 H 0.64699 0.62858 0.16352 0.0
H577 H 0.66532 0.60206 0.18444 0.0
H578 H 0.60265 0.63225 0.5045 0.0
H579 H 0.62292 0.60885 0.53239 0.0
H580 H 0.61173 0.67111 0.42817 0.0
H581 H 0.60719 0.67566 0.33478 0.0
C582 C -0.00697 0.61033 0.68453 0.0
C583 C 0.01301 0.64732 0.70024 0.0
C584 C 0.96955 0.65658 0.63266 0.0
C585 C 0.95023 0.61975 0.61545 0.0
N586 N 0.94284 0.56095 0.62737 0.0
N587 N 0.02332 0.70651 0.68217 0.0
C588 C 0.96188 0.59661 0.6418 0.0
C589 C 0.00195 0.67068 0.67264 0.0
N590 N 0.00451 0.58799 0.70729 0.0
N591 N 0.95594 0.67766 0.6136 0.0
H592 H 0.04728 0.71754 0.71031 0.0
H593 H 0.01896 0.72555 0.65779 0.0
H594 H 0.93207 0.66798 0.58563 0.0
H595 H 0.96657 0.70394 0.63012 0.0
H596 H -0.00489 0.56288 0.68562 0.0
H597 H 0.02404 0.59402 0.74593 0.0
H598 H 0.94253 0.54177 0.66189 0.0
H599 H 0.92725 0.55017 0.5811 0.0
C600 C 0.56749 0.04507 0.25499 0.0
C601 C 0.54124 0.04318 0.20595 0.0
C602 C 0.54272 -0.00348 0.13722 0.0
C603 C 0.56173 -0.00666 0.19494 0.0
N604 N 0.60527 0.02094 0.2873 0.0
N605 N 0.50476 0.01868 0.09845 0.0
C606 C 0.57912 0.02043 0.24599 0.0
C607 C 0.52974 0.01999 0.14505 0.0
N608 N 0.57831 0.0675 0.31368 0.0
N609 N 0.53533 0.9749 0.07824 0.0
H610 H 0.49694 0.03768 0.09789 0.0
H611 H 0.49059 -0.0023 0.06257 0.0
H612 H 0.545 0.95737 0.07439 0.0
H613 H 0.52193 0.97593 0.03252 0.0
H614 H 0.59489 0.06752 0.3544 0.0
H615 H 0.5691 0.08486 0.32476 0.0
H616 H 0.62155 0.04168 0.3221 0.0
H617 H 0.61246 0.00157 0.28071 0.0
C618 C 0.47096 0.53434 0.46407 0.0
C619 C 0.44885 0.49754 0.45157 0.0
C620 C 0.49855 0.48914 0.46905 0.0
C621 C 0.51342 0.52014 0.51244 0.0
N622 N 0.51974 0.57737 0.53796 0.0
N623 N 0.44417 0.44195 0.41849 0.0
C624 C 0.50225 0.54514 0.50422 0.0
C625 C 0.46413 0.47603 0.44269 0.0
N626 N 0.46076 0.55763 0.4416 0.0
N627 N 0.51688 0.47203 0.45664 0.0
H628 H 0.41845 0.43215 0.39935 0.0
H629 H 0.45254 0.42346 0.41977 0.0
H630 H 0.54302 0.48278 0.47364 0.0
H631 H 0.50745 0.44926 0.42501 0.0
H632 H 0.47662 0.5851 0.44709 0.0
H633 H 0.43774 0.54892 0.41092 0.0
H634 H 0.51044 0.59518 0.53842 0.0
H635 H 0.54289 0.58545 0.56774 0.0
C636 C 0.8972 0.49944 0.89951 0.0
C637 C 0.89576 0.47454 0.84908 0.0
C638 C 0.95614 0.51173 0.81346 0.0
C639 C 0.96003 0.53447 0.87227 0.0
N640 N 0.9338 0.55581 0.96057 0.0
N641 N 0.91486 0.46404 0.73501 0.0
C642 C 0.93016 0.53073 0.91098 0.0
C643 C 0.92203 0.48424 0.79625 0.0
N644 N 0.86793 0.49118 0.94003 0.0
N645 N -0.01511 0.51466 0.77806 0.0
H646 H 0.88966 0.4422 0.72593 0.0
H647 H 0.93268 0.47074 0.69204 0.0
H648 H 0.01053 0.53527 0.78796 0.0
H649 H -0.01668 0.49558 0.74165 0.0
H650 H 0.86737 0.50654 0.98278 0.0
H651 H 0.84367 0.46839 0.92927 0.0
H652 H 0.91271 0.5555 0.98726 0.0
H653 H 0.95812 0.57785 0.97407 0.0
C654 C 0.06459 0.58724 0.42359 0.0
C655 C 0.06948 0.57104 0.48491 0.0
C656 C 0.01026 0.54789 0.5258 0.0
C657 C 0.00252 0.55835 0.4584 0.0
N658 N 0.0232 0.59556 0.35001 0.0
N659 N 0.0574 0.5604 0.61126 0.0
C660 C 0.03018 0.58129 0.40979 0.0
C661 C 0.0459 0.56097 0.5428 0.0
N662 N 0.09205 0.60472 0.37625 0.0
N663 N -0.01581 0.52413 0.5706 0.0
H664 H 0.08435 0.57082 0.62087 0.0
H665 H 0.04107 0.55274 0.65693 0.0
H666 H 0.95736 0.51311 0.55908 0.0
H667 H -0.01037 0.51323 0.61594 0.0
H668 H 0.09064 0.61614 0.32748 0.0
H669 H 0.11679 0.60768 0.38778 0.0
H670 H 0.04266 0.61416 0.31571 0.0
H671 H -0.00229 0.58934 0.33518 0.0
C672 C 0.47208 0.9834 0.87804 0.0
C673 C 0.45612 0.9525 0.83326 0.0
C674 C 0.50431 0.94195 0.85951 0.0
C675 C 0.52416 0.9778 0.87856 0.0
N676 N 0.52589 0.02631 0.94112 0.0
N677 N 0.45632 0.90061 0.78388 0.0
C678 C 0.50707 -0.00405 0.90166 0.0
C679 C 0.47132 0.93038 0.82661 0.0
N680 N 0.45423 0.00058 0.89615 0.0
N681 N 0.51803 0.92026 0.86929 0.0
H682 H 0.43334 0.89227 0.75359 0.0
H683 H 0.46863 0.88593 0.77315 0.0
H684 H 0.54253 0.92959 0.89467 0.0
H685 H 0.50368 0.89296 0.85978 0.0
H686 H 0.46467 0.02346 0.92772 0.0
H687 H 0.42786 -0.00899 0.88231 0.0
H688 H 0.51583 0.04181 0.95984 0.0
H689 H 0.55172 0.03469 0.95816 0.0
C690 C 0.43323 0.47621 0.259 0.0
C691 C 0.46972 0.498 0.24658 0.0
C692 C 0.47895 0.44872 0.26715 0.0
C693 C 0.44313 0.42678 0.24531 0.0
N694 N 0.3837 0.41582 0.25969 0.0
N695 N 0.5269 0.50968 0.28497 0.0
C696 C 0.4191 0.43919 0.25466 0.0
C697 C 0.49271 0.48577 0.26699 0.0
N698 N 0.41342 0.49113 0.27697 0.0
N699 N 0.49894 0.43409 0.28663 0.0
H700 H 0.53561 0.53682 0.28873 0.0
H701 H 0.5457 0.5029 0.2995 0.0
H702 H 0.48749 0.40698 0.29747 0.0
H703 H 0.52594 0.44867 0.29746 0.0
H704 H 0.3866 0.47664 0.28965 0.0
H705 H 0.42544 0.5184 0.28658 0.0
H706 H 0.36479 0.42354 0.25952 0.0
H707 H 0.37374 0.38858 0.26632 0.0
C708 C 0.36525 0.03052 0.53736 0.0
C709 C 0.35392 -0.00617 0.52876 0.0
C710 C 0.36849 0.00421 0.39854 0.0
C711 C 0.38749 0.04139 0.41148 0.0
N712 N 0.38536 0.08768 0.47885 0.0
N713 N 0.34499 0.94544 0.44999 0.0
C714 C 0.38041 0.05412 0.47687 0.0
C715 C 0.35474 0.98038 0.45864 0.0
N716 N 0.36244 0.04286 0.60406 0.0
N717 N 0.3616 -0.00824 0.32864 0.0
H718 H 0.33471 0.92682 0.49198 0.0
H719 H 0.34951 0.93548 0.40213 0.0
H720 H 0.36757 0.00872 0.28397 0.0
H721 H 0.34551 0.96498 0.31569 0.0
H722 H 0.3744 0.06972 0.61712 0.0
H723 H 0.34901 0.02594 0.64762 0.0
H724 H 0.37878 0.09807 0.5232 0.0
H725 H 0.3913 0.10336 0.43213 0.0
C726 C 0.33008 0.34456 0.88957 0.0
C727 C 0.35263 0.33019 0.8808 0.0
C728 C 0.3517 0.33934 0.74863 0.0
C729 C 0.33655 0.3612 0.76033 0.0
N730 N 0.31962 0.39107 0.84986 0.0
N731 N 0.38957 0.31915 0.79907 0.0
C732 C 0.32762 0.36538 0.83287 0.0
C733 C 0.36453 0.32863 0.80942 0.0
N734 N 0.31101 0.33847 0.95222 0.0
N735 N 0.35314 0.32802 0.67999 0.0
H736 H 0.40103 0.31249 0.84137 0.0
H737 H 0.40145 0.32131 0.74862 0.0
H738 H 0.34195 0.33325 0.63485 0.0
H739 H 0.36148 0.30984 0.66974 0.0
H740 H 0.29232 0.3464 0.9587 0.0
H741 H 0.3108 0.32184 0.99355 0.0
H742 H 0.31586 0.39648 0.90343 0.0
H743 H 0.32147 0.41011 0.81296 0.0
C744 C -0.01795 0.38932 0.10774 0.0
C745 C 0.94566 0.37384 0.12535 0.0
C746 C 0.96143 0.38129 0.25545 0.0
C747 C -0.00215 0.40225 0.23721 0.0
N748 N 0.04202 0.43165 0.1431 0.0
N749 N 0.90103 0.35993 0.21745 0.0
C750 C 0.00806 0.4075 0.16255 0.0
C751 C 0.93531 0.37078 0.19969 0.0
N752 N -0.00818 0.38628 0.0386 0.0
N753 N 0.95175 0.37072 0.32591 0.0
H754 H 0.88112 0.35275 0.17879 0.0
H755 H 0.89303 0.36117 0.27032 0.0
H756 H 0.97023 0.37691 0.36742 0.0
H757 H 0.92584 0.35273 0.34141 0.0
H758 H 0.0178 0.39422 0.02429 0.0
H759 H 0.97342 0.37224 0.9977 0.0
H760 H 0.04973 0.43907 0.08917 0.0
H761 H 0.06173 0.44715 0.18056 0.0
C762 C 0.62912 0.94674 0.55114 0.0
C763 C 0.6275 0.97854 0.54848 0.0
C764 C 0.58308 0.95326 0.45157 0.0
C765 C 0.58528 0.92176 0.45268 0.0
N766 N 0.61445 0.89058 0.49362 0.0
N767 N 0.60983 0.01542 0.48478 0.0
C768 C 0.6097 0.91917 0.49933 0.0
C769 C 0.60689 0.98292 0.49448 0.0
N770 N 0.64846 0.94265 0.60482 0.0
N771 N 0.5573 0.95438 0.4113 0.0
H772 H 0.6272 0.03777 0.51487 0.0
H773 H 0.59749 0.02115 0.44279 0.0
H774 H 0.53912 0.93322 0.37937 0.0
H775 H 0.55176 0.97495 0.4143 0.0
H776 H 0.64757 0.91876 0.61577 0.0
H777 H 0.66456 0.96323 0.64043 0.0
H778 H 0.6343 0.88866 0.52082 0.0
H779 H 0.59964 0.86954 0.45795 0.0
C780 C 0.60437 0.6204 0.84451 0.0
C781 C 0.60152 0.60679 0.91619 0.0
C782 C 0.63881 0.58181 0.88 0.0
C783 C 0.63819 0.5925 0.80714 0.0
N784 N 0.64032 0.63997 0.73561 0.0
N785 N 0.62811 0.58765 1.00782 0.0
C786 C 0.62787 0.61813 0.79492 0.0
C787 C 0.62252 0.59147 0.93587 0.0
N788 N 0.58296 0.63282 0.82104 0.0
N789 N 0.65515 0.563 0.89602 0.0
H790 H 0.61856 0.59666 0.04971 0.0
H791 H 0.6452 0.57919 0.02602 0.0
H792 H 0.67287 0.56159 0.86017 0.0
H793 H 0.65168 0.54953 0.94505 0.0
H794 H 0.58247 0.63988 0.76685 0.0
H795 H 0.56306 0.63246 0.85265 0.0
H796 H 0.63517 0.6606 0.72672 0.0
H797 H 0.65931 0.64002 0.70111 0.0
C798 C 0.0136 0.66911 0.1769 0.0
C799 C 0.00495 0.6607 0.10223 0.0
C800 C 0.94152 0.62741 0.13416 0.0
C801 C 0.95061 0.63109 0.20929 0.0
N802 N -0.00816 0.67517 0.29394 0.0
N803 N 0.96048 0.65346 0.01434 0.0
C804 C -0.01428 0.65792 0.22869 0.0
C805 C 0.96874 0.64627 0.08171 0.0
N806 N 0.04796 0.68886 0.19874 0.0
N807 N 0.90719 0.60745 0.11222 0.0
H808 H -0.0203 0.67205 0.97935 0.0
H809 H 0.93475 0.64558 0.99808 0.0
H810 H 0.88586 0.59953 0.14734 0.0
H811 H 0.90013 0.59964 0.05818 0.0
H812 H 0.05556 0.69082 0.25325 0.0
H813 H 0.06861 0.70381 0.16276 0.0
H814 H 0.01639 0.69646 0.3089 0.0
H815 H 0.97128 0.67192 0.32778 0.0
C816 C 0.5984 0.15846 0.4981 0.0
C817 C 0.5665 0.13423 0.46218 0.0
C818 C 0.56849 0.08407 0.51945 0.0
C819 C 0.5986 0.10834 0.56036 0.0
N820 N 0.63953 0.16869 0.59682 0.0
N821 N 0.51933 0.07367 0.44214 0.0
C822 C 0.61303 0.14561 0.55158 0.0
C823 C 0.55093 0.09697 0.47427 0.0
N824 N 0.61489 0.19374 0.4805 0.0
N825 N 0.55752 0.04857 0.52149 0.0
H826 H 0.50669 0.08106 0.40369 0.0
H827 H 0.50432 0.04697 0.45659 0.0
H828 H 0.56945 0.038 0.55429 0.0
H829 H 0.53877 0.02987 0.48615 0.0
H830 H 0.64024 0.21227 0.49807 0.0
H831 H 0.60394 0.20416 0.44448 0.0
H832 H 0.64847 0.19581 0.59892 0.0
H833 H 0.65097 0.16042 0.63639 0.0
C834 C 0.37871 0.53904 0.82767 0.0
C835 C 0.38827 0.52039 0.77798 0.0
C836 C 0.44522 0.54227 0.84109 0.0
C837 C 0.43629 0.56214 0.88873 0.0
N838 N 0.39738 0.58359 0.92347 0.0
N839 N 0.43116 0.50556 0.733 0.0
C840 C 0.40374 0.56162 0.88096 0.0
C841 C 0.42178 0.52254 0.78333 0.0
N842 N 0.34564 0.53488 0.82406 0.0
N843 N 0.47532 0.54082 0.85349 0.0
H844 H 0.41363 0.48772 0.69461 0.0
H845 H 0.45675 0.51012 0.72699 0.0
H846 H 0.49373 0.55573 0.89371 0.0
H847 H 0.48135 0.52342 0.82701 0.0
H848 H 0.33546 0.54476 0.86273 0.0
H849 H 0.32724 0.51948 0.78421 0.0
H850 H 0.37576 0.58715 0.91694 0.0
H851 H 0.41537 0.60059 0.96237 0.0
C852 C 0.81175 0.37263 0.20484 0.0
C853 C 0.80174 0.37707 0.13379 0.0
C854 C 0.81873 0.43836 0.16184 0.0
C855 C 0.83075 0.43541 0.23223 0.0
N856 N 0.82599 0.39485 0.32853 0.0
N857 N 0.77562 0.40608 0.06795 0.0
C858 C 0.82355 0.40104 0.25632 0.0
C859 C 0.79829 0.4072 0.12032 0.0
N860 N 0.80925 0.34111 0.22356 0.0
N861 N 0.82867 0.47072 0.13148 0.0
H862 H 0.75823 0.38248 0.04108 0.0
H863 H 0.77092 0.42702 0.05909 0.0
H864 H 0.84744 0.49475 0.15462 0.0
H865 H 0.82173 0.47337 0.07839 0.0
H866 H 0.82111 0.33774 0.26979 0.0
H867 H 0.79504 0.31824 0.19207 0.0
H868 H 0.81819 0.36982 0.34998 0.0
H869 H 0.83211 0.41386 0.36867 0.0
C870 C 0.37795 0.82909 0.45583 0.0
C871 C 0.41524 0.85192 0.4594 0.0
C872 C 0.40848 0.88221 0.56526 0.0
C873 C 0.37137 0.85805 0.56503 0.0
N874 N 0.32103 0.80567 0.51669 0.0
N875 N 0.46645 0.89442 0.52685 0.0
C876 C 0.35613 0.83056 0.5122 0.0
C877 C 0.43058 0.8766 0.51724 0.0
N878 N 0.36339 0.80708 0.39721 0.0
N879 N 0.42251 0.91179 0.60862 0.0
H880 H 0.4835 0.8908 0.4929 0.0
H881 H 0.47896 0.90999 0.57247 0.0
H882 H 0.40727 0.9178 0.64291 0.0
H883 H 0.44874 0.93224 0.60541 0.0
H884 H 0.33633 0.79262 0.38691 0.0
H885 H 0.37867 0.80481 0.35627 0.0
H886 H 0.30885 0.78292 0.48445 0.0
H887 H 0.30451 0.8066 0.55653 0.0
C888 C 0.54772 0.38751 0.8293 0.0
C889 C 0.55954 0.42438 0.83105 0.0
C890 C 0.52295 0.41605 0.93776 0.0
C891 C 0.51176 0.37915 0.93817 0.0
N892 N 0.51969 0.33136 0.8949 0.0
N893 N 0.56704 0.47512 0.898 0.0
C894 C 0.52612 0.36532 0.88717 0.0
C895 C 0.55021 0.43905 0.88958 0.0
N896 N 0.55579 0.3735 0.77085 0.0
N897 N 0.50572 0.42883 0.97885 0.0
H898 H 0.5872 0.49252 0.86302 0.0
H899 H 0.56365 0.4874 0.94351 0.0
H900 H 0.48373 0.41279 0.01103 0.0
H901 H 0.5107 0.45482 0.97473 0.0
H902 H 0.54448 0.34629 0.76198 0.0
H903 H 0.57255 0.38927 0.72909 0.0
H904 H 0.53202 0.32086 0.8634 0.0
H905 H 0.5044 0.31469 0.93727 0.0
C906 C 0.16206 0.57892 0.18777 0.0
C907 C 0.13429 0.55536 0.23461 0.0
C908 C 0.09645 0.57765 0.1871 0.0
C909 C 0.12236 0.59754 0.13381 0.0
N910 N 0.17932 0.61679 0.08008 0.0
N911 N 0.07447 0.53148 0.27911 0.0
C912 C 0.1553 0.59854 0.13382 0.0
C913 C 0.10136 0.55466 0.23454 0.0
N914 N 0.19472 0.5824 0.19493 0.0
N915 N 0.06724 0.58129 0.19261 0.0
H916 H 0.07733 0.51581 0.31834 0.0
H917 H 0.04856 0.52621 0.27528 0.0
H918 H 0.06349 0.59876 0.15989 0.0
H919 H 0.0482 0.56961 0.2332 0.0
H920 H 0.21709 0.60147 0.16746 0.0
H921 H 0.19993 0.56758 0.23245 0.0
H922 H 0.20211 0.61545 0.07152 0.0
H923 H 0.17552 0.63215 0.04139 0.0
loop_
_geom_bond_atom_site_label_1
_geom_bond_atom_site_label_2
_geom_bond_distance
_geom_bond_site_symmetry_2
_ccdc_geom_bond_type
O0 Zn1 1.953 . S
O0 C16 1.225 . S
Zn1 O0 1.953 . S
Zn1 O2 1.949 . S
Zn1 O8 1.919 . S
Zn1 O13 1.924 . S
O2 Zn1 1.949 . S
O2 Zn3 1.923 . S
O2 Zn4 1.950 . S
O2 Zn5 1.945 . S
Zn3 O2 1.923 . S
Zn3 O6 1.933 . S
Zn3 O9 1.941 . S
Zn3 O10 1.965 . S
Zn4 O2 1.950 . S
Zn4 O11 1.938 . S
Zn4 O12 1.906 . S
Zn4 O22 1.953 . S
Zn5 O2 1.945 . S
Zn5 O7 1.932 . S
Zn5 O14 1.977 . S
Zn5 O15 1.910 . S
O6 Zn3 1.933 . S
O6 C17 1.226 . S
O7 Zn5 1.932 . S
O7 C17 1.307 . S
O8 Zn1 1.919 . S
O8 C19 1.253 . S
O9 Zn3 1.941 . S
O9 C19 1.283 . S
O10 Zn3 1.965 . S
O10 C18 1.303 . S
O11 Zn4 1.938 . S
O11 C18 1.247 . S
O12 Zn4 1.906 . S
O12 C20 1.304 . S
O13 Zn1 1.924 . S
O13 C21 1.311 . S
O14 Zn5 1.977 . S
O14 C20 1.272 . S
O15 Zn5 1.910 . S
O15 C21 1.231 . S
C16 O0 1.225 . S
C16 O22 1.298 . S
C17 O6 1.226 . S
C17 O7 1.307 . S
C18 O10 1.303 . S
C18 O11 1.247 . S
C19 O8 1.253 . S
C19 O9 1.283 . S
C20 O12 1.304 . S
C20 O14 1.272 . S
C21 O13 1.311 . S
C21 O15 1.231 . S
O22 Zn4 1.953 . S
O22 C16 1.298 . S
O23 Zn24 1.953 . S
O23 C39 1.225 . S
Zn24 O23 1.953 . S
Zn24 O25 1.949 . S
Zn24 O31 1.919 . S
Zn24 O36 1.924 . S
O25 Zn24 1.949 . S
O25 Zn26 1.923 . S
O25 Zn27 1.950 . S
O25 Zn28 1.945 . S
Zn26 O25 1.923 . S
Zn26 O29 1.933 . S
Zn26 O32 1.941 . S
Zn26 O33 1.965 . S
Zn27 O25 1.950 . S
Zn27 O34 1.938 . S
Zn27 O35 1.906 . S
Zn27 O45 1.953 . S
Zn28 O25 1.945 . S
Zn28 O30 1.932 . S
Zn28 O37 1.977 . S
Zn28 O38 1.910 . S
O29 Zn26 1.933 . S
O29 C40 1.226 . S
O30 Zn28 1.932 . S
O30 C40 1.307 . S
O31 Zn24 1.919 . S
O31 C42 1.253 . S
O32 Zn26 1.941 . S
O32 C42 1.283 . S
O33 Zn26 1.965 . S
O33 C41 1.303 . S
O34 Zn27 1.938 . S
O34 C41 1.247 . S
O35 Zn27 1.906 . S
O35 C43 1.304 . S
O36 Zn24 1.924 . S
O36 C44 1.311 . S
O37 Zn28 1.977 . S
O37 C43 1.272 . S
O38 Zn28 1.910 . S
O38 C44 1.231 . S
C39 O23 1.225 . S
C39 O45 1.298 . S
C40 O29 1.226 . S
C40 O30 1.307 . S
C41 O33 1.303 . S
C41 O34 1.247 . S
C42 O31 1.253 . S
C42 O32 1.283 . S
C43 O35 1.304 . S
C43 O37 1.272 . S
C44 O36 1.311 . S
C44 O38 1.231 . S
O45 Zn27 1.953 . S
O45 C39 1.298 . S
O46 Zn47 1.953 1_554 S
O46 C62 1.225 . S
Zn47 O46 1.953 1_556 S
Zn47 O48 1.949 . S
Zn47 O54 1.919 . S
Zn47 O59 1.924 . S
O48 Zn47 1.949 . S
O48 Zn49 1.923 . S
O48 Zn50 1.950 . S
O48 Zn51 1.945 . S
Zn49 O48 1.923 . S
Zn49 O52 1.933 . S
Zn49 O55 1.941 . S
Zn49 O56 1.965 1_556 S
Zn50 O48 1.950 . S
Zn50 O57 1.938 1_556 S
Zn50 O58 1.906 . S
Zn50 O68 1.953 1_556 S
Zn51 O48 1.945 . S
Zn51 O53 1.932 . S
Zn51 O60 1.977 . S
Zn51 O61 1.910 . S
O52 Zn49 1.933 . S
O52 C63 1.226 . S
O53 Zn51 1.932 . S
O53 C63 1.307 . S
O54 Zn47 1.919 . S
O54 C65 1.253 . S
O55 Zn49 1.941 . S
O55 C65 1.283 . S
O56 Zn49 1.965 1_554 S
O56 C64 1.303 . S
O57 Zn50 1.938 1_554 S
O57 C64 1.247 . S
O58 Zn50 1.906 . S
O58 C66 1.304 . S
O59 Zn47 1.924 . S
O59 C67 1.311 . S
O60 Zn51 1.977 . S
O60 C66 1.272 . S
O61 Zn51 1.910 . S
O61 C67 1.231 . S
C62 O46 1.225 . S
C62 O68 1.298 . S
C63 O52 1.226 . S
C63 O53 1.307 . S
C64 O56 1.303 . S
C64 O57 1.247 . S
C65 O54 1.253 . S
C65 O55 1.283 . S
C66 O58 1.304 . S
C66 O60 1.272 . S
C67 O59 1.311 . S
C67 O61 1.231 . S
O68 Zn50 1.953 1_554 S
O68 C62 1.298 . S
O69 Zn70 1.953 . S
O69 C85 1.225 . S
Zn70 O69 1.953 . S
Zn70 O71 1.949 . S
Zn70 O77 1.919 . S
Zn70 O82 1.924 . S
O71 Zn70 1.949 . S
O71 Zn72 1.923 . S
O71 Zn73 1.950 . S
O71 Zn74 1.945 . S
Zn72 O71 1.923 . S
Zn72 O75 1.933 . S
Zn72 O78 1.941 . S
Zn72 O79 1.965 . S
Zn73 O71 1.950 . S
Zn73 O80 1.938 . S
Zn73 O81 1.906 . S
Zn73 O91 1.953 . S
Zn74 O71 1.945 . S
Zn74 O76 1.932 . S
Zn74 O83 1.977 . S
Zn74 O84 1.910 . S
O75 Zn72 1.933 . S
O75 C86 1.226 . S
O76 Zn74 1.932 . S
O76 C86 1.307 . S
O77 Zn70 1.919 . S
O77 C88 1.253 . S
O78 Zn72 1.941 . S
O78 C88 1.283 . S
O79 Zn72 1.965 . S
O79 C87 1.303 . S
O80 Zn73 1.938 . S
O80 C87 1.247 . S
O81 Zn73 1.906 . S
O81 C89 1.304 . S
O82 Zn70 1.924 . S
O82 C90 1.311 . S
O83 Zn74 1.977 . S
O83 C89 1.272 . S
O84 Zn74 1.910 . S
O84 C90 1.231 . S
C85 O69 1.225 . S
C85 O91 1.298 . S
C86 O75 1.226 . S
C86 O76 1.307 . S
C87 O79 1.303 . S
C87 O80 1.247 . S
C88 O77 1.253 . S
C88 O78 1.283 . S
C89 O81 1.304 . S
C89 O83 1.272 . S
C90 O82 1.311 . S
C90 O84 1.231 . S
O91 Zn73 1.953 . S
O91 C85 1.298 . S
O92 Zn93 1.953 . S
O92 C108 1.225 . S
Zn93 O92 1.953 . S
Zn93 O94 1.949 . S
Zn93 O100 1.919 . S
Zn93 O105 1.924 . S
O94 Zn93 1.949 . S
O94 Zn95 1.923 . S
O94 Zn96 1.950 . S
O94 Zn97 1.945 . S
Zn95 O94 1.923 . S
Zn95 O98 1.933 . S
Zn95 O101 1.941 . S
Zn95 O102 1.965 . S
Zn96 O94 1.950 . S
Zn96 O103 1.938 . S
Zn96 O104 1.906 . S
Zn96 O114 1.953 . S
Zn97 O94 1.945 . S
Zn97 O99 1.932 . S
Zn97 O106 1.977 . S
Zn97 O107 1.910 . S
O98 Zn95 1.933 . S
O98 C109 1.226 . S
O99 Zn97 1.932 . S
O99 C109 1.307 . S
O100 Zn93 1.919 . S
O100 C111 1.253 . S
O101 Zn95 1.941 . S
O101 C111 1.283 . S
O102 Zn95 1.965 . S
O102 C110 1.303 . S
O103 Zn96 1.938 . S
O103 C110 1.247 . S
O104 Zn96 1.906 . S
O104 C112 1.304 . S
O105 Zn93 1.924 . S
O105 C113 1.311 . S
O106 Zn97 1.977 . S
O106 C112 1.272 . S
O107 Zn97 1.910 . S
O107 C113 1.231 . S
C108 O92 1.225 . S
C108 O114 1.298 . S
C109 O98 1.226 . S
C109 O99 1.307 . S
C110 O102 1.303 . S
C110 O103 1.247 . S
C111 O100 1.253 . S
C111 O101 1.283 . S
C112 O104 1.304 . S
C112 O106 1.272 . S
C113 O105 1.311 . S
C113 O107 1.231 . S
O114 Zn96 1.953 . S
O114 C108 1.298 . S
O115 Zn116 1.953 1_554 S
O115 C131 1.225 . S
Zn116 O115 1.953 1_556 S
Zn116 O117 1.949 . S
Zn116 O123 1.919 . S
Zn116 O128 1.924 . S
O117 Zn116 1.949 . S
O117 Zn118 1.923 . S
O117 Zn119 1.950 . S
O117 Zn120 1.945 . S
Zn118 O117 1.923 . S
Zn118 O121 1.933 . S
Zn118 O124 1.941 . S
Zn118 O125 1.965 1_556 S
Zn119 O117 1.950 . S
Zn119 O126 1.938 1_556 S
Zn119 O127 1.906 . S
Zn119 O137 1.953 1_556 S
Zn120 O117 1.945 . S
Zn120 O122 1.932 . S
Zn120 O129 1.977 . S
Zn120 O130 1.910 . S
O121 Zn118 1.933 . S
O121 C132 1.226 . S
O122 Zn120 1.932 . S
O122 C132 1.307 . S
O123 Zn116 1.919 . S
O123 C134 1.253 . S
O124 Zn118 1.941 . S
O124 C134 1.283 . S
O125 Zn118 1.965 1_554 S
O125 C133 1.303 . S
O126 Zn119 1.938 1_554 S
O126 C133 1.247 . S
O127 Zn119 1.906 . S
O127 C135 1.304 . S
O128 Zn116 1.924 . S
O128 C136 1.311 . S
O129 Zn120 1.977 . S
O129 C135 1.272 . S
O130 Zn120 1.910 . S
O130 C136 1.231 . S
C131 O115 1.225 . S
C131 O137 1.298 . S
C132 O121 1.226 . S
C132 O122 1.307 . S
C133 O125 1.303 . S
C133 O126 1.247 . S
C134 O123 1.253 . S
C134 O124 1.283 . S
C135 O127 1.304 . S
C135 O129 1.272 . S
C136 O128 1.311 . S
C136 O130 1.231 . S
O137 Zn119 1.953 1_554 S
O137 C131 1.298 . S
O138 Zn139 1.953 . S
O138 C154 1.225 . S
Zn139 O138 1.953 . S
Zn139 O140 1.949 . S
Zn139 O146 1.919 . S
Zn139 O151 1.924 . S
O140 Zn139 1.949 . S
O140 Zn141 1.923 . S
O140 Zn142 1.950 . S
O140 Zn143 1.945 . S
Zn141 O140 1.923 . S
Zn141 O144 1.933 . S
Zn141 O147 1.941 . S
Zn141 O148 1.965 . S
Zn142 O140 1.950 . S
Zn142 O149 1.938 . S
Zn142 O150 1.906 . S
Zn142 O160 1.953 . S
Zn143 O140 1.945 . S
Zn143 O145 1.932 . S
Zn143 O152 1.977 . S
Zn143 O153 1.910 . S
O144 Zn141 1.933 . S
O144 C155 1.226 . S
O145 Zn143 1.932 . S
O145 C155 1.307 . S
O146 Zn139 1.919 . S
O146 C157 1.253 . S
O147 Zn141 1.941 . S
O147 C157 1.283 . S
O148 Zn141 1.965 . S
O148 C156 1.303 . S
O149 Zn142 1.938 . S
O149 C156 1.247 . S
O150 Zn142 1.906 . S
O150 C158 1.304 . S
O151 Zn139 1.924 . S
O151 C159 1.311 . S
O152 Zn143 1.977 . S
O152 C158 1.272 . S
O153 Zn143 1.910 . S
O153 C159 1.231 . S
C154 O138 1.225 . S
C154 O160 1.298 . S
C155 O144 1.226 . S
C155 O145 1.307 . S
C156 O148 1.303 . S
C156 O149 1.247 . S
C157 O146 1.253 . S
C157 O147 1.283 . S
C158 O150 1.304 . S
C158 O152 1.272 . S
C159 O151 1.311 . S
C159 O153 1.231 . S
O160 Zn142 1.953 . S
O160 C154 1.298 . S
O161 Zn162 1.953 . S
O161 C177 1.225 . S
Zn162 O161 1.953 . S
Zn162 O163 1.949 . S
Zn162 O169 1.919 . S
Zn162 O174 1.924 . S
O163 Zn162 1.949 . S
O163 Zn164 1.923 . S
O163 Zn165 1.950 . S
O163 Zn166 1.945 . S
Zn164 O163 1.923 . S
Zn164 O167 1.933 . S
Zn164 O170 1.941 . S
Zn164 O171 1.965 . S
Zn165 O163 1.950 . S
Zn165 O172 1.938 . S
Zn165 O173 1.906 . S
Zn165 O183 1.953 . S
Zn166 O163 1.945 . S
Zn166 O168 1.932 . S
Zn166 O175 1.977 . S
Zn166 O176 1.910 . S
O167 Zn164 1.933 . S
O167 C178 1.226 . S
O168 Zn166 1.932 . S
O168 C178 1.307 . S
O169 Zn162 1.919 . S
O169 C180 1.253 . S
O170 Zn164 1.941 . S
O170 C180 1.283 . S
O171 Zn164 1.965 . S
O171 C179 1.303 . S
O172 Zn165 1.938 . S
O172 C179 1.247 . S
O173 Zn165 1.906 . S
O173 C181 1.304 . S
O174 Zn162 1.924 . S
O174 C182 1.311 . S
O175 Zn166 1.977 . S
O175 C181 1.272 . S
O176 Zn166 1.910 . S
O176 C182 1.231 . S
C177 O161 1.225 . S
C177 O183 1.298 . S
C178 O167 1.226 . S
C178 O168 1.307 . S
C179 O171 1.303 . S
C179 O172 1.247 . S
C180 O169 1.253 . S
C180 O170 1.283 . S
C181 O173 1.304 . S
C181 O175 1.272 . S
C182 O174 1.311 . S
C182 O176 1.231 . S
O183 Zn165 1.953 . S
O183 C177 1.298 . S
O184 Zn185 1.953 1_556 S
O184 C200 1.225 . S
Zn185 O184 1.953 1_554 S
Zn185 O186 1.949 . S
Zn185 O192 1.919 . S
Zn185 O197 1.924 . S
O186 Zn185 1.949 . S
O186 Zn187 1.923 . S
O186 Zn188 1.950 . S
O186 Zn189 1.945 . S
Zn187 O186 1.923 . S
Zn187 O190 1.933 . S
Zn187 O193 1.941 . S
Zn187 O194 1.965 1_554 S
Zn188 O186 1.950 . S
Zn188 O195 1.938 1_554 S
Zn188 O196 1.906 . S
Zn188 O206 1.953 1_554 S
Zn189 O186 1.945 . S
Zn189 O191 1.932 . S
Zn189 O198 1.977 . S
Zn189 O199 1.910 . S
O190 Zn187 1.933 . S
O190 C201 1.226 . S
O191 Zn189 1.932 . S
O191 C201 1.307 . S
O192 Zn185 1.919 . S
O192 C203 1.253 . S
O193 Zn187 1.941 . S
O193 C203 1.283 . S
O194 Zn187 1.965 1_556 S
O194 C202 1.303 . S
O195 Zn188 1.938 1_556 S
O195 C202 1.247 . S
O196 Zn188 1.906 . S
O196 C204 1.304 . S
O197 Zn185 1.924 . S
O197 C205 1.311 . S
O198 Zn189 1.977 . S
O198 C204 1.272 . S
O199 Zn189 1.910 . S
O199 C205 1.231 . S
C200 O184 1.225 . S
C200 O206 1.298 . S
C201 O190 1.226 . S
C201 O191 1.307 . S
C202 O194 1.303 . S
C202 O195 1.247 . S
C203 O192 1.253 . S
C203 O193 1.283 . S
C204 O196 1.304 . S
C204 O198 1.272 . S
C205 O197 1.311 . S
C205 O199 1.231 . S
O206 Zn188 1.953 1_556 S
O206 C200 1.298 . S
O207 Zn208 1.953 . S
O207 C223 1.225 . S
Zn208 O207 1.953 . S
Zn208 O209 1.949 . S
Zn208 O215 1.919 . S
Zn208 O220 1.924 . S
O209 Zn208 1.949 . S
O209 Zn210 1.923 . S
O209 Zn211 1.950 . S
O209 Zn212 1.945 . S
Zn210 O209 1.923 . S
Zn210 O213 1.933 . S
Zn210 O216 1.941 . S
Zn210 O217 1.965 . S
Zn211 O209 1.950 . S
Zn211 O218 1.938 . S
Zn211 O219 1.906 . S
Zn211 O229 1.953 . S
Zn212 O209 1.945 . S
Zn212 O214 1.932 . S
Zn212 O221 1.977 . S
Zn212 O222 1.910 . S
O213 Zn210 1.933 . S
O213 C224 1.226 . S
O214 Zn212 1.932 . S
O214 C224 1.307 . S
O215 Zn208 1.919 . S
O215 C226 1.253 . S
O216 Zn210 1.941 . S
O216 C226 1.283 . S
O217 Zn210 1.965 . S
O217 C225 1.303 . S
O218 Zn211 1.938 . S
O218 C225 1.247 . S
O219 Zn211 1.906 . S
O219 C227 1.304 . S
O220 Zn208 1.924 . S
O220 C228 1.311 . S
O221 Zn212 1.977 . S
O221 C227 1.272 . S
O222 Zn212 1.910 . S
O222 C228 1.231 . S
C223 O207 1.225 . S
C223 O229 1.298 . S
C224 O213 1.226 . S
C224 O214 1.307 . S
C225 O217 1.303 . S
C225 O218 1.247 . S
C226 O215 1.253 . S
C226 O216 1.283 . S
C227 O219 1.304 . S
C227 O221 1.272 . S
C228 O220 1.311 . S
C228 O222 1.231 . S
O229 Zn211 1.953 . S
O229 C223 1.298 . S
O230 Zn231 1.953 . S
O230 C246 1.225 . S
Zn231 O230 1.953 . S
Zn231 O232 1.949 . S
Zn231 O238 1.919 . S
Zn231 O243 1.924 . S
O232 Zn231 1.949 . S
O232 Zn233 1.923 . S
O232 Zn234 1.950 . S
O232 Zn235 1.945 . S
Zn233 O232 1.923 . S
Zn233 O236 1.933 . S
Zn233 O239 1.941 . S
Zn233 O240 1.965 . S
Zn234 O232 1.950 . S
Zn234 O241 1.938 . S
Zn234 O242 1.906 . S
Zn234 O252 1.953 . S
Zn235 O232 1.945 . S
Zn235 O237 1.932 . S
Zn235 O244 1.977 . S
Zn235 O245 1.910 . S
O236 Zn233 1.933 . S
O236 C247 1.226 . S
O237 Zn235 1.932 . S
O237 C247 1.307 . S
O238 Zn231 1.919 . S
O238 C249 1.253 . S
O239 Zn233 1.941 . S
O239 C249 1.283 . S
O240 Zn233 1.965 . S
O240 C248 1.303 . S
O241 Zn234 1.938 . S
O241 C248 1.247 . S
O242 Zn234 1.906 . S
O242 C250 1.304 . S
O243 Zn231 1.924 . S
O243 C251 1.311 . S
O244 Zn235 1.977 . S
O244 C250 1.272 . S
O245 Zn235 1.910 . S
O245 C251 1.231 . S
C246 O230 1.225 . S
C246 O252 1.298 . S
C247 O236 1.226 . S
C247 O237 1.307 . S
C248 O240 1.303 . S
C248 O241 1.247 . S
C249 O238 1.253 . S
C249 O239 1.283 . S
C250 O242 1.304 . S
C250 O244 1.272 . S
C251 O243 1.311 . S
C251 O245 1.231 . S
O252 Zn234 1.953 . S
O252 C246 1.298 . S
O253 Zn254 1.953 1_556 S
O253 C269 1.225 . S
Zn254 O253 1.953 1_554 S
Zn254 O255 1.949 . S
Zn254 O261 1.919 . S
Zn254 O266 1.924 . S
O255 Zn254 1.949 . S
O255 Zn256 1.923 . S
O255 Zn257 1.950 . S
O255 Zn258 1.945 . S
Zn256 O255 1.923 . S
Zn256 O259 1.933 . S
Zn256 O262 1.941 . S
Zn256 O263 1.965 1_554 S
Zn257 O255 1.950 . S
Zn257 O264 1.938 1_554 S
Zn257 O265 1.906 . S
Zn257 O275 1.953 1_554 S
Zn258 O255 1.945 . S
Zn258 O260 1.932 . S
Zn258 O267 1.977 . S
Zn258 O268 1.910 . S
O259 Zn256 1.933 . S
O259 C270 1.226 . S
O260 Zn258 1.932 . S
O260 C270 1.307 . S
O261 Zn254 1.919 . S
O261 C272 1.253 . S
O262 Zn256 1.941 . S
O262 C272 1.283 . S
O263 Zn256 1.965 1_556 S
O263 C271 1.303 . S
O264 Zn257 1.938 1_556 S
O264 C271 1.247 . S
O265 Zn257 1.906 . S
O265 C273 1.304 . S
O266 Zn254 1.924 . S
O266 C274 1.311 . S
O267 Zn258 1.977 . S
O267 C273 1.272 . S
O268 Zn258 1.910 . S
O268 C274 1.231 . S
C269 O253 1.225 . S
C269 O275 1.298 . S
C270 O259 1.226 . S
C270 O260 1.307 . S
C271 O263 1.303 . S
C271 O264 1.247 . S
C272 O261 1.253 . S
C272 O262 1.283 . S
C273 O265 1.304 . S
C273 O267 1.272 . S
C274 O266 1.311 . S
C274 O268 1.231 . S
O275 Zn257 1.953 1_556 S
O275 C269 1.298 . S
C276 C277 1.363 . S
C276 C282 1.379 . S
C276 N284 1.356 . S
C277 C276 1.363 . S
C277 C283 1.363 . S
C278 C279 1.363 . S
C278 C283 1.379 . S
C278 N285 1.356 . S
C279 C278 1.363 . S
C279 C282 1.363 . S
N280 C282 1.356 . S
N280 H292 0.984 . S
N280 H293 0.985 . S
N281 C283 1.356 . S
N281 H286 0.984 . S
N281 H287 0.985 . S
C282 C276 1.379 . S
C282 C279 1.363 . S
C282 N280 1.356 . S
C283 C277 1.363 . S
C283 C278 1.379 . S
C283 N281 1.356 . S
N284 C276 1.356 . S
N284 H290 0.984 . S
N284 H291 0.984 . S
N285 C278 1.356 . S
N285 H288 0.984 . S
N285 H289 0.985 1_554 S
H286 N281 0.984 . S
H287 N281 0.985 . S
H288 N285 0.984 . S
H289 N285 0.985 1_556 S
H290 N284 0.984 . S
H291 N284 0.984 . S
H292 N280 0.984 . S
H293 N280 0.985 . S
C294 C295 1.363 . S
C294 C300 1.379 . S
C294 N302 1.356 . S
C295 C294 1.363 . S
C295 C301 1.363 . S
C296 C297 1.363 . S
C296 C301 1.379 . S
C296 N303 1.356 . S
C297 C296 1.363 . S
C297 C300 1.363 . S
N298 C300 1.356 . S
N298 H310 0.984 . S
N298 H311 0.985 . S
N299 C301 1.356 . S
N299 H304 0.984 . S
N299 H305 0.985 . S
C300 C294 1.379 . S
C300 C297 1.363 . S
C300 N298 1.356 . S
C301 C295 1.363 . S
C301 C296 1.379 . S
C301 N299 1.356 . S
N302 C294 1.356 . S
N302 H308 0.984 . S
N302 H309 0.984 . S
N303 C296 1.356 . S
N303 H306 0.984 . S
N303 H307 0.985 . S
H304 N299 0.984 . S
H305 N299 0.985 . S
H306 N303 0.984 . S
H307 N303 0.985 . S
H308 N302 0.984 . S
H309 N302 0.984 . S
H310 N298 0.984 . S
H311 N298 0.985 . S
C312 C313 1.363 . S
C312 C318 1.379 . S
C312 N320 1.356 . S
C313 C312 1.363 . S
C313 C319 1.363 . S
C314 C315 1.363 . S
C314 C319 1.379 . S
C314 N321 1.356 . S
C315 C314 1.363 . S
C315 C318 1.363 . S
N316 C318 1.356 . S
N316 H328 0.984 . S
N316 H329 0.985 . S
N317 C319 1.356 . S
N317 H322 0.984 . S
N317 H323 0.985 . S
C318 C312 1.379 . S
C318 C315 1.363 . S
C318 N316 1.356 . S
C319 C313 1.363 . S
C319 C314 1.379 . S
C319 N317 1.356 . S
N320 C312 1.356 . S
N320 H326 0.984 . S
N320 H327 0.984 . S
N321 C314 1.356 . S
N321 H324 0.984 . S
N321 H325 0.985 . S
H322 N317 0.984 . S
H323 N317 0.985 . S
H324 N321 0.984 . S
H325 N321 0.985 . S
H326 N320 0.984 . S
H327 N320 0.984 . S
H328 N316 0.984 . S
H329 N316 0.985 . S
C330 C331 1.363 . S
C330 C336 1.379 . S
C330 N338 1.356 . S
C331 C330 1.363 . S
C331 C337 1.363 . S
C332 C333 1.363 . S
C332 C337 1.379 . S
C332 N339 1.356 . S
C333 C332 1.363 . S
C333 C336 1.363 . S
N334 C336 1.356 . S
N334 H346 0.984 . S
N334 H347 0.985 . S
N335 C337 1.356 . S
N335 H340 0.984 . S
N335 H341 0.985 . S
C336 C330 1.379 . S
C336 C333 1.363 . S
C336 N334 1.356 . S
C337 C331 1.363 . S
C337 C332 1.379 . S
C337 N335 1.356 . S
N338 C330 1.356 . S
N338 H344 0.984 . S
N338 H345 0.984 . S
N339 C332 1.356 . S
N339 H342 0.984 . S
N339 H343 0.985 . S
H340 N335 0.984 . S
H341 N335 0.985 . S
H342 N339 0.984 . S
H343 N339 0.985 . S
H344 N338 0.984 . S
H345 N338 0.984 . S
H346 N334 0.984 . S
H347 N334 0.985 . S
C348 C349 1.363 . S
C348 C354 1.379 . S
C348 N356 1.356 . S
C349 C348 1.363 . S
C349 C355 1.363 . S
C350 C351 1.363 . S
C350 C355 1.379 . S
C350 N357 1.356 . S
C351 C350 1.363 . S
C351 C354 1.363 . S
N352 C354 1.356 . S
N352 H364 0.984 . S
N352 H365 0.985 . S
N353 C355 1.356 . S
N353 H358 0.984 . S
N353 H359 0.985 . S
C354 C348 1.379 . S
C354 C351 1.363 . S
C354 N352 1.356 . S
C355 C349 1.363 . S
C355 C350 1.379 . S
C355 N353 1.356 . S
N356 C348 1.356 . S
N356 H362 0.984 . S
N356 H363 0.984 . S
N357 C350 1.356 . S
N357 H360 0.984 . S
N357 H361 0.985 . S
H358 N353 0.984 . S
H359 N353 0.985 . S
H360 N357 0.984 . S
H361 N357 0.985 . S
H362 N356 0.984 . S
H363 N356 0.984 . S
H364 N352 0.984 . S
H365 N352 0.985 . S
C366 C367 1.363 . S
C366 C372 1.379 . S
C366 N374 1.356 . S
C367 C366 1.363 . S
C367 C373 1.363 . S
C368 C369 1.363 . S
C368 C373 1.379 . S
C368 N375 1.356 . S
C369 C368 1.363 . S
C369 C372 1.363 . S
N370 C372 1.356 . S
N370 H382 0.984 . S
N370 H383 0.985 . S
N371 C373 1.356 . S
N371 H376 0.984 . S
N371 H377 0.985 . S
C372 C366 1.379 . S
C372 C369 1.363 . S
C372 N370 1.356 . S
C373 C367 1.363 . S
C373 C368 1.379 . S
C373 N371 1.356 . S
N374 C366 1.356 . S
N374 H380 0.984 . S
N374 H381 0.984 . S
N375 C368 1.356 . S
N375 H378 0.984 . S
N375 H379 0.985 . S
H376 N371 0.984 . S
H377 N371 0.985 . S
H378 N375 0.984 . S
H379 N375 0.985 . S
H380 N374 0.984 . S
H381 N374 0.984 . S
H382 N370 0.984 . S
H383 N370 0.985 . S
C384 C385 1.363 . S
C384 C390 1.379 1_556 S
C384 N392 1.356 . S
C385 C384 1.363 . S
C385 C391 1.363 . S
C386 C387 1.363 . S
C386 C391 1.379 1_554 S
C386 N393 1.356 . S
C387 C386 1.363 . S
C387 C390 1.363 . S
N388 C390 1.356 . S
N388 H400 0.984 . S
N388 H401 0.985 . S
N389 C391 1.356 . S
N389 H394 0.984 . S
N389 H395 0.985 . S
C390 C384 1.379 1_554 S
C390 C387 1.363 . S
C390 N388 1.356 . S
C391 C385 1.363 . S
C391 C386 1.379 1_556 S
C391 N389 1.356 . S
N392 C384 1.356 . S
N392 H398 0.984 1_556 S
N392 H399 0.984 . S
N393 C386 1.356 . S
N393 H396 0.984 . S
N393 H397 0.985 1_554 S
H394 N389 0.984 . S
H395 N389 0.985 . S
H396 N393 0.984 . S
H397 N393 0.985 1_556 S
H398 N392 0.984 1_554 S
H399 N392 0.984 . S
H400 N388 0.984 . S
H401 N388 0.985 . S
C402 C403 1.363 . S
C402 C408 1.379 . S
C402 N410 1.356 . S
C403 C402 1.363 . S
C403 C409 1.363 . S
C404 C405 1.363 . S
C404 C409 1.379 . S
C404 N411 1.356 . S
C405 C404 1.363 . S
C405 C408 1.363 . S
N406 C408 1.356 . S
N406 H418 0.984 . S
N406 H419 0.985 . S
N407 C409 1.356 . S
N407 H412 0.984 . S
N407 H413 0.985 . S
C408 C402 1.379 . S
C408 C405 1.363 . S
C408 N406 1.356 . S
C409 C403 1.363 . S
C409 C404 1.379 . S
C409 N407 1.356 . S
N410 C402 1.356 . S
N410 H416 0.984 . S
N410 H417 0.984 . S
N411 C404 1.356 . S
N411 H414 0.984 . S
N411 H415 0.985 . S
H412 N407 0.984 . S
H413 N407 0.985 . S
H414 N411 0.984 . S
H415 N411 0.985 . S
H416 N410 0.984 . S
H417 N410 0.984 . S
H418 N406 0.984 . S
H419 N406 0.985 . S
C420 C421 1.363 . S
C420 C426 1.379 . S
C420 N428 1.356 . S
C421 C420 1.363 . S
C421 C427 1.363 . S
C422 C423 1.363 . S
C422 C427 1.379 . S
C422 N429 1.356 . S
C423 C422 1.363 . S
C423 C426 1.363 . S
N424 C426 1.356 . S
N424 H436 0.984 . S
N424 H437 0.985 . S
N425 C427 1.356 . S
N425 H430 0.984 . S
N425 H431 0.985 . S
C426 C420 1.379 . S
C426 C423 1.363 . S
C426 N424 1.356 . S
C427 C421 1.363 . S
C427 C422 1.379 . S
C427 N425 1.356 . S
N428 C420 1.356 . S
N428 H434 0.984 . S
N428 H435 0.984 . S
N429 C422 1.356 . S
N429 H432 0.984 . S
N429 H433 0.985 . S
H430 N425 0.984 . S
H431 N425 0.985 . S
H432 N429 0.984 . S
H433 N429 0.985 . S
H434 N428 0.984 . S
H435 N428 0.984 . S
H436 N424 0.984 . S
H437 N424 0.985 . S
C438 C439 1.363 . S
C438 C444 1.379 1_556 S
C438 N446 1.356 . S
C439 C438 1.363 . S
C439 C445 1.363 . S
C440 C441 1.363 . S
C440 C445 1.379 1_554 S
C440 N447 1.356 . S
C441 C440 1.363 . S
C441 C444 1.363 . S
N442 C444 1.356 . S
N442 H454 0.984 . S
N442 H455 0.985 . S
N443 C445 1.356 . S
N443 H448 0.984 . S
N443 H449 0.985 . S
C444 C438 1.379 1_554 S
C444 C441 1.363 . S
C444 N442 1.356 . S
C445 C439 1.363 . S
C445 C440 1.379 1_556 S
C445 N443 1.356 . S
N446 C438 1.356 . S
N446 H452 0.984 1_556 S
N446 H453 0.984 . S
N447 C440 1.356 . S
N447 H450 0.984 . S
N447 H451 0.985 1_554 S
H448 N443 0.984 . S
H449 N443 0.985 . S
H450 N447 0.984 . S
H451 N447 0.985 1_556 S
H452 N446 0.984 1_554 S
H453 N446 0.984 . S
H454 N442 0.984 . S
H455 N442 0.985 . S
C456 C457 1.363 . S
C456 C462 1.379 . S
C456 N464 1.356 . S
C457 C456 1.363 . S
C457 C463 1.363 . S
C458 C459 1.363 . S
C458 C463 1.379 . S
C458 N465 1.356 . S
C459 C458 1.363 . S
C459 C462 1.363 . S
N460 C462 1.356 . S
N460 H472 0.984 . S
N460 H473 0.985 . S
N461 C463 1.356 . S
N461 H466 0.984 . S
N461 H467 0.985 . S
C462 C456 1.379 . S
C462 C459 1.363 . S
C462 N460 1.356 . S
C463 C457 1.363 . S
C463 C458 1.379 . S
C463 N461 1.356 . S
N464 C456 1.356 . S
N464 H470 0.984 . S
N464 H471 0.984 . S
N465 C458 1.356 . S
N465 H468 0.984 . S
N465 H469 0.985 . S
H466 N461 0.984 . S
H467 N461 0.985 . S
H468 N465 0.984 . S
H469 N465 0.985 . S
H470 N464 0.984 . S
H471 N464 0.984 . S
H472 N460 0.984 . S
H473 N460 0.985 . S
C474 C475 1.363 . S
C474 C480 1.379 . S
C474 N482 1.356 . S
C475 C474 1.363 . S
C475 C481 1.363 . S
C476 C477 1.363 . S
C476 C481 1.379 . S
C476 N483 1.356 . S
C477 C476 1.363 . S
C477 C480 1.363 . S
N478 C480 1.356 . S
N478 H490 0.984 . S
N478 H491 0.985 . S
N479 C481 1.356 . S
N479 H484 0.984 . S
N479 H485 0.985 . S
C480 C474 1.379 . S
C480 C477 1.363 . S
C480 N478 1.356 . S
C481 C475 1.363 . S
C481 C476 1.379 . S
C481 N479 1.356 . S
N482 C474 1.356 . S
N482 H488 0.984 . S
N482 H489 0.984 . S
N483 C476 1.356 . S
N483 H486 0.984 . S
N483 H487 0.985 . S
H484 N479 0.984 . S
H485 N479 0.985 . S
H486 N483 0.984 . S
H487 N483 0.985 . S
H488 N482 0.984 . S
H489 N482 0.984 . S
H490 N478 0.984 . S
H491 N478 0.985 . S
C492 C493 1.363 . S
C492 C498 1.379 1_556 S
C492 N500 1.356 . S
C493 C492 1.363 . S
C493 C499 1.363 1_565 S
C494 C495 1.363 . S
C494 C499 1.379 1_554 S
C494 N501 1.356 . S
C495 C494 1.363 . S
C495 C498 1.363 1_545 S
N496 C498 1.356 . S
N496 H508 0.984 . S
N496 H509 0.977 1_565 S
N497 C499 1.356 . S
N497 H502 0.978 1_545 S
N497 H503 0.985 . S
C498 C492 1.379 1_554 S
C498 C495 1.363 1_565 S
C498 N496 1.356 . S
C499 C493 1.363 1_545 S
C499 C494 1.379 1_556 S
C499 N497 1.356 . S
N500 C492 1.356 . S
N500 H506 0.984 . S
N500 H507 0.984 . S
N501 C494 1.356 . S
N501 H504 0.984 . S
N501 H505 0.985 . S
H502 N497 0.978 1_565 S
H503 N497 0.985 . S
H504 N501 0.984 . S
H505 N501 0.985 . S
H506 N500 0.984 . S
H507 N500 0.984 . S
H508 N496 0.984 . S
H509 N496 0.977 1_545 S
C510 C511 1.363 . S
C510 C516 1.379 . S
C510 N518 1.356 . S
C511 C510 1.363 . S
C511 C517 1.363 . S
C512 C513 1.363 . S
C512 C517 1.379 . S
C512 N519 1.356 . S
C513 C512 1.363 . S
C513 C516 1.363 . S
N514 C516 1.356 . S
N514 H526 0.984 . S
N514 H527 0.985 . S
N515 C517 1.356 . S
N515 H520 0.984 . S
N515 H521 0.985 . S
C516 C510 1.379 . S
C516 C513 1.363 . S
C516 N514 1.356 . S
C517 C511 1.363 . S
C517 C512 1.379 . S
C517 N515 1.356 . S
N518 C510 1.356 . S
N518 H524 0.984 . S
N518 H525 0.984 . S
N519 C512 1.356 . S
N519 H522 0.984 . S
N519 H523 0.985 . S
H520 N515 0.984 . S
H521 N515 0.985 . S
H522 N519 0.984 . S
H523 N519 0.985 . S
H524 N518 0.984 . S
H525 N518 0.984 . S
H526 N514 0.984 . S
H527 N514 0.985 . S
C528 C529 1.363 . S
C528 C534 1.379 . S
C528 N536 1.356 . S
C529 C528 1.363 . S
C529 C535 1.363 1_455 S
C530 C531 1.363 . S
C530 C535 1.379 . S
C530 N537 1.356 . S
C531 C530 1.363 . S
C531 C534 1.363 1_655 S
N532 C534 1.356 . S
N532 H544 0.984 . S
N532 H545 0.985 . S
N533 C535 1.356 . S
N533 H538 0.984 . S
N533 H539 0.985 . S
C534 C528 1.379 . S
C534 C531 1.363 1_455 S
C534 N532 1.356 . S
C535 C529 1.363 1_655 S
C535 C530 1.379 . S
C535 N533 1.356 . S
N536 C528 1.356 . S
N536 H542 0.984 . S
N536 H543 0.984 . S
N537 C530 1.356 . S
N537 H540 0.984 . S
N537 H541 0.985 . S
H538 N533 0.984 . S
H539 N533 0.985 . S
H540 N537 0.984 . S
H541 N537 0.985 . S
H542 N536 0.984 . S
H543 N536 0.984 . S
H544 N532 0.984 . S
H545 N532 0.985 . S
C546 C547 1.363 1_545 S
C546 C552 1.379 1_554 S
C546 N554 1.356 . S
C547 C546 1.363 1_565 S
C547 C553 1.363 . S
C548 C549 1.363 1_565 S
C548 C553 1.379 1_556 S
C548 N555 1.356 . S
C549 C548 1.363 1_545 S
C549 C552 1.363 . S
N550 C552 1.356 . S
N550 H562 0.984 . S
N550 H563 0.985 . S
N551 C553 1.356 . S
N551 H556 0.984 . S
N551 H557 0.985 . S
C552 C546 1.379 1_556 S
C552 C549 1.363 . S
C552 N550 1.356 . S
C553 C547 1.363 . S
C553 C548 1.379 1_554 S
C553 N551 1.356 . S
N554 C546 1.356 . S
N554 H560 0.984 . S
N554 H561 0.984 1_545 S
N555 C548 1.356 . S
N555 H558 0.984 1_565 S
N555 H559 0.985 . S
H556 N551 0.984 . S
H557 N551 0.985 . S
H558 N555 0.984 1_545 S
H559 N555 0.985 . S
H560 N554 0.984 . S
H561 N554 0.984 1_565 S
H562 N550 0.984 . S
H563 N550 0.985 . S
C564 C565 1.363 . S
C564 C570 1.379 . S
C564 N572 1.356 . S
C565 C564 1.363 . S
C565 C571 1.363 . S
C566 C567 1.363 . S
C566 C571 1.379 . S
C566 N573 1.356 . S
C567 C566 1.363 . S
C567 C570 1.363 . S
N568 C570 1.356 . S
N568 H580 0.984 . S
N568 H581 0.985 . S
N569 C571 1.356 . S
N569 H574 0.984 . S
N569 H575 0.985 . S
C570 C564 1.379 . S
C570 C567 1.363 . S
C570 N568 1.356 . S
C571 C565 1.363 . S
C571 C566 1.379 . S
C571 N569 1.356 . S
N572 C564 1.356 . S
N572 H578 0.984 . S
N572 H579 0.984 . S
N573 C566 1.356 . S
N573 H576 0.984 . S
N573 H577 0.985 . S
H574 N569 0.984 . S
H575 N569 0.985 . S
H576 N573 0.984 . S
H577 N573 0.985 . S
H578 N572 0.984 . S
H579 N572 0.984 . S
H580 N568 0.984 . S
H581 N568 0.985 . S
C582 C583 1.363 . S
C582 C588 1.379 1_455 S
C582 N590 1.356 . S
C583 C582 1.363 . S
C583 C589 1.363 . S
C584 C585 1.363 . S
C584 C589 1.379 1_655 S
C584 N591 1.356 . S
C585 C584 1.363 . S
C585 C588 1.363 . S
N586 C588 1.356 . S
N586 H598 0.984 . S
N586 H599 0.985 . S
N587 C589 1.356 . S
N587 H592 0.984 . S
N587 H593 0.985 . S
C588 C582 1.379 1_655 S
C588 C585 1.363 . S
C588 N586 1.356 . S
C589 C583 1.363 . S
C589 C584 1.379 1_455 S
C589 N587 1.356 . S
N590 C582 1.356 . S
N590 H596 0.984 . S
N590 H597 0.984 . S
N591 C584 1.356 . S
N591 H594 0.984 . S
N591 H595 0.985 . S
H592 N587 0.984 . S
H593 N587 0.985 . S
H594 N591 0.984 . S
H595 N591 0.985 . S
H596 N590 0.984 . S
H597 N590 0.984 . S
H598 N586 0.984 . S
H599 N586 0.985 . S
C600 C601 1.363 . S
C600 C606 1.379 1_545 S
C600 N608 1.356 . S
C601 C600 1.363 . S
C601 C607 1.363 . S
C602 C603 1.363 . S
C602 C607 1.379 1_565 S
C602 N609 1.356 . S
C603 C602 1.363 . S
C603 C606 1.363 . S
N604 C606 1.356 . S
N604 H616 0.984 . S
N604 H617 0.985 . S
N605 C607 1.356 . S
N605 H610 0.984 . S
N605 H611 0.985 . S
C606 C600 1.379 1_565 S
C606 C603 1.363 . S
C606 N604 1.356 . S
C607 C601 1.363 . S
C607 C602 1.379 1_545 S
C607 N605 1.356 . S
N608 C600 1.356 . S
N608 H614 0.984 . S
N608 H615 0.984 . S
N609 C602 1.356 . S
N609 H612 0.984 . S
N609 H613 0.985 . S
H610 N605 0.984 . S
H611 N605 0.985 . S
H612 N609 0.984 . S
H613 N609 0.985 . S
H614 N608 0.984 . S
H615 N608 0.984 . S
H616 N604 0.984 . S
H617 N604 0.985 . S
C618 C619 1.363 . S
C618 C624 1.379 . S
C618 N626 1.356 . S
C619 C618 1.363 . S
C619 C625 1.363 . S
C620 C621 1.363 . S
C620 C625 1.379 . S
C620 N627 1.356 . S
C621 C620 1.363 . S
C621 C624 1.363 . S
N622 C624 1.356 . S
N622 H634 0.984 . S
N622 H635 0.985 . S
N623 C625 1.356 . S
N623 H628 0.984 . S
N623 H629 0.985 . S
C624 C618 1.379 . S
C624 C621 1.363 . S
C624 N622 1.356 . S
C625 C619 1.363 . S
C625 C620 1.379 . S
C625 N623 1.356 . S
N626 C618 1.356 . S
N626 H632 0.984 . S
N626 H633 0.984 . S
N627 C620 1.356 . S
N627 H630 0.984 . S
N627 H631 0.985 . S
H628 N623 0.984 . S
H629 N623 0.985 . S
H630 N627 0.984 . S
H631 N627 0.985 . S
H632 N626 0.984 . S
H633 N626 0.984 . S
H634 N622 0.984 . S
H635 N622 0.985 . S
C636 C637 1.363 . S
C636 C642 1.379 1_655 S
C636 N644 1.356 . S
C637 C636 1.363 . S
C637 C643 1.363 . S
C638 C639 1.363 . S
C638 C643 1.379 1_455 S
C638 N645 1.356 . S
C639 C638 1.363 . S
C639 C642 1.363 . S
N640 C642 1.356 . S
N640 H652 0.984 1_556 S
N640 H653 0.985 . S
N641 C643 1.356 . S
N641 H646 0.984 . S
N641 H647 0.985 . S
C642 C636 1.379 1_455 S
C642 C639 1.363 . S
C642 N640 1.356 . S
C643 C637 1.363 . S
C643 C638 1.379 1_655 S
C643 N641 1.356 . S
N644 C636 1.356 . S
N644 H650 0.984 1_556 S
N644 H651 0.984 . S
N645 C638 1.356 . S
N645 H648 0.984 . S
N645 H649 0.985 . S
H646 N641 0.984 . S
H647 N641 0.985 . S
H648 N645 0.984 . S
H649 N645 0.985 . S
H650 N644 0.984 1_554 S
H651 N644 0.984 . S
H652 N640 0.984 1_554 S
H653 N640 0.985 . S
C654 C655 1.363 . S
C654 C660 1.379 1_455 S
C654 N662 1.356 . S
C655 C654 1.363 . S
C655 C661 1.363 . S
C656 C657 1.363 . S
C656 C661 1.379 1_655 S
C656 N663 1.356 . S
C657 C656 1.363 . S
C657 C660 1.363 . S
N658 C660 1.356 . S
N658 H670 0.984 . S
N658 H671 0.985 . S
N659 C661 1.356 . S
N659 H664 0.984 . S
N659 H665 0.985 . S
C660 C654 1.379 1_655 S
C660 C657 1.363 . S
C660 N658 1.356 . S
C661 C655 1.363 . S
C661 C656 1.379 1_455 S
C661 N659 1.356 . S
N662 C654 1.356 . S
N662 H668 0.984 . S
N662 H669 0.984 . S
N663 C656 1.356 . S
N663 H666 0.984 . S
N663 H667 0.985 . S
H664 N659 0.984 . S
H665 N659 0.985 . S
H666 N663 0.984 . S
H667 N663 0.985 . S
H668 N662 0.984 . S
H669 N662 0.984 . S
H670 N658 0.984 . S
H671 N658 0.985 . S
C672 C673 1.363 . S
C672 C678 1.379 1_565 S
C672 N680 1.356 . S
C673 C672 1.363 . S
C673 C679 1.363 . S
C674 C675 1.363 . S
C674 C679 1.379 1_545 S
C674 N681 1.356 . S
C675 C674 1.363 . S
C675 C678 1.363 . S
N676 C678 1.356 . S
N676 H688 0.984 . S
N676 H689 0.985 . S
N677 C679 1.356 . S
N677 H682 0.984 . S
N677 H683 0.985 . S
C678 C672 1.379 1_545 S
C678 C675 1.363 . S
C678 N676 1.356 . S
C679 C673 1.363 . S
C679 C674 1.379 1_565 S
C679 N677 1.356 . S
N680 C672 1.356 . S
N680 H686 0.984 . S
N680 H687 0.984 . S
N681 C674 1.356 . S
N681 H684 0.984 . S
N681 H685 0.985 . S
H682 N677 0.984 . S
H683 N677 0.985 . S
H684 N681 0.984 . S
H685 N681 0.985 . S
H686 N680 0.984 . S
H687 N680 0.984 . S
H688 N676 0.984 . S
H689 N676 0.985 . S
C690 C691 1.363 . S
C690 C696 1.379 . S
C690 N698 1.356 . S
C691 C690 1.363 . S
C691 C697 1.363 . S
C692 C693 1.363 . S
C692 C697 1.379 . S
C692 N699 1.356 . S
C693 C692 1.363 . S
C693 C696 1.363 . S
N694 C696 1.356 . S
N694 H706 0.984 1_554 S
N694 H707 0.985 . S
N695 C697 1.356 . S
N695 H700 0.984 . S
N695 H701 0.985 . S
C696 C690 1.379 . S
C696 C693 1.363 . S
C696 N694 1.356 . S
C697 C691 1.363 . S
C697 C692 1.379 . S
C697 N695 1.356 . S
N698 C690 1.356 . S
N698 H704 0.984 1_554 S
N698 H705 0.984 . S
N699 C692 1.356 . S
N699 H702 0.984 . S
N699 H703 0.985 . S
H700 N695 0.984 . S
H701 N695 0.985 . S
H702 N699 0.984 . S
H703 N699 0.985 . S
H704 N698 0.984 1_556 S
H705 N698 0.984 . S
H706 N694 0.984 1_556 S
H707 N694 0.985 . S
C708 C709 1.363 1_545 S
C708 C714 1.379 . S
C708 N716 1.356 . S
C709 C708 1.363 1_565 S
C709 C715 1.363 . S
C710 C711 1.363 1_565 S
C710 C715 1.379 . S
C710 N717 1.356 . S
C711 C710 1.363 1_545 S
C711 C714 1.363 . S
N712 C714 1.356 . S
N712 H724 0.984 . S
N712 H725 0.985 . S
N713 C715 1.356 . S
N713 H718 0.984 . S
N713 H719 0.985 . S
C714 C708 1.379 . S
C714 C711 1.363 . S
C714 N712 1.356 . S
C715 C709 1.363 . S
C715 C710 1.379 . S
C715 N713 1.356 . S
N716 C708 1.356 . S
N716 H722 0.984 . S
N716 H723 0.984 1_545 S
N717 C710 1.356 . S
N717 H720 0.984 1_565 S
N717 H721 0.985 . S
H718 N713 0.984 . S
H719 N713 0.985 . S
H720 N717 0.984 1_545 S
H721 N717 0.985 . S
H722 N716 0.984 . S
H723 N716 0.984 1_565 S
H724 N712 0.984 . S
H725 N712 0.985 . S
C726 C727 1.363 . S
C726 C732 1.379 . S
C726 N734 1.356 . S
C727 C726 1.363 . S
C727 C733 1.363 . S
C728 C729 1.363 . S
C728 C733 1.379 . S
C728 N735 1.356 . S
C729 C728 1.363 . S
C729 C732 1.363 . S
N730 C732 1.356 . S
N730 H742 0.984 . S
N730 H743 0.985 . S
N731 C733 1.356 . S
N731 H736 0.984 . S
N731 H737 0.985 . S
C732 C726 1.379 . S
C732 C729 1.363 . S
C732 N730 1.356 . S
C733 C727 1.363 . S
C733 C728 1.379 . S
C733 N731 1.356 . S
N734 C726 1.356 . S
N734 H740 0.984 . S
N734 H741 0.984 . S
N735 C728 1.356 . S
N735 H738 0.984 . S
N735 H739 0.985 . S
H736 N731 0.984 . S
H737 N731 0.985 . S
H738 N735 0.984 . S
H739 N735 0.985 . S
H740 N734 0.984 . S
H741 N734 0.984 . S
H742 N730 0.984 . S
H743 N730 0.985 . S
C744 C745 1.363 1_455 S
C744 C750 1.379 . S
C744 N752 1.356 . S
C745 C744 1.363 1_655 S
C745 C751 1.363 . S
C746 C747 1.363 1_655 S
C746 C751 1.379 . S
C746 N753 1.356 . S
C747 C746 1.363 1_455 S
C747 C750 1.363 . S
N748 C750 1.356 . S
N748 H760 0.984 . S
N748 H761 0.985 . S
N749 C751 1.356 . S
N749 H754 0.984 . S
N749 H755 0.985 . S
C750 C744 1.379 . S
C750 C747 1.363 . S
C750 N748 1.356 . S
C751 C745 1.363 . S
C751 C746 1.379 . S
C751 N749 1.356 . S
N752 C744 1.356 . S
N752 H758 0.984 . S
N752 H759 0.982 1_454 S
N753 C746 1.356 . S
N753 H756 0.984 1_655 S
N753 H757 0.985 . S
H754 N749 0.984 . S
H755 N749 0.985 . S
H756 N753 0.984 1_455 S
H757 N753 0.985 . S
H758 N752 0.984 . S
H759 N752 0.982 1_656 S
H760 N748 0.984 . S
H761 N748 0.985 . S
C762 C763 1.363 . S
C762 C768 1.379 1_545 S
C762 N770 1.356 . S
C763 C762 1.363 . S
C763 C769 1.363 . S
C764 C765 1.363 . S
C764 C769 1.379 1_565 S
C764 N771 1.356 . S
C765 C764 1.363 . S
C765 C768 1.363 . S
N766 C768 1.356 . S
N766 H778 0.984 . S
N766 H779 0.985 . S
N767 C769 1.356 . S
N767 H772 0.984 . S
N767 H773 0.985 . S
C768 C762 1.379 1_565 S
C768 C765 1.363 . S
C768 N766 1.356 . S
C769 C763 1.363 . S
C769 C764 1.379 1_545 S
C769 N767 1.356 . S
N770 C762 1.356 . S
N770 H776 0.984 . S
N770 H777 0.984 . S
N771 C764 1.356 . S
N771 H774 0.984 . S
N771 H775 0.985 . S
H772 N767 0.984 . S
H773 N767 0.985 . S
H774 N771 0.984 . S
H775 N771 0.985 . S
H776 N770 0.984 . S
H777 N770 0.984 . S
H778 N766 0.984 . S
H779 N766 0.985 . S
C780 C781 1.363 . S
C780 C786 1.379 . S
C780 N788 1.356 . S
C781 C780 1.363 . S
C781 C787 1.363 . S
C782 C783 1.363 . S
C782 C787 1.379 . S
C782 N789 1.356 . S
C783 C782 1.363 . S
C783 C786 1.363 . S
N784 C786 1.356 . S
N784 H796 0.984 . S
N784 H797 0.985 . S
N785 C787 1.356 . S
N785 H790 0.984 . S
N785 H791 0.985 . S
C786 C780 1.379 . S
C786 C783 1.363 . S
C786 N784 1.356 . S
C787 C781 1.363 . S
C787 C782 1.379 . S
C787 N785 1.356 . S
N788 C780 1.356 . S
N788 H794 0.984 . S
N788 H795 0.984 . S
N789 C782 1.356 . S
N789 H792 0.984 . S
N789 H793 0.985 . S
H790 N785 0.984 . S
H791 N785 0.985 . S
H792 N789 0.984 . S
H793 N789 0.985 . S
H794 N788 0.984 . S
H795 N788 0.984 . S
H796 N784 0.984 . S
H797 N784 0.985 . S
C798 C799 1.363 . S
C798 C804 1.379 . S
C798 N806 1.356 . S
C799 C798 1.363 . S
C799 C805 1.363 1_455 S
C800 C801 1.363 . S
C800 C805 1.379 . S
C800 N807 1.356 . S
C801 C800 1.363 . S
C801 C804 1.363 1_655 S
N802 C804 1.356 . S
N802 H814 0.984 . S
N802 H815 0.985 1_455 S
N803 C805 1.356 . S
N803 H808 0.984 1_655 S
N803 H809 0.985 . S
C804 C798 1.379 . S
C804 C801 1.363 1_455 S
C804 N802 1.356 . S
C805 C799 1.363 1_655 S
C805 C800 1.379 . S
C805 N803 1.356 . S
N806 C798 1.356 . S
N806 H812 0.984 . S
N806 H813 0.984 . S
N807 C800 1.356 . S
N807 H810 0.984 . S
N807 H811 0.985 . S
H808 N803 0.984 1_455 S
H809 N803 0.985 . S
H810 N807 0.984 . S
H811 N807 0.985 . S
H812 N806 0.984 . S
H813 N806 0.984 . S
H814 N802 0.984 . S
H815 N802 0.985 1_655 S
C816 C817 1.363 . S
C816 C822 1.379 . S
C816 N824 1.356 . S
C817 C816 1.363 . S
C817 C823 1.363 . S
C818 C819 1.363 . S
C818 C823 1.379 . S
C818 N825 1.356 . S
C819 C818 1.363 . S
C819 C822 1.363 . S
N820 C822 1.356 . S
N820 H832 0.984 . S
N820 H833 0.985 . S
N821 C823 1.356 . S
N821 H826 0.984 . S
N821 H827 0.985 . S
C822 C816 1.379 . S
C822 C819 1.363 . S
C822 N820 1.356 . S
C823 C817 1.363 . S
C823 C818 1.379 . S
C823 N821 1.356 . S
N824 C816 1.356 . S
N824 H830 0.984 . S
N824 H831 0.984 . S
N825 C818 1.356 . S
N825 H828 0.984 . S
N825 H829 0.985 . S
H826 N821 0.984 . S
H827 N821 0.985 . S
H828 N825 0.984 . S
H829 N825 0.985 . S
H830 N824 0.984 . S
H831 N824 0.984 . S
H832 N820 0.984 . S
H833 N820 0.985 . S
C834 C835 1.363 . S
C834 C840 1.379 . S
C834 N842 1.356 . S
C835 C834 1.363 . S
C835 C841 1.363 . S
C836 C837 1.363 . S
C836 C841 1.379 . S
C836 N843 1.356 . S
C837 C836 1.363 . S
C837 C840 1.363 . S
N838 C840 1.356 . S
N838 H850 0.984 . S
N838 H851 0.985 . S
N839 C841 1.356 . S
N839 H844 0.984 . S
N839 H845 0.985 . S
C840 C834 1.379 . S
C840 C837 1.363 . S
C840 N838 1.356 . S
C841 C835 1.363 . S
C841 C836 1.379 . S
C841 N839 1.356 . S
N842 C834 1.356 . S
N842 H848 0.984 . S
N842 H849 0.984 . S
N843 C836 1.356 . S
N843 H846 0.984 . S
N843 H847 0.985 . S
H844 N839 0.984 . S
H845 N839 0.985 . S
H846 N843 0.984 . S
H847 N843 0.985 . S
H848 N842 0.984 . S
H849 N842 0.984 . S
H850 N838 0.984 . S
H851 N838 0.985 . S
C852 C853 1.363 . S
C852 C858 1.379 . S
C852 N860 1.356 . S
C853 C852 1.363 . S
C853 C859 1.363 . S
C854 C855 1.363 . S
C854 C859 1.379 . S
C854 N861 1.356 . S
C855 C854 1.363 . S
C855 C858 1.363 . S
N856 C858 1.356 . S
N856 H868 0.984 . S
N856 H869 0.985 . S
N857 C859 1.356 . S
N857 H862 0.984 . S
N857 H863 0.985 1_554 S
C858 C852 1.379 . S
C858 C855 1.363 . S
C858 N856 1.356 . S
C859 C853 1.363 . S
C859 C854 1.379 . S
C859 N857 1.356 . S
N860 C852 1.356 . S
N860 H866 0.984 . S
N860 H867 0.984 . S
N861 C854 1.356 . S
N861 H864 0.984 . S
N861 H865 0.985 . S
H862 N857 0.984 . S
H863 N857 0.985 1_556 S
H864 N861 0.984 . S
H865 N861 0.985 . S
H866 N860 0.984 . S
H867 N860 0.984 . S
H868 N856 0.984 . S
H869 N856 0.985 . S
C870 C871 1.363 . S
C870 C876 1.379 . S
C870 N878 1.356 . S
C871 C870 1.363 . S
C871 C877 1.363 . S
C872 C873 1.363 . S
C872 C877 1.379 . S
C872 N879 1.356 . S
C873 C872 1.363 . S
C873 C876 1.363 . S
N874 C876 1.356 . S
N874 H886 0.984 . S
N874 H887 0.985 . S
N875 C877 1.356 . S
N875 H880 0.984 . S
N875 H881 0.985 . S
C876 C870 1.379 . S
C876 C873 1.363 . S
C876 N874 1.356 . S
C877 C871 1.363 . S
C877 C872 1.379 . S
C877 N875 1.356 . S
N878 C870 1.356 . S
N878 H884 0.984 . S
N878 H885 0.984 . S
N879 C872 1.356 . S
N879 H882 0.984 . S
N879 H883 0.985 . S
H880 N875 0.984 . S
H881 N875 0.985 . S
H882 N879 0.984 . S
H883 N879 0.985 . S
H884 N878 0.984 . S
H885 N878 0.984 . S
H886 N874 0.984 . S
H887 N874 0.985 . S
C888 C889 1.363 . S
C888 C894 1.379 . S
C888 N896 1.356 . S
C889 C888 1.363 . S
C889 C895 1.363 . S
C890 C891 1.363 . S
C890 C895 1.379 . S
C890 N897 1.356 . S
C891 C890 1.363 . S
C891 C894 1.363 . S
N892 C894 1.356 . S
N892 H904 0.984 . S
N892 H905 0.985 . S
N893 C895 1.356 . S
N893 H898 0.984 . S
N893 H899 0.985 . S
C894 C888 1.379 . S
C894 C891 1.363 . S
C894 N892 1.356 . S
C895 C889 1.363 . S
C895 C890 1.379 . S
C895 N893 1.356 . S
N896 C888 1.356 . S
N896 H902 0.984 . S
N896 H903 0.984 . S
N897 C890 1.356 . S
N897 H900 0.984 . S
N897 H901 0.985 . S
H898 N893 0.984 . S
H899 N893 0.985 . S
H900 N897 0.984 . S
H901 N897 0.985 . S
H902 N896 0.984 . S
H903 N896 0.984 . S
H904 N892 0.984 . S
H905 N892 0.985 . S
C906 C907 1.363 . S
C906 C912 1.379 . S
C906 N914 1.356 . S
C907 C906 1.363 . S
C907 C913 1.363 . S
C908 C909 1.363 . S
C908 C913 1.379 . S
C908 N915 1.356 . S
C909 C908 1.363 . S
C909 C912 1.363 . S
N910 C912 1.356 . S
N910 H922 0.984 . S
N910 H923 0.985 . S
N911 C913 1.356 . S
N911 H916 0.984 . S
N911 H917 0.985 . S
C912 C906 1.379 . S
C912 C909 1.363 . S
C912 N910 1.356 . S
C913 C907 1.363 . S
C913 C908 1.379 . S
C913 N911 1.356 . S
N914 C906 1.356 . S
N914 H920 0.984 . S
N914 H921 0.984 . S
N915 C908 1.356 . S
N915 H918 0.984 . S
N915 H919 0.985 . S
H916 N911 0.984 . S
H917 N911 0.985 . S
H918 N915 0.984 . S
H919 N915 0.985 . S
H920 N914 0.984 . S
H921 N914 0.984 . S
H922 N910 0.984 . S
H923 N910 0.985 . S
C277 C20 0.996 . S
C279 C204 0.996 . S
C295 C43 0.996 . S
C297 C227 0.995 . S
C313 C66 0.995 . S
C315 C250 0.994 . S
C331 C273 0.996 . S
C333 C89 0.996 . S
C349 C112 0.996 . S
C351 C158 0.996 . S
C367 C181 0.995 . S
C369 C135 0.995 . S
C385 C247 1.245 . S
C387 C17 1.245 . S
C403 C270 1.245 . S
C405 C40 1.245 . S
C421 C63 1.245 . S
C423 C155 1.245 . S
C439 C178 1.245 . S
C441 C86 1.245 . S
C457 C201 1.245 . S
C459 C109 1.245 . S
C475 C132 1.245 . S
C477 C224 1.245 . S
C493 C182 1.539 . S
C495 C21 1.539 . S
C511 C205 1.539 . S
C513 C44 1.539 . S
C529 C228 1.539 . S
C531 C67 1.539 . S
C547 C90 1.539 . S
C549 C251 1.539 . S
C565 C113 1.539 . S
C567 C274 1.539 . S
C583 C136 1.539 . S
C585 C159 1.539 . S
C601 C19 0.414 . S
C603 C88 0.414 . S
C619 C42 0.414 . S
C621 C111 0.414 . S
C637 C65 0.414 . S
C639 C134 0.414 . S
C655 C226 0.414 . S
C657 C157 0.414 . S
C673 C180 0.414 . S
C675 C249 0.414 . S
C691 C272 0.414 . S
C693 C203 0.414 . S
C709 C177 1.621 . S
C711 C16 1.621 . S
C727 C200 1.621 . S
C729 C39 1.621 . S
C745 C62 1.621 . S
C747 C223 1.621 . S
C763 C246 1.621 . S
C765 C85 1.621 . S
C781 C269 1.620 . S
C783 C108 1.620 . S
C799 C131 1.621 . S
C801 C154 1.621 . S
C817 C18 1.686 . S
C819 C248 1.686 . S
C835 C41 1.687 . S
C837 C271 1.687 . S
C853 C64 1.687 . S
C855 C156 1.687 . S
C871 C87 1.687 . S
C873 C179 1.687 . S
C889 C110 1.687 . S
C891 C202 1.687 . S
C907 C225 1.687 . S
C909 C133 1.687 . S
