# Generated by pormake.
# Topology umu, (4)-cn, num edge types: 1
# Building blocks:
#     Node 0, Type 0, BuildingBlock: NAHDIM_clean_sbu_0, # of connection points: 4
#     Node 1, Type 0, BuildingBlock: NAHDIM_clean_sbu_0, # of connection points: 4
#     Node 2, Type 0, BuildingBlock: NAHDIM_clean_sbu_0, # of connection points: 4
#     Node 3, Type 0, BuildingBlock: NAHDIM_clean_sbu_0, # of connection points: 4
#     Node 4, Type 0, BuildingBlock: NAHDIM_clean_sbu_0, # of connection points: 4
#     Node 5, Type 0, BuildingBlock: NAHDIM_clean_sbu_0, # of connection points: 4
#     Node 6, Type 0, BuildingBlock: NAHDIM_clean_sbu_0, # of connection points: 4
#     Node 7, Type 0, BuildingBlock: NAHDIM_clean_sbu_0, # of connection points: 4
#     Node 8, Type 0, BuildingBlock: NAHDIM_clean_sbu_0, # of connection points: 4
#     Node 9, Type 0, BuildingBlock: NAHDIM_clean_sbu_0, # of connection points: 4
#     Node 10, Type 0, BuildingBlock: NAHDIM_clean_sbu_0, # of connection points: 4
#     Node 11, Type 0, BuildingBlock: NAHDIM_clean_sbu_0, # of connection points: 4
#     Node 12, Type 0, BuildingBlock: NAHDIM_clean_sbu_0, # of connection points: 4
#     Node 13, Type 0, BuildingBlock: NAHDIM_clean_sbu_0, # of connection points: 4
#     Node 14, Type 0, BuildingBlock: NAHDIM_clean_sbu_0, # of connection points: 4
#     Node 15, Type 0, BuildingBlock: NAHDIM_clean_sbu_0, # of connection points: 4
#     Node 16, Type 0, BuildingBlock: NAHDIM_clean_sbu_0, # of connection points: 4
#     Node 17, Type 0, BuildingBlock: NAHDIM_clean_sbu_0, # of connection points: 4
#     Node 18, Type 0, BuildingBlock: NAHDIM_clean_sbu_0, # of connection points: 4
#     Node 19, Type 0, BuildingBlock: NAHDIM_clean_sbu_0, # of connection points: 4
#     Node 20, Type 0, BuildingBlock: NAHDIM_clean_sbu_0, # of connection points: 4
#     Node 21, Type 0, BuildingBlock: NAHDIM_clean_sbu_0, # of connection points: 4
#     Node 22, Type 0, BuildingBlock: NAHDIM_clean_sbu_0, # of connection points: 4
#     Node 23, Type 0, BuildingBlock: NAHDIM_clean_sbu_0, # of connection points: 4
#     Node 24, Type 0, BuildingBlock: NAHDIM_clean_sbu_0, # of connection points: 4
#     Node 25, Type 0, BuildingBlock: NAHDIM_clean_sbu_0, # of connection points: 4
#     Node 26, Type 0, BuildingBlock: NAHDIM_clean_sbu_0, # of connection points: 4
#     Node 27, Type 0, BuildingBlock: NAHDIM_clean_sbu_0, # of connection points: 4
#     Node 28, Type 0, BuildingBlock: NAHDIM_clean_sbu_0, # of connection points: 4
#     Node 29, Type 0, BuildingBlock: NAHDIM_clean_sbu_0, # of connection points: 4
#     Node 30, Type 0, BuildingBlock: NAHDIM_clean_sbu_0, # of connection points: 4
#     Node 31, Type 0, BuildingBlock: NAHDIM_clean_sbu_0, # of connection points: 4
#     Edge 32, Type (0, 0), BuildingBlock: UVAHIK_clean_linker_0, # of connection points: 2
#     Edge 33, Type (0, 0), BuildingBlock: UVAHIK_clean_linker_0, # of connection points: 2
#     Edge 34, Type (0, 0), BuildingBlock: UVAHIK_clean_linker_0, # of connection points: 2
#     Edge 35, Type (0, 0), BuildingBlock: UVAHIK_clean_linker_0, # of connection points: 2
#     Edge 36, Type (0, 0), BuildingBlock: UVAHIK_clean_linker_0, # of connection points: 2
#     Edge 37, Type (0, 0), BuildingBlock: UVAHIK_clean_linker_0, # of connection points: 2
#     Edge 38, Type (0, 0), BuildingBlock: UVAHIK_clean_linker_0, # of connection points: 2
#     Edge 39, Type (0, 0), BuildingBlock: UVAHIK_clean_linker_0, # of connection points: 2
#     Edge 40, Type (0, 0), BuildingBlock: UVAHIK_clean_linker_0, # of connection points: 2
#     Edge 41, Type (0, 0), BuildingBlock: UVAHIK_clean_linker_0, # of connection points: 2
#     Edge 42, Type (0, 0), BuildingBlock: UVAHIK_clean_linker_0, # of connection points: 2
#     Edge 43, Type (0, 0), BuildingBlock: UVAHIK_clean_linker_0, # of connection points: 2
#     Edge 44, Type (0, 0), BuildingBlock: UVAHIK_clean_linker_0, # of connection points: 2
#     Edge 45, Type (0, 0), BuildingBlock: UVAHIK_clean_linker_0, # of connection points: 2
#     Edge 46, Type (0, 0), BuildingBlock: UVAHIK_clean_linker_0, # of connection points: 2
#     Edge 47, Type (0, 0), BuildingBlock: UVAHIK_clean_linker_0, # of connection points: 2
#     Edge 48, Type (0, 0), BuildingBlock: UVAHIK_clean_linker_0, # of connection points: 2
#     Edge 49, Type (0, 0), BuildingBlock: UVAHIK_clean_linker_0, # of connection points: 2
#     Edge 50, Type (0, 0), BuildingBlock: UVAHIK_clean_linker_0, # of connection points: 2
#     Edge 51, Type (0, 0), BuildingBlock: UVAHIK_clean_linker_0, # of connection points: 2
#     Edge 52, Type (0, 0), BuildingBlock: UVAHIK_clean_linker_0, # of connection points: 2
#     Edge 53, Type (0, 0), BuildingBlock: UVAHIK_clean_linker_0, # of connection points: 2
#     Edge 54, Type (0, 0), BuildingBlock: UVAHIK_clean_linker_0, # of connection points: 2
#     Edge 55, Type (0, 0), BuildingBlock: UVAHIK_clean_linker_0, # of connection points: 2
#     Edge 56, Type (0, 0), BuildingBlock: UVAHIK_clean_linker_0, # of connection points: 2
#     Edge 57, Type (0, 0), BuildingBlock: UVAHIK_clean_linker_0, # of connection points: 2
#     Edge 58, Type (0, 0), BuildingBlock: UVAHIK_clean_linker_0, # of connection points: 2
#     Edge 59, Type (0, 0), BuildingBlock: UVAHIK_clean_linker_0, # of connection points: 2
#     Edge 60, Type (0, 0), BuildingBlock: UVAHIK_clean_linker_0, # of connection points: 2
#     Edge 61, Type (0, 0), BuildingBlock: UVAHIK_clean_linker_0, # of connection points: 2
#     Edge 62, Type (0, 0), BuildingBlock: UVAHIK_clean_linker_0, # of connection points: 2
#     Edge 63, Type (0, 0), BuildingBlock: UVAHIK_clean_linker_0, # of connection points: 2
#     Edge 64, Type (0, 0), BuildingBlock: UVAHIK_clean_linker_0, # of connection points: 2
#     Edge 65, Type (0, 0), BuildingBlock: UVAHIK_clean_linker_0, # of connection points: 2
#     Edge 66, Type (0, 0), BuildingBlock: UVAHIK_clean_linker_0, # of connection points: 2
#     Edge 67, Type (0, 0), BuildingBlock: UVAHIK_clean_linker_0, # of connection points: 2
#     Edge 68, Type (0, 0), BuildingBlock: UVAHIK_clean_linker_0, # of connection points: 2
#     Edge 69, Type (0, 0), BuildingBlock: UVAHIK_clean_linker_0, # of connection points: 2
#     Edge 70, Type (0, 0), BuildingBlock: UVAHIK_clean_linker_0, # of connection points: 2
#     Edge 71, Type (0, 0), BuildingBlock: UVAHIK_clean_linker_0, # of connection points: 2
#     Edge 72, Type (0, 0), BuildingBlock: UVAHIK_clean_linker_0, # of connection points: 2
#     Edge 73, Type (0, 0), BuildingBlock: UVAHIK_clean_linker_0, # of connection points: 2
#     Edge 74, Type (0, 0), BuildingBlock: UVAHIK_clean_linker_0, # of connection points: 2
#     Edge 75, Type (0, 0), BuildingBlock: UVAHIK_clean_linker_0, # of connection points: 2
#     Edge 76, Type (0, 0), BuildingBlock: UVAHIK_clean_linker_0, # of connection points: 2
#     Edge 77, Type (0, 0), BuildingBlock: UVAHIK_clean_linker_0, # of connection points: 2
#     Edge 78, Type (0, 0), BuildingBlock: UVAHIK_clean_linker_0, # of connection points: 2
#     Edge 79, Type (0, 0), BuildingBlock: UVAHIK_clean_linker_0, # of connection points: 2
#     Edge 80, Type (0, 0), BuildingBlock: UVAHIK_clean_linker_0, # of connection points: 2
#     Edge 81, Type (0, 0), BuildingBlock: UVAHIK_clean_linker_0, # of connection points: 2
#     Edge 82, Type (0, 0), BuildingBlock: UVAHIK_clean_linker_0, # of connection points: 2
#     Edge 83, Type (0, 0), BuildingBlock: UVAHIK_clean_linker_0, # of connection points: 2
#     Edge 84, Type (0, 0), BuildingBlock: UVAHIK_clean_linker_0, # of connection points: 2
#     Edge 85, Type (0, 0), BuildingBlock: UVAHIK_clean_linker_0, # of connection points: 2
#     Edge 86, Type (0, 0), BuildingBlock: UVAHIK_clean_linker_0, # of connection points: 2
#     Edge 87, Type (0, 0), BuildingBlock: UVAHIK_clean_linker_0, # of connection points: 2
#     Edge 88, Type (0, 0), BuildingBlock: UVAHIK_clean_linker_0, # of connection points: 2
#     Edge 89, Type (0, 0), BuildingBlock: UVAHIK_clean_linker_0, # of connection points: 2
#     Edge 90, Type (0, 0), BuildingBlock: UVAHIK_clean_linker_0, # of connection points: 2
#     Edge 91, Type (0, 0), BuildingBlock: UVAHIK_clean_linker_0, # of connection points: 2
#     Edge 92, Type (0, 0), BuildingBlock: UVAHIK_clean_linker_0, # of connection points: 2
#     Edge 93, Type (0, 0), BuildingBlock: UVAHIK_clean_linker_0, # of connection points: 2
#     Edge 94, Type (0, 0), BuildingBlock: UVAHIK_clean_linker_0, # of connection points: 2
#     Edge 95, Type (0, 0), BuildingBlock: UVAHIK_clean_linker_0, # of connection points: 2
# Relax obj value: 0.144
# Max RMSD: 0.102
# Mean RMSD: 0.102
data_MOF--net-umu--node1-NAHDIM_clean_sbu_0--edge1-UVAHIK_clean_linker_0
_symmetry_space_group_name_H-M    P1
_symmetry_Int_Tables_number       1
_symmetry_cell_setting            triclinic
loop_
_symmetry_equiv_pos_as_xyz
'x, y, z'
_cell_length_a     112.29822
_cell_length_b     112.29192
_cell_length_c     30.368707
_cell_angle_alpha  89.998382
_cell_angle_beta   89.989131
_cell_angle_gamma 90.007137
loop_
_atom_site_label
_atom_site_type_symbol
_atom_site_fract_x
_atom_site_fract_y
_atom_site_fract_z
_atom_type_partial_charge
C0 C 0.18513 0.14346 0.01791 0.0
O1 O 0.19651 0.14076 0.01801 0.0
O2 O 0.2019 0.16035 0.108 0.0
Zn3 Zn 0.19447 0.1652 0.05051 0.0
O4 O 0.20697 0.16574 0.00332 0.0
C5 C 0.18386 0.18557 0.09354 0.0
O6 O 0.18447 0.17875 0.12861 0.0
O7 O 0.18188 0.15362 0.03185 0.0
C8 C 0.2159 0.17265 0.00564 0.0
O9 O 0.21702 0.17972 0.03987 0.0
C10 C 0.21138 0.1542 0.11029 0.0
O11 O 0.21639 0.15037 0.07385 0.0
O12 O 0.18743 0.18155 0.05671 0.0
C13 C 0.10395 0.93551 0.271 0.0
O14 O 0.1073 0.9467 0.27343 0.0
O15 O 0.09085 0.95505 0.35341 0.0
Zn16 Zn 0.08318 0.94627 0.30286 0.0
O17 O 0.08133 0.95728 0.25127 0.0
C18 C 0.06104 0.94684 0.34849 0.0
O19 O 0.06618 0.95618 0.36634 0.0
O20 O 0.09352 0.93272 0.28342 0.0
C21 C 0.0746 0.95458 0.21918 0.0
O22 O 0.06866 0.9445 0.22026 0.0
C23 C 0.09549 0.96529 0.34829 0.0
O24 O 0.09582 0.97002 0.30876 0.0
O25 O 0.06681 0.94071 0.32049 0.0
C26 C 0.31224 0.8514 0.52343 0.0
O27 O 0.30112 0.85479 0.52827 0.0
O28 O 0.29094 0.83418 0.58607 0.0
Zn29 Zn 0.30145 0.8289 0.53612 0.0
O30 O 0.29177 0.82844 0.48054 0.0
C31 C 0.31003 0.80917 0.588 0.0
O32 O 0.30822 0.81655 0.6209 0.0
O33 O 0.31478 0.84042 0.52683 0.0
C34 C 0.29453 0.82194 0.44786 0.0
O35 O 0.30408 0.81522 0.45005 0.0
C36 C 0.28 0.8313 0.5853 0.0
O37 O 0.27593 0.82507 0.55192 0.0
O38 O 0.30789 0.81261 0.54893 0.0
C39 C 0.39307 0.05888 0.76249 0.0
O40 O 0.39061 0.04747 0.75996 0.0
O41 O 0.40518 0.04047 0.85501 0.0
Zn42 Zn 0.4131 0.04922 0.80504 0.0
O43 O 0.41614 0.03798 0.75495 0.0
C44 C 0.43508 0.04978 0.85147 0.0
O45 O 0.43088 0.03962 0.86624 0.0
O46 O 0.4025 0.06214 0.7822 0.0
C47 C 0.42211 0.04132 0.72165 0.0
O48 O 0.42664 0.05211 0.72103 0.0
C49 C 0.40031 0.03037 0.84919 0.0
O50 O 0.40004 0.02576 0.80945 0.0
O51 O 0.42881 0.05586 0.8249 0.0
C52 C 0.18318 0.8522 0.06305 0.0
O53 O 0.19448 0.8551 0.05974 0.0
O54 O 0.20027 0.83488 0.97799 0.0
Zn55 Zn 0.19254 0.83002 0.03499 0.0
O56 O 0.20483 0.82934 0.08291 0.0
C57 C 0.18208 0.8098 0.99074 0.0
O58 O 0.18292 0.81669 0.95594 0.0
O59 O 0.17997 0.84171 0.05293 0.0
C60 C 0.2135 0.82208 0.08135 0.0
O61 O 0.21442 0.81482 0.0476 0.0
C62 C 0.21003 0.84061 0.97618 0.0
O63 O 0.2152 0.84399 0.0129 0.0
O64 O 0.18542 0.81373 0.02798 0.0
C65 C 0.39311 0.93495 0.3277 0.0
O66 O 0.39017 0.94627 0.32721 0.0
O67 O 0.40618 0.95316 0.23864 0.0
Zn68 Zn 0.4137 0.94501 0.29083 0.0
O69 O 0.41554 0.95644 0.34111 0.0
C70 C 0.43444 0.93976 0.237 0.0
O71 O 0.42812 0.94467 0.20545 0.0
O72 O 0.40314 0.93185 0.31208 0.0
C73 C 0.4228 0.96512 0.34104 0.0
O74 O 0.42951 0.96697 0.30627 0.0
C75 C 0.40119 0.9633 0.24111 0.0
O76 O 0.40056 0.96873 0.27933 0.0
O77 O 0.42995 0.93875 0.27525 0.0
C78 C 0.31402 0.14275 0.55952 0.0
O79 O 0.30299 0.13931 0.55269 0.0
O80 O 0.29258 0.16026 0.4995 0.0
Zn81 Zn 0.30315 0.16535 0.54948 0.0
O82 O 0.29353 0.1657 0.6052 0.0
C83 C 0.31194 0.1852 0.49858 0.0
O84 O 0.31035 0.17788 0.46535 0.0
O85 O 0.31645 0.15379 0.55826 0.0
C86 C 0.2966 0.17188 0.63835 0.0
O87 O 0.30639 0.17826 0.63637 0.0
C88 C 0.28172 0.16345 0.50016 0.0
O89 O 0.27783 0.16987 0.53334 0.0
O90 O 0.30959 0.18168 0.53738 0.0
C91 C 0.10237 0.06258 0.8157 0.0
O92 O 0.10573 0.05148 0.80992 0.0
O93 O 0.08759 0.0436 0.73763 0.0
Zn94 Zn 0.08067 0.05215 0.79022 0.0
O95 O 0.07933 0.04101 0.84174 0.0
C96 C 0.05841 0.05436 0.74379 0.0
O97 O 0.06333 0.0463 0.71826 0.0
O98 O 0.0916 0.06538 0.8082 0.0
C99 C 0.0717 0.03267 0.84352 0.0
O100 O 0.06434 0.03111 0.81041 0.0
C101 C 0.09216 0.03326 0.74018 0.0
O102 O 0.09273 0.02791 0.77856 0.0
O103 O 0.0643 0.05844 0.77621 0.0
C104 C 0.81454 0.84891 0.05988 0.0
O105 O 0.80362 0.85258 0.05224 0.0
O106 O 0.79294 0.832 -0.00105 0.0
Zn107 Zn 0.80322 0.82654 0.04939 0.0
O108 O 0.7934 0.8263 0.10468 0.0
C109 C 0.81167 0.80658 0.99829 0.0
O110 O 0.81004 0.81388 0.96504 0.0
O111 O 0.81673 0.83782 0.05908 0.0
C112 C 0.79624 0.8201 0.13806 0.0
O113 O 0.80594 0.81356 0.13671 0.0
C114 C 0.78187 0.82966 -0.00025 0.0
O115 O 0.77748 0.82377 0.03343 0.0
O116 O 0.80943 0.81014 0.03714 0.0
C117 C 0.88925 0.06007 0.82107 0.0
O118 O 0.88679 0.04869 0.82503 0.0
O119 O 0.9035 0.04154 0.73057 0.0
Zn120 Zn 0.90997 0.05004 0.78387 0.0
O121 O 0.91133 0.03868 0.83457 0.0
C122 C 0.93255 0.05244 0.73971 0.0
O123 O 0.92802 0.04414 0.71427 0.0
O124 O 0.89895 0.06315 0.80277 0.0
C125 C 0.91758 0.02926 0.8334 0.0
O126 O 0.92347 0.02661 0.79733 0.0
C127 C 0.89658 0.0326 0.73314 0.0
O128 O 0.89315 0.0288 0.77202 0.0
O129 O 0.92632 0.05656 0.77118 0.0
C130 C 0.68136 0.14271 0.55883 0.0
O131 O 0.69175 0.13875 0.54538 0.0
O132 O 0.70013 0.16087 0.4857 0.0
Zn133 Zn 0.69245 0.16528 0.54331 0.0
O134 O 0.70473 0.16534 0.5913 0.0
C135 C 0.68172 0.18583 0.50227 0.0
O136 O 0.68152 0.1789 0.46742 0.0
O137 O 0.67949 0.15386 0.55972 0.0
C138 C 0.71367 0.17225 0.58908 0.0
O139 O 0.71481 0.1793 0.55482 0.0
C140 C 0.70969 0.15485 0.48327 0.0
O141 O 0.7146 0.15079 0.51956 0.0
O142 O 0.68578 0.18179 0.53835 0.0
C143 C 0.60275 0.93315 0.31202 0.0
O144 O 0.60627 0.94417 0.30551 0.0
O145 O 0.5874 0.95356 0.2421 0.0
Zn146 Zn 0.58072 0.94403 0.29276 0.0
O147 O 0.57903 0.95396 0.34743 0.0
C148 C 0.56027 0.93818 0.23831 0.0
O149 O 0.56692 0.94232 0.20621 0.0
O150 O 0.5918 0.93062 0.30728 0.0
C151 C 0.57252 0.96319 0.34939 0.0
O152 O 0.5668 0.96675 0.31401 0.0
C153 C 0.59207 0.96383 0.2455 0.0
O154 O 0.59293 0.96887 0.28439 0.0
O155 O 0.56446 0.93779 0.27716 0.0
C156 C 0.81165 0.14489 0.0283 0.0
O157 O 0.80041 0.14203 0.03398 0.0
O158 O 0.79172 0.16284 0.09503 0.0
Zn159 Zn 0.80196 0.16765 0.0437 0.0
O160 O 0.79177 0.16814 0.98944 0.0
C161 C 0.81137 0.18761 0.09268 0.0
O162 O 0.80949 0.18066 0.12677 0.0
O163 O 0.81477 0.15569 0.03271 0.0
C164 C 0.79494 0.17367 0.95488 0.0
O165 O 0.80516 0.17937 0.95453 0.0
C166 C 0.78106 0.16665 0.09586 0.0
O167 O 0.77731 0.17351 0.06368 0.0
O168 O 0.80896 0.18382 0.05429 0.0
C169 C 0.60147 0.0595 0.76343 0.0
O170 O 0.60326 0.04809 0.7566 0.0
O171 O 0.58915 0.04069 0.85684 0.0
Zn172 Zn 0.58159 0.04973 0.80669 0.0
O173 O 0.57833 0.03913 0.75461 0.0
C174 C 0.55976 0.05066 0.85441 0.0
O175 O 0.56411 0.04074 0.87073 0.0
O176 O 0.59249 0.06272 0.7859 0.0
C177 C 0.57462 0.02845 0.75623 0.0
O178 O 0.57269 0.0234 0.79461 0.0
C179 C 0.59577 0.03159 0.85254 0.0
O180 O 0.5984 0.0277 0.81293 0.0
O181 O 0.56589 0.05647 0.82652 0.0
C182 C 0.68568 0.8528 0.51542 0.0
O183 O 0.69711 0.85525 0.5139 0.0
O184 O 0.70239 0.83645 0.60815 0.0
Zn185 Zn 0.6947 0.8313 0.55149 0.0
O186 O 0.70704 0.83004 0.50388 0.0
C187 C 0.68369 0.81169 0.59762 0.0
O188 O 0.6846 0.81885 0.63166 0.0
O189 O 0.68232 0.84295 0.53179 0.0
C190 C 0.71579 0.8229 0.5064 0.0
O191 O 0.71687 0.81605 0.54126 0.0
C192 C 0.71212 0.84221 0.60976 0.0
O193 O 0.71728 0.84553 0.57292 0.0
O194 O 0.68726 0.81521 0.56011 0.0
C195 C 0.89313 0.93422 0.25629 0.0
O196 O 0.89026 0.94551 0.25251 0.0
O197 O 0.90436 0.95268 0.35245 0.0
Zn198 Zn 0.91229 0.94511 0.30002 0.0
O199 O 0.91382 0.95701 0.25106 0.0
C200 C 0.93443 0.94612 0.34488 0.0
O201 O 0.92906 0.9553 0.36287 0.0
O202 O 0.90254 0.93145 0.27714 0.0
C203 C 0.91936 0.95385 0.21649 0.0
O204 O 0.92408 0.94316 0.21479 0.0
C205 C 0.89732 0.9615 0.34939 0.0
O206 O 0.89456 0.96567 0.31029 0.0
O207 O 0.92882 0.93989 0.31675 0.0
C208 C 0.68405 0.64509 0.52377 0.0
O209 O 0.6955 0.64275 0.52535 0.0
O210 O 0.70296 0.66248 0.59862 0.0
Zn211 Zn 0.69297 0.66764 0.54687 0.0
O212 O 0.70297 0.66913 0.49237 0.0
C213 C 0.6829 0.68717 0.59727 0.0
O214 O 0.68486 0.68021 0.63128 0.0
O215 O 0.68047 0.65548 0.53367 0.0
C216 C 0.71057 0.67735 0.48643 0.0
O217 O 0.71226 0.68532 0.51748 0.0
C218 C 0.71338 0.65822 0.59413 0.0
O219 O 0.71785 0.65696 0.55444 0.0
O220 O 0.68549 0.68351 0.55887 0.0
C221 C 0.60114 0.4344 0.77117 0.0
O222 O 0.60399 0.44573 0.77314 0.0
O223 O 0.58756 0.45281 0.85596 0.0
Zn224 Zn 0.58009 0.44429 0.80431 0.0
O225 O 0.5778 0.45515 0.75232 0.0
C226 C 0.55792 0.44336 0.85045 0.0
O227 O 0.56257 0.4527 0.87001 0.0
O228 O 0.5909 0.43116 0.78429 0.0
C229 C 0.57275 0.46527 0.7533 0.0
O230 O 0.56877 0.46949 0.79087 0.0
C231 C 0.59314 0.46263 0.85346 0.0
O232 O 0.59455 0.46778 0.81498 0.0
O233 O 0.56399 0.43791 0.82141 0.0
C234 C 0.81254 0.35439 0.01457 0.0
O235 O 0.80109 0.35682 0.01459 0.0
O236 O 0.79289 0.33716 0.08914 0.0
Zn237 Zn 0.80318 0.33212 0.03826 0.0
O238 O 0.79301 0.3312 0.98406 0.0
C239 C 0.81251 0.31238 0.08886 0.0
O240 O 0.81053 0.31947 0.1225 0.0
O241 O 0.81593 0.34406 0.02596 0.0
C242 C 0.79631 0.32563 0.94977 0.0
O243 O 0.80665 0.32015 0.94972 0.0
C244 C 0.78232 0.33313 0.0902 0.0
O245 O 0.77875 0.32599 0.05857 0.0
O246 O 0.81022 0.31603 0.05017 0.0
C247 C 0.8989 0.56872 0.29392 0.0
O248 O 0.89669 0.56309 0.33092 0.0
O249 O 0.91417 0.54368 0.33965 0.0
Zn250 Zn 0.91973 0.55317 0.28738 0.0
O251 O 0.92147 0.54268 0.23405 0.0
C252 C 0.93867 0.56311 0.34017 0.0
O253 O 0.9311 0.56142 0.37258 0.0
O254 O 0.90813 0.56608 0.27177 0.0
C255 C 0.92333 0.53152 0.23552 0.0
O256 O 0.92433 0.52622 0.27389 0.0
C257 C 0.90516 0.53683 0.33973 0.0
O258 O 0.89876 0.53573 0.30374 0.0
O259 O 0.93563 0.56039 0.30113 0.0
C260 C 0.68384 0.35428 0.56487 0.0
O261 O 0.69504 0.35756 0.56226 0.0
O262 O 0.70146 0.33667 0.48033 0.0
Zn263 Zn 0.6939 0.33219 0.53804 0.0
O264 O 0.70626 0.33213 0.58571 0.0
C265 C 0.68311 0.31154 0.49756 0.0
O266 O 0.68304 0.3183 0.46225 0.0
O267 O 0.68103 0.34367 0.55483 0.0
C268 C 0.71531 0.32538 0.5833 0.0
O269 O 0.71656 0.31839 0.54889 0.0
C270 C 0.71083 0.34298 0.47788 0.0
O271 O 0.7156 0.34721 0.51415 0.0
O272 O 0.68715 0.31571 0.53346 0.0
C273 C 0.8919 0.43552 0.79676 0.0
O274 O 0.88867 0.44672 0.79343 0.0
O275 O 0.90858 0.45539 0.72149 0.0
Zn276 Zn 0.91417 0.44572 0.77349 0.0
O277 O 0.91569 0.45588 0.82763 0.0
C278 C 0.93431 0.43746 0.72175 0.0
O279 O 0.92765 0.44048 0.68801 0.0
O280 O 0.90259 0.43268 0.78798 0.0
C281 C 0.92096 0.46588 0.82855 0.0
O282 O 0.92561 0.47019 0.79217 0.0
C283 C 0.90226 0.46475 0.72437 0.0
O284 O 0.89884 0.46852 0.76331 0.0
O285 O 0.93027 0.43874 0.76056 0.0
C286 C 0.81063 0.64191 0.08444 0.0
O287 O 0.79936 0.64084 0.09533 0.0
O288 O 0.79244 0.65652 0.98755 0.0
Zn289 Zn 0.80136 0.66222 0.04104 0.0
O290 O 0.79028 0.6645 0.09228 0.0
C291 C 0.81105 0.68183 0.98978 0.0
O292 O 0.80846 0.67509 0.95575 0.0
O293 O 0.81377 0.65039 0.0593 0.0
C294 C 0.78296 0.67307 0.09553 0.0
O295 O 0.78225 0.68092 0.06356 0.0
C296 C 0.78177 0.65278 0.9892 0.0
O297 O 0.77633 0.65214 0.02742 0.0
O298 O 0.809 0.678 0.02841 0.0
C299 C 0.60643 0.5603 0.31648 0.0
O300 O 0.60984 0.54912 0.31482 0.0
O301 O 0.59212 0.53962 0.24098 0.0
Zn302 Zn 0.58493 0.54947 0.28978 0.0
O303 O 0.58238 0.53983 0.34475 0.0
C304 C 0.56286 0.55005 0.24249 0.0
O305 O 0.56738 0.5404 0.22458 0.0
O306 O 0.59583 0.56292 0.30565 0.0
C307 C 0.57696 0.52991 0.34569 0.0
O308 O 0.57295 0.52527 0.30884 0.0
C309 C 0.59764 0.52986 0.24663 0.0
O310 O 0.5993 0.52581 0.28674 0.0
O311 O 0.56896 0.55574 0.27079 0.0
C312 C 0.31375 0.35348 0.54368 0.0
O313 O 0.3031 0.35717 0.5322 0.0
O314 O 0.29394 0.3361 0.47475 0.0
Zn315 Zn 0.30294 0.33089 0.52891 0.0
O316 O 0.29208 0.33012 0.58138 0.0
C317 C 0.31202 0.31035 0.48154 0.0
O318 O 0.31011 0.31693 0.44649 0.0
O319 O 0.31597 0.34239 0.54337 0.0
C320 C 0.28435 0.32194 0.58578 0.0
O321 O 0.28327 0.31384 0.55484 0.0
C322 C 0.28341 0.34024 0.47648 0.0
O323 O 0.2782 0.34153 0.51491 0.0
O324 O 0.30979 0.31459 0.51944 0.0
C325 C 0.39358 0.56836 0.28259 0.0
O326 O 0.38908 0.56003 0.25719 0.0
O327 O 0.40745 0.54318 0.23418 0.0
Zn328 Zn 0.41425 0.55289 0.284 0.0
O329 O 0.41476 0.54339 0.34004 0.0
C330 C 0.43716 0.55154 0.24269 0.0
O331 O 0.43237 0.542 0.22495 0.0
O332 O 0.40423 0.56735 0.29623 0.0
C333 C 0.4185 0.53274 0.34256 0.0
O334 O 0.42214 0.5273 0.30671 0.0
C335 C 0.39956 0.53515 0.23858 0.0
O336 O 0.39512 0.53298 0.27779 0.0
O337 O 0.43098 0.55783 0.26895 0.0
C338 C 0.18404 0.6422 0.06201 0.0
O339 O 0.19525 0.63914 0.05681 0.0
O340 O 0.2043 0.66007 0.99627 0.0
Zn341 Zn 0.19395 0.66509 0.04723 0.0
O342 O 0.2035 0.66625 0.10292 0.0
C343 C 0.18416 0.68479 0.99699 0.0
O344 O 0.18595 0.67779 0.96297 0.0
O345 O 0.18113 0.65307 0.05783 0.0
C346 C 0.21072 0.67474 0.11012 0.0
O347 O 0.2122 0.68298 0.0799 0.0
C348 C 0.21476 0.65598 0.00151 0.0
O349 O 0.21904 0.6548 0.04151 0.0
O350 O 0.18675 0.6811 0.03534 0.0
C351 C 0.09976 0.43494 0.82435 0.0
O352 O 0.10182 0.44642 0.82728 0.0
O353 O 0.08477 0.45368 0.73898 0.0
Zn354 Zn 0.07831 0.444 0.78967 0.0
O355 O 0.07541 0.45427 0.8428 0.0
C356 C 0.05914 0.43566 0.73317 0.0
O357 O 0.06617 0.4391 0.70103 0.0
O358 O 0.09001 0.43142 0.80756 0.0
C359 C 0.06995 0.46417 0.8417 0.0
O360 O 0.06599 0.46827 0.80392 0.0
C361 C 0.09039 0.46343 0.74338 0.0
O362 O 0.09249 0.4676 0.78303 0.0
O363 O 0.06266 0.43665 0.77278 0.0
C364 C 0.31167 0.64366 0.51272 0.0
O365 O 0.30024 0.64169 0.50692 0.0
O366 O 0.29387 0.65767 0.60915 0.0
Zn367 Zn 0.30212 0.66387 0.55492 0.0
O368 O 0.29057 0.66551 0.50481 0.0
C369 C 0.31075 0.68421 0.60499 0.0
O370 O 0.3082 0.67765 0.63953 0.0
O371 O 0.31491 0.6527 0.53483 0.0
C372 C 0.28252 0.67343 0.50261 0.0
O373 O 0.28131 0.68107 0.53507 0.0
C374 C 0.28357 0.65299 0.60787 0.0
O375 O 0.2782 0.6517 0.56975 0.0
O376 O 0.30907 0.68001 0.56664 0.0
C377 C 0.10335 0.5594 0.26409 0.0
O378 O 0.10547 0.5479 0.26221 0.0
O379 O 0.08732 0.54145 0.34998 0.0
Zn380 Zn 0.08148 0.55079 0.29763 0.0
O381 O 0.0786 0.54039 0.24485 0.0
C382 C 0.06245 0.56086 0.3512 0.0
O383 O 0.06926 0.55792 0.38466 0.0
O384 O 0.09351 0.56299 0.27983 0.0
C385 C 0.07288 0.53063 0.24517 0.0
O386 O 0.06862 0.5265 0.28247 0.0
C387 C 0.09245 0.53138 0.34782 0.0
O388 O 0.09442 0.52648 0.30922 0.0
O389 O 0.06602 0.55881 0.31223 0.0
C390 C 0.18284 0.35333 0.01995 0.0
O391 O 0.19392 0.35681 0.02533 0.0
O392 O 0.20338 0.33575 0.08752 0.0
Zn393 Zn 0.19344 0.33071 0.03546 0.0
O394 O 0.20345 0.32984 0.98076 0.0
C395 C 0.18372 0.31076 0.08442 0.0
O396 O 0.18499 0.31785 0.11852 0.0
O397 O 0.18033 0.34236 0.02418 0.0
C398 C 0.21116 0.32169 0.97536 0.0
O399 O 0.21272 0.31373 0.00653 0.0
C400 C 0.2137 0.34025 0.0832 0.0
O401 O 0.21801 0.34202 0.04353 0.0
O402 O 0.18659 0.31449 0.04636 0.0
C403 C 0.39061 0.43771 0.75759 0.0
O404 O 0.3891 0.44906 0.74867 0.0
O405 O 0.40334 0.45579 0.85708 0.0
Zn406 Zn 0.41014 0.44754 0.80376 0.0
O407 O 0.41263 0.45886 0.75323 0.0
C408 C 0.4327 0.44654 0.84603 0.0
O409 O 0.42864 0.4565 0.86306 0.0
O410 O 0.39919 0.43462 0.78237 0.0
C411 C 0.41424 0.47004 0.75545 0.0
O412 O 0.41441 0.4753 0.79407 0.0
C413 C 0.39468 0.46307 0.8573 0.0
O414 O 0.38919 0.46558 0.82025 0.0
O415 O 0.42615 0.44074 0.8195 0.0
C416 C 0.12284 0.06838 0.83979 0.0
C417 C 0.11084 0.07146 0.83318 0.0
C418 C 0.13075 0.07652 0.85839 0.0
C419 C 0.1316 0.10286 0.92965 0.0
H420 H 0.1637 0.10628 0.88434 0.0
C421 C 0.16435 0.13851 0.99418 0.0
C422 C 0.17633 0.13513 -0.00107 0.0
C423 C 0.1562 0.13088 0.97391 0.0
C424 C 0.15481 0.10532 0.89771 0.0
H425 H 0.09779 0.08558 0.84015 0.0
H426 H 0.11167 0.09984 0.8726 0.0
H427 H 0.14979 0.09291 0.84756 0.0
H428 H 0.18909 0.12098 0.98716 0.0
H429 H 0.17483 0.1076 0.9525 0.0
H430 H 0.13665 0.11516 0.98009 0.0
C431 C 0.11489 0.09107 0.86371 0.0
C432 C 0.14684 0.09769 0.87656 0.0
C433 C 0.10697 0.08293 0.84489 0.0
C434 C 0.17994 0.12387 0.9838 0.0
C435 C 0.17178 0.11624 0.96364 0.0
C436 C 0.13958 0.11046 0.9509 0.0
C437 C 0.12684 0.08791 0.87093 0.0
C438 C 0.13517 0.09634 0.89242 0.0
C439 C 0.15985 0.1197 0.95806 0.0
C440 C 0.1513 0.11173 0.93529 0.0
H441 H 0.1261 0.05961 0.83113 0.0
H442 H 0.13988 0.0738 0.86396 0.0
H443 H 0.1227 0.10186 0.94299 0.0
H444 H 0.16129 0.14714 0.00538 0.0
H445 H 0.1471 0.13386 0.96974 0.0
C446 C 0.12361 0.92968 0.23921 0.0
C447 C 0.11197 0.92652 0.25142 0.0
C448 C 0.13102 0.92144 0.21844 0.0
C449 C 0.13518 0.88928 0.19846 0.0
H450 H 0.15471 0.90038 0.10138 0.0
C451 C 0.16269 0.8573 0.08969 0.0
C452 C 0.17449 0.86079 0.08104 0.0
C453 C 0.15468 0.86525 0.10903 0.0
C454 C 0.14937 0.89718 0.12863 0.0
H455 H 0.09901 0.91219 0.25208 0.0
H456 H 0.11194 0.89782 0.2153 0.0
H457 H 0.14151 0.91428 0.13902 0.0
H458 H 0.18705 0.87544 0.08509 0.0
H459 H 0.17307 0.88929 0.11883 0.0
H460 H 0.14307 0.87216 0.18792 0.0
C461 C 0.11537 0.90664 0.22224 0.0
C462 C 0.14183 0.90513 0.15027 0.0
C463 C 0.10796 0.91488 0.24316 0.0
C464 C 0.17803 0.87247 0.0913 0.0
C465 C 0.17 0.88043 0.11044 0.0
C466 C 0.1427 0.88131 0.1767 0.0
C467 C 0.12695 0.90987 0.20925 0.0
C468 C 0.13473 0.9013 0.18566 0.0
C469 C 0.15828 0.87687 0.11986 0.0
C470 C 0.14994 0.8852 0.14178 0.0
H471 H 0.127 0.93855 0.24536 0.0
H472 H 0.13997 0.92415 0.20962 0.0
H473 H 0.12992 0.88609 0.22592 0.0
H474 H 0.15968 0.84837 0.08211 0.0
H475 H 0.14566 0.86231 0.11545 0.0
C476 C 0.38876 0.91419 0.35329 0.0
C477 C 0.38515 0.9261 0.34844 0.0
C478 C 0.38141 0.90598 0.37464 0.0
C479 C 0.35612 0.90423 0.45233 0.0
H480 H 0.35253 0.87233 0.4053 0.0
C481 C 0.31861 0.87218 0.5054 0.0
C482 C 0.32146 0.86006 0.51003 0.0
C483 C 0.32703 0.88021 0.48914 0.0
C484 C 0.35357 0.88115 0.4192 0.0
H485 H 0.37093 0.9387 0.36153 0.0
H486 H 0.35804 0.92434 0.39803 0.0
H487 H 0.36586 0.88635 0.36893 0.0
H488 H 0.3355 0.84693 0.50274 0.0
H489 H 0.3502 0.86097 0.4745 0.0
H490 H 0.34366 0.89906 0.50218 0.0
C491 C 0.36664 0.92139 0.38612 0.0
C492 C 0.3612 0.88918 0.39835 0.0
C493 C 0.374 0.9296 0.36488 0.0
C494 C 0.33301 0.8562 0.49938 0.0
C495 C 0.34142 0.86422 0.48296 0.0
C496 C 0.34846 0.8962 0.47309 0.0
C497 C 0.37029 0.90951 0.3915 0.0
C498 C 0.36249 0.90084 0.41448 0.0
C499 C 0.33845 0.87627 0.47707 0.0
C500 C 0.34705 0.88461 0.45656 0.0
H501 H 0.39733 0.91123 0.34113 0.0
H502 H 0.38453 0.89692 0.37863 0.0
H503 H 0.35708 0.91308 0.46605 0.0
H504 H 0.3098 0.87544 0.51336 0.0
H505 H 0.32446 0.88942 0.48462 0.0
C506 C 0.38867 0.07974 0.73833 0.0
C507 C 0.38532 0.0677 0.74061 0.0
C508 C 0.38153 0.08796 0.71609 0.0
C509 C 0.35766 0.0899 0.63245 0.0
H510 H 0.35256 0.12123 0.68265 0.0
C511 C 0.32046 0.12186 0.57544 0.0
C512 C 0.32318 0.13406 0.57309 0.0
C513 C 0.32875 0.11379 0.59224 0.0
C514 C 0.35403 0.11257 0.6679 0.0
H515 H 0.37178 0.05486 0.72195 0.0
H516 H 0.35923 0.06924 0.68398 0.0
H517 H 0.3655 0.10712 0.72035 0.0
H518 H 0.33692 0.14729 0.58486 0.0
H519 H 0.35138 0.13316 0.61408 0.0
H520 H 0.34598 0.09531 0.58043 0.0
C521 C 0.36749 0.0723 0.69856 0.0
C522 C 0.36144 0.10449 0.68949 0.0
C523 C 0.37464 0.06407 0.72063 0.0
C524 C 0.33452 0.13796 0.58643 0.0
C525 C 0.34278 0.12989 0.6034 0.0
C526 C 0.3502 0.09797 0.61095 0.0
C527 C 0.37088 0.08432 0.69583 0.0
C528 C 0.36328 0.09303 0.67217 0.0
C529 C 0.33991 0.11776 0.60715 0.0
C530 C 0.34826 0.10937 0.62859 0.0
H531 H 0.39688 0.0828 0.75319 0.0
H532 H 0.38447 0.09713 0.71417 0.0
H533 H 0.35906 0.08121 0.61784 0.0
H534 H 0.31181 0.11858 0.56536 0.0
H535 H 0.32625 0.1045 0.59503 0.0
C536 C 0.82146 0.86972 0.07405 0.0
C537 C 0.82387 0.85745 0.07325 0.0
C538 C 0.82993 0.87773 0.09008 0.0
C539 C 0.85521 0.87916 0.16582 0.0
H540 H 0.86066 0.90993 0.11146 0.0
C541 C 0.88936 0.91302 0.23427 0.0
C542 C 0.88576 0.925 0.23477 0.0
C543 C 0.88252 0.90445 0.21249 0.0
C544 C 0.85916 0.90141 0.12723 0.0
H545 H 0.8372 0.84398 0.08728 0.0
H546 H 0.85198 0.85799 0.11523 0.0
H547 H 0.84756 0.89557 0.07561 0.0
H548 H 0.87208 0.93737 0.2134 0.0
H549 H 0.86007 0.92243 0.17624 0.0
H550 H 0.86659 0.88508 0.2179 0.0
C551 C 0.8435 0.86138 0.10384 0.0
C552 C 0.85168 0.89319 0.10664 0.0
C553 C 0.83505 0.85338 0.08761 0.0
C554 C 0.87514 0.92822 0.21346 0.0
C555 C 0.8683 0.91967 0.19183 0.0
C556 C 0.86265 0.88741 0.1865 0.0
C557 C 0.84096 0.87362 0.10578 0.0
C558 C 0.84953 0.88203 0.12597 0.0
C559 C 0.87193 0.9077 0.19086 0.0
C560 C 0.86459 0.89868 0.1677 0.0
H561 H 0.81294 0.87315 0.06319 0.0
H562 H 0.82768 0.8871 0.09155 0.0
H563 H 0.85359 0.87069 0.18178 0.0
H564 H 0.89754 0.91027 0.25025 0.0
H565 H 0.88561 0.89532 0.21201 0.0
C566 C 0.87014 0.06557 0.85785 0.0
C567 C 0.88118 0.06906 0.8403 0.0
C568 C 0.86273 0.07388 0.8782 0.0
C569 C 0.86337 0.10267 0.93487 0.0
H570 H 0.82938 0.10257 0.91236 0.0
C571 C 0.83171 0.13938 0.9987 0.0
C572 C 0.82024 0.13593 0.01218 0.0
C573 C 0.83941 0.13113 0.97939 0.0
C574 C 0.83883 0.1026 0.91951 0.0
H575 H 0.89304 0.08405 0.82974 0.0
H576 H 0.88004 0.0986 0.86537 0.0
H577 H 0.84219 0.08855 0.87358 0.0
H578 H 0.80805 0.12102 0.01781 0.0
H579 H 0.82158 0.10658 0.98493 0.0
H580 H 0.86 0.11666 0.98108 0.0
C581 C 0.87719 0.08939 0.8636 0.0
C582 C 0.84616 0.0946 0.89715 0.0
C583 C 0.88458 0.08108 0.84296 0.0
C584 C 0.8168 0.12398 0.00746 0.0
C585 C 0.82451 0.11572 0.98832 0.0
C586 C 0.85602 0.11064 0.95741 0.0
C587 C 0.86622 0.08585 0.88164 0.0
C588 C 0.8585 0.09454 0.90463 0.0
C589 C 0.83582 0.11925 0.97333 0.0
C590 C 0.84366 0.11068 0.95003 0.0
H591 H 0.86725 0.05637 0.85634 0.0
H592 H 0.85438 0.07088 0.89217 0.0
H593 H 0.87283 0.1027 0.94173 0.0
H594 H 0.83462 0.14854 0.0018 0.0
H595 H 0.84801 0.13417 0.96786 0.0
C596 C 0.67427 0.12202 0.57449 0.0
C597 C 0.67228 0.13436 0.57579 0.0
C598 C 0.66602 0.11416 0.59294 0.0
C599 C 0.64252 0.11283 0.67661 0.0
H600 H 0.63417 0.08319 0.61883 0.0
C601 C 0.60693 0.08062 0.74586 0.0
C602 C 0.60947 0.06839 0.74314 0.0
C603 C 0.61426 0.08893 0.72483 0.0
C604 C 0.63651 0.09138 0.63559 0.0
H605 H 0.65993 0.14814 0.59653 0.0
H606 H 0.64553 0.1344 0.62863 0.0
H607 H 0.64742 0.09722 0.58196 0.0
H608 H 0.62181 0.0553 0.71706 0.0
H609 H 0.63466 0.06977 0.68113 0.0
H610 H 0.63176 0.10692 0.73051 0.0
C611 C 0.65353 0.13082 0.61372 0.0
C612 C 0.64407 0.09941 0.61443 0.0
C613 C 0.66175 0.13868 0.5951 0.0
C614 C 0.61957 0.06465 0.71959 0.0
C615 C 0.62689 0.07295 0.6987 0.0
C616 C 0.63499 0.10477 0.69786 0.0
C617 C 0.65563 0.11849 0.6132 0.0
C618 C 0.64722 0.11018 0.63483 0.0
C619 C 0.62427 0.08517 0.70076 0.0
C620 C 0.63197 0.09391 0.67772 0.0
H621 H 0.68229 0.11841 0.55985 0.0
H622 H 0.66793 0.10471 0.59239 0.0
H623 H 0.64492 0.12099 0.69339 0.0
H624 H 0.59919 0.08378 0.76365 0.0
H625 H 0.61194 0.09828 0.72671 0.0
C626 C 0.62341 0.92688 0.33194 0.0
C627 C 0.61126 0.92409 0.32799 0.0
C628 C 0.63136 0.91865 0.34991 0.0
C629 C 0.63229 0.89314 0.4249 0.0
H630 H 0.66387 0.88842 0.37629 0.0
C631 C 0.66485 0.8578 0.49262 0.0
C632 C 0.67692 0.861 0.49544 0.0
C633 C 0.65669 0.86526 0.47154 0.0
C634 C 0.65513 0.88975 0.39055 0.0
H635 H 0.59796 0.91037 0.3387 0.0
H636 H 0.61188 0.89599 0.37006 0.0
H637 H 0.64989 0.90162 0.33891 0.0
H638 H 0.68987 0.87466 0.47924 0.0
H639 H 0.67561 0.88777 0.44318 0.0
H640 H 0.63755 0.88141 0.47686 0.0
C641 C 0.61521 0.90459 0.35961 0.0
C642 C 0.64712 0.89727 0.36905 0.0
C643 C 0.60727 0.9128 0.34141 0.0
C644 C 0.68064 0.87191 0.47745 0.0
C645 C 0.67248 0.87939 0.45648 0.0
C646 C 0.6403 0.88565 0.44648 0.0
C647 C 0.62732 0.90749 0.36448 0.0
C648 C 0.63564 0.89909 0.38613 0.0
C649 C 0.66044 0.8761 0.45295 0.0
C650 C 0.65184 0.88392 0.42968 0.0
H651 H 0.62678 0.9355 0.32186 0.0
H652 H 0.64062 0.92118 0.35361 0.0
H653 H 0.62355 0.89452 0.43919 0.0
H654 H 0.66171 0.84943 0.50601 0.0
H655 H 0.64751 0.86242 0.46899 0.0
C656 C 0.67968 0.62469 0.49511 0.0
C657 C 0.67565 0.63614 0.50628 0.0
C658 C 0.67202 0.61655 0.47503 0.0
C659 C 0.64026 0.61002 0.45402 0.0
H660 H 0.65293 0.59148 0.35693 0.0
C661 C 0.61038 0.58109 0.34255 0.0
C662 C 0.61453 0.5695 0.33416 0.0
C663 C 0.61782 0.58951 0.36229 0.0
C664 C 0.64929 0.59654 0.38418 0.0
H665 H 0.66033 0.64793 0.50626 0.0
H666 H 0.64701 0.63375 0.47076 0.0
H667 H 0.66583 0.60542 0.39577 0.0
H668 H 0.62982 0.55775 0.33872 0.0
H669 H 0.64278 0.57244 0.3731 0.0
H670 H 0.6237 0.60115 0.4422 0.0
C671 C 0.65605 0.63102 0.47792 0.0
C672 C 0.65668 0.60449 0.40653 0.0
C673 C 0.6637 0.63916 0.49813 0.0
C674 C 0.62635 0.5666 0.34479 0.0
C675 C 0.6338 0.57503 0.3643 0.0
C676 C 0.63285 0.60209 0.43155 0.0
C677 C 0.66018 0.61969 0.46557 0.0
C678 C 0.65227 0.61127 0.44185 0.0
C679 C 0.62957 0.58652 0.37374 0.0
C680 C 0.63731 0.59523 0.39653 0.0
H681 H 0.68881 0.62206 0.50121 0.0
H682 H 0.6754 0.6078 0.4667 0.0
H683 H 0.63663 0.61502 0.48141 0.0
H684 H 0.60132 0.58361 0.33467 0.0
H685 H 0.61437 0.59835 0.36869 0.0
C686 C 0.60597 0.41395 0.74331 0.0
C687 C 0.60949 0.42576 0.7514 0.0
C688 C 0.6137 0.40602 0.72228 0.0
C689 C 0.64019 0.40559 0.65009 0.0
H690 H 0.64283 0.37275 0.68823 0.0
C691 C 0.67782 0.37439 0.59234 0.0
C692 C 0.67477 0.36257 0.58222 0.0
C693 C 0.66944 0.38205 0.61106 0.0
C694 C 0.64208 0.38186 0.67688 0.0
H695 H 0.62398 0.43842 0.74491 0.0
H696 H 0.63751 0.42457 0.70905 0.0
H697 H 0.62909 0.38613 0.726 0.0
H698 H 0.66045 0.34957 0.58301 0.0
H699 H 0.64582 0.36299 0.61566 0.0
H700 H 0.65328 0.40136 0.60136 0.0
C701 C 0.6287 0.42149 0.71803 0.0
C702 C 0.63421 0.38952 0.69849 0.0
C703 C 0.62097 0.42941 0.73889 0.0
C704 C 0.66309 0.35863 0.5905 0.0
C705 C 0.65473 0.36628 0.60944 0.0
C706 C 0.64807 0.39795 0.62861 0.0
C707 C 0.62511 0.40975 0.70904 0.0
C708 C 0.63324 0.4015 0.68552 0.0
C709 C 0.65785 0.37803 0.62022 0.0
C710 C 0.64915 0.38602 0.64194 0.0
H711 H 0.59717 0.41088 0.75245 0.0
H712 H 0.61064 0.39706 0.71549 0.0
H713 H 0.63947 0.41471 0.63872 0.0
H714 H 0.68673 0.3777 0.58638 0.0
H715 H 0.67213 0.39103 0.6194 0.0
C716 C 0.88754 0.41519 0.82662 0.0
C717 C 0.88356 0.42664 0.81513 0.0
C718 C 0.87992 0.40723 0.84794 0.0
C719 C 0.85283 0.40686 0.9165 0.0
H720 H 0.85276 0.37308 0.89005 0.0
C721 C 0.81732 0.37442 0.98325 0.0
C722 C 0.82116 0.36309 0.99684 0.0
C723 C 0.82523 0.38226 0.9628 0.0
C724 C 0.8528 0.38247 0.89816 0.0
H725 H 0.86833 0.43853 0.81521 0.0
H726 H 0.85499 0.42456 0.85161 0.0
H727 H 0.86574 0.3864 0.84851 0.0
H728 H 0.8364 0.35125 0.00091 0.0
H729 H 0.85021 0.365 0.96539 0.0
H730 H 0.83981 0.40293 0.96589 0.0
C731 C 0.86408 0.42183 0.84511 0.0
C732 C 0.86021 0.3901 0.87434 0.0
C733 C 0.8717 0.42981 0.82396 0.0
C734 C 0.83315 0.3599 0.99071 0.0
C735 C 0.84104 0.36773 0.97009 0.0
C736 C 0.84539 0.39924 0.9402 0.0
C737 C 0.86816 0.41053 0.85805 0.0
C738 C 0.86028 0.40238 0.88315 0.0
C739 C 0.83712 0.37893 0.95542 0.0
C740 C 0.84528 0.38697 0.93122 0.0
H741 H 0.89665 0.4125 0.82035 0.0
H742 H 0.88337 0.39862 0.85777 0.0
H743 H 0.85284 0.41624 0.9247 0.0
H744 H 0.80814 0.37714 0.98748 0.0
H745 H 0.82192 0.39079 0.95153 0.0
C746 C 0.83162 0.63457 0.09074 0.0
C747 C 0.81966 0.63399 0.10428 0.0
C748 C 0.84025 0.62758 0.11143 0.0
C749 C 0.84657 0.6124 0.21548 0.0
H750 H 0.87002 0.59503 0.14724 0.0
C751 C 0.87868 0.57811 0.29322 0.0
C752 C 0.89024 0.57732 0.27583 0.0
C753 C 0.87019 0.58546 0.27338 0.0
C754 C 0.86365 0.59997 0.16684 0.0
H755 H 0.80736 0.62553 0.14969 0.0
H756 H 0.82247 0.61337 0.1858 0.0
H757 H 0.8549 0.60677 0.1095 0.0
H758 H 0.90216 0.58404 0.22535 0.0
H759 H 0.88747 0.59708 0.19155 0.0
H760 H 0.85538 0.60573 0.27286 0.0
C761 C 0.82515 0.61927 0.15938 0.0
C762 C 0.85497 0.60665 0.14517 0.0
C763 C 0.81649 0.62617 0.13847 0.0
C764 C 0.89328 0.58436 0.23926 0.0
C765 C 0.88484 0.59177 0.21969 0.0
C766 C 0.85531 0.60578 0.23721 0.0
C767 C 0.83712 0.61997 0.14627 0.0
C768 C 0.84633 0.6129 0.16927 0.0
C769 C 0.87313 0.59224 0.23598 0.0
C770 C 0.86395 0.59947 0.21313 0.0
H771 H 0.83434 0.64051 0.0645 0.0
H772 H 0.84943 0.62835 0.10085 0.0
H773 H 0.8401 0.61727 0.23487 0.0
H774 H 0.87606 0.57276 0.32128 0.0
H775 H 0.86123 0.58552 0.28654 0.0
C776 C 0.33328 0.35785 0.57996 0.0
C777 C 0.32267 0.36198 0.56073 0.0
C778 C 0.34125 0.36582 0.5994 0.0
C779 C 0.34992 0.39741 0.6031 0.0
H780 H 0.36145 0.38972 0.72011 0.0
C781 C 0.37294 0.43233 0.7119 0.0
C782 C 0.38286 0.42871 0.73668 0.0
C783 C 0.36592 0.42395 0.69008 0.0
C784 C 0.35845 0.39193 0.68722 0.0
H785 H 0.31228 0.37775 0.54551 0.0
H786 H 0.32622 0.39166 0.57933 0.0
H787 H 0.34895 0.37549 0.68077 0.0
H788 H 0.39313 0.41346 0.75847 0.0
H789 H 0.38096 0.39881 0.7198 0.0
H790 H 0.35942 0.41382 0.60938 0.0
C791 C 0.32838 0.38226 0.57928 0.0
C792 C 0.35129 0.38378 0.6647 0.0
C793 C 0.32037 0.37428 0.5601 0.0
C794 C 0.38551 0.41652 0.73976 0.0
C795 C 0.37851 0.40812 0.71772 0.0
C796 C 0.35713 0.40552 0.6255 0.0
C797 C 0.33881 0.37809 0.5997 0.0
C798 C 0.34688 0.38649 0.62258 0.0
C799 C 0.36869 0.41176 0.69232 0.0
C800 C 0.36138 0.40293 0.668 0.0
H801 H 0.33533 0.34843 0.58092 0.0
H802 H 0.34929 0.36239 0.61443 0.0
H803 H 0.34678 0.39965 0.57043 0.0
H804 H 0.3706 0.44166 0.70911 0.0
H805 H 0.35828 0.42703 0.67157 0.0
C806 C 0.31689 0.6273 0.46041 0.0
C807 C 0.32058 0.63616 0.49011 0.0
C808 C 0.32526 0.62079 0.43645 0.0
C809 C 0.35652 0.61143 0.4357 0.0
H810 H 0.35089 0.60624 0.31113 0.0
C811 C 0.3906 0.58671 0.32803 0.0
C812 C 0.3859 0.57797 0.29982 0.0
C813 C 0.3831 0.59496 0.34842 0.0
C814 C 0.35255 0.60754 0.34593 0.0
H815 H 0.33595 0.64494 0.51876 0.0
H816 H 0.35058 0.63348 0.47702 0.0
H817 H 0.33678 0.61803 0.35392 0.0
H818 H 0.36972 0.57136 0.26936 0.0
H819 H 0.35664 0.58561 0.30538 0.0
H820 H 0.37213 0.60074 0.42809 0.0
C821 C 0.34121 0.6316 0.47234 0.0
C822 C 0.34447 0.61428 0.37041 0.0
C823 C 0.33283 0.63817 0.49614 0.0
C824 C 0.37363 0.57798 0.29093 0.0
C825 C 0.36613 0.58619 0.31143 0.0
C826 C 0.36457 0.60464 0.41128 0.0
C827 C 0.33749 0.62294 0.44188 0.0
C828 C 0.34631 0.61619 0.41562 0.0
C829 C 0.37075 0.59462 0.34111 0.0
C830 C 0.36262 0.60253 0.3662 0.0
H831 H 0.30753 0.62552 0.45502 0.0
H832 H 0.32215 0.61404 0.41371 0.0
H833 H 0.3581 0.61266 0.4706 0.0
H834 H 0.40004 0.58701 0.33529 0.0
H835 H 0.38696 0.60148 0.37046 0.0
C836 C 0.10888 0.58006 0.24111 0.0
C837 C 0.11188 0.56796 0.24492 0.0
C838 C 0.11663 0.58802 0.22048 0.0
C839 C 0.14177 0.58896 0.14214 0.0
H840 H 0.14588 0.62094 0.1879 0.0
C841 C 0.17842 0.62136 0.08236 0.0
C842 C 0.1752 0.63337 0.07714 0.0
C843 C 0.1704 0.61322 0.10049 0.0
C844 C 0.14471 0.61208 0.17444 0.0
H845 H 0.12549 0.55477 0.23108 0.0
H846 H 0.13912 0.56872 0.19587 0.0
H847 H 0.13278 0.60706 0.22606 0.0
H848 H 0.16089 0.64617 0.08533 0.0
H849 H 0.14689 0.63193 0.11689 0.0
H850 H 0.15386 0.59399 0.09083 0.0
C851 C 0.13067 0.57201 0.208 0.0
C852 C 0.13721 0.60413 0.1963 0.0
C853 C 0.1229 0.56403 0.22848 0.0
C854 C 0.16366 0.63699 0.08908 0.0
C855 C 0.15567 0.62886 0.10741 0.0
C856 C 0.14933 0.5969 0.1204 0.0
C857 C 0.12757 0.58407 0.20339 0.0
C858 C 0.13565 0.59248 0.18039 0.0
C859 C 0.15902 0.61694 0.11393 0.0
C860 C 0.15085 0.60855 0.13632 0.0
H861 H 0.10044 0.58337 0.25327 0.0
H862 H 0.11391 0.59723 0.21701 0.0
H863 H 0.14061 0.58012 0.1286 0.0
H864 H 0.18724 0.61828 0.07341 0.0
H865 H 0.17324 0.60409 0.10536 0.0
C866 C 0.11928 0.43028 0.8598 0.0
C867 C 0.1083 0.42633 0.84317 0.0
C868 C 0.12712 0.42229 0.87982 0.0
C869 C 0.1341 0.39025 0.88969 0.0
H870 H 0.1509 0.40038 0.99485 0.0
C871 C 0.16225 0.35781 0.99326 0.0
C872 C 0.17366 0.36184 0.00506 0.0
C873 C 0.15389 0.36568 0.97565 0.0
C874 C 0.14633 0.39746 0.96536 0.0
H875 H 0.09697 0.41087 0.83398 0.0
H876 H 0.11058 0.39696 0.86949 0.0
H877 H 0.13714 0.41404 0.95868 0.0
H878 H 0.18512 0.37737 0.00905 0.0
H879 H 0.17049 0.39111 0.97835 0.0
H880 H 0.14328 0.37365 0.89654 0.0
C881 C 0.11321 0.4062 0.86654 0.0
C882 C 0.13847 0.40528 0.94455 0.0
C883 C 0.10539 0.41419 0.84633 0.0
C884 C 0.17641 0.37398 0.00023 0.0
C885 C 0.16802 0.38187 0.98283 0.0
C886 C 0.14191 0.38241 0.91063 0.0
C887 C 0.12412 0.41019 0.88383 0.0
C888 C 0.13232 0.40179 0.90632 0.0
C889 C 0.15674 0.37776 0.96974 0.0
C890 C 0.14815 0.38596 0.94854 0.0
H891 H 0.12182 0.43956 0.85765 0.0
H892 H 0.13555 0.42561 0.89204 0.0
H893 H 0.12964 0.38734 0.85997 0.0
H894 H 0.15984 0.34852 0.9967 0.0
H895 H 0.1452 0.36231 0.9664 0.0
C896 C 0.22365 0.165 0.93384 0.0
C897 C 0.22496 0.17259 0.9703 0.0
C898 C 0.23215 0.16488 0.90034 0.0
C899 C 0.25595 0.18292 0.85028 0.0
H900 H 0.26485 0.15285 0.79674 0.0
C901 C 0.29205 0.17917 0.71459 0.0
C902 C 0.28915 0.17189 0.67852 0.0
C903 C 0.28489 0.17922 0.75228 0.0
C904 C 0.2624 0.16133 0.81117 0.0
H905 H 0.23628 0.18599 0.00025 0.0
H906 H 0.2512 0.18571 0.94174 0.0
H907 H 0.25118 0.15301 0.85904 0.0
H908 H 0.27648 0.15891 0.65376 0.0
H909 H 0.26401 0.15905 0.71927 0.0
H910 H 0.26713 0.19123 0.80207 0.0
C911 C 0.24351 0.17994 0.93894 0.0
C912 C 0.25456 0.16142 0.84683 0.0
C913 C 0.23499 0.18006 0.97253 0.0
C914 C 0.27899 0.16461 0.681 0.0
C915 C 0.27187 0.16463 0.71867 0.0
C916 C 0.26382 0.18282 0.81461 0.0
C917 C 0.24219 0.17234 0.90249 0.0
C918 C 0.25111 0.17223 0.86641 0.0
C919 C 0.27473 0.17194 0.7547 0.0
C920 C 0.267 0.17203 0.7943 0.0
H921 H 0.21601 0.15915 0.93099 0.0
H922 H 0.23076 0.15906 0.87238 0.0
H923 H 0.25338 0.1914 0.86434 0.0
H924 H 0.29983 0.18487 0.71373 0.0
H925 H 0.28737 0.18488 0.77969 0.0
C926 C 0.0661 0.95984 0.14537 0.0
C927 C 0.07374 0.96257 0.18062 0.0
C928 C 0.06552 0.96729 0.10854 0.0
C929 C 0.08288 0.9899 0.04886 0.0
H930 H 0.05256 -0.00163 0.99637 0.0
C931 C 0.0791 0.02658 0.91783 0.0
C932 C 0.07146 0.02458 0.88195 0.0
C933 C 0.0791 0.01887 0.95383 0.0
C934 C 0.06111 0.99597 0.01032 0.0
H935 H 0.08665 0.97535 0.20508 0.0
H936 H 0.0856 0.98833 0.14098 0.0
H937 H 0.05305 0.98512 0.06015 0.0
H938 H 0.05776 0.01293 0.85585 0.0
H939 H 0.05787 -0.00066 0.9186 0.0
H940 H 0.09097 0.00067 -0.00087 0.0
C941 C 0.08016 0.98036 0.14159 0.0
C942 C 0.06138 0.98839 0.04685 0.0
C943 C 0.0807 0.97296 0.17843 0.0
C944 C 0.06374 0.01473 0.88302 0.0
C945 C 0.06376 0.00698 0.91907 0.0
C946 C 0.08261 0.99743 0.01233 0.0
C947 C 0.07261 0.97758 0.10615 0.0
C948 C 0.07227 0.98536 0.0667 0.0
C949 C 0.07149 0.00893 0.95477 0.0
C950 C 0.07172 0.00063 0.99283 0.0
H951 H 0.06062 0.95191 0.14605 0.0
H952 H 0.05969 0.96487 0.08157 0.0
H953 H 0.09143 0.98755 0.06293 0.0
H954 H 0.08511 0.03413 0.91819 0.0
H955 H 0.08501 0.02075 0.98112 0.0
C956 C 0.23226 0.81417 0.11527 0.0
C957 C 0.22249 0.82197 0.11692 0.0
C958 C 0.24075 0.81414 0.14898 0.0
C959 C 0.25234 0.83269 0.24002 0.0
H960 H 0.26405 0.80271 0.28631 0.0
C961 C 0.27703 0.82952 0.40534 0.0
C962 C 0.28697 0.82195 0.40797 0.0
C963 C 0.26981 0.82953 0.36794 0.0
C964 C 0.26099 0.81116 0.27334 0.0
H965 H 0.21395 0.83585 0.15534 0.0
H966 H 0.22862 0.8357 0.21419 0.0
H967 H 0.25023 0.80269 0.22427 0.0
H968 H 0.29714 0.80845 0.37331 0.0
H969 H 0.28451 0.80851 0.3078 0.0
H970 H 0.26296 0.84115 0.28942 0.0
C971 C 0.22985 0.82972 0.18658 0.0
C972 C 0.25307 0.81115 0.2378 0.0
C973 C 0.22138 0.82975 0.15295 0.0
C974 C 0.28954 0.81439 0.37232 0.0
C975 C 0.28228 0.81437 0.33489 0.0
C976 C 0.26023 0.8327 0.27554 0.0
C977 C 0.23964 0.82194 0.18498 0.0
C978 C 0.24855 0.82192 0.2211 0.0
C979 C 0.27235 0.82196 0.33231 0.0
C980 C 0.26452 0.82193 0.29294 0.0
H981 H 0.23339 0.80809 0.0879 0.0
H982 H 0.24825 0.80812 0.14659 0.0
H983 H 0.24921 0.84115 0.22736 0.0
H984 H 0.27477 0.83543 0.43225 0.0
H985 H 0.26213 0.83535 0.36722 0.0
C986 C 0.4299 0.03695 0.64597 0.0
C987 C 0.42326 0.0334 0.68298 0.0
C988 C 0.43043 0.0297 0.60857 0.0
C989 C 0.41361 0.00622 0.5521 0.0
H990 H 0.44311 0.00027 0.48943 0.0
C991 C 0.41675 0.97055 0.41759 0.0
C992 C 0.42341 0.97313 0.3796 0.0
C993 C 0.4171 0.97813 0.45392 0.0
C994 C 0.43477 0.00197 0.50624 0.0
H995 H 0.4122 0.01935 0.71013 0.0
H996 H 0.41314 0.00674 0.64503 0.0
H997 H 0.44318 0.01307 0.55455 0.0
H998 H 0.43571 0.9857 0.35004 0.0
H999 H 0.43618 -0.00092 0.41347 0.0
H1000 H 0.40515 0.99524 0.50392 0.0
C1001 C 0.41783 0.01517 0.64474 0.0
C1002 C 0.43483 0.00928 0.54355 0.0
C1003 C 0.41735 0.02237 0.68214 0.0
C1004 C 0.4305 0.98345 0.37886 0.0
C1005 C 0.43081 0.99108 0.41527 0.0
C1006 C 0.41354 -0.00102 0.5148 0.0
C1007 C 0.42426 0.01881 0.6074 0.0
C1008 C 0.42426 0.01137 0.56709 0.0
C1009 C 0.42405 0.98853 0.45312 0.0
C1010 C 0.42414 0.99666 0.49169 0.0
H1011 H 0.43456 0.04539 0.64561 0.0
H1012 H 0.43539 0.03276 0.58017 0.0
H1013 H 0.40528 0.00787 0.56905 0.0
H1014 H 0.41126 0.96263 0.4194 0.0
H1015 H 0.41197 0.97577 0.48284 0.0
C1016 C 0.77856 0.82767 0.17959 0.0
C1017 C 0.78866 0.8203 0.17791 0.0
C1018 C 0.77138 0.82792 0.21706 0.0
C1019 C 0.76304 0.81046 0.31466 0.0
H1020 H 0.75087 0.84075 0.35637 0.0
C1021 C 0.7346 0.81484 0.47316 0.0
C1022 C 0.72471 0.82248 0.47058 0.0
C1023 C 0.74301 0.81454 0.43918 0.0
C1024 C 0.75411 0.83221 0.34492 0.0
H1025 H 0.79913 0.80738 0.21429 0.0
H1026 H 0.78655 0.80784 0.27992 0.0
H1027 H 0.76447 0.84028 0.2939 0.0
H1028 H 0.71587 0.83576 0.43021 0.0
H1029 H 0.73041 0.83512 0.37094 0.0
H1030 H 0.75254 0.80238 0.3654 0.0
C1031 C 0.78417 0.81337 0.25204 0.0
C1032 C 0.76191 0.83194 0.30916 0.0
C1033 C 0.7914 0.81315 0.21454 0.0
C1034 C 0.72341 0.8298 0.43334 0.0
C1035 C 0.73179 0.82949 0.39946 0.0
C1036 C 0.75521 0.81072 0.35046 0.0
C1037 C 0.7741 0.82079 0.25372 0.0
C1038 C 0.76635 0.82106 0.29328 0.0
C1039 C 0.7417 0.82188 0.40199 0.0
C1040 C 0.75054 0.82159 0.36563 0.0
H1041 H 0.77617 0.83326 0.15191 0.0
H1042 H 0.76357 0.83359 0.21708 0.0
H1043 H 0.76623 0.80193 0.30292 0.0
H1044 H 0.73588 0.80912 0.50146 0.0
H1045 H 0.75061 0.80866 0.44228 0.0
C1046 C 0.9247 0.01077 0.87158 0.0
C1047 C 0.91813 0.02142 0.87246 0.0
C1048 C 0.92512 0.0034 0.90866 0.0
C1049 C 0.90895 0.99684 0.01185 0.0
H1050 H 0.93862 0.98198 0.04717 0.0
C1051 C 0.91404 0.97289 0.17832 0.0
C1052 C 0.91994 0.96185 0.17789 0.0
C1053 C 0.91415 0.9802 0.14112 0.0
C1054 C 0.93025 0.98599 0.03747 0.0
H1055 H 0.90693 0.03273 0.91308 0.0
H1056 H 0.9078 0.01997 0.97767 0.0
H1057 H 0.93812 0.99455 0.98156 0.0
H1058 H 0.93076 0.94993 0.13835 0.0
H1059 H 0.93089 0.96269 0.07337 0.0
H1060 H 0.9011 0.98834 0.06777 0.0
C1061 C 0.91247 0.01721 0.94819 0.0
C1062 C 0.92995 0.99316 -0.00013 0.0
C1063 C 0.91204 0.02455 0.91119 0.0
C1064 C 0.92613 0.95838 0.13975 0.0
C1065 C 0.92626 0.96571 0.10259 0.0
C1066 C 0.90926 0.9897 0.04944 0.0
C1067 C 0.91898 0.00653 0.94734 0.0
C1068 C 0.91931 -0.00129 0.98674 0.0
C1069 C 0.92018 0.97665 0.10274 0.0
C1070 C 0.91992 0.98423 0.06275 0.0
H1071 H 0.92947 0.00809 0.84221 0.0
H1072 H 0.93011 0.99516 0.90682 0.0
H1073 H 0.90056 0.00081 0.00219 0.0
H1074 H 0.90922 0.97584 0.20723 0.0
H1075 H 0.90952 0.98865 0.14244 0.0
C1076 C 0.79024 0.18014 0.87776 0.0
C1077 C 0.78721 0.17354 0.91547 0.0
C1078 C 0.78288 0.17996 0.84061 0.0
C1079 C 0.75953 0.16211 0.78666 0.0
H1080 H 0.75149 0.19163 0.72745 0.0
C1081 C 0.7211 0.16514 0.66214 0.0
C1082 C 0.72267 0.17228 0.6246 0.0
C1083 C 0.72952 0.16521 0.69592 0.0
C1084 C 0.75379 0.18329 0.7432 0.0
H1085 H 0.77408 0.16159 0.94376 0.0
H1086 H 0.76128 0.16131 0.87911 0.0
H1087 H 0.76531 0.19192 0.78947 0.0
H1088 H 0.73439 0.18503 0.59289 0.0
H1089 H 0.74919 0.18504 0.65171 0.0
H1090 H 0.74802 0.15347 0.74061 0.0
C1091 C 0.76939 0.16653 0.87808 0.0
C1092 C 0.76169 0.18346 0.77874 0.0
C1093 C 0.77669 0.16675 0.91523 0.0
C1094 C 0.73289 0.17946 0.62147 0.0
C1095 C 0.74134 0.17951 0.65527 0.0
C1096 C 0.75167 0.16193 0.75107 0.0
C1097 C 0.7724 0.17312 0.84036 0.0
C1098 C 0.76453 0.17289 0.80117 0.0
C1099 C 0.73975 0.17239 0.69291 0.0
C1100 C 0.74859 0.17254 0.72925 0.0
H1101 H 0.79828 0.18545 0.8769 0.0
H1102 H 0.78547 0.18505 0.81188 0.0
H1103 H 0.76172 0.15379 0.80281 0.0
H1104 H 0.7133 0.15954 0.66568 0.0
H1105 H 0.72792 0.15977 0.72476 0.0
C1106 C 0.57302 0.00921 0.71491 0.0
C1107 C 0.57295 0.02171 0.71495 0.0
C1108 C 0.57212 0.00292 0.6753 0.0
C1109 C 0.57584 0.00706 0.55442 0.0
H1110 H 0.56026 0.97628 0.54891 0.0
C1111 C 0.56747 0.98173 0.39134 0.0
C1112 C 0.57157 0.96991 0.39107 0.0
C1113 C 0.56694 0.98814 0.43077 0.0
C1114 C 0.56465 0.98486 0.5501 0.0
H1115 H 0.57137 0.03743 0.67393 0.0
H1116 H 0.56928 0.02652 0.60527 0.0
H1117 H 0.56031 0.98738 0.61801 0.0
H1118 H 0.57806 0.95544 0.43191 0.0
H1119 H 0.5769 0.96659 0.50082 0.0
H1120 H 0.57994 0.00457 0.48613 0.0
C1121 C 0.57049 0.02151 0.63542 0.0
C1122 C 0.56475 0.9912 0.5897 0.0
C1123 C 0.5716 0.02779 0.67486 0.0
C1124 C 0.57491 0.96455 0.43106 0.0
C1125 C 0.57418 0.97089 0.47051 0.0
C1126 C 0.57556 0.0008 0.51471 0.0
C1127 C 0.57092 0.00899 0.63496 0.0
C1128 C 0.57044 0.00236 0.5925 0.0
C1129 C 0.57028 0.98277 0.47067 0.0
C1130 C 0.57006 0.98961 0.51229 0.0
H1131 H 0.57413 0.00429 0.74532 0.0
H1132 H 0.57267 0.9933 0.67631 0.0
H1133 H 0.58053 0.01548 0.55537 0.0
H1134 H 0.56486 0.98609 0.36103 0.0
H1135 H 0.56386 0.99728 0.43014 0.0
C1136 C 0.72698 0.68581 0.43987 0.0
C1137 C 0.71757 0.6777 0.44519 0.0
C1138 C 0.73376 0.68582 0.40122 0.0
C1139 C 0.74181 0.66633 0.30791 0.0
H1140 H 0.75311 0.69563 0.25481 0.0
C1141 C 0.76656 0.68296 0.13821 0.0
C1142 C 0.77535 0.67409 0.1351 0.0
C1143 C 0.75936 0.68376 0.17569 0.0
C1144 C 0.74993 0.68738 0.26903 0.0
H1145 H 0.70767 0.66345 0.41366 0.0
H1146 H 0.71932 0.6636 0.34624 0.0
H1147 H 0.7405 0.69649 0.32026 0.0
H1148 H 0.78359 0.65923 0.16919 0.0
H1149 H 0.77121 0.66075 0.23452 0.0
H1150 H 0.75098 0.65721 0.25634 0.0
C1151 C 0.72166 0.66979 0.37219 0.0
C1152 C 0.74283 0.68786 0.30683 0.0
C1153 C 0.71493 0.66975 0.4108 0.0
C1154 C 0.77685 0.66612 0.17035 0.0
C1155 C 0.7697 0.66695 0.20776 0.0
C1156 C 0.74887 0.66585 0.27016 0.0
C1157 C 0.73123 0.67774 0.36708 0.0
C1158 C 0.7387 0.67734 0.32673 0.0
C1159 C 0.76082 0.67573 0.2108 0.0
C1160 C 0.75307 0.67635 0.25038 0.0
H1161 H 0.72924 0.69204 0.46579 0.0
H1162 H 0.74115 0.69197 0.39852 0.0
H1163 H 0.73891 0.65804 0.32267 0.0
H1164 H 0.76518 0.68922 0.11158 0.0
H1165 H 0.75252 0.69055 0.17682 0.0
C1166 C 0.57648 0.52983 0.42791 0.0
C1167 C 0.57537 0.52362 0.38799 0.0
C1168 C 0.57514 0.52392 0.46805 0.0
C1169 C 0.56404 0.49558 0.51737 0.0
H1170 H 0.58426 0.50507 0.6148 0.0
C1171 C 0.57275 0.46665 0.67126 0.0
C1172 C 0.57174 0.4723 0.71239 0.0
C1173 C 0.57215 0.47326 0.63241 0.0
C1174 C 0.57848 0.50242 0.58799 0.0
H1175 H 0.57203 0.50635 0.35869 0.0
H1176 H 0.57018 0.4959 0.42866 0.0
H1177 H 0.58548 0.51578 0.5452 0.0
H1178 H 0.56925 0.48928 0.74515 0.0
H1179 H 0.5685 0.5009 0.67688 0.0
H1180 H 0.55747 0.48187 0.56006 0.0
C1181 C 0.57172 0.50541 0.42916 0.0
C1182 C 0.57912 0.50858 0.54809 0.0
C1183 C 0.57286 0.51138 0.38897 0.0
C1184 C 0.57003 0.48469 0.7139 0.0
C1185 C 0.56965 0.49134 0.67496 0.0
C1186 C 0.56355 0.48932 0.55708 0.0
C1187 C 0.57287 0.5116 0.46927 0.0
C1188 C 0.57194 0.50522 0.51215 0.0
C1189 C 0.57073 0.48567 0.63391 0.0
C1190 C 0.57079 0.49266 0.59266 0.0
H1191 H 0.57828 0.53931 0.42819 0.0
H1192 H 0.57583 0.52906 0.49812 0.0
H1193 H 0.5582 0.49288 0.49085 0.0
H1194 H 0.57403 0.45711 0.66906 0.0
H1195 H 0.5731 0.4687 0.60116 0.0
C1196 C 0.73461 0.31838 0.61575 0.0
C1197 C 0.72431 0.32545 0.6188 0.0
C1198 C 0.74306 0.31846 0.64955 0.0
C1199 C 0.75321 0.3363 0.7449 0.0
H1200 H 0.76712 0.30655 0.78433 0.0
C1201 C 0.778 0.33213 0.90961 0.0
C1202 C 0.78862 0.3255 0.91027 0.0
C1203 C 0.77075 0.33215 0.87232 0.0
C1204 C 0.76342 0.31494 0.7733 0.0
H1205 H 0.71481 0.33813 0.65975 0.0
H1206 H 0.72943 0.33812 0.71878 0.0
H1207 H 0.75336 0.30656 0.7221 0.0
H1208 H 0.79992 0.31366 0.87232 0.0
H1209 H 0.7872 0.31371 0.80703 0.0
H1210 H 0.76312 0.34466 0.79652 0.0
C1211 C 0.73109 0.33266 0.69002 0.0
C1212 C 0.75555 0.31495 0.73765 0.0
C1213 C 0.72266 0.3326 0.65627 0.0
C1214 C 0.79179 0.31885 0.87285 0.0
C1215 C 0.78449 0.31884 0.83555 0.0
C1216 C 0.76104 0.33628 0.78058 0.0
C1217 C 0.74139 0.3256 0.68707 0.0
C1218 C 0.75025 0.32562 0.72337 0.0
C1219 C 0.77392 0.32553 0.83487 0.0
C1220 C 0.76612 0.32559 0.79548 0.0
H1221 H 0.73616 0.3128 0.58724 0.0
H1222 H 0.75097 0.31301 0.64607 0.0
H1223 H 0.74947 0.34471 0.73416 0.0
H1224 H 0.77527 0.33733 0.9379 0.0
H1225 H 0.76257 0.33726 0.87301 0.0
C1226 C 0.92315 0.5121 0.19494 0.0
C1227 C 0.924 0.52458 0.19423 0.0
C1228 C 0.92329 0.50561 0.15565 0.0
C1229 C 0.93265 0.50692 0.04009 0.0
H1230 H 0.90792 0.48336 0.02131 0.0
C1231 C 0.92523 0.48459 0.87081 0.0
C1232 C 0.92177 0.47257 0.87039 0.0
C1233 C 0.92578 0.49089 0.91048 0.0
C1234 C 0.91501 0.48976 0.02619 0.0
H1235 H 0.92591 0.54003 0.15188 0.0
H1236 H 0.9263 0.52867 0.0834 0.0
H1237 H 0.90872 0.49419 0.09073 0.0
H1238 H 0.91644 0.45765 0.91129 0.0
H1239 H 0.91775 0.46849 0.98037 0.0
H1240 H 0.93909 0.50239 0.97597 0.0
C1241 C 0.9255 0.52393 0.11433 0.0
C1242 C 0.91543 0.49599 0.06597 0.0
C1243 C 0.92521 0.53042 0.15352 0.0
C1244 C 0.91903 0.46694 0.91045 0.0
C1245 C 0.91971 0.47319 0.95009 0.0
C1246 C 0.93231 0.5006 0.00046 0.0
C1247 C 0.92443 0.51147 0.11498 0.0
C1248 C 0.92422 0.50465 0.07324 0.0
C1249 C 0.92301 0.48527 0.95064 0.0
C1250 C 0.92346 0.49196 0.99293 0.0
H1251 H 0.92219 0.50734 0.22577 0.0
H1252 H 0.92253 0.496 0.15706 0.0
H1253 H 0.93959 0.51348 0.04505 0.0
H1254 H 0.92734 0.48918 0.84044 0.0
H1255 H 0.92818 0.50022 0.90952 0.0
C1256 C 0.26747 0.31321 0.62917 0.0
C1257 C 0.27665 0.32165 0.62528 0.0
C1258 C 0.26021 0.313 0.66655 0.0
C1259 C 0.2507 0.31028 0.75986 0.0
H1260 H 0.24076 0.34021 0.81183 0.0
C1261 C 0.22762 0.313 0.92981 0.0
C1262 C 0.21838 0.32134 0.93466 0.0
C1263 C 0.23454 0.31282 0.89153 0.0
C1264 C 0.24336 0.33177 0.79753 0.0
H1265 H 0.28547 0.33644 0.65779 0.0
H1266 H 0.27295 0.33595 0.72311 0.0
H1267 H 0.2529 0.34033 0.74549 0.0
H1268 H 0.20904 0.3359 0.90285 0.0
H1269 H 0.22095 0.33545 0.83596 0.0
H1270 H 0.24091 0.30173 0.81144 0.0
C1271 C 0.27121 0.32962 0.69699 0.0
C1272 C 0.25045 0.33183 0.75979 0.0
C1273 C 0.27843 0.32985 0.65961 0.0
C1274 C 0.21614 0.32941 0.90029 0.0
C1275 C 0.22301 0.3292 0.862 0.0
C1276 C 0.24357 0.31021 0.7976 0.0
C1277 C 0.26198 0.32122 0.70087 0.0
C1278 C 0.25425 0.3211 0.74059 0.0
C1279 C 0.23234 0.32095 0.85725 0.0
C1280 C 0.23984 0.32096 0.81692 0.0
H1281 H 0.26585 0.30679 0.60323 0.0
H1282 H 0.25309 0.30651 0.66827 0.0
H1283 H 0.25356 0.30185 0.74615 0.0
H1284 H 0.2296 0.30668 0.95573 0.0
H1285 H 0.24175 0.30645 0.88916 0.0
C1286 C 0.41643 0.53296 0.4246 0.0
C1287 C 0.41869 0.52659 0.38564 0.0
C1288 C 0.41657 0.52721 0.46537 0.0
C1289 C 0.42706 0.49969 0.52079 0.0
H1290 H 0.40344 0.50834 0.60836 0.0
C1291 C 0.41715 0.47108 0.67396 0.0
C1292 C 0.41565 0.47699 0.7144 0.0
C1293 C 0.41819 0.47752 0.63485 0.0
C1294 C 0.41018 0.50594 0.58443 0.0
H1295 H 0.42282 0.50917 0.3589 0.0
H1296 H 0.42279 0.49906 0.42994 0.0
H1297 H 0.40379 0.51867 0.53777 0.0
H1298 H 0.41412 0.4943 0.74552 0.0
H1299 H 0.41584 0.50558 0.67684 0.0
H1300 H 0.43324 0.48675 0.56726 0.0
C1301 C 0.42115 0.50856 0.42912 0.0
C1302 C 0.4104 0.51186 0.54397 0.0
C1303 C 0.4211 0.51434 0.38833 0.0
C1304 C 0.41528 0.4895 0.7149 0.0
C1305 C 0.4162 0.49594 0.67561 0.0
C1306 C 0.42678 0.49371 0.56112 0.0
C1307 C 0.41888 0.51493 0.46816 0.0
C1308 C 0.41881 0.50877 0.51155 0.0
C1309 C 0.41764 0.49001 0.6352 0.0
C1310 C 0.4183 0.49673 0.59326 0.0
H1311 H 0.41463 0.54243 0.42372 0.0
H1312 H 0.41498 0.53243 0.49475 0.0
H1313 H 0.4338 0.49723 0.49697 0.0
H1314 H 0.41749 0.46145 0.67239 0.0
H1315 H 0.41916 0.47269 0.60417 0.0
C1316 C 0.26526 0.68219 0.46121 0.0
C1317 C 0.27465 0.67394 0.46361 0.0
C1318 C 0.25789 0.68258 0.4241 0.0
C1319 C 0.24822 0.68591 0.33099 0.0
H1320 H 0.2391 0.65618 0.27547 0.0
C1321 C 0.22637 0.68377 0.15862 0.0
C1322 C 0.21746 0.67517 0.15191 0.0
C1323 C 0.23289 0.68395 0.19785 0.0
C1324 C 0.24145 0.66456 0.29078 0.0
H1325 H 0.28371 0.65969 0.42877 0.0
H1326 H 0.27102 0.6605 0.36412 0.0
H1327 H 0.251 0.65581 0.3423 0.0
H1328 H 0.20821 0.66021 0.18151 0.0
H1329 H 0.21941 0.66066 0.25001 0.0
H1330 H 0.23845 0.69464 0.27977 0.0
C1331 C 0.26919 0.66653 0.39112 0.0
C1332 C 0.24841 0.66436 0.32882 0.0
C1333 C 0.27652 0.66612 0.42814 0.0
C1334 C 0.21508 0.66689 0.18547 0.0
C1335 C 0.22154 0.66711 0.2247 0.0
C1336 C 0.24122 0.68611 0.29292 0.0
C1337 C 0.25976 0.67473 0.38868 0.0
C1338 C 0.25196 0.67502 0.34919 0.0
C1339 C 0.2306 0.67558 0.23124 0.0
C1340 C 0.23781 0.67544 0.27226 0.0
H1341 H 0.26357 0.68832 0.48803 0.0
H1342 H 0.25062 0.68892 0.42343 0.0
H1343 H 0.25088 0.69428 0.34567 0.0
H1344 H 0.22844 0.69026 0.13337 0.0
H1345 H 0.2399 0.6905 0.20161 0.0
C1346 C 0.07221 0.52993 0.16311 0.0
C1347 C 0.0712 0.52401 0.20366 0.0
C1348 C 0.07091 0.52372 0.12363 0.0
C1349 C 0.06034 0.49486 0.07684 0.0
H1350 H 0.08042 0.50422 0.97882 0.0
C1351 C 0.06969 0.46561 0.92376 0.0
C1352 C 0.06858 0.47118 0.88252 0.0
C1353 C 0.06887 0.47225 0.9625 0.0
C1354 C 0.07467 0.5016 0.0058 0.0
H1355 H 0.068 0.50695 0.23479 0.0
H1356 H 0.06624 0.49595 0.16586 0.0
H1357 H 0.08145 0.51526 0.04767 0.0
H1358 H 0.06565 0.48803 0.84943 0.0
H1359 H 0.06453 0.49972 0.91742 0.0
H1360 H 0.05401 0.48082 0.03501 0.0
C1361 C 0.06768 0.50547 0.1644 0.0
C1362 C 0.07521 0.50794 0.04527 0.0
C1363 C 0.06876 0.51175 0.20398 0.0
C1364 C 0.06651 0.48351 0.88076 0.0
C1365 C 0.06592 0.49019 0.91955 0.0
C1366 C 0.05996 0.48839 0.03754 0.0
C1367 C 0.0688 0.51137 0.12365 0.0
C1368 C 0.06805 0.50467 0.08138 0.0
C1369 C 0.06714 0.48461 0.96071 0.0
C1370 C 0.06713 0.49171 0.00172 0.0
H1371 H 0.07394 0.53942 0.16185 0.0
H1372 H 0.07154 0.52864 0.09307 0.0
H1373 H 0.05453 0.49219 0.10353 0.0
H1374 H 0.07124 0.4561 0.92613 0.0
H1375 H 0.06993 0.46777 0.99385 0.0
C1376 C 0.17883 0.20519 0.05938 0.0
C1377 C 0.17997 0.19811 0.09729 0.0
C1378 C 0.17615 0.21728 0.06292 0.0
C1379 C 0.17988 0.24218 0.13868 0.0
H1380 H 0.16037 0.25884 0.05323 0.0
C1381 C 0.17818 0.29348 0.13261 0.0
C1382 C 0.17988 0.29827 0.09031 0.0
C1383 C 0.17557 0.28138 0.13796 0.0
C1384 C 0.16584 0.25431 0.07735 0.0
H1385 H 0.17875 0.19807 0.1686 0.0
H1386 H 0.1741 0.21926 0.17472 0.0
H1387 H 0.16043 0.2371 0.05452 0.0
H1388 H 0.17967 0.29424 0.02041 0.0
H1389 H 0.17526 0.27323 0.02974 0.0
H1390 H 0.18567 0.25934 0.16039 0.0
C1391 C 0.17536 0.21543 0.14231 0.0
C1392 C 0.16587 0.24187 0.07809 0.0
C1393 C 0.17797 0.20329 0.13877 0.0
C1394 C 0.17845 0.29083 0.05348 0.0
C1395 C 0.17582 0.27878 0.05881 0.0
C1396 C 0.17987 0.25461 0.13789 0.0
C1397 C 0.1746 0.22258 0.10444 0.0
C1398 C 0.17315 0.23568 0.10795 0.0
C1399 C 0.17455 0.27387 0.10111 0.0
C1400 C 0.17311 0.26081 0.10638 0.0
H1401 H 0.18028 0.20146 0.02692 0.0
H1402 H 0.17579 0.22258 0.03314 0.0
H1403 H 0.18568 0.23766 0.16179 0.0
H1404 H 0.17917 0.29898 0.16166 0.0
H1405 H 0.17453 0.27787 0.17096 0.0
C1406 C 0.04221 0.95093 0.38954 0.0
C1407 C 0.04835 0.94434 0.35744 0.0
C1408 C 0.02994 0.94959 0.39484 0.0
C1409 C 0.00401 0.93059 0.36657 0.0
H1410 H 0.98684 0.96048 0.37417 0.0
C1411 C 0.95365 0.93555 0.32924 0.0
C1412 C 0.94714 0.94384 0.35424 0.0
C1413 C 0.96594 0.93438 0.33513 0.0
C1414 C 0.99147 0.95203 0.37285 0.0
H1415 H 0.04652 0.93074 0.30713 0.0
H1416 H 0.02504 0.92853 0.31599 0.0
H1417 H 0.00844 0.96056 0.37498 0.0
H1418 H 0.9483 0.95688 0.40679 0.0
H1419 H 0.96967 0.95472 0.41742 0.0
H1420 H 0.98693 0.92211 0.3635 0.0
C1421 C 0.02974 0.93465 0.33735 0.0
C1422 C 0.00388 0.95208 0.37332 0.0
C1423 C 0.04204 0.93597 0.33214 0.0
C1424 C 0.95307 0.95051 0.38663 0.0
C1425 C 0.96533 0.94931 0.3926 0.0
C1426 C 0.99155 0.93054 0.3661 0.0
C1427 C 0.02352 0.94167 0.36805 0.0
C1428 C 0.01031 0.94138 0.36995 0.0
C1429 C 0.97195 0.94145 0.3662 0.0
C1430 C 0.98515 0.94128 0.36901 0.0
H1431 H 0.04683 0.95737 0.40991 0.0
H1432 H 0.02544 0.95495 0.41939 0.0
H1433 H 0.00871 0.92219 0.36431 0.0
H1434 H 0.94933 0.93027 0.30403 0.0
H1435 H 0.9708 0.92831 0.31404 0.0
C1436 C 0.31628 0.78911 0.56091 0.0
C1437 C 0.31374 0.79675 0.59633 0.0
C1438 C 0.31888 0.77713 0.56833 0.0
C1439 C 0.31268 0.75338 0.64684 0.0
H1440 H 0.33525 0.73577 0.57536 0.0
C1441 C 0.31475 0.70213 0.65206 0.0
C1442 C 0.31454 0.69674 0.61029 0.0
C1443 C 0.3172 0.71429 0.65626 0.0
C1444 C 0.32892 0.74057 0.5956 0.0
H1445 H 0.31238 0.79791 0.66748 0.0
H1446 H 0.31691 0.77691 0.68039 0.0
H1447 H 0.33496 0.75749 0.57203 0.0
H1448 H 0.31729 0.69976 0.54042 0.0
H1449 H 0.32141 0.72089 0.54769 0.0
H1450 H 0.3063 0.73648 0.66907 0.0
C1451 C 0.3168 0.78021 0.64688 0.0
C1452 C 0.32876 0.75299 0.5937 0.0
C1453 C 0.31425 0.79224 0.63947 0.0
C1454 C 0.31733 0.70363 0.57308 0.0
C1455 C 0.3198 0.71575 0.57729 0.0
C1456 C 0.31282 0.74096 0.64868 0.0
C1457 C 0.31897 0.7725 0.61132 0.0
C1458 C 0.32041 0.75951 0.61835 0.0
C1459 C 0.31954 0.72127 0.6188 0.0
C1460 C 0.32071 0.73441 0.62212 0.0
H1461 H 0.31599 0.79231 0.52727 0.0
H1462 H 0.32036 0.77139 0.54019 0.0
H1463 H 0.30606 0.75814 0.6659 0.0
H1464 H 0.3127 0.69705 0.6814 0.0
H1465 H 0.31705 0.71828 0.68873 0.0
C1466 C 0.45446 0.04642 0.89007 0.0
C1467 C 0.44739 0.05346 0.86218 0.0
C1468 C 0.46646 0.04913 0.89651 0.0
C1469 C 0.49116 0.06336 0.83869 0.0
H1470 H 0.50808 0.05738 0.94777 0.0
C1471 C 0.54226 0.06426 0.84433 0.0
C1472 C 0.54741 0.05427 0.86472 0.0
C1473 C 0.53018 0.06682 0.85021 0.0
C1474 C 0.50347 0.05909 0.91708 0.0
H1475 H 0.44721 0.06927 0.82107 0.0
H1476 H 0.46819 0.07403 0.83252 0.0
H1477 H 0.48633 0.05714 0.94714 0.0
H1478 H 0.54407 0.03952 0.90921 0.0
H1479 H 0.52303 0.04386 0.91889 0.0
H1480 H 0.50823 0.06485 0.80819 0.0
C1481 C 0.46446 0.06632 0.84892 0.0
C1482 C 0.49103 0.05895 0.91673 0.0
C1483 C 0.45244 0.06361 0.84251 0.0
C1484 C 0.54038 0.04726 0.89287 0.0
C1485 C 0.52831 0.04981 0.89871 0.0
C1486 C 0.50358 0.06348 0.83903 0.0
C1487 C 0.47167 0.05895 0.8752 0.0
C1488 C 0.48474 0.06079 0.87728 0.0
C1489 C 0.52301 0.05944 0.87662 0.0
C1490 C 0.50989 0.06105 0.87798 0.0
H1491 H 0.45083 0.03856 0.90585 0.0
H1492 H 0.47179 0.0432 0.91657 0.0
H1493 H 0.4866 0.06465 0.80761 0.0
H1494 H 0.54746 0.06991 0.82271 0.0
H1495 H 0.52639 0.07441 0.83325 0.0
C1496 C 0.1769 0.79007 0.02377 0.0
C1497 C 0.17828 0.79725 0.98622 0.0
C1498 C 0.1744 0.77795 0.01957 0.0
C1499 C 0.17917 0.75332 0.94354 0.0
H1500 H 0.15927 0.73611 0.02627 0.0
C1501 C 0.1786 0.702 0.94841 0.0
C1502 C 0.18003 0.69719 0.99081 0.0
C1503 C 0.17573 0.71403 0.94295 0.0
C1504 C 0.16485 0.74079 0.0029 0.0
H1505 H 0.1776 0.79744 0.91481 0.0
H1506 H 0.17325 0.77622 0.90754 0.0
H1507 H 0.15892 0.75785 0.02555 0.0
H1508 H 0.17906 0.7011 0.06072 0.0
H1509 H 0.17422 0.72201 0.05121 0.0
H1510 H 0.18548 0.73632 0.9221 0.0
C1511 C 0.1742 0.77998 0.94019 0.0
C1512 C 0.16464 0.75323 0.00248 0.0
C1513 C 0.17665 0.79214 0.94439 0.0
C1514 C 0.17807 0.70453 0.02758 0.0
C1515 C 0.17518 0.71651 0.02213 0.0
C1516 C 0.1794 0.74089 0.94402 0.0
C1517 C 0.17325 0.77273 0.97774 0.0
C1518 C 0.17205 0.75962 0.97364 0.0
C1519 C 0.17419 0.72146 0.97979 0.0
C1520 C 0.1725 0.7345 0.97458 0.0
H1521 H 0.17807 0.79373 0.05649 0.0
H1522 H 0.17387 0.77258 0.04914 0.0
H1523 H 0.18507 0.758 0.92123 0.0
H1524 H 0.18 0.69656 0.91941 0.0
H1525 H 0.17491 0.71756 0.90991 0.0
C1526 C 0.45394 0.93176 0.26371 0.0
C1527 C 0.44702 0.93645 0.22929 0.0
C1528 C 0.46608 0.92965 0.25777 0.0
C1529 C 0.49123 0.94021 0.19166 0.0
H1530 H 0.50789 0.91414 0.24843 0.0
C1531 C 0.54241 0.9371 0.18894 0.0
C1532 C 0.54765 0.93508 0.23032 0.0
C1533 C 0.53021 0.93531 0.18276 0.0
C1534 C 0.50336 0.92147 0.23241 0.0
H1535 H 0.44732 0.94211 0.16098 0.0
H1536 H 0.46854 0.93836 0.15056 0.0
H1537 H 0.48615 0.91446 0.24816 0.0
H1538 H 0.54427 0.92908 0.2971 0.0
H1539 H 0.52302 0.92605 0.28639 0.0
H1540 H 0.50841 0.94741 0.17699 0.0
C1541 C 0.46458 0.93646 0.18233 0.0
C1542 C 0.49092 0.92166 0.23228 0.0
C1543 C 0.45242 0.93856 0.18826 0.0
C1544 C 0.54052 0.93075 0.26482 0.0
C1545 C 0.52834 0.92893 0.25861 0.0
C1546 C 0.50366 0.94002 0.19175 0.0
C1547 C 0.47159 0.93218 0.21727 0.0
C1548 C 0.48472 0.93117 0.21276 0.0
C1549 C 0.523 0.93142 0.21777 0.0
C1550 C 0.50986 0.93079 0.21297 0.0
H1551 H 0.45006 0.93001 0.29572 0.0
H1552 H 0.47124 0.92649 0.28554 0.0
H1553 H 0.48675 0.94775 0.17685 0.0
H1554 H 0.54767 0.94039 0.16161 0.0
H1555 H 0.52637 0.93717 0.15077 0.0
C1556 C 0.31772 0.2053 0.52673 0.0
C1557 C 0.3156 0.19767 0.49089 0.0
C1558 C 0.32025 0.21732 0.51983 0.0
C1559 C 0.31463 0.24108 0.44066 0.0
H1560 H 0.33613 0.25888 0.51585 0.0
C1561 C 0.31657 0.29237 0.43549 0.0
C1562 C 0.31579 0.29779 0.47712 0.0
C1563 C 0.31906 0.2802 0.43186 0.0
C1564 C 0.3301 0.25403 0.49457 0.0
H1565 H 0.31494 0.19659 0.4196 0.0
H1566 H 0.31936 0.21764 0.40759 0.0
H1567 H 0.33604 0.23716 0.51897 0.0
H1568 H 0.31752 0.29481 0.54744 0.0
H1569 H 0.32174 0.27367 0.54112 0.0
H1570 H 0.30837 0.25794 0.41745 0.0
C1571 C 0.31896 0.2143 0.44102 0.0
C1572 C 0.33005 0.24161 0.49635 0.0
C1573 C 0.31648 0.20224 0.44791 0.0
C1574 C 0.31802 0.29091 0.51487 0.0
C1575 C 0.32054 0.27879 0.51124 0.0
C1576 C 0.31468 0.25351 0.43889 0.0
C1577 C 0.3207 0.222 0.47695 0.0
C1578 C 0.32207 0.23501 0.47031 0.0
C1579 C 0.32088 0.27325 0.46976 0.0
C1580 C 0.32217 0.26013 0.46674 0.0
H1581 H 0.31715 0.20206 0.56026 0.0
H1582 H 0.32139 0.22303 0.54824 0.0
H1583 H 0.30829 0.23627 0.4205 0.0
H1584 H 0.31495 0.29744 0.40575 0.0
H1585 H 0.31938 0.2762 0.39943 0.0
C1586 C 0.95033 0.06429 0.76365 0.0
C1587 C 0.94511 0.05613 0.73432 0.0
C1588 C 0.96248 0.06687 0.76109 0.0
C1589 C 0.98923 0.0639 0.68989 0.0
H1590 H 0.00604 0.06222 0.80122 0.0
C1591 C 0.03904 0.05246 0.70378 0.0
C1592 C 0.04579 0.05772 0.7375 0.0
C1593 C 0.02684 0.05467 0.70045 0.0
C1594 C 0.00149 0.06296 0.76989 0.0
H1595 H 0.94846 0.04469 0.67807 0.0
H1596 H 0.96965 0.04909 0.67397 0.0
H1597 H 0.9844 0.06186 0.80054 0.0
H1598 H 0.04515 0.06993 0.79286 0.0
H1599 H 0.02385 0.07387 0.78677 0.0
H1600 H 0.00639 0.06465 0.65923 0.0
C1601 C 0.96435 0.05358 0.69869 0.0
C1602 C 0.98907 0.06275 0.7695 0.0
C1603 C 0.9522 0.051 0.70125 0.0
C1604 C 0.04018 0.06566 0.76668 0.0
C1605 C 0.02797 0.06788 0.76333 0.0
C1606 C 0.00167 0.06412 0.69028 0.0
C1607 C 0.96967 0.06136 0.72913 0.0
C1608 C 0.98279 0.06298 0.72947 0.0
C1609 C 0.02112 0.06222 0.73073 0.0
C1610 C 0.00795 0.06341 0.73026 0.0
H1611 H 0.9451 0.06847 0.78933 0.0
H1612 H 0.9663 0.07303 0.78463 0.0
H1613 H 0.98464 0.06428 0.65855 0.0
H1614 H 0.04309 0.04632 0.6807 0.0
H1615 H 0.02181 0.05006 0.67525 0.0
C1616 C 0.81806 0.70129 0.02016 0.0
C1617 C 0.81522 0.69421 0.98348 0.0
C1618 C 0.82079 0.71332 0.01495 0.0
C1619 C 0.81433 0.73814 0.94123 0.0
H1620 H 0.83639 0.75489 0.01753 0.0
C1621 C 0.81595 0.78945 0.94772 0.0
C1622 C 0.81534 0.79411 0.99063 0.0
C1623 C 0.81849 0.77739 0.94096 0.0
C1624 C 0.83022 0.75033 0.99593 0.0
H1625 H 0.8136 0.69408 0.91229 0.0
H1626 H 0.81841 0.71516 0.90321 0.0
H1627 H 0.83652 0.73315 0.01568 0.0
H1628 H 0.8174 0.7899 0.05996 0.0
H1629 H 0.82175 0.76893 0.04817 0.0
H1630 H 0.80774 0.75529 0.92266 0.0
C1631 C 0.81839 0.71139 0.93604 0.0
C1632 C 0.83028 0.73789 0.99487 0.0
C1633 C 0.81568 0.69931 0.94124 0.0
C1634 C 0.81776 0.78658 0.02649 0.0
C1635 C 0.82036 0.77458 0.01971 0.0
C1636 C 0.81428 0.75057 0.94224 0.0
C1637 C 0.82074 0.71857 0.97295 0.0
C1638 C 0.82209 0.73166 0.96854 0.0
C1639 C 0.82056 0.7698 0.97694 0.0
C1640 C 0.82197 0.75678 0.97061 0.0
H1641 H 0.81782 0.69763 0.05316 0.0
H1642 H 0.8224 0.71862 0.04414 0.0
H1643 H 0.80782 0.73362 0.92095 0.0
H1644 H 0.81416 0.79503 0.9194 0.0
H1645 H 0.81867 0.77398 0.90761 0.0
C1646 C 0.67528 0.20354 0.45797 0.0
C1647 C 0.67816 0.19847 0.49895 0.0
C1648 C 0.67294 0.21573 0.45448 0.0
C1649 C 0.66586 0.24271 0.52003 0.0
H1650 H 0.68333 0.25929 0.42851 0.0
C1651 C 0.67921 0.29186 0.53324 0.0
C1652 C 0.67934 0.29894 0.49509 0.0
C1653 C 0.67657 0.27975 0.53068 0.0
C1654 C 0.67819 0.2548 0.45372 0.0
H1655 H 0.68035 0.20214 0.56864 0.0
H1656 H 0.67637 0.22335 0.5625 0.0
H1657 H 0.68305 0.2376 0.42936 0.0
H1658 H 0.67637 0.29893 0.42449 0.0
H1659 H 0.67173 0.27771 0.42008 0.0
H1660 H 0.66133 0.25992 0.54519 0.0
C1661 C 0.67582 0.21791 0.53309 0.0
C1662 C 0.67803 0.24236 0.45421 0.0
C1663 C 0.6782 0.20576 0.53656 0.0
C1664 C 0.67639 0.29371 0.45447 0.0
C1665 C 0.67379 0.28155 0.4519 0.0
C1666 C 0.66602 0.25514 0.51953 0.0
C1667 C 0.67336 0.22307 0.49193 0.0
C1668 C 0.67212 0.23619 0.48801 0.0
C1669 C 0.67401 0.27441 0.48991 0.0
C1670 C 0.67244 0.26132 0.48702 0.0
H1671 H 0.67513 0.19815 0.42838 0.0
H1672 H 0.67096 0.21944 0.42239 0.0
H1673 H 0.66105 0.23819 0.54605 0.0
H1674 H 0.68142 0.29561 0.56507 0.0
H1675 H 0.67698 0.27447 0.5605 0.0
C1676 C 0.81712 0.29515 0.13853 0.0
C1677 C 0.81641 0.29995 0.09587 0.0
C1678 C 0.81967 0.28307 0.14465 0.0
C1679 C 0.8309 0.25604 0.08754 0.0
H1680 H 0.80866 0.23938 0.1634 0.0
C1681 C 0.81786 0.20723 0.06212 0.0
C1682 C 0.81541 0.20003 0.09886 0.0
C1683 C 0.82067 0.21924 0.06748 0.0
C1684 C 0.81512 0.24389 0.14281 0.0
H1685 H 0.81839 0.296 0.0263 0.0
H1686 H 0.82273 0.275 0.03692 0.0
H1687 H 0.8089 0.26106 0.16278 0.0
H1688 H 0.81446 0.19968 0.17022 0.0
H1689 H 0.81936 0.22074 0.17954 0.0
H1690 H 0.83677 0.23884 0.0663 0.0
C1691 C 0.82141 0.28054 0.06572 0.0
C1692 C 0.81526 0.25633 0.14246 0.0
C1693 C 0.81882 0.29257 0.05961 0.0
C1694 C 0.81625 0.20501 0.14123 0.0
C1695 C 0.81901 0.21707 0.14658 0.0
C1696 C 0.83075 0.2436 0.08787 0.0
C1697 C 0.82164 0.27559 0.10823 0.0
C1698 C 0.8229 0.26253 0.11384 0.0
C1699 C 0.82106 0.22435 0.1097 0.0
C1700 C 0.82261 0.2374 0.11453 0.0
H1701 H 0.81536 0.30062 0.16717 0.0
H1702 H 0.8199 0.27953 0.17782 0.0
H1703 H 0.83703 0.26058 0.06572 0.0
H1704 H 0.81732 0.20367 0.02903 0.0
H1705 H 0.82204 0.22463 0.03835 0.0
C1706 C 0.67658 0.70684 0.56679 0.0
C1707 C 0.67872 0.69954 0.60353 0.0
C1708 C 0.67378 0.71884 0.57223 0.0
C1709 C 0.67879 0.74323 0.64948 0.0
H1710 H 0.65846 0.76045 0.56823 0.0
C1711 C 0.67771 0.79454 0.64564 0.0
C1712 C 0.67946 0.79932 0.60333 0.0
C1713 C 0.67482 0.78251 0.65094 0.0
C1714 C 0.66413 0.75576 0.59126 0.0
H1715 H 0.67901 0.699 0.67494 0.0
H1716 H 0.67406 0.72003 0.68443 0.0
H1717 H 0.65819 0.73871 0.56865 0.0
H1718 H 0.67896 0.79538 0.5334 0.0
H1719 H 0.67396 0.77446 0.54267 0.0
H1720 H 0.68504 0.76026 0.67101 0.0
C1721 C 0.6747 0.71646 0.6514 0.0
C1722 C 0.66399 0.74332 0.59148 0.0
C1723 C 0.67748 0.7044 0.64595 0.0
C1724 C 0.67773 0.79197 0.56645 0.0
C1725 C 0.67477 0.77999 0.57174 0.0
C1726 C 0.6789 0.75567 0.64934 0.0
C1727 C 0.67304 0.72385 0.61455 0.0
C1728 C 0.67161 0.73692 0.61959 0.0
C1729 C 0.67351 0.77507 0.61404 0.0
C1730 C 0.67186 0.76205 0.61925 0.0
H1731 H 0.67742 0.70338 0.53364 0.0
H1732 H 0.67273 0.72431 0.54311 0.0
H1733 H 0.68486 0.73859 0.67122 0.0
H1734 H 0.67894 0.79998 0.67472 0.0
H1735 H 0.67381 0.77898 0.68392 0.0
C1736 C 0.53998 0.43071 0.83526 0.0
C1737 C 0.54538 0.44004 0.85877 0.0
C1738 C 0.52779 0.42847 0.83969 0.0
C1739 C 0.50114 0.43558 0.90767 0.0
H1740 H 0.48435 0.43246 0.79672 0.0
C1741 C 0.45227 0.44927 0.88397 0.0
C1742 C 0.44509 0.44274 0.85479 0.0
C1743 C 0.46428 0.44643 0.88928 0.0
C1744 C 0.48888 0.43308 0.82812 0.0
H1745 H 0.54232 0.45397 0.907 0.0
H1746 H 0.5211 0.4502 0.91421 0.0
H1747 H 0.50598 0.43186 0.79763 0.0
H1748 H 0.44475 0.42772 0.80984 0.0
H1749 H 0.46577 0.42274 0.81923 0.0
H1750 H 0.48398 0.43724 0.93786 0.0
C1751 C 0.52627 0.44451 0.8927 0.0
C1752 C 0.5013 0.43273 0.82865 0.0
C1753 C 0.53844 0.44673 0.8883 0.0
C1754 C 0.45007 0.43298 0.83238 0.0
C1755 C 0.46211 0.43015 0.83761 0.0
C1756 C 0.4887 0.43595 0.90712 0.0
C1757 C 0.52075 0.43552 0.86773 0.0
C1758 C 0.50759 0.43426 0.86828 0.0
C1759 C 0.46939 0.43699 0.86549 0.0
C1760 C 0.48245 0.43498 0.86719 0.0
H1761 H 0.5451 0.42533 0.81247 0.0
H1762 H 0.52384 0.42138 0.82048 0.0
H1763 H 0.50572 0.43659 0.93884 0.0
H1764 H 0.4487 0.45682 0.90186 0.0
H1765 H 0.46967 0.45196 0.91063 0.0
C1766 C 0.95865 0.56991 0.31416 0.0
C1767 C 0.95094 0.56719 0.34918 0.0
C1768 C 0.97057 0.57266 0.32216 0.0
C1769 C 0.99406 0.56604 0.40069 0.0
H1770 H 0.01203 0.58842 0.32963 0.0
C1771 C 0.04531 0.56585 0.40094 0.0
C1772 C 0.05028 0.56549 0.35847 0.0
C1773 C 0.03336 0.569 0.40687 0.0
C1774 C 0.00713 0.58215 0.34983 0.0
H1775 H 0.94956 0.56575 0.42025 0.0
H1776 H 0.97047 0.5705 0.43417 0.0
H1777 H 0.9903 0.58871 0.32726 0.0
H1778 H 0.0468 0.56878 0.28923 0.0
H1779 H 0.02605 0.5741 0.29947 0.0
H1780 H 0.01084 0.55909 0.42164 0.0
C1781 C 0.96726 0.57043 0.40053 0.0
C1782 C 0.9947 0.58233 0.34849 0.0
C1783 C 0.95529 0.56776 0.39254 0.0
C1784 C 0.04324 0.5689 0.32238 0.0
C1785 C 0.03135 0.57207 0.32831 0.0
C1786 C 0.00648 0.56584 0.40195 0.0
C1787 C 0.97506 0.5727 0.36533 0.0
C1788 C 0.98805 0.57401 0.37278 0.0
C1789 C 0.02619 0.5719 0.37047 0.0
C1790 C 0.01316 0.57363 0.37538 0.0
H1791 H 0.95557 0.5696 0.28038 0.0
H1792 H 0.97638 0.57421 0.29428 0.0
H1793 H 0.98918 0.55944 0.41948 0.0
H1794 H 0.05052 0.56333 0.42946 0.0
H1795 H 0.02967 0.5689 0.43982 0.0
C1796 C 0.95202 0.43396 0.67309 0.0
C1797 C 0.94676 0.43355 0.71507 0.0
C1798 C 0.96411 0.43133 0.66771 0.0
C1799 C 0.99026 0.4178 0.72342 0.0
H1800 H 0.00819 0.44161 0.65897 0.0
C1801 C 0.03929 0.42827 0.75857 0.0
C1802 C 0.04677 0.43186 0.72394 0.0
C1803 C 0.02726 0.42594 0.75092 0.0
C1804 C 0.00333 0.43472 0.67628 0.0
H1805 H 0.94992 0.42952 0.78398 0.0
H1806 H 0.97095 0.42504 0.77465 0.0
H1807 H 0.98653 0.44204 0.65716 0.0
H1808 H 0.04763 0.43521 0.65365 0.0
H1809 H 0.02658 0.4311 0.64029 0.0
H1810 H 0.00708 0.41074 0.74381 0.0
C1811 C 0.96575 0.4273 0.7458 0.0
C1812 C 0.9909 0.43497 0.67526 0.0
C1813 C 0.95371 0.42997 0.7512 0.0
C1814 C 0.04208 0.43254 0.6811 0.0
C1815 C 0.03002 0.43023 0.67346 0.0
C1816 C 0.00269 0.41754 0.72442 0.0
C1817 C 0.97114 0.42817 0.70416 0.0
C1818 C 0.98423 0.42673 0.69983 0.0
C1819 C 0.02243 0.42715 0.70847 0.0
C1820 C 0.00936 0.42621 0.70188 0.0
H1821 H 0.9469 0.43664 0.64454 0.0
H1822 H 0.968 0.43197 0.63515 0.0
H1823 H 0.98535 0.4112 0.74208 0.0
H1824 H 0.04262 0.42762 0.79196 0.0
H1825 H 0.02164 0.42373 0.77874 0.0
C1826 C 0.45673 0.54715 0.20686 0.0
C1827 C 0.44983 0.5544 0.23463 0.0
C1828 C 0.46891 0.54924 0.2019 0.0
C1829 C 0.49404 0.56211 0.26186 0.0
H1830 H 0.5109 0.55673 0.15218 0.0
C1831 C 0.54516 0.56322 0.25503 0.0
C1832 C 0.55039 0.55347 0.23336 0.0
C1833 C 0.53303 0.56562 0.25004 0.0
C1834 C 0.50631 0.55825 0.18305 0.0
H1835 H 0.4502 0.56986 0.27752 0.0
H1836 H 0.47149 0.57353 0.26865 0.0
H1837 H 0.48915 0.55682 0.15278 0.0
H1838 H 0.5471 0.53896 0.18775 0.0
H1839 H 0.52596 0.54305 0.17956 0.0
H1840 H 0.51114 0.56315 0.29247 0.0
C1841 C 0.46748 0.56614 0.25117 0.0
C1842 C 0.49387 0.5583 0.18339 0.0
C1843 C 0.45529 0.56406 0.2561 0.0
C1844 C 0.54335 0.54652 0.20502 0.0
C1845 C 0.53123 0.54892 0.20007 0.0
C1846 C 0.50647 0.56205 0.26153 0.0
C1847 C 0.47446 0.55863 0.2246 0.0
C1848 C 0.4876 0.55999 0.22298 0.0
C1849 C 0.52587 0.55834 0.22328 0.0
C1850 C 0.51275 0.55987 0.22231 0.0
H1851 H 0.45279 0.53966 0.18976 0.0
H1852 H 0.47405 0.54321 0.1816 0.0
H1853 H 0.48949 0.56327 0.29303 0.0
H1854 H 0.55036 0.5688 0.27685 0.0
H1855 H 0.5292 0.57305 0.26786 0.0
C1856 C 0.22876 0.14743 0.15549 0.0
C1857 C 0.21731 0.15245 0.15324 0.0
C1858 C 0.23486 0.14695 0.19555 0.0
C1859 C 0.23599 0.1625 0.30169 0.0
H1860 H 0.25692 0.13663 0.33579 0.0
C1861 C 0.26158 0.1636 0.4652 0.0
C1862 C 0.27366 0.16041 0.46337 0.0
C1863 C 0.25406 0.16134 0.42961 0.0
C1864 C 0.25116 0.14395 0.32653 0.0
H1865 H 0.20302 0.16028 0.19166 0.0
H1866 H 0.21359 0.15928 0.26154 0.0
H1867 H 0.24471 0.13474 0.26951 0.0
H1868 H 0.28727 0.15203 0.42321 0.0
H1869 H 0.27416 0.14823 0.36073 0.0
H1870 H 0.24254 0.17181 0.35802 0.0
C1871 C 0.21796 0.15595 0.23221 0.0
C1872 C 0.24417 0.14286 0.28863 0.0
C1873 C 0.21188 0.15647 0.19218 0.0
C1874 C 0.278 0.15461 0.42562 0.0
C1875 C 0.27047 0.15236 0.38993 0.0
C1876 C 0.24296 0.16358 0.33947 0.0
C1877 C 0.22962 0.15144 0.23417 0.0
C1878 C 0.23656 0.15217 0.27566 0.0
C1879 C 0.25845 0.15586 0.39131 0.0
C1880 C 0.25068 0.15436 0.3522 0.0
H1881 H 0.23319 0.14424 0.12608 0.0
H1882 H 0.24387 0.14351 0.19588 0.0
H1883 H 0.23042 0.16994 0.29216 0.0
H1884 H 0.25793 0.16799 0.49396 0.0
H1885 H 0.2448 0.16396 0.43197 0.0
C1886 C 0.09903 0.96729 0.42938 0.0
C1887 C 0.09918 0.97235 0.38705 0.0
C1888 C 0.10117 0.97433 0.46647 0.0
C1889 C 0.09717 0.00483 0.50285 0.0
H1890 H 0.11516 0.99489 0.60541 0.0
C1891 C 0.09722 0.03322 0.65995 0.0
C1892 C 0.096 0.02701 0.69983 0.0
C1893 C 0.09996 0.02715 0.62112 0.0
C1894 C 0.11003 0.99776 0.57714 0.0
H1895 H 0.10228 0.98864 0.35028 0.0
H1896 H 0.10589 0.00093 0.41514 0.0
H1897 H 0.11586 0.98292 0.53826 0.0
H1898 H 0.09703 0.00961 0.73058 0.0
H1899 H 0.1014 -0.00104 0.66275 0.0
H1900 H 0.09085 0.01931 0.54182 0.0
C1901 C 0.10407 0.99153 0.41954 0.0
C1902 C 0.11048 0.99092 0.53869 0.0
C1903 C 0.10203 0.98447 0.38244 0.0
C1904 C 0.09794 0.01465 0.70036 0.0
C1905 C 0.10053 0.00856 0.66144 0.0
C1906 C 0.09661 0.01158 0.54133 0.0
C1907 C 0.10339 0.98658 0.46194 0.0
C1908 C 0.10393 0.99433 0.50137 0.0
C1909 C 0.10138 0.0147 0.62119 0.0
C1910 C 0.10291 0.00806 0.57919 0.0
H1911 H 0.09691 0.95797 0.43402 0.0
H1912 H 0.10051 0.9703 0.49878 0.0
H1913 H 0.09187 0.00757 0.4748 0.0
H1914 H 0.09591 0.04277 0.6586 0.0
H1915 H 0.10079 0.03221 0.59092 0.0
C1916 C 0.22765 0.84699 0.93145 0.0
C1917 C 0.21602 0.84238 0.93335 0.0
C1918 C 0.23376 0.8475 0.8914 0.0
C1919 C 0.23433 0.83261 0.78392 0.0
H1920 H 0.2561 0.85798 0.7519 0.0
C1921 C 0.25985 0.83164 0.62024 0.0
C1922 C 0.27203 0.83443 0.62228 0.0
C1923 C 0.25241 0.83395 0.65603 0.0
C1924 C 0.2501 0.8508 0.76056 0.0
H1925 H 0.20146 0.83529 0.89437 0.0
H1926 H 0.21205 0.83634 0.82452 0.0
H1927 H 0.24398 0.85985 0.81843 0.0
H1928 H 0.28591 0.84214 0.66302 0.0
H1929 H 0.27292 0.84601 0.72581 0.0
H1930 H 0.24054 0.82345 0.72674 0.0
C1931 C 0.21654 0.83933 0.8541 0.0
C1932 C 0.24316 0.85187 0.79861 0.0
C1933 C 0.21045 0.83879 0.89411 0.0
C1934 C 0.27655 0.83988 0.66043 0.0
C1935 C 0.2691 0.84217 0.69632 0.0
C1936 C 0.24124 0.83154 0.74599 0.0
C1937 C 0.22835 0.84344 0.85244 0.0
C1938 C 0.23525 0.84274 0.81083 0.0
C1939 C 0.25698 0.83907 0.69472 0.0
C1940 C 0.24926 0.84058 0.734 0.0
H1941 H 0.23219 0.84984 0.96109 0.0
H1942 H 0.24288 0.85063 0.89129 0.0
H1943 H 0.22851 0.8253 0.79285 0.0
H1944 H 0.25606 0.82753 0.59117 0.0
H1945 H 0.24307 0.83164 0.6535 0.0
C1946 C 0.39308 0.01128 0.88226 0.0
C1947 C 0.39617 0.02333 0.88738 0.0
C1948 C 0.39055 0.00424 0.919 0.0
C1949 C 0.38315 0.00491 0.03743 0.0
H1950 H 0.40242 0.9763 0.04278 0.0
C1951 C 0.39501 0.98166 0.20057 0.0
C1952 C 0.39709 0.96933 0.20065 0.0
C1953 C 0.39238 0.98758 0.16133 0.0
C1954 C 0.39673 0.98409 0.04164 0.0
H1955 H 0.39831 0.03763 0.93479 0.0
H1956 H 0.39385 0.02533 -0.00109 0.0
H1957 H 0.40195 0.98795 0.97548 0.0
H1958 H 0.39728 0.95341 0.1603 0.0
H1959 H 0.39231 0.96366 0.09207 0.0
H1960 H 0.37802 0.00112 0.10384 0.0
C1961 C 0.3934 0.02134 0.96647 0.0
C1962 C 0.3965 0.99079 0.00299 0.0
C1963 C 0.39603 0.02836 0.92977 0.0
C1964 C 0.39588 0.96294 0.16115 0.0
C1965 C 0.39309 0.96884 0.12201 0.0
C1966 C 0.38327 -0.00187 0.07605 0.0
C1967 C 0.39094 0.00914 0.96152 0.0
C1968 C 0.38991 0.00139 0.00078 0.0
C1969 C 0.39162 0.98128 0.12137 0.0
C1970 C 0.39028 0.98777 0.07895 0.0
H1971 H 0.39305 0.00715 0.85002 0.0
H1972 H 0.38857 0.99489 0.91426 0.0
H1973 H 0.37789 0.013 0.03641 0.0
H1974 H 0.3959 0.98683 0.23051 0.0
H1975 H 0.39147 0.99718 0.16212 0.0
C1976 C 0.76178 0.8309 0.9647 0.0
C1977 C 0.77408 0.8331 0.96265 0.0
C1978 C 0.75445 0.83357 0.92894 0.0
C1979 C 0.7529 0.85061 0.82465 0.0
H1980 H 0.73005 0.82624 0.79236 0.0
C1981 C 0.72998 0.84808 0.65418 0.0
C1982 C 0.71819 0.84391 0.65249 0.0
C1983 C 0.73616 0.84833 0.69412 0.0
C1984 C 0.73623 0.83324 0.8013 0.0
H1985 H 0.7883 0.84014 0.92188 0.0
H1986 H 0.77551 0.84465 0.85911 0.0
H1987 H 0.74207 0.82371 0.85816 0.0
H1988 H 0.70339 0.83743 0.69176 0.0
H1989 H 0.71411 0.83806 0.76139 0.0
H1990 H 0.74715 0.86003 0.76709 0.0
C1991 C 0.77152 0.84098 0.88861 0.0
C1992 C 0.74313 0.83178 0.83905 0.0
C1993 C 0.77885 0.83832 0.92447 0.0
C1994 C 0.71251 0.84057 0.69185 0.0
C1995 C 0.71867 0.84087 0.73174 0.0
C1996 C 0.74597 0.85208 0.78677 0.0
C1997 C 0.75926 0.83848 0.89025 0.0
C1998 C 0.7516 0.8404 0.85105 0.0
C1999 C 0.73066 0.84446 0.73317 0.0
C2000 C 0.7376 0.84337 0.77457 0.0
H2001 H 0.75779 0.82698 0.99379 0.0
H2002 H 0.74501 0.83172 0.9315 0.0
H2003 H 0.75926 0.85747 0.83332 0.0
H2004 H 0.7346 0.85072 0.62443 0.0
H2005 H 0.74541 0.85107 0.69404 0.0
C2006 C 0.88495 0.01661 0.69492 0.0
C2007 C 0.89318 0.02602 0.69291 0.0
C2008 C 0.88241 0.00985 0.65742 0.0
C2009 C 0.88627 0.00922 0.5355 0.0
H2010 H 0.88542 0.975 0.55201 0.0
C2011 C 0.88541 0.97742 0.38693 0.0
C2012 C 0.89337 0.9678 0.38959 0.0
C2013 C 0.88267 0.98412 0.4244 0.0
C2014 C 0.88565 0.98454 0.5468 0.0
H2015 H 0.90498 0.03592 0.64973 0.0
H2016 H 0.9008 0.02399 0.58485 0.0
H2017 H 0.88593 0.98802 0.61595 0.0
H2018 H 0.90434 0.95736 0.43399 0.0
H2019 H 0.89982 0.96915 0.49882 0.0
H2020 H 0.88678 0.00572 0.4664 0.0
C2021 C 0.89609 0.02195 0.61503 0.0
C2022 C 0.88577 0.99203 0.58351 0.0
C2023 C 0.89856 0.02875 0.65239 0.0
C2024 C 0.89815 0.96471 0.43078 0.0
C2025 C 0.89548 0.97144 0.46811 0.0
C2026 C 0.88624 0.00173 0.4988 0.0
C2027 C 0.8881 0.01232 0.61719 0.0
C2028 C 0.88639 0.00445 0.57831 0.0
C2029 C 0.88789 0.98137 0.46526 0.0
C2030 C 0.88623 0.98929 0.50402 0.0
H2031 H 0.88058 0.01435 0.7256 0.0
H2032 H 0.87607 0.00262 0.66009 0.0
H2033 H 0.88652 0.01876 0.53029 0.0
H2034 H 0.88149 0.97996 0.35572 0.0
H2035 H 0.87662 0.99158 0.42119 0.0
C2036 C 0.77729 0.15742 0.16975 0.0
C2037 C 0.77305 0.16368 0.13288 0.0
C2038 C 0.76978 0.15509 0.20543 0.0
C2039 C 0.74252 0.16645 0.25784 0.0
H2040 H 0.74352 0.13679 0.32319 0.0
C2041 C 0.71063 0.15801 0.40183 0.0
C2042 C 0.71583 0.15351 0.44049 0.0
C2043 C 0.71692 0.15789 0.3622 0.0
C2044 C 0.74319 0.14514 0.30536 0.0
H2045 H 0.7575 0.17205 0.10386 0.0
H2046 H 0.74439 0.16787 0.16574 0.0
H2047 H 0.75593 0.1392 0.25762 0.0
H2048 H 0.73149 0.14487 0.46746 0.0
H2049 H 0.74253 0.1448 0.39832 0.0
H2050 H 0.72995 0.17248 0.30567 0.0
C2051 C 0.75357 0.16495 0.1675 0.0
C2052 C 0.7503 0.14652 0.26789 0.0
C2053 C 0.76108 0.16731 0.13195 0.0
C2054 C 0.72725 0.14842 0.43827 0.0
C2055 C 0.73355 0.14832 0.39859 0.0
C2056 C 0.73542 0.16506 0.29517 0.0
C2057 C 0.75787 0.15896 0.20489 0.0
C2058 C 0.75007 0.15722 0.24384 0.0
C2059 C 0.72856 0.1533 0.36035 0.0
C2060 C 0.73571 0.15442 0.31947 0.0
H2061 H 0.78648 0.15451 0.17145 0.0
H2062 H 0.77339 0.15056 0.23394 0.0
H2063 H 0.7423 0.17489 0.24059 0.0
H2064 H 0.70181 0.16189 0.40232 0.0
H2065 H 0.71275 0.16159 0.3331 0.0
C2066 C 0.59723 0.98271 0.20614 0.0
C2067 C 0.59585 0.97028 0.2055 0.0
C2068 C 0.59979 0.98891 0.16738 0.0
C2069 C 0.59718 0.98552 0.04651 0.0
H2070 H 0.61475 0.01526 0.04561 0.0
C2071 C 0.6032 0.01287 0.88791 0.0
C2072 C 0.5993 0.02472 0.89191 0.0
C2073 C 0.60515 0.00594 0.92544 0.0
C2074 C 0.60986 0.00694 0.04544 0.0
H2075 H 0.59673 0.95452 0.16442 0.0
H2076 H 0.60164 0.96525 0.09718 0.0
H2077 H 0.61398 0.00337 0.11293 0.0
H2078 H 0.59505 0.03878 0.9383 0.0
H2079 H 0.59859 0.0267 0.00375 0.0
H2080 H 0.59305 0.98914 0.97907 0.0
C2081 C 0.60034 0.97029 0.12719 0.0
C2082 C 0.60935 0.00016 0.084 0.0
C2083 C 0.59759 0.96412 0.16579 0.0
C2084 C 0.598 0.02967 0.93415 0.0
C2085 C 0.60009 0.02278 0.97163 0.0
C2086 C 0.59783 0.99222 0.00789 0.0
C2087 C 0.60121 0.98279 0.12724 0.0
C2088 C 0.6028 0.98947 0.08528 0.0
C2089 C 0.6034 0.01077 0.96761 0.0
C2090 C 0.60398 0.0031 0.0072 0.0
H2091 H 0.59589 0.9877 0.23626 0.0
H2092 H 0.60022 -0.00147 0.16871 0.0
H2093 H 0.59186 0.97748 0.04629 0.0
H2094 H 0.6043 0.00881 0.85582 0.0
H2095 H 0.60778 0.99672 0.9215 0.0
C2096 C 0.76276 0.6492 0.9483 0.0
C2097 C 0.77522 0.65027 0.94802 0.0
C2098 C 0.75647 0.64803 0.90886 0.0
C2099 C 0.75965 0.65465 0.79035 0.0
H2100 H 0.73007 0.63699 0.78135 0.0
C2101 C 0.73274 0.65246 0.629 0.0
C2102 C 0.72057 0.65517 0.6333 0.0
C2103 C 0.73969 0.65025 0.66624 0.0
C2104 C 0.73831 0.64197 0.78348 0.0
H2105 H 0.79092 0.65029 0.9064 0.0
H2106 H 0.77999 0.6479 0.83773 0.0
H2107 H 0.74193 0.63564 0.84859 0.0
H2108 H 0.70608 0.6573 0.67992 0.0
H2109 H 0.71823 0.65338 0.7449 0.0
H2110 H 0.756 0.661 0.72532 0.0
C2111 C 0.77503 0.64832 0.86827 0.0
C2112 C 0.74509 0.64123 0.82199 0.0
C2113 C 0.78131 0.64961 0.90767 0.0
C2114 C 0.71543 0.65528 0.67551 0.0
C2115 C 0.72237 0.65295 0.71271 0.0
C2116 C 0.75293 0.65529 0.75177 0.0
C2117 C 0.76251 0.64778 0.86827 0.0
C2118 C 0.75576 0.64771 0.82614 0.0
C2119 C 0.7346 0.65058 0.70848 0.0
C2120 C 0.74212 0.6491 0.74818 0.0
H2121 H 0.75781 0.64971 0.97886 0.0
H2122 H 0.74684 0.64779 0.91016 0.0
H2123 H 0.76769 0.65995 0.79259 0.0
H2124 H 0.73696 0.65229 0.59694 0.0
H2125 H 0.74908 0.64834 0.66204 0.0
C2126 C 0.60089 0.52759 0.16561 0.0
C2127 C 0.60109 0.52262 0.20807 0.0
C2128 C 0.60295 0.52048 0.12868 0.0
C2129 C 0.59866 0.49015 0.09212 0.0
H2130 H 0.61717 0.49984 0.99044 0.0
C2131 C 0.598 0.46226 0.93378 0.0
C2132 C 0.59719 0.46862 0.89408 0.0
C2133 C 0.60088 0.46811 0.97294 0.0
C2134 C 0.61189 0.49704 0.01842 0.0
H2135 H 0.6041 0.50639 0.24526 0.0
H2136 H 0.60753 0.49393 0.18049 0.0
H2137 H 0.61798 0.51166 0.05792 0.0
H2138 H 0.5991 0.48602 0.86394 0.0
H2139 H 0.60367 0.49631 0.93236 0.0
H2140 H 0.59203 0.47595 0.05249 0.0
C2141 C 0.60578 0.50334 0.17595 0.0
C2142 C 0.61242 0.50378 0.05709 0.0
C2143 C 0.60386 0.51048 0.21296 0.0
C2144 C 0.59969 0.48087 0.89403 0.0
C2145 C 0.6024 0.48676 0.93331 0.0
C2146 C 0.59801 0.48351 0.05338 0.0
C2147 C 0.60514 0.50824 0.13345 0.0
C2148 C 0.60568 0.50048 0.09408 0.0
C2149 C 0.60283 0.48049 0.97341 0.0
C2150 C 0.60447 0.48696 0.01578 0.0
H2151 H 0.59883 0.53692 0.16079 0.0
H2152 H 0.6023 0.52446 0.09628 0.0
H2153 H 0.59323 0.4875 0.11994 0.0
H2154 H 0.59627 0.45278 0.93473 0.0
H2155 H 0.60141 0.46294 0.00296 0.0
C2156 C 0.71186 0.33989 0.39641 0.0
C2157 C 0.71694 0.3445 0.43512 0.0
C2158 C 0.71814 0.34022 0.35677 0.0
C2159 C 0.74405 0.35374 0.30005 0.0
H2160 H 0.74387 0.32407 0.23472 0.0
C2161 C 0.77836 0.3424 0.16391 0.0
C2162 C 0.77424 0.33604 0.12707 0.0
C2163 C 0.77081 0.34457 0.19963 0.0
C2164 C 0.74388 0.33249 0.25212 0.0
H2165 H 0.73237 0.35353 0.46217 0.0
H2166 H 0.74339 0.35397 0.39302 0.0
H2167 H 0.73151 0.32607 0.29993 0.0
H2168 H 0.75885 0.32737 0.09808 0.0
H2169 H 0.74568 0.33128 0.15999 0.0
H2170 H 0.75661 0.36007 0.25232 0.0
C2171 C 0.73451 0.3502 0.39325 0.0
C2172 C 0.73678 0.33364 0.28953 0.0
C2173 C 0.72822 0.34989 0.43294 0.0
C2174 C 0.76234 0.33219 0.12615 0.0
C2175 C 0.7548 0.33439 0.16172 0.0
C2176 C 0.75117 0.3526 0.26249 0.0
C2177 C 0.72964 0.34513 0.35496 0.0
C2178 C 0.73681 0.34425 0.31404 0.0
C2179 C 0.75899 0.34044 0.19914 0.0
C2180 C 0.75119 0.34193 0.23822 0.0
H2181 H 0.70314 0.33577 0.39687 0.0
H2182 H 0.71406 0.33644 0.32763 0.0
H2183 H 0.74418 0.36207 0.31804 0.0
H2184 H 0.78749 0.34549 0.16559 0.0
H2185 H 0.77434 0.34916 0.22814 0.0
C2186 C 0.90394 0.46818 0.64321 0.0
C2187 C 0.89942 0.4717 0.68435 0.0
C2188 C 0.902 0.47517 0.60588 0.0
C2189 C 0.89597 0.50614 0.57468 0.0
H2190 H 0.8925 0.49246 0.45811 0.0
C2191 C 0.90904 0.53144 0.4182 0.0
C2192 C 0.90219 0.52998 0.37985 0.0
C2193 C 0.90663 0.5247 0.45573 0.0
C2194 C 0.89328 0.49645 0.49046 0.0
H2195 H 0.88889 0.48506 0.71823 0.0
H2196 H 0.8854 0.4972 0.65288 0.0
H2197 H 0.89147 0.47959 0.5227 0.0
H2198 H 0.88729 0.52047 0.3511 0.0
H2199 H 0.88305 0.5087 0.417 0.0
H2200 H 0.89783 0.52297 0.5425 0.0
C2201 C 0.89061 0.48913 0.64967 0.0
C2202 C 0.89283 0.48905 0.52744 0.0
C2203 C 0.89257 0.48215 0.68708 0.0
C2204 C 0.89275 0.52177 0.3801 0.0
C2205 C 0.89035 0.515 0.41775 0.0
C2206 C 0.8964 0.51352 0.53774 0.0
C2207 C 0.89546 0.48581 0.60878 0.0
C2208 C 0.89445 0.49378 0.5699 0.0
C2209 C 0.89732 0.51635 0.45588 0.0
C2210 C 0.89536 0.50873 0.49517 0.0
H2211 H 0.90926 0.46018 0.63994 0.0
H2212 H 0.90601 0.47243 0.57506 0.0
H2213 H 0.89734 0.51007 0.60684 0.0
H2214 H 0.91639 0.53768 0.41917 0.0
H2215 H 0.91231 0.52583 0.48427 0.0
C2216 C 0.21604 0.34238 0.16482 0.0
C2217 C 0.22106 0.34278 0.12244 0.0
C2218 C 0.22316 0.34405 0.20203 0.0
C2219 C 0.25361 0.33996 0.23954 0.0
H2220 H 0.24394 0.35933 0.33902 0.0
C2221 C 0.28277 0.34315 0.39479 0.0
C2222 C 0.27682 0.3428 0.43546 0.0
C2223 C 0.27641 0.34481 0.35573 0.0
C2224 C 0.24672 0.35379 0.3117 0.0
H2225 H 0.23743 0.34553 0.08583 0.0
H2226 H 0.24987 0.34829 0.15098 0.0
H2227 H 0.23182 0.35915 0.27226 0.0
H2228 H 0.25957 0.34417 0.46719 0.0
H2229 H 0.24845 0.34669 0.39913 0.0
H2230 H 0.26821 0.33419 0.27914 0.0
C2231 C 0.24043 0.34669 0.15527 0.0
C2232 C 0.2398 0.35374 0.27345 0.0
C2233 C 0.23329 0.34515 0.11802 0.0
C2234 C 0.26442 0.34444 0.43637 0.0
C2235 C 0.25805 0.34596 0.39729 0.0
C2236 C 0.26046 0.33991 0.27789 0.0
C2237 C 0.23545 0.34603 0.19762 0.0
C2238 C 0.24313 0.34674 0.23716 0.0
C2239 C 0.26394 0.34602 0.3564 0.0
C2240 C 0.25705 0.34674 0.31464 0.0
H2241 H 0.20664 0.34061 0.1693 0.0
H2242 H 0.21911 0.3434 0.23432 0.0
H2243 H 0.2563 0.33436 0.21226 0.0
H2244 H 0.29234 0.34203 0.39306 0.0
H2245 H 0.28128 0.34505 0.32496 0.0
C2246 C 0.38287 0.47841 0.89862 0.0
C2247 C 0.39158 0.46942 0.89842 0.0
C2248 C 0.38076 0.48509 0.93673 0.0
C2249 C 0.38667 0.48603 0.05728 0.0
H2250 H 0.38587 0.52024 0.04046 0.0
C2251 C 0.38758 0.51871 0.2043 0.0
C2252 C 0.39577 0.52811 0.19989 0.0
C2253 C 0.38456 0.51168 0.16791 0.0
C2254 C 0.38605 0.5107 0.04571 0.0
H2255 H 0.40456 0.46008 0.93856 0.0
H2256 H 0.401 0.47177 0.00449 0.0
H2257 H 0.38512 0.50713 0.97666 0.0
H2258 H 0.40696 0.53769 0.15361 0.0
H2259 H 0.40183 0.52541 0.09063 0.0
H2260 H 0.38826 0.48963 0.12619 0.0
C2261 C 0.39568 0.4736 0.97552 0.0
C2262 C 0.38548 0.50318 0.00917 0.0
C2263 C 0.3978 0.46695 0.93752 0.0
C2264 C 0.40063 0.53052 0.1582 0.0
C2265 C 0.3976 0.52353 0.12193 0.0
C2266 C 0.38726 0.49356 0.09383 0.0
C2267 C 0.38729 0.48289 0.97539 0.0
C2268 C 0.38611 0.49076 0.01445 0.0
C2269 C 0.38964 0.51395 0.12641 0.0
C2270 C 0.38729 0.50599 0.08835 0.0
H2271 H 0.37788 0.4805 0.8691 0.0
H2272 H 0.37413 0.49209 0.93573 0.0
H2273 H 0.38699 0.47649 0.06248 0.0
H2274 H 0.38365 0.51665 0.23595 0.0
H2275 H 0.37832 0.50443 0.17232 0.0
C2276 C 0.21718 0.65275 0.92045 0.0
C2277 C 0.22219 0.65304 0.96285 0.0
C2278 C 0.22433 0.65055 0.88368 0.0
C2279 C 0.25477 0.65425 0.84543 0.0
H2280 H 0.24505 0.6336 0.7496 0.0
C2281 C 0.28342 0.65003 0.68953 0.0
C2282 C 0.27727 0.65012 0.64925 0.0
C2283 C 0.27727 0.64839 0.72907 0.0
C2284 C 0.24785 0.63947 0.77591 0.0
H2285 H 0.23857 0.65101 4e-05 0.0
H2286 H 0.25105 0.64733 0.93561 0.0
H2287 H 0.23304 0.63453 0.81659 0.0
H2288 H 0.25993 0.6482 0.61867 0.0
H2289 H 0.24917 0.64572 0.68755 0.0
H2290 H 0.26925 0.65963 0.8045 0.0
C2291 C 0.2416 0.64879 0.93096 0.0
C2292 C 0.24099 0.63996 0.81429 0.0
C2293 C 0.23444 0.65086 0.9678 0.0
C2294 C 0.26492 0.64814 0.64918 0.0
C2295 C 0.25876 0.64664 0.68874 0.0
C2296 C 0.26155 0.65386 0.80695 0.0
C2297 C 0.23663 0.64873 0.88853 0.0
C2298 C 0.24432 0.64746 0.8492 0.0
C2299 C 0.26483 0.64696 0.72926 0.0
C2300 C 0.25811 0.64657 0.77147 0.0
H2301 H 0.20777 0.65436 0.91557 0.0
H2302 H 0.22028 0.65067 0.8513 0.0
H2303 H 0.25745 0.66023 0.8716 0.0
H2304 H 0.29296 0.6514 0.69061 0.0
H2305 H 0.28228 0.64842 0.75955 0.0
C2306 C 0.09586 0.53096 0.4291 0.0
C2307 C 0.09533 0.52488 0.38874 0.0
C2308 C 0.09766 0.52473 0.46832 0.0
C2309 C 0.10612 0.49497 0.51377 0.0
H2310 H 0.08712 0.50554 0.613 0.0
C2311 C 0.0931 0.46533 0.66188 0.0
C2312 C 0.09368 0.47046 0.70406 0.0
C2313 C 0.09532 0.47221 0.62444 0.0
C2314 C 0.09261 0.50258 0.58579 0.0
H2315 H 0.09656 0.50756 0.35759 0.0
H2316 H 0.09924 0.49662 0.42608 0.0
H2317 H 0.08719 0.51716 0.5455 0.0
H2318 H 0.09738 0.48672 0.74014 0.0
H2319 H 0.10107 0.49877 0.67454 0.0
H2320 H 0.11102 0.48005 0.55395 0.0
C2321 C 0.09859 0.50623 0.42754 0.0
C2322 C 0.0927 0.50926 0.54705 0.0
C2323 C 0.09698 0.51249 0.38821 0.0
C2324 C 0.09685 0.48251 0.7081 0.0
C2325 C 0.09892 0.48942 0.67061 0.0
C2326 C 0.10589 0.4882 0.55241 0.0
C2327 C 0.09876 0.51225 0.4682 0.0
C2328 C 0.09937 0.5055 0.51035 0.0
C2329 C 0.09802 0.48437 0.62843 0.0
C2330 C 0.09905 0.49191 0.58863 0.0
H2331 H 0.09477 0.54054 0.43046 0.0
H2332 H 0.09803 0.52971 0.49882 0.0
H2333 H 0.11152 0.49191 0.48652 0.0
H2334 H 0.09072 0.45605 0.65771 0.0
H2335 H 0.09447 0.46812 0.59229 0.0
loop_
_geom_bond_atom_site_label_1
_geom_bond_atom_site_label_2
_geom_bond_distance
_geom_bond_site_symmetry_2
_ccdc_geom_bond_type
C0 O1 1.160 . S
C0 O7 1.185 . S
O1 C0 1.160 . S
O2 Zn3 1.899 . S
O2 C10 1.284 . S
Zn3 O2 1.899 . S
Zn3 O4 2.032 1_554 S
Zn3 O7 2.086 . S
Zn3 O12 1.977 . S
O4 Zn3 2.032 1_556 S
O4 C8 1.278 . S
C5 O6 1.203 . S
C5 O12 1.267 . S
O6 C5 1.203 . S
O7 C0 1.185 . S
O7 Zn3 2.086 . S
C8 O4 1.278 . S
C8 O9 1.211 . S
O9 C8 1.211 . S
C10 O2 1.284 . S
C10 O11 1.273 . S
O11 C10 1.273 . S
O12 Zn3 1.977 . S
O12 C5 1.267 . S
C13 O14 1.160 . S
C13 O20 1.185 . S
O14 C13 1.160 . S
O15 Zn16 1.899 . S
O15 C23 1.284 . S
Zn16 O15 1.899 . S
Zn16 O17 2.032 . S
Zn16 O20 2.086 . S
Zn16 O25 1.977 . S
O17 Zn16 2.032 . S
O17 C21 1.278 . S
C18 O19 1.203 . S
C18 O25 1.267 . S
O19 C18 1.203 . S
O20 C13 1.185 . S
O20 Zn16 2.086 . S
C21 O17 1.278 . S
C21 O22 1.211 . S
O22 C21 1.211 . S
C23 O15 1.284 . S
C23 O24 1.273 . S
O24 C23 1.273 . S
O25 Zn16 1.977 . S
O25 C18 1.267 . S
C26 O27 1.160 . S
C26 O33 1.185 . S
O27 C26 1.160 . S
O28 Zn29 1.899 . S
O28 C36 1.284 . S
Zn29 O28 1.899 . S
Zn29 O30 2.032 . S
Zn29 O33 2.086 . S
Zn29 O38 1.977 . S
O30 Zn29 2.032 . S
O30 C34 1.278 . S
C31 O32 1.203 . S
C31 O38 1.267 . S
O32 C31 1.203 . S
O33 C26 1.185 . S
O33 Zn29 2.086 . S
C34 O30 1.278 . S
C34 O35 1.211 . S
O35 C34 1.211 . S
C36 O28 1.284 . S
C36 O37 1.273 . S
O37 C36 1.273 . S
O38 Zn29 1.977 . S
O38 C31 1.267 . S
C39 O40 1.160 . S
C39 O46 1.185 . S
O40 C39 1.160 . S
O41 Zn42 1.899 . S
O41 C49 1.284 . S
Zn42 O41 1.899 . S
Zn42 O43 2.032 . S
Zn42 O46 2.086 . S
Zn42 O51 1.977 . S
O43 Zn42 2.032 . S
O43 C47 1.278 . S
C44 O45 1.203 . S
C44 O51 1.267 . S
O45 C44 1.203 . S
O46 C39 1.185 . S
O46 Zn42 2.086 . S
C47 O43 1.278 . S
C47 O48 1.211 . S
O48 C47 1.211 . S
C49 O41 1.284 . S
C49 O50 1.273 . S
O50 C49 1.273 . S
O51 Zn42 1.977 . S
O51 C44 1.267 . S
C52 O53 1.160 . S
C52 O59 1.185 . S
O53 C52 1.160 . S
O54 Zn55 1.899 1_556 S
O54 C62 1.284 . S
Zn55 O54 1.899 1_554 S
Zn55 O56 2.032 . S
Zn55 O59 2.086 . S
Zn55 O64 1.977 . S
O56 Zn55 2.032 . S
O56 C60 1.278 . S
C57 O58 1.203 . S
C57 O64 1.267 . S
O58 C57 1.203 . S
O59 C52 1.185 . S
O59 Zn55 2.086 . S
C60 O56 1.278 . S
C60 O61 1.211 . S
O61 C60 1.211 . S
C62 O54 1.284 . S
C62 O63 1.273 1_556 S
O63 C62 1.273 1_554 S
O64 Zn55 1.977 . S
O64 C57 1.267 . S
C65 O66 1.160 . S
C65 O72 1.185 . S
O66 C65 1.160 . S
O67 Zn68 1.899 . S
O67 C75 1.284 . S
Zn68 O67 1.899 . S
Zn68 O69 2.032 . S
Zn68 O72 2.086 . S
Zn68 O77 1.977 . S
O69 Zn68 2.032 . S
O69 C73 1.278 . S
C70 O71 1.203 . S
C70 O77 1.267 . S
O71 C70 1.203 . S
O72 C65 1.185 . S
O72 Zn68 2.086 . S
C73 O69 1.278 . S
C73 O74 1.211 . S
O74 C73 1.211 . S
C75 O67 1.284 . S
C75 O76 1.273 . S
O76 C75 1.273 . S
O77 Zn68 1.977 . S
O77 C70 1.267 . S
C78 O79 1.160 . S
C78 O85 1.185 . S
O79 C78 1.160 . S
O80 Zn81 1.899 . S
O80 C88 1.284 . S
Zn81 O80 1.899 . S
Zn81 O82 2.032 . S
Zn81 O85 2.086 . S
Zn81 O90 1.977 . S
O82 Zn81 2.032 . S
O82 C86 1.278 . S
C83 O84 1.203 . S
C83 O90 1.267 . S
O84 C83 1.203 . S
O85 C78 1.185 . S
O85 Zn81 2.086 . S
C86 O82 1.278 . S
C86 O87 1.211 . S
O87 C86 1.211 . S
C88 O80 1.284 . S
C88 O89 1.273 . S
O89 C88 1.273 . S
O90 Zn81 1.977 . S
O90 C83 1.267 . S
C91 O92 1.160 . S
C91 O98 1.185 . S
O92 C91 1.160 . S
O93 Zn94 1.899 . S
O93 C101 1.284 . S
Zn94 O93 1.899 . S
Zn94 O95 2.032 . S
Zn94 O98 2.086 . S
Zn94 O103 1.977 . S
O95 Zn94 2.032 . S
O95 C99 1.278 . S
C96 O97 1.203 . S
C96 O103 1.267 . S
O97 C96 1.203 . S
O98 C91 1.185 . S
O98 Zn94 2.086 . S
C99 O95 1.278 . S
C99 O100 1.211 . S
O100 C99 1.211 . S
C101 O93 1.284 . S
C101 O102 1.273 . S
O102 C101 1.273 . S
O103 Zn94 1.977 . S
O103 C96 1.267 . S
C104 O105 1.160 . S
C104 O111 1.185 . S
O105 C104 1.160 . S
O106 Zn107 1.899 1_556 S
O106 C114 1.284 . S
Zn107 O106 1.899 1_554 S
Zn107 O108 2.032 . S
Zn107 O111 2.086 . S
Zn107 O116 1.977 . S
O108 Zn107 2.032 . S
O108 C112 1.278 . S
C109 O110 1.203 . S
C109 O116 1.267 . S
O110 C109 1.203 . S
O111 C104 1.185 . S
O111 Zn107 2.086 . S
C112 O108 1.278 . S
C112 O113 1.211 . S
O113 C112 1.211 . S
C114 O106 1.284 . S
C114 O115 1.273 1_556 S
O115 C114 1.273 1_554 S
O116 Zn107 1.977 . S
O116 C109 1.267 . S
C117 O118 1.160 . S
C117 O124 1.185 . S
O118 C117 1.160 . S
O119 Zn120 1.899 . S
O119 C127 1.284 . S
Zn120 O119 1.899 . S
Zn120 O121 2.032 . S
Zn120 O124 2.086 . S
Zn120 O129 1.977 . S
O121 Zn120 2.032 . S
O121 C125 1.278 . S
C122 O123 1.203 . S
C122 O129 1.267 . S
O123 C122 1.203 . S
O124 C117 1.185 . S
O124 Zn120 2.086 . S
C125 O121 1.278 . S
C125 O126 1.211 . S
O126 C125 1.211 . S
C127 O119 1.284 . S
C127 O128 1.273 . S
O128 C127 1.273 . S
O129 Zn120 1.977 . S
O129 C122 1.267 . S
C130 O131 1.160 . S
C130 O137 1.185 . S
O131 C130 1.160 . S
O132 Zn133 1.899 . S
O132 C140 1.284 . S
Zn133 O132 1.899 . S
Zn133 O134 2.032 . S
Zn133 O137 2.086 . S
Zn133 O142 1.977 . S
O134 Zn133 2.032 . S
O134 C138 1.278 . S
C135 O136 1.203 . S
C135 O142 1.267 . S
O136 C135 1.203 . S
O137 C130 1.185 . S
O137 Zn133 2.086 . S
C138 O134 1.278 . S
C138 O139 1.211 . S
O139 C138 1.211 . S
C140 O132 1.284 . S
C140 O141 1.273 . S
O141 C140 1.273 . S
O142 Zn133 1.977 . S
O142 C135 1.267 . S
C143 O144 1.160 . S
C143 O150 1.185 . S
O144 C143 1.160 . S
O145 Zn146 1.899 . S
O145 C153 1.284 . S
Zn146 O145 1.899 . S
Zn146 O147 2.032 . S
Zn146 O150 2.086 . S
Zn146 O155 1.977 . S
O147 Zn146 2.032 . S
O147 C151 1.278 . S
C148 O149 1.203 . S
C148 O155 1.267 . S
O149 C148 1.203 . S
O150 C143 1.185 . S
O150 Zn146 2.086 . S
C151 O147 1.278 . S
C151 O152 1.211 . S
O152 C151 1.211 . S
C153 O145 1.284 . S
C153 O154 1.273 . S
O154 C153 1.273 . S
O155 Zn146 1.977 . S
O155 C148 1.267 . S
C156 O157 1.160 . S
C156 O163 1.185 . S
O157 C156 1.160 . S
O158 Zn159 1.899 . S
O158 C166 1.284 . S
Zn159 O158 1.899 . S
Zn159 O160 2.032 1_554 S
Zn159 O163 2.086 . S
Zn159 O168 1.977 . S
O160 Zn159 2.032 1_556 S
O160 C164 1.278 . S
C161 O162 1.203 . S
C161 O168 1.267 . S
O162 C161 1.203 . S
O163 C156 1.185 . S
O163 Zn159 2.086 . S
C164 O160 1.278 . S
C164 O165 1.211 . S
O165 C164 1.211 . S
C166 O158 1.284 . S
C166 O167 1.273 . S
O167 C166 1.273 . S
O168 Zn159 1.977 . S
O168 C161 1.267 . S
C169 O170 1.160 . S
C169 O176 1.185 . S
O170 C169 1.160 . S
O171 Zn172 1.899 . S
O171 C179 1.284 . S
Zn172 O171 1.899 . S
Zn172 O173 2.032 . S
Zn172 O176 2.086 . S
Zn172 O181 1.977 . S
O173 Zn172 2.032 . S
O173 C177 1.278 . S
C174 O175 1.203 . S
C174 O181 1.267 . S
O175 C174 1.203 . S
O176 C169 1.185 . S
O176 Zn172 2.086 . S
C177 O173 1.278 . S
C177 O178 1.211 . S
O178 C177 1.211 . S
C179 O171 1.284 . S
C179 O180 1.273 . S
O180 C179 1.273 . S
O181 Zn172 1.977 . S
O181 C174 1.267 . S
C182 O183 1.160 . S
C182 O189 1.185 . S
O183 C182 1.160 . S
O184 Zn185 1.899 . S
O184 C192 1.284 . S
Zn185 O184 1.899 . S
Zn185 O186 2.032 . S
Zn185 O189 2.086 . S
Zn185 O194 1.977 . S
O186 Zn185 2.032 . S
O186 C190 1.278 . S
C187 O188 1.203 . S
C187 O194 1.267 . S
O188 C187 1.203 . S
O189 C182 1.185 . S
O189 Zn185 2.086 . S
C190 O186 1.278 . S
C190 O191 1.211 . S
O191 C190 1.211 . S
C192 O184 1.284 . S
C192 O193 1.273 . S
O193 C192 1.273 . S
O194 Zn185 1.977 . S
O194 C187 1.267 . S
C195 O196 1.160 . S
C195 O202 1.185 . S
O196 C195 1.160 . S
O197 Zn198 1.899 . S
O197 C205 1.284 . S
Zn198 O197 1.899 . S
Zn198 O199 2.032 . S
Zn198 O202 2.086 . S
Zn198 O207 1.977 . S
O199 Zn198 2.032 . S
O199 C203 1.278 . S
C200 O201 1.203 . S
C200 O207 1.267 . S
O201 C200 1.203 . S
O202 C195 1.185 . S
O202 Zn198 2.086 . S
C203 O199 1.278 . S
C203 O204 1.211 . S
O204 C203 1.211 . S
C205 O197 1.284 . S
C205 O206 1.273 . S
O206 C205 1.273 . S
O207 Zn198 1.977 . S
O207 C200 1.267 . S
C208 O209 1.160 . S
C208 O215 1.185 . S
O209 C208 1.160 . S
O210 Zn211 1.899 . S
O210 C218 1.284 . S
Zn211 O210 1.899 . S
Zn211 O212 2.032 . S
Zn211 O215 2.086 . S
Zn211 O220 1.977 . S
O212 Zn211 2.032 . S
O212 C216 1.278 . S
C213 O214 1.203 . S
C213 O220 1.267 . S
O214 C213 1.203 . S
O215 C208 1.185 . S
O215 Zn211 2.086 . S
C216 O212 1.278 . S
C216 O217 1.211 . S
O217 C216 1.211 . S
C218 O210 1.284 . S
C218 O219 1.273 . S
O219 C218 1.273 . S
O220 Zn211 1.977 . S
O220 C213 1.267 . S
C221 O222 1.160 . S
C221 O228 1.185 . S
O222 C221 1.160 . S
O223 Zn224 1.899 . S
O223 C231 1.284 . S
Zn224 O223 1.899 . S
Zn224 O225 2.032 . S
Zn224 O228 2.086 . S
Zn224 O233 1.977 . S
O225 Zn224 2.032 . S
O225 C229 1.278 . S
C226 O227 1.203 . S
C226 O233 1.267 . S
O227 C226 1.203 . S
O228 C221 1.185 . S
O228 Zn224 2.086 . S
C229 O225 1.278 . S
C229 O230 1.211 . S
O230 C229 1.211 . S
C231 O223 1.284 . S
C231 O232 1.273 . S
O232 C231 1.273 . S
O233 Zn224 1.977 . S
O233 C226 1.267 . S
C234 O235 1.160 . S
C234 O241 1.185 . S
O235 C234 1.160 . S
O236 Zn237 1.899 . S
O236 C244 1.284 . S
Zn237 O236 1.899 . S
Zn237 O238 2.032 1_554 S
Zn237 O241 2.086 . S
Zn237 O246 1.977 . S
O238 Zn237 2.032 1_556 S
O238 C242 1.278 . S
C239 O240 1.203 . S
C239 O246 1.267 . S
O240 C239 1.203 . S
O241 C234 1.185 . S
O241 Zn237 2.086 . S
C242 O238 1.278 . S
C242 O243 1.211 . S
O243 C242 1.211 . S
C244 O236 1.284 . S
C244 O245 1.273 . S
O245 C244 1.273 . S
O246 Zn237 1.977 . S
O246 C239 1.267 . S
C247 O248 1.160 . S
C247 O254 1.185 . S
O248 C247 1.160 . S
O249 Zn250 1.899 . S
O249 C257 1.284 . S
Zn250 O249 1.899 . S
Zn250 O251 2.032 . S
Zn250 O254 2.086 . S
Zn250 O259 1.977 . S
O251 Zn250 2.032 . S
O251 C255 1.278 . S
C252 O253 1.203 . S
C252 O259 1.267 . S
O253 C252 1.203 . S
O254 C247 1.185 . S
O254 Zn250 2.086 . S
C255 O251 1.278 . S
C255 O256 1.211 . S
O256 C255 1.211 . S
C257 O249 1.284 . S
C257 O258 1.273 . S
O258 C257 1.273 . S
O259 Zn250 1.977 . S
O259 C252 1.267 . S
C260 O261 1.160 . S
C260 O267 1.185 . S
O261 C260 1.160 . S
O262 Zn263 1.899 . S
O262 C270 1.284 . S
Zn263 O262 1.899 . S
Zn263 O264 2.032 . S
Zn263 O267 2.086 . S
Zn263 O272 1.977 . S
O264 Zn263 2.032 . S
O264 C268 1.278 . S
C265 O266 1.203 . S
C265 O272 1.267 . S
O266 C265 1.203 . S
O267 C260 1.185 . S
O267 Zn263 2.086 . S
C268 O264 1.278 . S
C268 O269 1.211 . S
O269 C268 1.211 . S
C270 O262 1.284 . S
C270 O271 1.273 . S
O271 C270 1.273 . S
O272 Zn263 1.977 . S
O272 C265 1.267 . S
C273 O274 1.160 . S
C273 O280 1.185 . S
O274 C273 1.160 . S
O275 Zn276 1.899 . S
O275 C283 1.284 . S
Zn276 O275 1.899 . S
Zn276 O277 2.032 . S
Zn276 O280 2.086 . S
Zn276 O285 1.977 . S
O277 Zn276 2.032 . S
O277 C281 1.278 . S
C278 O279 1.203 . S
C278 O285 1.267 . S
O279 C278 1.203 . S
O280 C273 1.185 . S
O280 Zn276 2.086 . S
C281 O277 1.278 . S
C281 O282 1.211 . S
O282 C281 1.211 . S
C283 O275 1.284 . S
C283 O284 1.273 . S
O284 C283 1.273 . S
O285 Zn276 1.977 . S
O285 C278 1.267 . S
C286 O287 1.160 . S
C286 O293 1.185 . S
O287 C286 1.160 . S
O288 Zn289 1.899 1_556 S
O288 C296 1.284 . S
Zn289 O288 1.899 1_554 S
Zn289 O290 2.032 . S
Zn289 O293 2.086 . S
Zn289 O298 1.977 . S
O290 Zn289 2.032 . S
O290 C294 1.278 . S
C291 O292 1.203 . S
C291 O298 1.267 . S
O292 C291 1.203 . S
O293 C286 1.185 . S
O293 Zn289 2.086 . S
C294 O290 1.278 . S
C294 O295 1.211 . S
O295 C294 1.211 . S
C296 O288 1.284 . S
C296 O297 1.273 1_556 S
O297 C296 1.273 1_554 S
O298 Zn289 1.977 . S
O298 C291 1.267 . S
C299 O300 1.160 . S
C299 O306 1.185 . S
O300 C299 1.160 . S
O301 Zn302 1.899 . S
O301 C309 1.284 . S
Zn302 O301 1.899 . S
Zn302 O303 2.032 . S
Zn302 O306 2.086 . S
Zn302 O311 1.977 . S
O303 Zn302 2.032 . S
O303 C307 1.278 . S
C304 O305 1.203 . S
C304 O311 1.267 . S
O305 C304 1.203 . S
O306 C299 1.185 . S
O306 Zn302 2.086 . S
C307 O303 1.278 . S
C307 O308 1.211 . S
O308 C307 1.211 . S
C309 O301 1.284 . S
C309 O310 1.273 . S
O310 C309 1.273 . S
O311 Zn302 1.977 . S
O311 C304 1.267 . S
C312 O313 1.160 . S
C312 O319 1.185 . S
O313 C312 1.160 . S
O314 Zn315 1.899 . S
O314 C322 1.284 . S
Zn315 O314 1.899 . S
Zn315 O316 2.032 . S
Zn315 O319 2.086 . S
Zn315 O324 1.977 . S
O316 Zn315 2.032 . S
O316 C320 1.278 . S
C317 O318 1.203 . S
C317 O324 1.267 . S
O318 C317 1.203 . S
O319 C312 1.185 . S
O319 Zn315 2.086 . S
C320 O316 1.278 . S
C320 O321 1.211 . S
O321 C320 1.211 . S
C322 O314 1.284 . S
C322 O323 1.273 . S
O323 C322 1.273 . S
O324 Zn315 1.977 . S
O324 C317 1.267 . S
C325 O326 1.160 . S
C325 O332 1.185 . S
O326 C325 1.160 . S
O327 Zn328 1.899 . S
O327 C335 1.284 . S
Zn328 O327 1.899 . S
Zn328 O329 2.032 . S
Zn328 O332 2.086 . S
Zn328 O337 1.977 . S
O329 Zn328 2.032 . S
O329 C333 1.278 . S
C330 O331 1.203 . S
C330 O337 1.267 . S
O331 C330 1.203 . S
O332 C325 1.185 . S
O332 Zn328 2.086 . S
C333 O329 1.278 . S
C333 O334 1.211 . S
O334 C333 1.211 . S
C335 O327 1.284 . S
C335 O336 1.273 . S
O336 C335 1.273 . S
O337 Zn328 1.977 . S
O337 C330 1.267 . S
C338 O339 1.160 . S
C338 O345 1.185 . S
O339 C338 1.160 . S
O340 Zn341 1.899 1_556 S
O340 C348 1.284 . S
Zn341 O340 1.899 1_554 S
Zn341 O342 2.032 . S
Zn341 O345 2.086 . S
Zn341 O350 1.977 . S
O342 Zn341 2.032 . S
O342 C346 1.278 . S
C343 O344 1.203 . S
C343 O350 1.267 . S
O344 C343 1.203 . S
O345 C338 1.185 . S
O345 Zn341 2.086 . S
C346 O342 1.278 . S
C346 O347 1.211 . S
O347 C346 1.211 . S
C348 O340 1.284 . S
C348 O349 1.273 1_556 S
O349 C348 1.273 1_554 S
O350 Zn341 1.977 . S
O350 C343 1.267 . S
C351 O352 1.160 . S
C351 O358 1.185 . S
O352 C351 1.160 . S
O353 Zn354 1.899 . S
O353 C361 1.284 . S
Zn354 O353 1.899 . S
Zn354 O355 2.032 . S
Zn354 O358 2.086 . S
Zn354 O363 1.977 . S
O355 Zn354 2.032 . S
O355 C359 1.278 . S
C356 O357 1.203 . S
C356 O363 1.267 . S
O357 C356 1.203 . S
O358 C351 1.185 . S
O358 Zn354 2.086 . S
C359 O355 1.278 . S
C359 O360 1.211 . S
O360 C359 1.211 . S
C361 O353 1.284 . S
C361 O362 1.273 . S
O362 C361 1.273 . S
O363 Zn354 1.977 . S
O363 C356 1.267 . S
C364 O365 1.160 . S
C364 O371 1.185 . S
O365 C364 1.160 . S
O366 Zn367 1.899 . S
O366 C374 1.284 . S
Zn367 O366 1.899 . S
Zn367 O368 2.032 . S
Zn367 O371 2.086 . S
Zn367 O376 1.977 . S
O368 Zn367 2.032 . S
O368 C372 1.278 . S
C369 O370 1.203 . S
C369 O376 1.267 . S
O370 C369 1.203 . S
O371 C364 1.185 . S
O371 Zn367 2.086 . S
C372 O368 1.278 . S
C372 O373 1.211 . S
O373 C372 1.211 . S
C374 O366 1.284 . S
C374 O375 1.273 . S
O375 C374 1.273 . S
O376 Zn367 1.977 . S
O376 C369 1.267 . S
C377 O378 1.160 . S
C377 O384 1.185 . S
O378 C377 1.160 . S
O379 Zn380 1.899 . S
O379 C387 1.284 . S
Zn380 O379 1.899 . S
Zn380 O381 2.032 . S
Zn380 O384 2.086 . S
Zn380 O389 1.977 . S
O381 Zn380 2.032 . S
O381 C385 1.278 . S
C382 O383 1.203 . S
C382 O389 1.267 . S
O383 C382 1.203 . S
O384 C377 1.185 . S
O384 Zn380 2.086 . S
C385 O381 1.278 . S
C385 O386 1.211 . S
O386 C385 1.211 . S
C387 O379 1.284 . S
C387 O388 1.273 . S
O388 C387 1.273 . S
O389 Zn380 1.977 . S
O389 C382 1.267 . S
C390 O391 1.160 . S
C390 O397 1.185 . S
O391 C390 1.160 . S
O392 Zn393 1.899 . S
O392 C400 1.284 . S
Zn393 O392 1.899 . S
Zn393 O394 2.032 1_554 S
Zn393 O397 2.086 . S
Zn393 O402 1.977 . S
O394 Zn393 2.032 1_556 S
O394 C398 1.278 . S
C395 O396 1.203 . S
C395 O402 1.267 . S
O396 C395 1.203 . S
O397 C390 1.185 . S
O397 Zn393 2.086 . S
C398 O394 1.278 . S
C398 O399 1.211 . S
O399 C398 1.211 . S
C400 O392 1.284 . S
C400 O401 1.273 . S
O401 C400 1.273 . S
O402 Zn393 1.977 . S
O402 C395 1.267 . S
C403 O404 1.160 . S
C403 O410 1.185 . S
O404 C403 1.160 . S
O405 Zn406 1.899 . S
O405 C413 1.284 . S
Zn406 O405 1.899 . S
Zn406 O407 2.032 . S
Zn406 O410 2.086 . S
Zn406 O415 1.977 . S
O407 Zn406 2.032 . S
O407 C411 1.278 . S
C408 O409 1.203 . S
C408 O415 1.267 . S
O409 C408 1.203 . S
O410 C403 1.185 . S
O410 Zn406 2.086 . S
C411 O407 1.278 . S
C411 O412 1.211 . S
O412 C411 1.211 . S
C413 O405 1.284 . S
C413 O414 1.273 . S
O414 C413 1.273 . S
O415 Zn406 1.977 . S
O415 C408 1.267 . S
C416 C417 1.349 . S
C416 C418 1.327 . S
C416 H441 0.950 . S
C417 C416 1.349 . S
C417 C433 1.349 . S
C418 C416 1.327 . S
C418 C437 1.429 . S
C418 H442 0.950 . S
C419 C436 1.574 . S
C419 C438 1.368 . S
C419 H443 0.949 . S
H420 C424 0.949 . S
C421 C422 1.341 1_554 S
C421 C423 1.327 . S
C421 H444 0.950 . S
C422 C421 1.341 1_556 S
C422 C434 1.363 . S
C423 C421 1.327 . S
C423 C439 1.429 1_554 S
C423 H445 0.950 . S
C424 H420 0.949 . S
C424 C432 1.574 . S
C424 C440 1.368 . S
H425 C433 0.950 . S
H426 C431 0.950 . S
H427 C432 0.949 . S
H428 C434 0.950 . S
H429 C435 0.950 . S
H430 C436 0.949 . S
C431 H426 0.950 . S
C431 C433 1.327 . S
C431 C437 1.429 . S
C432 C424 1.574 . S
C432 H427 0.949 . S
C432 C438 1.368 . S
C433 C417 1.349 . S
C433 H425 0.950 . S
C433 C431 1.327 . S
C434 C422 1.363 . S
C434 H428 0.950 . S
C434 C435 1.327 . S
C435 H429 0.950 . S
C435 C434 1.327 . S
C435 C439 1.429 . S
C436 C419 1.574 . S
C436 H430 0.949 . S
C436 C440 1.368 . S
C437 C418 1.429 . S
C437 C431 1.429 . S
C437 C438 1.523 . S
C438 C419 1.368 . S
C438 C432 1.368 . S
C438 C437 1.523 . S
C439 C423 1.429 1_556 S
C439 C435 1.429 . S
C439 C440 1.523 . S
C440 C424 1.368 . S
C440 C436 1.368 . S
C440 C439 1.523 . S
H441 C416 0.950 . S
H442 C418 0.950 . S
H443 C419 0.949 . S
H444 C421 0.950 . S
H445 C423 0.950 . S
C446 C447 1.349 . S
C446 C448 1.327 . S
C446 H471 0.950 . S
C447 C446 1.349 . S
C447 C463 1.349 . S
C448 C446 1.327 . S
C448 C467 1.429 . S
C448 H472 0.950 . S
C449 C466 1.574 . S
C449 C468 1.368 . S
C449 H473 0.949 . S
H450 C454 0.949 . S
C451 C452 1.349 . S
C451 C453 1.327 . S
C451 H474 0.950 . S
C452 C451 1.349 . S
C452 C464 1.349 . S
C453 C451 1.327 . S
C453 C469 1.429 . S
C453 H475 0.950 . S
C454 H450 0.949 . S
C454 C462 1.574 . S
C454 C470 1.368 . S
H455 C463 0.950 . S
H456 C461 0.950 . S
H457 C462 0.949 . S
H458 C464 0.950 . S
H459 C465 0.950 . S
H460 C466 0.949 . S
C461 H456 0.950 . S
C461 C463 1.327 . S
C461 C467 1.429 . S
C462 C454 1.574 . S
C462 H457 0.949 . S
C462 C468 1.368 . S
C463 C447 1.349 . S
C463 H455 0.950 . S
C463 C461 1.327 . S
C464 C452 1.349 . S
C464 H458 0.950 . S
C464 C465 1.327 . S
C465 H459 0.950 . S
C465 C464 1.327 . S
C465 C469 1.429 . S
C466 C449 1.574 . S
C466 H460 0.949 . S
C466 C470 1.368 . S
C467 C448 1.429 . S
C467 C461 1.429 . S
C467 C468 1.523 . S
C468 C449 1.368 . S
C468 C462 1.368 . S
C468 C467 1.523 . S
C469 C453 1.429 . S
C469 C465 1.429 . S
C469 C470 1.523 . S
C470 C454 1.368 . S
C470 C466 1.368 . S
C470 C469 1.523 . S
H471 C446 0.950 . S
H472 C448 0.950 . S
H473 C449 0.949 . S
H474 C451 0.950 . S
H475 C453 0.950 . S
C476 C477 1.349 . S
C476 C478 1.327 . S
C476 H501 0.950 . S
C477 C476 1.349 . S
C477 C493 1.349 . S
C478 C476 1.327 . S
C478 C497 1.429 . S
C478 H502 0.950 . S
C479 C496 1.574 . S
C479 C498 1.368 . S
C479 H503 0.949 . S
H480 C484 0.949 . S
C481 C482 1.349 . S
C481 C483 1.327 . S
C481 H504 0.950 . S
C482 C481 1.349 . S
C482 C494 1.349 . S
C483 C481 1.327 . S
C483 C499 1.429 . S
C483 H505 0.950 . S
C484 H480 0.949 . S
C484 C492 1.574 . S
C484 C500 1.368 . S
H485 C493 0.950 . S
H486 C491 0.950 . S
H487 C492 0.949 . S
H488 C494 0.950 . S
H489 C495 0.950 . S
H490 C496 0.949 . S
C491 H486 0.950 . S
C491 C493 1.327 . S
C491 C497 1.429 . S
C492 C484 1.574 . S
C492 H487 0.949 . S
C492 C498 1.368 . S
C493 C477 1.349 . S
C493 H485 0.950 . S
C493 C491 1.327 . S
C494 C482 1.349 . S
C494 H488 0.950 . S
C494 C495 1.327 . S
C495 H489 0.950 . S
C495 C494 1.327 . S
C495 C499 1.429 . S
C496 C479 1.574 . S
C496 H490 0.949 . S
C496 C500 1.368 . S
C497 C478 1.429 . S
C497 C491 1.429 . S
C497 C498 1.523 . S
C498 C479 1.368 . S
C498 C492 1.368 . S
C498 C497 1.523 . S
C499 C483 1.429 . S
C499 C495 1.429 . S
C499 C500 1.523 . S
C500 C484 1.368 . S
C500 C496 1.368 . S
C500 C499 1.523 . S
H501 C476 0.950 . S
H502 C478 0.950 . S
H503 C479 0.949 . S
H504 C481 0.950 . S
H505 C483 0.950 . S
C506 C507 1.349 . S
C506 C508 1.327 . S
C506 H531 0.950 . S
C507 C506 1.349 . S
C507 C523 1.349 . S
C508 C506 1.327 . S
C508 C527 1.429 . S
C508 H532 0.950 . S
C509 C526 1.574 . S
C509 C528 1.368 . S
C509 H533 0.949 . S
H510 C514 0.949 . S
C511 C512 1.349 . S
C511 C513 1.327 . S
C511 H534 0.950 . S
C512 C511 1.349 . S
C512 C524 1.349 . S
C513 C511 1.327 . S
C513 C529 1.429 . S
C513 H535 0.950 . S
C514 H510 0.949 . S
C514 C522 1.574 . S
C514 C530 1.368 . S
H515 C523 0.950 . S
H516 C521 0.950 . S
H517 C522 0.949 . S
H518 C524 0.950 . S
H519 C525 0.950 . S
H520 C526 0.949 . S
C521 H516 0.950 . S
C521 C523 1.327 . S
C521 C527 1.429 . S
C522 C514 1.574 . S
C522 H517 0.949 . S
C522 C528 1.368 . S
C523 C507 1.349 . S
C523 H515 0.950 . S
C523 C521 1.327 . S
C524 C512 1.349 . S
C524 H518 0.950 . S
C524 C525 1.327 . S
C525 H519 0.950 . S
C525 C524 1.327 . S
C525 C529 1.429 . S
C526 C509 1.574 . S
C526 H520 0.949 . S
C526 C530 1.368 . S
C527 C508 1.429 . S
C527 C521 1.429 . S
C527 C528 1.523 . S
C528 C509 1.368 . S
C528 C522 1.368 . S
C528 C527 1.523 . S
C529 C513 1.429 . S
C529 C525 1.429 . S
C529 C530 1.523 . S
C530 C514 1.368 . S
C530 C526 1.368 . S
C530 C529 1.523 . S
H531 C506 0.950 . S
H532 C508 0.950 . S
H533 C509 0.949 . S
H534 C511 0.950 . S
H535 C513 0.950 . S
C536 C537 1.349 . S
C536 C538 1.327 . S
C536 H561 0.950 . S
C537 C536 1.349 . S
C537 C553 1.349 . S
C538 C536 1.327 . S
C538 C557 1.429 . S
C538 H562 0.950 . S
C539 C556 1.574 . S
C539 C558 1.368 . S
C539 H563 0.949 . S
H540 C544 0.949 . S
C541 C542 1.349 . S
C541 C543 1.327 . S
C541 H564 0.950 . S
C542 C541 1.349 . S
C542 C554 1.349 . S
C543 C541 1.327 . S
C543 C559 1.429 . S
C543 H565 0.950 . S
C544 H540 0.949 . S
C544 C552 1.574 . S
C544 C560 1.368 . S
H545 C553 0.950 . S
H546 C551 0.950 . S
H547 C552 0.949 . S
H548 C554 0.950 . S
H549 C555 0.950 . S
H550 C556 0.949 . S
C551 H546 0.950 . S
C551 C553 1.327 . S
C551 C557 1.429 . S
C552 C544 1.574 . S
C552 H547 0.949 . S
C552 C558 1.368 . S
C553 C537 1.349 . S
C553 H545 0.950 . S
C553 C551 1.327 . S
C554 C542 1.349 . S
C554 H548 0.950 . S
C554 C555 1.327 . S
C555 H549 0.950 . S
C555 C554 1.327 . S
C555 C559 1.429 . S
C556 C539 1.574 . S
C556 H550 0.949 . S
C556 C560 1.368 . S
C557 C538 1.429 . S
C557 C551 1.429 . S
C557 C558 1.523 . S
C558 C539 1.368 . S
C558 C552 1.368 . S
C558 C557 1.523 . S
C559 C543 1.429 . S
C559 C555 1.429 . S
C559 C560 1.523 . S
C560 C544 1.368 . S
C560 C556 1.368 . S
C560 C559 1.523 . S
H561 C536 0.950 . S
H562 C538 0.950 . S
H563 C539 0.949 . S
H564 C541 0.950 . S
H565 C543 0.950 . S
C566 C567 1.349 . S
C566 C568 1.327 . S
C566 H591 0.950 . S
C567 C566 1.349 . S
C567 C583 1.349 . S
C568 C566 1.327 . S
C568 C587 1.429 . S
C568 H592 0.950 . S
C569 C586 1.574 . S
C569 C588 1.368 . S
C569 H593 0.949 . S
H570 C574 0.949 . S
C571 C572 1.349 1_554 S
C571 C573 1.322 1_554 S
C571 H594 0.955 . S
C572 C571 1.349 1_556 S
C572 C584 1.356 . S
C573 C571 1.322 1_556 S
C573 C589 1.429 . S
C573 H595 0.950 . S
C574 H570 0.949 . S
C574 C582 1.574 . S
C574 C590 1.368 . S
H575 C583 0.950 . S
H576 C581 0.950 . S
H577 C582 0.949 . S
H578 C584 0.950 . S
H579 C585 0.950 . S
H580 C586 0.949 . S
C581 H576 0.950 . S
C581 C583 1.327 . S
C581 C587 1.429 . S
C582 C574 1.574 . S
C582 H577 0.949 . S
C582 C588 1.368 . S
C583 C567 1.349 . S
C583 H575 0.950 . S
C583 C581 1.327 . S
C584 C572 1.356 . S
C584 H578 0.950 . S
C584 C585 1.327 . S
C585 H579 0.950 . S
C585 C584 1.327 . S
C585 C589 1.429 . S
C586 C569 1.574 . S
C586 H580 0.949 . S
C586 C590 1.368 . S
C587 C568 1.429 . S
C587 C581 1.429 . S
C587 C588 1.523 . S
C588 C569 1.368 . S
C588 C582 1.368 . S
C588 C587 1.523 . S
C589 C573 1.429 . S
C589 C585 1.429 . S
C589 C590 1.523 . S
C590 C574 1.368 . S
C590 C586 1.368 . S
C590 C589 1.523 . S
H591 C566 0.950 . S
H592 C568 0.950 . S
H593 C569 0.949 . S
H594 C571 0.955 . S
H595 C573 0.950 . S
C596 C597 1.349 . S
C596 C598 1.327 . S
C596 H621 0.950 . S
C597 C596 1.349 . S
C597 C613 1.349 . S
C598 C596 1.327 . S
C598 C617 1.429 . S
C598 H622 0.950 . S
C599 C616 1.574 . S
C599 C618 1.368 . S
C599 H623 0.949 . S
H600 C604 0.949 . S
C601 C602 1.349 . S
C601 C603 1.327 . S
C601 H624 0.950 . S
C602 C601 1.349 . S
C602 C614 1.349 . S
C603 C601 1.327 . S
C603 C619 1.429 . S
C603 H625 0.950 . S
C604 H600 0.949 . S
C604 C612 1.574 . S
C604 C620 1.368 . S
H605 C613 0.950 . S
H606 C611 0.950 . S
H607 C612 0.949 . S
H608 C614 0.950 . S
H609 C615 0.950 . S
H610 C616 0.949 . S
C611 H606 0.950 . S
C611 C613 1.327 . S
C611 C617 1.429 . S
C612 C604 1.574 . S
C612 H607 0.949 . S
C612 C618 1.368 . S
C613 C597 1.349 . S
C613 H605 0.950 . S
C613 C611 1.327 . S
C614 C602 1.349 . S
C614 H608 0.950 . S
C614 C615 1.327 . S
C615 H609 0.950 . S
C615 C614 1.327 . S
C615 C619 1.429 . S
C616 C599 1.574 . S
C616 H610 0.949 . S
C616 C620 1.368 . S
C617 C598 1.429 . S
C617 C611 1.429 . S
C617 C618 1.523 . S
C618 C599 1.368 . S
C618 C612 1.368 . S
C618 C617 1.523 . S
C619 C603 1.429 . S
C619 C615 1.429 . S
C619 C620 1.523 . S
C620 C604 1.368 . S
C620 C616 1.368 . S
C620 C619 1.523 . S
H621 C596 0.950 . S
H622 C598 0.950 . S
H623 C599 0.949 . S
H624 C601 0.950 . S
H625 C603 0.950 . S
C626 C627 1.349 . S
C626 C628 1.327 . S
C626 H651 0.950 . S
C627 C626 1.349 . S
C627 C643 1.349 . S
C628 C626 1.327 . S
C628 C647 1.429 . S
C628 H652 0.950 . S
C629 C646 1.574 . S
C629 C648 1.368 . S
C629 H653 0.949 . S
H630 C634 0.949 . S
C631 C632 1.349 . S
C631 C633 1.327 . S
C631 H654 0.950 . S
C632 C631 1.349 . S
C632 C644 1.349 . S
C633 C631 1.327 . S
C633 C649 1.429 . S
C633 H655 0.950 . S
C634 H630 0.949 . S
C634 C642 1.574 . S
C634 C650 1.368 . S
H635 C643 0.950 . S
H636 C641 0.950 . S
H637 C642 0.949 . S
H638 C644 0.950 . S
H639 C645 0.950 . S
H640 C646 0.949 . S
C641 H636 0.950 . S
C641 C643 1.327 . S
C641 C647 1.429 . S
C642 C634 1.574 . S
C642 H637 0.949 . S
C642 C648 1.368 . S
C643 C627 1.349 . S
C643 H635 0.950 . S
C643 C641 1.327 . S
C644 C632 1.349 . S
C644 H638 0.950 . S
C644 C645 1.327 . S
C645 H639 0.950 . S
C645 C644 1.327 . S
C645 C649 1.429 . S
C646 C629 1.574 . S
C646 H640 0.949 . S
C646 C650 1.368 . S
C647 C628 1.429 . S
C647 C641 1.429 . S
C647 C648 1.523 . S
C648 C629 1.368 . S
C648 C642 1.368 . S
C648 C647 1.523 . S
C649 C633 1.429 . S
C649 C645 1.429 . S
C649 C650 1.523 . S
C650 C634 1.368 . S
C650 C646 1.368 . S
C650 C649 1.523 . S
H651 C626 0.950 . S
H652 C628 0.950 . S
H653 C629 0.949 . S
H654 C631 0.950 . S
H655 C633 0.950 . S
C656 C657 1.349 . S
C656 C658 1.327 . S
C656 H681 0.950 . S
C657 C656 1.349 . S
C657 C673 1.349 . S
C658 C656 1.327 . S
C658 C677 1.429 . S
C658 H682 0.950 . S
C659 C676 1.574 . S
C659 C678 1.368 . S
C659 H683 0.949 . S
H660 C664 0.949 . S
C661 C662 1.349 . S
C661 C663 1.327 . S
C661 H684 0.950 . S
C662 C661 1.349 . S
C662 C674 1.349 . S
C663 C661 1.327 . S
C663 C679 1.429 . S
C663 H685 0.950 . S
C664 H660 0.949 . S
C664 C672 1.574 . S
C664 C680 1.368 . S
H665 C673 0.950 . S
H666 C671 0.950 . S
H667 C672 0.949 . S
H668 C674 0.950 . S
H669 C675 0.950 . S
H670 C676 0.949 . S
C671 H666 0.950 . S
C671 C673 1.327 . S
C671 C677 1.429 . S
C672 C664 1.574 . S
C672 H667 0.949 . S
C672 C678 1.368 . S
C673 C657 1.349 . S
C673 H665 0.950 . S
C673 C671 1.327 . S
C674 C662 1.349 . S
C674 H668 0.950 . S
C674 C675 1.327 . S
C675 H669 0.950 . S
C675 C674 1.327 . S
C675 C679 1.429 . S
C676 C659 1.574 . S
C676 H670 0.949 . S
C676 C680 1.368 . S
C677 C658 1.429 . S
C677 C671 1.429 . S
C677 C678 1.523 . S
C678 C659 1.368 . S
C678 C672 1.368 . S
C678 C677 1.523 . S
C679 C663 1.429 . S
C679 C675 1.429 . S
C679 C680 1.523 . S
C680 C664 1.368 . S
C680 C676 1.368 . S
C680 C679 1.523 . S
H681 C656 0.950 . S
H682 C658 0.950 . S
H683 C659 0.949 . S
H684 C661 0.950 . S
H685 C663 0.950 . S
C686 C687 1.349 . S
C686 C688 1.327 . S
C686 H711 0.950 . S
C687 C686 1.349 . S
C687 C703 1.349 . S
C688 C686 1.327 . S
C688 C707 1.429 . S
C688 H712 0.950 . S
C689 C706 1.574 . S
C689 C708 1.368 . S
C689 H713 0.949 . S
H690 C694 0.949 . S
C691 C692 1.349 . S
C691 C693 1.327 . S
C691 H714 0.950 . S
C692 C691 1.349 . S
C692 C704 1.349 . S
C693 C691 1.327 . S
C693 C709 1.429 . S
C693 H715 0.950 . S
C694 H690 0.949 . S
C694 C702 1.574 . S
C694 C710 1.368 . S
H695 C703 0.950 . S
H696 C701 0.950 . S
H697 C702 0.949 . S
H698 C704 0.950 . S
H699 C705 0.950 . S
H700 C706 0.949 . S
C701 H696 0.950 . S
C701 C703 1.327 . S
C701 C707 1.429 . S
C702 C694 1.574 . S
C702 H697 0.949 . S
C702 C708 1.368 . S
C703 C687 1.349 . S
C703 H695 0.950 . S
C703 C701 1.327 . S
C704 C692 1.349 . S
C704 H698 0.950 . S
C704 C705 1.327 . S
C705 H699 0.950 . S
C705 C704 1.327 . S
C705 C709 1.429 . S
C706 C689 1.574 . S
C706 H700 0.949 . S
C706 C710 1.368 . S
C707 C688 1.429 . S
C707 C701 1.429 . S
C707 C708 1.523 . S
C708 C689 1.368 . S
C708 C702 1.368 . S
C708 C707 1.523 . S
C709 C693 1.429 . S
C709 C705 1.429 . S
C709 C710 1.523 . S
C710 C694 1.368 . S
C710 C706 1.368 . S
C710 C709 1.523 . S
H711 C686 0.950 . S
H712 C688 0.950 . S
H713 C689 0.949 . S
H714 C691 0.950 . S
H715 C693 0.950 . S
C716 C717 1.349 . S
C716 C718 1.327 . S
C716 H741 0.950 . S
C717 C716 1.349 . S
C717 C733 1.349 . S
C718 C716 1.327 . S
C718 C737 1.429 . S
C718 H742 0.950 . S
C719 C736 1.574 . S
C719 C738 1.368 . S
C719 H743 0.949 . S
H720 C724 0.949 . S
C721 C722 1.351 . S
C721 C723 1.327 . S
C721 H744 0.950 1_556 S
C722 C721 1.351 . S
C722 C734 1.354 . S
C723 C721 1.327 . S
C723 C739 1.429 . S
C723 H745 0.950 . S
C724 H720 0.949 . S
C724 C732 1.574 . S
C724 C740 1.368 . S
H725 C733 0.950 . S
H726 C731 0.950 . S
H727 C732 0.949 . S
H728 C734 0.950 . S
H729 C735 0.950 . S
H730 C736 0.949 . S
C731 H726 0.950 . S
C731 C733 1.327 . S
C731 C737 1.429 . S
C732 C724 1.574 . S
C732 H727 0.949 . S
C732 C738 1.368 . S
C733 C717 1.349 . S
C733 H725 0.950 . S
C733 C731 1.327 . S
C734 C722 1.354 . S
C734 H728 0.950 . S
C734 C735 1.327 . S
C735 H729 0.950 . S
C735 C734 1.327 . S
C735 C739 1.429 . S
C736 C719 1.574 . S
C736 H730 0.949 . S
C736 C740 1.368 . S
C737 C718 1.429 . S
C737 C731 1.429 . S
C737 C738 1.523 . S
C738 C719 1.368 . S
C738 C732 1.368 . S
C738 C737 1.523 . S
C739 C723 1.429 . S
C739 C735 1.429 . S
C739 C740 1.523 . S
C740 C724 1.368 . S
C740 C736 1.368 . S
C740 C739 1.523 . S
H741 C716 0.950 . S
H742 C718 0.950 . S
H743 C719 0.949 . S
H744 C721 0.950 1_554 S
H745 C723 0.950 . S
C746 C747 1.349 . S
C746 C748 1.327 . S
C746 H771 0.950 . S
C747 C746 1.349 . S
C747 C763 1.349 . S
C748 C746 1.327 . S
C748 C767 1.429 . S
C748 H772 0.950 . S
C749 C766 1.574 . S
C749 C768 1.368 . S
C749 H773 0.949 . S
H750 C754 0.949 . S
C751 C752 1.349 . S
C751 C753 1.327 . S
C751 H774 0.950 . S
C752 C751 1.349 . S
C752 C764 1.349 . S
C753 C751 1.327 . S
C753 C769 1.429 . S
C753 H775 0.950 . S
C754 H750 0.949 . S
C754 C762 1.574 . S
C754 C770 1.368 . S
H755 C763 0.950 . S
H756 C761 0.950 . S
H757 C762 0.949 . S
H758 C764 0.950 . S
H759 C765 0.950 . S
H760 C766 0.949 . S
C761 H756 0.950 . S
C761 C763 1.327 . S
C761 C767 1.429 . S
C762 C754 1.574 . S
C762 H757 0.949 . S
C762 C768 1.368 . S
C763 C747 1.349 . S
C763 H755 0.950 . S
C763 C761 1.327 . S
C764 C752 1.349 . S
C764 H758 0.950 . S
C764 C765 1.327 . S
C765 H759 0.950 . S
C765 C764 1.327 . S
C765 C769 1.429 . S
C766 C749 1.574 . S
C766 H760 0.949 . S
C766 C770 1.368 . S
C767 C748 1.429 . S
C767 C761 1.429 . S
C767 C768 1.523 . S
C768 C749 1.368 . S
C768 C762 1.368 . S
C768 C767 1.523 . S
C769 C753 1.429 . S
C769 C765 1.429 . S
C769 C770 1.523 . S
C770 C754 1.368 . S
C770 C766 1.368 . S
C770 C769 1.523 . S
H771 C746 0.950 . S
H772 C748 0.950 . S
H773 C749 0.949 . S
H774 C751 0.950 . S
H775 C753 0.950 . S
C776 C777 1.349 . S
C776 C778 1.327 . S
C776 H801 0.950 . S
C777 C776 1.349 . S
C777 C793 1.349 . S
C778 C776 1.327 . S
C778 C797 1.429 . S
C778 H802 0.950 . S
C779 C796 1.574 . S
C779 C798 1.368 . S
C779 H803 0.949 . S
H780 C784 0.949 . S
C781 C782 1.349 . S
C781 C783 1.327 . S
C781 H804 0.950 . S
C782 C781 1.349 . S
C782 C794 1.349 . S
C783 C781 1.327 . S
C783 C799 1.429 . S
C783 H805 0.950 . S
C784 H780 0.949 . S
C784 C792 1.574 . S
C784 C800 1.368 . S
H785 C793 0.950 . S
H786 C791 0.950 . S
H787 C792 0.949 . S
H788 C794 0.950 . S
H789 C795 0.950 . S
H790 C796 0.949 . S
C791 H786 0.950 . S
C791 C793 1.327 . S
C791 C797 1.429 . S
C792 C784 1.574 . S
C792 H787 0.949 . S
C792 C798 1.368 . S
C793 C777 1.349 . S
C793 H785 0.950 . S
C793 C791 1.327 . S
C794 C782 1.349 . S
C794 H788 0.950 . S
C794 C795 1.327 . S
C795 H789 0.950 . S
C795 C794 1.327 . S
C795 C799 1.429 . S
C796 C779 1.574 . S
C796 H790 0.949 . S
C796 C800 1.368 . S
C797 C778 1.429 . S
C797 C791 1.429 . S
C797 C798 1.523 . S
C798 C779 1.368 . S
C798 C792 1.368 . S
C798 C797 1.523 . S
C799 C783 1.429 . S
C799 C795 1.429 . S
C799 C800 1.523 . S
C800 C784 1.368 . S
C800 C796 1.368 . S
C800 C799 1.523 . S
H801 C776 0.950 . S
H802 C778 0.950 . S
H803 C779 0.949 . S
H804 C781 0.950 . S
H805 C783 0.950 . S
C806 C807 1.349 . S
C806 C808 1.327 . S
C806 H831 0.950 . S
C807 C806 1.349 . S
C807 C823 1.349 . S
C808 C806 1.327 . S
C808 C827 1.429 . S
C808 H832 0.950 . S
C809 C826 1.574 . S
C809 C828 1.368 . S
C809 H833 0.949 . S
H810 C814 0.949 . S
C811 C812 1.349 . S
C811 C813 1.327 . S
C811 H834 0.950 . S
C812 C811 1.349 . S
C812 C824 1.349 . S
C813 C811 1.327 . S
C813 C829 1.429 . S
C813 H835 0.950 . S
C814 H810 0.949 . S
C814 C822 1.574 . S
C814 C830 1.368 . S
H815 C823 0.950 . S
H816 C821 0.950 . S
H817 C822 0.949 . S
H818 C824 0.950 . S
H819 C825 0.950 . S
H820 C826 0.949 . S
C821 H816 0.950 . S
C821 C823 1.327 . S
C821 C827 1.429 . S
C822 C814 1.574 . S
C822 H817 0.949 . S
C822 C828 1.368 . S
C823 C807 1.349 . S
C823 H815 0.950 . S
C823 C821 1.327 . S
C824 C812 1.349 . S
C824 H818 0.950 . S
C824 C825 1.327 . S
C825 H819 0.950 . S
C825 C824 1.327 . S
C825 C829 1.429 . S
C826 C809 1.574 . S
C826 H820 0.949 . S
C826 C830 1.368 . S
C827 C808 1.429 . S
C827 C821 1.429 . S
C827 C828 1.523 . S
C828 C809 1.368 . S
C828 C822 1.368 . S
C828 C827 1.523 . S
C829 C813 1.429 . S
C829 C825 1.429 . S
C829 C830 1.523 . S
C830 C814 1.368 . S
C830 C826 1.368 . S
C830 C829 1.523 . S
H831 C806 0.950 . S
H832 C808 0.950 . S
H833 C809 0.949 . S
H834 C811 0.950 . S
H835 C813 0.950 . S
C836 C837 1.349 . S
C836 C838 1.327 . S
C836 H861 0.950 . S
C837 C836 1.349 . S
C837 C853 1.349 . S
C838 C836 1.327 . S
C838 C857 1.429 . S
C838 H862 0.950 . S
C839 C856 1.574 . S
C839 C858 1.368 . S
C839 H863 0.949 . S
H840 C844 0.949 . S
C841 C842 1.349 . S
C841 C843 1.327 . S
C841 H864 0.950 . S
C842 C841 1.349 . S
C842 C854 1.349 . S
C843 C841 1.327 . S
C843 C859 1.429 . S
C843 H865 0.950 . S
C844 H840 0.949 . S
C844 C852 1.574 . S
C844 C860 1.368 . S
H845 C853 0.950 . S
H846 C851 0.950 . S
H847 C852 0.949 . S
H848 C854 0.950 . S
H849 C855 0.950 . S
H850 C856 0.949 . S
C851 H846 0.950 . S
C851 C853 1.327 . S
C851 C857 1.429 . S
C852 C844 1.574 . S
C852 H847 0.949 . S
C852 C858 1.368 . S
C853 C837 1.349 . S
C853 H845 0.950 . S
C853 C851 1.327 . S
C854 C842 1.349 . S
C854 H848 0.950 . S
C854 C855 1.327 . S
C855 H849 0.950 . S
C855 C854 1.327 . S
C855 C859 1.429 . S
C856 C839 1.574 . S
C856 H850 0.949 . S
C856 C860 1.368 . S
C857 C838 1.429 . S
C857 C851 1.429 . S
C857 C858 1.523 . S
C858 C839 1.368 . S
C858 C852 1.368 . S
C858 C857 1.523 . S
C859 C843 1.429 . S
C859 C855 1.429 . S
C859 C860 1.523 . S
C860 C844 1.368 . S
C860 C856 1.368 . S
C860 C859 1.523 . S
H861 C836 0.950 . S
H862 C838 0.950 . S
H863 C839 0.949 . S
H864 C841 0.950 . S
H865 C843 0.950 . S
C866 C867 1.349 . S
C866 C868 1.327 . S
C866 H891 0.950 . S
C867 C866 1.349 . S
C867 C883 1.349 . S
C868 C866 1.327 . S
C868 C887 1.429 . S
C868 H892 0.950 . S
C869 C886 1.574 . S
C869 C888 1.368 . S
C869 H893 0.949 . S
H870 C874 0.949 . S
C871 C872 1.363 . S
C871 C873 1.327 . S
C871 H894 0.950 . S
C872 C871 1.363 . S
C872 C884 1.341 1_556 S
C873 C871 1.327 . S
C873 C889 1.429 . S
C873 H895 0.950 . S
C874 H870 0.949 . S
C874 C882 1.574 . S
C874 C890 1.368 . S
H875 C883 0.950 . S
H876 C881 0.950 . S
H877 C882 0.949 . S
H878 C884 0.950 . S
H879 C885 0.950 . S
H880 C886 0.949 . S
C881 H876 0.950 . S
C881 C883 1.327 . S
C881 C887 1.429 . S
C882 C874 1.574 . S
C882 H877 0.949 . S
C882 C888 1.368 . S
C883 C867 1.349 . S
C883 H875 0.950 . S
C883 C881 1.327 . S
C884 C872 1.341 1_554 S
C884 H878 0.950 . S
C884 C885 1.327 . S
C885 H879 0.950 . S
C885 C884 1.327 . S
C885 C889 1.429 1_554 S
C886 C869 1.574 . S
C886 H880 0.949 . S
C886 C890 1.368 . S
C887 C868 1.429 . S
C887 C881 1.429 . S
C887 C888 1.523 . S
C888 C869 1.368 . S
C888 C882 1.368 . S
C888 C887 1.523 . S
C889 C873 1.429 . S
C889 C885 1.429 1_556 S
C889 C890 1.523 . S
C890 C874 1.368 . S
C890 C886 1.368 . S
C890 C889 1.523 . S
H891 C866 0.950 . S
H892 C868 0.950 . S
H893 C869 0.949 . S
H894 C871 0.950 . S
H895 C873 0.950 . S
C896 C897 1.349 . S
C896 C898 1.327 . S
C896 H921 0.950 . S
C897 C896 1.349 . S
C897 C913 1.349 . S
C898 C896 1.327 . S
C898 C917 1.429 . S
C898 H922 0.950 . S
C899 C916 1.574 . S
C899 C918 1.368 . S
C899 H923 0.949 . S
H900 C904 0.949 . S
C901 C902 1.349 . S
C901 C903 1.327 . S
C901 H924 0.950 . S
C902 C901 1.349 . S
C902 C914 1.349 . S
C903 C901 1.327 . S
C903 C919 1.429 . S
C903 H925 0.950 . S
C904 H900 0.949 . S
C904 C912 1.574 . S
C904 C920 1.368 . S
H905 C913 0.950 . S
H906 C911 0.950 . S
H907 C912 0.949 . S
H908 C914 0.950 . S
H909 C915 0.950 . S
H910 C916 0.949 . S
C911 H906 0.950 . S
C911 C913 1.327 . S
C911 C917 1.429 . S
C912 C904 1.574 . S
C912 H907 0.949 . S
C912 C918 1.368 . S
C913 C897 1.349 . S
C913 H905 0.950 . S
C913 C911 1.327 . S
C914 C902 1.349 . S
C914 H908 0.950 . S
C914 C915 1.327 . S
C915 H909 0.950 . S
C915 C914 1.327 . S
C915 C919 1.429 . S
C916 C899 1.574 . S
C916 H910 0.949 . S
C916 C920 1.368 . S
C917 C898 1.429 . S
C917 C911 1.429 . S
C917 C918 1.523 . S
C918 C899 1.368 . S
C918 C912 1.368 . S
C918 C917 1.523 . S
C919 C903 1.429 . S
C919 C915 1.429 . S
C919 C920 1.523 . S
C920 C904 1.368 . S
C920 C916 1.368 . S
C920 C919 1.523 . S
H921 C896 0.950 . S
H922 C898 0.950 . S
H923 C899 0.949 . S
H924 C901 0.950 . S
H925 C903 0.950 . S
C926 C927 1.349 . S
C926 C928 1.327 . S
C926 H951 0.950 . S
C927 C926 1.349 . S
C927 C943 1.349 . S
C928 C926 1.327 . S
C928 C947 1.429 . S
C928 H952 0.950 . S
C929 C946 1.569 1_565 S
C929 C948 1.373 . S
C929 H953 0.949 . S
H930 C934 0.949 1_556 S
C931 C932 1.349 . S
C931 C933 1.327 . S
C931 H954 0.950 . S
C932 C931 1.349 . S
C932 C944 1.349 . S
C933 C931 1.327 . S
C933 C949 1.429 . S
C933 H955 0.950 . S
C934 H930 0.949 1_554 S
C934 C942 1.570 1_545 S
C934 C950 1.372 . S
H935 C943 0.950 . S
H936 C941 0.950 . S
H937 C942 0.949 . S
H938 C944 0.950 . S
H939 C945 0.950 . S
H940 C946 0.949 . S
C941 H936 0.950 . S
C941 C943 1.327 . S
C941 C947 1.429 . S
C942 C934 1.570 1_565 S
C942 H937 0.949 . S
C942 C948 1.368 . S
C943 C927 1.349 . S
C943 H935 0.950 . S
C943 C941 1.327 . S
C944 C932 1.349 . S
C944 H938 0.950 . S
C944 C945 1.327 . S
C945 H939 0.950 . S
C945 C944 1.327 . S
C945 C949 1.429 . S
C946 C929 1.569 1_545 S
C946 H940 0.949 . S
C946 C950 1.368 . S
C947 C928 1.429 . S
C947 C941 1.429 . S
C947 C948 1.523 . S
C948 C929 1.373 . S
C948 C942 1.368 . S
C948 C947 1.523 . S
C949 C933 1.429 . S
C949 C945 1.429 . S
C949 C950 1.523 1_556 S
C950 C934 1.372 . S
C950 C946 1.368 . S
C950 C949 1.523 1_554 S
H951 C926 0.950 . S
H952 C928 0.950 . S
H953 C929 0.949 . S
H954 C931 0.950 . S
H955 C933 0.950 . S
C956 C957 1.349 . S
C956 C958 1.327 . S
C956 H981 0.950 . S
C957 C956 1.349 . S
C957 C973 1.349 . S
C958 C956 1.327 . S
C958 C977 1.429 . S
C958 H982 0.950 . S
C959 C976 1.574 . S
C959 C978 1.368 . S
C959 H983 0.949 . S
H960 C964 0.949 . S
C961 C962 1.349 . S
C961 C963 1.327 . S
C961 H984 0.950 . S
C962 C961 1.349 . S
C962 C974 1.349 . S
C963 C961 1.327 . S
C963 C979 1.429 . S
C963 H985 0.950 . S
C964 H960 0.949 . S
C964 C972 1.574 . S
C964 C980 1.368 . S
H965 C973 0.950 . S
H966 C971 0.950 . S
H967 C972 0.949 . S
H968 C974 0.950 . S
H969 C975 0.950 . S
H970 C976 0.949 . S
C971 H966 0.950 . S
C971 C973 1.327 . S
C971 C977 1.429 . S
C972 C964 1.574 . S
C972 H967 0.949 . S
C972 C978 1.368 . S
C973 C957 1.349 . S
C973 H965 0.950 . S
C973 C971 1.327 . S
C974 C962 1.349 . S
C974 H968 0.950 . S
C974 C975 1.327 . S
C975 H969 0.950 . S
C975 C974 1.327 . S
C975 C979 1.429 . S
C976 C959 1.574 . S
C976 H970 0.949 . S
C976 C980 1.368 . S
C977 C958 1.429 . S
C977 C971 1.429 . S
C977 C978 1.523 . S
C978 C959 1.368 . S
C978 C972 1.368 . S
C978 C977 1.523 . S
C979 C963 1.429 . S
C979 C975 1.429 . S
C979 C980 1.523 . S
C980 C964 1.368 . S
C980 C976 1.368 . S
C980 C979 1.523 . S
H981 C956 0.950 . S
H982 C958 0.950 . S
H983 C959 0.949 . S
H984 C961 0.950 . S
H985 C963 0.950 . S
C986 C987 1.349 . S
C986 C988 1.327 . S
C986 H1011 0.950 . S
C987 C986 1.349 . S
C987 C1003 1.349 . S
C988 C986 1.327 . S
C988 C1007 1.429 . S
C988 H1012 0.950 . S
C989 C1006 1.634 . S
C989 C1008 1.306 1_565 S
C989 H1013 0.960 . S
H990 C994 0.960 . S
C991 C992 1.349 . S
C991 C993 1.327 . S
C991 H1014 0.950 . S
C992 C991 1.349 . S
C992 C1004 1.349 . S
C993 C991 1.327 . S
C993 C1009 1.429 . S
C993 H1015 0.950 . S
C994 H990 0.960 . S
C994 C1002 1.635 . S
C994 C1010 1.306 1_545 S
H995 C1003 0.950 . S
H996 C1001 0.950 . S
H997 C1002 0.949 . S
H998 C1004 0.950 . S
H999 C1005 0.950 . S
H1000 C1006 0.949 . S
C1001 H996 0.950 . S
C1001 C1003 1.327 . S
C1001 C1007 1.429 . S
C1002 C994 1.635 . S
C1002 H997 0.949 . S
C1002 C1008 1.368 . S
C1003 C987 1.349 . S
C1003 H995 0.950 . S
C1003 C1001 1.327 . S
C1004 C992 1.349 . S
C1004 H998 0.950 . S
C1004 C1005 1.327 . S
C1005 H999 0.950 . S
C1005 C1004 1.327 . S
C1005 C1009 1.429 . S
C1006 C989 1.634 . S
C1006 H1000 0.949 . S
C1006 C1010 1.368 . S
C1007 C988 1.429 . S
C1007 C1001 1.429 . S
C1007 C1008 1.523 . S
C1008 C989 1.306 1_545 S
C1008 C1002 1.368 . S
C1008 C1007 1.523 . S
C1009 C993 1.429 . S
C1009 C1005 1.429 . S
C1009 C1010 1.523 . S
C1010 C994 1.306 1_565 S
C1010 C1006 1.368 . S
C1010 C1009 1.523 . S
H1011 C986 0.950 . S
H1012 C988 0.950 . S
H1013 C989 0.960 . S
H1014 C991 0.950 . S
H1015 C993 0.950 . S
C1016 C1017 1.349 . S
C1016 C1018 1.327 . S
C1016 H1041 0.950 . S
C1017 C1016 1.349 . S
C1017 C1033 1.349 . S
C1018 C1016 1.327 . S
C1018 C1037 1.429 . S
C1018 H1042 0.950 . S
C1019 C1036 1.574 . S
C1019 C1038 1.368 . S
C1019 H1043 0.949 . S
H1020 C1024 0.949 . S
C1021 C1022 1.349 . S
C1021 C1023 1.327 . S
C1021 H1044 0.950 . S
C1022 C1021 1.349 . S
C1022 C1034 1.349 . S
C1023 C1021 1.327 . S
C1023 C1039 1.429 . S
C1023 H1045 0.950 . S
C1024 H1020 0.949 . S
C1024 C1032 1.574 . S
C1024 C1040 1.368 . S
H1025 C1033 0.950 . S
H1026 C1031 0.950 . S
H1027 C1032 0.949 . S
H1028 C1034 0.950 . S
H1029 C1035 0.950 . S
H1030 C1036 0.949 . S
C1031 H1026 0.950 . S
C1031 C1033 1.327 . S
C1031 C1037 1.429 . S
C1032 C1024 1.574 . S
C1032 H1027 0.949 . S
C1032 C1038 1.368 . S
C1033 C1017 1.349 . S
C1033 H1025 0.950 . S
C1033 C1031 1.327 . S
C1034 C1022 1.349 . S
C1034 H1028 0.950 . S
C1034 C1035 1.327 . S
C1035 H1029 0.950 . S
C1035 C1034 1.327 . S
C1035 C1039 1.429 . S
C1036 C1019 1.574 . S
C1036 H1030 0.949 . S
C1036 C1040 1.368 . S
C1037 C1018 1.429 . S
C1037 C1031 1.429 . S
C1037 C1038 1.523 . S
C1038 C1019 1.368 . S
C1038 C1032 1.368 . S
C1038 C1037 1.523 . S
C1039 C1023 1.429 . S
C1039 C1035 1.429 . S
C1039 C1040 1.523 . S
C1040 C1024 1.368 . S
C1040 C1036 1.368 . S
C1040 C1039 1.523 . S
H1041 C1016 0.950 . S
H1042 C1018 0.950 . S
H1043 C1019 0.949 . S
H1044 C1021 0.950 . S
H1045 C1023 0.950 . S
C1046 C1047 1.349 . S
C1046 C1048 1.327 . S
C1046 H1071 0.950 . S
C1047 C1046 1.349 . S
C1047 C1063 1.349 . S
C1048 C1046 1.327 . S
C1048 C1067 1.429 . S
C1048 H1072 0.950 . S
C1049 C1066 1.574 1_545 S
C1049 C1068 1.368 . S
C1049 H1073 0.949 . S
H1050 C1054 0.949 . S
C1051 C1052 1.349 . S
C1051 C1053 1.327 . S
C1051 H1074 0.950 . S
C1052 C1051 1.349 . S
C1052 C1064 1.349 . S
C1053 C1051 1.327 . S
C1053 C1069 1.429 . S
C1053 H1075 0.950 . S
C1054 H1050 0.949 . S
C1054 C1062 1.574 1_565 S
C1054 C1070 1.368 . S
H1055 C1063 0.950 . S
H1056 C1061 0.950 . S
H1057 C1062 0.949 . S
H1058 C1064 0.950 . S
H1059 C1065 0.950 . S
H1060 C1066 0.949 . S
C1061 H1056 0.950 . S
C1061 C1063 1.327 . S
C1061 C1067 1.429 . S
C1062 C1054 1.574 1_545 S
C1062 H1057 0.949 . S
C1062 C1068 1.368 . S
C1063 C1047 1.349 . S
C1063 H1055 0.950 . S
C1063 C1061 1.327 . S
C1064 C1052 1.349 . S
C1064 H1058 0.950 . S
C1064 C1065 1.327 . S
C1065 H1059 0.950 . S
C1065 C1064 1.327 . S
C1065 C1069 1.429 . S
C1066 C1049 1.574 1_565 S
C1066 H1060 0.949 . S
C1066 C1070 1.368 . S
C1067 C1048 1.429 . S
C1067 C1061 1.429 . S
C1067 C1068 1.523 1_556 S
C1068 C1049 1.368 . S
C1068 C1062 1.368 . S
C1068 C1067 1.523 1_554 S
C1069 C1053 1.429 . S
C1069 C1065 1.429 . S
C1069 C1070 1.523 . S
C1070 C1054 1.368 . S
C1070 C1066 1.368 . S
C1070 C1069 1.523 . S
H1071 C1046 0.950 . S
H1072 C1048 0.950 . S
H1073 C1049 0.949 . S
H1074 C1051 0.950 . S
H1075 C1053 0.950 . S
C1076 C1077 1.349 . S
C1076 C1078 1.327 . S
C1076 H1101 0.950 . S
C1077 C1076 1.349 . S
C1077 C1093 1.349 . S
C1078 C1076 1.327 . S
C1078 C1097 1.429 . S
C1078 H1102 0.950 . S
C1079 C1096 1.574 . S
C1079 C1098 1.368 . S
C1079 H1103 0.949 . S
H1080 C1084 0.949 . S
C1081 C1082 1.349 . S
C1081 C1083 1.327 . S
C1081 H1104 0.950 . S
C1082 C1081 1.349 . S
C1082 C1094 1.349 . S
C1083 C1081 1.327 . S
C1083 C1099 1.429 . S
C1083 H1105 0.950 . S
C1084 H1080 0.949 . S
C1084 C1092 1.574 . S
C1084 C1100 1.368 . S
H1085 C1093 0.950 . S
H1086 C1091 0.950 . S
H1087 C1092 0.949 . S
H1088 C1094 0.950 . S
H1089 C1095 0.950 . S
H1090 C1096 0.949 . S
C1091 H1086 0.950 . S
C1091 C1093 1.327 . S
C1091 C1097 1.429 . S
C1092 C1084 1.574 . S
C1092 H1087 0.949 . S
C1092 C1098 1.368 . S
C1093 C1077 1.349 . S
C1093 H1085 0.950 . S
C1093 C1091 1.327 . S
C1094 C1082 1.349 . S
C1094 H1088 0.950 . S
C1094 C1095 1.327 . S
C1095 H1089 0.950 . S
C1095 C1094 1.327 . S
C1095 C1099 1.429 . S
C1096 C1079 1.574 . S
C1096 H1090 0.949 . S
C1096 C1100 1.368 . S
C1097 C1078 1.429 . S
C1097 C1091 1.429 . S
C1097 C1098 1.523 . S
C1098 C1079 1.368 . S
C1098 C1092 1.368 . S
C1098 C1097 1.523 . S
C1099 C1083 1.429 . S
C1099 C1095 1.429 . S
C1099 C1100 1.523 . S
C1100 C1084 1.368 . S
C1100 C1096 1.368 . S
C1100 C1099 1.523 . S
H1101 C1076 0.950 . S
H1102 C1078 0.950 . S
H1103 C1079 0.949 . S
H1104 C1081 0.950 . S
H1105 C1083 0.950 . S
C1106 C1107 1.349 . S
C1106 C1108 1.327 . S
C1106 H1131 0.950 . S
C1107 C1106 1.349 . S
C1107 C1123 1.349 . S
C1108 C1106 1.327 . S
C1108 C1127 1.429 . S
C1108 H1132 0.950 . S
C1109 C1126 1.574 . S
C1109 C1128 1.368 . S
C1109 H1133 0.949 . S
H1110 C1114 0.949 . S
C1111 C1112 1.349 . S
C1111 C1113 1.327 . S
C1111 H1134 0.950 . S
C1112 C1111 1.349 . S
C1112 C1124 1.349 . S
C1113 C1111 1.327 . S
C1113 C1129 1.429 . S
C1113 H1135 0.950 . S
C1114 H1110 0.949 . S
C1114 C1122 1.574 . S
C1114 C1130 1.368 . S
H1115 C1123 0.950 . S
H1116 C1121 0.950 . S
H1117 C1122 0.949 . S
H1118 C1124 0.950 . S
H1119 C1125 0.950 . S
H1120 C1126 0.949 . S
C1121 H1116 0.950 . S
C1121 C1123 1.327 . S
C1121 C1127 1.429 . S
C1122 C1114 1.574 . S
C1122 H1117 0.949 . S
C1122 C1128 1.368 1_565 S
C1123 C1107 1.349 . S
C1123 H1115 0.950 . S
C1123 C1121 1.327 . S
C1124 C1112 1.349 . S
C1124 H1118 0.950 . S
C1124 C1125 1.327 . S
C1125 H1119 0.950 . S
C1125 C1124 1.327 . S
C1125 C1129 1.429 . S
C1126 C1109 1.574 . S
C1126 H1120 0.949 . S
C1126 C1130 1.368 1_545 S
C1127 C1108 1.429 . S
C1127 C1121 1.429 . S
C1127 C1128 1.523 . S
C1128 C1109 1.368 . S
C1128 C1122 1.368 1_545 S
C1128 C1127 1.523 . S
C1129 C1113 1.429 . S
C1129 C1125 1.429 . S
C1129 C1130 1.523 . S
C1130 C1114 1.368 . S
C1130 C1126 1.368 1_565 S
C1130 C1129 1.523 . S
H1131 C1106 0.950 . S
H1132 C1108 0.950 . S
H1133 C1109 0.949 . S
H1134 C1111 0.950 . S
H1135 C1113 0.950 . S
C1136 C1137 1.349 . S
C1136 C1138 1.327 . S
C1136 H1161 0.950 . S
C1137 C1136 1.349 . S
C1137 C1153 1.349 . S
C1138 C1136 1.327 . S
C1138 C1157 1.429 . S
C1138 H1162 0.950 . S
C1139 C1156 1.574 . S
C1139 C1158 1.368 . S
C1139 H1163 0.949 . S
H1140 C1144 0.949 . S
C1141 C1142 1.349 . S
C1141 C1143 1.327 . S
C1141 H1164 0.950 . S
C1142 C1141 1.349 . S
C1142 C1154 1.349 . S
C1143 C1141 1.327 . S
C1143 C1159 1.429 . S
C1143 H1165 0.950 . S
C1144 H1140 0.949 . S
C1144 C1152 1.574 . S
C1144 C1160 1.368 . S
H1145 C1153 0.950 . S
H1146 C1151 0.950 . S
H1147 C1152 0.949 . S
H1148 C1154 0.950 . S
H1149 C1155 0.950 . S
H1150 C1156 0.949 . S
C1151 H1146 0.950 . S
C1151 C1153 1.327 . S
C1151 C1157 1.429 . S
C1152 C1144 1.574 . S
C1152 H1147 0.949 . S
C1152 C1158 1.368 . S
C1153 C1137 1.349 . S
C1153 H1145 0.950 . S
C1153 C1151 1.327 . S
C1154 C1142 1.349 . S
C1154 H1148 0.950 . S
C1154 C1155 1.327 . S
C1155 H1149 0.950 . S
C1155 C1154 1.327 . S
C1155 C1159 1.429 . S
C1156 C1139 1.574 . S
C1156 H1150 0.949 . S
C1156 C1160 1.368 . S
C1157 C1138 1.429 . S
C1157 C1151 1.429 . S
C1157 C1158 1.523 . S
C1158 C1139 1.368 . S
C1158 C1152 1.368 . S
C1158 C1157 1.523 . S
C1159 C1143 1.429 . S
C1159 C1155 1.429 . S
C1159 C1160 1.523 . S
C1160 C1144 1.368 . S
C1160 C1156 1.368 . S
C1160 C1159 1.523 . S
H1161 C1136 0.950 . S
H1162 C1138 0.950 . S
H1163 C1139 0.949 . S
H1164 C1141 0.950 . S
H1165 C1143 0.950 . S
C1166 C1167 1.349 . S
C1166 C1168 1.327 . S
C1166 H1191 0.950 . S
C1167 C1166 1.349 . S
C1167 C1183 1.349 . S
C1168 C1166 1.327 . S
C1168 C1187 1.429 . S
C1168 H1192 0.950 . S
C1169 C1186 1.574 . S
C1169 C1188 1.368 . S
C1169 H1193 0.949 . S
H1170 C1174 0.949 . S
C1171 C1172 1.349 . S
C1171 C1173 1.327 . S
C1171 H1194 0.950 . S
C1172 C1171 1.349 . S
C1172 C1184 1.349 . S
C1173 C1171 1.327 . S
C1173 C1189 1.429 . S
C1173 H1195 0.950 . S
C1174 H1170 0.949 . S
C1174 C1182 1.574 . S
C1174 C1190 1.368 . S
H1175 C1183 0.950 . S
H1176 C1181 0.950 . S
H1177 C1182 0.949 . S
H1178 C1184 0.950 . S
H1179 C1185 0.950 . S
H1180 C1186 0.949 . S
C1181 H1176 0.950 . S
C1181 C1183 1.327 . S
C1181 C1187 1.429 . S
C1182 C1174 1.574 . S
C1182 H1177 0.949 . S
C1182 C1188 1.368 . S
C1183 C1167 1.349 . S
C1183 H1175 0.950 . S
C1183 C1181 1.327 . S
C1184 C1172 1.349 . S
C1184 H1178 0.950 . S
C1184 C1185 1.327 . S
C1185 H1179 0.950 . S
C1185 C1184 1.327 . S
C1185 C1189 1.429 . S
C1186 C1169 1.574 . S
C1186 H1180 0.949 . S
C1186 C1190 1.368 . S
C1187 C1168 1.429 . S
C1187 C1181 1.429 . S
C1187 C1188 1.523 . S
C1188 C1169 1.368 . S
C1188 C1182 1.368 . S
C1188 C1187 1.523 . S
C1189 C1173 1.429 . S
C1189 C1185 1.429 . S
C1189 C1190 1.523 . S
C1190 C1174 1.368 . S
C1190 C1186 1.368 . S
C1190 C1189 1.523 . S
H1191 C1166 0.950 . S
H1192 C1168 0.950 . S
H1193 C1169 0.949 . S
H1194 C1171 0.950 . S
H1195 C1173 0.950 . S
C1196 C1197 1.349 . S
C1196 C1198 1.327 . S
C1196 H1221 0.950 . S
C1197 C1196 1.349 . S
C1197 C1213 1.349 . S
C1198 C1196 1.327 . S
C1198 C1217 1.429 . S
C1198 H1222 0.950 . S
C1199 C1216 1.574 . S
C1199 C1218 1.368 . S
C1199 H1223 0.949 . S
H1200 C1204 0.949 . S
C1201 C1202 1.349 . S
C1201 C1203 1.327 . S
C1201 H1224 0.950 . S
C1202 C1201 1.349 . S
C1202 C1214 1.349 . S
C1203 C1201 1.327 . S
C1203 C1219 1.429 . S
C1203 H1225 0.950 . S
C1204 H1200 0.949 . S
C1204 C1212 1.574 . S
C1204 C1220 1.368 . S
H1205 C1213 0.950 . S
H1206 C1211 0.950 . S
H1207 C1212 0.949 . S
H1208 C1214 0.950 . S
H1209 C1215 0.950 . S
H1210 C1216 0.949 . S
C1211 H1206 0.950 . S
C1211 C1213 1.327 . S
C1211 C1217 1.429 . S
C1212 C1204 1.574 . S
C1212 H1207 0.949 . S
C1212 C1218 1.368 . S
C1213 C1197 1.349 . S
C1213 H1205 0.950 . S
C1213 C1211 1.327 . S
C1214 C1202 1.349 . S
C1214 H1208 0.950 . S
C1214 C1215 1.327 . S
C1215 H1209 0.950 . S
C1215 C1214 1.327 . S
C1215 C1219 1.429 . S
C1216 C1199 1.574 . S
C1216 H1210 0.949 . S
C1216 C1220 1.368 . S
C1217 C1198 1.429 . S
C1217 C1211 1.429 . S
C1217 C1218 1.523 . S
C1218 C1199 1.368 . S
C1218 C1212 1.368 . S
C1218 C1217 1.523 . S
C1219 C1203 1.429 . S
C1219 C1215 1.429 . S
C1219 C1220 1.523 . S
C1220 C1204 1.368 . S
C1220 C1216 1.368 . S
C1220 C1219 1.523 . S
H1221 C1196 0.950 . S
H1222 C1198 0.950 . S
H1223 C1199 0.949 . S
H1224 C1201 0.950 . S
H1225 C1203 0.950 . S
C1226 C1227 1.349 . S
C1226 C1228 1.327 . S
C1226 H1251 0.950 . S
C1227 C1226 1.349 . S
C1227 C1243 1.349 . S
C1228 C1226 1.327 . S
C1228 C1247 1.429 . S
C1228 H1252 0.950 . S
C1229 C1246 1.574 1_554 S
C1229 C1248 1.368 . S
C1229 H1253 0.949 . S
H1230 C1234 0.949 . S
C1231 C1232 1.349 . S
C1231 C1233 1.327 . S
C1231 H1254 0.950 . S
C1232 C1231 1.349 . S
C1232 C1244 1.349 . S
C1233 C1231 1.327 . S
C1233 C1249 1.429 . S
C1233 H1255 0.950 . S
C1234 H1230 0.949 . S
C1234 C1242 1.574 . S
C1234 C1250 1.368 . S
H1235 C1243 0.950 . S
H1236 C1241 0.950 . S
H1237 C1242 0.949 . S
H1238 C1244 0.950 . S
H1239 C1245 0.950 . S
H1240 C1246 0.949 . S
C1241 H1236 0.950 . S
C1241 C1243 1.327 . S
C1241 C1247 1.429 . S
C1242 C1234 1.574 . S
C1242 H1237 0.949 . S
C1242 C1248 1.368 . S
C1243 C1227 1.349 . S
C1243 H1235 0.950 . S
C1243 C1241 1.327 . S
C1244 C1232 1.349 . S
C1244 H1238 0.950 . S
C1244 C1245 1.327 . S
C1245 H1239 0.950 . S
C1245 C1244 1.327 . S
C1245 C1249 1.429 . S
C1246 C1229 1.574 1_556 S
C1246 H1240 0.949 . S
C1246 C1250 1.368 1_556 S
C1247 C1228 1.429 . S
C1247 C1241 1.429 . S
C1247 C1248 1.523 . S
C1248 C1229 1.368 . S
C1248 C1242 1.368 . S
C1248 C1247 1.523 . S
C1249 C1233 1.429 . S
C1249 C1245 1.429 . S
C1249 C1250 1.523 1_556 S
C1250 C1234 1.368 . S
C1250 C1246 1.368 1_554 S
C1250 C1249 1.523 1_554 S
H1251 C1226 0.950 . S
H1252 C1228 0.950 . S
H1253 C1229 0.949 . S
H1254 C1231 0.950 . S
H1255 C1233 0.950 . S
C1256 C1257 1.349 . S
C1256 C1258 1.327 . S
C1256 H1281 0.950 . S
C1257 C1256 1.349 . S
C1257 C1273 1.349 . S
C1258 C1256 1.327 . S
C1258 C1277 1.429 . S
C1258 H1282 0.950 . S
C1259 C1276 1.574 . S
C1259 C1278 1.368 . S
C1259 H1283 0.949 . S
H1260 C1264 0.949 . S
C1261 C1262 1.349 . S
C1261 C1263 1.327 . S
C1261 H1284 0.950 . S
C1262 C1261 1.349 . S
C1262 C1274 1.349 . S
C1263 C1261 1.327 . S
C1263 C1279 1.429 . S
C1263 H1285 0.950 . S
C1264 H1260 0.949 . S
C1264 C1272 1.574 . S
C1264 C1280 1.368 . S
H1265 C1273 0.950 . S
H1266 C1271 0.950 . S
H1267 C1272 0.949 . S
H1268 C1274 0.950 . S
H1269 C1275 0.950 . S
H1270 C1276 0.949 . S
C1271 H1266 0.950 . S
C1271 C1273 1.327 . S
C1271 C1277 1.429 . S
C1272 C1264 1.574 . S
C1272 H1267 0.949 . S
C1272 C1278 1.368 . S
C1273 C1257 1.349 . S
C1273 H1265 0.950 . S
C1273 C1271 1.327 . S
C1274 C1262 1.349 . S
C1274 H1268 0.950 . S
C1274 C1275 1.327 . S
C1275 H1269 0.950 . S
C1275 C1274 1.327 . S
C1275 C1279 1.429 . S
C1276 C1259 1.574 . S
C1276 H1270 0.949 . S
C1276 C1280 1.368 . S
C1277 C1258 1.429 . S
C1277 C1271 1.429 . S
C1277 C1278 1.523 . S
C1278 C1259 1.368 . S
C1278 C1272 1.368 . S
C1278 C1277 1.523 . S
C1279 C1263 1.429 . S
C1279 C1275 1.429 . S
C1279 C1280 1.523 . S
C1280 C1264 1.368 . S
C1280 C1276 1.368 . S
C1280 C1279 1.523 . S
H1281 C1256 0.950 . S
H1282 C1258 0.950 . S
H1283 C1259 0.949 . S
H1284 C1261 0.950 . S
H1285 C1263 0.950 . S
C1286 C1287 1.349 . S
C1286 C1288 1.327 . S
C1286 H1311 0.950 . S
C1287 C1286 1.349 . S
C1287 C1303 1.349 . S
C1288 C1286 1.327 . S
C1288 C1307 1.429 . S
C1288 H1312 0.950 . S
C1289 C1306 1.574 . S
C1289 C1308 1.368 . S
C1289 H1313 0.949 . S
H1290 C1294 0.949 . S
C1291 C1292 1.349 . S
C1291 C1293 1.327 . S
C1291 H1314 0.950 . S
C1292 C1291 1.349 . S
C1292 C1304 1.349 . S
C1293 C1291 1.327 . S
C1293 C1309 1.429 . S
C1293 H1315 0.950 . S
C1294 H1290 0.949 . S
C1294 C1302 1.574 . S
C1294 C1310 1.368 . S
H1295 C1303 0.950 . S
H1296 C1301 0.950 . S
H1297 C1302 0.949 . S
H1298 C1304 0.950 . S
H1299 C1305 0.950 . S
H1300 C1306 0.949 . S
C1301 H1296 0.950 . S
C1301 C1303 1.327 . S
C1301 C1307 1.429 . S
C1302 C1294 1.574 . S
C1302 H1297 0.949 . S
C1302 C1308 1.368 . S
C1303 C1287 1.349 . S
C1303 H1295 0.950 . S
C1303 C1301 1.327 . S
C1304 C1292 1.349 . S
C1304 H1298 0.950 . S
C1304 C1305 1.327 . S
C1305 H1299 0.950 . S
C1305 C1304 1.327 . S
C1305 C1309 1.429 . S
C1306 C1289 1.574 . S
C1306 H1300 0.949 . S
C1306 C1310 1.368 . S
C1307 C1288 1.429 . S
C1307 C1301 1.429 . S
C1307 C1308 1.523 . S
C1308 C1289 1.368 . S
C1308 C1302 1.368 . S
C1308 C1307 1.523 . S
C1309 C1293 1.429 . S
C1309 C1305 1.429 . S
C1309 C1310 1.523 . S
C1310 C1294 1.368 . S
C1310 C1306 1.368 . S
C1310 C1309 1.523 . S
H1311 C1286 0.950 . S
H1312 C1288 0.950 . S
H1313 C1289 0.949 . S
H1314 C1291 0.950 . S
H1315 C1293 0.950 . S
C1316 C1317 1.349 . S
C1316 C1318 1.327 . S
C1316 H1341 0.950 . S
C1317 C1316 1.349 . S
C1317 C1333 1.349 . S
C1318 C1316 1.327 . S
C1318 C1337 1.429 . S
C1318 H1342 0.950 . S
C1319 C1336 1.574 . S
C1319 C1338 1.368 . S
C1319 H1343 0.949 . S
H1320 C1324 0.949 . S
C1321 C1322 1.349 . S
C1321 C1323 1.327 . S
C1321 H1344 0.950 . S
C1322 C1321 1.349 . S
C1322 C1334 1.349 . S
C1323 C1321 1.327 . S
C1323 C1339 1.429 . S
C1323 H1345 0.950 . S
C1324 H1320 0.949 . S
C1324 C1332 1.574 . S
C1324 C1340 1.368 . S
H1325 C1333 0.950 . S
H1326 C1331 0.950 . S
H1327 C1332 0.949 . S
H1328 C1334 0.950 . S
H1329 C1335 0.950 . S
H1330 C1336 0.949 . S
C1331 H1326 0.950 . S
C1331 C1333 1.327 . S
C1331 C1337 1.429 . S
C1332 C1324 1.574 . S
C1332 H1327 0.949 . S
C1332 C1338 1.368 . S
C1333 C1317 1.349 . S
C1333 H1325 0.950 . S
C1333 C1331 1.327 . S
C1334 C1322 1.349 . S
C1334 H1328 0.950 . S
C1334 C1335 1.327 . S
C1335 H1329 0.950 . S
C1335 C1334 1.327 . S
C1335 C1339 1.429 . S
C1336 C1319 1.574 . S
C1336 H1330 0.949 . S
C1336 C1340 1.368 . S
C1337 C1318 1.429 . S
C1337 C1331 1.429 . S
C1337 C1338 1.523 . S
C1338 C1319 1.368 . S
C1338 C1332 1.368 . S
C1338 C1337 1.523 . S
C1339 C1323 1.429 . S
C1339 C1335 1.429 . S
C1339 C1340 1.523 . S
C1340 C1324 1.368 . S
C1340 C1336 1.368 . S
C1340 C1339 1.523 . S
H1341 C1316 0.950 . S
H1342 C1318 0.950 . S
H1343 C1319 0.949 . S
H1344 C1321 0.950 . S
H1345 C1323 0.950 . S
C1346 C1347 1.349 . S
C1346 C1348 1.327 . S
C1346 H1371 0.950 . S
C1347 C1346 1.349 . S
C1347 C1363 1.349 . S
C1348 C1346 1.327 . S
C1348 C1367 1.429 . S
C1348 H1372 0.950 . S
C1349 C1366 1.574 . S
C1349 C1368 1.368 . S
C1349 H1373 0.949 . S
H1350 C1354 0.949 1_556 S
C1351 C1352 1.349 . S
C1351 C1353 1.327 . S
C1351 H1374 0.950 . S
C1352 C1351 1.349 . S
C1352 C1364 1.349 . S
C1353 C1351 1.327 . S
C1353 C1369 1.429 . S
C1353 H1375 0.950 . S
C1354 H1350 0.949 1_554 S
C1354 C1362 1.574 . S
C1354 C1370 1.368 . S
H1355 C1363 0.950 . S
H1356 C1361 0.950 . S
H1357 C1362 0.949 . S
H1358 C1364 0.950 . S
H1359 C1365 0.950 . S
H1360 C1366 0.949 . S
C1361 H1356 0.950 . S
C1361 C1363 1.327 . S
C1361 C1367 1.429 . S
C1362 C1354 1.574 . S
C1362 H1357 0.949 . S
C1362 C1368 1.368 . S
C1363 C1347 1.349 . S
C1363 H1355 0.950 . S
C1363 C1361 1.327 . S
C1364 C1352 1.349 . S
C1364 H1358 0.950 . S
C1364 C1365 1.327 . S
C1365 H1359 0.950 . S
C1365 C1364 1.327 . S
C1365 C1369 1.429 . S
C1366 C1349 1.574 . S
C1366 H1360 0.949 . S
C1366 C1370 1.368 . S
C1367 C1348 1.429 . S
C1367 C1361 1.429 . S
C1367 C1368 1.523 . S
C1368 C1349 1.368 . S
C1368 C1362 1.368 . S
C1368 C1367 1.523 . S
C1369 C1353 1.429 . S
C1369 C1365 1.429 . S
C1369 C1370 1.523 1_556 S
C1370 C1354 1.368 . S
C1370 C1366 1.368 . S
C1370 C1369 1.523 1_554 S
H1371 C1346 0.950 . S
H1372 C1348 0.950 . S
H1373 C1349 0.949 . S
H1374 C1351 0.950 . S
H1375 C1353 0.950 . S
C1376 C1377 1.362 . S
C1376 C1378 1.327 1_554 S
C1376 H1401 0.937 1_554 S
C1377 C1376 1.362 . S
C1377 C1393 1.349 . S
C1378 C1376 1.327 1_556 S
C1378 C1397 1.428 1_556 S
C1378 H1402 0.950 . S
C1379 C1396 1.574 . S
C1379 C1398 1.368 . S
C1379 H1403 0.949 . S
H1380 C1384 0.949 . S
C1381 C1382 1.349 . S
C1381 C1383 1.327 . S
C1381 H1404 0.950 . S
C1382 C1381 1.349 . S
C1382 C1394 1.362 . S
C1383 C1381 1.327 . S
C1383 C1399 1.429 . S
C1383 H1405 0.950 . S
C1384 H1380 0.949 . S
C1384 C1392 1.574 . S
C1384 C1400 1.368 1_556 S
H1385 C1393 0.950 . S
H1386 C1391 0.950 . S
H1387 C1392 0.949 . S
H1388 C1394 0.937 1_556 S
H1389 C1395 0.950 . S
H1390 C1396 0.949 . S
C1391 H1386 0.950 . S
C1391 C1393 1.327 . S
C1391 C1397 1.429 . S
C1392 C1384 1.574 . S
C1392 H1387 0.949 . S
C1392 C1398 1.368 1_556 S
C1393 C1377 1.349 . S
C1393 H1385 0.950 . S
C1393 C1391 1.327 . S
C1394 C1382 1.362 . S
C1394 H1388 0.937 1_554 S
C1394 C1395 1.327 1_554 S
C1395 H1389 0.950 . S
C1395 C1394 1.327 1_556 S
C1395 C1399 1.428 1_556 S
C1396 C1379 1.574 . S
C1396 H1390 0.949 . S
C1396 C1400 1.368 . S
C1397 C1378 1.428 1_554 S
C1397 C1391 1.429 . S
C1397 C1398 1.523 . S
C1398 C1379 1.368 . S
C1398 C1392 1.368 1_554 S
C1398 C1397 1.523 . S
C1399 C1383 1.429 . S
C1399 C1395 1.428 1_554 S
C1399 C1400 1.523 . S
C1400 C1384 1.368 1_554 S
C1400 C1396 1.368 . S
C1400 C1399 1.523 . S
H1401 C1376 0.937 1_556 S
H1402 C1378 0.950 . S
H1403 C1379 0.949 . S
H1404 C1381 0.950 . S
H1405 C1383 0.950 . S
C1406 C1407 1.349 . S
C1406 C1408 1.327 . S
C1406 H1431 0.950 . S
C1407 C1406 1.349 . S
C1407 C1423 1.349 . S
C1408 C1406 1.327 . S
C1408 C1427 1.429 . S
C1408 H1432 0.950 . S
C1409 C1426 1.574 1_455 S
C1409 C1428 1.368 . S
C1409 H1433 0.949 . S
H1410 C1414 0.949 . S
C1411 C1412 1.349 . S
C1411 C1413 1.327 . S
C1411 H1434 0.950 . S
C1412 C1411 1.349 . S
C1412 C1424 1.349 . S
C1413 C1411 1.327 . S
C1413 C1429 1.429 . S
C1413 H1435 0.950 . S
C1414 H1410 0.949 . S
C1414 C1422 1.574 1_655 S
C1414 C1430 1.368 . S
H1415 C1423 0.950 . S
H1416 C1421 0.950 . S
H1417 C1422 0.949 . S
H1418 C1424 0.950 . S
H1419 C1425 0.950 . S
H1420 C1426 0.949 . S
C1421 H1416 0.950 . S
C1421 C1423 1.327 . S
C1421 C1427 1.429 . S
C1422 C1414 1.574 1_455 S
C1422 H1417 0.949 . S
C1422 C1428 1.368 . S
C1423 C1407 1.349 . S
C1423 H1415 0.950 . S
C1423 C1421 1.327 . S
C1424 C1412 1.349 . S
C1424 H1418 0.950 . S
C1424 C1425 1.327 . S
C1425 H1419 0.950 . S
C1425 C1424 1.327 . S
C1425 C1429 1.429 . S
C1426 C1409 1.574 1_655 S
C1426 H1420 0.949 . S
C1426 C1430 1.368 . S
C1427 C1408 1.429 . S
C1427 C1421 1.429 . S
C1427 C1428 1.523 . S
C1428 C1409 1.368 . S
C1428 C1422 1.368 . S
C1428 C1427 1.523 . S
C1429 C1413 1.429 . S
C1429 C1425 1.429 . S
C1429 C1430 1.523 . S
C1430 C1414 1.368 . S
C1430 C1426 1.368 . S
C1430 C1429 1.523 . S
H1431 C1406 0.950 . S
H1432 C1408 0.950 . S
H1433 C1409 0.949 . S
H1434 C1411 0.950 . S
H1435 C1413 0.950 . S
C1436 C1437 1.349 . S
C1436 C1438 1.327 . S
C1436 H1461 0.950 . S
C1437 C1436 1.349 . S
C1437 C1453 1.349 . S
C1438 C1436 1.327 . S
C1438 C1457 1.429 . S
C1438 H1462 0.950 . S
C1439 C1456 1.574 . S
C1439 C1458 1.368 . S
C1439 H1463 0.949 . S
H1440 C1444 0.949 . S
C1441 C1442 1.349 . S
C1441 C1443 1.327 . S
C1441 H1464 0.950 . S
C1442 C1441 1.349 . S
C1442 C1454 1.349 . S
C1443 C1441 1.327 . S
C1443 C1459 1.429 . S
C1443 H1465 0.950 . S
C1444 H1440 0.949 . S
C1444 C1452 1.574 . S
C1444 C1460 1.368 . S
H1445 C1453 0.950 . S
H1446 C1451 0.950 . S
H1447 C1452 0.949 . S
H1448 C1454 0.950 . S
H1449 C1455 0.950 . S
H1450 C1456 0.949 . S
C1451 H1446 0.950 . S
C1451 C1453 1.327 . S
C1451 C1457 1.429 . S
C1452 C1444 1.574 . S
C1452 H1447 0.949 . S
C1452 C1458 1.368 . S
C1453 C1437 1.349 . S
C1453 H1445 0.950 . S
C1453 C1451 1.327 . S
C1454 C1442 1.349 . S
C1454 H1448 0.950 . S
C1454 C1455 1.327 . S
C1455 H1449 0.950 . S
C1455 C1454 1.327 . S
C1455 C1459 1.429 . S
C1456 C1439 1.574 . S
C1456 H1450 0.949 . S
C1456 C1460 1.368 . S
C1457 C1438 1.429 . S
C1457 C1451 1.429 . S
C1457 C1458 1.523 . S
C1458 C1439 1.368 . S
C1458 C1452 1.368 . S
C1458 C1457 1.523 . S
C1459 C1443 1.429 . S
C1459 C1455 1.429 . S
C1459 C1460 1.523 . S
C1460 C1444 1.368 . S
C1460 C1456 1.368 . S
C1460 C1459 1.523 . S
H1461 C1436 0.950 . S
H1462 C1438 0.950 . S
H1463 C1439 0.949 . S
H1464 C1441 0.950 . S
H1465 C1443 0.950 . S
C1466 C1467 1.349 . S
C1466 C1468 1.327 . S
C1466 H1491 0.950 . S
C1467 C1466 1.349 . S
C1467 C1483 1.349 . S
C1468 C1466 1.327 . S
C1468 C1487 1.429 . S
C1468 H1492 0.950 . S
C1469 C1486 1.574 . S
C1469 C1488 1.368 . S
C1469 H1493 0.949 . S
H1470 C1474 0.949 . S
C1471 C1472 1.349 . S
C1471 C1473 1.327 . S
C1471 H1494 0.950 . S
C1472 C1471 1.349 . S
C1472 C1484 1.349 . S
C1473 C1471 1.327 . S
C1473 C1489 1.429 . S
C1473 H1495 0.950 . S
C1474 H1470 0.949 . S
C1474 C1482 1.574 . S
C1474 C1490 1.368 . S
H1475 C1483 0.950 . S
H1476 C1481 0.950 . S
H1477 C1482 0.949 . S
H1478 C1484 0.950 . S
H1479 C1485 0.950 . S
H1480 C1486 0.949 . S
C1481 H1476 0.950 . S
C1481 C1483 1.327 . S
C1481 C1487 1.429 . S
C1482 C1474 1.574 . S
C1482 H1477 0.949 . S
C1482 C1488 1.368 . S
C1483 C1467 1.349 . S
C1483 H1475 0.950 . S
C1483 C1481 1.327 . S
C1484 C1472 1.349 . S
C1484 H1478 0.950 . S
C1484 C1485 1.327 . S
C1485 H1479 0.950 . S
C1485 C1484 1.327 . S
C1485 C1489 1.429 . S
C1486 C1469 1.574 . S
C1486 H1480 0.949 . S
C1486 C1490 1.368 . S
C1487 C1468 1.429 . S
C1487 C1481 1.429 . S
C1487 C1488 1.523 . S
C1488 C1469 1.368 . S
C1488 C1482 1.368 . S
C1488 C1487 1.523 . S
C1489 C1473 1.429 . S
C1489 C1485 1.429 . S
C1489 C1490 1.523 . S
C1490 C1474 1.368 . S
C1490 C1486 1.368 . S
C1490 C1489 1.523 . S
H1491 C1466 0.950 . S
H1492 C1468 0.950 . S
H1493 C1469 0.949 . S
H1494 C1471 0.950 . S
H1495 C1473 0.950 . S
C1496 C1497 1.349 . S
C1496 C1498 1.327 . S
C1496 H1521 0.950 . S
C1497 C1496 1.349 . S
C1497 C1513 1.349 . S
C1498 C1496 1.327 . S
C1498 C1517 1.429 . S
C1498 H1522 0.950 . S
C1499 C1516 1.574 . S
C1499 C1518 1.368 . S
C1499 H1523 0.949 1_554 S
H1500 C1504 0.949 . S
C1501 C1502 1.349 . S
C1501 C1503 1.327 . S
C1501 H1524 0.944 1_554 S
C1502 C1501 1.349 . S
C1502 C1514 1.349 . S
C1503 C1501 1.327 . S
C1503 C1519 1.429 . S
C1503 H1525 0.950 1_554 S
C1504 H1500 0.949 . S
C1504 C1512 1.574 . S
C1504 C1520 1.368 . S
H1505 C1513 0.944 1_556 S
H1506 C1511 0.950 1_556 S
H1507 C1512 0.949 . S
H1508 C1514 0.950 . S
H1509 C1515 0.950 . S
H1510 C1516 0.949 1_556 S
C1511 H1506 0.950 1_554 S
C1511 C1513 1.327 . S
C1511 C1517 1.429 . S
C1512 C1504 1.574 . S
C1512 H1507 0.949 . S
C1512 C1518 1.368 . S
C1513 C1497 1.349 . S
C1513 H1505 0.944 1_554 S
C1513 C1511 1.327 . S
C1514 C1502 1.349 . S
C1514 H1508 0.950 . S
C1514 C1515 1.327 . S
C1515 H1509 0.950 . S
C1515 C1514 1.327 . S
C1515 C1519 1.429 . S
C1516 C1499 1.574 . S
C1516 H1510 0.949 1_554 S
C1516 C1520 1.368 . S
C1517 C1498 1.429 . S
C1517 C1511 1.429 . S
C1517 C1518 1.523 . S
C1518 C1499 1.368 . S
C1518 C1512 1.368 . S
C1518 C1517 1.523 . S
C1519 C1503 1.429 . S
C1519 C1515 1.429 . S
C1519 C1520 1.523 . S
C1520 C1504 1.368 . S
C1520 C1516 1.368 . S
C1520 C1519 1.523 . S
H1521 C1496 0.950 . S
H1522 C1498 0.950 . S
H1523 C1499 0.949 1_556 S
H1524 C1501 0.944 1_556 S
H1525 C1503 0.950 1_556 S
C1526 C1527 1.349 . S
C1526 C1528 1.327 . S
C1526 H1551 0.950 . S
C1527 C1526 1.349 . S
C1527 C1543 1.349 . S
C1528 C1526 1.327 . S
C1528 C1547 1.429 . S
C1528 H1552 0.950 . S
C1529 C1546 1.574 . S
C1529 C1548 1.368 . S
C1529 H1553 0.949 . S
H1530 C1534 0.949 . S
C1531 C1532 1.349 . S
C1531 C1533 1.327 . S
C1531 H1554 0.950 . S
C1532 C1531 1.349 . S
C1532 C1544 1.349 . S
C1533 C1531 1.327 . S
C1533 C1549 1.429 . S
C1533 H1555 0.950 . S
C1534 H1530 0.949 . S
C1534 C1542 1.574 . S
C1534 C1550 1.368 . S
H1535 C1543 0.950 . S
H1536 C1541 0.950 . S
H1537 C1542 0.949 . S
H1538 C1544 0.950 . S
H1539 C1545 0.950 . S
H1540 C1546 0.949 . S
C1541 H1536 0.950 . S
C1541 C1543 1.327 . S
C1541 C1547 1.429 . S
C1542 C1534 1.574 . S
C1542 H1537 0.949 . S
C1542 C1548 1.368 . S
C1543 C1527 1.349 . S
C1543 H1535 0.950 . S
C1543 C1541 1.327 . S
C1544 C1532 1.349 . S
C1544 H1538 0.950 . S
C1544 C1545 1.327 . S
C1545 H1539 0.950 . S
C1545 C1544 1.327 . S
C1545 C1549 1.429 . S
C1546 C1529 1.574 . S
C1546 H1540 0.949 . S
C1546 C1550 1.368 . S
C1547 C1528 1.429 . S
C1547 C1541 1.429 . S
C1547 C1548 1.523 . S
C1548 C1529 1.368 . S
C1548 C1542 1.368 . S
C1548 C1547 1.523 . S
C1549 C1533 1.429 . S
C1549 C1545 1.429 . S
C1549 C1550 1.523 . S
C1550 C1534 1.368 . S
C1550 C1546 1.368 . S
C1550 C1549 1.523 . S
H1551 C1526 0.950 . S
H1552 C1528 0.950 . S
H1553 C1529 0.949 . S
H1554 C1531 0.950 . S
H1555 C1533 0.950 . S
C1556 C1557 1.349 . S
C1556 C1558 1.327 . S
C1556 H1581 0.950 . S
C1557 C1556 1.349 . S
C1557 C1573 1.349 . S
C1558 C1556 1.327 . S
C1558 C1577 1.429 . S
C1558 H1582 0.950 . S
C1559 C1576 1.574 . S
C1559 C1578 1.368 . S
C1559 H1583 0.949 . S
H1560 C1564 0.949 . S
C1561 C1562 1.349 . S
C1561 C1563 1.327 . S
C1561 H1584 0.950 . S
C1562 C1561 1.349 . S
C1562 C1574 1.349 . S
C1563 C1561 1.327 . S
C1563 C1579 1.429 . S
C1563 H1585 0.950 . S
C1564 H1560 0.949 . S
C1564 C1572 1.574 . S
C1564 C1580 1.368 . S
H1565 C1573 0.950 . S
H1566 C1571 0.950 . S
H1567 C1572 0.949 . S
H1568 C1574 0.950 . S
H1569 C1575 0.950 . S
H1570 C1576 0.949 . S
C1571 H1566 0.950 . S
C1571 C1573 1.327 . S
C1571 C1577 1.429 . S
C1572 C1564 1.574 . S
C1572 H1567 0.949 . S
C1572 C1578 1.368 . S
C1573 C1557 1.349 . S
C1573 H1565 0.950 . S
C1573 C1571 1.327 . S
C1574 C1562 1.349 . S
C1574 H1568 0.950 . S
C1574 C1575 1.327 . S
C1575 H1569 0.950 . S
C1575 C1574 1.327 . S
C1575 C1579 1.429 . S
C1576 C1559 1.574 . S
C1576 H1570 0.949 . S
C1576 C1580 1.368 . S
C1577 C1558 1.429 . S
C1577 C1571 1.429 . S
C1577 C1578 1.523 . S
C1578 C1559 1.368 . S
C1578 C1572 1.368 . S
C1578 C1577 1.523 . S
C1579 C1563 1.429 . S
C1579 C1575 1.429 . S
C1579 C1580 1.523 . S
C1580 C1564 1.368 . S
C1580 C1576 1.368 . S
C1580 C1579 1.523 . S
H1581 C1556 0.950 . S
H1582 C1558 0.950 . S
H1583 C1559 0.949 . S
H1584 C1561 0.950 . S
H1585 C1563 0.950 . S
C1586 C1587 1.349 . S
C1586 C1588 1.327 . S
C1586 H1611 0.950 . S
C1587 C1586 1.349 . S
C1587 C1603 1.349 . S
C1588 C1586 1.327 . S
C1588 C1607 1.429 . S
C1588 H1612 0.950 . S
C1589 C1606 1.574 1_655 S
C1589 C1608 1.368 . S
C1589 H1613 0.949 . S
H1590 C1594 0.949 . S
C1591 C1592 1.349 . S
C1591 C1593 1.327 . S
C1591 H1614 0.950 . S
C1592 C1591 1.349 . S
C1592 C1604 1.349 . S
C1593 C1591 1.327 . S
C1593 C1609 1.429 . S
C1593 H1615 0.950 . S
C1594 H1590 0.949 . S
C1594 C1602 1.574 1_455 S
C1594 C1610 1.368 . S
H1595 C1603 0.950 . S
H1596 C1601 0.950 . S
H1597 C1602 0.949 . S
H1598 C1604 0.950 . S
H1599 C1605 0.950 . S
H1600 C1606 0.949 . S
C1601 H1596 0.950 . S
C1601 C1603 1.327 . S
C1601 C1607 1.429 . S
C1602 C1594 1.574 1_655 S
C1602 H1597 0.949 . S
C1602 C1608 1.368 . S
C1603 C1587 1.349 . S
C1603 H1595 0.950 . S
C1603 C1601 1.327 . S
C1604 C1592 1.349 . S
C1604 H1598 0.950 . S
C1604 C1605 1.327 . S
C1605 H1599 0.950 . S
C1605 C1604 1.327 . S
C1605 C1609 1.429 . S
C1606 C1589 1.574 1_455 S
C1606 H1600 0.949 . S
C1606 C1610 1.368 . S
C1607 C1588 1.429 . S
C1607 C1601 1.429 . S
C1607 C1608 1.523 . S
C1608 C1589 1.368 . S
C1608 C1602 1.368 . S
C1608 C1607 1.523 . S
C1609 C1593 1.429 . S
C1609 C1605 1.429 . S
C1609 C1610 1.523 . S
C1610 C1594 1.368 . S
C1610 C1606 1.368 . S
C1610 C1609 1.523 . S
H1611 C1586 0.950 . S
H1612 C1588 0.950 . S
H1613 C1589 0.949 . S
H1614 C1591 0.950 . S
H1615 C1593 0.950 . S
C1616 C1617 1.349 . S
C1616 C1618 1.327 . S
C1616 H1641 0.950 . S
C1617 C1616 1.349 . S
C1617 C1633 1.349 . S
C1618 C1616 1.327 . S
C1618 C1637 1.429 . S
C1618 H1642 0.950 . S
C1619 C1636 1.574 . S
C1619 C1638 1.368 . S
C1619 H1643 0.949 1_554 S
H1620 C1624 0.949 . S
C1621 C1622 1.349 . S
C1621 C1623 1.327 . S
C1621 H1644 0.944 1_554 S
C1622 C1621 1.349 . S
C1622 C1634 1.349 . S
C1623 C1621 1.327 . S
C1623 C1639 1.429 . S
C1623 H1645 0.950 1_554 S
C1624 H1620 0.949 . S
C1624 C1632 1.574 . S
C1624 C1640 1.368 . S
H1625 C1633 0.944 1_556 S
H1626 C1631 0.950 1_556 S
H1627 C1632 0.949 . S
H1628 C1634 0.950 . S
H1629 C1635 0.950 . S
H1630 C1636 0.949 1_556 S
C1631 H1626 0.950 1_554 S
C1631 C1633 1.327 . S
C1631 C1637 1.429 . S
C1632 C1624 1.574 . S
C1632 H1627 0.949 . S
C1632 C1638 1.368 . S
C1633 C1617 1.349 . S
C1633 H1625 0.944 1_554 S
C1633 C1631 1.327 . S
C1634 C1622 1.349 . S
C1634 H1628 0.950 . S
C1634 C1635 1.327 . S
C1635 H1629 0.950 . S
C1635 C1634 1.327 . S
C1635 C1639 1.429 . S
C1636 C1619 1.574 . S
C1636 H1630 0.949 1_554 S
C1636 C1640 1.368 . S
C1637 C1618 1.429 . S
C1637 C1631 1.429 . S
C1637 C1638 1.523 . S
C1638 C1619 1.368 . S
C1638 C1632 1.368 . S
C1638 C1637 1.523 . S
C1639 C1623 1.429 . S
C1639 C1635 1.429 . S
C1639 C1640 1.523 . S
C1640 C1624 1.368 . S
C1640 C1636 1.368 . S
C1640 C1639 1.523 . S
H1641 C1616 0.950 . S
H1642 C1618 0.950 . S
H1643 C1619 0.949 1_556 S
H1644 C1621 0.944 1_556 S
H1645 C1623 0.950 1_556 S
C1646 C1647 1.349 . S
C1646 C1648 1.327 . S
C1646 H1671 0.950 . S
C1647 C1646 1.349 . S
C1647 C1663 1.349 . S
C1648 C1646 1.327 . S
C1648 C1667 1.429 . S
C1648 H1672 0.950 . S
C1649 C1666 1.574 . S
C1649 C1668 1.368 . S
C1649 H1673 0.949 . S
H1650 C1654 0.949 . S
C1651 C1652 1.349 . S
C1651 C1653 1.327 . S
C1651 H1674 0.950 . S
C1652 C1651 1.349 . S
C1652 C1664 1.349 . S
C1653 C1651 1.327 . S
C1653 C1669 1.429 . S
C1653 H1675 0.950 . S
C1654 H1650 0.949 . S
C1654 C1662 1.574 . S
C1654 C1670 1.368 . S
H1655 C1663 0.950 . S
H1656 C1661 0.950 . S
H1657 C1662 0.949 . S
H1658 C1664 0.950 . S
H1659 C1665 0.950 . S
H1660 C1666 0.949 . S
C1661 H1656 0.950 . S
C1661 C1663 1.327 . S
C1661 C1667 1.429 . S
C1662 C1654 1.574 . S
C1662 H1657 0.949 . S
C1662 C1668 1.368 . S
C1663 C1647 1.349 . S
C1663 H1655 0.950 . S
C1663 C1661 1.327 . S
C1664 C1652 1.349 . S
C1664 H1658 0.950 . S
C1664 C1665 1.327 . S
C1665 H1659 0.950 . S
C1665 C1664 1.327 . S
C1665 C1669 1.429 . S
C1666 C1649 1.574 . S
C1666 H1660 0.949 . S
C1666 C1670 1.368 . S
C1667 C1648 1.429 . S
C1667 C1661 1.429 . S
C1667 C1668 1.523 . S
C1668 C1649 1.368 . S
C1668 C1662 1.368 . S
C1668 C1667 1.523 . S
C1669 C1653 1.429 . S
C1669 C1665 1.429 . S
C1669 C1670 1.523 . S
C1670 C1654 1.368 . S
C1670 C1666 1.368 . S
C1670 C1669 1.523 . S
H1671 C1646 0.950 . S
H1672 C1648 0.950 . S
H1673 C1649 0.949 . S
H1674 C1651 0.950 . S
H1675 C1653 0.950 . S
C1676 C1677 1.349 . S
C1676 C1678 1.327 . S
C1676 H1701 0.950 . S
C1677 C1676 1.349 . S
C1677 C1693 1.362 . S
C1678 C1676 1.327 . S
C1678 C1697 1.429 . S
C1678 H1702 0.950 . S
C1679 C1696 1.574 . S
C1679 C1698 1.368 1_556 S
C1679 H1703 0.949 . S
H1680 C1684 0.949 . S
C1681 C1682 1.362 . S
C1681 C1683 1.327 1_554 S
C1681 H1704 0.937 1_554 S
C1682 C1681 1.362 . S
C1682 C1694 1.349 . S
C1683 C1681 1.327 1_556 S
C1683 C1699 1.428 1_556 S
C1683 H1705 0.950 . S
C1684 H1680 0.949 . S
C1684 C1692 1.574 . S
C1684 C1700 1.368 . S
H1685 C1693 0.937 1_556 S
H1686 C1691 0.950 . S
H1687 C1692 0.949 . S
H1688 C1694 0.950 . S
H1689 C1695 0.950 . S
H1690 C1696 0.949 . S
C1691 H1686 0.950 . S
C1691 C1693 1.327 1_556 S
C1691 C1697 1.428 1_556 S
C1692 C1684 1.574 . S
C1692 H1687 0.949 . S
C1692 C1698 1.368 . S
C1693 C1677 1.362 . S
C1693 H1685 0.937 1_554 S
C1693 C1691 1.327 1_554 S
C1694 C1682 1.349 . S
C1694 H1688 0.950 . S
C1694 C1695 1.327 . S
C1695 H1689 0.950 . S
C1695 C1694 1.327 . S
C1695 C1699 1.429 . S
C1696 C1679 1.574 . S
C1696 H1690 0.949 . S
C1696 C1700 1.368 1_556 S
C1697 C1678 1.429 . S
C1697 C1691 1.428 1_554 S
C1697 C1698 1.523 . S
C1698 C1679 1.368 1_554 S
C1698 C1692 1.368 . S
C1698 C1697 1.523 . S
C1699 C1683 1.428 1_554 S
C1699 C1695 1.429 . S
C1699 C1700 1.523 . S
C1700 C1684 1.368 . S
C1700 C1696 1.368 1_554 S
C1700 C1699 1.523 . S
H1701 C1676 0.950 . S
H1702 C1678 0.950 . S
H1703 C1679 0.949 . S
H1704 C1681 0.937 1_556 S
H1705 C1683 0.950 . S
C1706 C1707 1.349 . S
C1706 C1708 1.327 . S
C1706 H1731 0.950 . S
C1707 C1706 1.349 . S
C1707 C1723 1.349 . S
C1708 C1706 1.327 . S
C1708 C1727 1.429 . S
C1708 H1732 0.950 . S
C1709 C1726 1.574 . S
C1709 C1728 1.368 . S
C1709 H1733 0.949 . S
H1710 C1714 0.949 . S
C1711 C1712 1.349 . S
C1711 C1713 1.327 . S
C1711 H1734 0.950 . S
C1712 C1711 1.349 . S
C1712 C1724 1.349 . S
C1713 C1711 1.327 . S
C1713 C1729 1.429 . S
C1713 H1735 0.950 . S
C1714 H1710 0.949 . S
C1714 C1722 1.574 . S
C1714 C1730 1.368 . S
H1715 C1723 0.950 . S
H1716 C1721 0.950 . S
H1717 C1722 0.949 . S
H1718 C1724 0.950 . S
H1719 C1725 0.950 . S
H1720 C1726 0.949 . S
C1721 H1716 0.950 . S
C1721 C1723 1.327 . S
C1721 C1727 1.429 . S
C1722 C1714 1.574 . S
C1722 H1717 0.949 . S
C1722 C1728 1.368 . S
C1723 C1707 1.349 . S
C1723 H1715 0.950 . S
C1723 C1721 1.327 . S
C1724 C1712 1.349 . S
C1724 H1718 0.950 . S
C1724 C1725 1.327 . S
C1725 H1719 0.950 . S
C1725 C1724 1.327 . S
C1725 C1729 1.429 . S
C1726 C1709 1.574 . S
C1726 H1720 0.949 . S
C1726 C1730 1.368 . S
C1727 C1708 1.429 . S
C1727 C1721 1.429 . S
C1727 C1728 1.523 . S
C1728 C1709 1.368 . S
C1728 C1722 1.368 . S
C1728 C1727 1.523 . S
C1729 C1713 1.429 . S
C1729 C1725 1.429 . S
C1729 C1730 1.523 . S
C1730 C1714 1.368 . S
C1730 C1726 1.368 . S
C1730 C1729 1.523 . S
H1731 C1706 0.950 . S
H1732 C1708 0.950 . S
H1733 C1709 0.949 . S
H1734 C1711 0.950 . S
H1735 C1713 0.950 . S
C1736 C1737 1.349 . S
C1736 C1738 1.327 . S
C1736 H1761 0.950 . S
C1737 C1736 1.349 . S
C1737 C1753 1.349 . S
C1738 C1736 1.327 . S
C1738 C1757 1.429 . S
C1738 H1762 0.950 . S
C1739 C1756 1.574 . S
C1739 C1758 1.368 . S
C1739 H1763 0.949 . S
H1740 C1744 0.949 . S
C1741 C1742 1.349 . S
C1741 C1743 1.327 . S
C1741 H1764 0.950 . S
C1742 C1741 1.349 . S
C1742 C1754 1.349 . S
C1743 C1741 1.327 . S
C1743 C1759 1.429 . S
C1743 H1765 0.950 . S
C1744 H1740 0.949 . S
C1744 C1752 1.574 . S
C1744 C1760 1.368 . S
H1745 C1753 0.950 . S
H1746 C1751 0.950 . S
H1747 C1752 0.949 . S
H1748 C1754 0.950 . S
H1749 C1755 0.950 . S
H1750 C1756 0.949 . S
C1751 H1746 0.950 . S
C1751 C1753 1.327 . S
C1751 C1757 1.429 . S
C1752 C1744 1.574 . S
C1752 H1747 0.949 . S
C1752 C1758 1.368 . S
C1753 C1737 1.349 . S
C1753 H1745 0.950 . S
C1753 C1751 1.327 . S
C1754 C1742 1.349 . S
C1754 H1748 0.950 . S
C1754 C1755 1.327 . S
C1755 H1749 0.950 . S
C1755 C1754 1.327 . S
C1755 C1759 1.429 . S
C1756 C1739 1.574 . S
C1756 H1750 0.949 . S
C1756 C1760 1.368 . S
C1757 C1738 1.429 . S
C1757 C1751 1.429 . S
C1757 C1758 1.523 . S
C1758 C1739 1.368 . S
C1758 C1752 1.368 . S
C1758 C1757 1.523 . S
C1759 C1743 1.429 . S
C1759 C1755 1.429 . S
C1759 C1760 1.523 . S
C1760 C1744 1.368 . S
C1760 C1756 1.368 . S
C1760 C1759 1.523 . S
H1761 C1736 0.950 . S
H1762 C1738 0.950 . S
H1763 C1739 0.949 . S
H1764 C1741 0.950 . S
H1765 C1743 0.950 . S
C1766 C1767 1.349 . S
C1766 C1768 1.327 . S
C1766 H1791 0.950 . S
C1767 C1766 1.349 . S
C1767 C1783 1.349 . S
C1768 C1766 1.327 . S
C1768 C1787 1.429 . S
C1768 H1792 0.950 . S
C1769 C1786 1.574 1_655 S
C1769 C1788 1.368 . S
C1769 H1793 0.949 . S
H1770 C1774 0.949 . S
C1771 C1772 1.349 . S
C1771 C1773 1.327 . S
C1771 H1794 0.950 . S
C1772 C1771 1.349 . S
C1772 C1784 1.349 . S
C1773 C1771 1.327 . S
C1773 C1789 1.429 . S
C1773 H1795 0.950 . S
C1774 H1770 0.949 . S
C1774 C1782 1.574 1_455 S
C1774 C1790 1.368 . S
H1775 C1783 0.950 . S
H1776 C1781 0.950 . S
H1777 C1782 0.949 . S
H1778 C1784 0.950 . S
H1779 C1785 0.950 . S
H1780 C1786 0.949 . S
C1781 H1776 0.950 . S
C1781 C1783 1.327 . S
C1781 C1787 1.429 . S
C1782 C1774 1.574 1_655 S
C1782 H1777 0.949 . S
C1782 C1788 1.368 . S
C1783 C1767 1.349 . S
C1783 H1775 0.950 . S
C1783 C1781 1.327 . S
C1784 C1772 1.349 . S
C1784 H1778 0.950 . S
C1784 C1785 1.327 . S
C1785 H1779 0.950 . S
C1785 C1784 1.327 . S
C1785 C1789 1.429 . S
C1786 C1769 1.574 1_455 S
C1786 H1780 0.949 . S
C1786 C1790 1.368 . S
C1787 C1768 1.429 . S
C1787 C1781 1.429 . S
C1787 C1788 1.523 . S
C1788 C1769 1.368 . S
C1788 C1782 1.368 . S
C1788 C1787 1.523 . S
C1789 C1773 1.429 . S
C1789 C1785 1.429 . S
C1789 C1790 1.523 . S
C1790 C1774 1.368 . S
C1790 C1786 1.368 . S
C1790 C1789 1.523 . S
H1791 C1766 0.950 . S
H1792 C1768 0.950 . S
H1793 C1769 0.949 . S
H1794 C1771 0.950 . S
H1795 C1773 0.950 . S
C1796 C1797 1.349 . S
C1796 C1798 1.327 . S
C1796 H1821 0.950 . S
C1797 C1796 1.349 . S
C1797 C1813 1.349 . S
C1798 C1796 1.327 . S
C1798 C1817 1.429 . S
C1798 H1822 0.950 . S
C1799 C1816 1.574 1_655 S
C1799 C1818 1.368 . S
C1799 H1823 0.949 . S
H1800 C1804 0.949 . S
C1801 C1802 1.349 . S
C1801 C1803 1.327 . S
C1801 H1824 0.950 . S
C1802 C1801 1.349 . S
C1802 C1814 1.349 . S
C1803 C1801 1.327 . S
C1803 C1819 1.429 . S
C1803 H1825 0.950 . S
C1804 H1800 0.949 . S
C1804 C1812 1.574 1_455 S
C1804 C1820 1.368 . S
H1805 C1813 0.950 . S
H1806 C1811 0.950 . S
H1807 C1812 0.949 . S
H1808 C1814 0.950 . S
H1809 C1815 0.950 . S
H1810 C1816 0.949 . S
C1811 H1806 0.950 . S
C1811 C1813 1.327 . S
C1811 C1817 1.429 . S
C1812 C1804 1.574 1_655 S
C1812 H1807 0.949 . S
C1812 C1818 1.368 . S
C1813 C1797 1.349 . S
C1813 H1805 0.950 . S
C1813 C1811 1.327 . S
C1814 C1802 1.349 . S
C1814 H1808 0.950 . S
C1814 C1815 1.327 . S
C1815 H1809 0.950 . S
C1815 C1814 1.327 . S
C1815 C1819 1.429 . S
C1816 C1799 1.574 1_455 S
C1816 H1810 0.949 . S
C1816 C1820 1.368 . S
C1817 C1798 1.429 . S
C1817 C1811 1.429 . S
C1817 C1818 1.523 . S
C1818 C1799 1.368 . S
C1818 C1812 1.368 . S
C1818 C1817 1.523 . S
C1819 C1803 1.429 . S
C1819 C1815 1.429 . S
C1819 C1820 1.523 . S
C1820 C1804 1.368 . S
C1820 C1816 1.368 . S
C1820 C1819 1.523 . S
H1821 C1796 0.950 . S
H1822 C1798 0.950 . S
H1823 C1799 0.949 . S
H1824 C1801 0.950 . S
H1825 C1803 0.950 . S
C1826 C1827 1.349 . S
C1826 C1828 1.327 . S
C1826 H1851 0.950 . S
C1827 C1826 1.349 . S
C1827 C1843 1.349 . S
C1828 C1826 1.327 . S
C1828 C1847 1.429 . S
C1828 H1852 0.950 . S
C1829 C1846 1.574 . S
C1829 C1848 1.368 . S
C1829 H1853 0.949 . S
H1830 C1834 0.949 . S
C1831 C1832 1.349 . S
C1831 C1833 1.327 . S
C1831 H1854 0.950 . S
C1832 C1831 1.349 . S
C1832 C1844 1.349 . S
C1833 C1831 1.327 . S
C1833 C1849 1.429 . S
C1833 H1855 0.950 . S
C1834 H1830 0.949 . S
C1834 C1842 1.574 . S
C1834 C1850 1.368 . S
H1835 C1843 0.950 . S
H1836 C1841 0.950 . S
H1837 C1842 0.949 . S
H1838 C1844 0.950 . S
H1839 C1845 0.950 . S
H1840 C1846 0.949 . S
C1841 H1836 0.950 . S
C1841 C1843 1.327 . S
C1841 C1847 1.429 . S
C1842 C1834 1.574 . S
C1842 H1837 0.949 . S
C1842 C1848 1.368 . S
C1843 C1827 1.349 . S
C1843 H1835 0.950 . S
C1843 C1841 1.327 . S
C1844 C1832 1.349 . S
C1844 H1838 0.950 . S
C1844 C1845 1.327 . S
C1845 H1839 0.950 . S
C1845 C1844 1.327 . S
C1845 C1849 1.429 . S
C1846 C1829 1.574 . S
C1846 H1840 0.949 . S
C1846 C1850 1.368 . S
C1847 C1828 1.429 . S
C1847 C1841 1.429 . S
C1847 C1848 1.523 . S
C1848 C1829 1.368 . S
C1848 C1842 1.368 . S
C1848 C1847 1.523 . S
C1849 C1833 1.429 . S
C1849 C1845 1.429 . S
C1849 C1850 1.523 . S
C1850 C1834 1.368 . S
C1850 C1846 1.368 . S
C1850 C1849 1.523 . S
H1851 C1826 0.950 . S
H1852 C1828 0.950 . S
H1853 C1829 0.949 . S
H1854 C1831 0.950 . S
H1855 C1833 0.950 . S
C1856 C1857 1.349 . S
C1856 C1858 1.327 . S
C1856 H1881 0.950 . S
C1857 C1856 1.349 . S
C1857 C1873 1.349 . S
C1858 C1856 1.327 . S
C1858 C1877 1.429 . S
C1858 H1882 0.950 . S
C1859 C1876 1.574 . S
C1859 C1878 1.368 . S
C1859 H1883 0.949 . S
H1860 C1864 0.949 . S
C1861 C1862 1.349 . S
C1861 C1863 1.327 . S
C1861 H1884 0.950 . S
C1862 C1861 1.349 . S
C1862 C1874 1.349 . S
C1863 C1861 1.327 . S
C1863 C1879 1.429 . S
C1863 H1885 0.950 . S
C1864 H1860 0.949 . S
C1864 C1872 1.574 . S
C1864 C1880 1.368 . S
H1865 C1873 0.950 . S
H1866 C1871 0.950 . S
H1867 C1872 0.949 . S
H1868 C1874 0.950 . S
H1869 C1875 0.950 . S
H1870 C1876 0.949 . S
C1871 H1866 0.950 . S
C1871 C1873 1.327 . S
C1871 C1877 1.429 . S
C1872 C1864 1.574 . S
C1872 H1867 0.949 . S
C1872 C1878 1.368 . S
C1873 C1857 1.349 . S
C1873 H1865 0.950 . S
C1873 C1871 1.327 . S
C1874 C1862 1.349 . S
C1874 H1868 0.950 . S
C1874 C1875 1.327 . S
C1875 H1869 0.950 . S
C1875 C1874 1.327 . S
C1875 C1879 1.429 . S
C1876 C1859 1.574 . S
C1876 H1870 0.949 . S
C1876 C1880 1.368 . S
C1877 C1858 1.429 . S
C1877 C1871 1.429 . S
C1877 C1878 1.523 . S
C1878 C1859 1.368 . S
C1878 C1872 1.368 . S
C1878 C1877 1.523 . S
C1879 C1863 1.429 . S
C1879 C1875 1.429 . S
C1879 C1880 1.523 . S
C1880 C1864 1.368 . S
C1880 C1876 1.368 . S
C1880 C1879 1.523 . S
H1881 C1856 0.950 . S
H1882 C1858 0.950 . S
H1883 C1859 0.949 . S
H1884 C1861 0.950 . S
H1885 C1863 0.950 . S
C1886 C1887 1.349 . S
C1886 C1888 1.327 . S
C1886 H1911 0.950 . S
C1887 C1886 1.349 . S
C1887 C1903 1.349 . S
C1888 C1886 1.327 . S
C1888 C1907 1.429 . S
C1888 H1912 0.950 . S
C1889 C1906 1.574 . S
C1889 C1908 1.368 1_545 S
C1889 H1913 0.949 . S
H1890 C1894 0.949 . S
C1891 C1892 1.349 . S
C1891 C1893 1.327 . S
C1891 H1914 0.950 . S
C1892 C1891 1.349 . S
C1892 C1904 1.349 . S
C1893 C1891 1.327 . S
C1893 C1909 1.429 . S
C1893 H1915 0.950 . S
C1894 H1890 0.949 . S
C1894 C1902 1.574 . S
C1894 C1910 1.368 1_565 S
H1895 C1903 0.950 . S
H1896 C1901 0.950 . S
H1897 C1902 0.949 . S
H1898 C1904 0.950 . S
H1899 C1905 0.950 . S
H1900 C1906 0.949 . S
C1901 H1896 0.950 . S
C1901 C1903 1.327 . S
C1901 C1907 1.429 . S
C1902 C1894 1.574 . S
C1902 H1897 0.949 . S
C1902 C1908 1.368 . S
C1903 C1887 1.349 . S
C1903 H1895 0.950 . S
C1903 C1901 1.327 . S
C1904 C1892 1.349 . S
C1904 H1898 0.950 . S
C1904 C1905 1.327 . S
C1905 H1899 0.950 . S
C1905 C1904 1.327 . S
C1905 C1909 1.429 . S
C1906 C1889 1.574 . S
C1906 H1900 0.949 . S
C1906 C1910 1.368 . S
C1907 C1888 1.429 . S
C1907 C1901 1.429 . S
C1907 C1908 1.523 . S
C1908 C1889 1.368 1_565 S
C1908 C1902 1.368 . S
C1908 C1907 1.523 . S
C1909 C1893 1.429 . S
C1909 C1905 1.429 . S
C1909 C1910 1.523 . S
C1910 C1894 1.368 1_545 S
C1910 C1906 1.368 . S
C1910 C1909 1.523 . S
H1911 C1886 0.950 . S
H1912 C1888 0.950 . S
H1913 C1889 0.949 . S
H1914 C1891 0.950 . S
H1915 C1893 0.950 . S
C1916 C1917 1.349 . S
C1916 C1918 1.327 . S
C1916 H1941 0.950 . S
C1917 C1916 1.349 . S
C1917 C1933 1.349 . S
C1918 C1916 1.327 . S
C1918 C1937 1.429 . S
C1918 H1942 0.950 . S
C1919 C1936 1.574 . S
C1919 C1938 1.368 . S
C1919 H1943 0.949 . S
H1920 C1924 0.949 . S
C1921 C1922 1.349 . S
C1921 C1923 1.327 . S
C1921 H1944 0.950 . S
C1922 C1921 1.349 . S
C1922 C1934 1.349 . S
C1923 C1921 1.327 . S
C1923 C1939 1.429 . S
C1923 H1945 0.950 . S
C1924 H1920 0.949 . S
C1924 C1932 1.574 . S
C1924 C1940 1.368 . S
H1925 C1933 0.950 . S
H1926 C1931 0.950 . S
H1927 C1932 0.949 . S
H1928 C1934 0.950 . S
H1929 C1935 0.950 . S
H1930 C1936 0.949 . S
C1931 H1926 0.950 . S
C1931 C1933 1.327 . S
C1931 C1937 1.429 . S
C1932 C1924 1.574 . S
C1932 H1927 0.949 . S
C1932 C1938 1.368 . S
C1933 C1917 1.349 . S
C1933 H1925 0.950 . S
C1933 C1931 1.327 . S
C1934 C1922 1.349 . S
C1934 H1928 0.950 . S
C1934 C1935 1.327 . S
C1935 H1929 0.950 . S
C1935 C1934 1.327 . S
C1935 C1939 1.429 . S
C1936 C1919 1.574 . S
C1936 H1930 0.949 . S
C1936 C1940 1.368 . S
C1937 C1918 1.429 . S
C1937 C1931 1.429 . S
C1937 C1938 1.523 . S
C1938 C1919 1.368 . S
C1938 C1932 1.368 . S
C1938 C1937 1.523 . S
C1939 C1923 1.429 . S
C1939 C1935 1.429 . S
C1939 C1940 1.523 . S
C1940 C1924 1.368 . S
C1940 C1936 1.368 . S
C1940 C1939 1.523 . S
H1941 C1916 0.950 . S
H1942 C1918 0.950 . S
H1943 C1919 0.949 . S
H1944 C1921 0.950 . S
H1945 C1923 0.950 . S
C1946 C1947 1.349 . S
C1946 C1948 1.327 . S
C1946 H1971 0.950 . S
C1947 C1946 1.349 . S
C1947 C1963 1.349 . S
C1948 C1946 1.327 . S
C1948 C1967 1.429 . S
C1948 H1972 0.950 . S
C1949 C1966 1.574 . S
C1949 C1968 1.368 . S
C1949 H1973 0.949 . S
H1950 C1954 0.949 . S
C1951 C1952 1.349 . S
C1951 C1953 1.327 . S
C1951 H1974 0.950 . S
C1952 C1951 1.349 . S
C1952 C1964 1.349 . S
C1953 C1951 1.327 . S
C1953 C1969 1.429 . S
C1953 H1975 0.950 . S
C1954 H1950 0.949 . S
C1954 C1962 1.574 . S
C1954 C1970 1.368 . S
H1955 C1963 0.950 . S
H1956 C1961 0.950 . S
H1957 C1962 0.949 1_556 S
H1958 C1964 0.950 . S
H1959 C1965 0.950 . S
H1960 C1966 0.949 . S
C1961 H1956 0.950 . S
C1961 C1963 1.327 . S
C1961 C1967 1.429 . S
C1962 C1954 1.574 . S
C1962 H1957 0.949 1_554 S
C1962 C1968 1.368 1_565 S
C1963 C1947 1.349 . S
C1963 H1955 0.950 . S
C1963 C1961 1.327 . S
C1964 C1952 1.349 . S
C1964 H1958 0.950 . S
C1964 C1965 1.327 . S
C1965 H1959 0.950 . S
C1965 C1964 1.327 . S
C1965 C1969 1.429 . S
C1966 C1949 1.574 . S
C1966 H1960 0.949 . S
C1966 C1970 1.368 1_545 S
C1967 C1948 1.429 . S
C1967 C1961 1.429 . S
C1967 C1968 1.523 1_556 S
C1968 C1949 1.368 . S
C1968 C1962 1.368 1_545 S
C1968 C1967 1.523 1_554 S
C1969 C1953 1.429 . S
C1969 C1965 1.429 . S
C1969 C1970 1.523 . S
C1970 C1954 1.368 . S
C1970 C1966 1.368 1_565 S
C1970 C1969 1.523 . S
H1971 C1946 0.950 . S
H1972 C1948 0.950 . S
H1973 C1949 0.949 . S
H1974 C1951 0.950 . S
H1975 C1953 0.950 . S
C1976 C1977 1.349 . S
C1976 C1978 1.327 . S
C1976 H2001 0.950 . S
C1977 C1976 1.349 . S
C1977 C1993 1.349 . S
C1978 C1976 1.327 . S
C1978 C1997 1.429 . S
C1978 H2002 0.950 . S
C1979 C1996 1.574 . S
C1979 C1998 1.368 . S
C1979 H2003 0.949 . S
H1980 C1984 0.949 . S
C1981 C1982 1.349 . S
C1981 C1983 1.327 . S
C1981 H2004 0.950 . S
C1982 C1981 1.349 . S
C1982 C1994 1.349 . S
C1983 C1981 1.327 . S
C1983 C1999 1.429 . S
C1983 H2005 0.950 . S
C1984 H1980 0.949 . S
C1984 C1992 1.574 . S
C1984 C2000 1.368 . S
H1985 C1993 0.950 . S
H1986 C1991 0.950 . S
H1987 C1992 0.949 . S
H1988 C1994 0.950 . S
H1989 C1995 0.950 . S
H1990 C1996 0.949 . S
C1991 H1986 0.950 . S
C1991 C1993 1.327 . S
C1991 C1997 1.429 . S
C1992 C1984 1.574 . S
C1992 H1987 0.949 . S
C1992 C1998 1.368 . S
C1993 C1977 1.349 . S
C1993 H1985 0.950 . S
C1993 C1991 1.327 . S
C1994 C1982 1.349 . S
C1994 H1988 0.950 . S
C1994 C1995 1.327 . S
C1995 H1989 0.950 . S
C1995 C1994 1.327 . S
C1995 C1999 1.429 . S
C1996 C1979 1.574 . S
C1996 H1990 0.949 . S
C1996 C2000 1.368 . S
C1997 C1978 1.429 . S
C1997 C1991 1.429 . S
C1997 C1998 1.523 . S
C1998 C1979 1.368 . S
C1998 C1992 1.368 . S
C1998 C1997 1.523 . S
C1999 C1983 1.429 . S
C1999 C1995 1.429 . S
C1999 C2000 1.523 . S
C2000 C1984 1.368 . S
C2000 C1996 1.368 . S
C2000 C1999 1.523 . S
H2001 C1976 0.950 . S
H2002 C1978 0.950 . S
H2003 C1979 0.949 . S
H2004 C1981 0.950 . S
H2005 C1983 0.950 . S
C2006 C2007 1.349 . S
C2006 C2008 1.327 . S
C2006 H2031 0.950 . S
C2007 C2006 1.349 . S
C2007 C2023 1.349 . S
C2008 C2006 1.327 . S
C2008 C2027 1.429 . S
C2008 H2032 0.950 . S
C2009 C2026 1.574 . S
C2009 C2028 1.368 . S
C2009 H2033 0.949 . S
H2010 C2014 0.949 . S
C2011 C2012 1.349 . S
C2011 C2013 1.327 . S
C2011 H2034 0.950 . S
C2012 C2011 1.349 . S
C2012 C2024 1.349 . S
C2013 C2011 1.327 . S
C2013 C2029 1.429 . S
C2013 H2035 0.950 . S
C2014 H2010 0.949 . S
C2014 C2022 1.574 . S
C2014 C2030 1.368 . S
H2015 C2023 0.950 . S
H2016 C2021 0.950 . S
H2017 C2022 0.949 . S
H2018 C2024 0.950 . S
H2019 C2025 0.950 . S
H2020 C2026 0.949 . S
C2021 H2016 0.950 . S
C2021 C2023 1.327 . S
C2021 C2027 1.429 . S
C2022 C2014 1.574 . S
C2022 H2017 0.949 . S
C2022 C2028 1.368 1_565 S
C2023 C2007 1.349 . S
C2023 H2015 0.950 . S
C2023 C2021 1.327 . S
C2024 C2012 1.349 . S
C2024 H2018 0.950 . S
C2024 C2025 1.327 . S
C2025 H2019 0.950 . S
C2025 C2024 1.327 . S
C2025 C2029 1.429 . S
C2026 C2009 1.574 . S
C2026 H2020 0.949 . S
C2026 C2030 1.368 1_545 S
C2027 C2008 1.429 . S
C2027 C2021 1.429 . S
C2027 C2028 1.523 . S
C2028 C2009 1.368 . S
C2028 C2022 1.368 1_545 S
C2028 C2027 1.523 . S
C2029 C2013 1.429 . S
C2029 C2025 1.429 . S
C2029 C2030 1.523 . S
C2030 C2014 1.368 . S
C2030 C2026 1.368 1_565 S
C2030 C2029 1.523 . S
H2031 C2006 0.950 . S
H2032 C2008 0.950 . S
H2033 C2009 0.949 . S
H2034 C2011 0.950 . S
H2035 C2013 0.950 . S
C2036 C2037 1.349 . S
C2036 C2038 1.327 . S
C2036 H2061 0.950 . S
C2037 C2036 1.349 . S
C2037 C2053 1.349 . S
C2038 C2036 1.327 . S
C2038 C2057 1.429 . S
C2038 H2062 0.950 . S
C2039 C2056 1.574 . S
C2039 C2058 1.368 . S
C2039 H2063 0.949 . S
H2040 C2044 0.949 . S
C2041 C2042 1.349 . S
C2041 C2043 1.327 . S
C2041 H2064 0.950 . S
C2042 C2041 1.349 . S
C2042 C2054 1.349 . S
C2043 C2041 1.327 . S
C2043 C2059 1.429 . S
C2043 H2065 0.950 . S
C2044 H2040 0.949 . S
C2044 C2052 1.574 . S
C2044 C2060 1.368 . S
H2045 C2053 0.950 . S
H2046 C2051 0.950 . S
H2047 C2052 0.949 . S
H2048 C2054 0.950 . S
H2049 C2055 0.950 . S
H2050 C2056 0.949 . S
C2051 H2046 0.950 . S
C2051 C2053 1.327 . S
C2051 C2057 1.429 . S
C2052 C2044 1.574 . S
C2052 H2047 0.949 . S
C2052 C2058 1.368 . S
C2053 C2037 1.349 . S
C2053 H2045 0.950 . S
C2053 C2051 1.327 . S
C2054 C2042 1.349 . S
C2054 H2048 0.950 . S
C2054 C2055 1.327 . S
C2055 H2049 0.950 . S
C2055 C2054 1.327 . S
C2055 C2059 1.429 . S
C2056 C2039 1.574 . S
C2056 H2050 0.949 . S
C2056 C2060 1.368 . S
C2057 C2038 1.429 . S
C2057 C2051 1.429 . S
C2057 C2058 1.523 . S
C2058 C2039 1.368 . S
C2058 C2052 1.368 . S
C2058 C2057 1.523 . S
C2059 C2043 1.429 . S
C2059 C2055 1.429 . S
C2059 C2060 1.523 . S
C2060 C2044 1.368 . S
C2060 C2056 1.368 . S
C2060 C2059 1.523 . S
H2061 C2036 0.950 . S
H2062 C2038 0.950 . S
H2063 C2039 0.949 . S
H2064 C2041 0.950 . S
H2065 C2043 0.950 . S
C2066 C2067 1.349 . S
C2066 C2068 1.327 . S
C2066 H2091 0.950 . S
C2067 C2066 1.349 . S
C2067 C2083 1.349 . S
C2068 C2066 1.327 . S
C2068 C2087 1.429 . S
C2068 H2092 0.950 . S
C2069 C2086 1.529 1_565 S
C2069 C2088 1.368 . S
C2069 H2093 0.949 . S
H2070 C2074 0.949 . S
C2071 C2072 1.349 . S
C2071 C2073 1.327 . S
C2071 H2094 0.950 . S
C2072 C2071 1.349 . S
C2072 C2084 1.349 . S
C2073 C2071 1.327 . S
C2073 C2089 1.429 . S
C2073 H2095 0.950 . S
C2074 H2070 0.949 . S
C2074 C2082 1.529 1_545 S
C2074 C2090 1.368 . S
H2075 C2083 0.950 . S
H2076 C2081 0.950 . S
H2077 C2082 0.958 . S
H2078 C2084 0.950 . S
H2079 C2085 0.950 . S
H2080 C2086 0.958 1_556 S
C2081 H2076 0.950 . S
C2081 C2083 1.327 . S
C2081 C2087 1.429 . S
C2082 C2074 1.529 1_565 S
C2082 H2077 0.958 . S
C2082 C2088 1.409 . S
C2083 C2067 1.349 . S
C2083 H2075 0.950 . S
C2083 C2081 1.327 . S
C2084 C2072 1.349 . S
C2084 H2078 0.950 . S
C2084 C2085 1.327 . S
C2085 H2079 0.950 . S
C2085 C2084 1.327 . S
C2085 C2089 1.429 . S
C2086 C2069 1.529 1_545 S
C2086 H2080 0.958 1_554 S
C2086 C2090 1.409 . S
C2087 C2068 1.429 . S
C2087 C2081 1.429 . S
C2087 C2088 1.523 . S
C2088 C2069 1.368 . S
C2088 C2082 1.409 . S
C2088 C2087 1.523 . S
C2089 C2073 1.429 . S
C2089 C2085 1.429 . S
C2089 C2090 1.523 1_556 S
C2090 C2074 1.368 . S
C2090 C2086 1.409 . S
C2090 C2089 1.523 1_554 S
H2091 C2066 0.950 . S
H2092 C2068 0.950 . S
H2093 C2069 0.949 . S
H2094 C2071 0.950 . S
H2095 C2073 0.950 . S
C2096 C2097 1.349 . S
C2096 C2098 1.327 . S
C2096 H2121 0.950 . S
C2097 C2096 1.349 . S
C2097 C2113 1.349 . S
C2098 C2096 1.327 . S
C2098 C2117 1.429 . S
C2098 H2122 0.950 . S
C2099 C2116 1.574 . S
C2099 C2118 1.368 . S
C2099 H2123 0.949 . S
H2100 C2104 0.949 . S
C2101 C2102 1.349 . S
C2101 C2103 1.327 . S
C2101 H2124 0.950 . S
C2102 C2101 1.349 . S
C2102 C2114 1.349 . S
C2103 C2101 1.327 . S
C2103 C2119 1.429 . S
C2103 H2125 0.950 . S
C2104 H2100 0.949 . S
C2104 C2112 1.574 . S
C2104 C2120 1.368 . S
H2105 C2113 0.950 . S
H2106 C2111 0.950 . S
H2107 C2112 0.949 . S
H2108 C2114 0.950 . S
H2109 C2115 0.950 . S
H2110 C2116 0.949 . S
C2111 H2106 0.950 . S
C2111 C2113 1.327 . S
C2111 C2117 1.429 . S
C2112 C2104 1.574 . S
C2112 H2107 0.949 . S
C2112 C2118 1.368 . S
C2113 C2097 1.349 . S
C2113 H2105 0.950 . S
C2113 C2111 1.327 . S
C2114 C2102 1.349 . S
C2114 H2108 0.950 . S
C2114 C2115 1.327 . S
C2115 H2109 0.950 . S
C2115 C2114 1.327 . S
C2115 C2119 1.429 . S
C2116 C2099 1.574 . S
C2116 H2110 0.949 . S
C2116 C2120 1.368 . S
C2117 C2098 1.429 . S
C2117 C2111 1.429 . S
C2117 C2118 1.523 . S
C2118 C2099 1.368 . S
C2118 C2112 1.368 . S
C2118 C2117 1.523 . S
C2119 C2103 1.429 . S
C2119 C2115 1.429 . S
C2119 C2120 1.523 . S
C2120 C2104 1.368 . S
C2120 C2116 1.368 . S
C2120 C2119 1.523 . S
H2121 C2096 0.950 . S
H2122 C2098 0.950 . S
H2123 C2099 0.949 . S
H2124 C2101 0.950 . S
H2125 C2103 0.950 . S
C2126 C2127 1.349 . S
C2126 C2128 1.327 . S
C2126 H2151 0.950 . S
C2127 C2126 1.349 . S
C2127 C2143 1.349 . S
C2128 C2126 1.327 . S
C2128 C2147 1.429 . S
C2128 H2152 0.950 . S
C2129 C2146 1.574 . S
C2129 C2148 1.368 . S
C2129 H2153 0.949 . S
H2130 C2134 0.949 1_556 S
C2131 C2132 1.349 . S
C2131 C2133 1.327 . S
C2131 H2154 0.950 . S
C2132 C2131 1.349 . S
C2132 C2144 1.349 . S
C2133 C2131 1.327 . S
C2133 C2149 1.429 . S
C2133 H2155 0.950 . S
C2134 H2130 0.949 1_554 S
C2134 C2142 1.574 . S
C2134 C2150 1.368 . S
H2135 C2143 0.950 . S
H2136 C2141 0.950 . S
H2137 C2142 0.949 . S
H2138 C2144 0.950 . S
H2139 C2145 0.950 . S
H2140 C2146 0.949 . S
C2141 H2136 0.950 . S
C2141 C2143 1.327 . S
C2141 C2147 1.429 . S
C2142 C2134 1.574 . S
C2142 H2137 0.949 . S
C2142 C2148 1.368 . S
C2143 C2127 1.349 . S
C2143 H2135 0.950 . S
C2143 C2141 1.327 . S
C2144 C2132 1.349 . S
C2144 H2138 0.950 . S
C2144 C2145 1.327 . S
C2145 H2139 0.950 . S
C2145 C2144 1.327 . S
C2145 C2149 1.429 . S
C2146 C2129 1.574 . S
C2146 H2140 0.949 . S
C2146 C2150 1.368 . S
C2147 C2128 1.429 . S
C2147 C2141 1.429 . S
C2147 C2148 1.523 . S
C2148 C2129 1.368 . S
C2148 C2142 1.368 . S
C2148 C2147 1.523 . S
C2149 C2133 1.429 . S
C2149 C2145 1.429 . S
C2149 C2150 1.523 1_556 S
C2150 C2134 1.368 . S
C2150 C2146 1.368 . S
C2150 C2149 1.523 1_554 S
H2151 C2126 0.950 . S
H2152 C2128 0.950 . S
H2153 C2129 0.949 . S
H2154 C2131 0.950 . S
H2155 C2133 0.950 . S
C2156 C2157 1.349 . S
C2156 C2158 1.327 . S
C2156 H2181 0.950 . S
C2157 C2156 1.349 . S
C2157 C2173 1.349 . S
C2158 C2156 1.327 . S
C2158 C2177 1.429 . S
C2158 H2182 0.950 . S
C2159 C2176 1.574 . S
C2159 C2178 1.368 . S
C2159 H2183 0.949 . S
H2160 C2164 0.949 . S
C2161 C2162 1.349 . S
C2161 C2163 1.327 . S
C2161 H2184 0.950 . S
C2162 C2161 1.349 . S
C2162 C2174 1.349 . S
C2163 C2161 1.327 . S
C2163 C2179 1.429 . S
C2163 H2185 0.950 . S
C2164 H2160 0.949 . S
C2164 C2172 1.574 . S
C2164 C2180 1.368 . S
H2165 C2173 0.950 . S
H2166 C2171 0.950 . S
H2167 C2172 0.949 . S
H2168 C2174 0.950 . S
H2169 C2175 0.950 . S
H2170 C2176 0.949 . S
C2171 H2166 0.950 . S
C2171 C2173 1.327 . S
C2171 C2177 1.429 . S
C2172 C2164 1.574 . S
C2172 H2167 0.949 . S
C2172 C2178 1.368 . S
C2173 C2157 1.349 . S
C2173 H2165 0.950 . S
C2173 C2171 1.327 . S
C2174 C2162 1.349 . S
C2174 H2168 0.950 . S
C2174 C2175 1.327 . S
C2175 H2169 0.950 . S
C2175 C2174 1.327 . S
C2175 C2179 1.429 . S
C2176 C2159 1.574 . S
C2176 H2170 0.949 . S
C2176 C2180 1.368 . S
C2177 C2158 1.429 . S
C2177 C2171 1.429 . S
C2177 C2178 1.523 . S
C2178 C2159 1.368 . S
C2178 C2172 1.368 . S
C2178 C2177 1.523 . S
C2179 C2163 1.429 . S
C2179 C2175 1.429 . S
C2179 C2180 1.523 . S
C2180 C2164 1.368 . S
C2180 C2176 1.368 . S
C2180 C2179 1.523 . S
H2181 C2156 0.950 . S
H2182 C2158 0.950 . S
H2183 C2159 0.949 . S
H2184 C2161 0.950 . S
H2185 C2163 0.950 . S
C2186 C2187 1.349 . S
C2186 C2188 1.327 . S
C2186 H2211 0.950 . S
C2187 C2186 1.349 . S
C2187 C2203 1.349 . S
C2188 C2186 1.327 . S
C2188 C2207 1.429 . S
C2188 H2212 0.950 . S
C2189 C2206 1.574 . S
C2189 C2208 1.368 . S
C2189 H2213 0.949 . S
H2190 C2194 0.949 . S
C2191 C2192 1.349 . S
C2191 C2193 1.327 . S
C2191 H2214 0.950 . S
C2192 C2191 1.349 . S
C2192 C2204 1.349 . S
C2193 C2191 1.327 . S
C2193 C2209 1.429 . S
C2193 H2215 0.950 . S
C2194 H2190 0.949 . S
C2194 C2202 1.574 . S
C2194 C2210 1.368 . S
H2195 C2203 0.950 . S
H2196 C2201 0.950 . S
H2197 C2202 0.949 . S
H2198 C2204 0.950 . S
H2199 C2205 0.950 . S
H2200 C2206 0.949 . S
C2201 H2196 0.950 . S
C2201 C2203 1.327 . S
C2201 C2207 1.429 . S
C2202 C2194 1.574 . S
C2202 H2197 0.949 . S
C2202 C2208 1.368 . S
C2203 C2187 1.349 . S
C2203 H2195 0.950 . S
C2203 C2201 1.327 . S
C2204 C2192 1.349 . S
C2204 H2198 0.950 . S
C2204 C2205 1.327 . S
C2205 H2199 0.950 . S
C2205 C2204 1.327 . S
C2205 C2209 1.429 . S
C2206 C2189 1.574 . S
C2206 H2200 0.949 . S
C2206 C2210 1.368 . S
C2207 C2188 1.429 . S
C2207 C2201 1.429 . S
C2207 C2208 1.523 . S
C2208 C2189 1.368 . S
C2208 C2202 1.368 . S
C2208 C2207 1.523 . S
C2209 C2193 1.429 . S
C2209 C2205 1.429 . S
C2209 C2210 1.523 . S
C2210 C2194 1.368 . S
C2210 C2206 1.368 . S
C2210 C2209 1.523 . S
H2211 C2186 0.950 . S
H2212 C2188 0.950 . S
H2213 C2189 0.949 . S
H2214 C2191 0.950 . S
H2215 C2193 0.950 . S
C2216 C2217 1.349 . S
C2216 C2218 1.327 . S
C2216 H2241 0.950 . S
C2217 C2216 1.349 . S
C2217 C2233 1.349 . S
C2218 C2216 1.327 . S
C2218 C2237 1.429 . S
C2218 H2242 0.950 . S
C2219 C2236 1.574 . S
C2219 C2238 1.368 . S
C2219 H2243 0.949 . S
H2220 C2224 0.949 . S
C2221 C2222 1.349 . S
C2221 C2223 1.327 . S
C2221 H2244 0.950 . S
C2222 C2221 1.349 . S
C2222 C2234 1.349 . S
C2223 C2221 1.327 . S
C2223 C2239 1.429 . S
C2223 H2245 0.950 . S
C2224 H2220 0.949 . S
C2224 C2232 1.574 . S
C2224 C2240 1.368 . S
H2225 C2233 0.950 . S
H2226 C2231 0.950 . S
H2227 C2232 0.949 . S
H2228 C2234 0.950 . S
H2229 C2235 0.950 . S
H2230 C2236 0.949 . S
C2231 H2226 0.950 . S
C2231 C2233 1.327 . S
C2231 C2237 1.429 . S
C2232 C2224 1.574 . S
C2232 H2227 0.949 . S
C2232 C2238 1.368 . S
C2233 C2217 1.349 . S
C2233 H2225 0.950 . S
C2233 C2231 1.327 . S
C2234 C2222 1.349 . S
C2234 H2228 0.950 . S
C2234 C2235 1.327 . S
C2235 H2229 0.950 . S
C2235 C2234 1.327 . S
C2235 C2239 1.429 . S
C2236 C2219 1.574 . S
C2236 H2230 0.949 . S
C2236 C2240 1.368 . S
C2237 C2218 1.429 . S
C2237 C2231 1.429 . S
C2237 C2238 1.523 . S
C2238 C2219 1.368 . S
C2238 C2232 1.368 . S
C2238 C2237 1.523 . S
C2239 C2223 1.429 . S
C2239 C2235 1.429 . S
C2239 C2240 1.523 . S
C2240 C2224 1.368 . S
C2240 C2236 1.368 . S
C2240 C2239 1.523 . S
H2241 C2216 0.950 . S
H2242 C2218 0.950 . S
H2243 C2219 0.949 . S
H2244 C2221 0.950 . S
H2245 C2223 0.950 . S
C2246 C2247 1.349 . S
C2246 C2248 1.327 . S
C2246 H2271 0.950 . S
C2247 C2246 1.349 . S
C2247 C2263 1.349 . S
C2248 C2246 1.327 . S
C2248 C2267 1.429 . S
C2248 H2272 0.950 . S
C2249 C2266 1.574 . S
C2249 C2268 1.368 . S
C2249 H2273 0.949 . S
H2250 C2254 0.949 . S
C2251 C2252 1.349 . S
C2251 C2253 1.327 . S
C2251 H2274 0.950 . S
C2252 C2251 1.349 . S
C2252 C2264 1.349 . S
C2253 C2251 1.327 . S
C2253 C2269 1.429 . S
C2253 H2275 0.950 . S
C2254 H2250 0.949 . S
C2254 C2262 1.574 1_554 S
C2254 C2270 1.368 . S
H2255 C2263 0.950 . S
H2256 C2261 0.950 . S
H2257 C2262 0.949 . S
H2258 C2264 0.950 . S
H2259 C2265 0.950 . S
H2260 C2266 0.949 . S
C2261 H2256 0.950 . S
C2261 C2263 1.327 . S
C2261 C2267 1.429 . S
C2262 C2254 1.574 1_556 S
C2262 H2257 0.949 . S
C2262 C2268 1.368 1_556 S
C2263 C2247 1.349 . S
C2263 H2255 0.950 . S
C2263 C2261 1.327 . S
C2264 C2252 1.349 . S
C2264 H2258 0.950 . S
C2264 C2265 1.327 . S
C2265 H2259 0.950 . S
C2265 C2264 1.327 . S
C2265 C2269 1.429 . S
C2266 C2249 1.574 . S
C2266 H2260 0.949 . S
C2266 C2270 1.368 . S
C2267 C2248 1.429 . S
C2267 C2261 1.429 . S
C2267 C2268 1.523 1_556 S
C2268 C2249 1.368 . S
C2268 C2262 1.368 1_554 S
C2268 C2267 1.523 1_554 S
C2269 C2253 1.429 . S
C2269 C2265 1.429 . S
C2269 C2270 1.523 . S
C2270 C2254 1.368 . S
C2270 C2266 1.368 . S
C2270 C2269 1.523 . S
H2271 C2246 0.950 . S
H2272 C2248 0.950 . S
H2273 C2249 0.949 . S
H2274 C2251 0.950 . S
H2275 C2253 0.950 . S
C2276 C2277 1.349 . S
C2276 C2278 1.327 . S
C2276 H2301 0.950 . S
C2277 C2276 1.349 . S
C2277 C2293 1.349 . S
C2278 C2276 1.327 . S
C2278 C2297 1.429 . S
C2278 H2302 0.950 . S
C2279 C2296 1.574 . S
C2279 C2298 1.368 . S
C2279 H2303 0.949 . S
H2280 C2284 0.949 . S
C2281 C2282 1.349 . S
C2281 C2283 1.327 . S
C2281 H2304 0.950 . S
C2282 C2281 1.349 . S
C2282 C2294 1.349 . S
C2283 C2281 1.327 . S
C2283 C2299 1.429 . S
C2283 H2305 0.950 . S
C2284 H2280 0.949 . S
C2284 C2292 1.574 . S
C2284 C2300 1.368 . S
H2285 C2293 0.950 . S
H2286 C2291 0.950 . S
H2287 C2292 0.949 . S
H2288 C2294 0.950 . S
H2289 C2295 0.950 . S
H2290 C2296 0.949 . S
C2291 H2286 0.950 . S
C2291 C2293 1.327 . S
C2291 C2297 1.429 . S
C2292 C2284 1.574 . S
C2292 H2287 0.949 . S
C2292 C2298 1.368 . S
C2293 C2277 1.349 . S
C2293 H2285 0.950 . S
C2293 C2291 1.327 . S
C2294 C2282 1.349 . S
C2294 H2288 0.950 . S
C2294 C2295 1.327 . S
C2295 H2289 0.950 . S
C2295 C2294 1.327 . S
C2295 C2299 1.429 . S
C2296 C2279 1.574 . S
C2296 H2290 0.949 . S
C2296 C2300 1.368 . S
C2297 C2278 1.429 . S
C2297 C2291 1.429 . S
C2297 C2298 1.523 . S
C2298 C2279 1.368 . S
C2298 C2292 1.368 . S
C2298 C2297 1.523 . S
C2299 C2283 1.429 . S
C2299 C2295 1.429 . S
C2299 C2300 1.523 . S
C2300 C2284 1.368 . S
C2300 C2296 1.368 . S
C2300 C2299 1.523 . S
H2301 C2276 0.950 . S
H2302 C2278 0.950 . S
H2303 C2279 0.949 . S
H2304 C2281 0.950 . S
H2305 C2283 0.950 . S
C2306 C2307 1.349 . S
C2306 C2308 1.327 . S
C2306 H2331 0.950 . S
C2307 C2306 1.349 . S
C2307 C2323 1.349 . S
C2308 C2306 1.327 . S
C2308 C2327 1.429 . S
C2308 H2332 0.950 . S
C2309 C2326 1.574 . S
C2309 C2328 1.368 . S
C2309 H2333 0.949 . S
H2310 C2314 0.949 . S
C2311 C2312 1.349 . S
C2311 C2313 1.327 . S
C2311 H2334 0.950 . S
C2312 C2311 1.349 . S
C2312 C2324 1.349 . S
C2313 C2311 1.327 . S
C2313 C2329 1.429 . S
C2313 H2335 0.950 . S
C2314 H2310 0.949 . S
C2314 C2322 1.574 . S
C2314 C2330 1.368 . S
H2315 C2323 0.950 . S
H2316 C2321 0.950 . S
H2317 C2322 0.949 . S
H2318 C2324 0.950 . S
H2319 C2325 0.950 . S
H2320 C2326 0.949 . S
C2321 H2316 0.950 . S
C2321 C2323 1.327 . S
C2321 C2327 1.429 . S
C2322 C2314 1.574 . S
C2322 H2317 0.949 . S
C2322 C2328 1.368 . S
C2323 C2307 1.349 . S
C2323 H2315 0.950 . S
C2323 C2321 1.327 . S
C2324 C2312 1.349 . S
C2324 H2318 0.950 . S
C2324 C2325 1.327 . S
C2325 H2319 0.950 . S
C2325 C2324 1.327 . S
C2325 C2329 1.429 . S
C2326 C2309 1.574 . S
C2326 H2320 0.949 . S
C2326 C2330 1.368 . S
C2327 C2308 1.429 . S
C2327 C2321 1.429 . S
C2327 C2328 1.523 . S
C2328 C2309 1.368 . S
C2328 C2322 1.368 . S
C2328 C2327 1.523 . S
C2329 C2313 1.429 . S
C2329 C2325 1.429 . S
C2329 C2330 1.523 . S
C2330 C2314 1.368 . S
C2330 C2326 1.368 . S
C2330 C2329 1.523 . S
H2331 C2306 0.950 . S
H2332 C2308 0.950 . S
H2333 C2309 0.949 . S
H2334 C2311 0.950 . S
H2335 C2313 0.950 . S
C417 C91 1.204 . S
C422 C0 1.197 1_556 S
C447 C13 1.205 . S
C452 C52 1.205 . S
C477 C65 1.204 . S
C482 C26 1.204 . S
C507 C39 1.204 . S
C512 C78 1.204 . S
C537 C104 1.205 . S
C542 C195 1.205 . S
C567 C117 1.204 . S
C572 C156 1.197 1_556 S
C597 C130 1.204 . S
C602 C169 1.204 . S
C627 C143 1.204 . S
C632 C182 1.204 . S
C657 C208 1.204 . S
C662 C299 1.204 . S
C687 C221 1.204 . S
C692 C260 1.204 . S
C717 C273 1.204 . S
C722 C234 1.197 1_556 S
C747 C286 1.205 . S
C752 C247 1.205 . S
C777 C312 1.204 . S
C782 C403 1.204 . S
C807 C364 1.204 . S
C812 C325 1.204 . S
C837 C377 1.205 . S
C842 C338 1.205 . S
C867 C351 1.204 . S
C872 C390 1.197 1_556 S
C897 C8 0.786 . S
C902 C86 0.786 . S
C927 C21 0.786 . S
C932 C99 0.786 . S
C957 C60 0.786 . S
C962 C34 0.786 . S
C987 C47 0.786 . S
C992 C73 0.786 . S
C1017 C112 0.786 . S
C1022 C190 0.786 . S
C1047 C125 0.786 . S
C1052 C203 0.786 . S
C1077 C164 0.786 . S
C1082 C138 0.786 . S
C1107 C177 0.786 . S
C1112 C151 0.786 . S
C1137 C216 0.786 . S
C1142 C294 0.786 . S
C1167 C307 0.786 . S
C1172 C229 0.786 . S
C1197 C268 0.786 . S
C1202 C242 0.786 . S
C1227 C255 0.786 . S
C1232 C281 0.786 . S
C1257 C320 0.786 . S
C1262 C398 0.786 . S
C1287 C333 0.786 . S
C1292 C411 0.786 . S
C1317 C372 0.786 . S
C1322 C346 0.786 . S
C1347 C385 0.786 . S
C1352 C359 0.786 . S
C1377 C5 1.298 . S
C1382 C395 1.298 . S
C1407 C18 1.299 . S
C1412 C200 1.299 . S
C1437 C31 1.298 . S
C1442 C369 1.298 . S
C1467 C44 1.299 . S
C1472 C174 1.299 . S
C1497 C57 1.298 . S
C1502 C343 1.298 . S
C1527 C70 1.298 . S
C1532 C148 1.298 . S
C1557 C83 1.298 . S
C1562 C317 1.298 . S
C1587 C122 1.298 . S
C1592 C96 1.298 . S
C1617 C291 1.298 . S
C1622 C109 1.298 . S
C1647 C135 1.298 . S
C1652 C265 1.298 . S
C1677 C239 1.298 . S
C1682 C161 1.298 . S
C1707 C213 1.298 . S
C1712 C187 1.298 . S
C1737 C226 1.299 . S
C1742 C408 1.299 . S
C1767 C252 1.299 . S
C1772 C382 1.299 . S
C1797 C278 1.298 . S
C1802 C356 1.298 . S
C1827 C330 1.298 . S
C1832 C304 1.298 . S
C1857 C10 1.590 . S
C1862 C88 1.590 . S
C1887 C23 1.590 . S
C1892 C101 1.590 . S
C1917 C62 1.590 . S
C1922 C36 1.590 . S
C1947 C49 1.590 . S
C1952 C75 1.590 . S
C1977 C114 1.590 . S
C1982 C192 1.590 . S
C2007 C127 1.590 . S
C2012 C205 1.590 . S
C2037 C166 1.590 . S
C2042 C140 1.590 . S
C2067 C153 1.590 . S
C2072 C179 1.590 . S
C2097 C296 1.590 . S
C2102 C218 1.590 . S
C2127 C309 1.590 . S
C2132 C231 1.590 . S
C2157 C270 1.590 . S
C2162 C244 1.590 . S
C2187 C283 1.590 . S
C2192 C257 1.590 . S
C2217 C400 1.590 . S
C2222 C322 1.590 . S
C2247 C413 1.590 . S
C2252 C335 1.590 . S
C2277 C348 1.590 . S
C2282 C374 1.590 . S
C2307 C387 1.590 . S
C2312 C361 1.590 . S
